drugbank_target|Q969V6 MKL/myocardin-like protein 1 (DB08080)
 OpenBabel12092120483D

  0  0  0     0  0            999 V3000
M  V30 BEGIN CTAB
M  V30 COUNTS 13938 14103 0 0 0
M  V30 BEGIN ATOM
M  V30 1 H -0.908 1.98254 -0.117106 0
M  V30 2 N 0 1.576 0 0
M  V30 3 C 0.933 2.03868 1.02534 0
M  V30 4 C 1.911 0.928543 1.3348 0
M  V30 5 O 3.095 1.19667 1.45644 0
M  V30 6 C 0.222 2.43627 2.35294 0
M  V30 7 C -0.732 3.65373 2.2001 0
M  V30 8 S 0.101 5.13292 1.52614 0
M  V30 9 C 1.257 5.56322 2.86805 0
M  V30 10 H 1.49 2.90518 0.631377 0
M  V30 11 H -0.977 1.52953 0.210867 0
M  V30 12 H 0.981 2.67203 3.11629 0
M  V30 13 H -0.358 1.57376 2.7183 0
M  V30 14 H -1.165 3.90944 3.18086 0
M  V30 15 H -1.563 3.418 1.51819 0
M  V30 16 H 0.729 5.58782 3.83104 0
M  V30 17 H 1.672 6.56266 2.65933 0
M  V30 18 H 2.08 4.83886 2.90714 0
M  V30 19 N 1.4781 -0.272755 1.55222 0
M  V30 20 C 2.8891 -0.84378 1.66545 0
M  V30 21 C 3.2401 -1.87035 0.592641 0
M  V30 22 O 2.3651 -2.14761 -0.265818 0
M  V30 23 C 2.9601 -1.53723 3.01918 0
M  V30 24 C 1.5191 -2.05628 3.15268 0
M  V30 25 C 0.6661 -0.898424 2.62343 0
M  V30 26 H 3.6171 -0.0490998 1.58624 0
M  V30 27 H 3.6381 -2.40421 2.94921 0
M  V30 28 H 3.1501 -0.78983 3.79978 0
M  V30 29 H 1.2511 -2.83329 2.41983 0
M  V30 30 H 1.3641 -2.27142 4.21833 0
M  V30 31 H -0.2719 -1.29186 2.19506 0
M  V30 32 H 0.5111 -0.164528 3.42906 0
M  V30 33 N 2.9562 -1.48159 -0.537278 0
M  V30 34 C 4.3672 -1.49429 -1.11928 0
M  V30 35 C 4.7182 -0.26 -1.9447 0
M  V30 36 O 3.8432 0.633489 -2.0692 0
M  V30 37 C 4.4382 -2.70758 -2.03656 0
M  V30 38 C 2.9972 -2.74923 -2.57088 0
M  V30 39 C 2.1442 -2.42835 -1.3389 0
M  V30 40 H 5.0952 -1.55381 -0.322886 0
M  V30 41 H 5.1162 -2.48861 -2.87834 0
M  V30 42 H 4.6282 -3.60575 -1.43553 0
M  V30 43 H 2.7292 -1.89296 -3.20933 0
M  V30 44 H 2.8422 -3.76157 -2.9672 0
M  V30 45 H 1.2062 -1.93836 -1.65226 0
M  V30 46 H 1.9892 -3.34884 -0.755504 0
M  V30 47 N 4.4343 0.785586 -1.36625 0
M  V30 48 C 5.3643 1.91259 -1.33949 0
M  V30 49 C 6.3453 1.68795 -0.210325 0
M  V30 50 O 7.5303 1.89854 -0.408561 0
M  V30 51 C 4.6603 3.28339 -1.13186 0
M  V30 52 C 3.6143 3.65335 -2.22967 0
M  V30 53 C 2.9403 5.00806 -1.87342 0
M  V30 54 C 4.2403 3.7352 -3.65075 0
M  V30 55 H 5.9343 1.93755 -2.28253 0
M  V30 56 H 3.4803 0.930788 -1.09874 0
M  V30 57 H 5.4333 4.06804 -1.09948 0
M  V30 58 H 4.1573 3.2624 -0.153332 0
M  V30 59 H 2.8163 2.89169 -2.25337 0
M  V30 60 H 2.4643 4.95233 -0.880545 0
M  V30 61 H 2.1643 5.26529 -2.60846 0
M  V30 62 H 3.6883 5.81687 -1.85667 0
M  V30 63 H 5.1023 4.42168 -3.64911 0
M  V30 64 H 3.4993 4.10731 -4.37516 0
M  V30 65 H 4.5693 2.74527 -3.99703 0
M  V30 66 N 5.9124 1.20967 1.01018 0
M  V30 67 C 6.8594 0.964281 2.09691 0
M  V30 68 C 7.8294 -0.107853 1.65749 0
M  V30 69 O 9.0144 0.0381987 1.90762 0
M  V30 70 C 6.1544 0.52943 3.41015 0
M  V30 71 C 5.2674 1.67043 3.98398 0
M  V30 72 C 4.4024 1.18525 5.17808 0
M  V30 73 C 3.4414 2.29892 5.67288 0
M  V30 74 N 2.5784 1.82546 6.77954 0
M  V30 75 H 7.4184 1.89463 2.30017 0
M  V30 76 H 4.9554 0.944289 1.1279 0
M  V30 77 H 6.9134 0.258588 4.16398 0
M  V30 78 H 5.5434 -0.363919 3.20742 0
M  V30 79 H 4.5954 2.05603 3.20049 0
M  V30 80 H 5.9074 2.50877 4.31117 0
M  V30 81 H 5.0614 0.870762 6.00419 0
M  V30 82 H 3.8004 0.316887 4.86669 0
M  V30 83 H 2.8054 2.6215 4.83278 0
M  V30 84 H 4.0304 3.17216 6.00459 0
M  V30 85 H 1.9764 0.980454 6.48632 0
M  V30 86 H 1.8934 2.59956 7.09901 0
M  V30 87 H 3.1614 1.54115 7.64113 0
M  V30 88 N 7.3905 -1.2043 1.01659 0
M  V30 89 C 8.6155 -1.94318 0.724942 0
M  V30 90 C 9.0405 -1.74266 -0.708034 0
M  V30 91 O 8.3985 -1.03694 -1.48719 0
M  V30 92 C 8.4465 -3.44486 1.06591 0
M  V30 93 O 7.5505 -4.12017 0.177599 0
M  V30 94 H 6.8915 -0.60708 0.26898 0
M  V30 95 H 9.4215 -1.52861 1.35995 0
M  V30 96 H 9.4315 -3.95106 1.01762 0
M  V30 97 H 8.1065 -3.58404 2.10997 0
M  V30 98 H 6.6835 -3.71821 0.283421 0
M  V30 99 N 8.8686 -0.792821 -1.36206 0
M  V30 100 C 10.2796 -0.429513 -1.81692 0
M  V30 101 C 10.6306 1.04695 -1.65932 0
M  V30 102 O 9.7556 1.81256 -1.18218 0
M  V30 103 C 10.3506 -0.772831 -3.29868 0
M  V30 104 C 8.9096 -0.462307 -3.7355 0
M  V30 105 C 8.0566 -1.00569 -2.5842 0
M  V30 106 H 11.0076 -0.985672 -1.24379 0
M  V30 107 H 11.0286 -0.0651928 -3.80444 0
M  V30 108 H 10.5406 -1.84747 -3.41307 0
M  V30 109 H 8.6416 0.604158 -3.67669 0
M  V30 110 H 8.7546 -0.985299 -4.68859 0
M  V30 111 H 7.1186 -0.428734 -2.51066 0
M  V30 112 H 7.9016 -2.08616 -2.72643 0
M  V30 113 N 10.3467 1.47872 -0.545128 0
M  V30 114 C 11.3097 2.28337 0.198717 0
M  V30 115 C 12.3097 1.36255 0.853888 0
M  V30 116 O 13.4997 1.59003 0.711606 0
M  V30 117 C 10.6317 3.15585 1.28915 0
M  V30 118 H 11.8247 2.95567 -0.507941 0
M  V30 119 H 9.3777 1.53362 -0.301616 0
M  V30 120 H 10.1127 2.53019 2.02859 0
M  V30 121 H 9.8977 3.83337 0.824309 0
M  V30 122 H 11.3877 3.76243 1.81194 0
M  V30 123 N 11.8248 0.280983 1.55075 0
M  V30 124 C 12.7878 -0.590896 2.21452 0
M  V30 125 C 13.7878 -1.07682 1.19421 0
M  V30 126 O 14.9778 -0.97605 1.44288 0
M  V30 127 C 12.1098 -1.81587 2.88511 0
M  V30 128 H 13.3028 -0.0112554 2.99898 0
M  V30 129 H 10.8558 0.0316438 1.56268 0
M  V30 130 H 11.5908 -2.43587 2.14093 0
M  V30 131 H 11.3758 -1.4753 3.63287 0
M  V30 132 H 12.8658 -2.43575 3.39206 0
M  V30 133 N 13.3029 -1.57598 0.00835791 0
M  V30 134 C 14.5499 -1.90928 -0.674732 0
M  V30 135 C 14.8779 -0.88277 -1.73313 0
M  V30 136 O 14.1329 0.111294 -1.95383 0
M  V30 137 C 14.4319 -3.3101 -1.34787 0
M  V30 138 C 14.0979 -4.48922 -0.421861 0
M  V30 139 C 12.7599 -4.8091 -0.166927 0
M  V30 140 C 15.1119 -5.20755 0.215211 0
M  V30 141 C 12.4399 -5.821 0.733232 0
M  V30 142 C 14.7919 -6.22905 1.1033 0
M  V30 143 C 13.4559 -6.53346 1.36733 0
M  V30 144 H 12.7259 -0.698656 -0.246902 0
M  V30 145 H 15.3729 -1.91387 0.0656779 0
M  V30 146 H 13.6779 -3.26714 -2.16253 0
M  V30 147 H 15.3749 -3.54061 -1.8826 0
M  V30 148 H 11.9649 -4.23934 -0.630729 0
M  V30 149 H 16.1489 -4.9629 0.0312829 0
M  V30 150 H 11.4049 -6.04042 0.945712 0
M  V30 151 H 15.5789 -6.77694 1.60325 0
M  V30 152 H 13.2059 -7.31573 2.06652 0
M  V30 153 N 14.781 0.264519 -1.55364 0
M  V30 154 C 15.731 1.32966 -1.85214 0
M  V30 155 C 16.715 1.44306 -0.711653 0
M  V30 156 O 17.907 1.47844 -0.973192 0
M  V30 157 C 15.036 2.68839 -2.13495 0
M  V30 158 C 14.122 2.61575 -3.33825 0
M  V30 159 N 14.513 2.23933 -4.53528 0
M  V30 160 C 12.811 2.92621 -3.36584 0
M  V30 161 C 13.512 2.26868 -5.35636 0
M  V30 162 N 12.488 2.65677 -4.74254 0
M  V30 163 H 16.29 1.02884 -2.75304 0
M  V30 164 H 13.804 0.473157 -1.55354 0
M  V30 165 H 15.801 3.45685 -2.33039 0
M  V30 166 H 14.461 2.99802 -1.24694 0
M  V30 167 H 15.472 1.95769 -4.79474 0
M  V30 168 H 12.149 3.2824 -2.58002 0
M  V30 169 H 13.539 2.00254 -6.41364 0
M  V30 170 N 16.2591 1.48442 0.529413 0
M  V30 171 C 17.1691 1.6569 1.66084 0
M  V30 172 C 18.1851 0.539432 1.65427 0
M  V30 173 O 19.3611 0.810572 1.84368 0
M  V30 174 C 16.4261 1.69315 3.02545 0
M  V30 175 C 15.4871 2.92694 3.14052 0
M  V30 176 C 14.7201 2.96137 4.44003 0
M  V30 177 O 14.9431 2.07973 5.31134 0
M  V30 178 O 13.8771 3.88312 4.59888 0
M  V30 179 H 17.7031 2.61483 1.54469 0
M  V30 180 H 15.2881 1.3185 0.702567 0
M  V30 181 H 17.1701 1.74217 3.83701 0
M  V30 182 H 15.8451 0.766966 3.14483 0
M  V30 183 H 14.7521 2.93324 2.32189 0
M  V30 184 H 16.0851 3.84699 3.0703 0
M  V30 185 N 17.7372 -0.778329 1.37039 0
M  V30 186 C 18.6692 -1.90034 1.2814 0
M  V30 187 C 19.6822 -1.61585 0.198558 0
M  V30 188 O 20.8712 -1.72625 0.454175 0
M  V30 189 C 17.9712 -3.25108 0.956968 0
M  V30 190 C 17.1442 -3.81253 2.14394 0
M  V30 191 C 16.2032 -4.94789 1.79082 0
M  V30 192 O 15.2292 -5.10721 2.51301 0
M  V30 193 N 16.4312 -5.75878 0.731043 0
M  V30 194 H 19.1962 -1.98186 2.24816 0
M  V30 195 H 16.7572 -0.957129 1.30578 0
M  V30 196 H 18.7492 -3.9857 0.701701 0
M  V30 197 H 17.3192 -3.125 0.0789812 0
M  V30 198 H 16.5392 -2.99647 2.56135 0
M  V30 199 H 17.8272 -4.15495 2.93668 0
M  V30 200 H 17.2252 -5.65547 0.131618 0
M  V30 201 H 15.7822 -6.49596 0.535622 0
M  V30 202 N 19.2153 -1.21501 -1.00376 0
M  V30 203 C 20.6313 -0.972629 -1.26539 0
M  V30 204 C 20.8313 0.340257 -1.98606 0
M  V30 205 O 19.8873 1.06561 -2.28913 0
M  V30 206 C 21.2003 -2.16404 -2.08781 0
M  V30 207 C 22.7483 -2.20643 -2.22004 0
M  V30 208 C 23.2233 -3.39306 -3.07629 0
M  V30 209 N 24.7143 -3.39401 -3.15217 0
M  V30 210 C 25.4493 -4.27867 -3.81729 0
M  V30 211 N 24.9453 -5.26533 -4.5026 0
M  V30 212 N 26.7383 -4.15672 -3.78382 0
M  V30 213 H 18.8893 -2.05929 -0.520281 0
M  V30 214 H 21.1523 -0.901803 -0.292328 0
M  V30 215 H 20.8583 -3.11554 -1.63178 0
M  V30 216 H 20.7323 -2.15567 -3.09533 0
M  V30 217 H 23.1193 -1.26048 -2.66825 0
M  V30 218 H 23.2003 -2.25523 -1.20718 0
M  V30 219 H 22.8443 -4.34195 -2.63509 0
M  V30 220 H 22.7743 -3.31665 -4.09031 0
M  V30 221 H 25.2653 -2.67997 -2.66432 0
M  V30 222 H 25.5783 -5.90337 -4.98721 0
M  V30 223 H 23.9233 -5.30457 -4.49044 0
M  V30 224 H 27.1143 -3.3785 -3.23998 0
M  V30 225 H 27.2873 -4.84825 -4.2994 0
M  V30 226 N 20.6934 1.19889 -1.02296 0
M  V30 227 C 22.1094 1.41462 -0.738954 0
M  V30 228 C 22.3094 1.89721 0.678846 0
M  V30 229 O 21.3654 2.07016 1.4457 0
M  V30 230 C 22.6784 2.43083 -1.77005 0
M  V30 231 C 24.2264 2.5684 -1.78892 0
M  V30 232 C 24.7014 3.61709 -2.80945 0
M  V30 233 N 26.1924 3.69199 -2.79725 0
M  V30 234 C 26.9274 4.50019 -3.55345 0
M  V30 235 N 26.4234 5.34592 -4.40662 0
M  V30 236 N 28.2164 4.44612 -3.43914 0
M  V30 237 H 20.3674 0.868827 -1.93817 0
M  V30 238 H 22.6304 0.44399 -0.837602 0
M  V30 239 H 22.3364 2.14636 -2.78612 0
M  V30 240 H 22.2104 3.4217 -1.58744 0
M  V30 241 H 24.5974 2.84614 -0.779674 0
M  V30 242 H 24.6784 1.57927 -2.01228 0
M  V30 243 H 24.3224 3.34678 -3.82038 0
M  V30 244 H 24.2524 4.60259 -2.5587 0
M  V30 245 H 26.7434 3.08794 -2.17842 0
M  V30 246 H 27.0564 5.93363 -4.95116 0
M  V30 247 H 25.4014 5.34073 -4.44737 0
M  V30 248 H 28.5924 3.7758 -2.76679 0
M  V30 249 H 28.7654 5.0736 -4.031 0
M  V30 250 N 22.1715 0.800033 1.35784 0
M  V30 251 C 23.3965 0.388511 2.03729 0
M  V30 252 C 23.8215 -0.990481 1.5991 0
M  V30 253 O 23.1795 -1.64013 0.772612 0
M  V30 254 C 23.2275 0.4726 3.5749 0
M  V30 255 O 22.3315 -0.51646 4.09153 0
M  V30 256 H 21.6725 0.163271 0.643614 0
M  V30 257 H 24.2025 1.0841 1.73518 0
M  V30 258 H 24.2125 0.34003 4.06581 0
M  V30 259 H 22.8875 1.47848 3.88734 0
M  V30 260 H 21.4645 -0.344673 3.71304 0
M  V30 261 N 23.6496 -1.47581 0.552962 0
M  V30 262 C 24.5796 -2.32762 -0.185451 0
M  V30 263 C 25.5606 -1.43527 -0.912905 0
M  V30 264 O 26.7456 -1.72388 -0.894201 0
M  V30 265 C 23.8756 -3.25219 -1.21859 0
M  V30 266 C 22.8296 -4.23661 -0.607864 0
M  V30 267 C 22.1556 -5.05413 -1.74533 0
M  V30 268 C 23.4556 -5.20481 0.435582 0
M  V30 269 H 25.1496 -2.94749 0.525684 0
M  V30 270 H 22.6956 -1.41738 0.254251 0
M  V30 271 H 24.6486 -3.8365 -1.7433 0
M  V30 272 H 23.3726 -2.61279 -1.95961 0
M  V30 273 H 22.0316 -3.66451 -0.104489 0
M  V30 274 H 21.6796 -4.3788 -2.47529 0
M  V30 275 H 21.3796 -5.72059 -1.34249 0
M  V30 276 H 22.9036 -5.66701 -2.27338 0
M  V30 277 H 24.3176 -5.733 -0.00290157 0
M  V30 278 H 22.7146 -5.95305 0.757067 0
M  V30 279 H 23.7846 -4.66217 1.33303 0
M  V30 280 N 25.1277 -0.289203 -1.54924 0
M  V30 281 C 26.0377 0.601863 -2.26748 0
M  V30 282 C 27.0537 1.15834 -1.2984 0
M  V30 283 O 28.2297 1.18564 -1.62802 0
M  V30 284 C 25.2947 1.76299 -2.98529 0
M  V30 285 C 24.3557 1.24178 -4.10948 0
M  V30 286 C 23.5887 2.34757 -4.79296 0
M  V30 287 O 23.8117 3.54411 -4.46933 0
M  V30 288 O 22.7457 2.02115 -5.66951 0
M  V30 289 H 26.5717 0.0195879 -3.03694 0
M  V30 290 H 24.1567 -0.0560868 -1.49295 0
M  V30 291 H 26.0387 2.43973 -3.43592 0
M  V30 292 H 24.7137 2.33209 -2.24488 0
M  V30 293 H 23.6207 0.531104 -3.70311 0
M  V30 294 H 24.9537 0.718252 -4.86931 0
M  V30 295 N 26.6058 1.57591 -0.0167156 0
M  V30 296 C 28.0218 1.55946 0.339557 0
M  V30 297 C 28.2218 1.02109 1.73713 0
M  V30 298 O 27.2778 0.662303 2.43659 0
M  V30 299 C 28.5908 3.00037 0.199499 0
M  V30 300 C 30.1388 3.11805 0.273193 0
M  V30 301 C 30.6138 4.57713 0.162068 0
M  V30 302 N 32.1048 4.6268 0.219444 0
M  V30 303 C 32.8398 5.73185 0.157054 0
M  V30 304 N 32.3358 6.92786 0.0442936 0
M  V30 305 N 34.1288 5.61707 0.21014 0
M  V30 306 H 26.2798 1.90921 -0.930758 0
M  V30 307 H 28.5428 0.877674 -0.358319 0
M  V30 308 H 28.2488 3.4333 -0.76273 0
M  V30 309 H 28.1228 3.64387 0.974786 0
M  V30 310 H 30.5098 2.68433 1.22587 0
M  V30 311 H 30.5908 2.50201 -0.532256 0
M  V30 312 H 30.2348 5.01763 -0.78714 0
M  V30 313 H 30.1648 5.17283 0.986222 0
M  V30 314 H 32.6558 3.76649 0.307246 0
M  V30 315 H 32.9688 7.728 0.00304069 0
M  V30 316 H 31.3138 6.94999 0.00968457 0
M  V30 317 H 34.5048 4.6716 0.296546 0
M  V30 318 H 34.6778 6.47807 0.158054 0
M  V30 319 N 28.0839 -0.256276 1.55502 0
M  V30 320 C 29.0469 -1.30047 1.88734 0
M  V30 321 C 30.0469 -1.4154 0.763086 0
M  V30 322 O 31.2369 -1.40403 1.03115 0
M  V30 323 C 28.3689 -2.67953 2.10747 0
M  V30 324 H 29.5619 -1.01802 2.82093 0
M  V30 325 H 27.1149 -0.495134 1.4825 0
M  V30 326 H 27.8499 -3.01351 1.19825 0
M  V30 327 H 27.6349 -2.60993 2.92617 0
M  V30 328 H 29.1249 -3.43368 2.37673 0
M  V30 329 N 29.562 -1.4872 -0.521534 0
M  V30 330 C 30.978 -1.35028 -0.850855 0
M  V30 331 C 31.178 -0.367712 -1.98116 0
M  V30 332 O 30.234 0.208037 -2.51642 0
M  V30 333 C 31.547 -2.75263 -1.21041 0
M  V30 334 C 33.095 -2.83813 -1.31981 0
M  V30 335 C 33.57 -4.24769 -1.71276 0
M  V30 336 N 35.061 -4.27482 -1.78363 0
M  V30 337 C 35.796 -5.33494 -2.1017 0
M  V30 338 N 35.292 -6.49775 -2.40343 0
M  V30 339 N 37.085 -5.20894 -2.11248 0
M  V30 340 H 29.236 -2.11214 0.22413 0
M  V30 341 H 31.499 -0.947252 0.0376439 0
M  V30 342 H 31.205 -3.48765 -0.453415 0
M  V30 343 H 31.079 -3.09327 -2.15863 0
M  V30 344 H 33.466 -2.10561 -2.06756 0
M  V30 345 H 33.547 -2.53358 -0.352596 0
M  V30 346 H 33.191 -4.9854 -0.970588 0
M  V30 347 H 33.121 -4.52673 -2.69062 0
M  V30 348 H 35.612 -3.43611 -1.57288 0
M  V30 349 H 35.925 -7.26402 -2.63743 0
M  V30 350 H 34.27 -6.53035 -2.37844 0
M  V30 351 H 37.461 -4.29065 -1.87139 0
M  V30 352 H 37.634 -6.03612 -2.35704 0
M  V30 353 N 31.0401 0.771051 -1.3745 0
M  V30 354 C 32.2681 1.56015 -1.35893 0
M  V30 355 C 32.6831 1.88718 0.0555523 0
M  V30 356 O 32.0401 1.51502 1.01752 0
M  V30 357 C 32.0911 2.87001 -2.19801 0
M  V30 358 O 31.8121 2.557 -3.55738 0
M  V30 359 C 33.3131 3.81228 -2.26231 0
M  V30 360 H 30.5331 0.483317 -0.465453 0
M  V30 361 H 33.0771 0.955611 -1.80799 0
M  V30 362 H 31.2321 3.43877 -1.78402 0
M  V30 363 H 31.6461 3.39584 -3.99729 0
M  V30 364 H 33.1201 4.70139 -2.89263 0
M  V30 365 H 33.5971 4.20409 -1.27093 0
M  V30 366 H 34.2031 3.30281 -2.67945 0
M  V30 367 N 32.5182 1.22032 0.997298 0
M  V30 368 C 33.4282 1.00271 2.12092 0
M  V30 369 C 34.4442 -0.047621 1.73935 0
M  V30 370 O 35.6202 0.144136 2.00884 0
M  V30 371 C 32.6852 0.578449 3.4184 0
M  V30 372 C 31.7462 1.70189 3.94125 0
M  V30 373 C 30.9792 1.29778 5.17681 0
M  V30 374 O 31.2022 0.174676 5.70132 0
M  V30 375 O 30.1362 2.11261 5.63607 0
M  V30 376 H 33.9622 1.94398 2.3333 0
M  V30 377 H 31.5472 1.00587 1.10465 0
M  V30 378 H 33.4292 0.351998 4.19927 0
M  V30 379 H 32.1042 -0.334019 3.21972 0
M  V30 380 H 31.0112 1.98282 3.1723 0
M  V30 381 H 32.3442 2.59206 4.18417 0
M  V30 382 N 33.9963 -1.19345 1.0293 0
M  V30 383 C 35.2733 -1.84811 0.640642 0
M  V30 384 C 35.6533 -1.91855 -0.88062 0
M  V30 385 O 35.0013 -1.43587 -1.7775 0
M  V30 386 C 35.2113 -3.23755 1.30321 0
M  V30 387 C 36.5593 -3.99912 1.42673 0
M  V30 388 O 37.5833 -3.33155 1.26041 0
M  V30 389 O 36.4423 -5.19494 1.6967 0
M  V30 390 H 33.5363 -0.796443 0.222726 0
M  V30 391 H 36.0823 -1.26831 1.12748 0
M  V30 392 H 34.8543 -3.13466 2.34211 0
M  V30 393 H 34.4773 -3.89381 0.804261 0
M  V30 394 N 35.4744 -0.807222 -1.35358 0
M  V30 395 C 36.7044 -0.399796 -2.02695 0
M  V30 396 C 37.1124 0.994176 -1.60974 0
M  V30 397 O 36.4554 1.65209 -0.803226 0
M  V30 398 C 36.5174 -0.404445 -3.57218 0
M  V30 399 C 36.1814 -1.74904 -4.22206 0
M  V30 400 C 37.1784 -2.70743 -4.4384 0
M  V30 401 C 34.8634 -2.03322 -4.5931 0
M  V30 402 C 36.8574 -3.93183 -5.01683 0
M  V30 403 C 34.5444 -3.26026 -5.16866 0
M  V30 404 C 35.5424 -4.20774 -5.37994 0
M  V30 405 O 35.2304 -5.41312 -5.94337 0
M  V30 406 H 34.9624 -0.160517 -0.656666 0
M  V30 407 H 37.5164 -1.09235 -1.73945 0
M  V30 408 H 35.7464 0.344707 -3.85161 0
M  V30 409 H 37.4354 -0.0192429 -4.05895 0
M  V30 410 H 38.2014 -2.5008 -4.15554 0
M  V30 411 H 34.0804 -1.30384 -4.42178 0
M  V30 412 H 37.6244 -4.6715 -5.1809 0
M  V30 413 H 33.5214 -3.46559 -5.44579 0
M  V30 414 H 34.2894 -5.42618 -6.12787 0
M  V30 415 N 36.9525 1.47285 -0.560781 0
M  V30 416 C 37.8825 2.32857 0.173105 0
M  V30 417 C 38.8635 1.44009 0.905281 0
M  V30 418 O 40.0485 1.7286 0.885046 0
M  V30 419 C 37.1785 3.25861 1.20133 0
M  V30 420 C 36.1325 4.23978 0.585388 0
M  V30 421 C 35.4585 5.06332 1.7185 0
M  V30 422 C 36.7585 5.20242 -0.463178 0
M  V30 423 H 38.4525 2.94466 -0.541307 0
M  V30 424 H 35.9985 1.41601 -0.261764 0
M  V30 425 H 37.9515 3.84569 1.72293 0
M  V30 426 H 36.6755 2.62315 1.94573 0
M  V30 427 H 35.3345 3.66501 0.085054 0
M  V30 428 H 34.9825 4.39186 2.45203 0
M  V30 429 H 34.6825 5.72762 1.31213 0
M  V30 430 H 36.2065 5.67899 2.24329 0
M  V30 431 H 37.6205 5.73293 -0.027502 0
M  V30 432 H 36.0175 5.94896 -0.788627 0
M  V30 433 H 37.0875 4.65504 -1.35773 0
M  V30 434 N 38.4306 0.297415 1.54768 0
M  V30 435 C 39.3776 -0.580276 2.23386 0
M  V30 436 C 40.3476 -1.13238 1.21517 0
M  V30 437 O 41.5326 -1.17757 1.50126 0
M  V30 438 C 38.6726 -1.74801 2.97555 0
M  V30 439 C 37.7856 -1.22764 4.1419 0
M  V30 440 C 36.9206 -2.35895 4.75949 0
M  V30 441 C 35.9596 -1.80974 5.84735 0
M  V30 442 N 35.0966 -2.87664 6.40464 0
M  V30 443 H 39.9366 0.0114833 2.97998 0
M  V30 444 H 37.4736 0.0174361 1.4709 0
M  V30 445 H 39.4316 -2.43475 3.38786 0
M  V30 446 H 38.0616 -2.31145 2.25326 0
M  V30 447 H 37.1136 -0.433271 3.77924 0
M  V30 448 H 38.4256 -0.785551 4.92575 0
M  V30 449 H 37.5796 -3.12523 5.20014 0
M  V30 450 H 36.3186 -2.83429 3.96887 0
M  V30 451 H 35.3236 -1.02834 5.40097 0
M  V30 452 H 36.5486 -1.34348 6.65678 0
M  V30 453 H 34.4946 -3.34538 5.64287 0
M  V30 454 H 34.4116 -2.4794 7.14186 0
M  V30 455 H 35.6796 -3.642 6.89187 0
M  V30 456 N 39.9087 -1.5758 0.0250728 0
M  V30 457 C 41.3247 -1.56124 -0.331282 0
M  V30 458 C 41.5247 -1.03029 -1.73169 0
M  V30 459 O 40.5807 -0.675215 -2.43305 0
M  V30 460 C 41.8937 -3.00139 -0.183584 0
M  V30 461 C 43.4417 -3.11946 -0.256654 0
M  V30 462 C 43.9167 -4.57793 -0.137792 0
M  V30 463 N 45.4077 -4.6279 -0.194904 0
M  V30 464 C 46.1427 -5.7326 -0.126655 0
M  V30 465 N 45.6387 -6.928 -0.00755288 0
M  V30 466 N 47.4317 -5.61811 -0.180348 0
M  V30 467 H 39.5827 -1.90424 0.94087 0
M  V30 468 H 41.8457 -0.875761 0.362968 0
M  V30 469 H 41.5517 -3.4292 0.780927 0
M  V30 470 H 41.4257 -3.64899 -0.955448 0
M  V30 471 H 43.8127 -2.69079 -1.21162 0
M  V30 472 H 43.8937 -2.49915 0.545517 0
M  V30 473 H 43.5377 -5.01339 0.813739 0
M  V30 474 H 43.4677 -5.17798 -0.958775 0
M  V30 475 H 45.9587 -3.76807 -0.287267 0
M  V30 476 H 46.2717 -7.72791 0.0379428 0
M  V30 477 H 44.6167 -6.94995 0.0271731 0
M  V30 478 H 47.8077 -4.6731 -0.271767 0
M  V30 479 H 47.9807 -6.47882 -0.123697 0
M  V30 480 N 41.3868 0.248026 -1.55636 0
M  V30 481 C 42.3338 1.30707 -1.90222 0
M  V30 482 C 43.3038 1.47881 -0.756332 0
M  V30 483 O 44.4888 1.61883 -1.00988 0
M  V30 484 C 41.6288 2.65769 -2.20138 0
M  V30 485 C 40.7418 2.56612 -3.47526 0
M  V30 486 C 39.8768 3.8402 -3.67017 0
M  V30 487 C 38.9158 3.69476 -4.8801 0
M  V30 488 N 38.0528 4.88774 -5.04029 0
M  V30 489 H 42.8928 1.00512 -2.80538 0
M  V30 490 H 40.4298 0.485055 -1.38873 0
M  V30 491 H 42.3878 3.44386 -2.35487 0
M  V30 492 H 41.0178 2.94115 -1.33027 0
M  V30 493 H 40.0698 1.69571 -3.40514 0
M  V30 494 H 41.3818 2.41774 -4.36287 0
M  V30 495 H 40.5358 4.7108 -3.8232 0
M  V30 496 H 39.2748 4.01754 -2.76487 0
M  V30 497 H 38.2798 2.80799 -4.72686 0
M  V30 498 H 39.5048 3.53238 -5.8 0
M  V30 499 H 37.4508 5.0687 -4.16435 0
M  V30 500 H 37.3678 4.76562 -5.86877 0
M  V30 501 H 38.6358 5.77335 -5.23741 0
M  V30 502 N 42.8649 1.48995 0.513639 0
M  V30 503 C 44.1139 1.57093 1.2651 0
M  V30 504 C 44.4269 0.257091 1.93903 0
M  V30 505 O 45.6329 0.216478 2.70636 0
M  V30 506 C 44.0889 2.77118 2.29638 0
M  V30 507 C 43.6969 4.15209 1.68241 0
M  V30 508 C 45.4409 2.94538 3.05692 0
M  V30 509 C 43.3479 5.26474 2.69406 0
M  V30 510 H 42.2779 0.584876 0.475854 0
M  V30 511 H 44.9289 1.7536 0.540487 0
M  V30 512 H 43.3109 2.52319 3.05207 0
M  V30 513 H 44.4849 4.50094 0.987505 0
M  V30 514 H 42.7999 4.03042 1.04623 0
M  V30 515 H 45.3969 3.74832 3.8132 0
M  V30 516 H 45.7399 2.04614 3.62545 0
M  V30 517 H 46.2729 3.19316 2.37238 0
M  V30 518 H 43.0119 6.18417 2.17351 0
M  V30 519 H 42.5319 4.96058 3.37175 0
M  V30 520 H 44.2109 5.55277 3.32078 0
M  V30 521 N 44.343 -0.763751 1.37857 0
M  V30 522 C 45.759 -1.06542 1.18832 0
M  V30 523 C 45.959 -2.01478 0.0299722 0
M  V30 524 O 45.015 -2.4458 -0.627447 0
M  V30 525 C 46.328 -1.65525 2.51042 0
M  V30 526 C 47.876 -1.77745 2.57635 0
M  V30 527 C 48.351 -2.4014 3.89996 0
M  V30 528 N 49.842 -2.47582 3.91481 0
M  V30 529 C 50.577 -2.96732 4.9065 0
M  V30 530 N 50.073 -3.45993 6.00217 0
M  V30 531 N 51.866 -2.95679 4.78048 0
M  V30 532 H 44.017 -0.133556 2.1198 0
M  V30 533 H 46.28 -0.121879 0.940133 0
M  V30 534 H 45.986 -1.03236 3.36207 0
M  V30 535 H 45.86 -2.64719 2.68707 0
M  V30 536 H 48.247 -2.39164 1.72872 0
M  V30 537 H 48.328 -0.772836 2.43846 0
M  V30 538 H 47.972 -1.79358 4.75177 0
M  V30 539 H 47.902 -3.41223 4.01092 0
M  V30 540 H 50.393 -2.1273 3.12337 0
M  V30 541 H 50.706 -3.81922 6.7183 0
M  V30 542 H 49.051 -3.44077 6.03851 0
M  V30 543 H 52.242 -2.56499 3.91568 0
M  V30 544 H 52.415 -3.33672 5.55488 0
M  V30 545 N 45.8211 -1.22559 -0.990812 0
M  V30 546 C 47.0461 -1.07862 -1.77145 0
M  V30 547 C 47.4711 0.366447 -1.84496 0
M  V30 548 O 46.8291 1.26478 -1.29896 0
M  V30 549 C 46.8771 -1.69686 -3.18181 0
M  V30 550 O 45.9811 -0.951946 -4.01263 0
M  V30 551 H 45.3221 -0.378712 -0.545411 0
M  V30 552 H 47.8521 -1.62399 -1.2445 0
M  V30 553 H 47.8621 -1.74496 -3.68802 0
M  V30 554 H 46.5371 -2.74841 -3.12146 0
M  V30 555 H 45.1141 -0.980011 -3.59792 0
M  V30 556 N 47.2992 1.18797 -1.03562 0
M  V30 557 C 48.7152 1.40671 -0.753917 0
M  V30 558 C 48.9152 1.9043 0.658686 0
M  V30 559 O 47.9712 2.08538 1.42366 0
M  V30 560 C 49.2842 2.41192 -1.79574 0
M  V30 561 C 50.8322 2.54928 -1.81606 0
M  V30 562 C 51.3072 3.58709 -2.84766 0
M  V30 563 N 52.7982 3.66212 -2.83625 0
M  V30 564 C 53.5332 4.46225 -3.60098 0
M  V30 565 N 53.0292 5.29888 -4.46308 0
M  V30 566 N 54.8222 4.40939 -3.4861 0
M  V30 567 H 46.9732 0.848221 -1.94728 0
M  V30 568 H 49.2362 0.435081 -0.842264 0
M  V30 569 H 48.9422 2.11669 -2.80872 0
M  V30 570 H 48.8162 3.40467 -1.62365 0
M  V30 571 H 51.2032 2.83771 -0.809817 0
M  V30 572 H 51.2842 1.55784 -2.02891 0
M  V30 573 H 50.9282 3.30607 -3.85566 0
M  V30 574 H 50.8582 4.57519 -2.60737 0
M  V30 575 H 53.3492 3.06466 -2.21105 0
M  V30 576 H 53.6622 5.88078 -5.01382 0
M  V30 577 H 52.0072 5.29326 -4.50377 0
M  V30 578 H 55.1982 3.74624 -2.80668 0
M  V30 579 H 55.3712 5.03056 -4.08459 0
M  V30 580 N 48.7773 0.814389 1.34928 0
M  V30 581 C 50.1883 0.458364 1.80986 0
M  V30 582 C 50.5393 -1.02042 1.67577 0
M  V30 583 O 49.6643 -1.79352 1.21086 0
M  V30 584 C 50.2593 0.825212 3.28597 0
M  V30 585 C 48.8183 0.521677 3.72767 0
M  V30 586 C 47.9653 1.04668 2.56788 0
M  V30 587 H 50.9163 1.00533 1.22795 0
M  V30 588 H 50.9373 0.12571 3.80292 0
M  V30 589 H 50.4493 1.90154 3.38324 0
M  V30 590 H 48.5503 -0.545589 3.68584 0
M  V30 591 H 48.6633 1.05977 4.67232 0
M  V30 592 H 47.0273 0.468622 2.50352 0
M  V30 593 H 47.8103 2.12927 2.6929 0
M  V30 594 N 50.2554 -1.46986 0.568584 0
M  V30 595 C 51.1654 -2.33942 -0.17555 0
M  V30 596 C 52.1814 -1.48891 -0.90041 0
M  V30 597 O 53.3574 -1.81794 -0.86676 0
M  V30 598 C 50.4224 -3.25811 -1.18524 0
M  V30 599 C 49.4834 -4.26757 -0.466582 0
M  V30 600 C 48.7164 -5.14236 -1.42817 0
M  V30 601 O 48.9394 -5.04379 -2.66379 0
M  V30 602 O 47.8734 -5.94412 -0.946453 0
M  V30 603 H 51.6994 -2.98896 0.538036 0
M  V30 604 H 49.2844 -1.4573 0.329097 0
M  V30 605 H 51.1664 -3.82527 -1.76779 0
M  V30 606 H 49.8414 -2.63471 -1.88055 0
M  V30 607 H 48.7484 -3.73769 0.157451 0
M  V30 608 H 50.0814 -4.91843 0.187485 0
M  V30 609 N 51.7335 -0.305618 -1.54608 0
M  V30 610 C 53.1495 0.0476228 -1.59529 0
M  V30 611 C 53.3495 1.52025 -1.32252 0
M  V30 612 O 52.4055 2.27368 -1.09818 0
M  V30 613 C 53.7185 -0.354471 -2.98603 0
M  V30 614 C 55.2665 -0.303622 -3.11524 0
M  V30 615 C 55.7415 -0.680608 -4.52915 0
M  V30 616 N 57.2325 -0.63332 -4.5885 0
M  V30 617 C 57.9675 -0.897432 -5.66334 0
M  V30 618 N 57.4635 -1.22775 -6.81834 0
M  V30 619 N 59.2565 -0.824186 -5.56025 0
M  V30 620 H 51.4075 -1.2653 -1.70599 0
M  V30 621 H 53.6705 -0.513291 -0.797017 0
M  V30 622 H 53.3765 -1.3798 -3.23503 0
M  V30 623 H 53.2505 0.289568 -3.76087 0
M  V30 624 H 55.6375 0.712472 -2.8637 0
M  V30 625 H 55.7185 -0.982348 -2.36185 0
M  V30 626 H 55.3625 -1.69453 -4.78799 0
M  V30 627 H 55.2925 0.0202385 -5.26596 0
M  V30 628 H 57.7835 -0.389138 -3.75891 0
M  V30 629 H 58.0965 -1.41513 -7.59733 0
M  V30 630 H 56.4415 -1.26583 -6.83375 0
M  V30 631 H 59.6325 -0.565748 -4.64669 0
M  V30 632 H 59.8055 -1.03338 -6.39707 0
M  V30 633 N 53.2116 1.57565 -0.0334293 0
M  V30 634 C 54.4366 1.96689 0.657895 0
M  V30 635 C 54.8616 0.910057 1.64619 0
M  V30 636 O 54.2196 -0.128598 1.80843 0
M  V30 637 C 54.2676 3.34905 1.33683 0
M  V30 638 O 53.3716 3.31574 2.45219 0
M  V30 639 H 52.7126 0.641205 0.172489 0
M  V30 640 H 55.2426 2.04372 -0.0965621 0
M  V30 641 H 55.2526 3.71234 1.69262 0
M  V30 642 H 53.9276 4.11366 0.612411 0
M  V30 643 H 52.5046 3.06968 2.11719 0
M  V30 644 N 54.6897 -0.239769 1.55765 0
M  V30 645 C 55.5997 -1.31831 1.94056 0
M  V30 646 C 56.6157 -1.52275 0.841925 0
M  V30 647 O 57.7917 -1.65759 1.14394 0
M  V30 648 C 54.8567 -2.65156 2.23368 0
M  V30 649 C 53.9177 -2.53173 3.46701 0
M  V30 650 C 53.1507 -3.8014 3.74606 0
M  V30 651 O 53.3737 -4.82343 3.04469 0
M  V30 652 O 52.3077 -3.78344 4.68123 0
M  V30 653 H 56.1337 -1.02347 2.85935 0
M  V30 654 H 53.7187 -0.441123 1.42739 0
M  V30 655 H 55.6007 -3.43929 2.43497 0
M  V30 656 H 54.2757 -2.94358 1.34666 0
M  V30 657 H 53.1827 -1.72662 3.31871 0
M  V30 658 H 54.5157 -2.28915 4.35728 0
M  V30 659 N 56.1678 -1.49265 -0.50573 0
M  V30 660 C 57.0978 -1.68495 -1.61653 0
M  V30 661 C 58.0788 -0.53366 -1.61512 0
M  V30 662 O 59.2638 -0.76897 -1.78327 0
M  V30 663 C 56.3938 -1.74709 -3.00157 0
M  V30 664 C 55.3478 -2.89581 -3.15162 0
M  V30 665 C 54.6738 -2.80903 -4.5497 0
M  V30 666 C 55.9738 -4.30578 -2.95634 0
M  V30 667 H 57.6678 -2.61493 -1.45814 0
M  V30 668 H 55.2138 -1.25838 -0.70005 0
M  V30 669 H 57.1668 -1.86748 -3.77761 0
M  V30 670 H 55.8908 -0.783067 -3.17074 0
M  V30 671 H 54.5498 -2.77136 -2.39982 0
M  V30 672 H 54.1978 -1.82419 -4.68756 0
M  V30 673 H 53.8978 -3.57999 -4.65951 0
M  V30 674 H 55.4218 -2.94944 -5.34641 0
M  V30 675 H 56.8358 -4.4373 -3.63011 0
M  V30 676 H 55.2328 -5.0886 -3.18091 0
M  V30 677 H 56.3028 -4.45352 -1.91806 0
M  V30 678 N 57.6459 0.756429 -1.3826 0
M  V30 679 C 58.8919 1.51772 -1.34511 0
M  V30 680 C 59.2249 1.94089 0.0656691 0
M  V30 681 O 58.4999 1.65221 1.02626 0
M  V30 682 C 58.7829 2.77226 -2.29821 0
M  V30 683 C 58.6359 2.41065 -3.79747 0
M  V30 684 C 59.9549 3.79236 -2.23312 0
M  V30 685 H 57.0739 0.550578 -0.489931 0
M  V30 686 H 59.7159 0.866607 -1.69086 0
M  V30 687 H 57.8659 3.32784 -2.00467 0
M  V30 688 H 59.5379 1.91303 -4.19763 0
M  V30 689 H 57.7809 1.7356 -3.97567 0
M  V30 690 H 58.4519 3.3081 -4.41892 0
M  V30 691 H 60.9279 3.3321 -2.49219 0
M  V30 692 H 59.8039 4.64714 -2.92116 0
M  V30 693 H 60.0649 4.24615 -1.23102 0
M  V30 694 N 59.124 1.23083 0.984299 0
M  V30 695 C 60.54 0.992637 1.24975 0
M  V30 696 C 60.74 -0.308618 1.99123 0
M  V30 697 O 59.796 -1.02905 2.30579 0
M  V30 698 C 61.109 2.19698 2.05312 0
M  V30 699 C 62.657 2.24147 2.18465 0
M  V30 700 C 63.132 3.44157 3.02192 0
M  V30 701 N 64.623 3.44372 3.09777 0
M  V30 702 C 65.358 4.33886 3.74874 0
M  V30 703 N 64.854 5.3363 4.41827 0
M  V30 704 N 66.647 4.21639 3.71721 0
M  V30 705 H 58.798 2.06731 0.487453 0
M  V30 706 H 61.061 0.906339 0.277944 0
M  V30 707 H 60.767 3.1411 1.58201 0
M  V30 708 H 60.641 2.20465 3.06064 0
M  V30 709 H 63.028 1.30277 2.64786 0
M  V30 710 H 63.109 2.27415 1.17115 0
M  V30 711 H 62.753 4.38332 2.56568 0
M  V30 712 H 62.683 3.3813 4.03702 0
M  V30 713 H 65.174 2.72201 2.62135 0
M  V30 714 H 65.487 5.98196 4.89266 0
M  V30 715 H 63.832 5.37534 4.40548 0
M  V30 716 H 67.023 3.42962 3.18582 0
M  V30 717 H 67.196 4.91604 4.22173 0
M  V30 718 N 60.6021 -1.18246 1.0419 0
M  V30 719 C 61.5351 -2.20746 0.578474 0
M  V30 720 C 62.5131 -1.57912 -0.387624 0
M  V30 721 O 63.6971 -1.86071 -0.301634 0
M  V30 722 C 60.8241 -3.38346 -0.154762 0
M  V30 723 C 59.8701 -4.19587 0.764782 0
M  V30 724 S 60.7031 -4.86014 2.24835 0
M  V30 725 C 61.8591 -6.07012 1.526 0
M  V30 726 H 62.0921 -2.59715 1.44691 0
M  V30 727 H 59.6251 -1.287 0.85297 0
M  V30 728 H 61.5831 -4.065 -0.571641 0
M  V30 729 H 60.2441 -2.97786 -0.999105 0
M  V30 730 H 59.4371 -5.03611 0.197976 0
M  V30 731 H 59.0391 -3.56818 1.12057 0
M  V30 732 H 61.3311 -6.72523 0.819733 0
M  V30 733 H 62.2741 -6.68202 2.34333 0
M  V30 734 H 62.6821 -5.55249 1.01779 0
M  V30 735 N 62.0802 -0.821533 -1.34494 0
M  V30 736 C 63.0302 -0.214793 -2.26986 0
M  V30 737 C 64.0142 0.620125 -1.4847 0
M  V30 738 O 65.2062 0.474933 -1.70509 0
M  V30 739 C 62.3352 0.623566 -3.37589 0
M  V30 740 C 61.4212 -0.221904 -4.23519 0
M  V30 741 N 61.8122 -1.29223 -4.89014 0
M  V30 742 C 60.1102 -0.00600922 -4.46 0
M  V30 743 C 60.8112 -1.80965 -5.52835 0
M  V30 744 N 59.7872 -1.11376 -5.32068 0
M  V30 745 H 63.5892 -1.03354 -2.75128 0
M  V30 746 H 61.1032 -0.6642 -1.48196 0
M  V30 747 H 63.1002 1.0744 -4.02818 0
M  V30 748 H 61.7602 1.44049 -2.90998 0
M  V30 749 H 62.7712 -1.67502 -4.90065 0
M  V30 750 H 59.4482 0.77886 -4.10171 0
M  V30 751 H 60.8382 -2.70502 -6.15043 0
M  V30 752 N 63.5583 1.46682 -0.576371 0
M  V30 753 C 64.8073 2.01619 -0.0572825 0
M  V30 754 C 65.1203 1.45417 1.30818 0
M  V30 755 O 66.3263 1.92133 1.91825 0
M  V30 756 C 64.7823 3.59863 -0.0518371 0
M  V30 757 C 64.3903 4.25059 -1.41523 0
M  V30 758 C 66.1343 4.2248 0.413639 0
M  V30 759 C 64.0413 5.75364 -1.36785 0
M  V30 760 H 62.9713 0.753794 -0.0176448 0
M  V30 761 H 65.6223 1.68481 -0.727076 0
M  V30 762 H 64.0043 3.90048 0.683994 0
M  V30 763 H 65.1783 4.06491 -2.17029 0
M  V30 764 H 63.4933 3.7451 -1.8202 0
M  V30 765 H 66.0903 5.3265 0.467779 0
M  V30 766 H 66.4333 3.90976 1.42982 0
M  V30 767 H 66.9663 3.96897 -0.267929 0
M  V30 768 H 63.7053 6.11518 -2.36063 0
M  V30 769 H 63.2253 5.96214 -0.654895 0
M  V30 770 H 64.9043 6.37955 -1.07805 0
M  V30 771 N 65.0364 0.313813 1.54444 0
M  V30 772 C 65.9664 -0.549454 2.26943 0
M  V30 773 C 66.9474 -1.12741 1.27372 0
M  V30 774 O 68.1324 -1.15436 1.56167 0
M  V30 775 C 65.2624 -1.71523 3.01989 0
M  V30 776 C 64.2164 -1.26703 4.08816 0
M  V30 777 C 63.5424 -2.51898 4.71647 0
M  V30 778 C 64.8424 -0.388962 5.2085 0
M  V30 779 H 66.5364 0.0552661 2.99349 0
M  V30 780 H 64.0824 0.0280207 1.43973 0
M  V30 781 H 66.0354 -2.32535 3.51433 0
M  V30 782 H 64.7594 -2.34639 2.27183 0
M  V30 783 H 63.4184 -0.679896 3.6024 0
M  V30 784 H 63.0664 -3.13356 3.93468 0
M  V30 785 H 62.7664 -2.22605 5.43802 0
M  V30 786 H 64.2904 -3.1369 5.23861 0
M  V30 787 H 65.7044 -0.905107 5.6611 0
M  V30 788 H 64.1014 -0.18924 5.99802 0
M  V30 789 H 65.1714 0.582699 4.81386 0
M  V30 790 N 66.5145 -1.57545 0.0417849 0
M  V30 791 C 67.4245 -2.14451 -0.951213 0
M  V30 792 C 68.4405 -1.09992 -1.34825 0
M  V30 793 O 69.6165 -1.42114 -1.42708 0
M  V30 794 C 66.6815 -2.67063 -2.21084 0
M  V30 795 C 65.7425 -3.86284 -1.87304 0
M  V30 796 C 64.9755 -4.36378 -3.07261 0
M  V30 797 O 65.1985 -3.85587 -4.20332 0
M  V30 798 O 64.1325 -5.28077 -2.88822 0
M  V30 799 H 67.9585 -2.99601 -0.497287 0
M  V30 800 H 65.5435 -1.48317 -0.179567 0
M  V30 801 H 67.4255 -3.00914 -2.95006 0
M  V30 802 H 66.1005 -1.84989 -2.65633 0
M  V30 803 H 65.0075 -3.57338 -1.10727 0
M  V30 804 H 66.3405 -4.6956 -1.47562 0
M  V30 805 N 67.9926 0.231505 -1.5589 0
M  V30 806 C 68.9026 1.308 -1.94752 0
M  V30 807 C 69.9186 1.51826 -0.849989 0
M  V30 808 O 71.0946 1.6515 -1.15271 0
M  V30 809 C 68.1596 2.63968 -2.24771 0
M  V30 810 C 67.2206 2.51331 -3.48039 0
M  V30 811 C 66.4536 3.78148 -3.76616 0
M  V30 812 O 66.6766 4.80722 -3.07022 0
M  V30 813 O 65.6106 3.75857 -4.70123 0
M  V30 814 H 69.4366 1.0083 -2.86474 0
M  V30 815 H 67.0216 0.433547 -1.42971 0
M  V30 816 H 68.9036 3.42633 -2.45318 0
M  V30 817 H 67.5786 2.9364 -1.36225 0
M  V30 818 H 66.4856 1.709 -3.32782 0
M  V30 819 H 67.8186 2.26601 -4.36936 0
M  V30 820 N 69.4707 1.49531 0.497807 0
M  V30 821 C 70.6987 1.62893 1.27567 0
M  V30 822 C 71.1137 0.301585 1.86376 0
M  V30 823 O 70.4707 -0.713335 1.67982 0
M  V30 824 C 70.5217 2.70013 2.40364 0
M  V30 825 O 70.2427 3.976 1.83972 0
M  V30 826 C 71.7437 2.94109 3.31685 0
M  V30 827 H 68.9637 0.548298 0.386794 0
M  V30 828 H 71.5077 1.95584 0.597245 0
M  V30 829 H 69.6627 2.40092 3.04031 0
M  V30 830 H 70.0767 4.56631 2.58047 0
M  V30 831 H 71.5507 3.72788 4.07104 0
M  V30 832 H 72.0277 2.04147 3.88871 0
M  V30 833 H 72.6337 3.2546 2.73781 0
M  V30 834 N 70.9488 -0.749086 1.3866 0
M  V30 835 C 72.1738 -1.54344 1.38538 0
M  V30 836 C 72.5988 -1.88088 -0.0216655 0
M  V30 837 O 71.9568 -1.50899 -1.00494 0
M  V30 838 C 72.0048 -2.8164 2.25192 0
M  V30 839 O 71.1088 -3.7698 1.67212 0
M  V30 840 H 70.4498 -0.466654 0.472367 0
M  V30 841 H 72.9798 -0.925355 1.82478 0
M  V30 842 H 72.9898 -3.30519 2.3921 0
M  V30 843 H 71.6648 -2.56411 3.27454 0
M  V30 844 H 70.2418 -3.35699 1.6236 0
M  V30 845 N 72.4269 -1.23603 -0.977757 0
M  V30 846 C 73.3899 -1.02069 -2.05218 0
M  V30 847 C 74.3899 0.0184305 -1.60789 0
M  V30 848 O 75.5799 -0.221569 -1.72785 0
M  V30 849 C 72.7119 -0.544926 -3.36517 0
M  V30 850 H 73.9049 -1.9742 -2.25755 0
M  V30 851 H 71.4579 -1.05684 -1.15155 0
M  V30 852 H 72.1929 0.412241 -3.21669 0
M  V30 853 H 71.9779 -1.2948 -3.70105 0
M  V30 854 H 73.4679 -0.414985 -4.15533 0
M  V30 855 N 73.905 1.17692 -1.04816 0
M  V30 856 C 74.815 2.25229 -0.65643 0
M  V30 857 C 75.831 1.71018 0.320761 0
M  V30 858 O 77.007 2.00649 0.173805 0
M  V30 859 C 74.072 3.46684 -0.0332629 0
M  V30 860 C 73.133 4.15997 -1.06042 0
M  V30 861 C 72.366 5.31654 -0.466893 0
M  V30 862 O 72.589 5.65777 0.724758 0
M  V30 863 O 71.523 5.89831 -1.1993 0
M  V30 864 H 75.349 2.61016 -1.55255 0
M  V30 865 H 72.934 1.24919 -0.81949 0
M  V30 866 H 74.816 4.20234 0.313256 0
M  V30 867 H 73.491 3.12703 0.836566 0
M  V30 868 H 72.398 3.44482 -1.45886 0
M  V30 869 H 73.731 4.53996 -1.90127 0
M  V30 870 N 75.3831 0.828654 1.34056 0
M  V30 871 C 76.7941 0.477534 1.8049 0
M  V30 872 C 77.1451 -1.00258 1.6865 0
M  V30 873 O 76.2701 -1.78057 1.22982 0
M  V30 874 C 76.8651 0.860018 3.27703 0
M  V30 875 C 75.4241 0.561185 3.72193 0
M  V30 876 C 74.5711 1.07385 2.55663 0
M  V30 877 H 77.5221 1.0183 1.21722 0
M  V30 878 H 77.5431 0.166038 3.80138 0
M  V30 879 H 77.0551 1.93731 3.36288 0
M  V30 880 H 75.1561 -0.506465 3.69142 0
M  V30 881 H 75.2691 1.10926 4.66082 0
M  V30 882 H 73.6331 0.495149 2.49841 0
M  V30 883 H 74.4161 2.15771 2.67016 0
M  V30 884 N 76.8612 -1.46375 0.584142 0
M  V30 885 C 78.0862 -2.07268 0.0740405 0
M  V30 886 C 78.5112 -1.42979 -1.22223 0
M  V30 887 O 77.8692 -0.514092 -1.73859 0
M  V30 888 C 77.9172 -3.60518 -0.0767769 0
M  V30 889 O 77.0212 -3.96533 -1.13292 0
M  V30 890 H 76.3622 -0.660961 0.0634524 0
M  V30 891 H 78.8922 -1.87991 0.807492 0
M  V30 892 H 78.9022 -4.07021 -0.282489 0
M  V30 893 H 77.5772 -4.06702 0.86986 0
M  V30 894 H 76.1542 -3.61738 -0.905553 0
M  V30 895 N 78.3393 -0.321999 -1.54275 0
M  V30 896 C 79.2693 0.537411 -2.27231 0
M  V30 897 C 80.2503 1.12064 -1.27968 0
M  V30 898 O 81.4353 1.14606 -1.56777 0
M  V30 899 C 78.5653 1.69919 -3.02894 0
M  V30 900 C 77.5193 1.24534 -4.09482 0
M  V30 901 C 76.8453 2.49394 -4.72977 0
M  V30 902 C 78.1453 0.361335 -5.21049 0
M  V30 903 H 79.8393 -0.0711406 -2.99315 0
M  V30 904 H 77.3853 -0.0356555 -1.43956 0
M  V30 905 H 79.3383 2.30668 -3.52662 0
M  V30 906 H 78.0623 2.33431 -2.28424 0
M  V30 907 H 76.7213 0.660782 -3.60596 0
M  V30 908 H 76.3693 3.11265 -3.95124 0
M  V30 909 H 76.0693 2.19718 -5.44975 0
M  V30 910 H 77.5933 3.10908 -5.25517 0
M  V30 911 H 79.0073 0.875072 -5.66582 0
M  V30 912 H 77.4043 0.157428 -5.99893 0
M  V30 913 H 78.4743 -0.60822 -4.8107 0
M  V30 914 N 79.8174 1.5752 -0.0501392 0
M  V30 915 C 80.7494 2.08413 0.95376 0
M  V30 916 C 81.7624 1.01175 1.27544 0
M  V30 917 O 82.9514 1.28744 1.23641 0
M  V30 918 C 80.0514 2.51138 2.27559 0
M  V30 919 C 79.2244 3.817 2.13598 0
M  V30 920 C 78.2834 4.10749 3.28895 0
M  V30 921 O 77.3094 4.80685 3.04845 0
M  V30 922 N 78.5114 3.62579 4.5334 0
M  V30 923 H 81.2764 2.95165 0.519383 0
M  V30 924 H 78.8374 1.61327 0.136127 0
M  V30 925 H 80.8294 2.67648 3.03557 0
M  V30 926 H 79.3994 1.6964 2.62567 0
M  V30 927 H 78.6194 3.74782 1.22197 0
M  V30 928 H 79.9074 4.67201 2.01496 0
M  V30 929 H 79.3054 3.06039 4.75769 0
M  V30 930 H 77.8624 3.84329 5.26436 0
M  V30 931 N 81.2955 -0.223234 1.56011 0
M  V30 932 C 82.2585 -1.26014 1.9145 0
M  V30 933 C 83.2585 -1.3989 0.792937 0
M  V30 934 O 84.4485 -1.38184 1.0607 0
M  V30 935 C 81.5805 -2.63422 2.16383 0
M  V30 936 H 82.7735 -0.95796 2.84189 0
M  V30 937 H 80.3265 -0.463576 1.49267 0
M  V30 938 H 81.0615 -2.98741 1.2619 0
M  V30 939 H 80.8465 -2.54728 2.98088 0
M  V30 940 H 82.3365 -3.38249 2.44903 0
M  V30 941 N 82.7736 -1.49793 -0.48987 0
M  V30 942 C 83.7206 -1.67281 -1.59014 0
M  V30 943 C 84.6906 -0.514177 -1.57941 0
M  V30 944 O 85.8756 -0.742533 -1.75759 0
M  V30 945 C 83.0156 -1.75569 -2.97102 0
M  V30 946 C 82.1286 -3.0281 -3.08107 0
M  V30 947 C 81.2636 -3.02008 -4.36995 0
M  V30 948 C 80.3026 -4.23782 -4.41673 0
M  V30 949 N 79.4396 -4.20826 -5.62005 0
M  V30 950 H 84.2796 -2.61224 -1.43409 0
M  V30 951 H 81.8166 -1.29508 -0.697565 0
M  V30 952 H 83.7746 -1.78354 -3.77155 0
M  V30 953 H 82.4046 -0.850827 -3.11385 0
M  V30 954 H 81.4566 -3.09584 -2.21047 0
M  V30 955 H 82.7686 -3.92801 -3.07423 0
M  V30 956 H 81.9226 -3.03418 -5.25378 0
M  V30 957 H 80.6616 -2.09815 -4.4026 0
M  V30 958 H 79.6666 -4.22604 -3.5169 0
M  V30 959 H 80.8916 -5.17181 -4.40115 0
M  V30 960 H 78.8376 -3.31476 -5.66091 0
M  V30 961 H 78.7546 -5.04564 -5.62984 0
M  V30 962 H 80.0226 -4.26355 -6.52565 0
M  V30 963 N 84.2517 0.741722 -1.39055 0
M  V30 964 C 85.1837 1.8657 -1.33133 0
M  V30 965 C 86.1967 1.61001 -0.241329 0
M  V30 966 O 87.3857 1.7136 -0.499784 0
M  V30 967 C 84.4857 3.22457 -1.04283 0
M  V30 968 C 83.6587 3.75435 -2.24427 0
M  V30 969 C 82.7177 4.89867 -1.92138 0
M  V30 970 O 81.7437 5.03879 -2.64754 0
M  V30 971 N 82.9457 5.73738 -0.88347 0
M  V30 972 H 85.7107 1.92156 -2.29991 0
M  V30 973 H 83.2717 0.922172 -1.3307 0
M  V30 974 H 85.2637 3.9657 -0.807128 0
M  V30 975 H 83.8337 3.12181 -0.161807 0
M  V30 976 H 83.0537 2.92751 -2.6399 0
M  V30 977 H 84.3417 4.07563 -3.04581 0
M  V30 978 H 83.7397 5.64999 -0.281517 0
M  V30 979 H 82.2967 6.47947 -0.707662 0
M  V30 980 N 85.7298 1.2412 0.971189 0
M  V30 981 C 86.6598 1.05508 2.08304 0
M  V30 982 C 87.6408 -0.0308864 1.70072 0
M  V30 983 O 88.8258 0.135521 1.93727 0
M  V30 984 C 85.9558 0.655365 3.4106 0
M  V30 985 C 84.9098 1.68971 3.93234 0
M  V30 986 C 84.2358 1.14516 5.22293 0
M  V30 987 C 85.5358 3.08487 4.21465 0
M  V30 988 H 87.2298 1.98507 2.24132 0
M  V30 989 H 84.7758 0.955821 1.07704 0
M  V30 990 H 86.7288 0.51217 4.18276 0
M  V30 991 H 85.4528 -0.31032 3.25122 0
M  V30 992 H 84.1118 1.82106 3.18171 0
M  V30 993 H 83.7598 0.170189 5.02712 0
M  V30 994 H 83.4598 1.83635 5.58168 0
M  V30 995 H 84.9838 1.01401 6.02121 0
M  V30 996 H 86.3978 2.98601 4.89398 0
M  V30 997 H 84.7948 3.74926 4.68562 0
M  V30 998 H 85.8648 3.56787 3.28376 0
M  V30 999 N 87.2079 -1.17134 1.05439 0
M  V30 1000 C 88.1549 -2.21235 0.657539 0
M  V30 1001 C 89.1249 -1.62551 -0.341543 0
M  V30 1002 O 90.3099 -1.89379 -0.232393 0
M  V30 1003 C 87.4499 -3.45076 0.0410575 0
M  V30 1004 C 86.5629 -4.18042 1.08927 0
M  V30 1005 C 85.6979 -5.29376 0.439848 0
M  V30 1006 C 84.7369 -5.94132 1.4722 0
M  V30 1007 N 83.8739 -6.96975 0.846756 0
M  V30 1008 H 88.7139 -2.54534 1.54972 0
M  V30 1009 H 86.2509 -1.25028 0.775006 0
M  V30 1010 H 88.2089 -4.15862 -0.33383 0
M  V30 1011 H 86.8389 -3.12353 -0.814568 0
M  V30 1012 H 85.8909 -3.45945 1.58196 0
M  V30 1013 H 87.2029 -4.62306 1.87282 0
M  V30 1014 H 86.3569 -6.06699 0.0115125 0
M  V30 1015 H 85.0959 -4.86251 -0.375656 0
M  V30 1016 H 84.1009 -5.15538 1.91052 0
M  V30 1017 H 85.3259 -6.39337 2.28965 0
M  V30 1018 H 83.2719 -6.5598 0.0518075 0
M  V30 1019 H 83.1889 -7.39565 1.5678 0
M  V30 1020 H 84.4569 -7.78239 0.443277 0
M  V30 1021 N 88.686 -0.835752 -1.33615 0
M  V30 1022 C 89.616 -0.281739 -2.31794 0
M  V30 1023 C 90.597 0.608833 -1.58831 0
M  V30 1024 O 91.782 0.533035 -1.86741 0
M  V30 1025 C 88.912 0.546612 -3.42971 0
M  V30 1026 C 87.866 -0.247904 -4.27281 0
M  V30 1027 C 87.192 0.704001 -5.30045 0
M  V30 1028 C 88.492 -1.46324 -5.01385 0
M  V30 1029 H 90.186 -1.10206 -2.78379 0
M  V30 1030 H 87.732 -0.531388 -1.33837 0
M  V30 1031 H 89.685 0.944467 -4.1068 0
M  V30 1032 H 88.409 1.40011 -2.95067 0
M  V30 1033 H 87.068 -0.627281 -3.61194 0
M  V30 1034 H 86.716 1.55381 -4.78399 0
M  V30 1035 H 86.416 0.176524 -5.87335 0
M  V30 1036 H 87.94 1.09944 -6.0062 0
M  V30 1037 H 89.354 -1.13871 -5.61877 0
M  V30 1038 H 87.751 -1.92728 -5.6831 0
M  V30 1039 H 88.821 -2.23467 -4.30338 0
M  V30 1040 N 90.1641 1.46063 -0.591896 0
M  V30 1041 C 91.1111 2.30399 0.136069 0
M  V30 1042 C 92.0811 1.41169 0.875238 0
M  V30 1043 O 93.2661 1.70112 0.86409 0
M  V30 1044 C 90.4061 3.25804 1.13781 0
M  V30 1045 C 89.5191 4.30134 0.401137 0
M  V30 1046 C 88.6541 5.12659 1.39121 0
M  V30 1047 C 87.6931 6.0873 0.641462 0
M  V30 1048 N 86.8301 6.8409 1.58004 0
M  V30 1049 H 91.6701 2.92118 -0.589144 0
M  V30 1050 H 89.2071 1.43959 -0.302342 0
M  V30 1051 H 91.1651 3.79569 1.73156 0
M  V30 1052 H 89.7951 2.65872 1.83062 0
M  V30 1053 H 88.8471 3.79152 -0.307826 0
M  V30 1054 H 90.1591 4.98458 -0.184565 0
M  V30 1055 H 89.3131 5.70747 2.05749 0
M  V30 1056 H 88.0521 4.44316 2.01084 0
M  V30 1057 H 87.0571 5.49786 -0.0385419 0
M  V30 1058 H 88.2821 6.79095 0.0270945 0
M  V30 1059 H 86.2281 6.18449 2.18761 0
M  V30 1060 H 86.1451 7.48709 1.04738 0
M  V30 1061 H 87.4131 7.4673 2.23639 0
M  V30 1062 N 91.6422 0.330177 1.54103 0
M  V30 1063 C 93.0582 -0.0222371 1.59585 0
M  V30 1064 C 93.2582 -1.49902 1.34654 0
M  V30 1065 O 92.3142 -2.25592 1.13421 0
M  V30 1066 C 93.6272 0.401932 2.98002 0
M  V30 1067 C 95.1752 0.353145 3.11001 0
M  V30 1068 C 95.6502 0.752576 4.51775 0
M  V30 1069 N 97.1412 0.706239 4.57784 0
M  V30 1070 C 97.8762 0.987417 5.64834 0
M  V30 1071 N 97.3722 1.33607 6.79795 0
M  V30 1072 N 99.1652 0.91254 5.54643 0
M  V30 1073 H 91.3162 1.29228 1.68564 0
M  V30 1074 H 93.5792 0.525906 0.78875 0
M  V30 1075 H 93.2852 1.4311 3.21267 0
M  V30 1076 H 93.1592 -0.229699 3.765 0
M  V30 1077 H 95.5462 -0.666822 2.87467 0
M  V30 1078 H 95.6272 1.0198 2.34593 0
M  V30 1079 H 95.2712 1.77049 4.76042 0
M  V30 1080 H 95.2012 0.0635409 5.26562 0
M  V30 1081 H 97.6922 0.44889 3.75224 0
M  V30 1082 H 98.0052 1.53582 7.57385 0
M  V30 1083 H 96.3502 1.37439 6.81275 0
M  V30 1084 H 99.5412 0.639601 4.6371 0
M  V30 1085 H 99.7142 1.13503 6.37982 0
M  V30 1086 N 93.1203 -1.57491 0.0584922 0
M  V30 1087 C 94.0833 -2.1085 -0.898617 0
M  V30 1088 C 95.0833 -1.02964 -1.23511 0
M  V30 1089 O 96.2733 -1.29007 -1.17059 0
M  V30 1090 C 93.4053 -2.59881 -2.20623 0
M  V30 1091 H 94.5983 -2.96715 -0.435936 0
M  V30 1092 H 92.1513 -1.55141 -0.190023 0
M  V30 1093 H 92.8863 -1.77431 -2.71457 0
M  V30 1094 H 92.6713 -3.38727 -1.97501 0
M  V30 1095 H 94.1613 -3.01285 -2.89166 0
M  V30 1096 N 94.5984 0.214957 -1.56127 0
M  V30 1097 C 96.0144 0.564948 -1.49267 0
M  V30 1098 C 96.2144 1.86827 -0.754838 0
M  V30 1099 O 95.2704 2.50745 -0.297198 0
M  V30 1100 C 96.5834 0.638071 -2.93852 0
M  V30 1101 C 98.1314 0.728253 -3.0441 0
M  V30 1102 C 98.6064 0.832663 -4.50367 0
M  V30 1103 N 100.097 0.896712 -4.54437 0
M  V30 1104 C 100.832 0.997324 -5.6466 0
M  V30 1105 N 100.328 1.06147 -6.8462 0
M  V30 1106 N 102.121 1.03297 -5.52527 0
M  V30 1107 H 94.2724 -0.640211 -2.02522 0
M  V30 1108 H 96.5354 -0.225507 -0.920788 0
M  V30 1109 H 96.2414 -0.250126 -3.50809 0
M  V30 1110 H 96.1154 1.49947 -3.46115 0
M  V30 1111 H 98.5024 1.60689 -2.47514 0
M  V30 1112 H 98.5834 -0.158952 -2.55306 0
M  V30 1113 H 98.2274 -0.0415417 -5.07883 0
M  V30 1114 H 98.1574 1.73538 -4.97184 0
M  V30 1115 H 100.648 0.857188 -3.6805 0
M  V30 1116 H 100.961 1.1382 -7.64372 0
M  V30 1117 H 99.3064 1.03049 -6.87318 0
M  V30 1118 H 102.497 0.979558 -4.57736 0
M  V30 1119 H 102.67 1.10793 -6.38458 0
M  V30 1120 N 96.0765 1.50051 0.48192 0
M  V30 1121 C 97.0065 1.71046 1.58951 0
M  V30 1122 C 97.9875 0.559288 1.60642 0
M  V30 1123 O 99.1725 0.797243 1.77081 0
M  V30 1124 C 96.3025 1.79462 2.97339 0
M  V30 1125 C 95.2565 2.94558 3.10515 0
M  V30 1126 C 94.5825 2.88105 4.50444 0
M  V30 1127 C 95.8825 4.35227 2.88747 0
M  V30 1128 H 97.5765 2.6378 1.41635 0
M  V30 1129 H 95.1225 1.26936 0.679942 0
M  V30 1130 H 97.0755 1.92734 3.74742 0
M  V30 1131 H 95.7995 0.833412 3.15788 0
M  V30 1132 H 94.4585 2.80918 2.35543 0
M  V30 1133 H 94.1065 1.89853 4.65795 0
M  V30 1134 H 93.8065 3.65366 4.60197 0
M  V30 1135 H 95.3305 3.03412 5.29881 0
M  V30 1136 H 96.7445 4.49449 3.55905 0
M  V30 1137 H 95.1415 5.13856 3.09955 0
M  V30 1138 H 96.2115 4.48347 1.84696 0
M  V30 1139 N 97.5546 -0.734337 1.39446 0
M  V30 1140 C 98.5176 -1.83004 1.37994 0
M  V30 1141 C 99.5176 -1.58397 0.276938 0
M  V30 1142 O 100.708 -1.65785 0.534875 0
M  V30 1143 C 97.8396 -3.20802 1.1532 0
M  V30 1144 H 99.0326 -1.85694 2.35494 0
M  V30 1145 H 96.5856 -0.938059 1.25021 0
M  V30 1146 H 97.3206 -3.23772 0.185036 0
M  V30 1147 H 97.1056 -3.4006 1.95197 0
M  V30 1148 H 98.5956 -4.00862 1.17046 0
M  V30 1149 N 99.0327 -1.24633 -0.964593 0
M  V30 1150 C 100.31 -0.995809 -1.68354 0
M  V30 1151 C 100.69 0.480964 -2.05548 0
M  V30 1152 O 100.038 1.45599 -1.76105 0
M  V30 1153 C 100.248 -1.92177 -2.91323 0
M  V30 1154 C 101.596 -2.19446 -3.63495 0
M  V30 1155 O 102.62 -1.89855 -3.01386 0
M  V30 1156 O 101.479 -2.69714 -4.75307 0
M  V30 1157 H 98.5727 -0.376854 -0.736146 0
M  V30 1158 H 101.119 -1.35745 -1.0184 0
M  V30 1159 H 99.8907 -2.91938 -2.60553 0
M  V30 1160 H 99.5137 -1.56349 -3.65569 0
M  V30 1161 N 100.511 1.16574 -1.06058 0
M  V30 1162 C 101.788 1.83048 -0.689416 0
M  V30 1163 C 102.168 1.94122 0.829443 0
M  V30 1164 O 101.516 1.48249 1.7388 0
M  V30 1165 C 101.726 3.20186 -1.38859 0
M  V30 1166 C 103.074 3.95989 -1.53226 0
M  V30 1167 O 104.098 3.29696 -1.3483 0
M  V30 1168 O 102.957 5.14813 -1.83384 0
M  V30 1169 H 100.051 0.790258 -0.243764 0
M  V30 1170 H 102.597 1.23797 -1.16071 0
M  V30 1171 H 101.369 3.07146 -2.4244 0
M  V30 1172 H 100.992 3.87112 -0.907216 0
M  V30 1173 N 101.989 0.842826 1.3317 0
M  V30 1174 C 102.919 0.294028 2.31641 0
M  V30 1175 C 103.9 -0.600401 1.59151 0
M  V30 1176 O 105.085 -0.523124 1.87022 0
M  V30 1177 C 102.215 -0.528416 3.43257 0
M  V30 1178 C 101.169 0.27056 4.27144 0
M  V30 1179 C 100.495 -0.675881 5.30411 0
M  V30 1180 C 101.795 1.48981 5.00602 0
M  V30 1181 H 103.489 1.11681 2.77791 0
M  V30 1182 H 101.035 0.538478 1.33553 0
M  V30 1183 H 102.988 -0.922674 4.11175 0
M  V30 1184 H 101.712 -1.38445 2.95805 0
M  V30 1185 H 100.371 0.646427 3.60856 0
M  V30 1186 H 100.019 -1.52842 4.79216 0
M  V30 1187 H 99.7189 -0.145374 5.8742 0
M  V30 1188 H 101.243 -1.06757 6.01195 0
M  V30 1189 H 102.657 1.16849 5.61266 0
M  V30 1190 H 101.054 1.95739 5.6728 0
M  V30 1191 H 102.124 2.25746 4.29147 0
M  V30 1192 N 103.467 -1.45747 0.599634 0
M  V30 1193 C 104.415 -2.322 -0.136426 0
M  V30 1194 C 105.409 -1.45497 -0.867583 0
M  V30 1195 O 106.615 -1.62027 -0.78405 0
M  V30 1196 H 102.99 -0.749368 -0.0628588 0
M  V30 1197 H 104.961 -2.92072 0.611281 0
M  V30 1198 C 103.71 -3.28974 -1.12567 0
M  V30 1199 H 103.033 -3.9568 -0.572484 0
M  V30 1200 H 104.473 -3.92212 -1.61077 0
M  V30 1201 C 102.932 -2.55561 -2.19523 0
M  V30 1202 O 103.462 -2.33111 -3.27143 0
M  V30 1203 N 101.668 -2.15832 -1.94589 0
M  V30 1204 H 101.215 -2.3429 -1.07078 0
M  V30 1205 H 101.173 -1.67034 -2.66359 0
M  V30 1206 N 104.945 -0.338344 -1.53925 0
M  V30 1207 C 105.855 0.529421 -2.28548 0
M  V30 1208 C 106.871 1.11645 -1.3346 0
M  V30 1209 O 108.047 1.13325 -1.66492 0
M  V30 1210 C 105.112 1.66713 -3.03987 0
M  V30 1211 C 104.173 1.11041 -4.14691 0
M  V30 1212 C 103.406 2.19389 -4.86522 0
M  V30 1213 O 103.629 3.40013 -4.57982 0
M  V30 1214 O 102.563 1.83976 -5.73094 0
M  V30 1215 H 106.389 -0.0770399 -3.03602 0
M  V30 1216 H 103.974 -0.103555 -1.49041 0
M  V30 1217 H 105.856 2.32918 -3.5118 0
M  V30 1218 H 104.531 2.25949 -2.31794 0
M  V30 1219 H 103.438 0.413024 -3.71813 0
M  V30 1220 H 104.771 0.562975 -4.8897 0
M  V30 1221 N 106.423 1.57458 -0.0668435 0
M  V30 1222 C 107.37 2.12439 0.902122 0
M  V30 1223 C 108.34 1.03565 1.2986 0
M  V30 1224 O 109.525 1.312 1.38532 0
M  V30 1225 C 106.665 2.6865 2.16614 0
M  V30 1226 C 105.778 3.91663 1.82274 0
M  V30 1227 C 104.913 4.36134 3.0325 0
M  V30 1228 C 103.952 5.51808 2.64904 0
M  V30 1229 N 103.089 5.9126 3.78624 0
M  V30 1230 H 107.929 2.94934 0.426382 0
M  V30 1231 H 105.466 1.4575 0.198819 0
M  V30 1232 H 107.424 2.99346 2.90599 0
M  V30 1233 H 106.054 1.88928 2.61737 0
M  V30 1234 H 105.106 3.6746 0.983719 0
M  V30 1235 H 106.418 4.75693 1.50059 0
M  V30 1236 H 105.572 4.68465 3.85519 0
M  V30 1237 H 104.311 3.50948 3.38655 0
M  V30 1238 H 103.316 5.19133 1.81055 0
M  V30 1239 H 104.541 6.38722 2.30675 0
M  V30 1240 H 102.487 5.09024 4.138 0
M  V30 1241 H 102.404 6.70018 3.5016 0
M  V30 1242 H 103.672 6.28212 4.61486 0
M  V30 1243 N 107.901 -0.206675 1.56239 0
M  V30 1244 C 109.15 -0.926964 1.79138 0
M  V30 1245 C 109.463 -1.84901 0.638043 0
M  V30 1246 O 110.669 -2.60906 0.751033 0
M  V30 1247 C 109.125 -1.6986 3.17294 0
M  V30 1248 C 108.733 -0.821956 4.40395 0
M  V30 1249 C 110.477 -2.40922 3.4951 0
M  V30 1250 C 108.384 -1.59179 5.69575 0
M  V30 1251 H 107.314 -0.349864 0.667915 0
M  V30 1252 H 109.965 -0.180487 1.8261 0
M  V30 1253 H 108.347 -2.48853 3.08039 0
M  V30 1254 H 109.521 -0.0715019 4.60745 0
M  V30 1255 H 107.836 -0.222741 4.15804 0
M  V30 1256 H 110.433 -2.99047 4.43255 0
M  V30 1257 H 110.776 -3.14542 2.72707 0
M  V30 1258 H 111.309 -1.68905 3.60161 0
M  V30 1259 H 108.048 -0.898589 6.49312 0
M  V30 1260 H 107.568 -2.31648 5.53262 0
M  V30 1261 H 109.247 -2.14862 6.10281 0
M  V30 1262 N 109.379 -1.50304 -0.473955 0
M  V30 1263 C 110.342 -1.6841 -1.55469 0
M  V30 1264 C 111.342 -0.554905 -1.50922 0
M  V30 1265 O 112.532 -0.821882 -1.53593 0
M  V30 1266 C 109.664 -1.70667 -2.95102 0
M  V30 1267 H 110.857 -2.64828 -1.40733 0
M  V30 1268 H 108.41 -1.39742 -0.700132 0
M  V30 1269 H 109.145 -0.75932 -3.15285 0
M  V30 1270 H 108.93 -2.52698 -2.9981 0
M  V30 1271 H 110.42 -1.8664 -3.73571 0
M  V30 1272 N 110.857 0.726932 -1.39834 0
M  V30 1273 C 111.789 1.85147 -1.35104 0
M  V30 1274 C 112.802 1.60736 -0.258392 0
M  V30 1275 O 113.991 1.70821 -0.517931 0
M  V30 1276 C 111.091 3.21332 -1.07697 0
M  V30 1277 C 110.264 3.73033 -2.28396 0
M  V30 1278 C 109.323 4.87802 -1.97322 0
M  V30 1279 O 108.349 5.01043 -2.70083 0
M  V30 1280 N 109.551 5.72768 -0.944273 0
M  V30 1281 H 112.316 1.89706 -2.32017 0
M  V30 1282 H 109.877 0.908006 -1.3404 0
M  V30 1283 H 111.869 3.95691 -0.849144 0
M  V30 1284 H 110.439 3.11992 -0.194909 0
M  V30 1285 H 109.659 2.89934 -2.6708 0
M  V30 1286 H 110.947 4.0431 -3.08887 0
M  V30 1287 H 110.345 5.64669 -0.341427 0
M  V30 1288 H 108.902 6.4716 -0.776346 0
M  V30 1289 N 112.336 1.25143 0.95797 0
M  V30 1290 C 113.752 1.01892 1.22842 0
M  V30 1291 C 113.952 -0.266311 1.99732 0
M  V30 1292 O 113.008 -0.979913 2.3271 0
M  V30 1293 C 114.321 2.24004 2.00606 0
M  V30 1294 C 115.869 2.28731 2.13662 0
M  V30 1295 C 116.344 3.5049 2.94823 0
M  V30 1296 N 117.835 3.50866 3.02403 0
M  V30 1297 C 118.57 4.4174 3.65586 0
M  V30 1298 N 118.066 5.42882 4.30408 0
M  V30 1299 N 119.859 4.29429 3.62694 0
M  V30 1300 H 112.01 2.07718 0.443493 0
M  V30 1301 H 114.273 0.912031 0.258657 0
M  V30 1302 H 113.979 3.17395 1.51503 0
M  V30 1303 H 113.853 2.26907 3.01319 0
M  V30 1304 H 116.24 1.35865 2.61963 0
M  V30 1305 H 116.321 2.29848 1.12265 0
M  V30 1306 H 115.965 4.43676 2.47213 0
M  V30 1307 H 115.895 3.46617 3.96439 0
M  V30 1308 H 118.386 2.777 2.56302 0
M  V30 1309 H 118.699 6.0844 4.76467 0
M  V30 1310 H 117.044 5.46758 4.29047 0
M  V30 1311 H 120.235 3.49643 3.11236 0
M  V30 1312 H 120.408 5.00448 4.1165 0
M  V30 1313 N 113.814 -1.1601 1.06675 0
M  V30 1314 C 115.225 -1.68235 0.809565 0
M  V30 1315 C 115.576 -1.8454 -0.666303 0
M  V30 1316 O 114.701 -1.54374 -1.5165 0
M  V30 1317 C 115.296 -3.05585 1.46299 0
M  V30 1318 C 113.855 -3.54915 1.25349 0
M  V30 1319 C 113.002 -2.30804 1.53703 0
M  V30 1320 H 115.953 -1.00318 1.22971 0
M  V30 1321 H 115.974 -3.70174 0.880431 0
M  V30 1322 H 115.486 -2.93686 2.53713 0
M  V30 1323 H 113.587 -3.72067 0.199261 0
M  V30 1324 H 113.7 -4.36774 1.9689 0
M  V30 1325 H 112.064 -2.36007 0.957739 0
M  V30 1326 H 112.847 -2.21499 2.62284 0
M  V30 1327 N 115.292 -0.849877 -1.32721 0
M  V30 1328 C 116.54 -0.450032 -1.97026 0
M  V30 1329 C 116.861 0.996604 -1.67609 0
M  V30 1330 O 116.131 1.6958 -0.980786 0
M  V30 1331 H 114.711 -0.163426 -0.728904 0
M  V30 1332 H 117.373 -1.08526 -1.6189 0
M  V30 1333 H 116.469 -0.591146 -3.0645 0
M  V30 1334 N 116.77 1.45427 -0.607355 0
M  V30 1335 C 118.181 1.85756 -0.187535 0
M  V30 1336 C 118.532 1.5077 1.25551 0
M  V30 1337 O 117.657 0.93427 1.95193 0
M  V30 1338 C 118.252 3.37154 -0.333572 0
M  V30 1339 C 116.811 3.76387 0.0315542 0
M  V30 1340 C 115.958 2.69377 -0.658117 0
M  V30 1341 H 118.909 1.36231 -0.81405 0
M  V30 1342 H 118.93 3.78014 0.43428 0
M  V30 1343 H 118.442 3.62586 -1.38393 0
M  V30 1344 H 116.543 3.56571 1.0811 0
M  V30 1345 H 116.656 4.77731 -0.361935 0
M  V30 1346 H 115.02 2.5452 -0.0957873 0
M  V30 1347 H 115.803 2.97646 -1.7106 0
M  V30 1348 N 118.248 0.346503 1.53744 0
M  V30 1349 C 119.181 -0.552023 2.21423 0
M  V30 1350 C 120.159 -1.09798 1.19929 0
M  V30 1351 O 121.343 -1.1577 1.4876 0
M  V30 1352 C 118.47 -1.75972 2.89398 0
M  V30 1353 C 117.516 -1.34295 4.04805 0
M  V30 1354 S 118.349 -0.360263 5.34287 0
M  V30 1355 C 119.505 -1.57473 6.05767 0
M  V30 1356 H 119.738 0.0228119 2.97291 0
M  V30 1357 H 117.271 0.130579 1.53847 0
M  V30 1358 H 119.229 -2.45256 3.2918 0
M  V30 1359 H 117.89 -2.30578 2.1329 0
M  V30 1360 H 117.083 -2.24349 4.51313 0
M  V30 1361 H 116.685 -0.729555 3.66815 0
M  V30 1362 H 118.977 -2.50875 6.29339 0
M  V30 1363 H 119.92 -1.15138 6.98676 0
M  V30 1364 H 120.328 -1.77212 5.35963 0
M  V30 1365 N 119.726 -1.57421 0.075193 0
M  V30 1366 C 120.636 -2.1642 -0.905511 0
M  V30 1367 C 121.652 -1.12828 -1.32461 0
M  V30 1368 O 122.828 -1.45109 -1.39661 0
M  V30 1369 C 119.893 -2.71693 -2.15369 0
M  V30 1370 C 118.954 -3.90171 -1.79068 0
M  V30 1371 C 118.187 -4.42798 -2.97936 0
M  V30 1372 O 118.41 -3.94416 -4.12058 0
M  V30 1373 O 117.344 -5.34085 -2.77555 0
M  V30 1374 H 121.17 -3.00588 -0.433626 0
M  V30 1375 H 118.755 -1.48664 -0.148067 0
M  V30 1376 H 120.637 -3.07104 -2.88557 0
M  V30 1377 H 119.312 -1.90582 -2.61649 0
M  V30 1378 H 118.219 -3.59606 -1.03122 0
M  V30 1379 H 119.552 -4.72584 -1.37569 0
M  V30 1380 N 121.204 0.198386 -1.56346 0
M  V30 1381 C 122.134 1.24865 -1.9731 0
M  V30 1382 C 123.115 1.47651 -0.844576 0
M  V30 1383 O 124.3 1.59444 -1.10866 0
M  V30 1384 C 121.43 2.59358 -2.30977 0
M  V30 1385 C 120.384 2.5119 -3.46537 0
M  V30 1386 C 119.71 3.89926 -3.65871 0
M  V30 1387 C 121.01 2.03977 -4.80823 0
M  V30 1388 H 122.704 0.908252 -2.85291 0
M  V30 1389 H 120.25 0.435462 -1.37258 0
M  V30 1390 H 122.203 3.33011 -2.58228 0
M  V30 1391 H 120.927 2.95132 -1.39874 0
M  V30 1392 H 119.586 1.79993 -3.19371 0
M  V30 1393 H 119.234 4.23046 -2.72105 0
M  V30 1394 H 118.934 3.85336 -4.4361 0
M  V30 1395 H 120.458 4.65205 -3.95495 0
M  V30 1396 H 121.872 2.67386 -5.07127 0
M  V30 1397 H 120.269 2.10397 -5.62008 0
M  V30 1398 H 121.339 0.992861 -4.74626 0
M  V30 1399 N 122.682 1.50554 0.465978 0
M  V30 1400 C 123.928 1.62038 1.21949 0
M  V30 1401 C 124.261 0.322116 1.9151 0
M  V30 1402 O 123.536 -0.676723 1.82348 0
M  V30 1403 C 123.819 2.80421 2.25912 0
M  V30 1404 C 123.672 4.20144 1.60622 0
M  V30 1405 C 124.991 2.94354 3.27176 0
M  V30 1406 H 122.11 0.589752 0.441998 0
M  V30 1407 H 124.752 1.82956 0.51257 0
M  V30 1408 H 122.902 2.62717 2.86203 0
M  V30 1409 H 124.574 4.49449 1.03889 0
M  V30 1410 H 122.817 4.24165 0.909211 0
M  V30 1411 H 123.488 4.98914 2.36196 0
M  V30 1412 H 125.964 3.10578 2.76913 0
M  V30 1413 H 124.84 3.788 3.97242 0
M  V30 1414 H 125.101 2.05186 3.916 0
M  V30 1415 N 124.16 -0.719506 1.40217 0
M  V30 1416 C 125.07 -1.86378 1.42479 0
M  V30 1417 C 126.086 -1.71073 0.317834 0
M  V30 1418 O 127.262 -1.93406 0.561794 0
M  V30 1419 C 124.327 -3.22136 1.28178 0
M  V30 1420 C 123.388 -3.49723 2.48982 0
M  V30 1421 C 122.621 -4.79004 2.35353 0
M  V30 1422 O 122.844 -5.53821 1.36524 0
M  V30 1423 O 121.778 -5.06839 3.2465 0
M  V30 1424 H 125.604 -1.87425 2.38968 0
M  V30 1425 H 123.189 -0.869405 1.21498 0
M  V30 1426 H 125.071 -4.03234 1.22395 0
M  V30 1427 H 123.746 -3.21825 0.347934 0
M  V30 1428 H 122.653 -2.6865 2.60342 0
M  V30 1429 H 123.986 -3.54828 3.41113 0
M  V30 1430 N 125.638 -1.25649 -0.95132 0
M  V30 1431 C 126.585 -1.06323 -2.04851 0
M  V30 1432 C 127.555 0.0286491 -1.66075 0
M  V30 1433 O 128.74 -0.12917 -1.90362 0
M  V30 1434 C 125.88 -0.691529 -3.381 0
M  V30 1435 C 124.993 -1.85861 -3.89974 0
M  V30 1436 C 124.128 -1.43096 -5.11563 0
M  V30 1437 C 123.167 -2.56696 -5.55674 0
M  V30 1438 N 122.304 -2.14684 -6.68472 0
M  V30 1439 H 127.144 -2.00222 -2.20715 0
M  V30 1440 H 124.681 -0.997027 -1.08156 0
M  V30 1441 H 126.639 -0.456963 -4.1469 0
M  V30 1442 H 125.269 0.210474 -3.22113 0
M  V30 1443 H 124.321 -2.20639 -3.09875 0
M  V30 1444 H 125.633 -2.71161 -4.18657 0
M  V30 1445 H 124.787 -1.15624 -5.9558 0
M  V30 1446 H 123.526 -0.548722 -4.84603 0
M  V30 1447 H 122.531 -2.84909 -4.7022 0
M  V30 1448 H 123.756 -3.45503 -5.8464 0
M  V30 1449 H 121.702 -1.28881 -6.43215 0
M  V30 1450 H 121.619 -2.9353 -6.96689 0
M  V30 1451 H 122.887 -1.90397 -7.5589 0
M  V30 1452 N 127.117 1.15442 -1.07289 0
M  V30 1453 C 128.065 2.22225 -0.686952 0
M  V30 1454 C 129.059 1.66688 0.30193 0
M  V30 1455 O 130.265 1.79236 0.165712 0
M  V30 1456 H 126.64 0.723783 -0.204064 0
M  V30 1457 H 128.611 2.52056 -1.5972 0
M  V30 1458 C 127.36 3.47556 -0.100149 0
M  V30 1459 H 126.683 3.90612 -0.852211 0
M  V30 1460 H 128.123 4.23794 0.132235 0
M  V30 1461 C 126.582 3.16337 1.159 0
M  V30 1462 O 127.112 3.33074 2.24555 0
M  V30 1463 N 125.318 2.70385 1.06491 0
M  V30 1464 H 124.865 2.56966 0.180668 0
M  V30 1465 H 124.823 2.49871 1.90819 0
M  V30 1466 N 128.595 0.856903 1.32268 0
M  V30 1467 C 129.844 0.457599 1.96441 0
M  V30 1468 C 130.157 -0.992426 1.68553 0
M  V30 1469 O 131.363 -1.49727 2.26482 0
M  V30 1470 C 129.819 0.767358 3.51624 0
M  V30 1471 C 129.427 2.23326 3.88367 0
M  V30 1472 C 131.171 0.435887 4.22256 0
M  V30 1473 C 129.078 2.48613 5.36606 0
M  V30 1474 H 128.008 0.167387 0.735185 0
M  V30 1475 H 130.659 1.048 1.5063 0
M  V30 1476 H 129.041 0.106367 3.95857 0
M  V30 1477 H 130.215 2.93623 3.55137 0
M  V30 1478 H 128.53 2.52948 3.30766 0
M  V30 1479 H 131.127 0.602202 5.31298 0
M  V30 1480 H 131.47 -0.622672 4.11617 0
M  V30 1481 H 132.003 1.05286 3.83614 0
M  V30 1482 H 128.742 3.53101 5.52268 0
M  V30 1483 H 128.262 1.82896 5.71235 0
M  V30 1484 H 129.941 2.32676 6.03714 0
M  V30 1485 N 130.073 -1.45103 0.615059 0
M  V30 1486 C 131.003 -2.33339 -0.0865619 0
M  V30 1487 C 131.984 -1.4727 -0.851209 0
M  V30 1488 O 133.169 -1.76026 -0.820281 0
M  V30 1489 C 130.299 -3.30095 -1.07956 0
M  V30 1490 C 129.253 -4.25858 -0.427628 0
M  V30 1491 C 128.579 -5.12361 -1.5294 0
M  V30 1492 C 129.879 -5.18165 0.655944 0
M  V30 1493 H 131.573 -2.92254 0.650224 0
M  V30 1494 H 129.119 -1.40532 0.314138 0
M  V30 1495 H 131.072 -3.90698 -1.57901 0
M  V30 1496 H 129.796 -2.69355 -1.84703 0
M  V30 1497 H 128.455 -3.66564 0.0510292 0
M  V30 1498 H 128.103 -4.47984 -2.28734 0
M  V30 1499 H 127.803 -5.77238 -1.09865 0
M  V30 1500 H 129.327 -5.75833 -2.03098 0
M  V30 1501 H 130.741 -5.72796 0.240257 0
M  V30 1502 H 129.138 -5.91559 1.00888 0
M  V30 1503 H 130.208 -4.60144 1.52957 0
M  V30 1504 N 131.551 -0.354651 -1.53558 0
M  V30 1505 C 132.962 0.126902 -1.86268 0
M  V30 1506 C 133.313 1.49075 -1.27558 0
M  V30 1507 O 132.438 2.08105 -0.5934 0
M  V30 1508 C 133.033 0.237046 -3.3797 0
M  V30 1509 C 131.592 0.662842 -3.70518 0
M  V30 1510 C 130.739 -0.196652 -2.76602 0
M  V30 1511 H 133.69 -0.573849 -1.47962 0
M  V30 1512 H 133.711 1.06259 -3.65362 0
M  V30 1513 H 133.223 -0.755725 -3.80671 0
M  V30 1514 H 131.324 1.66424 -3.33367 0
M  V30 1515 H 131.437 0.445034 -4.77029 0
M  V30 1516 H 129.801 0.332763 -2.52517 0
M  V30 1517 H 130.584 -1.18676 -3.22135 0
M  V30 1518 N 133.029 1.57378 -0.0835403 0
M  V30 1519 C 134.275 1.94217 0.583733 0
M  V30 1520 C 134.608 0.964653 1.68547 0
M  V30 1521 O 133.883 -0.00422258 1.945 0
M  V30 1522 C 134.166 3.41253 1.14972 0
M  V30 1523 C 134.019 4.49768 0.0538277 0
M  V30 1524 C 135.338 3.89352 2.05166 0
M  V30 1525 H 132.457 0.706233 0.210724 0
M  V30 1526 H 135.099 1.89392 -0.1519 0
M  V30 1527 H 133.249 3.45496 1.77665 0
M  V30 1528 H 134.921 4.57641 -0.579851 0
M  V30 1529 H 133.164 4.29432 -0.614068 0
M  V30 1530 H 133.835 5.49817 0.490452 0
M  V30 1531 H 136.311 3.87189 1.52393 0
M  V30 1532 H 135.187 4.92822 2.41698 0
M  V30 1533 H 135.448 3.27973 2.96456 0
M  V30 1534 N 134.507 -0.190092 1.56449 0
M  V30 1535 C 135.417 -1.25591 1.98152 0
M  V30 1536 C 136.433 -1.49519 0.889944 0
M  V30 1537 O 137.609 -1.62036 1.19609 0
M  V30 1538 C 134.674 -2.57916 2.3169 0
M  V30 1539 C 133.735 -2.42015 3.5458 0
M  V30 1540 C 132.968 -3.6803 3.8651 0
M  V30 1541 O 133.191 -4.72413 3.1966 0
M  V30 1542 O 132.125 -3.6326 4.79923 0
M  V30 1543 H 135.951 -0.931988 2.89046 0
M  V30 1544 H 133.536 -0.395488 1.4407 0
M  V30 1545 H 135.418 -3.36008 2.54316 0
M  V30 1546 H 134.093 -2.89925 1.43963 0
M  V30 1547 H 133 -1.62017 3.37196 0
M  V30 1548 H 134.333 -2.14937 4.4279 0
M  V30 1549 N 135.985 -1.50799 -0.457987 0
M  V30 1550 C 137.21 -1.66496 -1.23668 0
M  V30 1551 C 137.635 -0.353288 -1.84752 0
M  V30 1552 O 136.993 0.684346 -1.67888 0
M  V30 1553 C 137.041 -2.76763 -2.3116 0
M  V30 1554 O 136.145 -2.38928 -3.36136 0
M  V30 1555 H 135.486 -0.555828 -0.363252 0
M  V30 1556 H 138.016 -1.9725 -0.543474 0
M  V30 1557 H 138.026 -3.00232 -2.76269 0
M  V30 1558 H 136.701 -3.71954 -1.86073 0
M  V30 1559 H 135.278 -2.25953 -2.96647 0
M  V30 1560 N 137.463 0.71206 -1.40597 0
M  V30 1561 C 138.688 1.50617 -1.42581 0
M  V30 1562 C 139.113 1.88079 -0.0282102 0
M  V30 1563 O 138.471 1.53511 0.964579 0
M  V30 1564 C 138.519 2.7557 -2.3258 0
M  V30 1565 O 137.623 3.72414 -1.77148 0
M  V30 1566 H 136.964 0.453966 -0.484573 0
M  V30 1567 H 139.494 0.876649 -1.84868 0
M  V30 1568 H 139.504 3.2406 -2.47889 0
M  V30 1569 H 138.179 2.47639 -3.34138 0
M  V30 1570 H 136.756 3.31276 -1.71204 0
M  V30 1571 N 138.941 1.26152 0.944643 0
M  V30 1572 C 139.871 1.09902 2.06019 0
M  V30 1573 C 140.852 0.00519538 1.70099 0
M  V30 1574 O 142.037 0.176583 1.93396 0
M  V30 1575 C 139.167 0.727562 3.39594 0
M  V30 1576 C 138.121 1.77274 3.89561 0
M  V30 1577 C 137.447 1.25569 5.19747 0
M  V30 1578 C 138.747 3.17357 4.14827 0
M  V30 1579 H 140.441 2.03217 2.19871 0
M  V30 1580 H 137.987 0.978452 1.05652 0
M  V30 1581 H 139.94 0.600777 4.17095 0
M  V30 1582 H 138.664 -0.241287 3.25707 0
M  V30 1583 H 137.323 1.88814 3.14237 0
M  V30 1584 H 136.971 0.276783 5.02238 0
M  V30 1585 H 136.671 1.95433 5.54148 0
M  V30 1586 H 138.195 1.1415 5.99835 0
M  V30 1587 H 139.609 3.08914 4.82954 0
M  V30 1588 H 138.006 3.84781 4.60504 0
M  V30 1589 H 139.076 3.63673 3.20734 0
M  V30 1590 N 140.419 -1.14872 1.07899 0
M  V30 1591 C 141.366 -2.19791 0.704319 0
M  V30 1592 C 142.336 -1.63238 -0.306987 0
M  V30 1593 O 143.521 -1.8983 -0.192171 0
M  V30 1594 C 140.661 -3.44911 0.114244 0
M  V30 1595 C 139.774 -4.15637 1.1777 0
M  V30 1596 C 138.909 -5.28324 0.552037 0
M  V30 1597 C 137.948 -5.90875 1.59789 0
M  V30 1598 N 137.085 -6.95022 0.994404 0
M  V30 1599 H 141.925 -2.5119 1.60336 0
M  V30 1600 H 139.462 -1.23356 0.801352 0
M  V30 1601 H 141.42 -4.16477 -0.245544 0
M  V30 1602 H 140.05 -3.14011 -0.74813 0
M  V30 1603 H 139.102 -3.42512 1.65499 0
M  V30 1604 H 140.414 -4.5823 1.97046 0
M  V30 1605 H 139.568 -6.06538 0.1402 0
M  V30 1606 H 138.307 -4.86939 -0.272431 0
M  V30 1607 H 137.312 -5.11369 2.01945 0
M  V30 1608 H 138.537 -6.34337 2.42474 0
M  V30 1609 H 136.483 -6.55722 0.190939 0
M  V30 1610 H 136.4 -7.36073 1.72432 0
M  V30 1611 H 137.668 -7.77123 0.608253 0
M  V30 1612 N 141.898 -0.863906 -1.31812 0
M  V30 1613 C 142.808 -0.318461 -2.32428 0
M  V30 1614 C 143.824 0.568496 -1.64451 0
M  V30 1615 O 145 0.46666 -1.95919 0
M  V30 1616 C 142.065 0.476355 -3.43412 0
M  V30 1617 C 141.126 -0.43784 -4.27061 0
M  V30 1618 C 140.359 0.319138 -5.32745 0
M  V30 1619 O 140.582 1.54799 -5.48993 0
M  V30 1620 O 139.516 -0.319861 -6.01049 0
M  V30 1621 H 143.342 -1.15229 -2.80991 0
M  V30 1622 H 140.927 -0.627103 -1.35602 0
M  V30 1623 H 142.809 0.927156 -4.11074 0
M  V30 1624 H 141.484 1.28683 -2.97022 0
M  V30 1625 H 140.391 -0.937013 -3.62175 0
M  V30 1626 H 141.724 -1.21375 -4.77 0
M  V30 1627 N 143.376 1.44774 -0.622745 0
M  V30 1628 C 144.339 2.29069 0.0774015 0
M  V30 1629 C 145.339 1.4059 0.780461 0
M  V30 1630 O 146.529 1.62551 0.626322 0
M  V30 1631 C 143.661 3.21974 1.12006 0
M  V30 1632 H 144.854 2.92459 -0.663901 0
M  V30 1633 H 142.407 1.51548 -0.382486 0
M  V30 1634 H 143.142 2.63417 1.89162 0
M  V30 1635 H 142.927 3.87168 0.619951 0
M  V30 1636 H 144.417 3.85318 1.60995 0
M  V30 1637 N 144.854 0.36279 1.53368 0
M  V30 1638 C 146.103 -0.22888 2.00397 0
M  V30 1639 C 146.416 -1.50096 1.25421 0
M  V30 1640 O 147.622 -2.17106 1.63025 0
M  V30 1641 C 146.078 -0.458417 3.56969 0
M  V30 1642 C 145.686 0.798877 4.4082 0
M  V30 1643 C 147.43 -1.00789 4.12361 0
M  V30 1644 C 145.337 0.539078 5.88938 0
M  V30 1645 H 144.267 -0.089305 0.748693 0
M  V30 1646 H 146.918 0.481099 1.77081 0
M  V30 1647 H 145.3 -1.22959 3.76427 0
M  V30 1648 H 146.474 1.57262 4.33134 0
M  V30 1649 H 144.789 1.27137 3.96516 0
M  V30 1650 H 147.386 -1.21754 5.20653 0
M  V30 1651 H 147.729 -1.9692 3.66781 0
M  V30 1652 H 148.262 -0.296961 3.9669 0
M  V30 1653 H 145.001 1.47064 6.3879 0
M  V30 1654 H 144.521 -0.196222 5.99479 0
M  V30 1655 H 146.2 0.163542 6.46793 0
M  V30 1656 N 146.332 -1.57332 0.0918853 0
M  V30 1657 C 147.581 -1.93412 -0.572249 0
M  V30 1658 C 147.894 -0.975515 -1.69538 0
M  V30 1659 O 149.1 -1.22991 -2.42045 0
M  V30 1660 C 147.556 -3.43648 -1.0693 0
M  V30 1661 C 147.164 -4.47994 0.0239049 0
M  V30 1662 C 148.908 -3.88695 -1.70635 0
M  V30 1663 C 146.815 -5.89381 -0.488319 0
M  V30 1664 H 145.745 -0.721939 -0.217532 0
M  V30 1665 H 148.396 -1.82735 0.167369 0
M  V30 1666 H 146.778 -3.49466 -1.8625 0
M  V30 1667 H 147.952 -4.53815 0.799277 0
M  V30 1668 H 146.267 -4.12536 0.565946 0
M  V30 1669 H 148.864 -4.91725 -2.10025 0
M  V30 1670 H 149.207 -3.27166 -2.57426 0
M  V30 1671 H 149.74 -3.85564 -0.979023 0
M  V30 1672 H 146.479 -6.54602 0.342906 0
M  V30 1673 H 145.999 -5.87037 -1.23077 0
M  V30 1674 H 147.678 -6.39863 -0.958317 0
M  V30 1675 N 147.81 0.181792 -1.56548 0
M  V30 1676 C 149.056 0.901431 -1.81665 0
M  V30 1677 C 149.389 1.82347 -0.668075 0
M  V30 1678 O 148.664 1.91669 0.330615 0
M  V30 1679 C 148.947 1.70618 -3.17115 0
M  V30 1680 C 148.8 0.807964 -4.42484 0
M  V30 1681 C 150.119 2.67605 -3.49393 0
M  V30 1682 H 147.238 0.32627 -0.660846 0
M  V30 1683 H 149.88 0.168134 -1.89255 0
M  V30 1684 H 148.03 2.33133 -3.10775 0
M  V30 1685 H 149.702 0.19649 -4.60881 0
M  V30 1686 H 147.945 0.115411 -4.33646 0
M  V30 1687 H 148.616 1.40632 -5.33785 0
M  V30 1688 H 151.092 2.15218 -3.56118 0
M  V30 1689 H 149.968 3.20985 -4.45264 0
M  V30 1690 H 150.229 3.47298 -2.73563 0
M  V30 1691 N 149.288 1.51039 0.449983 0
M  V30 1692 C 150.536 1.62759 1.19808 0
M  V30 1693 C 150.857 0.339981 1.92013 0
M  V30 1694 O 150.127 -0.643606 1.85026 0
M  V30 1695 H 148.707 0.599811 0.445237 0
M  V30 1696 H 151.369 1.87914 0.517138 0
M  V30 1697 H 150.465 2.44911 1.93455 0
M  V30 1698 N 150.766 -0.704594 1.40972 0
M  V30 1699 C 151.698 -1.82974 1.38033 0
M  V30 1700 C 152.711 -1.60305 0.283931 0
M  V30 1701 O 153.9 -1.69975 0.545042 0
M  V30 1702 C 151 -3.19578 1.12795 0
M  V30 1703 C 150.173 -3.69352 2.34302 0
M  V30 1704 C 149.232 -4.84601 2.05058 0
M  V30 1705 O 148.258 -4.96682 2.7802 0
M  V30 1706 N 149.46 -5.71194 1.03528 0
M  V30 1707 H 152.225 -1.85991 2.35005 0
M  V30 1708 H 149.786 -0.886567 1.35468 0
M  V30 1709 H 151.778 -3.9429 0.911987 0
M  V30 1710 H 150.348 -3.11642 0.24452 0
M  V30 1711 H 149.568 -2.85649 2.71659 0
M  V30 1712 H 150.856 -3.99345 3.1528 0
M  V30 1713 H 150.254 -5.64054 0.431217 0
M  V30 1714 H 148.811 -6.45843 0.879205 0
M  V30 1715 N 152.244 -1.26651 -0.937939 0
M  V30 1716 C 153.49 -1.12553 -1.687 0
M  V30 1717 C 153.823 0.329782 -1.91379 0
M  V30 1718 O 153.098 1.24202 -1.4968 0
M  V30 1719 C 153.381 -1.89862 -3.05981 0
M  V30 1720 C 153.234 -3.43318 -2.90607 0
M  V30 1721 C 154.553 -1.69499 -4.0615 0
M  V30 1722 H 151.672 -0.410257 -0.612257 0
M  V30 1723 H 154.314 -1.55685 -1.08913 0
M  V30 1724 H 152.464 -1.53204 -3.57017 0
M  V30 1725 H 154.136 -3.89747 -2.46769 0
M  V30 1726 H 152.379 -3.70179 -2.26164 0
M  V30 1727 H 153.05 -3.92642 -3.8799 0
M  V30 1728 H 155.526 -2.01442 -3.64088 0
M  V30 1729 H 154.402 -2.26002 -5.00214 0
M  V30 1730 H 154.663 -0.640365 -4.37438 0
M  V30 1731 N 153.722 1.14298 -1.08507 0
M  V30 1732 C 154.67 2.21483 -0.710483 0
M  V30 1733 C 155.664 1.66998 0.284234 0
M  V30 1734 O 156.87 1.79401 0.146692 0
M  V30 1735 H 153.245 0.721578 -0.211729 0
M  V30 1736 H 155.216 2.50348 -1.62384 0
M  V30 1737 C 153.965 3.4743 -0.137007 0
M  V30 1738 H 153.288 3.89686 -0.893592 0
M  V30 1739 H 154.728 4.2391 0.0872789 0
M  V30 1740 C 153.187 3.17548 1.12538 0
M  V30 1741 O 153.717 3.35437 2.21009 0
M  V30 1742 N 151.923 2.71499 1.03617 0
M  V30 1743 H 151.47 2.57143 0.153403 0
M  V30 1744 H 151.428 2.51881 1.88158 0
M  V30 1745 N 155.201 0.870884 1.31352 0
M  V30 1746 C 156.431 0.496049 2.00557 0
M  V30 1747 C 156.839 -0.916241 1.65534 0
M  V30 1748 O 156.182 -1.61188 0.881134 0
M  V30 1749 C 156.244 0.574418 3.54881 0
M  V30 1750 C 155.908 1.94849 4.1338 0
M  V30 1751 C 156.905 2.91611 4.30417 0
M  V30 1752 C 154.59 2.25005 4.49086 0
M  V30 1753 C 156.584 4.16672 4.82352 0
M  V30 1754 C 154.271 3.50315 5.00722 0
M  V30 1755 C 155.269 4.45964 5.17306 0
M  V30 1756 O 154.957 5.69052 5.67833 0
M  V30 1757 H 154.689 0.191664 0.64826 0
M  V30 1758 H 157.243 1.17409 1.68536 0
M  V30 1759 H 155.473 -0.160549 3.86367 0
M  V30 1760 H 157.162 0.212879 4.05341 0
M  V30 1761 H 157.928 2.69622 4.03149 0
M  V30 1762 H 153.807 1.51332 4.35453 0
M  V30 1763 H 157.351 4.91336 4.95211 0
M  V30 1764 H 153.248 3.72147 5.27424 0
M  V30 1765 H 154.016 5.71236 5.86201 0
M  V30 1766 N 156.679 -1.44442 0.630414 0
M  V30 1767 C 158.09 -1.85434 0.217063 0
M  V30 1768 C 158.441 -1.52748 -1.23136 0
M  V30 1769 O 157.566 -0.965205 -1.93682 0
M  V30 1770 C 158.161 -3.36581 0.387168 0
M  V30 1771 C 156.72 -3.76389 0.0283297 0
M  V30 1772 C 155.867 -2.68296 0.700889 0
M  V30 1773 H 158.818 -1.34919 0.83562 0
M  V30 1774 H 158.839 -3.78657 -0.374086 0
M  V30 1775 H 158.351 -3.60339 1.44144 0
M  V30 1776 H 156.452 -3.58246 -1.02423 0
M  V30 1777 H 156.565 -4.77095 0.437892 0
M  V30 1778 H 154.929 -2.54335 0.136267 0
M  V30 1779 H 155.712 -2.94887 1.75774 0
M  V30 1780 N 158.157 -0.370918 -1.53173 0
M  V30 1781 C 159.104 0.473035 -2.259 0
M  V30 1782 C 160.074 1.07311 -1.26781 0
M  V30 1783 O 161.259 1.1046 -1.55574 0
M  V30 1784 C 158.399 1.60405 -3.05556 0
M  V30 1785 C 157.512 1.02863 -4.19575 0
M  V30 1786 C 156.647 2.12918 -4.86661 0
M  V30 1787 C 155.686 1.52869 -5.92704 0
M  V30 1788 N 154.823 2.56779 -6.53459 0
M  V30 1789 H 159.663 -0.153649 -2.97604 0
M  V30 1790 H 157.2 -0.0875946 -1.46839 0
M  V30 1791 H 159.158 2.27034 -3.50016 0
M  V30 1792 H 157.788 2.20131 -2.36097 0
M  V30 1793 H 156.84 0.252465 -3.79561 0
M  V30 1794 H 158.152 0.549642 -4.95762 0
M  V30 1795 H 157.306 2.87356 -5.34333 0
M  V30 1796 H 156.045 2.6417 -4.09958 0
M  V30 1797 H 155.05 0.769479 -5.44389 0
M  V30 1798 H 156.275 1.02435 -6.7133 0
M  V30 1799 H 154.221 3.07235 -5.79606 0
M  V30 1800 H 154.138 2.13583 -7.25202 0
M  V30 1801 H 155.406 3.30903 -7.05779 0
M  V30 1802 N 159.635 1.57281 -0.100228 0
M  V30 1803 C 160.881 1.94826 0.563101 0
M  V30 1804 C 161.214 0.982475 1.67514 0
M  V30 1805 O 160.489 0.0164069 1.94493 0
M  V30 1806 C 160.772 3.42453 1.11346 0
M  V30 1807 C 160.625 4.498 0.00612081 0
M  V30 1808 C 161.944 3.91506 2.01024 0
M  V30 1809 H 159.063 0.708428 0.203221 0
M  V30 1810 H 161.705 1.8922 -0.171979 0
M  V30 1811 H 159.855 3.47361 1.7399 0
M  V30 1812 H 161.527 4.57 -0.628357 0
M  V30 1813 H 159.77 4.28756 -0.659581 0
M  V30 1814 H 160.441 5.50306 0.432109 0
M  V30 1815 H 162.917 3.88784 1.48278 0
M  V30 1816 H 161.793 4.95358 2.36457 0
M  V30 1817 H 162.054 3.31099 2.92961 0
M  V30 1818 N 161.113 -0.173488 1.56642 0
M  V30 1819 C 162.076 -1.19859 1.95362 0
M  V30 1820 C 163.076 -1.37296 0.83704 0
M  V30 1821 O 164.266 -1.34739 1.10413 0
M  V30 1822 C 161.398 -2.56405 2.24654 0
M  V30 1823 H 162.591 -0.867062 2.87092 0
M  V30 1824 H 160.144 -0.415853 1.50666 0
M  V30 1825 H 160.879 -2.94576 1.35631 0
M  V30 1826 H 160.664 -2.45115 3.06041 0
M  V30 1827 H 162.154 -3.30287 2.5554 0
M  V30 1828 N 162.591 -1.51276 -0.441967 0
M  V30 1829 C 163.868 -1.54252 -1.20273 0
M  V30 1830 C 164.248 -0.30408 -2.08898 0
M  V30 1831 O 163.596 0.711084 -2.17154 0
M  V30 1832 C 163.806 -2.85406 -2.00859 0
M  V30 1833 C 165.154 -3.37181 -2.58059 0
M  V30 1834 O 166.178 -2.86925 -2.11074 0
M  V30 1835 O 165.037 -4.24858 -3.43741 0
M  V30 1836 H 162.131 -0.619969 -0.547328 0
M  V30 1837 H 164.677 -1.63586 -0.451413 0
M  V30 1838 H 163.449 -3.67003 -1.35736 0
M  V30 1839 H 163.072 -2.79213 -2.83065 0
M  V30 1840 N 164.069 0.697108 -1.41344 0
M  V30 1841 C 165.294 1.49096 -1.44171 0
M  V30 1842 C 165.719 1.88038 -0.0481568 0
M  V30 1843 O 165.077 1.54525 0.948243 0
M  V30 1844 C 165.125 2.73088 -2.3549 0
M  V30 1845 O 164.229 3.70514 -1.81088 0
M  V30 1846 H 163.57 0.448801 -0.489361 0
M  V30 1847 H 166.1 0.856992 -1.85787 0
M  V30 1848 H 166.11 3.21413 -2.51312 0
M  V30 1849 H 164.785 2.44081 -3.36745 0
M  V30 1850 H 163.362 3.29441 -1.74708 0
M  V30 1851 N 165.547 1.27147 0.931209 0
M  V30 1852 C 166.772 1.16191 1.71797 0
M  V30 1853 C 167.197 -0.278004 1.86034 0
M  V30 1854 O 166.555 -1.20137 1.35782 0
M  V30 1855 C 166.603 1.84673 3.09723 0
M  V30 1856 O 165.707 1.14231 3.96264 0
M  V30 1857 H 165.048 0.404303 0.526721 0
M  V30 1858 H 167.578 1.68152 1.1656 0
M  V30 1859 H 167.588 1.91893 3.60057 0
M  V30 1860 H 166.263 2.89421 2.98677 0
M  V30 1861 H 164.84 1.15056 3.54706 0
M  V30 1862 N 167.025 -1.13721 1.09112 0
M  V30 1863 C 168.25 -1.89314 0.847053 0
M  V30 1864 C 168.675 -1.78416 -0.595774 0
M  V30 1865 O 168.033 -1.12942 -1.41823 0
M  V30 1866 C 168.081 -3.3701 1.28284 0
M  V30 1867 O 167.185 -4.10054 0.439267 0
M  V30 1868 H 166.526 -0.588745 0.307044 0
M  V30 1869 H 169.056 -1.43902 1.45442 0
M  V30 1870 H 169.066 -3.87834 1.26683 0
M  V30 1871 H 167.741 -3.4426 2.33363 0
M  V30 1872 H 166.318 -3.69266 0.519312 0
M  V30 1873 N 168.503 -0.877838 -1.30888 0
M  V30 1874 C 169.75 -0.492696 -1.96415 0
M  V30 1875 C 170.078 0.956671 -1.69346 0
M  V30 1876 O 169.333 1.68993 -0.986913 0
M  V30 1877 C 169.632 -0.705748 -3.50363 0
M  V30 1878 C 169.298 -2.1291 -3.97467 0
M  V30 1879 C 167.96 -2.51834 -4.1004 0
M  V30 1880 C 170.312 -3.05702 -4.22132 0
M  V30 1881 C 167.64 -3.82775 -4.44635 0
M  V30 1882 C 169.992 -4.36166 -4.58194 0
M  V30 1883 C 168.656 -4.74993 -4.68975 0
M  V30 1884 H 167.926 -0.18029 -0.718733 0
M  V30 1885 H 170.573 -1.11233 -1.55883 0
M  V30 1886 H 168.878 -0.00303058 -3.918 0
M  V30 1887 H 170.575 -0.387456 -3.99124 0
M  V30 1888 H 167.165 -1.81694 -3.88182 0
M  V30 1889 H 171.349 -2.76853 -4.11906 0
M  V30 1890 H 166.605 -4.12609 -4.51181 0
M  V30 1891 H 170.779 -5.08111 -4.76231 0
M  V30 1892 H 168.406 -5.76495 -4.95537 0
M  V30 1893 N 169.982 1.44106 -0.638065 0
M  V30 1894 C 171.259 1.95453 -0.0759321 0
M  V30 1895 C 171.639 1.57984 1.40015 0
M  V30 1896 O 170.987 0.857361 2.11806 0
M  V30 1897 C 171.197 3.47655 -0.306132 0
M  V30 1898 C 172.545 4.24114 -0.203008 0
M  V30 1899 O 173.569 3.55405 -0.237871 0
M  V30 1900 O 172.428 5.46381 -0.113827 0
M  V30 1901 H 169.522 0.826797 0.0183332 0
M  V30 1902 H 172.068 1.54122 -0.710251 0
M  V30 1903 H 170.84 3.68 -1.3301 0
M  V30 1904 H 170.463 3.95949 0.361991 0
M  V30 1905 N 171.46 0.379036 1.52974 0
M  V30 1906 C 172.37 -0.468639 2.29872 0
M  V30 1907 C 173.386 -1.08067 1.36373 0
M  V30 1908 O 174.562 -1.08871 1.69438 0
M  V30 1909 C 171.627 -1.58594 3.083 0
M  V30 1910 C 170.688 -1.00007 4.17489 0
M  V30 1911 C 169.921 -2.06413 4.92168 0
M  V30 1912 O 170.144 -3.27751 4.66835 0
M  V30 1913 O 169.078 -1.68717 5.7777 0
M  V30 1914 H 172.904 0.157508 3.03291 0
M  V30 1915 H 170.489 0.143035 1.48714 0
M  V30 1916 H 172.371 -2.23525 3.57232 0
M  V30 1917 H 171.046 -2.19724 2.37703 0
M  V30 1918 H 169.953 -0.314299 3.72777 0
M  V30 1919 H 171.286 -0.433135 4.90291 0
M  V30 1920 N 172.938 -1.57226 0.108567 0
M  V30 1921 C 174.215 -1.86333 -0.594939 0
M  V30 1922 C 174.595 -1.00788 -1.85486 0
M  V30 1923 O 173.943 -0.0839293 -2.28346 0
M  V30 1924 C 174.153 -3.37265 -0.897405 0
M  V30 1925 C 175.501 -4.05629 -1.25501 0
M  V30 1926 O 176.525 -3.42224 -0.987998 0
M  V30 1927 O 175.384 -5.17531 -1.75567 0
M  V30 1928 H 172.478 -0.771018 -0.2991 0
M  V30 1929 H 175.024 -1.69102 0.142283 0
M  V30 1930 H 173.796 -3.913 -0.00413806 0
M  V30 1931 H 173.419 -3.59889 -1.69014 0
M  V30 1932 N 174.416 0.165178 -1.56732 0
M  V30 1933 C 175.641 0.900253 -1.86843 0
M  V30 1934 C 176.066 1.74766 -0.695596 0
M  V30 1935 O 175.424 1.77786 0.35522 0
M  V30 1936 C 175.472 1.74777 -3.15413 0
M  V30 1937 O 174.576 2.85007 -2.98068 0
M  V30 1938 H 173.917 0.251832 -0.614391 0
M  V30 1939 H 176.447 0.161468 -2.03962 0
M  V30 1940 H 176.457 2.14646 -3.46974 0
M  V30 1941 H 175.132 1.12537 -4.00385 0
M  V30 1942 H 173.709 2.48676 -2.77875 0
M  V30 1943 N 175.894 1.51508 0.433938 0
M  V30 1944 C 177.119 1.68443 1.21003 0
M  V30 1945 C 177.544 0.382636 1.84167 0
M  V30 1946 O 176.902 -0.65755 1.68956 0
M  V30 1947 C 176.95 2.80405 2.26727 0
M  V30 1948 O 176.054 2.44245 3.32292 0
M  V30 1949 H 175.395 0.561536 0.354363 0
M  V30 1950 H 177.925 1.9809 0.512024 0
M  V30 1951 H 177.935 3.0459 2.71457 0
M  V30 1952 H 176.61 3.74867 1.80132 0
M  V30 1953 H 175.187 2.30644 2.93015 0
M  V30 1954 N 177.372 -0.689602 1.41712 0
M  V30 1955 C 178.649 -1.44457 1.31877 0
M  V30 1956 C 179.029 -2.11039 -0.0508537 0
M  V30 1957 O 178.377 -2.02138 -1.06547 0
M  V30 1958 C 178.587 -2.45913 2.47645 0
M  V30 1959 C 179.935 -3.10991 2.89084 0
M  V30 1960 O 180.959 -2.56238 2.47428 0
M  V30 1961 O 179.818 -4.10174 3.61137 0
M  V30 1962 H 176.912 -0.64362 0.519309 0
M  V30 1963 H 179.458 -0.719576 1.53689 0
M  V30 1964 H 178.23 -1.95409 3.39015 0
M  V30 1965 H 177.853 -3.25913 2.27742 0
M  V30 1966 N 178.85 -1.27639 -0.924453 0
M  V30 1967 C 179.813 -1.10681 -2.00705 0
M  V30 1968 C 180.813 -0.0497823 -1.60723 0
M  V30 1969 O 182.003 -0.294654 -1.7169 0
M  V30 1970 C 179.135 -0.687164 -3.33902 0
M  V30 1971 H 180.328 -2.06817 -2.17179 0
M  V30 1972 H 177.881 -1.10473 -1.10569 0
M  V30 1973 H 178.616 0.275439 -3.23128 0
M  V30 1974 H 178.401 -1.45061 -3.6428 0
M  V30 1975 H 179.891 -0.590853 -4.13399 0
M  V30 1976 N 180.328 1.1314 -1.09713 0
M  V30 1977 C 181.258 2.20748 -0.761102 0
M  V30 1978 C 182.239 1.68061 0.262566 0
M  V30 1979 O 183.424 1.93765 0.129977 0
M  V30 1980 C 180.554 3.46812 -0.184054 0
M  V30 1981 C 179.508 4.12606 -1.13757 0
M  V30 1982 C 178.834 5.33031 -0.422083 0
M  V30 1983 C 180.134 4.59603 -2.48118 0
M  V30 1984 H 181.828 2.49113 -1.66082 0
M  V30 1985 H 179.374 1.19734 -0.799987 0
M  V30 1986 H 181.327 4.21353 0.0631215 0
M  V30 1987 H 180.051 3.17851 0.750868 0
M  V30 1988 H 178.71 3.40036 -1.37007 0
M  V30 1989 H 178.358 5.00335 0.517072 0
M  V30 1990 H 178.058 5.77999 -1.05788 0
M  V30 1991 H 179.582 6.10325 -0.183277 0
M  V30 1992 H 180.996 5.25552 -2.29059 0
M  V30 1993 H 179.393 5.15321 -3.07514 0
M  V30 1994 H 180.463 3.73971 -3.08665 0
M  V30 1995 N 181.806 0.884767 1.30421 0
M  V30 1996 C 183.031 0.517288 2.00845 0
M  V30 1997 C 183.456 -0.886779 1.65885 0
M  V30 1998 O 182.814 -1.58768 0.875354 0
M  V30 1999 C 182.862 0.698994 3.5376 0
M  V30 2000 O 181.966 -0.255208 4.1161 0
M  V30 2001 H 181.307 0.203872 0.631927 0
M  V30 2002 H 183.837 1.19225 1.66272 0
M  V30 2003 H 183.847 0.597912 4.03595 0
M  V30 2004 H 182.522 1.72271 3.78544 0
M  V30 2005 H 181.099 -0.10784 3.72744 0
M  V30 2006 N 183.284 -1.43765 0.645699 0
M  V30 2007 C 184.695 -1.85193 0.236719 0
M  V30 2008 C 185.046 -1.54045 -1.21509 0
M  V30 2009 O 184.171 -0.985694 -1.92647 0
M  V30 2010 C 184.766 -3.36151 0.422845 0
M  V30 2011 C 183.325 -3.76338 0.0682492 0
M  V30 2012 C 182.472 -2.67538 0.729306 0
M  V30 2013 H 185.423 -1.34025 0.849883 0
M  V30 2014 H 185.444 -3.79032 -0.333904 0
M  V30 2015 H 184.956 -3.5879 1.47958 0
M  V30 2016 H 183.057 -3.59312 -0.986179 0
M  V30 2017 H 183.17 -4.76603 0.488469 0
M  V30 2018 H 181.534 -2.54176 0.163235 0
M  V30 2019 H 182.317 -2.93006 1.78892 0
M  V30 2020 N 184.763 -0.387143 -1.52771 0
M  V30 2021 C 185.673 0.456442 -2.30117 0
M  V30 2022 C 186.689 1.07342 -1.36944 0
M  V30 2023 O 187.865 1.07971 -1.70013 0
M  V30 2024 C 184.93 1.56957 -3.09136 0
M  V30 2025 C 183.991 0.977916 -4.18014 0
M  V30 2026 C 183.224 2.038 -4.93256 0
M  V30 2027 O 183.447 3.25271 -4.68567 0
M  V30 2028 O 182.381 1.6565 -5.78657 0
M  V30 2029 H 186.207 -0.17359 -3.03203 0
M  V30 2030 H 183.792 -0.150919 -1.48636 0
M  V30 2031 H 185.674 2.21628 -3.58412 0
M  V30 2032 H 184.349 2.18461 -2.38865 0
M  V30 2033 H 183.256 0.294525 -3.72939 0
M  V30 2034 H 184.589 0.407128 -4.90513 0
M  V30 2035 N 186.241 1.57166 -0.116904 0
M  V30 2036 C 187.173 2.12271 0.864507 0
M  V30 2037 C 188.186 1.06494 1.23138 0
M  V30 2038 O 189.375 1.33873 1.18069 0
M  V30 2039 C 186.475 2.60564 2.16702 0
M  V30 2040 C 185.648 3.90416 1.97216 0
M  V30 2041 C 184.707 4.24329 3.11178 0
M  V30 2042 O 183.733 4.93182 2.84184 0
M  V30 2043 N 184.935 3.8148 4.37554 0
M  V30 2044 H 187.7 2.97102 0.393726 0
M  V30 2045 H 185.261 1.61759 0.0675805 0
M  V30 2046 H 187.253 2.80282 2.91932 0
M  V30 2047 H 185.823 1.80623 2.55135 0
M  V30 2048 H 185.043 3.79627 1.06192 0
M  V30 2049 H 186.331 4.75327 1.81499 0
M  V30 2050 H 185.729 3.25943 4.62361 0
M  V30 2051 H 184.286 4.06311 5.09661 0
M  V30 2052 N 187.719 -0.156864 1.56817 0
M  V30 2053 C 189.13 -0.717916 1.72345 0
M  V30 2054 C 189.481 -1.82124 0.729747 0
M  V30 2055 O 188.606 -2.16141 -0.105781 0
M  V30 2056 C 189.201 -1.30904 3.12489 0
M  V30 2057 C 187.76 -1.81676 3.29653 0
M  V30 2058 C 186.907 -0.701349 2.68284 0
M  V30 2059 H 189.858 0.0686989 1.58551 0
M  V30 2060 H 189.879 -2.17882 3.11942 0
M  V30 2061 H 189.391 -0.505796 3.8479 0
M  V30 2062 H 187.492 -2.64598 2.62333 0
M  V30 2063 H 187.605 -1.95226 4.3752 0
M  V30 2064 H 185.969 -1.12548 2.28484 0
M  V30 2065 H 186.752 0.0902846 3.43181 0
M  V30 2066 N 189.197 -1.51736 -0.425897 0
M  V30 2067 C 190.16 -1.73271 -1.50032 0
M  V30 2068 C 191.16 -0.602639 -1.4908 0
M  V30 2069 O 192.35 -0.87033 -1.509 0
M  V30 2070 C 189.482 -1.79969 -2.89523 0
M  V30 2071 H 190.675 -2.69172 -1.32237 0
M  V30 2072 H 188.228 -1.41899 -0.65532 0
M  V30 2073 H 188.963 -0.859241 -3.1271 0
M  V30 2074 H 188.748 -2.62109 -2.91619 0
M  V30 2075 H 190.238 -1.9843 -3.67444 0
M  V30 2076 N 190.675 0.682077 -1.42076 0
M  V30 2077 C 191.9 1.47558 -1.45744 0
M  V30 2078 C 192.325 1.87977 -0.0680981 0
M  V30 2079 O 191.683 1.55522 0.9318 0
M  V30 2080 C 191.731 2.70575 -2.38373 0
M  V30 2081 O 190.835 3.68573 -1.85007 0
M  V30 2082 H 190.176 0.443585 -0.494093 0
M  V30 2083 H 192.706 0.837238 -1.86686 0
M  V30 2084 H 192.716 3.18729 -2.54707 0
M  V30 2085 H 191.391 2.40495 -3.39315 0
M  V30 2086 H 189.968 3.2757 -1.78192 0
M  V30 2087 N 192.153 1.28127 0.917671 0
M  V30 2088 C 193.103 1.08361 2.00604 0
M  V30 2089 C 194.087 0.00847518 1.60898 0
M  V30 2090 O 195.279 0.228167 1.75523 0
M  V30 2091 C 192.408 0.743376 3.35155 0
M  V30 2092 C 191.494 1.85716 3.81275 0
M  V30 2093 N 191.885 3.09822 3.99805 0
M  V30 2094 C 190.183 1.74612 4.10398 0
M  V30 2095 C 190.884 3.82368 4.38372 0
M  V30 2096 N 189.86 3.10192 4.4641 0
M  V30 2097 H 193.662 2.02531 2.12975 0
M  V30 2098 H 191.176 1.18989 1.10523 0
M  V30 2099 H 193.173 0.582859 4.12805 0
M  V30 2100 H 191.833 -0.190595 3.2414 0
M  V30 2101 H 192.844 3.45475 3.85833 0
M  V30 2102 H 189.521 0.883657 4.08041 0
M  V30 2103 H 190.911 4.89082 4.60704 0
M  V30 2104 N 193.631 -1.12557 1.10312 0
M  V30 2105 C 194.541 -2.21841 0.763142 0
M  V30 2106 C 195.557 -1.72354 -0.238801 0
M  V30 2107 O 196.733 -2.01249 -0.0778746 0
M  V30 2108 C 193.798 -3.46131 0.198632 0
M  V30 2109 C 192.859 -4.10464 1.25769 0
M  V30 2110 C 192.092 -5.28821 0.72002 0
M  V30 2111 O 192.315 -5.6859 -0.453993 0
M  V30 2112 O 191.249 -5.83437 1.47935 0
M  V30 2113 H 195.075 -2.53312 1.67532 0
M  V30 2114 H 192.66 -1.20867 0.878157 0
M  V30 2115 H 194.542 -4.2125 -0.112401 0
M  V30 2116 H 193.217 -3.16338 -0.686419 0
M  V30 2117 H 192.124 -3.3713 1.62156 0
M  V30 2118 H 193.457 -4.44408 2.11571 0
M  V30 2119 N 195.109 -0.891671 -1.2995 0
M  V30 2120 C 196.334 -0.527932 -2.00568 0
M  V30 2121 C 196.759 0.877969 -1.66353 0
M  V30 2122 O 196.117 1.58301 -0.883762 0
M  V30 2123 C 196.165 -0.717745 -3.53385 0
M  V30 2124 O 195.269 0.233376 -4.11739 0
M  V30 2125 H 194.61 -0.20722 -0.630837 0
M  V30 2126 H 197.14 -1.20105 -1.65638 0
M  V30 2127 H 197.15 -0.619307 -4.03272 0
M  V30 2128 H 195.825 -1.74276 -3.77625 0
M  V30 2129 H 194.402 0.0880706 -3.72796 0
M  V30 2130 N 196.587 1.43421 -0.653314 0
M  V30 2131 C 197.519 2.29071 0.0769134 0
M  V30 2132 C 198.532 1.42513 0.787017 0
M  V30 2133 O 199.721 1.66449 0.644757 0
M  V30 2134 C 196.821 3.19436 1.13199 0
M  V30 2135 C 195.994 4.34533 0.500006 0
M  V30 2136 C 195.053 5.05771 1.45198 0
M  V30 2137 O 194.079 5.61037 0.960538 0
M  V30 2138 N 195.281 5.0928 2.78594 0
M  V30 2139 H 198.046 2.92382 -0.658235 0
M  V30 2140 H 195.607 1.54112 -0.496104 0
M  V30 2141 H 197.599 3.63958 1.76964 0
M  V30 2142 H 196.169 2.57724 1.7691 0
M  V30 2143 H 195.389 3.92925 -0.316738 0
M  V30 2144 H 196.677 5.08766 0.0588345 0
M  V30 2145 H 196.075 4.65751 3.2108 0
M  V30 2146 H 194.632 5.57519 3.37662 0
M  V30 2147 N 198.065 0.39524 1.52563 0
M  V30 2148 C 199.313 -0.184678 2.01254 0
M  V30 2149 C 199.634 -1.46822 1.28329 0
M  V30 2150 O 198.904 -1.91666 0.405094 0
M  V30 2151 H 197.484 -0.0712355 0.743596 0
M  V30 2152 H 200.146 0.528293 1.87603 0
M  V30 2153 H 199.242 -0.390681 3.09645 0
M  V30 2154 N 199.544 -1.57102 0.125237 0
M  V30 2155 C 200.769 -2.0019 -0.542101 0
M  V30 2156 C 201.194 -1.00449 -1.59034 0
M  V30 2157 O 200.552 0.0229423 -1.81285 0
M  V30 2158 C 200.6 -3.42129 -1.13929 0
M  V30 2159 O 199.704 -3.45307 -2.2547 0
M  V30 2160 H 199.045 -0.650171 -0.134812 0
M  V30 2161 H 201.575 -2.03461 0.215553 0
M  V30 2162 H 201.585 -3.80471 -1.4733 0
M  V30 2163 H 200.26 -4.14237 -0.371531 0
M  V30 2164 H 198.837 -3.1879 -1.93462 0
M  V30 2165 N 201.022 0.148545 -1.56898 0
M  V30 2166 C 202.268 0.862694 -1.83536 0
M  V30 2167 C 202.601 1.80889 -0.706604 0
M  V30 2168 O 201.876 1.92328 0.289885 0
M  V30 2169 C 202.159 1.63853 -3.20662 0
M  V30 2170 C 202.012 0.713925 -4.44098 0
M  V30 2171 C 203.331 2.60133 -3.54991 0
M  V30 2172 H 200.45 0.312179 -0.667618 0
M  V30 2173 H 203.092 0.127953 -1.89569 0
M  V30 2174 H 201.242 2.26489 -3.1565 0
M  V30 2175 H 202.914 0.098686 -4.61194 0
M  V30 2176 H 201.157 0.0234019 -4.33794 0
M  V30 2177 H 201.828 1.29278 -5.36648 0
M  V30 2178 H 204.304 2.07616 -3.60603 0
M  V30 2179 H 203.18 3.11468 -4.51972 0
M  V30 2180 H 203.441 3.41417 -2.80868 0
M  V30 2181 N 202.5 1.5196 0.417844 0
M  V30 2182 C 203.911 1.57851 0.997 0
M  V30 2183 C 204.262 0.413714 1.91789 0
M  V30 2184 O 203.387 -0.467057 2.113 0
M  V30 2185 C 203.982 2.86085 1.81496 0
M  V30 2186 C 202.541 2.94483 2.34428 0
M  V30 2187 C 201.688 2.52707 1.14169 0
M  V30 2188 H 204.639 1.57455 0.198392 0
M  V30 2189 H 204.66 2.70947 2.67148 0
M  V30 2190 H 204.172 3.70842 1.14446 0
M  V30 2191 H 202.273 2.142 3.04875 0
M  V30 2192 H 202.386 3.98546 2.65891 0
M  V30 2193 H 200.75 2.06353 1.49301 0
M  V30 2194 H 201.533 3.39828 0.486999 0
M  V30 2195 N 203.978 -0.674533 1.42435 0
M  V30 2196 C 205.203 -1.46784 1.46524 0
M  V30 2197 C 205.628 -1.87938 0.078066 0
M  V30 2198 O 204.986 -1.56014 -0.92354 0
M  V30 2199 C 205.034 -2.69307 2.39805 0
M  V30 2200 O 204.138 -3.67587 1.86959 0
M  V30 2201 H 203.479 -0.440959 0.496439 0
M  V30 2202 H 206.009 -0.827326 1.87127 0
M  V30 2203 H 206.019 -3.17374 2.56393 0
M  V30 2204 H 204.694 -2.38692 3.40586 0
M  V30 2205 H 203.271 -3.2662 1.79927 0
M  V30 2206 N 205.456 -1.28612 -0.910864 0
M  V30 2207 C 206.867 -1.14406 -1.47541 0
M  V30 2208 C 207.218 0.264901 -1.94403 0
M  V30 2209 O 206.343 1.15942 -1.82719 0
M  V30 2210 C 206.938 -2.07073 -2.68153 0
M  V30 2211 C 205.497 -1.96923 -3.20778 0
M  V30 2212 C 204.644 -1.98646 -1.93481 0
M  V30 2213 H 207.595 -1.41259 -0.723291 0
M  V30 2214 H 207.616 -1.63642 -3.43514 0
M  V30 2215 H 207.128 -3.09611 -2.34015 0
M  V30 2216 H 205.229 -0.97433 -3.59635 0
M  V30 2217 H 205.342 -2.84026 -3.85832 0
M  V30 2218 H 203.706 -1.43093 -2.10705 0
M  V30 2219 H 204.489 -3.02868 -1.61634 0
M  V30 2220 N 206.934 1.1197 -1.10907 0
M  V30 2221 C 207.864 2.19928 -0.784473 0
M  V30 2222 C 208.845 1.6833 0.244726 0
M  V30 2223 O 210.03 1.93892 0.109418 0
M  V30 2224 C 207.16 3.46597 -0.220827 0
M  V30 2225 C 206.114 4.11376 -1.18127 0
M  V30 2226 C 205.44 5.32554 -0.478594 0
M  V30 2227 C 206.74 4.56945 -2.52979 0
M  V30 2228 H 208.434 2.47337 -1.68715 0
M  V30 2229 H 205.98 1.18879 -0.812642 0
M  V30 2230 H 207.933 4.21396 0.0184278 0
M  V30 2231 H 206.657 3.1863 0.717113 0
M  V30 2232 H 205.316 3.38564 -1.40606 0
M  V30 2233 H 204.964 5.00856 0.463976 0
M  V30 2234 H 204.664 5.76844 -1.11912 0
M  V30 2235 H 206.188 6.10096 -0.248 0
M  V30 2236 H 207.602 5.23093 -2.3462 0
M  V30 2237 H 205.999 5.1203 -3.12962 0
M  V30 2238 H 207.069 3.70676 -3.12614 0
M  V30 2239 N 208.412 0.89855 1.29475 0
M  V30 2240 C 209.322 0.379974 2.31502 0
M  V30 2241 C 210.338 -0.524695 1.659 0
M  V30 2242 O 211.514 -0.414551 1.97087 0
M  V30 2243 C 208.579 -0.385138 3.44554 0
M  V30 2244 C 207.64 0.550914 4.2575 0
M  V30 2245 C 206.873 -0.177778 5.33404 0
M  V30 2246 O 207.096 -1.40189 5.52904 0
M  V30 2247 O 206.03 0.479106 5.9999 0
M  V30 2248 H 209.856 1.22639 2.77837 0
M  V30 2249 H 207.441 0.662834 1.33891 0
M  V30 2250 H 209.323 -0.817841 4.13388 0
M  V30 2251 H 207.998 -1.20763 3.0033 0
M  V30 2252 H 206.905 1.03271 3.59564 0
M  V30 2253 H 208.238 1.33979 4.73614 0
M  V30 2254 N 209.89 -1.43072 0.660911 0
M  V30 2255 C 210.853 -2.29194 -0.0166406 0
M  V30 2256 C 211.853 -1.42609 -0.742912 0
M  V30 2257 O 213.043 -1.64155 -0.583004 0
M  V30 2258 C 210.175 -3.24831 -1.0343 0
M  V30 2259 H 211.368 -2.90596 0.741208 0
M  V30 2260 H 208.921 -1.5048 0.422532 0
M  V30 2261 H 209.656 -2.68339 -1.82111 0
M  V30 2262 H 209.441 -3.88676 -0.517082 0
M  V30 2263 H 210.931 -3.89451 -1.50723 0
M  V30 2264 N 211.368 -0.403325 -1.52352 0
M  V30 2265 C 212.784 -0.0539281 -1.59509 0
M  V30 2266 C 212.984 1.43307 -1.41652 0
M  V30 2267 O 212.04 2.19924 -1.24056 0
M  V30 2268 C 213.353 -0.543654 -2.95745 0
M  V30 2269 C 214.901 -0.501125 -3.08962 0
M  V30 2270 C 215.376 -0.967267 -4.47669 0
M  V30 2271 N 216.867 -0.923849 -4.53893 0
M  V30 2272 C 217.602 -1.25578 -5.5948 0
M  V30 2273 N 217.098 -1.65889 -6.72646 0
M  V30 2274 N 218.891 -1.17613 -5.49658 0
M  V30 2275 H 211.042 -1.37123 -1.62206 0
M  V30 2276 H 213.305 -0.56294 -0.76276 0
M  V30 2277 H 213.011 -1.58275 -3.14073 0
M  V30 2278 H 212.885 0.0498042 -3.77167 0
M  V30 2279 H 215.272 0.528909 -2.90321 0
M  V30 2280 H 215.353 -1.13056 -2.2946 0
M  V30 2281 H 214.997 -1.9956 -4.67053 0
M  V30 2282 H 214.927 -0.314698 -5.25659 0
M  V30 2283 H 217.418 -0.627403 -3.72655 0
M  V30 2284 H 217.731 -1.89543 -7.49195 0
M  V30 2285 H 216.076 -1.69787 -6.73942 0
M  V30 2286 H 219.267 -0.860115 -4.6013 0
M  V30 2287 H 219.44 -1.43812 -6.3184 0
M  V30 2288 N 212.846 1.57033 -0.133567 0
M  V30 2289 C 214.092 1.95976 0.521649 0
M  V30 2290 C 214.425 1.01779 1.65393 0
M  V30 2291 O 213.7 0.0576581 1.94415 0
M  V30 2292 C 213.983 3.44738 1.04057 0
M  V30 2293 C 213.836 4.49711 -0.0892897 0
M  V30 2294 C 215.155 3.95682 1.92675 0
M  V30 2295 H 212.274 0.712579 0.188149 0
M  V30 2296 H 214.916 1.88813 -0.212076 0
M  V30 2297 H 213.066 3.50973 1.66583 0
M  V30 2298 H 214.738 4.55565 -0.725152 0
M  V30 2299 H 212.981 4.27261 -0.750378 0
M  V30 2300 H 213.652 5.51099 0.315284 0
M  V30 2301 H 216.128 3.91841 1.39998 0
M  V30 2302 H 215.004 5.00262 2.25897 0
M  V30 2303 H 215.265 3.37239 2.85872 0
M  V30 2304 N 214.325 -0.140222 1.56975 0
M  V30 2305 C 215.55 -0.870414 1.88251 0
M  V30 2306 C 215.975 -1.73637 0.723312 0
M  V30 2307 O 215.333 -1.78329 -0.32689 0
M  V30 2308 C 215.381 -1.69737 3.18154 0
M  V30 2309 O 214.485 -2.80229 3.02565 0
M  V30 2310 H 213.826 -0.242025 0.61832 0
M  V30 2311 H 216.356 -0.128999 2.04193 0
M  V30 2312 H 216.366 -2.09099 3.50345 0
M  V30 2313 H 215.041 -1.06152 4.02125 0
M  V30 2314 H 213.618 -2.44224 2.81796 0
M  V30 2315 N 215.803 -1.52179 -0.40978 0
M  V30 2316 C 216.713 -1.78364 -1.52392 0
M  V30 2317 C 217.729 -0.669183 -1.60617 0
M  V30 2318 O 218.905 -0.954518 -1.77344 0
M  V30 2319 C 215.97 -1.92822 -2.88133 0
M  V30 2320 C 215.031 -3.16725 -2.898 0
M  V30 2321 C 214.264 -3.30483 -4.19067 0
M  V30 2322 O 214.487 -2.49522 -5.12928 0
M  V30 2323 O 213.421 -4.2363 -4.27576 0
M  V30 2324 H 217.247 -2.72931 -1.33201 0
M  V30 2325 H 214.832 -1.37016 -0.59557 0
M  V30 2326 H 216.714 -2.04157 -3.68643 0
M  V30 2327 H 215.389 -1.01444 -3.07393 0
M  V30 2328 H 214.296 -3.10848 -2.08146 0
M  V30 2329 H 215.629 -4.07881 -2.75489 0
M  V30 2330 N 217.281 0.66697 -1.42791 0
M  V30 2331 C 218.692 1.2478 -1.38877 0
M  V30 2332 C 219.043 1.96012 -0.0859426 0
M  V30 2333 O 218.168 2.00463 0.815081 0
M  V30 2334 C 218.763 2.26938 -2.51564 0
M  V30 2335 C 217.322 2.80529 -2.50959 0
M  V30 2336 C 216.469 1.54965 -2.29959 0
M  V30 2337 H 219.42 0.459853 -1.51892 0
M  V30 2338 H 219.441 3.08834 -2.22265 0
M  V30 2339 H 218.953 1.75065 -3.46372 0
M  V30 2340 H 217.054 3.36502 -1.59991 0
M  V30 2341 H 217.167 3.29012 -3.48265 0
M  V30 2342 H 215.531 1.81817 -1.78366 0
M  V30 2343 H 216.314 1.05047 -3.26833 0
M  V30 2344 N 218.759 1.29093 0.90403 0
M  V30 2345 C 219.689 1.16401 2.02418 0
M  V30 2346 C 220.67 0.0593085 1.69997 0
M  V30 2347 O 221.855 0.238021 1.92736 0
M  V30 2348 C 218.985 0.835233 3.37107 0
M  V30 2349 C 217.939 1.89578 3.83724 0
M  V30 2350 C 217.265 1.42041 5.15489 0
M  V30 2351 C 218.565 3.30394 4.04521 0
M  V30 2352 H 220.259 2.10109 2.13295 0
M  V30 2353 H 217.805 1.01157 1.02486 0
M  V30 2354 H 219.758 0.733169 4.14973 0
M  V30 2355 H 218.482 -0.137543 3.2631 0
M  V30 2356 H 217.141 1.98715 3.08071 0
M  V30 2357 H 216.789 0.436426 5.01103 0
M  V30 2358 H 216.489 2.12964 5.4765 0
M  V30 2359 H 218.013 1.33176 5.959 0
M  V30 2360 H 219.427 3.24123 4.72882 0
M  V30 2361 H 217.824 3.99237 4.48029 0
M  V30 2362 H 218.894 3.73692 3.09002 0
M  V30 2363 N 220.237 -1.11381 1.11499 0
M  V30 2364 C 221.167 -2.19509 0.796125 0
M  V30 2365 C 222.148 -1.68458 -0.235796 0
M  V30 2366 O 223.333 -1.93947 -0.0991344 0
M  V30 2367 C 220.463 -3.46475 0.239205 0
M  V30 2368 C 219.417 -4.10744 1.20307 0
M  V30 2369 C 218.743 -5.32293 0.50683 0
M  V30 2370 C 220.043 -4.55597 2.55399 0
M  V30 2371 H 221.737 -2.46439 1.70024 0
M  V30 2372 H 219.283 -1.18446 0.818935 0
M  V30 2373 H 221.236 -4.214 0.00392006 0
M  V30 2374 H 219.96 -3.19006 -0.700206 0
M  V30 2375 H 218.619 -3.37813 1.42399 0
M  V30 2376 H 218.267 -5.01095 -0.437408 0
M  V30 2377 H 217.967 -5.76243 1.1497 0
M  V30 2378 H 219.491 -6.09956 0.280351 0
M  V30 2379 H 220.905 -5.21841 2.37391 0
M  V30 2380 H 219.302 -5.10363 3.15673 0
M  V30 2381 H 220.372 -3.69013 3.14575 0
M  V30 2382 N 221.715 -0.905404 -1.28997 0
M  V30 2383 C 222.94 -0.549175 -1.99997 0
M  V30 2384 C 223.365 0.860276 -1.67275 0
M  V30 2385 O 222.723 1.57355 -0.900502 0
M  V30 2386 C 222.771 -0.755185 -3.52604 0
M  V30 2387 O 221.875 0.189692 -4.11964 0
M  V30 2388 H 221.216 -0.213899 -0.628604 0
M  V30 2389 H 223.746 -1.21856 -1.64354 0
M  V30 2390 H 223.756 -0.662045 -4.02593 0
M  V30 2391 H 222.431 -1.78271 -3.75755 0
M  V30 2392 H 221.008 0.0485257 -3.72868 0
M  V30 2393 N 223.193 1.4272 -0.668489 0
M  V30 2394 C 224.156 2.292 0.00448567 0
M  V30 2395 C 225.156 1.43001 0.735339 0
M  V30 2396 O 226.346 1.64461 0.57429 0
M  V30 2397 C 223.478 3.25375 1.01705 0
M  V30 2398 H 224.671 2.90199 -0.756608 0
M  V30 2399 H 222.224 1.50254 -0.430506 0
M  V30 2400 H 222.959 2.69301 1.80686 0
M  V30 2401 H 222.744 3.88944 0.496463 0
M  V30 2402 H 224.234 3.90245 1.48655 0
M  V30 2403 N 224.671 0.411399 1.52136 0
M  V30 2404 C 225.899 -0.163076 2.06256 0
M  V30 2405 C 226.314 -1.3867 1.28125 0
M  V30 2406 O 225.671 -1.79423 0.333721 0
M  V30 2407 C 225.722 -0.511252 3.57867 0
M  V30 2408 O 225.443 0.66378 4.33042 0
M  V30 2409 C 226.944 -1.13921 4.28412 0
M  V30 2410 H 224.164 -0.0193897 0.67072 0
M  V30 2411 H 226.708 0.583007 1.96013 0
M  V30 2412 H 224.863 -1.20723 3.6811 0
M  V30 2413 H 225.277 0.372601 5.23175 0
M  V30 2414 H 226.751 -1.33302 5.35663 0
M  V30 2415 H 227.228 -2.11296 3.85033 0
M  V30 2416 H 227.834 -0.483373 4.22544 0
M  V30 2417 N 226.149 -1.5696 0.141893 0
M  V30 2418 C 227.374 -2.00754 -0.520838 0
M  V30 2419 C 227.799 -1.0213 -1.57959 0
M  V30 2420 O 227.157 0.00371324 -1.813 0
M  V30 2421 C 227.205 -3.43318 -1.10294 0
M  V30 2422 O 226.309 -3.47679 -2.21795 0
M  V30 2423 H 225.65 -0.651564 -0.127908 0
M  V30 2424 H 228.18 -2.03221 0.23712 0
M  V30 2425 H 228.19 -3.82012 -1.43287 0
M  V30 2426 H 226.865 -4.14608 -0.327574 0
M  V30 2427 H 225.442 -3.20824 -1.9007 0
M  V30 2428 N 227.627 0.131896 -1.57047 0
M  V30 2429 C 228.59 1.14638 -1.98471 0
M  V30 2430 C 229.59 1.35029 -0.873148 0
M  V30 2431 O 230.78 1.31764 -1.13946 0
M  V30 2432 C 227.912 2.50358 -2.31373 0
M  V30 2433 H 229.105 0.79064 -2.8929 0
M  V30 2434 H 226.658 0.375761 -1.51716 0
M  V30 2435 H 227.393 2.90876 -1.43393 0
M  V30 2436 H 227.178 2.36915 -3.12432 0
M  V30 2437 H 228.668 3.23395 -2.64207 0
M  V30 2438 N 229.106 1.52395 0.401703 0
M  V30 2439 C 230.331 1.70972 1.17403 0
M  V30 2440 C 230.756 0.421615 1.83314 0
M  V30 2441 O 230.114 -0.621564 1.70312 0
M  V30 2442 C 230.162 2.85151 2.20728 0
M  V30 2443 O 229.266 2.51238 3.27037 0
M  V30 2444 H 228.607 0.568927 0.342372 0
M  V30 2445 H 231.137 1.99131 0.469891 0
M  V30 2446 H 231.147 3.10279 2.64936 0
M  V30 2447 H 229.822 3.78603 1.7214 0
M  V30 2448 H 228.399 2.36808 2.88057 0
M  V30 2449 N 230.584 -0.659388 1.43143 0
M  V30 2450 C 231.995 -1.24041 1.39537 0
M  V30 2451 C 232.346 -1.95963 0.0963364 0
M  V30 2452 O 231.471 -2.00892 -0.804438 0
M  V30 2453 C 232.066 -2.25601 2.52764 0
M  V30 2454 C 230.625 -2.79195 2.52443 0
M  V30 2455 C 229.772 -1.53743 2.30778 0
M  V30 2456 H 232.723 -0.451792 1.52133 0
M  V30 2457 H 232.744 -3.07651 2.23899 0
M  V30 2458 H 232.256 -1.73226 3.47296 0
M  V30 2459 H 230.357 -3.35649 1.61773 0
M  V30 2460 H 230.47 -3.2716 3.50004 0
M  V30 2461 H 228.834 -1.80869 1.79328 0
M  V30 2462 H 229.617 -1.03312 3.27386 0
M  V30 2463 N 232.062 -1.29571 -0.897171 0
M  V30 2464 C 233.29 -1.20583 -1.68129 0
M  V30 2465 C 233.705 0.233181 -1.87354 0
M  V30 2466 O 233.062 1.15579 -1.41236 0
M  V30 2467 C 233.113 -1.91772 -3.06441 0
M  V30 2468 O 232.834 -3.30053 -2.88091 0
M  V30 2469 C 234.335 -1.89291 -4.00854 0
M  V30 2470 H 231.555 -0.417826 -0.525036 0
M  V30 2471 H 234.099 -1.70987 -1.12177 0
M  V30 2472 H 232.254 -1.45196 -3.59161 0
M  V30 2473 H 232.668 -3.65942 -3.75748 0
M  V30 2474 H 234.142 -2.43662 -4.95311 0
M  V30 2475 H 234.619 -0.869014 -4.30517 0
M  V30 2476 H 235.225 -2.35622 -3.54066 0
M  V30 2477 N 233.54 1.10788 -1.12088 0
M  V30 2478 C 234.472 2.16816 -0.743213 0
M  V30 2479 C 235.485 1.6119 0.228412 0
M  V30 2480 O 236.674 1.78497 0.0102931 0
M  V30 2481 C 233.774 3.38809 -0.0787313 0
M  V30 2482 C 232.947 4.23885 -1.0789 0
M  V30 2483 C 232.006 5.24334 -0.442713 0
M  V30 2484 O 231.032 5.58497 -1.09864 0
M  V30 2485 N 232.234 5.75079 0.791457 0
M  V30 2486 H 234.999 2.49825 -1.65552 0
M  V30 2487 H 232.56 1.26373 -1.012 0
M  V30 2488 H 234.552 4.03107 0.358766 0
M  V30 2489 H 233.122 3.03805 0.736275 0
M  V30 2490 H 232.342 3.55939 -1.69414 0
M  V30 2491 H 233.63 4.77562 -1.75533 0
M  V30 2492 H 233.028 5.49517 1.3434 0
M  V30 2493 H 231.585 6.4118 1.17183 0
M  V30 2494 N 235.018 0.912232 1.28515 0
M  V30 2495 C 236.264 0.545405 1.95328 0
M  V30 2496 C 236.597 -0.908313 1.71649 0
M  V30 2497 O 235.872 -1.64575 1.03659 0
M  V30 2498 C 236.155 0.853483 3.4984 0
M  V30 2499 C 236.008 2.35982 3.82926 0
M  V30 2500 C 237.327 0.348589 4.38717 0
M  V30 2501 H 234.446 0.199626 0.709449 0
M  V30 2502 H 237.088 1.1412 1.5191 0
M  V30 2503 H 235.238 0.34643 3.86952 0
M  V30 2504 H 236.91 2.93738 3.55691 0
M  V30 2505 H 235.153 2.81543 3.30024 0
M  V30 2506 H 235.824 2.52593 4.90816 0
M  V30 2507 H 238.3 0.78294 4.08668 0
M  V30 2508 H 237.176 0.593242 5.45685 0
M  V30 2509 H 237.437 -0.751049 4.35674 0
M  V30 2510 N 236.496 -1.42363 0.676048 0
M  V30 2511 C 237.742 -2.0182 0.199125 0
M  V30 2512 C 238.075 -1.53339 -1.19168 0
M  V30 2513 O 237.35 -0.736124 -1.80032 0
M  V30 2514 C 237.633 -3.59331 0.235144 0
M  V30 2515 C 237.486 -4.17989 1.66149 0
M  V30 2516 C 238.805 -4.3813 -0.41595 0
M  V30 2517 H 235.924 -0.733293 0.0738311 0
M  V30 2518 H 238.566 -1.69368 0.86107 0
M  V30 2519 H 236.716 -3.87109 -0.328487 0
M  V30 2520 H 238.388 -4.0116 2.27747 0
M  V30 2521 H 236.631 -3.7377 2.20178 0
M  V30 2522 H 237.302 -5.27126 1.63837 0
M  V30 2523 H 239.778 -4.16051 0.0638529 0
M  V30 2524 H 238.654 -5.47717 -0.360115 0
M  V30 2525 H 238.915 -4.16101 -1.49373 0
M  V30 2526 N 237.974 -0.419461 -1.51915 0
M  V30 2527 C 239.199 0.154572 -2.06823 0
M  V30 2528 C 239.624 1.3722 -1.28656 0
M  V30 2529 O 238.982 1.78461 -0.319583 0
M  V30 2530 C 239.03 0.473172 -3.57482 0
M  V30 2531 O 238.134 1.56255 -3.81652 0
M  V30 2532 H 237.475 0.0096924 -0.663929 0
M  V30 2533 H 240.005 -0.595642 -1.95738 0
M  V30 2534 H 240.015 0.728825 -4.01438 0
M  V30 2535 H 238.69 -0.416873 -4.13805 0
M  V30 2536 H 237.267 1.29825 -3.49571 0
M  V30 2537 N 239.452 1.56882 -0.150215 0
M  V30 2538 C 240.384 2.14057 0.819286 0
M  V30 2539 C 241.397 1.09082 1.20851 0
M  V30 2540 O 242.586 1.36347 1.15203 0
M  V30 2541 C 239.686 2.65102 2.11127 0
M  V30 2542 C 238.859 3.94511 1.88891 0
M  V30 2543 C 237.918 4.30834 3.02107 0
M  V30 2544 O 236.944 4.99099 2.73659 0
M  V30 2545 N 238.146 3.90676 4.29363 0
M  V30 2546 H 240.911 2.97871 0.330618 0
M  V30 2547 H 238.472 1.61866 0.0332538 0
M  V30 2548 H 240.464 2.86411 2.85921 0
M  V30 2549 H 239.034 1.85994 2.51247 0
M  V30 2550 H 238.254 3.81795 0.981152 0
M  V30 2551 H 239.542 4.7907 1.71376 0
M  V30 2552 H 238.94 3.35677 4.55343 0
M  V30 2553 H 237.497 4.1703 5.00928 0
M  V30 2554 N 240.93 -0.123565 1.57115 0
M  V30 2555 C 241.86 -1.15309 2.03042 0
M  V30 2556 C 242.841 -1.43454 0.914061 0
M  V30 2557 O 244.026 -1.53973 1.18347 0
M  V30 2558 C 241.156 -2.48043 2.43089 0
M  V30 2559 C 240.11 -2.3437 3.58127 0
M  V30 2560 C 239.436 -3.72026 3.84059 0
M  V30 2561 C 240.736 -1.80804 4.90007 0
M  V30 2562 H 242.43 -0.771102 2.893 0
M  V30 2563 H 239.976 -0.369479 1.39179 0
M  V30 2564 H 241.929 -3.20311 2.73823 0
M  V30 2565 H 240.653 -2.88122 1.53796 0
M  V30 2566 H 239.312 -1.64551 3.27595 0
M  V30 2567 H 238.96 -4.09582 2.91979 0
M  V30 2568 H 238.66 -3.63732 4.6149 0
M  V30 2569 H 240.184 -4.45806 4.1724 0
M  V30 2570 H 241.598 -2.42886 5.19307 0
M  V30 2571 H 239.995 -1.83343 5.71407 0
M  V30 2572 H 241.065 -0.76528 4.78823 0
M  V30 2573 N 242.408 -1.52605 -0.393616 0
M  V30 2574 C 243.819 -1.59417 -0.971761 0
M  V30 2575 C 244.17 -0.444173 -1.91106 0
M  V30 2576 O 243.295 0.433382 -2.12016 0
M  V30 2577 C 243.89 -2.88936 -1.76921 0
M  V30 2578 C 242.449 -2.98175 -2.29714 0
M  V30 2579 C 241.596 -2.54491 -1.10135 0
M  V30 2580 H 244.547 -1.57751 -0.173317 0
M  V30 2581 H 244.568 -2.75163 -2.62804 0
M  V30 2582 H 244.08 -3.72616 -1.08532 0
M  V30 2583 H 242.181 -2.19024 -3.01429 0
M  V30 2584 H 242.294 -4.02726 -2.59517 0
M  V30 2585 H 240.658 -2.08702 -1.45999 0
M  V30 2586 H 241.441 -3.4056 -0.432874 0
M  V30 2587 N 243.887 0.651787 -1.4349 0
M  V30 2588 C 244.82 1.77668 -1.43211 0
M  V30 2589 C 245.798 1.59931 -0.29338 0
M  V30 2590 O 246.982 1.82095 -0.487191 0
M  V30 2591 C 244.109 3.14986 -1.24505 0
M  V30 2592 C 243.155 3.51421 -2.41673 0
M  V30 2593 S 243.988 3.51234 -4.04222 0
M  V30 2594 C 245.144 4.91206 -3.87902 0
M  V30 2595 H 245.377 1.77635 -2.38397 0
M  V30 2596 H 242.91 0.824558 -1.30539 0
M  V30 2597 H 244.868 3.94237 -1.144 0
M  V30 2598 H 243.529 3.1258 -0.308651 0
M  V30 2599 H 242.722 4.51291 -2.24393 0
M  V30 2600 H 242.324 2.79585 -2.48411 0
M  V30 2601 H 244.616 5.79902 -3.50315 0
M  V30 2602 H 245.559 5.13537 -4.8753 0
M  V30 2603 H 245.967 4.64808 -3.20334 0
M  V30 2604 N 245.365 1.30045 0.890287 0
M  V30 2605 C 246.613 1.18327 1.63839 0
M  V30 2606 C 246.934 -0.263455 1.93212 0
M  V30 2607 O 246.204 -1.17856 1.56482 0
M  V30 2608 H 244.784 0.434933 0.607324 0
M  V30 2609 H 247.446 1.631 1.06698 0
M  V30 2610 H 246.542 1.74024 2.59079 0
M  V30 2611 N 246.843 -1.10192 1.12674 0
M  V30 2612 C 248.259 -1.34235 0.863317 0
M  V30 2613 C 248.459 -1.95062 -0.505277 0
M  V30 2614 O 247.515 -2.19192 -1.25345 0
M  V30 2615 C 248.828 -2.2616 1.98172 0
M  V30 2616 C 250.376 -2.3969 2.0129 0
M  V30 2617 C 250.851 -3.34946 3.1237 0
M  V30 2618 N 252.342 -3.42515 3.11829 0
M  V30 2619 C 253.077 -4.16199 3.94419 0
M  V30 2620 N 252.573 -4.92747 4.87004 0
M  V30 2621 N 254.366 -4.11843 3.82547 0
M  V30 2622 H 246.517 -0.690798 2.00853 0
M  V30 2623 H 248.78 -0.366774 0.874174 0
M  V30 2624 H 248.486 -1.8868 2.96804 0
M  V30 2625 H 248.36 -3.26488 1.88906 0
M  V30 2626 H 250.747 -2.76438 1.03276 0
M  V30 2627 H 250.828 -1.39169 2.14629 0
M  V30 2628 H 250.472 -2.98923 4.10619 0
M  V30 2629 H 250.402 -4.35353 2.96269 0
M  V30 2630 H 252.893 -2.87926 2.44759 0
M  V30 2631 H 253.206 -5.46376 5.46528 0
M  V30 2632 H 251.551 -4.91862 4.91016 0
M  V30 2633 H 254.742 -3.51136 3.0955 0
M  V30 2634 H 254.915 -4.69007 4.47142 0
M  V30 2635 N 248.321 -0.919034 -1.28029 0
M  V30 2636 C 249.598 -0.473668 -1.89778 0
M  V30 2637 C 249.978 1.04783 -1.83259 0
M  V30 2638 O 249.326 1.8982 -1.27202 0
M  V30 2639 C 249.536 -1.00998 -3.34066 0
M  V30 2640 C 250.884 -1.06525 -4.1102 0
M  V30 2641 O 251.908 -0.958996 -3.43048 0
M  V30 2642 O 250.767 -1.22776 -5.3253 0
M  V30 2643 H 247.861 -0.15098 -0.813101 0
M  V30 2644 H 250.407 -1.01016 -1.36359 0
M  V30 2645 H 249.179 -2.05392 -3.33061 0
M  V30 2646 H 248.802 -0.454626 -3.94992 0
M  V30 2647 N 249.799 1.42003 -0.683588 0
M  V30 2648 C 251.024 2.06265 -0.216647 0
M  V30 2649 C 251.449 1.51059 1.12083 0
M  V30 2650 O 250.807 0.632638 1.69904 0
M  V30 2651 C 250.855 3.60191 -0.171759 0
M  V30 2652 O 249.959 4.03396 0.857069 0
M  V30 2653 H 249.3 0.65502 -0.108834 0
M  V30 2654 H 251.83 1.81982 -0.935077 0
M  V30 2655 H 251.84 4.08 0.0014303 0
M  V30 2656 H 250.515 3.99743 -1.14796 0
M  V30 2657 H 249.092 3.67117 0.654208 0
M  V30 2658 N 251.277 0.427512 1.51691 0
M  V30 2659 C 252.693 0.0792977 1.59403 0
M  V30 2660 C 252.893 -1.41035 1.43914 0
M  V30 2661 O 251.949 -2.17922 1.27539 0
M  V30 2662 C 253.262 0.590636 2.94842 0
M  V30 2663 C 254.81 0.550215 3.08126 0
M  V30 2664 C 255.285 1.03836 4.46074 0
M  V30 2665 N 256.776 0.995943 4.52366 0
M  V30 2666 C 257.511 1.34463 5.57411 0
M  V30 2667 N 257.007 1.76569 6.69922 0
M  V30 2668 N 258.8 1.26343 5.47717 0
M  V30 2669 H 250.951 1.39687 1.60004 0
M  V30 2670 H 253.214 0.575003 0.753708 0
M  V30 2671 H 252.92 1.63251 3.11516 0
M  V30 2672 H 252.794 0.0102061 3.77199 0
M  V30 2673 H 255.181 -0.482654 2.91126 0
M  V30 2674 H 255.262 1.16693 2.27632 0
M  V30 2675 H 254.906 2.06965 4.63819 0
M  V30 2676 H 254.836 0.398286 5.25092 0
M  V30 2677 H 257.327 0.68661 3.7161 0
M  V30 2678 H 257.64 2.01438 7.46085 0
M  V30 2679 H 255.985 1.80488 6.71155 0
M  V30 2680 H 259.176 0.933209 4.58703 0
M  V30 2681 H 259.349 1.53846 6.29472 0
M  V30 2682 N 252.755 -1.56801 0.158532 0
M  V30 2683 C 253.665 -2.20916 -0.789518 0
M  V30 2684 C 254.681 -1.1969 -1.26294 0
M  V30 2685 O 255.857 -1.52308 -1.31773 0
M  V30 2686 C 252.922 -2.82727 -2.00665 0
M  V30 2687 C 251.983 -3.99114 -1.58134 0
M  V30 2688 C 251.216 -4.57968 -2.74045 0
M  V30 2689 O 251.439 -4.15704 -3.90572 0
M  V30 2690 O 250.373 -5.48047 -2.48855 0
M  V30 2691 H 254.199 -3.02464 -0.273681 0
M  V30 2692 H 251.784 -1.4924 -0.0690548 0
M  V30 2693 H 253.666 -3.21968 -2.71872 0
M  V30 2694 H 252.341 -2.04184 -2.51179 0
M  V30 2695 H 251.248 -3.64567 -0.839155 0
M  V30 2696 H 252.581 -4.79212 -1.12325 0
M  V30 2697 N 254.233 0.115231 -1.57178 0
M  V30 2698 C 255.166 1.17166 -1.95825 0
M  V30 2699 C 256.144 1.39912 -0.828463 0
M  V30 2700 O 257.328 1.54004 -1.08697 0
M  V30 2701 C 254.455 2.52478 -2.25771 0
M  V30 2702 C 253.501 2.46136 -3.48309 0
M  V30 2703 S 254.334 1.89736 -5.0076 0
M  V30 2704 C 255.49 3.26713 -5.33863 0
M  V30 2705 H 255.723 0.842103 -2.85124 0
M  V30 2706 H 253.256 0.322136 -1.51002 0
M  V30 2707 H 255.214 3.30332 -2.43702 0
M  V30 2708 H 253.875 2.82609 -1.37079 0
M  V30 2709 H 253.068 3.45819 -3.66641 0
M  V30 2710 H 252.67 1.76404 -3.29784 0
M  V30 2711 H 254.962 4.22935 -5.29275 0
M  V30 2712 H 255.905 3.13205 -6.35065 0
M  V30 2713 H 256.313 3.25316 -4.61335 0
M  V30 2714 N 255.711 1.52812 0.385517 0
M  V30 2715 C 256.641 1.80808 1.47752 0
M  V30 2716 C 257.622 0.660318 1.5676 0
M  V30 2717 O 258.807 0.908246 1.71652 0
M  V30 2718 C 255.937 1.98008 2.85324 0
M  V30 2719 C 254.891 3.13709 2.91154 0
M  V30 2720 C 254.217 3.16169 4.31209 0
M  V30 2721 C 255.517 4.52709 2.60483 0
M  V30 2722 H 257.211 2.72253 1.24573 0
M  V30 2723 H 254.757 1.31003 0.597839 0
M  V30 2724 H 256.71 2.16176 3.61726 0
M  V30 2725 H 255.434 1.03255 3.09848 0
M  V30 2726 H 254.093 2.95329 2.17201 0
M  V30 2727 H 253.741 2.19092 4.52778 0
M  V30 2728 H 253.441 3.93894 4.36029 0
M  V30 2729 H 254.965 3.36496 5.09512 0
M  V30 2730 H 256.379 4.71173 3.26602 0
M  V30 2731 H 254.776 5.32528 2.76648 0
M  V30 2732 H 255.846 4.59186 1.55809 0
M  V30 2733 N 257.189 -0.644168 1.43834 0
M  V30 2734 C 258.436 -1.40395 1.4593 0
M  V30 2735 C 258.764 -1.94305 0.0869658 0
M  V30 2736 O 258.019 -1.73288 -0.909378 0
M  V30 2737 C 258.318 -2.59615 2.45631 0
M  V30 2738 C 257.984 -2.2407 3.91284 0
M  V30 2739 C 256.646 -2.14089 4.30952 0
M  V30 2740 C 258.998 -1.95775 4.83034 0
M  V30 2741 C 256.326 -1.73981 5.6031 0
M  V30 2742 C 258.678 -1.57163 6.12766 0
M  V30 2743 C 257.342 -1.45713 6.51402 0
M  V30 2744 H 256.612 -0.513741 0.533995 0
M  V30 2745 H 259.259 -0.731724 1.76969 0
M  V30 2746 H 257.564 -3.32011 2.08028 0
M  V30 2747 H 259.261 -3.17834 2.44504 0
M  V30 2748 H 255.851 -2.32753 3.59895 0
M  V30 2749 H 260.035 -2.02403 4.53152 0
M  V30 2750 H 255.291 -1.63709 5.89075 0
M  V30 2751 H 259.465 -1.34303 6.83327 0
M  V30 2752 H 257.092 -1.14406 7.51542 0
M  V30 2753 N 258.668 -1.30515 -0.883378 0
M  V30 2754 C 259.598 -1.19607 -2.00541 0
M  V30 2755 C 260.579 -0.086346 -1.69881 0
M  V30 2756 O 261.764 -0.268654 -1.92333 0
M  V30 2757 C 258.894 -0.888758 -3.35736 0
M  V30 2758 C 257.848 -1.95659 -3.8066 0
M  V30 2759 C 257.174 -1.50224 -5.13164 0
M  V30 2760 C 258.474 -3.36788 -3.99213 0
M  V30 2761 H 260.168 -2.13476 -2.09925 0
M  V30 2762 H 257.714 -1.02775 -1.00863 0
M  V30 2763 H 259.667 -0.799094 -4.13754 0
M  V30 2764 H 258.391 0.0856125 -3.26488 0
M  V30 2765 H 257.05 -2.03591 -3.04871 0
M  V30 2766 H 256.698 -0.516092 -5.00345 0
M  V30 2767 H 256.398 -2.2165 -5.44192 0
M  V30 2768 H 257.922 -1.42639 -5.93706 0
M  V30 2769 H 259.336 -3.31605 -4.67665 0
M  V30 2770 H 257.733 -4.06314 -4.41621 0
M  V30 2771 H 258.803 -3.78561 -3.03017 0
M  V30 2772 N 260.146 1.09593 -1.13257 0
M  V30 2773 C 261.109 2.14359 -0.811358 0
M  V30 2774 C 262.109 1.59808 0.178377 0
M  V30 2775 O 263.299 1.74132 -0.0484911 0
M  V30 2776 C 260.431 3.40269 -0.207276 0
M  V30 2777 H 261.624 2.44284 -1.73969 0
M  V30 2778 H 259.177 1.25102 -0.936973 0
M  V30 2779 H 259.912 3.15969 0.73036 0
M  V30 2780 H 259.697 3.81154 -0.919992 0
M  V30 2781 H 261.187 4.176 0.000667944 0
M  V30 2782 N 261.624 0.925811 1.2754 0
M  V30 2783 C 262.534 0.428993 2.30644 0
M  V30 2784 C 263.55 -0.489387 1.66976 0
M  V30 2785 O 264.726 -0.372653 1.97922 0
M  V30 2786 C 261.791 -0.311967 3.45294 0
M  V30 2787 C 260.852 0.641098 4.24486 0
M  V30 2788 C 260.085 -0.0645955 5.33661 0
M  V30 2789 O 260.308 -1.28429 5.55754 0
M  V30 2790 O 259.242 0.606265 5.98839 0
M  V30 2791 H 263.068 1.28504 2.75173 0
M  V30 2792 H 260.653 0.691086 1.32455 0
M  V30 2793 H 262.535 -0.729972 4.15029 0
M  V30 2794 H 261.21 -1.14365 3.02824 0
M  V30 2795 H 260.117 1.10874 3.57292 0
M  V30 2796 H 261.45 1.43995 4.70666 0
M  V30 2797 N 263.102 -1.41638 0.69111 0
M  V30 2798 C 264.034 -2.29194 -0.0161523 0
M  V30 2799 C 265.047 -1.44549 -0.748955 0
M  V30 2800 O 266.236 -1.681 -0.6004 0
M  V30 2801 C 263.336 -3.22325 -1.0469 0
M  V30 2802 C 262.509 -4.35706 -0.384621 0
M  V30 2803 C 261.568 -5.09443 -1.31737 0
M  V30 2804 O 260.594 -5.63386 -0.811451 0
M  V30 2805 N 261.796 -5.16487 -2.64993 0
M  V30 2806 H 264.561 -2.90534 0.735523 0
M  V30 2807 H 262.122 -1.52742 0.53679 0
M  V30 2808 H 264.114 -3.68522 -1.67252 0
M  V30 2809 H 262.684 -2.62323 -1.70015 0
M  V30 2810 H 261.904 -3.91948 0.420804 0
M  V30 2811 H 263.192 -5.08743 0.0760765 0
M  V30 2812 H 262.59 -4.741 -3.08619 0
M  V30 2813 H 261.147 -5.66276 -3.22761 0
M  V30 2814 N 264.58 -0.43555 -1.51462 0
M  V30 2815 C 265.991 0.0279871 -1.86679 0
M  V30 2816 C 266.342 1.42104 -1.35281 0
M  V30 2817 O 265.467 2.04667 -0.702878 0
M  V30 2818 C 266.062 0.0575626 -3.38751 0
M  V30 2819 C 264.621 0.465507 -3.7351 0
M  V30 2820 C 263.768 -0.342996 -2.75171 0
M  V30 2821 H 266.719 -0.651473 -1.44712 0
M  V30 2822 H 266.74 0.867421 -3.70481 0
M  V30 2823 H 266.252 -0.956448 -3.7613 0
M  V30 2824 H 264.353 1.48519 -3.41721 0
M  V30 2825 H 264.466 0.191546 -4.78717 0
M  V30 2826 H 262.83 0.198442 -2.53926 0
M  V30 2827 H 263.613 -1.35585 -3.15391 0
M  V30 2828 N 266.058 1.56714 -0.166846 0
M  V30 2829 C 267.469 1.83378 0.350646 0
M  V30 2830 C 267.82 1.08646 1.63372 0
M  V30 2831 O 266.945 0.338058 2.13743 0
M  V30 2832 C 267.54 3.32643 0.642963 0
M  V30 2833 C 266.099 3.59818 1.10491 0
M  V30 2834 C 265.246 2.76954 0.138411 0
M  V30 2835 H 268.197 1.53803 -0.391193 0
M  V30 2836 H 268.218 3.49878 1.49551 0
M  V30 2837 H 267.73 3.87007 -0.291055 0
M  V30 2838 H 265.831 3.1086 2.05418 0
M  V30 2839 H 265.944 4.68178 1.01716 0
M  V30 2840 H 264.308 2.4666 0.634911 0
M  V30 2841 H 265.091 3.34097 -0.789549 0
M  V30 2842 N 267.536 -0.106894 1.57237 0
M  V30 2843 C 268.466 -1.13148 2.04254 0
M  V30 2844 C 269.447 -1.42476 0.929224 0
M  V30 2845 O 270.632 -1.52709 1.19973 0
M  V30 2846 C 267.762 -2.4545 2.45706 0
M  V30 2847 C 266.716 -2.30558 3.60592 0
M  V30 2848 C 266.042 -3.67931 3.87983 0
M  V30 2849 C 267.342 -1.75597 4.91897 0
M  V30 2850 H 269.036 -0.740374 2.90101 0
M  V30 2851 H 266.582 -0.354696 1.39563 0
M  V30 2852 H 268.535 -3.17389 2.77205 0
M  V30 2853 H 267.259 -2.86475 1.56843 0
M  V30 2854 H 265.918 -1.61067 3.29322 0
M  V30 2855 H 265.566 -4.06462 2.96306 0
M  V30 2856 H 265.266 -3.58817 4.65322 0
M  V30 2857 H 266.79 -4.41356 4.21945 0
M  V30 2858 H 268.204 -2.37364 5.21854 0
M  V30 2859 H 266.601 -1.77272 5.73319 0
M  V30 2860 H 267.671 -0.714451 4.79608 0
M  V30 2861 N 269.014 -1.53014 -0.377408 0
M  V30 2862 C 270.425 -1.60438 -0.954798 0
M  V30 2863 C 270.776 -0.464418 -1.90624 0
M  V30 2864 O 269.901 0.41087 -2.12464 0
M  V30 2865 C 270.496 -2.90797 -1.73847 0
M  V30 2866 C 269.055 -3.00595 -2.26538 0
M  V30 2867 C 268.202 -2.55645 -1.07429 0
M  V30 2868 H 271.153 -1.57926 -0.156575 0
M  V30 2869 H 271.174 -2.77935 -2.5987 0
M  V30 2870 H 270.686 -3.73746 -1.04574 0
M  V30 2871 H 268.787 -2.22208 -2.99089 0
M  V30 2872 H 268.9 -4.05456 -2.5523 0
M  V30 2873 H 267.264 -2.10239 -1.43777 0
M  V30 2874 H 268.047 -3.41 -0.396728 0
M  V30 2875 N 270.492 0.636531 -1.44174 0
M  V30 2876 C 271.903 1.21806 -1.41493 0
M  V30 2877 C 272.254 1.95785 -0.1275 0
M  V30 2878 O 271.379 2.02147 0.772376 0
M  V30 2879 C 271.974 2.21551 -2.56321 0
M  V30 2880 C 270.533 2.75143 -2.56853 0
M  V30 2881 C 269.68 1.50052 -2.33195 0
M  V30 2882 H 272.631 0.427531 -1.52833 0
M  V30 2883 H 272.652 3.0405 -2.28765 0
M  V30 2884 H 272.164 1.67679 -3.50008 0
M  V30 2885 H 270.265 3.33033 -1.67093 0
M  V30 2886 H 270.378 3.2155 -3.55165 0
M  V30 2887 H 268.742 1.77993 -1.82183 0
M  V30 2888 H 269.525 0.980903 -3.28988 0
M  V30 2889 N 271.97 1.30982 0.876444 0
M  V30 2890 C 273.381 1.18277 1.44456 0
M  V30 2891 C 273.732 -0.213265 1.95037 0
M  V30 2892 O 272.857 -1.11057 1.85729 0
M  V30 2893 C 273.452 2.1411 2.62569 0
M  V30 2894 C 272.011 2.05358 3.15444 0
M  V30 2895 C 271.158 2.03706 1.88146 0
M  V30 2896 H 274.109 1.43127 0.685584 0
M  V30 2897 H 274.13 1.72692 3.39054 0
M  V30 2898 H 273.642 3.15706 2.25724 0
M  V30 2899 H 271.743 1.06934 3.56926 0
M  V30 2900 H 271.856 2.94156 3.78166 0
M  V30 2901 H 270.22 1.48629 2.06837 0
M  V30 2902 H 271.003 3.07047 1.53547 0
M  V30 2903 N 273.449 -1.08991 1.13837 0
M  V30 2904 C 274.86 -1.62746 0.914917 0
M  V30 2905 C 275.211 -1.88403 -0.547594 0
M  V30 2906 O 274.336 -1.63706 -1.41525 0
M  V30 2907 C 274.931 -2.95662 1.65437 0
M  V30 2908 C 273.49 -3.46225 1.47666 0
M  V30 2909 C 272.637 -2.20562 1.6807 0
M  V30 2910 H 275.588 -0.922946 1.29102 0
M  V30 2911 H 275.609 -3.63825 1.11407 0
M  V30 2912 H 275.121 -2.76956 2.71877 0
M  V30 2913 H 273.222 -3.70046 0.435478 0
M  V30 2914 H 273.335 -4.23368 2.24268 0
M  V30 2915 H 271.699 -2.29439 1.10589 0
M  V30 2916 H 272.482 -2.0437 2.7584 0
M  V30 2917 N 274.927 -0.932562 -1.27047 0
M  V30 2918 C 275.857 -0.452902 -2.29066 0
M  V30 2919 C 276.838 0.489338 -1.62909 0
M  V30 2920 O 278.023 0.393046 -1.90181 0
M  V30 2921 C 275.153 0.290698 -3.46081 0
M  V30 2922 C 274.107 -0.564168 -4.24265 0
M  V30 2923 C 273.433 0.308886 -5.33807 0
M  V30 2924 C 274.733 -1.83112 -4.89149 0
M  V30 2925 H 276.427 -1.30552 -2.69437 0
M  V30 2926 H 273.973 -0.629201 -1.29526 0
M  V30 2927 H 275.926 0.637233 -4.16554 0
M  V30 2928 H 274.65 1.17738 -3.0464 0
M  V30 2929 H 273.309 -0.893477 -3.55545 0
M  V30 2930 H 272.957 1.19467 -4.88607 0
M  V30 2931 H 272.657 -0.259633 -5.87026 0
M  V30 2932 H 274.181 0.650884 -6.07121 0
M  V30 2933 H 275.595 -1.55236 -5.51883 0
M  V30 2934 H 273.992 -2.34353 -5.52448 0
M  V30 2935 H 275.062 -2.54772 -4.12576 0
M  V30 2936 N 276.405 1.4127 -0.698611 0
M  V30 2937 C 277.335 2.33447 -0.049629 0
M  V30 2938 C 278.316 1.51982 0.763898 0
M  V30 2939 O 279.501 1.80509 0.716257 0
M  V30 2940 C 276.631 3.35828 0.885267 0
M  V30 2941 C 275.585 4.27627 0.178613 0
M  V30 2942 C 274.911 5.20406 1.22807 0
M  V30 2943 C 276.211 5.13459 -0.956933 0
M  V30 2944 H 277.905 2.87966 -0.81951 0
M  V30 2945 H 275.451 1.38461 -0.395538 0
M  V30 2946 H 277.404 3.9924 1.34854 0
M  V30 2947 H 276.128 2.79666 1.68685 0
M  V30 2948 H 274.787 3.65643 -0.26466 0
M  V30 2949 H 274.435 4.60558 2.02226 0
M  V30 2950 H 274.135 5.82661 0.760239 0
M  V30 2951 H 275.659 5.86695 1.69179 0
M  V30 2952 H 277.073 5.70421 -0.573805 0
M  V30 2953 H 275.47 5.8467 -1.35205 0
M  V30 2954 H 276.54 4.50443 -1.79524 0
M  V30 2955 N 277.883 0.443576 1.51229 0
M  V30 2956 C 279.294 -0.0180867 1.86691 0
M  V30 2957 C 279.645 -1.41384 1.36033 0
M  V30 2958 O 278.77 -2.04291 0.713722 0
M  V30 2959 C 279.365 -0.039597 3.38777 0
M  V30 2960 C 277.924 -0.445692 3.73752 0
M  V30 2961 C 277.071 0.357584 2.74985 0
M  V30 2962 H 280.022 0.659138 1.44364 0
M  V30 2963 H 280.043 -0.847761 3.70936 0
M  V30 2964 H 279.555 0.976382 3.75617 0
M  V30 2965 H 277.656 -1.46704 3.42503 0
M  V30 2966 H 277.769 -0.166155 4.78812 0
M  V30 2967 H 276.133 -0.184973 2.54027 0
M  V30 2968 H 276.916 1.37256 3.14668 0
M  V30 2969 N 279.361 -1.56624 0.175154 0
M  V30 2970 C 280.772 -1.83561 -0.340916 0
M  V30 2971 C 281.123 -1.09511 -1.62794 0
M  V30 2972 O 280.248 -0.349389 -2.13561 0
M  V30 2973 C 280.843 -3.32979 -0.625313 0
M  V30 2974 C 279.402 -3.60399 -1.08581 0
M  V30 2975 C 278.549 -2.77024 -0.123722 0
M  V30 2976 H 281.5 -1.53593 0.399344 0
M  V30 2977 H 281.521 -3.50666 -1.47694 0
M  V30 2978 H 281.033 -3.86847 0.311575 0
M  V30 2979 H 279.134 -3.11945 -2.03767 0
M  V30 2980 H 279.247 -4.68711 -0.992317 0
M  V30 2981 H 277.611 -2.46993 -0.621821 0
M  V30 2982 H 278.394 -3.33674 0.807256 0
M  V30 2983 N 280.839 0.0985539 -1.57292 0
M  V30 2984 C 282.064 0.820196 -1.90493 0
M  V30 2985 C 282.489 1.71658 -0.769094 0
M  V30 2986 O 281.847 1.79133 0.279495 0
M  V30 2987 C 281.895 1.61242 -3.22542 0
M  V30 2988 O 280.999 2.72108 -3.09888 0
M  V30 2989 H 280.34 0.225547 -0.62452 0
M  V30 2990 H 282.87 0.0748159 -2.04463 0
M  V30 2991 H 282.88 1.99737 -3.55766 0
M  V30 2992 H 281.555 0.954535 -4.04798 0
M  V30 2993 H 280.132 2.36667 -2.88172 0
M  V30 2994 N 282.317 1.53212 0.369288 0
M  V30 2995 C 283.247 1.82365 1.45826 0
M  V30 2996 C 284.228 0.676907 1.56051 0
M  V30 2997 O 285.413 0.926401 1.70679 0
M  V30 2998 C 282.543 2.01023 2.83208 0
M  V30 2999 C 281.497 3.1678 2.8781 0
M  V30 3000 C 280.823 3.20724 4.27832 0
M  V30 3001 C 282.123 4.55447 2.55667 0
M  V30 3002 H 283.817 2.73559 1.21678 0
M  V30 3003 H 281.363 1.3163 0.583911 0
M  V30 3004 H 283.316 2.20001 3.59413 0
M  V30 3005 H 282.04 1.06536 3.08736 0
M  V30 3006 H 280.699 2.97616 2.14056 0
M  V30 3007 H 280.347 2.23882 4.50429 0
M  V30 3008 H 280.047 3.98496 4.31827 0
M  V30 3009 H 281.571 3.41881 5.05915 0
M  V30 3010 H 282.985 4.74611 3.21586 0
M  V30 3011 H 281.382 5.35432 2.70984 0
M  V30 3012 H 282.452 4.60812 1.5093 0
M  V30 3013 N 283.795 -0.628877 1.44509 0
M  V30 3014 C 285.023 -1.41554 1.50897 0
M  V30 3015 C 285.438 -1.8832 0.134564 0
M  V30 3016 O 284.795 -1.60969 -0.859965 0
M  V30 3017 C 284.846 -2.63435 2.47556 0
M  V30 3018 O 284.567 -2.18619 3.79654 0
M  V30 3019 C 286.068 -3.56537 2.63431 0
M  V30 3020 H 283.288 -0.434044 0.511709 0
M  V30 3021 H 285.832 -0.768895 1.89495 0
M  V30 3022 H 283.987 -3.24187 2.12089 0
M  V30 3023 H 284.401 -2.97652 4.31861 0
M  V30 3024 H 285.875 -4.38657 3.35088 0
M  V30 3025 H 286.352 -4.05493 1.68738 0
M  V30 3026 H 286.958 -3.01653 2.9981 0
M  V30 3027 N 285.273 -1.31445 -0.869486 0
M  V30 3028 C 286.221 -1.19067 -1.99814 0
M  V30 3029 C 287.215 -0.0988569 -1.69111 0
M  V30 3030 O 288.421 -0.260781 -1.78101 0
M  V30 3031 H 284.796 -0.368677 -0.655425 0
M  V30 3032 H 286.767 -2.14555 -2.07385 0
M  V30 3033 C 285.516 -0.915323 -3.35436 0
M  V30 3034 H 284.839 -1.74759 -3.59582 0
M  V30 3035 H 286.279 -0.868895 -4.15001 0
M  V30 3036 C 284.738 0.381928 -3.34728 0
M  V30 3037 O 285.268 1.39857 -3.76567 0
M  V30 3038 N 283.474 0.398633 -2.87853 0
M  V30 3039 H 283.021 -0.429186 -2.54 0
M  V30 3040 H 282.979 1.26651 -2.87762 0
M  V30 3041 N 286.751 1.08385 -1.14413 0
M  V30 3042 C 287.999 1.80419 -0.910679 0
M  V30 3043 C 288.32 1.86658 0.564243 0
M  V30 3044 O 287.59 1.35985 1.41014 0
M  V30 3045 H 286.17 0.668204 -0.333934 0
M  V30 3046 H 288.832 1.31037 -1.44275 0
M  V30 3047 H 287.928 2.83238 -1.31082 0
M  V30 3048 N 288.23 0.939286 1.26551 0
M  V30 3049 C 289.458 0.602536 1.97932 0
M  V30 3050 C 289.873 -0.82206 1.69964 0
M  V30 3051 O 289.23 -1.54789 0.966784 0
M  V30 3052 C 289.281 0.832946 3.51773 0
M  V30 3053 O 289.002 2.20151 3.78768 0
M  V30 3054 C 290.503 0.506483 4.40397 0
M  V30 3055 H 287.723 0.227248 0.631347 0
M  V30 3056 H 290.267 1.25948 1.61113 0
M  V30 3057 H 288.422 0.222644 3.8676 0
M  V30 3058 H 288.836 2.26013 4.73306 0
M  V30 3059 H 290.31 0.718333 5.47306 0
M  V30 3060 H 290.787 -0.558451 4.35635 0
M  V30 3061 H 291.393 1.09543 4.10951 0
M  V30 3062 N 289.708 -1.40897 0.706093 0
M  V30 3063 C 290.936 -2.05373 0.250887 0
M  V30 3064 C 291.351 -1.53172 -1.10381 0
M  V30 3065 O 290.708 -0.684305 -1.69185 0
M  V30 3066 C 290.759 -3.6088 0.211571 0
M  V30 3067 O 290.48 -4.11153 1.51276 0
M  V30 3068 C 291.981 -4.42517 -0.263346 0
M  V30 3069 H 289.201 -0.66115 0.114552 0
M  V30 3070 H 291.745 -1.80479 0.961635 0
M  V30 3071 H 289.9 -3.84777 -0.450073 0
M  V30 3072 H 290.314 -5.05279 1.40689 0
M  V30 3073 H 291.788 -5.51479 -0.239718 0
M  V30 3074 H 292.265 -4.19396 -1.30397 0
M  V30 3075 H 292.871 -4.23708 0.367677 0
M  V30 3076 N 291.186 -0.45159 -1.50991 0
M  V30 3077 C 292.435 0.111653 -2.01391 0
M  V30 3078 C 292.748 1.42529 -1.33959 0
M  V30 3079 O 293.954 2.07232 -1.75405 0
M  V30 3080 C 292.41 0.249514 -3.59034 0
M  V30 3081 C 292.018 -1.05453 -4.35412 0
M  V30 3082 C 293.762 0.765762 -4.17536 0
M  V30 3083 C 291.669 -0.881529 -5.84793 0
M  V30 3084 H 290.599 0.0455022 -0.752626 0
M  V30 3085 H 293.25 -0.583524 -1.73975 0
M  V30 3086 H 291.632 1.00803 -3.82955 0
M  V30 3087 H 292.806 -1.82248 -4.23229 0
M  V30 3088 H 291.121 -1.50039 -3.88429 0
M  V30 3089 H 293.718 0.911913 -5.26866 0
M  V30 3090 H 294.061 1.75201 -3.77638 0
M  V30 3091 H 294.594 0.0651744 -3.97747 0
M  V30 3092 H 291.333 -1.84057 -6.29129 0
M  V30 3093 H 290.853 -0.153625 -5.99603 0
M  V30 3094 H 292.532 -0.540363 -6.4474 0
M  V30 3095 N 292.664 1.56529 -0.183458 0
M  V30 3096 C 294.075 1.83739 0.331177 0
M  V30 3097 C 294.426 1.10373 1.62211 0
M  V30 3098 O 293.551 0.36071 2.13373 0
M  V30 3099 C 294.146 3.33306 0.607646 0
M  V30 3100 C 292.705 3.60969 1.06668 0
M  V30 3101 C 291.852 2.77086 0.109029 0
M  V30 3102 H 294.803 1.53379 -0.407484 0
M  V30 3103 H 294.824 3.51444 1.45832 0
M  V30 3104 H 294.336 3.86677 -0.332086 0
M  V30 3105 H 292.437 3.13021 2.0211 0
M  V30 3106 H 292.55 4.69231 0.967447 0
M  V30 3107 H 290.914 2.47319 0.608714 0
M  V30 3108 H 291.697 3.33241 -0.82494 0
M  V30 3109 N 294.142 -0.090211 1.57342 0
M  V30 3110 C 295.37 -0.806224 1.90546 0
M  V30 3111 C 295.785 -1.72041 0.777644 0
M  V30 3112 O 295.142 -1.80778 -0.250103 0
M  V30 3113 C 295.193 -1.61546 3.23396 0
M  V30 3114 O 294.914 -0.738043 4.31839 0
M  V30 3115 C 296.415 -2.4341 3.70495 0
M  V30 3116 H 293.635 -0.230256 0.630257 0
M  V30 3117 H 296.179 -0.0659843 2.04394 0
M  V30 3118 H 294.334 -2.30816 3.11131 0
M  V30 3119 H 294.748 -1.29901 5.08159 0
M  V30 3120 H 296.222 -2.95676 4.66133 0
M  V30 3121 H 296.699 -3.22098 2.98579 0
M  V30 3122 H 297.305 -1.79331 3.85643 0
M  V30 3123 N 295.62 -1.53406 -0.361157 0
M  V30 3124 C 296.583 -1.79479 -1.42548 0
M  V30 3125 C 297.583 -0.665327 -1.4639 0
M  V30 3126 O 298.773 -0.933549 -1.47073 0
M  V30 3127 C 295.905 -1.92087 -2.8163 0
M  V30 3128 H 297.098 -2.74538 -1.20701 0
M  V30 3129 H 294.651 -1.4455 -0.594546 0
M  V30 3130 H 295.386 -0.991099 -3.08784 0
M  V30 3131 H 295.171 -2.74241 -2.80239 0
M  V30 3132 H 296.661 -2.13836 -3.58697 0
M  V30 3133 N 297.098 0.621204 -1.44841 0
M  V30 3134 C 298.045 1.73267 -1.5247 0
M  V30 3135 C 299.015 1.6189 -0.371611 0
M  V30 3136 O 300.2 1.81668 -0.58321 0
M  V30 3137 C 297.34 3.11545 -1.48438 0
M  V30 3138 C 296.453 3.33827 -2.74196 0
M  V30 3139 C 295.588 4.62133 -2.61929 0
M  V30 3140 C 294.627 4.77627 -3.82804 0
M  V30 3141 N 293.764 5.97219 -3.69153 0
M  V30 3142 H 298.604 1.66082 -2.47428 0
M  V30 3143 H 296.141 0.810026 -1.22788 0
M  V30 3144 H 298.099 3.91528 -1.4409 0
M  V30 3145 H 296.729 3.1772 -0.570402 0
M  V30 3146 H 295.781 2.47715 -2.88689 0
M  V30 3147 H 297.093 3.41153 -3.6389 0
M  V30 3148 H 296.247 5.50291 -2.5547 0
M  V30 3149 H 294.986 4.57182 -1.69811 0
M  V30 3150 H 293.991 3.87896 -3.89637 0
M  V30 3151 H 295.216 4.84385 -4.75971 0
M  V30 3152 H 293.162 5.93339 -2.79794 0
M  V30 3153 H 293.079 6.05644 -4.52472 0
M  V30 3154 H 294.347 6.87912 -3.66603 0
M  V30 3155 N 298.576 1.31904 0.862503 0
M  V30 3156 C 299.801 1.25135 1.65397 0
M  V30 3157 C 300.226 -0.179 1.87246 0
M  V30 3158 O 299.584 -1.1277 1.4196 0
M  V30 3159 C 299.632 2.00832 2.99498 0
M  V30 3160 O 298.736 1.35075 3.89652 0
M  V30 3161 H 298.077 0.431655 0.504549 0
M  V30 3162 H 300.607 1.74094 1.07483 0
M  V30 3163 H 300.617 2.10709 3.49379 0
M  V30 3164 H 299.292 3.04847 2.82916 0
M  V30 3165 H 297.869 1.33696 3.48109 0
M  V30 3166 N 300.054 -1.07777 1.14986 0
M  V30 3167 C 301.282 -1.84018 0.945773 0
M  V30 3168 C 301.697 -1.81897 -0.505863 0
M  V30 3169 O 301.054 -1.22726 -1.35072 0
M  V30 3170 C 301.105 -3.31287 1.44677 0
M  V30 3171 O 300.826 -3.33449 2.84154 0
M  V30 3172 C 302.327 -4.24311 1.28355 0
M  V30 3173 H 299.547 -0.580716 0.336169 0
M  V30 3174 H 302.091 -1.36077 1.52654 0
M  V30 3175 H 300.246 -3.76594 0.908625 0
M  V30 3176 H 300.66 -4.25427 3.06777 0
M  V30 3177 H 302.134 -5.2573 1.68261 0
M  V30 3178 H 302.611 -4.38612 0.227184 0
M  V30 3179 H 303.217 -3.84836 1.81056 0
M  V30 3180 N 301.532 -0.945985 -1.26051 0
M  V30 3181 C 302.943 -0.638096 -1.75457 0
M  V30 3182 C 303.294 0.846672 -1.76991 0
M  V30 3183 O 302.419 1.66262 -1.38513 0
M  V30 3184 C 303.014 -1.15157 -3.18629 0
M  V30 3185 C 301.573 -0.894004 -3.65629 0
M  V30 3186 C 300.72 -1.29967 -2.44957 0
M  V30 3187 H 303.671 -1.12376 -1.1206 0
M  V30 3188 H 303.692 -0.507615 -3.77099 0
M  V30 3189 H 303.204 -2.23222 -3.1748 0
M  V30 3190 H 301.305 0.172057 -3.72203 0
M  V30 3191 H 301.418 -1.52439 -4.54202 0
M  V30 3192 H 299.782 -0.718078 -2.44368 0
M  V30 3193 H 300.565 -2.38935 -2.46505 0
M  V30 3194 N 303.011 1.40521 -0.713556 0
M  V30 3195 C 304.239 2.05237 -0.261775 0
M  V30 3196 C 304.654 1.53755 1.09567 0
M  V30 3197 O 304.011 0.693268 1.6882 0
M  V30 3198 C 304.062 3.60763 -0.230706 0
M  V30 3199 O 303.783 4.10345 -1.53455 0
M  V30 3200 C 305.284 4.42651 0.239874 0
M  V30 3201 H 302.504 0.660533 -0.118057 0
M  V30 3202 H 305.048 1.79967 -0.971192 0
M  V30 3203 H 303.203 3.8501 0.429661 0
M  V30 3204 H 303.617 5.04526 -1.43366 0
M  V30 3205 H 305.091 5.51599 0.210468 0
M  V30 3206 H 305.568 4.20082 1.28171 0
M  V30 3207 H 306.174 4.23507 -0.390142 0
M  V30 3208 N 304.489 0.459591 1.5075 0
M  V30 3209 C 305.419 -0.330644 2.31147 0
M  V30 3210 C 306.4 -1.00087 1.37538 0
M  V30 3211 O 307.585 -1.00025 1.66459 0
M  V30 3212 C 304.715 -1.41958 3.16962 0
M  V30 3213 C 303.669 -0.871608 4.19031 0
M  V30 3214 C 302.995 -2.05797 4.9351 0
M  V30 3215 C 304.295 0.109251 5.22186 0
M  V30 3216 H 305.989 0.340336 2.97459 0
M  V30 3217 H 303.535 0.165119 1.4305 0
M  V30 3218 H 305.488 -1.9798 3.71997 0
M  V30 3219 H 304.212 -2.11917 2.48513 0
M  V30 3220 H 302.871 -0.333442 3.6508 0
M  V30 3221 H 302.519 -2.74427 4.21544 0
M  V30 3222 H 302.219 -1.6976 5.62544 0
M  V30 3223 H 303.743 -2.62331 5.51375 0
M  V30 3224 H 305.157 -0.361405 5.7216 0
M  V30 3225 H 303.554 0.383316 5.98875 0
M  V30 3226 H 304.624 1.03887 4.73641 0
M  V30 3227 N 305.967 -1.56429 0.191757 0
M  V30 3228 C 307.216 -1.9666 -0.448088 0
M  V30 3229 C 307.529 -1.08136 -1.62991 0
M  V30 3230 O 308.735 -1.38135 -2.33733 0
M  V30 3231 C 307.191 -3.49753 -0.848585 0
M  V30 3232 C 306.799 -4.46935 0.308764 0
M  V30 3233 C 308.543 -3.9876 -1.4557 0
M  V30 3234 C 306.45 -5.91293 -0.112506 0
M  V30 3235 H 305.38 -0.734312 -0.171179 0
M  V30 3236 H 308.031 -1.81301 0.283242 0
M  V30 3237 H 306.413 -3.60604 -1.63649 0
M  V30 3238 H 307.587 -4.47813 1.08627 0
M  V30 3239 H 305.902 -4.08102 0.827158 0
M  V30 3240 H 308.499 -5.04086 -1.78328 0
M  V30 3241 H 308.842 -3.42875 -2.36099 0
M  V30 3242 H 309.375 -3.9101 -0.731836 0
M  V30 3243 H 306.114 -6.51097 0.758514 0
M  V30 3244 H 305.634 -5.93676 -0.854941 0
M  V30 3245 H 307.313 -6.44663 -0.549448 0
M  V30 3246 N 307.445 0.0818655 -1.57387 0
M  V30 3247 C 308.392 1.09834 -2.0299 0
M  V30 3248 C 309.362 1.39043 -0.908639 0
M  V30 3249 O 310.547 1.50282 -1.17559 0
M  V30 3250 C 307.687 2.40971 -2.47037 0
M  V30 3251 C 306.8 2.18379 -3.7274 0
M  V30 3252 C 305.935 3.43008 -4.0561 0
M  V30 3253 C 304.974 3.15736 -5.24383 0
M  V30 3254 N 304.111 4.32667 -5.52941 0
M  V30 3255 H 308.951 0.702472 -2.89602 0
M  V30 3256 H 306.488 0.33531 -1.43227 0
M  V30 3257 H 308.446 3.1752 -2.70623 0
M  V30 3258 H 307.076 2.78379 -1.63417 0
M  V30 3259 H 306.128 1.32569 -3.56552 0
M  V30 3260 H 307.44 1.94227 -4.59431 0
M  V30 3261 H 306.594 4.27958 -4.30043 0
M  V30 3262 H 305.333 3.70225 -3.17466 0
M  V30 3263 H 304.338 2.2918 -4.99757 0
M  V30 3264 H 305.563 2.8985 -6.14136 0
M  V30 3265 H 303.509 4.59935 -4.67756 0
M  V30 3266 H 303.426 4.11753 -6.34031 0
M  V30 3267 H 304.694 5.18644 -5.81918 0
M  V30 3268 N 308.923 1.53595 0.353017 0
M  V30 3269 C 309.855 1.77219 1.45348 0
M  V30 3270 C 310.868 0.65324 1.49119 0
M  V30 3271 O 312.057 0.929775 1.52373 0
M  V30 3272 C 309.157 1.84841 2.84055 0
M  V30 3273 C 308.33 3.14649 3.03833 0
M  V30 3274 C 307.389 3.13351 4.22727 0
M  V30 3275 O 306.415 3.87107 4.17297 0
M  V30 3276 N 307.617 2.35052 5.30783 0
M  V30 3277 H 310.382 2.72178 1.25457 0
M  V30 3278 H 307.943 1.52528 0.542833 0
M  V30 3279 H 309.935 1.81435 3.61751 0
M  V30 3280 H 308.505 0.971114 2.97133 0
M  V30 3281 H 307.725 3.31256 2.13689 0
M  V30 3282 H 309.013 4.00411 3.13925 0
M  V30 3283 H 308.411 1.74663 5.38061 0
M  V30 3284 H 306.968 2.37453 6.07009 0
M  V30 3285 N 310.401 -0.613514 1.45168 0
M  V30 3286 C 311.626 -1.40437 1.52618 0
M  V30 3287 C 312.051 -1.87438 0.157707 0
M  V30 3288 O 311.409 -1.59791 -0.856537 0
M  V30 3289 C 311.457 -2.58894 2.51011 0
M  V30 3290 O 310.561 -3.59326 2.02382 0
M  V30 3291 H 309.902 -0.419506 0.514695 0
M  V30 3292 H 312.432 -0.747215 1.90467 0
M  V30 3293 H 312.442 -3.06214 2.69624 0
M  V30 3294 H 311.117 -2.24032 3.50403 0
M  V30 3295 H 309.694 -3.18695 1.93618 0
M  V30 3296 N 311.879 -1.3236 -0.855495 0
M  V30 3297 C 312.811 -1.17052 -1.97057 0
M  V30 3298 C 313.824 -0.10574 -1.62456 0
M  V30 3299 O 315.013 -0.354619 -1.74942 0
M  V30 3300 C 312.113 -0.769305 -3.30053 0
M  V30 3301 C 311.286 -1.9222 -3.929 0
M  V30 3302 C 310.345 -1.50466 -5.04228 0
M  V30 3303 O 309.371 -2.21655 -5.24269 0
M  V30 3304 N 310.573 -0.400209 -5.79119 0
M  V30 3305 H 313.338 -2.13103 -2.1073 0
M  V30 3306 H 310.899 -1.24885 -1.0303 0
M  V30 3307 H 312.891 -0.472407 -4.01933 0
M  V30 3308 H 311.461 0.100025 -3.1244 0
M  V30 3309 H 310.681 -2.38563 -3.13817 0
M  V30 3310 H 311.969 -2.69403 -4.31624 0
M  V30 3311 H 311.367 0.192319 -5.65373 0
M  V30 3312 H 309.924 -0.162912 -6.51596 0
M  V30 3313 N 313.357 1.07166 -1.15556 0
M  V30 3314 C 314.768 1.6127 -0.940693 0
M  V30 3315 C 315.119 1.89251 0.517551 0
M  V30 3316 O 314.244 1.65937 1.38903 0
M  V30 3317 C 314.839 2.92993 -1.7012 0
M  V30 3318 C 313.398 3.43832 -1.53156 0
M  V30 3319 C 312.545 2.1786 -1.71558 0
M  V30 3320 H 315.496 0.90229 -1.30554 0
M  V30 3321 H 315.517 3.62007 -1.17181 0
M  V30 3322 H 315.029 2.72596 -2.76248 0
M  V30 3323 H 313.13 3.69307 -0.494294 0
M  V30 3324 H 313.243 4.19747 -2.30975 0
M  V30 3325 H 311.607 2.2765 -1.14225 0
M  V30 3326 H 312.39 1.99956 -2.79056 0
M  V30 3327 N 314.835 0.952656 1.25548 0
M  V30 3328 C 315.782 0.47008 2.25962 0
M  V30 3329 C 316.752 -0.476384 1.59122 0
M  V30 3330 O 317.937 -0.39007 1.8677 0
M  V30 3331 C 315.077 -0.247881 3.44209 0
M  V30 3332 C 314.19 0.735591 4.25691 0
M  V30 3333 C 313.325 -0.0047306 5.312 0
M  V30 3334 C 312.364 0.969805 6.04368 0
M  V30 3335 N 311.501 0.260486 7.01617 0
M  V30 3336 H 316.341 1.33126 2.66611 0
M  V30 3337 H 313.878 0.66765 1.31076 0
M  V30 3338 H 315.836 -0.680695 4.1161 0
M  V30 3339 H 314.466 -1.07312 3.0444 0
M  V30 3340 H 313.518 1.28689 3.57971 0
M  V30 3341 H 314.83 1.47934 4.76358 0
M  V30 3342 H 313.984 -0.496275 6.04667 0
M  V30 3343 H 312.723 -0.781282 4.81401 0
M  V30 3344 H 311.728 1.47237 5.29718 0
M  V30 3345 H 312.953 1.74655 6.56256 0
M  V30 3346 H 310.899 -0.497364 6.54112 0
M  V30 3347 H 310.816 0.943362 7.50091 0
M  V30 3348 H 312.084 -0.209587 7.79218 0
M  V30 3349 N 316.313 -1.40141 0.720998 0
M  V30 3350 C 317.538 -2.05618 0.271258 0
M  V30 3351 C 317.963 -1.53978 -1.08039 0
M  V30 3352 O 317.321 -0.677463 -1.68167 0
M  V30 3353 C 317.369 -3.59609 0.267197 0
M  V30 3354 O 316.473 -4.05526 -0.749814 0
M  V30 3355 H 315.814 -0.651904 0.126162 0
M  V30 3356 H 318.344 -1.79439 0.982997 0
M  V30 3357 H 318.354 -4.0786 0.106744 0
M  V30 3358 H 317.029 -3.96559 1.25354 0
M  V30 3359 H 315.606 -3.68722 -0.556644 0
M  V30 3360 N 317.792 -0.46758 -1.50504 0
M  V30 3361 C 318.755 0.317059 -2.26996 0
M  V30 3362 C 319.755 0.923513 -1.31635 0
M  V30 3363 O 320.945 0.793239 -1.55091 0
M  V30 3364 C 318.077 1.45134 -3.08462 0
M  V30 3365 H 319.27 -0.353723 -2.97807 0
M  V30 3366 H 316.823 -0.221545 -1.54722 0
M  V30 3367 H 317.558 2.15728 -2.4214 0
M  V30 3368 H 317.343 1.02232 -3.78538 0
M  V30 3369 H 318.833 2.00493 -3.66323 0
M  V30 3370 N 319.27 1.56325 -0.20005 0
M  V30 3371 C 320.495 2.02548 0.44597 0
M  V30 3372 C 320.92 1.07922 1.5406 0
M  V30 3373 O 320.278 0.0635775 1.81188 0
M  V30 3374 C 320.326 3.47175 0.974761 0
M  V30 3375 O 319.43 3.55671 2.08739 0
M  V30 3376 H 318.771 0.655862 0.103638 0
M  V30 3377 H 321.301 2.02201 -0.312381 0
M  V30 3378 H 321.311 3.87067 1.2901 0
M  V30 3379 H 319.986 4.15538 0.17347 0
M  V30 3380 H 318.563 3.27657 1.78032 0
M  V30 3381 N 320.748 -0.0735177 1.57428 0
M  V30 3382 C 321.658 -1.10547 2.06922 0
M  V30 3383 C 322.674 -1.42506 0.998402 0
M  V30 3384 O 323.85 -1.52717 1.31299 0
M  V30 3385 C 320.915 -2.40019 2.50184 0
M  V30 3386 C 319.976 -2.15046 3.71556 0
M  V30 3387 C 319.209 -3.38345 4.12745 0
M  V30 3388 O 319.432 -4.47399 3.53822 0
M  V30 3389 O 318.366 -3.2666 5.05546 0
M  V30 3390 H 322.192 -0.715013 2.95163 0
M  V30 3391 H 319.777 -0.287531 1.46607 0
M  V30 3392 H 321.659 -3.16218 2.78539 0
M  V30 3393 H 320.334 -2.78447 1.65072 0
M  V30 3394 H 319.241 -1.36558 3.48285 0
M  V30 3395 H 320.574 -1.81499 4.57514 0
M  V30 3396 N 322.226 -1.5378 -0.344866 0
M  V30 3397 C 323.173 -1.81676 -1.42346 0
M  V30 3398 C 324.143 -0.662376 -1.52321 0
M  V30 3399 O 325.328 -0.906675 -1.67881 0
M  V30 3400 C 322.468 -2.03087 -2.79015 0
M  V30 3401 C 321.581 -3.30799 -2.77842 0
M  V30 3402 C 320.716 -3.42285 -4.0622 0
M  V30 3403 C 319.755 -4.6395 -3.9927 0
M  V30 3404 N 318.892 -4.72477 -5.19336 0
M  V30 3405 H 323.732 -2.73703 -1.17858 0
M  V30 3406 H 321.269 -1.35568 -0.570949 0
M  V30 3407 H 323.227 -2.1349 -3.58438 0
M  V30 3408 H 321.857 -1.14375 -3.01858 0
M  V30 3409 H 320.909 -3.29244 -1.90533 0
M  V30 3410 H 322.221 -4.20314 -2.68584 0
M  V30 3411 H 321.375 -3.52113 -4.94066 0
M  V30 3412 H 320.114 -2.50823 -4.18258 0
M  V30 3413 H 319.119 -4.54201 -3.09809 0
M  V30 3414 H 320.344 -5.56775 -3.88817 0
M  V30 3415 H 318.29 -3.83924 -5.3192 0
M  V30 3416 H 318.207 -5.55927 -5.12329 0
M  V30 3417 H 319.475 -4.86613 -6.08957 0
M  V30 3418 N 323.704 0.605807 -1.45491 0
M  V30 3419 C 324.929 1.39625 -1.53361 0
M  V30 3420 C 325.354 1.87351 -0.167645 0
M  V30 3421 O 324.712 1.60243 0.848051 0
M  V30 3422 C 324.76 2.57559 -2.5238 0
M  V30 3423 O 323.864 3.58248 -2.04285 0
M  V30 3424 H 323.205 0.416771 -0.516912 0
M  V30 3425 H 325.735 0.737103 -1.90861 0
M  V30 3426 H 325.745 3.0478 -2.71244 0
M  V30 3427 H 324.42 2.22171 -3.51586 0
M  V30 3428 H 322.997 3.17664 -1.95305 0
M  V30 3429 N 325.182 1.32811 0.848464 0
M  V30 3430 C 326.114 1.18095 1.96433 0
M  V30 3431 C 327.127 0.114354 1.62398 0
M  V30 3432 O 328.316 0.363892 1.74751 0
M  V30 3433 C 325.416 0.786798 3.2964 0
M  V30 3434 C 324.589 1.943 3.91875 0
M  V30 3435 C 323.648 1.53138 5.03423 0
M  V30 3436 O 322.674 2.24432 5.23086 0
M  V30 3437 N 323.876 0.430915 5.78898 0
M  V30 3438 H 326.641 2.14218 2.09597 0
M  V30 3439 H 324.202 1.2543 1.02367 0
M  V30 3440 H 326.194 0.493715 4.01677 0
M  V30 3441 H 324.764 -0.0834541 3.12489 0
M  V30 3442 H 323.984 2.40224 3.12547 0
M  V30 3443 H 325.272 2.71689 4.30189 0
M  V30 3444 H 324.67 -0.162333 5.65467 0
M  V30 3445 H 323.227 0.197466 6.51501 0
M  V30 3446 N 326.66 -1.06551 1.16123 0
M  V30 3447 C 328.076 -1.3142 0.905585 0
M  V30 3448 C 328.276 -1.96571 -0.442964 0
M  V30 3449 O 327.332 -2.23068 -1.18308 0
M  V30 3450 C 328.645 -2.19741 2.05267 0
M  V30 3451 C 330.193 -2.33165 2.08813 0
M  V30 3452 C 330.668 -3.24838 3.22868 0
M  V30 3453 N 332.159 -3.32421 3.22568 0
M  V30 3454 C 332.894 -4.0344 4.0746 0
M  V30 3455 N 332.39 -4.77003 5.02434 0
M  V30 3456 N 334.183 -3.99464 3.95456 0
M  V30 3457 H 326.334 -0.626548 2.02949 0
M  V30 3458 H 328.597 -0.338777 0.8854 0
M  V30 3459 H 328.303 -1.79142 3.02657 0
M  V30 3460 H 328.177 -3.20313 1.99198 0
M  V30 3461 H 330.564 -2.73013 1.12018 0
M  V30 3462 H 330.645 -1.3227 2.18948 0
M  V30 3463 H 330.289 -2.85708 4.19921 0
M  V30 3464 H 330.219 -4.25707 3.0997 0
M  V30 3465 H 332.71 -2.79994 2.53795 0
M  V30 3466 H 333.023 -5.28712 5.63634 0
M  V30 3467 H 331.368 -4.75992 5.06415 0
M  V30 3468 H 334.559 -3.4111 3.20564 0
M  V30 3469 H 334.732 -4.54544 4.61837 0
M  V30 3470 N 328.138 -0.959301 -1.25041 0
M  V30 3471 C 329.363 -0.633507 -1.97488 0
M  V30 3472 C 329.788 0.788555 -1.70773 0
M  V30 3473 O 329.146 1.53394 -0.966431 0
M  V30 3474 C 329.194 -0.904057 -3.49083 0
M  V30 3475 O 328.298 0.0147939 -4.12397 0
M  V30 3476 H 327.639 -0.240368 -0.618966 0
M  V30 3477 H 330.169 -1.28717 -1.59038 0
M  V30 3478 H 330.179 -0.832203 -3.99423 0
M  V30 3479 H 328.854 -1.94048 -3.67856 0
M  V30 3480 H 327.431 -0.109664 -3.72739 0
M  V30 3481 N 329.616 1.39756 -0.72842 0
M  V30 3482 C 330.563 2.30647 -0.0841519 0
M  V30 3483 C 331.533 1.48869 0.7367 0
M  V30 3484 O 332.718 1.77574 0.698015 0
M  V30 3485 C 329.858 3.35165 0.822091 0
M  V30 3486 C 328.971 4.31999 -0.0106663 0
M  V30 3487 C 328.106 5.23585 0.896241 0
M  V30 3488 C 327.145 6.12072 0.0583381 0
M  V30 3489 N 326.282 6.96035 0.920818 0
M  V30 3490 H 331.122 2.85173 -0.864891 0
M  V30 3491 H 328.659 1.40422 -0.438179 0
M  V30 3492 H 330.617 3.94345 1.36189 0
M  V30 3493 H 329.247 2.8211 1.56888 0
M  V30 3494 H 328.299 3.74492 -0.66781 0
M  V30 3495 H 329.611 4.9443 -0.658825 0
M  V30 3496 H 328.765 5.87759 1.50412 0
M  V30 3497 H 327.504 4.61459 1.57819 0
M  V30 3498 H 326.509 5.46916 -0.562389 0
M  V30 3499 H 327.734 6.76261 -0.6203 0
M  V30 3500 H 325.68 6.36485 1.58818 0
M  V30 3501 H 325.597 7.55284 0.32899 0
M  V30 3502 H 326.865 7.64646 1.51447 0
M  V30 3503 N 331.094 0.475555 1.50254 0
M  V30 3504 C 332.041 -0.316293 2.28622 0
M  V30 3505 C 333.011 -0.983227 1.33873 0
M  V30 3506 O 334.196 -0.994805 1.62814 0
M  V30 3507 C 331.336 -1.38975 3.1588 0
M  V30 3508 C 330.449 -0.737146 4.25664 0
M  V30 3509 C 329.584 -1.78887 5.00173 0
M  V30 3510 C 328.623 -1.11676 6.01826 0
M  V30 3511 N 327.76 -2.11154 6.69596 0
M  V30 3512 H 332.6 0.358297 2.95838 0
M  V30 3513 H 330.137 0.188541 1.45887 0
M  V30 3514 H 332.095 -2.02383 3.64825 0
M  V30 3515 H 330.725 -2.03344 2.50701 0
M  V30 3516 H 329.777 0.0096065 3.80399 0
M  V30 3517 H 331.089 -0.206816 4.98371 0
M  V30 3518 H 330.243 -2.49865 5.52859 0
M  V30 3519 H 328.982 -2.35302 4.27182 0
M  V30 3520 H 327.987 -0.392633 5.48396 0
M  V30 3521 H 329.212 -0.55945 6.76792 0
M  V30 3522 H 327.158 -2.66577 5.99394 0
M  V30 3523 H 327.075 -1.63118 7.38193 0
M  V30 3524 H 328.343 -2.81497 7.26897 0
M  V30 3525 N 332.573 -1.56217 0.208337 0
M  V30 3526 C 333.536 -2.18455 -0.693557 0
M  V30 3527 C 334.536 -1.14268 -1.13135 0
M  V30 3528 O 335.726 -1.39577 -1.0423 0
M  V30 3529 C 332.858 -2.79727 -1.94848 0
M  V30 3530 H 334.051 -2.99519 -0.15114 0
M  V30 3531 H 331.604 -1.56245 -0.041287 0
M  V30 3532 H 332.339 -2.02497 -2.53309 0
M  V30 3533 H 332.124 -3.56009 -1.64316 0
M  V30 3534 H 333.614 -3.27475 -2.59133 0
M  V30 3535 N 334.051 0.0651679 -1.57465 0
M  V30 3536 C 334.998 1.07675 -2.04144 0
M  V30 3537 C 335.968 1.38071 -0.923335 0
M  V30 3538 O 337.153 1.49026 -1.19146 0
M  V30 3539 C 334.293 2.38337 -2.49579 0
M  V30 3540 C 333.406 2.14413 -3.75035 0
M  V30 3541 C 332.541 3.38686 -4.09225 0
M  V30 3542 C 331.58 3.10156 -5.27702 0
M  V30 3543 N 330.717 4.26778 -5.57499 0
M  V30 3544 H 335.557 0.671716 -2.90331 0
M  V30 3545 H 333.094 0.3201 -1.43575 0
M  V30 3546 H 335.052 3.14632 -2.73975 0
M  V30 3547 H 333.682 2.7663 -1.6636 0
M  V30 3548 H 332.734 1.2878 -3.57939 0
M  V30 3549 H 334.046 1.89344 -4.61466 0
M  V30 3550 H 333.2 4.23373 -4.34558 0
M  V30 3551 H 331.939 3.66837 -3.21374 0
M  V30 3552 H 330.944 2.23866 -5.02159 0
M  V30 3553 H 332.169 2.8332 -6.17176 0
M  V30 3554 H 330.115 4.54948 -4.72608 0
M  V30 3555 H 330.032 4.05005 -6.38362 0
M  V30 3556 H 331.3 5.12443 -5.87386 0
M  V30 3557 N 335.529 1.53961 0.336706 0
M  V30 3558 C 336.439 1.85432 1.43708 0
M  V30 3559 C 337.455 0.745053 1.57242 0
M  V30 3560 O 338.631 1.03804 1.72588 0
M  V30 3561 C 335.696 2.06349 2.78605 0
M  V30 3562 C 334.757 3.30191 2.74358 0
M  V30 3563 C 333.99 3.50101 4.02822 0
M  V30 3564 O 334.213 2.7371 5.00439 0
M  V30 3565 O 333.147 4.43547 4.06878 0
M  V30 3566 H 336.973 2.78975 1.20028 0
M  V30 3567 H 334.558 1.39701 0.52952 0
M  V30 3568 H 336.44 2.21513 3.58483 0
M  V30 3569 H 335.115 1.15995 3.02203 0
M  V30 3570 H 334.022 3.20425 1.93078 0
M  V30 3571 H 335.355 4.2056 2.55715 0
M  V30 3572 N 337.007 -0.598083 1.45811 0
M  V30 3573 C 337.937 -1.71873 1.58057 0
M  V30 3574 C 338.918 -1.64533 0.431615 0
M  V30 3575 O 340.103 -1.82787 0.65595 0
M  V30 3576 C 337.233 -3.10495 1.55597 0
M  V30 3577 C 336.187 -3.32654 2.69305 0
M  V30 3578 C 335.513 -4.71646 2.51902 0
M  V30 3579 C 336.813 -3.21981 4.11248 0
M  V30 3580 H 338.507 -1.61881 2.51863 0
M  V30 3581 H 336.053 -0.777372 1.21214 0
M  V30 3582 H 338.006 -3.88699 1.6276 0
M  V30 3583 H 336.73 -3.2135 0.583255 0
M  V30 3584 H 335.389 -2.56843 2.61586 0
M  V30 3585 H 335.037 -4.79246 1.52748 0
M  V30 3586 H 334.737 -4.87426 3.2816 0
M  V30 3587 H 336.261 -5.52038 2.60933 0
M  V30 3588 H 337.675 -3.90049 4.20161 0
M  V30 3589 H 336.072 -3.49289 4.87972 0
M  V30 3590 H 337.142 -2.1928 4.32486 0
M  V30 3591 N 338.485 -1.33259 -0.841409 0
M  V30 3592 C 339.432 -1.23302 -1.95103 0
M  V30 3593 C 340.402 -0.112204 -1.65721 0
M  V30 3594 O 341.587 -0.290038 -1.88583 0
M  V30 3595 C 338.727 -0.975583 -3.31023 0
M  V30 3596 C 337.84 -2.18243 -3.72819 0
M  V30 3597 C 336.975 -1.85936 -4.97595 0
M  V30 3598 C 336.014 -3.02866 -5.3192 0
M  V30 3599 N 335.151 -2.70565 -6.47873 0
M  V30 3600 H 339.991 -2.18207 -2.02952 0
M  V30 3601 H 337.528 -1.0851 -0.993173 0
M  V30 3602 H 339.486 -0.80677 -4.09325 0
M  V30 3603 H 338.116 -0.0632755 -3.22738 0
M  V30 3604 H 337.168 -2.46107 -2.90061 0
M  V30 3605 H 338.48 -3.05666 -3.94169 0
M  V30 3606 H 337.634 -1.65684 -5.83638 0
M  V30 3607 H 336.373 -0.957452 -4.78209 0
M  V30 3608 H 335.378 -3.23736 -4.44382 0
M  V30 3609 H 336.603 -3.93809 -5.53255 0
M  V30 3610 H 334.549 -1.8293 -6.29978 0
M  V30 3611 H 334.466 -3.51519 -6.69306 0
M  V30 3612 H 335.734 -2.53774 -7.37034 0
M  V30 3613 N 339.963 1.05934 -1.16686 0
M  V30 3614 C 341.374 1.60263 -0.957745 0
M  V30 3615 C 341.725 1.89789 0.49745 0
M  V30 3616 O 340.85 1.67401 1.37135 0
M  V30 3617 C 341.445 2.91172 -1.73218 0
M  V30 3618 C 340.004 3.42188 -1.56794 0
M  V30 3619 C 339.151 2.16028 -1.73859 0
M  V30 3620 H 342.102 0.888392 -1.31504 0
M  V30 3621 H 342.123 3.60744 -1.21014 0
M  V30 3622 H 341.635 2.6965 -2.79124 0
M  V30 3623 H 339.736 3.68762 -0.533437 0
M  V30 3624 H 339.849 4.17273 -2.35414 0
M  V30 3625 H 338.213 2.26426 -1.16633 0
M  V30 3626 H 338.996 1.96985 -2.81161 0
M  V30 3627 N 341.441 0.965919 1.2453 0
M  V30 3628 C 342.388 0.49402 2.25451 0
M  V30 3629 C 343.358 -0.45948 1.59618 0
M  V30 3630 O 344.543 -0.370238 1.87173 0
M  V30 3631 C 341.683 -0.211359 3.44452 0
M  V30 3632 C 340.796 0.7807 4.24887 0
M  V30 3633 C 339.931 0.0516105 5.31175 0
M  V30 3634 C 338.97 1.03385 6.03306 0
M  V30 3635 N 338.107 0.334887 7.01301 0
M  V30 3636 H 342.947 1.35946 2.65184 0
M  V30 3637 H 340.484 0.681515 1.3036 0
M  V30 3638 H 342.442 -0.637 4.12308 0
M  V30 3639 H 341.072 -1.04077 3.05562 0
M  V30 3640 H 340.124 1.32479 3.56586 0
M  V30 3641 H 341.436 1.52978 4.74762 0
M  V30 3642 H 340.59 -0.432114 6.05159 0
M  V30 3643 H 339.329 -0.730179 4.82203 0
M  V30 3644 H 338.334 1.52847 5.28127 0
M  V30 3645 H 339.559 1.81606 6.54367 0
M  V30 3646 H 337.505 -0.427959 6.54603 0
M  V30 3647 H 337.422 1.02287 7.49048 0
M  V30 3648 H 338.69 -0.126928 7.79397 0
M  V30 3649 N 342.919 -1.39368 0.735821 0
M  V30 3650 C 344.165 -2.00794 0.284544 0
M  V30 3651 C 344.498 -1.58255 -1.12557 0
M  V30 3652 O 343.773 -0.811819 -1.76748 0
M  V30 3653 C 344.056 -3.58011 0.387337 0
M  V30 3654 C 343.909 -4.10566 1.83728 0
M  V30 3655 C 345.228 -4.395 -0.22975 0
M  V30 3656 H 342.347 -0.729501 0.104866 0
M  V30 3657 H 344.989 -1.65564 0.93213 0
M  V30 3658 H 343.139 -3.88154 -0.164006 0
M  V30 3659 H 344.811 -3.91139 2.44556 0
M  V30 3660 H 343.054 -3.64095 2.35833 0
M  V30 3661 H 343.725 -5.19702 1.86047 0
M  V30 3662 H 346.201 -4.15406 0.240257 0
M  V30 3663 H 345.077 -5.48752 -0.127485 0
M  V30 3664 H 345.338 -4.22062 -1.3159 0
M  V30 3665 N 344.397 -0.483516 -1.5 0
M  V30 3666 C 345.344 0.304164 -2.28787 0
M  V30 3667 C 346.314 0.976114 -1.34392 0
M  V30 3668 O 347.499 0.986156 -1.63339 0
M  V30 3669 C 344.639 1.37298 -3.16612 0
M  V30 3670 C 343.752 0.714561 -4.26049 0
M  V30 3671 C 342.887 1.76232 -5.01114 0
M  V30 3672 C 341.926 1.08483 -6.0241 0
M  V30 3673 N 341.063 2.076 -6.70706 0
M  V30 3674 H 345.903 -0.373981 -2.95644 0
M  V30 3675 H 343.44 -0.196275 -1.45785 0
M  V30 3676 H 345.398 2.00445 -3.65893 0
M  V30 3677 H 344.028 2.02012 -2.51776 0
M  V30 3678 H 343.08 -0.0297798 -3.80388 0
M  V30 3679 H 344.392 0.180383 -4.98474 0
M  V30 3680 H 343.546 2.46929 -5.54176 0
M  V30 3681 H 342.285 2.33033 -4.28424 0
M  V30 3682 H 341.29 0.363545 -5.48597 0
M  V30 3683 H 342.515 0.523551 -6.77079 0
M  V30 3684 H 340.461 2.63394 -6.00799 0
M  V30 3685 H 340.378 1.59201 -7.39047 0
M  V30 3686 H 341.646 2.77639 -7.2838 0
M  V30 3687 N 345.875 1.56104 -0.216619 0
M  V30 3688 C 346.822 2.2007 0.695531 0
M  V30 3689 C 347.792 1.15471 1.19397 0
M  V30 3690 O 348.977 1.43807 1.25396 0
M  V30 3691 C 346.117 2.88073 1.90021 0
M  V30 3692 C 345.23 4.07253 1.44113 0
M  V30 3693 C 344.365 4.63052 2.603 0
M  V30 3694 C 343.404 5.74545 2.11103 0
M  V30 3695 N 342.541 6.24656 3.20545 0
M  V30 3696 H 347.381 2.97655 0.143327 0
M  V30 3697 H 344.918 1.46982 0.0589934 0
M  V30 3698 H 346.876 3.25681 2.60745 0
M  V30 3699 H 345.506 2.13015 2.42538 0
M  V30 3700 H 344.558 3.75164 0.628999 0
M  V30 3701 H 345.87 4.8783 1.04036 0
M  V30 3702 H 345.024 5.03078 3.39113 0
M  V30 3703 H 343.763 3.81628 3.03663 0
M  V30 3704 H 342.768 5.34027 1.3075 0
M  V30 3705 H 343.993 6.57801 1.68746 0
M  V30 3706 H 341.939 5.46148 3.63399 0
M  V30 3707 H 341.856 7.00343 2.84704 0
M  V30 3708 H 343.124 6.69338 3.99508 0
M  V30 3709 N 347.353 -0.0568162 1.57498 0
M  V30 3710 C 348.283 -1.06593 2.0775 0
M  V30 3711 C 349.264 -1.39448 0.974082 0
M  V30 3712 O 350.449 -1.48815 1.24771 0
M  V30 3713 C 347.579 -2.37509 2.5339 0
M  V30 3714 C 346.533 -2.1897 3.67745 0
M  V30 3715 C 345.859 -3.55402 3.99492 0
M  V30 3716 C 347.159 -1.59859 4.97235 0
M  V30 3717 H 348.853 -0.647706 2.9231 0
M  V30 3718 H 346.399 -0.310116 1.40621 0
M  V30 3719 H 348.352 -3.08409 2.87162 0
M  V30 3720 H 347.076 -2.8134 1.65878 0
M  V30 3721 H 345.735 -1.50508 3.3428 0
M  V30 3722 H 345.383 -3.9683 3.09088 0
M  V30 3723 H 345.083 -3.43831 4.76502 0
M  V30 3724 H 346.607 -4.27708 4.35773 0
M  V30 3725 H 348.021 -2.20642 5.29141 0
M  V30 3726 H 346.418 -1.58942 5.78669 0
M  V30 3727 H 347.488 -0.561506 4.81638 0
M  V30 3728 N 348.832 -1.54138 -0.328536 0
M  V30 3729 C 349.779 -1.83176 -1.40411 0
M  V30 3730 C 350.749 -0.678494 -1.5161 0
M  V30 3731 O 351.934 -0.92443 -1.6691 0
M  V30 3732 C 349.074 -2.06035 -2.76846 0
M  V30 3733 C 348.187 -3.33727 -2.74318 0
M  V30 3734 C 347.322 -3.46574 -4.02567 0
M  V30 3735 C 346.361 -4.68159 -3.94327 0
M  V30 3736 N 345.498 -4.77959 -5.14296 0
M  V30 3737 H 350.338 -2.74938 -1.14948 0
M  V30 3738 H 347.875 -1.36166 -0.556538 0
M  V30 3739 H 349.833 -2.1728 -3.56153 0
M  V30 3740 H 348.463 -1.1757 -3.00628 0
M  V30 3741 H 347.515 -3.31246 -1.8703 0
M  V30 3742 H 348.827 -4.23139 -2.64111 0
M  V30 3743 H 347.981 -3.57333 -4.90304 0
M  V30 3744 H 346.72 -2.55245 -4.15574 0
M  V30 3745 H 345.725 -4.57461 -3.04974 0
M  V30 3746 H 346.95 -5.60868 -3.82889 0
M  V30 3747 H 344.896 -3.89544 -5.27818 0
M  V30 3748 H 344.813 -5.6133 -5.06404 0
M  V30 3749 H 346.081 -4.93044 -6.03761 0
M  V30 3750 N 350.31 0.590341 -1.46126 0
M  V30 3751 C 351.54 1.37304 -1.54373 0
M  V30 3752 C 351.948 1.88332 -0.181071 0
M  V30 3753 O 351.291 1.63852 0.830559 0
M  V30 3754 C 351.353 2.6012 -2.48149 0
M  V30 3755 C 351.017 2.30613 -3.94546 0
M  V30 3756 C 352.014 1.89915 -4.83971 0
M  V30 3757 C 349.699 2.42993 -4.39613 0
M  V30 3758 C 351.693 1.61981 -6.16475 0
M  V30 3759 C 349.38 2.14672 -5.72153 0
M  V30 3760 C 350.378 1.7423 -6.60404 0
M  V30 3761 O 350.066 1.46251 -7.90485 0
M  V30 3762 H 349.798 0.426086 -0.524811 0
M  V30 3763 H 352.352 0.72539 -1.92165 0
M  V30 3764 H 350.582 3.27664 -2.05361 0
M  V30 3765 H 352.271 3.22182 -2.46887 0
M  V30 3766 H 353.037 1.79872 -4.50412 0
M  V30 3767 H 348.916 2.73435 -3.71153 0
M  V30 3768 H 352.46 1.30341 -6.85315 0
M  V30 3769 H 348.357 2.24337 -6.05263 0
M  V30 3770 H 349.125 1.6016 -8.02677 0
M  V30 3771 N 351.788 1.33704 0.83433 0
M  V30 3772 C 352.738 1.20899 1.93306 0
M  V30 3773 C 353.722 0.110783 1.60518 0
M  V30 3774 O 354.914 0.339331 1.73717 0
M  V30 3775 C 352.043 0.955018 3.29749 0
M  V30 3776 C 351.129 2.09587 3.68692 0
M  V30 3777 N 351.52 3.34621 3.79292 0
M  V30 3778 C 349.818 2.00358 3.98463 0
M  V30 3779 C 350.519 4.09472 4.13167 0
M  V30 3780 N 349.495 3.37954 4.25779 0
M  V30 3781 H 353.297 2.15665 1.99664 0
M  V30 3782 H 350.811 1.25777 1.02732 0
M  V30 3783 H 352.808 0.844208 4.08263 0
M  V30 3784 H 351.468 0.0159317 3.24696 0
M  V30 3785 H 352.479 3.69313 3.63082 0
M  V30 3786 H 349.156 1.14137 4.01596 0
M  V30 3787 H 350.546 5.17391 4.28668 0
M  V30 3788 N 353.266 -1.05314 1.17247 0
M  V30 3789 C 354.198 -2.13023 0.845812 0
M  V30 3790 C 355.211 -1.62096 -0.151246 0
M  V30 3791 O 356.4 -1.78343 0.0748818 0
M  V30 3792 C 353.5 -3.38047 0.240292 0
M  V30 3793 C 352.673 -4.18255 1.27991 0
M  V30 3794 C 351.732 -5.21625 0.692375 0
M  V30 3795 O 350.758 -5.52619 1.36385 0
M  V30 3796 N 351.96 -5.78201 -0.516178 0
M  V30 3797 H 354.725 -2.41642 1.77283 0
M  V30 3798 H 352.286 -1.21401 1.07115 0
M  V30 3799 H 354.278 -4.04359 -0.16603 0
M  V30 3800 H 352.848 -3.06972 -0.590487 0
M  V30 3801 H 352.068 -3.47451 1.86203 0
M  V30 3802 H 353.356 -4.68643 1.98119 0
M  V30 3803 H 352.754 -5.55301 -1.07969 0
M  V30 3804 H 351.311 -6.4604 -0.86458 0
M  V30 3805 N 354.744 -0.972509 -1.24016 0
M  V30 3806 C 355.974 -0.653853 -1.9598 0
M  V30 3807 C 356.382 0.781801 -1.72292 0
M  V30 3808 O 355.725 1.53677 -1.00644 0
M  V30 3809 C 355.787 -0.854608 -3.49194 0
M  V30 3810 C 355.451 -2.27082 -3.96589 0
M  V30 3811 C 356.448 -3.24892 -4.05883 0
M  V30 3812 C 354.133 -2.5998 -4.29786 0
M  V30 3813 C 356.127 -4.53684 -4.47716 0
M  V30 3814 C 353.814 -3.88997 -4.71301 0
M  V30 3815 C 354.812 -4.85661 -4.80232 0
M  V30 3816 O 354.5 -6.12376 -5.20818 0
M  V30 3817 H 354.232 -0.242572 -0.630979 0
M  V30 3818 H 356.786 -1.30431 -1.58673 0
M  V30 3819 H 355.016 -0.146985 -3.86421 0
M  V30 3820 H 356.705 -0.534311 -4.02368 0
M  V30 3821 H 357.471 -3.00805 -3.80449 0
M  V30 3822 H 353.35 -1.85457 -4.22051 0
M  V30 3823 H 356.894 -5.29135 -4.54601 0
M  V30 3824 H 352.791 -4.12882 -4.96184 0
M  V30 3825 H 353.559 -6.16013 -5.38953 0
M  V30 3826 N 356.222 1.38976 -0.743202 0
M  V30 3827 C 357.471 1.99581 -0.291592 0
M  V30 3828 C 357.784 1.59656 1.13001 0
M  V30 3829 O 358.99 2.13157 1.68156 0
M  V30 3830 C 357.446 3.56813 -0.470391 0
M  V30 3831 C 357.054 4.05695 -1.90041 0
M  V30 3832 C 358.798 4.24423 -0.0809709 0
M  V30 3833 C 356.705 5.5553 -2.02832 0
M  V30 3834 H 355.635 0.746615 -0.105272 0
M  V30 3835 H 358.286 1.58872 -0.918258 0
M  V30 3836 H 356.668 3.95359 0.225299 0
M  V30 3837 H 357.842 3.78464 -2.62872 0
M  V30 3838 H 356.157 3.50775 -2.24379 0
M  V30 3839 H 358.754 5.34474 -0.155445 0
M  V30 3840 H 359.097 4.04962 0.96497 0
M  V30 3841 H 359.63 3.9108 -0.728124 0
M  V30 3842 H 356.369 5.79881 -3.05643 0
M  V30 3843 H 355.889 5.84537 -1.34448 0
M  V30 3844 H 357.568 6.21069 -1.81335 0
M  V30 3845 N 357.7 0.491464 1.49741 0
M  V30 3846 C 359.111 0.0413169 1.86654 0
M  V30 3847 C 359.462 -1.36985 1.40462 0
M  V30 3848 O 358.587 -2.01917 0.778354 0
M  V30 3849 C 359.182 0.0682023 3.38731 0
M  V30 3850 C 357.741 -0.32656 3.74981 0
M  V30 3851 C 356.888 0.444888 2.73708 0
M  V30 3852 H 359.839 0.704733 1.42194 0
M  V30 3853 H 359.86 -0.729322 3.73445 0
M  V30 3854 H 359.372 1.09539 3.72321 0
M  V30 3855 H 357.473 -1.35734 3.46997 0
M  V30 3856 H 357.586 -0.013741 4.79098 0
M  V30 3857 H 355.95 -0.104062 2.54487 0
M  V30 3858 H 356.733 1.47197 3.10142 0
M  V30 3859 N 359.178 -1.55987 0.224894 0
M  V30 3860 C 360.589 -1.84553 -0.282345 0
M  V30 3861 C 360.94 -1.14634 -1.59227 0
M  V30 3862 O 360.065 -0.417155 -2.12341 0
M  V30 3863 C 360.66 -3.348 -0.519062 0
M  V30 3864 C 359.219 -3.63671 -0.970604 0
M  V30 3865 C 358.366 -2.77277 -0.0355261 0
M  V30 3866 H 361.317 -1.52245 0.448006 0
M  V30 3867 H 361.338 -3.55187 -1.36463 0
M  V30 3868 H 360.85 -3.8566 0.43449 0
M  V30 3869 H 358.951 -3.1827 -1.9374 0
M  V30 3870 H 359.064 -4.71631 -0.842698 0
M  V30 3871 H 357.428 -2.48846 -0.542927 0
M  V30 3872 H 358.211 -3.30937 0.913003 0
M  V30 3873 N 360.656 0.0484629 -1.57525 0
M  V30 3874 C 361.933 0.777447 -1.79486 0
M  V30 3875 C 362.313 1.94597 -0.818251 0
M  V30 3876 O 361.661 2.28047 0.143767 0
M  V30 3877 C 361.871 1.22864 -3.26658 0
M  V30 3878 C 363.219 1.65251 -3.91123 0
M  V30 3879 O 364.243 1.32372 -3.3069 0
M  V30 3880 O 363.102 2.26207 -4.97486 0
M  V30 3881 H 360.196 0.374357 -0.737419 0
M  V30 3882 H 362.742 0.0267359 -1.69679 0
M  V30 3883 H 361.514 0.393589 -3.89316 0
M  V30 3884 H 361.137 2.03996 -3.41279 0
M  V30 3885 N 362.134 1.5431 0.320358 0
M  V30 3886 C 363.066 1.80262 1.41556 0
M  V30 3887 C 364.079 0.684723 1.477 0
M  V30 3888 O 365.268 0.961886 1.50366 0
M  V30 3889 C 362.368 1.90825 2.8007 0
M  V30 3890 C 361.541 3.21023 2.97091 0
M  V30 3891 C 360.6 3.22247 4.15985 0
M  V30 3892 O 359.626 3.95871 4.08992 0
M  V30 3893 N 360.828 2.46258 5.25678 0
M  V30 3894 H 363.593 2.74778 1.19655 0
M  V30 3895 H 361.154 1.53646 0.510358 0
M  V30 3896 H 363.146 1.89067 3.57821 0
M  V30 3897 H 361.716 1.03392 2.95006 0
M  V30 3898 H 360.936 3.35715 2.06614 0
M  V30 3899 H 362.224 4.0698 3.05361 0
M  V30 3900 H 361.622 1.86037 5.34235 0
M  V30 3901 H 360.179 2.50275 6.01835 0
M  V30 3902 N 363.613 -0.582584 1.46437 0
M  V30 3903 C 364.56 -1.69164 1.5701 0
M  V30 3904 C 365.53 -1.60847 0.414403 0
M  V30 3905 O 366.715 -1.80058 0.631171 0
M  V30 3906 C 363.855 -3.075 1.56646 0
M  V30 3907 C 362.968 -3.2644 2.82951 0
M  V30 3908 C 362.103 -4.55026 2.7409 0
M  V30 3909 C 361.142 -4.6731 3.95333 0
M  V30 3910 N 360.279 -5.87221 3.84858 0
M  V30 3911 H 365.119 -1.59464 2.51744 0
M  V30 3912 H 362.656 -0.777186 1.24893 0
M  V30 3913 H 364.614 -3.8757 1.5442 0
M  V30 3914 H 363.244 -3.16096 0.654439 0
M  V30 3915 H 362.296 -2.39974 2.95155 0
M  V30 3916 H 363.608 -3.31385 3.72808 0
M  V30 3917 H 362.762 -5.43324 2.6997 0
M  V30 3918 H 361.501 -4.52519 1.81873 0
M  V30 3919 H 360.506 -3.77429 3.99784 0
M  V30 3920 H 361.731 -4.71595 4.88646 0
M  V30 3921 H 359.677 -5.85712 2.95427 0
M  V30 3922 H 359.594 -5.93435 4.6837 0
M  V30 3923 H 360.862 -6.7795 3.84713 0
M  V30 3924 N 365.091 -1.34144 -0.827227 0
M  V30 3925 C 366.023 -1.21206 -1.9453 0
M  V30 3926 C 367.036 -0.140176 -1.62195 0
M  V30 3927 O 368.225 -0.391647 -1.7415 0
M  V30 3928 C 365.325 -0.839141 -3.28347 0
M  V30 3929 C 364.498 -2.0051 -3.88734 0
M  V30 3930 C 363.557 -1.61128 -5.00923 0
M  V30 3931 O 362.583 -2.32726 -5.19449 0
M  V30 3932 N 363.785 -0.522958 -5.7814 0
M  V30 3933 H 366.55 -2.17525 -2.06162 0
M  V30 3934 H 364.111 -1.27043 -1.00358 0
M  V30 3935 H 366.103 -0.557556 -4.00841 0
M  V30 3936 H 364.673 0.0337293 -3.12582 0
M  V30 3937 H 363.893 -2.45166 -3.08686 0
M  V30 3938 H 365.181 -2.78498 -4.25812 0
M  V30 3939 H 364.579 0.0723518 -5.65654 0
M  V30 3940 H 363.136 -0.301089 -6.51104 0
M  V30 3941 N 366.569 1.04691 -1.17803 0
M  V30 3942 C 367.846 1.7472 -0.879328 0
M  V30 3943 C 368.226 2.01812 0.619271 0
M  V30 3944 O 367.574 1.65824 1.57209 0
M  V30 3945 C 367.784 3.03686 -1.71976 0
M  V30 3946 C 369.132 3.77542 -1.94286 0
M  V30 3947 O 370.156 3.13569 -1.68976 0
M  V30 3948 O 369.015 4.92506 -2.36855 0
M  V30 3949 H 366.109 0.760011 -0.326056 0
M  V30 3950 H 368.655 1.10813 -1.28525 0
M  V30 3951 H 367.427 2.79754 -2.73594 0
M  V30 3952 H 367.05 3.75332 -1.31194 0
M  V30 3953 N 368.047 0.979072 1.23499 0
M  V30 3954 C 369.463 0.687475 1.44034 0
M  V30 3955 C 369.663 -0.746801 1.8715 0
M  V30 3956 O 368.719 -1.51939 2.0167 0
M  V30 3957 C 370.032 1.68127 2.49307 0
M  V30 3958 C 371.58 1.69516 2.63122 0
M  V30 3959 C 372.055 2.67723 3.71603 0
M  V30 3960 N 373.546 2.66233 3.79044 0
M  V30 3961 C 374.281 3.38891 4.62537 0
M  V30 3962 N 373.777 4.21103 5.50131 0
M  V30 3963 N 375.57 3.27661 4.56721 0
M  V30 3964 H 367.721 1.90559 0.938135 0
M  V30 3965 H 369.984 0.821051 0.473897 0
M  V30 3966 H 369.69 2.70693 2.2454 0
M  V30 3967 H 369.564 1.46306 3.4767 0
M  V30 3968 H 371.951 0.676561 2.8724 0
M  V30 3969 H 372.032 1.95404 1.65079 0
M  V30 3970 H 371.676 3.69724 3.48233 0
M  V30 3971 H 371.606 2.39111 4.69184 0
M  V30 3972 H 374.097 2.06568 3.16446 0
M  V30 3973 H 374.41 4.73403 6.10827 0
M  V30 3974 H 372.755 4.25195 5.49759 0
M  V30 3975 H 375.946 2.62887 3.87309 0
M  V30 3976 H 376.119 3.84547 5.21562 0
M  V30 3977 N 369.525 -1.3858 0.750561 0
M  V30 3978 C 370.773 -1.99789 0.30477 0
M  V30 3979 C 371.094 -1.59874 -1.11649 0
M  V30 3980 O 370.364 -0.85417 -1.76297 0
M  V30 3981 H 368.944 -0.738902 0.109694 0
M  V30 3982 H 371.606 -1.69391 0.963983 0
M  V30 3983 H 370.702 -3.09952 0.365499 0
M  V30 3984 N 371.003 -0.499398 -1.49478 0
M  V30 3985 C 371.966 0.268838 -2.27618 0
M  V30 3986 C 372.966 0.895383 -1.33565 0
M  V30 3987 O 374.156 0.760164 -1.56739 0
M  V30 3988 C 371.288 1.38559 -3.11471 0
M  V30 3989 H 372.481 -0.416812 -2.96989 0
M  V30 3990 H 370.034 -0.254313 -1.54217 0
M  V30 3991 H 370.769 2.10544 -2.46661 0
M  V30 3992 H 370.554 0.941797 -3.80621 0
M  V30 3993 H 372.044 1.92678 -3.70493 0
M  V30 3994 N 372.481 1.55866 -0.233164 0
M  V30 3995 C 373.892 1.847 0.272554 0
M  V30 3996 C 374.243 1.15477 1.58617 0
M  V30 3997 O 373.368 0.42841 2.12117 0
M  V30 3998 C 373.963 3.35071 0.501299 0
M  V30 3999 C 372.522 3.6418 0.951304 0
M  V30 4000 C 371.669 2.77292 0.0208209 0
M  V30 4001 H 374.62 1.52005 -0.456074 0
M  V30 4002 H 374.641 3.55906 1.34577 0
M  V30 4003 H 374.153 3.85424 -0.454936 0
M  V30 4004 H 372.254 3.19293 1.92049 0
M  V30 4005 H 372.367 4.72071 0.817675 0
M  V30 4006 H 370.731 2.49131 0.529723 0
M  V30 4007 H 371.514 3.30448 -0.93054 0
M  V30 4008 N 373.959 -0.0401083 1.57549 0
M  V30 4009 C 375.37 -0.588097 1.77196 0
M  V30 4010 C 375.721 -1.76209 0.862832 0
M  V30 4011 O 374.846 -2.16331 0.0548389 0
M  V30 4012 C 375.441 -1.07363 3.21339 0
M  V30 4013 C 374 -1.56723 3.42221 0
M  V30 4014 C 373.147 -0.50041 2.72747 0
M  V30 4015 H 376.098 0.186119 1.57605 0
M  V30 4016 H 376.119 -1.94143 3.27244 0
M  V30 4017 H 375.631 -0.218975 3.87482 0
M  V30 4018 H 373.732 -2.4441 2.81237 0
M  V30 4019 H 373.845 -1.62234 4.50796 0
M  V30 4020 H 372.209 -0.952894 2.36203 0
M  V30 4021 H 372.992 0.344599 3.41566 0
M  V30 4022 N 375.437 -1.54477 -0.31217 0
M  V30 4023 C 376.37 -1.79519 -1.40884 0
M  V30 4024 C 377.348 -0.645753 -1.49227 0
M  V30 4025 O 378.532 -0.884468 -1.66461 0
M  V30 4026 C 375.659 -1.92194 -2.78889 0
M  V30 4027 C 374.705 -3.14555 -2.88023 0
M  V30 4028 S 375.538 -4.72893 -2.51262 0
M  V30 4029 C 376.694 -4.8849 -3.91317 0
M  V30 4030 H 376.927 -2.72256 -1.19432 0
M  V30 4031 H 374.46 -1.45746 -0.509654 0
M  V30 4032 H 376.418 -2.00182 -3.58382 0
M  V30 4033 H 375.079 -1.00414 -2.97617 0
M  V30 4034 H 374.272 -3.20193 -3.89221 0
M  V30 4035 H 373.874 -3.04955 -2.16514 0
M  V30 4036 H 376.166 -4.71826 -4.86196 0
M  V30 4037 H 377.109 -5.90588 -3.90656 0
M  V30 4038 H 377.517 -4.16715 -3.80801 0
M  V30 4039 N 376.915 0.57481 -1.46744 0
M  V30 4040 C 378.192 1.3352 -1.4294 0
M  V30 4041 C 378.572 2.10775 -0.117009 0
M  V30 4042 O 377.92 2.09966 0.901474 0
M  V30 4043 C 378.13 2.25456 -2.66403 0
M  V30 4044 C 379.478 2.87035 -3.12883 0
M  V30 4045 O 380.502 2.35766 -2.67007 0
M  V30 4046 O 379.361 3.80179 -3.92589 0
M  V30 4047 H 376.455 0.600318 -0.568812 0
M  V30 4048 H 379.001 0.595171 -1.58921 0
M  V30 4049 H 377.773 1.67851 -3.53471 0
M  V30 4050 H 377.396 3.06785 -2.52921 0
M  V30 4051 N 378.394 1.34581 0.820102 0
M  V30 4052 C 379.619 1.30333 1.61332 0
M  V30 4053 C 380.044 -0.119339 1.87721 0
M  V30 4054 O 379.402 -1.08197 1.45475 0
M  V30 4055 C 379.45 2.10258 2.92957 0
M  V30 4056 O 378.554 1.47404 3.85157 0
M  V30 4057 H 377.895 0.447488 0.490561 0
M  V30 4058 H 380.425 1.77425 1.01889 0
M  V30 4059 H 380.435 2.21718 3.42498 0
M  V30 4060 H 379.11 3.13693 2.73074 0
M  V30 4061 H 377.687 1.44703 3.43679 0
M  V30 4062 N 379.872 -1.04064 1.18357 0
M  V30 4063 C 381.097 -1.81454 1.00445 0
M  V30 4064 C 381.522 -1.82823 -0.442423 0
M  V30 4065 O 380.88 -1.24555 -1.31741 0
M  V30 4066 C 380.928 -3.24925 1.56384 0
M  V30 4067 O 380.032 -4.04856 0.785209 0
M  V30 4068 H 379.373 -0.560604 0.355835 0
M  V30 4069 H 381.903 -1.31059 1.57114 0
M  V30 4070 H 381.913 -3.75702 1.59097 0
M  V30 4071 H 380.588 -3.23244 2.61699 0
M  V30 4072 H 379.165 -3.63537 0.830399 0
M  V30 4073 N 381.35 -0.985608 -1.22978 0
M  V30 4074 C 382.58 -0.674603 -1.95276 0
M  V30 4075 C 382.988 0.763483 -1.73111 0
M  V30 4076 O 382.331 1.52601 -1.02268 0
M  V30 4077 C 382.393 -0.891597 -3.48268 0
M  V30 4078 C 382.057 -2.31275 -3.94158 0
M  V30 4079 C 383.054 -3.29179 -4.02415 0
M  V30 4080 C 380.739 -2.64524 -4.27004 0
M  V30 4081 C 382.733 -4.58407 -4.42879 0
M  V30 4082 C 380.42 -3.93974 -4.67149 0
M  V30 4083 C 381.418 -4.90727 -4.75053 0
M  V30 4084 O 381.106 -6.17865 -5.14294 0
M  V30 4085 H 380.838 -0.249251 -0.628371 0
M  V30 4086 H 383.392 -1.32106 -1.5728 0
M  V30 4087 H 381.622 -0.187962 -3.86243 0
M  V30 4088 H 383.311 -0.576957 -4.01779 0
M  V30 4089 H 384.077 -3.04823 -3.77237 0
M  V30 4090 H 379.956 -1.89923 -4.2006 0
M  V30 4091 H 383.5 -5.33926 -4.48964 0
M  V30 4092 H 379.397 -4.18122 -4.91777 0
M  V30 4093 H 380.165 -6.21694 -5.32389 0
M  V30 4094 N 382.828 1.3818 -0.7579 0
M  V30 4095 C 383.791 2.28764 -0.141286 0
M  V30 4096 C 384.791 1.47388 0.642907 0
M  V30 4097 O 385.981 1.67781 0.468536 0
M  V30 4098 C 383.113 3.31184 0.808069 0
M  V30 4099 H 384.306 2.848 -0.939633 0
M  V30 4100 H 381.859 1.47212 -0.525191 0
M  V30 4101 H 382.594 2.80247 1.63193 0
M  V30 4102 H 382.379 3.91314 0.248104 0
M  V30 4103 H 383.869 3.98909 1.23536 0
M  V30 4104 N 384.306 0.507319 1.49211 0
M  V30 4105 C 385.253 -0.267728 2.29242 0
M  V30 4106 C 386.223 -0.954609 1.35928 0
M  V30 4107 O 387.408 -0.960046 1.64887 0
M  V30 4108 C 384.548 -1.32243 3.18756 0
M  V30 4109 C 383.661 -0.64669 4.27132 0
M  V30 4110 C 382.796 -1.68238 5.03855 0
M  V30 4111 C 381.835 -0.98885 6.0406 0
M  V30 4112 N 380.972 -1.96903 6.73924 0
M  V30 4113 H 385.812 0.420968 2.95012 0
M  V30 4114 H 383.349 0.219443 1.45454 0
M  V30 4115 H 385.307 -1.94599 3.69036 0
M  V30 4116 H 383.937 -1.97981 2.54958 0
M  V30 4117 H 382.989 0.0902926 3.80293 0
M  V30 4118 H 384.301 -0.101058 4.98698 0
M  V30 4119 H 383.455 -2.38081 5.58034 0
M  V30 4120 H 382.194 -2.26187 4.32077 0
M  V30 4121 H 381.199 -0.276222 5.49106 0
M  V30 4122 H 382.424 -0.415767 6.77826 0
M  V30 4123 H 380.37 -2.53803 6.04913 0
M  V30 4124 H 380.287 -1.47423 7.41487 0
M  V30 4125 H 381.555 -2.66015 7.32705 0
M  V30 4126 N 385.784 -1.5574 0.241426 0
M  V30 4127 C 387.033 -1.97986 -0.385295 0
M  V30 4128 C 387.346 -1.13267 -1.59468 0
M  V30 4129 O 388.552 -1.45501 -2.2922 0
M  V30 4130 C 387.008 -3.52275 -0.736884 0
M  V30 4131 C 386.616 -4.45726 0.450796 0
M  V30 4132 C 388.36 -4.03189 -1.3281 0
M  V30 4133 C 386.267 -5.91352 0.0756662 0
M  V30 4134 H 385.197 -0.739386 -0.147731 0
M  V30 4135 H 387.848 -1.80308 0.340779 0
M  V30 4136 H 386.23 -3.65628 -1.52094 0
M  V30 4137 H 387.404 -4.44131 1.22819 0
M  V30 4138 H 385.719 -4.05264 0.956573 0
M  V30 4139 H 388.316 -5.09505 -1.62201 0
M  V30 4140 H 388.659 -3.50212 -2.25071 0
M  V30 4141 H 389.192 -3.93141 -0.607069 0
M  V30 4142 H 385.931 -6.48354 0.965272 0
M  V30 4143 H 385.451 -5.96095 -0.665635 0
M  V30 4144 H 387.13 -6.46084 -0.344075 0
M  V30 4145 N 387.262 0.0317525 -1.57568 0
M  V30 4146 C 388.192 1.03274 -2.0942 0
M  V30 4147 C 389.173 1.3788 -0.996143 0
M  V30 4148 O 390.358 1.46811 -1.27122 0
M  V30 4149 C 387.488 2.33448 -2.57137 0
M  V30 4150 C 386.442 2.13091 -3.71182 0
M  V30 4151 C 385.768 3.49001 -4.05095 0
M  V30 4152 C 387.068 1.51928 -4.99715 0
M  V30 4153 H 388.762 0.60112 -2.93303 0
M  V30 4154 H 386.308 0.287705 -1.41097 0
M  V30 4155 H 388.261 3.03802 -2.92032 0
M  V30 4156 H 386.985 2.78665 -1.70333 0
M  V30 4157 H 385.644 1.45171 -3.36632 0
M  V30 4158 H 385.292 3.91862 -3.15362 0
M  V30 4159 H 384.992 3.36207 -4.81911 0
M  V30 4160 H 386.516 4.20721 -4.42522 0
M  V30 4161 H 387.93 2.12196 -5.32584 0
M  V30 4162 H 386.327 1.49716 -5.81124 0
M  V30 4163 H 387.397 0.484811 -4.8247 0
M  V30 4164 N 388.74 1.54641 0.303973 0
M  V30 4165 C 389.672 1.81754 1.39636 0
M  V30 4166 C 390.685 0.70035 1.46966 0
M  V30 4167 O 391.874 0.97778 1.49338 0
M  V30 4168 C 388.974 1.93785 2.7803 0
M  V30 4169 C 388.147 3.24156 2.93669 0
M  V30 4170 C 387.206 3.26641 4.12544 0
M  V30 4171 O 386.232 4.00187 4.04771 0
M  V30 4172 N 387.434 2.5182 5.23036 0
M  V30 4173 H 390.199 2.76031 1.16734 0
M  V30 4174 H 387.76 1.54178 0.494033 0
M  V30 4175 H 389.752 1.92852 3.55795 0
M  V30 4176 H 388.322 1.06515 2.93893 0
M  V30 4177 H 387.542 3.37887 2.03042 0
M  V30 4178 H 388.83 4.10195 3.01027 0
M  V30 4179 H 388.228 1.91692 5.32232 0
M  V30 4180 H 386.785 2.56644 5.99147 0
M  V30 4181 N 390.218 -0.567019 1.47046 0
M  V30 4182 C 391.15 -1.68985 1.54844 0
M  V30 4183 C 392.163 -1.56869 0.435431 0
M  V30 4184 O 393.352 -1.64006 0.70457 0
M  V30 4185 C 390.452 -3.07373 1.42742 0
M  V30 4186 C 389.625 -3.45339 2.6844 0
M  V30 4187 C 388.684 -4.62849 2.50314 0
M  V30 4188 O 387.71 -4.67922 3.24095 0
M  V30 4189 N 388.912 -5.58726 1.57499 0
M  V30 4190 H 391.677 -1.62745 2.51663 0
M  V30 4191 H 389.238 -0.753411 1.43302 0
M  V30 4192 H 391.23 -3.83803 1.28365 0
M  V30 4193 H 389.8 -3.07893 0.540445 0
M  V30 4194 H 389.02 -2.58455 2.97648 0
M  V30 4195 H 390.308 -3.67476 3.51907 0
M  V30 4196 H 389.706 -5.57376 0.966876 0
M  V30 4197 H 388.263 -6.34523 1.49078 0
M  V30 4198 N 391.696 -1.35014 -0.812953 0
M  V30 4199 C 392.628 -1.23262 -1.93233 0
M  V30 4200 C 393.641 -0.157371 -1.62038 0
M  V30 4201 O 394.83 -0.410096 -1.73725 0
M  V30 4202 C 391.93 -0.87392 -3.27438 0
M  V30 4203 C 391.103 -2.04622 -3.86586 0
M  V30 4204 C 390.162 -1.66432 -4.99186 0
M  V30 4205 O 389.188 -2.38222 -5.16951 0
M  V30 4206 N 390.39 -0.584248 -5.77552 0
M  V30 4207 H 393.155 -2.19699 -2.03844 0
M  V30 4208 H 390.716 -1.281 -0.99005 0
M  V30 4209 H 392.708 -0.600039 -4.00227 0
M  V30 4210 H 391.278 0.00057392 -3.126 0
M  V30 4211 H 390.498 -2.48427 -3.06068 0
M  V30 4212 H 391.786 -2.82999 -4.22835 0
M  V30 4213 H 391.184 0.0123526 -5.65699 0
M  V30 4214 H 389.741 -0.37013 -6.50748 0
M  V30 4215 N 393.175 1.03435 -1.18907 0
M  V30 4216 C 394.107 2.1165 -0.879595 0
M  V30 4217 C 395.12 1.62316 0.125439 0
M  V30 4218 O 396.309 1.78201 -0.103245 0
M  V30 4219 C 393.409 3.37622 -0.294042 0
M  V30 4220 C 392.582 4.16166 -1.34629 0
M  V30 4221 C 391.641 5.20457 -0.775274 0
M  V30 4222 O 390.667 5.50379 -1.4516 0
M  V30 4223 N 391.869 5.78949 0.424126 0
M  V30 4224 H 394.634 2.38791 -1.81105 0
M  V30 4225 H 392.195 1.19681 -1.09032 0
M  V30 4226 H 394.187 4.04572 0.101679 0
M  V30 4227 H 392.757 3.07873 0.541575 0
M  V30 4228 H 391.977 3.44444 -1.91707 0
M  V30 4229 H 393.265 4.65432 -2.05549 0
M  V30 4230 H 392.663 5.56948 0.991209 0
M  V30 4231 H 391.22 6.47334 0.761691 0
M  V30 4232 N 394.653 0.992116 1.22453 0
M  V30 4233 C 395.583 0.561677 2.26644 0
M  V30 4234 C 396.564 -0.411055 1.65059 0
M  V30 4235 O 397.749 -0.301861 1.9184 0
M  V30 4236 C 394.879 -0.125247 3.47074 0
M  V30 4237 C 393.833 0.765948 4.21091 0
M  V30 4238 C 393.159 -0.0538484 5.34673 0
M  V30 4239 C 394.459 2.06242 4.79856 0
M  V30 4240 H 396.153 1.43259 2.62902 0
M  V30 4241 H 393.699 0.690283 1.26377 0
M  V30 4242 H 395.652 -0.437764 4.1912 0
M  V30 4243 H 394.376 -1.03069 3.0991 0
M  V30 4244 H 393.035 1.0621 3.50878 0
M  V30 4245 H 392.683 -0.960188 4.9375 0
M  V30 4246 H 392.383 0.539415 5.85119 0
M  V30 4247 H 393.907 -0.360477 6.09535 0
M  V30 4248 H 395.321 1.8139 5.43848 0
M  V30 4249 H 393.718 2.60444 5.40638 0
M  V30 4250 H 394.788 2.74167 3.99951 0
M  V30 4251 N 396.131 -1.37776 0.765217 0
M  V30 4252 C 397.378 -1.99849 0.326588 0
M  V30 4253 C 397.706 -1.60746 -1.09504 0
M  V30 4254 O 396.961 -0.84202 -1.76659 0
M  V30 4255 C 397.26 -3.5504 0.410053 0
M  V30 4256 C 396.926 -4.13891 1.78899 0
M  V30 4257 C 395.588 -4.29678 2.16635 0
M  V30 4258 C 397.94 -4.46236 2.69301 0
M  V30 4259 C 395.268 -4.7511 3.44221 0
M  V30 4260 C 397.62 -4.93089 3.9629 0
M  V30 4261 C 396.284 -5.07082 4.34078 0
M  V30 4262 H 395.554 -0.7313 0.119507 0
M  V30 4263 H 398.201 -1.64645 0.977968 0
M  V30 4264 H 396.506 -3.90451 -0.324878 0
M  V30 4265 H 398.203 -4.00966 0.0520699 0
M  V30 4266 H 394.793 -4.02026 1.48569 0
M  V30 4267 H 398.977 -4.3363 2.41409 0
M  V30 4268 H 394.233 -4.84129 3.73402 0
M  V30 4269 H 398.407 -5.17084 4.66472 0
M  V30 4270 H 396.034 -5.42046 5.33001 0
M  V30 4271 N 397.609 -0.515225 -1.4894 0
M  V30 4272 C 398.539 0.244628 -2.32215 0
M  V30 4273 C 399.52 0.949136 -1.41157 0
M  V30 4274 O 400.705 0.937783 -1.70057 0
M  V30 4275 C 397.835 1.30096 -3.22013 0
M  V30 4276 C 396.789 0.715486 -4.21977 0
M  V30 4277 C 396.115 1.87339 -5.00808 0
M  V30 4278 C 397.415 -0.302982 -5.2142 0
M  V30 4279 H 399.109 -0.450501 -2.95991 0
M  V30 4280 H 396.655 -0.218098 -1.42339 0
M  V30 4281 H 398.608 1.84037 -3.79089 0
M  V30 4282 H 397.332 2.02547 -2.56207 0
M  V30 4283 H 395.991 0.197715 -3.66066 0
M  V30 4284 H 395.639 2.58592 -4.31438 0
M  V30 4285 H 395.339 1.48764 -5.68457 0
M  V30 4286 H 396.863 2.41686 -5.60732 0
M  V30 4287 H 398.277 0.148802 -5.73107 0
M  V30 4288 H 396.674 -0.60532 -5.97039 0
M  V30 4289 H 397.744 -1.21395 -4.69459 0
M  V30 4290 N 399.087 1.5561 -0.249682 0
M  V30 4291 C 400.019 2.18834 0.681496 0
M  V30 4292 C 401.032 1.16546 1.1367 0
M  V30 4293 O 402.221 1.43397 1.06299 0
M  V30 4294 C 399.321 2.77992 1.9384 0
M  V30 4295 C 398.494 4.05725 1.63419 0
M  V30 4296 C 397.553 4.49174 2.74096 0
M  V30 4297 O 396.579 5.15492 2.41364 0
M  V30 4298 N 397.781 4.17191 4.03649 0
M  V30 4299 H 400.546 2.9937 0.140514 0
M  V30 4300 H 398.107 1.6175 -0.0697541 0
M  V30 4301 H 400.099 3.04015 2.67127 0
M  V30 4302 H 398.669 2.01596 2.38909 0
M  V30 4303 H 397.889 3.87261 0.736358 0
M  V30 4304 H 399.177 4.88999 1.40562 0
M  V30 4305 H 398.575 3.63955 4.33074 0
M  V30 4306 H 397.132 4.48043 4.73393 0
M  V30 4307 N 400.565 -0.0233959 1.57583 0
M  V30 4308 C 401.495 -1.02162 2.09965 0
M  V30 4309 C 402.476 -1.3735 1.00344 0
M  V30 4310 O 403.661 -1.46135 1.27899 0
M  V30 4311 C 400.791 -2.32081 2.58371 0
M  V30 4312 C 399.745 -2.1112 3.72307 0
M  V30 4313 C 399.071 -3.46848 4.06941 0
M  V30 4314 C 400.371 -1.49276 5.00514 0
M  V30 4315 H 402.065 -0.585557 2.93618 0
M  V30 4316 H 399.611 -0.280218 1.41247 0
M  V30 4317 H 401.564 -3.02249 2.93639 0
M  V30 4318 H 400.288 -2.77758 1.71808 0
M  V30 4319 H 398.947 -1.43384 3.37397 0
M  V30 4320 H 398.595 -3.90184 3.17436 0
M  V30 4321 H 398.295 -3.33646 4.83688 0
M  V30 4322 H 399.819 -4.18369 4.44747 0
M  V30 4323 H 401.233 -2.09368 5.33702 0
M  V30 4324 H 399.63 -1.46632 5.8191 0
M  V30 4325 H 400.7 -0.459217 4.82721 0
M  V30 4326 N 402.043 -1.548 -0.295768 0
M  V30 4327 C 402.975 -1.82492 -1.3867 0
M  V30 4328 C 403.988 -0.708134 -1.46592 0
M  V30 4329 O 405.177 -0.985686 -1.48817 0
M  V30 4330 C 402.277 -1.95256 -2.76999 0
M  V30 4331 C 401.45 -3.25709 -2.91946 0
M  V30 4332 C 400.509 -3.28824 -4.10806 0
M  V30 4333 O 399.535 -4.02328 -4.02643 0
M  V30 4334 N 400.737 -2.5459 -5.21694 0
M  V30 4335 H 403.502 -2.76646 -1.15269 0
M  V30 4336 H 401.063 -1.54438 -0.485849 0
M  V30 4337 H 403.055 -1.94736 -3.54768 0
M  V30 4338 H 401.625 -1.08072 -2.93324 0
M  V30 4339 H 400.845 -3.38959 -2.01247 0
M  V30 4340 H 402.133 -4.11786 -2.98847 0
M  V30 4341 H 401.531 -1.94512 -5.31208 0
M  V30 4342 H 400.088 -2.59818 -5.97778 0
M  V30 4343 N 403.521 0.559213 -1.47345 0
M  V30 4344 C 404.77 1.31281 -1.53128 0
M  V30 4345 C 405.083 1.94602 -0.197344 0
M  V30 4346 O 406.289 2.71173 -0.133154 0
M  V30 4347 C 404.745 2.38051 -2.69925 0
M  V30 4348 C 404.353 1.8093 -4.0984 0
M  V30 4349 C 406.097 3.14604 -2.84999 0
M  V30 4350 C 404.004 2.85468 -5.1794 0
M  V30 4351 H 402.934 0.493614 -0.569966 0
M  V30 4352 H 405.585 0.594155 -1.73615 0
M  V30 4353 H 403.967 3.12822 -2.42814 0
M  V30 4354 H 405.141 1.12544 -4.46845 0
M  V30 4355 H 403.456 1.16967 -3.99634 0
M  V30 4356 H 406.053 3.92666 -3.62929 0
M  V30 4357 H 406.396 3.68665 -1.93369 0
M  V30 4358 H 406.929 2.46945 -3.1187 0
M  V30 4359 H 403.668 2.36264 -6.1144 0
M  V30 4360 H 403.188 3.52269 -4.85455 0
M  V30 4361 H 404.867 3.48996 -5.44803 0
M  V30 4362 N 404.999 1.35443 0.805782 0
M  V30 4363 C 405.929 1.31095 1.93226 0
M  V30 4364 C 406.91 0.185244 1.69088 0
M  V30 4365 O 408.095 0.380332 1.90439 0
M  V30 4366 C 405.225 1.08299 3.29983 0
M  V30 4367 C 404.179 2.17519 3.68605 0
M  V30 4368 C 403.505 1.79887 5.03532 0
M  V30 4369 C 404.805 3.5949 3.78898 0
M  V30 4370 H 406.499 2.25352 1.97122 0
M  V30 4371 H 404.045 1.0848 0.946996 0
M  V30 4372 H 405.998 1.03897 4.08391 0
M  V30 4373 H 404.722 0.104885 3.26432 0
M  V30 4374 H 403.381 2.2102 2.92482 0
M  V30 4375 H 403.029 0.80693 4.96485 0
M  V30 4376 H 402.729 2.53001 5.30344 0
M  V30 4377 H 404.253 1.77011 5.84379 0
M  V30 4378 H 405.667 3.58307 4.47536 0
M  V30 4379 H 404.064 4.31371 4.1718 0
M  V30 4380 H 405.134 3.95584 2.80431 0
M  V30 4381 N 406.477 -1.02803 1.19454 0
M  V30 4382 C 407.425 -2.13213 0.929673 0
M  V30 4383 C 408.419 -1.69011 -0.114806 0
M  V30 4384 O 409.625 -1.79967 0.0345147 0
M  V30 4385 H 406 -0.69662 0.28324 0
M  V30 4386 H 407.971 -2.32744 1.86743 0
M  V30 4387 C 406.72 -3.4429 0.485797 0
M  V30 4388 H 406.043 -3.7872 1.28105 0
M  V30 4389 H 407.483 -4.22638 0.339582 0
M  V30 4390 C 405.942 -3.27258 -0.800244 0
M  V30 4391 O 406.472 -3.55967 -1.86146 0
M  V30 4392 N 404.678 -2.80545 -0.75781 0
M  V30 4393 H 404.225 -2.57382 0.106039 0
M  V30 4394 H 404.183 -2.6953 -1.61867 0
M  V30 4395 N 407.956 -0.998596 -1.21925 0
M  V30 4396 C 408.888 -0.511879 -2.23411 0
M  V30 4397 C 409.901 0.396094 -1.57908 0
M  V30 4398 O 411.09 0.197316 -1.77406 0
M  V30 4399 C 408.19 0.276802 -3.37768 0
M  V30 4400 C 407.363 -0.628687 -4.32858 0
M  V30 4401 C 406.422 0.109272 -5.26087 0
M  V30 4402 O 405.448 -0.507237 -5.66935 0
M  V30 4403 N 406.65 1.38983 -5.63617 0
M  V30 4404 H 409.415 -1.38457 -2.658 0
M  V30 4405 H 406.976 -0.873981 -1.36283 0
M  V30 4406 H 408.968 0.77928 -3.97126 0
M  V30 4407 H 407.538 1.05063 -2.94415 0
M  V30 4408 H 406.758 -1.31175 -3.71735 0
M  V30 4409 H 408.046 -1.24514 -4.93329 0
M  V30 4410 H 407.444 1.91194 -5.32411 0
M  V30 4411 H 406.001 1.83739 -6.25367 0
M  V30 4412 N 409.434 1.37368 -0.772513 0
M  V30 4413 C 410.366 2.28899 -0.117502 0
M  V30 4414 C 411.379 1.4867 0.663405 0
M  V30 4415 O 412.568 1.71314 0.501372 0
M  V30 4416 C 409.668 3.2788 0.857192 0
M  V30 4417 C 408.841 4.37207 0.129938 0
M  V30 4418 C 407.9 5.16257 1.01811 0
M  V30 4419 O 406.926 5.67159 0.481601 0
M  V30 4420 N 408.128 5.31058 2.3443 0
M  V30 4421 H 410.893 2.85752 -0.903662 0
M  V30 4422 H 408.454 1.49353 -0.62493 0
M  V30 4423 H 410.446 3.77647 1.45482 0
M  V30 4424 H 409.016 2.7179 1.54432 0
M  V30 4425 H 408.236 3.88827 -0.648605 0
M  V30 4426 H 409.524 5.07434 -0.372559 0
M  V30 4427 H 408.922 4.91287 2.80452 0
M  V30 4428 H 407.479 5.84131 2.89197 0
M  V30 4429 N 410.912 0.523116 1.48665 0
M  V30 4430 C 411.844 -0.280421 2.27478 0
M  V30 4431 C 412.857 -0.910694 1.34945 0
M  V30 4432 O 414.046 -0.790295 1.60052 0
M  V30 4433 C 411.146 -1.41171 3.08097 0
M  V30 4434 C 410.319 -0.884642 4.28361 0
M  V30 4435 C 409.378 -1.89622 4.90846 0
M  V30 4436 O 408.404 -1.4559 5.50265 0
M  V30 4437 N 409.606 -3.22801 4.82472 0
M  V30 4438 H 412.371 0.395481 2.97079 0
M  V30 4439 H 409.932 0.357018 1.57915 0
M  V30 4440 H 411.924 -2.08645 3.4677 0
M  V30 4441 H 410.494 -1.99139 2.40961 0
M  V30 4442 H 409.714 -0.0341177 3.94185 0
M  V30 4443 H 411.002 -0.511268 5.06225 0
M  V30 4444 H 410.4 -3.61246 4.35336 0
M  V30 4445 H 408.957 -3.85927 5.25265 0
M  V30 4446 N 412.39 -1.55475 0.257931 0
M  V30 4447 C 413.322 -2.19192 -0.669881 0
M  V30 4448 C 414.335 -1.17148 -1.1305 0
M  V30 4449 O 415.524 -1.43959 -1.05537 0
M  V30 4450 C 412.624 -2.79016 -1.92363 0
M  V30 4451 C 411.797 -4.06586 -1.61265 0
M  V30 4452 C 410.856 -4.50622 -2.7171 0
M  V30 4453 O 409.882 -5.16765 -2.38627 0
M  V30 4454 N 411.084 -4.19325 -4.01431 0
M  V30 4455 H 413.849 -2.99441 -0.124635 0
M  V30 4456 H 411.41 -1.6171 0.0783311 0
M  V30 4457 H 413.402 -3.05427 -2.65511 0
M  V30 4458 H 411.972 -2.0286 -2.37837 0
M  V30 4459 H 411.192 -3.87646 -0.715811 0
M  V30 4460 H 412.48 -4.89737 -1.37967 0
M  V30 4461 H 411.878 -3.66247 -4.31138 0
M  V30 4462 H 410.435 -4.50547 -4.7101 0
M  V30 4463 N 413.868 0.0150385 -1.57593 0
M  V30 4464 C 414.8 1.03912 -2.04291 0
M  V30 4465 C 415.813 1.31618 -0.958146 0
M  V30 4466 O 417.002 1.28859 -1.23522 0
M  V30 4467 C 414.102 2.37749 -2.41514 0
M  V30 4468 C 413.275 2.29198 -3.72541 0
M  V30 4469 C 412.334 3.45598 -3.96797 0
M  V30 4470 O 411.36 3.24461 -4.67668 0
M  V30 4471 N 412.562 4.67945 -3.43523 0
M  V30 4472 H 415.327 0.64099 -2.92765 0
M  V30 4473 H 412.888 0.20272 -1.60626 0
M  V30 4474 H 414.88 3.14364 -2.54867 0
M  V30 4475 H 413.45 2.69357 -1.58637 0
M  V30 4476 H 412.67 1.3759 -3.69408 0
M  V30 4477 H 413.958 2.20642 -4.5847 0
M  V30 4478 H 413.356 4.88017 -2.86104 0
M  V30 4479 H 411.913 5.41878 -3.62232 0
M  V30 4480 N 415.346 1.54954 0.287554 0
M  V30 4481 C 416.296 1.8322 1.357 0
M  V30 4482 C 417.28 0.690152 1.45347 0
M  V30 4483 O 418.472 0.951137 1.49273 0
M  V30 4484 C 415.601 2.09481 2.71979 0
M  V30 4485 C 414.687 3.29906 2.66502 0
M  V30 4486 N 415.078 4.50154 2.30641 0
M  V30 4487 C 413.376 3.32203 2.97585 0
M  V30 4488 C 414.077 5.32209 2.34794 0
M  V30 4489 N 413.053 4.70258 2.72688 0
M  V30 4490 H 416.855 2.73746 1.0696 0
M  V30 4491 H 414.369 1.54635 0.496167 0
M  V30 4492 H 416.366 2.27882 3.49107 0
M  V30 4493 H 415.026 1.2023 3.0162 0
M  V30 4494 H 416.037 4.76515 2.02865 0
M  V30 4495 H 412.714 2.53101 3.32034 0
M  V30 4496 H 414.104 6.38321 2.09753 0
M  V30 4497 N 416.824 -0.551391 1.4764 0
M  V30 4498 C 417.774 -1.65362 1.56969 0
M  V30 4499 C 418.758 -1.55098 0.428189 0
M  V30 4500 O 419.95 -1.63481 0.678441 0
M  V30 4501 C 417.079 -3.04129 1.59249 0
M  V30 4502 C 416.165 -3.19576 2.78804 0
M  V30 4503 N 416.556 -3.05067 4.03445 0
M  V30 4504 C 414.854 -3.50588 2.75688 0
M  V30 4505 C 415.555 -3.2336 4.83543 0
M  V30 4506 N 414.531 -3.4996 4.15968 0
M  V30 4507 H 418.333 -1.52722 2.51104 0
M  V30 4508 H 415.847 -0.756303 1.43714 0
M  V30 4509 H 417.844 -3.83278 1.64024 0
M  V30 4510 H 416.504 -3.17877 0.662148 0
M  V30 4511 H 417.515 -2.82273 4.34215 0
M  V30 4512 H 414.192 -3.70827 1.91817 0
M  V30 4513 H 415.582 -3.17061 5.92387 0
M  V30 4514 N 418.302 -1.35869 -0.798587 0
M  V30 4515 C 419.25 -1.29491 -1.93222 0
M  V30 4516 C 420.244 -0.18836 -1.6835 0
M  V30 4517 O 421.45 -0.354822 -1.76468 0
M  V30 4518 H 417.825 -0.402901 -0.63496 0
M  V30 4519 H 419.796 -2.25247 -1.9572 0
M  V30 4520 C 418.545 -1.09184 -3.30112 0
M  V30 4521 H 417.868 -1.93574 -3.49813 0
M  V30 4522 H 419.308 -1.08766 -4.09812 0
M  V30 4523 C 417.767 0.203959 -3.36282 0
M  V30 4524 O 418.297 1.19699 -3.83451 0
M  V30 4525 N 416.503 0.245488 -2.89561 0
M  V30 4526 H 416.05 -0.563223 -2.51367 0
M  V30 4527 H 416.008 1.11219 -2.94071 0
M  V30 4528 N 419.78 1.02168 -1.19998 0
M  V30 4529 C 421.01 1.79036 -1.031 0
M  V30 4530 C 421.418 1.84409 0.423078 0
M  V30 4531 O 420.761 1.29228 1.30559 0
M  V30 4532 C 420.823 3.25185 -1.53281 0
M  V30 4533 C 420.487 3.43431 -3.01503 0
M  V30 4534 C 421.484 3.33063 -3.99206 0
M  V30 4535 C 419.169 3.69412 -3.40353 0
M  V30 4536 C 421.163 3.48413 -5.33748 0
M  V30 4537 C 418.85 3.84406 -4.75053 0
M  V30 4538 C 419.848 3.7391 -5.71559 0
M  V30 4539 O 419.536 3.88452 -7.03818 0
M  V30 4540 H 419.268 0.570043 -0.363355 0
M  V30 4541 H 421.822 1.29524 -1.59414 0
M  V30 4542 H 420.052 3.75756 -0.913483 0
M  V30 4543 H 421.741 3.83671 -1.32481 0
M  V30 4544 H 422.507 3.12934 -3.70537 0
M  V30 4545 H 418.386 3.76671 -2.65782 0
M  V30 4546 H 421.93 3.40137 -6.09059 0
M  V30 4547 H 417.827 4.04035 -5.03415 0
M  V30 4548 H 418.595 4.055 -7.10993 0
M  V30 4549 N 421.258 1.00505 1.21394 0
M  V30 4550 C 422.19 0.52372 2.23136 0
M  V30 4551 C 423.203 -0.387714 1.58116 0
M  V30 4552 O 424.392 -0.187905 1.77508 0
M  V30 4553 C 421.492 -0.258885 3.3791 0
M  V30 4554 C 420.665 0.651634 4.32519 0
M  V30 4555 C 419.724 -0.0813705 5.26137 0
M  V30 4556 O 418.75 0.537295 5.66658 0
M  V30 4557 N 419.952 -1.35992 5.64346 0
M  V30 4558 H 422.717 1.39865 2.65062 0
M  V30 4559 H 420.278 0.881196 1.35818 0
M  V30 4560 H 422.27 -0.758208 3.97534 0
M  V30 4561 H 420.84 -1.035 2.94968 0
M  V30 4562 H 420.06 1.33145 3.71034 0
M  V30 4563 H 421.348 1.27129 4.92662 0
M  V30 4564 H 420.746 -1.88368 5.33417 0
M  V30 4565 H 419.303 -1.8042 6.26332 0
M  V30 4566 N 422.737 -1.36956 0.779787 0
M  V30 4567 C 423.7 -2.2851 0.177662 0
M  V30 4568 C 424.7 -1.48393 -0.619377 0
M  V30 4569 O 425.89 -1.68505 -0.441785 0
M  V30 4570 C 423.022 -3.32428 -0.755279 0
M  V30 4571 H 424.215 -2.83269 0.984823 0
M  V30 4572 H 421.768 -1.46358 0.548544 0
M  V30 4573 H 422.503 -2.82808 -1.58714 0
M  V30 4574 H 422.288 -3.91659 -0.185817 0
M  V30 4575 H 423.778 -4.00824 -1.17174 0
M  V30 4576 N 424.215 -0.530993 -1.48385 0
M  V30 4577 C 425.464 0.00474348 -2.01699 0
M  V30 4578 C 425.777 1.35227 -1.41325 0
M  V30 4579 O 426.983 1.97643 -1.86144 0
M  V30 4580 C 425.439 0.0588473 -3.59852 0
M  V30 4581 C 425.047 -1.28385 -4.2921 0
M  V30 4582 C 426.791 0.543358 -4.21008 0
M  V30 4583 C 424.698 -1.19028 -5.79298 0
M  V30 4584 H 423.628 0.00554317 -0.75398 0
M  V30 4585 H 426.279 -0.674924 -1.70637 0
M  V30 4586 H 424.661 0.803612 -3.8776 0
M  V30 4587 H 425.835 -2.04426 -4.12973 0
M  V30 4588 H 424.15 -1.70418 -3.7993 0
M  V30 4589 H 426.747 0.631351 -5.3096 0
M  V30 4590 H 427.09 1.54937 -3.86394 0
M  V30 4591 H 427.623 -0.145754 -3.97533 0
M  V30 4592 H 424.362 -2.17147 -6.18488 0
M  V30 4593 H 423.882 -0.471246 -5.97946 0
M  V30 4594 H 425.561 -0.881365 -6.40969 0
M  V30 4595 N 425.693 1.55336 -0.266172 0
M  V30 4596 C 426.623 2.25146 0.618981 0
M  V30 4597 C 427.604 1.23845 1.16604 0
M  V30 4598 O 428.789 1.52544 1.20183 0
M  V30 4599 C 425.919 2.96572 1.80728 0
M  V30 4600 C 424.873 4.04726 1.39215 0
M  V30 4601 C 424.199 4.63678 2.66283 0
M  V30 4602 C 425.499 5.19407 0.548942 0
M  V30 4603 H 427.193 2.99377 0.0368116 0
M  V30 4604 H 424.739 1.43991 0.0162651 0
M  V30 4605 H 426.692 3.44116 2.43232 0
M  V30 4606 H 425.416 2.19861 2.41514 0
M  V30 4607 H 424.075 3.57979 0.790351 0
M  V30 4608 H 423.723 3.83646 3.25308 0
M  V30 4609 H 423.423 5.367 2.39222 0
M  V30 4610 H 424.947 5.13967 3.29651 0
M  V30 4611 H 426.361 5.63059 1.07876 0
M  V30 4612 H 424.758 5.98936 0.373593 0
M  V30 4613 H 425.828 4.8295 -0.434394 0
M  V30 4614 N 427.171 -0.0066808 1.57599 0
M  V30 4615 C 428.582 -0.550379 1.78403 0
M  V30 4616 C 428.933 -1.74339 0.900014 0
M  V30 4617 O 428.058 -2.16166 0.100713 0
M  V30 4618 C 428.653 -1.00523 3.23544 0
M  V30 4619 C 427.212 -1.49428 3.45468 0
M  V30 4620 C 426.359 -0.442444 2.73748 0
M  V30 4621 H 429.31 0.219508 1.57175 0
M  V30 4622 H 429.331 -1.87157 3.31289 0
M  V30 4623 H 428.843 -0.136735 3.87859 0
M  V30 4624 H 426.944 -2.3839 2.86358 0
M  V30 4625 H 427.057 -1.52635 4.54136 0
M  V30 4626 H 425.421 -0.902578 2.38171 0
M  V30 4627 H 426.204 0.416973 3.40758 0
M  V30 4628 N 428.649 -1.55105 -0.279332 0
M  V30 4629 C 429.612 -1.86783 -1.32834 0
M  V30 4630 C 430.612 -0.74199 -1.42657 0
M  V30 4631 O 431.802 -1.0102 -1.41918 0
M  V30 4632 C 428.934 -2.06746 -2.71052 0
M  V30 4633 H 430.127 -2.8055 -1.05979 0
M  V30 4634 H 427.68 -1.47499 -0.517087 0
M  V30 4635 H 428.415 -1.15339 -3.03097 0
M  V30 4636 H 428.2 -2.88711 -2.65309 0
M  V30 4637 H 429.69 -2.32549 -3.46858 0
M  V30 4638 N 430.127 0.543554 -1.4793 0
M  V30 4639 C 431.538 1.12561 -1.48953 0
M  V30 4640 C 431.889 1.94578 -0.251754 0
M  V30 4641 O 431.014 2.0665 0.642255 0
M  V30 4642 C 431.609 2.04801 -2.69892 0
M  V30 4643 C 430.168 2.58251 -2.73831 0
M  V30 4644 C 429.315 1.34918 -2.42265 0
M  V30 4645 H 432.266 0.32947 -1.55242 0
M  V30 4646 H 432.287 2.88886 -2.47639 0
M  V30 4647 H 431.799 1.4508 -3.59963 0
M  V30 4648 H 429.9 3.21732 -1.87934 0
M  V30 4649 H 430.013 2.98312 -3.74895 0
M  V30 4650 H 428.377 1.66046 -1.93134 0
M  V30 4651 H 429.16 0.769693 -3.3456 0
M  V30 4652 N 431.605 1.3629 0.791371 0
M  V30 4653 C 433.016 1.27225 1.36641 0
M  V30 4654 C 433.367 -0.0887968 1.95999 0
M  V30 4655 O 432.492 -0.990207 1.92416 0
M  V30 4656 C 433.087 2.30375 2.48421 0
M  V30 4657 C 431.646 2.25004 3.01746 0
M  V30 4658 C 430.793 2.15259 1.7481 0
M  V30 4659 H 433.744 1.47198 0.593173 0
M  V30 4660 H 433.765 1.93905 3.27385 0
M  V30 4661 H 433.277 3.29422 2.05189 0
M  V30 4662 H 431.378 1.29417 3.49403 0
M  V30 4663 H 431.491 3.1761 3.58693 0
M  V30 4664 H 429.855 1.61482 1.96966 0
M  V30 4665 H 430.638 3.16191 1.33709 0
M  V30 4666 N 433.083 -1.0153 1.20538 0
M  V30 4667 C 434.03 -2.10098 0.955383 0
M  V30 4668 C 435 -1.65702 -0.114878 0
M  V30 4669 O 436.185 -1.90776 0.0301118 0
M  V30 4670 C 433.325 -3.41236 0.514969 0
M  V30 4671 C 432.438 -3.99102 1.65353 0
M  V30 4672 C 431.573 -5.18306 1.16329 0
M  V30 4673 C 430.612 -5.68258 2.27485 0
M  V30 4674 N 429.749 -6.78722 1.7967 0
M  V30 4675 H 434.589 -2.30818 1.88486 0
M  V30 4676 H 432.126 -1.13189 0.939499 0
M  V30 4677 H 434.084 -4.16504 0.240935 0
M  V30 4678 H 432.714 -3.20585 -0.377512 0
M  V30 4679 H 431.766 -3.20918 2.04245 0
M  V30 4680 H 433.078 -4.32177 2.49047 0
M  V30 4681 H 432.232 -6.00782 0.845302 0
M  V30 4682 H 430.971 -4.86799 0.296254 0
M  V30 4683 H 429.976 -4.84385 2.60099 0
M  V30 4684 H 431.201 -6.01798 3.14667 0
M  V30 4685 H 429.147 -6.49042 0.95295 0
M  V30 4686 H 429.064 -7.10996 2.56944 0
M  V30 4687 H 430.332 -7.64759 1.50875 0
M  V30 4688 N 434.561 -1.01147 -1.20859 0
M  V30 4689 C 435.786 -0.716698 -1.94623 0
M  V30 4690 C 436.211 0.715415 -1.73964 0
M  V30 4691 O 435.569 1.49157 -1.03062 0
M  V30 4692 C 435.617 -1.0513 -3.44935 0
M  V30 4693 O 434.721 -0.160131 -4.12089 0
M  V30 4694 H 434.062 -0.266404 -0.608214 0
M  V30 4695 H 436.592 -1.35346 -1.53436 0
M  V30 4696 H 436.602 -1.00086 -3.95533 0
M  V30 4697 H 435.277 -2.09475 -3.59295 0
M  V30 4698 H 433.854 -0.267657 -3.71938 0
M  V30 4699 N 436.039 1.36541 -0.78704 0
M  V30 4700 C 437.002 2.28413 -0.189778 0
M  V30 4701 C 438.002 1.48719 0.611499 0
M  V30 4702 O 439.192 1.68737 0.432842 0
M  V30 4703 C 436.324 3.32824 0.737638 0
M  V30 4704 H 437.517 2.82743 -0.999831 0
M  V30 4705 H 435.07 1.46065 -0.556298 0
M  V30 4706 H 435.805 2.83646 1.57212 0
M  V30 4707 H 435.59 3.91752 0.165044 0
M  V30 4708 H 437.08 4.0144 1.15047 0
M  V30 4709 N 437.518 0.538854 1.48102 0
M  V30 4710 C 438.766 0.00798599 2.02098 0
M  V30 4711 C 439.087 -1.33922 1.41739 0
M  V30 4712 O 438.357 -1.86932 0.585934 0
M  V30 4713 H 436.937 -3.62179e-05 0.747 0
M  V30 4714 H 439.599 0.7047 1.81714 0
M  V30 4715 H 438.695 -0.0937672 3.11959 0
M  V30 4716 N 438.996 -1.55193 0.274407 0
M  V30 4717 C 439.906 -2.26164 -0.623473 0
M  V30 4718 C 440.922 -1.28729 -1.17068 0
M  V30 4719 O 442.098 -1.61663 -1.20112 0
M  V30 4720 C 439.163 -2.96833 -1.7914 0
M  V30 4721 C 438.224 -4.09745 -1.28093 0
M  V30 4722 C 437.457 -4.77034 -2.3932 0
M  V30 4723 O 437.68 -4.4353 -3.5866 0
M  V30 4724 O 436.614 -5.64996 -2.07516 0
M  V30 4725 H 440.44 -3.03661 -0.0485661 0
M  V30 4726 H 438.025 -1.49341 0.0418382 0
M  V30 4727 H 439.907 -3.41248 -2.4724 0
M  V30 4728 H 438.582 -2.22253 -2.35341 0
M  V30 4729 H 437.489 -3.69787 -0.566416 0
M  V30 4730 H 438.822 -4.86224 -0.764683 0
M  V30 4731 N 440.474 -0.00167713 -1.576 0
M  V30 4732 C 441.437 0.974046 -2.07473 0
M  V30 4733 C 442.437 1.27143 -0.984444 0
M  V30 4734 O 443.627 1.21633 -1.24703 0
M  V30 4735 C 440.759 2.29849 -2.51759 0
M  V30 4736 H 441.952 0.54262 -2.9495 0
M  V30 4737 H 439.505 0.245829 -1.54355 0
M  V30 4738 H 440.24 2.77677 -1.67529 0
M  V30 4739 H 440.025 2.09584 -3.31386 0
M  V30 4740 H 441.515 2.9984 -2.90664 0
M  V30 4741 N 441.952 1.55251 0.271103 0
M  V30 4742 C 442.882 1.9127 1.33933 0
M  V30 4743 C 443.863 0.77478 1.5143 0
M  V30 4744 O 445.048 1.03307 1.64442 0
M  V30 4745 C 442.178 2.18627 2.69851 0
M  V30 4746 C 441.132 3.34442 2.67081 0
M  V30 4747 C 440.458 3.47284 4.06569 0
M  V30 4748 C 441.758 4.70784 2.26185 0
M  V30 4749 H 443.452 2.80744 1.04035 0
M  V30 4750 H 440.998 1.35077 0.499017 0
M  V30 4751 H 442.951 2.42413 3.44694 0
M  V30 4752 H 441.675 1.25955 3.01335 0
M  V30 4753 H 440.334 3.10627 1.94695 0
M  V30 4754 H 439.982 2.52074 4.35279 0
M  V30 4755 H 439.682 4.25152 4.0561 0
M  V30 4756 H 441.206 3.73363 4.83148 0
M  V30 4757 H 442.62 4.94102 2.90751 0
M  V30 4758 H 441.017 5.51582 2.36384 0
M  V30 4759 H 442.087 4.69478 1.21319 0
M  V30 4760 N 443.43 -0.535701 1.48216 0
M  V30 4761 C 444.678 -1.28928 1.55634 0
M  V30 4762 C 444.999 -1.93645 0.229514 0
M  V30 4763 O 444.269 -1.81038 -0.74846 0
M  V30 4764 H 442.849 -0.47884 0.573342 0
M  V30 4765 H 445.511 -0.623853 1.84646 0
M  V30 4766 H 444.607 -2.07157 2.33436 0
M  V30 4767 N 444.908 -1.36708 -0.784132 0
M  V30 4768 C 446.133 -1.34565 -1.5782 0
M  V30 4769 C 446.558 0.0695257 -1.87971 0
M  V30 4770 O 445.916 1.04302 -1.48293 0
M  V30 4771 C 445.964 -2.17952 -2.87279 0
M  V30 4772 O 445.068 -1.57563 -3.81114 0
M  V30 4773 H 444.409 -0.460337 -0.478524 0
M  V30 4774 H 446.939 -1.80064 -0.971495 0
M  V30 4775 H 446.949 -2.30721 -3.365 0
M  V30 4776 H 445.624 -3.20823 -2.64661 0
M  V30 4777 H 444.201 -1.53764 -3.39722 0
M  V30 4778 N 446.386 1.0089 -1.21074 0
M  V30 4779 C 447.611 1.78727 -1.05221 0
M  V30 4780 C 448.036 1.83932 0.393795 0
M  V30 4781 O 447.394 1.28004 1.28393 0
M  V30 4782 C 447.442 3.20665 -1.64944 0
M  V30 4783 O 446.546 4.02632 -0.892273 0
M  V30 4784 H 445.887 0.550973 -0.370574 0
M  V30 4785 H 448.417 1.26847 -1.60534 0
M  V30 4786 H 448.427 3.71352 -1.69002 0
M  V30 4787 H 447.102 3.16191 -2.70177 0
M  V30 4788 H 445.679 3.61207 -0.926492 0
M  V30 4789 N 447.864 1.01787 1.20321 0
M  V30 4790 C 449.112 0.706538 1.89347 0
M  V30 4791 C 449.433 -0.766289 1.79313 0
M  V30 4792 O 448.703 -1.55126 1.19635 0
M  V30 4793 H 447.283 0.258348 0.700903 0
M  V30 4794 H 449.945 1.28974 1.46122 0
M  V30 4795 H 449.041 0.991066 2.95946 0
M  V30 4796 N 449.342 -1.36122 0.79427 0
M  V30 4797 C 450.57 -2.03362 0.380989 0
M  V30 4798 C 450.985 -1.59881 -1.00416 0
M  V30 4799 O 450.342 -0.790515 -1.6449 0
M  V30 4800 C 450.393 -3.58804 0.440649 0
M  V30 4801 O 450.114 -4.007 1.77118 0
M  V30 4802 C 451.615 -4.43296 0.0186117 0
M  V30 4803 H 448.835 -0.652526 0.156367 0
M  V30 4804 H 451.379 -1.73998 1.07447 0
M  V30 4805 H 449.534 -3.8686 -0.204458 0
M  V30 4806 H 449.948 -4.95309 1.72538 0
M  V30 4807 H 451.422 -5.51887 0.111488 0
M  V30 4808 H 451.899 -4.2684 -1.03461 0
M  V30 4809 H 452.505 -4.20512 0.636395 0
M  V30 4810 N 450.82 -0.546701 -1.47814 0
M  V30 4811 C 452.231 -0.110564 -1.86372 0
M  V30 4812 C 452.582 1.31678 -1.45449 0
M  V30 4813 O 451.707 1.98889 -0.852758 0
M  V30 4814 C 452.302 -0.193873 -3.38245 0
M  V30 4815 C 450.861 0.187164 -3.75934 0
M  V30 4816 C 450.008 -0.546166 -2.71868 0
M  V30 4817 H 452.959 -0.757022 -1.39481 0
M  V30 4818 H 452.98 0.590218 -3.75895 0
M  V30 4819 H 452.492 -1.23282 -3.67999 0
M  V30 4820 H 450.593 1.22762 -3.51796 0
M  V30 4821 H 450.706 -0.164083 -4.78819 0
M  V30 4822 H 449.07 0.00953904 -2.54698 0
M  V30 4823 H 449.853 -1.58606 -3.04465 0
M  V30 4824 N 452.299 1.55045 -0.282633 0
M  V30 4825 C 453.71 1.85473 0.213655 0
M  V30 4826 C 454.061 1.20465 1.54863 0
M  V30 4827 O 453.186 0.495676 2.10647 0
M  V30 4828 C 453.781 3.36496 0.394445 0
M  V30 4829 C 452.34 3.67022 0.834961 0
M  V30 4830 C 451.487 2.77218 -0.0674081 0
M  V30 4831 H 454.438 1.50478 -0.504202 0
M  V30 4832 H 454.459 3.60007 1.23186 0
M  V30 4833 H 453.971 3.83782 -0.577326 0
M  V30 4834 H 452.072 3.25241 1.81794 0
M  V30 4835 H 452.185 4.74433 0.667075 0
M  V30 4836 H 450.549 2.5069 0.450196 0
M  V30 4837 H 451.332 3.2732 -1.0352 0
M  V30 4838 N 453.777 0.010035 1.57597 0
M  V30 4839 C 455.023 -0.673697 1.91283 0
M  V30 4840 C 455.356 -1.72863 0.884979 0
M  V30 4841 O 454.631 -1.94268 -0.0949487 0
M  V30 4842 C 454.914 -1.30766 3.35518 0
M  V30 4843 C 454.767 -0.263578 4.49027 0
M  V30 4844 C 456.086 -2.23105 3.79358 0
M  V30 4845 H 453.205 -0.243439 0.695634 0
M  V30 4846 H 455.847 0.0633864 1.89894 0
M  V30 4847 H 453.997 -1.93588 3.36832 0
M  V30 4848 H 455.669 0.365738 4.59848 0
M  V30 4849 H 453.912 0.413077 4.31829 0
M  V30 4850 H 454.583 -0.746398 5.4693 0
M  V30 4851 H 457.059 -1.70289 3.79659 0
M  V30 4852 H 455.935 -2.64424 4.81011 0
M  V30 4853 H 456.196 -3.11433 3.13787 0
M  V30 4854 N 455.255 -1.55392 -0.262866 0
M  V30 4855 C 456.671 -1.47459 -0.610582 0
M  V30 4856 C 456.871 -0.697031 -1.8906 0
M  V30 4857 O 455.927 -0.219952 -2.5154 0
M  V30 4858 C 457.24 -2.91751 -0.728131 0
M  V30 4859 C 458.788 -3.02027 -0.821517 0
M  V30 4860 C 459.263 -4.47594 -0.97076 0
M  V30 4861 N 460.754 -4.51465 -1.03603 0
M  V30 4862 C 461.489 -5.61326 -1.17049 0
M  V30 4863 N 460.985 -6.81032 -1.2715 0
M  V30 4864 N 462.778 -5.49089 -1.20239 0
M  V30 4865 H 454.929 -2.04395 0.577632 0
M  V30 4866 H 457.192 -0.927287 0.197086 0
M  V30 4867 H 456.898 -3.51413 0.142132 0
M  V30 4868 H 456.772 -3.4134 -1.6052 0
M  V30 4869 H 459.159 -2.42456 -1.68224 0
M  V30 4870 H 459.24 -2.55674 0.0803688 0
M  V30 4871 H 458.884 -5.07771 -0.114655 0
M  V30 4872 H 458.814 -4.91613 -1.88745 0
M  V30 4873 H 461.305 -3.6524 -0.96996 0
M  V30 4874 H 461.618 -7.60511 -1.37271 0
M  V30 4875 H 459.963 -6.83824 -1.24136 0
M  V30 4876 H 463.154 -4.54507 -1.11985 0
M  V30 4877 H 463.327 -6.34749 -1.30373 0
M  V30 4878 N 456.733 0.527833 -1.48498 0
M  V30 4879 C 457.958 1.313 -1.60546 0
M  V30 4880 C 458.383 1.86199 -0.26672 0
M  V30 4881 O 457.741 1.64513 0.761918 0
M  V30 4882 C 457.789 2.43818 -2.65678 0
M  V30 4883 O 456.893 3.46916 -2.22987 0
M  V30 4884 H 456.234 0.388784 -0.538277 0
M  V30 4885 H 458.764 0.634896 -1.945 0
M  V30 4886 H 458.774 2.89973 -2.87018 0
M  V30 4887 H 457.449 2.03222 -3.62869 0
M  V30 4888 H 456.026 3.06864 -2.11869 0
M  V30 4889 N 458.211 1.37122 0.776871 0
M  V30 4890 C 459.141 1.35164 1.90402 0
M  V30 4891 C 460.122 0.221069 1.68657 0
M  V30 4892 O 461.307 0.420642 1.8959 0
M  V30 4893 C 458.437 1.15274 3.27611 0
M  V30 4894 C 457.391 2.25289 3.63908 0
M  V30 4895 C 456.717 1.90527 4.99603 0
M  V30 4896 C 458.017 3.67446 3.71188 0
M  V30 4897 H 459.711 2.29482 1.92297 0
M  V30 4898 H 457.257 1.10465 0.923773 0
M  V30 4899 H 459.21 1.12536 4.06096 0
M  V30 4900 H 457.934 0.174102 3.26136 0
M  V30 4901 H 456.593 2.27174 2.87728 0
M  V30 4902 H 456.241 0.91206 4.94662 0
M  V30 4903 H 455.941 2.64193 5.24858 0
M  V30 4904 H 457.465 1.89367 5.80493 0
M  V30 4905 H 458.879 3.67719 4.39836 0
M  V30 4906 H 457.276 4.40123 4.07936 0
M  V30 4907 H 458.346 4.01443 2.71977 0
M  V30 4908 N 459.689 -1.00246 1.21608 0
M  V30 4909 C 460.914 -1.78167 1.06167 0
M  V30 4910 C 461.339 -1.84138 -0.384035 0
M  V30 4911 O 460.697 -1.28683 -1.27712 0
M  V30 4912 C 460.745 -3.19786 1.66642 0
M  V30 4913 O 459.849 -4.02153 0.913613 0
M  V30 4914 H 459.19 -0.549 0.37349 0
M  V30 4915 H 461.72 -1.25994 1.61204 0
M  V30 4916 H 461.73 -3.70451 1.70969 0
M  V30 4917 H 460.405 -3.14754 2.7185 0
M  V30 4918 H 458.982 -3.60711 0.945635 0
M  V30 4919 N 461.167 -1.02423 -1.1978 0
M  V30 4920 C 462.395 -0.737456 -1.93311 0
M  V30 4921 C 462.81 0.703023 -1.75223 0
M  V30 4922 O 462.167 1.47761 -1.07112 0
M  V30 4923 C 462.218 -1.0733 -3.45199 0
M  V30 4924 O 461.939 -2.4572 -3.62702 0
M  V30 4925 C 463.44 -0.80866 -4.35862 0
M  V30 4926 H 460.66 -0.2702 -0.614193 0
M  V30 4927 H 463.204 -1.36747 -1.52054 0
M  V30 4928 H 461.359 -0.488545 -3.84307 0
M  V30 4929 H 461.773 -2.58081 -4.56612 0
M  V30 4930 H 463.247 -1.09365 -5.41057 0
M  V30 4931 H 463.724 0.257025 -4.38447 0
M  V30 4932 H 464.33 -1.37592 -4.02428 0
M  V30 4933 N 462.645 1.35699 -0.801477 0
M  V30 4934 C 463.873 2.03157 -0.391768 0
M  V30 4935 C 464.288 1.60412 0.995668 0
M  V30 4936 O 463.645 0.799228 1.64069 0
M  V30 4937 C 463.696 3.58566 -0.459671 0
M  V30 4938 O 463.417 3.99756 -1.7924 0
M  V30 4939 C 464.918 4.4328 -0.0421205 0
M  V30 4940 H 462.138 0.651688 -0.159825 0
M  V30 4941 H 464.682 1.73426 -1.08368 0
M  V30 4942 H 462.837 3.86963 0.183939 0
M  V30 4943 H 463.251 4.94387 -1.75162 0
M  V30 4944 H 464.725 5.51821 -0.140754 0
M  V30 4945 H 465.202 4.27383 1.01196 0
M  V30 4946 H 465.808 4.20168 -0.658687 0
M  V30 4947 N 464.123 0.554532 1.47522 0
M  V30 4948 C 465.071 -0.207765 2.3167 0
M  V30 4949 C 466.065 -0.911914 1.4276 0
M  V30 4950 O 467.271 -0.833504 1.59539 0
M  V30 4951 H 463.646 -0.0858726 0.747081 0
M  V30 4952 H 465.617 0.521178 2.93813 0
M  V30 4953 C 464.366 -1.2263 3.25357 0
M  V30 4954 H 463.689 -0.693887 3.93732 0
M  V30 4955 H 465.129 -1.73062 3.87073 0
M  V30 4956 C 463.588 -2.27278 2.4869 0
M  V30 4957 O 464.118 -3.34156 2.22941 0
M  V30 4958 N 462.324 -2.01134 2.09746 0
M  V30 4959 H 461.871 -1.14232 2.30887 0
M  V30 4960 H 461.829 -2.71369 1.58765 0
M  V30 4961 N 465.601 -1.54893 0.290851 0
M  V30 4962 C 466.826 -2.04804 -0.32712 0
M  V30 4963 C 467.251 -1.16721 -1.47506 0
M  V30 4964 O 466.609 -0.169107 -1.8051 0
M  V30 4965 C 466.657 -3.52268 -0.770689 0
M  V30 4966 O 465.761 -3.67236 -1.87647 0
M  V30 4967 H 465.102 -0.660789 -0.0652227 0
M  V30 4968 H 467.632 -2.00036 0.429739 0
M  V30 4969 H 467.642 -3.9393 -1.06223 0
M  V30 4970 H 466.317 -4.15843 0.069096 0
M  V30 4971 H 464.894 -3.37479 -1.58626 0
M  V30 4972 N 467.08 -0.0183926 -1.57589 0
M  V30 4973 C 468.305 0.676634 -1.96052 0
M  V30 4974 C 468.73 1.6548 -0.894307 0
M  V30 4975 O 468.088 1.80712 0.145849 0
M  V30 4976 C 468.136 1.36872 -3.33614 0
M  V30 4977 O 467.24 2.48372 -3.29219 0
M  V30 4978 H 466.581 0.1786 -0.63953 0
M  V30 4979 H 469.111 -0.077056 -2.04455 0
M  V30 4980 H 469.121 1.72797 -3.69601 0
M  V30 4981 H 467.796 0.651636 -4.10763 0
M  V30 4982 H 466.373 2.14639 -3.04934 0
M  V30 4983 N 468.558 1.5553 0.254621 0
M  V30 4984 C 469.783 1.81383 1.00573 0
M  V30 4985 C 470.208 0.594419 1.78461 0
M  V30 4986 O 469.566 -0.456403 1.75461 0
M  V30 4987 C 469.614 3.04892 1.92545 0
M  V30 4988 O 468.718 2.81266 3.01601 0
M  V30 4989 H 468.059 0.598969 0.286587 0
M  V30 4990 H 470.589 2.02703 0.277952 0
M  V30 4991 H 470.599 3.34119 2.34155 0
M  V30 4992 H 469.274 3.93287 1.3527 0
M  V30 4993 H 467.851 2.63185 2.64174 0
M  V30 4994 N 470.036 -0.519951 1.48776 0
M  V30 4995 C 471.261 -1.30447 1.6124 0
M  V30 4996 C 471.686 -1.86055 0.276591 0
M  V30 4997 O 471.044 -1.64915 -0.753183 0
M  V30 4998 C 471.092 -2.42406 2.66967 0
M  V30 4999 O 470.196 -3.45728 2.24824 0
M  V30 5000 H 469.537 -0.385924 0.540332 0
M  V30 5001 H 472.067 -0.624572 1.94834 0
M  V30 5002 H 472.077 -2.88447 2.88552 0
M  V30 5003 H 470.752 -2.01294 3.63941 0
M  V30 5004 H 469.329 -3.05737 2.13494 0
M  V30 5005 N 471.514 -1.37532 -0.769588 0
M  V30 5006 C 472.739 -1.36231 -1.56384 0
M  V30 5007 C 473.164 0.0495849 -1.88035 0
M  V30 5008 O 472.522 1.02723 -1.49391 0
M  V30 5009 C 472.57 -2.20986 -2.84952 0
M  V30 5010 O 471.674 -1.61597 -3.79421 0
M  V30 5011 H 471.015 -0.465387 -0.473615 0
M  V30 5012 H 473.545 -1.81085 -0.952342 0
M  V30 5013 H 473.555 -2.34277 -3.34034 0
M  V30 5014 H 472.23 -3.23612 -2.61243 0
M  V30 5015 H 470.807 -1.57359 -3.38072 0
M  V30 5016 N 472.992 0.995999 -1.22138 0
M  V30 5017 C 474.24 1.73167 -1.042 0
M  V30 5018 C 474.561 1.90329 0.42423 0
M  V30 5019 O 473.831 1.4607 1.30539 0
M  V30 5020 H 472.411 0.641593 -0.38258 0
M  V30 5021 H 475.073 1.19974 -1.53598 0
M  V30 5022 H 474.169 2.72734 -1.51731 0
M  V30 5023 N 474.47 1.03057 1.19235 0
M  V30 5024 C 475.433 0.617418 2.20727 0
M  V30 5025 C 476.433 -0.319856 1.57587 0
M  V30 5026 O 477.623 -0.106633 1.73873 0
M  V30 5027 C 474.755 -0.096296 3.40764 0
M  V30 5028 H 475.948 1.51544 2.58794 0
M  V30 5029 H 473.501 0.821949 1.32942 0
M  V30 5030 H 474.236 -1.00859 3.08217 0
M  V30 5031 H 474.021 0.577217 3.87828 0
M  V30 5032 H 475.511 -0.372219 4.15938 0
M  V30 5033 N 475.948 -1.35272 0.808662 0
M  V30 5034 C 477.359 -1.81179 0.450688 0
M  V30 5035 C 477.71 -1.67143 -1.02751 0
M  V30 5036 O 476.835 -1.20325 -1.79864 0
M  V30 5037 C 477.43 -3.28943 0.811275 0
M  V30 5038 C 475.989 -3.72985 0.505871 0
M  V30 5039 C 475.136 -2.57229 1.03578 0
M  V30 5040 H 478.087 -1.2322 1.00012 0
M  V30 5041 H 478.108 -3.80342 0.109588 0
M  V30 5042 H 477.62 -3.39127 1.88718 0
M  V30 5043 H 475.721 -3.68349 -0.561209 0
M  V30 5044 H 475.834 -4.67677 1.03995 0
M  V30 5045 H 474.198 -2.50548 0.458005 0
M  V30 5046 H 474.981 -2.7019 2.11784 0
M  V30 5047 N 477.426 -0.562348 -1.47226 0
M  V30 5048 C 478.674 -0.0401371 -2.0206 0
M  V30 5049 C 478.995 1.3165 -1.43852 0
M  V30 5050 O 478.265 1.85976 -0.615599 0
M  V30 5051 H 476.845 -0.0118479 -0.746906 0
M  V30 5052 H 479.507 -0.73352 -1.8057 0
M  V30 5053 H 478.603 0.0441254 -3.12069 0
M  V30 5054 N 478.904 1.54736 -0.299062 0
M  V30 5055 C 480.315 1.8569 0.193971 0
M  V30 5056 C 480.666 1.22101 1.53577 0
M  V30 5057 O 479.791 0.51799 2.10109 0
M  V30 5058 C 480.386 3.36895 0.358733 0
M  V30 5059 C 478.945 3.67887 0.795986 0
M  V30 5060 C 478.092 2.77131 -0.096807 0
M  V30 5061 H 481.043 1.49934 -0.520134 0
M  V30 5062 H 481.064 3.61294 1.19361 0
M  V30 5063 H 480.576 3.83148 -0.617998 0
M  V30 5064 H 478.677 3.27151 1.78334 0
M  V30 5065 H 478.79 4.75114 0.616718 0
M  V30 5066 H 477.154 2.51153 0.423581 0
M  V30 5067 H 477.937 3.26204 -1.06986 0
M  V30 5068 N 480.382 0.0267497 1.57577 0
M  V30 5069 C 481.622 -0.65659 1.93567 0
M  V30 5070 C 481.986 -1.69429 0.903213 0
M  V30 5071 O 483.187 -2.42994 1.14923 0
M  V30 5072 C 481.458 -1.25912 3.34486 0
M  V30 5073 S 483.017 -1.96386 3.924 0
M  V30 5074 H 479.835 -0.216237 0.67732 0
M  V30 5075 H 482.437 0.0898475 1.95293 0
M  V30 5076 H 481.141 -0.491405 4.07447 0
M  V30 5077 H 480.672 -2.04291 3.36198 0
M  V30 5078 H 482.687 -3.24202 3.75643 0
M  V30 5079 N 481.861 -1.55662 -0.24637 0
M  V30 5080 C 483.109 -1.77168 -0.972411 0
M  V30 5081 C 483.43 -0.590827 -1.85834 0
M  V30 5082 O 482.7 0.393365 -1.9191 0
M  V30 5083 H 481.28 -0.653405 -0.362038 0
M  V30 5084 H 483.942 -1.93101 -0.264189 0
M  V30 5085 H 483.038 -2.68335 -1.59382 0
M  V30 5086 N 483.339 0.512053 -1.4905 0
M  V30 5087 C 484.269 1.62365 -1.67809 0
M  V30 5088 C 485.25 1.61737 -0.526809 0
M  V30 5089 O 486.435 1.78651 -0.761404 0
M  V30 5090 C 483.565 3.00895 -1.73435 0
M  V30 5091 C 482.519 3.16387 -2.88242 0
M  V30 5092 C 481.845 4.56157 -2.78971 0
M  V30 5093 C 483.145 2.97457 -4.29321 0
M  V30 5094 H 484.839 1.46921 -2.60873 0
M  V30 5095 H 482.385 0.705379 -1.2554 0
M  V30 5096 H 484.338 3.78549 -1.85145 0
M  V30 5097 H 483.062 3.17403 -0.769619 0
M  V30 5098 H 481.721 2.41155 -2.76116 0
M  V30 5099 H 481.369 4.69525 -1.8043 0
M  V30 5100 H 481.069 4.67465 -3.5602 0
M  V30 5101 H 482.593 5.35886 -2.92675 0
M  V30 5102 H 484.007 3.64888 -4.42187 0
M  V30 5103 H 482.404 3.20245 -5.07507 0
M  V30 5104 H 483.474 1.93692 -4.44535 0
M  V30 5105 N 484.817 1.37938 0.762283 0
M  V30 5106 C 485.78 1.34279 1.85747 0
M  V30 5107 C 486.78 0.244969 1.58923 0
M  V30 5108 O 487.97 0.501365 1.66829 0
M  V30 5109 C 485.102 1.08833 3.23061 0
M  V30 5110 H 486.295 2.31705 1.90401 0
M  V30 5111 H 483.848 1.23105 0.963057 0
M  V30 5112 H 484.583 0.119767 3.24079 0
M  V30 5113 H 484.368 1.88306 3.43923 0
M  V30 5114 H 485.858 1.08946 4.03138 0
M  V30 5115 N 486.295 -0.989507 1.22664 0
M  V30 5116 C 487.711 -1.25395 0.987331 0
M  V30 5117 C 487.911 -1.9899 -0.317056 0
M  V30 5118 O 486.967 -2.30141 -1.03882 0
M  V30 5119 C 488.28 -2.06242 2.18826 0
M  V30 5120 C 489.828 -2.19413 2.23219 0
M  V30 5121 C 490.303 -3.03648 3.42873 0
M  V30 5122 N 491.794 -3.11234 3.43056 0
M  V30 5123 C 492.529 -3.7671 4.32293 0
M  V30 5124 N 492.025 -4.44085 5.31752 0
M  V30 5125 N 493.818 -3.73505 4.2006 0
M  V30 5126 H 485.969 -0.496212 2.06522 0
M  V30 5127 H 488.232 -0.281784 0.905153 0
M  V30 5128 H 487.938 -1.59531 3.13437 0
M  V30 5129 H 487.812 -3.06996 2.19165 0
M  V30 5130 H 490.199 -2.65336 1.29154 0
M  V30 5131 H 490.28 -1.18078 2.26917 0
M  V30 5132 H 489.924 -2.58424 4.37241 0
M  V30 5133 H 489.854 -4.05132 3.36416 0
M  V30 5134 H 492.345 -2.63287 2.71088 0
M  V30 5135 H 492.658 -4.91797 5.96117 0
M  V30 5136 H 491.003 -4.42822 5.35662 0
M  V30 5137 H 494.194 -3.20033 3.41609 0
M  V30 5138 H 494.367 -4.24253 4.8981 0
M  V30 5139 N 487.773 -1.03688 -1.18687 0
M  V30 5140 C 488.705 -0.582696 -2.21669 0
M  V30 5141 C 489.718 0.345656 -1.59088 0
M  V30 5142 O 490.907 0.140776 -1.77944 0
M  V30 5143 C 488.007 0.169204 -3.38477 0
M  V30 5144 C 487.18 -0.766079 -4.30639 0
M  V30 5145 C 486.239 -0.0581541 -5.26168 0
M  V30 5146 O 485.265 -0.687346 -5.65035 0
M  V30 5147 N 486.467 1.20981 -5.67753 0
M  V30 5148 H 489.232 -1.46843 -2.61261 0
M  V30 5149 H 486.793 -0.916896 -1.33434 0
M  V30 5150 H 488.785 0.652543 -3.99405 0
M  V30 5151 H 487.355 0.956435 -2.97609 0
M  V30 5152 H 486.575 -1.42935 -3.67373 0
M  V30 5153 H 487.863 -1.40146 -4.89118 0
M  V30 5154 H 487.261 1.74159 -5.38224 0
M  V30 5155 H 485.818 1.6375 -6.30896 0
M  V30 5156 N 489.251 1.34841 -0.815825 0
M  V30 5157 C 490.199 2.31549 -0.220888 0
M  V30 5158 C 491.193 1.5707 0.634457 0
M  V30 5159 O 492.399 1.72125 0.526589 0
M  V30 5160 H 488.774 0.750153 -0.0526782 0
M  V30 5161 H 490.745 2.7926 -1.05149 0
M  V30 5162 C 489.494 3.42335 0.608427 0
M  V30 5163 H 488.817 3.9978 -0.0404121 0
M  V30 5164 H 490.257 4.12258 0.990931 0
M  V30 5165 C 488.716 2.86173 1.77782 0
M  V30 5166 O 489.246 2.80474 2.87571 0
M  V30 5167 N 487.452 2.43093 1.59229 0
M  V30 5168 H 486.999 2.47928 0.699237 0
M  V30 5169 H 486.957 2.05866 2.37627 0
M  V30 5170 N 490.729 0.570148 1.46925 0
M  V30 5171 C 491.954 0.0542592 2.07329 0
M  V30 5172 C 492.379 -1.23582 1.41806 0
M  V30 5173 O 491.737 -1.74341 0.497479 0
M  V30 5174 C 491.785 -0.111175 3.60429 0
M  V30 5175 O 490.889 -1.17071 3.95434 0
M  V30 5176 H 490.23 0.0571425 0.661537 0
M  V30 5177 H 492.76 0.789516 1.88753 0
M  V30 5178 H 492.77 -0.321315 4.06733 0
M  V30 5179 H 491.445 0.831012 4.07513 0
M  V30 5180 H 490.022 -0.940029 3.60857 0
M  V30 5181 N 492.207 -1.54576 0.307264 0
M  V30 5182 C 493.435 -2.04675 -0.302597 0
M  V30 5183 C 493.85 -1.18425 -1.47041 0
M  V30 5184 O 493.207 -0.211257 -1.81273 0
M  V30 5185 C 493.258 -3.53575 -0.752801 0
M  V30 5186 O 492.979 -4.36547 0.368536 0
M  V30 5187 C 494.48 -4.19699 -1.42717 0
M  V30 5188 H 491.7 -0.66786 -0.0648374 0
M  V30 5189 H 494.244 -1.99516 0.448716 0
M  V30 5190 H 492.399 -3.59074 -1.45412 0
M  V30 5191 H 492.813 -5.24497 0.0168937 0
M  V30 5192 H 494.287 -5.25388 -1.69327 0
M  V30 5193 H 494.764 -3.69815 -2.36925 0
M  V30 5194 H 495.37 -4.18293 -0.768856 0
M  V30 5195 N 493.685 -0.035106 -1.57561 0
M  V30 5196 C 494.91 0.655802 -1.96759 0
M  V30 5197 C 495.335 1.64523 -0.911809 0
M  V30 5198 O 494.693 1.80857 0.126673 0
M  V30 5199 C 494.741 1.33326 -3.35047 0
M  V30 5200 O 493.845 2.44866 -3.31835 0
M  V30 5201 H 493.186 0.171807 -0.641388 0
M  V30 5202 H 495.716 -0.0987369 -2.04362 0
M  V30 5203 H 495.726 1.68867 -3.71413 0
M  V30 5204 H 494.401 0.608033 -4.11431 0
M  V30 5205 H 492.978 2.11392 -3.07193 0
M  V30 5206 N 495.163 1.55791 0.238111 0
M  V30 5207 C 496.093 1.94068 1.29846 0
M  V30 5208 C 497.074 0.806726 1.49753 0
M  V30 5209 O 498.259 1.06772 1.62214 0
M  V30 5210 C 495.389 2.24302 2.65153 0
M  V30 5211 C 494.343 3.40032 2.59927 0
M  V30 5212 C 493.669 3.55829 3.99111 0
M  V30 5213 C 494.969 4.75476 2.16148 0
M  V30 5214 H 496.663 2.82887 0.980563 0
M  V30 5215 H 494.209 1.36105 0.470253 0
M  V30 5216 H 496.162 2.4967 3.39475 0
M  V30 5217 H 494.886 1.32318 2.98596 0
M  V30 5218 H 493.545 3.14687 1.88063 0
M  V30 5219 H 493.193 2.6125 4.29834 0
M  V30 5220 H 492.893 4.3366 3.96501 0
M  V30 5221 H 494.417 3.83528 4.7512 0
M  V30 5222 H 495.831 5.00158 2.80205 0
M  V30 5223 H 494.228 5.56472 2.24631 0
M  V30 5224 H 495.298 4.71946 1.11333 0
M  V30 5225 N 496.642 -0.504142 1.49319 0
M  V30 5226 C 497.87 -1.28256 1.62351 0
M  V30 5227 C 498.285 -1.86502 0.293682 0
M  V30 5228 O 497.642 -1.67678 -0.720449 0
M  V30 5229 C 497.693 -2.41507 2.68992 0
M  V30 5230 O 497.414 -1.85656 3.96817 0
M  V30 5231 C 498.915 -3.32929 2.927 0
M  V30 5232 H 496.135 -0.389115 0.546654 0
M  V30 5233 H 498.679 -0.605531 1.95329 0
M  V30 5234 H 496.834 -3.05046 2.38801 0
M  V30 5235 H 497.248 -2.59981 4.55533 0
M  V30 5236 H 498.722 -4.0868 3.71058 0
M  V30 5237 H 499.199 -3.89733 2.02496 0
M  V30 5238 H 499.805 -2.75158 3.24296 0
M  V30 5239 N 498.12 -1.38341 -0.754957 0
M  V30 5240 C 499.368 -1.34208 -1.51105 0
M  V30 5241 C 499.689 0.0677634 -1.94882 0
M  V30 5242 O 498.959 1.01517 -1.67544 0
M  V30 5243 H 497.539 -0.493819 -0.560493 0
M  V30 5244 H 500.201 -1.73005 -0.897507 0
M  V30 5245 H 499.297 -1.99203 -2.4026 0
M  V30 5246 N 499.598 0.982988 -1.23187 0
M  V30 5247 C 500.545 2.07491 -1.01075 0
M  V30 5248 C 501.515 1.65949 0.070905 0
M  V30 5249 O 502.7 1.90629 -0.0806822 0
M  V30 5250 C 499.84 3.39751 -0.605261 0
M  V30 5251 C 498.953 3.94578 -1.75876 0
M  V30 5252 C 498.088 5.15039 -1.3003 0
M  V30 5253 C 497.127 5.62027 -2.42472 0
M  V30 5254 N 496.264 6.73719 -1.97602 0
M  V30 5255 H 501.104 2.25739 -1.9454 0
M  V30 5256 H 498.641 1.10659 -0.969179 0
M  V30 5257 H 500.599 4.15719 -0.351279 0
M  V30 5258 H 499.229 3.21473 0.292382 0
M  V30 5259 H 498.281 3.1539 -2.12681 0
M  V30 5260 H 499.593 4.25422 -2.60418 0
M  V30 5261 H 498.747 5.9833 -1.00429 0
M  V30 5262 H 497.486 4.85843 -0.425216 0
M  V30 5263 H 496.491 4.77318 -2.7285 0
M  V30 5264 H 497.716 5.93244 -3.30512 0
M  V30 5265 H 495.662 6.46287 -1.1247 0
M  V30 5266 H 495.579 7.03934 -2.75705 0
M  V30 5267 H 496.847 7.6049 -1.71098 0
M  V30 5268 N 501.076 1.04316 1.18135 0
M  V30 5269 C 502.487 0.775505 1.69832 0
M  V30 5270 C 502.838 -0.703348 1.8316 0
M  V30 5271 O 501.963 -1.54729 1.51287 0
M  V30 5272 C 502.558 1.40112 3.0847 0
M  V30 5273 C 501.117 1.18172 3.57368 0
M  V30 5274 C 500.264 1.49022 2.33854 0
M  V30 5275 H 503.215 1.20925 1.02775 0
M  V30 5276 H 503.236 0.805672 3.71873 0
M  V30 5277 H 502.748 2.47744 2.98738 0
M  V30 5278 H 500.849 0.124258 3.72393 0
M  V30 5279 H 500.962 1.8805 4.40652 0
M  V30 5280 H 499.326 0.909995 2.37889 0
M  V30 5281 H 500.109 2.57768 2.26738 0
M  V30 5282 N 502.554 -1.34406 0.822964 0
M  V30 5283 C 503.802 -1.97892 0.410245 0
M  V30 5284 C 504.123 -1.65567 -1.03017 0
M  V30 5285 O 503.393 -0.94642 -1.71522 0
M  V30 5286 H 501.973 -0.732049 0.148707 0
M  V30 5287 H 504.635 -1.64043 1.05242 0
M  V30 5288 H 503.731 -3.07579 0.529284 0
M  V30 5289 N 504.032 -0.577932 -1.46621 0
M  V30 5290 C 504.995 0.147805 -2.28723 0
M  V30 5291 C 505.995 0.823325 -1.38123 0
M  V30 5292 O 507.185 0.676011 -1.60548 0
M  V30 5293 C 504.317 1.21853 -3.18378 0
M  V30 5294 H 505.51 -0.573654 -2.94362 0
M  V30 5295 H 503.063 -0.335703 -1.52652 0
M  V30 5296 H 503.798 1.97173 -2.57475 0
M  V30 5297 H 503.583 0.738714 -3.85078 0
M  V30 5298 H 505.073 1.72768 -3.80186 0
M  V30 5299 N 505.51 1.54411 -0.315457 0
M  V30 5300 C 506.44 2.27002 0.547039 0
M  V30 5301 C 507.421 1.27492 1.12605 0
M  V30 5302 O 508.606 1.5629 1.15269 0
M  V30 5303 C 505.736 3.02171 1.71201 0
M  V30 5304 C 504.69 4.0895 1.26268 0
M  V30 5305 C 504.016 4.71915 2.51396 0
M  V30 5306 C 505.316 5.20891 0.383419 0
M  V30 5307 H 507.01 2.99343 -0.0584517 0
M  V30 5308 H 504.556 1.4397 -0.0295527 0
M  V30 5309 H 506.509 3.51681 2.32161 0
M  V30 5310 H 505.233 2.27433 2.34397 0
M  V30 5311 H 503.892 3.60312 0.676062 0
M  V30 5312 H 503.54 3.93801 3.12937 0
M  V30 5313 H 503.24 5.44039 2.22026 0
M  V30 5314 H 504.764 5.24195 3.13133 0
M  V30 5315 H 506.178 5.66206 0.899082 0
M  V30 5316 H 504.575 5.99821 0.182857 0
M  V30 5317 H 505.645 4.81324 -0.587821 0
M  V30 5318 N 506.988 0.0434614 1.5754 0
M  V30 5319 C 508.399 -0.493343 1.80064 0
M  V30 5320 C 508.75 -1.71388 0.955023 0
M  V30 5321 O 507.875 -2.15736 0.169434 0
M  V30 5322 C 508.47 -0.90179 3.26578 0
M  V30 5323 C 507.029 -1.38362 3.50047 0
M  V30 5324 C 506.176 -0.355129 2.75017 0
M  V30 5325 H 509.127 0.2694 1.56397 0
M  V30 5326 H 509.148 -1.76523 3.37075 0
M  V30 5327 H 508.66 -0.013271 3.88098 0
M  V30 5328 H 506.761 -2.29159 2.93798 0
M  V30 5329 H 506.874 -1.3811 4.58762 0
M  V30 5330 H 505.238 -0.826348 2.40922 0
M  V30 5331 H 506.021 0.525172 3.39259 0
M  V30 5332 N 508.466 -1.55915 -0.229846 0
M  V30 5333 C 509.429 -1.90914 -1.26824 0
M  V30 5334 C 510.429 -0.786999 -1.40225 0
M  V30 5335 O 511.619 -1.05484 -1.38632 0
M  V30 5336 C 508.751 -2.15264 -2.64337 0
M  V30 5337 H 509.944 -2.8378 -0.969998 0
M  V30 5338 H 507.497 -1.49069 -0.4699 0
M  V30 5339 H 508.232 -1.24923 -2.99274 0
M  V30 5340 H 508.017 -2.97005 -2.55989 0
M  V30 5341 H 509.507 -2.43467 -3.39284 0
M  V30 5342 N 509.944 0.496216 -1.49584 0
M  V30 5343 C 510.892 1.61805 -1.67098 0
M  V30 5344 C 511.886 1.60667 -0.536877 0
M  V30 5345 O 513.092 1.65118 -0.716654 0
M  V30 5346 H 509.467 0.53646 -0.526986 0
M  V30 5347 H 511.438 1.44187 -2.61252 0
M  V30 5348 C 510.187 2.99912 -1.75921 0
M  V30 5349 H 509.51 3.01496 -2.62565 0
M  V30 5350 H 510.95 3.77931 -1.92209 0
M  V30 5351 C 509.409 3.33092 -0.505088 0
M  V30 5352 O 509.939 4.00019 0.367085 0
M  V30 5353 N 508.145 2.88278 -0.366599 0
M  V30 5354 H 507.692 2.33989 -1.07735 0
M  V30 5355 H 507.65 3.10846 0.47142 0
M  V30 5356 N 511.423 1.38739 0.74761 0
M  V30 5357 C 512.353 1.39173 1.87492 0
M  V30 5358 C 513.334 0.256794 1.6815 0
M  V30 5359 O 514.519 0.460762 1.88655 0
M  V30 5360 C 511.649 1.22197 3.25093 0
M  V30 5361 C 510.603 2.32957 3.59047 0
M  V30 5362 C 509.929 2.01082 4.95449 0
M  V30 5363 C 511.229 3.75237 3.6331 0
M  V30 5364 H 512.923 2.3351 1.87386 0
M  V30 5365 H 510.469 1.12399 0.900134 0
M  V30 5366 H 512.422 1.21124 4.03617 0
M  V30 5367 H 511.146 0.243241 3.25693 0
M  V30 5368 H 509.805 2.33226 2.82845 0
M  V30 5369 H 509.453 1.01678 4.92616 0
M  V30 5370 H 509.153 2.75267 5.19136 0
M  V30 5371 H 510.677 2.01638 5.76346 0
M  V30 5372 H 512.091 3.76966 4.31937 0
M  V30 5373 H 510.488 4.48677 3.98509 0
M  V30 5374 H 511.558 4.07122 2.634 0
M  V30 5375 N 512.901 -0.976442 1.23707 0
M  V30 5376 C 514.178 -1.69296 0.979699 0
M  V30 5377 C 514.558 -2.0508 -0.500555 0
M  V30 5378 O 513.906 -1.74708 -1.47273 0
M  V30 5379 C 514.116 -2.93143 1.89389 0
M  V30 5380 C 515.464 -3.65572 2.15968 0
M  V30 5381 O 516.488 -3.03184 1.86971 0
M  V30 5382 O 515.347 -4.77859 2.65167 0
M  V30 5383 H 512.441 -0.739708 0.369812 0
M  V30 5384 H 514.987 -1.03131 1.34767 0
M  V30 5385 H 513.759 -2.63327 2.89439 0
M  V30 5386 H 513.382 -3.67044 1.52854 0
M  V30 5387 N 514.379 -1.04941 -1.1758 0
M  V30 5388 C 515.656 -0.671918 -1.83697 0
M  V30 5389 C 516.036 0.847929 -1.93322 0
M  V30 5390 O 515.384 1.75287 -1.46583 0
M  V30 5391 C 515.594 -1.35797 -3.21497 0
M  V30 5392 C 516.942 -1.4944 -3.97433 0
M  V30 5393 O 517.966 -1.31678 -3.30967 0
M  V30 5394 O 516.825 -1.78463 -5.1654 0
M  V30 5395 H 513.919 -0.236212 -0.792548 0
M  V30 5396 H 516.465 -1.14884 -1.24899 0
M  V30 5397 H 515.237 -2.39498 -3.09446 0
M  V30 5398 H 514.86 -0.870236 -3.8796 0
M  V30 5399 N 515.857 1.33968 -0.830081 0
M  V30 5400 C 516.79 2.27303 -0.202182 0
M  V30 5401 C 517.768 1.49235 0.645581 0
M  V30 5402 O 518.952 1.78433 0.607762 0
M  V30 5403 C 516.079 3.31025 0.716932 0
M  V30 5404 C 515.125 4.26466 -0.0542271 0
M  V30 5405 S 515.958 5.16707 -1.40622 0
M  V30 5406 C 517.114 6.23962 -0.492167 0
M  V30 5407 H 517.347 2.8021 -0.99346 0
M  V30 5408 H 514.88 1.41124 -0.626359 0
M  V30 5409 H 516.838 3.91271 1.24165 0
M  V30 5410 H 515.499 2.76951 1.4818 0
M  V30 5411 H 514.692 4.99858 0.644785 0
M  V30 5412 H 514.294 3.7051 -0.509722 0
M  V30 5413 H 516.586 6.76774 0.31347 0
M  V30 5414 H 517.529 6.97927 -1.19599 0
M  V30 5415 H 517.937 5.64447 -0.0774176 0
M  V30 5416 N 517.335 0.585699 1.46312 0
M  V30 5417 C 518.282 -0.145835 2.30339 0
M  V30 5418 C 519.252 -0.881215 1.40797 0
M  V30 5419 O 520.437 -0.871293 1.69744 0
M  V30 5420 C 517.577 -1.15161 3.25318 0
M  V30 5421 C 516.69 -0.419367 4.2996 0
M  V30 5422 C 515.825 -1.41293 5.12064 0
M  V30 5423 C 514.864 -0.667261 6.08452 0
M  V30 5424 N 514.001 -1.60903 6.83414 0
M  V30 5425 H 518.841 0.576755 2.92365 0
M  V30 5426 H 516.378 0.296237 1.44086 0
M  V30 5427 H 518.336 -1.74763 3.78832 0
M  V30 5428 H 516.966 -1.84188 2.65094 0
M  V30 5429 H 516.018 0.291751 3.7928 0
M  V30 5430 H 517.33 0.163433 4.98532 0
M  V30 5431 H 516.484 -2.08167 5.6987 0
M  V30 5432 H 515.223 -2.02966 4.43459 0
M  V30 5433 H 514.228 0.0152356 5.49798 0
M  V30 5434 H 515.453 -0.0558817 6.79077 0
M  V30 5435 H 513.399 -2.21381 6.17516 0
M  V30 5436 H 513.316 -1.07911 7.48259 0
M  V30 5437 H 514.584 -2.26802 7.45775 0
M  V30 5438 N 518.813 -1.54241 0.323641 0
M  V30 5439 C 520.059 -2.00867 -0.279323 0
M  V30 5440 C 520.392 -1.21146 -1.5178 0
M  V30 5441 O 519.667 -0.29378 -1.92269 0
M  V30 5442 C 519.95 -3.54837 -0.613387 0
M  V30 5443 C 519.803 -4.45284 0.635803 0
M  V30 5444 C 521.122 -4.16186 -1.43099 0
M  V30 5445 H 518.241 -0.730177 -0.100049 0
M  V30 5446 H 520.883 -1.84829 0.440235 0
M  V30 5447 H 519.033 -3.68634 -1.22641 0
M  V30 5448 H 520.705 -4.43357 1.27406 0
M  V30 5449 H 518.948 -4.14956 1.26466 0
M  V30 5450 H 519.619 -5.5084 0.357597 0
M  V30 5451 H 522.095 -4.05964 -0.912814 0
M  V30 5452 H 520.971 -5.24031 -1.6335 0
M  V30 5453 H 521.232 -3.69516 -2.42715 0
M  V30 5454 N 520.291 -0.0518155 -1.57515 0
M  V30 5455 C 521.254 0.907547 -2.10467 0
M  V30 5456 C 522.254 1.23947 -1.02439 0
M  V30 5457 O 523.444 1.17604 -1.2851 0
M  V30 5458 C 520.576 2.21723 -2.58944 0
M  V30 5459 H 521.769 0.44851 -2.96527 0
M  V30 5460 H 519.322 0.196598 -1.55059 0
M  V30 5461 H 520.057 2.72206 -1.76279 0
M  V30 5462 H 519.842 1.98935 -3.37886 0
M  V30 5463 H 521.332 2.90441 -3.00056 0
M  V30 5464 N 521.769 1.56035 0.221574 0
M  V30 5465 C 522.679 1.95581 1.29558 0
M  V30 5466 C 523.695 0.859639 1.51282 0
M  V30 5467 O 524.871 1.16321 1.64413 0
M  V30 5468 C 521.936 2.26447 2.62531 0
M  V30 5469 C 520.997 3.49632 2.4911 0
M  V30 5470 C 520.23 3.79017 3.75742 0
M  V30 5471 O 520.453 3.10077 4.78757 0
M  V30 5472 O 519.387 4.72507 3.72855 0
M  V30 5473 H 523.213 2.8711 0.990035 0
M  V30 5474 H 520.798 1.43244 0.424434 0
M  V30 5475 H 522.68 2.47494 3.41064 0
M  V30 5476 H 521.355 1.38092 2.92766 0
M  V30 5477 H 520.262 3.33864 1.68777 0
M  V30 5478 H 521.595 4.3837 2.23814 0
M  V30 5479 N 523.247 -0.488276 1.49845 0
M  V30 5480 C 524.177 -1.59675 1.70371 0
M  V30 5481 C 525.158 -1.60878 0.552473 0
M  V30 5482 O 526.343 -1.77417 0.78973 0
M  V30 5483 C 523.473 -2.98098 1.782 0
M  V30 5484 C 522.427 -3.11761 2.93239 0
M  V30 5485 C 521.753 -4.51661 2.86193 0
M  V30 5486 C 523.053 -2.90589 4.33999 0
M  V30 5487 H 524.747 -1.42752 2.63177 0
M  V30 5488 H 522.293 -0.685317 1.26647 0
M  V30 5489 H 524.246 -3.75555 1.91144 0
M  V30 5490 H 522.97 -3.16138 0.820018 0
M  V30 5491 H 521.629 -2.36732 2.79917 0
M  V30 5492 H 521.277 -4.66595 1.87877 0
M  V30 5493 H 520.977 -4.61742 3.63412 0
M  V30 5494 H 522.501 -5.31162 3.01163 0
M  V30 5495 H 523.915 -3.57807 4.47936 0
M  V30 5496 H 522.312 -3.1213 5.12538 0
M  V30 5497 H 523.382 -1.86595 4.4756 0
M  V30 5498 N 524.725 -1.39134 -0.740242 0
M  V30 5499 C 525.672 -1.37434 -1.8542 0
M  V30 5500 C 526.642 -0.234822 -1.64432 0
M  V30 5501 O 527.827 -0.429125 -1.85912 0
M  V30 5502 C 524.967 -1.21844 -3.22875 0
M  V30 5503 C 524.08 -2.45296 -3.55603 0
M  V30 5504 C 523.215 -2.22334 -4.82432 0
M  V30 5505 C 522.254 -3.41488 -5.07988 0
M  V30 5506 N 521.391 -3.17877 -6.26018 0
M  V30 5507 H 526.231 -2.3266 -1.86207 0
M  V30 5508 H 523.768 -1.15578 -0.909946 0
M  V30 5509 H 525.726 -1.10818 -4.02213 0
M  V30 5510 H 524.356 -0.3025 -3.21379 0
M  V30 5511 H 523.408 -2.66945 -2.71006 0
M  V30 5512 H 524.72 -3.34063 -3.7041 0
M  V30 5513 H 523.874 -2.0852 -5.69741 0
M  V30 5514 H 522.613 -1.30954 -4.6979 0
M  V30 5515 H 521.618 -3.55807 -4.19144 0
M  V30 5516 H 522.843 -4.33763 -5.22519 0
M  V30 5517 H 520.789 -2.29156 -6.14673 0
M  V30 5518 H 520.706 -4.00198 -6.41387 0
M  V30 5519 H 521.974 -3.07746 -7.16179 0
M  V30 5520 N 526.204 0.969867 -1.24223 0
M  V30 5521 C 527.136 2.0669 -0.99055 0
M  V30 5522 C 528.149 1.62753 0.0392222 0
M  V30 5523 O 529.338 1.77403 -0.197561 0
M  V30 5524 C 526.438 3.35589 -0.472594 0
M  V30 5525 C 525.611 4.08444 -1.56499 0
M  V30 5526 C 524.67 5.15616 -1.05007 0
M  V30 5527 O 523.696 5.41911 -1.7413 0
M  V30 5528 N 524.898 5.80383 0.116641 0
M  V30 5529 H 527.663 2.28855 -1.93508 0
M  V30 5530 H 525.224 1.13733 -1.15223 0
M  V30 5531 H 527.216 4.04542 -0.112919 0
M  V30 5532 H 525.786 3.10311 0.377617 0
M  V30 5533 H 525.006 3.33798 -2.09696 0
M  V30 5534 H 526.294 4.53882 -2.29932 0
M  V30 5535 H 525.692 5.6142 0.694589 0
M  V30 5536 H 524.249 6.50462 0.417483 0
M  V30 5537 N 527.682 1.05563 1.17022 0
M  V30 5538 C 528.592 0.670758 2.24807 0
M  V30 5539 C 529.608 -0.309865 1.71219 0
M  V30 5540 O 530.784 -0.161025 2.00755 0
M  V30 5541 C 527.849 0.055337 3.46656 0
M  V30 5542 C 526.91 1.08688 4.15314 0
M  V30 5543 C 526.143 0.500736 5.31346 0
M  V30 5544 O 526.366 -0.688718 5.66227 0
M  V30 5545 O 525.3 1.23683 5.89055 0
M  V30 5546 H 529.126 1.56914 2.60023 0
M  V30 5547 H 526.711 0.827428 1.24395 0
M  V30 5548 H 528.593 -0.286492 4.20425 0
M  V30 5549 H 527.268 -0.816638 3.13229 0
M  V30 5550 H 526.175 1.48077 3.43546 0
M  V30 5551 H 527.508 1.93014 4.52777 0
M  V30 5552 N 529.16 -1.33526 0.837174 0
M  V30 5553 C 530.09 -2.31764 0.284206 0
M  V30 5554 C 531.071 -1.58896 -0.607142 0
M  V30 5555 O 532.256 -1.86798 -0.531047 0
M  V30 5556 C 529.386 -3.43029 -0.542962 0
M  V30 5557 C 528.34 -4.27255 0.252451 0
M  V30 5558 C 527.666 -5.3012 -0.69836 0
M  V30 5559 C 528.966 -5.01229 1.46858 0
M  V30 5560 H 530.66 -2.78262 1.10502 0
M  V30 5561 H 528.206 -1.3378 0.532812 0
M  V30 5562 H 530.159 -4.1078 -0.940096 0
M  V30 5563 H 528.883 -2.95216 -1.39697 0
M  V30 5564 H 527.542 -3.61127 0.631124 0
M  V30 5565 H 527.19 -4.78564 -1.54872 0
M  V30 5566 H 526.89 -5.87353 -0.170274 0
M  V30 5567 H 528.414 -6.00737 -1.09305 0
M  V30 5568 H 529.828 -5.61756 1.14469 0
M  V30 5569 H 528.225 -5.68104 1.93333 0
M  V30 5570 H 529.295 -4.301 2.23924 0
M  V30 5571 N 530.638 -0.59345 -1.46 0
M  V30 5572 C 531.585 0.133618 -2.30413 0
M  V30 5573 C 532.555 0.873736 -1.41262 0
M  V30 5574 O 533.74 0.862279 -1.70204 0
M  V30 5575 C 530.88 1.13434 -3.25924 0
M  V30 5576 C 529.993 0.39656 -4.30176 0
M  V30 5577 C 529.128 1.38575 -5.12806 0
M  V30 5578 C 528.167 0.634984 -6.08797 0
M  V30 5579 N 527.304 1.57276 -6.84258 0
M  V30 5580 H 532.144 -0.592252 -2.92055 0
M  V30 5581 H 529.681 -0.303874 -1.43927 0
M  V30 5582 H 531.639 1.72752 -3.79753 0
M  V30 5583 H 530.269 1.82779 -2.66067 0
M  V30 5584 H 529.321 -0.311861 -3.79119 0
M  V30 5585 H 530.633 -0.189869 -4.98438 0
M  V30 5586 H 529.787 2.05141 -5.70966 0
M  V30 5587 H 528.526 2.00611 -4.44529 0
M  V30 5588 H 527.531 -0.0443925 -5.49782 0
M  V30 5589 H 528.756 0.0198678 -6.79097 0
M  V30 5590 H 526.702 2.18103 -6.18682 0
M  V30 5591 H 526.619 1.03941 -7.48821 0
M  V30 5592 H 527.887 2.22844 -7.46968 0
M  V30 5593 N 532.116 1.54067 -0.331816 0
M  V30 5594 C 533.046 2.27569 0.522932 0
M  V30 5595 C 534.027 1.28679 1.11247 0
M  V30 5596 O 535.212 1.57504 1.13605 0
M  V30 5597 C 532.342 3.0397 1.67987 0
M  V30 5598 C 531.296 4.10267 1.21924 0
M  V30 5599 C 530.622 4.74555 2.46377 0
M  V30 5600 C 531.922 5.21268 0.32815 0
M  V30 5601 H 533.616 2.99264 -0.0901977 0
M  V30 5602 H 531.162 1.4393 -0.044821 0
M  V30 5603 H 533.115 3.54123 2.28418 0
M  V30 5604 H 531.839 2.29906 2.31971 0
M  V30 5605 H 530.498 3.61009 0.637809 0
M  V30 5606 H 530.146 3.97098 3.08743 0
M  V30 5607 H 529.846 5.46363 2.16243 0
M  V30 5608 H 531.37 5.27487 3.07555 0
M  V30 5609 H 532.784 5.67128 0.838978 0
M  V30 5610 H 531.181 5.99982 0.119228 0
M  V30 5611 H 532.251 4.80673 -0.638839 0
M  V30 5612 N 533.594 0.0601682 1.57485 0
M  V30 5613 C 535.01 -0.296422 1.56823 0
M  V30 5614 C 535.21 -1.70831 1.0686 0
M  V30 5615 O 534.266 -2.4174 0.729245 0
M  V30 5616 C 535.579 -0.116681 3.00474 0
M  V30 5617 C 537.127 -0.187103 3.1244 0
M  V30 5618 C 537.602 -0.035783 4.57986 0
M  V30 5619 N 539.093 -0.0917676 4.63109 0
M  V30 5620 C 539.828 0.00107251 5.734 0
M  V30 5621 N 539.324 0.146773 6.92645 0
M  V30 5622 N 541.117 -0.0551577 5.62073 0
M  V30 5623 H 533.268 0.983055 1.88281 0
M  V30 5624 H 535.531 0.382386 0.867459 0
M  V30 5625 H 535.237 0.85712 3.41096 0
M  V30 5626 H 535.111 -0.873929 3.66936 0
M  V30 5627 H 537.498 -1.15138 2.71712 0
M  V30 5628 H 537.579 0.601052 2.48638 0
M  V30 5629 H 537.223 0.925212 4.99402 0
M  V30 5630 H 537.153 -0.843196 5.19806 0
M  V30 5631 H 539.644 -0.203261 3.77353 0
M  V30 5632 H 539.957 0.210076 7.72514 0
M  V30 5633 H 538.302 0.181979 6.94762 0
M  V30 5634 H 541.493 -0.167605 4.678 0
M  V30 5635 H 541.666 0.020652 6.47997 0
M  V30 5636 N 535.072 -1.5615 -0.213296 0
M  V30 5637 C 536.297 -1.83986 -0.957282 0
M  V30 5638 C 536.722 -0.641526 -1.76822 0
M  V30 5639 O 536.08 0.409722 -1.7661 0
M  V30 5640 C 536.128 -3.09889 -1.84393 0
M  V30 5641 O 535.232 -2.89163 -2.94038 0
M  V30 5642 H 534.573 -0.606357 -0.270605 0
M  V30 5643 H 537.103 -2.03369 -0.224111 0
M  V30 5644 H 537.113 -3.40209 -2.25215 0
M  V30 5645 H 535.788 -3.96735 -1.24795 0
M  V30 5646 H 534.365 -2.70097 -2.57103 0
M  V30 5647 N 536.55 0.480323 -1.50102 0
M  V30 5648 C 537.48 1.58769 -1.71215 0
M  V30 5649 C 538.461 1.60583 -0.560997 0
M  V30 5650 O 539.646 1.76996 -0.799127 0
M  V30 5651 C 536.776 2.97148 -1.79778 0
M  V30 5652 C 535.73 3.10201 -2.94888 0
M  V30 5653 C 535.056 4.50137 -2.88584 0
M  V30 5654 C 536.356 2.88283 -4.35534 0
M  V30 5655 H 538.05 1.41354 -2.6393 0
M  V30 5656 H 535.596 0.678591 -1.27008 0
M  V30 5657 H 537.549 3.74536 -1.93133 0
M  V30 5658 H 536.273 3.15699 -0.836772 0
M  V30 5659 H 534.932 2.35244 -2.81169 0
M  V30 5660 H 534.58 4.65593 -1.90349 0
M  V30 5661 H 534.28 4.59808 -3.65856 0
M  V30 5662 H 535.804 5.29558 -3.03976 0
M  V30 5663 H 537.218 3.55427 -4.49827 0
M  V30 5664 H 535.615 3.09408 -5.14186 0
M  V30 5665 H 536.685 1.84219 -4.48544 0
M  V30 5666 N 538.028 1.39524 0.732853 0
M  V30 5667 C 539.439 1.32905 1.31122 0
M  V30 5668 C 539.79 -0.00558708 1.96199 0
M  V30 5669 O 538.915 -0.907706 1.96443 0
M  V30 5670 C 539.51 2.40704 2.38426 0
M  V30 5671 C 538.069 2.37599 2.91931 0
M  V30 5672 C 537.216 2.2248 1.65523 0
M  V30 5673 H 540.167 1.49581 0.530207 0
M  V30 5674 H 540.188 2.07616 3.18867 0
M  V30 5675 H 539.7 3.37829 1.91033 0
M  V30 5676 H 537.801 1.44119 3.43599 0
M  V30 5677 H 537.914 3.32538 3.44899 0
M  V30 5678 H 536.278 1.69691 1.8994 0
M  V30 5679 H 537.061 3.21577 1.20178 0
M  V30 5680 N 539.506 -0.963266 1.24736 0
M  V30 5681 C 540.752 -1.70933 1.09131 0
M  V30 5682 C 541.085 -1.90676 -0.368273 0
M  V30 5683 O 540.36 -1.47147 -1.27193 0
M  V30 5684 C 540.643 -3.09744 1.83658 0
M  V30 5685 C 540.496 -2.97465 3.37394 0
M  V30 5686 C 541.815 -4.09483 1.61282 0
M  V30 5687 H 538.934 -0.620398 0.397838 0
M  V30 5688 H 541.576 -1.12028 1.53459 0
M  V30 5689 H 539.726 -3.60031 1.4598 0
M  V30 5690 H 541.398 -2.54571 3.84696 0
M  V30 5691 H 539.641 -2.33576 3.65547 0
M  V30 5692 H 540.312 -3.95822 3.84745 0
M  V30 5693 H 542.788 -3.68073 1.94066 0
M  V30 5694 H 541.664 -5.04666 2.15878 0
M  V30 5695 H 541.925 -4.38639 0.552102 0
M  V30 5696 N 540.985 -1.06182 -1.16461 0
M  V30 5697 C 542.21 -0.798599 -1.91408 0
M  V30 5698 C 542.635 0.640987 -1.76842 0
M  V30 5699 O 541.993 1.44652 -1.09296 0
M  V30 5700 C 542.041 -1.19665 -3.40165 0
M  V30 5701 O 541.145 -0.334768 -4.11039 0
M  V30 5702 H 540.486 -0.291961 -0.596368 0
M  V30 5703 H 543.016 -1.41732 -1.47557 0
M  V30 5704 H 543.026 -1.16772 -3.90933 0
M  V30 5705 H 541.701 -2.24526 -3.50087 0
M  V30 5706 H 540.278 -0.425168 -3.70468 0
M  V30 5707 N 542.463 1.3308 -0.844243 0
M  V30 5708 C 543.711 1.97215 -0.441676 0
M  V30 5709 C 544.032 1.67185 1.0037 0
M  V30 5710 O 543.302 0.973588 1.69994 0
M  V30 5711 H 541.882 0.72959 -0.160335 0
M  V30 5712 H 544.544 1.62348 -1.07838 0
M  V30 5713 H 543.64 3.06698 -0.57815 0
M  V30 5714 N 543.941 0.601185 1.45683 0
M  V30 5715 C 545.169 0.100054 2.06658 0
M  V30 5716 C 545.584 -1.21285 1.44691 0
M  V30 5717 O 544.941 -1.73735 0.558772 0
M  V30 5718 C 544.992 -0.0528579 3.61461 0
M  V30 5719 O 544.713 1.20809 4.21114 0
M  V30 5720 C 546.214 -0.586193 4.39407 0
M  V30 5721 H 543.434 0.065905 0.667756 0
M  V30 5722 H 545.978 0.827101 1.87028 0
M  V30 5723 H 544.133 -0.730203 3.80456 0
M  V30 5724 H 544.547 1.03368 5.14213 0
M  V30 5725 H 546.021 -0.642297 5.4825 0
M  V30 5726 H 546.498 -1.60713 4.0874 0
M  V30 5727 H 547.104 0.0568935 4.25262 0
M  V30 5728 N 545.419 -1.53889 0.339982 0
M  V30 5729 C 546.366 -2.24902 -0.518452 0
M  V30 5730 C 547.336 -1.24593 -1.09844 0
M  V30 5731 O 548.521 -1.53317 -1.13572 0
M  V30 5732 C 545.661 -3.02262 -1.66529 0
M  V30 5733 C 544.774 -4.17418 -1.11295 0
M  V30 5734 C 543.909 -4.82273 -2.2268 0
M  V30 5735 C 542.948 -5.89503 -1.6478 0
M  V30 5736 N 542.085 -6.48153 -2.69893 0
M  V30 5737 H 546.925 -2.97853 0.0936579 0
M  V30 5738 H 544.462 -1.46986 0.0579924 0
M  V30 5739 H 546.42 -3.45371 -2.3404 0
M  V30 5740 H 545.05 -2.31614 -2.24844 0
M  V30 5741 H 544.102 -3.78976 -0.328886 0
M  V30 5742 H 545.414 -4.94554 -0.649414 0
M  V30 5743 H 544.568 -5.28435 -2.98063 0
M  V30 5744 H 543.307 -4.04552 -2.72376 0
M  V30 5745 H 542.312 -5.42728 -0.879004 0
M  V30 5746 H 543.537 -6.6913 -1.1594 0
M  V30 5747 H 541.483 -5.73298 -3.1885 0
M  V30 5748 H 541.4 -7.20752 -2.28151 0
M  V30 5749 H 542.668 -6.98968 -3.45056 0
M  V30 5750 N 546.897 -0.0685191 -1.57451 0
M  V30 5751 C 548.125 0.610462 -1.97689 0
M  V30 5752 C 548.54 1.63346 -0.946758 0
M  V30 5753 O 547.897 1.82377 0.0669868 0
M  V30 5754 C 547.948 1.28196 -3.38006 0
M  V30 5755 O 547.669 0.299906 -4.37072 0
M  V30 5756 C 549.17 2.04907 -3.931 0
M  V30 5757 H 546.39 0.165689 -0.650222 0
M  V30 5758 H 548.934 -0.139953 -2.04021 0
M  V30 5759 H 547.089 1.98348 -3.32771 0
M  V30 5760 H 547.503 0.78126 -5.18649 0
M  V30 5761 H 548.977 2.47287 -4.93511 0
M  V30 5762 H 549.454 2.9043 -3.29465 0
M  V30 5763 H 550.06 1.39629 -4.01726 0
M  V30 5764 N 548.375 1.56261 0.205012 0
M  V30 5765 C 549.285 1.96944 1.27476 0
M  V30 5766 C 550.301 0.875636 1.50362 0
M  V30 5767 O 551.477 1.18058 1.6317 0
M  V30 5768 C 548.542 2.29219 2.60115 0
M  V30 5769 C 547.603 3.52255 2.45387 0
M  V30 5770 C 546.836 3.8298 3.71701 0
M  V30 5771 O 547.059 3.15138 4.75441 0
M  V30 5772 O 545.993 4.76435 3.67823 0
M  V30 5773 H 549.819 2.88144 0.959527 0
M  V30 5774 H 547.404 1.43686 0.409217 0
M  V30 5775 H 549.286 2.51098 3.3842 0
M  V30 5776 H 547.961 1.4119 2.91285 0
M  V30 5777 H 546.868 3.35635 1.65227 0
M  V30 5778 H 548.201 4.40719 2.19152 0
M  V30 5779 N 549.853 -0.472356 1.50355 0
M  V30 5780 C 550.783 -1.57859 1.72055 0
M  V30 5781 C 551.764 -1.60283 0.569505 0
M  V30 5782 O 552.949 -1.7657 0.808503 0
M  V30 5783 C 550.079 -2.96191 1.81351 0
M  V30 5784 C 549.033 -3.08633 2.96529 0
M  V30 5785 C 548.359 -4.486 2.90968 0
M  V30 5786 C 549.659 -2.85969 4.37057 0
M  V30 5787 H 551.353 -1.39953 2.64676 0
M  V30 5788 H 548.899 -0.671846 1.27367 0
M  V30 5789 H 550.852 -3.73507 1.95117 0
M  V30 5790 H 549.576 -3.15251 0.853502 0
M  V30 5791 H 548.235 -2.33749 2.82413 0
M  V30 5792 H 547.883 -4.64577 1.92815 0
M  V30 5793 H 547.583 -4.57861 3.68289 0
M  V30 5794 H 549.107 -5.27938 3.0678 0
M  V30 5795 H 550.521 -3.53036 4.51706 0
M  V30 5796 H 548.918 -3.06677 5.15819 0
M  V30 5797 H 549.988 -1.81838 4.49514 0
M  V30 5798 N 551.331 -1.39911 -0.725443 0
M  V30 5799 C 552.58 -1.36963 -1.48068 0
M  V30 5800 C 552.893 0.0284478 -1.95579 0
M  V30 5801 O 554.099 0.180535 -2.70899 0
M  V30 5802 C 552.555 -2.40664 -2.67598 0
M  V30 5803 C 552.163 -3.86234 -2.26997 0
M  V30 5804 C 553.907 -2.46807 -3.45379 0
M  V30 5805 C 551.814 -4.81554 -3.43307 0
M  V30 5806 H 550.744 -0.509223 -0.556065 0
M  V30 5807 H 553.395 -1.65602 -0.790454 0
M  V30 5808 H 551.777 -2.05109 -3.38742 0
M  V30 5809 H 552.951 -4.3088 -1.63337 0
M  V30 5810 H 551.266 -3.83475 -1.62284 0
M  V30 5811 H 553.863 -3.15213 -4.31909 0
M  V30 5812 H 554.206 -1.49552 -3.8851 0
M  V30 5813 H 554.739 -2.81303 -2.81271 0
M  V30 5814 H 551.478 -5.80106 -3.05217 0
M  V30 5815 H 550.998 -4.4158 -4.05915 0
M  V30 5816 H 552.677 -5.0091 -4.0951 0
M  V30 5817 N 552.809 0.956637 -1.25245 0
M  V30 5818 C 553.719 2.0868 -1.0719 0
M  V30 5819 C 554.735 1.73997 -0.00959074 0
M  V30 5820 O 555.911 2.00301 -0.210104 0
M  V30 5821 C 552.976 3.39754 -0.690526 0
M  V30 5822 C 552.037 3.88316 -1.83055 0
M  V30 5823 C 551.27 5.13134 -1.46728 0
M  V30 5824 O 551.493 5.6925 -0.362029 0
M  V30 5825 O 550.427 5.56356 -2.29677 0
M  V30 5826 H 554.253 2.26813 -2.01965 0
M  V30 5827 H 551.838 1.07098 -1.04165 0
M  V30 5828 H 553.72 4.18543 -0.489871 0
M  V30 5829 H 552.395 3.22896 0.227981 0
M  V30 5830 H 551.302 3.1054 -2.08604 0
M  V30 5831 H 552.635 4.09669 -2.72822 0
M  V30 5832 N 554.287 1.06798 1.15896 0
M  V30 5833 C 555.703 0.792423 1.38538 0
M  V30 5834 C 555.903 -0.60592 1.92174 0
M  V30 5835 O 554.959 -1.36561 2.12385 0
M  V30 5836 C 556.272 1.86157 2.36149 0
M  V30 5837 C 557.82 1.88567 2.49823 0
M  V30 5838 C 558.295 2.9455 3.5072 0
M  V30 5839 N 559.786 2.93616 3.58251 0
M  V30 5840 C 560.521 3.72267 4.36125 0
M  V30 5841 N 560.017 4.60751 5.17379 0
M  V30 5842 N 561.81 3.60637 4.31158 0
M  V30 5843 H 553.961 1.96993 0.794198 0
M  V30 5844 H 556.224 0.853942 0.411688 0
M  V30 5845 H 555.93 2.86603 2.03843 0
M  V30 5846 H 555.804 1.71692 3.3586 0
M  V30 5847 H 558.191 0.887765 2.8143 0
M  V30 5848 H 558.272 2.0711 1.5013 0
M  V30 5849 H 557.916 3.94537 3.19849 0
M  V30 5850 H 557.846 2.73255 4.50155 0
M  V30 5851 H 560.337 2.29472 3.00252 0
M  V30 5852 H 560.65 5.17408 5.74028 0
M  V30 5853 H 558.995 4.64803 5.16704 0
M  V30 5854 H 562.186 2.90892 3.66742 0
M  V30 5855 H 562.359 4.22176 4.91601 0
M  V30 5856 N 555.766 -1.3263 0.851289 0
M  V30 5857 C 556.696 -2.31449 0.308771 0
M  V30 5858 C 557.677 -1.59531 -0.590255 0
M  V30 5859 O 558.862 -1.87351 -0.511205 0
M  V30 5860 C 555.992 -3.43586 -0.506548 0
M  V30 5861 C 554.946 -4.26963 0.297753 0
M  V30 5862 C 554.272 -5.30831 -0.642094 0
M  V30 5863 C 555.572 -4.99643 1.52166 0
M  V30 5864 H 557.266 -2.77074 1.13447 0
M  V30 5865 H 554.812 -1.33207 0.546971 0
M  V30 5866 H 556.765 -4.11754 -0.896474 0
M  V30 5867 H 555.489 -2.96681 -1.36558 0
M  V30 5868 H 554.148 -3.60437 0.669391 0
M  V30 5869 H 553.796 -4.8018 -1.49788 0
M  V30 5870 H 553.496 -5.87501 -0.107968 0
M  V30 5871 H 555.02 -6.01862 -1.02927 0
M  V30 5872 H 556.434 -5.6051 1.20421 0
M  V30 5873 H 554.831 -5.66022 1.99347 0
M  V30 5874 H 555.901 -4.27701 2.28474 0
M  V30 5875 N 557.244 -0.608902 -1.45362 0
M  V30 5876 C 558.66 -0.272659 -1.57254 0
M  V30 5877 C 558.86 1.22477 -1.60005 0
M  V30 5878 O 557.916 2.00785 -1.53106 0
M  V30 5879 C 559.229 -0.944991 -2.85465 0
M  V30 5880 C 560.777 -0.921033 -2.99142 0
M  V30 5881 C 561.252 -1.5734 -4.30126 0
M  V30 5882 N 562.743 -1.53895 -4.36887 0
M  V30 5883 C 563.478 -2.01286 -5.36909 0
M  V30 5884 N 562.974 -2.56768 -6.43461 0
M  V30 5885 N 564.767 -1.92046 -5.28275 0
M  V30 5886 H 556.918 -1.58117 -1.4182 0
M  V30 5887 H 559.181 -0.662437 -0.678146 0
M  V30 5888 H 558.887 -1.99941 -2.89338 0
M  V30 5889 H 558.761 -0.469079 -3.74272 0
M  V30 5890 H 561.148 0.124846 -2.94836 0
M  V30 5891 H 561.229 -1.43522 -2.11743 0
M  V30 5892 H 560.873 -2.61862 -4.35191 0
M  V30 5893 H 560.803 -1.03422 -5.16344 0
M  V30 5894 H 563.294 -1.13366 -3.60495 0
M  V30 5895 H 563.607 -2.9072 -7.16032 0
M  V30 5896 H 561.952 -2.60808 -6.44208 0
M  V30 5897 H 565.143 -1.48439 -4.43941 0
M  V30 5898 H 565.316 -2.29293 -6.06077 0
M  V30 5899 N 558.722 1.53707 -0.348139 0
M  V30 5900 C 559.685 2.23812 0.494058 0
M  V30 5901 C 560.685 1.23989 1.02388 0
M  V30 5902 O 561.875 1.48395 0.912396 0
M  V30 5903 C 559.007 2.96133 1.68872 0
M  V30 5904 H 560.2 2.99663 -0.119141 0
M  V30 5905 H 557.753 1.55983 -0.0995539 0
M  V30 5906 H 558.488 2.24481 2.34049 0
M  V30 5907 H 558.273 3.69357 1.31596 0
M  V30 5908 H 559.763 3.49475 2.28597 0
M  V30 5909 N 560.2 0.0768682 1.57412 0
M  V30 5910 C 561.43 -0.5991 1.97723 0
M  V30 5911 C 561.838 -1.63378 0.954166 0
M  V30 5912 O 561.181 -1.83578 -0.0668706 0
M  V30 5913 C 561.243 -1.32078 3.34358 0
M  V30 5914 C 560.907 -0.438985 4.54887 0
M  V30 5915 C 561.904 0.305492 5.19002 0
M  V30 5916 C 559.589 -0.362378 5.00991 0
M  V30 5917 C 561.583 1.11475 6.27576 0
M  V30 5918 C 559.27 0.450543 6.09437 0
M  V30 5919 C 560.268 1.18777 6.72593 0
M  V30 5920 O 559.956 1.98727 7.7895 0
M  V30 5921 H 559.688 -0.166725 0.655117 0
M  V30 5922 H 562.242 0.147337 2.04871 0
M  V30 5923 H 560.472 -2.1134 3.2384 0
M  V30 5924 H 562.161 -1.88949 3.5924 0
M  V30 5925 H 562.927 0.25593 4.84324 0
M  V30 5926 H 558.806 -0.925832 4.51608 0
M  V30 5927 H 562.35 1.69068 6.76803 0
M  V30 5928 H 558.247 0.501651 6.43548 0
M  V30 5929 H 559.015 1.91214 7.95851 0
M  V30 5930 N 561.678 -1.56367 -0.196722 0
M  V30 5931 C 562.61 -1.90941 -1.26784 0
M  V30 5932 C 563.623 -0.799928 -1.41792 0
M  V30 5933 O 564.812 -1.07833 -1.42247 0
M  V30 5934 C 561.912 -2.12477 -2.6402 0
M  V30 5935 C 561.085 -3.43616 -2.70641 0
M  V30 5936 C 560.144 -3.54284 -3.89062 0
M  V30 5937 O 559.17 -4.2712 -3.76241 0
M  V30 5938 N 560.372 -2.87252 -5.04447 0
M  V30 5939 H 563.137 -2.83417 -0.974417 0
M  V30 5940 H 560.698 -1.57215 -0.386649 0
M  V30 5941 H 562.69 -2.16904 -3.41665 0
M  V30 5942 H 561.26 -1.26508 -2.85857 0
M  V30 5943 H 560.48 -3.51072 -1.79283 0
M  V30 5944 H 561.768 -4.29958 -2.72054 0
M  V30 5945 H 561.166 -2.27901 -5.17762 0
M  V30 5946 H 559.723 -2.97308 -5.80044 0
M  V30 5947 N 563.156 0.464375 -1.50603 0
M  V30 5948 C 564.433 1.22549 -1.5245 0
M  V30 5949 C 564.813 2.09327 -0.273035 0
M  V30 5950 O 564.161 2.16074 0.743242 0
M  V30 5951 C 564.371 2.05074 -2.82393 0
M  V30 5952 C 565.719 2.63036 -3.33313 0
M  V30 5953 O 566.743 2.1531 -2.8376 0
M  V30 5954 O 565.602 3.5001 -4.19709 0
M  V30 5955 H 562.696 0.556471 -0.611775 0
M  V30 5956 H 565.242 0.475648 -1.62898 0
M  V30 5957 H 564.014 1.41169 -3.64948 0
M  V30 5958 H 563.637 2.87179 -2.7498 0
M  V30 5959 N 564.634 1.40294 0.718013 0
M  V30 5960 C 565.566 1.36281 1.84283 0
M  V30 5961 C 566.579 0.268621 1.60569 0
M  V30 5962 O 567.768 0.528798 1.70487 0
M  V30 5963 C 564.868 1.09741 3.2064 0
M  V30 5964 C 564.041 2.30767 3.71571 0
M  V30 5965 C 563.1 2.00424 4.86535 0
M  V30 5966 O 562.126 2.73268 4.99313 0
M  V30 5967 N 563.328 0.980724 5.72156 0
M  V30 5968 H 566.093 2.3322 1.88225 0
M  V30 5969 H 563.654 1.34616 0.899453 0
M  V30 5970 H 565.646 0.874322 3.95143 0
M  V30 5971 H 564.216 0.214771 3.11861 0
M  V30 5972 H 563.436 2.68921 2.88228 0
M  V30 5973 H 564.724 3.11455 4.02335 0
M  V30 5974 H 564.122 0.377375 5.6444 0
M  V30 5975 H 562.679 0.817538 6.46653 0
M  V30 5976 N 566.112 -0.949982 1.2575 0
M  V30 5977 C 567.361 -1.68956 1.10168 0
M  V30 5978 C 567.674 -1.92327 -0.356309 0
M  V30 5979 O 568.88 -2.64026 -0.632657 0
M  V30 5980 C 567.336 -3.04196 1.92336 0
M  V30 5981 C 566.944 -2.88603 3.42655 0
M  V30 5982 C 568.688 -3.81904 1.85336 0
M  V30 5983 C 566.595 -4.19262 4.17101 0
M  V30 5984 H 565.525 -0.633645 0.408668 0
M  V30 5985 H 568.176 -1.05719 1.49986 0
M  V30 5986 H 566.558 -3.68363 1.45344 0
M  V30 5987 H 567.732 -2.3334 3.97353 0
M  V30 5988 H 566.047 -2.24345 3.50796 0
M  V30 5989 H 568.644 -4.78688 2.38248 0
M  V30 5990 H 568.987 -4.08099 0.822226 0
M  V30 5991 H 569.52 -3.24495 2.30104 0
M  V30 5992 H 566.259 -3.98254 5.20648 0
M  V30 5993 H 565.779 -4.74273 3.67186 0
M  V30 5994 H 567.458 -4.87775 4.25071 0
M  V30 5995 N 567.59 -1.07411 -1.15328 0
M  V30 5996 C 568.815 -0.818856 -1.90551 0
M  V30 5997 C 569.24 0.622194 -1.77512 0
M  V30 5998 O 568.598 1.43484 -1.10824 0
M  V30 5999 C 568.646 -1.23267 -3.38877 0
M  V30 6000 O 567.75 -0.378345 -4.10661 0
M  V30 6001 H 567.091 -0.29827 -0.593238 0
M  V30 6002 H 569.621 -1.43289 -1.46046 0
M  V30 6003 H 569.631 -1.20912 -3.89672 0
M  V30 6004 H 568.306 -2.28226 -3.47686 0
M  V30 6005 H 566.883 -0.464437 -3.69996 0
M  V30 6006 N 569.068 1.32177 -0.85831 0
M  V30 6007 C 570.479 1.79381 -0.517621 0
M  V30 6008 C 570.83 1.70841 0.964769 0
M  V30 6009 O 569.955 1.26917 1.75274 0
M  V30 6010 C 570.55 3.25706 -0.932801 0
M  V30 6011 C 569.109 3.70851 -0.643953 0
M  V30 6012 C 568.256 2.53208 -1.13054 0
M  V30 6013 H 571.207 1.19424 -1.04516 0
M  V30 6014 H 571.228 3.79673 -0.250674 0
M  V30 6015 H 570.74 3.31889 -2.01174 0
M  V30 6016 H 568.841 3.70178 0.424112 0
M  V30 6017 H 568.954 4.63495 -1.21281 0
M  V30 6018 H 567.318 2.48676 -0.550679 0
M  V30 6019 H 568.101 2.62143 -2.21666 0
M  V30 6020 N 570.547 0.616602 1.45037 0
M  V30 6021 C 571.793 0.115501 2.02471 0
M  V30 6022 C 572.126 -1.25406 1.4828 0
M  V30 6023 O 571.401 -1.82922 0.661051 0
M  V30 6024 C 571.684 0.0863588 3.59996 0
M  V30 6025 C 571.537 1.48723 4.24501 0
M  V30 6026 C 572.856 -0.596762 4.36035 0
M  V30 6027 H 569.975 0.0434461 0.735718 0
M  V30 6028 H 572.617 0.7903 1.72784 0
M  V30 6029 H 570.767 -0.488277 3.85419 0
M  V30 6030 H 572.439 2.10964 4.10234 0
M  V30 6031 H 570.682 2.04534 3.82555 0
M  V30 6032 H 571.353 1.419 5.3345 0
M  V30 6033 H 573.829 -0.10824 4.15959 0
M  V30 6034 H 572.705 -0.586289 5.4576 0
M  V30 6035 H 572.966 -1.66451 4.09569 0
M  V30 6036 N 572.025 -1.5352 0.356285 0
M  V30 6037 C 573.436 -1.86282 -0.12492 0
M  V30 6038 C 573.787 -1.27717 -1.48939 0
M  V30 6039 O 572.912 -0.595614 -2.08042 0
M  V30 6040 C 573.507 -3.37995 -0.23345 0
M  V30 6041 C 572.066 -3.70588 -0.658899 0
M  V30 6042 C 571.213 -2.76581 0.199596 0
M  V30 6043 H 574.164 -1.47901 0.575423 0
M  V30 6044 H 574.185 -3.65475 -1.0587 0
M  V30 6045 H 573.697 -3.8059 0.759776 0
M  V30 6046 H 571.798 -3.33544 -1.66069 0
M  V30 6047 H 571.911 -4.77076 -0.439957 0
M  V30 6048 H 570.275 -2.52552 -0.330076 0
M  V30 6049 H 571.058 -3.22008 1.19019 0
M  V30 6050 N 573.503 -0.0852151 -1.57369 0
M  V30 6051 C 574.751 0.579658 -1.93609 0
M  V30 6052 C 575.072 1.69332 -0.967043 0
M  V30 6053 O 574.342 1.95892 -0.0174215 0
M  V30 6054 H 572.922 0.217113 -0.714752 0
M  V30 6055 H 575.584 -0.146226 -1.94351 0
M  V30 6056 H 574.68 0.996276 -2.95771 0
M  V30 6057 N 574.981 1.5647 0.188427 0
M  V30 6058 C 575.944 1.9421 1.21718 0
M  V30 6059 C 576.944 0.823901 1.38089 0
M  V30 6060 O 578.134 1.09122 1.35787 0
M  V30 6061 C 575.266 2.22197 2.58537 0
M  V30 6062 H 576.459 2.86252 0.894418 0
M  V30 6063 H 574.012 1.50263 0.430211 0
M  V30 6064 H 574.747 1.32814 2.95856 0
M  V30 6065 H 574.532 3.03688 2.48025 0
M  V30 6066 H 576.022 2.52376 3.3271 0
M  V30 6067 N 576.459 -0.456382 1.50847 0
M  V30 6068 C 577.87 -1.03685 1.55262 0
M  V30 6069 C 578.221 -1.92779 0.364771 0
M  V30 6070 O 577.346 -2.10043 -0.52068 0
M  V30 6071 C 577.941 -1.88718 2.81374 0
M  V30 6072 C 576.5 -2.41847 2.88422 0
M  V30 6073 C 575.647 -1.20564 2.49719 0
M  V30 6074 H 578.598 -0.238399 1.56899 0
M  V30 6075 H 578.619 -2.73957 2.6406 0
M  V30 6076 H 578.131 -1.23847 3.67809 0
M  V30 6077 H 576.232 -3.10228 2.06372 0
M  V30 6078 H 576.345 -2.75947 3.9165 0
M  V30 6079 H 574.709 -1.54504 2.02486 0
M  V30 6080 H 575.492 -0.573326 3.38479 0
M  V30 6081 N 577.937 -1.40673 -0.710563 0
M  V30 6082 C 578.884 -1.41336 -1.82463 0
M  V30 6083 C 579.854 -0.269648 -1.63897 0
M  V30 6084 O 581.039 -0.468463 -1.8496 0
M  V30 6085 C 578.179 -1.28665 -3.20218 0
M  V30 6086 C 577.292 -2.52784 -3.5032 0
M  V30 6087 C 576.427 -2.32517 -4.77608 0
M  V30 6088 C 575.466 -3.52187 -5.0063 0
M  V30 6089 N 574.603 -3.31084 -6.19135 0
M  V30 6090 H 579.443 -2.36558 -1.8123 0
M  V30 6091 H 576.98 -1.17483 -0.885226 0
M  V30 6092 H 578.938 -1.19324 -3.99772 0
M  V30 6093 H 577.568 -0.370602 -3.20666 0
M  V30 6094 H 576.62 -2.72634 -2.65283 0
M  V30 6095 H 577.932 -3.41845 -3.63241 0
M  V30 6096 H 577.086 -2.20558 -5.65189 0
M  V30 6097 H 575.825 -1.40889 -4.66906 0
M  V30 6098 H 574.83 -3.64617 -4.11502 0
M  V30 6099 H 576.055 -4.44749 -5.13201 0
M  V30 6100 H 574.001 -2.42143 -6.09674 0
M  V30 6101 H 573.918 -4.13713 -6.32754 0
M  V30 6102 H 575.186 -3.22868 -7.0949 0
M  V30 6103 N 579.415 0.9433 -1.26252 0
M  V30 6104 C 580.378 2.02326 -1.07689 0
M  V30 6105 C 581.378 1.60779 -0.0259174 0
M  V30 6106 O 582.568 1.72108 -0.269134 0
M  V30 6107 C 579.7 3.34886 -0.63752 0
M  V30 6108 H 580.893 2.20225 -2.0357 0
M  V30 6109 H 578.446 1.12197 -1.08819 0
M  V30 6110 H 579.181 3.22684 0.323377 0
M  V30 6111 H 578.966 3.66393 -1.39637 0
M  V30 6112 H 580.456 4.14231 -0.529418 0
M  V30 6113 N 580.893 1.08022 1.14757 0
M  V30 6114 C 582.304 0.829144 1.67279 0
M  V30 6115 C 582.655 -0.644721 1.85305 0
M  V30 6116 O 581.78 -1.49838 1.56133 0
M  V30 6117 C 582.375 1.49855 3.03857 0
M  V30 6118 C 580.934 1.29482 3.53428 0
M  V30 6119 C 580.081 1.56386 2.28995 0
M  V30 6120 H 583.032 1.24134 0.988762 0
M  V30 6121 H 583.053 0.923572 3.69121 0
M  V30 6122 H 582.565 2.57123 2.90705 0
M  V30 6123 H 580.666 0.242669 3.71809 0
M  V30 6124 H 580.779 2.01974 4.34446 0
M  V30 6125 H 579.143 0.985217 2.34874 0
M  V30 6126 H 579.926 2.64851 2.18423 0
M  V30 6127 N 582.371 -1.3172 0.865308 0
M  V30 6128 C 583.334 -2.26918 0.322627 0
M  V30 6129 C 584.334 -1.52031 -0.523751 0
M  V30 6130 O 585.524 -1.70973 -0.333727 0
M  V30 6131 C 582.656 -3.36558 -0.542338 0
M  V30 6132 H 583.849 -2.76432 1.16298 0
M  V30 6133 H 581.402 -1.42573 0.640512 0
M  V30 6134 H 582.137 -2.92329 -1.40407 0
M  V30 6135 H 581.922 -3.92048 0.0636395 0
M  V30 6136 H 583.412 -4.07465 -0.91446 0
M  V30 6137 N 583.85 -0.624285 -1.44708 0
M  V30 6138 C 584.812 0.0749638 -2.29077 0
M  V30 6139 C 585.812 0.778965 -1.40673 0
M  V30 6140 O 587.003 0.624591 -1.62618 0
M  V30 6141 C 584.135 1.11663 -3.22094 0
M  V30 6142 H 585.327 -0.667013 -2.92388 0
M  V30 6143 H 582.88 -0.384098 -1.51507 0
M  V30 6144 H 583.615 1.88881 -2.63618 0
M  V30 6145 H 583.401 0.61583 -3.87234 0
M  V30 6146 H 584.891 1.60585 -3.8549 0
M  V30 6147 N 585.328 1.53329 -0.364422 0
M  V30 6148 C 586.556 2.05657 0.226424 0
M  V30 6149 C 586.971 1.23801 1.42544 0
M  V30 6150 O 586.328 0.27839 1.80364 0
M  V30 6151 C 586.379 3.56125 0.621056 0
M  V30 6152 O 586.1 4.34879 -0.530304 0
M  V30 6153 C 587.601 4.24706 1.27041 0
M  V30 6154 H 584.821 0.669806 0.0400056 0
M  V30 6155 H 587.365 1.97714 -0.522456 0
M  V30 6156 H 585.52 3.64223 1.31985 0
M  V30 6157 H 585.934 5.24073 -0.211546 0
M  V30 6158 H 587.408 5.3131 1.49711 0
M  V30 6159 H 587.885 3.78354 2.23036 0
M  V30 6160 H 588.491 4.20858 0.613079 0
M  V30 6161 N 586.806 0.0935595 1.57322 0
M  V30 6162 C 588.031 -0.582324 1.99057 0
M  V30 6163 C 588.456 -1.61025 0.972242 0
M  V30 6164 O 587.814 -1.81202 -0.0594622 0
M  V30 6165 C 587.862 -1.20799 3.39765 0
M  V30 6166 O 586.966 -2.32382 3.40694 0
M  V30 6167 H 586.307 -0.147884 0.647323 0
M  V30 6168 H 588.837 0.174516 2.03854 0
M  V30 6169 H 588.847 -1.54966 3.77425 0
M  V30 6170 H 587.522 -0.454914 4.13405 0
M  V30 6171 H 586.099 -1.99845 3.14827 0
M  V30 6172 N 588.284 -1.56567 -0.180126 0
M  V30 6173 C 589.533 -1.80685 -0.896426 0
M  V30 6174 C 589.846 -0.669335 -1.83791 0
M  V30 6175 O 591.052 -0.795209 -2.59593 0
M  V30 6176 C 589.508 -3.20132 -1.6445 0
M  V30 6177 C 589.116 -4.41727 -0.747088 0
M  V30 6178 C 590.86 -3.53549 -2.34955 0
M  V30 6179 C 588.767 -5.72195 -1.49489 0
M  V30 6180 H 587.697 -0.673758 -0.338477 0
M  V30 6181 H 590.348 -1.8289 -0.149467 0
M  V30 6182 H 588.73 -3.12218 -2.43589 0
M  V30 6183 H 589.904 -4.608 0.00671129 0
M  V30 6184 H 588.219 -4.16122 -0.152134 0
M  V30 6185 H 590.816 -4.48267 -2.91481 0
M  V30 6186 H 591.159 -2.78006 -3.09868 0
M  V30 6187 H 591.692 -3.62976 -1.62768 0
M  V30 6188 H 588.431 -6.50743 -0.788251 0
M  V30 6189 H 587.951 -5.57115 -2.22224 0
M  V30 6190 H 589.63 -6.1384 -2.04472 0
M  V30 6191 N 589.762 0.448376 -1.51087 0
M  V30 6192 C 590.692 1.55102 -1.74544 0
M  V30 6193 C 591.673 1.59357 -0.594932 0
M  V30 6194 O 592.858 1.75261 -0.836491 0
M  V30 6195 C 589.988 2.93268 -1.86041 0
M  V30 6196 C 588.942 3.03877 -3.01402 0
M  V30 6197 C 588.268 4.43914 -2.98068 0
M  V30 6198 C 589.568 2.7898 -4.41551 0
M  V30 6199 H 591.262 1.35724 -2.66869 0
M  V30 6200 H 588.808 0.651498 -1.28419 0
M  V30 6201 H 590.761 3.70356 -2.01034 0
M  V30 6202 H 589.485 3.13853 -0.903548 0
M  V30 6203 H 588.144 2.29227 -2.86096 0
M  V30 6204 H 587.792 4.6145 -2.00182 0
M  V30 6205 H 587.492 4.51944 -3.75527 0
M  V30 6206 H 589.016 5.22991 -3.1514 0
M  V30 6207 H 590.43 3.45805 -4.57265 0
M  V30 6208 H 588.827 2.98431 -5.20633 0
M  V30 6209 H 589.897 1.74663 -4.5235 0
M  V30 6210 N 591.24 1.41047 0.703093 0
M  V30 6211 C 592.19 1.38774 1.80903 0
M  V30 6212 C 593.174 0.263275 1.58731 0
M  V30 6213 O 594.366 0.503362 1.69692 0
M  V30 6214 C 591.495 1.26497 3.19145 0
M  V30 6215 C 590.581 2.43775 3.47037 0
M  V30 6216 N 590.972 3.69249 3.45672 0
M  V30 6217 C 589.27 2.37425 3.77552 0
M  V30 6218 C 589.971 4.46989 3.72258 0
M  V30 6219 N 588.947 3.76998 3.91629 0
M  V30 6220 H 592.749 2.33714 1.78199 0
M  V30 6221 H 590.263 1.34996 0.902762 0
M  V30 6222 H 592.26 1.2295 3.98358 0
M  V30 6223 H 590.92 0.32534 3.23066 0
M  V30 6224 H 591.931 4.02239 3.26228 0
M  V30 6225 H 588.608 1.51895 3.88888 0
M  V30 6226 H 589.998 5.55894 3.77402 0
M  V30 6227 N 592.718 -0.936591 1.26751 0
M  V30 6228 C 593.665 -2.03597 1.08706 0
M  V30 6229 C 594.635 -1.66097 -0.00926542 0
M  V30 6230 O 595.82 -1.90199 0.151377 0
M  V30 6231 C 592.96 -3.3727 0.73094 0
M  V30 6232 C 592.073 -3.87778 1.90399 0
M  V30 6233 C 591.208 -5.09859 1.49056 0
M  V30 6234 C 590.247 -5.5264 2.63164 0
M  V30 6235 N 589.384 -6.65921 2.22471 0
M  V30 6236 H 594.224 -2.18364 2.02784 0
M  V30 6237 H 591.761 -1.06985 1.00958 0
M  V30 6238 H 593.719 -4.14128 0.505328 0
M  V30 6239 H 592.349 -3.22337 -0.172868 0
M  V30 6240 H 591.401 -3.07279 2.2424 0
M  V30 6241 H 592.713 -4.15464 2.76028 0
M  V30 6242 H 591.867 -5.9419 1.22567 0
M  V30 6243 H 590.606 -4.8393 0.60524 0
M  V30 6244 H 589.611 -4.66863 2.90377 0
M  V30 6245 H 590.836 -5.80568 3.52303 0
M  V30 6246 H 588.782 -6.41667 1.36379 0
M  V30 6247 H 588.699 -6.93216 3.01641 0
M  V30 6248 H 589.967 -7.53616 1.99205 0
M  V30 6249 N 594.196 -1.08629 -1.14182 0
M  V30 6250 C 595.159 -0.722027 -2.1753 0
M  V30 6251 C 596.159 0.244305 -1.58933 0
M  V30 6252 O 597.349 0.0235545 -1.74184 0
M  V30 6253 C 594.481 -0.0663966 -3.40835 0
M  V30 6254 H 595.674 -1.63719 -2.51269 0
M  V30 6255 H 593.227 -0.884442 -1.28869 0
M  V30 6256 H 593.962 0.860389 -3.12678 0
M  V30 6257 H 593.747 -0.761598 -3.84632 0
M  V30 6258 H 595.237 0.173346 -4.1724 0
M  V30 6259 N 595.674 1.31259 -0.872281 0
M  V30 6260 C 596.922 1.96233 -0.483409 0
M  V30 6261 C 597.243 1.69276 0.968012 0
M  V30 6262 O 596.513 1.00943 1.67891 0
M  V30 6263 H 595.093 0.726025 -0.175774 0
M  V30 6264 H 597.755 1.60024 -1.11258 0
M  V30 6265 H 596.851 3.05403 -0.643075 0
M  V30 6266 N 597.152 0.631951 1.44375 0
M  V30 6267 C 598.062 -0.073674 2.34484 0
M  V30 6268 C 599.078 -0.834825 1.52665 0
M  V30 6269 O 600.254 -0.786902 1.85391 0
M  V30 6270 C 597.319 -1.04247 3.30656 0
M  V30 6271 C 596.38 -0.280602 4.28382 0
M  V30 6272 C 595.613 -1.20325 5.19959 0
M  V30 6273 O 595.836 -2.44199 5.15484 0
M  V30 6274 O 594.77 -0.687128 5.97965 0
M  V30 6275 H 598.596 0.667477 2.96274 0
M  V30 6276 H 596.181 0.392144 1.44162 0
M  V30 6277 H 598.063 -1.59981 3.89851 0
M  V30 6278 H 596.738 -1.76422 2.71398 0
M  V30 6279 H 595.645 0.319804 3.72731 0
M  V30 6280 H 596.978 0.401144 4.90563 0
M  V30 6281 N 598.631 -1.53133 0.372548 0
M  V30 6282 C 599.877 -2.01654 -0.215277 0
M  V30 6283 C 600.21 -1.25914 -1.47849 0
M  V30 6284 O 599.485 -0.3548 -1.91237 0
M  V30 6285 C 599.768 -3.56609 -0.500187 0
M  V30 6286 C 599.621 -4.43036 0.777145 0
M  V30 6287 C 600.94 -4.20528 -1.29786 0
M  V30 6288 H 598.059 -0.732991 -0.0767686 0
M  V30 6289 H 600.701 -1.83335 0.498814 0
M  V30 6290 H 598.851 -3.7235 -1.10852 0
M  V30 6291 H 600.523 -4.39079 1.41447 0
M  V30 6292 H 598.766 -4.10723 1.39604 0
M  V30 6293 H 599.437 -5.49424 0.532662 0
M  V30 6294 H 601.913 -4.08663 -0.783198 0
M  V30 6295 H 600.789 -5.28962 -1.46596 0
M  V30 6296 H 601.05 -3.77051 -2.30836 0
M  V30 6297 N 600.109 -0.101901 -1.5727 0
M  V30 6298 C 601.355 0.561027 -1.94885 0
M  V30 6299 C 601.688 1.6741 -0.984258 0
M  V30 6300 O 600.963 1.94491 -0.0184767 0
M  V30 6301 C 601.246 1.10982 -3.42571 0
M  V30 6302 C 601.099 0.00133418 -4.498 0
M  V30 6303 C 602.418 2.00608 -3.9172 0
M  V30 6304 H 599.537 0.202467 -0.708644 0
M  V30 6305 H 602.179 -0.173992 -1.89202 0
M  V30 6306 H 600.329 1.73621 -3.47546 0
M  V30 6307 H 602.001 -0.63322 -4.56933 0
M  V30 6308 H 600.244 -0.664143 -4.28686 0
M  V30 6309 H 600.915 0.426253 -5.50352 0
M  V30 6310 H 603.391 1.47864 -3.88941 0
M  V30 6311 H 602.267 2.3593 -4.95609 0
M  V30 6312 H 602.528 2.92608 -3.3141 0
M  V30 6313 N 601.587 1.56661 0.17182 0
M  V30 6314 C 602.833 1.82235 0.889845 0
M  V30 6315 C 603.166 0.679673 1.81918 0
M  V30 6316 O 602.441 -0.318404 1.91876 0
M  V30 6317 C 602.724 3.18195 1.68595 0
M  V30 6318 C 602.577 4.42989 0.779773 0
M  V30 6319 C 603.896 3.5109 2.65375 0
M  V30 6320 H 601.015 0.66291 0.322056 0
M  V30 6321 H 603.657 1.89358 0.15608 0
M  V30 6322 H 601.807 3.12253 2.3115 0
M  V30 6323 H 603.479 4.60997 0.16714 0
M  V30 6324 H 601.722 4.33711 0.0877964 0
M  V30 6325 H 602.393 5.3467 1.3723 0
M  V30 6326 H 604.869 3.57482 2.12946 0
M  V30 6327 H 603.745 4.47298 3.18144 0
M  V30 6328 H 604.006 2.75768 3.45549 0
M  V30 6329 N 603.065 -0.440357 1.51323 0
M  V30 6330 C 604.028 -1.51679 1.71832 0
M  V30 6331 C 605.028 -1.49648 0.588386 0
M  V30 6332 O 606.218 -1.51724 0.855891 0
M  V30 6333 C 603.35 -2.91228 1.77199 0
M  V30 6334 H 604.543 -1.34799 2.67898 0
M  V30 6335 H 602.096 -0.66883 1.41267 0
M  V30 6336 H 602.831 -3.13516 0.829363 0
M  V30 6337 H 602.616 -2.94107 2.59314 0
M  V30 6338 H 604.106 -3.69321 1.94915 0
M  V30 6339 N 604.543 -1.41418 -0.695603 0
M  V30 6340 C 605.79 -1.40774 -1.45564 0
M  V30 6341 C 606.118 -0.0168604 -1.94493 0
M  V30 6342 O 605.373 0.971259 -1.69897 0
M  V30 6343 C 605.672 -2.36112 -2.68302 0
M  V30 6344 C 605.338 -3.82952 -2.38031 0
M  V30 6345 C 604 -4.22954 -2.29486 0
M  V30 6346 C 606.352 -4.75662 -2.13061 0
M  V30 6347 C 603.68 -5.53674 -1.94067 0
M  V30 6348 C 606.032 -6.06702 -1.79151 0
M  V30 6349 C 604.696 -6.45725 -1.69102 0
M  V30 6350 H 603.966 -0.515128 -0.532658 0
M  V30 6351 H 606.613 -1.74216 -0.795047 0
M  V30 6352 H 604.918 -1.95924 -3.39295 0
M  V30 6353 H 606.615 -2.32887 -3.26442 0
M  V30 6354 H 603.205 -3.5127 -2.45576 0
M  V30 6355 H 607.389 -4.45561 -2.18608 0
M  V30 6356 H 602.645 -5.8279 -1.8484 0
M  V30 6357 H 606.819 -6.78041 -1.5885 0
M  V30 6358 H 604.446 -7.46929 -1.41426 0
M  V30 6359 N 606.021 0.929856 -1.27246 0
M  V30 6360 C 607.432 1.49223 -1.12203 0
M  V30 6361 C 607.783 1.93989 0.293731 0
M  V30 6362 O 606.908 1.80978 1.18642 0
M  V30 6363 C 607.503 2.71198 -2.0307 0
M  V30 6364 C 606.062 3.23666 -1.92139 0
M  V30 6365 C 605.209 1.96409 -1.95752 0
M  V30 6366 H 608.16 0.744181 -1.4017 0
M  V30 6367 H 608.181 3.45905 -1.58524 0
M  V30 6368 H 607.693 2.38585 -3.06102 0
M  V30 6369 H 605.794 3.61042 -0.920834 0
M  V30 6370 H 605.907 3.90006 -2.78267 0
M  V30 6371 H 604.271 2.12806 -1.39949 0
M  V30 6372 H 605.054 1.66113 -3.00436 0
M  V30 6373 N 607.499 1.09233 1.13605 0
M  V30 6374 C 608.462 0.733553 2.17144 0
M  V30 6375 C 609.462 -0.235873 1.59061 0
M  V30 6376 O 610.652 -0.0143167 1.74194 0
M  V30 6377 C 607.784 0.084471 3.40795 0
M  V30 6378 H 608.977 1.65049 2.50397 0
M  V30 6379 H 606.53 0.891264 1.28399 0
M  V30 6380 H 607.265 -0.843795 3.1313 0
M  V30 6381 H 607.05 0.781985 3.84223 0
M  V30 6382 H 608.54 -0.151216 4.17326 0
M  V30 6383 N 608.977 -1.30795 0.87923 0
M  V30 6384 C 609.94 -2.26563 0.346676 0
M  V30 6385 C 610.94 -1.52578 -0.507597 0
M  V30 6386 O 612.13 -1.71318 -0.315575 0
M  V30 6387 C 609.262 -3.37115 -0.506611 0
M  V30 6388 H 610.455 -2.75183 1.19223 0
M  V30 6389 H 608.008 -1.41886 0.655598 0
M  V30 6390 H 608.743 -2.93802 -1.37299 0
M  V30 6391 H 608.528 -3.91959 0.105218 0
M  V30 6392 H 610.018 -4.08412 -0.871192 0
M  V30 6393 N 610.455 -0.639598 -1.44038 0
M  V30 6394 C 611.871 -0.305953 -1.5664 0
M  V30 6395 C 612.071 1.19055 -1.62567 0
M  V30 6396 O 611.127 1.97492 -1.57331 0
M  V30 6397 C 612.44 -1.00533 -2.83397 0
M  V30 6398 C 613.988 -0.984278 -2.97121 0
M  V30 6399 C 614.463 -1.66428 -4.26691 0
M  V30 6400 N 615.954 -1.63127 -4.33525 0
M  V30 6401 C 616.689 -2.12629 -5.32519 0
M  V30 6402 N 616.185 -2.70359 -6.3787 0
M  V30 6403 N 617.978 -2.03208 -5.24083 0
M  V30 6404 H 610.129 -1.6109 -1.38434 0
M  V30 6405 H 612.392 -0.676672 -0.663942 0
M  V30 6406 H 612.098 -2.06034 -2.85032 0
M  V30 6407 H 611.972 -0.548362 -3.73193 0
M  V30 6408 H 614.359 0.0622792 -2.95034 0
M  V30 6409 H 614.44 -1.47981 -2.08651 0
M  V30 6410 H 614.084 -2.71034 -4.29538 0
M  V30 6411 H 614.014 -1.14351 -5.14034 0
M  V30 6412 H 616.505 -1.20987 -3.58009 0
M  V30 6413 H 616.818 -3.05842 -7.09704 0
M  V30 6414 H 615.163 -2.74414 -6.38531 0
M  V30 6415 H 618.354 -1.57823 -4.40692 0
M  V30 6416 H 618.527 -2.42097 -6.01077 0
M  V30 6417 N 611.933 1.52934 -0.380664 0
M  V30 6418 C 612.863 2.29118 0.450268 0
M  V30 6419 C 613.844 1.32153 1.07096 0
M  V30 6420 O 615.029 1.61038 1.08537 0
M  V30 6421 C 612.159 3.09161 1.58231 0
M  V30 6422 C 611.113 4.13938 1.0881 0
M  V30 6423 C 610.439 4.82153 2.31155 0
M  V30 6424 C 611.739 5.22048 0.162146 0
M  V30 6425 H 613.433 2.98826 -0.185361 0
M  V30 6426 H 610.979 1.43715 -0.0905886 0
M  V30 6427 H 612.932 3.61211 2.17036 0
M  V30 6428 H 611.656 2.3717 2.2454 0
M  V30 6429 H 610.315 3.62855 0.522633 0
M  V30 6430 H 609.963 4.06719 2.95953 0
M  V30 6431 H 609.663 5.52966 1.98752 0
M  V30 6432 H 611.187 5.37004 2.90618 0
M  V30 6433 H 612.601 5.6951 0.658126 0
M  V30 6434 H 610.998 6.00057 -0.0717122 0
M  V30 6435 H 612.068 4.78398 -0.791438 0
M  V30 6436 N 613.412 0.11024 1.57214 0
M  V30 6437 C 614.637 -0.561179 1.99664 0
M  V30 6438 C 615.062 -1.59985 0.989266 0
M  V30 6439 O 614.42 -1.81255 -0.0402399 0
M  V30 6440 C 614.468 -1.17189 3.41027 0
M  V30 6441 O 613.572 -2.28755 3.4314 0
M  V30 6442 H 612.913 -0.14101 0.648855 0
M  V30 6443 H 615.443 0.196128 2.03658 0
M  V30 6444 H 615.453 -1.50954 3.79047 0
M  V30 6445 H 614.128 -0.411041 4.13864 0
M  V30 6446 H 612.705 -1.96495 3.16929 0
M  V30 6447 N 614.89 -1.56749 -0.16351 0
M  V30 6448 C 616.118 -1.86577 -0.894233 0
M  V30 6449 C 616.533 -0.696543 -1.75481 0
M  V30 6450 O 615.89 0.334161 -1.79415 0
M  V30 6451 C 615.941 -3.15508 -1.76456 0
M  V30 6452 O 615.662 -4.27926 -0.938685 0
M  V30 6453 C 617.163 -3.58737 -2.60428 0
M  V30 6454 H 614.383 -0.618829 -0.259405 0
M  V30 6455 H 616.927 -2.03863 -0.161259 0
M  V30 6456 H 615.082 -3.00025 -2.45079 0
M  V30 6457 H 615.496 -5.01546 -1.53465 0
M  V30 6458 H 616.97 -4.51832 -3.17099 0
M  V30 6459 H 617.447 -2.83229 -3.35675 0
M  V30 6460 H 618.053 -3.76858 -1.97125 0
M  V30 6461 N 616.368 0.432326 -1.51554 0
M  V30 6462 C 617.616 1.17901 -1.64146 0
M  V30 6463 C 617.937 1.91604 -0.362367 0
M  V30 6464 O 617.207 1.85764 0.621968 0
M  V30 6465 H 615.787 0.438206 -0.604966 0
M  V30 6466 H 618.449 0.495172 -1.88505 0
M  V30 6467 H 617.545 1.90584 -2.47152 0
M  V30 6468 N 617.846 1.41785 0.688094 0
M  V30 6469 C 619.257 1.3701 1.26828 0
M  V30 6470 C 619.608 0.056835 1.96118 0
M  V30 6471 O 618.733 -0.84475 1.99231 0
M  V30 6472 C 619.328 2.48168 2.30648 0
M  V30 6473 C 617.887 2.46766 2.84224 0
M  V30 6474 C 617.034 2.27633 1.58361 0
M  V30 6475 H 619.985 1.51192 0.482351 0
M  V30 6476 H 620.006 2.17655 3.121 0
M  V30 6477 H 619.518 3.43735 1.80188 0
M  V30 6478 H 617.619 1.54978 3.3884 0
M  V30 6479 H 617.732 3.43342 3.34145 0
M  V30 6480 H 616.096 1.75648 1.84445 0
M  V30 6481 H 616.879 3.25238 1.09887 0
M  V30 6482 N 619.324 -0.923095 1.27737 0
M  V30 6483 C 620.287 -2.00587 1.10894 0
M  V30 6484 C 621.287 -1.60718 0.0514927 0
M  V30 6485 O 622.477 -1.71658 0.296481 0
M  V30 6486 C 619.609 -3.33829 0.690717 0
M  V30 6487 H 620.802 -2.16959 2.07048 0
M  V30 6488 H 618.355 -1.10451 1.1059 0
M  V30 6489 H 619.09 -3.23157 -0.272 0
M  V30 6490 H 618.875 -3.64125 1.45448 0
M  V30 6491 H 620.365 -4.13336 0.595252 0
M  V30 6492 N 620.802 -1.09834 -1.13024 0
M  V30 6493 C 621.732 -0.763451 -2.20666 0
M  V30 6494 C 622.713 0.260778 -1.68089 0
M  V30 6495 O 623.898 0.127915 -1.93778 0
M  V30 6496 C 621.028 -0.187744 -3.46792 0
M  V30 6497 C 619.982 -1.14196 -4.12484 0
M  V30 6498 C 619.308 -0.427755 -5.32986 0
M  V30 6499 C 620.608 -2.48607 -4.59338 0
M  V30 6500 H 622.302 -1.66347 -2.48936 0
M  V30 6501 H 619.848 -0.801261 -1.19649 0
M  V30 6502 H 621.801 0.0586375 -4.21359 0
M  V30 6503 H 620.525 0.747485 -3.17931 0
M  V30 6504 H 619.184 -1.37369 -3.3989 0
M  V30 6505 H 618.832 0.511747 -5.0039 0
M  V30 6506 H 618.532 -1.06403 -5.77886 0
M  V30 6507 H 620.056 -0.189772 -6.10305 0
M  V30 6508 H 621.47 -2.29618 -5.25308 0
M  V30 6509 H 619.867 -3.08062 -5.14993 0
M  V30 6510 H 620.937 -3.09062 -3.73642 0
M  V30 6511 N 622.28 1.30327 -0.886154 0
M  V30 6512 C 623.526 1.96388 -0.505941 0
M  V30 6513 C 623.859 1.69784 0.942712 0
M  V30 6514 O 623.134 1.00322 1.6663 0
M  V30 6515 C 623.417 3.51488 -0.782826 0
M  V30 6516 C 623.27 3.87603 -2.28219 0
M  V30 6517 C 624.589 4.39331 -0.260128 0
M  V30 6518 H 621.708 0.713327 -0.185292 0
M  V30 6519 H 624.35 1.54178 -1.11036 0
M  V30 6520 H 622.5 3.87572 -0.268399 0
M  V30 6521 H 624.172 3.61537 -2.86512 0
M  V30 6522 H 622.415 3.3563 -2.74837 0
M  V30 6523 H 623.086 4.95806 -2.42653 0
M  V30 6524 H 625.562 4.10162 -0.700444 0
M  V30 6525 H 624.438 5.46769 -0.483179 0
M  V30 6526 H 624.699 4.34072 0.838674 0
M  V30 6527 N 623.758 0.647228 1.43697 0
M  V30 6528 C 624.721 -0.0385101 2.29168 0
M  V30 6529 C 625.721 -0.756487 1.41894 0
M  V30 6530 O 626.911 -0.598641 1.63591 0
M  V30 6531 C 624.043 -1.06524 3.23829 0
M  V30 6532 H 625.236 0.713445 2.9129 0
M  V30 6533 H 622.789 0.408153 1.50877 0
M  V30 6534 H 623.524 -1.84664 2.66589 0
M  V30 6535 H 623.309 -0.554147 3.88164 0
M  V30 6536 H 624.799 -1.54432 3.87996 0
M  V30 6537 N 625.236 -1.5273 0.388769 0
M  V30 6538 C 626.199 -2.25043 -0.434544 0
M  V30 6539 C 627.199 -1.26661 -0.990644 0
M  V30 6540 O 628.389 -1.50762 -0.872731 0
M  V30 6541 C 625.521 -3.00507 -1.60961 0
M  V30 6542 H 626.714 -2.99242 0.198549 0
M  V30 6543 H 624.267 -1.55664 0.140875 0
M  V30 6544 H 625.002 -2.30607 -2.28015 0
M  V30 6545 H 624.787 -3.72716 -1.21757 0
M  V30 6546 H 626.277 -3.55413 -2.19251 0
M  V30 6547 N 626.714 -0.118576 -1.57153 0
M  V30 6548 C 627.962 0.538461 -1.94795 0
M  V30 6549 C 628.283 1.67243 -1.00274 0
M  V30 6550 O 627.553 1.95811 -0.0589692 0
M  V30 6551 H 626.133 0.201904 -0.719197 0
M  V30 6552 H 628.795 -0.187418 -1.93997 0
M  V30 6553 H 627.891 0.933315 -2.97818 0
M  V30 6554 N 628.193 1.56834 0.155195 0
M  V30 6555 C 629.123 2.00678 1.19376 0
M  V30 6556 C 630.104 0.884973 1.45266 0
M  V30 6557 O 631.289 1.1522 1.56326 0
M  V30 6558 C 628.419 2.38042 2.5289 0
M  V30 6559 C 627.373 3.53332 2.41538 0
M  V30 6560 C 626.699 3.76485 3.79688 0
M  V30 6561 C 627.999 4.86265 1.9064 0
M  V30 6562 H 629.693 2.87688 0.829232 0
M  V30 6563 H 627.239 1.38407 0.397445 0
M  V30 6564 H 629.192 2.67314 3.25763 0
M  V30 6565 H 627.916 1.4796 2.91162 0
M  V30 6566 H 626.575 3.24213 1.71117 0
M  V30 6567 H 626.223 2.83667 4.15382 0
M  V30 6568 H 625.923 4.54068 3.72956 0
M  V30 6569 H 627.447 4.08174 4.54122 0
M  V30 6570 H 628.861 5.14308 2.53299 0
M  V30 6571 H 627.258 5.67597 1.94818 0
M  V30 6572 H 628.328 4.77184 0.861596 0
M  V30 6573 N 629.671 -0.424282 1.51781 0
M  V30 6574 C 630.634 -1.49848 1.73431 0
M  V30 6575 C 631.634 -1.49016 0.604225 0
M  V30 6576 O 632.824 -1.50808 0.871935 0
M  V30 6577 C 629.956 -2.89332 1.80277 0
M  V30 6578 H 631.149 -1.3195 2.69312 0
M  V30 6579 H 628.702 -0.653809 1.41968 0
M  V30 6580 H 629.437 -3.12618 0.862568 0
M  V30 6581 H 629.222 -2.9134 2.62419 0
M  V30 6582 H 630.712 -3.67233 1.98821 0
M  V30 6583 N 631.149 -1.42148 -0.680565 0
M  V30 6584 C 632.56 -1.3768 -1.26099 0
M  V30 6585 C 632.911 -0.0672348 -1.96085 0
M  V30 6586 O 632.036 0.834172 -1.99676 0
M  V30 6587 C 632.631 -2.49387 -2.29328 0
M  V30 6588 C 631.19 -2.4827 -2.82911 0
M  V30 6589 C 630.337 -2.2847 -1.57152 0
M  V30 6590 H 633.288 -1.51446 -0.474326 0
M  V30 6591 H 633.309 -2.19307 -3.10941 0
M  V30 6592 H 632.821 -3.44686 -1.78363 0
M  V30 6593 H 630.922 -1.56773 -3.38013 0
M  V30 6594 H 631.035 -3.45109 -3.3232 0
M  V30 6595 H 629.399 -1.76623 -1.83511 0
M  V30 6596 H 630.182 -3.25816 -1.0816 0
M  V30 6597 N 632.627 0.916307 -1.28225 0
M  V30 6598 C 633.59 1.99996 -1.11957 0
M  V30 6599 C 634.59 1.60688 -0.0600152 0
M  V30 6600 O 635.78 1.71499 -0.30558 0
M  V30 6601 C 632.912 3.33458 -0.708411 0
M  V30 6602 H 634.105 2.15858 -2.08196 0
M  V30 6603 H 631.658 1.09863 -1.11175 0
M  V30 6604 H 632.393 3.23297 0.254859 0
M  V30 6605 H 632.178 3.63349 -1.47377 0
M  V30 6606 H 633.668 4.13014 -0.617164 0
M  V30 6607 N 634.105 1.10431 1.1244 0
M  V30 6608 C 635.015 0.765502 2.21759 0
M  V30 6609 C 636.031 -0.236966 1.72379 0
M  V30 6610 O 637.207 -0.0757329 2.01258 0
M  V30 6611 C 634.272 0.202316 3.46109 0
M  V30 6612 C 633.333 1.26205 4.1033 0
M  V30 6613 C 632.566 0.725648 5.28744 0
M  V30 6614 O 632.789 -0.447942 5.68638 0
M  V30 6615 O 631.723 1.48555 5.83279 0
M  V30 6616 H 635.549 1.67801 2.53133 0
M  V30 6617 H 633.134 0.879443 1.20773 0
M  V30 6618 H 635.016 -0.107918 4.21262 0
M  V30 6619 H 633.691 -0.683052 3.16411 0
M  V30 6620 H 632.598 1.62514 3.36957 0
M  V30 6621 H 633.931 2.12044 4.44183 0
M  V30 6622 N 635.583 -1.29855 0.893053 0
M  V30 6623 C 636.829 -1.96116 0.516349 0
M  V30 6624 C 637.162 -1.70281 -0.933695 0
M  V30 6625 O 636.437 -1.01205 -1.66096 0
M  V30 6626 C 636.72 -3.51068 0.801455 0
M  V30 6627 C 636.573 -3.86387 2.30272 0
M  V30 6628 C 637.892 -4.39186 0.283423 0
M  V30 6629 H 635.011 -0.712335 0.189072 0
M  V30 6630 H 637.653 -1.53587 1.11852 0
M  V30 6631 H 635.803 -3.87424 0.288949 0
M  V30 6632 H 637.475 -3.60012 2.88425 0
M  V30 6633 H 635.718 -3.34167 2.76613 0
M  V30 6634 H 636.389 -4.94512 2.45279 0
M  V30 6635 H 638.865 -4.09785 0.722187 0
M  V30 6636 H 637.741 -5.46505 0.512169 0
M  V30 6637 H 638.002 -4.34511 -0.815643 0
M  V30 6638 N 637.061 -0.65484 -1.43351 0
M  V30 6639 C 638.307 -0.169142 -2.02093 0
M  V30 6640 C 638.64 1.21431 -1.51553 0
M  V30 6641 O 637.915 1.81105 -0.709317 0
M  V30 6642 C 638.198 -0.181775 -3.59641 0
M  V30 6643 C 638.051 -1.59926 -4.20409 0
M  V30 6644 C 639.37 0.480945 -4.37464 0
M  V30 6645 H 636.489 -0.0629371 -0.734308 0
M  V30 6646 H 639.131 -0.835833 -1.70628 0
M  V30 6647 H 637.281 0.385918 -3.86578 0
M  V30 6648 H 638.953 -2.21766 -4.04497 0
M  V30 6649 H 637.196 -2.14605 -3.76998 0
M  V30 6650 H 637.867 -1.55994 -5.295 0
M  V30 6651 H 640.343 -0.00208273 -4.161 0
M  V30 6652 H 639.219 0.441384 -5.47122 0
M  V30 6653 H 639.48 1.55533 -4.13838 0
M  V30 6654 N 638.539 1.52521 -0.396863 0
M  V30 6655 C 639.785 2.01971 0.183169 0
M  V30 6656 C 640.118 1.2825 1.45827 0
M  V30 6657 O 639.393 0.385179 1.90648 0
M  V30 6658 C 639.676 3.5736 0.443391 0
M  V30 6659 C 639.529 4.41743 -0.84753 0
M  V30 6660 C 640.848 4.22539 1.2308 0
M  V30 6661 H 637.967 0.734119 0.0650976 0
M  V30 6662 H 640.609 1.82519 -0.527918 0
M  V30 6663 H 638.759 3.74066 1.04914 0
M  V30 6664 H 640.431 4.36773 -1.48414 0
M  V30 6665 H 638.674 4.0845 -1.4612 0
M  V30 6666 H 639.345 5.48507 -0.620003 0
M  V30 6667 H 641.821 4.09857 0.718084 0
M  V30 6668 H 640.697 5.31227 1.38162 0
M  V30 6669 H 640.958 3.80675 2.24808 0
M  V30 6670 N 640.017 0.126909 1.57088 0
M  V30 6671 C 640.98 -0.806097 2.14557 0
M  V30 6672 C 641.98 -1.18918 1.08236 0
M  V30 6673 O 643.17 -1.11339 1.33975 0
M  V30 6674 C 640.302 -2.09116 2.69227 0
M  V30 6675 H 641.495 -0.306522 2.98329 0
M  V30 6676 H 639.048 -0.122393 1.5582 0
M  V30 6677 H 639.783 -2.63486 1.89065 0
M  V30 6678 H 639.568 -1.82588 3.46993 0
M  V30 6679 H 641.058 -2.75794 3.13572 0
M  V30 6680 N 641.495 -1.56914 -0.146875 0
M  V30 6681 C 642.723 -1.87515 -0.874394 0
M  V30 6682 C 643.138 -0.715116 -1.74733 0
M  V30 6683 O 642.495 0.315113 -1.79759 0
M  V30 6684 C 642.546 -3.17362 -1.731 0
M  V30 6685 O 642.267 -4.28897 -0.893245 0
M  V30 6686 C 643.768 -3.61479 -2.56609 0
M  V30 6687 H 640.988 -0.621546 -0.252827 0
M  V30 6688 H 643.532 -2.04023 -0.139627 0
M  V30 6689 H 641.687 -3.02608 -2.41883 0
M  V30 6690 H 642.101 -5.03146 -1.48137 0
M  V30 6691 H 643.575 -4.5517 -3.12289 0
M  V30 6692 H 644.052 -2.86773 -3.32653 0
M  V30 6693 H 644.658 -3.78927 -1.93117 0
M  V30 6694 N 642.974 0.416227 -1.52004 0
M  V30 6695 C 644.22 1.16555 -1.6596 0
M  V30 6696 C 644.553 1.90347 -0.384906 0
M  V30 6697 O 643.828 1.84474 0.616405 0
M  V30 6698 C 644.111 2.1657 -2.87696 0
M  V30 6699 C 643.964 1.46722 -4.25197 0
M  V30 6700 C 645.283 3.17321 -3.04951 0
M  V30 6701 H 642.402 0.422369 -0.603965 0
M  V30 6702 H 645.044 0.452141 -1.84542 0
M  V30 6703 H 643.194 2.77411 -2.71985 0
M  V30 6704 H 644.866 0.89056 -4.52622 0
M  V30 6705 H 643.109 0.769263 -4.26925 0
M  V30 6706 H 643.78 2.19665 -5.0641 0
M  V30 6707 H 646.256 2.66552 -3.19514 0
M  V30 6708 H 645.132 3.84573 -3.91656 0
M  V30 6709 H 645.393 3.84643 -2.17951 0
M  V30 6710 N 644.452 1.42507 0.673017 0
M  V30 6711 C 645.415 1.4582 1.76831 0
M  V30 6712 C 646.415 0.345542 1.57043 0
M  V30 6713 O 647.605 0.606447 1.63303 0
M  V30 6714 C 644.737 1.29158 3.15485 0
M  V30 6715 H 645.93 2.43345 1.7528 0
M  V30 6716 H 643.483 1.28981 0.882817 0
M  V30 6717 H 644.218 0.325626 3.22661 0
M  V30 6718 H 644.003 2.09797 3.31252 0
M  V30 6719 H 645.493 1.34363 3.95394 0
M  V30 6720 N 645.93 -0.909495 1.28709 0
M  V30 6721 C 647.155 -1.69801 1.1909 0
M  V30 6722 C 647.58 -1.86479 -0.246388 0
M  V30 6723 O 646.938 -1.37802 -1.17815 0
M  V30 6724 C 646.986 -3.06543 1.89904 0
M  V30 6725 O 646.09 -3.94268 1.2094 0
M  V30 6726 H 645.431 -0.519783 0.413185 0
M  V30 6727 H 647.961 -1.13689 1.70106 0
M  V30 6728 H 647.971 -3.56748 1.97977 0
M  V30 6729 H 646.646 -2.93722 2.94449 0
M  V30 6730 H 645.223 -3.52702 1.2106 0
M  V30 6731 N 647.408 -1.11026 -1.11852 0
M  V30 6732 C 648.633 -0.879064 -1.87849 0
M  V30 6733 C 649.058 0.565406 -1.79401 0
M  V30 6734 O 648.416 1.39886 -1.15333 0
M  V30 6735 C 648.464 -1.33985 -3.34784 0
M  V30 6736 O 647.568 -0.508803 -4.09249 0
M  V30 6737 H 646.909 -0.316992 -0.583448 0
M  V30 6738 H 649.439 -1.47863 -1.41413 0
M  V30 6739 H 649.449 -1.33248 -3.85628 0
M  V30 6740 H 648.124 -2.39172 -3.40249 0
M  V30 6741 H 646.701 -0.581913 -3.68332 0
M  V30 6742 N 648.886 1.2938 -0.899927 0
M  V30 6743 C 650.134 1.95164 -0.524924 0
M  V30 6744 C 650.455 1.71292 0.931888 0
M  V30 6745 O 649.725 1.04481 1.65712 0
M  V30 6746 H 648.305 0.722133 -0.191135 0
M  V30 6747 H 650.967 1.57628 -1.14627 0
M  V30 6748 H 650.063 3.0397 -0.707711 0
M  V30 6749 N 650.364 0.662433 1.43002 0
M  V30 6750 C 651.61 0.179857 2.02001 0
M  V30 6751 C 651.943 -1.20625 1.52195 0
M  V30 6752 O 651.218 -1.80726 0.718911 0
M  V30 6753 C 651.501 0.200845 3.59539 0
M  V30 6754 C 651.354 1.62153 4.19555 0
M  V30 6755 C 652.673 -0.457738 4.37713 0
M  V30 6756 H 649.792 0.0668305 0.733964 0
M  V30 6757 H 652.434 0.84487 1.70182 0
M  V30 6758 H 650.584 -0.365411 3.86778 0
M  V30 6759 H 652.256 2.23908 4.03315 0
M  V30 6760 H 650.499 2.16601 3.75854 0
M  V30 6761 H 651.17 1.58799 5.28665 0
M  V30 6762 H 653.646 0.0241495 4.16093 0
M  V30 6763 H 652.522 -0.412363 5.47349 0
M  V30 6764 H 652.783 -1.53336 4.14657 0
M  V30 6765 N 651.842 -1.52309 0.404946 0
M  V30 6766 C 653.088 -2.02065 -0.172455 0
M  V30 6767 C 653.421 -1.29022 -1.45145 0
M  V30 6768 O 652.696 -0.395284 -1.90441 0
M  V30 6769 C 652.979 -3.5759 -0.424433 0
M  V30 6770 C 652.832 -4.41287 0.870945 0
M  V30 6771 C 654.151 -4.23186 -1.20837 0
M  V30 6772 H 651.27 -0.734454 -0.0612035 0
M  V30 6773 H 653.912 -1.82236 0.53759 0
M  V30 6774 H 652.062 -3.74617 -1.02929 0
M  V30 6775 H 653.734 -4.3598 1.50729 0
M  V30 6776 H 651.977 -4.07669 1.48284 0
M  V30 6777 H 652.648 -5.48171 0.649083 0
M  V30 6778 H 655.124 -4.10232 -0.696338 0
M  V30 6779 H 654 -5.31953 -1.35343 0
M  V30 6780 H 654.261 -3.81862 -2.22786 0
M  V30 6781 N 653.32 -0.135238 -1.57019 0
M  V30 6782 C 654.267 0.808908 -2.1616 0
M  V30 6783 C 655.237 1.25234 -1.09113 0
M  V30 6784 O 656.422 1.32697 -1.37099 0
M  V30 6785 C 653.562 2.04729 -2.77813 0
M  V30 6786 C 652.675 1.65074 -3.99218 0
M  V30 6787 C 651.81 2.84002 -4.48906 0
M  V30 6788 C 650.849 2.40663 -5.62803 0
M  V30 6789 N 649.986 3.5256 -6.07162 0
M  V30 6790 H 654.826 0.297751 -2.96509 0
M  V30 6791 H 652.363 0.135264 -1.46477 0
M  V30 6792 H 654.321 2.7731 -3.11697 0
M  V30 6793 H 652.951 2.53275 -2.00128 0
M  V30 6794 H 652.003 0.823029 -3.7139 0
M  V30 6795 H 653.315 1.29236 -4.81767 0
M  V30 6796 H 652.469 3.64788 -4.84783 0
M  V30 6797 H 651.208 3.23076 -3.65339 0
M  V30 6798 H 650.213 1.58314 -5.26514 0
M  V30 6799 H 651.438 2.02687 -6.48147 0
M  V30 6800 H 649.384 3.91278 -5.26534 0
M  V30 6801 H 649.301 3.20699 -6.84608 0
M  V30 6802 H 650.569 4.33738 -6.47682 0
M  V30 6803 N 654.798 1.5699 0.138552 0
M  V30 6804 C 656.045 1.83809 0.849732 0
M  V30 6805 C 656.373 0.717409 1.80786 0
M  V30 6806 O 655.628 -0.292897 1.93496 0
M  V30 6807 C 655.927 3.17007 1.65049 0
M  V30 6808 C 655.593 4.43037 0.838398 0
M  V30 6809 C 654.255 4.77262 0.614385 0
M  V30 6810 C 656.607 5.20495 0.271044 0
M  V30 6811 C 653.935 5.864 -0.187552 0
M  V30 6812 C 656.287 6.30476 -0.517979 0
M  V30 6813 C 654.951 6.63245 -0.75249 0
M  V30 6814 H 654.221 0.672605 0.310939 0
M  V30 6815 H 656.868 1.91166 0.112971 0
M  V30 6816 H 655.173 3.05138 2.4576 0
M  V30 6817 H 656.87 3.34975 2.20437 0
M  V30 6818 H 653.46 4.16211 1.02307 0
M  V30 6819 H 657.644 4.94422 0.431371 0
M  V30 6820 H 652.9 6.10226 -0.378659 0
M  V30 6821 H 657.074 6.89686 -0.964694 0
M  V30 6822 H 654.701 7.47648 -1.37573 0
M  V30 6823 N 656.276 -0.40816 1.52223 0
M  V30 6824 C 657.524 -1.15274 1.66001 0
M  V30 6825 C 657.845 -1.91003 0.392803 0
M  V30 6826 O 657.115 -1.8673 -0.592336 0
M  V30 6827 H 655.695 -0.428526 0.611861 0
M  V30 6828 H 658.357 -0.46512 1.89269 0
M  V30 6829 H 657.453 -1.86628 2.50153 0
M  V30 6830 N 657.755 -1.42862 -0.66545 0
M  V30 6831 C 658.98 -1.47456 -1.45848 0
M  V30 6832 C 659.405 -0.0900312 -1.87884 0
M  V30 6833 O 658.763 0.913587 -1.56599 0
M  V30 6834 C 658.811 -2.41514 -2.67774 0
M  V30 6835 O 657.915 -1.89296 -3.66389 0
M  V30 6836 H 657.256 -0.499236 -0.437789 0
M  V30 6837 H 659.786 -1.8765 -0.815394 0
M  V30 6838 H 659.796 -2.58409 -3.15735 0
M  V30 6839 H 658.471 -3.42099 -2.36519 0
M  V30 6840 H 657.048 -1.82003 -3.25468 0
M  V30 6841 N 659.233 0.902656 -1.29189 0
M  V30 6842 C 660.461 1.68639 -1.19869 0
M  V30 6843 C 660.876 1.87254 0.241121 0
M  V30 6844 O 660.233 1.40745 1.16177 0
M  V30 6845 C 660.284 3.07251 -1.90471 0
M  V30 6846 O 660.005 2.89488 -3.28829 0
M  V30 6847 C 661.506 4.01653 -1.8759 0
M  V30 6848 H 658.726 0.526802 -0.415596 0
M  V30 6849 H 661.27 1.12901 -1.7051 0
M  V30 6850 H 659.425 3.59774 -1.43672 0
M  V30 6851 H 659.839 3.77296 -3.64346 0
M  V30 6852 H 661.313 4.96339 -2.4156 0
M  V30 6853 H 661.79 4.30881 -0.850756 0
M  V30 6854 H 662.396 3.55061 -2.34119 0
M  V30 6855 N 660.711 1.11618 1.11262 0
M  V30 6856 C 661.959 0.864469 1.82678 0
M  V30 6857 C 662.28 -0.611564 1.85162 0
M  V30 6858 O 661.55 -1.44429 1.32352 0
M  V30 6859 H 660.13 0.316821 0.676486 0
M  V30 6860 H 662.792 1.40894 1.34666 0
M  V30 6861 H 661.888 1.23832 2.86482 0
M  V30 6862 N 662.189 -1.289 0.906776 0
M  V30 6863 C 663.414 -1.99939 0.551303 0
M  V30 6864 C 663.839 -1.67366 -0.858496 0
M  V30 6865 O 663.197 -0.902176 -1.57259 0
M  V30 6866 C 663.245 -3.52523 0.758937 0
M  V30 6867 O 662.349 -4.11983 -0.185308 0
M  V30 6868 H 661.69 -0.628376 0.214568 0
M  V30 6869 H 664.22 -1.64225 1.2203 0
M  V30 6870 H 664.23 -4.02522 0.666329 0
M  V30 6871 H 662.905 -3.75566 1.78671 0
M  V30 6872 H 661.482 -3.72873 -0.0445577 0
M  V30 6873 N 663.667 -0.670007 -1.42649 0
M  V30 6874 C 664.895 -0.19854 -2.05945 0
M  V30 6875 C 665.31 1.14243 -1.50313 0
M  V30 6876 O 664.667 1.70872 -0.641027 0
M  V30 6877 C 664.718 -0.11966 -3.61302 0
M  V30 6878 O 664.439 -1.40764 -4.1487 0
M  V30 6879 C 665.94 0.375878 -4.41704 0
M  V30 6880 H 663.16 -0.0976894 -0.663851 0
M  V30 6881 H 665.704 -0.915392 -1.82868 0
M  V30 6882 H 663.859 0.547851 -3.83507 0
M  V30 6883 H 664.273 -1.27784 -5.08696 0
M  V30 6884 H 665.747 0.379988 -5.50691 0
M  V30 6885 H 666.224 1.41028 -4.15942 0
M  V30 6886 H 666.83 -0.259727 -4.24506 0
M  V30 6887 N 665.145 1.52092 -0.413018 0
M  V30 6888 C 666.556 1.86617 0.0556967 0
M  V30 6889 C 666.907 1.33156 1.44097 0
M  V30 6890 O 666.032 0.672417 2.05688 0
M  V30 6891 C 666.627 3.38628 0.107844 0
M  V30 6892 C 665.186 3.72778 0.520904 0
M  V30 6893 C 664.333 2.75649 -0.302109 0
M  V30 6894 H 667.284 1.45663 -0.629919 0
M  V30 6895 H 667.305 3.69152 0.922324 0
M  V30 6896 H 666.817 3.77508 -0.900506 0
M  V30 6897 H 664.918 3.39478 1.53575 0
M  V30 6898 H 665.031 4.7838 0.262591 0
M  V30 6899 H 663.395 2.53603 0.236115 0
M  V30 6900 H 664.178 3.17369 -1.30888 0
M  V30 6901 N 666.623 0.143563 1.56945 0
M  V30 6902 C 668.034 -0.37783 1.82837 0
M  V30 6903 C 668.385 -1.64967 1.06209 0
M  V30 6904 O 667.51 -2.14221 0.306291 0
M  V30 6905 C 668.105 -0.692274 3.31652 0
M  V30 6906 C 666.664 -1.1582 3.58138 0
M  V30 6907 C 665.811 -0.17951 2.76718 0
M  V30 6908 H 668.762 0.368317 1.54367 0
M  V30 6909 H 668.783 -1.54729 3.47619 0
M  V30 6910 H 668.295 0.233572 3.87397 0
M  V30 6911 H 666.396 -2.10011 3.07776 0
M  V30 6912 H 666.509 -1.08655 4.66616 0
M  V30 6913 H 664.873 -0.671458 2.4569 0
M  V30 6914 H 665.656 0.739865 3.35233 0
M  V30 6915 N 668.101 -1.57061 -0.130224 0
M  V30 6916 C 669.347 -1.8453 -0.841216 0
M  V30 6917 C 669.68 -0.727666 -1.80052 0
M  V30 6918 O 668.955 0.267419 -1.92653 0
M  V30 6919 C 669.238 -3.22553 -1.60099 0
M  V30 6920 C 669.091 -4.44901 -0.662048 0
M  V30 6921 C 670.41 -3.58003 -2.55973 0
M  V30 6922 H 667.529 -0.671215 -0.304366 0
M  V30 6923 H 670.171 -1.89705 -0.105821 0
M  V30 6924 H 668.321 -3.18272 -2.22789 0
M  V30 6925 H 669.993 -4.61278 -0.0448559 0
M  V30 6926 H 668.236 -4.33791 0.0272253 0
M  V30 6927 H 668.907 -5.3812 -1.23006 0
M  V30 6928 H 671.383 -3.63002 -2.03393 0
M  V30 6929 H 670.259 -4.55576 -3.06172 0
M  V30 6930 H 670.52 -2.84833 -3.38116 0
M  V30 6931 N 669.579 0.400081 -1.52437 0
M  V30 6932 C 670.804 1.17221 -1.71096 0
M  V30 6933 C 671.229 1.83269 -0.423565 0
M  V30 6934 O 670.587 1.70378 0.619751 0
M  V30 6935 C 670.635 2.20425 -2.85386 0
M  V30 6936 O 669.739 3.26769 -2.51586 0
M  V30 6937 H 669.08 0.341766 -0.569291 0
M  V30 6938 H 671.61 0.467772 -1.99181 0
M  V30 6939 H 671.62 2.64605 -3.10561 0
M  V30 6940 H 670.295 1.71737 -3.78786 0
M  V30 6941 H 668.872 2.87804 -2.37114 0
M  V30 6942 N 671.057 1.43213 0.657864 0
M  V30 6943 C 672.468 1.39669 1.23893 0
M  V30 6944 C 672.819 0.0984217 1.95953 0
M  V30 6945 O 671.944 -0.8023 2.00978 0
M  V30 6946 C 672.539 2.53004 2.25332 0
M  V30 6947 C 671.098 2.5274 2.78926 0
M  V30 6948 C 670.245 2.30941 1.53497 0
M  V30 6949 H 673.196 1.52181 0.450172 0
M  V30 6950 H 673.217 2.24226 3.07413 0
M  V30 6951 H 672.729 3.4748 1.72856 0
M  V30 6952 H 670.83 1.6213 3.35477 0
M  V30 6953 H 670.943 3.50352 3.26787 0
M  V30 6954 H 669.307 1.7952 1.80678 0
M  V30 6955 H 670.09 3.27496 1.02963 0
M  V30 6956 N 672.536 -0.895792 1.29666 0
M  V30 6957 C 673.764 -1.68001 1.20761 0
M  V30 6958 C 674.179 -1.87379 -0.231187 0
M  V30 6959 O 673.536 -1.41359 -1.15429 0
M  V30 6960 C 673.587 -3.06236 1.92098 0
M  V30 6961 O 673.308 -2.8774 3.30359 0
M  V30 6962 C 674.809 -4.00652 1.89717 0
M  V30 6963 H 672.029 -0.524591 0.418384 0
M  V30 6964 H 674.573 -1.11995 1.71106 0
M  V30 6965 H 672.728 -3.59007 1.45578 0
M  V30 6966 H 673.142 -3.75359 3.66342 0
M  V30 6967 H 674.616 -4.95051 2.44189 0
M  V30 6968 H 675.093 -4.30424 0.873595 0
M  V30 6969 H 675.699 -3.53815 2.35998 0
M  V30 6970 N 674.014 -1.12206 -1.10668 0
M  V30 6971 C 675.425 -0.890657 -1.64086 0
M  V30 6972 C 675.776 0.575502 -1.8757 0
M  V30 6973 O 674.901 1.4394 -1.61587 0
M  V30 6974 C 675.496 -1.61029 -2.98085 0
M  V30 6975 C 674.055 -1.4251 -3.48379 0
M  V30 6976 C 673.202 -1.64778 -2.23033 0
M  V30 6977 H 676.153 -1.27718 -0.94201 0
M  V30 6978 H 676.174 -1.05993 -3.65439 0
M  V30 6979 H 675.686 -2.67735 -2.80962 0
M  V30 6980 H 673.787 -0.380497 -3.70652 0
M  V30 6981 H 673.9 -2.17959 -4.26651 0
M  V30 6982 H 672.264 -1.07171 -2.31055 0
M  V30 6983 H 673.047 -2.72776 -2.08443 0
M  V30 6984 N 675.492 1.28418 -0.913599 0
M  V30 6985 C 676.717 1.99643 -0.561899 0
M  V30 6986 C 677.142 1.67819 0.849608 0
M  V30 6987 O 676.5 0.910503 1.56779 0
M  V30 6988 C 676.548 3.52116 -0.777622 0
M  V30 6989 O 675.652 4.12076 0.163457 0
M  V30 6990 H 674.993 0.627229 -0.217898 0
M  V30 6991 H 677.523 1.63575 -1.229 0
M  V30 6992 H 677.533 4.02163 -0.687666 0
M  V30 6993 H 676.208 3.74613 -1.8066 0
M  V30 6994 H 674.785 3.72892 0.0247827 0
M  V30 6995 N 676.97 0.677563 1.42291 0
M  V30 6996 C 677.88 0.000962654 2.346 0
M  V30 6997 C 678.896 -0.785833 1.55244 0
M  V30 6998 O 680.072 -0.727523 1.87801 0
M  V30 6999 C 677.137 -0.936746 3.33805 0
M  V30 7000 C 676.198 -0.144173 4.29058 0
M  V30 7001 C 675.431 -1.03722 5.23524 0
M  V30 7002 O 675.654 -2.27675 5.22992 0
M  V30 7003 O 674.588 -0.496542 5.99848 0
M  V30 7004 H 678.414 0.761397 2.94001 0
M  V30 7005 H 675.999 0.43781 1.42841 0
M  V30 7006 H 677.881 -1.47497 3.94744 0
M  V30 7007 H 676.556 -1.67698 2.76874 0
M  V30 7008 H 675.463 0.438224 3.71524 0
M  V30 7009 H 676.796 0.55701 4.89038 0
M  V30 7010 N 678.448 -1.51871 0.421078 0
M  V30 7011 C 679.864 -1.59435 0.0725398 0
M  V30 7012 C 680.064 -1.43315 -1.41644 0
M  V30 7013 O 679.12 -1.26614 -2.18461 0
M  V30 7014 C 680.433 -2.9509 0.578132 0
M  V30 7015 C 681.981 -3.08356 0.537149 0
M  V30 7016 C 682.456 -4.4651 1.01945 0
M  V30 7017 N 683.947 -4.52784 0.976758 0
M  V30 7018 C 684.682 -5.57976 1.32099 0
M  V30 7019 N 684.178 -6.70664 1.73727 0
M  V30 7020 N 685.971 -5.48248 1.2402 0
M  V30 7021 H 678.122 -1.60595 1.39007 0
M  V30 7022 H 680.385 -0.756138 0.571803 0
M  V30 7023 H 680.091 -3.12205 1.61929 0
M  V30 7024 H 679.965 -3.772 -0.00578374 0
M  V30 7025 H 682.352 -2.90919 -0.494991 0
M  V30 7026 H 682.433 -2.28125 1.15727 0
M  V30 7027 H 682.077 -4.64692 2.04997 0
M  V30 7028 H 682.007 -5.25256 0.376023 0
M  V30 7029 H 684.498 -3.71898 0.670851 0
M  V30 7030 H 684.811 -7.46932 1.98274 0
M  V30 7031 H 683.156 -6.71914 1.77641 0
M  V30 7032 H 686.347 -4.59095 0.913756 0
M  V30 7033 H 686.52 -6.30119 1.51176 0
M  V30 7034 N 679.926 -0.151884 -1.56866 0
M  V30 7035 C 681.151 0.508044 -2.01081 0
M  V30 7036 C 681.576 1.57306 -1.03134 0
M  V30 7037 O 680.934 1.81298 -0.0078309 0
M  V30 7038 C 680.982 1.08106 -3.44014 0
M  V30 7039 O 680.086 2.19577 -3.49084 0
M  V30 7040 H 679.427 0.123757 -0.652365 0
M  V30 7041 H 681.957 -0.250055 -2.03066 0
M  V30 7042 H 681.967 1.40851 -3.82916 0
M  V30 7043 H 680.642 0.301168 -4.14808 0
M  V30 7044 H 679.219 1.88023 -3.22027 0
M  V30 7045 N 681.404 1.57128 0.121893 0
M  V30 7046 C 682.334 2.03165 1.15092 0
M  V30 7047 C 683.315 0.915587 1.43356 0
M  V30 7048 O 684.5 1.1851 1.53847 0
M  V30 7049 C 681.63 2.43352 2.47784 0
M  V30 7050 C 680.584 3.58376 2.33989 0
M  V30 7051 C 679.91 3.84454 3.71617 0
M  V30 7052 C 681.21 4.90199 1.80283 0
M  V30 7053 H 682.904 2.89382 0.768023 0
M  V30 7054 H 680.45 1.39218 0.367998 0
M  V30 7055 H 682.403 2.74163 3.20019 0
M  V30 7056 H 681.127 1.54103 2.87958 0
M  V30 7057 H 679.786 3.2777 1.64202 0
M  V30 7058 H 679.434 2.92414 4.09271 0
M  V30 7059 H 679.134 4.61877 3.6324 0
M  V30 7060 H 680.658 4.17714 4.45362 0
M  V30 7061 H 682.072 5.19565 2.42333 0
M  V30 7062 H 680.469 5.71601 1.82735 0
M  V30 7063 H 681.539 4.78904 0.760184 0
M  V30 7064 N 682.882 -0.391992 1.52647 0
M  V30 7065 C 683.812 -1.48517 1.8018 0
M  V30 7066 C 684.793 -1.57039 0.653667 0
M  V30 7067 O 685.978 -1.72036 0.900962 0
M  V30 7068 C 683.108 -2.86161 1.96797 0
M  V30 7069 C 682.062 -2.92481 3.12472 0
M  V30 7070 C 681.388 -4.32546 3.14338 0
M  V30 7071 C 682.688 -2.624 4.51601 0
M  V30 7072 H 684.382 -1.25726 2.71723 0
M  V30 7073 H 681.928 -0.603387 1.30749 0
M  V30 7074 H 683.881 -3.62639 2.14641 0
M  V30 7075 H 682.605 -3.10283 1.01941 0
M  V30 7076 H 681.264 -2.18451 2.94406 0
M  V30 7077 H 680.912 -4.53703 2.1717 0
M  V30 7078 H 680.612 -4.37695 3.92042 0
M  V30 7079 H 682.136 -5.10934 3.34333 0
M  V30 7080 H 683.55 -3.28596 4.69785 0
M  V30 7081 H 681.947 -2.78903 5.3135 0
M  V30 7082 H 683.017 -1.57754 4.58521 0
M  V30 7083 N 684.36 -1.4356 -0.65026 0
M  V30 7084 C 685.585 -1.48995 -1.44275 0
M  V30 7085 C 686.01 -0.109954 -1.87778 0
M  V30 7086 O 685.368 0.896926 -1.57559 0
M  V30 7087 C 685.416 -2.44341 -2.65198 0
M  V30 7088 O 684.52 -1.93172 -3.6436 0
M  V30 7089 H 683.861 -0.503852 -0.432469 0
M  V30 7090 H 686.391 -1.88504 -0.795446 0
M  V30 7091 H 686.401 -2.61743 -3.12977 0
M  V30 7092 H 685.076 -3.44588 -2.32877 0
M  V30 7093 H 683.653 -1.85445 -3.23519 0
M  V30 7094 N 685.838 0.888903 -1.30139 0
M  V30 7095 C 687.066 1.67358 -1.21651 0
M  V30 7096 C 687.481 1.87499 0.221246 0
M  V30 7097 O 686.838 1.41969 1.14677 0
M  V30 7098 C 686.889 3.05213 -1.93719 0
M  V30 7099 O 686.61 2.85984 -3.31881 0
M  V30 7100 C 688.111 3.9964 -1.9184 0
M  V30 7101 H 685.331 0.522365 -0.42116 0
M  V30 7102 H 687.875 1.11086 -1.71698 0
M  V30 7103 H 686.03 3.5823 -1.4748 0
M  V30 7104 H 686.444 3.73411 -3.68327 0
M  V30 7105 H 687.918 4.93749 -2.46811 0
M  V30 7106 H 688.395 4.29955 -0.896409 0
M  V30 7107 H 689.001 3.52558 -2.37872 0
M  V30 7108 N 687.317 1.12792 1.10072 0
M  V30 7109 C 688.565 0.883796 1.81751 0
M  V30 7110 C 688.886 -0.591891 1.858 0
M  V30 7111 O 688.156 -1.43017 1.33876 0
M  V30 7112 H 686.736 0.323978 0.673088 0
M  V30 7113 H 689.398 1.42314 1.33164 0
M  V30 7114 H 688.494 1.26863 2.85153 0
M  V30 7115 N 688.795 -1.27931 0.920396 0
M  V30 7116 C 690.072 -1.89728 0.475687 0
M  V30 7117 C 690.452 -1.8337 -1.04588 0
M  V30 7118 O 689.8 -1.27404 -1.89685 0
M  V30 7119 C 690.01 -3.33959 1.01354 0
M  V30 7120 C 691.358 -4.10907 1.06963 0
M  V30 7121 O 692.382 -3.42945 0.962646 0
M  V30 7122 O 691.241 -5.32399 1.23343 0
M  V30 7123 H 688.335 -0.81294 0.151845 0
M  V30 7124 H 690.881 -1.36252 1.01161 0
M  V30 7125 H 689.653 -3.32843 2.05746 0
M  V30 7126 H 689.276 -3.94944 0.458829 0
M  V30 7127 N 690.273 -0.685099 -1.4193 0
M  V30 7128 C 691.183 -0.013404 -2.34596 0
M  V30 7129 C 692.199 0.777589 -1.55658 0
M  V30 7130 O 693.375 0.717553 -1.88184 0
M  V30 7131 C 690.44 0.919031 -3.34297 0
M  V30 7132 C 689.501 0.121417 -4.29128 0
M  V30 7133 C 688.734 1.00944 -5.24067 0
M  V30 7134 O 688.957 2.24898 -5.24192 0
M  V30 7135 O 687.891 0.464724 -6.00103 0
M  V30 7136 H 691.717 -0.776978 -2.93593 0
M  V30 7137 H 689.302 -0.445379 -1.42607 0
M  V30 7138 H 691.184 1.45402 -3.9552 0
M  V30 7139 H 689.859 1.66228 -2.77759 0
M  V30 7140 H 688.766 -0.45792 -3.71287 0
M  V30 7141 H 690.099 -0.582937 -4.88736 0
M  V30 7142 N 691.751 1.51645 -0.429126 0
M  V30 7143 C 692.699 2.29119 0.400921 0
M  V30 7144 C 693.693 1.34628 1.02819 0
M  V30 7145 O 694.899 1.52004 0.964098 0
M  V30 7146 H 691.274 0.737273 0.148095 0
M  V30 7147 H 693.245 2.97144 -0.273457 0
M  V30 7148 C 691.994 3.13953 1.49429 0
M  V30 7149 H 691.317 3.86544 1.02097 0
M  V30 7150 H 692.757 3.71232 2.04849 0
M  V30 7151 C 691.216 2.28796 2.47293 0
M  V30 7152 O 691.746 1.94193 3.51642 0
M  V30 7153 N 689.952 1.92177 2.17982 0
M  V30 7154 H 689.499 2.20517 1.33154 0
M  V30 7155 H 689.457 1.35497 2.83704 0
M  V30 7156 N 693.229 0.160201 1.56784 0
M  V30 7157 C 694.454 -0.497373 2.01348 0
M  V30 7158 C 694.879 -1.56757 1.03966 0
M  V30 7159 O 694.237 -1.81292 0.0174455 0
M  V30 7160 C 694.285 -1.0628 3.44582 0
M  V30 7161 O 693.389 -2.17723 3.50244 0
M  V30 7162 H 692.73 -0.120295 0.653012 0
M  V30 7163 H 695.26 0.260821 2.02931 0
M  V30 7164 H 695.27 -1.38819 3.83658 0
M  V30 7165 H 693.945 -0.279166 4.14962 0
M  V30 7166 H 692.522 -1.86313 3.2302 0
M  V30 7167 N 694.707 -1.5719 -0.113559 0
M  V30 7168 C 695.935 -1.89328 -0.834422 0
M  V30 7169 C 696.35 -0.752018 -1.73177 0
M  V30 7170 O 695.707 0.276912 -1.80387 0
M  V30 7171 C 695.758 -3.20962 -1.66329 0
M  V30 7172 O 695.479 -4.30695 -0.802069 0
M  V30 7173 C 696.98 -3.6684 -2.48884 0
M  V30 7174 H 694.2 -0.626769 -0.239587 0
M  V30 7175 H 696.744 -2.04273 -0.0963195 0
M  V30 7176 H 694.899 -3.0767 -2.35409 0
M  V30 7177 H 695.313 -5.06175 -1.37431 0
M  V30 7178 H 696.787 -4.61692 -3.02563 0
M  V30 7179 H 697.264 -2.93765 -3.26495 0
M  V30 7180 H 697.87 -3.82938 -1.85036 0
M  V30 7181 N 696.185 0.383891 -1.52853 0
M  V30 7182 C 697.596 0.961591 -1.60032 0
M  V30 7183 C 697.947 1.90819 -0.456333 0
M  V30 7184 O 697.072 2.12288 0.419873 0
M  V30 7185 C 697.667 1.75078 -2.90057 0
M  V30 7186 C 696.226 2.2781 -2.99632 0
M  V30 7187 C 695.373 1.08512 -2.55187 0
M  V30 7188 H 698.324 0.163269 -1.57858 0
M  V30 7189 H 698.345 2.61046 -2.7683 0
M  V30 7190 H 697.857 1.06157 -3.73299 0
M  V30 7191 H 695.958 3.00028 -2.20939 0
M  V30 7192 H 696.071 2.56947 -4.0437 0
M  V30 7193 H 694.435 1.44667 -2.09627 0
M  V30 7194 H 695.218 0.41118 -3.40829 0
M  V30 7195 N 697.663 1.43903 0.642637 0
M  V30 7196 C 698.911 1.45791 1.39962 0
M  V30 7197 C 699.232 0.0873144 1.94804 0
M  V30 7198 O 698.502 -0.878825 1.75081 0
M  V30 7199 H 697.082 0.536797 0.519479 0
M  V30 7200 H 699.744 1.7959 0.757189 0
M  V30 7201 H 698.84 2.17665 2.2367 0
M  V30 7202 N 699.141 -0.881989 1.30609 0
M  V30 7203 C 700.418 -1.61563 1.10258 0
M  V30 7204 C 700.798 -2.08228 -0.347053 0
M  V30 7205 O 700.146 -1.85151 -1.33908 0
M  V30 7206 C 700.356 -2.78287 2.10612 0
M  V30 7207 C 701.704 -3.48545 2.4249 0
M  V30 7208 O 702.728 -2.88479 2.08945 0
M  V30 7209 O 701.587 -4.56873 2.99883 0
M  V30 7210 H 698.681 -0.710238 0.423663 0
M  V30 7211 H 701.227 -0.928503 1.42045 0
M  V30 7212 H 699.999 -2.41131 3.08174 0
M  V30 7213 H 699.622 -3.54695 1.79659 0
M  V30 7214 N 700.619 -1.13374 -1.09472 0
M  V30 7215 C 701.847 -0.918351 -1.85402 0
M  V30 7216 C 702.262 0.53281 -1.81126 0
M  V30 7217 O 701.619 1.36879 -1.20708 0
M  V30 7218 C 701.67 -1.39743 -3.33398 0
M  V30 7219 O 701.391 -2.79172 -3.37631 0
M  V30 7220 C 702.892 -1.22042 -4.2617 0
M  V30 7221 H 700.112 -0.327511 -0.585643 0
M  V30 7222 H 702.656 -1.50617 -1.38328 0
M  V30 7223 H 700.811 -0.852619 -3.77901 0
M  V30 7224 H 701.225 -3.00428 -4.29934 0
M  V30 7225 H 702.699 -1.60438 -5.2817 0
M  V30 7226 H 703.176 -0.162047 -4.38901 0
M  V30 7227 H 703.782 -1.75323 -3.87482 0
M  V30 7228 N 702.098 1.27442 -0.927168 0
M  V30 7229 C 703.345 1.94391 -0.567324 0
M  V30 7230 C 703.673 1.72875 0.891321 0
M  V30 7231 O 702.928 1.05071 1.65102 0
M  V30 7232 C 703.227 3.47413 -0.838994 0
M  V30 7233 C 702.893 3.89049 -2.2793 0
M  V30 7234 C 701.555 4.00127 -2.67305 0
M  V30 7235 C 703.907 4.10154 -3.21595 0
M  V30 7236 C 701.235 4.29697 -3.99471 0
M  V30 7237 C 703.587 4.41208 -4.53341 0
M  V30 7238 C 702.251 4.50499 -4.92551 0
M  V30 7239 H 701.521 0.711325 -0.207598 0
M  V30 7240 H 704.168 1.51523 -1.17103 0
M  V30 7241 H 702.473 3.91503 -0.152609 0
M  V30 7242 H 704.17 3.97354 -0.53955 0
M  V30 7243 H 700.76 3.80962 -1.96381 0
M  V30 7244 H 704.944 4.01036 -2.92377 0
M  V30 7245 H 700.2 4.35099 -4.29533 0
M  V30 7246 H 704.374 4.56486 -5.25922 0
M  V30 7247 H 702.001 4.73167 -5.94994 0
M  V30 7248 N 703.576 0.692616 1.41565 0
M  V30 7249 C 704.824 0.221896 2.00878 0
M  V30 7250 C 705.145 -1.18164 1.5512 0
M  V30 7251 O 704.415 -1.79679 0.78054 0
M  V30 7252 H 702.995 0.0790463 0.742806 0
M  V30 7253 H 705.657 0.893115 1.73232 0
M  V30 7254 H 704.753 0.23702 3.11199 0
M  V30 7255 N 705.054 -1.51416 0.437162 0
M  V30 7256 C 705.964 -2.31493 -0.380537 0
M  V30 7257 C 706.98 -1.40399 -1.02782 0
M  V30 7258 O 708.156 -1.73471 -1.02323 0
M  V30 7259 C 705.221 -3.1413 -1.46709 0
M  V30 7260 C 704.282 -4.21003 -0.839953 0
M  V30 7261 C 703.515 -4.9969 -1.87473 0
M  V30 7262 O 703.738 -4.79008 -3.09689 0
M  V30 7263 O 702.672 -5.8379 -1.46536 0
M  V30 7264 H 706.498 -3.02469 0.273183 0
M  V30 7265 H 704.083 -1.48059 0.199706 0
M  V30 7266 H 705.965 -3.65505 -2.09724 0
M  V30 7267 H 704.64 -2.45919 -2.10489 0
M  V30 7268 H 703.547 -3.73706 -0.171752 0
M  V30 7269 H 704.88 -4.91587 -0.245638 0
M  V30 7270 N 706.532 -0.168513 -1.56696 0
M  V30 7271 C 707.465 0.801477 -2.13662 0
M  V30 7272 C 708.443 1.22786 -1.06594 0
M  V30 7273 O 709.627 1.32014 -1.34554 0
M  V30 7274 C 706.754 2.07896 -2.6739 0
M  V30 7275 C 705.8 1.79681 -3.86803 0
M  V30 7276 S 706.633 0.968556 -5.26668 0
M  V30 7277 C 707.789 2.25676 -5.83799 0
M  V30 7278 H 708.022 0.317121 -2.95604 0
M  V30 7279 H 705.555 0.0461132 -1.54331 0
M  V30 7280 H 707.513 2.81272 -2.98992 0
M  V30 7281 H 706.174 2.53445 -1.85539 0
M  V30 7282 H 705.367 2.74461 -4.22714 0
M  V30 7283 H 704.969 1.14402 -3.56073 0
M  V30 7284 H 707.261 3.2116 -5.96542 0
M  V30 7285 H 708.204 1.94238 -6.80939 0
M  V30 7286 H 708.612 2.37308 -5.12197 0
M  V30 7287 N 708.01 1.57248 0.105221 0
M  V30 7288 C 709.256 1.85845 0.811753 0
M  V30 7289 C 709.589 0.756219 1.78871 0
M  V30 7290 O 708.864 -0.236736 1.93054 0
M  V30 7291 C 709.147 3.25059 1.54947 0
M  V30 7292 C 709 4.45898 0.591185 0
M  V30 7293 C 710.319 3.6203 2.50245 0
M  V30 7294 H 707.438 0.675973 0.293649 0
M  V30 7295 H 710.08 1.89849 0.0756269 0
M  V30 7296 H 708.23 3.21776 2.17698 0
M  V30 7297 H 709.902 4.61291 -0.0285352 0
M  V30 7298 H 708.145 4.33693 -0.0962343 0
M  V30 7299 H 708.816 5.40009 1.1443 0
M  V30 7300 H 711.292 3.66192 1.97593 0
M  V30 7301 H 710.168 4.60389 2.98886 0
M  V30 7302 H 710.429 2.90176 3.33542 0
M  V30 7303 N 709.488 -0.375779 1.53054 0
M  V30 7304 C 710.716 -1.14036 1.72637 0
M  V30 7305 C 711.131 -1.83342 0.450687 0
M  V30 7306 O 710.488 -1.7318 -0.575749 0
M  V30 7307 C 710.539 -2.17841 2.88492 0
M  V30 7308 O 710.26 -1.51358 4.11123 0
M  V30 7309 C 711.761 -3.06924 3.19863 0
M  V30 7310 H 708.981 -0.341386 0.577665 0
M  V30 7311 H 711.525 -0.437809 1.99759 0
M  V30 7312 H 709.68 -2.8371 2.63794 0
M  V30 7313 H 710.094 -2.20439 4.75928 0
M  V30 7314 H 711.568 -3.75763 4.04359 0
M  V30 7315 H 712.045 -3.71169 2.34798 0
M  V30 7316 H 712.651 -2.46684 3.46449 0
M  V30 7317 N 710.966 -1.44241 -0.634997 0
M  V30 7318 C 712.191 -1.50516 -1.42687 0
M  V30 7319 C 712.616 -0.129864 -1.87651 0
M  V30 7320 O 711.974 0.880164 -1.58502 0
M  V30 7321 C 712.022 -2.4714 -2.62591 0
M  V30 7322 O 711.126 -1.97025 -3.62291 0
M  V30 7323 H 710.467 -0.50841 -0.427101 0
M  V30 7324 H 712.997 -1.89337 -0.775408 0
M  V30 7325 H 713.007 -2.65048 -3.10183 0
M  V30 7326 H 711.682 -3.47039 -2.29209 0
M  V30 7327 H 710.259 -1.88866 -3.21534 0
M  V30 7328 N 712.444 0.87505 -1.31075 0
M  V30 7329 C 713.855 1.4433 -1.18431 0
M  V30 7330 C 714.206 1.9506 0.211189 0
M  V30 7331 O 713.331 1.85847 1.10859 0
M  V30 7332 C 713.926 2.62341 -2.14389 0
M  V30 7333 C 712.485 3.15225 -2.05694 0
M  V30 7334 C 711.632 1.87929 -2.03907 0
M  V30 7335 H 714.583 0.684061 -1.432 0
M  V30 7336 H 714.604 3.3887 -1.73053 0
M  V30 7337 H 714.116 2.25388 -3.15946 0
M  V30 7338 H 712.217 3.56812 -1.07314 0
M  V30 7339 H 712.33 3.77853 -2.94558 0
M  V30 7340 H 710.694 2.06679 -1.48849 0
M  V30 7341 H 711.477 1.53221 -3.07211 0
M  V30 7342 N 713.922 1.13953 1.08869 0
M  V30 7343 C 714.852 0.844824 2.17681 0
M  V30 7344 C 715.833 -0.198213 1.68941 0
M  V30 7345 O 717.018 -0.0559073 1.9412 0
M  V30 7346 C 714.148 0.316325 3.45856 0
M  V30 7347 C 713.102 1.29426 4.07962 0
M  V30 7348 C 712.428 0.625275 5.31031 0
M  V30 7349 C 713.728 2.65484 4.49795 0
M  V30 7350 H 715.422 1.75471 2.42591 0
M  V30 7351 H 712.968 0.845116 1.16592 0
M  V30 7352 H 714.921 0.0977876 4.21287 0
M  V30 7353 H 713.645 -0.628972 3.20486 0
M  V30 7354 H 712.304 1.49889 3.34558 0
M  V30 7355 H 711.952 -0.325678 5.01945 0
M  V30 7356 H 711.652 1.27777 5.73539 0
M  V30 7357 H 713.176 0.416152 6.0918 0
M  V30 7358 H 714.59 2.48957 5.16424 0
M  V30 7359 H 712.987 3.26963 5.03205 0
M  V30 7360 H 714.057 3.22717 3.61914 0
M  V30 7361 N 715.4 -1.26948 0.933913 0
M  V30 7362 C 716.628 -1.98186 0.59414 0
M  V30 7363 C 717.043 -1.69614 -0.829257 0
M  V30 7364 O 716.4 -0.960213 -1.55197 0
M  V30 7365 C 716.451 -3.52123 0.818026 0
M  V30 7366 O 716.172 -3.79698 2.18543 0
M  V30 7367 C 717.673 -4.40608 0.48781 0
M  V30 7368 H 714.893 -0.632305 0.224569 0
M  V30 7369 H 717.437 -1.61646 1.25263 0
M  V30 7370 H 715.592 -3.86851 0.206246 0
M  V30 7371 H 716.006 -4.7426 2.24005 0
M  V30 7372 H 717.48 -5.47606 0.695126 0
M  V30 7373 H 717.957 -4.35394 -0.576913 0
M  V30 7374 H 718.563 -4.11411 1.078 0
M  V30 7375 N 716.879 -0.700114 -1.41195 0
M  V30 7376 C 717.811 0.00155823 -2.292 0
M  V30 7377 C 718.824 0.739736 -1.45023 0
M  V30 7378 O 720.013 0.589684 -1.68478 0
M  V30 7379 C 717.113 1.02635 -3.22985 0
M  V30 7380 C 716.286 0.356871 -4.35942 0
M  V30 7381 C 715.345 1.28491 -5.10271 0
M  V30 7382 O 714.371 0.775562 -5.63892 0
M  V30 7383 N 715.573 2.61699 -5.18164 0
M  V30 7384 H 718.338 -0.754008 -2.9006 0
M  V30 7385 H 715.899 -0.546504 -1.52397 0
M  V30 7386 H 717.891 1.64902 -3.6958 0
M  V30 7387 H 716.461 1.68341 -2.63401 0
M  V30 7388 H 715.681 -0.445753 -3.91672 0
M  V30 7389 H 716.969 -0.108469 -5.08684 0
M  V30 7390 H 716.367 3.05594 -4.76056 0
M  V30 7391 H 714.924 3.19149 -5.6832 0
M  V30 7392 N 718.357 1.51182 -0.445186 0
M  V30 7393 C 719.287 2.30821 0.352686 0
M  V30 7394 C 720.268 1.36576 1.01395 0
M  V30 7395 O 721.453 1.65497 1.01609 0
M  V30 7396 C 718.583 3.15593 1.44976 0
M  V30 7397 C 717.537 4.1818 0.911553 0
M  V30 7398 C 716.863 4.91523 2.10497 0
M  V30 7399 C 718.163 5.22266 -0.059418 0
M  V30 7400 H 719.857 2.97771 -0.311936 0
M  V30 7401 H 717.403 1.43201 -0.151461 0
M  V30 7402 H 719.356 3.70091 2.01521 0
M  V30 7403 H 718.08 2.4648 2.14278 0
M  V30 7404 H 716.739 3.64746 0.368264 0
M  V30 7405 H 716.387 4.18906 2.78437 0
M  V30 7406 H 716.087 5.60898 1.7512 0
M  V30 7407 H 717.611 5.48847 2.6758 0
M  V30 7408 H 719.025 5.71789 0.415985 0
M  V30 7409 H 717.422 5.99213 -0.326152 0
M  V30 7410 H 718.492 4.7461 -0.993631 0
M  V30 7411 N 719.835 0.176821 1.56605 0
M  V30 7412 C 721.063 -0.472828 2.01425 0
M  V30 7413 C 721.478 -1.56436 1.05703 0
M  V30 7414 O 720.835 -1.82405 0.058808 0
M  V30 7415 C 720.886 -1.04607 3.46034 0
M  V30 7416 O 720.607 0.00189608 4.381 0
M  V30 7417 C 722.108 -1.7734 4.06282 0
M  V30 7418 H 719.328 -0.120503 0.660091 0
M  V30 7419 H 721.872 0.280166 2.02572 0
M  V30 7420 H 720.027 -1.74953 3.45645 0
M  V30 7421 H 720.441 -0.422118 5.22799 0
M  V30 7422 H 721.915 -2.12703 5.09374 0
M  V30 7423 H 722.392 -2.67043 3.4869 0
M  V30 7424 H 722.998 -1.11623 4.10391 0
M  V30 7425 N 721.313 -1.57302 -0.09688 0
M  V30 7426 C 722.243 -2.0497 -1.11846 0
M  V30 7427 C 723.224 -0.938278 -1.41882 0
M  V30 7428 O 724.409 -1.20943 -1.51942 0
M  V30 7429 C 721.539 -2.47264 -2.43881 0
M  V30 7430 C 720.493 -3.62053 -2.28257 0
M  V30 7431 C 719.819 -3.90318 -3.65453 0
M  V30 7432 C 721.119 -4.93005 -1.72461 0
M  V30 7433 H 722.813 -2.90567 -0.721888 0
M  V30 7434 H 720.359 -1.39786 -0.345803 0
M  V30 7435 H 722.312 -2.7922 -3.15617 0
M  V30 7436 H 721.036 -1.58664 -2.8547 0
M  V30 7437 H 719.695 -3.30341 -1.58967 0
M  V30 7438 H 719.343 -2.98889 -4.04567 0
M  V30 7439 H 719.043 -4.67597 -3.55846 0
M  V30 7440 H 720.567 -4.24747 -4.3866 0
M  V30 7441 H 721.981 -5.23354 -2.34036 0
M  V30 7442 H 720.378 -5.74436 -1.73618 0
M  V30 7443 H 721.448 -4.80053 -0.683898 0
M  V30 7444 N 722.791 0.367657 -1.53252 0
M  V30 7445 C 723.723 1.47032 -1.75824 0
M  V30 7446 C 724.736 1.49736 -0.63898 0
M  V30 7447 O 725.925 1.53253 -0.915193 0
M  V30 7448 C 723.025 2.85805 -1.82122 0
M  V30 7449 C 722.198 3.06822 -3.11736 0
M  V30 7450 C 721.257 4.25698 -3.09302 0
M  V30 7451 O 720.283 4.20972 -3.83107 0
M  V30 7452 N 721.485 5.33002 -2.29977 0
M  V30 7453 H 724.25 1.28048 -2.70968 0
M  V30 7454 H 721.811 0.557363 -1.52004 0
M  V30 7455 H 723.803 3.63465 -1.77975 0
M  V30 7456 H 722.373 2.98046 -0.942716 0
M  V30 7457 H 721.593 2.1684 -3.29202 0
M  V30 7458 H 722.881 3.17731 -3.97397 0
M  V30 7459 H 722.279 5.39703 -1.69521 0
M  V30 7460 H 720.836 6.09247 -2.3165 0
M  V30 7461 N 724.269 1.44576 0.627338 0
M  V30 7462 C 725.232 1.51372 1.72102 0
M  V30 7463 C 726.232 0.395329 1.55865 0
M  V30 7464 O 727.422 0.658094 1.61291 0
M  V30 7465 C 724.554 1.39129 3.11217 0
M  V30 7466 H 725.747 2.48798 1.6745 0
M  V30 7467 H 723.3 1.31724 0.841336 0
M  V30 7468 H 724.035 0.428114 3.21462 0
M  V30 7469 H 723.82 2.20229 3.24409 0
M  V30 7470 H 725.31 1.46874 3.90919 0
M  V30 7471 N 725.747 -0.868086 1.31537 0
M  V30 7472 C 726.972 -1.65926 1.24432 0
M  V30 7473 C 727.397 -1.87169 -0.186936 0
M  V30 7474 O 726.755 -1.4148 -1.13371 0
M  V30 7475 C 726.803 -3.00347 1.9956 0
M  V30 7476 O 725.907 -3.90221 1.33422 0
M  V30 7477 H 725.248 -0.506375 0.429512 0
M  V30 7478 H 727.778 -1.0822 1.73637 0
M  V30 7479 H 727.788 -3.50269 2.09226 0
M  V30 7480 H 726.463 -2.84205 3.03645 0
M  V30 7481 H 725.04 -3.48672 1.32219 0
M  V30 7482 N 727.225 -1.14528 -1.08264 0
M  V30 7483 C 728.636 -0.925261 -1.6216 0
M  V30 7484 C 728.987 0.535587 -1.88748 0
M  V30 7485 O 728.112 1.4048 -1.64604 0
M  V30 7486 C 728.707 -1.67316 -2.94603 0
M  V30 7487 C 727.266 -1.49868 -3.45278 0
M  V30 7488 C 726.413 -1.69471 -2.19487 0
M  V30 7489 H 729.364 -1.29687 -0.914707 0
M  V30 7490 H 729.385 -1.13721 -3.63109 0
M  V30 7491 H 728.897 -2.73635 -2.75219 0
M  V30 7492 H 726.998 -0.459032 -3.69762 0
M  V30 7493 H 727.111 -2.2696 -4.21931 0
M  V30 7494 H 725.475 -1.12048 -2.2873 0
M  V30 7495 H 726.258 -2.77136 -2.0261 0
M  V30 7496 N 728.703 1.26451 -0.940633 0
M  V30 7497 C 729.633 2.28773 -0.467479 0
M  V30 7498 C 730.614 1.63218 0.478955 0
M  V30 7499 O 731.799 1.90427 0.380929 0
M  V30 7500 C 728.929 3.46259 0.268656 0
M  V30 7501 C 727.883 4.23898 -0.591171 0
M  V30 7502 C 727.209 5.33993 0.274891 0
M  V30 7503 C 728.509 4.87974 -1.86223 0
M  V30 7504 H 730.203 2.68601 -1.32265 0
M  V30 7505 H 727.749 1.29123 -0.637436 0
M  V30 7506 H 729.702 4.16951 0.610696 0
M  V30 7507 H 728.426 3.05383 1.15796 0
M  V30 7508 H 727.085 3.54969 -0.916098 0
M  V30 7509 H 726.733 4.89358 1.16353 0
M  V30 7510 H 726.433 5.86849 -0.297006 0
M  V30 7511 H 727.957 6.07523 0.612213 0
M  V30 7512 H 729.371 5.50883 -1.58747 0
M  V30 7513 H 727.768 5.50945 -2.37866 0
M  V30 7514 H 728.838 4.10945 -2.57394 0
M  V30 7515 N 730.181 0.707592 1.40822 0
M  V30 7516 C 731.113 0.0105968 2.29198 0
M  V30 7517 C 732.126 -0.732035 1.45414 0
M  V30 7518 O 733.315 -0.580741 1.68789 0
M  V30 7519 C 730.415 -1.00921 3.23525 0
M  V30 7520 C 729.588 -0.333747 4.36125 0
M  V30 7521 C 728.647 -1.25783 5.10945 0
M  V30 7522 O 727.673 -0.745646 5.64295 0
M  V30 7523 N 728.875 -2.58947 5.19545 0
M  V30 7524 H 731.64 0.76938 2.89656 0
M  V30 7525 H 729.201 0.554579 1.52105 0
M  V30 7526 H 731.193 -1.6294 3.70449 0
M  V30 7527 H 729.763 -1.66942 2.6429 0
M  V30 7528 H 728.983 0.466518 3.9143 0
M  V30 7529 H 730.271 0.135444 5.0862 0
M  V30 7530 H 729.669 -3.03065 4.7767 0
M  V30 7531 H 728.226 -3.16131 5.70004 0
M  V30 7532 N 731.66 -1.50943 0.453197 0
M  V30 7533 C 732.909 -2.01402 -0.10951 0
M  V30 7534 C 733.222 -1.3411 -1.42386 0
M  V30 7535 O 734.428 -1.75626 -2.07045 0
M  V30 7536 C 732.884 -3.5906 -0.245693 0
M  V30 7537 C 732.492 -4.353 1.05916 0
M  V30 7538 C 734.236 -4.17617 -0.761318 0
M  V30 7539 C 732.143 -5.84699 0.887752 0
M  V30 7540 H 731.073 -0.752674 -0.0447013 0
M  V30 7541 H 733.724 -1.73913 0.585375 0
M  V30 7542 H 732.106 -3.83062 -1.00395 0
M  V30 7543 H 733.28 -4.23034 1.82698 0
M  V30 7544 H 731.595 -3.88269 1.50452 0
M  V30 7545 H 734.192 -5.26963 -0.906306 0
M  V30 7546 H 734.535 -3.77824 -1.74799 0
M  V30 7547 H 735.068 -3.97753 -0.0609416 0
M  V30 7548 H 731.807 -6.28933 1.84726 0
M  V30 7549 H 731.327 -5.99587 0.160006 0
M  V30 7550 H 733.006 -6.44682 0.547223 0
M  V30 7551 N 733.138 -0.185124 -1.56509 0
M  V30 7552 C 734.068 0.735098 -2.21627 0
M  V30 7553 C 735.049 1.2288 -1.1762 0
M  V30 7554 O 736.234 1.27945 -1.46095 0
M  V30 7555 C 733.364 1.95889 -2.86783 0
M  V30 7556 C 732.318 1.6005 -3.96948 0
M  V30 7557 C 731.644 2.90009 -4.4922 0
M  V30 7558 C 732.944 0.818008 -5.15855 0
M  V30 7559 H 734.638 0.192274 -2.98782 0
M  V30 7560 H 732.184 0.0910393 -1.43712 0
M  V30 7561 H 734.137 2.60779 -3.31017 0
M  V30 7562 H 732.861 2.52608 -2.07018 0
M  V30 7563 H 731.52 0.975237 -3.5339 0
M  V30 7564 H 731.168 3.44797 -3.6623 0
M  V30 7565 H 730.868 2.66778 -5.23549 0
M  V30 7566 H 732.392 3.55904 -4.9615 0
M  V30 7567 H 733.806 1.36979 -5.56695 0
M  V30 7568 H 732.203 0.684207 -5.96187 0
M  V30 7569 H 733.273 -0.182939 -4.84555 0
M  V30 7570 N 734.616 1.57351 0.0885366 0
M  V30 7571 C 735.862 1.86696 0.791996 0
M  V30 7572 C 736.195 0.775148 1.78059 0
M  V30 7573 O 735.47 -0.216247 1.93294 0
M  V30 7574 C 735.753 3.26684 1.51491 0
M  V30 7575 C 735.606 4.465 0.543858 0
M  V30 7576 C 736.925 3.64664 2.46391 0
M  V30 7577 H 734.044 0.679049 0.286463 0
M  V30 7578 H 736.686 1.89919 0.0554866 0
M  V30 7579 H 734.836 3.24067 2.14273 0
M  V30 7580 H 736.508 4.61235 -0.0774597 0
M  V30 7581 H 734.751 4.33567 -0.142228 0
M  V30 7582 H 735.422 5.41192 1.08696 0
M  V30 7583 H 737.898 3.68267 1.93698 0
M  V30 7584 H 736.774 4.63534 2.93986 0
M  V30 7585 H 737.035 2.93698 3.30445 0
M  V30 7586 N 736.094 -0.359525 1.53444 0
M  V30 7587 C 737.041 -1.44073 1.8031 0
M  V30 7588 C 738.011 -1.52946 0.647811 0
M  V30 7589 O 739.196 -1.68739 0.890614 0
M  V30 7590 C 736.336 -2.80941 2.00416 0
M  V30 7591 C 735.449 -2.80986 3.28132 0
M  V30 7592 C 734.584 -4.09468 3.38393 0
M  V30 7593 C 733.623 -4.03679 4.60119 0
M  V30 7594 N 732.76 -5.23821 4.675 0
M  V30 7595 H 737.6 -1.20464 2.72566 0
M  V30 7596 H 735.137 -0.583859 1.35017 0
M  V30 7597 H 737.095 -3.60459 2.1006 0
M  V30 7598 H 735.725 -3.02936 1.11489 0
M  V30 7599 H 734.777 -1.93666 3.27411 0
M  V30 7600 H 736.089 -2.72583 4.17732 0
M  V30 7601 H 735.243 -4.97404 3.47382 0
M  V30 7602 H 733.982 -4.20632 2.4682 0
M  V30 7603 H 732.987 -3.14129 4.51224 0
M  V30 7604 H 734.212 -3.94112 5.5304 0
M  V30 7605 H 732.158 -5.35559 3.7883 0
M  V30 7606 H 732.075 -5.17611 5.51013 0
M  V30 7607 H 733.343 -6.13572 4.8078 0
M  V30 7608 N 737.572 -1.44907 -0.619662 0
M  V30 7609 C 738.482 -1.55168 -1.75955 0
M  V30 7610 C 739.498 -0.43672 -1.6843 0
M  V30 7611 O 740.674 -0.695704 -1.89002 0
M  V30 7612 C 737.739 -1.50397 -3.12381 0
M  V30 7613 C 736.8 -2.72835 -3.31451 0
M  V30 7614 C 736.033 -2.68283 -4.61368 0
M  V30 7615 O 736.256 -1.74929 -5.42914 0
M  V30 7616 O 735.19 -3.59308 -4.82889 0
M  V30 7617 H 739.016 -2.51493 -1.7025 0
M  V30 7618 H 736.601 -1.27282 -0.782289 0
M  V30 7619 H 738.483 -1.50301 -3.93685 0
M  V30 7620 H 737.158 -0.572197 -3.18603 0
M  V30 7621 H 736.065 -2.78496 -2.49781 0
M  V30 7622 H 737.398 -3.65098 -3.30098 0
M  V30 7623 N 739.05 0.861098 -1.31996 0
M  V30 7624 C 739.96 2.00154 -1.22374 0
M  V30 7625 C 740.976 1.73447 -0.138631 0
M  V30 7626 O 742.152 1.98191 -0.358104 0
M  V30 7627 C 739.217 3.33696 -0.940645 0
M  V30 7628 C 738.278 3.73668 -2.11355 0
M  V30 7629 C 737.511 5.00837 -1.84386 0
M  V30 7630 O 737.734 5.64996 -0.783287 0
M  V30 7631 O 736.668 5.37787 -2.70313 0
M  V30 7632 H 740.494 2.11207 -2.18233 0
M  V30 7633 H 738.079 0.990768 -1.11822 0
M  V30 7634 H 739.961 4.13756 -0.798987 0
M  V30 7635 H 738.636 3.23698 -0.0121636 0
M  V30 7636 H 737.543 2.94211 -2.31065 0
M  V30 7637 H 738.876 3.88303 -3.02459 0
M  V30 7638 N 740.528 1.15101 1.07655 0
M  V30 7639 C 741.776 0.922149 1.79836 0
M  V30 7640 C 742.097 -0.552346 1.87014 0
M  V30 7641 O 741.367 -1.40145 1.3688 0
M  V30 7642 H 739.947 0.338182 0.666064 0
M  V30 7643 H 742.609 1.45107 1.30115 0
M  V30 7644 H 741.705 1.32883 2.82398 0
M  V30 7645 N 742.006 -1.2595 0.947325 0
M  V30 7646 C 743.417 -1.75389 0.639963 0
M  V30 7647 C 743.768 -1.77081 -0.844788 0
M  V30 7648 O 742.893 -1.3869 -1.66114 0
M  V30 7649 C 743.488 -3.18506 1.15496 0
M  V30 7650 C 742.047 -3.65534 0.897894 0
M  V30 7651 C 741.194 -2.44818 1.30228 0
M  V30 7652 H 744.145 -1.1194 1.12495 0
M  V30 7653 H 744.166 -3.77045 0.511627 0
M  V30 7654 H 743.678 -3.17243 2.23559 0
M  V30 7655 H 741.779 -3.72221 -0.168096 0
M  V30 7656 H 741.892 -4.54039 1.52922 0
M  V30 7657 H 740.256 -2.44291 0.720678 0
M  V30 7658 H 741.039 -2.46251 2.39198 0
M  V30 7659 N 743.484 -0.715051 -1.40445 0
M  V30 7660 C 744.9 -0.388555 -1.54798 0
M  V30 7661 C 745.1 1.10271 -1.68649 0
M  V30 7662 O 744.156 1.88875 -1.67578 0
M  V30 7663 C 745.469 -1.15414 -2.77669 0
M  V30 7664 C 747.017 -1.14039 -2.91486 0
M  V30 7665 C 747.492 -1.88812 -4.1727 0
M  V30 7666 N 748.983 -1.85878 -4.24268 0
M  V30 7667 C 749.718 -2.40558 -5.20499 0
M  V30 7668 N 749.214 -3.03791 -6.22642 0
M  V30 7669 N 751.007 -2.30703 -5.12574 0
M  V30 7670 H 743.158 -1.68201 -1.297 0
M  V30 7671 H 745.421 -0.710915 -0.627139 0
M  V30 7672 H 745.127 -2.20853 -2.7371 0
M  V30 7673 H 745.001 -0.745412 -3.69761 0
M  V30 7674 H 747.388 -0.0941996 -2.9495 0
M  V30 7675 H 747.469 -1.58834 -2.00513 0
M  V30 7676 H 747.113 -2.93422 -4.14568 0
M  V30 7677 H 747.043 -1.41438 -5.0725 0
M  V30 7678 H 749.534 -1.39794 -3.51093 0
M  V30 7679 H 749.847 -3.43032 -6.92495 0
M  V30 7680 H 748.192 -3.07875 -6.23087 0
M  V30 7681 H 751.383 -1.80961 -4.31707 0
M  V30 7682 H 751.556 -2.73618 -5.87398 0
M  V30 7683 N 744.962 1.50701 -0.461195 0
M  V30 7684 C 745.925 2.2686 0.326679 0
M  V30 7685 C 746.925 1.31243 0.929085 0
M  V30 7686 O 748.115 1.54754 0.799807 0
M  V30 7687 C 745.247 3.07844 1.46441 0
M  V30 7688 H 746.44 2.97954 -0.341095 0
M  V30 7689 H 743.993 1.54814 -0.214984 0
M  V30 7690 H 744.728 2.41223 2.16753 0
M  V30 7691 H 744.513 3.78101 1.03836 0
M  V30 7692 H 746.003 3.65469 2.02044 0
M  V30 7693 N 746.441 0.193421 1.56409 0
M  V30 7694 C 747.689 -0.444908 1.97142 0
M  V30 7695 C 748.01 -1.62268 1.08139 0
M  V30 7696 O 747.28 -1.95307 0.152326 0
M  V30 7697 H 745.86 -0.16736 0.728011 0
M  V30 7698 H 748.522 0.279763 1.92882 0
M  V30 7699 H 747.618 -0.790159 3.01932 0
M  V30 7700 N 747.919 -1.57396 -0.0801906 0
M  V30 7701 C 749.144 -1.91437 -0.797909 0
M  V30 7702 C 749.569 -0.789075 -1.70749 0
M  V30 7703 O 748.927 0.25857 -1.79447 0
M  V30 7704 C 748.975 -3.24402 -1.57467 0
M  V30 7705 O 748.079 -3.13043 -2.68473 0
M  V30 7706 H 747.42 -0.627109 -0.218243 0
M  V30 7707 H 749.95 -2.04537 -0.050949 0
M  V30 7708 H 749.96 -3.58072 -1.95571 0
M  V30 7709 H 748.635 -4.05884 -0.907229 0
M  V30 7710 H 747.212 -2.90915 -2.33287 0
M  V30 7711 N 749.397 0.351382 -1.53633 0
M  V30 7712 C 750.637 1.10102 -1.72212 0
M  V30 7713 C 751.001 1.86128 -0.471198 0
M  V30 7714 O 752.202 2.63445 -0.533887 0
M  V30 7715 C 750.473 2.02348 -2.94602 0
M  V30 7716 S 752.032 2.84641 -3.33954 0
M  V30 7717 H 748.85 0.372145 -0.60583 0
M  V30 7718 H 751.452 0.38044 -1.91763 0
M  V30 7719 H 750.156 1.45283 -3.83824 0
M  V30 7720 H 749.687 2.78856 -2.77493 0
M  V30 7721 H 751.702 4.04724 -2.87076 0
M  V30 7722 N 750.875 1.45233 0.611969 0
M  V30 7723 C 752.115 1.50558 1.38245 0
M  V30 7724 C 752.479 0.141959 1.91474 0
M  V30 7725 O 753.68 0.0698926 2.68709 0
M  V30 7726 C 751.951 2.55136 2.50281 0
M  V30 7727 S 753.51 2.79652 3.38142 0
M  V30 7728 H 750.328 0.532281 0.471378 0
M  V30 7729 H 752.93 1.82285 0.706578 0
M  V30 7730 H 751.634 3.52888 2.09518 0
M  V30 7731 H 751.165 2.25045 3.22674 0
M  V30 7732 H 753.18 2.12699 4.48301 0
M  V30 7733 N 752.353 -0.854086 1.3245 0
M  V30 7734 C 753.283 -1.97827 1.24044 0
M  V30 7735 C 754.264 -1.69646 0.124166 0
M  V30 7736 O 755.449 -1.91687 0.31143 0
M  V30 7737 C 752.579 -3.33673 0.963324 0
M  V30 7738 C 751.533 -3.76207 2.04089 0
M  V30 7739 C 750.859 -5.0969 1.61618 0
M  V30 7740 C 752.159 -3.91612 3.45597 0
M  V30 7741 H 753.853 -2.05118 2.18099 0
M  V30 7742 H 751.399 -0.985489 1.04996 0
M  V30 7743 H 753.352 -4.11871 0.891061 0
M  V30 7744 H 752.076 -3.26597 -0.0128649 0
M  V30 7745 H 750.735 -3.0026 2.10332 0
M  V30 7746 H 750.383 -4.99072 0.627418 0
M  V30 7747 H 750.083 -5.3912 2.33717 0
M  V30 7748 H 751.607 -5.90381 1.55829 0
M  V30 7749 H 753.021 -4.60163 3.4194 0
M  V30 7750 H 751.418 -4.3246 4.16051 0
M  V30 7751 H 752.488 -2.9451 3.85217 0
M  V30 7752 N 753.831 -1.1567 -1.07043 0
M  V30 7753 C 755.056 -0.957946 -1.83952 0
M  V30 7754 C 755.481 0.488807 -1.81638 0
M  V30 7755 O 754.839 1.34869 -1.21162 0
M  V30 7756 C 754.887 -1.48064 -3.288 0
M  V30 7757 O 753.991 -0.681921 -4.06723 0
M  V30 7758 H 753.332 -0.341453 -0.569479 0
M  V30 7759 H 755.862 -1.53728 -1.35015 0
M  V30 7760 H 755.872 -1.49484 -3.7963 0
M  V30 7761 H 754.547 -2.53388 -3.29799 0
M  V30 7762 H 753.124 -0.737612 -3.65532 0
M  V30 7763 N 755.309 1.25446 -0.953992 0
M  V30 7764 C 756.72 1.75047 -0.649255 0
M  V30 7765 C 757.071 1.77527 0.835385 0
M  V30 7766 O 756.196 1.39569 1.65377 0
M  V30 7767 C 756.791 3.17889 -1.17183 0
M  V30 7768 C 755.35 3.65052 -0.917267 0
M  V30 7769 C 754.497 2.44124 -1.31525 0
M  V30 7770 H 757.448 1.11342 -1.13087 0
M  V30 7771 H 757.469 3.76768 -0.531616 0
M  V30 7772 H 756.981 3.16052 -2.25239 0
M  V30 7773 H 755.082 3.72305 0.148354 0
M  V30 7774 H 755.195 4.53222 -1.55328 0
M  V30 7775 H 753.559 2.43906 -0.733624 0
M  V30 7776 H 754.342 2.44979 -2.405 0
M  V30 7777 N 756.787 0.722489 1.40064 0
M  V30 7778 C 758.035 0.264455 2.00362 0
M  V30 7779 C 758.356 -1.14847 1.57592 0
M  V30 7780 O 757.626 -1.77982 0.818477 0
M  V30 7781 H 756.206 0.0947846 0.740962 0
M  V30 7782 H 758.868 0.929659 1.71299 0
M  V30 7783 H 757.964 0.302977 3.10626 0
M  V30 7784 N 758.265 -1.50454 0.469181 0
M  V30 7785 C 759.513 -2.01916 -0.0862982 0
M  V30 7786 C 759.834 -1.35337 -1.40388 0
M  V30 7787 O 759.104 -0.498096 -1.89462 0
M  V30 7788 H 757.684 -0.746185 -0.0348825 0
M  V30 7789 H 760.346 -1.84804 0.619167 0
M  V30 7790 H 759.442 -3.11182 -0.239189 0
M  V30 7791 N 759.743 -0.201713 -1.56304 0
M  V30 7792 C 761.159 0.154025 -1.58855 0
M  V30 7793 C 761.359 1.60516 -1.21807 0
M  V30 7794 O 760.415 2.34193 -0.94393 0
M  V30 7795 C 761.728 -0.154319 -3.00304 0
M  V30 7796 C 763.276 -0.0949578 -3.12856 0
M  V30 7797 C 763.751 -0.376703 -4.56448 0
M  V30 7798 N 765.242 -0.325558 -4.62054 0
M  V30 7799 C 765.977 -0.51732 -5.71062 0
M  V30 7800 N 765.473 -0.769789 -6.8851 0
M  V30 7801 N 767.266 -0.45112 -5.60287 0
M  V30 7802 H 759.417 -1.14858 -1.78666 0
M  V30 7803 H 761.68 -0.458934 -0.829508 0
M  V30 7804 H 761.386 -1.16074 -3.31994 0
M  V30 7805 H 761.26 0.540014 -3.73314 0
M  V30 7806 H 763.647 0.902075 -2.80974 0
M  V30 7807 H 763.728 -0.822468 -2.42217 0
M  V30 7808 H 763.372 -1.37108 -4.89044 0
M  V30 7809 H 763.302 0.371772 -5.25286 0
M  V30 7810 H 765.793 -0.137308 -3.7765 0
M  V30 7811 H 766.106 -0.904744 -7.67486 0
M  V30 7812 H 764.451 -0.806758 -6.90302 0
M  V30 7813 H 767.642 -0.254253 -4.67409 0
M  V30 7814 H 767.815 -0.603982 -6.45179 0
M  V30 7815 N 761.222 1.57436 0.0718424 0
M  V30 7816 C 762.185 2.02703 1.06977 0
M  V30 7817 C 763.185 0.924062 1.31597 0
M  V30 7818 O 764.375 1.18894 1.27318 0
M  V30 7819 C 761.507 2.40763 2.41342 0
M  V30 7820 H 762.7 2.92098 0.679619 0
M  V30 7821 H 760.253 1.5304 0.317565 0
M  V30 7822 H 760.988 1.54394 2.8519 0
M  V30 7823 H 760.773 3.21249 2.24814 0
M  V30 7824 H 762.263 2.76361 3.13073 0
M  V30 7825 N 762.7 -0.34323 1.53817 0
M  V30 7826 C 763.61 -1.44493 1.84821 0
M  V30 7827 C 764.626 -1.57556 0.738381 0
M  V30 7828 O 765.802 -1.73026 1.03072 0
M  V30 7829 C 762.867 -2.79478 2.05166 0
M  V30 7830 C 761.928 -2.75756 3.29025 0
M  V30 7831 C 761.161 -4.04302 3.4839 0
M  V30 7832 O 761.384 -5.01595 2.71586 0
M  V30 7833 O 760.318 -4.08754 4.41819 0
M  V30 7834 H 764.144 -1.21209 2.78464 0
M  V30 7835 H 761.729 -0.535437 1.39476 0
M  V30 7836 H 763.611 -3.59419 2.19991 0
M  V30 7837 H 762.286 -3.02692 1.14713 0
M  V30 7838 H 761.193 -1.94434 3.19603 0
M  V30 7839 H 762.526 -2.57495 4.19472 0
M  V30 7840 N 764.178 -1.45556 -0.604258 0
M  V30 7841 C 765.108 -1.57327 -1.72541 0
M  V30 7842 C 766.089 -0.424637 -1.64714 0
M  V30 7843 O 767.274 -0.648196 -1.83063 0
M  V30 7844 C 764.404 -1.54279 -3.11152 0
M  V30 7845 C 763.358 -2.67893 -3.33792 0
M  V30 7846 C 762.684 -2.499 -4.72709 0
M  V30 7847 C 763.984 -4.0988 -3.23722 0
M  V30 7848 H 765.678 -2.51175 -1.62947 0
M  V30 7849 H 763.224 -1.20884 -0.782504 0
M  V30 7850 H 765.177 -1.6111 -3.89386 0
M  V30 7851 H 763.901 -0.569627 -3.21594 0
M  V30 7852 H 762.56 -2.60495 -2.57949 0
M  V30 7853 H 762.208 -1.50715 -4.79889 0
M  V30 7854 H 761.908 -3.26091 -4.88813 0
M  V30 7855 H 763.432 -2.5859 -5.5314 0
M  V30 7856 H 764.846 -4.18503 -3.91826 0
M  V30 7857 H 763.243 -4.86487 -3.51355 0
M  V30 7858 H 764.313 -4.31553 -2.21111 0
M  V30 7859 N 765.656 0.84705 -1.32902 0
M  V30 7860 C 766.566 1.98845 -1.2449 0
M  V30 7861 C 767.582 1.7329 -0.15702 0
M  V30 7862 O 768.758 1.978 -0.379104 0
M  V30 7863 C 765.823 3.32679 -0.975985 0
M  V30 7864 C 764.884 3.71405 -2.15306 0
M  V30 7865 C 764.117 4.98853 -1.89688 0
M  V30 7866 O 764.34 5.64134 -0.843168 0
M  V30 7867 O 763.274 5.34889 -2.76002 0
M  V30 7868 H 767.1 2.0888 -2.2046 0
M  V30 7869 H 764.685 0.978852 -1.12867 0
M  V30 7870 H 766.567 4.12885 -0.842826 0
M  V30 7871 H 765.242 3.23667 -0.0464954 0
M  V30 7872 H 764.149 2.91743 -2.34172 0
M  V30 7873 H 765.482 3.85073 -3.06561 0
M  V30 7874 N 767.134 1.16236 1.06428 0
M  V30 7875 C 768.382 0.941171 1.78847 0
M  V30 7876 C 768.703 -0.53248 1.87589 0
M  V30 7877 O 767.973 -1.38686 1.38358 0
M  V30 7878 H 766.553 0.345228 0.66244 0
M  V30 7879 H 769.215 1.46479 1.28569 0
M  V30 7880 H 768.311 1.35871 2.80972 0
M  V30 7881 N 768.612 -1.24939 0.960631 0
M  V30 7882 C 770.028 -1.45039 0.666018 0
M  V30 7883 C 770.228 -1.86021 -0.774501 0
M  V30 7884 O 769.284 -1.99392 -1.54916 0
M  V30 7885 C 770.597 -2.51775 1.64408 0
M  V30 7886 C 772.145 -2.6561 1.65592 0
M  V30 7887 C 772.62 -3.75536 2.62177 0
M  V30 7888 N 774.111 -3.82954 2.60577 0
M  V30 7889 C 774.846 -4.67517 3.31987 0
M  V30 7890 N 774.342 -5.56321 4.1289 0
M  V30 7891 N 776.135 -4.61535 3.20845 0
M  V30 7892 H 768.286 -0.96632 1.89145 0
M  V30 7893 H 770.549 -0.486034 0.813926 0
M  V30 7894 H 770.255 -2.28534 2.67329 0
M  V30 7895 H 770.129 -3.49804 1.41128 0
M  V30 7896 H 772.516 -2.88212 0.633846 0
M  V30 7897 H 772.597 -1.67962 1.92931 0
M  V30 7898 H 772.241 -3.53684 3.64514 0
M  V30 7899 H 772.171 -4.72682 2.32119 0
M  V30 7900 H 774.662 -3.19478 2.01847 0
M  V30 7901 H 774.975 -6.17787 4.64283 0
M  V30 7902 H 773.32 -5.5601 4.16987 0
M  V30 7903 H 776.511 -3.91169 2.57108 0
M  V30 7904 H 776.684 -5.27214 3.76762 0
M  V30 7905 N 770.09 -0.729906 -1.39679 0
M  V30 7906 C 771.367 -0.202149 -1.94553 0
M  V30 7907 C 771.747 1.29507 -1.66707 0
M  V30 7908 O 771.095 2.05819 -0.992517 0
M  V30 7909 C 771.305 -0.530279 -3.44948 0
M  V30 7910 C 772.653 -0.476808 -4.21914 0
M  V30 7911 O 773.677 -0.467171 -3.53123 0
M  V30 7912 O 772.536 -0.466869 -5.44502 0
M  V30 7913 H 769.63 -0.0351644 -0.826252 0
M  V30 7914 H 772.176 -0.808417 -1.49207 0
M  V30 7915 H 770.948 -1.56526 -3.5863 0
M  V30 7916 H 770.571 0.10522 -3.97461 0
M  V30 7917 N 771.568 1.50203 -0.477153 0
M  V30 7918 C 772.515 2.28656 0.31386 0
M  V30 7919 C 773.485 1.33977 0.981802 0
M  V30 7920 O 774.67 1.62919 0.993072 0
M  V30 7921 C 771.81 3.16027 1.38639 0
M  V30 7922 C 770.923 4.25743 0.732615 0
M  V30 7923 C 770.058 5.00363 1.78355 0
M  V30 7924 C 769.097 6.01945 1.11035 0
M  V30 7925 N 768.234 6.6982 2.10441 0
M  V30 7926 H 773.074 2.958 -0.361445 0
M  V30 7927 H 770.611 1.45867 -0.190093 0
M  V30 7928 H 772.569 3.6504 2.01994 0
M  V30 7929 H 771.199 2.50917 2.03077 0
M  V30 7930 H 770.251 3.80398 -0.0136546 0
M  V30 7931 H 771.563 4.98393 0.201513 0
M  V30 7932 H 770.717 5.53124 2.49276 0
M  V30 7933 H 769.456 4.27432 2.34847 0
M  V30 7934 H 768.461 5.48438 0.386797 0
M  V30 7935 H 769.686 6.76851 0.552248 0
M  V30 7936 H 767.632 5.99677 2.65939 0
M  V30 7937 H 767.549 7.38366 1.62332 0
M  V30 7938 H 768.817 7.27196 2.80724 0
M  V30 7939 N 773.046 0.209999 1.56195 0
M  V30 7940 C 774.323 -0.473214 1.89789 0
M  V30 7941 C 774.703 -1.78581 1.1257 0
M  V30 7942 O 774.051 -2.27325 0.231398 0
M  V30 7943 C 774.261 -0.677458 3.42362 0
M  V30 7944 C 775.609 -0.990114 4.12895 0
M  V30 7945 O 776.633 -0.764655 3.47896 0
M  V30 7946 O 775.492 -1.41737 5.278 0
M  V30 7947 H 772.586 -0.248622 0.788743 0
M  V30 7948 H 775.132 0.251324 1.67829 0
M  V30 7949 H 773.904 0.248878 3.90508 0
M  V30 7950 H 773.527 -1.45391 3.70064 0
M  V30 7951 N 774.524 -1.57472 -0.0634922 0
M  V30 7952 C 775.456 -2.00999 -1.10145 0
M  V30 7953 C 776.469 -0.917219 -1.34503 0
M  V30 7954 O 777.658 -1.19501 -1.32596 0
M  V30 7955 C 774.758 -2.34089 -2.45063 0
M  V30 7956 C 773.931 -3.65317 -2.40546 0
M  V30 7957 C 772.99 -3.85982 -3.57637 0
M  V30 7958 O 772.016 -4.5747 -3.38689 0
M  V30 7959 N 773.218 -3.28971 -4.78287 0
M  V30 7960 H 775.983 -2.90656 -0.730714 0
M  V30 7961 H 773.544 -1.59926 -0.252017 0
M  V30 7962 H 775.536 -2.4508 -3.22053 0
M  V30 7963 H 774.106 -1.50279 -2.74107 0
M  V30 7964 H 773.326 -3.65003 -1.48885 0
M  V30 7965 H 774.614 -4.51468 -2.34636 0
M  V30 7966 H 774.012 -2.70962 -4.96584 0
M  V30 7967 H 772.569 -3.45398 -5.5276 0
M  V30 7968 N 776.003 0.335068 -1.53997 0
M  V30 7969 C 776.936 1.43533 -1.77407 0
M  V30 7970 C 777.914 1.5017 -0.623529 0
M  V30 7971 O 779.098 1.67756 -0.85966 0
M  V30 7972 C 776.225 2.81712 -1.88033 0
M  V30 7973 C 775.271 2.92661 -3.10245 0
M  V30 7974 S 776.104 2.58254 -4.69111 0
M  V30 7975 C 777.26 3.98525 -4.82627 0
M  V30 7976 H 777.493 1.2346 -2.70453 0
M  V30 7977 H 775.026 0.531234 -1.44973 0
M  V30 7978 H 776.984 3.61314 -1.9484 0
M  V30 7979 H 775.645 2.99075 -0.959849 0
M  V30 7980 H 774.838 3.93931 -3.14379 0
M  V30 7981 H 774.44 2.21017 -3.01708 0
M  V30 7982 H 776.732 4.93146 -4.64557 0
M  V30 7983 H 777.675 3.9938 -5.84723 0
M  V30 7984 H 778.083 3.86945 -4.11016 0
M  V30 7985 N 777.481 1.45874 0.596531 0
M  V30 7986 C 778.411 1.5824 1.71705 0
M  V30 7987 C 779.392 0.433366 1.64487 0
M  V30 7988 O 780.577 0.657895 1.82717 0
M  V30 7989 C 777.707 1.55927 3.10329 0
M  V30 7990 C 776.661 2.69659 3.32367 0
M  V30 7991 C 775.987 2.52403 4.71377 0
M  V30 7992 C 777.287 4.11591 3.21544 0
M  V30 7993 H 778.981 2.52035 1.61613 0
M  V30 7994 H 776.527 1.21297 0.776082 0
M  V30 7995 H 778.48 1.63173 3.88526 0
M  V30 7996 H 777.204 0.586674 3.21288 0
M  V30 7997 H 775.863 2.61859 2.56564 0
M  V30 7998 H 775.511 1.53258 4.79083 0
M  V30 7999 H 775.211 3.28679 4.87077 0
M  V30 8000 H 776.735 2.6152 5.5176 0
M  V30 8001 H 778.149 4.20576 3.89601 0
M  V30 8002 H 776.546 4.88344 3.4877 0
M  V30 8003 H 777.616 4.32719 2.1882 0
M  V30 8004 N 778.959 -0.83999 1.33349 0
M  V30 8005 C 779.891 -1.95678 1.19344 0
M  V30 8006 C 780.904 -1.62322 0.124692 0
M  V30 8007 O 782.093 -1.74516 0.375012 0
M  V30 8008 C 779.193 -3.29133 0.807771 0
M  V30 8009 C 778.366 -3.9063 1.96792 0
M  V30 8010 C 777.425 -5.02438 1.56341 0
M  V30 8011 O 776.451 -5.21646 2.27759 0
M  V30 8012 N 777.653 -5.78612 0.467767 0
M  V30 8013 H 780.418 -2.08229 2.15548 0
M  V30 8014 H 777.979 -1.01566 1.26079 0
M  V30 8015 H 779.971 -4.01355 0.519282 0
M  V30 8016 H 778.541 -3.12535 -0.063555 0
M  V30 8017 H 777.761 -3.11011 2.4221 0
M  V30 8018 H 779.049 -4.2845 2.74422 0
M  V30 8019 H 778.447 -5.65559 -0.126324 0
M  V30 8020 H 777.004 -6.51362 0.238945 0
M  V30 8021 N 780.437 -1.16799 -1.0581 0
M  V30 8022 C 781.347 -0.893492 -2.16919 0
M  V30 8023 C 782.363 0.136061 -1.73467 0
M  V30 8024 O 783.539 -0.0417348 -2.01357 0
M  V30 8025 C 780.604 -0.403763 -3.44341 0
M  V30 8026 C 779.665 -1.49914 -4.02274 0
M  V30 8027 C 778.898 -1.03269 -5.23614 0
M  V30 8028 O 779.121 0.115647 -5.70283 0
M  V30 8029 O 778.055 -1.8231 -5.73626 0
M  V30 8030 H 781.881 -1.82274 -2.42919 0
M  V30 8031 H 779.466 -0.948361 -1.1544 0
M  V30 8032 H 781.348 -0.137874 -4.21174 0
M  V30 8033 H 780.023 0.497413 -3.19855 0
M  V30 8034 H 778.93 -1.81883 -3.26909 0
M  V30 8035 H 780.263 -2.3758 -4.31064 0
M  V30 8036 N 781.915 1.24427 -0.967243 0
M  V30 8037 C 782.862 2.25398 -0.496419 0
M  V30 8038 C 783.832 1.59667 0.457781 0
M  V30 8039 O 785.017 1.87213 0.368246 0
M  V30 8040 C 782.157 3.44474 0.207693 0
M  V30 8041 C 781.27 4.24804 -0.785221 0
M  V30 8042 C 780.405 5.31169 -0.0572631 0
M  V30 8043 C 779.444 6.03195 -1.04027 0
M  V30 8044 N 778.581 7.01265 -0.34235 0
M  V30 8045 H 783.421 2.65039 -1.36229 0
M  V30 8046 H 780.958 1.30288 -0.682902 0
M  V30 8047 H 782.916 4.12376 0.632612 0
M  V30 8048 H 781.546 3.05672 1.03752 0
M  V30 8049 H 780.598 3.56445 -1.32858 0
M  V30 8050 H 781.91 4.74599 -1.53483 0
M  V30 8051 H 781.064 6.05205 0.425674 0
M  V30 8052 H 779.803 4.8228 0.725047 0
M  V30 8053 H 778.808 5.27964 -1.53409 0
M  V30 8054 H 780.033 6.54173 -1.82302 0
M  V30 8055 H 777.979 6.54648 0.420993 0
M  V30 8056 H 777.896 7.48939 -1.03084 0
M  V30 8057 H 779.164 7.7941 0.118634 0
M  V30 8058 N 783.393 0.737304 1.3929 0
M  V30 8059 C 784.67 0.212464 1.94443 0
M  V30 8060 C 785.05 -1.28621 1.67391 0
M  V30 8061 O 784.398 -2.0529 1.00342 0
M  V30 8062 C 784.608 0.548565 3.44662 0
M  V30 8063 C 785.956 0.499177 4.21656 0
M  V30 8064 O 786.98 0.485892 3.5287 0
M  V30 8065 O 785.839 0.495739 5.44247 0
M  V30 8066 H 782.933 0.0395457 0.826054 0
M  V30 8067 H 785.479 0.816319 1.48776 0
M  V30 8068 H 784.251 1.58426 3.57795 0
M  V30 8069 H 783.874 -0.0841399 3.97511 0
M  V30 8070 N 784.871 -1.49948 0.485112 0
M  V30 8071 C 785.818 -2.28819 -0.301729 0
M  V30 8072 C 786.788 -1.34496 -0.974683 0
M  V30 8073 O 787.973 -1.63444 -0.984418 0
M  V30 8074 C 785.113 -3.16758 -1.36961 0
M  V30 8075 C 784.226 -4.26125 -0.710027 0
M  V30 8076 C 783.361 -5.01302 -1.75699 0
M  V30 8077 C 782.4 -6.02525 -1.07841 0
M  V30 8078 N 781.537 -6.70927 -2.06886 0
M  V30 8079 H 786.377 -2.95604 0.377127 0
M  V30 8080 H 783.914 -1.45764 0.197826 0
M  V30 8081 H 785.872 -3.66106 -2.00056 0
M  V30 8082 H 784.502 -2.51991 -2.01744 0
M  V30 8083 H 783.554 -3.80385 0.0338278 0
M  V30 8084 H 784.866 -4.98493 -0.175079 0
M  V30 8085 H 784.02 -5.54438 -2.46339 0
M  V30 8086 H 782.759 -4.28672 -2.32577 0
M  V30 8087 H 781.764 -5.48635 -0.357706 0
M  V30 8088 H 782.989 -6.77134 -0.516345 0
M  V30 8089 H 780.935 -6.01079 -2.62755 0
M  V30 8090 H 780.852 -7.39216 -1.58414 0
M  V30 8091 H 782.12 -7.28675 -2.76863 0
M  V30 8092 N 786.349 -0.21828 -1.56081 0
M  V30 8093 C 787.281 0.725447 -2.17416 0
M  V30 8094 C 788.294 1.15995 -1.14233 0
M  V30 8095 O 789.483 1.09166 -1.41227 0
M  V30 8096 C 786.583 1.99401 -2.7403 0
M  V30 8097 C 785.756 1.7156 -4.02351 0
M  V30 8098 C 784.815 2.8309 -4.43561 0
M  V30 8099 O 783.841 2.51701 -5.10525 0
M  V30 8100 N 785.043 4.11972 -4.08973 0
M  V30 8101 H 787.808 0.200801 -2.99027 0
M  V30 8102 H 785.369 -0.0371514 -1.61857 0
M  V30 8103 H 787.361 2.73198 -2.98571 0
M  V30 8104 H 785.931 2.42923 -1.96742 0
M  V30 8105 H 785.151 0.814233 -3.85699 0
M  V30 8106 H 786.439 1.50385 -4.86068 0
M  V30 8107 H 785.837 4.40319 -3.55156 0
M  V30 8108 H 784.394 4.82323 -4.38415 0
M  V30 8109 N 787.827 1.57504 0.0551401 0
M  V30 8110 C 789.076 1.87237 0.750009 0
M  V30 8111 C 789.389 0.813268 1.77891 0
M  V30 8112 O 790.595 0.99898 2.52453 0
M  V30 8113 C 789.051 3.32187 1.38491 0
M  V30 8114 C 788.659 4.46267 0.393707 0
M  V30 8115 C 790.403 3.71101 2.06117 0
M  V30 8116 C 788.31 5.82265 1.03547 0
M  V30 8117 H 787.24 0.698524 0.283866 0
M  V30 8118 H 789.891 1.835 0.00365997 0
M  V30 8119 H 788.273 3.30588 2.18008 0
M  V30 8120 H 789.447 4.59289 -0.372865 0
M  V30 8121 H 787.762 4.16015 -0.17902 0
M  V30 8122 H 790.359 4.70012 2.54937 0
M  V30 8123 H 790.702 3.01751 2.86796 0
M  V30 8124 H 791.235 3.74762 1.33409 0
M  V30 8125 H 787.974 6.54949 0.268644 0
M  V30 8126 H 787.494 5.73012 1.7725 0
M  V30 8127 H 789.173 6.28148 1.55047 0
M  V30 8128 N 789.305 -0.326896 1.54172 0
M  V30 8129 C 790.215 -1.42525 1.86343 0
M  V30 8130 C 791.231 -1.56764 0.75505 0
M  V30 8131 O 792.407 -1.71924 1.04901 0
M  V30 8132 C 789.472 -2.77286 2.08119 0
M  V30 8133 C 788.533 -2.7225 3.31931 0
M  V30 8134 C 787.766 -4.00584 3.52659 0
M  V30 8135 O 787.989 -4.98686 2.76891 0
M  V30 8136 O 786.923 -4.04045 4.46129 0
M  V30 8137 H 790.749 -1.18249 2.79734 0
M  V30 8138 H 788.334 -0.520614 1.40036 0
M  V30 8139 H 790.216 -3.57065 2.23791 0
M  V30 8140 H 788.891 -3.01459 1.17917 0
M  V30 8141 H 787.798 -1.91033 3.21647 0
M  V30 8142 H 789.131 -2.53032 4.2218 0
M  V30 8143 N 790.784 -1.46188 -0.588786 0
M  V30 8144 C 791.747 -1.55882 -1.68029 0
M  V30 8145 C 792.747 -0.436515 -1.54762 0
M  V30 8146 O 793.937 -0.700626 -1.59489 0
M  V30 8147 C 791.069 -1.47332 -3.07418 0
M  V30 8148 H 792.262 -2.5315 -1.60795 0
M  V30 8149 H 789.815 -1.33908 -0.806116 0
M  V30 8150 H 790.55 -0.513193 -3.20214 0
M  V30 8151 H 790.335 -2.28753 -3.18456 0
M  V30 8152 H 791.825 -1.57187 -3.86887 0
M  V30 8153 N 792.262 0.832906 -1.33792 0
M  V30 8154 C 793.192 1.95828 -1.27176 0
M  V30 8155 C 794.173 1.69427 -0.15114 0
M  V30 8156 O 795.358 1.91167 -0.341886 0
M  V30 8157 C 792.488 3.32098 -1.01629 0
M  V30 8158 C 791.442 3.72912 -2.10049 0
M  V30 8159 C 790.768 5.07054 -1.69706 0
M  V30 8160 C 792.068 3.86064 -3.51783 0
M  V30 8161 H 793.762 2.01622 -2.21334 0
M  V30 8162 H 791.308 0.96866 -1.0655 0
M  V30 8163 H 793.261 4.10402 -0.956474 0
M  V30 8164 H 791.985 3.26577 -0.0390956 0
M  V30 8165 H 790.644 2.96876 -2.15082 0
M  V30 8166 H 790.292 4.9801 -0.706737 0
M  V30 8167 H 789.992 5.35333 -2.42264 0
M  V30 8168 H 791.516 5.87827 -1.65202 0
M  V30 8169 H 792.93 4.54665 -3.49218 0
M  V30 8170 H 791.327 4.25787 -4.22878 0
M  V30 8171 H 792.397 2.88344 -3.89854 0
M  V30 8172 N 793.74 1.17359 1.05189 0
M  V30 8173 C 794.968 0.986529 1.81866 0
M  V30 8174 C 795.383 -0.46522 1.82979 0
M  V30 8175 O 794.74 -1.32305 1.25705 0
M  V30 8176 C 794.791 1.52021 3.27982 0
M  V30 8177 O 794.512 2.91511 3.27037 0
M  V30 8178 C 796.013 1.37774 4.21347 0
M  V30 8179 H 793.233 0.349021 0.573084 0
M  V30 8180 H 795.777 1.55648 1.32643 0
M  V30 8181 H 793.932 0.992287 3.74476 0
M  V30 8182 H 794.346 3.16178 4.18488 0
M  V30 8183 H 795.82 1.7993 5.21852 0
M  V30 8184 H 796.297 0.32483 4.37997 0
M  V30 8185 H 796.903 1.89583 3.80708 0
M  V30 8186 N 795.218 -1.23913 0.973828 0
M  V30 8187 C 796.634 -1.44325 0.681363 0
M  V30 8188 C 796.834 -1.86832 -0.754728 0
M  V30 8189 O 795.89 -2.01024 -1.52793 0
M  V30 8190 C 797.203 -2.50017 1.67069 0
M  V30 8191 C 798.751 -2.63838 1.68399 0
M  V30 8192 C 799.226 -3.72734 2.66145 0
M  V30 8193 N 800.717 -3.80169 2.64624 0
M  V30 8194 C 801.452 -4.6397 3.36927 0
M  V30 8195 N 800.948 -5.51911 4.18767 0
M  V30 8196 N 802.741 -4.58106 3.25722 0
M  V30 8197 H 794.892 -0.946204 1.9016 0
M  V30 8198 H 797.155 -0.477374 0.819035 0
M  V30 8199 H 796.861 -2.25686 2.69738 0
M  V30 8200 H 796.735 -3.48287 1.4483 0
M  V30 8201 H 799.122 -2.87524 0.664379 0
M  V30 8202 H 799.203 -1.65906 1.94702 0
M  V30 8203 H 798.847 -3.49797 3.68245 0
M  V30 8204 H 798.777 -4.70193 2.3712 0
M  V30 8205 H 801.268 -3.17319 2.05224 0
M  V30 8206 H 801.581 -6.12828 4.70809 0
M  V30 8207 H 799.926 -5.51556 4.2286 0
M  V30 8208 H 803.117 -3.8842 2.61242 0
M  V30 8209 H 803.29 -5.23188 3.82333 0
M  V30 8210 N 796.696 -0.74468 -1.38897 0
M  V30 8211 C 797.629 -0.0596441 -2.28122 0
M  V30 8212 C 798.607 0.73764 -1.44906 0
M  V30 8213 O 799.791 0.718155 -1.74284 0
M  V30 8214 C 796.918 0.922533 -3.25894 0
M  V30 8215 C 795.964 0.212566 -4.2597 0
M  V30 8216 S 796.797 -1.08035 -5.24489 0
M  V30 8217 C 797.953 -0.101014 -6.25818 0
M  V30 8218 H 798.186 -0.816289 -2.85874 0
M  V30 8219 H 795.719 -0.536882 -1.44765 0
M  V30 8220 H 797.677 1.4839 -3.82741 0
M  V30 8221 H 796.338 1.65209 -2.67142 0
M  V30 8222 H 795.531 0.956106 -4.94848 0
M  V30 8223 H 795.133 -0.277029 -3.72973 0
M  V30 8224 H 797.425 0.736072 -6.7349 0
M  V30 8225 H 798.368 -0.757206 -7.0404 0
M  V30 8226 H 798.776 0.275706 -5.63826 0
M  V30 8227 N 798.174 1.49689 -0.493057 0
M  V30 8228 C 799.104 2.31826 0.279073 0
M  V30 8229 C 800.085 1.39733 0.969987 0
M  V30 8230 O 801.27 1.68646 0.962925 0
M  V30 8231 C 798.4 3.20046 1.34862 0
M  V30 8232 C 797.354 4.20869 0.77805 0
M  V30 8233 C 796.68 4.97971 1.94753 0
M  V30 8234 C 797.98 5.21813 -0.225543 0
M  V30 8235 H 799.674 2.96627 -0.406512 0
M  V30 8236 H 797.22 1.42647 -0.196943 0
M  V30 8237 H 799.173 3.76315 1.89645 0
M  V30 8238 H 797.897 2.53172 2.06328 0
M  V30 8239 H 796.556 3.65733 0.252036 0
M  V30 8240 H 796.204 4.27552 2.64969 0
M  V30 8241 H 795.904 5.66186 1.57187 0
M  V30 8242 H 797.428 5.57082 2.49984 0
M  V30 8243 H 798.842 5.72823 0.233864 0
M  V30 8244 H 797.239 5.97872 -0.516622 0
M  V30 8245 H 798.309 4.71209 -1.14412 0
M  V30 8246 N 799.652 0.226554 1.55963 0
M  V30 8247 C 801.068 -0.128733 1.5908 0
M  V30 8248 C 801.268 -1.58558 1.24345 0
M  V30 8249 O 800.324 -2.32661 0.981069 0
M  V30 8250 C 801.637 0.202076 3.0002 0
M  V30 8251 C 803.185 0.144718 3.12665 0
M  V30 8252 C 803.66 0.449272 4.55791 0
M  V30 8253 N 805.151 0.399026 4.61478 0
M  V30 8254 C 805.886 0.608106 5.70166 0
M  V30 8255 N 805.382 0.879227 6.87198 0
M  V30 8256 N 807.175 0.5402 5.59498 0
M  V30 8257 H 799.326 1.17686 1.76816 0
M  V30 8258 H 801.589 0.472072 0.822102 0
M  V30 8259 H 801.295 1.21341 3.30105 0
M  V30 8260 H 801.169 -0.480554 3.74126 0
M  V30 8261 H 803.556 -0.857261 2.82374 0
M  V30 8262 H 803.637 0.860899 2.40878 0
M  V30 8263 H 803.281 1.44871 4.86801 0
M  V30 8264 H 803.211 -0.288157 5.25811 0
M  V30 8265 H 805.702 0.197372 3.77384 0
M  V30 8266 H 806.015 1.02673 7.65949 0
M  V30 8267 H 804.36 0.916477 6.88931 0
M  V30 8268 H 807.551 0.328581 4.66945 0
M  V30 8269 H 807.724 0.706548 6.44137 0
M  V30 8270 N 801.13 -1.57531 -0.0467866 0
M  V30 8271 C 802.062 -2.02156 -1.08007 0
M  V30 8272 C 803.075 -0.931434 -1.33522 0
M  V30 8273 O 804.264 -1.209 -1.31321 0
M  V30 8274 C 801.364 -2.36675 -2.42566 0
M  V30 8275 C 800.537 -3.67848 -2.36658 0
M  V30 8276 C 799.596 -3.89754 -3.53523 0
M  V30 8277 O 798.622 -4.61036 -3.33818 0
M  V30 8278 N 799.824 -3.34025 -4.74771 0
M  V30 8279 H 802.589 -2.91414 -0.699845 0
M  V30 8280 H 800.15 -1.60185 -0.235041 0
M  V30 8281 H 802.142 -2.48482 -3.19435 0
M  V30 8282 H 800.712 -1.53178 -2.72498 0
M  V30 8283 H 799.932 -3.66561 -1.45005 0
M  V30 8284 H 801.22 -4.53931 -2.29835 0
M  V30 8285 H 800.618 -2.76214 -4.93683 0
M  V30 8286 H 799.175 -3.51241 -5.49066 0
M  V30 8287 N 802.608 0.318715 -1.54344 0
M  V30 8288 C 803.555 1.39242 -1.84066 0
M  V30 8289 C 804.525 1.51175 -0.688134 0
M  V30 8290 O 805.71 1.66318 -0.935039 0
M  V30 8291 C 802.85 2.75528 -2.07794 0
M  V30 8292 C 801.963 2.72187 -3.35467 0
M  V30 8293 C 801.098 4.00352 -3.4913 0
M  V30 8294 C 800.137 3.91338 -4.7066 0
M  V30 8295 N 799.274 5.11242 -4.81224 0
M  V30 8296 H 804.114 1.13196 -2.75664 0
M  V30 8297 H 801.651 0.547857 -1.36517 0
M  V30 8298 H 803.609 3.54763 -2.19543 0
M  V30 8299 H 802.239 2.99873 -1.19482 0
M  V30 8300 H 801.291 1.84917 -3.3243 0
M  V30 8301 H 802.603 2.61411 -4.24812 0
M  V30 8302 H 801.757 4.88019 -3.60448 0
M  V30 8303 H 800.496 4.1394 -2.57886 0
M  V30 8304 H 799.501 3.02055 -4.59394 0
M  V30 8305 H 800.726 3.7931 -5.63294 0
M  V30 8306 H 798.672 5.25327 -3.92897 0
M  V30 8307 H 798.589 5.0282 -5.64543 0
M  V30 8308 H 799.857 6.0061 -4.96879 0
M  V30 8309 N 804.086 1.46499 0.581025 0
M  V30 8310 C 805.018 1.53225 1.70455 0
M  V30 8311 C 806.031 0.420443 1.57277 0
M  V30 8312 O 807.22 0.688888 1.64671 0
M  V30 8313 C 804.32 1.39803 3.08721 0
M  V30 8314 C 803.493 2.65132 3.47884 0
M  V30 8315 C 802.552 2.45886 4.65217 0
M  V30 8316 O 801.578 3.19615 4.70993 0
M  V30 8317 N 802.78 1.5216 5.60203 0
M  V30 8318 H 805.545 2.50098 1.65139 0
M  V30 8319 H 803.106 1.42576 0.76705 0
M  V30 8320 H 805.098 1.24697 3.8501 0
M  V30 8321 H 803.668 0.51104 3.08394 0
M  V30 8322 H 802.888 2.95169 2.61284 0
M  V30 8323 H 804.176 3.48385 3.70817 0
M  V30 8324 H 803.574 0.913646 5.58273 0
M  V30 8325 H 802.131 1.43017 6.35916 0
M  V30 8326 N 805.565 -0.825799 1.34232 0
M  V30 8327 C 806.497 -1.94401 1.21413 0
M  V30 8328 C 807.51 -1.6218 0.141902 0
M  V30 8329 O 808.699 -1.74109 0.3935 0
M  V30 8330 C 805.799 -3.28257 0.842635 0
M  V30 8331 C 804.972 -3.88521 2.00924 0
M  V30 8332 C 804.031 -5.00752 1.61661 0
M  V30 8333 O 803.057 -5.19201 2.33279 0
M  V30 8334 N 804.259 -5.78084 0.52911 0
M  V30 8335 H 807.024 -2.05931 2.17744 0
M  V30 8336 H 804.585 -1.00223 1.27149 0
M  V30 8337 H 806.577 -4.00781 0.561822 0
M  V30 8338 H 805.147 -3.12585 -0.0304029 0
M  V30 8339 H 804.367 -3.08425 2.45495 0
M  V30 8340 H 805.655 -4.25516 2.78951 0
M  V30 8341 H 805.053 -5.65661 -0.0663322 0
M  V30 8342 H 803.61 -6.51072 0.308017 0
M  V30 8343 N 807.043 -1.17915 -1.04565 0
M  V30 8344 C 807.973 -0.925033 -2.14395 0
M  V30 8345 C 808.954 0.135375 -1.6956 0
M  V30 8346 O 810.139 -0.0161774 -1.94193 0
M  V30 8347 C 807.269 -0.444469 -3.44444 0
M  V30 8348 C 806.223 -1.44478 -4.02877 0
M  V30 8349 C 805.549 -0.821933 -5.28345 0
M  V30 8350 C 806.849 -2.81995 -4.39632 0
M  V30 8351 H 808.543 -1.84354 -2.35911 0
M  V30 8352 H 806.089 -0.887806 -1.13375 0
M  V30 8353 H 808.042 -0.254078 -4.20633 0
M  V30 8354 H 806.766 0.509592 -3.226 0
M  V30 8355 H 805.425 -1.62203 -3.28764 0
M  V30 8356 H 805.073 0.139161 -5.02807 0
M  V30 8357 H 804.773 -1.48976 -5.68401 0
M  V30 8358 H 806.297 -0.641959 -6.07216 0
M  V30 8359 H 807.711 -2.67952 -5.06828 0
M  V30 8360 H 806.108 -3.45414 -4.90723 0
M  V30 8361 H 807.178 -3.35927 -3.49687 0
M  V30 8362 N 808.521 1.23394 -0.980386 0
M  V30 8363 C 809.767 1.92094 -0.650223 0
M  V30 8364 C 810.1 1.76309 0.814173 0
M  V30 8365 O 809.375 1.12406 1.5873 0
M  V30 8366 C 809.658 3.44713 -1.04139 0
M  V30 8367 C 809.511 3.69606 -2.56342 0
M  V30 8368 C 810.83 4.36191 -0.585296 0
M  V30 8369 H 807.949 0.697618 -0.237695 0
M  V30 8370 H 810.591 1.45517 -1.22167 0
M  V30 8371 H 808.741 3.84513 -0.55515 0
M  V30 8372 H 810.413 3.39288 -3.1254 0
M  V30 8373 H 808.656 3.14318 -2.98976 0
M  V30 8374 H 809.327 4.76441 -2.78762 0
M  V30 8375 H 811.803 4.03836 -1.00276 0
M  V30 8376 H 810.679 5.41679 -0.887428 0
M  V30 8377 H 810.94 4.39097 0.51438 0
M  V30 8378 N 809.999 0.752036 1.385 0
M  V30 8379 C 810.909 0.125318 2.34265 0
M  V30 8380 C 811.925 -0.702437 1.59191 0
M  V30 8381 O 813.101 -0.626951 1.91393 0
M  V30 8382 C 810.166 -0.758486 3.38301 0
M  V30 8383 C 809.227 0.0834636 4.29219 0
M  V30 8384 C 808.46 -0.758252 5.28286 0
M  V30 8385 O 808.683 -1.99632 5.34325 0
M  V30 8386 O 807.617 -0.177878 6.01637 0
M  V30 8387 H 811.443 0.91617 2.89551 0
M  V30 8388 H 809.028 0.512911 1.4032 0
M  V30 8389 H 810.91 -1.26365 4.02007 0
M  V30 8390 H 809.585 -1.52786 2.85374 0
M  V30 8391 H 808.492 0.634545 3.68679 0
M  V30 8392 H 809.825 0.815455 4.85398 0
M  V30 8393 N 811.477 -1.49425 0.500989 0
M  V30 8394 C 812.893 -1.58826 0.156951 0
M  V30 8395 C 813.093 -1.50622 -1.33848 0
M  V30 8396 O 812.149 -1.38016 -2.11442 0
M  V30 8397 C 813.462 -2.91611 0.73374 0
M  V30 8398 C 815.01 -3.05076 0.699846 0
M  V30 8399 C 815.485 -4.40479 1.2547 0
M  V30 8400 N 816.976 -4.4697 1.2154 0
M  V30 8401 C 817.711 -5.50189 1.6149 0
M  V30 8402 N 817.207 -6.60512 2.09034 0
M  V30 8403 N 819 -5.40903 1.52907 0
M  V30 8404 H 811.151 -1.53001 1.47324 0
M  V30 8405 H 813.414 -0.724765 0.61108 0
M  V30 8406 H 813.12 -3.03182 1.78251 0
M  V30 8407 H 812.994 -3.767 0.19417 0
M  V30 8408 H 815.381 -2.93134 -0.340085 0
M  V30 8409 H 815.462 -2.2167 1.27656 0
M  V30 8410 H 815.106 -4.53172 2.29341 0
M  V30 8411 H 815.036 -5.22524 0.653921 0
M  V30 8412 H 817.527 -3.67819 0.867043 0
M  V30 8413 H 817.84 -7.35372 2.37588 0
M  V30 8414 H 816.185 -6.61553 2.13008 0
M  V30 8415 H 819.376 -4.53606 1.15583 0
M  V30 8416 H 819.549 -6.21219 1.84365 0
M  V30 8417 N 812.955 -0.234822 -1.55841 0
M  V30 8418 C 813.885 0.664217 -2.23854 0
M  V30 8419 C 814.866 1.19076 -1.2147 0
M  V30 8420 O 816.051 1.23232 -1.50091 0
M  V30 8421 C 813.181 1.86666 -2.9287 0
M  V30 8422 C 812.135 1.47341 -4.01839 0
M  V30 8423 C 811.461 2.75571 -4.58219 0
M  V30 8424 C 812.761 0.653479 -5.18196 0
M  V30 8425 H 814.455 0.0971213 -2.99242 0
M  V30 8426 H 812.001 0.0452724 -1.43929 0
M  V30 8427 H 813.954 2.50116 -3.39146 0
M  V30 8428 H 812.678 2.45894 -2.1495 0
M  V30 8429 H 811.337 0.862314 -3.56314 0
M  V30 8430 H 810.985 3.32971 -3.77014 0
M  V30 8431 H 810.685 2.49987 -5.31771 0
M  V30 8432 H 812.209 3.39939 -5.07221 0
M  V30 8433 H 813.623 1.19198 -5.60771 0
M  V30 8434 H 812.02 0.494188 -5.98062 0
M  V30 8435 H 813.09 -0.337004 -4.83728 0
M  V30 8436 N 814.433 1.57553 0.0384317 0
M  V30 8437 C 815.38 2.05942 1.04194 0
M  V30 8438 C 816.35 0.946637 1.36484 0
M  V30 8439 O 817.535 1.21658 1.46983 0
M  V30 8440 C 814.675 2.53588 2.34066 0
M  V30 8441 C 813.788 3.7862 2.08017 0
M  V30 8442 C 812.923 4.14915 3.31692 0
M  V30 8443 C 811.962 5.32891 3.01155 0
M  V30 8444 N 811.099 5.64662 4.17254 0
M  V30 8445 H 815.939 2.91429 0.622341 0
M  V30 8446 H 813.476 1.44098 0.295684 0
M  V30 8447 H 815.434 2.79276 3.09937 0
M  V30 8448 H 814.064 1.71031 2.73767 0
M  V30 8449 H 813.116 3.60073 1.22686 0
M  V30 8450 H 814.428 4.64613 1.81484 0
M  V30 8451 H 813.582 4.41681 4.15936 0
M  V30 8452 H 812.321 3.27555 3.6133 0
M  V30 8453 H 811.326 5.05887 2.15311 0
M  V30 8454 H 812.551 6.21896 2.72804 0
M  V30 8455 H 810.497 4.80261 4.46861 0
M  V30 8456 H 810.414 6.45145 3.94112 0
M  V30 8457 H 811.682 5.96 5.02399 0
M  V30 8458 N 815.911 -0.310526 1.54511 0
M  V30 8459 C 816.841 -1.38757 1.878 0
M  V30 8460 C 817.822 -1.53353 0.735991 0
M  V30 8461 O 819.007 -1.67018 0.990887 0
M  V30 8462 C 816.137 -2.75327 2.11689 0
M  V30 8463 C 815.091 -2.75506 3.27537 0
M  V30 8464 C 814.417 -4.15275 3.36824 0
M  V30 8465 C 815.717 -2.38093 4.64875 0
M  V30 8466 H 817.411 -1.11146 2.78005 0
M  V30 8467 H 814.957 -0.533232 1.33763 0
M  V30 8468 H 816.91 -3.50752 2.33562 0
M  V30 8469 H 815.634 -3.04443 1.18245 0
M  V30 8470 H 814.293 -2.02538 3.05572 0
M  V30 8471 H 813.941 -4.41553 2.40915 0
M  V30 8472 H 813.641 -4.16299 4.14692 0
M  V30 8473 H 815.165 -4.92493 3.60947 0
M  V30 8474 H 816.579 -3.03232 4.86542 0
M  V30 8475 H 814.976 -2.50345 5.45387 0
M  V30 8476 H 816.046 -1.33227 4.66239 0
M  V30 8477 N 817.389 -1.46805 -0.573248 0
M  V30 8478 C 818.321 -1.54127 -1.6964 0
M  V30 8479 C 819.334 -0.428778 -1.57052 0
M  V30 8480 O 820.523 -0.697612 -1.64303 0
M  V30 8481 C 817.623 -1.41438 -3.07975 0
M  V30 8482 C 816.796 -2.66974 -3.46474 0
M  V30 8483 C 815.855 -2.48349 -4.63906 0
M  V30 8484 O 814.881 -3.22109 -4.69292 0
M  V30 8485 N 816.083 -1.55129 -5.59388 0
M  V30 8486 H 818.848 -2.50971 -1.6381 0
M  V30 8487 H 816.409 -1.42981 -0.759479 0
M  V30 8488 H 818.401 -1.26737 -3.84343 0
M  V30 8489 H 816.971 -0.527388 -3.08119 0
M  V30 8490 H 816.191 -2.9655 -2.59715 0
M  V30 8491 H 817.479 -3.50347 -3.68964 0
M  V30 8492 H 816.877 -0.94324 -5.57781 0
M  V30 8493 H 815.434 -1.46387 -6.35149 0
M  V30 8494 N 818.867 0.818669 -1.34668 0
M  V30 8495 C 819.797 1.94468 -1.29245 0
M  V30 8496 C 820.778 1.69257 -0.169101 0
M  V30 8497 O 821.963 1.90794 -0.362143 0
M  V30 8498 C 819.093 3.31001 -1.05145 0
M  V30 8499 C 818.047 3.70663 -2.13992 0
M  V30 8500 C 817.373 5.05226 -1.75074 0
M  V30 8501 C 818.673 3.82312 -3.55858 0
M  V30 8502 H 820.367 1.99263 -2.2346 0
M  V30 8503 H 817.913 0.957304 -1.07572 0
M  V30 8504 H 819.866 4.09364 -0.999949 0
M  V30 8505 H 818.59 3.26517 -0.0737312 0
M  V30 8506 H 817.249 2.94578 -2.18219 0
M  V30 8507 H 816.897 4.97233 -0.759518 0
M  V30 8508 H 816.597 5.32734 -2.47928 0
M  V30 8509 H 818.121 5.86042 -1.71427 0
M  V30 8510 H 819.535 4.50935 -3.5402 0
M  V30 8511 H 817.932 4.21278 -4.2737 0
M  V30 8512 H 819.002 2.84193 -3.9289 0
M  V30 8513 N 820.346 1.18468 1.03938 0
M  V30 8514 C 821.256 0.927889 2.1547 0
M  V30 8515 C 822.272 -0.108447 1.73662 0
M  V30 8516 O 823.448 0.0737636 2.01265 0
M  V30 8517 C 820.513 0.458494 3.43655 0
M  V30 8518 C 819.574 1.56295 3.99838 0
M  V30 8519 C 818.807 1.11586 5.21904 0
M  V30 8520 O 819.03 -0.0249057 5.70395 0
M  V30 8521 O 817.964 1.91412 5.70653 0
M  V30 8522 H 821.79 1.86116 2.39989 0
M  V30 8523 H 819.375 0.966607 1.13917 0
M  V30 8524 H 821.257 0.204861 4.20902 0
M  V30 8525 H 819.932 -0.446464 3.20606 0
M  V30 8526 H 818.839 1.87061 3.23974 0
M  V30 8527 H 820.172 2.44408 4.2723 0
M  V30 8528 N 821.824 -1.22873 0.986916 0
M  V30 8529 C 822.756 -2.23889 0.490537 0
M  V30 8530 C 823.769 -1.57523 -0.411144 0
M  V30 8531 O 824.958 -1.7721 -0.214236 0
M  V30 8532 C 822.058 -3.37488 -0.30902 0
M  V30 8533 C 821.231 -4.33438 0.587354 0
M  V30 8534 C 820.29 -5.25958 -0.159467 0
M  V30 8535 O 819.316 -5.67394 0.453115 0
M  V30 8536 N 820.518 -5.62265 -1.44355 0
M  V30 8537 H 823.283 -2.67109 1.35914 0
M  V30 8538 H 820.844 -1.37111 0.860937 0
M  V30 8539 H 822.836 -3.96365 -0.817139 0
M  V30 8540 H 821.406 -2.934 -1.07868 0
M  V30 8541 H 820.626 -3.72969 1.27622 0
M  V30 8542 H 821.914 -4.94495 1.19801 0
M  V30 8543 H 821.312 -5.30562 -1.96266 0
M  V30 8544 H 819.869 -6.23585 -1.89698 0
M  V30 8545 N 823.302 -0.75937 -1.38099 0
M  V30 8546 C 824.212 -0.13774 -2.34195 0
M  V30 8547 C 825.228 0.693985 -1.59561 0
M  V30 8548 O 826.404 0.616792 -1.91723 0
M  V30 8549 C 823.469 0.740535 -3.38699 0
M  V30 8550 C 822.53 -0.106225 -4.29169 0
M  V30 8551 C 821.763 0.730225 -5.28681 0
M  V30 8552 O 821.986 1.96796 -5.35376 0
M  V30 8553 O 820.92 0.145969 -6.01723 0
M  V30 8554 H 824.746 -0.931512 -2.89061 0
M  V30 8555 H 822.331 -0.520345 -1.40046 0
M  V30 8556 H 824.213 1.24232 -4.02672 0
M  V30 8557 H 822.888 1.51271 -2.8618 0
M  V30 8558 H 821.795 -0.654088 -3.68337 0
M  V30 8559 H 823.128 -0.841186 -4.84959 0
M  V30 8560 N 824.78 1.49157 -0.508906 0
M  V30 8561 C 825.727 2.2927 0.265288 0
M  V30 8562 C 826.697 1.3603 0.953162 0
M  V30 8563 O 827.882 1.64989 0.958291 0
M  V30 8564 C 825.022 3.18897 1.31904 0
M  V30 8565 C 824.135 4.27201 0.642144 0
M  V30 8566 C 823.27 5.04033 1.67701 0
M  V30 8567 C 822.309 6.04165 0.982422 0
M  V30 8568 N 821.446 6.74133 1.96186 0
M  V30 8569 H 826.286 2.94967 -0.424107 0
M  V30 8570 H 823.823 1.45431 -0.220991 0
M  V30 8571 H 825.781 3.69242 1.94206 0
M  V30 8572 H 824.411 2.55168 1.97709 0
M  V30 8573 H 823.463 3.80283 -0.0943395 0
M  V30 8574 H 824.775 4.98708 0.0957507 0
M  V30 8575 H 823.929 5.58287 2.37487 0
M  V30 8576 H 822.668 4.32317 2.25728 0
M  V30 8577 H 821.673 5.49135 0.270378 0
M  V30 8578 H 822.898 6.7787 0.408554 0
M  V30 8579 H 820.844 6.05183 2.53159 0
M  V30 8580 H 820.761 7.41643 1.46634 0
M  V30 8581 H 822.029 7.32987 2.65236 0
M  V30 8582 N 826.258 0.243083 1.55714 0
M  V30 8583 C 827.674 -0.111853 1.59208 0
M  V30 8584 C 827.874 -1.5723 1.2602 0
M  V30 8585 O 826.93 -2.31608 1.00569 0
M  V30 8586 C 828.243 0.233885 2.99789 0
M  V30 8587 C 829.791 0.177873 3.12494 0
M  V30 8588 C 830.266 0.49759 4.55289 0
M  V30 8589 N 831.757 0.447949 4.61029 0
M  V30 8590 C 832.492 0.668545 5.69489 0
M  V30 8591 N 831.988 0.952064 6.86227 0
M  V30 8592 N 833.781 0.599512 5.58894 0
M  V30 8593 H 825.932 1.19554 1.75558 0
M  V30 8594 H 828.195 0.480765 0.817049 0
M  V30 8595 H 827.901 1.24835 3.28799 0
M  V30 8596 H 827.775 -0.440846 3.74615 0
M  V30 8597 H 830.162 -0.827263 2.83267 0
M  V30 8598 H 830.243 0.886399 2.39951 0
M  V30 8599 H 829.887 1.50026 4.85237 0
M  V30 8600 H 829.817 -0.232371 5.26087 0
M  V30 8601 H 832.308 0.237388 3.77154 0
M  V30 8602 H 832.621 1.10791 7.64817 0
M  V30 8603 H 830.966 0.989496 6.8792 0
M  V30 8604 H 834.157 0.378088 4.66571 0
M  V30 8605 H 834.33 0.774828 6.43351 0
M  V30 8606 N 827.736 -1.57571 -0.0300757 0
M  V30 8607 C 828.699 -2.05468 -1.01565 0
M  V30 8608 C 829.699 -0.958628 -1.29101 0
M  V30 8609 O 830.889 -1.22228 -1.24121 0
M  V30 8610 C 828.021 -2.47077 -2.34874 0
M  V30 8611 H 829.214 -2.93797 -0.601936 0
M  V30 8612 H 826.767 -1.53828 -0.276878 0
M  V30 8613 H 827.502 -1.61901 -2.80996 0
M  V30 8614 H 827.287 -3.27097 -2.16218 0
M  V30 8615 H 828.777 -2.84564 -3.05635 0
M  V30 8616 N 829.214 0.302327 -1.54673 0
M  V30 8617 C 830.146 1.39443 -1.81902 0
M  V30 8618 C 831.159 1.46891 -0.701914 0
M  V30 8619 O 832.348 1.49233 -0.979369 0
M  V30 8620 C 829.448 2.77824 -1.9408 0
M  V30 8621 C 828.621 2.93324 -3.24468 0
M  V30 8622 C 827.68 4.12196 -3.27079 0
M  V30 8623 O 826.706 4.04344 -4.00617 0
M  V30 8624 N 827.908 5.22768 -2.52376 0
M  V30 8625 H 830.673 1.1644 -2.76155 0
M  V30 8626 H 828.234 0.492392 -1.54231 0
M  V30 8627 H 830.226 3.5559 -1.9323 0
M  V30 8628 H 828.796 2.9378 -1.06828 0
M  V30 8629 H 828.016 2.02682 -3.38103 0
M  V30 8630 H 829.304 3.0059 -4.10516 0
M  V30 8631 H 828.702 5.32027 -1.92259 0
M  V30 8632 H 827.259 5.98874 -2.57281 0
M  V30 8633 N 830.692 1.47107 0.565454 0
M  V30 8634 C 831.624 1.55024 1.6882 0
M  V30 8635 C 832.637 0.4371 1.56822 0
M  V30 8636 O 833.826 0.706315 1.63931 0
M  V30 8637 C 830.926 1.43069 3.0722 0
M  V30 8638 C 830.099 2.68807 3.45053 0
M  V30 8639 C 829.158 2.50806 4.62583 0
M  V30 8640 O 828.184 3.24593 4.67577 0
M  V30 8641 N 829.386 1.58093 5.58558 0
M  V30 8642 H 832.151 2.51836 1.62477 0
M  V30 8643 H 829.712 1.43382 0.751885 0
M  V30 8644 H 831.704 1.28773 3.83666 0
M  V30 8645 H 830.274 0.543721 3.07835 0
M  V30 8646 H 829.494 2.97923 2.58138 0
M  V30 8647 H 830.782 3.52298 3.67101 0
M  V30 8648 H 830.18 0.972807 5.57273 0
M  V30 8649 H 828.737 1.49753 6.34364 0
M  V30 8650 N 832.17 -0.811516 1.35101 0
M  V30 8651 C 833.581 -1.38515 1.25182 0
M  V30 8652 C 833.932 -1.95846 -0.117883 0
M  V30 8653 O 833.057 -1.90925 -1.01866 0
M  V30 8654 C 833.652 -2.51813 2.26662 0
M  V30 8655 C 832.211 -3.05052 2.20499 0
M  V30 8656 C 831.358 -1.77987 2.12641 0
M  V30 8657 H 834.309 -0.614959 1.46301 0
M  V30 8658 H 834.33 -3.30228 1.89023 0
M  V30 8659 H 833.842 -2.10057 3.2634 0
M  V30 8660 H 831.943 -3.51285 1.24215 0
M  V30 8661 H 832.056 -3.63368 3.1225 0
M  V30 8662 H 830.42 -1.99342 1.5854 0
M  V30 8663 H 831.203 -1.38389 3.14171 0
M  V30 8664 N 833.648 -1.19017 -1.03309 0
M  V30 8665 C 834.611 -0.926076 -2.09658 0
M  V30 8666 C 835.611 0.0917077 -1.60538 0
M  V30 8667 O 836.801 -0.142574 -1.73616 0
M  V30 8668 C 833.933 -0.390958 -3.38651 0
M  V30 8669 H 835.126 -1.86923 -2.3452 0
M  V30 8670 H 832.679 -1.00325 -1.19853 0
M  V30 8671 H 833.414 0.558446 -3.19456 0
M  V30 8672 H 833.199 -1.12474 -3.75622 0
M  V30 8673 H 834.689 -0.225131 -4.16993 0
M  V30 8674 N 835.127 1.22348 -0.993418 0
M  V30 8675 C 836.538 1.72893 -0.704616 0
M  V30 8676 C 836.889 1.80095 0.778483 0
M  V30 8677 O 836.014 1.4476 1.60853 0
M  V30 8678 C 836.609 3.14 -1.27237 0
M  V30 8679 C 835.168 3.61949 -1.03294 0
M  V30 8680 C 834.315 2.39816 -1.39225 0
M  V30 8681 H 837.266 1.07688 -1.16572 0
M  V30 8682 H 837.287 3.74886 -0.651212 0
M  V30 8683 H 836.799 3.08727 -2.3518 0
M  V30 8684 H 834.9 3.72588 0.0298329 0
M  V30 8685 H 835.013 4.48051 -1.69668 0
M  V30 8686 H 833.377 2.41448 -0.810849 0
M  V30 8687 H 834.16 2.37203 -2.48172 0
M  V30 8688 N 836.605 0.766683 1.37694 0
M  V30 8689 C 837.568 0.155849 2.2867 0
M  V30 8690 C 838.568 -0.633509 1.47795 0
M  V30 8691 O 839.758 -0.457844 1.68076 0
M  V30 8692 C 836.89 -0.786965 3.31692 0
M  V30 8693 H 838.083 0.957748 2.84196 0
M  V30 8694 H 835.636 0.534554 1.46875 0
M  V30 8695 H 836.371 -1.61406 2.8128 0
M  V30 8696 H 836.156 -0.223182 3.91464 0
M  V30 8697 H 837.646 -1.20994 3.99688 0
M  V30 8698 N 838.083 -1.48885 0.516809 0
M  V30 8699 C 839.494 -1.86557 0.0729921 0
M  V30 8700 C 839.845 -1.42767 -1.34581 0
M  V30 8701 O 838.97 -0.812514 -2.00567 0
M  V30 8702 C 839.565 -3.38567 0.125686 0
M  V30 8703 C 838.124 -3.75481 -0.262867 0
M  V30 8704 C 837.271 -2.72913 0.491281 0
M  V30 8705 H 840.222 -1.40978 0.728767 0
M  V30 8706 H 840.243 -3.74629 -0.665831 0
M  V30 8707 H 839.755 -3.70408 1.15842 0
M  V30 8708 H 837.856 -3.49251 -1.29824 0
M  V30 8709 H 837.969 -4.79052 0.067579 0
M  V30 8710 H 836.333 -2.54627 -0.0608525 0
M  V30 8711 H 837.116 -3.07599 1.5244 0
M  V30 8712 N 839.561 -0.251338 -1.55583 0
M  V30 8713 C 840.524 0.63305 -2.20284 0
M  V30 8714 C 841.524 1.09941 -1.17344 0
M  V30 8715 O 842.714 1.00341 -1.42399 0
M  V30 8716 C 839.846 1.8706 -2.84993 0
M  V30 8717 H 841.039 0.0684846 -2.99822 0
M  V30 8718 H 838.592 -0.00181653 -1.563 0
M  V30 8719 H 839.327 2.47629 -2.09405 0
M  V30 8720 H 839.112 1.54436 -3.60405 0
M  V30 8721 H 840.602 2.50004 -3.34496 0
M  V30 8722 N 841.039 1.57585 0.0217189 0
M  V30 8723 C 842.45 1.7787 0.567377 0
M  V30 8724 C 842.801 0.883337 1.7519 0
M  V30 8725 O 841.926 0.0800819 2.16252 0
M  V30 8726 C 842.521 3.2257 1.03606 0
M  V30 8727 C 841.08 3.44026 1.52718 0
M  V30 8728 C 840.227 2.73313 0.468545 0
M  V30 8729 H 843.178 1.57377 -0.2045 0
M  V30 8730 H 843.199 3.29488 1.9031 0
M  V30 8731 H 842.711 3.87711 0.173739 0
M  V30 8732 H 840.812 2.8407 2.41111 0
M  V30 8733 H 840.925 4.52659 1.56962 0
M  V30 8734 H 839.289 2.37299 0.925263 0
M  V30 8735 H 840.072 3.41141 -0.384438 0
M  V30 8736 N 842.517 -0.29412 1.54831 0
M  V30 8737 C 843.447 -1.36757 1.89261 0
M  V30 8738 C 844.428 -1.52564 0.752214 0
M  V30 8739 O 845.613 -1.65958 1.00855 0
M  V30 8740 C 842.743 -2.73066 2.14597 0
M  V30 8741 C 841.697 -2.72017 3.3044 0
M  V30 8742 C 841.023 -4.11679 3.4121 0
M  V30 8743 C 842.323 -2.33149 4.67375 0
M  V30 8744 H 844.017 -1.08191 2.79169 0
M  V30 8745 H 841.563 -0.519014 1.34321 0
M  V30 8746 H 843.516 -3.48255 2.37269 0
M  V30 8747 H 842.24 -3.03172 1.21467 0
M  V30 8748 H 840.899 -1.99285 3.07703 0
M  V30 8749 H 840.547 -4.38973 2.45584 0
M  V30 8750 H 840.247 -4.11877 4.19084 0
M  V30 8751 H 841.771 -4.88637 3.6615 0
M  V30 8752 H 843.185 -2.98054 4.89731 0
M  V30 8753 H 841.582 -2.44546 5.48012 0
M  V30 8754 H 842.652 -1.28275 4.67626 0
M  V30 8755 N 843.995 -1.47404 -0.557645 0
M  V30 8756 C 845.243 -1.53703 -1.31224 0
M  V30 8757 C 845.564 -0.200742 -1.93964 0
M  V30 8758 O 844.834 0.775253 -1.79907 0
M  V30 8759 H 843.414 -0.566171 -0.487299 0
M  V30 8760 H 846.076 -1.83699 -0.651195 0
M  V30 8761 H 845.172 -2.30335 -2.10599 0
M  V30 8762 N 845.473 0.80434 -1.35529 0
M  V30 8763 C 846.701 1.59283 -1.32048 0
M  V30 8764 C 847.116 1.88527 0.101556 0
M  V30 8765 O 846.473 1.48975 1.05417 0
M  V30 8766 C 846.524 2.92276 -2.12737 0
M  V30 8767 O 846.245 2.64299 -3.49396 0
M  V30 8768 C 847.746 3.86631 -2.16867 0
M  V30 8769 H 844.966 0.494523 -0.453528 0
M  V30 8770 H 847.51 0.999415 -1.78415 0
M  V30 8771 H 845.665 3.48125 -1.69964 0
M  V30 8772 H 846.079 3.4923 -3.91329 0
M  V30 8773 H 847.553 4.77053 -2.77712 0
M  V30 8774 H 848.03 4.23384 -1.16803 0
M  V30 8775 H 848.636 3.36717 -2.59811 0
M  V30 8776 N 846.951 1.19563 1.02676 0
M  V30 8777 C 848.362 1.00158 1.57561 0
M  V30 8778 C 848.713 -0.444922 1.91089 0
M  V30 8779 O 847.838 -1.32466 1.71119 0
M  V30 8780 C 848.433 1.81181 2.86284 0
M  V30 8781 C 846.992 1.66171 3.37734 0
M  V30 8782 C 846.139 1.7975 2.11152 0
M  V30 8783 H 849.09 1.33904 0.85179 0
M  V30 8784 H 849.111 1.30916 3.57269 0
M  V30 8785 H 848.623 2.86454 2.6185 0
M  V30 8786 H 846.724 0.634927 3.6715 0
M  V30 8787 H 846.837 2.46832 4.10622 0
M  V30 8788 H 845.201 1.22833 2.23123 0
M  V30 8789 H 845.984 2.86487 1.89157 0
M  V30 8790 N 848.429 -1.21819 0.999893 0
M  V30 8791 C 849.675 -1.91035 0.680701 0
M  V30 8792 C 850.008 -1.77582 -0.786021 0
M  V30 8793 O 849.283 -1.14917 -1.56921 0
M  V30 8794 C 849.566 -3.43013 1.0961 0
M  V30 8795 C 849.419 -3.65481 2.6219 0
M  V30 8796 C 850.738 -4.35204 0.654616 0
M  V30 8797 H 847.857 -0.693748 0.248763 0
M  V30 8798 H 850.499 -1.43555 1.24466 0
M  V30 8799 H 848.649 -3.83581 0.616253 0
M  V30 8800 H 850.321 -3.34273 3.17899 0
M  V30 8801 H 848.564 -3.09522 3.03938 0
M  V30 8802 H 849.235 -4.71945 2.86307 0
M  V30 8803 H 851.711 -4.0219 1.06688 0
M  V30 8804 H 850.587 -5.40198 0.973492 0
M  V30 8805 H 850.848 -4.3986 -0.444458 0
M  V30 8806 N 849.908 -0.773975 -1.37286 0
M  V30 8807 C 850.855 -0.159938 -2.30245 0
M  V30 8808 C 851.825 0.687356 -1.51211 0
M  V30 8809 O 853.01 0.639255 -1.79773 0
M  V30 8810 C 850.15 0.711452 -3.37687 0
M  V30 8811 C 849.263 -0.152692 -4.3173 0
M  V30 8812 C 848.398 0.723613 -5.26248 0
M  V30 8813 C 847.437 -0.14293 -6.11933 0
M  V30 8814 N 846.574 0.691479 -6.98687 0
M  V30 8815 H 851.414 -0.958182 -2.82175 0
M  V30 8816 H 848.951 -0.48411 -1.38906 0
M  V30 8817 H 850.909 1.2315 -3.9861 0
M  V30 8818 H 849.539 1.47528 -2.87116 0
M  V30 8819 H 848.591 -0.790574 -3.72094 0
M  V30 8820 H 849.903 -0.821027 -4.91997 0
M  V30 8821 H 849.057 1.31006 -5.92387 0
M  V30 8822 H 847.796 1.42562 -4.66398 0
M  V30 8823 H 846.801 -0.7419 -5.44771 0
M  V30 8824 H 848.026 -0.842305 -6.73856 0
M  V30 8825 H 845.972 1.37806 -6.41362 0
M  V30 8826 H 845.889 0.0804911 -7.55957 0
M  V30 8827 H 847.157 1.26225 -7.69212 0
M  V30 8828 N 851.386 1.48609 -0.524698 0
M  V30 8829 C 852.318 2.27508 0.278 0
M  V30 8830 C 853.331 1.35042 0.909258 0
M  V30 8831 O 854.52 1.60136 0.788592 0
M  V30 8832 C 851.62 3.08247 1.40843 0
M  V30 8833 C 850.793 4.28455 0.880083 0
M  V30 8834 C 849.852 4.91048 1.891 0
M  V30 8835 O 848.878 5.5042 1.45005 0
M  V30 8836 N 850.08 4.82816 3.22288 0
M  V30 8837 H 852.845 2.97037 -0.398642 0
M  V30 8838 H 850.406 1.57876 -0.358698 0
M  V30 8839 H 852.398 3.46992 2.08276 0
M  V30 8840 H 850.968 2.41173 1.98883 0
M  V30 8841 H 850.188 3.94189 0.0299228 0
M  V30 8842 H 851.476 5.06279 0.505881 0
M  V30 8843 H 850.874 4.3572 3.60783 0
M  V30 8844 H 849.431 5.25676 3.85368 0
M  V30 8845 N 852.864 0.259585 1.55447 0
M  V30 8846 C 853.774 -0.645026 2.25558 0
M  V30 8847 C 854.79 -1.18291 1.27606 0
M  V30 8848 O 855.966 -1.21649 1.6051 0
M  V30 8849 C 853.031 -1.81964 2.9511 0
M  V30 8850 C 852.092 -1.31997 4.08504 0
M  V30 8851 C 851.325 -2.43861 4.74729 0
M  V30 8852 O 851.548 -3.62876 4.40088 0
M  V30 8853 O 850.482 -2.12898 5.6299 0
M  V30 8854 H 854.308 -0.0775399 3.03601 0
M  V30 8855 H 851.893 0.0275859 1.49375 0
M  V30 8856 H 853.775 -2.50485 3.38873 0
M  V30 8857 H 852.45 -2.37451 2.19997 0
M  V30 8858 H 851.357 -0.601676 3.6923 0
M  V30 8859 H 852.69 -0.811045 4.85472 0
M  V30 8860 N 854.342 -1.57594 -0.0133615 0
M  V30 8861 C 855.29 -2.08682 -1.02736 0
M  V30 8862 C 856.284 -1.00391 -1.36448 0
M  V30 8863 O 857.49 -1.18868 -1.35168 0
M  V30 8864 H 853.865 -0.666158 -0.34891 0
M  V30 8865 H 855.836 -2.9289 -0.570815 0
M  V30 8866 C 854.585 -2.5945 -2.31476 0
M  V30 8867 H 853.908 -3.42401 -2.06401 0
M  V30 8868 H 855.348 -2.98888 -3.00735 0
M  V30 8869 C 853.807 -1.50266 -3.01533 0
M  V30 8870 O 854.337 -0.877875 -3.9199 0
M  V30 8871 N 852.543 -1.23336 -2.63129 0
M  V30 8872 H 852.09 -1.74327 -1.89652 0
M  V30 8873 H 852.048 -0.504987 -3.10318 0
M  V30 8874 N 855.82 0.285905 -1.54985 0
M  V30 8875 C 857.045 1.04207 -1.7932 0
M  V30 8876 C 857.47 1.79622 -0.558343 0
M  V30 8877 O 856.828 1.74506 0.491661 0
M  V30 8878 C 856.876 1.98648 -3.0095 0
M  V30 8879 O 855.98 3.07207 -2.75132 0
M  V30 8880 H 855.321 0.298596 -0.593074 0
M  V30 8881 H 857.851 0.318736 -2.02102 0
M  V30 8882 H 857.861 2.4084 -3.29333 0
M  V30 8883 H 856.536 1.43167 -3.90482 0
M  V30 8884 H 855.113 2.69423 -2.57809 0
M  V30 8885 N 857.298 1.47698 0.54982 0
M  V30 8886 C 858.545 1.54702 1.30665 0
M  V30 8887 C 858.873 0.212418 1.93337 0
M  V30 8888 O 858.128 -0.79543 1.78805 0
M  V30 8889 C 858.427 2.61903 2.4319 0
M  V30 8890 C 858.093 4.04953 1.98302 0
M  V30 8891 C 856.755 4.43893 1.85776 0
M  V30 8892 C 859.107 4.94682 1.64133 0
M  V30 8893 C 856.435 5.70387 1.37388 0
M  V30 8894 C 858.787 6.21646 1.17214 0
M  V30 8895 C 857.451 6.5946 1.0329 0
M  V30 8896 H 856.721 0.566096 0.478139 0
M  V30 8897 H 859.368 1.8133 0.615767 0
M  V30 8898 H 857.673 2.2906 3.17866 0
M  V30 8899 H 859.37 2.64543 3.0136 0
M  V30 8900 H 855.96 3.74191 2.08995 0
M  V30 8901 H 860.144 4.65291 1.72679 0
M  V30 8902 H 855.4 5.98427 1.25278 0
M  V30 8903 H 859.574 6.90581 0.898391 0
M  V30 8904 H 857.201 7.57367 0.655735 0
M  V30 8905 N 858.776 -0.797141 1.35954 0
M  V30 8906 C 860.001 -1.59097 1.33053 0
M  V30 8907 C 860.426 -1.87897 -0.0874592 0
M  V30 8908 O 859.784 -1.47291 -1.05712 0
M  V30 8909 C 859.832 -2.89346 2.152 0
M  V30 8910 O 858.936 -3.826 1.5392 0
M  V30 8911 H 858.277 -0.482895 0.45575 0
M  V30 8912 H 860.807 -0.988633 1.79129 0
M  V30 8913 H 860.817 -3.38686 2.27499 0
M  V30 8914 H 859.492 -2.6771 3.18283 0
M  V30 8915 H 858.069 -3.41174 1.50516 0
M  V30 8916 N 860.254 -1.20106 -1.0204 0
M  V30 8917 C 861.479 -1.0351 -1.79723 0
M  V30 8918 C 861.904 0.411328 -1.83548 0
M  V30 8919 O 861.262 1.29608 -1.26773 0
M  V30 8920 C 861.31 -1.61876 -3.22224 0
M  V30 8921 O 860.414 -0.853813 -4.03465 0
M  V30 8922 H 859.755 -0.365299 -0.554484 0
M  V30 8923 H 862.285 -1.59316 -1.28373 0
M  V30 8924 H 862.295 -1.65451 -3.72948 0
M  V30 8925 H 860.97 -2.67148 -3.18755 0
M  V30 8926 H 859.547 -0.891983 -3.62075 0
M  V30 8927 N 861.732 1.21287 -1.00634 0
M  V30 8928 C 862.972 1.92106 -0.698194 0
M  V30 8929 C 863.336 1.76437 0.757222 0
M  V30 8930 O 864.537 2.41641 1.17741 0
M  V30 8931 C 862.808 3.39748 -1.10932 0
M  V30 8932 S 864.367 4.29013 -0.921586 0
M  V30 8933 H 861.185 0.663755 -0.254853 0
M  V30 8934 H 863.787 1.46772 -1.29145 0
M  V30 8935 H 862.491 3.48669 -2.16467 0
M  V30 8936 H 862.022 3.90101 -0.508419 0
M  V30 8937 H 864.037 4.95871 0.180578 0
M  V30 8938 N 863.21 0.781244 1.36873 0
M  V30 8939 C 864.142 0.132075 2.28819 0
M  V30 8940 C 865.155 -0.653925 1.49089 0
M  V30 8941 O 866.344 -0.490453 1.7163 0
M  V30 8942 C 863.444 -0.836297 3.28419 0
M  V30 8943 C 862.617 -0.102097 4.37281 0
M  V30 8944 C 861.676 -0.985217 5.16894 0
M  V30 8945 O 860.702 -0.445478 5.67454 0
M  V30 8946 N 861.904 -2.31043 5.3254 0
M  V30 8947 H 864.669 0.921838 2.85171 0
M  V30 8948 H 862.23 0.634427 1.48952 0
M  V30 8949 H 864.222 -1.43074 3.78566 0
M  V30 8950 H 862.792 -1.52698 2.72767 0
M  V30 8951 H 862.012 0.67335 3.88407 0
M  V30 8952 H 863.3 0.404862 5.07187 0
M  V30 8953 H 862.698 -2.77318 4.93063 0
M  V30 8954 H 861.255 -2.85472 5.8596 0
M  V30 8955 N 864.689 -1.48329 0.532571 0
M  V30 8956 C 865.619 -2.32485 -0.217511 0
M  V30 8957 C 866.6 -1.42255 -0.932598 0
M  V30 8958 O 867.785 -1.7114 -0.917873 0
M  V30 8959 C 864.915 -3.23509 -1.26329 0
M  V30 8960 C 863.869 -4.22784 -0.666191 0
M  V30 8961 C 863.195 -5.0296 -1.81482 0
M  V30 8962 C 864.495 -5.21031 0.363813 0
M  V30 8963 H 866.189 -2.95445 0.485014 0
M  V30 8964 H 863.735 -1.42075 0.234694 0
M  V30 8965 H 865.688 -3.81211 -1.79601 0
M  V30 8966 H 864.412 -2.58554 -1.99543 0
M  V30 8967 H 863.071 -3.66272 -0.15498 0
M  V30 8968 H 862.719 -4.34427 -2.5354 0
M  V30 8969 H 862.419 -5.70154 -1.4212 0
M  V30 8970 H 863.943 -5.63514 -2.35126 0
M  V30 8971 H 865.357 -5.73241 -0.0819079 0
M  V30 8972 H 863.754 -5.96292 0.674956 0
M  V30 8973 H 864.824 -4.6801 1.26865 0
M  V30 8974 N 866.167 -0.267825 -1.55308 0
M  V30 8975 C 867.392 0.357487 -2.04296 0
M  V30 8976 C 867.817 1.49222 -1.14518 0
M  V30 8977 O 867.175 1.80741 -0.142292 0
M  V30 8978 C 867.223 0.822899 -3.51085 0
M  V30 8979 O 866.327 1.93078 -3.6441 0
M  V30 8980 H 865.668 0.075025 -0.659748 0
M  V30 8981 H 868.198 -0.399996 -2.00652 0
M  V30 8982 H 868.208 1.12059 -3.92309 0
M  V30 8983 H 866.883 -0.0073562 -4.15899 0
M  V30 8984 H 865.46 1.63618 -3.35087 0
M  V30 8985 N 867.645 1.57599 0.00500368 0
M  V30 8986 C 868.577 2.04949 1.02609 0
M  V30 8987 C 869.59 0.966507 1.31006 0
M  V30 8988 O 870.779 1.2434 1.2807 0
M  V30 8989 C 867.879 2.43023 2.36206 0
M  V30 8990 C 867.052 3.73993 2.26821 0
M  V30 8991 C 866.111 3.9899 3.43065 0
M  V30 8992 O 865.137 4.69725 3.21477 0
M  V30 8993 N 866.339 3.46496 4.65748 0
M  V30 8994 H 869.104 2.93167 0.622336 0
M  V30 8995 H 866.665 1.60752 0.192488 0
M  V30 8996 H 868.657 2.56863 3.12735 0
M  V30 8997 H 867.227 1.60349 2.68341 0
M  V30 8998 H 866.447 3.70277 1.35235 0
M  V30 8999 H 867.735 4.59865 2.17719 0
M  V30 9000 H 867.133 2.89206 4.86186 0
M  V30 9001 H 865.69 3.65675 5.3956 0
M  V30 9002 N 869.123 -0.277682 1.55134 0
M  V30 9003 C 870.055 -1.36531 1.84098 0
M  V30 9004 C 871.068 -1.45756 0.725194 0
M  V30 9005 O 872.257 -1.47656 1.00299 0
M  V30 9006 C 869.357 -2.74701 1.98476 0
M  V30 9007 C 868.53 -2.88125 3.29094 0
M  V30 9008 C 867.589 -4.0694 3.33596 0
M  V30 9009 O 866.615 -3.9792 4.06999 0
M  V30 9010 N 867.817 -5.18687 2.60661 0
M  V30 9011 H 870.582 -1.12032 2.77973 0
M  V30 9012 H 868.143 -0.467793 1.54995 0
M  V30 9013 H 870.135 -3.52471 1.98863 0
M  V30 9014 H 868.705 -2.92043 1.11488 0
M  V30 9015 H 867.925 -1.97277 3.41285 0
M  V30 9016 H 869.213 -2.94021 4.15246 0
M  V30 9017 H 868.611 -5.28901 2.00699 0
M  V30 9018 H 867.168 -5.94705 2.66776 0
M  V30 9019 N 870.601 -1.47988 -0.541979 0
M  V30 9020 C 872.012 -1.49073 -1.12402 0
M  V30 9021 C 872.363 -0.253825 -1.94551 0
M  V30 9022 O 871.488 0.640056 -2.06718 0
M  V30 9023 C 872.083 -2.7011 -2.04514 0
M  V30 9024 C 870.642 -2.74105 -2.5796 0
M  V30 9025 C 869.789 -2.42409 -1.3466 0
M  V30 9026 H 872.74 -1.55277 -0.327818 0
M  V30 9027 H 872.761 -2.47946 -2.88623 0
M  V30 9028 H 872.273 -3.60117 -1.44697 0
M  V30 9029 H 870.374 -1.88276 -3.21532 0
M  V30 9030 H 870.487 -3.75213 -2.97913 0
M  V30 9031 H 868.851 -1.9331 -1.65841 0
M  V30 9032 H 869.634 -3.34642 -0.766133 0
M  V30 9033 N 872.079 0.78992 -1.36375 0
M  V30 9034 C 873.009 1.91683 -1.33341 0
M  V30 9035 C 873.99 1.68861 -0.204965 0
M  V30 9036 O 875.175 1.89982 -0.402531 0
M  V30 9037 C 872.305 3.28696 -1.12143 0
M  V30 9038 C 871.259 3.66041 -2.21806 0
M  V30 9039 C 870.585 5.01399 -1.85751 0
M  V30 9040 C 871.885 3.74677 -3.63888 0
M  V30 9041 H 873.579 1.94478 -2.27637 0
M  V30 9042 H 871.125 0.934271 -1.09578 0
M  V30 9043 H 873.078 4.07151 -1.08656 0
M  V30 9044 H 871.802 3.26287 -0.142974 0
M  V30 9045 H 870.461 2.89883 -2.24418 0
M  V30 9046 H 870.109 4.9551 -0.864817 0
M  V30 9047 H 869.809 5.27355 -2.59173 0
M  V30 9048 H 871.333 5.82274 -1.83819 0
M  V30 9049 H 872.747 4.43324 -3.63506 0
M  V30 9050 H 871.144 4.12118 -4.3621 0
M  V30 9051 H 872.214 2.75795 -3.9883 0
M  V30 9052 N 873.557 1.20646 1.01402 0
M  V30 9053 C 874.805 1.01618 1.74695 0
M  V30 9054 C 875.126 -0.452438 1.89679 0
M  V30 9055 O 874.396 -1.32693 1.44116 0
M  V30 9056 H 872.976 0.373013 0.647202 0
M  V30 9057 H 875.638 1.518 1.22241 0
M  V30 9058 H 874.734 1.47666 2.74957 0
M  V30 9059 N 875.035 -1.20752 1.01276 0
M  V30 9060 C 876.446 -1.7175 0.732033 0
M  V30 9061 C 876.797 -1.8131 -0.749733 0
M  V30 9062 O 875.922 -1.47301 -1.58529 0
M  V30 9063 C 876.517 -3.11936 1.32217 0
M  V30 9064 C 875.076 -3.6026 1.09039 0
M  V30 9065 C 874.223 -2.37571 1.43022 0
M  V30 9066 H 877.174 -1.0582 1.1827 0
M  V30 9067 H 877.195 -3.73802 0.710771 0
M  V30 9068 H 876.707 -3.04946 2.40061 0
M  V30 9069 H 874.808 -3.72588 0.0294464 0
M  V30 9070 H 874.921 -4.45295 1.76775 0
M  V30 9071 H 873.285 -2.40128 0.849159 0
M  V30 9072 H 874.068 -2.33225 2.51915 0
M  V30 9073 N 876.513 -0.788492 -1.36457 0
M  V30 9074 C 877.476 -0.192209 -2.28393 0
M  V30 9075 C 878.476 0.609916 -1.48784 0
M  V30 9076 O 879.666 0.431046 -1.68783 0
M  V30 9077 C 876.798 0.734096 -3.32902 0
M  V30 9078 H 877.991 -1.00284 -2.82636 0
M  V30 9079 H 875.544 -0.557852 -1.46006 0
M  V30 9080 H 876.279 1.5691 -2.83813 0
M  V30 9081 H 876.064 0.160875 -3.9177 0
M  V30 9082 H 877.554 1.1462 -4.01562 0
M  V30 9083 N 877.991 1.48044 -0.54043 0
M  V30 9084 C 878.941 2.26768 0.236657 0
M  V30 9085 C 879.925 1.33341 0.900505 0
M  V30 9086 O 881.117 1.57809 0.801584 0
M  V30 9087 C 878.246 3.18685 1.27651 0
M  V30 9088 C 877.332 4.19589 0.616923 0
M  V30 9089 N 877.723 5.04889 -0.303377 0
M  V30 9090 C 876.021 4.37375 0.872879 0
M  V30 9091 C 876.722 5.77654 -0.684905 0
M  V30 9092 N 875.698 5.43583 -0.0435728 0
M  V30 9093 H 879.5 2.90098 -0.471183 0
M  V30 9094 H 877.014 1.58378 -0.359183 0
M  V30 9095 H 879.011 3.73752 1.84702 0
M  V30 9096 H 877.671 2.56911 1.98562 0
M  V30 9097 H 878.682 5.13461 -0.676591 0
M  V30 9098 H 875.359 3.86784 1.57177 0
M  V30 9099 H 876.749 6.56285 -1.44015 0
M  V30 9100 N 879.47 0.276058 1.55163 0
M  V30 9101 C 880.881 -0.221516 1.85381 0
M  V30 9102 C 881.232 -1.55372 1.19808 0
M  V30 9103 O 880.357 -2.10855 0.486742 0
M  V30 9104 C 880.952 -0.408706 3.36326 0
M  V30 9105 C 879.511 -0.850512 3.66665 0
M  V30 9106 C 878.658 0.055656 2.77244 0
M  V30 9107 H 881.609 0.497819 1.5069 0
M  V30 9108 H 881.63 -1.24711 3.59482 0
M  V30 9109 H 881.142 0.561052 3.84023 0
M  V30 9110 H 879.243 -1.83171 3.24468 0
M  V30 9111 H 879.356 -0.687181 4.74146 0
M  V30 9112 H 877.72 -0.460819 2.50497 0
M  V30 9113 H 878.503 1.02131 3.27756 0
M  V30 9114 N 880.948 -1.576 0.00335426 0
M  V30 9115 C 882.195 -1.90713 -0.680791 0
M  V30 9116 C 882.523 -0.877263 -1.73592 0
M  V30 9117 O 881.778 0.117497 -1.95347 0
M  V30 9118 C 882.077 -3.3058 -1.35837 0
M  V30 9119 C 881.743 -4.48786 -0.436111 0
M  V30 9120 C 880.405 -4.80855 -0.182195 0
M  V30 9121 C 882.757 -5.20821 0.198677 0
M  V30 9122 C 880.085 -5.8233 0.714747 0
M  V30 9123 C 882.437 -6.23252 1.08351 0
M  V30 9124 C 881.101 -6.53776 1.34658 0
M  V30 9125 H 880.371 -0.697869 -0.249119 0
M  V30 9126 H 883.018 -1.91407 0.0596011 0
M  V30 9127 H 881.323 -3.26026 -2.17289 0
M  V30 9128 H 883.02 -3.53462 -1.89383 0
M  V30 9129 H 879.61 -4.23731 -0.644186 0
M  V30 9130 H 883.794 -4.96298 0.0155259 0
M  V30 9131 H 879.05 -6.04339 0.926529 0
M  V30 9132 H 883.224 -6.78199 1.58172 0
M  V30 9133 H 880.851 -7.32225 2.04328 0
M  V30 9134 N 882.426 0.269451 -1.5528 0
M  V30 9135 C 883.374 1.35303 -1.89198 0
M  V30 9136 C 884.368 1.50956 -0.768671 0
M  V30 9137 O 885.574 1.52699 -0.953054 0
M  V30 9138 H 881.949 0.452591 -0.600554 0
M  V30 9139 H 883.92 1.03949 -2.79709 0
M  V30 9140 C 882.669 2.70585 -2.18356 0
M  V30 9141 H 881.992 2.59332 -3.04281 0
M  V30 9142 H 883.432 3.45335 -2.46007 0
M  V30 9143 C 881.891 3.21954 -0.992327 0
M  V30 9144 O 882.421 4.01048 -0.228769 0
M  V30 9145 N 880.627 2.79682 -0.789062 0
M  V30 9146 H 880.174 2.15475 -1.41167 0
M  V30 9147 H 880.132 3.14399 0.00634776 0
M  V30 9148 N 883.904 1.48273 0.534124 0
M  V30 9149 C 885.315 1.49667 1.1161 0
M  V30 9150 C 885.666 0.264139 1.94414 0
M  V30 9151 O 884.791 -0.629084 2.07054 0
M  V30 9152 C 885.386 2.71191 2.03079 0
M  V30 9153 C 883.945 2.7547 2.56502 0
M  V30 9154 C 883.092 2.43119 1.33373 0
M  V30 9155 H 886.043 1.55449 0.319578 0
M  V30 9156 H 886.064 2.49473 2.87304 0
M  V30 9157 H 885.576 3.60879 1.42785 0
M  V30 9158 H 883.677 1.89979 3.20529 0
M  V30 9159 H 883.79 3.76787 2.95919 0
M  V30 9160 H 882.154 1.94187 1.64813 0
M  V30 9161 H 882.937 3.35044 0.748375 0
M  V30 9162 N 885.382 -0.782676 1.36792 0
M  V30 9163 C 886.607 -1.57676 1.34733 0
M  V30 9164 C 887.032 -1.87979 -0.0675253 0
M  V30 9165 O 886.39 -1.48404 -1.04144 0
M  V30 9166 C 886.438 -2.87047 2.18257 0
M  V30 9167 O 885.542 -3.80946 1.57969 0
M  V30 9168 H 884.883 -0.478034 0.460846 0
M  V30 9169 H 887.413 -0.969578 1.80168 0
M  V30 9170 H 887.423 -3.36254 2.31079 0
M  V30 9171 H 886.098 -2.64319 3.21104 0
M  V30 9172 H 884.675 -3.39558 1.54126 0
M  V30 9173 N 886.86 -1.21182 -1.00761 0
M  V30 9174 C 887.79 -0.992773 -2.11344 0
M  V30 9175 C 888.771 0.0813618 -1.69905 0
M  V30 9176 O 889.956 -0.0779503 -1.94043 0
M  V30 9177 C 887.086 -0.553826 -3.42856 0
M  V30 9178 C 886.04 -1.57223 -3.98077 0
M  V30 9179 C 885.366 -0.989605 -5.25463 0
M  V30 9180 C 886.666 -2.95839 -4.30438 0
M  V30 9181 H 888.36 -1.91766 -2.29927 0
M  V30 9182 H 885.906 -0.923426 -1.10494 0
M  V30 9183 H 887.859 -0.387771 -4.19612 0
M  V30 9184 H 886.583 0.406702 -3.24058 0
M  V30 9185 H 885.242 -1.7258 -3.23437 0
M  V30 9186 H 884.89 -0.0208743 -5.02996 0
M  V30 9187 H 884.59 -1.66984 -5.63374 0
M  V30 9188 H 886.114 -0.834815 -6.04866 0
M  V30 9189 H 887.528 -2.8394 -4.98047 0
M  V30 9190 H 885.925 -3.60851 -4.79486 0
M  V30 9191 H 886.995 -3.46882 -3.38823 0
M  V30 9192 N 888.338 1.20213 -1.01915 0
M  V30 9193 C 889.301 2.21307 -0.596327 0
M  V30 9194 C 890.301 1.57274 0.334879 0
M  V30 9195 O 891.491 1.73764 0.12322 0
M  V30 9196 C 888.623 3.40657 0.128808 0
M  V30 9197 H 889.816 2.60228 -1.49068 0
M  V30 9198 H 887.369 1.33721 -0.809226 0
M  V30 9199 H 888.104 3.07241 1.03796 0
M  V30 9200 H 887.889 3.88361 -0.540183 0
M  V30 9201 H 889.379 4.15564 0.411892 0
M  V30 9202 N 889.816 0.795718 1.36037 0
M  V30 9203 C 890.779 0.204318 2.28287 0
M  V30 9204 C 891.779 -0.602017 1.49105 0
M  V30 9205 O 892.969 -0.422089 1.69009 0
M  V30 9206 C 890.101 -0.716431 3.33287 0
M  V30 9207 H 891.294 1.01781 2.821 0
M  V30 9208 H 888.847 0.565588 1.45708 0
M  V30 9209 H 889.582 -1.55403 2.84641 0
M  V30 9210 H 889.367 -0.140096 3.9185 0
M  V30 9211 H 890.857 -1.12488 4.02164 0
M  V30 9212 N 891.294 -1.47756 0.548274 0
M  V30 9213 C 892.705 -1.8636 0.112547 0
M  V30 9214 C 893.056 -1.45589 -1.31523 0
M  V30 9215 O 892.181 -0.854874 -1.98799 0
M  V30 9216 C 892.776 -3.38224 0.197473 0
M  V30 9217 C 891.335 -3.75954 -0.183163 0
M  V30 9218 C 890.482 -2.7181 0.549059 0
M  V30 9219 H 893.433 -1.394 0.758506 0
M  V30 9220 H 893.454 -3.75957 -0.586217 0
M  V30 9221 H 892.966 -3.67868 1.23673 0
M  V30 9222 H 891.067 -3.51926 -1.22387 0
M  V30 9223 H 891.18 -4.78801 0.169178 0
M  V30 9224 H 889.544 -2.54699 -0.00682862 0
M  V30 9225 H 890.327 -3.04296 1.5893 0
M  V30 9226 N 892.772 -0.284283 -1.55015 0
M  V30 9227 C 893.735 0.586182 -2.21577 0
M  V30 9228 C 894.735 1.07427 -1.1965 0
M  V30 9229 O 895.925 0.972977 -1.44495 0
M  V30 9230 C 893.057 1.80973 -2.88897 0
M  V30 9231 H 894.25 0.00487253 -2.999 0
M  V30 9232 H 891.803 -0.0349696 -1.56261 0
M  V30 9233 H 892.538 2.43131 -2.14611 0
M  V30 9234 H 892.323 1.46757 -3.636 0
M  V30 9235 H 893.813 2.42853 -3.39724 0
M  V30 9236 N 894.251 1.57596 -0.0117121 0
M  V30 9237 C 895.479 1.9536 0.681334 0
M  V30 9238 C 895.894 0.887255 1.66653 0
M  V30 9239 O 895.251 -0.132692 1.82017 0
M  V30 9240 C 895.302 3.33165 1.40298 0
M  V30 9241 O 895.023 4.35707 0.45728 0
M  V30 9242 C 896.524 3.85458 2.18946 0
M  V30 9243 H 893.744 0.643826 0.189023 0
M  V30 9244 H 896.288 2.04392 -0.066311 0
M  V30 9245 H 894.443 3.25404 2.10216 0
M  V30 9246 H 894.857 5.15495 0.96773 0
M  V30 9247 H 896.331 4.84275 2.64918 0
M  V30 9248 H 896.808 3.18781 3.02118 0
M  V30 9249 H 897.414 3.96431 1.5402 0
M  V30 9250 N 895.729 -0.261212 1.5542 0
M  V30 9251 C 896.677 -1.34298 1.89913 0
M  V30 9252 C 897.671 -1.50547 0.776665 0
M  V30 9253 O 898.877 -1.52191 0.961139 0
M  V30 9254 H 895.252 -0.4494 0.602946 0
M  V30 9255 H 897.223 -1.02464 2.80256 0
M  V30 9256 C 895.972 -2.69423 2.19788 0
M  V30 9257 H 895.295 -2.57715 3.05652 0
M  V30 9258 H 896.735 -3.44026 2.47835 0
M  V30 9259 C 895.194 -3.21423 1.00939 0
M  V30 9260 O 895.724 -4.00921 0.250034 0
M  V30 9261 N 893.93 -2.7926 0.803883 0
M  V30 9262 H 893.477 -2.14724 1.42308 0
M  V30 9263 H 893.435 -3.14398 0.0103257 0
M  V30 9264 N 897.207 -1.48554 -0.526253 0
M  V30 9265 C 898.157 -1.59753 -1.62674 0
M  V30 9266 C 899.141 -0.454452 -1.54349 0
M  V30 9267 O 900.333 -0.706091 -1.62306 0
M  V30 9268 C 897.462 -1.64388 -3.01383 0
M  V30 9269 C 896.548 -2.84188 -3.14798 0
M  V30 9270 N 896.939 -4.08564 -2.98176 0
M  V30 9271 C 895.237 -2.81599 -3.45859 0
M  V30 9272 C 895.938 -4.88961 -3.15106 0
M  V30 9273 N 894.914 -4.21848 -3.42849 0
M  V30 9274 H 898.716 -2.5366 -1.48438 0
M  V30 9275 H 896.23 -1.44977 -0.731801 0
M  V30 9276 H 898.227 -1.70505 -3.80439 0
M  V30 9277 H 896.887 -0.716006 -3.16707 0
M  V30 9278 H 897.898 -4.38943 -2.74862 0
M  V30 9279 H 894.575 -1.98083 -3.67518 0
M  V30 9280 H 895.965 -5.97683 -3.0696 0
M  V30 9281 N 898.685 0.775411 -1.37205 0
M  V30 9282 C 899.934 1.52909 -1.31536 0
M  V30 9283 C 900.247 1.9535 0.0989374 0
M  V30 9284 O 901.453 2.70072 0.278079 0
M  V30 9285 C 899.909 2.761 -2.30861 0
M  V30 9286 C 899.517 2.40773 -3.77799 0
M  V30 9287 C 901.261 3.54052 -2.34195 0
M  V30 9288 C 899.168 3.60444 -4.68865 0
M  V30 9289 H 898.098 0.574061 -0.488845 0
M  V30 9290 H 900.749 0.849642 -1.62645 0
M  V30 9291 H 899.131 3.45916 -1.92764 0
M  V30 9292 H 900.305 1.78764 -4.24712 0
M  V30 9293 H 898.62 1.76004 -3.77375 0
M  V30 9294 H 901.217 4.42992 -2.99437 0
M  V30 9295 H 901.56 3.93649 -1.35449 0
M  V30 9296 H 902.093 2.91229 -2.7098 0
M  V30 9297 H 898.832 3.25932 -5.68725 0
M  V30 9298 H 898.352 4.21571 -4.26659 0
M  V30 9299 H 900.031 4.27302 -4.85821 0
M  V30 9300 N 900.163 1.21714 1.00117 0
M  V30 9301 C 901.44 0.945391 1.71236 0
M  V30 9302 C 901.82 -0.541772 2.0403 0
M  V30 9303 O 901.168 -1.50763 1.71705 0
M  V30 9304 C 901.378 1.83444 2.96899 0
M  V30 9305 C 902.726 2.08558 3.69849 0
M  V30 9306 O 903.75 1.80824 3.06889 0
M  V30 9307 O 902.609 2.55485 4.83104 0
M  V30 9308 H 899.703 0.354834 0.747009 0
M  V30 9309 H 902.249 1.32661 1.05825 0
M  V30 9310 H 901.021 2.84075 2.69105 0
M  V30 9311 H 900.644 1.45428 3.70049 0
M  V30 9312 N 901.641 -1.19671 1.02551 0
M  V30 9313 C 903.052 -1.70964 0.750208 0
M  V30 9314 C 903.403 -1.82095 -0.730461 0
M  V30 9315 O 902.528 -1.48974 -1.56958 0
M  V30 9316 C 903.123 -3.10516 1.35518 0
M  V30 9317 C 901.682 -3.59083 1.12854 0
M  V30 9318 C 900.829 -2.36041 1.45534 0
M  V30 9319 H 903.78 -1.04559 1.19386 0
M  V30 9320 H 903.801 -3.73028 0.750378 0
M  V30 9321 H 903.313 -3.02383 2.43282 0
M  V30 9322 H 901.414 -3.72536 0.0689627 0
M  V30 9323 H 901.527 -4.43395 1.81488 0
M  V30 9324 H 899.891 -2.39214 0.87458 0
M  V30 9325 H 900.674 -2.3054 2.54374 0
M  V30 9326 N 903.119 -0.802921 -1.35613 0
M  V30 9327 C 904.359 -0.387163 -2.007 0
M  V30 9328 C 904.723 1.02546 -1.62322 0
M  V30 9329 O 905.924 1.54303 -2.201 0
M  V30 9330 C 904.195 -0.560813 -3.52973 0
M  V30 9331 S 905.754 -0.234935 -4.38171 0
M  V30 9332 H 902.572 -0.147218 -0.695592 0
M  V30 9333 H 905.174 -1.04437 -1.65267 0
M  V30 9334 H 903.878 -1.58897 -3.78391 0
M  V30 9335 H 903.409 0.111845 -3.93241 0
M  V30 9336 H 905.424 0.958715 -4.8685 0
M  V30 9337 N 904.597 1.47463 -0.556102 0
M  V30 9338 C 905.56 2.28478 0.181743 0
M  V30 9339 C 906.56 1.36886 0.843738 0
M  V30 9340 O 907.75 1.59527 0.69977 0
M  V30 9341 C 904.882 3.16534 1.26566 0
M  V30 9342 H 906.075 2.95182 -0.529892 0
M  V30 9343 H 903.628 1.53134 -0.313005 0
M  V30 9344 H 904.363 2.5452 2.00973 0
M  V30 9345 H 904.148 3.83939 0.795798 0
M  V30 9346 H 905.638 3.77579 1.78393 0
M  V30 9347 N 906.075 0.2925 1.54862 0
M  V30 9348 C 907.321 -0.319736 2.00264 0
M  V30 9349 C 907.654 -1.5419 1.18064 0
M  V30 9350 O 906.929 -1.92821 0.254983 0
M  V30 9351 C 907.212 -0.684753 3.5353 0
M  V30 9352 C 907.065 0.545961 4.46474 0
M  V30 9353 C 908.384 -1.51456 4.13218 0
M  V30 9354 H 905.503 -0.11474 0.728014 0
M  V30 9355 H 908.145 0.402907 1.85679 0
M  V30 9356 H 906.295 -1.30044 3.66089 0
M  V30 9357 H 907.967 1.18448 4.45834 0
M  V30 9358 H 906.21 1.1808 4.1742 0
M  V30 9359 H 906.881 0.246544 5.51449 0
M  V30 9360 H 909.357 -0.994421 4.04043 0
M  V30 9361 H 908.233 -1.73875 5.20633 0
M  V30 9362 H 908.494 -2.5011 3.64551 0
M  V30 9363 N 907.553 -1.57587 0.0200696 0
M  V30 9364 C 908.516 -2.08595 -0.949767 0
M  V30 9365 C 909.516 -0.999215 -1.25985 0
M  V30 9366 O 910.706 -1.26115 -1.2017 0
M  V30 9367 C 907.838 -2.54424 -2.26895 0
M  V30 9368 H 909.031 -2.95563 -0.508161 0
M  V30 9369 H 906.584 -1.54631 -0.227798 0
M  V30 9370 H 907.319 -1.70758 -2.75703 0
M  V30 9371 H 907.104 -3.3381 -2.05702 0
M  V30 9372 H 908.594 -2.94144 -2.96427 0
M  V30 9373 N 909.032 0.252966 -1.55557 0
M  V30 9374 C 910.443 0.822503 -1.67606 0
M  V30 9375 C 910.794 1.86265 -0.616411 0
M  V30 9376 O 909.919 2.15082 0.238447 0
M  V30 9377 C 910.514 1.49866 -3.03852 0
M  V30 9378 C 909.073 2.01597 -3.17861 0
M  V30 9379 C 908.22 0.864943 -2.63465 0
M  V30 9380 H 911.171 0.0288958 -1.58674 0
M  V30 9381 H 911.192 2.36646 -2.97958 0
M  V30 9382 H 910.704 0.741378 -3.80953 0
M  V30 9383 H 908.805 2.80224 -2.45571 0
M  V30 9384 H 908.918 2.21752 -4.24692 0
M  V30 9385 H 907.282 1.2638 -2.21134 0
M  V30 9386 H 908.065 0.120847 -3.43087 0
M  V30 9387 N 910.51 1.48831 0.518367 0
M  V30 9388 C 911.758 1.57128 1.27103 0
M  V30 9389 C 912.079 0.252098 1.93364 0
M  V30 9390 O 911.349 -0.727281 1.819 0
M  V30 9391 H 909.929 0.578891 0.472116 0
M  V30 9392 H 912.591 1.85361 0.602262 0
M  V30 9393 H 911.687 2.35838 2.04418 0
M  V30 9394 N 911.988 -0.768124 1.37614 0
M  V30 9395 C 913.399 -1.34462 1.29525 0
M  V30 9396 C 913.75 -1.96121 -0.0555168 0
M  V30 9397 O 912.875 -1.94069 -0.957406 0
M  V30 9398 C 913.47 -2.44475 2.34558 0
M  V30 9399 C 912.029 -2.97883 2.30093 0
M  V30 9400 C 911.176 -1.71131 2.18196 0
M  V30 9401 H 914.127 -0.568103 1.48183 0
M  V30 9402 H 914.148 -3.24047 1.99434 0
M  V30 9403 H 913.66 -1.99568 3.32858 0
M  V30 9404 H 911.761 -3.47156 1.35328 0
M  V30 9405 H 911.874 -3.53251 3.23652 0
M  V30 9406 H 910.238 -1.94197 1.64802 0
M  V30 9407 H 911.021 -1.28323 3.18415 0
M  V30 9408 N 913.466 -1.22244 -0.994698 0
M  V30 9409 C 914.877 -1.043 -1.5485 0
M  V30 9410 C 915.228 0.394102 -1.92201 0
M  V30 9411 O 914.353 1.27883 -1.74571 0
M  V30 9412 C 914.948 -1.88708 -2.8138 0
M  V30 9413 C 913.507 -1.75067 -3.3321 0
M  V30 9414 C 912.654 -1.85286 -2.06312 0
M  V30 9415 H 915.605 -1.36115 -0.815988 0
M  V30 9416 H 915.626 -1.40342 -3.53673 0
M  V30 9417 H 915.138 -2.93296 -2.54164 0
M  V30 9418 H 913.239 -0.732047 -3.65338 0
M  V30 9419 H 913.352 -2.57632 -4.03934 0
M  V30 9420 H 911.716 -1.28706 -2.19788 0
M  V30 9421 H 912.499 -2.91401 -1.81494 0
M  V30 9422 N 914.944 1.19125 -1.03184 0
M  V30 9423 C 916.169 1.93379 -0.749628 0
M  V30 9424 C 916.594 1.75153 0.685785 0
M  V30 9425 O 915.952 1.05579 1.47386 0
M  V30 9426 C 916 3.43101 -1.1097 0
M  V30 9427 O 915.104 4.11758 -0.230053 0
M  V30 9428 H 914.445 0.603605 -0.276689 0
M  V30 9429 H 916.975 1.51116 -1.37931 0
M  V30 9430 H 916.985 3.93778 -1.06785 0
M  V30 9431 H 915.66 3.55688 -2.15544 0
M  V30 9432 H 914.237 3.7143 -0.330748 0
M  V30 9433 N 916.422 0.810101 1.35185 0
M  V30 9434 C 917.668 0.392698 1.98962 0
M  V30 9435 C 918.001 -1.03835 1.64109 0
M  V30 9436 O 917.276 -1.721 0.9062 0
M  V30 9437 C 917.559 0.580349 3.55393 0
M  V30 9438 C 917.412 2.05658 4.00031 0
M  V30 9439 C 918.731 0.00822618 4.40099 0
M  V30 9440 H 915.85 0.144157 0.722764 0
M  V30 9441 H 918.492 1.02029 1.60281 0
M  V30 9442 H 916.642 0.0461106 3.88473 0
M  V30 9443 H 918.314 2.65348 3.77344 0
M  V30 9444 H 916.557 2.55174 3.50811 0
M  V30 9445 H 917.228 2.13875 5.08883 0
M  V30 9446 H 919.704 0.464517 4.13499 0
M  V30 9447 H 918.58 0.169414 5.48638 0
M  V30 9448 H 918.841 -1.08576 4.2856 0
M  V30 9449 N 917.9 -1.47166 0.563914 0
M  V30 9450 C 919.146 -2.02756 0.0424338 0
M  V30 9451 C 919.479 -1.43662 -1.3067 0
M  V30 9452 O 918.754 -0.594676 -1.85186 0
M  V30 9453 C 919.037 -3.60074 -0.0434793 0
M  V30 9454 C 918.89 -4.29587 1.33323 0
M  V30 9455 C 920.209 -4.336 -0.753568 0
M  V30 9456 H 917.328 -0.736806 0.0168946 0
M  V30 9457 H 919.97 -1.75521 0.727496 0
M  V30 9458 H 918.12 -3.83409 -0.626906 0
M  V30 9459 H 919.792 -4.17573 1.96037 0
M  V30 9460 H 918.035 -3.8968 1.9061 0
M  V30 9461 H 918.706 -5.38218 1.22576 0
M  V30 9462 H 921.182 -4.15299 -0.258126 0
M  V30 9463 H 920.058 -5.43291 -0.782659 0
M  V30 9464 H 920.319 -4.03302 -1.81108 0
M  V30 9465 N 919.378 -0.300708 -1.54705 0
M  V30 9466 C 920.624 0.309111 -2.0043 0
M  V30 9467 C 920.957 1.53562 -1.1888 0
M  V30 9468 O 920.232 1.92683 -0.265205 0
M  V30 9469 C 920.515 0.665995 -3.53888 0
M  V30 9470 C 920.368 -0.56963 -4.46178 0
M  V30 9471 C 921.687 1.49262 -4.14016 0
M  V30 9472 H 918.806 0.110878 -0.728612 0
M  V30 9473 H 921.448 -0.412748 -1.85463 0
M  V30 9474 H 919.598 1.281 -3.66773 0
M  V30 9475 H 921.27 -1.20811 -4.45199 0
M  V30 9476 H 919.513 -1.20292 -4.16788 0
M  V30 9477 H 920.184 -0.275785 -5.51311 0
M  V30 9478 H 922.66 0.972979 -4.04564 0
M  V30 9479 H 921.536 1.71111 -5.21548 0
M  V30 9480 H 921.797 2.48174 -3.65872 0
M  V30 9481 N 920.856 1.57574 -0.0284266 0
M  V30 9482 C 921.803 2.10176 0.953658 0
M  V30 9483 C 922.773 1.00367 1.32347 0
M  V30 9484 O 923.958 1.27783 1.4169 0
M  V30 9485 C 921.098 2.63287 2.231 0
M  V30 9486 C 920.211 3.87102 1.91771 0
M  V30 9487 C 919.346 4.28609 3.13795 0
M  V30 9488 C 918.385 5.45184 2.78282 0
M  V30 9489 N 917.522 5.81851 3.92929 0
M  V30 9490 H 922.362 2.93806 0.498176 0
M  V30 9491 H 919.899 1.45222 0.234302 0
M  V30 9492 H 921.857 2.9217 2.97813 0
M  V30 9493 H 920.487 1.82489 2.66266 0
M  V30 9494 H 919.539 3.64952 1.07303 0
M  V30 9495 H 920.851 4.71892 1.61615 0
M  V30 9496 H 920.005 4.58925 3.96829 0
M  V30 9497 H 918.744 3.42585 3.47112 0
M  V30 9498 H 917.749 5.14563 1.93661 0
M  V30 9499 H 918.974 6.32907 2.46182 0
M  V30 9500 H 916.92 4.98782 4.2609 0
M  V30 9501 H 916.837 6.6128 3.66395 0
M  V30 9502 H 918.105 6.16772 4.76669 0
M  V30 9503 N 922.334 -0.244713 1.55689 0
M  V30 9504 C 923.266 -1.32595 1.86952 0
M  V30 9505 C 924.279 -1.44185 0.755948 0
M  V30 9506 O 925.468 -1.45496 1.03408 0
M  V30 9507 C 922.568 -2.70429 2.04258 0
M  V30 9508 C 921.741 -2.8108 3.35131 0
M  V30 9509 C 920.8 -3.99773 3.42152 0
M  V30 9510 O 919.826 -3.89197 4.15348 0
M  V30 9511 N 921.028 -5.13041 2.71604 0
M  V30 9512 H 923.793 -1.06111 2.80287 0
M  V30 9513 H 921.354 -0.434811 1.55952 0
M  V30 9514 H 923.346 -3.48173 2.06295 0
M  V30 9515 H 921.916 -2.89612 1.17658 0
M  V30 9516 H 921.136 -1.89994 3.45392 0
M  V30 9517 H 922.424 -2.85147 4.21389 0
M  V30 9518 H 921.822 -5.24525 2.11872 0
M  V30 9519 H 920.379 -5.88912 2.79331 0
M  V30 9520 N 923.813 -1.49104 -0.510467 0
M  V30 9521 C 924.723 -1.67792 -1.6396 0
M  V30 9522 C 925.739 -0.560454 -1.64727 0
M  V30 9523 O 926.915 -0.833985 -1.83321 0
M  V30 9524 C 923.98 -1.73154 -3.00364 0
M  V30 9525 C 923.041 -2.9667 -3.10299 0
M  V30 9526 C 922.274 -3.01767 -4.40196 0
M  V30 9527 O 922.497 -2.1472 -5.28443 0
M  V30 9528 O 921.431 -3.94137 -4.54906 0
M  V30 9529 H 925.257 -2.63428 -1.51126 0
M  V30 9530 H 922.842 -1.32734 -0.685719 0
M  V30 9531 H 924.724 -1.79089 -3.81451 0
M  V30 9532 H 923.399 -0.806952 -3.1348 0
M  V30 9533 H 922.306 -2.96257 -2.28435 0
M  V30 9534 H 923.639 -3.88578 -3.02106 0
M  V30 9535 N 925.291 0.760815 -1.38019 0
M  V30 9536 C 926.254 1.85604 -1.34476 0
M  V30 9537 C 927.254 1.58897 -0.24666 0
M  V30 9538 O 928.444 1.66776 -0.50314 0
M  V30 9539 C 925.576 3.22945 -1.09176 0
M  V30 9540 H 926.769 1.90155 -2.31908 0
M  V30 9541 H 924.322 0.961746 -1.23208 0
M  V30 9542 H 925.057 3.24066 -0.123216 0
M  V30 9543 H 924.842 3.43723 -1.88672 0
M  V30 9544 H 926.332 4.03022 -1.09375 0
M  V30 9545 N 926.769 1.22769 0.988202 0
M  V30 9546 C 927.699 1.02627 2.09738 0
M  V30 9547 C 928.68 -0.0543211 1.70013 0
M  V30 9548 O 929.865 0.108811 1.93895 0
M  V30 9549 C 926.995 0.608302 3.41931 0
M  V30 9550 C 925.949 1.63536 3.95525 0
M  V30 9551 C 925.275 1.07308 5.23822 0
M  V30 9552 C 926.575 3.02649 4.25677 0
M  V30 9553 H 928.269 1.954 2.26847 0
M  V30 9554 H 925.815 0.940888 1.09011 0
M  V30 9555 H 927.768 0.454478 4.18942 0
M  V30 9556 H 926.492 -0.355095 3.24664 0
M  V30 9557 H 925.151 1.77704 3.20651 0
M  V30 9558 H 924.799 0.100894 5.02899 0
M  V30 9559 H 924.499 1.75925 5.60646 0
M  V30 9560 H 926.023 0.930938 6.03462 0
M  V30 9561 H 927.437 2.91828 4.93467 0
M  V30 9562 H 925.834 3.68434 4.73684 0
M  V30 9563 H 926.904 3.52228 3.33262 0
M  V30 9564 N 928.247 -1.18576 1.03814 0
M  V30 9565 C 929.179 -2.21607 0.585055 0
M  V30 9566 C 930.192 -1.59125 -0.343963 0
M  V30 9567 O 931.381 -1.77959 -0.138882 0
M  V30 9568 C 928.481 -3.38495 -0.165602 0
M  V30 9569 C 927.654 -4.30557 0.770662 0
M  V30 9570 C 926.713 -5.26161 0.0637534 0
M  V30 9571 O 925.739 -5.64961 0.693359 0
M  V30 9572 N 926.941 -5.67882 -1.20377 0
M  V30 9573 H 929.706 -2.61104 1.47121 0
M  V30 9574 H 927.267 -1.33336 0.918316 0
M  V30 9575 H 929.259 -3.99474 -0.648292 0
M  V30 9576 H 927.829 -2.97711 -0.953268 0
M  V30 9577 H 927.049 -3.67221 1.43326 0
M  V30 9578 H 928.337 -4.88969 1.40667 0
M  V30 9579 H 927.735 -5.38409 -1.73586 0
M  V30 9580 H 926.292 -6.31069 -1.63079 0
M  V30 9581 N 929.725 -0.817259 -1.34754 0
M  V30 9582 C 931.136 -0.462215 -1.80888 0
M  V30 9583 C 931.487 1.01685 -1.67794 0
M  V30 9584 O 930.612 1.79094 -1.21468 0
M  V30 9585 C 931.207 -0.832204 -3.2842 0
M  V30 9586 C 929.766 -0.52961 -3.72655 0
M  V30 9587 C 928.913 -1.05214 -2.56564 0
M  V30 9588 H 931.864 -1.00795 -1.22581 0
M  V30 9589 H 931.885 -0.133804 -3.80265 0
M  V30 9590 H 931.397 -1.90873 -3.37919 0
M  V30 9591 H 929.498 0.537743 -3.68699 0
M  V30 9592 H 929.611 -1.06971 -4.67005 0
M  V30 9593 H 927.975 -0.473949 -2.50251 0
M  V30 9594 H 928.758 -2.135 -2.68836 0
M  V30 9595 N 931.203 1.46865 -0.571711 0
M  V30 9596 C 932.113 2.33979 0.170571 0
M  V30 9597 C 933.129 1.49083 0.897239 0
M  V30 9598 O 934.305 1.81979 0.862888 0
M  V30 9599 C 931.37 3.26063 1.17831 0
M  V30 9600 C 930.431 4.26855 0.457499 0
M  V30 9601 C 929.664 5.14539 1.41722 0
M  V30 9602 O 929.887 5.04945 2.65305 0
M  V30 9603 O 928.821 5.94612 0.9338 0
M  V30 9604 H 932.647 2.98781 -0.544396 0
M  V30 9605 H 930.232 1.4566 -0.332198 0
M  V30 9606 H 932.114 3.82903 1.75965 0
M  V30 9607 H 930.789 2.63871 1.87493 0
M  V30 9608 H 929.696 3.73734 -0.165406 0
M  V30 9609 H 931.029 4.91802 -0.197953 0
M  V30 9610 N 932.681 0.308908 1.54543 0
M  V30 9611 C 934.092 -0.182144 1.85809 0
M  V30 9612 C 934.443 -1.52796 1.23076 0
M  V30 9613 O 933.568 -2.09775 0.531358 0
M  V30 9614 C 934.163 -0.337275 3.37117 0
M  V30 9615 C 932.722 -0.772545 3.68387 0
M  V30 9616 C 931.869 0.114451 2.77064 0
M  V30 9617 H 934.82 0.529671 1.496 0
M  V30 9618 H 934.841 -1.17058 3.62046 0
M  V30 9619 H 934.353 0.642382 3.82747 0
M  V30 9620 H 932.454 -1.76247 3.2828 0
M  V30 9621 H 932.567 -0.586453 4.75497 0
M  V30 9622 H 930.931 -0.407581 2.51418 0
M  V30 9623 H 931.714 1.09061 3.25516 0
M  V30 9624 N 934.159 -1.57557 0.0367827 0
M  V30 9625 C 935.069 -2.14148 -0.958017 0
M  V30 9626 C 936.085 -1.09564 -1.35173 0
M  V30 9627 O 937.261 -1.4166 -1.43158 0
M  V30 9628 C 934.326 -2.6636 -2.21931 0
M  V30 9629 C 933.387 -3.85688 -1.8853 0
M  V30 9630 C 932.62 -4.35401 -3.08645 0
M  V30 9631 O 932.843 -3.8425 -4.21554 0
M  V30 9632 O 931.777 -5.27158 -2.90497 0
M  V30 9633 H 935.603 -2.99442 -0.506797 0
M  V30 9634 H 933.188 -1.48259 -0.184275 0
M  V30 9635 H 935.07 -2.99976 -2.9596 0
M  V30 9636 H 933.745 -1.84145 -2.66219 0
M  V30 9637 H 932.652 -3.56985 -1.11861 0
M  V30 9638 H 933.985 -4.69089 -1.49052 0
M  V30 9639 N 935.637 0.236453 -1.55816 0
M  V30 9640 C 937.048 0.80468 -1.68469 0
M  V30 9641 C 937.399 1.85601 -0.636133 0
M  V30 9642 O 936.524 2.15323 0.215622 0
M  V30 9643 C 937.119 1.46634 -3.05424 0
M  V30 9644 C 935.678 1.98214 -3.19981 0
M  V30 9645 C 934.825 0.83695 -2.64368 0
M  V30 9646 H 937.776 0.0120647 -1.58695 0
M  V30 9647 H 937.797 2.33472 -3.00451 0
M  V30 9648 H 937.309 0.700931 -3.81718 0
M  V30 9649 H 935.41 2.77604 -2.4853 0
M  V30 9650 H 935.523 2.17235 -4.2702 0
M  V30 9651 H 933.887 1.24028 -2.22462 0
M  V30 9652 H 934.67 0.084451 -3.43196 0
M  V30 9653 N 937.115 1.49373 0.502552 0
M  V30 9654 C 938.361 1.59016 1.25864 0
M  V30 9655 C 938.694 0.27532 1.92238 0
M  V30 9656 O 937.969 -0.720988 1.80643 0
M  V30 9657 C 938.252 2.74828 2.32683 0
M  V30 9658 C 938.105 4.16102 1.7082 0
M  V30 9659 C 939.424 2.86288 3.34256 0
M  V30 9660 H 936.543 0.578798 0.456248 0
M  V30 9661 H 939.185 1.81651 0.557032 0
M  V30 9662 H 937.335 2.5566 2.92524 0
M  V30 9663 H 939.007 4.46782 1.14818 0
M  V30 9664 H 937.25 4.21822 1.01238 0
M  V30 9665 H 937.921 4.93006 2.48292 0
M  V30 9666 H 940.397 3.03733 2.84404 0
M  V30 9667 H 939.273 3.69001 4.06362 0
M  V30 9668 H 939.534 1.95576 3.96488 0
M  V30 9669 N 938.594 -0.753485 1.38421 0
M  V30 9670 C 940.005 -1.33081 1.30944 0
M  V30 9671 C 940.356 -1.96169 -0.0347124 0
M  V30 9672 O 939.481 -1.95073 -0.936768 0
M  V30 9673 C 940.076 -2.41973 2.37138 0
M  V30 9674 C 938.635 -2.95426 2.33239 0
M  V30 9675 C 937.782 -1.68808 2.19998 0
M  V30 9676 H 940.733 -0.552354 1.48777 0
M  V30 9677 H 940.754 -3.21913 2.02859 0
M  V30 9678 H 940.266 -1.96027 3.34956 0
M  V30 9679 H 938.367 -3.45701 1.39003 0
M  V30 9680 H 938.48 -3.49798 3.27381 0
M  V30 9681 H 936.844 -1.92438 1.66852 0
M  V30 9682 H 937.627 -1.24939 3.19758 0
M  V30 9683 N 940.072 -1.23292 -0.981677 0
M  V30 9684 C 941.035 -1.01417 -2.05542 0
M  V30 9685 C 942.035 0.0235354 -1.60783 0
M  V30 9686 O 943.225 -0.216082 -1.72855 0
M  V30 9687 C 940.357 -0.534239 -3.36688 0
M  V30 9688 H 941.55 -1.96702 -2.26381 0
M  V30 9689 H 939.103 -1.05318 -1.1549 0
M  V30 9690 H 939.838 0.422452 -3.21537 0
M  V30 9691 H 939.623 -1.28304 -3.70514 0
M  V30 9692 H 941.113 -0.40179 -4.15663 0
M  V30 9693 N 941.55 1.18024 -1.04442 0
M  V30 9694 C 942.961 1.69749 -0.777312 0
M  V30 9695 C 943.312 1.83234 0.701399 0
M  V30 9696 O 942.437 1.51452 1.54568 0
M  V30 9697 C 943.032 3.08321 -1.40441 0
M  V30 9698 C 941.591 3.57243 -1.18553 0
M  V30 9699 C 940.738 2.33695 -1.49271 0
M  V30 9700 H 943.689 1.02647 -1.21035 0
M  V30 9701 H 943.71 3.71787 -0.809628 0
M  V30 9702 H 943.222 2.98474 -2.48062 0
M  V30 9703 H 941.323 3.72379 -0.128221 0
M  V30 9704 H 941.436 4.40451 -1.88519 0
M  V30 9705 H 939.8 2.37792 -0.912526 0
M  V30 9706 H 940.583 2.26464 -2.5801 0
M  V30 9707 N 943.028 0.824394 1.34319 0
M  V30 9708 C 943.96 0.204805 2.28283 0
M  V30 9709 C 944.973 -0.606162 1.51094 0
M  V30 9710 O 946.162 -0.435602 1.73103 0
M  V30 9711 C 943.262 -0.73139 3.30914 0
M  V30 9712 C 942.435 0.0370723 4.37384 0
M  V30 9713 C 941.494 -0.820272 5.19767 0
M  V30 9714 O 940.52 -0.264721 5.68584 0
M  V30 9715 N 941.722 -2.13984 5.39621 0
M  V30 9716 H 944.487 1.0121 2.82093 0
M  V30 9717 H 942.048 0.681494 1.46858 0
M  V30 9718 H 944.04 -1.30958 3.82926 0
M  V30 9719 H 942.61 -1.43943 2.77487 0
M  V30 9720 H 941.83 0.796578 3.86068 0
M  V30 9721 H 943.118 0.566014 5.05642 0
M  V30 9722 H 942.516 -2.61492 5.01636 0
M  V30 9723 H 941.073 -2.66685 5.94746 0
M  V30 9724 N 944.506 -1.46559 0.579492 0
M  V30 9725 C 945.436 -2.33059 -0.143437 0
M  V30 9726 C 946.417 -1.4515 -0.886868 0
M  V30 9727 O 947.602 -1.73973 -0.862961 0
M  V30 9728 C 944.732 -3.27364 -1.15973 0
M  V30 9729 C 943.686 -4.24689 -0.531348 0
M  V30 9730 C 943.012 -5.08479 -1.65388 0
M  V30 9731 C 944.312 -5.1961 0.529391 0
M  V30 9732 H 946.006 -2.93753 0.578762 0
M  V30 9733 H 943.552 -1.41256 0.279775 0
M  V30 9734 H 945.505 -3.86732 -1.67382 0
M  V30 9735 H 944.229 -2.64771 -1.91217 0
M  V30 9736 H 942.888 -3.6658 -0.0383749 0
M  V30 9737 H 942.536 -4.42273 -2.3959 0
M  V30 9738 H 942.236 -5.74387 -1.23909 0
M  V30 9739 H 943.76 -5.70709 -2.17079 0
M  V30 9740 H 945.174 -5.73212 0.100506 0
M  V30 9741 H 943.571 -5.93843 0.86432 0
M  V30 9742 H 944.641 -4.63737 1.4169 0
M  V30 9743 N 945.984 -0.3171 -1.54377 0
M  V30 9744 C 946.914 0.544623 -2.2706 0
M  V30 9745 C 947.895 1.12469 -1.27611 0
M  V30 9746 O 949.08 1.15103 -1.56413 0
M  V30 9747 C 946.21 1.70879 -3.02353 0
M  V30 9748 C 945.164 1.25833 -4.09084 0
M  V30 9749 C 944.49 2.50894 -4.72182 0
M  V30 9750 C 945.79 0.377876 -5.20931 0
M  V30 9751 H 947.484 -0.0616372 -2.99337 0
M  V30 9752 H 945.03 -0.0310848 -1.43966 0
M  V30 9753 H 946.983 2.31787 -3.51927 0
M  V30 9754 H 945.707 2.34155 -2.27682 0
M  V30 9755 H 944.366 0.672228 -3.60384 0
M  V30 9756 H 944.014 3.12518 -3.94134 0
M  V30 9757 H 943.714 2.21447 -5.44275 0
M  V30 9758 H 945.238 3.12575 -5.24528 0
M  V30 9759 H 946.652 0.893056 -5.66302 0
M  V30 9760 H 945.049 0.176474 -5.9984 0
M  V30 9761 H 946.119 -0.592943 -4.81261 0
M  V30 9762 N 947.462 1.57535 -0.0451378 0
M  V30 9763 C 948.392 2.14208 0.929372 0
M  V30 9764 C 949.373 1.06221 1.32858 0
M  V30 9765 O 950.558 1.34132 1.40436 0
M  V30 9766 C 947.688 2.68217 2.20629 0
M  V30 9767 C 946.642 3.81134 1.94734 0
M  V30 9768 C 945.968 4.21636 3.28828 0
M  V30 9769 C 947.268 5.06531 1.27374 0
M  V30 9770 H 948.962 2.95886 0.457348 0
M  V30 9771 H 946.508 1.42332 0.218544 0
M  V30 9772 H 948.461 3.06502 2.89196 0
M  V30 9773 H 947.185 1.83722 2.70026 0
M  V30 9774 H 945.844 3.43312 1.28579 0
M  V30 9775 H 945.492 3.34099 3.76014 0
M  V30 9776 H 945.192 4.97736 3.12302 0
M  V30 9777 H 946.716 4.62516 3.98637 0
M  V30 9778 H 948.13 5.423 1.85967 0
M  V30 9779 H 946.527 5.87735 1.21194 0
M  V30 9780 H 947.597 4.84261 0.248913 0
M  V30 9781 N 948.94 -0.228186 1.55939 0
M  V30 9782 C 950.188 -0.951668 1.78291 0
M  V30 9783 C 950.509 -1.85132 0.612474 0
M  V30 9784 O 949.779 -1.92356 -0.370942 0
M  V30 9785 H 948.359 -0.354388 0.657585 0
M  V30 9786 H 951.021 -0.241635 1.93396 0
M  V30 9787 H 950.117 -1.56239 2.70177 0
M  V30 9788 N 950.418 -1.49637 -0.494624 0
M  V30 9789 C 951.829 -1.52573 -1.07603 0
M  V30 9790 C 952.18 -0.315591 -1.93645 0
M  V30 9791 O 951.305 0.573966 -2.08649 0
M  V30 9792 C 951.9 -2.7648 -1.95817 0
M  V30 9793 C 950.459 -2.82173 -2.49109 0
M  V30 9794 C 949.606 -2.4657 -1.2688 0
M  V30 9795 H 952.557 -1.56242 -0.278251 0
M  V30 9796 H 952.578 -2.57003 -2.80588 0
M  V30 9797 H 952.09 -3.64538 -1.33167 0
M  V30 9798 H 950.191 -1.9841 -3.15379 0
M  V30 9799 H 950.304 -3.84501 -2.85825 0
M  V30 9800 H 948.668 -1.98489 -1.59607 0
M  V30 9801 H 949.451 -3.3691 -0.659281 0
M  V30 9802 N 951.896 0.746133 -1.38819 0
M  V30 9803 C 952.828 1.86991 -1.3254 0
M  V30 9804 C 953.841 1.61077 -0.236216 0
M  V30 9805 O 955.03 1.71518 -0.494341 0
M  V30 9806 C 952.13 3.22786 -1.03258 0
M  V30 9807 C 951.303 3.76145 -2.23234 0
M  V30 9808 C 950.362 4.90474 -1.90581 0
M  V30 9809 O 949.388 5.04717 -2.63153 0
M  V30 9810 N 950.59 5.74015 -0.86525 0
M  V30 9811 H 953.355 1.92885 -2.2938 0
M  V30 9812 H 950.916 0.926392 -1.32776 0
M  V30 9813 H 952.908 3.96824 -0.794533 0
M  V30 9814 H 951.478 3.12231 -0.151895 0
M  V30 9815 H 950.698 2.93587 -2.63059 0
M  V30 9816 H 951.986 4.08528 -3.03285 0
M  V30 9817 H 951.384 5.65086 -0.263577 0
M  V30 9818 H 949.941 6.48168 -0.687087 0
M  V30 9819 N 953.375 1.23811 0.975125 0
M  V30 9820 C 954.623 1.07124 1.71373 0
M  V30 9821 C 954.944 -0.391864 1.91022 0
M  V30 9822 O 954.214 -1.28041 1.48265 0
M  V30 9823 H 952.794 0.393415 0.635007 0
M  V30 9824 H 955.456 1.55612 1.17349 0
M  V30 9825 H 954.552 1.56338 2.7012 0
M  V30 9826 N 954.853 -1.17469 1.05066 0
M  V30 9827 C 956.264 -1.69334 0.786304 0
M  V30 9828 C 956.615 -1.83604 -0.691671 0
M  V30 9829 O 955.74 -1.52269 -1.53763 0
M  V30 9830 C 956.335 -3.07572 1.42074 0
M  V30 9831 C 954.894 -3.56609 1.20446 0
M  V30 9832 C 954.041 -2.329 1.50508 0
M  V30 9833 H 956.992 -1.02003 1.21577 0
M  V30 9834 H 957.013 -3.71352 0.829334 0
M  V30 9835 H 956.525 -2.97154 2.49642 0
M  V30 9836 H 954.626 -3.72306 0.147968 0
M  V30 9837 H 954.739 -4.39446 1.90852 0
M  V30 9838 H 953.103 -2.37305 0.925124 0
M  V30 9839 H 953.886 -2.25093 2.59207 0
M  V30 9840 N 956.331 -0.831506 -1.3388 0
M  V30 9841 C 957.556 -0.435954 -2.02766 0
M  V30 9842 C 957.981 0.952889 -1.62178 0
M  V30 9843 O 957.339 1.62166 -0.810681 0
M  V30 9844 C 957.387 -0.555907 -3.56289 0
M  V30 9845 O 956.491 0.420826 -4.10247 0
M  V30 9846 H 955.832 -0.178248 -0.639628 0
M  V30 9847 H 958.362 -1.1243 -1.70941 0
M  V30 9848 H 958.372 -0.434831 -4.05676 0
M  V30 9849 H 957.047 -1.56881 -3.85177 0
M  V30 9850 H 955.624 0.257919 -3.72007 0
M  V30 9851 N 957.809 1.4625 -0.587256 0
M  V30 9852 C 958.739 2.33132 0.131076 0
M  V30 9853 C 959.72 1.45619 0.879158 0
M  V30 9854 O 960.905 1.74428 0.853723 0
M  V30 9855 C 958.035 3.27975 1.14236 0
M  V30 9856 C 956.989 4.24965 0.508819 0
M  V30 9857 C 956.315 5.09349 1.62689 0
M  V30 9858 C 957.615 5.19322 -0.55694 0
M  V30 9859 H 959.309 2.93442 -0.594333 0
M  V30 9860 H 956.855 1.41106 -0.287263 0
M  V30 9861 H 958.808 3.87614 1.65328 0
M  V30 9862 H 957.532 2.65781 1.8981 0
M  V30 9863 H 956.191 3.66595 0.0189337 0
M  V30 9864 H 955.839 4.43537 2.37242 0
M  V30 9865 H 955.539 5.75036 1.20861 0
M  V30 9866 H 957.063 5.71852 2.14049 0
M  V30 9867 H 958.477 5.73151 -0.130903 0
M  V30 9868 H 956.874 5.93376 -0.895801 0
M  V30 9869 H 957.944 4.62979 -1.44148 0
M  V30 9870 N 959.287 0.325282 1.54207 0
M  V30 9871 C 960.536 -0.27768 1.99779 0
M  V30 9872 C 960.849 -1.5311 1.21723 0
M  V30 9873 O 962.055 -2.21017 1.57682 0
M  V30 9874 C 960.511 -0.545329 3.55745 0
M  V30 9875 C 960.119 0.691143 4.42637 0
M  V30 9876 C 961.863 -1.10815 4.09781 0
M  V30 9877 C 959.77 0.395302 5.90077 0
M  V30 9878 H 958.7 -0.107536 0.746292 0
M  V30 9879 H 961.351 0.437773 1.78202 0
M  V30 9880 H 959.733 -1.32101 3.73317 0
M  V30 9881 H 960.907 1.46653 4.3684 0
M  V30 9882 H 959.222 1.1743 3.99499 0
M  V30 9883 H 961.819 -1.34414 5.1753 0
M  V30 9884 H 962.162 -2.05806 3.6187 0
M  V30 9885 H 962.695 -0.393608 3.95848 0
M  V30 9886 H 959.434 1.31443 6.42186 0
M  V30 9887 H 958.954 -0.34235 5.98822 0
M  V30 9888 H 960.633 0.00576877 6.47 0
M  V30 9889 N 960.765 -1.57509 0.0534917 0
M  V30 9890 C 961.712 -2.11667 -0.920101 0
M  V30 9891 C 962.682 -1.0246 -1.30733 0
M  V30 9892 O 963.867 -1.30021 -1.39639 0
M  V30 9893 C 961.007 -2.66803 -2.18883 0
M  V30 9894 C 960.12 -3.90104 -1.85588 0
M  V30 9895 C 959.255 -4.33547 -3.06937 0
M  V30 9896 C 958.294 -5.49542 -2.69573 0
M  V30 9897 N 957.431 -5.88029 -3.83623 0
M  V30 9898 H 962.271 -2.94562 -0.451371 0
M  V30 9899 H 959.808 -1.45576 -0.211168 0
M  V30 9900 H 961.766 -2.96871 -2.93127 0
M  V30 9901 H 960.396 -1.86702 -2.63329 0
M  V30 9902 H 959.448 -3.66613 -1.01484 0
M  V30 9903 H 960.76 -4.74404 -1.54087 0
M  V30 9904 H 959.914 -4.6518 -3.89477 0
M  V30 9905 H 958.653 -3.48064 -3.41618 0
M  V30 9906 H 957.658 -5.17579 -1.8545 0
M  V30 9907 H 958.883 -6.36743 -2.36082 0
M  V30 9908 H 956.829 -5.05498 -4.181 0
M  V30 9909 H 956.746 -6.67025 -3.55828 0
M  V30 9910 H 958.014 -6.24277 -4.66796 0
M  V30 9911 N 962.243 0.219913 -1.56058 0
M  V30 9912 C 963.491 0.942199 -1.78793 0
M  V30 9913 C 963.812 1.84804 -0.622284 0
M  V30 9914 O 963.082 1.9255 0.360735 0
M  V30 9915 H 961.662 0.350895 -0.659455 0
M  V30 9916 H 964.324 0.231376 -1.93522 0
M  V30 9917 H 963.42 1.54804 -2.71002 0
M  V30 9918 N 963.721 1.49897 0.486681 0
M  V30 9919 C 964.967 1.60342 1.2417 0
M  V30 9920 C 965.3 0.295694 1.91936 0
M  V30 9921 O 964.575 -0.701788 1.81398 0
M  V30 9922 C 964.858 2.77281 2.29755 0
M  V30 9923 C 964.711 4.1789 1.66397 0
M  V30 9924 C 966.03 2.89817 3.31201 0
M  V30 9925 H 963.149 0.583605 0.450083 0
M  V30 9926 H 965.791 1.82232 0.537734 0
M  V30 9927 H 963.941 2.58748 2.89796 0
M  V30 9928 H 965.613 4.47975 1.10073 0
M  V30 9929 H 963.856 4.22872 0.967579 0
M  V30 9930 H 964.527 4.95612 2.43049 0
M  V30 9931 H 967.003 3.06732 2.81167 0
M  V30 9932 H 965.879 3.7329 4.02425 0
M  V30 9933 H 966.14 1.9977 3.94391 0
M  V30 9934 N 965.199 -0.738761 1.39212 0
M  V30 9935 C 966.162 -1.83441 1.37412 0
M  V30 9936 C 967.162 -1.58484 0.271908 0
M  V30 9937 O 968.352 -1.65954 0.529609 0
M  V30 9938 C 965.484 -3.21167 1.143 0
M  V30 9939 H 966.677 -1.86441 2.34904 0
M  V30 9940 H 964.23 -0.942023 1.24722 0
M  V30 9941 H 964.965 -3.23829 0.174756 0
M  V30 9942 H 964.75 -3.40678 1.94116 0
M  V30 9943 H 966.24 -4.01231 1.15773 0
M  V30 9944 N 966.677 -1.24326 -0.968545 0
M  V30 9945 C 968.088 -1.07561 -1.52603 0
M  V30 9946 C 968.439 0.353245 -1.92994 0
M  V30 9947 O 967.564 1.24151 -1.77244 0
M  V30 9948 C 968.159 -1.94634 -2.77314 0
M  V30 9949 C 966.718 -1.82095 -3.29421 0
M  V30 9950 C 965.865 -1.8962 -2.02335 0
M  V30 9951 H 968.816 -1.37815 -0.786932 0
M  V30 9952 H 968.837 -1.47812 -3.50616 0
M  V30 9953 H 968.349 -2.98621 -2.47885 0
M  V30 9954 H 966.45 -0.809376 -3.63703 0
M  V30 9955 H 966.563 -2.66142 -3.98378 0
M  V30 9956 H 964.927 -1.33339 -2.17009 0
M  V30 9957 H 965.71 -2.95185 -1.75273 0
M  V30 9958 N 968.156 1.1691 -1.05688 0
M  V30 9959 C 969.567 1.68915 -0.795273 0
M  V30 9960 C 969.918 1.83968 0.681925 0
M  V30 9961 O 969.043 1.53083 1.52953 0
M  V30 9962 C 969.638 3.06814 -1.43703 0
M  V30 9963 C 968.197 3.55965 -1.22335 0
M  V30 9964 C 967.344 2.32099 -1.51741 0
M  V30 9965 H 970.295 1.01357 -1.22116 0
M  V30 9966 H 970.316 3.70907 -0.849016 0
M  V30 9967 H 969.828 2.95826 -2.51214 0
M  V30 9968 H 967.929 3.72222 -0.16771 0
M  V30 9969 H 968.042 4.38427 -1.9318 0
M  V30 9970 H 966.406 2.36811 -0.937696 0
M  V30 9971 H 967.189 2.23715 -2.60397 0
M  V30 9972 N 969.634 0.838594 1.33437 0
M  V30 9973 C 970.862 0.447644 2.01999 0
M  V30 9974 C 971.277 -0.951053 1.63096 0
M  V30 9975 O 970.634 -1.61802 0.844169 0
M  V30 9976 C 970.685 0.558378 3.57162 0
M  V30 9977 O 970.406 1.90196 3.94661 0
M  V30 9978 C 971.907 0.164348 4.42995 0
M  V30 9979 H 969.127 0.177736 0.647032 0
M  V30 9980 H 971.671 1.13109 1.70372 0
M  V30 9981 H 969.826 -0.0771563 3.87323 0
M  V30 9982 H 970.24 1.88729 4.89369 0
M  V30 9983 H 971.714 0.292876 5.51222 0
M  V30 9984 H 972.191 -0.893713 4.30011 0
M  V30 9985 H 972.797 0.774306 4.18192 0
M  V30 9986 N 971.112 -1.45937 0.595003 0
M  V30 9987 C 972.042 -2.33198 -0.11871 0
M  V30 9988 C 973.023 -1.46083 -0.871423 0
M  V30 9989 O 974.208 -1.74879 -0.844461 0
M  V30 9990 C 971.338 -3.28576 -1.12495 0
M  V30 9991 C 970.292 -4.25229 -0.486275 0
M  V30 9992 C 969.618 -5.10204 -1.59986 0
M  V30 9993 C 970.918 -5.19019 0.584473 0
M  V30 9994 H 972.612 -2.93122 0.609886 0
M  V30 9995 H 970.158 -1.40951 0.294742 0
M  V30 9996 H 972.111 -3.88485 -1.6327 0
M  V30 9997 H 970.835 -2.66784 -1.88398 0
M  V30 9998 H 969.494 -3.666 0.000507962 0
M  V30 9999 H 969.142 -4.44789 -2.34886 0
M  V30 10000 H 968.842 -5.75669 -1.1781 0
M  V30 10001 H 970.366 -5.7298 -2.11014 0
M  V30 10002 H 971.78 -5.73073 0.161297 0
M  V30 10003 H 970.177 -5.92893 0.927256 0
M  V30 10004 H 971.247 -4.62208 1.46601 0
M  V30 10005 N 972.59 -0.333456 -1.54032 0
M  V30 10006 C 973.839 0.267081 -1.99924 0
M  V30 10007 C 974.152 1.52463 -1.22534 0
M  V30 10008 O 975.358 2.20178 -1.58852 0
M  V30 10009 C 973.814 0.526456 -3.56029 0
M  V30 10010 C 973.422 -0.714607 -4.42264 0
M  V30 10011 C 975.166 1.0864 -4.10363 0
M  V30 10012 C 973.073 -0.42659 -5.89859 0
M  V30 10013 H 972.003 0.103577 -0.746852 0
M  V30 10014 H 974.654 -0.447218 -1.77967 0
M  V30 10015 H 973.036 1.3012 -3.74012 0
M  V30 10016 H 974.21 -1.48968 -4.36056 0
M  V30 10017 H 972.525 -1.19547 -3.9887 0
M  V30 10018 H 975.122 1.31668 -5.18235 0
M  V30 10019 H 975.465 2.03884 -3.62956 0
M  V30 10020 H 975.998 0.37261 -3.96051 0
M  V30 10021 H 972.737 -1.34847 -6.4148 0
M  V30 10022 H 972.257 0.310588 -5.98995 0
M  V30 10023 H 973.936 -0.0400807 -6.46988 0
M  V30 10024 N 974.068 1.57479 -0.061844 0
M  V30 10025 C 975.296 1.97429 0.618837 0
M  V30 10026 C 975.711 0.939826 1.63746 0
M  V30 10027 O 975.068 -0.0747173 1.82347 0
M  V30 10028 C 975.119 3.3746 1.29628 0
M  V30 10029 O 974.84 4.36941 0.318431 0
M  V30 10030 C 976.341 3.92228 2.06572 0
M  V30 10031 H 973.561 0.649513 0.168444 0
M  V30 10032 H 976.105 2.04078 -0.131303 0
M  V30 10033 H 974.26 3.31928 1.99757 0
M  V30 10034 H 974.674 5.18313 0.803239 0
M  V30 10035 H 976.148 4.92458 2.49377 0
M  V30 10036 H 976.625 3.28231 2.91824 0
M  V30 10037 H 977.231 4.01131 1.4133 0
M  V30 10038 N 975.546 -0.211634 1.56173 0
M  V30 10039 C 976.823 -0.959467 1.70451 0
M  V30 10040 C 977.203 -2.02036 0.611942 0
M  V30 10041 O 976.551 -2.25325 -0.37959 0
M  V30 10042 C 976.761 -1.56092 3.12148 0
M  V30 10043 C 978.109 -2.04939 3.71867 0
M  V30 10044 O 979.133 -1.65966 3.15172 0
M  V30 10045 O 977.992 -2.766 4.71333 0
M  V30 10046 H 975.086 -0.448844 0.6946 0
M  V30 10047 H 977.632 -0.202633 1.68486 0
M  V30 10048 H 976.404 -0.79538 3.83131 0
M  V30 10049 H 976.027 -2.38303 3.18273 0
M  V30 10050 N 977.024 -1.50153 -0.478725 0
M  V30 10051 C 978.249 -1.64776 -1.2595 0
M  V30 10052 C 978.674 -0.327794 -1.85222 0
M  V30 10053 O 978.032 0.707418 -1.66929 0
M  V30 10054 C 978.08 -2.73551 -2.34952 0
M  V30 10055 O 977.184 -2.34273 -3.39397 0
M  V30 10056 H 976.525 -0.550769 -0.370877 0
M  V30 10057 H 979.055 -1.96482 -0.570605 0
M  V30 10058 H 979.065 -2.96397 -2.8038 0
M  V30 10059 H 977.74 -3.69354 -1.91181 0
M  V30 10060 H 976.317 -2.21844 -2.99733 0
M  V30 10061 N 978.502 0.731368 -1.39602 0
M  V30 10062 C 979.73 1.52059 -1.40305 0
M  V30 10063 C 980.145 1.888 0.00147921 0
M  V30 10064 O 979.502 1.54354 0.973715 0
M  V30 10065 C 979.553 2.80588 -2.27931 0
M  V30 10066 O 979.274 2.45406 -3.62915 0
M  V30 10067 C 980.775 3.74592 -2.37056 0
M  V30 10068 H 977.995 0.469787 -0.479104 0
M  V30 10069 H 980.539 0.903436 -1.83462 0
M  V30 10070 H 978.694 3.38626 -1.88178 0
M  V30 10071 H 979.108 3.27996 -4.09291 0
M  V30 10072 H 980.582 4.61662 -3.02609 0
M  V30 10073 H 981.059 4.16597 -1.39081 0
M  V30 10074 H 981.665 3.22471 -2.77295 0
M  V30 10075 N 979.98 1.24838 0.961938 0
M  V30 10076 C 981.228 1.08936 1.70227 0
M  V30 10077 C 981.549 -0.371582 1.91427 0
M  V30 10078 O 980.819 -1.26461 1.49614 0
M  V30 10079 H 979.399 0.400128 0.630799 0
M  V30 10080 H 982.061 1.56848 1.15692 0
M  V30 10081 H 981.157 1.59195 2.68446 0
M  V30 10082 N 981.458 -1.16348 1.06306 0
M  V30 10083 C 982.686 -1.90782 0.800614 0
M  V30 10084 C 983.101 -1.77439 -0.645033 0
M  V30 10085 O 982.458 -1.11912 -1.4416 0
M  V30 10086 C 982.509 -3.41484 1.18621 0
M  V30 10087 O 982.23 -3.54428 2.57512 0
M  V30 10088 C 983.731 -4.32968 0.951525 0
M  V30 10089 H 980.951 -0.604977 0.290247 0
M  V30 10090 H 983.495 -1.47476 1.41672 0
M  V30 10091 H 981.65 -3.82493 0.614633 0
M  V30 10092 H 982.064 -4.4788 2.72954 0
M  V30 10093 H 983.538 -5.37169 1.27095 0
M  V30 10094 H 984.015 -4.39055 -0.112734 0
M  V30 10095 H 984.621 -3.97687 1.50749 0
M  V30 10096 N 982.937 -0.845659 -1.3299 0
M  V30 10097 C 983.887 -0.2557 -2.26562 0
M  V30 10098 C 984.871 0.593245 -1.49564 0
M  V30 10099 O 986.063 0.444101 -1.71338 0
M  V30 10100 C 983.192 0.562573 -3.38659 0
M  V30 10101 C 982.278 -0.298259 -4.2305 0
M  V30 10102 N 982.669 -1.38023 -4.86604 0
M  V30 10103 C 980.967 -0.0864539 -4.45916 0
M  V30 10104 C 981.668 -1.90907 -5.49481 0
M  V30 10105 N 980.644 -1.20955 -5.29973 0
M  V30 10106 H 984.446 -1.083 -2.73219 0
M  V30 10107 H 981.96 -0.690823 -1.46974 0
M  V30 10108 H 983.957 1.00157 -4.0469 0
M  V30 10109 H 982.617 1.38777 -2.93549 0
M  V30 10110 H 983.628 -1.76314 -4.86964 0
M  V30 10111 H 980.305 0.70475 -4.11509 0
M  V30 10112 H 981.695 -2.81552 -6.10064 0
M  V30 10113 N 984.415 1.45619 -0.602734 0
M  V30 10114 C 985.345 2.33258 0.106342 0
M  V30 10115 C 986.326 1.46543 0.863664 0
M  V30 10116 O 987.511 1.75324 0.835175 0
M  V30 10117 C 984.641 3.29168 1.10751 0
M  V30 10118 C 983.595 4.25481 0.463717 0
M  V30 10119 C 982.921 5.11046 1.57278 0
M  V30 10120 C 984.221 5.18702 -0.61199 0
M  V30 10121 H 985.915 2.92795 -0.625423 0
M  V30 10122 H 983.461 1.40793 -0.302213 0
M  V30 10123 H 985.414 3.89346 1.61208 0
M  V30 10124 H 984.138 2.6778 1.8698 0
M  V30 10125 H 982.797 3.66595 -0.0199496 0
M  V30 10126 H 982.445 4.46029 2.32524 0
M  V30 10127 H 982.145 5.76286 1.14755 0
M  V30 10128 H 983.669 5.74091 2.07972 0
M  V30 10129 H 985.083 5.72979 -0.191686 0
M  V30 10130 H 983.48 5.92393 -0.958686 0
M  V30 10131 H 984.55 4.61424 -1.4905 0
M  V30 10132 N 985.893 0.34162 1.53853 0
M  V30 10133 C 987.139 -0.255862 2.01179 0
M  V30 10134 C 987.472 -1.50356 1.22909 0
M  V30 10135 O 986.747 -1.91913 0.316198 0
M  V30 10136 C 987.03 -0.571934 3.55529 0
M  V30 10137 C 986.883 0.687727 4.44511 0
M  V30 10138 C 988.202 -1.38233 4.17827 0
M  V30 10139 H 985.321 -0.091521 0.731295 0
M  V30 10140 H 987.963 0.461775 1.84303 0
M  V30 10141 H 986.113 -1.18331 3.70041 0
M  V30 10142 H 987.785 1.32572 4.4184 0
M  V30 10143 H 986.028 1.313 4.13452 0
M  V30 10144 H 986.699 0.421858 5.50386 0
M  V30 10145 H 989.175 -0.865374 4.07002 0
M  V30 10146 H 988.051 -1.57223 5.25901 0
M  V30 10147 H 988.312 -2.38386 3.72323 0
M  V30 10148 N 987.371 -1.57444 0.0701946 0
M  V30 10149 C 988.301 -2.15659 -0.895176 0
M  V30 10150 C 989.282 -1.08321 -1.31151 0
M  V30 10151 O 990.467 -1.36349 -1.38284 0
M  V30 10152 C 987.597 -2.71693 -2.16334 0
M  V30 10153 C 986.551 -3.84183 -1.88645 0
M  V30 10154 C 985.877 -4.26814 -3.22078 0
M  V30 10155 C 987.177 -5.08493 -1.19299 0
M  V30 10156 H 988.871 -2.96576 -0.410217 0
M  V30 10157 H 986.417 -1.42662 -0.195872 0
M  V30 10158 H 988.37 -3.11064 -2.84284 0
M  V30 10159 H 987.094 -1.87994 -2.67069 0
M  V30 10160 H 985.753 -3.45314 -1.23101 0
M  V30 10161 H 985.401 -3.40039 -3.70651 0
M  V30 10162 H 985.101 -5.02642 -3.04344 0
M  V30 10163 H 986.625 -4.68799 -3.91228 0
M  V30 10164 H 988.039 -5.4519 -1.77316 0
M  V30 10165 H 986.436 -5.89588 -1.11828 0
M  V30 10166 H 987.506 -4.84595 -0.171839 0
M  V30 10167 N 988.849 0.203349 -1.56283 0
M  V30 10168 C 990.077 0.941426 -1.84241 0
M  V30 10169 C 990.492 1.77197 -0.651658 0
M  V30 10170 O 989.849 1.78506 0.379713 0
M  V30 10171 C 989.9 1.84429 -3.10915 0
M  V30 10172 O 989.621 1.04729 -4.25398 0
M  V30 10173 C 991.122 2.69474 -3.51993 0
M  V30 10174 H 988.342 0.27507 -0.612027 0
M  V30 10175 H 990.886 0.213088 -2.03387 0
M  V30 10176 H 989.041 2.52635 -2.93691 0
M  V30 10177 H 989.455 1.66179 -4.97478 0
M  V30 10178 H 990.929 3.28495 -4.43616 0
M  V30 10179 H 991.406 3.42775 -2.74594 0
M  V30 10180 H 992.012 2.06652 -3.71719 0
M  V30 10181 N 990.327 1.50405 0.470755 0
M  V30 10182 C 991.573 1.6165 1.22462 0
M  V30 10183 C 991.906 0.316034 1.91611 0
M  V30 10184 O 991.181 -0.682509 1.82132 0
M  V30 10185 C 991.464 2.79702 2.26801 0
M  V30 10186 C 991.317 4.19631 1.61955 0
M  V30 10187 C 992.636 2.93313 3.28109 0
M  V30 10188 H 989.755 0.588345 0.443868 0
M  V30 10189 H 992.397 1.82792 0.518376 0
M  V30 10190 H 990.547 2.61807 2.87036 0
M  V30 10191 H 992.219 4.49117 1.05316 0
M  V30 10192 H 990.462 4.23874 0.922674 0
M  V30 10193 H 991.133 4.98162 2.37779 0
M  V30 10194 H 993.609 3.09697 2.77897 0
M  V30 10195 H 992.485 3.77537 3.98443 0
M  V30 10196 H 992.746 2.03942 3.9225 0
M  V30 10197 N 991.805 -0.723954 1.39988 0
M  V30 10198 C 993.033 -1.51313 1.4111 0
M  V30 10199 C 993.448 -1.88798 0.00853333 0
M  V30 10200 O 992.805 -1.54868 -0.965516 0
M  V30 10201 C 992.856 -2.79375 2.29416 0
M  V30 10202 O 992.577 -2.43478 3.64211 0
M  V30 10203 C 994.078 -3.7333 2.3904 0
M  V30 10204 H 991.298 -0.46724 0.481589 0
M  V30 10205 H 993.842 -0.893694 1.83938 0
M  V30 10206 H 991.997 -3.37624 1.89971 0
M  V30 10207 H 992.411 -3.25821 4.11024 0
M  V30 10208 H 993.885 -4.60051 3.05053 0
M  V30 10209 H 994.362 -4.15854 1.41289 0
M  V30 10210 H 994.968 -3.20996 2.79001 0
M  V30 10211 N 993.283 -1.25346 -0.955304 0
M  V30 10212 C 994.231 -1.05461 -2.07318 0
M  V30 10213 C 995.225 0.0142699 -1.69394 0
M  V30 10214 O 996.431 -0.141292 -1.79445 0
M  V30 10215 H 992.806 -0.324095 -0.678577 0
M  V30 10216 H 994.777 -2.00231 -2.21247 0
M  V30 10217 C 993.526 -0.689329 -3.40798 0
M  V30 10218 H 992.849 -1.50362 -3.70447 0
M  V30 10219 H 994.289 -0.589883 -4.19877 0
M  V30 10220 C 992.748 0.604556 -3.31431 0
M  V30 10221 O 993.278 1.64686 -3.6639 0
M  V30 10222 N 991.484 0.589927 -2.84549 0
M  V30 10223 H 991.031 -0.258647 -2.56298 0
M  V30 10224 H 990.989 1.4558 -2.78664 0
M  V30 10225 N 994.761 1.15782 -1.06922 0
M  V30 10226 C 995.708 2.2038 -0.685659 0
M  V30 10227 C 996.678 1.62972 0.320816 0
M  V30 10228 O 997.863 1.8966 0.208258 0
M  V30 10229 C 995.003 3.44995 -0.084998 0
M  V30 10230 C 994.116 4.16621 -1.14242 0
M  V30 10231 C 993.251 5.28773 -0.507226 0
M  V30 10232 C 992.29 5.92209 -1.54774 0
M  V30 10233 N 991.427 6.9584 -0.935443 0
M  V30 10234 H 996.267 2.5254 -1.58201 0
M  V30 10235 H 993.804 1.24031 -0.790864 0
M  V30 10236 H 995.762 4.16254 0.280845 0
M  V30 10237 H 994.392 3.13365 0.774725 0
M  V30 10238 H 993.444 3.43903 -1.62589 0
M  V30 10239 H 994.756 4.59884 -1.93154 0
M  V30 10240 H 993.91 6.06635 -0.0887719 0
M  V30 10241 H 992.649 4.8669 0.313704 0
M  V30 10242 H 991.654 5.13063 -1.97602 0
M  V30 10243 H 992.879 6.3637 -2.37088 0
M  V30 10244 H 990.825 6.5586 -0.135339 0
M  V30 10245 H 990.742 7.37508 -1.66186 0
M  V30 10246 H 992.01 7.77611 -0.542346 0
M  V30 10247 N 996.239 0.8527 1.3254 0
M  V30 10248 C 997.187 0.284659 2.30852 0
M  V30 10249 C 998.181 -0.5909 1.5876 0
M  V30 10250 O 999.387 -0.478922 1.73512 0
M  V30 10251 H 995.762 0.0733452 0.748415 0
M  V30 10252 H 997.733 1.1281 2.76254 0
M  V30 10253 C 996.482 -0.51379 3.43883 0
M  V30 10254 H 995.805 0.150644 3.99516 0
M  V30 10255 H 997.245 -0.876866 4.14834 0
M  V30 10256 C 995.704 -1.69823 2.90967 0
M  V30 10257 O 996.234 -2.79727 2.88298 0
M  V30 10258 N 994.44 -1.52465 2.47392 0
M  V30 10259 H 993.987 -0.630599 2.49762 0
M  V30 10260 H 993.945 -2.31859 2.12341 0
M  V30 10261 N 997.718 -1.45297 0.610449 0
M  V30 10262 C 998.681 -2.28995 -0.0968194 0
M  V30 10263 C 999.681 -1.39923 -0.792353 0
M  V30 10264 O 1000.87 -1.62014 -0.64008 0
M  V30 10265 C 998.003 -3.21013 -1.14731 0
M  V30 10266 H 999.196 -2.93012 0.639082 0
M  V30 10267 H 996.749 -1.51867 0.369624 0
M  V30 10268 H 997.484 -2.61803 -1.91388 0
M  V30 10269 H 997.269 -3.86628 -0.652753 0
M  V30 10270 H 998.759 -3.8394 -1.64256 0
M  V30 10271 N 999.196 -0.349774 -1.5367 0
M  V30 10272 C 1000.47 0.300419 -1.93279 0
M  V30 10273 C 1000.85 1.67721 -1.28191 0
M  V30 10274 O 1000.2 2.24319 -0.435127 0
M  V30 10275 C 1000.41 0.366466 -3.47071 0
M  V30 10276 C 1001.76 0.614349 -4.20132 0
M  V30 10277 O 1002.78 0.448327 -3.53367 0
M  V30 10278 O 1001.64 0.936421 -5.38417 0
M  V30 10279 H 998.736 0.176599 -0.807924 0
M  V30 10280 H 1001.28 -0.401405 -1.64884 0
M  V30 10281 H 1000.05 -0.599455 -3.86681 0
M  V30 10282 H 999.677 1.11482 -3.81651 0
M  V30 10283 N 1000.67 1.57404 -0.0785433 0
M  V30 10284 C 1001.9 1.98492 0.601292 0
M  V30 10285 C 1002.32 0.956832 1.61945 0
M  V30 10286 O 1001.68 -0.0767502 1.81137 0
M  V30 10287 C 1001.73 3.38596 1.24036 0
M  V30 10288 O 1000.83 3.38461 2.35622 0
M  V30 10289 H 1000.17 0.645882 0.154054 0
M  V30 10290 H 1002.7 2.04012 -0.155056 0
M  V30 10291 H 1002.71 3.75929 1.5856 0
M  V30 10292 H 1001.39 4.12952 0.494341 0
M  V30 10293 H 999.967 3.12906 2.02841 0
M  V30 10294 N 1002.15 -0.195058 1.56388 0
M  V30 10295 C 1003.56 -0.75973 1.70543 0
M  V30 10296 C 1003.91 -1.83849 0.685118 0
M  V30 10297 O 1003.04 -2.15819 -0.158457 0
M  V30 10298 C 1003.63 -1.38485 3.09204 0
M  V30 10299 C 1002.19 -1.89661 3.25124 0
M  V30 10300 C 1001.34 -0.766563 2.66494 0
M  V30 10301 H 1004.29 0.0300148 1.58672 0
M  V30 10302 H 1004.31 -2.25424 3.06536 0
M  V30 10303 H 1003.82 -0.599479 3.83442 0
M  V30 10304 H 1001.92 -2.70917 2.55802 0
M  V30 10305 H 1002.04 -2.05837 4.32629 0
M  V30 10306 H 1000.4 -1.18086 2.25672 0
M  V30 10307 H 1001.18 0.00657102 3.43299 0
M  V30 10308 N 1003.63 -1.50653 -0.462772 0
M  V30 10309 C 1004.88 -1.61737 -1.21184 0
M  V30 10310 C 1005.2 -0.32369 -1.92295 0
M  V30 10311 O 1004.47 0.659269 -1.84473 0
M  V30 10312 H 1003.05 -0.596015 -0.450306 0
M  V30 10313 H 1005.71 -1.87469 -0.533051 0
M  V30 10314 H 1004.81 -2.43262 -1.95525 0
M  V30 10315 N 1005.11 0.71652 -1.4037 0
M  V30 10316 C 1006.04 1.84345 -1.43315 0
M  V30 10317 C 1007.02 1.67537 -0.294186 0
M  V30 10318 O 1008.2 1.87582 -0.502671 0
M  V30 10319 C 1005.33 3.2229 -1.29408 0
M  V30 10320 C 1004.29 3.53769 -2.40897 0
M  V30 10321 C 1003.61 4.90847 -2.12068 0
M  V30 10322 C 1004.91 3.54862 -3.83237 0
M  V30 10323 H 1006.61 1.82138 -2.37626 0
M  V30 10324 H 1004.15 0.874873 -1.14376 0
M  V30 10325 H 1006.11 4.00819 -1.30085 0
M  V30 10326 H 1004.83 3.2507 -0.31573 0
M  V30 10327 H 1003.49 2.77579 -2.39469 0
M  V30 10328 H 1003.14 4.90229 -1.12626 0
M  V30 10329 H 1002.84 5.12875 -2.86762 0
M  V30 10330 H 1004.36 5.71711 -2.14426 0
M  V30 10331 H 1005.78 4.23432 -3.86494 0
M  V30 10332 H 1004.17 3.88416 -4.57442 0
M  V30 10333 H 1005.24 2.54266 -4.12888 0
M  V30 10334 N 1006.59 1.25851 0.948643 0
M  V30 10335 C 1007.81 1.13813 1.73382 0
M  V30 10336 C 1008.24 -0.303615 1.85633 0
M  V30 10337 O 1007.59 -1.21997 1.34114 0
M  V30 10338 C 1007.64 1.80388 3.12238 0
M  V30 10339 O 1006.75 1.08759 3.978 0
M  V30 10340 H 1006.09 0.397006 0.532243 0
M  V30 10341 H 1008.62 1.66529 1.18866 0
M  V30 10342 H 1008.63 1.86913 3.62667 0
M  V30 10343 H 1007.3 2.85278 3.02637 0
M  V30 10344 H 1005.88 1.10157 3.56258 0
M  V30 10345 N 1008.06 -1.15214 1.07534 0
M  V30 10346 C 1009.29 -1.90463 0.820883 0
M  V30 10347 C 1009.71 -1.77578 -0.620305 0
M  V30 10348 O 1009.07 -1.10976 -1.43366 0
M  V30 10349 C 1009.12 -3.38746 1.23627 0
M  V30 10350 O 1008.22 -4.1062 0.382715 0
M  V30 10351 H 1007.57 -0.59292 0.298901 0
M  V30 10352 H 1010.1 -1.45893 1.43445 0
M  V30 10353 H 1010.11 -3.89543 1.21327 0
M  V30 10354 H 1008.78 -3.47443 2.28596 0
M  V30 10355 H 1007.36 -3.69947 0.468374 0
M  V30 10356 N 1009.54 -0.859717 -1.32086 0
M  V30 10357 C 1010.79 -0.464662 -1.96686 0
M  V30 10358 C 1011.11 0.98412 -1.68345 0
M  V30 10359 O 1010.38 1.68847 -0.993361 0
M  V30 10360 H 1008.96 -0.168838 -0.727669 0
M  V30 10361 H 1011.62 -1.09726 -1.61079 0
M  V30 10362 H 1010.72 -0.613904 -3.06003 0
M  V30 10363 N 1011.02 1.44971 -0.618145 0
M  V30 10364 C 1012.25 2.07039 -0.122395 0
M  V30 10365 C 1012.67 1.45793 1.18853 0
M  V30 10366 O 1012.03 0.55453 1.72611 0
M  V30 10367 C 1012.08 3.60599 -0.0073864 0
M  V30 10368 O 1011.18 3.99069 1.04007 0
M  V30 10369 H 1010.52 0.6593 -0.0788615 0
M  V30 10370 H 1013.05 1.86055 -0.851147 0
M  V30 10371 H 1013.06 4.07569 0.187417 0
M  V30 10372 H 1011.74 4.04561 -0.964544 0
M  V30 10373 H 1010.31 3.63753 0.820879 0
M  V30 10374 N 1012.5 0.357919 1.53482 0
M  V30 10375 C 1013.91 -0.122938 1.86295 0
M  V30 10376 C 1014.26 -1.48803 1.27875 0
M  V30 10377 O 1013.39 -2.07978 0.597828 0
M  V30 10378 C 1013.98 -0.229853 3.38019 0
M  V30 10379 C 1012.54 -0.654955 3.70658 0
M  V30 10380 C 1011.69 0.202539 2.76559 0
M  V30 10381 H 1014.64 0.576997 1.47839 0
M  V30 10382 H 1014.66 -1.05481 3.65587 0
M  V30 10383 H 1014.17 0.763825 3.80509 0
M  V30 10384 H 1012.27 -1.65714 3.33721 0
M  V30 10385 H 1012.38 -0.43488 4.77122 0
M  V30 10386 H 1010.75 -0.327388 2.52587 0
M  V30 10387 H 1011.53 1.19361 3.21882 0
M  V30 10388 N 1013.98 -1.5736 0.0868897 0
M  V30 10389 C 1014.91 -2.10582 -0.904858 0
M  V30 10390 C 1015.92 -1.04124 -1.25148 0
M  V30 10391 O 1017.11 -1.31595 -1.20603 0
M  V30 10392 C 1014.21 -2.56381 -2.21635 0
M  V30 10393 C 1013.38 -3.86581 -2.04631 0
M  V30 10394 C 1012.44 -4.18313 -3.19219 0
M  V30 10395 O 1011.47 -4.87669 -2.93544 0
M  V30 10396 N 1012.67 -3.73061 -4.44754 0
M  V30 10397 H 1015.44 -2.96297 -0.450352 0
M  V30 10398 H 1013 -1.616 -0.0984376 0
M  V30 10399 H 1014.99 -2.7466 -2.97227 0
M  V30 10400 H 1013.56 -1.75721 -2.58536 0
M  V30 10401 H 1012.78 -3.77532 -1.13417 0
M  V30 10402 H 1014.07 -4.71777 -1.90537 0
M  V30 10403 H 1013.46 -3.1706 -4.68497 0
M  V30 10404 H 1012.02 -3.96511 -5.17322 0
M  V30 10405 N 1015.45 0.186762 -1.56489 0
M  V30 10406 C 1016.39 1.25565 -1.91745 0
M  V30 10407 C 1017.4 1.4128 -0.80894 0
M  V30 10408 O 1018.59 1.41558 -1.08737 0
M  V30 10409 C 1015.69 2.62662 -2.14154 0
M  V30 10410 C 1014.86 2.68448 -3.45333 0
M  V30 10411 C 1013.92 3.86798 -3.56754 0
M  V30 10412 O 1012.95 3.73514 -4.29507 0
M  V30 10413 N 1014.15 5.02607 -2.90459 0
M  V30 10414 H 1016.91 0.956351 -2.84032 0
M  V30 10415 H 1014.47 0.376631 -1.57458 0
M  V30 10416 H 1016.47 3.40277 -2.19075 0
M  V30 10417 H 1015.04 2.85046 -1.28326 0
M  V30 10418 H 1014.26 1.77044 -3.52206 0
M  V30 10419 H 1015.54 2.69311 -4.31682 0
M  V30 10420 H 1014.94 5.163 -2.31194 0
M  V30 10421 H 1013.5 5.78139 -3.00996 0
M  V30 10422 N 1016.93 1.50896 0.454776 0
M  V30 10423 C 1018.34 1.55372 1.0352 0
M  V30 10424 C 1018.69 0.366822 1.9274 0
M  V30 10425 O 1017.82 -0.518444 2.10098 0
M  V30 10426 C 1018.41 2.81574 1.88418 0
M  V30 10427 C 1016.97 2.88679 2.4154 0
M  V30 10428 C 1016.12 2.49847 1.20298 0
M  V30 10429 H 1019.07 1.56924 0.236729 0
M  V30 10430 H 1019.09 2.64352 2.73676 0
M  V30 10431 H 1018.6 3.67941 1.23455 0
M  V30 10432 H 1016.71 2.06702 3.10008 0
M  V30 10433 H 1016.82 3.91944 2.7553 0
M  V30 10434 H 1015.18 2.02651 1.54288 0
M  V30 10435 H 1015.97 3.3854 0.569723 0
M  V30 10436 N 1018.41 -0.709066 1.40748 0
M  V30 10437 C 1019.64 -1.50313 1.42901 0
M  V30 10438 C 1020.06 -1.88072 0.032213 0
M  V30 10439 O 1019.42 -1.53716 -0.96131 0
M  V30 10440 C 1019.47 -2.75074 2.33166 0
M  V30 10441 O 1018.57 -3.72036 1.7794 0
M  V30 10442 H 1017.91 -0.452934 0.485538 0
M  V30 10443 H 1020.44 -0.872712 1.85054 0
M  V30 10444 H 1020.45 -3.23532 2.48578 0
M  V30 10445 H 1019.13 -2.46927 3.34664 0
M  V30 10446 H 1017.7 -3.30911 1.71908 0
M  V30 10447 N 1019.89 -1.26353 -0.941956 0
M  V30 10448 C 1021.11 -1.14731 -1.72776 0
M  V30 10449 C 1021.54 0.293766 -1.85792 0
M  V30 10450 O 1020.9 1.21284 -1.34759 0
M  V30 10451 C 1020.95 -1.82041 -3.11277 0
M  V30 10452 O 1020.05 -1.10867 -3.97218 0
M  V30 10453 H 1019.39 -0.399823 -0.53013 0
M  V30 10454 H 1021.92 -1.67157 -1.17981 0
M  V30 10455 H 1021.93 -1.88834 -3.61671 0
M  V30 10456 H 1020.61 -2.86879 -3.0112 0
M  V30 10457 H 1019.18 -1.12044 -3.55669 0
M  V30 10458 N 1021.37 1.14642 -1.08144 0
M  V30 10459 C 1022.3 2.19283 -0.6669 0
M  V30 10460 C 1023.31 1.60292 0.284668 0
M  V30 10461 O 1024.5 1.78352 0.0727383 0
M  V30 10462 C 1021.6 3.38877 0.0398572 0
M  V30 10463 C 1020.77 4.274 -0.929929 0
M  V30 10464 C 1019.83 5.25562 -0.258991 0
M  V30 10465 O 1018.86 5.61999 -0.902563 0
M  V30 10466 N 1020.06 5.71958 0.992177 0
M  V30 10467 H 1022.83 2.55464 -1.5671 0
M  V30 10468 H 1020.39 1.29836 -0.96717 0
M  V30 10469 H 1022.38 4.01605 0.499583 0
M  V30 10470 H 1020.95 3.01043 0.842118 0
M  V30 10471 H 1020.17 3.61649 -1.56857 0
M  V30 10472 H 1021.46 4.83411 -1.58717 0
M  V30 10473 H 1020.86 5.44481 1.53484 0
M  V30 10474 H 1019.41 6.36687 1.39544 0
M  V30 10475 N 1022.85 0.866709 1.31628 0
M  V30 10476 C 1024.26 0.529032 1.79048 0
M  V30 10477 C 1024.61 -0.953871 1.71452 0
M  V30 10478 O 1023.73 -1.74462 1.28031 0
M  V30 10479 C 1024.33 0.953522 3.25105 0
M  V30 10480 C 1022.89 0.667554 3.70433 0
M  V30 10481 C 1022.03 1.14664 2.52483 0
M  V30 10482 H 1024.98 1.05275 1.18756 0
M  V30 10483 H 1025.01 0.274844 3.79506 0
M  V30 10484 H 1024.52 2.03283 3.30602 0
M  V30 10485 H 1022.62 -0.400532 3.70441 0
M  V30 10486 H 1022.73 1.2423 4.62714 0
M  V30 10487 H 1021.1 0.566502 2.4832 0
M  V30 10488 H 1021.88 2.2333 2.60727 0
M  V30 10489 N 1024.32 -1.44642 0.625825 0
M  V30 10490 C 1025.57 -2.01695 0.127948 0
M  V30 10491 C 1025.89 -1.49439 -1.25271 0
M  V30 10492 O 1025.16 -0.695873 -1.83124 0
M  V30 10493 H 1023.74 -0.745685 0.0443096 0
M  V30 10494 H 1026.4 -1.7721 0.811332 0
M  V30 10495 H 1025.5 -3.11966 0.0915933 0
M  V30 10496 N 1025.8 -0.366053 -1.5329 0
M  V30 10497 C 1027.03 0.226839 -2.06156 0
M  V30 10498 C 1027.45 1.41637 -1.23776 0
M  V30 10499 O 1026.81 1.7947 -0.256948 0
M  V30 10500 C 1026.86 0.597956 -3.55608 0
M  V30 10501 O 1025.96 1.69512 -3.75951 0
M  V30 10502 H 1025.3 0.0329156 -0.663184 0
M  V30 10503 H 1027.83 -0.526793 -1.97702 0
M  V30 10504 H 1027.84 0.868831 -3.98642 0
M  V30 10505 H 1026.52 -0.271838 -4.15011 0
M  V30 10506 H 1025.09 1.41976 -3.44815 0
M  V30 10507 N 1027.28 1.57312 -0.0952337 0
M  V30 10508 C 1028.69 1.81589 0.433875 0
M  V30 10509 C 1029.04 1.01086 1.68155 0
M  V30 10510 O 1028.17 0.240272 2.15062 0
M  V30 10511 C 1028.76 3.29366 0.793931 0
M  V30 10512 C 1027.32 3.54407 1.26778 0
M  V30 10513 C 1026.47 2.76035 0.264518 0
M  V30 10514 H 1029.42 1.55426 -0.320675 0
M  V30 10515 H 1029.44 3.42697 1.65345 0
M  V30 10516 H 1028.95 3.87932 -0.114334 0
M  V30 10517 H 1027.05 3.01173 2.19376 0
M  V30 10518 H 1027.17 4.63055 1.22952 0
M  V30 10519 H 1025.53 2.43509 0.746691 0
M  V30 10520 H 1026.31 3.37349 -0.636429 0
M  V30 10521 N 1028.76 -0.17846 1.56586 0
M  V30 10522 C 1029.72 -1.20479 1.94981 0
M  V30 10523 C 1030.72 -1.37561 0.832677 0
M  V30 10524 O 1031.91 -1.35089 1.09984 0
M  V30 10525 C 1029.04 -2.57117 2.23839 0
M  V30 10526 H 1030.24 -0.876173 2.86816 0
M  V30 10527 H 1027.79 -0.420635 1.50534 0
M  V30 10528 H 1028.52 -2.95005 1.34695 0
M  V30 10529 H 1028.31 -2.46086 3.05261 0
M  V30 10530 H 1029.8 -3.31096 2.5449 0
M  V30 10531 N 1030.24 -1.51135 -0.446768 0
M  V30 10532 C 1031.65 -1.55919 -1.02694 0
M  V30 10533 C 1032 -0.377038 -1.92543 0
M  V30 10534 O 1031.12 0.507295 -2.1037 0
M  V30 10535 C 1031.72 -2.8257 -1.86922 0
M  V30 10536 C 1030.28 -2.89956 -2.40005 0
M  V30 10537 C 1029.42 -2.50482 -1.18971 0
M  V30 10538 H 1032.37 -1.57048 -0.228403 0
M  V30 10539 H 1032.4 -2.65799 -2.7227 0
M  V30 10540 H 1031.91 -3.6859 -1.21502 0
M  V30 10541 H 1030.01 -2.08343 -3.08907 0
M  V30 10542 H 1030.12 -3.93399 -2.73448 0
M  V30 10543 H 1028.49 -2.03466 -1.53211 0
M  V30 10544 H 1029.27 -3.38837 -0.551762 0
M  V30 10545 N 1031.71 0.701592 -1.41122 0
M  V30 10546 C 1032.68 1.79733 -1.42227 0
M  V30 10547 C 1033.68 1.57708 -0.313831 0
M  V30 10548 O 1034.87 1.64492 -0.573423 0
M  V30 10549 C 1032 3.18024 -1.22775 0
M  V30 10550 H 1033.19 1.80148 -2.39764 0
M  V30 10551 H 1030.74 0.908624 -1.27176 0
M  V30 10552 H 1031.48 3.23252 -0.260552 0
M  V30 10553 H 1031.26 3.35411 -2.0308 0
M  V30 10554 H 1032.75 3.98021 -1.2637 0
M  V30 10555 N 1033.19 1.2685 0.935242 0
M  V30 10556 C 1034.6 1.11569 1.49697 0
M  V30 10557 C 1034.95 -0.301952 1.93863 0
M  V30 10558 O 1034.08 -1.19408 1.80473 0
M  V30 10559 C 1034.67 2.01918 2.72056 0
M  V30 10560 C 1033.23 1.90765 3.24477 0
M  V30 10561 C 1032.38 1.94918 1.97237 0
M  V30 10562 H 1035.33 1.39853 0.750116 0
M  V30 10563 H 1035.35 1.57056 3.46574 0
M  V30 10564 H 1034.86 3.05088 2.39881 0
M  V30 10565 H 1032.96 0.905521 3.61429 0
M  V30 10566 H 1033.08 2.76611 3.91182 0
M  V30 10567 H 1031.44 1.39046 2.13397 0
M  V30 10568 H 1032.22 2.99729 1.67385 0
M  V30 10569 N 1034.67 -1.14067 1.0875 0
M  V30 10570 C 1035.9 -1.89582 0.841038 0
M  V30 10571 C 1036.32 -1.78226 -0.601436 0
M  V30 10572 O 1035.68 -1.12491 -1.42181 0
M  V30 10573 C 1035.73 -3.37415 1.27213 0
M  V30 10574 O 1034.83 -4.10191 0.426246 0
M  V30 10575 H 1034.17 -0.589716 0.305173 0
M  V30 10576 H 1036.7 -1.44364 1.44984 0
M  V30 10577 H 1036.71 -3.88234 1.25451 0
M  V30 10578 H 1035.39 -3.44999 2.32268 0
M  V30 10579 H 1033.96 -3.69429 0.507585 0
M  V30 10580 N 1036.15 -0.873678 -1.31166 0
M  V30 10581 C 1037.11 -0.337069 -2.26708 0
M  V30 10582 C 1038.11 0.51406 -1.52362 0
M  V30 10583 O 1039.3 0.322834 -1.71182 0
M  V30 10584 C 1036.43 0.520897 -3.36897 0
M  V30 10585 H 1037.63 -1.18056 -2.75686 0
M  V30 10586 H 1035.18 -0.649577 -1.42163 0
M  V30 10587 H 1035.91 1.38543 -2.93217 0
M  V30 10588 H 1035.7 -0.0886015 -3.92 0
M  V30 10589 H 1037.19 0.888497 -4.08039 0
M  V30 10590 N 1037.63 1.44308 -0.633487 0
M  V30 10591 C 1038.56 2.28943 0.108474 0
M  V30 10592 C 1039.57 1.41415 0.806582 0
M  V30 10593 O 1040.76 1.65544 0.667634 0
M  V30 10594 C 1037.86 3.17845 1.1759 0
M  V30 10595 C 1037.03 4.33802 0.559842 0
M  V30 10596 C 1036.09 5.03722 1.52154 0
M  V30 10597 O 1035.12 5.5966 1.03776 0
M  V30 10598 N 1036.32 5.05392 2.85586 0
M  V30 10599 H 1039.09 2.93262 -0.617879 0
M  V30 10600 H 1036.65 1.54781 -0.474819 0
M  V30 10601 H 1038.64 3.61485 1.81963 0
M  V30 10602 H 1037.21 2.55261 1.80445 0
M  V30 10603 H 1036.43 3.93325 -0.262559 0
M  V30 10604 H 1037.72 5.08637 0.128942 0
M  V30 10605 H 1037.11 4.61282 3.27468 0
M  V30 10606 H 1035.67 5.52813 3.45313 0
M  V30 10607 N 1039.1 0.374177 1.53094 0
M  V30 10608 C 1040.04 -0.511995 2.22382 0
M  V30 10609 C 1041.02 -1.07617 1.2189 0
M  V30 10610 O 1042.2 -1.13068 1.50824 0
M  V30 10611 C 1039.33 -1.70724 2.92525 0
M  V30 10612 C 1038.37 -1.26972 4.07161 0
M  V30 10613 S 1039.21 -0.263835 5.3485 0
M  V30 10614 C 1040.36 -1.46521 6.08508 0
M  V30 10615 H 1040.59 0.0764311 2.97202 0
M  V30 10616 H 1038.13 0.158307 1.53586 0
M  V30 10617 H 1040.09 -2.39279 3.3355 0
M  V30 10618 H 1038.75 -2.26693 2.17414 0
M  V30 10619 H 1037.94 -2.16172 4.55286 0
M  V30 10620 H 1037.54 -0.663273 3.68072 0
M  V30 10621 H 1039.83 -2.39483 6.33762 0
M  V30 10622 H 1040.78 -1.02517 7.0064 0
M  V30 10623 H 1041.18 -1.67516 5.39072 0
M  V30 10624 N 1040.58 -1.57259 0.103575 0
M  V30 10625 C 1041.86 -1.86143 -0.600852 0
M  V30 10626 C 1042.24 -1.00198 -1.85805 0
M  V30 10627 O 1041.59 -0.0766791 -2.28371 0
M  V30 10628 C 1041.8 -3.36978 -0.908108 0
M  V30 10629 C 1043.15 -4.05228 -1.26788 0
M  V30 10630 O 1044.17 -3.41908 -0.998859 0
M  V30 10631 O 1043.03 -5.16971 -1.7721 0
M  V30 10632 H 1040.12 -0.770064 -0.301547 0
M  V30 10633 H 1042.67 -1.69147 0.136914 0
M  V30 10634 H 1041.44 -3.91296 -0.0165615 0
M  V30 10635 H 1041.06 -3.5935 -1.70156 0
M  V30 10636 N 1042.06 0.170153 -1.56679 0
M  V30 10637 C 1042.99 1.21285 -1.9953 0
M  V30 10638 C 1043.97 1.46104 -0.871071 0
M  V30 10639 O 1045.16 1.57419 -1.13724 0
M  V30 10640 C 1042.29 2.5515 -2.35618 0
M  V30 10641 C 1041.24 2.44898 -3.51011 0
M  V30 10642 C 1040.57 3.83263 -3.72845 0
M  V30 10643 C 1041.87 1.95271 -4.84424 0
M  V30 10644 H 1043.56 0.856646 -2.86883 0
M  V30 10645 H 1041.11 0.410634 -1.38021 0
M  V30 10646 H 1043.06 3.28299 -2.64193 0
M  V30 10647 H 1041.78 2.92561 -1.45175 0
M  V30 10648 H 1040.44 1.74203 -3.22566 0
M  V30 10649 H 1040.09 4.18069 -2.79691 0
M  V30 10650 H 1039.79 3.77272 -4.50488 0
M  V30 10651 H 1041.31 4.57996 -4.03822 0
M  V30 10652 H 1042.73 2.58195 -5.11867 0
M  V30 10653 H 1041.13 2.00225 -5.65712 0
M  V30 10654 H 1042.2 0.90709 -4.7634 0
M  V30 10655 N 1043.54 1.5137 0.438746 0
M  V30 10656 C 1044.45 1.75424 1.55768 0
M  V30 10657 C 1045.46 0.638409 1.61865 0
M  V30 10658 O 1046.64 0.9205 1.79133 0
M  V30 10659 C 1043.71 1.87288 2.9176 0
M  V30 10660 C 1042.77 3.11137 2.95791 0
M  V30 10661 C 1042 3.22425 4.25297 0
M  V30 10662 O 1042.22 2.39688 5.17596 0
M  V30 10663 O 1041.16 4.15393 4.35583 0
M  V30 10664 H 1044.98 2.70339 1.38386 0
M  V30 10665 H 1042.57 1.35854 0.621609 0
M  V30 10666 H 1044.45 1.97085 3.72472 0
M  V30 10667 H 1043.12 0.955599 3.09273 0
M  V30 10668 H 1042.03 3.06819 2.1404 0
M  V30 10669 H 1043.36 4.02549 2.83223 0
M  V30 10670 N 1045.02 -0.694098 1.41492 0
M  V30 10671 C 1045.97 -1.80016 1.39923 0
M  V30 10672 C 1046.95 -1.58561 0.273377 0
M  V30 10673 O 1048.14 -1.69368 0.514157 0
M  V30 10674 C 1045.27 -3.18333 1.28526 0
M  V30 10675 C 1044.36 -3.45478 2.45979 0
M  V30 10676 N 1044.75 -3.43313 3.71443 0
M  V30 10677 C 1043.05 -3.76033 2.39824 0
M  V30 10678 C 1043.75 -3.69404 4.4935 0
M  V30 10679 N 1042.72 -3.89221 3.79484 0
M  V30 10680 H 1046.53 -1.76707 2.34844 0
M  V30 10681 H 1044.04 -0.894148 1.35568 0
M  V30 10682 H 1046.04 -3.97567 1.25484 0
M  V30 10683 H 1044.7 -3.22852 0.345904 0
M  V30 10684 H 1045.71 -3.2366 4.04308 0
M  V30 10685 H 1042.38 -3.87913 1.54368 0
M  V30 10686 H 1043.77 -3.73854 5.58285 0
M  V30 10687 N 1046.49 -1.27344 -0.928501 0
M  V30 10688 C 1047.91 -1.12361 -1.49103 0
M  V30 10689 C 1048.26 0.291667 -1.9402 0
M  V30 10690 O 1047.38 1.18449 -1.81104 0
M  V30 10691 C 1047.98 -2.03358 -2.70981 0
M  V30 10692 C 1046.54 -1.92483 -3.23461 0
M  V30 10693 C 1045.68 -1.95961 -1.962 0
M  V30 10694 H 1048.63 -1.40249 -0.742689 0
M  V30 10695 H 1048.65 -1.58892 -3.45736 0
M  V30 10696 H 1048.17 -3.06356 -2.38259 0
M  V30 10697 H 1046.27 -0.924676 -3.60944 0
M  V30 10698 H 1046.38 -2.78682 -3.89709 0
M  V30 10699 H 1044.74 -1.40175 -2.12657 0
M  V30 10700 H 1045.53 -3.00612 -1.65793 0
M  V30 10701 N 1047.97 1.13488 -1.09353 0
M  V30 10702 C 1048.9 2.20988 -0.75409 0
M  V30 10703 C 1049.88 1.67977 0.267901 0
M  V30 10704 O 1051.07 1.93722 0.136128 0
M  V30 10705 C 1048.2 3.46869 -0.173042 0
M  V30 10706 C 1047.15 4.12965 -1.12446 0
M  V30 10707 C 1046.48 5.33163 -0.405157 0
M  V30 10708 C 1047.78 4.60388 -2.46658 0
M  V30 10709 H 1049.47 2.49639 -1.6529 0
M  V30 10710 H 1047.02 1.19987 -0.796182 0
M  V30 10711 H 1048.97 4.21331 0.0764988 0
M  V30 10712 H 1047.7 3.17611 0.760956 0
M  V30 10713 H 1046.35 3.40469 -1.35927 0
M  V30 10714 H 1046 5.00169 0.532955 0
M  V30 10715 H 1045.7 5.78332 -1.03952 0
M  V30 10716 H 1047.23 6.1038 -0.163899 0
M  V30 10717 H 1048.64 5.26276 -2.27389 0
M  V30 10718 H 1047.04 5.16294 -3.05876 0
M  V30 10719 H 1048.11 3.74949 -3.07476 0
M  V30 10720 N 1049.45 0.880621 1.30701 0
M  V30 10721 C 1050.38 0.301443 2.27209 0
M  V30 10722 C 1051.4 -0.541533 1.53529 0
M  V30 10723 O 1052.59 -0.361791 1.74795 0
M  V30 10724 C 1049.69 -0.59038 3.33718 0
M  V30 10725 C 1048.86 0.222549 4.36833 0
M  V30 10726 C 1047.92 -0.599083 5.22779 0
M  V30 10727 O 1046.94 -0.0233267 5.69195 0
M  V30 10728 N 1048.15 -1.90904 5.48211 0
M  V30 10729 H 1050.91 1.13083 2.77547 0
M  V30 10730 H 1048.47 0.743168 1.43835 0
M  V30 10731 H 1050.46 -1.14599 3.88135 0
M  V30 10732 H 1049.03 -1.32044 2.83343 0
M  V30 10733 H 1048.25 0.959606 3.82342 0
M  V30 10734 H 1049.54 0.779965 5.02786 0
M  V30 10735 H 1048.94 -2.3998 5.12275 0
M  V30 10736 H 1047.5 -2.4122 6.05521 0
M  V30 10737 N 1050.93 -1.4397 0.641131 0
M  V30 10738 C 1052.34 -1.85267 0.230838 0
M  V30 10739 C 1052.69 -1.53659 -1.21998 0
M  V30 10740 O 1051.82 -0.979572 -1.92959 0
M  V30 10741 C 1052.41 -3.36284 0.412171 0
M  V30 10742 C 1050.97 -3.76358 0.0563004 0
M  V30 10743 C 1050.12 -2.67768 0.720809 0
M  V30 10744 H 1053.07 -1.34294 0.845624 0
M  V30 10745 H 1053.09 -3.78924 -0.345936 0
M  V30 10746 H 1052.6 -3.59258 1.46818 0
M  V30 10747 H 1050.7 -3.58997 -0.997582 0
M  V30 10748 H 1050.82 -4.76756 0.473335 0
M  V30 10749 H 1049.18 -2.54227 0.155164 0
M  V30 10750 H 1049.96 -2.93573 1.77961 0
M  V30 10751 N 1052.41 -0.382291 -1.52893 0
M  V30 10752 C 1053.34 0.447829 -2.29165 0
M  V30 10753 C 1054.32 1.06956 -1.32267 0
M  V30 10754 O 1055.5 1.08365 -1.61154 0
M  V30 10755 C 1052.63 1.57902 -3.09329 0
M  V30 10756 C 1051.59 1.08369 -4.14053 0
M  V30 10757 C 1050.91 2.30641 -4.82399 0
M  V30 10758 C 1052.21 0.156591 -5.22065 0
M  V30 10759 H 1053.91 -0.188541 -2.98806 0
M  V30 10760 H 1051.45 -0.0921179 -1.43705 0
M  V30 10761 H 1053.41 2.16652 -3.61442 0
M  V30 10762 H 1052.13 2.24287 -2.37409 0
M  V30 10763 H 1050.79 0.518772 -3.62911 0
M  V30 10764 H 1050.44 2.9552 -4.07034 0
M  V30 10765 H 1050.14 1.98163 -5.53177 0
M  V30 10766 H 1051.66 2.90047 -5.37313 0
M  V30 10767 H 1053.08 0.652065 -5.6958 0
M  V30 10768 H 1051.47 -0.0780978 -6.00049 0
M  V30 10769 H 1052.54 -0.796529 -4.78313 0
M  V30 10770 N 1053.89 1.57202 -0.111913 0
M  V30 10771 C 1055.13 1.9495 0.547795 0
M  V30 10772 C 1055.46 0.994763 1.67137 0
M  V30 10773 O 1054.72 0.0173528 1.95692 0
M  V30 10774 C 1055.01 3.39152 1.12741 0
M  V30 10775 C 1054.68 4.50724 0.125916 0
M  V30 10776 C 1053.34 4.80968 -0.149489 0
M  V30 10777 C 1055.69 5.18215 -0.556987 0
M  V30 10778 C 1053.02 5.76023 -1.1142 0
M  V30 10779 C 1055.37 6.14307 -1.51029 0
M  V30 10780 C 1054.04 6.42947 -1.79375 0
M  V30 10781 H 1053.31 0.713372 0.200453 0
M  V30 10782 H 1055.96 1.90542 -0.191316 0
M  V30 10783 H 1054.26 3.4022 1.94313 0
M  V30 10784 H 1055.96 3.65668 1.64584 0
M  V30 10785 H 1052.55 4.27162 0.350756 0
M  V30 10786 H 1056.73 4.95012 -0.357378 0
M  V30 10787 H 1051.99 5.9652 -1.34064 0
M  V30 10788 H 1056.16 6.65692 -2.04516 0
M  V30 10789 H 1053.79 7.1641 -2.54284 0
M  V30 10790 N 1055.36 -0.161842 1.56767 0
M  V30 10791 C 1056.61 -0.875192 1.82167 0
M  V30 10792 C 1056.93 -1.82367 0.690444 0
M  V30 10793 O 1056.2 -1.93756 -0.289023 0
M  V30 10794 H 1054.78 -0.326178 0.672024 0
M  V30 10795 H 1057.44 -0.159392 1.94247 0
M  V30 10796 H 1056.54 -1.44639 2.76561 0
M  V30 10797 N 1056.84 -1.516 -0.430713 0
M  V30 10798 C 1058.07 -1.68414 -1.20185 0
M  V30 10799 C 1058.48 -0.384297 -1.84847 0
M  V30 10800 O 1057.84 0.637808 -1.70992 0
M  V30 10801 C 1057.89 -2.80451 -2.28099 0
M  V30 10802 O 1057.61 -4.05399 -1.66081 0
M  V30 10803 C 1059.11 -3.0859 -3.18256 0
M  V30 10804 H 1056.33 -0.564982 -0.361989 0
M  V30 10805 H 1058.88 -1.9805 -0.50954 0
M  V30 10806 H 1057.03 -2.53395 -2.93036 0
M  V30 10807 H 1057.45 -4.67671 -2.37453 0
M  V30 10808 H 1058.92 -3.9055 -3.90096 0
M  V30 10809 H 1059.4 -2.21264 -3.79393 0
M  V30 10810 H 1060 -3.37331 -2.59014 0
M  V30 10811 N 1058.32 0.686584 -1.41858 0
M  V30 10812 C 1059.73 1.26682 -1.37145 0
M  V30 10813 C 1060.08 1.96112 -0.058922 0
M  V30 10814 O 1059.21 1.99321 0.842629 0
M  V30 10815 C 1059.8 2.30383 -2.48413 0
M  V30 10816 C 1058.36 2.83961 -2.47069 0
M  V30 10817 C 1057.51 1.58119 -2.27802 0
M  V30 10818 H 1060.46 0.480742 -1.51243 0
M  V30 10819 H 1060.48 3.11868 -2.17987 0
M  V30 10820 H 1059.99 1.79822 -3.43927 0
M  V30 10821 H 1058.09 3.38675 -1.55338 0
M  V30 10822 H 1058.21 3.3378 -3.43697 0
M  V30 10823 H 1056.57 1.84258 -1.75844 0
M  V30 10824 H 1057.35 1.09541 -3.25355 0
M  V30 10825 N 1059.8 1.27835 0.921735 0
M  V30 10826 C 1061.03 1.17352 1.704 0
M  V30 10827 C 1061.44 -0.268892 1.86875 0
M  V30 10828 O 1060.8 -1.18253 1.39005 0
M  V30 10829 C 1060.85 1.85889 3.10045 0
M  V30 10830 O 1060.57 3.24495 2.94338 0
M  V30 10831 C 1062.07 1.81607 4.04393 0
M  V30 10832 H 1059.29 0.40773 0.532914 0
M  V30 10833 H 1061.83 1.68815 1.15419 0
M  V30 10834 H 1059.99 1.38316 3.61867 0
M  V30 10835 H 1060.4 3.58705 3.82663 0
M  V30 10836 H 1061.88 2.34165 4.99871 0
M  V30 10837 H 1062.35 0.786697 4.32097 0
M  V30 10838 H 1062.96 2.28822 3.58498 0
M  V30 10839 N 1061.28 -1.12907 1.09954 0
M  V30 10840 C 1062.5 -1.88679 0.861099 0
M  V30 10841 C 1062.93 -1.78853 -0.582499 0
M  V30 10842 O 1062.28 -1.13992 -1.4098 0
M  V30 10843 C 1062.33 -3.36047 1.30785 0
M  V30 10844 O 1061.44 -4.09716 0.469728 0
M  V30 10845 H 1060.78 -0.586447 0.31141 0
M  V30 10846 H 1063.31 -1.42818 1.46507 0
M  V30 10847 H 1063.32 -3.86882 1.29562 0
M  V30 10848 H 1061.99 -3.42516 2.35914 0
M  V30 10849 H 1060.57 -3.6887 0.54674 0
M  V30 10850 N 1062.75 -0.88754 -1.30232 0
M  V30 10851 C 1063.68 -0.372481 -2.3051 0
M  V30 10852 C 1064.66 0.546037 -1.61098 0
M  V30 10853 O 1065.85 0.459345 -1.88689 0
M  V30 10854 C 1062.98 0.411605 -3.44852 0
M  V30 10855 C 1061.93 -0.415383 -4.2598 0
M  V30 10856 C 1061.26 0.495463 -5.324 0
M  V30 10857 C 1062.56 -1.65886 -4.95257 0
M  V30 10858 H 1064.25 -1.21045 -2.7384 0
M  V30 10859 H 1061.8 -0.583498 -1.31648 0
M  V30 10860 H 1063.75 0.782584 -4.1407 0
M  V30 10861 H 1062.48 1.28325 -3.00334 0
M  V30 10862 H 1061.14 -0.768534 -3.58454 0
M  V30 10863 H 1060.78 1.36489 -4.84128 0
M  V30 10864 H 1060.48 -0.0540885 -5.87575 0
M  V30 10865 H 1062.01 0.862901 -6.04472 0
M  V30 10866 H 1063.42 -1.35832 -5.56976 0
M  V30 10867 H 1061.82 -2.14881 -5.60309 0
M  V30 10868 H 1062.89 -2.40181 -4.21237 0
M  V30 10869 N 1064.23 1.43628 -0.648757 0
M  V30 10870 C 1065.16 2.33478 0.0320785 0
M  V30 10871 C 1066.14 1.49217 0.816605 0
M  V30 10872 O 1067.33 1.77892 0.778974 0
M  V30 10873 C 1064.46 3.32525 1.00222 0
M  V30 10874 C 1063.41 4.2674 0.328119 0
M  V30 10875 C 1062.74 5.15791 1.4094 0
M  V30 10876 C 1064.04 5.16493 -0.776701 0
M  V30 10877 H 1065.73 2.90657 -0.718257 0
M  V30 10878 H 1063.28 1.3976 -0.346852 0
M  V30 10879 H 1065.23 3.94277 1.4874 0
M  V30 10880 H 1063.96 2.73593 1.78366 0
M  V30 10881 H 1062.61 3.66346 -0.136569 0
M  V30 10882 H 1062.26 4.53201 2.18216 0
M  V30 10883 H 1061.96 5.79645 0.963631 0
M  V30 10884 H 1063.49 5.80416 1.89603 0
M  V30 10885 H 1064.9 5.7208 -0.373878 0
M  V30 10886 H 1063.3 5.89043 -1.14667 0
M  V30 10887 H 1064.37 4.56448 -1.63654 0
M  V30 10888 N 1065.71 0.390394 1.52688 0
M  V30 10889 C 1066.66 -0.444229 2.26485 0
M  V30 10890 C 1067.63 -1.05688 1.28138 0
M  V30 10891 O 1068.81 -1.0847 1.56968 0
M  V30 10892 C 1065.95 -1.56501 3.07574 0
M  V30 10893 C 1065.07 -0.975111 4.20851 0
M  V30 10894 C 1064.2 -2.06704 4.89333 0
M  V30 10895 C 1063.24 -1.45309 5.94602 0
M  V30 10896 N 1062.38 -2.48437 6.56676 0
M  V30 10897 H 1067.22 0.191535 2.97384 0
M  V30 10898 H 1064.75 0.106287 1.46716 0
M  V30 10899 H 1066.71 -2.22558 3.52879 0
M  V30 10900 H 1065.34 -2.17107 2.38881 0
M  V30 10901 H 1064.39 -0.204109 3.79852 0
M  V30 10902 H 1065.71 -0.486465 4.96422 0
M  V30 10903 H 1064.86 -2.80528 5.37949 0
M  V30 10904 H 1063.6 -2.58928 4.13289 0
M  V30 10905 H 1062.6 -0.700091 5.45324 0
M  V30 10906 H 1063.83 -0.938775 6.7258 0
M  V30 10907 H 1061.77 -2.99829 5.83471 0
M  V30 10908 H 1061.69 -2.04331 7.27863 0
M  V30 10909 H 1062.96 -3.21888 7.09935 0
M  V30 10910 N 1067.19 -1.57141 0.120249 0
M  V30 10911 C 1068.14 -2.15379 -0.829497 0
M  V30 10912 C 1069.11 -1.07913 -1.2627 0
M  V30 10913 O 1070.29 -1.35827 -1.33999 0
M  V30 10914 C 1067.43 -2.75847 -2.0737 0
M  V30 10915 C 1066.54 -3.97624 -1.68875 0
M  V30 10916 C 1065.68 -4.46175 -2.88272 0
M  V30 10917 C 1064.72 -5.60481 -2.46023 0
M  V30 10918 N 1063.85 -6.0377 -3.58337 0
M  V30 10919 H 1068.69 -2.96211 -0.326031 0
M  V30 10920 H 1066.23 -1.46341 -0.149235 0
M  V30 10921 H 1068.19 -3.09037 -2.80272 0
M  V30 10922 H 1066.82 -1.97703 -2.55174 0
M  V30 10923 H 1065.87 -3.70588 -0.858431 0
M  V30 10924 H 1067.18 -4.80512 -1.33827 0
M  V30 10925 H 1066.34 -4.8128 -3.69397 0
M  V30 10926 H 1065.08 -3.6224 -3.26548 0
M  V30 10927 H 1064.08 -5.24979 -1.63331 0
M  V30 10928 H 1065.31 -6.46184 -2.08863 0
M  V30 10929 H 1063.25 -5.22776 -3.96284 0
M  V30 10930 H 1063.17 -6.81517 -3.27217 0
M  V30 10931 H 1064.44 -6.43514 -4.39898 0
M  V30 10932 N 1068.67 0.153526 -1.5685 0
M  V30 10933 C 1069.58 1.20932 -2.01029 0
M  V30 10934 C 1070.59 1.47401 -0.924598 0
M  V30 10935 O 1071.77 1.592 -1.23359 0
M  V30 10936 C 1068.83 2.52438 -2.37647 0
M  V30 10937 C 1067.89 2.33673 -3.60132 0
M  V30 10938 C 1067.13 3.58909 -3.94994 0
M  V30 10939 O 1067.35 4.64823 -3.30599 0
M  V30 10940 O 1066.28 3.5196 -4.8827 0
M  V30 10941 H 1070.11 0.864273 -2.91143 0
M  V30 10942 H 1067.7 0.361755 -1.44954 0
M  V30 10943 H 1069.58 3.29981 -2.62088 0
M  V30 10944 H 1068.25 2.86486 -1.5069 0
M  V30 10945 H 1067.16 1.54102 -3.40886 0
M  V30 10946 H 1068.49 2.04544 -4.47686 0
M  V30 10947 N 1070.14 1.51827 0.422667 0
M  V30 10948 C 1071.56 1.57533 1.00201 0
M  V30 10949 C 1071.91 0.407623 1.91919 0
M  V30 10950 O 1071.03 -0.473763 2.1115 0
M  V30 10951 C 1071.63 2.85508 1.82403 0
M  V30 10952 C 1070.19 2.93737 2.35362 0
M  V30 10953 C 1069.33 2.52343 1.14971 0
M  V30 10954 H 1072.28 1.57391 0.20339 0
M  V30 10955 H 1072.3 2.70097 2.68007 0
M  V30 10956 H 1071.82 3.70477 1.15623 0
M  V30 10957 H 1069.92 2.13231 3.05554 0
M  V30 10958 H 1070.03 3.977 2.67155 0
M  V30 10959 H 1068.39 2.05878 1.49955 0
M  V30 10960 H 1069.18 3.39672 0.497786 0
M  V30 10961 N 1071.62 -0.679052 1.4222 0
M  V30 10962 C 1073.03 -1.25953 1.37815 0
M  V30 10963 C 1073.38 -1.96077 0.0693215 0
M  V30 10964 O 1072.51 -1.99765 -0.832047 0
M  V30 10965 C 1073.1 -2.29063 2.49631 0
M  V30 10966 C 1071.66 -2.82647 2.48571 0
M  V30 10967 C 1070.81 -1.56909 2.28637 0
M  V30 10968 H 1073.76 -0.472714 1.51496 0
M  V30 10969 H 1073.78 -3.10708 2.19638 0
M  V30 10970 H 1073.29 -1.77996 3.44876 0
M  V30 10971 H 1071.4 -3.37846 1.57132 0
M  V30 10972 H 1071.51 -3.31952 3.45463 0
M  V30 10973 H 1069.87 -1.83323 1.76819 0
M  V30 10974 H 1070.66 -1.07814 3.25931 0
M  V30 10975 N 1073.1 -1.28322 -0.914942 0
M  V30 10976 C 1074.35 -1.15179 -1.66067 0
M  V30 10977 C 1074.67 0.300279 -1.92674 0
M  V30 10978 O 1073.94 1.20821 -1.54205 0
M  V30 10979 H 1072.52 -0.423264 -0.615513 0
M  V30 10980 H 1075.18 -1.61034 -1.09791 0
M  V30 10981 H 1074.28 -1.69048 -2.62353 0
M  V30 10982 N 1074.58 1.12322 -1.10551 0
M  V30 10983 C 1075.81 1.87407 -0.869607 0
M  V30 10984 C 1076.22 1.79976 0.58356 0
M  V30 10985 O 1075.56 1.1725 1.41415 0
M  V30 10986 C 1075.62 3.37401 -1.24099 0
M  V30 10987 C 1075.29 3.68607 -2.70144 0
M  V30 10988 C 1076.28 3.66869 -3.68379 0
M  V30 10989 C 1073.97 3.97903 -3.06559 0
M  V30 10990 C 1075.96 3.93987 -5.01052 0
M  V30 10991 C 1073.65 4.24681 -4.39419 0
M  V30 10992 C 1074.65 4.2271 -5.36475 0
M  V30 10993 O 1074.33 4.48823 -6.66943 0
M  V30 10994 H 1074.07 0.59978 -0.311834 0
M  V30 10995 H 1076.62 1.43037 -1.4741 0
M  V30 10996 H 1074.85 3.82332 -0.579606 0
M  V30 10997 H 1076.54 3.93833 -0.982378 0
M  V30 10998 H 1077.31 3.44297 -3.41591 0
M  V30 10999 H 1073.18 3.98578 -2.31638 0
M  V30 11000 H 1076.73 3.92364 -5.76798 0
M  V30 11001 H 1072.63 4.46727 -4.65945 0
M  V30 11002 H 1073.39 4.66436 -6.72592 0
M  V30 11003 N 1076.06 0.894434 1.2976 0
M  V30 11004 C 1076.97 0.372622 2.31622 0
M  V30 11005 C 1077.98 -0.52996 1.65733 0
M  V30 11006 O 1079.16 -0.420807 1.96955 0
M  V30 11007 C 1076.22 -0.396076 3.4443 0
M  V30 11008 C 1075.28 0.537394 4.25923 0
M  V30 11009 C 1074.52 -0.194713 5.33345 0
M  V30 11010 O 1074.74 -1.41943 5.52457 0
M  V30 11011 O 1073.67 0.460055 6.00139 0
M  V30 11012 H 1077.5 1.21756 2.78225 0
M  V30 11013 H 1075.09 0.65858 1.34101 0
M  V30 11014 H 1076.97 -0.830962 4.13126 0
M  V30 11015 H 1075.64 -1.21716 2.99945 0
M  V30 11016 H 1074.55 1.02129 3.5989 0
M  V30 11017 H 1075.88 1.32475 4.74037 0
M  V30 11018 N 1077.53 -1.43282 0.656365 0
M  V30 11019 C 1078.44 -2.34576 -0.033864 0
M  V30 11020 C 1079.46 -1.5406 -0.808793 0
M  V30 11021 O 1080.64 -1.867 -0.755322 0
M  V30 11022 C 1077.7 -3.32378 -0.986197 0
M  V30 11023 C 1076.76 -4.28797 -0.207851 0
M  V30 11024 C 1076 -5.21927 -1.11482 0
M  V30 11025 O 1076.22 -5.19554 -2.35414 0
M  V30 11026 O 1075.15 -5.99045 -0.585536 0
M  V30 11027 H 1078.98 -2.95099 0.717668 0
M  V30 11028 H 1076.56 -1.43475 0.416556 0
M  V30 11029 H 1078.45 -3.9251 -1.53341 0
M  V30 11030 H 1077.12 -2.74354 -1.7179 0
M  V30 11031 H 1076.03 -3.72134 0.383022 0
M  V30 11032 H 1077.36 -4.89811 0.48435 0
M  V30 11033 N 1079.01 -0.398486 -1.52479 0
M  V30 11034 C 1079.98 0.420206 -2.25315 0
M  V30 11035 C 1080.98 0.982559 -1.27289 0
M  V30 11036 O 1082.17 0.863113 -1.51314 0
M  V30 11037 C 1079.3 1.59045 -3.01525 0
M  V30 11038 H 1080.49 -0.217599 -2.9911 0
M  V30 11039 H 1078.04 -0.150784 -1.55571 0
M  V30 11040 H 1078.78 2.26542 -2.32054 0
M  V30 11041 H 1078.56 1.19382 -3.73484 0
M  V30 11042 H 1080.05 2.16984 -3.56802 0
M  V30 11043 N 1080.49 1.57075 -0.12858 0
M  V30 11044 C 1081.42 2.11553 0.855593 0
M  V30 11045 C 1082.4 1.03435 1.25459 0
M  V30 11046 O 1083.59 1.3115 1.35395 0
M  V30 11047 C 1080.71 2.62012 2.14633 0
M  V30 11048 C 1079.76 3.82105 1.89467 0
M  V30 11049 S 1080.59 5.24033 1.10228 0
M  V30 11050 C 1081.75 5.77867 2.4046 0
M  V30 11051 H 1081.98 2.94701 0.392248 0
M  V30 11052 H 1079.51 1.54164 0.0853746 0
M  V30 11053 H 1081.47 2.91737 2.8879 0
M  V30 11054 H 1080.13 1.79029 2.58084 0
M  V30 11055 H 1079.33 4.15592 2.8513 0
M  V30 11056 H 1078.93 3.53047 1.23427 0
M  V30 11057 H 1081.22 5.88175 3.36238 0
M  V30 11058 H 1082.16 6.75775 2.11504 0
M  V30 11059 H 1082.57 5.05991 2.50266 0
M  V30 11060 N 1081.97 -0.145205 1.5693 0
M  V30 11061 C 1083.19 -0.876386 1.87974 0
M  V30 11062 C 1083.62 -1.73866 0.717795 0
M  V30 11063 O 1082.98 -1.78224 -0.332551 0
M  V30 11064 C 1083.03 -1.70746 3.17613 0
M  V30 11065 O 1082.13 -2.81188 3.01674 0
M  V30 11066 H 1081.47 -0.243987 0.617549 0
M  V30 11067 H 1084 -0.135482 2.04151 0
M  V30 11068 H 1084.01 -2.1021 3.49679 0
M  V30 11069 H 1082.69 -1.07429 4.01786 0
M  V30 11070 H 1081.26 -2.45117 2.81019 0
M  V30 11071 N 1083.45 -1.52049 -0.414609 0
M  V30 11072 C 1084.38 -1.7122 -1.52369 0
M  V30 11073 C 1085.39 -0.592634 -1.5163 0
M  V30 11074 O 1086.58 -0.867634 -1.55995 0
M  V30 11075 C 1083.68 -1.73247 -2.91271 0
M  V30 11076 C 1082.85 -3.02153 -3.16263 0
M  V30 11077 C 1081.91 -2.96066 -4.35007 0
M  V30 11078 O 1080.94 -3.69981 -4.32554 0
M  V30 11079 N 1082.14 -2.13478 -5.39822 0
M  V30 11080 H 1084.91 -2.66902 -1.3632 0
M  V30 11081 H 1082.47 -1.50218 -0.603842 0
M  V30 11082 H 1084.46 -1.66714 -3.68766 0
M  V30 11083 H 1083.03 -0.85062 -3.00804 0
M  V30 11084 H 1082.25 -3.22379 -2.2686 0
M  V30 11085 H 1083.54 -3.87439 -3.29801 0
M  V30 11086 H 1082.94 -1.52844 -5.44661 0
M  V30 11087 H 1081.49 -2.12805 -6.16082 0
M  V30 11088 N 1084.93 0.6715 -1.42579 0
M  V30 11089 C 1085.86 1.79703 -1.42266 0
M  V30 11090 C 1086.87 1.59599 -0.321268 0
M  V30 11091 O 1088.06 1.68657 -0.584564 0
M  V30 11092 C 1085.16 3.16859 -1.20224 0
M  V30 11093 C 1084.33 3.63783 -2.42859 0
M  V30 11094 C 1083.39 4.79683 -2.16312 0
M  V30 11095 O 1082.42 4.90058 -2.89537 0
M  V30 11096 N 1083.62 5.68622 -1.16831 0
M  V30 11097 H 1086.38 1.80455 -2.39282 0
M  V30 11098 H 1083.95 0.854708 -1.375 0
M  V30 11099 H 1085.94 3.92054 -1.00376 0
M  V30 11100 H 1084.51 3.10987 -0.317188 0
M  V30 11101 H 1083.73 2.7923 -2.78252 0
M  V30 11102 H 1085.02 3.91877 -3.24514 0
M  V30 11103 H 1084.41 5.62894 -0.562746 0
M  V30 11104 H 1082.97 6.43615 -1.0297 0
M  V30 11105 N 1086.4 1.28806 0.908124 0
M  V30 11106 C 1087.81 1.14719 1.47297 0
M  V30 11107 C 1088.17 -0.260763 1.94459 0
M  V30 11108 O 1087.29 -1.15553 1.82966 0
M  V30 11109 C 1087.89 2.07643 2.67712 0
M  V30 11110 C 1086.44 1.97605 3.20358 0
M  V30 11111 C 1085.59 1.99058 1.93058 0
M  V30 11112 H 1088.54 1.41413 0.720283 0
M  V30 11113 H 1088.56 1.64372 3.43165 0
M  V30 11114 H 1088.08 3.10108 2.33355 0
M  V30 11115 H 1086.18 0.981982 3.59427 0
M  V30 11116 H 1086.29 2.84846 3.85226 0
M  V30 11117 H 1084.65 1.43541 2.104 0
M  V30 11118 H 1085.44 3.03212 1.60989 0
M  V30 11119 N 1087.88 -1.11734 1.11145 0
M  V30 11120 C 1088.83 -2.17683 0.766979 0
M  V30 11121 C 1089.8 -1.64051 -0.260108 0
M  V30 11122 O 1090.98 -1.90302 -0.137723 0
M  V30 11123 C 1088.12 -3.44442 0.212982 0
M  V30 11124 C 1087.24 -4.12094 1.29626 0
M  V30 11125 C 1086.37 -5.26526 0.703127 0
M  V30 11126 C 1085.41 -5.86057 1.76647 0
M  V30 11127 N 1084.55 -6.91889 1.19306 0
M  V30 11128 H 1089.39 -2.46495 1.67465 0
M  V30 11129 H 1086.92 -1.21011 0.836353 0
M  V30 11130 H 1088.88 -4.17009 -0.126162 0
M  V30 11131 H 1087.51 -3.16025 -0.657888 0
M  V30 11132 H 1086.56 -3.37631 1.75241 0
M  V30 11133 H 1087.88 -4.52398 2.10089 0
M  V30 11134 H 1087.03 -6.05888 0.313859 0
M  V30 11135 H 1085.77 -4.87519 -0.132856 0
M  V30 11136 H 1084.77 -5.05375 2.16508 0
M  V30 11137 H 1086 -6.27132 2.60543 0
M  V30 11138 H 1083.95 -6.54906 0.378664 0
M  V30 11139 H 1083.86 -7.30832 1.93443 0
M  V30 11140 H 1085.13 -7.75062 0.830578 0
M  V30 11141 N 1089.36 -0.901303 -1.29284 0
M  V30 11142 C 1090.29 -0.337552 -2.26701 0
M  V30 11143 C 1091.3 0.517039 -1.54371 0
M  V30 11144 O 1092.49 0.333937 -1.75349 0
M  V30 11145 C 1089.59 0.537214 -3.34615 0
M  V30 11146 C 1088.77 -0.292017 -4.36424 0
M  V30 11147 C 1087.83 0.515837 -5.23666 0
M  V30 11148 O 1086.85 -0.0672303 -5.6916 0
M  V30 11149 N 1088.05 1.82159 -5.51179 0
M  V30 11150 H 1090.82 -1.17484 -2.75713 0
M  V30 11151 H 1088.38 -0.765957 -1.42635 0
M  V30 11152 H 1090.37 1.0841 -3.8991 0
M  V30 11153 H 1088.94 1.2752 -2.85408 0
M  V30 11154 H 1088.16 -1.02031 -3.80767 0
M  V30 11155 H 1089.45 -0.859855 -5.01482 0
M  V30 11156 H 1088.85 2.318 -5.16028 0
M  V30 11157 H 1087.4 2.31556 -6.09282 0
M  V30 11158 N 1090.84 1.42931 -0.663954 0
M  V30 11159 C 1091.77 2.29122 0.0598878 0
M  V30 11160 C 1092.78 1.43094 0.776404 0
M  V30 11161 O 1093.97 1.66923 0.63237 0
M  V30 11162 C 1091.07 3.20268 1.10822 0
M  V30 11163 C 1090.24 4.34892 0.4677 0
M  V30 11164 C 1089.3 5.06836 1.41435 0
M  V30 11165 O 1088.33 5.61735 0.918818 0
M  V30 11166 N 1089.53 5.11336 2.74801 0
M  V30 11167 H 1092.3 2.91885 -0.679945 0
M  V30 11168 H 1089.86 1.53739 -0.507543 0
M  V30 11169 H 1091.85 3.65264 1.74255 0
M  V30 11170 H 1090.42 2.59031 1.7499 0
M  V30 11171 H 1089.64 3.92679 -0.34593 0
M  V30 11172 H 1090.93 5.08796 0.0210237 0
M  V30 11173 H 1090.33 4.68124 3.1761 0
M  V30 11174 H 1088.88 5.60013 3.33509 0
M  V30 11175 N 1092.32 0.406567 1.52266 0
M  V30 11176 C 1093.23 -0.4271 2.30679 0
M  V30 11177 C 1094.24 -1.0559 1.383 0
M  V30 11178 O 1095.42 -1.05797 1.71374 0
M  V30 11179 C 1092.48 -1.53008 3.1111 0
M  V30 11180 C 1091.54 -0.924604 4.19225 0
M  V30 11181 C 1090.78 -1.97502 4.95811 0
M  V30 11182 O 1091 -3.19277 4.72671 0
M  V30 11183 O 1089.93 -1.58268 5.80719 0
M  V30 11184 H 1093.76 0.212187 3.02958 0
M  V30 11185 H 1091.34 0.169835 1.48432 0
M  V30 11186 H 1093.23 -2.17046 3.61205 0
M  V30 11187 H 1091.9 -2.15401 2.41628 0
M  V30 11188 H 1090.81 -0.247009 3.73284 0
M  V30 11189 H 1092.14 -0.34463 4.90992 0
M  V30 11190 N 1093.79 -1.57004 0.136909 0
M  V30 11191 C 1094.74 -2.17524 -0.823784 0
M  V30 11192 C 1095.74 -1.1294 -1.26258 0
M  V30 11193 O 1096.94 -1.3121 -1.23223 0
M  V30 11194 H 1093.32 -0.696381 -0.283827 0
M  V30 11195 H 1095.29 -2.96997 -0.289052 0
M  V30 11196 C 1094.04 -2.80331 -2.05693 0
M  V30 11197 H 1093.36 -3.60515 -1.72825 0
M  V30 11198 H 1094.8 -3.26192 -2.70878 0
M  V30 11199 C 1093.26 -1.78322 -2.85837 0
M  V30 11200 O 1093.79 -1.2475 -3.81838 0
M  V30 11201 N 1092 -1.47854 -2.50175 0
M  V30 11202 H 1091.54 -1.9161 -1.72173 0
M  V30 11203 H 1091.5 -0.798464 -3.04092 0
M  V30 11204 N 1095.27 0.136881 -1.57004 0
M  V30 11205 C 1096.52 0.8461 -1.83536 0
M  V30 11206 C 1096.84 1.81246 -0.71937 0
M  V30 11207 O 1096.11 1.94191 0.258161 0
M  V30 11208 H 1094.69 0.315446 -0.677128 0
M  V30 11209 H 1097.35 0.128469 -1.94476 0
M  V30 11210 H 1096.45 1.40221 -2.78827 0
M  V30 11211 N 1096.75 1.52266 0.40654 0
M  V30 11212 C 1097.98 1.70598 1.17945 0
M  V30 11213 C 1098.4 0.415793 1.83447 0
M  V30 11214 O 1097.76 -0.626968 1.70114 0
M  V30 11215 C 1097.81 2.84449 2.21633 0
M  V30 11216 O 1096.91 2.50199 3.27833 0
M  V30 11217 H 1096.25 0.567837 0.344177 0
M  V30 11218 H 1098.78 1.98981 0.476211 0
M  V30 11219 H 1098.79 3.09436 2.65919 0
M  V30 11220 H 1097.47 3.78055 1.73341 0
M  V30 11221 H 1096.04 2.35892 2.88807 0
M  V30 11222 N 1098.23 -0.663929 1.42933 0
M  V30 11223 C 1099.45 -1.45691 1.47611 0
M  V30 11224 C 1099.88 -1.87875 0.0920305 0
M  V30 11225 O 1099.24 -1.56696 -0.91192 0
M  V30 11226 C 1099.28 -2.67517 2.41799 0
M  V30 11227 O 1098.39 -3.66187 1.89686 0
M  V30 11228 H 1097.73 -0.437257 0.499702 0
M  V30 11229 H 1100.26 -0.813397 1.87737 0
M  V30 11230 H 1100.27 -3.1546 2.58745 0
M  V30 11231 H 1098.94 -2.36155 3.4235 0
M  V30 11232 H 1097.52 -3.25274 1.82349 0
M  V30 11233 N 1099.71 -1.29285 -0.901281 0
M  V30 11234 C 1100.93 -1.20169 -1.69039 0
M  V30 11235 C 1101.36 0.234509 -1.86632 0
M  V30 11236 O 1100.71 1.16935 -1.38549 0
M  V30 11237 C 1100.76 -1.91852 -3.05328 0
M  V30 11238 O 1099.87 -1.23448 -3.9349 0
M  V30 11239 H 1099.21 -0.416486 -0.517141 0
M  V30 11240 H 1101.74 -1.70826 -1.12603 0
M  V30 11241 H 1101.75 -2.00244 -3.5548 0
M  V30 11242 H 1100.42 -2.96313 -2.91841 0
M  V30 11243 H 1099 -1.23303 -3.51924 0
M  V30 11244 N 1101.18 1.11143 -1.11736 0
M  V30 11245 C 1102.12 2.1705 -0.736325 0
M  V30 11246 C 1103.13 1.61116 0.233528 0
M  V30 11247 O 1104.32 1.78493 0.0159602 0
M  V30 11248 C 1101.42 3.38832 -0.067974 0
M  V30 11249 C 1100.59 4.24226 -1.06543 0
M  V30 11250 C 1099.65 5.24472 -0.426063 0
M  V30 11251 O 1098.68 5.58843 -1.0809 0
M  V30 11252 N 1099.88 5.74825 0.809711 0
M  V30 11253 H 1102.64 2.50349 -1.64758 0
M  V30 11254 H 1100.2 1.26693 -1.00799 0
M  V30 11255 H 1102.2 4.02991 0.371563 0
M  V30 11256 H 1100.77 3.0357 0.745917 0
M  V30 11257 H 1099.99 3.56475 -1.68283 0
M  V30 11258 H 1101.27 4.78117 -1.74016 0
M  V30 11259 H 1100.67 5.49088 1.36084 0
M  V30 11260 H 1099.23 6.40804 1.19218 0
M  V30 11261 N 1102.66 0.908147 1.28804 0
M  V30 11262 C 1103.59 0.34957 2.26519 0
M  V30 11263 C 1104.61 -0.508845 1.54643 0
M  V30 11264 O 1105.8 -0.324633 1.75523 0
M  V30 11265 C 1102.9 -0.519461 3.34895 0
M  V30 11266 C 1102.07 0.315157 4.36263 0
M  V30 11267 C 1101.13 -0.488059 5.23932 0
M  V30 11268 O 1100.15 0.0974133 5.69117 0
M  V30 11269 N 1101.36 -1.79233 5.52137 0
M  V30 11270 H 1104.12 1.18945 2.75086 0
M  V30 11271 H 1101.68 0.77351 1.42227 0
M  V30 11272 H 1103.67 -1.0634 3.90479 0
M  V30 11273 H 1102.24 -1.26004 2.8608 0
M  V30 11274 H 1101.46 1.04049 3.8022 0
M  V30 11275 H 1102.75 0.886438 5.01019 0
M  V30 11276 H 1102.15 -2.2906 5.1725 0
M  V30 11277 H 1100.71 -2.28322 6.10502 0
M  V30 11278 N 1104.14 -1.42577 0.671525 0
M  V30 11279 C 1105.07 -2.28124 -0.0589347 0
M  V30 11280 C 1106.05 -1.40878 -0.811915 0
M  V30 11281 O 1107.24 -1.70318 -0.807717 0
M  V30 11282 C 1104.36 -3.20662 -1.09057 0
M  V30 11283 C 1103.41 -4.24291 -0.43355 0
M  V30 11284 S 1104.24 -5.29393 0.806442 0
M  V30 11285 C 1105.4 -6.25498 -0.224204 0
M  V30 11286 H 1105.63 -2.89728 0.666689 0
M  V30 11287 H 1103.16 -1.47359 0.460959 0
M  V30 11288 H 1105.12 -3.74516 -1.68071 0
M  V30 11289 H 1103.78 -2.582 -1.78862 0
M  V30 11290 H 1102.98 -4.89213 -1.21186 0
M  V30 11291 H 1102.58 -3.73908 0.0829136 0
M  V30 11292 H 1104.87 -6.68757 -1.08492 0
M  V30 11293 H 1105.81 -7.07023 0.390469 0
M  V30 11294 H 1106.22 -5.61633 -0.568214 0
M  V30 11295 N 1105.62 -0.414636 -1.52048 0
M  V30 11296 C 1106.9 0.218172 -1.94379 0
M  V30 11297 C 1107.28 1.62133 -1.35189 0
M  V30 11298 O 1106.62 2.22271 -0.529877 0
M  V30 11299 C 1106.83 0.218932 -3.48313 0
M  V30 11300 C 1108.18 0.435604 -4.2236 0
M  V30 11301 O 1109.21 0.298049 -3.54951 0
M  V30 11302 O 1108.06 0.707217 -5.41905 0
M  V30 11303 H 1105.16 0.142173 -0.814688 0
M  V30 11304 H 1107.7 -0.470977 -1.63033 0
M  V30 11305 H 1106.48 -0.76292 -3.83791 0
M  V30 11306 H 1106.1 0.951949 -3.86036 0
M  V30 11307 N 1107.1 1.56929 -0.145233 0
M  V30 11308 C 1108.37 1.8767 0.551288 0
M  V30 11309 C 1108.75 1.05089 1.83083 0
M  V30 11310 O 1108.1 0.137201 2.28088 0
M  V30 11311 C 1108.31 3.39268 0.818445 0
M  V30 11312 C 1109.66 4.08447 1.16 0
M  V30 11313 O 1110.68 3.44436 0.907857 0
M  V30 11314 O 1109.54 5.21488 1.63441 0
M  V30 11315 H 1106.64 0.777788 0.281024 0
M  V30 11316 H 1109.18 1.68724 -0.181712 0
M  V30 11317 H 1107.95 3.91203 -0.0871897 0
M  V30 11318 H 1107.58 3.63735 1.60569 0
M  V30 11319 N 1108.58 -0.128553 1.57075 0
M  V30 11320 C 1109.51 -1.15953 2.02675 0
M  V30 11321 C 1110.49 -1.43743 0.909501 0
M  V30 11322 O 1111.67 -1.54348 1.17857 0
M  V30 11323 C 1108.8 -2.48813 2.423 0
M  V30 11324 C 1107.76 -2.35506 3.57381 0
M  V30 11325 C 1107.08 -3.73243 3.82875 0
M  V30 11326 C 1108.38 -1.82359 4.89431 0
M  V30 11327 H 1110.08 -0.780283 2.89054 0
M  V30 11328 H 1107.62 -0.373896 1.39061 0
M  V30 11329 H 1109.57 -3.21179 2.72804 0
M  V30 11330 H 1108.3 -2.88609 1.52881 0
M  V30 11331 H 1106.96 -1.6559 3.27071 0
M  V30 11332 H 1106.61 -4.10507 2.90677 0
M  V30 11333 H 1106.31 -3.65195 4.60333 0
M  V30 11334 H 1107.83 -4.47128 4.15823 0
M  V30 11335 H 1109.24 -2.44533 5.18533 0
M  V30 11336 H 1107.64 -1.85156 5.70822 0
M  V30 11337 H 1108.71 -0.780478 4.78578 0
M  V30 11338 N 1110.05 -1.5248 -0.398459 0
M  V30 11339 C 1111.3 -1.67061 -1.14441 0
M  V30 11340 C 1111.63 -0.405821 -1.90219 0
M  V30 11341 O 1110.88 0.611532 -1.859 0
M  V30 11342 C 1111.18 -2.85038 -2.15611 0
M  V30 11343 C 1110.85 -4.22847 -1.56561 0
M  V30 11344 C 1109.51 -4.60329 -1.40182 0
M  V30 11345 C 1111.86 -5.08683 -1.1354 0
M  V30 11346 C 1109.19 -5.81314 -0.793149 0
M  V30 11347 C 1111.54 -6.30284 -0.540866 0
M  V30 11348 C 1110.21 -6.66505 -0.364297 0
M  V30 11349 H 1109.48 -0.611321 -0.418769 0
M  V30 11350 H 1112.12 -1.86604 -0.430241 0
M  V30 11351 H 1110.43 -2.59873 -2.93212 0
M  V30 11352 H 1112.13 -2.93516 -2.73221 0
M  V30 11353 H 1108.72 -3.93316 -1.70295 0
M  V30 11354 H 1112.9 -4.80301 -1.24999 0
M  V30 11355 H 1108.16 -6.07994 -0.64446 0
M  V30 11356 H 1112.33 -6.96115 -0.199167 0
M  V30 11357 H 1109.96 -7.60121 0.109439 0
M  V30 11358 N 1111.53 0.65634 -1.43283 0
M  V30 11359 C 1112.81 1.41339 -1.35213 0
M  V30 11360 C 1113.19 2.111 0.00158494 0
M  V30 11361 O 1112.54 2.0457 1.018 0
M  V30 11362 C 1112.75 2.40066 -2.53317 0
M  V30 11363 C 1114.09 3.04159 -2.96264 0
M  V30 11364 O 1115.12 2.50393 -2.53341 0
M  V30 11365 O 1113.98 4.01633 -3.70612 0
M  V30 11366 H 1111.07 0.631325 -0.534189 0
M  V30 11367 H 1113.62 0.68351 -1.55326 0
M  V30 11368 H 1112.39 1.87444 -3.43483 0
M  V30 11369 H 1112.01 3.20509 -2.35287 0
M  V30 11370 N 1113.01 1.29761 0.894412 0
M  V30 11371 C 1114.26 1.17409 1.64006 0
M  V30 11372 C 1114.57 -0.272355 1.93695 0
M  V30 11373 O 1115.78 -0.517269 2.66527 0
M  V30 11374 C 1114.23 2.05379 2.95546 0
M  V30 11375 C 1113.84 3.54878 2.73433 0
M  V30 11376 C 1115.59 2.01765 3.73485 0
M  V30 11377 C 1113.49 4.34935 4.00731 0
M  V30 11378 H 1112.42 0.43583 0.615279 0
M  V30 11379 H 1115.07 1.5444 0.990983 0
M  V30 11380 H 1113.46 1.61222 3.61695 0
M  V30 11381 H 1114.63 4.07122 2.15844 0
M  V30 11382 H 1112.94 3.60218 2.08882 0
M  V30 11383 H 1115.54 2.58835 4.67877 0
M  V30 11384 H 1115.88 0.998876 4.04139 0
M  V30 11385 H 1116.42 2.43994 3.14184 0
M  V30 11386 H 1113.16 5.3747 3.75241 0
M  V30 11387 H 1112.68 3.87458 4.5786 0
M  V30 11388 H 1114.36 4.45875 4.68833 0
M  V30 11389 N 1114.49 -1.10549 1.12324 0
M  V30 11390 C 1115.42 -2.18911 0.812416 0
M  V30 11391 C 1116.4 -1.68628 -0.22327 0
M  V30 11392 O 1117.58 -1.94015 -0.0847184 0
M  V30 11393 C 1114.71 -3.46288 0.264947 0
M  V30 11394 C 1113.67 -4.09838 1.23356 0
M  V30 11395 C 1112.99 -5.31901 0.546374 0
M  V30 11396 C 1114.29 -4.53686 2.58778 0
M  V30 11397 H 1115.99 -2.45169 1.71851 0
M  V30 11398 H 1113.53 -1.17834 0.827715 0
M  V30 11399 H 1115.49 -4.21385 0.0352364 0
M  V30 11400 H 1114.21 -3.19517 -0.676479 0
M  V30 11401 H 1112.87 -3.36746 1.44906 0
M  V30 11402 H 1112.52 -5.01406 -0.400157 0
M  V30 11403 H 1112.22 -5.75372 1.19249 0
M  V30 11404 H 1113.74 -6.09731 0.325673 0
M  V30 11405 H 1115.16 -5.20063 2.41263 0
M  V30 11406 H 1113.55 -5.08003 3.19457 0
M  V30 11407 H 1114.62 -3.66665 3.17309 0
M  V30 11408 N 1115.97 -0.914965 -1.28321 0
M  V30 11409 C 1117.21 -0.544639 -1.94208 0
M  V30 11410 C 1117.53 0.916368 -1.72806 0
M  V30 11411 O 1118.73 1.39491 -2.32926 0
M  V30 11412 C 1117.19 -0.923209 -3.47858 0
M  V30 11413 C 1116.8 -2.40403 -3.78035 0
M  V30 11414 C 1118.54 -0.623526 -4.19896 0
M  V30 11415 C 1116.45 -2.72266 -5.25 0
M  V30 11416 H 1115.38 -0.199966 -0.727 0
M  V30 11417 H 1118.03 -1.11405 -1.45812 0
M  V30 11418 H 1116.41 -0.282576 -3.94991 0
M  V30 11419 H 1117.59 -3.09149 -3.41706 0
M  V30 11420 H 1115.9 -2.67429 -3.19172 0
M  V30 11421 H 1118.5 -0.838243 -5.28089 0
M  V30 11422 H 1118.84 0.438721 -4.13982 0
M  V30 11423 H 1119.37 -1.22268 -3.78544 0
M  V30 11424 H 1116.11 -3.77349 -5.35993 0
M  V30 11425 H 1115.63 -2.08157 -5.62522 0
M  V30 11426 H 1117.31 -2.59334 -5.92752 0
M  V30 11427 N 1117.44 1.42219 -0.679077 0
M  V30 11428 C 1118.38 2.29172 0.035583 0
M  V30 11429 C 1119.39 1.43909 0.761183 0
M  V30 11430 O 1120.58 1.67584 0.61463 0
M  V30 11431 C 1117.68 3.21426 1.07419 0
M  V30 11432 C 1116.85 4.35364 0.421547 0
M  V30 11433 C 1115.91 5.08307 1.36051 0
M  V30 11434 O 1114.94 5.62678 0.859186 0
M  V30 11435 N 1116.14 5.14222 2.69362 0
M  V30 11436 H 1118.9 2.91147 -0.710865 0
M  V30 11437 H 1116.46 1.53192 -0.523821 0
M  V30 11438 H 1118.46 3.67091 1.70371 0
M  V30 11439 H 1117.03 2.60873 1.72233 0
M  V30 11440 H 1116.25 3.9229 -0.387559 0
M  V30 11441 H 1117.53 5.08789 -0.0329421 0
M  V30 11442 H 1116.93 4.71467 3.12627 0
M  V30 11443 H 1115.49 5.63519 3.27551 0
M  V30 11444 N 1118.92 0.422693 1.51826 0
M  V30 11445 C 1120.15 -0.15017 2.06856 0
M  V30 11446 C 1120.57 -1.36946 1.28948 0
M  V30 11447 O 1119.93 -1.78393 0.32338 0
M  V30 11448 C 1119.98 -0.465563 3.57582 0
M  V30 11449 O 1119.08 -1.55442 3.81984 0
M  V30 11450 H 1118.42 -0.00827931 0.663948 0
M  V30 11451 H 1120.95 0.599806 1.95611 0
M  V30 11452 H 1120.96 -0.720279 4.01592 0
M  V30 11453 H 1119.64 0.425679 4.13716 0
M  V30 11454 H 1118.21 -1.29081 3.49846 0
M  V30 11455 N 1120.4 -1.5685 0.153553 0
M  V30 11456 C 1121.65 -1.95946 -0.494936 0
M  V30 11457 C 1121.97 -1.03975 -1.64967 0
M  V30 11458 O 1121.24 -0.102572 -1.95631 0
M  V30 11459 H 1119.82 -0.723516 -0.185833 0
M  V30 11460 H 1122.48 -1.93531 0.230585 0
M  V30 11461 H 1121.58 -2.99823 -0.866743 0
M  V30 11462 N 1121.88 0.120221 -1.57141 0
M  V30 11463 C 1122.79 1.16641 -2.03549 0
M  V30 11464 C 1123.8 1.45407 -0.955656 0
M  V30 11465 O 1124.98 1.56547 -1.26708 0
M  V30 11466 C 1122.04 2.4734 -2.42948 0
M  V30 11467 C 1121.11 2.25982 -3.65008 0
M  V30 11468 C 1120.34 3.50449 -4.02518 0
M  V30 11469 O 1120.56 4.57706 -3.40384 0
M  V30 11470 O 1119.5 3.41524 -4.95626 0
M  V30 11471 H 1123.32 0.802323 -2.9291 0
M  V30 11472 H 1120.91 0.330927 -1.45689 0
M  V30 11473 H 1122.79 3.24348 -2.69029 0
M  V30 11474 H 1121.46 2.83225 -1.56733 0
M  V30 11475 H 1120.37 1.46837 -3.44078 0
M  V30 11476 H 1121.7 1.95002 -4.51924 0
M  V30 11477 N 1123.36 1.52689 0.390367 0
M  V30 11478 C 1124.61 1.6689 1.13272 0
M  V30 11479 C 1124.92 0.414433 1.91159 0
M  V30 11480 O 1126.12 0.436559 2.67967 0
M  V30 11481 C 1124.58 2.94929 2.06264 0
M  V30 11482 C 1124.19 4.27551 1.33805 0
M  V30 11483 C 1125.93 3.18497 2.80642 0
M  V30 11484 C 1123.84 5.46698 2.25554 0
M  V30 11485 H 1122.77 0.621749 0.426549 0
M  V30 11486 H 1125.42 1.79185 0.395615 0
M  V30 11487 H 1123.8 2.76378 2.83604 0
M  V30 11488 H 1124.98 4.56651 0.616997 0
M  V30 11489 H 1123.29 4.10234 0.713913 0
M  V30 11490 H 1125.89 4.04693 3.49467 0
M  V30 11491 H 1126.23 2.33511 3.44642 0
M  V30 11492 H 1126.76 3.37607 2.10395 0
M  V30 11493 H 1123.5 6.34088 1.66171 0
M  V30 11494 H 1123.02 5.21913 2.95579 0
M  V30 11495 H 1124.7 5.80519 2.85668 0
M  V30 11496 N 1124.83 -0.648732 1.43629 0
M  V30 11497 C 1126.06 -1.44117 1.49148 0
M  V30 11498 C 1126.48 -1.87767 0.111952 0
M  V30 11499 O 1125.84 -1.57655 -0.895249 0
M  V30 11500 C 1125.89 -2.64938 2.44623 0
M  V30 11501 O 1124.99 -3.64155 1.93559 0
M  V30 11502 H 1124.34 -0.431933 0.504312 0
M  V30 11503 H 1126.87 -0.793439 1.88589 0
M  V30 11504 H 1126.88 -3.12698 2.62076 0
M  V30 11505 H 1125.55 -2.3251 3.44836 0
M  V30 11506 H 1124.13 -3.23322 1.85789 0
M  V30 11507 N 1126.31 -1.30234 -0.887518 0
M  V30 11508 C 1127.28 -1.16384 -1.97452 0
M  V30 11509 C 1128.28 -0.0957942 -1.60514 0
M  V30 11510 O 1129.47 -0.343706 -1.70776 0
M  V30 11511 C 1126.6 -0.782514 -3.31797 0
M  V30 11512 H 1127.79 -2.12952 -2.11167 0
M  V30 11513 H 1125.34 -1.13594 -1.07359 0
M  V30 11514 H 1126.08 0.18278 -3.23785 0
M  V30 11515 H 1125.86 -1.55434 -3.59976 0
M  V30 11516 H 1127.35 -0.709011 -4.11537 0
M  V30 11517 N 1127.79 1.09952 -1.12909 0
M  V30 11518 C 1129.07 1.78547 -0.798767 0
M  V30 11519 C 1129.45 1.9878 0.710624 0
M  V30 11520 O 1128.8 1.58485 1.64604 0
M  V30 11521 C 1129.01 3.1121 -1.57953 0
M  V30 11522 C 1130.35 3.86006 -1.76874 0
M  V30 11523 O 1131.38 3.20946 -1.54506 0
M  V30 11524 O 1130.24 5.02791 -2.14158 0
M  V30 11525 H 1127.33 0.774084 -0.291072 0
M  V30 11526 H 1129.88 1.16557 -1.2334 0
M  V30 11527 H 1128.65 2.91935 -2.60557 0
M  V30 11528 H 1128.27 3.80922 -1.13948 0
M  V30 11529 N 1129.27 0.921757 1.27833 0
M  V30 11530 C 1130.52 0.559078 1.94629 0
M  V30 11531 C 1130.84 -0.898641 1.72495 0
M  V30 11532 O 1130.1 -1.65546 1.0437 0
M  V30 11533 C 1130.4 0.824259 3.47765 0
M  V30 11534 C 1130.06 2.26278 3.90011 0
M  V30 11535 C 1128.73 2.65607 4.01256 0
M  V30 11536 C 1131.08 3.19853 4.11513 0
M  V30 11537 C 1128.41 3.97646 4.31387 0
M  V30 11538 C 1130.76 4.51467 4.43126 0
M  V30 11539 C 1129.42 4.90637 4.52583 0
M  V30 11540 H 1128.69 0.204581 0.712199 0
M  V30 11541 H 1131.34 1.1646 1.52018 0
M  V30 11542 H 1129.64 0.136011 3.91564 0
M  V30 11543 H 1131.34 0.522701 3.97579 0
M  V30 11544 H 1127.93 1.94765 3.81791 0
M  V30 11545 H 1132.11 2.90674 4.02271 0
M  V30 11546 H 1127.37 4.27685 4.36916 0
M  V30 11547 H 1131.54 5.23982 4.58711 0
M  V30 11548 H 1129.17 5.92982 4.75685 0
M  V30 11549 N 1130.75 -1.41857 0.686609 0
M  V30 11550 C 1131.69 -2.30795 0.015643 0
M  V30 11551 C 1132.66 -1.46616 -0.780569 0
M  V30 11552 O 1133.85 -1.75423 -0.750424 0
M  V30 11553 C 1130.99 -3.32577 -0.921229 0
M  V30 11554 C 1130.1 -4.3184 -0.117585 0
M  V30 11555 C 1129.24 -5.20693 -1.05128 0
M  V30 11556 C 1128.28 -6.11629 -0.240018 0
M  V30 11557 N 1127.41 -6.92995 -1.12704 0
M  V30 11558 H 1132.25 -2.87615 0.77985 0
M  V30 11559 H 1129.79 -1.41661 0.396298 0
M  V30 11560 H 1131.75 -3.90129 -1.47836 0
M  V30 11561 H 1130.38 -2.77328 -1.65193 0
M  V30 11562 H 1129.43 -3.7631 0.55634 0
M  V30 11563 H 1130.74 -4.96168 0.511753 0
M  V30 11564 H 1129.9 -5.83035 -1.67795 0
M  V30 11565 H 1128.63 -4.5657 -1.71449 0
M  V30 11566 H 1127.64 -5.48345 0.399779 0
M  V30 11567 H 1128.86 -6.77805 0.419266 0
M  V30 11568 H 1126.81 -6.31489 -1.77644 0
M  V30 11569 H 1126.73 -7.53974 -0.553065 0
M  V30 11570 H 1128 -7.59813 -1.7408 0
M  V30 11571 N 1132.22 -0.430739 -1.51599 0
M  V30 11572 C 1133.13 0.390347 -2.3133 0
M  V30 11573 C 1134.15 1.03376 -1.39962 0
M  V30 11574 O 1135.33 1.03057 -1.73035 0
M  V30 11575 C 1132.39 1.48039 -3.13505 0
M  V30 11576 C 1131.45 0.857792 -4.20643 0
M  V30 11577 C 1130.69 1.89589 -4.9889 0
M  V30 11578 O 1130.91 3.11717 -4.77691 0
M  V30 11579 O 1129.84 1.49009 -5.83164 0
M  V30 11580 H 1133.67 -0.260358 -3.02582 0
M  V30 11581 H 1131.25 -0.193428 -1.48143 0
M  V30 11582 H 1133.14 2.11272 -3.64612 0
M  V30 11583 H 1131.81 2.1153 -2.45024 0
M  V30 11584 H 1130.72 0.187592 -3.73629 0
M  V30 11585 H 1132.05 0.266474 -4.91478 0
M  V30 11586 N 1133.7 1.56767 -0.161869 0
M  V30 11587 C 1135.11 1.83265 0.356466 0
M  V30 11588 C 1135.46 1.08127 1.63716 0
M  V30 11589 O 1134.59 0.33127 2.13849 0
M  V30 11590 C 1135.18 3.32437 0.653521 0
M  V30 11591 C 1133.74 3.59465 1.11633 0
M  V30 11592 C 1132.89 2.76909 0.147204 0
M  V30 11593 H 1135.84 1.53926 -0.386308 0
M  V30 11594 H 1135.86 3.49401 1.50662 0
M  V30 11595 H 1135.37 3.87098 -0.278766 0
M  V30 11596 H 1133.48 3.10206 2.06404 0
M  V30 11597 H 1133.59 4.67853 1.03202 0
M  V30 11598 H 1131.95 2.46457 0.642739 0
M  V30 11599 H 1132.74 3.34346 -0.778938 0
M  V30 11600 N 1135.18 -0.111886 1.57202 0
M  V30 11601 C 1136.59 -0.668261 1.74331 0
M  V30 11602 C 1136.94 -1.79959 0.781609 0
M  V30 11603 O 1136.07 -2.16356 -0.043833 0
M  V30 11604 C 1136.66 -1.219 3.1611 0
M  V30 11605 C 1135.22 -1.7216 3.34721 0
M  V30 11606 C 1134.37 -0.624223 2.70183 0
M  V30 11607 H 1137.32 0.114081 1.58289 0
M  V30 11608 H 1137.34 -2.08858 3.18054 0
M  V30 11609 H 1136.85 -0.395381 3.86081 0
M  V30 11610 H 1134.95 -2.56976 2.69803 0
M  V30 11611 H 1135.07 -1.82615 4.42932 0
M  V30 11612 H 1133.43 -1.05958 2.31614 0
M  V30 11613 H 1134.21 0.188537 3.42782 0
M  V30 11614 N 1136.66 -1.52894 -0.382264 0
M  V30 11615 C 1137.88 -1.72453 -1.15216 0
M  V30 11616 C 1138.31 -0.444925 -1.82762 0
M  V30 11617 O 1137.67 0.599825 -1.7109 0
M  V30 11618 C 1137.71 -2.87939 -2.17079 0
M  V30 11619 O 1136.82 -2.55383 -3.23811 0
M  V30 11620 H 1136.16 -0.57324 -0.335099 0
M  V30 11621 H 1138.69 -1.99713 -0.444495 0
M  V30 11622 H 1138.7 -3.13628 -2.60963 0
M  V30 11623 H 1137.37 -3.80765 -1.67305 0
M  V30 11624 H 1135.95 -2.40457 -2.85018 0
M  V30 11625 N 1138.14 0.641106 -1.43971 0
M  V30 11626 C 1139.07 1.76489 -1.52885 0
M  V30 11627 C 1140.05 1.65742 -0.38258 0
M  V30 11628 O 1141.23 1.84653 -0.601397 0
M  V30 11629 C 1138.36 3.14977 -1.4631 0
M  V30 11630 C 1137.32 3.40502 -2.59311 0
M  V30 11631 C 1136.64 4.78916 -2.37789 0
M  V30 11632 C 1137.94 3.34048 -4.01509 0
M  V30 11633 H 1139.64 1.69286 -2.46946 0
M  V30 11634 H 1137.18 0.813015 -1.18853 0
M  V30 11635 H 1139.14 3.9336 -1.51149 0
M  V30 11636 H 1137.86 3.2294 -0.487599 0
M  V30 11637 H 1136.52 2.64495 -2.53846 0
M  V30 11638 H 1136.17 4.8357 -1.38454 0
M  V30 11639 H 1135.87 4.96954 -3.13545 0
M  V30 11640 H 1137.39 5.59541 -2.4443 0
M  V30 11641 H 1138.81 4.0235 -4.08396 0
M  V30 11642 H 1137.2 3.63622 -4.77388 0
M  V30 11643 H 1138.27 2.32022 -4.25786 0
M  V30 11644 N 1139.62 1.30703 0.880598 0
M  V30 11645 C 1141.03 1.17818 1.4483 0
M  V30 11646 C 1141.38 -0.219456 1.94969 0
M  V30 11647 O 1140.5 -1.11646 1.85375 0
M  V30 11648 C 1141.1 2.13275 2.63247 0
M  V30 11649 C 1139.66 2.04356 3.16094 0
M  V30 11650 C 1138.8 2.03108 1.88792 0
M  V30 11651 H 1141.75 1.42909 0.690125 0
M  V30 11652 H 1141.78 1.71615 3.39601 0
M  V30 11653 H 1141.29 3.14988 2.26725 0
M  V30 11654 H 1139.39 1.058 3.57263 0
M  V30 11655 H 1139.5 2.92953 3.79098 0
M  V30 11656 H 1137.87 1.47971 2.07308 0
M  V30 11657 H 1138.65 3.06558 1.54521 0
M  V30 11658 N 1141.09 -1.09351 1.1349 0
M  V30 11659 C 1142.34 -1.81185 0.89535 0
M  V30 11660 C 1142.66 -1.86173 -0.580048 0
M  V30 11661 O 1141.93 -1.34784 -1.42162 0
M  V30 11662 H 1140.51 -0.671011 0.328257 0
M  V30 11663 H 1143.17 -1.32255 1.43159 0
M  V30 11664 H 1142.27 -2.84339 1.28676 0
M  V30 11665 N 1142.57 -0.928524 -1.27343 0
M  V30 11666 C 1143.52 -0.426873 -2.26818 0
M  V30 11667 C 1144.49 0.506663 -1.58184 0
M  V30 11668 O 1145.67 0.425641 -1.85992 0
M  V30 11669 C 1142.81 0.313523 -3.43673 0
M  V30 11670 C 1141.93 -0.65422 -4.27018 0
M  V30 11671 C 1141.06 0.106102 -5.31094 0
M  V30 11672 C 1140.1 -0.854293 -6.06109 0
M  V30 11673 N 1139.24 -0.126545 -7.01986 0
M  V30 11674 H 1144.08 -1.28014 -2.69103 0
M  V30 11675 H 1141.61 -0.642515 -1.32326 0
M  V30 11676 H 1143.57 0.75912 -4.10236 0
M  V30 11677 H 1142.2 1.13102 -3.02337 0
M  V30 11678 H 1141.25 -1.21834 -3.60362 0
M  V30 11679 H 1142.57 -1.38817 -4.79094 0
M  V30 11680 H 1141.72 0.611577 -6.0361 0
M  V30 11681 H 1140.46 0.873009 -4.79823 0
M  V30 11682 H 1139.46 -1.37101 -5.32432 0
M  V30 11683 H 1140.69 -1.621 -6.5947 0
M  V30 11684 H 1138.64 0.622102 -6.53044 0
M  V30 11685 H 1138.55 -0.800046 -7.51755 0
M  V30 11686 H 1139.82 0.358251 -7.78676 0
M  V30 11687 N 1144.05 1.41491 -0.694123 0
M  V30 11688 C 1144.96 2.34583 -0.0283414 0
M  V30 11689 C 1145.98 1.5615 0.767662 0
M  V30 11690 O 1147.15 1.88637 0.705556 0
M  V30 11691 C 1144.22 3.34876 0.897726 0
M  V30 11692 C 1143.28 4.29197 0.0940905 0
M  V30 11693 C 1142.51 5.24699 0.976051 0
M  V30 11694 O 1142.73 5.25613 2.21556 0
M  V30 11695 O 1141.67 6.00387 0.426503 0
M  V30 11696 H 1145.49 2.93092 -0.795656 0
M  V30 11697 H 1143.08 1.4232 -0.45445 0
M  V30 11698 H 1144.96 3.96438 1.4288 0
M  V30 11699 H 1143.64 2.78812 1.64456 0
M  V30 11700 H 1142.54 3.70988 -0.481552 0
M  V30 11701 H 1143.88 4.88355 -0.614045 0
M  V30 11702 N 1145.53 0.438773 1.51369 0
M  V30 11703 C 1146.47 -0.37195 2.27783 0
M  V30 11704 C 1147.44 -1.01558 1.31435 0
M  V30 11705 O 1148.63 -1.03421 1.60339 0
M  V30 11706 C 1145.77 -1.46636 3.12397 0
M  V30 11707 C 1144.88 -0.840727 4.2374 0
M  V30 11708 C 1144.02 -1.91031 4.95662 0
M  V30 11709 C 1143.06 -1.26318 5.98924 0
M  V30 11710 N 1142.19 -2.27419 6.64248 0
M  V30 11711 H 1147.03 0.286048 2.96624 0
M  V30 11712 H 1144.57 0.152909 1.46303 0
M  V30 11713 H 1146.53 -2.11219 3.59781 0
M  V30 11714 H 1145.16 -2.09397 2.45668 0
M  V30 11715 H 1144.21 -0.0831588 3.80309 0
M  V30 11716 H 1145.52 -0.328285 4.97719 0
M  V30 11717 H 1144.68 -2.63272 5.46601 0
M  V30 11718 H 1143.42 -2.45649 4.21317 0
M  V30 11719 H 1142.42 -0.526246 5.47276 0
M  V30 11720 H 1143.65 -0.724324 6.75226 0
M  V30 11721 H 1141.59 -2.81114 5.92715 0
M  V30 11722 H 1141.51 -1.81071 7.33996 0
M  V30 11723 H 1142.78 -2.99139 7.19817 0
M  V30 11724 N 1147.01 -1.56678 0.170181 0
M  V30 11725 C 1148.42 -1.83452 -0.346742 0
M  V30 11726 C 1148.77 -1.08993 -1.63141 0
M  V30 11727 O 1147.89 -0.342607 -2.13671 0
M  V30 11728 C 1148.49 -3.32779 -0.635882 0
M  V30 11729 C 1147.05 -3.60052 -1.09725 0
M  V30 11730 C 1146.19 -2.76983 -0.132516 0
M  V30 11731 H 1149.14 -1.53719 0.394465 0
M  V30 11732 H 1149.17 -3.50195 -1.48806 0
M  V30 11733 H 1148.68 -3.86944 0.299291 0
M  V30 11734 H 1146.78 -3.11297 -2.04756 0
M  V30 11735 H 1146.89 -4.68393 -1.00719 0
M  V30 11736 H 1145.26 -2.46794 -0.62966 0
M  V30 11737 H 1146.04 -3.33929 0.796658 0
M  V30 11738 N 1148.48 0.103547 -1.57259 0
M  V30 11739 C 1149.71 0.82624 -1.90232 0
M  V30 11740 C 1150.13 1.71902 -0.763641 0
M  V30 11741 O 1149.49 1.79043 0.285181 0
M  V30 11742 C 1149.54 1.62265 -3.22029 0
M  V30 11743 O 1148.64 2.73091 -3.09023 0
M  V30 11744 H 1147.98 0.227528 -0.6238 0
M  V30 11745 H 1150.51 0.081307 -2.04438 0
M  V30 11746 H 1150.52 2.00865 -3.5513 0
M  V30 11747 H 1149.2 0.967383 -4.04493 0
M  V30 11748 H 1147.78 2.3758 -2.8742 0
M  V30 11749 N 1149.96 1.53094 0.37415 0
M  V30 11750 C 1151.37 1.60641 0.951381 0
M  V30 11751 C 1151.72 0.468474 1.90525 0
M  V30 11752 O 1150.85 -0.406347 2.12551 0
M  V30 11753 C 1151.44 2.91166 1.73228 0
M  V30 11754 C 1150 3.01077 2.25898 0
M  V30 11755 C 1149.15 2.55873 1.06885 0
M  V30 11756 H 1152.1 1.57959 0.153214 0
M  V30 11757 H 1152.12 2.78487 2.59278 0
M  V30 11758 H 1151.63 3.73968 1.03778 0
M  V30 11759 H 1149.73 2.22844 2.98615 0
M  V30 11760 H 1149.85 4.05998 2.54367 0
M  V30 11761 H 1148.21 2.10544 1.43329 0
M  V30 11762 H 1148.99 3.41084 0.38947 0
M  V30 11763 N 1151.44 -0.633461 1.44309 0
M  V30 11764 C 1152.39 -1.74554 1.50995 0
M  V30 11765 C 1153.36 -1.62199 0.357873 0
M  V30 11766 O 1154.54 -1.82156 0.567787 0
M  V30 11767 C 1151.68 -3.12792 1.45791 0
M  V30 11768 C 1150.79 -3.3614 2.71356 0
M  V30 11769 C 1149.93 -4.64337 2.58002 0
M  V30 11770 C 1148.97 -4.80855 3.78741 0
M  V30 11771 N 1148.11 -6.00327 3.64077 0
M  V30 11772 H 1152.95 -1.68174 2.46011 0
M  V30 11773 H 1150.48 -0.820407 1.22097 0
M  V30 11774 H 1152.44 -3.92735 1.40765 0
M  V30 11775 H 1151.07 -3.18193 0.543445 0
M  V30 11776 H 1150.12 -2.50154 2.86579 0
M  V30 11777 H 1151.43 -3.44226 3.60985 0
M  V30 11778 H 1150.59 -5.52437 2.50795 0
M  V30 11779 H 1149.33 -4.58605 1.65929 0
M  V30 11780 H 1148.33 -3.91185 3.86334 0
M  V30 11781 H 1149.56 -4.88403 4.71847 0
M  V30 11782 H 1147.5 -5.9569 2.74754 0
M  V30 11783 H 1147.42 -6.09459 4.47321 0
M  V30 11784 H 1148.69 -6.90995 3.60758 0
M  V30 11785 N 1152.92 -1.31168 -0.873655 0
M  V30 11786 C 1154.15 -1.23595 -1.65927 0
M  V30 11787 C 1154.56 0.199349 -1.87745 0
M  V30 11788 O 1153.92 1.13013 -1.43298 0
M  V30 11789 C 1153.97 -1.97268 -3.02932 0
M  V30 11790 O 1153.69 -3.35196 -2.82091 0
M  V30 11791 C 1155.19 -1.9649 -3.97374 0
M  V30 11792 H 1152.41 -0.427228 -0.517414 0
M  V30 11793 H 1154.96 -1.72983 -1.09074 0
M  V30 11794 H 1153.11 -1.51651 -3.56484 0
M  V30 11795 H 1153.52 -3.7266 -3.69087 0
M  V30 11796 H 1155 -2.52557 -4.90835 0
M  V30 11797 H 1155.48 -0.946525 -4.28879 0
M  V30 11798 H 1156.08 -2.4197 -3.49758 0
M  V30 11799 N 1154.4 1.08748 -1.14068 0
M  V30 11800 C 1155.64 1.81333 -0.908081 0
M  V30 11801 C 1155.98 1.85826 0.564112 0
M  V30 11802 O 1155.25 1.33157 1.41773 0
M  V30 11803 C 1155.53 3.27127 -1.50531 0
M  V30 11804 C 1155.39 3.30865 -3.04711 0
M  V30 11805 C 1156.71 4.24006 -1.17928 0
M  V30 11806 H 1153.82 0.658326 -0.331325 0
M  V30 11807 H 1156.47 1.27345 -1.41008 0
M  V30 11808 H 1154.62 3.73233 -1.07839 0
M  V30 11809 H 1156.29 2.93109 -3.56209 0
M  V30 11810 H 1154.53 2.70241 -3.39341 0
M  V30 11811 H 1155.2 4.33603 -3.41603 0
M  V30 11812 H 1157.68 3.86221 -1.54831 0
M  V30 11813 H 1156.55 5.2434 -1.62353 0
M  V30 11814 H 1156.82 4.42 -0.0940349 0
M  V30 11815 N 1155.87 0.935264 1.26849 0
M  V30 11816 C 1157.11 0.587087 1.95787 0
M  V30 11817 C 1157.48 -0.856974 1.71814 0
M  V30 11818 O 1158.68 -1.3138 2.34505 0
M  V30 11819 C 1156.95 0.91303 3.45541 0
M  V30 11820 S 1158.51 0.674506 4.33585 0
M  V30 11821 H 1155.33 0.216442 0.677255 0
M  V30 11822 H 1157.93 1.20532 1.53923 0
M  V30 11823 H 1156.63 1.96154 3.60488 0
M  V30 11824 H 1156.16 0.28429 3.92371 0
M  V30 11825 H 1158.18 -0.464121 4.94025 0
M  V30 11826 N 1157.35 -1.41121 0.701616 0
M  V30 11827 C 1158.6 -2.00733 0.234682 0
M  V30 11828 C 1158.92 -1.55869 -1.17174 0
M  V30 11829 O 1158.19 -0.791965 -1.79178 0
M  V30 11830 H 1156.77 -0.742288 0.0837745 0
M  V30 11831 H 1159.43 -1.7266 0.904127 0
M  V30 11832 H 1158.53 -3.11041 0.256831 0
M  V30 11833 N 1158.83 -0.446794 -1.51134 0
M  V30 11834 C 1160.06 0.117242 -2.07068 0
M  V30 11835 C 1160.48 1.34877 -1.3111 0
M  V30 11836 O 1159.84 1.77856 -0.35172 0
M  V30 11837 C 1159.89 0.408616 -3.58277 0
M  V30 11838 O 1158.99 1.49345 -3.84408 0
M  V30 11839 H 1158.33 -0.00228458 -0.663996 0
M  V30 11840 H 1160.86 -0.63085 -1.94632 0
M  V30 11841 H 1160.87 0.656298 -4.02687 0
M  V30 11842 H 1159.55 -0.491444 -4.12986 0
M  V30 11843 H 1158.12 1.23499 -3.51856 0
M  V30 11844 N 1160.31 1.56586 -0.178487 0
M  V30 11845 C 1161.72 1.83633 0.337009 0
M  V30 11846 C 1162.07 1.09857 1.6256 0
M  V30 11847 O 1161.2 0.353933 2.13486 0
M  V30 11848 C 1161.79 3.33112 0.618225 0
M  V30 11849 C 1160.35 3.60629 1.07814 0
M  V30 11850 C 1159.5 2.7705 0.117825 0
M  V30 11851 H 1162.45 1.53508 -0.402612 0
M  V30 11852 H 1162.47 3.5098 1.46947 0
M  V30 11853 H 1161.98 3.8678 -0.319808 0
M  V30 11854 H 1160.08 3.12378 2.03103 0
M  V30 11855 H 1160.19 4.68921 0.982339 0
M  V30 11856 H 1158.56 2.47125 0.616563 0
M  V30 11857 H 1159.34 3.33501 -0.814356 0
M  V30 11858 N 1161.79 -0.095206 1.57312 0
M  V30 11859 C 1162.72 -1.11627 2.05089 0
M  V30 11860 C 1163.7 -1.41782 0.939787 0
M  V30 11861 O 1164.88 -1.51813 1.21105 0
M  V30 11862 C 1162.01 -2.43618 2.47523 0
M  V30 11863 C 1160.97 -2.27872 3.62296 0
M  V30 11864 C 1160.29 -3.65038 3.90706 0
M  V30 11865 C 1161.59 -1.71936 4.93189 0
M  V30 11866 H 1163.29 -0.718795 2.90644 0
M  V30 11867 H 1160.83 -0.344315 1.39823 0
M  V30 11868 H 1162.79 -3.1532 2.79556 0
M  V30 11869 H 1161.51 -2.85301 1.58968 0
M  V30 11870 H 1160.17 -1.58615 3.3051 0
M  V30 11871 H 1159.82 -4.04249 2.99319 0
M  V30 11872 H 1159.52 -3.55349 4.67976 0
M  V30 11873 H 1161.04 -4.38208 4.25213 0
M  V30 11874 H 1162.45 -2.33479 5.23603 0
M  V30 11875 H 1160.85 -1.73006 5.74621 0
M  V30 11876 H 1161.92 -0.678789 4.80125 0
M  V30 11877 N 1163.26 -1.53291 -0.366026 0
M  V30 11878 C 1164.23 -1.79025 -1.43117 0
M  V30 11879 C 1165.23 -0.660676 -1.46601 0
M  V30 11880 O 1166.42 -0.928875 -1.47369 0
M  V30 11881 C 1163.55 -1.91192 -2.82238 0
M  V30 11882 H 1164.74 -2.74154 -1.21572 0
M  V30 11883 H 1162.3 -1.44361 -0.599132 0
M  V30 11884 H 1163.03 -0.98129 -3.09097 0
M  V30 11885 H 1162.82 -2.7335 -2.81109 0
M  V30 11886 H 1164.31 -2.12696 -3.59375 0
M  V30 11887 N 1164.74 0.6258 -1.44643 0
M  V30 11888 C 1165.71 1.71941 -1.51555 0
M  V30 11889 C 1166.71 1.55822 -0.396988 0
M  V30 11890 O 1167.9 1.61221 -0.65981 0
M  V30 11891 C 1165.03 3.11068 -1.39461 0
M  V30 11892 H 1166.22 1.67185 -2.48976 0
M  V30 11893 H 1163.77 0.839934 -1.31814 0
M  V30 11894 H 1164.51 3.21416 -0.431534 0
M  V30 11895 H 1164.29 3.24175 -2.20574 0
M  V30 11896 H 1165.78 3.90762 -1.4729 0
M  V30 11897 N 1166.22 1.31629 0.866686 0
M  V30 11898 C 1167.15 1.15377 1.98042 0
M  V30 11899 C 1168.17 0.0919633 1.6254 0
M  V30 11900 O 1169.35 0.339775 1.75236 0
M  V30 11901 C 1166.45 0.741295 3.30693 0
M  V30 11902 C 1165.63 1.88882 3.94516 0
M  V30 11903 C 1164.69 1.46186 5.05486 0
M  V30 11904 O 1163.71 2.17202 5.26129 0
M  V30 11905 N 1164.91 0.351096 5.79437 0
M  V30 11906 H 1167.68 2.11309 2.12529 0
M  V30 11907 H 1165.24 1.24007 1.04085 0
M  V30 11908 H 1167.23 0.438313 4.02319 0
M  V30 11909 H 1165.8 -0.12651 3.12344 0
M  V30 11910 H 1165.02 2.35894 3.15828 0
M  V30 11911 H 1166.31 2.65734 4.33892 0
M  V30 11912 H 1165.71 -0.240245 5.6519 0
M  V30 11913 H 1164.27 0.107663 6.51711 0
M  V30 11914 N 1167.7 -1.08142 1.14644 0
M  V30 11915 C 1169.11 -1.62061 0.926986 0
M  V30 11916 C 1169.46 -1.88805 -0.533578 0
M  V30 11917 O 1168.59 -1.64753 -1.40305 0
M  V30 11918 C 1169.18 -2.94425 1.67629 0
M  V30 11919 C 1167.74 -3.45118 1.50235 0
M  V30 11920 C 1166.89 -2.19307 1.69705 0
M  V30 11921 H 1169.84 -0.913326 1.29785 0
M  V30 11922 H 1169.86 -3.62987 1.14107 0
M  V30 11923 H 1169.37 -2.74928 2.73927 0
M  V30 11924 H 1167.47 -3.69713 0.462967 0
M  V30 11925 H 1167.59 -4.2169 2.27408 0
M  V30 11926 H 1165.95 -2.28611 1.12291 0
M  V30 11927 H 1166.73 -2.02315 2.77351 0
M  V30 11928 N 1169.18 -0.941978 -1.26351 0
M  V30 11929 C 1170.4 -0.606231 -1.98342 0
M  V30 11930 C 1170.83 0.812014 -1.6967 0
M  V30 11931 O 1170.19 1.54712 -0.9452 0
M  V30 11932 C 1170.23 -0.855864 -3.50296 0
M  V30 11933 O 1169.34 0.0716251 -4.12338 0
M  V30 11934 H 1168.68 -0.231815 -0.62222 0
M  V30 11935 H 1171.21 -1.26513 -1.60797 0
M  V30 11936 H 1171.22 -0.777079 -4.00531 0
M  V30 11937 H 1169.89 -1.8896 -3.70496 0
M  V30 11938 H 1168.47 -0.0582866 -3.72854 0
M  V30 11939 N 1170.66 1.40747 -0.709091 0
M  V30 11940 C 1172.07 1.83955 -0.318968 0
M  V30 11941 C 1172.42 1.59304 1.14527 0
M  V30 11942 O 1171.54 1.07052 1.88066 0
M  V30 11943 C 1172.14 3.33934 -0.572147 0
M  V30 11944 C 1170.7 3.75661 -0.235802 0
M  V30 11945 C 1169.84 2.64024 -0.847743 0
M  V30 11946 H 1172.79 1.30107 -0.908734 0
M  V30 11947 H 1172.82 3.80143 0.164752 0
M  V30 11948 H 1172.33 3.51844 -1.63791 0
M  V30 11949 H 1170.43 3.63348 0.825164 0
M  V30 11950 H 1170.54 4.73955 -0.700263 0
M  V30 11951 H 1168.91 2.53197 -0.276283 0
M  V30 11952 H 1169.69 2.84748 -1.91765 0
M  V30 11953 N 1172.13 0.454803 1.50895 0
M  V30 11954 C 1173.36 -0.106259 2.07128 0
M  V30 11955 C 1173.78 -1.3418 1.31823 0
M  V30 11956 O 1173.14 -1.77667 0.361147 0
M  V30 11957 C 1173.19 -0.389609 3.58489 0
M  V30 11958 O 1172.29 -1.47305 3.85195 0
M  V30 11959 H 1171.63 0.00580588 0.663975 0
M  V30 11960 H 1174.16 0.641163 1.94294 0
M  V30 11961 H 1174.17 -0.634934 4.03029 0
M  V30 11962 H 1172.85 0.513338 4.1272 0
M  V30 11963 H 1171.43 -1.21631 3.52506 0
M  V30 11964 N 1173.61 -1.56489 0.186789 0
M  V30 11965 C 1174.57 -2.17478 -0.723596 0
M  V30 11966 C 1175.57 -1.12698 -1.14699 0
M  V30 11967 O 1176.76 -1.38128 -1.06143 0
M  V30 11968 C 1173.9 -2.77015 -1.98685 0
M  V30 11969 H 1175.09 -2.99282 -0.192403 0
M  V30 11970 H 1172.64 -1.56174 -0.0628153 0
M  V30 11971 H 1173.38 -1.98987 -2.56076 0
M  V30 11972 H 1173.16 -3.53711 -1.69207 0
M  V30 11973 H 1174.65 -3.23872 -2.63622 0
M  V30 11974 N 1175.09 0.086862 -1.5736 0
M  V30 11975 C 1176 1.12297 -2.05977 0
M  V30 11976 C 1177.02 1.43347 -0.986284 0
M  V30 11977 O 1178.19 1.53825 -1.3 0
M  V30 11978 C 1175.26 2.42131 -2.4814 0
M  V30 11979 C 1174.32 2.18189 -3.69719 0
M  V30 11980 C 1173.55 3.41833 -4.09861 0
M  V30 11981 O 1173.77 4.50383 -3.50016 0
M  V30 11982 O 1172.71 3.30934 -5.02759 0
M  V30 11983 H 1176.53 0.740012 -2.94546 0
M  V30 11984 H 1174.12 0.29995 -1.46358 0
M  V30 11985 H 1176 3.18568 -2.75848 0
M  V30 11986 H 1174.68 2.79837 -1.62705 0
M  V30 11987 H 1173.58 1.39506 -3.47115 0
M  V30 11988 H 1174.92 1.85372 -4.55959 0
M  V30 11989 N 1176.57 1.53483 0.357892 0
M  V30 11990 C 1177.5 1.83444 1.44466 0
M  V30 11991 C 1178.48 0.688486 1.55544 0
M  V30 11992 O 1179.66 0.93906 1.69986 0
M  V30 11993 C 1176.79 2.03122 2.81707 0
M  V30 11994 C 1175.75 3.1891 2.85448 0
M  V30 11995 C 1175.07 3.23895 4.25436 0
M  V30 11996 C 1176.37 4.57334 2.52275 0
M  V30 11997 H 1178.07 2.74456 1.19642 0
M  V30 11998 H 1175.61 1.3206 0.574112 0
M  V30 11999 H 1177.57 2.22666 3.57768 0
M  V30 12000 H 1176.29 1.08827 3.07935 0
M  V30 12001 H 1174.95 2.99199 2.11838 0
M  V30 12002 H 1174.6 2.27223 4.48753 0
M  V30 12003 H 1174.3 4.01694 4.28854 0
M  V30 12004 H 1175.82 3.45632 5.0336 0
M  V30 12005 H 1177.24 4.76988 3.1805 0
M  V30 12006 H 1175.63 5.37431 2.66998 0
M  V30 12007 H 1176.7 4.61921 1.47501 0
M  V30 12008 N 1178.05 -0.61812 1.44973 0
M  V30 12009 C 1179.46 -1.19994 1.43033 0
M  V30 12010 C 1179.81 -1.95607 0.152422 0
M  V30 12011 O 1178.93 -2.03114 -0.746571 0
M  V30 12012 C 1179.53 -2.18269 2.59122 0
M  V30 12013 C 1178.09 -2.7185 2.60336 0
M  V30 12014 C 1177.23 -1.4707 2.35086 0
M  V30 12015 H 1180.18 -0.408034 1.53365 0
M  V30 12016 H 1180.21 -3.01113 2.32619 0
M  V30 12017 H 1179.72 -1.63208 3.52115 0
M  V30 12018 H 1177.82 -3.30878 1.7132 0
M  V30 12019 H 1177.93 -3.17001 3.59231 0
M  V30 12020 H 1176.3 -1.75658 1.84435 0
M  V30 12021 H 1177.08 -0.938928 3.30211 0
M  V30 12022 N 1179.52 -1.32087 -0.859693 0
M  V30 12023 C 1180.46 -1.16426 -1.97428 0
M  V30 12024 C 1181.47 -0.100582 -1.62489 0
M  V30 12025 O 1182.66 -0.349063 -1.75054 0
M  V30 12026 C 1179.76 -0.758822 -3.30295 0
M  V30 12027 C 1178.93 -1.90971 -3.93508 0
M  V30 12028 C 1177.99 -1.48865 -5.04704 0
M  V30 12029 O 1177.02 -2.1999 -5.2497 0
M  V30 12030 N 1178.22 -0.38182 -5.79243 0
M  V30 12031 H 1180.98 -2.12433 -2.11406 0
M  V30 12032 H 1178.54 -1.24558 -1.03426 0
M  V30 12033 H 1180.54 -0.459643 -4.02081 0
M  V30 12034 H 1179.11 0.109944 -3.12407 0
M  V30 12035 H 1178.33 -2.37566 -3.14573 0
M  V30 12036 H 1179.61 -2.68032 -4.32477 0
M  V30 12037 H 1179.01 0.210268 -5.65309 0
M  V30 12038 H 1177.57 -0.142224 -6.51645 0
M  V30 12039 N 1181 1.07532 -1.15215 0
M  V30 12040 C 1181.96 2.1286 -0.84989 0
M  V30 12041 C 1182.96 1.60103 0.149524 0
M  V30 12042 O 1184.15 1.74017 -0.0798918 0
M  V30 12043 C 1181.29 3.3984 -0.268617 0
M  V30 12044 H 1182.48 2.41106 -1.78347 0
M  V30 12045 H 1180.03 1.23392 -0.959386 0
M  V30 12046 H 1180.77 3.17235 0.67325 0
M  V30 12047 H 1180.55 3.79433 -0.988592 0
M  V30 12048 H 1182.04 4.17533 -0.0746554 0
M  V30 12049 N 1182.48 0.948665 1.2585 0
M  V30 12050 C 1183.44 0.468673 2.24357 0
M  V30 12051 C 1184.44 -0.424355 1.551 0
M  V30 12052 O 1185.63 -0.222481 1.72773 0
M  V30 12053 C 1182.77 -0.32359 3.39361 0
M  V30 12054 H 1183.96 1.33928 2.68334 0
M  V30 12055 H 1181.51 0.731357 1.38133 0
M  V30 12056 H 1182.25 -1.21212 3.00796 0
M  V30 12057 H 1182.03 0.316998 3.90816 0
M  V30 12058 H 1183.52 -0.649087 4.12525 0
M  V30 12059 N 1183.96 -1.40369 0.716545 0
M  V30 12060 C 1185.37 -1.83783 0.328719 0
M  V30 12061 C 1185.72 -1.5991 -1.13681 0
M  V30 12062 O 1184.85 -1.08048 -1.87496 0
M  V30 12063 C 1185.44 -3.33626 0.589848 0
M  V30 12064 C 1184 -3.7553 0.25572 0
M  V30 12065 C 1183.15 -2.63571 0.861733 0
M  V30 12066 H 1186.1 -1.29623 0.915621 0
M  V30 12067 H 1186.12 -3.80225 -0.14459 0
M  V30 12068 H 1185.63 -3.5097 1.65655 0
M  V30 12069 H 1183.73 -3.63781 -0.805883 0
M  V30 12070 H 1183.84 -4.73577 0.725388 0
M  V30 12071 H 1182.21 -2.53047 0.289706 0
M  V30 12072 H 1182.99 -2.83727 1.93272 0
M  V30 12073 N 1185.44 -0.462799 -1.50652 0
M  V30 12074 C 1186.85 -0.00568907 -1.86699 0
M  V30 12075 C 1187.2 1.39641 -1.37822 0
M  V30 12076 O 1186.32 2.03366 -0.739679 0
M  V30 12077 C 1186.92 -0.00354783 -3.388 0
M  V30 12078 C 1185.48 0.398061 -3.74289 0
M  V30 12079 C 1184.62 -0.392574 -2.74507 0
M  V30 12080 H 1187.58 -0.677469 -1.43513 0
M  V30 12081 H 1187.6 0.800456 -3.71985 0
M  V30 12082 H 1187.11 -1.02414 -3.74344 0
M  V30 12083 H 1185.21 1.42331 -3.44344 0
M  V30 12084 H 1185.32 0.105168 -4.78985 0
M  V30 12085 H 1183.69 0.152608 -2.54242 0
M  V30 12086 H 1184.47 -1.41252 -3.12894 0
M  V30 12087 N 1186.91 1.56388 -0.195085 0
M  V30 12088 C 1188.33 1.8398 0.317513 0
M  V30 12089 C 1188.68 1.11575 1.61386 0
M  V30 12090 O 1187.8 0.376557 2.13099 0
M  V30 12091 C 1188.4 3.33749 0.582859 0
M  V30 12092 C 1186.96 3.61752 1.03983 0
M  V30 12093 C 1186.1 2.77159 0.088434 0
M  V30 12094 H 1189.05 1.53072 -0.418871 0
M  V30 12095 H 1189.07 3.52519 1.43216 0
M  V30 12096 H 1188.59 3.86419 -0.360813 0
M  V30 12097 H 1186.69 3.14515 1.99778 0
M  V30 12098 H 1186.8 4.69937 0.932549 0
M  V30 12099 H 1185.16 2.47765 0.590317 0
M  V30 12100 H 1185.95 3.32619 -0.849682 0
M  V30 12101 N 1188.39 -0.0785156 1.57404 0
M  V30 12102 C 1189.8 -0.631132 1.75709 0
M  V30 12103 C 1190.15 -1.78261 0.819605 0
M  V30 12104 O 1189.28 -2.164 0.00206912 0
M  V30 12105 C 1189.87 -1.15168 3.18625 0
M  V30 12106 C 1188.43 -1.65021 3.38297 0
M  V30 12107 C 1187.58 -0.566773 2.71446 0
M  V30 12108 H 1190.53 0.147631 1.58012 0
M  V30 12109 H 1190.55 -2.02065 3.22413 0
M  V30 12110 H 1190.06 -0.313399 3.86833 0
M  V30 12111 H 1188.17 -2.51196 2.75194 0
M  V30 12112 H 1188.28 -1.73179 4.46706 0
M  V30 12113 H 1186.64 -1.01021 2.33809 0
M  V30 12114 H 1187.43 0.261204 3.42305 0
M  V30 12115 N 1189.87 -1.5367 -0.349747 0
M  V30 12116 C 1191.12 -1.70281 -1.08853 0
M  V30 12117 C 1191.44 -0.465438 -1.89364 0
M  V30 12118 O 1190.71 0.520615 -1.88856 0
M  V30 12119 H 1189.29 -0.627775 -0.404854 0
M  V30 12120 H 1191.95 -1.90906 -0.392523 0
M  V30 12121 H 1191.05 -2.57096 -1.76941 0
M  V30 12122 N 1191.35 0.610423 -1.45298 0
M  V30 12123 C 1192.57 1.40112 -1.52917 0
M  V30 12124 C 1193 1.87404 -0.161696 0
M  V30 12125 O 1192.36 1.59973 0.853135 0
M  V30 12126 C 1192.4 2.58359 -2.51561 0
M  V30 12127 O 1191.51 3.58895 -2.03146 0
M  V30 12128 H 1190.85 0.41841 -0.515586 0
M  V30 12129 H 1193.38 0.743159 -1.90626 0
M  V30 12130 H 1193.39 3.0564 -2.70275 0
M  V30 12131 H 1192.06 2.23286 -3.50879 0
M  V30 12132 H 1190.64 3.18282 -1.94296 0
M  V30 12133 N 1192.83 1.32541 0.852676 0
M  V30 12134 C 1194.24 1.20863 1.42299 0
M  V30 12135 C 1194.59 -0.178051 1.9539 0
M  V30 12136 O 1193.71 -1.07689 1.87702 0
M  V30 12137 C 1194.31 2.18811 2.58664 0
M  V30 12138 C 1192.87 2.11015 3.11689 0
M  V30 12139 C 1192.01 2.07067 1.84441 0
M  V30 12140 H 1194.97 1.44341 0.659657 0
M  V30 12141 H 1194.99 1.78779 3.35884 0
M  V30 12142 H 1194.5 3.19726 2.19993 0
M  V30 12143 H 1192.6 1.13354 3.54939 0
M  V30 12144 H 1192.71 3.00929 3.72799 0
M  V30 12145 H 1191.08 1.52335 2.04123 0
M  V30 12146 H 1191.86 3.09767 1.47984 0
M  V30 12147 N 1194.3 -1.0692 1.15784 0
M  V30 12148 C 1195.53 -1.83849 0.959903 0
M  V30 12149 C 1195.95 -1.8169 -0.486873 0
M  V30 12150 O 1195.31 -1.21305 -1.34739 0
M  V30 12151 C 1195.36 -3.28642 1.48414 0
M  V30 12152 O 1194.46 -4.0665 0.686249 0
M  V30 12153 H 1193.81 -0.569115 0.342059 0
M  V30 12154 H 1196.34 -1.34851 1.53871 0
M  V30 12155 H 1196.35 -3.7947 1.49888 0
M  V30 12156 H 1195.02 -3.29529 2.53739 0
M  V30 12157 H 1193.6 -3.65453 0.741501 0
M  V30 12158 N 1195.78 -0.955326 -1.25345 0
M  V30 12159 C 1196.71 -0.494145 -2.28211 0
M  V30 12160 C 1197.69 0.459875 -1.63766 0
M  V30 12161 O 1198.88 0.358679 -1.90859 0
M  V30 12162 C 1196.01 0.228228 -3.46549 0
M  V30 12163 C 1194.96 -0.640601 -4.23179 0
M  V30 12164 C 1194.29 0.212553 -5.34277 0
M  V30 12165 C 1195.59 -1.91906 -4.85767 0
M  V30 12166 H 1197.28 -1.35391 -2.67039 0
M  V30 12167 H 1194.83 -0.652462 -1.2837 0
M  V30 12168 H 1196.78 0.561995 -4.17636 0
M  V30 12169 H 1195.51 1.12224 -3.06714 0
M  V30 12170 H 1194.16 -0.957462 -3.53876 0
M  V30 12171 H 1193.81 1.10634 -4.90682 0
M  V30 12172 H 1193.51 -0.365473 -5.86462 0
M  V30 12173 H 1195.04 0.541271 -6.08196 0
M  V30 12174 H 1196.45 -1.65165 -5.48993 0
M  V30 12175 H 1194.85 -2.44279 -5.48131 0
M  V30 12176 H 1195.92 -2.62173 -4.07914 0
M  V30 12177 N 1197.26 1.39987 -0.723979 0
M  V30 12178 C 1198.67 1.83606 -0.338461 0
M  V30 12179 C 1199.02 1.6051 1.12831 0
M  V30 12180 O 1198.15 1.09041 1.8692 0
M  V30 12181 C 1198.74 3.33308 -0.607533 0
M  V30 12182 C 1197.3 3.75389 -0.275632 0
M  V30 12183 C 1196.45 2.6311 -0.875699 0
M  V30 12184 H 1199.4 1.29135 -0.922483 0
M  V30 12185 H 1199.42 3.80297 0.124424 0
M  V30 12186 H 1198.93 3.50087 -1.67514 0
M  V30 12187 H 1197.03 3.64203 0.786579 0
M  V30 12188 H 1197.15 4.73185 -0.750492 0
M  V30 12189 H 1195.51 2.5289 -0.303122 0
M  V30 12190 H 1196.29 2.82698 -1.94774 0
M  V30 12191 N 1198.74 0.470782 1.50404 0
M  V30 12192 C 1199.99 -0.0841494 2.01925 0
M  V30 12193 C 1200.31 -1.40244 1.35487 0
M  V30 12194 O 1199.58 -1.89409 0.500111 0
M  V30 12195 H 1198.16 -0.0340884 0.746222 0
M  V30 12196 H 1200.82 0.621133 1.84738 0
M  V30 12197 H 1199.92 -0.235877 3.11207 0
M  V30 12198 N 1200.22 -1.56282 0.203376 0
M  V30 12199 C 1201.63 -1.58871 -0.152335 0
M  V30 12200 C 1201.83 -1.21978 -1.60386 0
M  V30 12201 O 1200.89 -0.946422 -2.34092 0
M  V30 12202 C 1202.2 -3.00287 0.157515 0
M  V30 12203 C 1203.75 -3.12846 0.098287 0
M  V30 12204 C 1204.23 -4.56408 0.38156 0
M  V30 12205 N 1205.72 -4.6202 0.330475 0
M  V30 12206 C 1206.45 -5.71006 0.523397 0
M  V30 12207 N 1205.95 -6.88428 0.777115 0
M  V30 12208 N 1207.74 -5.60238 0.457082 0
M  V30 12209 H 1199.89 -1.78543 1.15048 0
M  V30 12210 H 1202.15 -0.829019 0.459816 0
M  V30 12211 H 1201.86 -3.3187 1.16427 0
M  V30 12212 H 1201.73 -3.73372 -0.536041 0
M  V30 12213 H 1204.12 -2.8107 -0.899085 0
M  V30 12214 H 1204.2 -2.42129 0.825045 0
M  V30 12215 H 1203.85 -4.88897 1.37629 0
M  V30 12216 H 1203.78 -5.25325 -0.366182 0
M  V30 12217 H 1206.27 -3.77636 0.141327 0
M  V30 12218 H 1206.58 -7.67389 0.912911 0
M  V30 12219 H 1204.93 -6.90215 0.814104 0
M  V30 12220 H 1208.12 -4.67382 0.259226 0
M  V30 12221 H 1208.29 -6.45114 0.610848 0
M  V30 12222 N 1201.7 0.070167 -1.57444 0
M  V30 12223 C 1202.63 1.08351 -2.06839 0
M  V30 12224 C 1203.61 1.40269 -0.962224 0
M  V30 12225 O 1204.79 1.49867 -1.23505 0
M  V30 12226 C 1201.92 2.39649 -2.51368 0
M  V30 12227 C 1200.88 2.22079 -3.65875 0
M  V30 12228 C 1200.2 3.58776 -3.96464 0
M  V30 12229 C 1201.5 1.64069 -4.95862 0
M  V30 12230 H 1203.2 0.672465 -2.9175 0
M  V30 12231 H 1200.74 0.322027 -1.40353 0
M  V30 12232 H 1202.69 3.10833 -2.84537 0
M  V30 12233 H 1201.42 2.82736 -1.63487 0
M  V30 12234 H 1200.08 1.53337 -3.32992 0
M  V30 12235 H 1199.73 3.99436 -3.05712 0
M  V30 12236 H 1199.43 3.47859 -4.7357 0
M  V30 12237 H 1200.95 4.31387 -4.32131 0
M  V30 12238 H 1202.36 2.2512 -5.27251 0
M  V30 12239 H 1200.76 1.63843 -5.773 0
M  V30 12240 H 1201.83 0.60232 -4.81145 0
M  V30 12241 N 1203.17 1.53854 0.341593 0
M  V30 12242 C 1204.08 1.84975 1.44297 0
M  V30 12243 C 1205.1 0.740057 1.57477 0
M  V30 12244 O 1206.28 1.03256 1.72917 0
M  V30 12245 C 1203.34 2.05464 2.79259 0
M  V30 12246 C 1202.4 3.29318 2.75405 0
M  V30 12247 C 1201.63 3.4882 4.03931 0
M  V30 12248 O 1201.86 2.7212 5.01305 0
M  V30 12249 O 1200.79 4.42253 4.08284 0
M  V30 12250 H 1204.62 2.78592 1.20913 0
M  V30 12251 H 1202.2 1.39532 0.533953 0
M  V30 12252 H 1204.08 2.20374 3.59184 0
M  V30 12253 H 1202.76 1.15035 3.0257 0
M  V30 12254 H 1201.67 3.1981 1.94094 0
M  V30 12255 H 1203 4.19746 2.57049 0
M  V30 12256 N 1204.65 -0.602709 1.4562 0
M  V30 12257 C 1205.93 -1.36224 1.40366 0
M  V30 12258 C 1206.31 -2.1096 0.0767645 0
M  V30 12259 O 1205.66 -2.08207 -0.941378 0
M  V30 12260 C 1205.87 -2.30499 2.62052 0
M  V30 12261 C 1207.21 -2.92954 3.07348 0
M  V30 12262 O 1208.24 -2.40818 2.62459 0
M  V30 12263 O 1207.1 -3.87601 3.85263 0
M  V30 12264 H 1204.19 -0.611064 0.557253 0
M  V30 12265 H 1206.74 -0.625391 1.57756 0
M  V30 12266 H 1205.51 -1.74566 3.50203 0
M  V30 12267 H 1205.13 -3.11556 2.4702 0
M  V30 12268 N 1206.13 -1.32992 -0.845635 0
M  V30 12269 C 1207.38 -1.24065 -1.60044 0
M  V30 12270 C 1207.7 0.195282 -1.93517 0
M  V30 12271 O 1206.96 1.1507 -1.58296 0
M  V30 12272 C 1207.26 -2.05454 -2.92444 0
M  V30 12273 C 1206.92 -3.54718 -2.78362 0
M  V30 12274 C 1205.59 -3.95413 -2.74229 0
M  V30 12275 C 1207.94 -4.49598 -2.63649 0
M  V30 12276 C 1205.27 -5.29216 -2.53274 0
M  V30 12277 C 1207.62 -5.83554 -2.44228 0
M  V30 12278 C 1206.28 -6.2344 -2.38493 0
M  V30 12279 H 1205.55 -0.453985 -0.585644 0
M  V30 12280 H 1208.2 -1.6451 -0.980244 0
M  V30 12281 H 1206.5 -1.57765 -3.58633 0
M  V30 12282 H 1208.2 -1.95909 -3.49887 0
M  V30 12283 H 1204.79 -3.22403 -2.82409 0
M  V30 12284 H 1208.98 -4.19072 -2.65881 0
M  V30 12285 H 1204.23 -5.59164 -2.47275 0
M  V30 12286 H 1208.41 -6.56681 -2.31825 0
M  V30 12287 H 1206.03 -7.27058 -2.22015 0
M  V30 12288 N 1207.61 1.06304 -1.1635 0
M  V30 12289 C 1208.54 2.15745 -0.893103 0
M  V30 12290 C 1209.52 1.69341 0.160531 0
M  V30 12291 O 1210.7 1.94196 0.0126526 0
M  V30 12292 C 1207.83 3.45066 -0.393287 0
M  V30 12293 C 1206.79 4.04978 -1.38482 0
M  V30 12294 C 1206.11 5.29507 -0.743409 0
M  V30 12295 C 1207.41 4.4377 -2.75438 0
M  V30 12296 H 1209.11 2.38622 -1.80831 0
M  V30 12297 H 1206.65 1.14681 -0.870878 0
M  V30 12298 H 1208.61 4.20964 -0.191607 0
M  V30 12299 H 1207.33 3.21808 0.557426 0
M  V30 12300 H 1205.99 3.31136 -1.57304 0
M  V30 12301 H 1205.64 5.02545 0.213787 0
M  V30 12302 H 1205.34 5.7055 -1.40521 0
M  V30 12303 H 1206.86 6.08102 -0.551746 0
M  V30 12304 H 1208.28 5.1075 -2.60398 0
M  V30 12305 H 1206.67 4.95797 -3.38091 0
M  V30 12306 H 1207.74 3.54636 -3.30699 0
M  V30 12307 N 1209.09 0.96196 1.24836 0
M  V30 12308 C 1210 0.494876 2.29321 0
M  V30 12309 C 1211.01 -0.441363 1.68309 0
M  V30 12310 O 1212.19 -0.315814 1.98908 0
M  V30 12311 C 1209.25 -0.212944 3.46045 0
M  V30 12312 C 1208.31 0.762411 4.22476 0
M  V30 12313 C 1207.55 0.0882756 5.33627 0
M  V30 12314 O 1207.77 -1.12459 5.59204 0
M  V30 12315 O 1206.7 0.777529 5.96857 0
M  V30 12316 H 1210.53 1.36333 2.7138 0
M  V30 12317 H 1208.11 0.728738 1.30421 0
M  V30 12318 H 1210 -0.610805 4.1695 0
M  V30 12319 H 1208.67 -1.05645 3.05975 0
M  V30 12320 H 1207.58 1.21062 3.5397 0
M  V30 12321 H 1208.91 1.57416 4.66349 0
M  V30 12322 N 1210.56 -1.39601 0.731392 0
M  V30 12323 C 1211.79 -2.05411 0.286532 0
M  V30 12324 C 1212.21 -1.54777 -1.06892 0
M  V30 12325 O 1211.57 -0.689942 -1.67659 0
M  V30 12326 C 1211.62 -3.594 0.293914 0
M  V30 12327 O 1210.72 -4.06072 -0.719657 0
M  V30 12328 H 1210.06 -0.650949 0.131004 0
M  V30 12329 H 1212.59 -1.78703 0.996305 0
M  V30 12330 H 1212.6 -4.0777 0.137052 0
M  V30 12331 H 1211.28 -3.95617 1.28298 0
M  V30 12332 H 1209.86 -3.69125 -0.529226 0
M  V30 12333 N 1212.04 -0.478751 -1.50152 0
M  V30 12334 C 1213.27 0.0732929 -2.0727 0
M  V30 12335 C 1213.69 1.32066 -1.33941 0
M  V30 12336 O 1213.05 1.7707 -0.389367 0
M  V30 12337 C 1213.1 0.332528 -3.59064 0
M  V30 12338 O 1212.2 1.41158 -3.8749 0
M  V30 12339 H 1211.54 -0.0163684 -0.663798 0
M  V30 12340 H 1214.07 -0.671993 -1.9325 0
M  V30 12341 H 1214.08 0.570735 -4.03988 0
M  V30 12342 H 1212.76 -0.578934 -4.11851 0
M  V30 12343 H 1211.34 1.16008 -3.54396 0
M  V30 12344 N 1213.52 1.56172 -0.211661 0
M  V30 12345 C 1214.75 2.02428 0.427843 0
M  V30 12346 C 1215.16 1.09162 1.54043 0
M  V30 12347 O 1214.52 0.0994249 1.82229 0
M  V30 12348 C 1214.57 3.48279 0.968728 0
M  V30 12349 O 1214.29 4.37987 -0.0994841 0
M  V30 12350 C 1215.79 4.10132 1.68246 0
M  V30 12351 H 1213.01 0.662611 0.10577 0
M  V30 12352 H 1215.56 2.01897 -0.32522 0
M  V30 12353 H 1213.71 3.49456 1.6721 0
M  V30 12354 H 1214.13 5.23609 0.305558 0
M  V30 12355 H 1215.6 5.13985 2.01304 0
M  V30 12356 H 1216.08 3.54552 2.5921 0
M  V30 12357 H 1216.68 4.12775 1.02453 0
M  V30 12358 N 1215 -0.0618163 1.57479 0
M  V30 12359 C 1216.25 -0.757569 1.87364 0
M  V30 12360 C 1216.57 -1.77607 0.805025 0
M  V30 12361 O 1215.84 -1.95202 -0.165216 0
M  V30 12362 H 1214.42 -0.28278 0.691408 0
M  V30 12363 H 1217.08 -0.0355354 1.94868 0
M  V30 12364 H 1216.18 -1.26758 2.85199 0
M  V30 12365 N 1216.48 -1.54033 -0.333429 0
M  V30 12366 C 1217.41 -1.85719 -1.4153 0
M  V30 12367 C 1218.39 -0.713144 -1.54429 0
M  V30 12368 O 1219.57 -0.965984 -1.68471 0
M  V30 12369 C 1216.7 -2.07578 -2.78439 0
M  V30 12370 C 1215.66 -3.23411 -2.80338 0
M  V30 12371 C 1214.98 -3.30622 -4.2023 0
M  V30 12372 C 1216.28 -4.6129 -2.44968 0
M  V30 12373 H 1217.98 -2.76325 -1.15261 0
M  V30 12374 H 1215.52 -1.32957 -0.55303 0
M  V30 12375 H 1217.48 -2.28329 -3.5418 0
M  V30 12376 H 1216.2 -1.13713 -3.06165 0
M  V30 12377 H 1214.86 -3.02531 -2.07052 0
M  V30 12378 H 1214.51 -2.34333 -4.45081 0
M  V30 12379 H 1214.21 -4.08466 -4.22409 0
M  V30 12380 H 1215.73 -3.53596 -4.97798 0
M  V30 12381 H 1217.14 -4.81987 -3.10421 0
M  V30 12382 H 1215.54 -5.41611 -2.58414 0
M  V30 12383 H 1216.61 -4.6421 -1.40134 0
M  V30 12384 N 1217.95 0.594978 -1.45938 0
M  V30 12385 C 1219.37 1.17703 -1.44924 0
M  V30 12386 C 1219.72 1.9534 -0.183522 0
M  V30 12387 O 1218.84 2.04276 0.714163 0
M  V30 12388 C 1219.44 2.14119 -2.62561 0
M  V30 12389 C 1218 2.67674 -2.64627 0
M  V30 12390 C 1217.14 1.43312 -2.37397 0
M  V30 12391 H 1220.09 0.383583 -1.53995 0
M  V30 12392 H 1220.11 2.97374 -2.3738 0
M  V30 12393 H 1219.63 1.57586 -3.54667 0
M  V30 12394 H 1217.73 3.28111 -1.76562 0
M  V30 12395 H 1217.84 3.11246 -3.64229 0
M  V30 12396 H 1216.2 1.72702 -1.87206 0
M  V30 12397 H 1216.99 0.886276 -3.31663 0
M  V30 12398 N 1219.43 1.33438 0.838571 0
M  V30 12399 C 1220.36 1.26344 1.96365 0
M  V30 12400 C 1221.34 0.143956 1.6949 0
M  V30 12401 O 1222.53 0.333779 1.9131 0
M  V30 12402 C 1219.66 1.0022 3.32526 0
M  V30 12403 C 1218.61 2.08466 3.73799 0
M  V30 12404 C 1217.94 1.67555 5.07769 0
M  V30 12405 C 1219.24 3.50144 3.87552 0
M  V30 12406 H 1220.93 2.20478 2.02558 0
M  V30 12407 H 1218.48 1.06139 0.973168 0
M  V30 12408 H 1220.43 0.939068 4.10803 0
M  V30 12409 H 1219.16 0.0252514 3.2659 0
M  V30 12410 H 1217.81 2.13822 2.97785 0
M  V30 12411 H 1217.46 0.685619 4.98305 0
M  V30 12412 H 1217.16 2.39993 5.36356 0
M  V30 12413 H 1218.69 1.62708 5.88522 0
M  V30 12414 H 1220.1 3.47287 4.56141 0
M  V30 12415 H 1218.5 4.21069 4.27575 0
M  V30 12416 H 1219.57 3.88628 2.89994 0
M  V30 12417 N 1220.91 -1.05686 1.16912 0
M  V30 12418 C 1221.84 -2.15268 0.904532 0
M  V30 12419 C 1222.82 -1.69424 -0.151548 0
M  V30 12420 O 1224.01 -1.942 -0.00235371 0
M  V30 12421 C 1221.14 -3.44853 0.411581 0
M  V30 12422 C 1220.09 -4.04237 1.40628 0
M  V30 12423 C 1219.42 -5.29105 0.771479 0
M  V30 12424 C 1220.72 -4.42303 2.77787 0
M  V30 12425 H 1222.41 -2.37659 1.82094 0
M  V30 12426 H 1219.96 -1.14217 0.876947 0
M  V30 12427 H 1221.91 -4.20857 0.213929 0
M  V30 12428 H 1220.63 -3.22099 -0.540352 0
M  V30 12429 H 1219.29 -3.30297 1.59058 0
M  V30 12430 H 1218.94 -5.02652 -0.187133 0
M  V30 12431 H 1218.64 -5.69797 1.43545 0
M  V30 12432 H 1220.16 -6.07801 0.583988 0
M  V30 12433 H 1221.58 -5.09362 2.63103 0
M  V30 12434 H 1219.98 -4.93997 3.40716 0
M  V30 12435 H 1221.05 -3.52877 3.32575 0
M  V30 12436 N 1222.39 -0.968567 -1.24324 0
M  V30 12437 C 1223.62 -0.648568 -1.96472 0
M  V30 12438 C 1224.03 0.782168 -1.71836 0
M  V30 12439 O 1223.39 1.5249 -1.00265 0
M  V30 12440 C 1223.44 -0.91482 -3.49733 0
M  V30 12441 O 1223.16 -2.28931 -3.73527 0
M  V30 12442 C 1224.66 -0.609131 -4.39095 0
M  V30 12443 H 1221.88 -0.241921 -0.625872 0
M  V30 12444 H 1224.43 -1.29673 -1.5813 0
M  V30 12445 H 1222.58 -0.31285 -3.86135 0
M  V30 12446 H 1222.99 -2.36998 -4.67902 0
M  V30 12447 H 1224.47 -0.845875 -5.4548 0
M  V30 12448 H 1224.95 0.456625 -4.3682 0
M  V30 12449 H 1225.55 -1.19105 -4.08282 0
M  V30 12450 N 1223.87 1.39211 -0.738786 0
M  V30 12451 C 1225.09 2.05256 -0.297421 0
M  V30 12452 C 1225.52 1.55341 1.06069 0
M  V30 12453 O 1224.87 0.698823 1.67291 0
M  V30 12454 C 1224.92 3.59239 -0.312969 0
M  V30 12455 O 1224.03 4.06448 0.698112 0
M  V30 12456 H 1223.37 0.650245 -0.134454 0
M  V30 12457 H 1225.9 1.78173 -1.00577 0
M  V30 12458 H 1225.91 4.07691 -0.158675 0
M  V30 12459 H 1224.58 3.94931 -1.30394 0
M  V30 12460 H 1223.16 3.69401 0.509643 0
M  V30 12461 N 1225.34 0.486708 1.49896 0
M  V30 12462 C 1226.59 -0.0627279 2.02003 0
M  V30 12463 C 1226.91 -1.38799 1.36967 0
M  V30 12464 O 1226.18 -1.88868 0.520173 0
M  V30 12465 H 1224.76 -0.0261718 0.746541 0
M  V30 12466 H 1227.43 0.640692 1.84068 0
M  V30 12467 H 1226.52 -0.202856 3.1144 0
M  V30 12468 N 1226.82 -1.56058 0.219941 0
M  V30 12469 C 1227.77 -2.16853 -0.704185 0
M  V30 12470 C 1228.76 -1.11639 -1.15869 0
M  V30 12471 O 1229.95 -1.37632 -1.11295 0
M  V30 12472 C 1227.08 -2.85073 -1.9128 0
M  V30 12473 C 1226.16 -3.9751 -1.47805 0
M  V30 12474 N 1226.56 -5.00121 -0.755792 0
M  V30 12475 C 1224.85 -4.0957 -1.76546 0
M  V30 12476 C 1225.55 -5.79241 -0.534332 0
M  V30 12477 N 1224.53 -5.32549 -1.09055 0
M  V30 12478 H 1228.33 -2.93547 -0.143914 0
M  V30 12479 H 1225.85 -1.62386 0.021133 0
M  V30 12480 H 1227.84 -3.27037 -2.58558 0
M  V30 12481 H 1226.5 -2.09874 -2.47756 0
M  V30 12482 H 1227.51 -5.16285 -0.408647 0
M  V30 12483 H 1224.19 -3.45521 -2.34353 0
M  V30 12484 H 1225.58 -6.71888 0.0404032 0
M  V30 12485 N 1228.3 0.053464 -1.57509 0
M  V30 12486 C 1229.58 0.783141 -1.79238 0
M  V30 12487 C 1229.96 1.94855 -0.812069 0
M  V30 12488 O 1229.31 2.28 0.151006 0
M  V30 12489 C 1229.52 1.239 -3.26266 0
M  V30 12490 C 1230.86 1.66492 -3.90596 0
M  V30 12491 O 1231.89 1.33421 -3.30269 0
M  V30 12492 O 1230.75 2.27785 -4.96766 0
M  V30 12493 H 1227.84 0.376696 -0.736226 0
M  V30 12494 H 1230.39 0.0321229 -1.6967 0
M  V30 12495 H 1229.16 0.405948 -3.89189 0
M  V30 12496 H 1228.78 2.05078 -3.4063 0
M  V30 12497 N 1229.78 1.54207 0.325255 0
M  V30 12498 C 1231.03 1.71991 1.0613 0
M  V30 12499 C 1231.35 0.495505 1.88599 0
M  V30 12500 O 1230.62 -0.490504 1.8966 0
M  V30 12501 H 1229.2 0.634137 0.394816 0
M  V30 12502 H 1231.86 1.91507 0.362101 0
M  V30 12503 H 1230.96 2.59878 1.72829 0
M  V30 12504 N 1231.26 -0.58723 1.46251 0
M  V30 12505 C 1232.67 -1.16933 1.45546 0
M  V30 12506 C 1233.02 -1.9524 0.193879 0
M  V30 12507 O 1232.14 -2.04652 -0.70332 0
M  V30 12508 C 1232.74 -2.12723 2.63693 0
M  V30 12509 C 1231.3 -2.66267 2.66043 0
M  V30 12510 C 1230.45 -1.42051 2.38153 0
M  V30 12511 H 1233.4 -0.375411 1.54196 0
M  V30 12512 H 1233.42 -2.96111 2.38953 0
M  V30 12513 H 1232.93 -1.55703 3.55497 0
M  V30 12514 H 1231.03 -3.2717 1.783 0
M  V30 12515 H 1231.14 -3.0931 3.65874 0
M  V30 12516 H 1229.51 -1.71707 1.88119 0
M  V30 12517 H 1230.29 -0.868675 3.32128 0
M  V30 12518 N 1232.74 -1.33881 -0.831482 0
M  V30 12519 C 1233.65 -1.26802 -1.97379 0
M  V30 12520 C 1234.66 -0.177233 -1.73095 0
M  V30 12521 O 1235.84 -0.402163 -1.97344 0
M  V30 12522 C 1232.9 -1.01474 -3.31517 0
M  V30 12523 C 1231.96 -2.19626 -3.68867 0
M  V30 12524 C 1231.2 -1.95497 -4.96605 0
M  V30 12525 O 1231.42 -0.908948 -5.63111 0
M  V30 12526 O 1230.35 -2.82226 -5.31632 0
M  V30 12527 H 1234.18 -2.22883 -2.06293 0
M  V30 12528 H 1231.76 -1.14001 -0.965613 0
M  V30 12529 H 1233.65 -0.890954 -4.11874 0
M  V30 12530 H 1232.32 -0.0842656 -3.2359 0
M  V30 12531 H 1231.23 -2.37561 -2.88991 0
M  V30 12532 H 1232.56 -3.11034 -3.81469 0
M  V30 12533 N 1234.21 1.05064 -1.1747 0
M  V30 12534 C 1235.62 1.59547 -0.969628 0
M  V30 12535 C 1235.98 1.90153 0.483332 0
M  V30 12536 O 1235.1 1.68415 1.35887 0
M  V30 12537 C 1235.7 2.89877 -1.75377 0
M  V30 12538 C 1234.25 3.41013 -1.59332 0
M  V30 12539 C 1233.4 2.1473 -1.7546 0
M  V30 12540 H 1236.35 0.878595 -1.3216 0
M  V30 12541 H 1236.37 3.59834 -1.23691 0
M  V30 12542 H 1235.89 2.67569 -2.8112 0
M  V30 12543 H 1233.99 3.68355 -0.560827 0
M  V30 12544 H 1234.1 4.15512 -2.38509 0
M  V30 12545 H 1232.46 2.25553 -1.18313 0
M  V30 12546 H 1233.25 1.9489 -2.82618 0
M  V30 12547 N 1235.69 0.975146 1.23809 0
M  V30 12548 C 1236.62 0.530389 2.27396 0
M  V30 12549 C 1237.6 -0.433763 1.64476 0
M  V30 12550 O 1238.79 -0.32827 1.91405 0
M  V30 12551 C 1235.92 -0.173066 3.46869 0
M  V30 12552 C 1234.87 0.707844 4.22106 0
M  V30 12553 C 1234.2 -0.127527 5.34548 0
M  V30 12554 C 1235.5 1.99609 4.82652 0
M  V30 12555 H 1237.19 1.39622 2.64851 0
M  V30 12556 H 1234.74 0.672802 1.27316 0
M  V30 12557 H 1236.69 -0.495481 4.18477 0
M  V30 12558 H 1235.41 -1.0733 3.0846 0
M  V30 12559 H 1234.07 1.01364 3.52308 0
M  V30 12560 H 1233.72 -1.02814 4.9238 0
M  V30 12561 H 1233.42 0.458728 5.85807 0
M  V30 12562 H 1234.95 -0.444443 6.0898 0
M  V30 12563 H 1236.36 1.73878 5.46296 0
M  V30 12564 H 1234.76 2.52969 5.44175 0
M  V30 12565 H 1235.83 2.68629 4.03691 0
M  V30 12566 N 1237.17 -1.38817 0.746158 0
M  V30 12567 C 1238.39 -2.05096 0.308302 0
M  V30 12568 C 1238.82 -1.55902 -1.05244 0
M  V30 12569 O 1238.18 -0.707685 -1.66918 0
M  V30 12570 C 1238.23 -3.59068 0.332016 0
M  V30 12571 O 1237.33 -4.06813 -0.676547 0
M  V30 12572 H 1236.67 -0.649523 0.1379 0
M  V30 12573 H 1239.2 -1.77637 1.0152 0
M  V30 12574 H 1239.21 -4.07601 0.180293 0
M  V30 12575 H 1237.89 -3.94234 1.32487 0
M  V30 12576 H 1236.46 -3.69666 -0.490046 0
M  V30 12577 N 1238.65 -0.49465 -1.49636 0
M  V30 12578 C 1239.58 0.276606 -2.31856 0
M  V30 12579 C 1240.56 0.968499 -1.39836 0
M  V30 12580 O 1241.74 0.96113 -1.68748 0
M  V30 12581 C 1238.87 1.34522 -3.20189 0
M  V30 12582 C 1237.83 0.773571 -4.20951 0
M  V30 12583 C 1237.15 1.94223 -4.98178 0
M  V30 12584 C 1238.45 -0.231096 -5.21788 0
M  V30 12585 H 1240.15 -0.409668 -2.96584 0
M  V30 12586 H 1237.69 -0.198461 -1.42626 0
M  V30 12587 H 1239.65 1.89244 -3.76517 0
M  V30 12588 H 1238.37 2.06059 -2.53392 0
M  V30 12589 H 1237.03 0.248144 -3.65759 0
M  V30 12590 H 1236.68 2.64514 -4.27834 0
M  V30 12591 H 1236.38 1.56584 -5.66353 0
M  V30 12592 H 1237.9 2.49391 -5.57348 0
M  V30 12593 H 1239.32 0.227768 -5.72847 0
M  V30 12594 H 1237.71 -0.522984 -5.97817 0
M  V30 12595 H 1238.78 -1.14914 -4.71087 0
M  V30 12596 N 1240.13 1.55939 -0.228214 0
M  V30 12597 C 1241.37 1.97652 0.402067 0
M  V30 12598 C 1241.69 1.11911 1.60422 0
M  V30 12599 O 1242.89 1.43552 2.30445 0
M  V30 12600 C 1241.35 3.51638 0.766724 0
M  V30 12601 C 1240.96 4.46092 -0.412991 0
M  V30 12602 C 1242.7 4.02049 1.36224 0
M  V30 12603 C 1240.61 5.91394 -0.0255281 0
M  V30 12604 H 1239.54 0.738107 0.153994 0
M  V30 12605 H 1242.19 1.8059 -0.32548 0
M  V30 12606 H 1240.57 3.64325 1.55188 0
M  V30 12607 H 1241.75 4.45156 -1.19049 0
M  V30 12608 H 1240.06 4.0606 -0.92218 0
M  V30 12609 H 1242.66 5.08111 1.66514 0
M  V30 12610 H 1243 3.48292 2.28032 0
M  V30 12611 H 1243.53 3.92612 0.640378 0
M  V30 12612 H 1240.27 6.49149 -0.910269 0
M  V30 12613 H 1239.79 5.95509 0.716149 0
M  V30 12614 H 1241.47 6.4577 0.398839 0
M  V30 12615 N 1241.6 -0.0451101 1.57535 0
M  V30 12616 C 1242.88 -0.773625 1.79651 0
M  V30 12617 C 1243.26 -1.94422 0.822391 0
M  V30 12618 O 1242.61 -2.28077 -0.138913 0
M  V30 12619 C 1242.82 -1.22168 3.26919 0
M  V30 12620 C 1244.17 -1.64419 3.91474 0
M  V30 12621 O 1245.19 -1.31668 3.30971 0
M  V30 12622 O 1244.05 -2.25148 4.97967 0
M  V30 12623 H 1241.14 -0.372786 0.738214 0
M  V30 12624 H 1243.69 -0.0231245 1.69684 0
M  V30 12625 H 1242.46 -0.385302 3.89398 0
M  V30 12626 H 1242.09 -2.03269 3.41713 0
M  V30 12627 N 1243.08 -1.54377 -0.317073 0
M  V30 12628 C 1244.36 -1.63551 -1.07287 0
M  V30 12629 C 1244.74 -0.473499 -2.05721 0
M  V30 12630 O 1244.09 0.531545 -2.22232 0
M  V30 12631 C 1244.3 -3.00842 -1.76904 0
M  V30 12632 C 1245.65 -3.57111 -2.29689 0
M  V30 12633 O 1246.67 -3.0319 -1.86961 0
M  V30 12634 O 1245.53 -4.51486 -3.07932 0
M  V30 12635 H 1242.62 -0.662557 -0.494922 0
M  V30 12636 H 1245.17 -1.66723 -0.316444 0
M  V30 12637 H 1243.94 -3.76854 -1.05341 0
M  V30 12638 H 1243.56 -3.01377 -2.59341 0
M  V30 12639 N 1244.56 0.579466 -1.4656 0
M  V30 12640 C 1245.49 1.69846 -1.60233 0
M  V30 12641 C 1246.47 1.6397 -0.452533 0
M  V30 12642 O 1247.66 1.81936 -0.679174 0
M  V30 12643 C 1244.79 3.08488 -1.59538 0
M  V30 12644 C 1243.74 3.29197 -2.7352 0
M  V30 12645 C 1243.07 4.684 -2.57887 0
M  V30 12646 C 1244.37 3.16718 -4.15315 0
M  V30 12647 H 1246.06 1.5866 -2.53904 0
M  V30 12648 H 1243.61 0.761873 -1.22194 0
M  V30 12649 H 1245.56 3.86595 -1.67696 0
M  V30 12650 H 1244.28 3.20581 -0.62413 0
M  V30 12651 H 1242.94 2.53491 -2.64836 0
M  V30 12652 H 1242.59 4.77262 -1.58839 0
M  V30 12653 H 1242.29 4.83208 -3.34341 0
M  V30 12654 H 1243.81 5.48671 -2.67942 0
M  V30 12655 H 1245.23 3.84666 -4.25094 0
M  V30 12656 H 1243.63 3.43047 -4.92381 0
M  V30 12657 H 1244.7 2.13755 -4.35244 0
M  V30 12658 N 1246.04 1.3432 0.824371 0
M  V30 12659 C 1246.99 1.22332 1.92403 0
M  V30 12660 C 1247.97 0.122709 1.60431 0
M  V30 12661 O 1249.16 0.352231 1.7346 0
M  V30 12662 C 1246.29 0.979497 3.2903 0
M  V30 12663 C 1245.38 2.12322 3.67124 0
M  V30 12664 N 1245.77 3.3743 3.76795 0
M  V30 12665 C 1244.07 2.03314 3.96963 0
M  V30 12666 C 1244.77 4.12532 4.10113 0
M  V30 12667 N 1243.75 3.41109 4.23256 0
M  V30 12668 H 1247.55 2.17143 1.98056 0
M  V30 12669 H 1245.06 1.26537 1.01795 0
M  V30 12670 H 1247.06 0.874525 4.07624 0
M  V30 12671 H 1245.72 0.0400611 3.24675 0
M  V30 12672 H 1246.73 3.72001 3.60327 0
M  V30 12673 H 1243.41 1.17118 4.00736 0
M  V30 12674 H 1244.8 5.20562 4.24811 0
M  V30 12675 N 1247.52 -1.0444 1.18026 0
M  V30 12676 C 1248.74 -1.81772 0.998684 0
M  V30 12677 C 1249.17 -1.82682 -0.448225 0
M  V30 12678 O 1248.52 -1.24136 -1.32136 0
M  V30 12679 C 1248.57 -3.2542 1.55352 0
M  V30 12680 O 1247.68 -4.05103 0.772351 0
M  V30 12681 H 1247.02 -0.561731 0.354054 0
M  V30 12682 H 1249.55 -1.31557 1.56697 0
M  V30 12683 H 1249.56 -3.76206 1.57903 0
M  V30 12684 H 1248.23 -3.24073 2.60672 0
M  V30 12685 H 1246.81 -3.63798 0.818852 0
M  V30 12686 N 1248.99 -0.981699 -1.2329 0
M  V30 12687 C 1249.93 -0.481042 -2.24095 0
M  V30 12688 C 1250.94 0.417818 -1.57347 0
M  V30 12689 O 1252.13 0.221746 -1.77117 0
M  V30 12690 C 1249.23 0.323324 -3.37354 0
M  V30 12691 C 1248.4 -0.568975 -4.33684 0
M  V30 12692 C 1247.46 0.181761 -5.25886 0
M  V30 12693 O 1246.49 -0.429059 -5.67581 0
M  V30 12694 N 1247.69 1.46737 -5.61648 0
M  V30 12695 H 1250.45 -1.34781 -2.67683 0
M  V30 12696 H 1248.01 -0.855117 -1.37475 0
M  V30 12697 H 1250.01 0.833934 -3.96015 0
M  V30 12698 H 1248.58 1.09111 -2.9294 0
M  V30 12699 H 1247.8 -1.2604 -3.73507 0
M  V30 12700 H 1249.08 -1.17704 -4.94998 0
M  V30 12701 H 1248.48 1.98513 -5.29725 0
M  V30 12702 H 1247.04 1.92339 -6.22775 0
M  V30 12703 N 1250.47 1.3842 -0.753509 0
M  V30 12704 C 1251.41 2.28079 -0.0741683 0
M  V30 12705 C 1252.38 1.45372 0.728398 0
M  V30 12706 O 1253.57 1.74737 0.707043 0
M  V30 12707 C 1250.69 3.26475 0.901764 0
M  V30 12708 C 1249.74 4.26097 0.185438 0
M  V30 12709 S 1250.57 5.23791 -1.11372 0
M  V30 12710 C 1251.73 6.25741 -0.140861 0
M  V30 12711 H 1251.96 2.85349 -0.834475 0
M  V30 12712 H 1249.5 1.4442 -0.546089 0
M  V30 12713 H 1251.45 3.83678 1.4595 0
M  V30 12714 H 1250.11 2.68189 1.63504 0
M  V30 12715 H 1249.31 4.95447 0.924578 0
M  V30 12716 H 1248.91 3.72789 -0.300772 0
M  V30 12717 H 1251.2 6.73945 0.693174 0
M  V30 12718 H 1252.14 7.03543 -0.80202 0
M  V30 12719 H 1252.55 5.6399 0.2398 0
M  V30 12720 N 1251.95 0.502579 1.49372 0
M  V30 12721 C 1252.88 -0.264307 2.31999 0
M  V30 12722 C 1253.86 -0.96107 1.40348 0
M  V30 12723 O 1255.05 -0.952167 1.69255 0
M  V30 12724 C 1252.18 -1.32822 3.20898 0
M  V30 12725 C 1251.13 -0.751236 4.21355 0
M  V30 12726 C 1250.46 -1.91578 4.99201 0
M  V30 12727 C 1251.76 0.258764 5.21659 0
M  V30 12728 H 1253.45 0.425391 2.96363 0
M  V30 12729 H 1251 0.206022 1.42519 0
M  V30 12730 H 1252.95 -1.87245 3.77515 0
M  V30 12731 H 1251.67 -2.04712 2.54481 0
M  V30 12732 H 1250.33 -0.228743 3.65886 0
M  V30 12733 H 1249.98 -2.62241 4.2923 0
M  V30 12734 H 1249.68 -1.53578 5.67175 0
M  V30 12735 H 1251.2 -2.46432 5.58663 0
M  V30 12736 H 1252.62 -0.197385 5.7296 0
M  V30 12737 H 1251.02 0.554681 5.97531 0
M  V30 12738 H 1252.09 1.1741 4.70471 0
M  V30 12739 N 1253.43 -1.55816 0.23648 0
M  V30 12740 C 1254.65 -2.03534 -0.398575 0
M  V30 12741 C 1255.08 -1.11488 -1.51499 0
M  V30 12742 O 1254.44 -0.105848 -1.80991 0
M  V30 12743 C 1254.48 -3.49356 -0.893467 0
M  V30 12744 O 1253.59 -3.60446 -2.00381 0
M  V30 12745 H 1252.93 -0.658102 -0.0883021 0
M  V30 12746 H 1255.46 -2.01417 0.359488 0
M  V30 12747 H 1255.47 -3.89972 -1.19941 0
M  V30 12748 H 1254.14 -4.1583 -0.0764388 0
M  V30 12749 H 1252.72 -3.31723 -1.70336 0
M  V30 12750 N 1254.91 0.036755 -1.57557 0
M  V30 12751 C 1256.13 0.744813 -1.93565 0
M  V30 12752 C 1256.56 1.68508 -0.835863 0
M  V30 12753 O 1255.91 1.80091 0.208986 0
M  V30 12754 C 1255.96 1.48461 -3.28621 0
M  V30 12755 O 1255.07 2.59739 -3.20327 0
M  V30 12756 H 1254.41 0.200866 -0.632889 0
M  V30 12757 H 1256.94 -0.00547543 -2.04599 0
M  V30 12758 H 1256.95 1.85622 -3.63329 0
M  V30 12759 H 1255.62 0.794953 -4.08232 0
M  V30 12760 H 1254.2 2.25176 -2.97237 0
M  V30 12761 N 1256.39 1.54543 0.308881 0
M  V30 12762 C 1257.61 1.77431 1.06422 0
M  V30 12763 C 1258.03 0.529972 1.81209 0
M  V30 12764 O 1257.39 -0.499912 1.7552 0
M  V30 12765 C 1257.44 2.9769 2.05092 0
M  V30 12766 O 1257.16 4.17315 1.33341 0
M  V30 12767 C 1258.66 3.32905 2.92727 0
M  V30 12768 H 1255.88 0.591961 0.315948 0
M  V30 12769 H 1258.42 2.01473 0.350547 0
M  V30 12770 H 1256.58 2.7588 2.71973 0
M  V30 12771 H 1256.99 4.85061 1.99539 0
M  V30 12772 H 1258.47 4.20314 3.57827 0
M  V30 12773 H 1258.94 2.50713 3.6061 0
M  V30 12774 H 1259.55 3.56847 2.31388 0
M  V30 12775 N 1257.86 -0.571685 1.46866 0
M  V30 12776 C 1258.83 -1.66198 1.57832 0
M  V30 12777 C 1259.83 -1.54242 0.454547 0
M  V30 12778 O 1261.02 -1.58661 0.719191 0
M  V30 12779 C 1258.15 -3.05678 1.5091 0
M  V30 12780 H 1259.34 -1.57829 2.5501 0
M  V30 12781 H 1256.89 -0.790433 1.3484 0
M  V30 12782 H 1257.63 -3.19593 0.550529 0
M  V30 12783 H 1257.41 -3.15765 2.32454 0
M  V30 12784 H 1258.9 -3.85027 1.61692 0
M  V30 12785 N 1259.34 -1.34755 -0.817236 0
M  V30 12786 C 1260.59 -1.26771 -1.56882 0
M  V30 12787 C 1260.9 0.158962 -1.94953 0
M  V30 12788 O 1262.11 0.360996 -2.69089 0
M  V30 12789 C 1260.57 -2.22261 -2.83069 0
M  V30 12790 C 1260.17 -3.70216 -2.52277 0
M  V30 12791 C 1261.92 -2.23197 -3.61086 0
M  V30 12792 C 1259.82 -4.57559 -3.74691 0
M  V30 12793 H 1258.75 -0.470961 -0.588822 0
M  V30 12794 H 1261.41 -1.59955 -0.899254 0
M  V30 12795 H 1259.79 -1.82036 -3.5168 0
M  V30 12796 H 1260.96 -4.19014 -1.9174 0
M  V30 12797 H 1259.28 -3.71784 -1.87525 0
M  V30 12798 H 1261.87 -2.85673 -4.5199 0
M  V30 12799 H 1262.22 -1.2328 -3.97628 0
M  V30 12800 H 1262.75 -2.61897 -2.99424 0
M  V30 12801 H 1259.49 -5.58434 -3.43267 0
M  V30 12802 H 1259.01 -4.13494 -4.34491 0
M  V30 12803 H 1260.69 -4.72451 -4.42039 0
M  V30 12804 N 1260.82 1.03812 -1.18578 0
M  V30 12805 C 1261.75 2.13802 -0.938665 0
M  V30 12806 C 1262.73 1.69643 0.124575 0
M  V30 12807 O 1263.92 1.94179 -0.0285421 0
M  V30 12808 C 1261.05 3.44154 -0.466392 0
M  V30 12809 C 1260 4.01949 -1.47041 0
M  V30 12810 C 1259.33 5.27811 -0.855558 0
M  V30 12811 C 1260.63 4.37827 -2.84789 0
M  V30 12812 H 1262.32 2.34732 -1.85852 0
M  V30 12813 H 1259.87 1.12808 -0.895007 0
M  V30 12814 H 1261.82 4.20463 -0.280856 0
M  V30 12815 H 1260.54 3.22918 0.489041 0
M  V30 12816 H 1259.2 3.27725 -1.64293 0
M  V30 12817 H 1258.85 5.02886 0.107142 0
M  V30 12818 H 1258.55 5.67441 -1.52592 0
M  V30 12819 H 1260.07 6.06795 -0.680609 0
M  V30 12820 H 1261.49 5.05112 -2.71173 0
M  V30 12821 H 1259.88 4.88514 -3.48532 0
M  V30 12822 H 1260.95 3.47541 -3.38147 0
M  V30 12823 N 1262.3 0.988223 1.22768 0
M  V30 12824 C 1263.57 0.577578 1.86878 0
M  V30 12825 C 1263.95 -0.945197 1.88757 0
M  V30 12826 O 1263.3 -1.82519 1.37474 0
M  V30 12827 C 1263.51 1.19263 3.2799 0
M  V30 12828 C 1264.86 1.29024 4.04522 0
M  V30 12829 O 1265.88 1.14667 3.37239 0
M  V30 12830 O 1264.74 1.51949 5.24951 0
M  V30 12831 H 1261.84 0.195579 0.803541 0
M  V30 12832 H 1264.38 1.0838 1.30582 0
M  V30 12833 H 1263.16 2.23442 3.21231 0
M  V30 12834 H 1262.78 0.671706 3.91885 0
M  V30 12835 N 1263.78 -1.38018 0.760839 0
M  V30 12836 C 1264.73 -2.27717 0.113521 0
M  V30 12837 C 1265.71 -1.45562 -0.685613 0
M  V30 12838 O 1266.9 -1.68226 -0.550377 0
M  V30 12839 C 1264.03 -3.34478 -0.77325 0
M  V30 12840 C 1263.12 -4.24087 0.0331238 0
M  V30 12841 N 1263.51 -4.94283 1.07323 0
M  V30 12842 C 1261.81 -4.45584 -0.192565 0
M  V30 12843 C 1262.51 -5.60344 1.56172 0
M  V30 12844 N 1261.48 -5.36499 0.875768 0
M  V30 12845 H 1265.28 -2.79456 0.910021 0
M  V30 12846 H 1262.8 -1.51006 0.597561 0
M  V30 12847 H 1264.8 -3.97635 -1.25268 0
M  V30 12848 H 1263.46 -2.84296 -1.56862 0
M  V30 12849 H 1264.47 -4.97036 1.45517 0
M  V30 12850 H 1261.14 -4.06296 -0.960704 0
M  V30 12851 H 1262.53 -6.26477 2.42851 0
M  V30 12852 N 1265.25 -0.510493 -1.49103 0
M  V30 12853 C 1266.66 -0.0650831 -1.86587 0
M  V30 12854 C 1267.02 1.35185 -1.42195 0
M  V30 12855 O 1266.14 2.0091 -0.804004 0
M  V30 12856 C 1266.74 -0.111333 -3.38617 0
M  V30 12857 C 1265.29 0.278782 -3.75366 0
M  V30 12858 C 1264.44 -0.479707 -2.73119 0
M  V30 12859 H 1267.39 -0.722784 -1.41285 0
M  V30 12860 H 1267.41 0.681706 -3.74343 0
M  V30 12861 H 1266.93 -1.14271 -3.70896 0
M  V30 12862 H 1265.03 1.31304 -3.48698 0
M  V30 12863 H 1265.14 -0.047271 -4.79077 0
M  V30 12864 H 1263.5 0.0716459 -2.54599 0
M  V30 12865 H 1264.29 -1.51135 -3.08242 0
M  V30 12866 N 1266.73 1.55688 -0.24474 0
M  V30 12867 C 1268.14 1.84897 0.25882 0
M  V30 12868 C 1268.49 1.16653 1.57755 0
M  V30 12869 O 1267.62 0.444162 2.11793 0
M  V30 12870 C 1268.21 3.35434 0.476385 0
M  V30 12871 C 1266.77 3.64877 0.924213 0
M  V30 12872 C 1265.92 2.773 0.00021322 0
M  V30 12873 H 1268.87 1.51662 -0.467358 0
M  V30 12874 H 1268.89 3.56896 1.31929 0
M  V30 12875 H 1268.4 3.85076 -0.483567 0
M  V30 12876 H 1266.5 3.20711 1.89671 0
M  V30 12877 H 1266.62 4.72665 0.78257 0
M  V30 12878 H 1264.98 2.49517 0.511194 0
M  V30 12879 H 1265.76 3.29747 -0.955072 0
M  V30 12880 N 1268.21 -0.0283989 1.57574 0
M  V30 12881 C 1269.43 -0.734537 1.93957 0
M  V30 12882 C 1269.86 -1.68062 0.844787 0
M  V30 12883 O 1269.22 -1.802 -0.199432 0
M  V30 12884 C 1269.27 -1.46716 3.29404 0
M  V30 12885 O 1268.37 -2.58036 3.217 0
M  V30 12886 H 1267.71 -0.197507 0.633946 0
M  V30 12887 H 1270.24 0.0163258 2.04593 0
M  V30 12888 H 1270.25 -1.83693 3.64309 0
M  V30 12889 H 1268.93 -0.773292 4.08648 0
M  V30 12890 H 1267.5 -2.23597 2.98427 0
M  V30 12891 N 1269.69 -1.54705 -0.300681 0
M  V30 12892 C 1271.1 -1.64998 -0.873654 0
M  V30 12893 C 1271.45 -0.558842 -1.88073 0
M  V30 12894 O 1270.57 0.304474 -2.14247 0
M  V30 12895 C 1271.17 -2.99099 -1.59138 0
M  V30 12896 C 1269.73 -3.11512 -2.11276 0
M  V30 12897 C 1268.88 -2.60681 -0.945551 0
M  V30 12898 H 1271.83 -1.5851 -0.0776752 0
M  V30 12899 H 1271.85 -2.9054 -2.45696 0
M  V30 12900 H 1271.36 -3.78493 -0.858172 0
M  V30 12901 H 1269.46 -2.36838 -2.87643 0
M  V30 12902 H 1269.57 -4.17672 -2.34707 0
M  V30 12903 H 1267.94 -2.17143 -1.33121 0
M  V30 12904 H 1268.72 -3.42553 -0.226291 0
M  V30 12905 N 1271.17 0.563888 -1.47167 0
M  V30 12906 C 1272.1 1.68689 -1.53685 0
M  V30 12907 C 1273.08 1.57866 -0.389486 0
M  V30 12908 O 1274.26 1.78819 -0.596336 0
M  V30 12909 C 1271.39 3.06887 -1.43311 0
M  V30 12910 C 1270.43 3.36175 -2.62466 0
M  V30 12911 S 1271.27 3.26166 -4.24707 0
M  V30 12912 C 1272.42 4.66868 -4.16875 0
M  V30 12913 H 1272.66 1.62905 -2.48695 0
M  V30 12914 H 1270.19 0.74417 -1.35283 0
M  V30 12915 H 1272.15 3.86604 -1.38014 0
M  V30 12916 H 1270.81 3.10144 -0.496971 0
M  V30 12917 H 1270 4.36907 -2.51253 0
M  V30 12918 H 1269.6 2.64064 -2.64852 0
M  V30 12919 H 1271.9 5.57673 -3.84717 0
M  V30 12920 H 1272.84 4.83139 -5.1767 0
M  V30 12921 H 1273.25 4.44601 -3.47836 0
M  V30 12922 N 1272.64 1.35187 0.810078 0
M  V30 12923 C 1273.92 1.18832 1.55365 0
M  V30 12924 C 1274.3 -0.233956 2.098 0
M  V30 12925 O 1273.65 -1.23701 1.92121 0
M  V30 12926 C 1273.86 2.25351 2.66492 0
M  V30 12927 C 1275.21 2.60981 3.34924 0
M  V30 12928 O 1276.23 2.24238 2.7676 0
M  V30 12929 O 1275.09 3.24147 4.3999 0
M  V30 12930 H 1272.18 0.461446 0.686292 0
M  V30 12931 H 1274.73 1.46858 0.850341 0
M  V30 12932 H 1273.5 3.20762 2.24115 0
M  V30 12933 H 1273.13 1.98575 3.44462 0
M  V30 12934 N 1274.12 -1.03182 1.19127 0
M  V30 12935 C 1275.35 -1.80165 1.01726 0
M  V30 12936 C 1275.77 -1.83742 -0.434095 0
M  V30 12937 O 1275.12 -1.27932 -1.30152 0
M  V30 12938 C 1275.17 -3.25354 1.57566 0
M  V30 12939 O 1274.89 -3.22042 2.9702 0
M  V30 12940 C 1276.4 -4.18948 1.44906 0
M  V30 12941 H 1273.62 -0.567078 0.358698 0
M  V30 12942 H 1276.16 -1.29982 1.57877 0
M  V30 12943 H 1274.31 -3.72738 1.0557 0
M  V30 12944 H 1274.73 -4.13061 3.23235 0
M  V30 12945 H 1276.2 -5.18723 1.88762 0
M  V30 12946 H 1276.68 -4.37383 0.399125 0
M  V30 12947 H 1277.29 -3.77435 1.96018 0
M  V30 12948 N 1275.6 -0.99472 -1.22242 0
M  V30 12949 C 1276.83 -0.689809 -1.95592 0
M  V30 12950 C 1277.25 0.739321 -1.72961 0
M  V30 12951 O 1276.61 1.50563 -1.00997 0
M  V30 12952 C 1276.66 -1.00367 -3.46351 0
M  V30 12953 O 1275.76 -0.103326 -4.12271 0
M  V30 12954 H 1275.1 -0.257997 -0.611828 0
M  V30 12955 H 1277.63 -1.33219 -1.55286 0
M  V30 12956 H 1277.64 -0.946259 -3.96875 0
M  V30 12957 H 1276.32 -2.04504 -3.62148 0
M  V30 12958 H 1274.89 -0.216374 -3.72272 0
M  V30 12959 N 1277.08 1.37613 -0.768148 0
M  V30 12960 C 1277.99 2.34103 -0.152649 0
M  V30 12961 C 1279 1.6 0.683811 0
M  V30 12962 O 1280.18 1.92112 0.604572 0
M  V30 12963 C 1277.25 3.39164 0.718954 0
M  V30 12964 C 1276.31 4.29092 -0.13355 0
M  V30 12965 C 1275.54 5.29135 0.696547 0
M  V30 12966 O 1275.76 5.36618 1.93383 0
M  V30 12967 O 1274.7 6.01804 0.107652 0
M  V30 12968 H 1278.52 2.88462 -0.949899 0
M  V30 12969 H 1276.11 1.39711 -0.529252 0
M  V30 12970 H 1277.99 4.03454 1.21665 0
M  V30 12971 H 1276.66 2.87137 1.49445 0
M  V30 12972 H 1275.57 3.67914 -0.677528 0
M  V30 12973 H 1276.9 4.84413 -0.872048 0
M  V30 12974 N 1278.56 0.518393 1.4883 0
M  V30 12975 C 1279.49 -0.239685 2.32267 0
M  V30 12976 C 1280.47 -0.94613 1.41359 0
M  V30 12977 O 1281.65 -0.934162 1.70256 0
M  V30 12978 C 1278.78 -1.29411 3.22289 0
M  V30 12979 C 1277.74 -0.706504 4.22129 0
M  V30 12980 C 1277.06 -1.86273 5.01205 0
M  V30 12981 C 1278.36 0.314079 5.21355 0
M  V30 12982 H 1280.06 0.4568 2.95895 0
M  V30 12983 H 1277.6 0.221126 1.42292 0
M  V30 12984 H 1279.56 -1.8323 3.7948 0
M  V30 12985 H 1278.28 -2.02001 2.56638 0
M  V30 12986 H 1276.94 -0.189924 3.66108 0
M  V30 12987 H 1276.59 -2.57674 4.31988 0
M  V30 12988 H 1276.29 -1.47554 5.68772 0
M  V30 12989 H 1277.81 -2.40492 5.61245 0
M  V30 12990 H 1279.22 -0.136604 5.73137 0
M  V30 12991 H 1277.62 0.618026 5.96909 0
M  V30 12992 H 1278.69 1.22394 4.69199 0
M  V30 12993 N 1280.03 -1.55556 0.252993 0
M  V30 12994 C 1280.98 -2.18298 -0.658028 0
M  V30 12995 C 1281.97 -1.14072 -1.13474 0
M  V30 12996 O 1283.16 -1.39962 -1.0835 0
M  V30 12997 C 1280.29 -2.89067 -1.8519 0
M  V30 12998 C 1279.38 -4.00556 -1.3934 0
M  V30 12999 N 1279.77 -5.01612 -0.649538 0
M  V30 13000 C 1278.06 -4.13222 -1.67819 0
M  V30 13001 C 1278.77 -5.80244 -0.411347 0
M  V30 13002 N 1277.74 -5.34742 -0.977342 0
M  V30 13003 H 1281.54 -2.93787 -0.0816162 0
M  V30 13004 H 1279.06 -1.62305 0.0555728 0
M  V30 13005 H 1281.05 -3.32448 -2.51563 0
M  V30 13006 H 1279.71 -2.15082 -2.43248 0
M  V30 13007 H 1280.73 -5.17036 -0.299043 0
M  V30 13008 H 1277.4 -3.50414 -2.26972 0
M  V30 13009 H 1278.79 -6.71651 0.182911 0
M  V30 13010 N 1281.51 0.0200419 -1.57587 0
M  V30 13011 C 1282.76 0.709027 -1.89681 0
M  V30 13012 C 1283.09 1.74876 -0.851396 0
M  V30 13013 O 1282.34 1.95151 0.146483 0
M  V30 13014 C 1282.64 1.40729 -3.28527 0
M  V30 13015 C 1282.31 0.502686 -4.48089 0
M  V30 13016 C 1280.97 0.253558 -4.80532 0
M  V30 13017 C 1283.32 -0.121338 -5.21059 0
M  V30 13018 C 1280.65 -0.628221 -5.83327 0
M  V30 13019 C 1283 -0.990873 -6.24792 0
M  V30 13020 C 1281.67 -1.24937 -6.55703 0
M  V30 13021 H 1280.94 0.259451 -0.694094 0
M  V30 13022 H 1283.58 -0.03118 -1.91475 0
M  V30 13023 H 1281.89 2.22105 -3.22764 0
M  V30 13024 H 1283.58 1.94609 -3.50611 0
M  V30 13025 H 1280.17 0.707018 -4.22728 0
M  V30 13026 H 1284.36 0.0581516 -4.96266 0
M  V30 13027 H 1279.61 -0.836712 -6.05648 0
M  V30 13028 H 1283.79 -1.48087 -6.80473 0
M  V30 13029 H 1281.42 -1.93436 -7.35178 0
M  V30 13030 N 1282.99 1.54862 0.292472 0
M  V30 13031 C 1284.24 1.74807 1.02813 0
M  V30 13032 C 1284.57 0.536935 1.8663 0
M  V30 13033 O 1283.84 -0.465854 1.88839 0
M  V30 13034 C 1284.13 3.04202 1.927 0
M  V30 13035 C 1283.98 4.35631 1.12006 0
M  V30 13036 C 1285.3 3.29514 2.91734 0
M  V30 13037 H 1282.42 0.636015 0.372362 0
M  V30 13038 H 1285.06 1.87583 0.302069 0
M  V30 13039 H 1283.21 2.9344 2.54608 0
M  V30 13040 H 1284.88 4.58323 0.52319 0
M  V30 13041 H 1283.13 4.31733 0.42298 0
M  V30 13042 H 1283.8 5.22454 1.78172 0
M  V30 13043 H 1286.27 3.39941 2.39957 0
M  V30 13044 H 1285.15 4.21352 3.51786 0
M  V30 13045 H 1285.41 2.48216 3.65843 0
M  V30 13046 N 1284.47 -0.556076 1.47464 0
M  V30 13047 C 1285.88 -1.1382 1.47993 0
M  V30 13048 C 1286.23 -1.94785 0.235249 0
M  V30 13049 O 1285.36 -2.06098 -0.659752 0
M  V30 13050 C 1285.95 -2.07082 2.68146 0
M  V30 13051 C 1284.51 -2.60564 2.71631 0
M  V30 13052 C 1283.66 -1.36967 2.41113 0
M  V30 13053 H 1286.61 -0.34262 1.54957 0
M  V30 13054 H 1286.63 -2.90975 2.45181 0
M  V30 13055 H 1286.14 -1.48127 3.5872 0
M  V30 13056 H 1284.24 -3.23314 1.852 0
M  V30 13057 H 1284.35 -3.0148 3.72353 0
M  V30 13058 H 1282.72 -1.67678 1.91719 0
M  V30 13059 H 1283.5 -0.79803 3.33896 0
M  V30 13060 N 1285.95 -1.35615 -0.802897 0
M  V30 13061 C 1286.86 -1.3096 -1.94645 0
M  V30 13062 C 1287.87 -0.213909 -1.7268 0
M  V30 13063 O 1289.05 -0.443932 -1.96446 0
M  V30 13064 C 1286.11 -1.08483 -3.2929 0
M  V30 13065 C 1285.18 -2.27401 -3.64126 0
M  V30 13066 C 1284.41 -2.05987 -4.92347 0
M  V30 13067 O 1284.63 -1.02819 -5.61057 0
M  V30 13068 O 1283.57 -2.93439 -5.25526 0
M  V30 13069 H 1287.39 -2.27209 -2.01519 0
M  V30 13070 H 1284.98 -1.16024 -0.941214 0
M  V30 13071 H 1286.86 -0.978118 -4.09891 0
M  V30 13072 H 1285.53 -0.152885 -3.23339 0
M  V30 13073 H 1284.44 -2.43638 -2.83886 0
M  V30 13074 H 1285.77 -3.19055 -3.74786 0
M  V30 13075 N 1287.43 1.02549 -1.19673 0
M  V30 13076 C 1288.84 1.57454 -1.00325 0
M  V30 13077 C 1289.19 1.91136 0.442889 0
M  V30 13078 O 1288.31 1.7126 1.32284 0
M  V30 13079 C 1288.91 2.86091 -1.81486 0
M  V30 13080 C 1287.47 3.37557 -1.6653 0
M  V30 13081 C 1286.61 2.1096 -1.79975 0
M  V30 13082 H 1289.56 0.850364 -1.33994 0
M  V30 13083 H 1289.59 3.5713 -1.31296 0
M  V30 13084 H 1289.1 2.61546 -2.86733 0
M  V30 13085 H 1287.2 3.67083 -0.638834 0
M  V30 13086 H 1287.31 4.1036 -2.47269 0
M  V30 13087 H 1285.68 2.22993 -1.23071 0
M  V30 13088 H 1286.46 1.88852 -2.86688 0
M  V30 13089 N 1288.9 1.00119 1.21713 0
M  V30 13090 C 1290.13 0.700172 1.95224 0
M  V30 13091 C 1290.55 -0.730138 1.73351 0
M  V30 13092 O 1289.91 -1.50026 1.01794 0
M  V30 13093 C 1289.96 1.02202 3.45814 0
M  V30 13094 O 1289.06 0.125188 4.1221 0
M  V30 13095 H 1288.4 0.261238 0.610451 0
M  V30 13096 H 1290.93 1.34041 1.54578 0
M  V30 13097 H 1290.94 0.967293 3.96368 0
M  V30 13098 H 1289.62 2.06422 3.61058 0
M  V30 13099 H 1288.2 0.236114 3.72152 0
M  V30 13100 N 1290.38 -1.37203 0.775435 0
M  V30 13101 C 1291.61 -2.04396 0.351737 0
M  V30 13102 C 1292.03 -1.58099 -1.01913 0
M  V30 13103 O 1291.39 -0.742932 -1.65379 0
M  V30 13104 C 1291.44 -3.58283 0.408105 0
M  V30 13105 O 1290.54 -4.08156 -0.590104 0
M  V30 13106 H 1289.88 -0.646451 0.151647 0
M  V30 13107 H 1292.41 -1.75443 1.05265 0
M  V30 13108 H 1292.42 -4.07127 0.266711 0
M  V30 13109 H 1291.1 -3.91335 1.40819 0
M  V30 13110 H 1289.67 -3.70622 -0.411524 0
M  V30 13111 N 1291.86 -0.526279 -1.48553 0
M  V30 13112 C 1293.09 0.0052277 -2.06899 0
M  V30 13113 C 1293.5 1.2849 -1.38332 0
M  V30 13114 O 1292.86 1.76354 -0.469648 0
M  V30 13115 C 1292.91 0.236709 -3.60724 0
M  V30 13116 O 1292.63 -0.992256 -4.26715 0
M  V30 13117 C 1294.13 0.809014 -4.35855 0
M  V30 13118 H 1291.35 -0.0318426 -0.670244 0
M  V30 13119 H 1293.9 -0.730865 -1.90994 0
M  V30 13120 H 1292.05 0.922842 -3.76248 0
M  V30 13121 H 1292.47 -0.770697 -5.18807 0
M  V30 13122 H 1293.94 0.920428 -5.44272 0
M  V30 13123 H 1294.42 1.81302 -4.00033 0
M  V30 13124 H 1295.02 0.159564 -4.25001 0
M  V30 13125 N 1293.34 1.5542 -0.261239 0
M  V30 13126 C 1294.27 2.18043 0.673222 0
M  V30 13127 C 1295.25 1.13696 1.16242 0
M  V30 13128 O 1296.43 1.42153 1.23793 0
M  V30 13129 C 1293.56 2.7926 1.91655 0
M  V30 13130 C 1292.61 3.96788 1.56402 0
M  V30 13131 S 1293.44 5.31489 0.654191 0
M  V30 13132 C 1294.59 5.96167 1.9062 0
M  V30 13133 H 1294.83 2.96965 0.141076 0
M  V30 13134 H 1292.36 1.54333 -0.0455871 0
M  V30 13135 H 1294.32 3.15162 2.63026 0
M  V30 13136 H 1292.98 2.00257 2.41983 0
M  V30 13137 H 1292.17 4.38262 2.48882 0
M  V30 13138 H 1291.77 3.62237 0.930618 0
M  V30 13139 H 1294.07 6.14556 2.8518 0
M  V30 13140 H 1295.01 6.91269 1.53471 0
M  V30 13141 H 1295.42 5.25381 2.06483 0
M  V30 13142 N 1294.82 -0.0116844 1.57596 0
M  V30 13143 C 1296.06 -0.697577 1.89679 0
M  V30 13144 C 1296.38 -1.74956 0.861122 0
M  V30 13145 O 1295.65 -1.95629 -0.103031 0
M  V30 13146 H 1294.23 -0.26064 0.700054 0
M  V30 13147 H 1296.9 0.0264782 1.94882 0
M  V30 13148 H 1295.99 -1.17621 2.89088 0
M  V30 13149 N 1296.29 -1.55015 -0.284256 0
M  V30 13150 C 1297.22 -1.90128 -1.3555 0
M  V30 13151 C 1298.2 -0.761914 -1.52082 0
M  V30 13152 O 1299.39 -1.01909 -1.65312 0
M  V30 13153 C 1296.52 -2.16332 -2.71695 0
M  V30 13154 C 1295.47 -3.32166 -2.69907 0
M  V30 13155 C 1294.8 -3.43824 -4.09498 0
M  V30 13156 C 1296.1 -4.6885 -2.30168 0
M  V30 13157 H 1297.79 -2.79852 -1.06411 0
M  V30 13158 H 1295.34 -1.34649 -0.510451 0
M  V30 13159 H 1297.29 -2.39482 -3.46737 0
M  V30 13160 H 1296.02 -1.23395 -3.02392 0
M  V30 13161 H 1294.68 -3.08965 -1.97322 0
M  V30 13162 H 1294.32 -2.48375 -4.374 0
M  V30 13163 H 1294.02 -4.21698 -4.092 0
M  V30 13164 H 1295.55 -3.69254 -4.86296 0
M  V30 13165 H 1296.96 -4.91619 -2.9493 0
M  V30 13166 H 1295.36 -5.49558 -2.41052 0
M  V30 13167 H 1296.43 -4.68433 -1.25294 0
M  V30 13168 N 1297.77 0.548248 -1.47757 0
M  V30 13169 C 1299.05 1.3092 -1.45325 0
M  V30 13170 C 1299.43 2.1053 -0.155008 0
M  V30 13171 O 1298.78 2.11558 0.863455 0
M  V30 13172 C 1298.99 2.20614 -2.70426 0
M  V30 13173 C 1300.33 2.81345 -3.18009 0
M  V30 13174 O 1301.36 2.30911 -2.71216 0
M  V30 13175 O 1300.22 3.73036 -3.99383 0
M  V30 13176 H 1297.31 0.58996 -0.579548 0
M  V30 13177 H 1299.86 0.56641 -1.59968 0
M  V30 13178 H 1298.63 1.61449 -3.56441 0
M  V30 13179 H 1298.25 3.02173 -2.58413 0
M  V30 13180 N 1299.25 1.36039 0.795694 0
M  V30 13181 C 1300.18 1.32528 1.92246 0
M  V30 13182 C 1301.16 0.197805 1.68946 0
M  V30 13183 O 1302.35 0.394474 1.90151 0
M  V30 13184 C 1299.48 1.10748 3.29169 0
M  V30 13185 C 1298.43 2.20253 3.66978 0
M  V30 13186 C 1297.76 1.83624 5.02181 0
M  V30 13187 C 1299.06 3.62296 3.76216 0
M  V30 13188 H 1300.75 2.2681 1.95442 0
M  V30 13189 H 1298.3 1.09181 0.938908 0
M  V30 13190 H 1300.25 1.06929 4.07608 0
M  V30 13191 H 1298.97 0.129141 3.26345 0
M  V30 13192 H 1297.63 2.23187 2.90832 0
M  V30 13193 H 1297.28 0.843804 4.95872 0
M  V30 13194 H 1296.98 2.56935 5.28449 0
M  V30 13195 H 1298.5 1.81349 5.83048 0
M  V30 13196 H 1299.92 3.61623 4.44861 0
M  V30 13197 H 1298.31 4.34459 4.13963 0
M  V30 13198 H 1299.38 3.97657 2.77483 0
M  V30 13199 N 1300.73 -1.01913 1.20215 0
M  V30 13200 C 1301.69 -2.08563 0.950481 0
M  V30 13201 C 1302.69 -1.60634 -0.0729659 0
M  V30 13202 O 1303.88 -1.73437 0.162826 0
M  V30 13203 C 1301.01 -3.38171 0.430453 0
M  V30 13204 H 1302.21 -2.32323 1.89647 0
M  V30 13205 H 1299.76 -1.18674 1.01716 0
M  V30 13206 H 1300.49 -3.20086 -0.521126 0
M  V30 13207 H 1300.28 -3.74284 1.1685 0
M  V30 13208 H 1301.77 -4.16702 0.273781 0
M  V30 13209 N 1302.21 -1.00763 -1.2118 0
M  V30 13210 C 1303.48 -0.607236 -1.85935 0
M  V30 13211 C 1303.86 0.915048 -1.90237 0
M  V30 13212 O 1303.21 1.80308 -1.40361 0
M  V30 13213 C 1303.42 -1.24466 -3.26051 0
M  V30 13214 C 1304.77 -1.35443 -4.02418 0
M  V30 13215 O 1305.79 -1.20018 -3.35372 0
M  V30 13216 O 1304.65 -1.60282 -5.22467 0
M  V30 13217 H 1301.75 -0.208338 -0.800328 0
M  V30 13218 H 1304.29 -1.10444 -1.28842 0
M  V30 13219 H 1303.06 -2.28524 -3.17635 0
M  V30 13220 H 1302.69 -0.733966 -3.90767 0
M  V30 13221 N 1303.68 1.3679 -0.7827 0
M  V30 13222 C 1304.93 1.99023 -0.351316 0
M  V30 13223 C 1305.25 1.62436 1.07887 0
M  V30 13224 O 1304.52 0.895084 1.74256 0
M  V30 13225 H 1303.1 0.736141 -0.126909 0
M  V30 13226 H 1305.77 1.67095 -1.00325 0
M  V30 13227 H 1304.86 3.09015 -0.43774 0
M  V30 13228 N 1305.16 0.53415 1.48272 0
M  V30 13229 C 1306.11 -0.246268 2.26666 0
M  V30 13230 C 1307.1 -0.906149 1.32958 0
M  V30 13231 O 1308.29 -0.808266 1.57468 0
M  V30 13232 C 1305.42 -1.29001 3.18141 0
M  V30 13233 C 1304.5 -0.634704 4.19324 0
M  V30 13234 N 1304.89 0.281972 5.05013 0
M  V30 13235 C 1303.19 -0.891412 4.37001 0
M  V30 13236 C 1303.89 0.660411 5.77939 0
M  V30 13237 N 1302.87 0.0205295 5.43596 0
M  V30 13238 H 1306.67 0.458881 2.90296 0
M  V30 13239 H 1304.19 0.352466 1.58529 0
M  V30 13240 H 1306.18 -1.86285 3.72966 0
M  V30 13241 H 1304.84 -1.99649 2.56067 0
M  V30 13242 H 1305.85 0.654819 5.13744 0
M  V30 13243 H 1302.53 -1.58815 3.86114 0
M  V30 13244 H 1303.92 1.41231 6.56889 0
M  V30 13245 N 1306.64 -1.55279 0.269478 0
M  V30 13246 C 1307.57 -2.25278 -0.614188 0
M  V30 13247 C 1308.55 -1.24092 -1.1634 0
M  V30 13248 O 1309.74 -1.52799 -1.19858 0
M  V30 13249 C 1306.87 -2.96956 -1.80096 0
M  V30 13250 C 1305.82 -4.05021 -1.38353 0
M  V30 13251 C 1305.15 -4.64244 -2.65295 0
M  V30 13252 C 1306.45 -5.19523 -0.537886 0
M  V30 13253 H 1308.14 -2.99385 -0.0304397 0
M  V30 13254 H 1305.69 -1.43994 -0.0132004 0
M  V30 13255 H 1307.64 -3.44633 -2.42499 0
M  V30 13256 H 1306.36 -2.20374 -2.41045 0
M  V30 13257 H 1305.02 -3.58146 -0.78273 0
M  V30 13258 H 1304.67 -3.84337 -3.2449 0
M  V30 13259 H 1304.37 -5.37208 -2.38079 0
M  V30 13260 H 1305.89 -5.14668 -3.28557 0
M  V30 13261 H 1307.31 -5.63287 -1.06677 0
M  V30 13262 H 1305.71 -5.99014 -0.360845 0
M  V30 13263 H 1306.78 -4.82857 0.444672 0
M  V30 13264 N 1308.12 0.00332656 -1.576 0
M  V30 13265 C 1309.4 0.725722 -1.81639 0
M  V30 13266 C 1309.78 1.92173 -0.87365 0
M  V30 13267 O 1309.12 2.28365 0.0783931 0
M  V30 13268 C 1309.33 1.13458 -3.30043 0
M  V30 13269 C 1310.68 1.53982 -3.95695 0
M  V30 13270 O 1311.71 1.22846 -3.34346 0
M  V30 13271 O 1310.56 2.11866 -5.03761 0
M  V30 13272 H 1307.66 0.353083 -0.747838 0
M  V30 13273 H 1310.2 -0.0218724 -1.69686 0
M  V30 13274 H 1308.98 0.281925 -3.90283 0
M  V30 13275 H 1308.6 1.94138 -3.46982 0
M  V30 13276 N 1309.6 1.55164 0.276031 0
M  V30 13277 C 1310.82 1.7998 1.03063 0
M  V30 13278 C 1311.25 0.569769 1.79263 0
M  V30 13279 O 1310.6 -0.48054 1.74816 0
M  V30 13280 C 1310.65 3.02209 1.96728 0
M  V30 13281 O 1309.76 2.77083 3.05449 0
M  V30 13282 H 1309.1 0.594963 0.294814 0
M  V30 13283 H 1311.63 2.02301 0.305861 0
M  V30 13284 H 1311.64 3.3086 2.38738 0
M  V30 13285 H 1310.31 3.91386 1.40677 0
M  V30 13286 H 1308.89 2.5952 2.67776 0
M  V30 13287 N 1311.07 -0.540404 1.48045 0
M  V30 13288 C 1312.01 -1.66223 1.56349 0
M  V30 13289 C 1312.99 -1.57227 0.414552 0
M  V30 13290 O 1314.17 -1.77847 0.624709 0
M  V30 13291 C 1311.3 -3.04568 1.48176 0
M  V30 13292 C 1310.34 -3.31957 2.67781 0
M  V30 13293 S 1311.18 -3.19368 4.29842 0
M  V30 13294 C 1312.33 -4.60177 4.2425 0
M  V30 13295 H 1312.56 -1.58927 2.51256 0
M  V30 13296 H 1310.1 -0.722554 1.3645 0
M  V30 13297 H 1312.06 -3.84359 1.44147 0
M  V30 13298 H 1310.72 -3.09314 0.54625 0
M  V30 13299 H 1309.91 -4.32855 2.58172 0
M  V30 13300 H 1309.51 -2.59817 2.69019 0
M  V30 13301 H 1311.8 -5.51482 3.9354 0
M  V30 13302 H 1312.75 -4.74842 5.25291 0
M  V30 13303 H 1313.15 -4.39011 3.54865 0
M  V30 13304 N 1312.55 -1.36459 -0.788468 0
M  V30 13305 C 1313.83 -1.21289 -1.53455 0
M  V30 13306 C 1314.21 0.200549 -2.10145 0
M  V30 13307 O 1313.56 1.20629 -1.94064 0
M  V30 13308 C 1313.77 -2.29562 -2.62873 0
M  V30 13309 C 1315.12 -2.66277 -3.30729 0
M  V30 13310 O 1316.14 -2.28612 -2.73157 0
M  V30 13311 O 1315 -3.31106 -4.34777 0
M  V30 13312 H 1312.09 -0.472306 -0.678864 0
M  V30 13313 H 1314.64 -1.48192 -0.826869 0
M  V30 13314 H 1313.41 -3.24286 -2.18984 0
M  V30 13315 H 1313.03 -2.0403 -3.41259 0
M  V30 13316 N 1314.03 1.01274 -1.20754 0
M  V30 13317 C 1315.28 1.75298 -1.03161 0
M  V30 13318 C 1315.63 1.87504 0.431299 0
M  V30 13319 O 1314.92 1.39262 1.31593 0
M  V30 13320 C 1315.12 3.16862 -1.65329 0
M  V30 13321 C 1314.95 3.18459 -3.17513 0
M  V30 13322 C 1313.72 3.25479 -3.86512 0
M  V30 13323 C 1315.92 3.04195 -4.14693 0
M  V30 13324 N 1313.9 3.1662 -5.25951 0
M  V30 13325 C 1315.27 3.03149 -5.40833 0
M  V30 13326 C 1317.32 2.8844 -4.05841 0
M  V30 13327 C 1316.03 2.87963 -6.59143 0
M  V30 13328 C 1318.05 2.74609 -5.23779 0
M  V30 13329 C 1317.41 2.74232 -6.48827 0
M  V30 13330 H 1313.51 0.652001 -0.431762 0
M  V30 13331 H 1316.1 1.2043 -1.52986 0
M  V30 13332 H 1314.27 3.70015 -1.18082 0
M  V30 13333 H 1316 3.79337 -1.41015 0
M  V30 13334 H 1312.76 3.3236 -3.37392 0
M  V30 13335 H 1313.18 3.15554 -5.98961 0
M  V30 13336 H 1317.82 2.87542 -3.09967 0
M  V30 13337 H 1315.54 2.87609 -7.55186 0
M  V30 13338 H 1319.13 2.6343 -5.18745 0
M  V30 13339 H 1318.01 2.63653 -7.38551 0
M  V30 13340 N 1315.51 1.01404 1.20644 0
M  V30 13341 C 1316.44 0.602465 2.25594 0
M  V30 13342 C 1317.42 -0.381216 1.65773 0
M  V30 13343 O 1318.61 -0.267209 1.92353 0
M  V30 13344 C 1315.74 -0.0626245 3.47244 0
M  V30 13345 C 1314.69 0.841776 4.1964 0
M  V30 13346 C 1314.02 0.0426002 5.34683 0
M  V30 13347 C 1315.32 2.14864 4.76058 0
M  V30 13348 H 1317.01 1.47977 2.60275 0
M  V30 13349 H 1314.56 0.712966 1.25111 0
M  V30 13350 H 1316.51 -0.362095 4.19841 0
M  V30 13351 H 1315.23 -0.974627 3.11719 0
M  V30 13352 H 1313.89 1.12521 3.48905 0
M  V30 13353 H 1313.54 -0.870973 4.95402 0
M  V30 13354 H 1313.24 0.644866 5.84051 0
M  V30 13355 H 1314.76 -0.250476 6.10086 0
M  V30 13356 H 1316.18 1.9117 5.40488 0
M  V30 13357 H 1314.57 2.70153 5.35852 0
M  V30 13358 H 1315.64 2.81336 3.9494 0
M  V30 13359 N 1316.99 -1.36373 0.789944 0
M  V30 13360 C 1317.9 -2.3383 0.189873 0
M  V30 13361 C 1318.91 -1.61068 -0.65827 0
M  V30 13362 O 1320.09 -1.93049 -0.573932 0
M  V30 13363 C 1317.15 -3.40264 -0.664905 0
M  V30 13364 C 1316.22 -4.28825 0.201798 0
M  V30 13365 C 1315.45 -5.30176 -0.612278 0
M  V30 13366 O 1315.67 -5.39627 -1.84821 0
M  V30 13367 O 1314.61 -6.01899 -0.0118964 0
M  V30 13368 H 1318.43 -2.86915 0.995671 0
M  V30 13369 H 1316.02 -1.38852 0.551412 0
M  V30 13370 H 1317.9 -4.05339 -1.15231 0
M  V30 13371 H 1316.57 -2.89478 -1.44858 0
M  V30 13372 H 1315.48 -3.66789 0.735974 0
M  V30 13373 H 1316.81 -4.82965 0.949003 0
M  V30 13374 N 1318.47 -0.542005 -1.47987 0
M  V30 13375 C 1319.4 0.202703 -2.32618 0
M  V30 13376 C 1320.38 0.923521 -1.42846 0
M  V30 13377 O 1321.56 0.906957 -1.7172 0
M  V30 13378 C 1318.69 1.24267 -3.24307 0
M  V30 13379 C 1317.65 0.639257 -4.23199 0
M  V30 13380 C 1316.97 1.78275 -5.04105 0
M  V30 13381 C 1318.27 -0.396982 -5.20789 0
M  V30 13382 H 1319.97 -0.503817 -2.95131 0
M  V30 13383 H 1317.51 -0.243736 -1.41922 0
M  V30 13384 H 1319.46 1.7717 -3.82347 0
M  V30 13385 H 1318.19 1.97893 -2.59819 0
M  V30 13386 H 1316.85 0.131655 -3.66364 0
M  V30 13387 H 1316.5 2.50768 -4.36032 0
M  V30 13388 H 1316.2 1.38487 -5.71047 0
M  V30 13389 H 1317.72 2.31533 -5.65 0
M  V30 13390 H 1319.13 0.0454057 -5.73282 0
M  V30 13391 H 1317.53 -0.712911 -5.9585 0
M  V30 13392 H 1318.6 -1.29843 -4.67193 0
M  V30 13393 N 1319.94 1.55134 -0.277709 0
M  V30 13394 C 1321.17 2.04519 0.344472 0
M  V30 13395 C 1321.59 1.15466 1.4849 0
M  V30 13396 O 1320.95 0.153798 1.80646 0
M  V30 13397 C 1321 3.51602 0.800527 0
M  V30 13398 O 1320.1 3.65632 1.90754 0
M  V30 13399 H 1319.44 0.660212 0.0708226 0
M  V30 13400 H 1321.97 2.00393 -0.412764 0
M  V30 13401 H 1321.98 3.93015 1.09559 0
M  V30 13402 H 1320.66 4.15886 -0.033838 0
M  V30 13403 H 1319.24 3.36122 1.61481 0
M  V30 13404 N 1321.42 0.00503138 1.57599 0
M  V30 13405 C 1322.65 -0.693231 1.95471 0
M  V30 13406 C 1323.07 -1.66233 0.880246 0
M  V30 13407 O 1322.43 -1.80582 -0.161164 0
M  V30 13408 C 1322.48 -1.39696 3.32442 0
M  V30 13409 O 1321.58 -2.51154 3.27101 0
M  V30 13410 H 1320.92 -0.184015 0.637992 0
M  V30 13411 H 1323.45 0.0597194 2.04513 0
M  V30 13412 H 1323.46 -1.75924 3.68123 0
M  V30 13413 H 1322.14 -0.686438 4.10196 0
M  V30 13414 H 1320.71 -2.17216 3.03103 0
M  V30 13415 N 1322.9 -1.55308 -0.267798 0
M  V30 13416 C 1324.15 -1.75811 -0.996734 0
M  V30 13417 C 1324.47 -0.565161 -1.8663 0
M  V30 13418 O 1323.74 0.419775 -1.9135 0
M  V30 13419 H 1322.32 -0.648353 -0.371008 0
M  V30 13420 H 1324.98 -1.92719 -0.290775 0
M  V30 13421 H 1324.08 -2.66113 -1.63064 0
M  V30 13422 N 1324.38 0.532545 -1.4833 0
M  V30 13423 C 1325.63 1.28597 -1.55908 0
M  V30 13424 C 1325.95 1.93595 -0.233635 0
M  V30 13425 O 1325.22 1.81197 0.744605 0
M  V30 13426 H 1323.8 0.477619 -0.57436 0
M  V30 13427 H 1326.46 0.619922 -1.84778 0
M  V30 13428 H 1325.55 2.0666 -2.33877 0
M  V30 13429 N 1325.86 1.36875 0.78122 0
M  V30 13430 C 1327.27 1.28236 1.35692 0
M  V30 13431 C 1327.62 -0.0742286 1.9606 0
M  V30 13432 O 1326.74 -0.97588 1.93146 0
M  V30 13433 C 1327.34 2.32215 2.46702 0
M  V30 13434 C 1325.9 2.2724 3.00065 0
M  V30 13435 C 1325.04 2.16553 1.73206 0
M  V30 13436 H 1327.99 1.47634 0.582217 0
M  V30 13437 H 1328.02 1.96333 3.25935 0
M  V30 13438 H 1327.53 3.30938 2.02735 0
M  V30 13439 H 1325.63 1.3201 3.48431 0
M  V30 13440 H 1325.74 3.20267 3.56323 0
M  V30 13441 H 1324.11 1.62941 1.95761 0
M  V30 13442 H 1324.89 3.17176 1.31356 0
M  V30 13443 N 1327.33 -1.00632 1.21289 0
M  V30 13444 C 1328.58 -1.74647 1.03084 0
M  V30 13445 C 1328.91 -1.89271 -0.43476 0
M  V30 13446 O 1328.19 -1.42607 -1.32263 0
M  V30 13447 C 1328.47 -3.15981 1.72709 0
M  V30 13448 C 1328.32 -3.09088 3.2678 0
M  V30 13449 C 1329.64 -4.14875 1.46857 0
M  V30 13450 H 1326.76 -0.633938 0.375889 0
M  V30 13451 H 1329.4 -1.17328 1.49446 0
M  V30 13452 H 1327.55 -3.64918 1.33294 0
M  V30 13453 H 1329.23 -2.67875 3.75554 0
M  V30 13454 H 1327.47 -2.46223 3.57151 0
M  V30 13455 H 1328.14 -4.09041 3.70661 0
M  V30 13456 H 1330.62 -3.74637 1.81069 0
M  V30 13457 H 1329.49 -5.1191 1.98088 0
M  V30 13458 H 1329.75 -4.40302 0.398296 0
M  V30 13459 N 1328.81 -1.02043 -1.20104 0
M  V30 13460 C 1329.74 -0.614421 -2.25271 0
M  V30 13461 C 1330.72 0.37242 -1.65973 0
M  V30 13462 O 1331.91 0.257005 -1.92492 0
M  V30 13463 C 1329.04 0.0442085 -3.47272 0
M  V30 13464 C 1327.99 -0.864019 -4.19188 0
M  V30 13465 C 1327.32 -0.0709551 -5.34653 0
M  V30 13466 C 1328.62 -2.17385 -4.74912 0
M  V30 13467 H 1330.31 -1.49355 -2.59487 0
M  V30 13468 H 1327.86 -0.719591 -1.24731 0
M  V30 13469 H 1329.81 0.339825 -4.20028 0
M  V30 13470 H 1328.53 0.958082 -3.12231 0
M  V30 13471 H 1327.19 -1.1437 -3.48303 0
M  V30 13472 H 1326.84 0.844688 -4.95857 0
M  V30 13473 H 1326.54 -0.67583 -5.83701 0
M  V30 13474 H 1328.07 0.218118 -6.1021 0
M  V30 13475 H 1329.48 -1.94034 -5.39466 0
M  V30 13476 H 1327.88 -2.72991 -5.34412 0
M  V30 13477 H 1328.95 -2.83427 -3.93443 0
M  V30 13478 N 1330.29 1.35952 -0.797165 0
M  V30 13479 C 1331.52 2.0381 -0.38421 0
M  V30 13480 C 1331.94 1.597 0.993854 0
M  V30 13481 O 1331.3 0.769148 1.64176 0
M  V30 13482 C 1331.35 3.57589 -0.465054 0
M  V30 13483 O 1330.45 4.09043 0.525095 0
M  V30 13484 H 1329.79 0.643957 -0.161912 0
M  V30 13485 H 1332.32 1.73746 -1.08043 0
M  V30 13486 H 1332.33 4.06651 -0.331448 0
M  V30 13487 H 1331.01 3.89045 -1.47027 0
M  V30 13488 H 1329.58 3.7123 0.352509 0
M  V30 13489 N 1331.77 0.549846 1.47697 0
M  V30 13490 C 1332.7 -0.190364 2.32723 0
M  V30 13491 C 1333.68 -0.915933 1.43334 0
M  V30 13492 O 1334.86 -0.897838 1.72199 0
M  V30 13493 C 1331.99 -1.22545 3.24961 0
M  V30 13494 C 1330.95 -0.616805 4.23532 0
M  V30 13495 C 1330.27 -1.75599 5.05044 0
M  V30 13496 C 1331.57 0.424595 5.20571 0
M  V30 13497 H 1333.27 0.519461 2.94859 0
M  V30 13498 H 1330.81 0.251259 1.41791 0
M  V30 13499 H 1332.77 -1.75139 3.83281 0
M  V30 13500 H 1331.49 -1.96512 2.60865 0
M  V30 13501 H 1330.15 -0.112224 3.66428 0
M  V30 13502 H 1329.8 -2.48453 4.37356 0
M  V30 13503 H 1329.5 -1.35456 5.71774 0
M  V30 13504 H 1331.02 -2.28533 5.6622 0
M  V30 13505 H 1332.44 -0.0150025 5.73298 0
M  V30 13506 H 1330.83 0.7445 5.95464 0
M  V30 13507 H 1331.9 1.32318 4.66497 0
M  V30 13508 N 1333.25 -1.54984 0.285932 0
M  V30 13509 C 1334.21 -2.2164 -0.583824 0
M  V30 13510 C 1335.21 -1.19764 -1.073 0
M  V30 13511 O 1336.4 -1.44598 -0.971439 0
M  V30 13512 C 1333.53 -2.8909 -1.80665 0
M  V30 13513 H 1334.72 -2.999 -0.00168109 0
M  V30 13514 H 1332.28 -1.56257 0.0366325 0
M  V30 13515 H 1333.01 -2.14869 -2.42903 0
M  V30 13516 H 1332.8 -3.63756 -1.4637 0
M  V30 13517 H 1334.29 -3.39982 -2.42491 0
M  V30 13518 N 1334.72 -0.0133892 -1.57594 0
M  V30 13519 C 1336.14 0.527615 -1.7909 0
M  V30 13520 C 1336.49 1.73179 -0.922142 0
M  V30 13521 O 1335.61 2.1602 -0.128233 0
M  V30 13522 C 1336.21 0.963949 -3.24798 0
M  V30 13523 C 1334.77 1.45017 -3.47343 0
M  V30 13524 C 1333.91 0.407548 -2.74289 0
M  V30 13525 H 1336.86 -0.239505 -1.56882 0
M  V30 13526 H 1336.88 1.82924 -3.33645 0
M  V30 13527 H 1336.4 0.0873315 -3.88002 0
M  V30 13528 H 1334.5 2.34724 -2.89371 0
M  V30 13529 H 1334.61 1.4684 -4.56043 0
M  V30 13530 H 1332.97 0.872174 -2.39301 0
M  V30 13531 H 1333.76 -0.460333 -3.402 0
M  V30 13532 N 1336.2 1.55448 0.259558 0
M  V30 13533 C 1337.13 1.9226 1.32508 0
M  V30 13534 C 1338.11 0.786012 1.5085 0
M  V30 13535 O 1339.3 1.04526 1.6367 0
M  V30 13536 C 1336.43 2.20627 2.68218 0
M  V30 13537 C 1335.38 3.36418 2.64589 0
M  V30 13538 C 1334.71 3.50295 4.03977 0
M  V30 13539 C 1336.01 4.72452 2.2268 0
M  V30 13540 H 1337.7 2.81509 1.01945 0
M  V30 13541 H 1335.25 1.35444 0.488965 0
M  V30 13542 H 1337.2 2.44968 3.42883 0
M  V30 13543 H 1335.93 1.28191 3.00391 0
M  V30 13544 H 1334.58 3.12065 1.92382 0
M  V30 13545 H 1334.23 2.55302 4.33394 0
M  V30 13546 H 1333.93 4.28155 4.02439 0
M  V30 13547 H 1335.46 3.76944 4.8036 0
M  V30 13548 H 1336.87 4.96249 2.87071 0
M  V30 13549 H 1335.27 5.53323 2.32279 0
M  V30 13550 H 1336.34 4.70367 1.17826 0
M  V30 13551 N 1337.68 -0.524672 1.4861 0
M  V30 13552 C 1338.91 -1.30958 1.60825 0
M  V30 13553 C 1339.33 -1.86142 0.270682 0
M  V30 13554 O 1338.69 -1.64675 -0.758415 0
M  V30 13555 C 1338.74 -2.43252 2.66197 0
M  V30 13556 O 1337.84 -3.4644 2.23725 0
M  V30 13557 H 1337.18 -0.387638 0.539104 0
M  V30 13558 H 1339.71 -0.630755 1.94635 0
M  V30 13559 H 1339.72 -2.89362 2.87635 0
M  V30 13560 H 1338.4 -2.02449 3.63301 0
M  V30 13561 H 1336.97 -3.06413 2.12522 0
M  V30 13562 N 1339.16 -1.37287 -0.77395 0
M  V30 13563 C 1340.39 -1.35563 -1.56302 0
M  V30 13564 C 1340.8 0.0595356 -1.88706 0
M  V30 13565 O 1340.16 1.02072 -1.51286 0
M  V30 13566 C 1340.21 -2.19195 -2.87464 0
M  V30 13567 O 1339.93 -3.55197 -2.5645 0
M  V30 13568 C 1341.43 -2.25425 -3.81704 0
M  V30 13569 H 1338.65 -0.464431 -0.484298 0
M  V30 13570 H 1341.2 -1.80597 -0.959425 0
M  V30 13571 H 1339.35 -1.77676 -3.44253 0
M  V30 13572 H 1339.76 -3.99011 -3.40427 0
M  V30 13573 H 1341.24 -2.8827 -4.70749 0
M  V30 13574 H 1341.72 -1.26205 -4.20677 0
M  V30 13575 H 1342.32 -2.67247 -3.30846 0
M  V30 13576 N 1340.64 0.999871 -1.21821 0
M  V30 13577 C 1341.86 1.77405 -1.06467 0
M  V30 13578 C 1342.28 1.84828 0.385227 0
M  V30 13579 O 1341.64 1.31338 1.26714 0
M  V30 13580 C 1341.69 3.21062 -1.66137 0
M  V30 13581 O 1341.41 3.14054 -3.05454 0
M  V30 13582 C 1342.91 4.14958 -1.55963 0
M  V30 13583 H 1340.13 0.557368 -0.373607 0
M  V30 13584 H 1342.67 1.2575 -1.61267 0
M  V30 13585 H 1340.83 3.69808 -1.15416 0
M  V30 13586 H 1341.24 4.04346 -3.34073 0
M  V30 13587 H 1342.72 5.13536 -2.02448 0
M  V30 13588 H 1343.19 4.36171 -0.514949 0
M  V30 13589 H 1343.8 3.72105 -2.05956 0
M  V30 13590 N 1342.11 1.02678 1.19562 0
M  V30 13591 C 1343.08 0.610407 2.20922 0
M  V30 13592 C 1344.08 -0.324858 1.57484 0
M  V30 13593 O 1345.27 -0.112153 1.73839 0
M  V30 13594 C 1342.4 -0.107115 3.40732 0
M  V30 13595 H 1343.59 1.50722 2.59274 0
M  V30 13596 H 1341.15 0.817725 1.33203 0
M  V30 13597 H 1341.88 -1.01837 3.07896 0
M  V30 13598 H 1341.67 0.564901 3.88009 0
M  V30 13599 H 1343.16 -0.385423 4.15818 0
M  V30 13600 N 1343.59 -1.35528 0.804364 0
M  V30 13601 C 1345 -1.81321 0.444933 0
M  V30 13602 C 1345.35 -1.66816 -1.03281 0
M  V30 13603 O 1344.48 -1.19753 -1.80245 0
M  V30 13604 C 1345.07 -3.29199 0.800827 0
M  V30 13605 C 1343.63 -3.73144 0.494026 0
M  V30 13606 C 1342.78 -2.57557 1.02761 0
M  V30 13607 H 1345.73 -1.23537 0.996203 0
M  V30 13608 H 1345.75 -3.80375 0.0975117 0
M  V30 13609 H 1345.26 -3.39725 1.8764 0
M  V30 13610 H 1343.37 -3.68169 -0.572901 0
M  V30 13611 H 1343.48 -4.68005 1.0251 0
M  V30 13612 H 1341.84 -2.50692 0.450048 0
M  V30 13613 H 1342.63 -2.70861 2.10925 0
M  V30 13614 N 1345.07 -0.557671 -1.47404 0
M  V30 13615 C 1346.3 -0.0366797 -2.07368 0
M  V30 13616 C 1346.72 1.2478 -1.40754 0
M  V30 13617 O 1346.08 1.74757 -0.48268 0
M  V30 13618 C 1346.13 0.141728 -3.60321 0
M  V30 13619 O 1345.23 1.20419 -3.94427 0
M  V30 13620 H 1344.57 -0.0515319 -0.661997 0
M  V30 13621 H 1347.1 -0.773485 -1.89416 0
M  V30 13622 H 1347.11 0.355787 -4.06446 0
M  V30 13623 H 1345.79 -0.796433 -4.08203 0
M  V30 13624 H 1344.36 0.970589 -3.60047 0
M  V30 13625 N 1346.55 1.54831 -0.294147 0
M  V30 13626 C 1347.48 2.26226 0.57827 0
M  V30 13627 C 1348.46 1.25928 1.14351 0
M  V30 13628 O 1349.65 1.54687 1.17412 0
M  V30 13629 C 1346.78 2.99783 1.75349 0
M  V30 13630 C 1345.73 4.07171 1.31892 0
M  V30 13631 C 1345.06 4.68406 2.57876 0
M  V30 13632 C 1346.36 5.20313 0.455167 0
M  V30 13633 H 1348.05 2.99395 -0.0171936 0
M  V30 13634 H 1345.6 1.43997 -0.00970944 0
M  V30 13635 H 1347.55 3.48448 2.36986 0
M  V30 13636 H 1346.27 2.24181 2.37509 0
M  V30 13637 H 1344.93 3.59346 0.725653 0
M  V30 13638 H 1344.58 3.89451 3.18335 0
M  V30 13639 H 1344.28 5.40927 2.29502 0
M  V30 13640 H 1345.8 5.1983 3.20327 0
M  V30 13641 H 1347.22 5.64913 0.977026 0
M  V30 13642 H 1345.61 5.99512 0.265501 0
M  V30 13643 H 1346.68 4.82088 -0.521434 0
M  V30 13644 N 1348.03 0.0217466 1.57585 0
M  V30 13645 C 1349.27 -0.658487 1.91495 0
M  V30 13646 C 1349.6 -1.72557 0.897462 0
M  V30 13647 O 1348.86 -1.95471 -0.0946909 0
M  V30 13648 C 1349.16 -1.3197 3.32143 0
M  V30 13649 C 1348.82 -0.383706 4.49264 0
M  V30 13650 C 1347.48 -0.126065 4.81035 0
M  V30 13651 C 1349.84 0.259445 5.20554 0
M  V30 13652 C 1347.16 0.782659 5.81456 0
M  V30 13653 C 1349.52 1.15618 6.21945 0
M  V30 13654 C 1348.18 1.42278 6.5216 0
M  V30 13655 H 1347.45 -0.240958 0.700729 0
M  V30 13656 H 1350.1 0.0819351 1.91325 0
M  V30 13657 H 1348.4 -2.13469 3.28539 0
M  V30 13658 H 1350.1 -1.85245 3.55648 0
M  V30 13659 H 1346.69 -0.59469 4.24454 0
M  V30 13660 H 1350.87 0.073445 4.96246 0
M  V30 13661 H 1346.13 0.996995 6.03216 0
M  V30 13662 H 1350.3 1.66077 6.76307 0
M  V30 13663 H 1347.93 2.1286 7.29791 0
M  V30 13664 N 1349.51 -1.55583 -0.251311 0
M  V30 13665 C 1350.73 -1.81597 -1.00186 0
M  V30 13666 C 1351.16 -0.598216 -1.78334 0
M  V30 13667 O 1350.51 0.452667 -1.75558 0
M  V30 13668 C 1350.56 -3.05301 -1.91895 0
M  V30 13669 O 1349.67 -2.81907 -3.01002 0
M  V30 13670 H 1349.01 -0.599578 -0.285311 0
M  V30 13671 H 1351.54 -2.02762 -0.273638 0
M  V30 13672 H 1351.55 -3.34616 -2.33444 0
M  V30 13673 H 1350.22 -3.93574 -1.34433 0
M  V30 13674 H 1348.8 -2.63747 -2.63613 0
M  V30 13675 N 1350.98 0.516783 -1.48886 0
M  V30 13676 C 1352.21 1.29628 -1.61258 0
M  V30 13677 C 1352.63 1.86744 -0.27786 0
M  V30 13678 O 1351.98 1.67061 0.734639 0
M  V30 13679 C 1352.03 2.43779 -2.66935 0
M  V30 13680 O 1351.76 1.89014 -3.95228 0
M  V30 13681 C 1353.26 3.35398 -2.89867 0
M  V30 13682 H 1350.48 0.393736 -0.543335 0
M  V30 13683 H 1353.02 0.622069 -1.94809 0
M  V30 13684 H 1351.18 3.0706 -2.36206 0
M  V30 13685 H 1351.59 2.63833 -4.53312 0
M  V30 13686 H 1353.06 4.11812 -3.6758 0
M  V30 13687 H 1353.54 3.91436 -1.99185 0
M  V30 13688 H 1354.15 2.77898 -3.21952 0
M  V30 13689 N 1352.46 1.37696 0.766659 0
M  V30 13690 C 1353.74 1.23715 1.51506 0
M  V30 13691 C 1354.12 -0.167091 2.10438 0
M  V30 13692 O 1353.47 -1.17526 1.95959 0
M  V30 13693 C 1353.68 2.33715 2.59188 0
M  V30 13694 C 1355.02 2.71504 3.26451 0
M  V30 13695 O 1356.05 2.32929 2.69486 0
M  V30 13696 O 1354.91 3.37981 4.29454 0
M  V30 13697 H 1352 0.483046 0.671264 0
M  V30 13698 H 1354.55 1.49489 0.803188 0
M  V30 13699 H 1353.32 3.27729 2.13797 0
M  V30 13700 H 1352.94 2.09433 3.3797 0
M  V30 13701 N 1353.94 -0.993397 1.22349 0
M  V30 13702 C 1355.19 -1.73287 1.04775 0
M  V30 13703 C 1355.51 -1.89973 -0.417201 0
M  V30 13704 O 1354.77 -1.43966 -1.32561 0
M  V30 13705 C 1355.07 -3.14191 1.70349 0
M  V30 13706 C 1354.73 -3.17421 3.20241 0
M  V30 13707 C 1353.4 -3.1801 3.61141 0
M  V30 13708 C 1355.75 -3.13751 4.16185 0
M  V30 13709 C 1353.08 -3.12628 4.96468 0
M  V30 13710 C 1355.43 -3.09911 5.51487 0
M  V30 13711 C 1354.09 -3.08815 5.91768 0
M  V30 13712 H 1353.36 -0.634102 0.3834 0
M  V30 13713 H 1356.01 -1.16346 1.52105 0
M  V30 13714 H 1354.31 -3.74437 1.15343 0
M  V30 13715 H 1356.01 -3.70149 1.54242 0
M  V30 13716 H 1352.6 -3.17713 2.87674 0
M  V30 13717 H 1356.79 -3.12446 3.85605 0
M  V30 13718 H 1352.04 -3.10125 5.26909 0
M  V30 13719 H 1356.22 -3.06026 6.25556 0
M  V30 13720 H 1353.84 -3.044 6.96595 0
M  V30 13721 N 1355.42 -1.03311 -1.19015 0
M  V30 13722 C 1356.35 -0.638279 -2.24607 0
M  V30 13723 C 1357.33 0.354795 -1.66359 0
M  V30 13724 O 1358.51 0.236574 -1.92754 0
M  V30 13725 C 1355.64 0.00737316 -3.47299 0
M  V30 13726 C 1354.6 -0.908431 -4.18248 0
M  V30 13727 C 1353.92 -0.127658 -5.34548 0
M  V30 13728 C 1355.22 -2.2241 -4.72579 0
M  V30 13729 H 1356.92 -1.52099 -2.57888 0
M  V30 13730 H 1354.46 -0.732779 -1.23961 0
M  V30 13731 H 1356.42 0.295256 -4.20364 0
M  V30 13732 H 1355.14 0.924912 -3.1323 0
M  V30 13733 H 1353.8 -1.18058 -3.47071 0
M  V30 13734 H 1353.45 0.792048 -4.96725 0
M  V30 13735 H 1353.15 -0.737702 -5.82951 0
M  V30 13736 H 1354.67 0.153385 -6.10407 0
M  V30 13737 H 1356.09 -1.99745 -5.37378 0
M  V30 13738 H 1354.48 -2.78644 -5.31486 0
M  V30 13739 H 1355.55 -2.87584 -3.90415 0
M  V30 13740 N 1356.9 1.35099 -0.81154 0
M  V30 13741 C 1358.17 1.93009 -0.317289 0
M  V30 13742 C 1358.55 1.74101 1.19382 0
M  V30 13743 O 1357.9 1.11295 1.99564 0
M  V30 13744 C 1358.11 3.41191 -0.734123 0
M  V30 13745 C 1359.46 4.1834 -0.726437 0
M  V30 13746 O 1360.48 3.49727 -0.67598 0
M  V30 13747 O 1359.34 5.4077 -0.789291 0
M  V30 13748 H 1356.44 0.822707 -0.084153 0
M  V30 13749 H 1358.98 1.44145 -0.895569 0
M  V30 13750 H 1357.75 3.48705 -1.7754 0
M  V30 13751 H 1357.38 3.97384 -0.130919 0
M  V30 13752 N 1358.37 0.56548 1.47106 0
M  V30 13753 C 1359.62 0.0444375 2.02051 0
M  V30 13754 C 1359.94 -1.31344 1.44131 0
M  V30 13755 O 1359.21 -1.85845 0.619556 0
M  V30 13756 H 1357.79 0.0134375 0.746879 0
M  V30 13757 H 1360.45 0.737362 1.80413 0
M  V30 13758 H 1359.55 -0.0374834 3.12077 0
M  V30 13759 N 1359.85 -1.54672 0.302354 0
M  V30 13760 C 1360.8 -2.20281 -0.588245 0
M  V30 13761 C 1361.79 -1.17624 -1.09788 0
M  V30 13762 O 1362.98 -1.43338 -1.03842 0
M  V30 13763 C 1360.11 -2.94812 -1.759 0
M  V30 13764 C 1359.19 -4.04786 -1.26526 0
M  V30 13765 N 1359.58 -5.03425 -0.489625 0
M  V30 13766 C 1357.88 -4.18352 -1.54588 0
M  V30 13767 C 1358.58 -5.81259 -0.226538 0
M  V30 13768 N 1357.56 -5.37581 -0.806723 0
M  V30 13769 H 1361.36 -2.93898 0.0118911 0
M  V30 13770 H 1358.88 -1.62046 0.107181 0
M  V30 13771 H 1360.87 -3.40283 -2.40859 0
M  V30 13772 H 1359.53 -2.22712 -2.36282 0
M  V30 13773 H 1360.54 -5.17726 -0.134401 0
M  V30 13774 H 1357.22 -3.57458 -2.15709 0
M  V30 13775 H 1358.61 -6.70729 0.396499 0
M  V30 13776 N 1361.33 -0.0301034 -1.57571 0
M  V30 13777 C 1362.61 0.68703 -1.83137 0
M  V30 13778 C 1362.99 1.90277 -0.914216 0
M  V30 13779 O 1362.34 2.2848 0.0299358 0
M  V30 13780 C 1362.55 1.06431 -3.32375 0
M  V30 13781 C 1363.89 1.45554 -3.98873 0
M  V30 13782 O 1364.92 1.15727 -3.36877 0
M  V30 13783 O 1363.78 2.01133 -5.08142 0
M  V30 13784 H 1360.87 0.337141 -0.755159 0
M  V30 13785 H 1363.42 -0.0578604 -1.69601 0
M  V30 13786 H 1362.19 0.199077 -3.90793 0
M  V30 13787 H 1361.81 1.86734 -3.51022 0
M  V30 13788 N 1362.81 1.55714 0.243056 0
M  V30 13789 C 1363.74 1.93655 1.30461 0
M  V30 13790 C 1364.72 0.801968 1.50008 0
M  V30 13791 O 1365.9 1.06256 1.62552 0
M  V30 13792 C 1363.03 2.23459 2.65863 0
M  V30 13793 C 1361.99 3.39205 2.61006 0
M  V30 13794 C 1361.31 3.5456 4.00239 0
M  V30 13795 C 1362.61 4.74787 2.17656 0
M  V30 13796 H 1364.31 2.82575 0.98954 0
M  V30 13797 H 1361.85 1.35955 0.474572 0
M  V30 13798 H 1363.81 2.48591 3.40266 0
M  V30 13799 H 1362.53 1.31369 2.99014 0
M  V30 13800 H 1361.19 3.14088 1.89061 0
M  V30 13801 H 1360.84 2.59884 4.30661 0
M  V30 13802 H 1360.54 4.32399 3.97876 0
M  V30 13803 H 1362.06 3.82017 4.76335 0
M  V30 13804 H 1363.48 4.99266 2.81792 0
M  V30 13805 H 1361.87 5.55756 2.26397 0
M  V30 13806 H 1362.94 4.7159 1.12831 0
M  V30 13807 N 1364.29 -0.50888 1.49158 0
M  V30 13808 C 1365.22 -1.62778 1.61356 0
M  V30 13809 C 1366.23 -1.55039 0.496653 0
M  V30 13810 O 1367.42 -1.61115 0.768386 0
M  V30 13811 C 1364.52 -3.01534 1.54694 0
M  V30 13812 C 1363.69 -3.34539 2.81785 0
M  V30 13813 C 1362.75 -4.5267 2.68283 0
M  V30 13814 O 1361.78 -4.54844 3.42207 0
M  V30 13815 N 1362.98 -5.52115 1.79303 0
M  V30 13816 H 1365.75 -1.52744 2.57855 0
M  V30 13817 H 1363.31 -0.696597 1.46148 0
M  V30 13818 H 1365.3 -3.7847 1.43327 0
M  V30 13819 H 1363.87 -3.05535 0.660849 0
M  V30 13820 H 1363.09 -2.46576 3.07561 0
M  V30 13821 H 1364.38 -3.53384 3.66057 0
M  V30 13822 H 1363.77 -5.53153 1.18485 0
M  V30 13823 H 1362.33 -6.28184 1.73863 0
M  V30 13824 N 1365.76 -1.381 -0.759346 0
M  V30 13825 C 1366.69 -1.37578 -1.88665 0
M  V30 13826 C 1367.68 -0.242529 -1.68362 0
M  V30 13827 O 1368.86 -0.444751 -1.89039 0
M  V30 13828 C 1365.99 -1.19437 -3.26117 0
M  V30 13829 C 1364.94 -2.29905 -3.61009 0
M  V30 13830 C 1364.27 -1.96874 -4.97136 0
M  V30 13831 C 1365.57 -3.72143 -3.66479 0
M  V30 13832 H 1367.26 -2.31912 -1.89359 0
M  V30 13833 H 1364.81 -1.11632 -0.909631 0
M  V30 13834 H 1366.76 -1.17698 -4.0463 0
M  V30 13835 H 1365.49 -0.21562 -3.25887 0
M  V30 13836 H 1364.15 -2.3082 -2.84812 0
M  V30 13837 H 1363.79 -0.974979 -4.9346 0
M  V30 13838 H 1363.49 -2.70855 -5.21451 0
M  V30 13839 H 1365.02 -1.96744 -5.78035 0
M  V30 13840 H 1366.43 -3.73291 -4.35117 0
M  V30 13841 H 1364.83 -4.45282 -4.02299 0
M  V30 13842 H 1365.9 -4.04874 -2.66843 0
M  V30 13843 N 1367.24 0.986894 -1.22875 0
M  V30 13844 C 1368.19 2.06271 -0.971398 0
M  V30 13845 C 1369.18 1.607 0.0802173 0
M  V30 13846 O 1370.37 1.76514 -0.131079 0
M  V30 13847 C 1367.5 3.38743 -0.557524 0
M  V30 13848 C 1366.58 3.90931 -1.64419 0
M  V30 13849 N 1366.97 4.16273 -2.87315 0
M  V30 13850 C 1365.27 4.19398 -1.51727 0
M  V30 13851 C 1365.97 4.5878 -3.57625 0
M  V30 13852 N 1364.95 4.62828 -2.85116 0
M  V30 13853 H 1368.75 2.23814 -1.90485 0
M  V30 13854 H 1366.27 1.16913 -1.12717 0
M  V30 13855 H 1368.26 4.1539 -0.354453 0
M  V30 13856 H 1366.92 3.22597 0.368957 0
M  V30 13857 H 1367.93 4.04288 -3.23684 0
M  V30 13858 H 1364.61 4.12291 -0.65742 0
M  V30 13859 H 1366 4.8696 -4.62947 0
M  V30 13860 N 1368.72 1.0394 1.18466 0
M  V30 13861 C 1369.97 0.752904 1.88952 0
M  V30 13862 C 1370.32 -0.711542 1.78759 0
M  V30 13863 O 1369.61 -1.51248 1.17621 0
M  V30 13864 C 1369.81 1.15198 3.38326 0
M  V30 13865 C 1369.64 2.65367 3.63057 0
M  V30 13866 C 1368.41 3.32495 3.80493 0
M  V30 13867 C 1370.61 3.63586 3.63744 0
M  V30 13868 N 1368.59 4.71659 3.92952 0
M  V30 13869 C 1369.96 4.88417 3.81901 0
M  V30 13870 C 1372.01 3.57234 3.46826 0
M  V30 13871 C 1370.72 6.0766 3.84891 0
M  V30 13872 C 1372.74 4.75903 3.51098 0
M  V30 13873 C 1372.1 5.99553 3.69751 0
M  V30 13874 H 1368.2 0.327542 0.710099 0
M  V30 13875 H 1370.79 1.32883 1.42303 0
M  V30 13876 H 1368.96 0.604141 3.83673 0
M  V30 13877 H 1370.69 0.816625 3.96375 0
M  V30 13878 H 1367.45 2.829 3.79822 0
M  V30 13879 H 1367.87 5.43981 4.03006 0
M  V30 13880 H 1372.51 2.62613 3.31352 0
M  V30 13881 H 1370.23 7.02639 3.99153 0
M  V30 13882 H 1373.82 4.72629 3.39284 0
M  V30 13883 H 1372.7 6.89842 3.72945 0
M  V30 13884 N 1370.2 -1.34667 0.818693 0
M  V30 13885 C 1371.48 -1.92838 0.327521 0
M  V30 13886 C 1371.86 -1.74732 -1.18457 0
M  V30 13887 O 1371.2 -1.12352 -1.98971 0
M  V30 13888 C 1371.41 -3.40797 0.752207 0
M  V30 13889 C 1372.76 -4.17948 0.748613 0
M  V30 13890 O 1373.79 -3.49364 0.694517 0
M  V30 13891 O 1372.64 -5.40344 0.817958 0
M  V30 13892 H 1369.74 -0.822249 0.0885148 0
M  V30 13893 H 1372.28 -1.43668 0.9032 0
M  V30 13894 H 1371.06 -3.47759 1.79387 0
M  V30 13895 H 1370.68 -3.97309 0.151992 0
M  V30 13896 N 1371.68 -0.573274 -1.46804 0
M  V30 13897 C 1372.9 -0.0586717 -2.07317 0
M  V30 13898 C 1373.33 1.2328 -1.42069 0
M  V30 13899 O 1372.68 1.74235 -0.501188 0
M  V30 13900 C 1372.73 0.103503 -3.60451 0
M  V30 13901 O 1371.84 1.16229 -3.95682 0
M  V30 13902 H 1371.18 -0.0585504 -0.661414 0
M  V30 13903 H 1373.71 -0.793532 -1.88585 0
M  V30 13904 H 1373.72 0.312658 -4.068 0
M  V30 13905 H 1372.39 -0.839684 -4.07335 0
M  V30 13906 H 1370.97 0.932347 -3.61056 0
M  V30 13907 N 1373.15 1.5451 -0.310553 0
M  V30 13908 C 1374.39 2.02236 0.296659 0
M  V30 13909 C 1374.76 1.19402 1.50357 0
M  V30 13910 O 1375.96 1.5687 2.18278 0
M  V30 13911 C 1374.23 3.51712 0.635107 0
M  V30 13912 S 1375.79 4.21388 1.22382 0
M  V30 13913 H 1372.61 0.705215 0.0905134 0
M  V30 13914 H 1375.21 1.90469 -0.440649 0
M  V30 13915 H 1373.91 4.09628 -0.251619 0
M  V30 13916 H 1373.44 3.67533 1.40295 0
M  V30 13917 H 1375.46 4.27962 2.51124 0
M  V30 13918 N 1374.63 0.0384594 1.57553 0
M  V30 13919 C 1375.56 -0.938444 2.13812 0
M  V30 13920 C 1376.54 -1.33307 1.05657 0
M  V30 13921 O 1377.73 -1.41003 1.33535 0
M  V30 13922 C 1374.86 -2.21764 2.67279 0
M  V30 13923 C 1373.81 -1.96347 3.80305 0
M  V30 13924 C 1373.14 -3.30612 4.20238 0
M  V30 13925 C 1374.44 -1.2952 5.05986 0
M  V30 13926 H 1376.13 -0.469887 2.9569 0
M  V30 13927 H 1373.68 -0.224576 1.42238 0
M  V30 13928 H 1375.63 -2.90493 3.05273 0
M  V30 13929 H 1374.36 -2.70802 1.82576 0
M  V30 13930 H 1373.02 -1.30033 3.42764 0
M  V30 13931 H 1372.66 -3.77427 3.32502 0
M  V30 13932 H 1372.36 -3.14409 4.96408 0
M  V30 13933 H 1373.89 -4.00594 4.60822 0
M  V30 13934 H 1375.3 -1.88264 5.41507 0
M  V30 13935 H 1373.7 -1.23685 5.87216 0
M  V30 13936 H 1374.77 -0.269439 4.84151 0
M  V30 13937 O 1376.15 -1.61171 -0.102964 0
M  V30 13938 H 1376.84 -1.79317 -0.732478 0
M  V30 END ATOM
M  V30 BEGIN BOND
M  V30 END BOND
M  V30 END CTAB
M  END
$$$$
