drugbank_target|Q969I3 Glycine N-acyltransferase-like protein 1 (DB00145)
 OpenBabel12092120083D

  0  0  0     0  0            999 V3000
M  V30 BEGIN CTAB
M  V30 COUNTS 4882 4942 0 0 0
M  V30 BEGIN ATOM
M  V30 1 H -0.908 1.98254 -0.117106 0
M  V30 2 N 0 1.576 0 0
M  V30 3 C 0.933 2.03868 1.02534 0
M  V30 4 C 1.911 0.928543 1.3348 0
M  V30 5 O 3.095 1.19667 1.45644 0
M  V30 6 C 0.222 2.43627 2.35294 0
M  V30 7 C -0.732 3.65373 2.2001 0
M  V30 8 S 0.101 5.13292 1.52614 0
M  V30 9 C 1.257 5.56322 2.86805 0
M  V30 10 H 1.49 2.90518 0.631377 0
M  V30 11 H -0.977 1.52953 0.210867 0
M  V30 12 H 0.981 2.67203 3.11629 0
M  V30 13 H -0.358 1.57376 2.7183 0
M  V30 14 H -1.165 3.90944 3.18086 0
M  V30 15 H -1.563 3.418 1.51819 0
M  V30 16 H 0.729 5.58782 3.83104 0
M  V30 17 H 1.672 6.56266 2.65933 0
M  V30 18 H 2.08 4.83886 2.90714 0
M  V30 19 N 1.4781 -0.272755 1.55222 0
M  V30 20 C 2.7271 -1.00211 1.75045 0
M  V30 21 C 3.0401 -1.87441 0.559046 0
M  V30 22 O 4.2461 -2.63856 0.639698 0
M  V30 23 C 2.7021 -1.83165 3.09804 0
M  V30 24 C 2.3101 -1.008 4.36513 0
M  V30 25 C 4.0541 -2.55529 3.38977 0
M  V30 26 C 1.9611 -1.83194 5.62311 0
M  V30 27 H 0.8911 -0.377878 0.652476 0
M  V30 28 H 3.5421 -0.257776 1.8168 0
M  V30 29 H 1.9241 -2.61694 2.97207 0
M  V30 30 H 3.0981 -0.266855 4.60027 0
M  V30 31 H 1.4131 -0.398897 4.14485 0
M  V30 32 H 4.0101 -3.17578 4.30172 0
M  V30 33 H 4.3531 -3.25825 2.59121 0
M  V30 34 H 4.8861 -1.84029 3.52673 0
M  V30 35 H 1.6251 -1.17318 6.44916 0
M  V30 36 H 1.1451 -2.54905 5.4294 0
M  V30 37 H 2.8241 -2.40552 6.00619 0
M  V30 38 N 2.9562 -1.48159 -0.537278 0
M  V30 39 C 3.8862 -1.65029 -1.6519 0
M  V30 40 C 4.8672 -0.499281 -1.62607 0
M  V30 41 O 6.0522 -0.730972 -1.79918 0
M  V30 42 C 3.1822 -1.68303 -3.03795 0
M  V30 43 C 2.1362 -2.8283 -3.21234 0
M  V30 44 C 1.4622 -2.71189 -4.60826 0
M  V30 45 C 2.7622 -4.24211 -3.04701 0
M  V30 46 H 4.4562 -2.58341 -1.51328 0
M  V30 47 H 2.0022 -1.24325 -0.726585 0
M  V30 48 H 3.9552 -1.78693 -3.81637 0
M  V30 49 H 2.6792 -0.715635 -3.18663 0
M  V30 50 H 1.3382 -2.71983 -2.45807 0
M  V30 51 H 0.9862 -1.72435 -4.7252 0
M  V30 52 H 0.6862 -3.48035 -4.7344 0
M  V30 53 H 2.2102 -2.83537 -5.40777 0
M  V30 54 H 3.6242 -4.3593 -3.72341 0
M  V30 55 H 2.0212 -5.01998 -3.28813 0
M  V30 56 H 3.0912 -4.41184 -2.01209 0
M  V30 57 N 4.4343 0.785586 -1.36625 0
M  V30 58 C 5.3643 1.91259 -1.33949 0
M  V30 59 C 6.3453 1.68795 -0.210325 0
M  V30 60 O 7.5303 1.89854 -0.408561 0
M  V30 61 C 4.6603 3.28339 -1.13186 0
M  V30 62 C 3.6143 3.65335 -2.22967 0
M  V30 63 C 2.9403 5.00806 -1.87342 0
M  V30 64 C 4.2403 3.7352 -3.65075 0
M  V30 65 H 5.9343 1.93755 -2.28253 0
M  V30 66 H 3.4803 0.930788 -1.09874 0
M  V30 67 H 5.4333 4.06804 -1.09948 0
M  V30 68 H 4.1573 3.2624 -0.153332 0
M  V30 69 H 2.8163 2.89169 -2.25337 0
M  V30 70 H 2.4643 4.95233 -0.880545 0
M  V30 71 H 2.1643 5.26529 -2.60846 0
M  V30 72 H 3.6883 5.81687 -1.85667 0
M  V30 73 H 5.1023 4.42168 -3.64911 0
M  V30 74 H 3.4993 4.10731 -4.37516 0
M  V30 75 H 4.5693 2.74527 -3.99703 0
M  V30 76 N 5.9124 1.20967 1.01018 0
M  V30 77 C 6.8604 0.961223 2.1181 0
M  V30 78 C 7.8544 -0.0897034 1.69162 0
M  V30 79 O 9.0604 0.0612271 1.79896 0
M  V30 80 H 5.4354 0.29355 0.692338 0
M  V30 81 H 7.4064 1.90178 2.29946 0
M  V30 82 C 6.1554 0.536854 3.4353 0
M  V30 83 H 5.4784 1.33713 3.76777 0
M  V30 84 H 6.9184 0.402286 4.22087 0
M  V30 85 C 5.3774 -0.751574 3.2841 0
M  V30 86 O 5.9074 -1.80841 3.58691 0
M  V30 87 N 4.1134 -0.716079 2.81639 0
M  V30 88 H 3.6604 0.144236 2.57196 0
M  V30 89 H 3.6184 -1.57847 2.71904 0
M  V30 90 N 7.3905 -1.2043 1.01659 0
M  V30 91 C 8.3385 -2.25249 0.580143 0
M  V30 92 C 9.3325 -1.65057 -0.381115 0
M  V30 93 O 10.5385 -1.78241 -0.251039 0
M  V30 94 H 6.9135 -0.732695 0.169299 0
M  V30 95 H 8.8845 -2.59389 1.47512 0
M  V30 96 C 7.6335 -3.47638 -0.065788 0
M  V30 97 H 6.9565 -3.94233 0.664874 0
M  V30 98 H 8.3965 -4.2268 -0.334282 0
M  V30 99 C 6.8555 -3.10447 -1.3086 0
M  V30 100 O 7.3855 -3.21981 -2.4019 0
M  V30 101 N 5.5915 -2.64996 -1.1927 0
M  V30 102 H 5.1385 -2.55811 -0.303064 0
M  V30 103 H 5.0965 -2.40482 -2.02523 0
M  V30 104 N 8.8686 -0.792821 -1.36206 0
M  V30 105 C 10.0936 -0.377701 -2.03932 0
M  V30 106 C 10.5186 0.998947 -1.59382 0
M  V30 107 O 9.8766 1.64421 -0.763903 0
M  V30 108 C 9.9246 -0.453635 -3.57735 0
M  V30 109 O 9.0286 0.538151 -4.08874 0
M  V30 110 H 8.3696 -0.159855 -0.644471 0
M  V30 111 H 10.8996 -1.07488 -1.7409 0
M  V30 112 H 10.9096 -0.318464 -4.06755 0
M  V30 113 H 9.5846 -1.45784 -3.89512 0
M  V30 114 H 8.1616 0.364359 -3.71116 0
M  V30 115 N 10.3467 1.47872 -0.545128 0
M  V30 116 C 11.2967 2.26842 0.229456 0
M  V30 117 C 12.2807 1.33626 0.896267 0
M  V30 118 O 13.4727 1.58063 0.79657 0
M  V30 119 C 10.6017 3.19089 1.26638 0
M  V30 120 C 9.6877 4.19783 0.603598 0
M  V30 121 N 10.0787 5.0479 -0.319405 0
M  V30 122 C 8.3767 4.3765 0.858989 0
M  V30 123 C 9.0777 5.77433 -0.703241 0
M  V30 124 N 8.0537 5.43566 -0.0608309 0
M  V30 125 H 11.8557 2.89947 -0.480391 0
M  V30 126 H 9.3697 1.58263 -0.364209 0
M  V30 127 H 11.3667 3.74337 1.83515 0
M  V30 128 H 10.0267 2.5754 1.97745 0
M  V30 129 H 11.0377 5.13244 -0.692889 0
M  V30 130 H 7.7147 3.87281 1.55948 0
M  V30 131 H 9.1047 6.55824 -1.46098 0
M  V30 132 N 11.8248 0.280983 1.55075 0
M  V30 133 C 12.7718 -0.603937 2.22758 0
M  V30 134 C 13.7418 -1.1452 1.20309 0
M  V30 135 O 14.9268 -1.19343 1.48869 0
M  V30 136 C 12.0668 -1.77947 2.95684 0
M  V30 137 C 11.1798 -1.2715 4.12864 0
M  V30 138 C 10.3148 -2.4093 4.7342 0
M  V30 139 C 9.3538 -1.87165 5.82783 0
M  V30 140 N 8.4908 -2.94441 6.37377 0
M  V30 141 H 13.3308 -0.020124 2.97993 0
M  V30 142 H 10.8678 0.00183425 1.471 0
M  V30 143 H 12.8258 -2.47055 3.36184 0
M  V30 144 H 11.4558 -2.33522 2.22861 0
M  V30 145 H 10.5078 -0.473331 3.77444 0
M  V30 146 H 11.8198 -0.837751 4.91715 0
M  V30 147 H 10.9738 -3.18021 5.1667 0
M  V30 148 H 9.7128 -2.87623 3.93859 0
M  V30 149 H 8.7178 -1.08556 5.38976 0
M  V30 150 H 9.9428 -1.41401 6.64216 0
M  V30 151 H 7.8888 -3.40505 5.60707 0
M  V30 152 H 7.8058 -2.55501 7.11516 0
M  V30 153 H 9.0738 -3.71489 6.85285 0
M  V30 154 N 13.3029 -1.57598 0.00835791 0
M  V30 155 C 14.2329 -2.1198 -0.979113 0
M  V30 156 C 15.2139 -1.03091 -1.35301 0
M  V30 157 O 16.3989 -1.30818 -1.43528 0
M  V30 158 C 13.5289 -2.62995 -2.26828 0
M  V30 159 C 12.4829 -3.76485 -2.03576 0
M  V30 160 C 11.8089 -4.13846 -3.38579 0
M  V30 161 C 13.1089 -5.0342 -1.39161 0
M  V30 162 H 14.8029 -2.94738 -0.526281 0
M  V30 163 H 12.3489 -1.41783 -0.251704 0
M  V30 164 H 14.3019 -2.99669 -2.96271 0
M  V30 165 H 13.0259 -1.7737 -2.7424 0
M  V30 166 H 11.6849 -3.40217 -1.36557 0
M  V30 167 H 11.3329 -3.25232 -3.83709 0
M  V30 168 H 11.0329 -4.90312 -3.23834 0
M  V30 169 H 12.5569 -4.53086 -4.09323 0
M  V30 170 H 13.9709 -5.37812 -1.98573 0
M  V30 171 H 12.3679 -5.84746 -1.34878 0
M  V30 172 H 13.4379 -4.83548 -0.361868 0
M  V30 173 N 14.781 0.264519 -1.55364 0
M  V30 174 C 15.711 1.33121 -1.91836 0
M  V30 175 C 16.692 1.51101 -0.781192 0
M  V30 176 O 17.877 1.64003 -1.04003 0
M  V30 177 C 15.007 2.68921 -2.19769 0
M  V30 178 C 13.961 2.65661 -3.35571 0
M  V30 179 C 13.287 4.05093 -3.49004 0
M  V30 180 C 14.587 2.24187 -4.71739 0
M  V30 181 H 16.281 1.02844 -2.81182 0
M  V30 182 H 13.827 0.493286 -1.35287 0
M  V30 183 H 15.78 3.43663 -2.43872 0
M  V30 184 H 14.504 3.00799 -1.27231 0
M  V30 185 H 13.163 1.93377 -3.1145 0
M  V30 186 H 12.811 4.34206 -2.53917 0
M  V30 187 H 12.511 4.03804 -4.26868 0
M  V30 188 H 14.035 4.81561 -3.75408 0
M  V30 189 H 15.449 2.88654 -4.9533 0
M  V30 190 H 13.846 2.34044 -5.52579 0
M  V30 191 H 14.916 1.19327 -4.69988 0
M  V30 192 N 16.2591 1.48442 0.529413 0
M  V30 193 C 17.2221 1.62524 1.61612 0
M  V30 194 C 18.2221 0.498509 1.52877 0
M  V30 195 O 19.4121 0.76431 1.56537 0
M  V30 196 C 16.5441 1.59597 3.01233 0
M  V30 197 H 17.7371 2.59423 1.50465 0
M  V30 198 H 15.2901 1.37047 0.751514 0
M  V30 199 H 16.0251 0.641781 3.17886 0
M  V30 200 H 15.8101 2.41397 3.08982 0
M  V30 201 H 17.3001 1.72646 3.80241 0
M  V30 202 N 17.7372 -0.778329 1.37039 0
M  V30 203 C 18.6672 -1.90546 1.34962 0
M  V30 204 C 19.6482 -1.68681 0.219274 0
M  V30 205 O 20.8332 -1.89634 0.418624 0
M  V30 206 C 17.9632 -3.27734 1.14925 0
M  V30 207 C 16.9172 -3.64147 2.24902 0
M  V30 208 C 16.2432 -4.99806 1.89996 0
M  V30 209 C 17.5432 -3.71579 3.67051 0
M  V30 210 H 19.2372 -1.92541 2.29277 0
M  V30 211 H 16.7832 -0.924948 1.10366 0
M  V30 212 H 18.7362 -4.06215 1.12104 0
M  V30 213 H 17.4602 -3.26154 0.170631 0
M  V30 214 H 16.1192 -2.8797 2.26868 0
M  V30 215 H 15.7672 -4.94759 0.906796 0
M  V30 216 H 15.4672 -5.25139 2.63634 0
M  V30 217 H 16.9912 -5.80694 1.88749 0
M  V30 218 H 18.4052 -4.40227 3.67251 0
M  V30 219 H 16.8022 -4.08405 4.39688 0
M  V30 220 H 17.8722 -2.72404 4.01154 0
M  V30 221 N 19.2153 -1.21501 -1.00376 0
M  V30 222 C 20.4453 -1.05746 -1.77486 0
M  V30 223 C 20.8533 0.395655 -1.85017 0
M  V30 224 O 20.1963 1.28626 -1.31152 0
M  V30 225 C 20.2583 -1.58092 -3.22873 0
M  V30 226 C 19.9223 -3.06568 -3.38917 0
M  V30 227 C 20.9193 -4.04106 -3.271 0
M  V30 228 C 18.6043 -3.45799 -3.64319 0
M  V30 229 C 20.5983 -5.38862 -3.40451 0
M  V30 230 C 18.2853 -4.80707 -3.77311 0
M  V30 231 C 19.2833 -5.77047 -3.65384 0
M  V30 232 O 18.9713 -7.09507 -3.77961 0
M  V30 233 H 18.7033 -0.371778 -0.564586 0
M  V30 234 H 21.2573 -1.61319 -1.27143 0
M  V30 235 H 19.4873 -0.969163 -3.74358 0
M  V30 236 H 21.1763 -1.38162 -3.81662 0
M  V30 237 H 21.9423 -3.75141 -3.07399 0
M  V30 238 H 17.8213 -2.71344 -3.72684 0
M  V30 239 H 21.3653 -6.14041 -3.31058 0
M  V30 240 H 17.2623 -5.09357 -3.96517 0
M  V30 241 H 18.0303 -7.16935 -3.94901 0
M  V30 242 N 20.6934 1.19889 -1.02296 0
M  V30 243 C 21.6404 2.22901 -0.598651 0
M  V30 244 C 22.6104 1.61588 0.384521 0
M  V30 245 O 23.7954 1.88697 0.282522 0
M  V30 246 C 20.9354 3.45063 0.0504476 0
M  V30 247 C 20.0484 4.20783 -0.978053 0
M  V30 248 C 19.1834 5.30356 -0.299338 0
M  V30 249 C 18.2224 5.97826 -1.31416 0
M  V30 250 N 17.3594 6.98975 -0.661667 0
M  V30 251 H 22.1994 2.58554 -1.48169 0
M  V30 252 H 19.7364 1.27039 -0.741584 0
M  V30 253 H 21.6944 4.14831 0.443971 0
M  V30 254 H 20.3244 3.10084 0.897097 0
M  V30 255 H 19.3764 3.50018 -1.48969 0
M  V30 256 H 20.6884 4.67109 -1.74958 0
M  V30 257 H 19.8424 6.06516 0.149347 0
M  V30 258 H 18.5814 4.85084 0.504445 0
M  V30 259 H 17.5864 5.20422 -1.77317 0
M  V30 260 H 18.8114 6.45183 -2.11933 0
M  V30 261 H 16.7574 6.55886 0.122132 0
M  V30 262 H 16.6744 7.43461 -1.37117 0
M  V30 263 H 17.9424 7.7914 -0.236785 0
M  V30 264 N 22.1715 0.800033 1.35784 0
M  V30 265 C 23.3965 0.388511 2.03729 0
M  V30 266 C 23.8215 -0.990481 1.5991 0
M  V30 267 O 23.1795 -1.64013 0.772612 0
M  V30 268 C 23.2275 0.4726 3.5749 0
M  V30 269 O 22.3315 -0.51646 4.09153 0
M  V30 270 H 21.6725 0.163271 0.643614 0
M  V30 271 H 24.2025 1.0841 1.73518 0
M  V30 272 H 24.2125 0.34003 4.06581 0
M  V30 273 H 22.8875 1.47848 3.88734 0
M  V30 274 H 21.4645 -0.344673 3.71304 0
M  V30 275 N 23.6496 -1.47581 0.552962 0
M  V30 276 C 24.5796 -2.32762 -0.185451 0
M  V30 277 C 25.5606 -1.43527 -0.912905 0
M  V30 278 O 26.7456 -1.72388 -0.894201 0
M  V30 279 C 23.8756 -3.25219 -1.21859 0
M  V30 280 C 22.8296 -4.23661 -0.607864 0
M  V30 281 C 22.1556 -5.05413 -1.74533 0
M  V30 282 C 23.4556 -5.20481 0.435582 0
M  V30 283 H 25.1496 -2.94749 0.525684 0
M  V30 284 H 22.6956 -1.41738 0.254251 0
M  V30 285 H 24.6486 -3.8365 -1.7433 0
M  V30 286 H 23.3726 -2.61279 -1.95961 0
M  V30 287 H 22.0316 -3.66451 -0.104489 0
M  V30 288 H 21.6796 -4.3788 -2.47529 0
M  V30 289 H 21.3796 -5.72059 -1.34249 0
M  V30 290 H 22.9036 -5.66701 -2.27338 0
M  V30 291 H 24.3176 -5.733 -0.00290157 0
M  V30 292 H 22.7146 -5.95305 0.757067 0
M  V30 293 H 23.7846 -4.66217 1.33303 0
M  V30 294 N 25.1277 -0.289203 -1.54924 0
M  V30 295 C 26.0907 0.579144 -2.21762 0
M  V30 296 C 27.0907 1.07047 -1.1999 0
M  V30 297 O 28.2807 0.968384 -1.44803 0
M  V30 298 C 25.4127 1.80055 -2.8947 0
M  V30 299 H 26.6057 -0.00464908 -2.999 0
M  V30 300 H 24.1587 -0.0399306 -1.56249 0
M  V30 301 H 24.8937 2.42449 -2.15381 0
M  V30 302 H 24.6787 1.45602 -3.64064 0
M  V30 303 H 26.1687 2.41773 -3.40493 0
M  V30 304 N 26.6058 1.57591 -0.0167156 0
M  V30 305 C 28.0218 1.55946 0.339557 0
M  V30 306 C 28.2218 1.02109 1.73713 0
M  V30 307 O 27.2778 0.662303 2.43659 0
M  V30 308 C 28.5908 3.00037 0.199499 0
M  V30 309 C 30.1388 3.11805 0.273193 0
M  V30 310 C 30.6138 4.57713 0.162068 0
M  V30 311 N 32.1048 4.6268 0.219444 0
M  V30 312 C 32.8398 5.73185 0.157054 0
M  V30 313 N 32.3358 6.92786 0.0442936 0
M  V30 314 N 34.1288 5.61707 0.21014 0
M  V30 315 H 26.2798 1.90921 -0.930758 0
M  V30 316 H 28.5428 0.877674 -0.358319 0
M  V30 317 H 28.2488 3.4333 -0.76273 0
M  V30 318 H 28.1228 3.64387 0.974786 0
M  V30 319 H 30.5098 2.68433 1.22587 0
M  V30 320 H 30.5908 2.50201 -0.532256 0
M  V30 321 H 30.2348 5.01763 -0.78714 0
M  V30 322 H 30.1648 5.17283 0.986222 0
M  V30 323 H 32.6558 3.76649 0.307246 0
M  V30 324 H 32.9688 7.728 0.00304069 0
M  V30 325 H 31.3138 6.94999 0.00968457 0
M  V30 326 H 34.5048 4.6716 0.296546 0
M  V30 327 H 34.6778 6.47807 0.158054 0
M  V30 328 N 28.0839 -0.256276 1.55502 0
M  V30 329 C 29.3089 -1.00766 1.81276 0
M  V30 330 C 29.7339 -1.78524 0.59252 0
M  V30 331 O 29.0919 -1.75413 -0.45827 0
M  V30 332 C 29.1399 -1.92869 3.04687 0
M  V30 333 O 28.2439 -3.019 2.80945 0
M  V30 334 H 27.5849 -0.287224 0.598664 0
M  V30 335 H 30.1149 -0.280109 2.02674 0
M  V30 336 H 30.1249 -2.34511 3.33869 0
M  V30 337 H 28.7999 -1.35689 3.93143 0
M  V30 338 H 27.3769 -2.64454 2.62904 0
M  V30 339 N 29.562 -1.4872 -0.521534 0
M  V30 340 C 30.811 -1.56419 -1.27341 0
M  V30 341 C 31.124 -0.246805 -1.94037 0
M  V30 342 O 32.33 -0.202122 -2.70747 0
M  V30 343 C 30.786 -2.75896 -2.31105 0
M  V30 344 C 30.394 -4.14311 -1.70441 0
M  V30 345 C 32.138 -2.92913 -3.07249 0
M  V30 346 C 30.045 -5.25038 -2.72194 0
M  V30 347 H 28.975 -0.582344 -0.478949 0
M  V30 348 H 31.626 -1.75071 -0.549779 0
M  V30 349 H 30.008 -2.50697 -3.06541 0
M  V30 350 H 31.182 -4.49564 -1.01136 0
M  V30 351 H 29.497 -4.02482 -1.06759 0
M  V30 352 H 32.094 -3.72805 -3.83302 0
M  V30 353 H 32.437 -2.02689 -3.63625 0
M  V30 354 H 32.97 -3.18054 -2.38928 0
M  V30 355 H 29.709 -6.17255 -2.20627 0
M  V30 356 H 29.229 -4.94263 -3.39801 0
M  V30 357 H 30.908 -5.53508 -3.35019 0
M  V30 358 N 31.0401 0.771051 -1.3745 0
M  V30 359 C 32.4511 1.34737 -1.29239 0
M  V30 360 C 32.8021 1.96109 0.0596908 0
M  V30 361 O 31.9271 1.93865 0.961534 0
M  V30 362 C 32.5221 2.44973 -2.34037 0
M  V30 363 C 31.0811 2.98372 -2.29458 0
M  V30 364 C 30.2281 1.71595 -2.17831 0
M  V30 365 H 33.1791 0.571256 -1.48062 0
M  V30 366 H 33.2001 3.24471 -1.98744 0
M  V30 367 H 32.7121 2.00276 -3.32432 0
M  V30 368 H 30.8131 3.47443 -1.34589 0
M  V30 369 H 30.9261 3.53939 -3.229 0
M  V30 370 H 29.2901 1.94547 -1.64388 0
M  V30 371 H 30.0731 1.29001 -3.18141 0
M  V30 372 N 32.5182 1.22032 0.997298 0
M  V30 373 C 33.4282 1.00271 2.12092 0
M  V30 374 C 34.4442 -0.047621 1.73935 0
M  V30 375 O 35.6202 0.144136 2.00884 0
M  V30 376 C 32.6852 0.578449 3.4184 0
M  V30 377 C 31.7462 1.70189 3.94125 0
M  V30 378 C 30.9792 1.29778 5.17681 0
M  V30 379 O 31.2022 0.174676 5.70132 0
M  V30 380 O 30.1362 2.11261 5.63607 0
M  V30 381 H 33.9622 1.94398 2.3333 0
M  V30 382 H 31.5472 1.00587 1.10465 0
M  V30 383 H 33.4292 0.351998 4.19927 0
M  V30 384 H 32.1042 -0.334019 3.21972 0
M  V30 385 H 31.0112 1.98282 3.1723 0
M  V30 386 H 32.3442 2.59206 4.18417 0
M  V30 387 N 33.9963 -1.19345 1.0293 0
M  V30 388 C 35.2213 -1.93538 0.745511 0
M  V30 389 C 35.6463 -1.75007 -0.689511 0
M  V30 390 O 35.0043 -1.05265 -1.47611 0
M  V30 391 C 35.0523 -3.43336 1.10239 0
M  V30 392 O 34.1563 -4.11806 0.221289 0
M  V30 393 H 33.4973 -0.604193 0.275404 0
M  V30 394 H 36.0273 -1.5141 1.37609 0
M  V30 395 H 36.0373 -3.94004 1.05947 0
M  V30 396 H 34.7123 -3.56146 2.14786 0
M  V30 397 H 33.2893 -3.715 0.322842 0
M  V30 398 N 35.4744 -0.807222 -1.35358 0
M  V30 399 C 36.4044 -0.232509 -2.3234 0
M  V30 400 C 37.3854 0.642386 -1.57504 0
M  V30 401 O 38.5704 0.572526 -1.85569 0
M  V30 402 C 35.7004 0.619238 -3.41735 0
M  V30 403 C 34.6544 -0.157215 -4.27711 0
M  V30 404 C 33.9804 0.816273 -5.28433 0
M  V30 405 C 35.2804 -1.35656 -5.04376 0
M  V30 406 H 36.9744 -1.04276 -2.80654 0
M  V30 407 H 34.5204 -0.50288 -1.34934 0
M  V30 408 H 36.4734 1.03137 -4.08584 0
M  V30 409 H 35.1974 1.46239 -2.92031 0
M  V30 410 H 33.8564 -0.550525 -3.62443 0
M  V30 411 H 33.5044 1.65494 -4.74996 0
M  V30 412 H 33.2044 0.301067 -5.86828 0
M  V30 413 H 34.7284 1.22659 -5.98153 0
M  V30 414 H 36.1424 -1.01927 -5.64166 0
M  V30 415 H 34.5394 -1.8063 -5.7227 0
M  V30 416 H 35.6094 -2.14288 -4.34981 0
M  V30 417 N 36.9525 1.47285 -0.560781 0
M  V30 418 C 37.8995 2.30058 0.18491 0
M  V30 419 C 38.8695 1.39281 0.904986 0
M  V30 420 O 40.0545 1.68241 0.899979 0
M  V30 421 C 37.1945 3.23317 1.20666 0
M  V30 422 C 36.3075 4.29186 0.492285 0
M  V30 423 C 35.4425 5.09592 1.49964 0
M  V30 424 C 34.4815 6.07232 0.770439 0
M  V30 425 N 33.6185 6.80584 1.72479 0
M  V30 426 H 38.4585 2.93302 -0.527048 0
M  V30 427 H 35.9955 1.44568 -0.271738 0
M  V30 428 H 37.9535 3.75811 1.81168 0
M  V30 429 H 36.5835 2.61929 1.88661 0
M  V30 430 H 35.6355 3.7972 -0.227333 0
M  V30 431 H 36.9475 4.98738 -0.0787929 0
M  V30 432 H 36.1015 5.66254 2.17809 0
M  V30 433 H 34.8405 4.3995 2.10464 0
M  V30 434 H 33.8455 5.49745 0.0780846 0
M  V30 435 H 35.0705 6.78884 0.171134 0
M  V30 436 H 33.0165 6.1367 2.3183 0
M  V30 437 H 32.9335 7.46319 1.20596 0
M  V30 438 H 34.2015 7.41818 2.39428 0
M  V30 439 N 38.4306 0.297415 1.54768 0
M  V30 440 C 39.6766 -0.313376 2.00364 0
M  V30 441 C 40.0096 -1.53815 1.18553 0
M  V30 442 O 39.2846 -1.92739 0.261103 0
M  V30 443 C 39.5676 -0.673525 3.53745 0
M  V30 444 C 39.4206 0.560133 4.46299 0
M  V30 445 C 40.7396 -1.50143 4.13697 0
M  V30 446 H 37.8586 -0.112428 0.728374 0
M  V30 447 H 40.5006 0.4088 1.8555 0
M  V30 448 H 38.6506 -1.28881 3.665 0
M  V30 449 H 40.3226 1.19863 4.45455 0
M  V30 450 H 38.5656 1.19405 4.17043 0
M  V30 451 H 39.2366 0.26405 5.51368 0
M  V30 452 H 41.7126 -0.981588 4.04356 0
M  V30 453 H 40.5886 -1.72221 5.21182 0
M  V30 454 H 40.8496 -2.48952 3.65343 0
M  V30 455 N 39.9087 -1.5758 0.0250728 0
M  V30 456 C 41.1387 -1.95646 -0.663783 0
M  V30 457 C 41.5467 -0.899935 -1.66427 0
M  V30 458 O 40.8897 0.127191 -1.83259 0
M  V30 459 C 40.9517 -3.29835 -1.43 0
M  V30 460 C 40.6157 -4.53197 -0.588305 0
M  V30 461 C 41.6127 -5.19726 0.13469 0
M  V30 462 C 39.2977 -4.99529 -0.526897 0
M  V30 463 C 41.2917 -6.30902 0.90781 0
M  V30 464 C 38.9787 -6.10589 0.24993 0
M  V30 465 C 39.9767 -6.76134 0.965994 0
M  V30 466 O 39.6647 -7.85062 1.7301 0
M  V30 467 H 39.3967 -0.649282 -0.188174 0
M  V30 468 H 41.9507 -2.05245 0.0799006 0
M  V30 469 H 40.1807 -3.16716 -2.21873 0
M  V30 470 H 41.8697 -3.52833 -2.00658 0
M  V30 471 H 42.6357 -4.84904 0.0965562 0
M  V30 472 H 38.5147 -4.48319 -1.07381 0
M  V30 473 H 42.0587 -6.81995 1.46724 0
M  V30 474 H 37.9557 -6.44849 0.289795 0
M  V30 475 H 38.7237 -8.01708 1.64944 0
M  V30 476 N 41.3868 0.248026 -1.55636 0
M  V30 477 C 42.6348 0.974295 -1.77065 0
M  V30 478 C 42.9558 1.85897 -0.588849 0
M  V30 479 O 42.2258 1.91868 0.395407 0
M  V30 480 H 40.8058 0.362733 -0.653019 0
M  V30 481 H 43.4678 0.266244 -1.93073 0
M  V30 482 H 42.5638 1.59667 -2.68166 0
M  V30 483 N 42.8649 1.48995 0.513639 0
M  V30 484 C 44.0899 1.61792 1.29762 0
M  V30 485 C 44.5149 0.284475 1.85936 0
M  V30 486 O 43.8729 -0.746185 1.65232 0
M  V30 487 C 43.9209 2.67993 2.41272 0
M  V30 488 O 43.0249 2.26287 3.44772 0
M  V30 489 H 42.3659 0.541963 0.38363 0
M  V30 490 H 44.8959 1.95097 0.616307 0
M  V30 491 H 44.9059 2.89772 2.87221 0
M  V30 492 H 43.5809 3.64791 1.9975 0
M  V30 493 H 42.1579 2.14788 3.04829 0
M  V30 494 N 44.343 -0.763751 1.37857 0
M  V30 495 C 45.589 -1.52483 1.33704 0
M  V30 496 C 45.922 -1.94051 -0.0759612 0
M  V30 497 O 45.197 -1.64675 -1.03501 0
M  V30 498 C 45.48 -2.78441 2.28348 0
M  V30 499 C 45.333 -2.43075 3.78463 0
M  V30 500 C 46.652 -3.80415 2.21298 0
M  V30 501 H 43.771 -0.553169 0.487005 0
M  V30 502 H 46.413 -0.875562 1.68624 0
M  V30 503 H 44.563 -3.33842 1.987 0
M  V30 504 H 46.235 -1.93527 4.18742 0
M  V30 505 H 44.478 -1.75666 3.96641 0
M  V30 506 H 45.149 -3.33149 4.40132 0
M  V30 507 H 47.625 -3.34527 2.47449 0
M  V30 508 H 46.501 -4.66257 2.89647 0
M  V30 509 H 46.762 -4.25262 1.20849 0
M  V30 510 N 45.8211 -1.22559 -0.990812 0
M  V30 511 C 47.0511 -1.07623 -1.76355 0
M  V30 512 C 47.4591 0.37601 -1.85426 0
M  V30 513 O 46.8021 1.27228 -1.32509 0
M  V30 514 C 46.8641 -1.61507 -3.21179 0
M  V30 515 C 46.5281 -3.10146 -3.35646 0
M  V30 516 C 47.5251 -4.07553 -3.22796 0
M  V30 517 C 45.2101 -3.49644 -3.60631 0
M  V30 518 C 47.2041 -5.42442 -3.34716 0
M  V30 519 C 44.8911 -4.84682 -3.72192 0
M  V30 520 C 45.8891 -5.8089 -3.59243 0
M  V30 521 O 45.5771 -7.13476 -3.70415 0
M  V30 522 H 45.3091 -0.377745 -0.560611 0
M  V30 523 H 47.8631 -1.62658 -1.25425 0
M  V30 524 H 46.0931 -1.00881 -3.73309 0
M  V30 525 H 47.7821 -1.42202 -3.80175 0
M  V30 526 H 48.5481 -3.78381 -3.03403 0
M  V30 527 H 44.4271 -2.75282 -3.69785 0
M  V30 528 H 47.9711 -6.17518 -3.24526 0
M  V30 529 H 43.8681 -5.13534 -3.91092 0
M  V30 530 H 44.6361 -7.21083 -3.87275 0
M  V30 531 N 47.2992 1.18797 -1.03562 0
M  V30 532 C 48.2492 2.20161 -0.592724 0
M  V30 533 C 49.2332 1.56772 0.362133 0
M  V30 534 O 50.4252 1.76062 0.182009 0
M  V30 535 C 47.5542 3.43266 0.0481024 0
M  V30 536 C 46.6402 4.13786 -0.9296 0
M  V30 537 N 47.0312 4.60388 -2.09467 0
M  V30 538 C 45.3292 4.39572 -0.754499 0
M  V30 539 C 46.0302 5.14619 -2.71187 0
M  V30 540 N 45.0062 5.05826 -1.991 0
M  V30 541 H 48.8082 2.53877 -1.48066 0
M  V30 542 H 46.3222 1.34946 -0.903514 0
M  V30 543 H 48.3192 4.15136 0.383058 0
M  V30 544 H 46.9792 3.11048 0.931636 0
M  V30 545 H 47.9902 4.54999 -2.47379 0
M  V30 546 H 44.6672 4.17425 0.0793713 0
M  V30 547 H 46.0572 5.60917 -3.69895 0
M  V30 548 N 48.7773 0.814389 1.34928 0
M  V30 549 C 50.0263 0.394871 1.97797 0
M  V30 550 C 50.3393 -1.04555 1.65311 0
M  V30 551 O 51.5453 -1.56856 2.21604 0
M  V30 552 C 50.0013 0.655103 3.53888 0
M  V30 553 C 49.6093 2.10858 3.95276 0
M  V30 554 C 51.3533 0.301329 4.23429 0
M  V30 555 C 49.2603 2.31415 5.44244 0
M  V30 556 H 48.1903 0.143913 0.740139 0
M  V30 557 H 50.8413 0.999544 1.53888 0
M  V30 558 H 49.2233 -0.0196253 3.95995 0
M  V30 559 H 50.3973 2.82176 3.64298 0
M  V30 560 H 48.7123 2.42297 3.38646 0
M  V30 561 H 51.3093 0.432869 5.32945 0
M  V30 562 H 51.6523 -0.75331 4.09428 0
M  V30 563 H 52.1853 0.930288 3.86769 0
M  V30 564 H 48.9243 3.35353 5.63222 0
M  V30 565 H 48.4443 1.6463 5.76764 0
M  V30 566 H 50.1233 2.13352 6.10811 0
M  V30 567 N 50.2554 -1.46986 0.568584 0
M  V30 568 C 51.2034 -2.31858 -0.185649 0
M  V30 569 C 52.1974 -1.43624 -0.898249 0
M  V30 570 O 53.4034 -1.60327 -0.818242 0
M  V30 571 H 49.7784 -0.747866 -0.0787399 0
M  V30 572 H 51.7494 -2.93303 0.549191 0
M  V30 573 C 50.4984 -3.26513 -1.19519 0
M  V30 574 H 49.8214 -3.94377 -0.656285 0
M  V30 575 H 51.2614 -3.88707 -1.6936 0
M  V30 576 C 49.7204 -2.50847 -2.24894 0
M  V30 577 O 50.2504 -2.26119 -3.32014 0
M  V30 578 N 48.4564 -2.11656 -1.99124 0
M  V30 579 H 48.0034 -2.31966 -1.12024 0
M  V30 580 H 47.9614 -1.61347 -2.69842 0
M  V30 581 N 51.7335 -0.305618 -1.54608 0
M  V30 582 C 52.6835 0.583595 -2.20405 0
M  V30 583 C 53.6675 1.09539 -1.17856 0
M  V30 584 O 54.8595 1.0354 -1.43557 0
M  V30 585 C 51.9885 1.75277 -2.95183 0
M  V30 586 C 51.0745 1.25672 -4.05052 0
M  V30 587 N 51.4655 0.478998 -5.03527 0
M  V30 588 C 49.7635 1.53704 -4.18678 0
M  V30 589 C 50.4645 0.214269 -5.81305 0
M  V30 590 N 49.4405 0.795374 -5.3775 0
M  V30 591 H 53.2425 -0.0180946 -2.93894 0
M  V30 592 H 50.7565 -0.110601 -1.62023 0
M  V30 593 H 52.7535 2.4014 -3.40791 0
M  V30 594 H 51.4135 2.35812 -2.23211 0
M  V30 595 H 52.4245 0.123473 -5.17753 0
M  V30 596 H 49.1015 2.14954 -3.57912 0
M  V30 597 H 50.4915 -0.410656 -6.70644 0
M  V30 598 N 53.2116 1.57565 -0.0334293 0
M  V30 599 C 54.4596 1.91598 0.642999 0
M  V30 600 C 54.7806 0.910847 1.7242 0
M  V30 601 O 54.0506 -0.0469931 1.95844 0
M  V30 602 H 52.6306 0.707228 0.240496 0
M  V30 603 H 55.2926 1.94726 -0.0822488 0
M  V30 604 H 54.3886 2.92336 1.09298 0
M  V30 605 N 54.6897 -0.239769 1.55765 0
M  V30 606 C 55.6377 -1.31668 1.91745 0
M  V30 607 C 56.6317 -1.49462 0.797338 0
M  V30 608 O 57.8377 -1.50852 0.982021 0
M  V30 609 H 54.2127 -0.441048 0.609082 0
M  V30 610 H 56.1837 -0.985923 2.81642 0
M  V30 611 C 54.9327 -2.66368 2.2348 0
M  V30 612 H 54.2557 -2.53478 3.09175 0
M  V30 613 H 55.6957 -3.40578 2.52553 0
M  V30 614 C 54.1547 -3.20002 1.05359 0
M  V30 615 O 54.6847 -4.00538 0.305261 0
M  V30 616 N 52.8907 -2.78126 0.842292 0
M  V30 617 H 52.4377 -2.12742 1.45253 0
M  V30 618 H 52.3957 -3.14354 0.053652 0
M  V30 619 N 56.1678 -1.49265 -0.50573 0
M  V30 620 C 57.5788 -1.51769 -1.08734 0
M  V30 621 C 57.9298 -0.301192 -1.93874 0
M  V30 622 O 57.0548 0.589456 -2.08217 0
M  V30 623 C 57.6498 -2.75017 -1.97867 0
M  V30 624 C 56.2088 -2.80314 -2.51199 0
M  V30 625 C 55.3558 -2.4562 -1.28709 0
M  V30 626 H 58.3068 -1.56031 -0.289855 0
M  V30 627 H 58.3278 -2.5491 -2.82491 0
M  V30 628 H 57.8398 -3.63539 -1.35873 0
M  V30 629 H 55.9408 -1.96061 -3.16845 0
M  V30 630 H 56.0538 -3.82366 -2.88675 0
M  V30 631 H 54.4178 -1.97297 -1.61078 0
M  V30 632 H 55.2008 -3.36411 -0.6843 0
M  V30 633 N 57.6459 0.756429 -1.3826 0
M  V30 634 C 58.8929 1.51547 -1.34312 0
M  V30 635 C 59.2209 1.94382 0.0677144 0
M  V30 636 O 58.4759 1.65514 1.04421 0
M  V30 637 C 58.7749 2.78313 -2.24224 0
M  V30 638 C 58.4409 2.54455 -3.72241 0
M  V30 639 C 57.1029 2.47657 -4.12576 0
M  V30 640 C 59.4549 2.3354 -4.65949 0
M  V30 641 C 56.7829 2.17956 -5.44713 0
M  V30 642 C 59.1349 2.05359 -5.9834 0
M  V30 643 C 57.7989 1.97016 -6.37762 0
M  V30 644 H 57.0689 0.55455 -0.491482 0
M  V30 645 H 59.7159 0.870039 -1.70595 0
M  V30 646 H 58.0209 3.47492 -1.80987 0
M  V30 647 H 59.7179 3.36259 -2.18474 0
M  V30 648 H 56.3079 2.60616 -3.40261 0
M  V30 649 H 60.4919 2.37772 -4.35635 0
M  V30 650 H 55.7479 2.10003 -5.74203 0
M  V30 651 H 59.9219 1.88179 -6.70494 0
M  V30 652 H 57.5489 1.73766 -7.40074 0
M  V30 653 N 59.124 1.23083 0.984299 0
M  V30 654 C 60.072 1.00593 2.09723 0
M  V30 655 C 61.066 -0.0538014 1.69315 0
M  V30 656 O 62.272 0.0993719 1.79725 0
M  V30 657 H 58.647 0.30817 0.685956 0
M  V30 658 H 60.618 1.95012 2.2586 0
M  V30 659 C 59.367 0.609601 3.42314 0
M  V30 660 H 58.69 1.41675 3.73856 0
M  V30 661 H 60.13 0.491726 4.21139 0
M  V30 662 C 58.589 -0.681745 3.2993 0
M  V30 663 O 59.119 -1.73192 3.62446 0
M  V30 664 N 57.325 -0.656178 2.83095 0
M  V30 665 H 56.872 0.198759 2.56832 0
M  V30 666 H 56.83 -1.52044 2.75191 0
M  V30 667 N 60.6021 -1.18246 1.0419 0
M  V30 668 C 61.5351 -2.20746 0.578474 0
M  V30 669 C 62.5131 -1.57912 -0.387624 0
M  V30 670 O 63.6971 -1.86071 -0.301634 0
M  V30 671 C 60.8241 -3.38346 -0.154762 0
M  V30 672 C 59.8701 -4.19587 0.764782 0
M  V30 673 S 60.7031 -4.86014 2.24835 0
M  V30 674 C 61.8591 -6.07012 1.526 0
M  V30 675 H 62.0921 -2.59715 1.44691 0
M  V30 676 H 59.6251 -1.287 0.85297 0
M  V30 677 H 61.5831 -4.065 -0.571641 0
M  V30 678 H 60.2441 -2.97786 -0.999105 0
M  V30 679 H 59.4371 -5.03611 0.197976 0
M  V30 680 H 59.0391 -3.56818 1.12057 0
M  V30 681 H 61.3311 -6.72523 0.819733 0
M  V30 682 H 62.2741 -6.68202 2.34333 0
M  V30 683 H 62.6821 -5.55249 1.01779 0
M  V30 684 N 62.0802 -0.821533 -1.34494 0
M  V30 685 C 62.9902 -0.244355 -2.33324 0
M  V30 686 C 64.0062 0.620527 -1.62559 0
M  V30 687 O 65.1822 0.528754 -1.94335 0
M  V30 688 C 62.2472 0.585368 -3.41723 0
M  V30 689 C 61.3082 -0.301752 -4.28238 0
M  V30 690 C 60.5412 0.488466 -5.3146 0
M  V30 691 O 60.7642 1.72186 -5.4379 0
M  V30 692 O 59.6982 -0.12848 -6.01763 0
M  V30 693 H 63.5242 -1.06231 -2.84515 0
M  V30 694 H 61.1092 -0.583645 -1.37528 0
M  V30 695 H 62.9912 1.05747 -4.07916 0
M  V30 696 H 61.6662 1.38068 -2.92778 0
M  V30 697 H 60.5732 -0.821315 -3.64973 0
M  V30 698 H 61.9062 -1.06138 -4.8062 0
M  V30 699 N 63.5583 1.46682 -0.576371 0
M  V30 700 C 64.8043 2.02712 -0.0596221 0
M  V30 701 C 65.1373 1.44765 1.29448 0
M  V30 702 O 64.4123 0.610355 1.84675 0
M  V30 703 C 64.6953 3.60098 0.0129503 0
M  V30 704 C 64.5483 4.28441 -1.3696 0
M  V30 705 C 65.8673 4.34224 0.71678 0
M  V30 706 H 62.9863 0.736637 -0.0231407 0
M  V30 707 H 65.6283 1.74898 -0.742351 0
M  V30 708 H 63.7783 3.83926 0.594378 0
M  V30 709 H 65.4503 4.15896 -1.9957 0
M  V30 710 H 63.6933 3.8805 -1.93907 0
M  V30 711 H 64.3643 5.3716 -1.27135 0
M  V30 712 H 66.8403 4.15503 0.222908 0
M  V30 713 H 65.7163 5.43936 0.73657 0
M  V30 714 H 65.9773 4.04823 1.77682 0
M  V30 715 N 65.0364 0.313813 1.54444 0
M  V30 716 C 65.9664 -0.549454 2.26943 0
M  V30 717 C 66.9474 -1.12741 1.27372 0
M  V30 718 O 68.1324 -1.15436 1.56167 0
M  V30 719 C 65.2624 -1.71523 3.01989 0
M  V30 720 C 64.2164 -1.26703 4.08816 0
M  V30 721 C 63.5424 -2.51898 4.71647 0
M  V30 722 C 64.8424 -0.388962 5.2085 0
M  V30 723 H 66.5364 0.0552661 2.99349 0
M  V30 724 H 64.0824 0.0280207 1.43973 0
M  V30 725 H 66.0354 -2.32535 3.51433 0
M  V30 726 H 64.7594 -2.34639 2.27183 0
M  V30 727 H 63.4184 -0.679896 3.6024 0
M  V30 728 H 63.0664 -3.13356 3.93468 0
M  V30 729 H 62.7664 -2.22605 5.43802 0
M  V30 730 H 64.2904 -3.1369 5.23861 0
M  V30 731 H 65.7044 -0.905107 5.6611 0
M  V30 732 H 64.1014 -0.18924 5.99802 0
M  V30 733 H 65.1714 0.582699 4.81386 0
M  V30 734 N 66.5145 -1.57545 0.0417849 0
M  V30 735 C 67.7605 -1.92601 -0.635021 0
M  V30 736 C 68.0935 -0.919627 -1.71045 0
M  V30 737 O 67.3685 0.0557892 -1.9442 0
M  V30 738 C 67.6515 -3.38085 -1.23979 0
M  V30 739 C 67.5045 -4.49467 -0.173057 0
M  V30 740 C 68.8235 -3.83776 -2.15416 0
M  V30 741 H 65.9425 -0.700397 -0.229374 0
M  V30 742 H 68.5845 -1.89728 0.101633 0
M  V30 743 H 66.7345 -3.40664 -1.86762 0
M  V30 744 H 68.4065 -4.59018 0.458312 0
M  V30 745 H 66.6495 -4.30909 0.499996 0
M  V30 746 H 67.3205 -5.48323 -0.636054 0
M  V30 747 H 69.7965 -3.83013 -1.62605 0
M  V30 748 H 68.6725 -4.8624 -2.54679 0
M  V30 749 H 68.9335 -3.19998 -3.05047 0
M  V30 750 N 67.9926 0.231505 -1.5589 0
M  V30 751 C 69.2696 0.981096 -1.69215 0
M  V30 752 C 69.6496 2.02799 -0.586164 0
M  V30 753 O 68.9976 2.24823 0.408253 0
M  V30 754 C 69.2076 1.60054 -3.10135 0
M  V30 755 C 70.5556 2.09658 -3.69227 0
M  V30 756 O 71.5796 1.69967 -3.13033 0
M  V30 757 O 70.4386 2.8258 -4.67772 0
M  V30 758 H 67.5326 0.457653 -0.688827 0
M  V30 759 H 70.0786 0.224073 -1.68214 0
M  V30 760 H 68.8506 0.844105 -3.82087 0
M  V30 761 H 68.4736 2.42336 -3.15212 0
M  V30 762 N 69.4707 1.49531 0.497807 0
M  V30 763 C 70.6957 1.63159 1.28039 0
M  V30 764 C 71.1207 0.30418 1.85624 0
M  V30 765 O 70.4787 -0.728618 1.66015 0
M  V30 766 C 70.5267 2.70537 2.38416 0
M  V30 767 O 69.6307 2.29931 3.42353 0
M  V30 768 H 68.9717 0.546001 0.377861 0
M  V30 769 H 71.5017 1.9574 0.59558 0
M  V30 770 H 71.5117 2.92802 2.84132 0
M  V30 771 H 70.1867 3.6689 1.95869 0
M  V30 772 H 68.7637 2.18009 3.02533 0
M  V30 773 N 70.9488 -0.749086 1.3866 0
M  V30 774 C 72.1948 -1.50959 1.36319 0
M  V30 775 C 72.5498 -1.92347 -0.0452451 0
M  V30 776 O 71.8428 -1.6289 -1.00884 0
M  V30 777 C 72.0368 -2.7712 2.25697 0
M  V30 778 C 71.8658 -2.48067 3.7509 0
M  V30 779 C 70.6358 -2.41062 4.44091 0
M  V30 780 C 72.8338 -2.14544 4.67414 0
M  V30 781 N 70.8158 -2.04331 5.78897 0
M  V30 782 C 72.1868 -1.88141 5.90765 0
M  V30 783 C 74.2418 -2.00892 4.55573 0
M  V30 784 C 72.9448 -1.49463 7.036 0
M  V30 785 C 74.9708 -1.63616 5.68317 0
M  V30 786 C 74.3328 -1.38088 6.90732 0
M  V30 787 H 70.4318 -0.551804 0.554108 0
M  V30 788 H 73.0158 -0.871886 1.74087 0
M  V30 789 H 71.1868 -3.38693 1.9011 0
M  V30 790 H 72.9188 -3.4321 2.1445 0
M  V30 791 H 69.6738 -2.57685 3.9736 0
M  V30 792 H 70.0978 -1.88598 6.502 0
M  V30 793 H 74.7398 -2.19301 3.61479 0
M  V30 794 H 72.4578 -1.29794 7.97608 0
M  V30 795 H 76.0438 -1.53678 5.61137 0
M  V30 796 H 74.9238 -1.09674 7.76493 0
M  V30 797 N 72.4269 -1.23603 -0.977757 0
M  V30 798 C 73.8379 -1.06424 -1.53398 0
M  V30 799 C 74.1889 0.367578 -1.92726 0
M  V30 800 O 73.3139 1.25465 -1.76316 0
M  V30 801 C 73.9089 -1.92568 -2.78753 0
M  V30 802 C 72.4679 -1.79642 -3.30765 0
M  V30 803 C 71.6149 -1.88111 -2.03739 0
M  V30 804 H 74.5659 -1.37227 -0.797152 0
M  V30 805 H 74.5869 -1.45203 -3.51705 0
M  V30 806 H 74.0989 -2.96771 -2.50098 0
M  V30 807 H 72.1999 -0.782325 -3.64294 0
M  V30 808 H 72.3129 -2.63174 -4.00345 0
M  V30 809 H 70.6769 -1.31723 -2.17994 0
M  V30 810 H 71.4599 -2.93875 -1.77461 0
M  V30 811 N 73.905 1.17692 -1.04816 0
M  V30 812 C 74.815 2.25229 -0.65643 0
M  V30 813 C 75.831 1.71018 0.320761 0
M  V30 814 O 77.007 2.00649 0.173805 0
M  V30 815 C 74.072 3.46684 -0.0332629 0
M  V30 816 C 73.133 4.15997 -1.06042 0
M  V30 817 C 72.366 5.31654 -0.466893 0
M  V30 818 O 72.589 5.65777 0.724758 0
M  V30 819 O 71.523 5.89831 -1.1993 0
M  V30 820 H 75.349 2.61016 -1.55255 0
M  V30 821 H 72.934 1.24919 -0.81949 0
M  V30 822 H 74.816 4.20234 0.313256 0
M  V30 823 H 73.491 3.12703 0.836566 0
M  V30 824 H 72.398 3.44482 -1.45886 0
M  V30 825 H 73.731 4.53996 -1.90127 0
M  V30 826 N 75.3831 0.828654 1.34056 0
M  V30 827 C 76.6131 0.431993 2.02033 0
M  V30 828 C 77.0211 -0.96844 1.62536 0
M  V30 829 O 76.3641 -1.6391 0.829408 0
M  V30 830 C 76.4261 0.461224 3.56529 0
M  V30 831 C 76.0901 1.81599 4.1937 0
M  V30 832 C 77.0871 2.7777 4.39477 0
M  V30 833 C 74.7721 2.10604 4.56017 0
M  V30 834 C 76.7661 4.01115 4.95364 0
M  V30 835 C 74.4531 3.34207 5.11614 0
M  V30 836 C 75.4511 4.2928 5.31232 0
M  V30 837 O 75.1391 5.50699 5.8565 0
M  V30 838 H 74.8711 0.170943 0.654029 0
M  V30 839 H 77.4251 1.11988 1.72185 0
M  V30 840 H 75.6551 -0.283388 3.8566 0
M  V30 841 H 77.3441 0.0838149 4.05813 0
M  V30 842 H 78.1101 2.56659 4.11523 0
M  V30 843 H 73.9891 1.37402 4.40047 0
M  V30 844 H 77.5331 4.75333 5.10592 0
M  V30 845 H 73.4301 3.55179 5.38997 0
M  V30 846 H 74.1981 5.52298 6.04077 0
M  V30 847 N 76.8612 -1.46375 0.584142 0
M  V30 848 C 77.7932 -2.28443 -0.186119 0
M  V30 849 C 78.8062 -1.38596 -0.854115 0
M  V30 850 O 79.9952 -1.63183 -0.723438 0
M  V30 851 C 77.0952 -3.13671 -1.28311 0
M  V30 852 C 76.2682 -4.31652 -0.706758 0
M  V30 853 C 75.3272 -4.98267 -1.69163 0
M  V30 854 O 74.3532 -5.55815 -1.22712 0
M  V30 855 N 75.5552 -4.95408 -3.02575 0
M  V30 856 H 78.3202 -2.9519 0.517986 0
M  V30 857 H 75.8812 -1.56303 0.42201 0
M  V30 858 H 77.8732 -3.55101 -1.94128 0
M  V30 859 H 76.4432 -2.48989 -1.89005 0
M  V30 860 H 75.6632 -3.93989 0.128908 0
M  V30 861 H 76.9512 -5.07906 -0.301506 0
M  V30 862 H 76.3492 -4.49902 -3.42936 0
M  V30 863 H 74.9062 -5.40774 -3.63877 0
M  V30 864 N 78.3393 -0.321999 -1.54275 0
M  V30 865 C 79.2723 0.58718 -2.20516 0
M  V30 866 C 80.2503 1.11693 -1.18167 0
M  V30 867 O 81.4343 1.18122 -1.46899 0
M  V30 868 C 78.5613 1.80554 -2.86562 0
M  V30 869 C 77.6073 1.40718 -4.02617 0
M  V30 870 S 78.4403 0.445218 -5.33646 0
M  V30 871 C 79.5963 1.6709 -6.03185 0
M  V30 872 H 79.8293 0.0244875 -2.9729 0
M  V30 873 H 77.3623 -0.106087 -1.54035 0
M  V30 874 H 79.3203 2.50462 -3.25237 0
M  V30 875 H 77.9813 2.33942 -2.09595 0
M  V30 876 H 77.1743 2.31501 -4.47687 0
M  V30 877 H 76.7763 0.78782 -3.65608 0
M  V30 878 H 79.0683 2.60856 -6.25268 0
M  V30 879 H 80.0113 1.26239 -6.96756 0
M  V30 880 H 80.4193 1.85716 -5.33076 0
M  V30 881 N 79.8174 1.5752 -0.0501392 0
M  V30 882 C 81.0634 1.92936 0.624798 0
M  V30 883 C 81.3964 0.928685 1.70555 0
M  V30 884 O 80.6714 -0.0454779 1.94447 0
M  V30 885 C 80.9544 3.38737 1.22185 0
M  V30 886 C 80.8074 4.49552 0.149218 0
M  V30 887 C 82.1264 3.84913 2.13378 0
M  V30 888 H 79.2454 0.701604 0.225657 0
M  V30 889 H 81.8874 1.89671 -0.111693 0
M  V30 890 H 80.0374 3.4165 1.84953 0
M  V30 891 H 81.7094 4.58768 -0.482648 0
M  V30 892 H 79.9524 4.30638 -0.522841 0
M  V30 893 H 80.6234 5.48653 0.606966 0
M  V30 894 H 83.0994 3.8387 1.60572 0
M  V30 895 H 81.9754 4.87584 2.52097 0
M  V30 896 H 82.2364 3.21611 3.03346 0
M  V30 897 N 81.2955 -0.223234 1.56011 0
M  V30 898 C 82.5445 -0.945912 1.78144 0
M  V30 899 C 82.8575 -1.85567 0.618396 0
M  V30 900 O 84.0635 -2.61688 0.723318 0
M  V30 901 C 82.5195 -1.73216 3.15475 0
M  V30 902 C 82.1275 -0.868619 4.39499 0
M  V30 903 C 83.8715 -2.44615 3.46935 0
M  V30 904 C 81.7785 -1.65212 5.67855 0
M  V30 905 H 80.7085 -0.356929 0.664167 0
M  V30 906 H 83.3595 -0.199845 1.82409 0
M  V30 907 H 81.7415 -2.52107 3.05382 0
M  V30 908 H 82.9155 -0.120366 4.60643 0
M  V30 909 H 81.2305 -0.26683 4.15544 0
M  V30 910 H 83.8275 -3.03732 4.40058 0
M  V30 911 H 84.1705 -3.17417 2.69355 0
M  V30 912 H 84.7035 -1.72715 3.58349 0
M  V30 913 H 81.4425 -0.967407 6.48322 0
M  V30 914 H 80.9625 -2.37503 5.50774 0
M  V30 915 H 82.6415 -2.21322 6.07968 0
M  V30 916 N 82.7736 -1.49793 -0.48987 0
M  V30 917 C 84.0226 -1.59085 -1.23995 0
M  V30 918 C 84.3356 -0.287907 -1.9347 0
M  V30 919 O 85.5416 -0.259506 -2.70257 0
M  V30 920 C 83.9976 -2.80736 -2.252 0
M  V30 921 C 83.6056 -4.17833 -1.61614 0
M  V30 922 C 85.3496 -2.99364 -3.00967 0
M  V30 923 C 83.2566 -5.30693 -2.60996 0
M  V30 924 H 82.1866 -0.592372 -0.466488 0
M  V30 925 H 84.8376 -1.76197 -0.51252 0
M  V30 926 H 83.2196 -2.57142 -3.01154 0
M  V30 927 H 84.3936 -4.51608 -0.915774 0
M  V30 928 H 82.7086 -4.04656 -0.981977 0
M  V30 929 H 85.3056 -3.80851 -3.75308 0
M  V30 930 H 85.6486 -2.10356 -3.59244 0
M  V30 931 H 86.1816 -3.2305 -2.32128 0
M  V30 932 H 82.9206 -6.21796 -2.07485 0
M  V30 933 H 82.4406 -5.01359 -3.2924 0
M  V30 934 H 84.1196 -5.6049 -3.23202 0
M  V30 935 N 84.2517 0.741722 -1.39055 0
M  V30 936 C 85.6677 1.04638 -1.20512 0
M  V30 937 C 85.8677 2.01405 -0.0620218 0
M  V30 938 O 84.9237 2.45547 0.588457 0
M  V30 939 C 86.2367 1.6151 -2.53643 0
M  V30 940 C 87.7847 1.73623 -2.6043 0
M  V30 941 C 88.2597 2.33906 -3.93767 0
M  V30 942 N 89.7507 2.41323 -3.9537 0
M  V30 943 C 90.4857 2.88888 -4.95309 0
M  V30 944 N 89.9817 3.36401 -6.05645 0
M  V30 945 N 91.7747 2.88037 -4.82692 0
M  V30 946 H 83.9257 0.0998155 -2.12165 0
M  V30 947 H 86.1887 0.106907 -0.941953 0
M  V30 948 H 85.8947 0.978739 -3.37807 0
M  V30 949 H 85.7687 2.60411 -2.72885 0
M  V30 950 H 88.1557 2.36384 -1.76655 0
M  V30 951 H 88.2367 0.733945 -2.45045 0
M  V30 952 H 87.8807 1.71776 -4.7797 0
M  V30 953 H 87.8107 3.34799 -4.06469 0
M  V30 954 H 90.3017 2.07734 -3.15682 0
M  V30 955 H 90.6147 3.71186 -6.77821 0
M  V30 956 H 88.9597 3.34427 -6.09248 0
M  V30 957 H 92.1507 2.50237 -3.95599 0
M  V30 958 H 92.3237 3.24792 -5.60726 0
M  V30 959 N 85.7298 1.2412 0.971189 0
M  V30 960 C 87.1408 1.07236 1.52831 0
M  V30 961 C 87.4918 -0.357352 1.92918 0
M  V30 962 O 86.6168 -1.24528 1.76979 0
M  V30 963 C 87.2118 1.94043 2.77728 0
M  V30 964 C 85.7708 1.81394 3.29808 0
M  V30 965 C 84.9178 1.89189 2.02738 0
M  V30 966 H 87.8688 1.37648 0.789864 0
M  V30 967 H 87.8898 1.47066 3.5093 0
M  V30 968 H 87.4018 2.98093 2.4852 0
M  V30 969 H 85.5028 0.801634 3.63874 0
M  V30 970 H 85.6158 2.65294 3.98944 0
M  V30 971 H 83.9798 1.32877 2.17292 0
M  V30 972 H 84.7628 2.94812 1.759 0
M  V30 973 N 87.2079 -1.17134 1.05439 0
M  V30 974 C 88.1399 -2.2078 0.615539 0
M  V30 975 C 89.1529 -1.59584 -0.322001 0
M  V30 976 O 90.3419 -1.78133 -0.114344 0
M  V30 977 C 87.4419 -3.38691 -0.118938 0
M  V30 978 C 86.6149 -4.29454 0.829924 0
M  V30 979 C 85.6739 -5.26024 0.136258 0
M  V30 980 O 84.6999 -5.63952 0.77115 0
M  V30 981 N 85.9019 -5.69487 -1.1254 0
M  V30 982 H 88.6669 -2.59052 1.50705 0
M  V30 983 H 86.2279 -1.32058 0.936603 0
M  V30 984 H 88.2199 -4.00329 -0.593179 0
M  V30 985 H 86.7899 -2.98996 -0.91215 0
M  V30 986 H 86.0099 -3.65211 1.48373 0
M  V30 987 H 87.2979 -4.86984 1.47392 0
M  V30 988 H 86.6959 -5.4075 -1.6615 0
M  V30 989 H 85.2529 -6.33257 -1.54366 0
M  V30 990 N 88.686 -0.835752 -1.33615 0
M  V30 991 C 89.633 -0.26473 -2.29277 0
M  V30 992 C 90.603 0.617712 -1.54187 0
M  V30 993 O 91.788 0.556641 -1.825 0
M  V30 994 C 88.928 0.556777 -3.40579 0
M  V30 995 C 88.041 -0.349339 -4.30585 0
M  V30 996 C 87.176 0.482969 -5.29 0
M  V30 997 C 86.215 -0.421732 -6.10645 0
M  V30 998 N 85.352 0.372262 -7.01112 0
M  V30 999 H 90.192 -1.08582 -2.77514 0
M  V30 1000 H 87.729 -0.546927 -1.36554 0
M  V30 1001 H 89.687 1.04852 -4.03809 0
M  V30 1002 H 88.317 1.34286 -2.93542 0
M  V30 1003 H 87.369 -0.959372 -3.68104 0
M  V30 1004 H 88.681 -1.04445 -4.87742 0
M  V30 1005 H 87.835 1.03866 -5.97743 0
M  V30 1006 H 86.574 1.21153 -4.72412 0
M  V30 1007 H 85.579 -0.989464 -5.40823 0
M  V30 1008 H 86.804 -1.14861 -6.69316 0
M  V30 1009 H 84.75 1.08426 -6.46977 0
M  V30 1010 H 84.667 -0.264198 -7.55538 0
M  V30 1011 H 85.935 0.910293 -7.74167 0
M  V30 1012 N 90.1641 1.46063 -0.591896 0
M  V30 1013 C 91.0961 2.28539 0.174001 0
M  V30 1014 C 92.1091 1.39047 0.846753 0
M  V30 1015 O 93.2981 1.63564 0.714774 0
M  V30 1016 C 90.3981 3.14347 1.26645 0
M  V30 1017 C 89.5711 4.32021 0.683856 0
M  V30 1018 C 88.6301 4.99157 1.66518 0
M  V30 1019 O 87.6561 5.56458 1.19763 0
M  V30 1020 N 88.8581 4.97005 2.99943 0
M  V30 1021 H 91.6231 2.94911 -0.533633 0
M  V30 1022 H 89.1841 1.56077 -0.430294 0
M  V30 1023 H 91.1761 3.56125 1.92242 0
M  V30 1024 H 89.7461 2.49988 1.87682 0
M  V30 1025 H 88.9661 3.93915 -0.1498 0
M  V30 1026 H 90.2541 5.08059 0.274567 0
M  V30 1027 H 89.6521 4.51714 3.40545 0
M  V30 1028 H 88.2091 5.42696 3.61004 0
M  V30 1029 N 91.6422 0.330177 1.54103 0
M  V30 1030 C 92.5522 -0.541534 2.28264 0
M  V30 1031 C 93.5682 -1.12351 1.32866 0
M  V30 1032 O 94.7442 -1.14206 1.65888 0
M  V30 1033 C 91.8092 -1.68322 3.03098 0
M  V30 1034 C 90.8702 -1.13238 4.14096 0
M  V30 1035 C 90.1032 -2.21966 4.85352 0
M  V30 1036 O 90.3262 -3.42437 4.56172 0
M  V30 1037 O 89.2602 -1.87013 5.7211 0
M  V30 1038 H 93.0862 0.060938 3.03639 0
M  V30 1039 H 90.6712 0.09565 1.49093 0
M  V30 1040 H 92.5532 -2.34777 3.49939 0
M  V30 1041 H 91.2282 -2.27176 2.30593 0
M  V30 1042 H 90.1352 -0.432736 3.71589 0
M  V30 1043 H 91.4682 -0.588898 4.88664 0
M  V30 1044 N 93.1203 -1.57491 0.0584922 0
M  V30 1045 C 94.0533 -2.07533 -0.948969 0
M  V30 1046 C 95.0313 -0.977444 -1.29942 0
M  V30 1047 O 96.2153 -1.2499 -1.41102 0
M  V30 1048 C 93.3423 -2.52192 -2.2609 0
M  V30 1049 C 92.3883 -3.73287 -2.06298 0
M  V30 1050 S 93.2213 -5.18603 -1.33459 0
M  V30 1051 C 94.3773 -5.66583 -2.65959 0
M  V30 1052 H 94.6103 -2.92662 -0.523118 0
M  V30 1053 H 92.1433 -1.53631 -0.153954 0
M  V30 1054 H 94.1013 -2.78585 -3.01498 0
M  V30 1055 H 92.7623 -1.67356 -2.65802 0
M  V30 1056 H 91.9553 -4.0248 -3.03357 0
M  V30 1057 H 91.5573 -3.47199 -1.39029 0
M  V30 1058 H 93.8493 -5.72616 -3.62101 0
M  V30 1059 H 94.7923 -6.65684 -2.41393 0
M  V30 1060 H 95.2003 -4.94342 -2.72554 0
M  V30 1061 N 94.5984 0.214957 -1.56127 0
M  V30 1062 C 95.8264 0.955092 -1.83536 0
M  V30 1063 C 96.2414 1.77677 -0.638472 0
M  V30 1064 O 95.5984 1.78219 0.392968 0
M  V30 1065 C 95.6494 1.86734 -3.09536 0
M  V30 1066 O 95.3704 1.07887 -4.24608 0
M  V30 1067 C 96.8714 2.72082 -3.4998 0
M  V30 1068 H 94.0914 0.279611 -0.609966 0
M  V30 1069 H 96.6354 0.228197 -2.03223 0
M  V30 1070 H 94.7904 2.5481 -2.91806 0
M  V30 1071 H 95.2044 1.69872 -4.9623 0
M  V30 1072 H 96.6784 3.31782 -4.41163 0
M  V30 1073 H 97.1554 3.44806 -2.7204 0
M  V30 1074 H 97.7614 2.09409 -3.70173 0
M  V30 1075 N 96.0765 1.50051 0.48192 0
M  V30 1076 C 97.3535 1.51009 1.2432 0
M  V30 1077 C 97.7335 0.248587 2.09631 0
M  V30 1078 O 97.0815 -0.768409 2.15192 0
M  V30 1079 C 97.2915 2.79981 2.08355 0
M  V30 1080 C 98.6395 3.3022 2.66908 0
M  V30 1081 O 99.6635 2.81228 2.18607 0
M  V30 1082 O 98.5225 4.15595 3.54884 0
M  V30 1083 H 95.6165 0.605239 0.563573 0
M  V30 1084 H 98.1625 1.62332 0.494627 0
M  V30 1085 H 96.9345 3.63275 1.45419 0
M  V30 1086 H 96.5575 2.7161 2.90368 0
M  V30 1087 N 97.5546 -0.734337 1.39446 0
M  V30 1088 C 98.8316 -1.48579 1.27215 0
M  V30 1089 C 99.2116 -2.1077 -0.117968 0
M  V30 1090 O 98.5596 -1.98646 -1.12924 0
M  V30 1091 C 98.7696 -2.53667 2.39696 0
M  V30 1092 C 100.118 -3.20031 2.79044 0
M  V30 1093 O 101.142 -2.6398 2.39151 0
M  V30 1094 O 100.001 -4.21455 3.47905 0
M  V30 1095 H 97.0946 -0.659816 0.49857 0
M  V30 1096 H 99.6406 -0.768106 1.51322 0
M  V30 1097 H 98.4126 -2.06096 3.32626 0
M  V30 1098 H 98.0356 -3.32994 2.17258 0
M  V30 1099 N 99.0327 -1.24633 -0.964593 0
M  V30 1100 C 99.9657 -0.984662 -2.05863 0
M  V30 1101 C 100.944 0.0826554 -1.6239 0
M  V30 1102 O 102.128 -0.0549296 -1.8842 0
M  V30 1103 C 99.2547 -0.486529 -3.35187 0
M  V30 1104 C 98.3007 -1.54286 -3.97615 0
M  V30 1105 S 99.1337 -3.12513 -4.34851 0
M  V30 1106 C 100.29 -2.6441 -5.67308 0
M  V30 1107 H 100.523 -1.91104 -2.27743 0
M  V30 1108 H 98.0557 -1.08052 -1.10291 0
M  V30 1109 H 100.014 -0.205757 -4.09984 0
M  V30 1110 H 98.6747 0.419186 -3.1129 0
M  V30 1111 H 97.8677 -1.14481 -4.90826 0
M  V30 1112 H 97.4697 -1.7738 -3.2926 0
M  V30 1113 H 99.7617 -2.07416 -6.44969 0
M  V30 1114 H 100.705 -3.56222 -6.11973 0
M  V30 1115 H 101.113 -2.04734 -5.26065 0
M  V30 1116 N 100.511 1.16574 -1.06058 0
M  V30 1117 C 101.788 1.83048 -0.689416 0
M  V30 1118 C 102.168 1.94122 0.829443 0
M  V30 1119 O 101.516 1.48249 1.7388 0
M  V30 1120 C 101.726 3.20186 -1.38859 0
M  V30 1121 C 103.074 3.95989 -1.53226 0
M  V30 1122 O 104.098 3.29696 -1.3483 0
M  V30 1123 O 102.957 5.14813 -1.83384 0
M  V30 1124 H 100.051 0.790258 -0.243764 0
M  V30 1125 H 102.597 1.23797 -1.16071 0
M  V30 1126 H 101.369 3.07146 -2.4244 0
M  V30 1127 H 100.992 3.87112 -0.907216 0
M  V30 1128 N 101.989 0.842826 1.3317 0
M  V30 1129 C 103.214 0.453129 2.02389 0
M  V30 1130 C 103.639 -0.939105 1.6298 0
M  V30 1131 O 102.997 -1.61472 0.8244 0
M  V30 1132 C 103.045 0.586094 3.55805 0
M  V30 1133 O 102.149 -0.386029 4.10589 0
M  V30 1134 H 101.49 0.183664 0.638094 0
M  V30 1135 H 104.02 1.13875 1.69981 0
M  V30 1136 H 104.03 0.469209 4.05293 0
M  V30 1137 H 102.705 1.6014 3.83833 0
M  V30 1138 H 101.282 -0.226371 3.72212 0
M  V30 1139 N 103.467 -1.45747 0.599634 0
M  V30 1140 C 104.697 -2.06369 0.0977132 0
M  V30 1141 C 105.105 -1.44624 -1.21985 0
M  V30 1142 O 104.448 -0.551831 -1.75216 0
M  V30 1143 C 104.51 -3.59284 -0.124673 0
M  V30 1144 C 104.174 -4.43318 1.10987 0
M  V30 1145 C 105.171 -4.78796 2.02609 0
M  V30 1146 C 102.856 -4.84194 1.33647 0
M  V30 1147 C 104.85 -5.53997 3.15224 0
M  V30 1148 C 102.537 -5.5915 2.46565 0
M  V30 1149 C 103.535 -5.93968 3.37182 0
M  V30 1150 O 103.223 -6.67405 4.48136 0
M  V30 1151 H 102.955 -0.673122 0.0623153 0
M  V30 1152 H 105.509 -1.88104 0.824981 0
M  V30 1153 H 103.739 -3.75919 -0.906745 0
M  V30 1154 H 105.428 -4.01775 -0.577201 0
M  V30 1155 H 106.194 -4.47781 1.86325 0
M  V30 1156 H 102.073 -4.56534 0.64016 0
M  V30 1157 H 105.617 -5.81091 3.85978 0
M  V30 1158 H 101.514 -5.89579 2.62805 0
M  V30 1159 H 102.282 -6.85847 4.46717 0
M  V30 1160 N 104.945 -0.338344 -1.53925 0
M  V30 1161 C 106.173 0.261298 -2.05243 0
M  V30 1162 C 106.588 1.44625 -1.21363 0
M  V30 1163 O 105.945 1.80811 -0.247736 0
M  V30 1164 C 105.996 0.681412 -3.5502 0
M  V30 1165 O 105.717 -0.456414 -4.35716 0
M  V30 1166 C 107.218 1.34232 -4.22489 0
M  V30 1167 H 104.438 0.0513685 -0.669031 0
M  V30 1168 H 106.982 -0.488822 -1.98572 0
M  V30 1169 H 105.137 1.38148 -3.61931 0
M  V30 1170 H 105.551 -0.122564 -5.24357 0
M  V30 1171 H 107.025 1.58708 -5.28693 0
M  V30 1172 H 107.502 2.29426 -3.74514 0
M  V30 1173 H 108.108 0.684424 -4.19757 0
M  V30 1174 N 106.423 1.57458 -0.0668435 0
M  V30 1175 C 107.371 2.13639 0.919851 0
M  V30 1176 C 108.365 1.07204 1.31163 0
M  V30 1177 O 109.571 1.25591 1.28945 0
M  V30 1178 H 105.946 0.683048 0.314562 0
M  V30 1179 H 107.917 2.95415 0.421047 0
M  V30 1180 C 106.666 2.70892 2.17975 0
M  V30 1181 H 105.989 3.5246 1.88711 0
M  V30 1182 H 107.429 3.13803 2.85138 0
M  V30 1183 C 105.888 1.65414 2.93496 0
M  V30 1184 O 106.418 1.07619 3.87015 0
M  V30 1185 N 104.624 1.36564 2.56512 0
M  V30 1186 H 104.171 1.83751 1.80536 0
M  V30 1187 H 104.129 0.66223 3.07347 0
M  V30 1188 N 107.901 -0.206675 1.56239 0
M  V30 1189 C 109.147 -0.930218 1.80208 0
M  V30 1190 C 109.48 -1.83387 0.638981 0
M  V30 1191 O 108.755 -1.91119 -0.361066 0
M  V30 1192 C 109.038 -1.75641 3.1436 0
M  V30 1193 C 108.891 -0.878257 4.41142 0
M  V30 1194 C 110.21 -2.73129 3.45092 0
M  V30 1195 H 107.329 -0.336742 0.655571 0
M  V30 1196 H 109.971 -0.198222 1.88963 0
M  V30 1197 H 108.121 -2.38048 3.07027 0
M  V30 1198 H 109.793 -0.269787 4.6051 0
M  V30 1199 H 108.036 -0.184385 4.33408 0
M  V30 1200 H 108.707 -1.49106 5.3148 0
M  V30 1201 H 111.183 -2.20856 3.52649 0
M  V30 1202 H 110.059 -3.28028 4.40101 0
M  V30 1203 H 110.32 -3.51606 2.68003 0
M  V30 1204 N 109.379 -1.50304 -0.473955 0
M  V30 1205 C 110.609 -1.64663 -1.24778 0
M  V30 1206 C 111.017 -0.328174 -1.86332 0
M  V30 1207 O 110.36 0.699536 -1.69859 0
M  V30 1208 C 110.422 -2.6778 -2.39863 0
M  V30 1209 C 110.086 -4.11413 -1.98969 0
M  V30 1210 C 111.083 -4.97372 -1.51385 0
M  V30 1211 C 108.768 -4.57312 -2.07777 0
M  V30 1212 C 110.762 -6.27277 -1.13148 0
M  V30 1213 C 108.449 -5.87223 -1.69152 0
M  V30 1214 C 109.447 -6.72031 -1.21915 0
M  V30 1215 O 109.135 -7.99518 -0.838237 0
M  V30 1216 H 108.867 -0.556602 -0.383627 0
M  V30 1217 H 111.421 -1.9726 -0.572491 0
M  V30 1218 H 109.651 -2.30419 -3.10554 0
M  V30 1219 H 111.34 -2.71388 -3.01833 0
M  V30 1220 H 112.106 -4.63128 -1.44004 0
M  V30 1221 H 107.985 -3.91449 -2.43493 0
M  V30 1222 H 111.529 -6.93425 -0.762077 0
M  V30 1223 H 107.426 -6.20989 -1.76191 0
M  V30 1224 H 108.194 -8.12764 -0.967339 0
M  V30 1225 N 110.857 0.726932 -1.39834 0
M  V30 1226 C 112.273 1.03354 -1.21615 0
M  V30 1227 C 112.473 2.01327 -0.08338 0
M  V30 1228 O 111.529 2.46158 0.56238 0
M  V30 1229 C 112.842 1.58811 -2.55342 0
M  V30 1230 C 114.39 1.70851 -2.62257 0
M  V30 1231 C 114.865 2.29716 -3.96225 0
M  V30 1232 N 116.356 2.37116 -3.97907 0
M  V30 1233 C 117.091 2.83619 -4.98345 0
M  V30 1234 N 116.587 3.29958 -6.09179 0
M  V30 1235 N 118.38 2.82901 -4.8572 0
M  V30 1236 H 110.531 0.0773069 -2.12259 0
M  V30 1237 H 112.794 0.0969102 -0.943034 0
M  V30 1238 H 112.5 0.942855 -3.38826 0
M  V30 1239 H 112.374 2.57502 -2.75632 0
M  V30 1240 H 114.761 2.34497 -1.79152 0
M  V30 1241 H 114.842 0.707913 -2.45809 0
M  V30 1242 H 114.486 1.66696 -4.79765 0
M  V30 1243 H 114.416 3.30469 -4.09997 0
M  V30 1244 H 116.907 2.04374 -3.17868 0
M  V30 1245 H 117.22 3.63976 -6.8172 0
M  V30 1246 H 115.565 3.27946 -6.12761 0
M  V30 1247 H 118.756 2.46027 -3.98231 0
M  V30 1248 H 118.929 3.18827 -5.6414 0
M  V30 1249 N 112.336 1.25143 0.95797 0
M  V30 1250 C 113.269 0.995565 2.05338 0
M  V30 1251 C 114.247 -0.0740423 1.62431 0
M  V30 1252 O 115.431 0.0649212 1.88388 0
M  V30 1253 C 112.558 0.504298 3.34925 0
M  V30 1254 C 111.604 1.56393 3.96792 0
M  V30 1255 S 112.437 3.14815 4.33188 0
M  V30 1256 C 113.593 2.67415 5.65898 0
M  V30 1257 H 113.826 1.92309 2.26726 0
M  V30 1258 H 111.359 1.08635 1.09716 0
M  V30 1259 H 113.317 0.227497 4.09869 0
M  V30 1260 H 111.978 -0.402671 3.11508 0
M  V30 1261 H 111.171 1.17082 4.90212 0
M  V30 1262 H 110.773 1.79124 3.28315 0
M  V30 1263 H 113.065 2.10833 6.4386 0
M  V30 1264 H 114.008 3.59463 6.10076 0
M  V30 1265 H 114.416 2.07521 5.24972 0
M  V30 1266 N 113.814 -1.1601 1.06675 0
M  V30 1267 C 115.061 -1.86633 0.785781 0
M  V30 1268 C 115.389 -1.81929 -0.687896 0
M  V30 1269 O 114.644 -1.23253 -1.52011 0
M  V30 1270 C 114.943 -3.35547 1.23057 0
M  V30 1271 C 114.609 -3.60448 2.70902 0
M  V30 1272 C 113.271 -3.66954 3.11285 0
M  V30 1273 C 115.623 -3.7071 3.66365 0
M  V30 1274 C 112.951 -3.81225 4.45965 0
M  V30 1275 C 115.303 -3.86503 5.00797 0
M  V30 1276 C 113.967 -3.91252 5.40813 0
M  V30 1277 H 113.237 -0.682937 0.287538 0
M  V30 1278 H 115.884 -1.37146 1.33654 0
M  V30 1279 H 114.189 -3.87193 0.59907 0
M  V30 1280 H 115.886 -3.88583 0.990163 0
M  V30 1281 H 112.476 -3.56021 2.38636 0
M  V30 1282 H 116.66 -3.64991 3.36296 0
M  V30 1283 H 111.916 -3.83155 4.76447 0
M  V30 1284 H 116.09 -3.93385 5.74649 0
M  V30 1285 H 113.717 -4.02062 6.45174 0
M  V30 1286 N 115.292 -0.849877 -1.32721 0
M  V30 1287 C 116.517 -0.463856 -2.02146 0
M  V30 1288 C 116.942 0.930449 -1.63476 0
M  V30 1289 O 116.3 1.61033 -0.832952 0
M  V30 1290 C 116.348 -0.604955 -3.55489 0
M  V30 1291 O 115.452 0.36425 -4.10788 0
M  V30 1292 H 114.793 -0.187046 -0.637111 0
M  V30 1293 H 117.323 -1.14775 -1.69375 0
M  V30 1294 H 117.333 -0.490696 -4.05038 0
M  V30 1295 H 116.008 -1.62174 -3.82978 0
M  V30 1296 H 114.585 0.206628 -3.72327 0
M  V30 1297 N 116.77 1.45427 -0.607355 0
M  V30 1298 C 117.717 2.3053 0.111625 0
M  V30 1299 C 118.687 1.4209 0.860216 0
M  V30 1300 O 119.872 1.71019 0.845998 0
M  V30 1301 C 117.012 3.26992 1.10319 0
M  V30 1302 C 116.125 4.30535 0.355493 0
M  V30 1303 C 115.26 5.14105 1.33676 0
M  V30 1304 C 114.299 6.09376 0.576862 0
M  V30 1305 N 113.436 6.85727 1.5074 0
M  V30 1306 H 118.276 2.91477 -0.620093 0
M  V30 1307 H 115.813 1.43631 -0.317594 0
M  V30 1308 H 117.771 3.81385 1.6912 0
M  V30 1309 H 116.401 2.67799 1.80232 0
M  V30 1310 H 115.453 3.78805 -0.348023 0
M  V30 1311 H 116.765 4.98235 -0.237423 0
M  V30 1312 H 115.919 5.72897 1.99684 0
M  V30 1313 H 114.658 4.46423 1.9636 0
M  V30 1314 H 113.663 5.49715 -0.0968519 0
M  V30 1315 H 114.888 6.79085 -0.0449341 0
M  V30 1316 H 112.834 6.20735 2.12189 0
M  V30 1317 H 112.751 7.49778 0.967913 0
M  V30 1318 H 114.019 7.4906 2.15706 0
M  V30 1319 N 118.248 0.346503 1.53744 0
M  V30 1320 C 119.158 -0.517293 2.28826 0
M  V30 1321 C 120.174 -1.10935 1.3405 0
M  V30 1322 O 121.35 -1.1244 1.6709 0
M  V30 1323 C 118.415 -1.65098 3.04866 0
M  V30 1324 C 117.476 -1.0884 4.15274 0
M  V30 1325 C 116.709 -2.16806 4.87679 0
M  V30 1326 O 116.932 -3.3758 4.59778 0
M  V30 1327 O 115.866 -1.80934 5.74061 0
M  V30 1328 H 119.692 0.0931396 3.03557 0
M  V30 1329 H 117.277 0.111458 1.48984 0
M  V30 1330 H 119.159 -2.31053 3.5241 0
M  V30 1331 H 117.834 -2.24717 2.32989 0
M  V30 1332 H 116.741 -0.3933 3.72027 0
M  V30 1333 H 118.074 -0.537036 4.89261 0
M  V30 1334 N 119.726 -1.57421 0.075193 0
M  V30 1335 C 121.137 -1.81021 -0.456964 0
M  V30 1336 C 121.488 -0.98936 -1.69429 0
M  V30 1337 O 120.613 -0.212865 -2.15351 0
M  V30 1338 C 121.208 -3.28329 -0.83581 0
M  V30 1339 C 119.767 -3.52764 -1.31281 0
M  V30 1340 C 118.914 -2.75676 -0.299648 0
M  V30 1341 H 121.865 -1.55822 0.300856 0
M  V30 1342 H 121.886 -3.40564 -1.69696 0
M  V30 1343 H 121.398 -3.88046 0.0649238 0
M  V30 1344 H 119.499 -2.98355 -2.23193 0
M  V30 1345 H 119.612 -4.61451 -1.28839 0
M  V30 1346 H 117.976 -2.42538 -0.777641 0
M  V30 1347 H 118.759 -3.38132 0.593417 0
M  V30 1348 N 121.204 0.198386 -1.56346 0
M  V30 1349 C 122.136 1.26987 -1.90806 0
M  V30 1350 C 123.149 1.41877 -0.798419 0
M  V30 1351 O 124.338 1.42362 -1.07682 0
M  V30 1352 C 121.438 2.64246 -2.12196 0
M  V30 1353 C 120.611 2.71007 -3.43328 0
M  V30 1354 C 119.67 3.89439 -3.5387 0
M  V30 1355 O 118.696 3.76695 -4.26719 0
M  V30 1356 N 119.898 5.04752 -2.86715 0
M  V30 1357 H 122.663 0.977433 -2.83313 0
M  V30 1358 H 120.224 0.388322 -1.57174 0
M  V30 1359 H 122.216 3.41896 -2.1654 0
M  V30 1360 H 120.786 2.85992 -1.26204 0
M  V30 1361 H 120.006 1.79657 -3.50881 0
M  V30 1362 H 121.294 2.72512 -4.29668 0
M  V30 1363 H 120.692 5.18004 -2.2735 0
M  V30 1364 H 119.249 5.8036 -2.96691 0
M  V30 1365 N 122.682 1.50554 0.465978 0
M  V30 1366 C 123.629 1.6979 1.56333 0
M  V30 1367 C 124.599 0.539239 1.57103 0
M  V30 1368 O 125.784 0.770401 1.74555 0
M  V30 1369 C 122.924 1.80273 2.94271 0
M  V30 1370 C 122.037 3.07674 3.0325 0
M  V30 1371 C 121.172 3.08922 4.32135 0
M  V30 1372 C 120.211 4.30755 4.34875 0
M  V30 1373 N 119.348 4.29714 5.55239 0
M  V30 1374 H 124.188 2.63472 1.39235 0
M  V30 1375 H 121.725 1.30602 0.676873 0
M  V30 1376 H 123.683 1.84332 3.74269 0
M  V30 1377 H 122.313 0.900258 3.09992 0
M  V30 1378 H 121.365 3.13062 2.16094 0
M  V30 1379 H 122.677 3.97642 3.01135 0
M  V30 1380 H 121.831 3.11738 5.20485 0
M  V30 1381 H 120.57 2.16792 4.36866 0
M  V30 1382 H 119.575 4.28146 3.44922 0
M  V30 1383 H 120.8 5.24117 4.31831 0
M  V30 1384 H 118.746 3.4044 5.60746 0
M  V30 1385 H 118.663 5.13456 5.54886 0
M  V30 1386 H 119.931 4.36683 6.457 0
M  V30 1387 N 124.16 -0.719506 1.40217 0
M  V30 1388 C 125.385 -1.51371 1.4178 0
M  V30 1389 C 125.81 -1.88091 0.0182355 0
M  V30 1390 O 125.168 -1.52997 -0.972707 0
M  V30 1391 C 125.216 -2.768 2.31115 0
M  V30 1392 O 124.32 -3.73349 1.7517 0
M  V30 1393 H 123.661 -0.456529 0.482159 0
M  V30 1394 H 126.191 -0.88644 1.844 0
M  V30 1395 H 126.201 -3.25371 2.46167 0
M  V30 1396 H 124.876 -2.49407 3.3282 0
M  V30 1397 H 123.453 -3.32179 1.69444 0
M  V30 1398 N 125.638 -1.25649 -0.95132 0
M  V30 1399 C 126.548 -1.08073 -2.08224 0
M  V30 1400 C 127.564 -0.0169666 -1.73992 0
M  V30 1401 O 128.74 -0.218593 -2.0021 0
M  V30 1402 C 125.805 -0.704922 -3.39458 0
M  V30 1403 C 124.866 -1.84699 -3.87537 0
M  V30 1404 C 124.099 -1.48902 -5.12508 0
M  V30 1405 O 124.322 -0.386156 -5.69091 0
M  V30 1406 O 123.256 -2.32033 -5.55378 0
M  V30 1407 H 127.082 -2.02924 -2.25954 0
M  V30 1408 H 124.667 -1.04618 -1.06656 0
M  V30 1409 H 126.549 -0.507609 -4.18332 0
M  V30 1410 H 125.224 0.214291 -3.2299 0
M  V30 1411 H 124.131 -2.09919 -3.09653 0
M  V30 1412 H 125.464 -2.74557 -4.08509 0
M  V30 1413 N 127.117 1.15442 -1.07289 0
M  V30 1414 C 128.027 2.23786 -0.704057 0
M  V30 1415 C 129.043 1.7166 0.284413 0
M  V30 1416 O 130.219 2.00972 0.131205 0
M  V30 1417 C 127.284 3.46535 -0.106792 0
M  V30 1418 C 126.345 4.13654 -1.14842 0
M  V30 1419 C 125.578 5.30544 -0.57956 0
M  V30 1420 O 125.801 5.67187 0.604585 0
M  V30 1421 O 124.735 5.87154 -1.32414 0
M  V30 1422 H 128.561 2.57664 -1.60757 0
M  V30 1423 H 126.146 1.23152 -0.845803 0
M  V30 1424 H 128.028 4.20804 0.224048 0
M  V30 1425 H 126.703 3.14407 0.770049 0
M  V30 1426 H 125.61 3.4131 -1.5316 0
M  V30 1427 H 126.943 4.49861 -1.99714 0
M  V30 1428 N 128.595 0.856903 1.32268 0
M  V30 1429 C 129.841 0.462069 1.97466 0
M  V30 1430 C 130.174 -0.980298 1.67642 0
M  V30 1431 O 129.449 -1.68824 0.965858 0
M  V30 1432 C 129.732 0.704336 3.53145 0
M  V30 1433 C 129.585 2.19529 3.9259 0
M  V30 1434 C 130.904 0.1622 4.39801 0
M  V30 1435 H 128.023 0.169357 0.717278 0
M  V30 1436 H 130.665 1.07574 1.56614 0
M  V30 1437 H 128.815 0.181999 3.88073 0
M  V30 1438 H 130.487 2.78387 3.67829 0
M  V30 1439 H 128.73 2.67292 3.41668 0
M  V30 1440 H 129.401 2.31549 5.01088 0
M  V30 1441 H 131.877 0.608905 4.11621 0
M  V30 1442 H 130.753 0.361265 5.4771 0
M  V30 1443 H 131.014 -0.935158 4.32096 0
M  V30 1444 N 130.073 -1.45103 0.615059 0
M  V30 1445 C 131.003 -2.33339 -0.0865619 0
M  V30 1446 C 131.984 -1.4727 -0.851209 0
M  V30 1447 O 133.169 -1.76026 -0.820281 0
M  V30 1448 C 130.299 -3.30095 -1.07956 0
M  V30 1449 C 129.253 -4.25858 -0.427628 0
M  V30 1450 C 128.579 -5.12361 -1.5294 0
M  V30 1451 C 129.879 -5.18165 0.655944 0
M  V30 1452 H 131.573 -2.92254 0.650224 0
M  V30 1453 H 129.119 -1.40532 0.314138 0
M  V30 1454 H 131.072 -3.90698 -1.57901 0
M  V30 1455 H 129.796 -2.69355 -1.84703 0
M  V30 1456 H 128.455 -3.66564 0.0510292 0
M  V30 1457 H 128.103 -4.47984 -2.28734 0
M  V30 1458 H 127.803 -5.77238 -1.09865 0
M  V30 1459 H 129.327 -5.75833 -2.03098 0
M  V30 1460 H 130.741 -5.72796 0.240257 0
M  V30 1461 H 129.138 -5.91559 1.00888 0
M  V30 1462 H 130.208 -4.60144 1.52957 0
M  V30 1463 N 131.551 -0.354651 -1.53558 0
M  V30 1464 C 132.498 0.496968 -2.25386 0
M  V30 1465 C 133.468 1.0865 -1.25636 0
M  V30 1466 O 134.653 1.12104 -1.54394 0
M  V30 1467 C 131.793 1.63637 -3.03837 0
M  V30 1468 C 130.906 1.07307 -4.18461 0
M  V30 1469 C 130.041 2.18068 -4.84376 0
M  V30 1470 C 129.08 1.59147 -5.91049 0
M  V30 1471 N 128.217 2.63695 -6.50699 0
M  V30 1472 H 133.057 -0.122075 -2.9775 0
M  V30 1473 H 130.594 -0.0720154 -1.46924 0
M  V30 1474 H 132.552 2.30734 -3.47589 0
M  V30 1475 H 131.182 2.22623 -2.33749 0
M  V30 1476 H 130.234 0.292708 -3.79272 0
M  V30 1477 H 131.546 0.602193 -4.95152 0
M  V30 1478 H 130.7 2.93007 -5.31255 0
M  V30 1479 H 129.439 2.68504 -4.07133 0
M  V30 1480 H 128.444 0.827175 -5.43542 0
M  V30 1481 H 129.669 1.09549 -6.70206 0
M  V30 1482 H 127.615 3.13365 -5.76315 0
M  V30 1483 H 127.532 2.21263 -7.22896 0
M  V30 1484 H 128.8 3.3837 -7.02229 0
M  V30 1485 N 133.029 1.57378 -0.0835403 0
M  V30 1486 C 133.977 2.14602 0.89714 0
M  V30 1487 C 134.971 1.08589 1.30018 0
M  V30 1488 O 136.177 1.26952 1.27606 0
M  V30 1489 H 132.552 0.686346 0.3073 0
M  V30 1490 H 134.523 2.95845 0.38969 0
M  V30 1491 C 133.272 2.73188 2.15089 0
M  V30 1492 H 132.595 3.54442 1.84962 0
M  V30 1493 H 134.035 3.1681 2.81793 0
M  V30 1494 C 132.494 1.68517 2.91725 0
M  V30 1495 O 133.024 1.11718 3.85852 0
M  V30 1496 N 131.23 1.39277 2.55049 0
M  V30 1497 H 130.777 1.85655 1.78577 0
M  V30 1498 H 130.735 0.694791 3.06627 0
M  V30 1499 N 134.507 -0.190092 1.56449 0
M  V30 1500 C 135.747 -0.916414 1.82705 0
M  V30 1501 C 136.111 -1.80235 0.661763 0
M  V30 1502 O 137.312 -2.56484 0.80433 0
M  V30 1503 C 135.583 -1.70691 3.14005 0
M  V30 1504 S 137.142 -2.48457 3.61683 0
M  V30 1505 H 133.96 -0.307281 0.64117 0
M  V30 1506 H 136.562 -0.179433 1.94675 0
M  V30 1507 H 135.266 -1.04677 3.96826 0
M  V30 1508 H 134.797 -2.48562 3.04927 0
M  V30 1509 H 136.812 -3.72756 3.27517 0
M  V30 1510 N 135.985 -1.50799 -0.457987 0
M  V30 1511 C 136.895 -1.73426 -1.57989 0
M  V30 1512 C 137.911 -0.617745 -1.62665 0
M  V30 1513 O 139.087 -0.897614 -1.80291 0
M  V30 1514 C 136.152 -1.83557 -2.94122 0
M  V30 1515 C 135.213 -3.07345 -2.99729 0
M  V30 1516 C 134.446 -3.16983 -4.29368 0
M  V30 1517 O 134.669 -2.33077 -5.20607 0
M  V30 1518 O 133.603 -4.09812 -4.40837 0
M  V30 1519 H 137.429 -2.68555 -1.41817 0
M  V30 1520 H 135.014 -1.35052 -0.638859 0
M  V30 1521 H 136.896 -1.92326 -3.74952 0
M  V30 1522 H 135.571 -0.916137 -3.10465 0
M  V30 1523 H 134.478 -3.04068 -2.1793 0
M  V30 1524 H 135.811 -3.9891 -2.88326 0
M  V30 1525 N 137.463 0.71206 -1.40597 0
M  V30 1526 C 138.712 1.46754 -1.38369 0
M  V30 1527 C 139.025 1.95598 0.0097839 0
M  V30 1528 O 140.231 2.71059 0.154677 0
M  V30 1529 C 138.687 2.65289 -2.43207 0
M  V30 1530 C 138.295 2.23301 -3.88382 0
M  V30 1531 C 140.039 3.43008 -2.50091 0
M  V30 1532 C 137.946 3.38696 -4.84808 0
M  V30 1533 H 136.876 0.55118 -0.514506 0
M  V30 1534 H 139.527 0.774616 -1.66349 0
M  V30 1535 H 137.909 3.36769 -2.08332 0
M  V30 1536 H 139.083 1.59218 -4.32419 0
M  V30 1537 H 137.398 1.58618 -3.85006 0
M  V30 1538 H 139.995 4.28881 -3.1932 0
M  V30 1539 H 140.338 3.87065 -1.53253 0
M  V30 1540 H 140.871 2.78574 -2.83974 0
M  V30 1541 H 137.61 2.99668 -5.82992 0
M  V30 1542 H 137.13 4.01683 -4.45433 0
M  V30 1543 H 138.809 4.04712 -5.04794 0
M  V30 1544 N 138.941 1.26152 0.944643 0
M  V30 1545 C 140.187 1.11657 1.69294 0
M  V30 1546 C 140.52 -0.339926 1.91202 0
M  V30 1547 O 139.795 -1.24994 1.49019 0
M  V30 1548 C 140.078 1.88236 3.06984 0
M  V30 1549 C 139.931 3.41772 2.92424 0
M  V30 1550 C 141.25 1.67343 4.07043 0
M  V30 1551 H 138.369 0.407004 0.614424 0
M  V30 1552 H 141.011 1.55106 1.09737 0
M  V30 1553 H 139.161 1.51308 3.57824 0
M  V30 1554 H 140.833 3.88433 2.48832 0
M  V30 1555 H 139.076 3.68974 2.28124 0
M  V30 1556 H 139.747 3.90579 3.90067 0
M  V30 1557 H 142.223 1.99509 3.65151 0
M  V30 1558 H 141.099 2.23346 5.01406 0
M  V30 1559 H 141.36 0.617158 4.37771 0
M  V30 1560 N 140.419 -1.14872 1.07899 0
M  V30 1561 C 141.367 -2.21857 0.698727 0
M  V30 1562 C 142.361 -1.66845 -0.293086 0
M  V30 1563 O 143.567 -1.79321 -0.156204 0
M  V30 1564 H 139.942 -0.722691 0.207899 0
M  V30 1565 H 141.913 -2.51205 1.61054 0
M  V30 1566 C 140.662 -3.47498 0.11858 0
M  V30 1567 H 139.985 -3.90154 0.872914 0
M  V30 1568 H 141.425 -4.23858 -0.109759 0
M  V30 1569 C 139.884 -3.16947 -1.1422 0
M  V30 1570 O 140.414 -3.3426 -2.22785 0
M  V30 1571 N 138.62 -2.70946 -1.05055 0
M  V30 1572 H 138.167 -2.57058 -0.167038 0
M  V30 1573 H 138.125 -2.50879 -1.89491 0
M  V30 1574 N 141.898 -0.863906 -1.31812 0
M  V30 1575 C 143.144 -0.481841 -1.9761 0
M  V30 1576 C 143.499 0.954048 -1.6708 0
M  V30 1577 O 142.792 1.66182 -0.953624 0
M  V30 1578 C 142.986 -0.668547 -3.51091 0
M  V30 1579 C 142.815 -2.12103 -3.96538 0
M  V30 1580 C 141.585 -2.76141 -4.23171 0
M  V30 1581 C 143.783 -3.09265 -4.10925 0
M  V30 1582 N 141.765 -4.12205 -4.54929 0
M  V30 1583 C 143.136 -4.30341 -4.46326 0
M  V30 1584 C 145.191 -3.05337 -3.93286 0
M  V30 1585 C 143.894 -5.48 -4.65928 0
M  V30 1586 C 145.92 -4.22248 -4.14078 0
M  V30 1587 C 145.282 -5.42085 -4.49804 0
M  V30 1588 H 141.381 -0.225238 -0.74886 0
M  V30 1589 H 143.965 -1.11723 -1.59455 0
M  V30 1590 H 142.136 -0.0627898 -3.88349 0
M  V30 1591 H 143.868 -0.255467 -4.03893 0
M  V30 1592 H 140.623 -2.27125 -4.15585 0
M  V30 1593 H 141.047 -4.82416 -4.74978 0
M  V30 1594 H 145.689 -2.138 -3.64759 0
M  V30 1595 H 143.407 -6.40059 -4.93305 0
M  V30 1596 H 146.993 -4.20654 -4.01922 0
M  V30 1597 H 145.873 -6.31044 -4.65567 0
M  V30 1598 N 143.376 1.44774 -0.622745 0
M  V30 1599 C 144.323 2.30635 0.0871679 0
M  V30 1600 C 145.293 1.42994 0.845097 0
M  V30 1601 O 146.478 1.71907 0.827812 0
M  V30 1602 C 143.618 3.28144 1.06844 0
M  V30 1603 C 142.731 4.30888 0.309809 0
M  V30 1604 C 141.866 5.15494 1.28215 0
M  V30 1605 C 140.905 6.09953 0.512198 0
M  V30 1606 N 140.042 6.87287 1.43458 0
M  V30 1607 H 144.882 2.90803 -0.650974 0
M  V30 1608 H 142.419 1.43286 -0.33281 0
M  V30 1609 H 144.377 3.83157 1.65066 0
M  V30 1610 H 143.007 2.69695 1.77382 0
M  V30 1611 H 142.059 3.78414 -0.388181 0
M  V30 1612 H 143.371 4.97955 -0.290254 0
M  V30 1613 H 142.525 5.74983 1.93596 0
M  V30 1614 H 141.264 4.48481 1.91614 0
M  V30 1615 H 140.269 5.49581 -0.155151 0
M  V30 1616 H 141.494 6.78999 -0.116958 0
M  V30 1617 H 139.44 6.2295 2.05594 0
M  V30 1618 H 139.357 7.50763 0.888335 0
M  V30 1619 H 140.625 7.51306 2.07749 0
M  V30 1620 N 144.854 0.36279 1.53368 0
M  V30 1621 C 145.786 -0.519668 2.23231 0
M  V30 1622 C 146.799 -1.04844 1.24546 0
M  V30 1623 O 147.988 -0.955296 1.50786 0
M  V30 1624 C 145.088 -1.72995 2.9142 0
M  V30 1625 C 144.261 -1.33316 4.16588 0
M  V30 1626 C 143.32 -2.40521 4.68013 0
M  V30 1627 O 142.346 -2.03027 5.3176 0
M  V30 1628 N 143.548 -3.72065 4.45587 0
M  V30 1629 H 146.313 0.078751 2.99597 0
M  V30 1630 H 143.874 0.187833 1.60807 0
M  V30 1631 H 145.866 -2.44184 3.22733 0
M  V30 1632 H 144.436 -2.2353 2.18525 0
M  V30 1633 H 143.656 -0.451236 3.91609 0
M  V30 1634 H 144.944 -1.04432 4.97967 0
M  V30 1635 H 144.342 -4.05304 3.94646 0
M  V30 1636 H 142.899 -4.39366 4.81457 0
M  V30 1637 N 146.332 -1.57332 0.0918853 0
M  V30 1638 C 147.748 -1.57389 -0.264766 0
M  V30 1639 C 147.948 -1.10281 -1.68643 0
M  V30 1640 O 147.004 -0.777801 -2.40222 0
M  V30 1641 C 148.317 -3.00648 -0.0561195 0
M  V30 1642 C 149.865 -3.12754 -0.124116 0
M  V30 1643 C 150.34 -4.57965 0.0564972 0
M  V30 1644 N 151.831 -4.632 0.00155611 0
M  V30 1645 C 152.566 -5.73281 0.116598 0
M  V30 1646 N 152.062 -6.92208 0.286294 0
M  V30 1647 N 153.855 -5.6207 0.0580973 0
M  V30 1648 H 146.006 -1.86262 1.02079 0
M  V30 1649 H 148.269 -0.859579 0.399786 0
M  V30 1650 H 147.975 -3.393 0.925669 0
M  V30 1651 H 147.849 -3.68623 -0.799823 0
M  V30 1652 H 150.236 -2.73976 -1.09641 0
M  V30 1653 H 150.317 -2.47377 0.651024 0
M  V30 1654 H 149.961 -4.97436 1.02564 0
M  V30 1655 H 149.891 -5.21399 -0.738297 0
M  V30 1656 H 152.382 -3.77686 -0.127192 0
M  V30 1657 H 152.695 -7.71934 0.365676 0
M  V30 1658 H 151.04 -6.94254 0.32192 0
M  V30 1659 H 154.231 -4.68043 -0.0733204 0
M  V30 1660 H 154.404 -6.47824 0.151203 0
M  V30 1661 N 147.81 0.181792 -1.56548 0
M  V30 1662 C 148.74 1.22765 -1.98623 0
M  V30 1663 C 149.721 1.46747 -0.860189 0
M  V30 1664 O 150.906 1.58259 -1.12551 0
M  V30 1665 C 148.036 2.56894 -2.33715 0
M  V30 1666 C 146.99 2.475 -3.49182 0
M  V30 1667 C 146.316 3.86023 -3.69986 0
M  V30 1668 C 147.616 1.98866 -4.82959 0
M  V30 1669 H 149.31 0.877942 -2.86239 0
M  V30 1670 H 146.856 0.42088 -1.37712 0
M  V30 1671 H 148.809 3.30253 -2.61746 0
M  V30 1672 H 147.533 2.93632 -1.42997 0
M  V30 1673 H 146.192 1.76596 -3.21262 0
M  V30 1674 H 145.84 4.20136 -2.76576 0
M  V30 1675 H 145.54 3.80609 -4.47672 0
M  V30 1676 H 147.064 4.60984 -4.00407 0
M  V30 1677 H 148.478 2.61992 -5.09934 0
M  V30 1678 H 146.875 2.04424 -5.64208 0
M  V30 1679 H 147.945 0.942465 -4.75653 0
M  V30 1680 N 149.288 1.51039 0.449983 0
M  V30 1681 C 150.22 1.67617 1.56324 0
M  V30 1682 C 151.233 0.557083 1.52972 0
M  V30 1683 O 152.422 0.830989 1.57977 0
M  V30 1684 C 149.522 1.66402 2.95235 0
M  V30 1685 C 148.695 2.9469 3.23229 0
M  V30 1686 C 147.754 2.85832 4.41799 0
M  V30 1687 O 146.78 3.59785 4.41071 0
M  V30 1688 N 147.982 2.00821 5.44657 0
M  V30 1689 H 150.747 2.63648 1.42512 0
M  V30 1690 H 148.308 1.48767 0.638737 0
M  V30 1691 H 150.3 1.58062 3.72557 0
M  V30 1692 H 148.87 0.780182 3.02708 0
M  V30 1693 H 148.09 3.16996 2.34323 0
M  V30 1694 H 149.378 3.79636 3.38754 0
M  V30 1695 H 148.776 1.40091 5.48079 0
M  V30 1696 H 147.333 1.98368 6.20881 0
M  V30 1697 N 150.766 -0.704594 1.40972 0
M  V30 1698 C 152.015 -1.46018 1.39146 0
M  V30 1699 C 152.328 -1.956 0.000589254 0
M  V30 1700 O 153.534 -2.71137 -0.1403 0
M  V30 1701 C 151.99 -2.63996 2.4461 0
M  V30 1702 C 151.598 -2.21238 3.89561 0
M  V30 1703 C 153.342 -3.41677 2.51907 0
M  V30 1704 C 151.249 -3.3612 4.86598 0
M  V30 1705 H 150.179 -0.548444 0.517422 0
M  V30 1706 H 152.83 -0.765784 1.66757 0
M  V30 1707 H 151.212 -3.3566 2.10115 0
M  V30 1708 H 152.386 -1.56923 4.33257 0
M  V30 1709 H 150.701 -1.56574 3.85841 0
M  V30 1710 H 153.298 -4.27182 3.2159 0
M  V30 1711 H 153.641 -3.86247 1.55303 0
M  V30 1712 H 154.174 -2.77064 2.85448 0
M  V30 1713 H 150.913 -2.96572 5.84573 0
M  V30 1714 H 150.433 -3.99315 4.47557 0
M  V30 1715 H 152.112 -4.02029 5.06934 0
M  V30 1716 N 152.244 -1.26651 -0.937939 0
M  V30 1717 C 153.176 -1.04283 -2.04102 0
M  V30 1718 C 154.189 -0.00221014 -1.628 0
M  V30 1719 O 155.378 -0.242645 -1.76843 0
M  V30 1720 C 152.478 -0.557846 -3.34277 0
M  V30 1721 C 151.651 -1.66843 -4.04329 0
M  V30 1722 C 150.71 -1.18095 -5.12777 0
M  V30 1723 O 149.736 -1.87865 -5.37304 0
M  V30 1724 N 150.938 -0.0311006 -5.80492 0
M  V30 1725 H 153.703 -1.9927 -2.23856 0
M  V30 1726 H 151.264 -1.1808 -1.10764 0
M  V30 1727 H 153.256 -0.215836 -4.04124 0
M  V30 1728 H 151.826 0.298523 -3.11171 0
M  V30 1729 H 151.046 -2.18123 -3.28353 0
M  V30 1730 H 152.334 -2.41408 -4.47883 0
M  V30 1731 H 151.732 0.551486 -5.63005 0
M  V30 1732 H 150.289 0.251809 -6.51313 0
M  V30 1733 N 153.722 1.14298 -1.08507 0
M  V30 1734 C 154.97 1.84993 -0.813763 0
M  V30 1735 C 155.291 1.83405 0.662393 0
M  V30 1736 O 154.561 1.28319 1.48024 0
M  V30 1737 H 153.141 0.684966 -0.298045 0
M  V30 1738 H 155.803 1.385 -1.37126 0
M  V30 1739 H 154.899 2.89788 -1.15884 0
M  V30 1740 N 155.201 0.870884 1.31352 0
M  V30 1741 C 156.131 0.343096 2.30966 0
M  V30 1742 C 157.112 -0.566507 1.60389 0
M  V30 1743 O 158.297 -0.483336 1.88089 0
M  V30 1744 C 155.427 -0.455487 3.443 0
M  V30 1745 C 154.381 0.361103 4.26474 0
M  V30 1746 C 153.707 -0.563221 5.31725 0
M  V30 1747 C 155.007 1.59566 4.97329 0
M  V30 1748 H 156.701 1.17548 2.75359 0
M  V30 1749 H 154.247 0.566686 1.32381 0
M  V30 1750 H 156.2 -0.83525 4.13039 0
M  V30 1751 H 154.924 -1.32139 2.98675 0
M  V30 1752 H 153.583 0.722825 3.59403 0
M  V30 1753 H 153.231 -1.42643 4.82351 0
M  V30 1754 H 152.931 -0.0207409 5.87596 0
M  V30 1755 H 154.455 -0.939808 6.03324 0
M  V30 1756 H 155.869 1.28728 5.58661 0
M  V30 1757 H 154.266 2.07728 5.63 0
M  V30 1758 H 155.336 2.34798 4.24262 0
M  V30 1759 N 156.679 -1.44442 0.630414 0
M  V30 1760 C 157.611 -2.2892 -0.113347 0
M  V30 1761 C 158.624 -1.41243 -0.80959 0
M  V30 1762 O 159.813 -1.65402 -0.671156 0
M  V30 1763 C 156.913 -3.17594 -1.18266 0
M  V30 1764 C 156.086 -4.33682 -0.569073 0
M  V30 1765 C 155.145 -5.03397 -1.53226 0
M  V30 1766 O 154.171 -5.59438 -1.04967 0
M  V30 1767 N 155.373 -5.04783 -2.86661 0
M  V30 1768 H 158.138 -2.93392 0.611636 0
M  V30 1769 H 155.699 -1.54881 0.471523 0
M  V30 1770 H 157.691 -3.61097 -1.82732 0
M  V30 1771 H 156.261 -2.54876 -1.80988 0
M  V30 1772 H 155.481 -3.9338 0.254187 0
M  V30 1773 H 156.769 -5.08608 -0.139767 0
M  V30 1774 H 156.167 -4.60584 -3.28449 0
M  V30 1775 H 154.724 -5.52077 -3.46489 0
M  V30 1776 N 158.157 -0.370918 -1.53173 0
M  V30 1777 C 159.067 0.480823 -2.2962 0
M  V30 1778 C 160.083 1.08789 -1.35798 0
M  V30 1779 O 161.259 1.09768 -1.68858 0
M  V30 1780 C 158.324 1.60227 -3.07454 0
M  V30 1781 C 157.385 1.0222 -4.16953 0
M  V30 1782 C 156.618 2.0902 -4.91066 0
M  V30 1783 O 156.841 3.30222 -4.65091 0
M  V30 1784 O 155.775 1.71778 -5.76867 0
M  V30 1785 H 159.601 -0.141421 -3.03371 0
M  V30 1786 H 157.186 -0.135146 -1.48787 0
M  V30 1787 H 159.068 2.25417 -3.56041 0
M  V30 1788 H 157.743 2.20982 -2.36535 0
M  V30 1789 H 156.65 0.334064 -3.72605 0
M  V30 1790 H 157.983 0.459131 -4.90054 0
M  V30 1791 N 159.635 1.57281 -0.100228 0
M  V30 1792 C 160.86 1.99302 0.573881 0
M  V30 1793 C 161.285 0.979059 1.60611 0
M  V30 1794 O 160.643 -0.0517803 1.81226 0
M  V30 1795 C 160.691 3.40274 1.19358 0
M  V30 1796 O 159.795 3.41676 2.30935 0
M  V30 1797 H 159.136 0.647944 0.145138 0
M  V30 1798 H 161.666 2.03779 -0.183156 0
M  V30 1799 H 161.676 3.78078 1.53365 0
M  V30 1800 H 160.351 4.13594 0.437385 0
M  V30 1801 H 158.928 3.15672 1.98509 0
M  V30 1802 N 161.113 -0.173488 1.56642 0
M  V30 1803 C 162.043 -1.2171 1.99271 0
M  V30 1804 C 163.024 -1.46289 0.867959 0
M  V30 1805 O 164.209 -1.5766 1.13388 0
M  V30 1806 C 161.339 -2.55651 2.35074 0
M  V30 1807 C 160.293 -2.45645 3.50489 0
M  V30 1808 C 159.619 -3.84056 3.72028 0
M  V30 1809 C 160.919 -1.96302 4.84007 0
M  V30 1810 H 162.613 -0.86275 2.867 0
M  V30 1811 H 160.159 -0.413571 1.37933 0
M  V30 1812 H 162.112 -3.2886 2.63494 0
M  V30 1813 H 160.836 -2.92869 1.44552 0
M  V30 1814 H 159.495 -1.7489 3.22194 0
M  V30 1815 H 159.143 -4.18664 2.788 0
M  V30 1816 H 158.843 -3.7823 4.49684 0
M  V30 1817 H 160.367 -4.58854 4.02846 0
M  V30 1818 H 161.781 -2.59284 5.11317 0
M  V30 1819 H 160.178 -2.01429 5.65284 0
M  V30 1820 H 161.248 -0.917226 4.76146 0
M  V30 1821 N 162.591 -1.51276 -0.441967 0
M  V30 1822 C 163.839 -1.63392 -1.18943 0
M  V30 1823 C 164.16 -0.350159 -1.9183 0
M  V30 1824 O 163.43 0.633784 -1.85364 0
M  V30 1825 H 162.01 -0.602164 -0.442049 0
M  V30 1826 H 164.672 -1.88186 -0.507165 0
M  V30 1827 H 163.768 -2.45934 -1.92154 0
M  V30 1828 N 164.069 0.697108 -1.41344 0
M  V30 1829 C 164.979 1.84088 -1.45427 0
M  V30 1830 C 165.995 1.70545 -0.34501 0
M  V30 1831 O 167.171 1.92488 -0.592492 0
M  V30 1832 C 164.236 3.20056 -1.33286 0
M  V30 1833 C 163.297 3.45718 -2.54514 0
M  V30 1834 C 162.53 4.75199 -2.42944 0
M  V30 1835 O 162.753 5.51579 -1.45318 0
M  V30 1836 O 161.687 5.0161 -3.32672 0
M  V30 1837 H 165.513 1.836 -2.41919 0
M  V30 1838 H 163.098 0.849966 -1.22866 0
M  V30 1839 H 164.98 4.01236 -1.28794 0
M  V30 1840 H 163.655 3.2123 -0.39909 0
M  V30 1841 H 162.562 2.64474 -2.64583 0
M  V30 1842 H 163.895 3.49356 -3.46715 0
M  V30 1843 N 165.547 1.27147 0.931209 0
M  V30 1844 C 166.795 1.13055 1.6752 0
M  V30 1845 C 167.116 -0.324791 1.92276 0
M  V30 1846 O 166.386 -1.22775 1.52654 0
M  V30 1847 H 164.966 0.415391 0.620854 0
M  V30 1848 H 167.628 1.59623 1.11833 0
M  V30 1849 H 166.724 1.65694 2.64485 0
M  V30 1850 N 167.025 -1.13721 1.09112 0
M  V30 1851 C 168.274 -1.84275 0.82009 0
M  V30 1852 C 168.587 -1.84253 -0.656509 0
M  V30 1853 O 169.793 -2.50668 -1.04296 0
M  V30 1854 C 168.249 -3.30825 1.41714 0
M  V30 1855 C 167.857 -3.39244 2.92605 0
M  V30 1856 C 169.601 -4.06443 1.22492 0
M  V30 1857 C 167.508 -4.80047 3.45411 0
M  V30 1858 H 166.438 -0.690387 0.30312 0
M  V30 1859 H 169.089 -1.28146 1.31343 0
M  V30 1860 H 167.471 -3.86737 0.851498 0
M  V30 1861 H 168.645 -2.93344 3.55367 0
M  V30 1862 H 166.96 -2.77088 3.10823 0
M  V30 1863 H 169.557 -5.10387 1.59402 0
M  V30 1864 H 169.9 -4.15972 0.165299 0
M  V30 1865 H 170.433 -3.56852 1.75788 0
M  V30 1866 H 167.172 -4.75709 4.50978 0
M  V30 1867 H 166.692 -5.26455 2.87411 0
M  V30 1868 H 168.371 -5.48957 3.42425 0
M  V30 1869 N 168.503 -0.877838 -1.30888 0
M  V30 1870 C 169.919 -0.570844 -1.49042 0
M  V30 1871 C 170.119 0.893159 -1.80624 0
M  V30 1872 O 169.175 1.67485 -1.88958 0
M  V30 1873 C 170.488 -1.47784 -2.61878 0
M  V30 1874 C 172.036 -1.48071 -2.75761 0
M  V30 1875 C 172.511 -2.37347 -3.91702 0
M  V30 1876 N 174.002 -2.35271 -3.99001 0
M  V30 1877 C 174.737 -3.01063 -4.88004 0
M  V30 1878 N 174.233 -3.76055 -5.81854 0
M  V30 1879 N 176.026 -2.90332 -4.81315 0
M  V30 1880 H 168.177 -1.82502 -1.0866 0
M  V30 1881 H 170.44 -0.780797 -0.537644 0
M  V30 1882 H 170.146 -2.51993 -2.45341 0
M  V30 1883 H 170.02 -1.18215 -3.58197 0
M  V30 1884 H 172.407 -0.446166 -2.91708 0
M  V30 1885 H 172.488 -1.81668 -1.80085 0
M  V30 1886 H 172.132 -3.40883 -3.76512 0
M  V30 1887 H 172.062 -2.01071 -4.86701 0
M  V30 1888 H 174.553 -1.80768 -3.3186 0
M  V30 1889 H 174.866 -4.23366 -6.46514 0
M  V30 1890 H 173.211 -3.80163 -5.81808 0
M  V30 1891 H 176.402 -2.31278 -4.06974 0
M  V30 1892 H 176.575 -3.41885 -5.50471 0
M  V30 1893 N 169.982 1.44106 -0.638065 0
M  V30 1894 C 171.228 2.02277 -0.145546 0
M  V30 1895 C 171.561 1.50125 1.23191 0
M  V30 1896 O 170.836 0.688133 1.8192 0
M  V30 1897 C 171.119 3.59829 -0.139791 0
M  V30 1898 C 170.972 4.22247 -1.55008 0
M  V30 1899 C 172.291 4.36873 0.531966 0
M  V30 1900 H 169.41 0.734992 -0.0543632 0
M  V30 1901 H 172.052 1.71592 -0.815863 0
M  V30 1902 H 170.202 3.86102 0.431007 0
M  V30 1903 H 171.874 4.07057 -2.1703 0
M  V30 1904 H 170.117 3.79476 -2.10191 0
M  V30 1905 H 170.788 5.31284 -1.49804 0
M  V30 1906 H 173.264 4.16074 0.0464781 0
M  V30 1907 H 172.14 5.4657 0.505206 0
M  V30 1908 H 172.401 4.11995 1.60352 0
M  V30 1909 N 171.46 0.379036 1.52974 0
M  V30 1910 C 172.423 -0.448865 2.24762 0
M  V30 1911 C 173.423 -0.998689 1.26027 0
M  V30 1912 O 174.613 -0.882313 1.50203 0
M  V30 1913 C 171.745 -1.62872 2.99476 0
M  V30 1914 H 172.938 0.179491 2.99362 0
M  V30 1915 H 170.491 0.13096 1.5575 0
M  V30 1916 H 171.226 -2.29479 2.29151 0
M  V30 1917 H 171.011 -1.24128 3.71934 0
M  V30 1918 H 172.501 -2.2151 3.5401 0
M  V30 1919 N 172.938 -1.57226 0.108567 0
M  V30 1920 C 174.166 -1.99179 -0.559954 0
M  V30 1921 C 174.581 -0.988022 -1.60884 0
M  V30 1922 O 173.938 0.0205512 -1.82488 0
M  V30 1923 C 173.989 -3.41159 -1.19552 0
M  V30 1924 O 173.71 -4.37694 -0.188577 0
M  V30 1925 C 175.211 -3.98188 -1.94837 0
M  V30 1926 H 172.431 -0.654228 -0.149088 0
M  V30 1927 H 174.975 -2.03598 0.19183 0
M  V30 1928 H 173.13 -3.37711 -1.89815 0
M  V30 1929 H 173.544 -5.20469 -0.649014 0
M  V30 1930 H 175.018 -4.99644 -2.34648 0
M  V30 1931 H 175.495 -3.3675 -2.81951 0
M  V30 1932 H 176.101 -4.0515 -1.2936 0
M  V30 1933 N 174.416 0.165178 -1.56732 0
M  V30 1934 C 175.663 0.880807 -1.8234 0
M  V30 1935 C 175.991 1.81977 -0.686621 0
M  V30 1936 O 175.246 1.92971 0.325697 0
M  V30 1937 C 175.545 1.70405 -3.1416 0
M  V30 1938 C 175.211 0.913475 -4.4155 0
M  V30 1939 C 173.873 0.695303 -4.7615 0
M  V30 1940 C 176.225 0.359349 -5.1996 0
M  V30 1941 C 173.553 -0.0879947 -5.86634 0
M  V30 1942 C 175.905 -0.410893 -6.31264 0
M  V30 1943 C 174.569 -0.639808 -6.64427 0
M  V30 1944 H 173.839 0.32231 -0.667231 0
M  V30 1945 H 176.486 0.145402 -1.90947 0
M  V30 1946 H 174.791 2.50903 -3.00923 0
M  V30 1947 H 176.488 2.26091 -3.31186 0
M  V30 1948 H 173.078 1.09357 -4.14414 0
M  V30 1949 H 177.262 0.515228 -4.93618 0
M  V30 1950 H 172.518 -0.27503 -6.10781 0
M  V30 1951 H 176.692 -0.847494 -6.91224 0
M  V30 1952 H 174.319 -1.24864 -7.49875 0
M  V30 1953 N 175.894 1.51508 0.433938 0
M  V30 1954 C 177.119 1.68443 1.21003 0
M  V30 1955 C 177.544 0.382636 1.84167 0
M  V30 1956 O 176.902 -0.65755 1.68956 0
M  V30 1957 C 176.95 2.80405 2.26727 0
M  V30 1958 O 176.054 2.44245 3.32292 0
M  V30 1959 H 175.395 0.561536 0.354363 0
M  V30 1960 H 177.925 1.9809 0.512024 0
M  V30 1961 H 177.935 3.0459 2.71457 0
M  V30 1962 H 176.61 3.74867 1.80132 0
M  V30 1963 H 175.187 2.30644 2.93015 0
M  V30 1964 N 177.372 -0.689602 1.41712 0
M  V30 1965 C 178.319 -1.80345 1.44029 0
M  V30 1966 C 179.289 -1.63478 0.293948 0
M  V30 1967 O 180.474 -1.84244 0.495869 0
M  V30 1968 C 177.614 -3.18272 1.33405 0
M  V30 1969 C 176.727 -3.46529 2.57956 0
M  V30 1970 C 175.862 -4.74103 2.39582 0
M  V30 1971 C 174.901 -4.95347 3.5958 0
M  V30 1972 N 174.038 -6.14151 3.40239 0
M  V30 1973 H 178.878 -1.77698 2.39222 0
M  V30 1974 H 176.415 -0.867688 1.18784 0
M  V30 1975 H 178.373 -3.97956 1.25246 0
M  V30 1976 H 177.003 -3.2008 0.418164 0
M  V30 1977 H 176.055 -2.61207 2.76542 0
M  V30 1978 H 177.367 -3.58126 3.47199 0
M  V30 1979 H 176.521 -5.61853 2.28924 0
M  V30 1980 H 175.26 -4.64763 1.47805 0
M  V30 1981 H 174.265 -4.06044 3.70686 0
M  V30 1982 H 175.49 -5.06542 4.52318 0
M  V30 1983 H 173.436 -6.06013 2.51167 0
M  V30 1984 H 173.353 -6.26543 4.23061 0
M  V30 1985 H 174.621 -7.04619 3.33365 0
M  V30 1986 N 178.85 -1.27639 -0.924453 0
M  V30 1987 C 180.075 -1.17101 -1.71179 0
M  V30 1988 C 180.5 0.268134 -1.86179 0
M  V30 1989 O 179.858 1.19415 -1.36418 0
M  V30 1990 C 179.906 -1.86313 -3.08739 0
M  V30 1991 O 179.01 -1.16331 -3.95652 0
M  V30 1992 H 178.351 -0.407091 -0.524569 0
M  V30 1993 H 180.881 -1.68767 -1.15666 0
M  V30 1994 H 180.891 -1.938 -3.59034 0
M  V30 1995 H 179.566 -2.91001 -2.97138 0
M  V30 1996 H 178.143 -1.16935 -3.54091 0
M  V30 1997 N 180.328 1.1314 -1.09713 0
M  V30 1998 C 181.574 1.84757 -0.836224 0
M  V30 1999 C 181.907 1.8347 0.636598 0
M  V30 2000 O 181.182 1.27491 1.46889 0
M  V30 2001 C 181.465 3.32782 -1.37578 0
M  V30 2002 C 181.318 3.42567 -2.91493 0
M  V30 2003 C 182.637 4.28307 -1.01198 0
M  V30 2004 H 179.756 0.67082 -0.305236 0
M  V30 2005 H 182.398 1.3278 -1.35903 0
M  V30 2006 H 180.548 3.77177 -0.931097 0
M  V30 2007 H 182.22 3.06862 -3.44432 0
M  V30 2008 H 180.463 2.83349 -3.28475 0
M  V30 2009 H 181.134 4.46674 -3.24324 0
M  V30 2010 H 183.61 3.91999 -1.39556 0
M  V30 2011 H 182.486 5.30307 -1.41653 0
M  V30 2012 H 182.747 4.42029 0.0794833 0
M  V30 2013 N 181.806 0.884767 1.30421 0
M  V30 2014 C 182.753 0.349642 2.28136 0
M  V30 2015 C 183.723 -0.560061 1.56373 0
M  V30 2016 O 184.908 -0.488524 1.8444 0
M  V30 2017 C 182.048 -0.42999 3.42411 0
M  V30 2018 C 181.161 0.508907 4.28992 0
M  V30 2019 C 180.296 -0.286301 5.30428 0
M  V30 2020 C 179.335 0.648079 6.08659 0
M  V30 2021 N 178.472 -0.111792 7.02011 0
M  V30 2022 H 183.312 1.18807 2.73293 0
M  V30 2023 H 180.849 0.597231 1.3443 0
M  V30 2024 H 182.807 -0.897923 4.07423 0
M  V30 2025 H 181.437 -1.23299 2.98324 0
M  V30 2026 H 180.489 1.09533 3.64289 0
M  V30 2027 H 181.801 1.22475 4.8353 0
M  V30 2028 H 180.955 -0.816098 6.01186 0
M  V30 2029 H 179.694 -1.03536 4.76583 0
M  V30 2030 H 178.699 1.18951 5.36778 0
M  V30 2031 H 179.924 1.39623 6.64592 0
M  V30 2032 H 177.87 -0.843395 6.50556 0
M  V30 2033 H 177.787 0.544429 7.54037 0
M  V30 2034 H 179.055 -0.622339 7.77012 0
M  V30 2035 N 183.284 -1.43765 0.645699 0
M  V30 2036 C 184.53 -2.02197 0.156271 0
M  V30 2037 C 184.863 -1.50776 -1.22393 0
M  V30 2038 O 184.138 -0.697771 -1.81553 0
M  V30 2039 C 184.421 -3.59749 0.158872 0
M  V30 2040 C 184.274 -4.21419 1.57245 0
M  V30 2041 C 185.593 -4.37149 -0.50879 0
M  V30 2042 H 182.712 -0.734694 0.0582602 0
M  V30 2043 H 185.354 -1.71157 0.824951 0
M  V30 2044 H 183.504 -3.86325 -0.410525 0
M  V30 2045 H 185.176 -4.059 2.19186 0
M  V30 2046 H 183.419 -3.78356 2.122 0
M  V30 2047 H 184.09 -5.30482 1.52619 0
M  V30 2048 H 186.566 -4.16093 -0.024412 0
M  V30 2049 H 185.442 -5.4683 -0.476213 0
M  V30 2050 H 185.703 -4.12839 -1.58165 0
M  V30 2051 N 184.763 -0.387143 -1.52771 0
M  V30 2052 C 185.673 0.456442 -2.30117 0
M  V30 2053 C 186.689 1.07342 -1.36944 0
M  V30 2054 O 187.865 1.07971 -1.70013 0
M  V30 2055 C 184.93 1.56957 -3.09136 0
M  V30 2056 C 183.991 0.977916 -4.18014 0
M  V30 2057 C 183.224 2.038 -4.93256 0
M  V30 2058 O 183.447 3.25271 -4.68567 0
M  V30 2059 O 182.381 1.6565 -5.78657 0
M  V30 2060 H 186.207 -0.17359 -3.03203 0
M  V30 2061 H 183.792 -0.150919 -1.48636 0
M  V30 2062 H 185.674 2.21628 -3.58412 0
M  V30 2063 H 184.349 2.18461 -2.38865 0
M  V30 2064 H 183.256 0.294525 -3.72939 0
M  V30 2065 H 184.589 0.407128 -4.90513 0
M  V30 2066 N 186.241 1.57166 -0.116904 0
M  V30 2067 C 187.191 2.11756 0.845178 0
M  V30 2068 C 188.175 1.03783 1.22955 0
M  V30 2069 O 189.367 1.3002 1.20099 0
M  V30 2070 C 186.496 2.71886 2.09602 0
M  V30 2071 C 185.582 3.86937 1.7361 0
M  V30 2072 N 185.973 4.94073 1.08284 0
M  V30 2073 C 184.271 3.97082 2.03082 0
M  V30 2074 C 184.972 5.74477 0.913855 0
M  V30 2075 N 183.948 5.2423 1.43818 0
M  V30 2076 H 187.75 2.91967 0.336523 0
M  V30 2077 H 185.264 1.62174 0.0856332 0
M  V30 2078 H 187.261 3.09338 2.79492 0
M  V30 2079 H 185.921 1.93138 2.61013 0
M  V30 2080 H 186.932 5.12483 0.747067 0
M  V30 2081 H 183.609 3.29372 2.56554 0
M  V30 2082 H 184.999 6.70701 0.40125 0
M  V30 2083 N 187.719 -0.156864 1.56817 0
M  V30 2084 C 188.944 -0.890331 1.87318 0
M  V30 2085 C 189.369 -1.74394 0.704855 0
M  V30 2086 O 188.727 -1.77972 -0.345786 0
M  V30 2087 C 188.775 -1.73102 3.16336 0
M  V30 2088 O 187.879 -2.83422 2.99576 0
M  V30 2089 H 187.22 -0.24857 0.615718 0
M  V30 2090 H 189.75 -0.150649 2.04045 0
M  V30 2091 H 189.76 -2.12803 3.48107 0
M  V30 2092 H 188.435 -1.10412 4.00976 0
M  V30 2093 H 187.012 -2.47199 2.7919 0
M  V30 2094 N 189.197 -1.51736 -0.425897 0
M  V30 2095 C 190.613 -1.40166 -0.76326 0
M  V30 2096 C 190.813 -0.492962 -1.95377 0
M  V30 2097 O 189.869 0.0475815 -2.52455 0
M  V30 2098 C 191.182 -2.82403 -1.03291 0
M  V30 2099 C 192.73 -2.91632 -1.13665 0
M  V30 2100 C 193.205 -4.34801 -1.43916 0
M  V30 2101 N 194.696 -4.3796 -1.50816 0
M  V30 2102 C 195.431 -5.4578 -1.75817 0
M  V30 2103 N 194.927 -6.63744 -1.98534 0
M  V30 2104 N 196.72 -5.33274 -1.77694 0
M  V30 2105 H 188.871 -2.09361 0.358 0
M  V30 2106 H 191.134 -0.942941 0.0978094 0
M  V30 2107 H 190.84 -3.50943 -0.230696 0
M  V30 2108 H 190.714 -3.22428 -1.95754 0
M  V30 2109 H 193.101 -2.23284 -1.92947 0
M  V30 2110 H 193.182 -2.55088 -0.190756 0
M  V30 2111 H 192.826 -5.03703 -0.65157 0
M  V30 2112 H 192.756 -4.68868 -2.39729 0
M  V30 2113 H 195.247 -3.52919 -1.35118 0
M  V30 2114 H 195.56 -7.41704 -2.17013 0
M  V30 2115 H 193.905 -6.66839 -1.95832 0
M  V30 2116 H 197.096 -4.40098 -1.59473 0
M  V30 2117 H 197.269 -6.1738 -1.9684 0
M  V30 2118 N 190.675 0.682077 -1.42076 0
M  V30 2119 C 191.638 1.77756 -1.44691 0
M  V30 2120 C 192.638 1.5726 -0.335535 0
M  V30 2121 O 193.828 1.63686 -0.596037 0
M  V30 2122 C 190.96 3.16301 -1.27146 0
M  V30 2123 H 192.153 1.76826 -2.42224 0
M  V30 2124 H 189.706 0.891012 -1.28416 0
M  V30 2125 H 190.441 3.22862 -0.305075 0
M  V30 2126 H 190.226 3.32581 -2.07683 0
M  V30 2127 H 191.716 3.96241 -1.31843 0
M  V30 2128 N 192.153 1.28127 0.917671 0
M  V30 2129 C 193.083 1.14248 2.03641 0
M  V30 2130 C 194.064 0.0412748 1.7005 0
M  V30 2131 O 195.249 0.217566 1.92977 0
M  V30 2132 C 192.379 0.799431 3.37974 0
M  V30 2133 C 191.333 1.85497 3.85713 0
M  V30 2134 C 190.659 1.36565 5.16966 0
M  V30 2135 C 191.959 3.26085 4.08002 0
M  V30 2136 H 193.653 2.07835 2.15511 0
M  V30 2137 H 191.199 1.00064 1.03553 0
M  V30 2138 H 193.152 0.689114 4.15727 0
M  V30 2139 H 191.876 -0.172145 3.26146 0
M  V30 2140 H 190.535 1.95437 3.10161 0
M  V30 2141 H 190.183 0.383253 5.01538 0
M  V30 2142 H 189.883 2.07143 5.49878 0
M  V30 2143 H 191.407 1.26848 5.97279 0
M  V30 2144 H 192.821 3.19089 4.76293 0
M  V30 2145 H 191.218 3.94462 4.52238 0
M  V30 2146 H 192.288 3.70394 3.12948 0
M  V30 2147 N 193.631 -1.12557 1.10312 0
M  V30 2148 C 194.561 -2.20341 0.772798 0
M  V30 2149 C 195.542 -1.68198 -0.25365 0
M  V30 2150 O 196.727 -1.93831 -0.119699 0
M  V30 2151 C 193.857 -3.46709 0.202443 0
M  V30 2152 C 192.811 -4.11996 1.15943 0
M  V30 2153 C 192.137 -5.328 0.450345 0
M  V30 2154 C 193.437 -4.5828 2.50552 0
M  V30 2155 H 195.131 -2.48229 1.674 0
M  V30 2156 H 192.677 -1.19308 0.806326 0
M  V30 2157 H 194.63 -4.2138 -0.0407752 0
M  V30 2158 H 193.354 -3.18245 -0.734001 0
M  V30 2159 H 192.013 -3.39305 1.38808 0
M  V30 2160 H 191.661 -5.00602 -0.490531 0
M  V30 2161 H 191.361 -5.7743 1.08851 0
M  V30 2162 H 192.885 -6.10219 0.215642 0
M  V30 2163 H 194.299 -5.2433 2.31843 0
M  V30 2164 H 192.696 -5.13683 3.10242 0
M  V30 2165 H 193.766 -3.72329 3.10643 0
M  V30 2166 N 195.109 -0.891671 -1.2995 0
M  V30 2167 C 196.039 -0.379797 -2.30391 0
M  V30 2168 C 197.02 0.540919 -1.6127 0
M  V30 2169 O 198.205 0.453352 -1.88834 0
M  V30 2170 C 195.335 0.400654 -3.44981 0
M  V30 2171 C 194.289 -0.428905 -4.25846 0
M  V30 2172 C 193.615 0.478557 -5.32554 0
M  V30 2173 C 194.915 -1.67458 -4.94727 0
M  V30 2174 H 196.609 -1.21914 -2.73454 0
M  V30 2175 H 194.155 -0.587675 -1.31462 0
M  V30 2176 H 196.108 0.769434 -4.14316 0
M  V30 2177 H 194.832 1.27371 -3.0074 0
M  V30 2178 H 193.491 -0.779911 -3.58208 0
M  V30 2179 H 193.139 1.34951 -4.84559 0
M  V30 2180 H 192.839 -0.0727433 -5.87555 0
M  V30 2181 H 194.363 0.843705 -6.04743 0
M  V30 2182 H 195.777 -1.376 -5.56542 0
M  V30 2183 H 194.174 -2.16659 -5.59624 0
M  V30 2184 H 195.244 -2.41518 -4.20473 0
M  V30 2185 N 196.587 1.43421 -0.653314 0
M  V30 2186 C 197.833 2.02111 -0.166992 0
M  V30 2187 C 198.166 1.51423 1.21592 0
M  V30 2188 O 197.441 0.707389 1.8118 0
M  V30 2189 C 197.724 3.5966 -0.177948 0
M  V30 2190 C 197.577 4.20579 -1.59478 0
M  V30 2191 C 198.896 4.37413 0.4856 0
M  V30 2192 H 196.015 0.734374 -0.0621557 0
M  V30 2193 H 198.657 1.70717 -0.834016 0
M  V30 2194 H 196.807 3.86537 0.390032 0
M  V30 2195 H 198.479 4.04732 -2.21336 0
M  V30 2196 H 196.722 3.77226 -2.14204 0
M  V30 2197 H 197.393 5.29665 -1.5543 0
M  V30 2198 H 199.869 4.161 0.00234528 0
M  V30 2199 H 198.745 5.47075 0.447207 0
M  V30 2200 H 199.006 4.13672 1.55974 0
M  V30 2201 N 198.065 0.39524 1.52563 0
M  V30 2202 C 199.293 -0.184943 2.06072 0
M  V30 2203 C 199.708 -1.40021 1.26647 0
M  V30 2204 O 199.065 -1.79767 0.314672 0
M  V30 2205 C 199.116 -0.549179 3.57304 0
M  V30 2206 O 198.837 0.617813 4.33722 0
M  V30 2207 C 200.338 -1.18459 4.2718 0
M  V30 2208 H 197.558 -0.0265025 0.670476 0
M  V30 2209 H 200.102 0.562184 1.96621 0
M  V30 2210 H 198.257 -1.2462 3.66809 0
M  V30 2211 H 198.671 0.317091 5.23541 0
M  V30 2212 H 200.145 -1.38976 5.34219 0
M  V30 2213 H 200.622 -2.15368 3.82771 0
M  V30 2214 H 201.228 -0.528163 4.22008 0
M  V30 2215 N 199.544 -1.57102 0.125237 0
M  V30 2216 C 200.454 -2.19191 -0.8362 0
M  V30 2217 C 201.47 -1.16985 -1.28805 0
M  V30 2218 O 202.646 -1.49479 -1.34974 0
M  V30 2219 C 199.711 -2.78407 -2.06617 0
M  V30 2220 C 198.772 -3.9567 -1.66565 0
M  V30 2221 C 198.005 -4.52052 -2.83698 0
M  V30 2222 O 198.228 -4.07326 -3.99302 0
M  V30 2223 O 197.162 -5.42645 -2.60423 0
M  V30 2224 H 200.988 -3.01816 -0.337776 0
M  V30 2225 H 198.573 -1.4906 -0.100695 0
M  V30 2226 H 200.455 -3.16129 -2.7864 0
M  V30 2227 H 199.13 -1.9881 -2.55453 0
M  V30 2228 H 198.037 -3.62705 -0.916296 0
M  V30 2229 H 199.37 -4.76722 -1.22464 0
M  V30 2230 N 201.022 0.148545 -1.56898 0
M  V30 2231 C 202.299 0.890019 -1.74178 0
M  V30 2232 C 202.679 1.99407 -0.692839 0
M  V30 2233 O 202.027 2.26671 0.288505 0
M  V30 2234 C 202.237 1.43389 -3.18183 0
M  V30 2235 C 203.585 1.89791 -3.79822 0
M  V30 2236 O 204.609 1.53134 -3.21603 0
M  V30 2237 O 203.468 2.57387 -4.82093 0
M  V30 2238 H 200.562 0.420496 -0.712118 0
M  V30 2239 H 203.108 0.134591 -1.69165 0
M  V30 2240 H 201.88 0.640383 -3.86024 0
M  V30 2241 H 201.503 2.25287 -3.27615 0
M  V30 2242 N 202.5 1.5196 0.417844 0
M  V30 2243 C 203.749 1.6482 1.16264 0
M  V30 2244 C 204.062 0.379886 1.91876 0
M  V30 2245 O 205.268 0.388154 2.68711 0
M  V30 2246 C 203.724 2.91161 2.1155 0
M  V30 2247 C 203.332 4.25068 1.41495 0
M  V30 2248 C 205.076 3.13383 2.86341 0
M  V30 2249 C 202.983 5.42541 2.35379 0
M  V30 2250 H 201.913 0.613954 0.437694 0
M  V30 2251 H 204.564 1.78442 0.427871 0
M  V30 2252 H 202.946 2.71218 2.88543 0
M  V30 2253 H 204.12 4.55463 0.699263 0
M  V30 2254 H 202.435 4.0888 0.787792 0
M  V30 2255 H 205.032 3.98324 3.5671 0
M  V30 2256 H 205.375 2.27256 3.48798 0
M  V30 2257 H 205.908 3.33757 2.1645 0
M  V30 2258 H 202.647 6.30987 1.77582 0
M  V30 2259 H 202.167 5.16497 3.04945 0
M  V30 2260 H 203.846 5.75272 2.96093 0
M  V30 2261 N 203.978 -0.674533 1.42435 0
M  V30 2262 C 204.908 -1.80009 1.48724 0
M  V30 2263 C 205.889 -1.6659 0.343793 0
M  V30 2264 O 207.074 -1.86007 0.558137 0
M  V30 2265 C 204.204 -3.18306 1.38919 0
M  V30 2266 C 203.158 -3.46461 2.51294 0
M  V30 2267 C 202.484 -4.84335 2.26547 0
M  V30 2268 C 203.784 -3.43328 3.93603 0
M  V30 2269 H 205.478 -1.75004 2.42928 0
M  V30 2270 H 203.024 -0.840533 1.16923 0
M  V30 2271 H 204.977 -3.9678 1.41927 0
M  V30 2272 H 203.701 -3.2399 0.412094 0
M  V30 2273 H 202.36 -2.70348 2.47604 0
M  V30 2274 H 202.008 -4.86669 1.2713 0
M  V30 2275 H 201.708 -5.04136 3.01861 0
M  V30 2276 H 203.232 -5.65094 2.31304 0
M  V30 2277 H 204.646 -4.11772 3.98894 0
M  V30 2278 H 203.043 -3.74664 4.68771 0
M  V30 2279 H 204.113 -2.41897 4.20255 0
M  V30 2280 N 205.456 -1.28612 -0.910864 0
M  V30 2281 C 206.403 -1.12786 -2.01365 0
M  V30 2282 C 207.373 -0.024201 -1.66082 0
M  V30 2283 O 208.558 -0.189667 -1.89855 0
M  V30 2284 C 205.698 -0.798743 -3.35729 0
M  V30 2285 C 204.811 -1.98173 -3.83864 0
M  V30 2286 C 203.946 -1.59298 -5.06752 0
M  V30 2287 C 202.985 -2.74245 -5.47226 0
M  V30 2288 N 202.122 -2.35842 -6.61304 0
M  V30 2289 H 206.962 -2.07142 -2.14234 0
M  V30 2290 H 204.499 -1.03093 -1.0493 0
M  V30 2291 H 206.457 -0.588662 -4.13026 0
M  V30 2292 H 205.087 0.10789 -3.2262 0
M  V30 2293 H 204.139 -2.30386 -3.02699 0
M  V30 2294 H 205.451 -2.84343 -4.09818 0
M  V30 2295 H 204.605 -1.34513 -5.916 0
M  V30 2296 H 203.344 -0.702618 -4.82612 0
M  V30 2297 H 202.349 -2.99725 -4.60918 0
M  V30 2298 H 203.574 -3.63928 -5.73353 0
M  V30 2299 H 201.52 -1.49279 -6.38789 0
M  V30 2300 H 201.437 -3.15546 -6.86998 0
M  V30 2301 H 202.705 -2.14348 -7.4945 0
M  V30 2302 N 206.934 1.1197 -1.10907 0
M  V30 2303 C 207.864 2.19928 -0.784473 0
M  V30 2304 C 208.845 1.6833 0.244726 0
M  V30 2305 O 210.03 1.93892 0.109418 0
M  V30 2306 C 207.16 3.46597 -0.220827 0
M  V30 2307 C 206.114 4.11376 -1.18127 0
M  V30 2308 C 205.44 5.32554 -0.478594 0
M  V30 2309 C 206.74 4.56945 -2.52979 0
M  V30 2310 H 208.434 2.47337 -1.68715 0
M  V30 2311 H 205.98 1.18879 -0.812642 0
M  V30 2312 H 207.933 4.21396 0.0184278 0
M  V30 2313 H 206.657 3.1863 0.717113 0
M  V30 2314 H 205.316 3.38564 -1.40606 0
M  V30 2315 H 204.964 5.00856 0.463976 0
M  V30 2316 H 204.664 5.76844 -1.11912 0
M  V30 2317 H 206.188 6.10096 -0.248 0
M  V30 2318 H 207.602 5.23093 -2.3462 0
M  V30 2319 H 205.999 5.1203 -3.12962 0
M  V30 2320 H 207.069 3.70676 -3.12614 0
M  V30 2321 N 208.412 0.89855 1.29475 0
M  V30 2322 C 209.36 0.365253 2.29714 0
M  V30 2323 C 210.354 -0.534993 1.6073 0
M  V30 2324 O 211.56 -0.417921 1.75081 0
M  V30 2325 H 207.935 0.0994853 0.74539 0
M  V30 2326 H 209.906 1.22406 2.72138 0
M  V30 2327 C 208.655 -0.393159 3.4547 0
M  V30 2328 H 207.978 0.290332 3.98744 0
M  V30 2329 H 209.418 -0.731189 4.17648 0
M  V30 2330 C 207.877 -1.59539 2.9673 0
M  V30 2331 O 208.407 -2.69469 2.97908 0
M  V30 2332 N 206.613 -1.43716 2.52575 0
M  V30 2333 H 206.16 -0.542828 2.51816 0
M  V30 2334 H 206.118 -2.24288 2.20323 0
M  V30 2335 N 209.89 -1.43072 0.660911 0
M  V30 2336 C 210.853 -2.29194 -0.0166406 0
M  V30 2337 C 211.853 -1.42609 -0.742912 0
M  V30 2338 O 213.043 -1.64155 -0.583004 0
M  V30 2339 C 210.175 -3.24831 -1.0343 0
M  V30 2340 H 211.368 -2.90596 0.741208 0
M  V30 2341 H 208.921 -1.5048 0.422532 0
M  V30 2342 H 209.656 -2.68339 -1.82111 0
M  V30 2343 H 209.441 -3.88676 -0.517082 0
M  V30 2344 H 210.931 -3.89451 -1.50723 0
M  V30 2345 N 211.368 -0.403325 -1.52352 0
M  V30 2346 C 212.593 0.176499 -2.06648 0
M  V30 2347 C 213.018 1.38577 -1.27193 0
M  V30 2348 O 212.376 1.7879 -0.300637 0
M  V30 2349 C 212.424 0.511061 -3.5696 0
M  V30 2350 O 211.528 1.60294 -3.79973 0
M  V30 2351 H 210.869 0.0167337 -0.663789 0
M  V30 2352 H 213.399 -0.574848 -1.96359 0
M  V30 2353 H 213.409 0.771362 -4.00642 0
M  V30 2354 H 212.084 -0.37296 -4.14224 0
M  V30 2355 H 210.661 1.33526 -3.48174 0
M  V30 2356 N 212.846 1.57033 -0.133567 0
M  V30 2357 C 214.071 2.00475 0.531477 0
M  V30 2358 C 214.496 1.01291 1.58499 0
M  V30 2359 O 213.854 -0.0133279 1.81295 0
M  V30 2360 C 213.902 3.42729 1.12113 0
M  V30 2361 O 213.006 3.46498 2.23636 0
M  V30 2362 H 212.347 0.650876 0.131362 0
M  V30 2363 H 214.877 2.03344 -0.22634 0
M  V30 2364 H 214.887 3.81246 1.4531 0
M  V30 2365 H 213.562 4.14428 0.349557 0
M  V30 2366 H 212.139 3.19811 1.91769 0
M  V30 2367 N 214.325 -0.140222 1.56975 0
M  V30 2368 C 215.272 -1.17292 1.98774 0
M  V30 2369 C 216.242 -1.4232 0.856408 0
M  V30 2370 O 217.427 -1.54541 1.119 0
M  V30 2371 C 214.567 -2.49973 2.37923 0
M  V30 2372 C 213.68 -2.32062 3.64378 0
M  V30 2373 C 212.815 -3.57825 3.926 0
M  V30 2374 C 211.854 -3.3498 5.12303 0
M  V30 2375 N 210.991 -4.52891 5.36502 0
M  V30 2376 H 215.831 -0.809472 2.86795 0
M  V30 2377 H 213.368 -0.388237 1.41884 0
M  V30 2378 H 215.326 -3.27346 2.58652 0
M  V30 2379 H 213.956 -2.84252 1.52972 0
M  V30 2380 H 213.008 -1.45711 3.51387 0
M  V30 2381 H 214.32 -2.11145 4.51906 0
M  V30 2382 H 213.474 -4.43624 4.13863 0
M  V30 2383 H 212.213 -3.81753 3.03506 0
M  V30 2384 H 211.218 -2.4757 4.90906 0
M  V30 2385 H 212.443 -3.12444 6.02956 0
M  V30 2386 H 210.389 -4.76979 4.50363 0
M  V30 2387 H 210.306 -4.35001 6.18312 0
M  V30 2388 H 211.574 -5.39884 5.62268 0
M  V30 2389 N 215.803 -1.52179 -0.40978 0
M  V30 2390 C 217.028 -1.70347 -1.18308 0
M  V30 2391 C 217.453 -0.411887 -1.83535 0
M  V30 2392 O 216.811 0.630587 -1.6998 0
M  V30 2393 C 216.859 -2.83977 -2.22238 0
M  V30 2394 O 215.963 -2.495 -3.28365 0
M  V30 2395 H 215.304 -0.567103 -0.345384 0
M  V30 2396 H 217.834 -1.98879 -0.480445 0
M  V30 2397 H 217.844 -3.0887 -2.66577 0
M  V30 2398 H 216.519 -3.77685 -1.74146 0
M  V30 2399 H 215.096 -2.35277 -2.89308 0
M  V30 2400 N 217.281 0.66697 -1.42791 0
M  V30 2401 C 218.228 1.7803 -1.4688 0
M  V30 2402 C 219.198 1.6299 -0.319919 0
M  V30 2403 O 220.383 1.83432 -0.525118 0
M  V30 2404 C 217.523 3.1611 -1.38451 0
M  V30 2405 C 216.636 3.42381 -2.63437 0
M  V30 2406 C 215.771 4.70232 -2.47094 0
M  V30 2407 C 214.81 4.89564 -3.67415 0
M  V30 2408 N 213.947 6.08661 -3.49966 0
M  V30 2409 H 218.787 1.7387 -2.42019 0
M  V30 2410 H 216.324 0.84868 -1.20149 0
M  V30 2411 H 218.282 3.95914 -1.31561 0
M  V30 2412 H 216.912 3.19374 -0.469033 0
M  V30 2413 H 215.964 2.56774 -2.80662 0
M  V30 2414 H 217.276 3.52557 -3.52853 0
M  V30 2415 H 216.43 5.5814 -2.37834 0
M  V30 2416 H 215.169 4.62353 -1.5518 0
M  V30 2417 H 214.174 4.00096 -3.77099 0
M  V30 2418 H 215.399 4.99282 -4.6032 0
M  V30 2419 H 213.345 6.0194 -2.60776 0
M  V30 2420 H 213.262 6.19733 -4.32975 0
M  V30 2421 H 214.53 6.99226 -3.44532 0
M  V30 2422 N 218.759 1.29093 0.90403 0
M  V30 2423 C 219.689 1.16401 2.02418 0
M  V30 2424 C 220.67 0.0593085 1.69997 0
M  V30 2425 O 221.855 0.238021 1.92736 0
M  V30 2426 C 218.985 0.835233 3.37107 0
M  V30 2427 C 217.939 1.89578 3.83724 0
M  V30 2428 C 217.265 1.42041 5.15489 0
M  V30 2429 C 218.565 3.30394 4.04521 0
M  V30 2430 H 220.259 2.10109 2.13295 0
M  V30 2431 H 217.805 1.01157 1.02486 0
M  V30 2432 H 219.758 0.733169 4.14973 0
M  V30 2433 H 218.482 -0.137543 3.2631 0
M  V30 2434 H 217.141 1.98715 3.08071 0
M  V30 2435 H 216.789 0.436426 5.01103 0
M  V30 2436 H 216.489 2.12964 5.4765 0
M  V30 2437 H 218.013 1.33176 5.959 0
M  V30 2438 H 219.427 3.24123 4.72882 0
M  V30 2439 H 217.824 3.99237 4.48029 0
M  V30 2440 H 218.894 3.73692 3.09002 0
M  V30 2441 N 220.237 -1.11381 1.11499 0
M  V30 2442 C 221.485 -1.8277 0.862524 0
M  V30 2443 C 221.806 -1.85097 -0.613534 0
M  V30 2444 O 221.076 -1.32198 -1.4457 0
M  V30 2445 H 219.656 -0.676823 0.316101 0
M  V30 2446 H 222.318 -1.34816 1.4075 0
M  V30 2447 H 221.414 -2.86614 1.23527 0
M  V30 2448 N 221.715 -0.905404 -1.28997 0
M  V30 2449 C 222.94 -0.549175 -1.99997 0
M  V30 2450 C 223.365 0.860276 -1.67275 0
M  V30 2451 O 222.723 1.57355 -0.900502 0
M  V30 2452 C 222.771 -0.755185 -3.52604 0
M  V30 2453 O 221.875 0.189692 -4.11964 0
M  V30 2454 H 221.216 -0.213899 -0.628604 0
M  V30 2455 H 223.746 -1.21856 -1.64354 0
M  V30 2456 H 223.756 -0.662045 -4.02593 0
M  V30 2457 H 222.431 -1.78271 -3.75755 0
M  V30 2458 H 221.008 0.0485257 -3.72868 0
M  V30 2459 N 223.193 1.4272 -0.668489 0
M  V30 2460 C 224.439 2.02443 -0.197076 0
M  V30 2461 C 224.794 1.51882 1.18109 0
M  V30 2462 O 224.087 0.708618 1.78015 0
M  V30 2463 C 224.281 3.57021 -0.164499 0
M  V30 2464 C 224.11 4.22583 -1.53797 0
M  V30 2465 C 222.88 4.58019 -2.13416 0
M  V30 2466 C 225.078 4.50588 -2.47941 0
M  V30 2467 N 223.06 5.08729 -3.4361 0
M  V30 2468 C 224.431 5.02782 -3.62782 0
M  V30 2469 C 226.486 4.32571 -2.46551 0
M  V30 2470 C 225.189 5.38852 -4.76478 0
M  V30 2471 C 227.215 4.69713 -3.59338 0
M  V30 2472 C 226.577 5.22053 -4.72906 0
M  V30 2473 H 222.676 0.773214 -0.116894 0
M  V30 2474 H 225.26 1.73673 -0.880108 0
M  V30 2475 H 223.431 3.85323 0.487925 0
M  V30 2476 H 225.163 4.03439 0.319207 0
M  V30 2477 H 221.918 4.43566 -1.65969 0
M  V30 2478 H 222.342 5.38521 -4.10273 0
M  V30 2479 H 226.984 3.91365 -1.59978 0
M  V30 2480 H 224.702 5.78993 -5.63731 0
M  V30 2481 H 228.288 4.57454 -3.59482 0
M  V30 2482 H 227.168 5.50258 -5.58736 0
M  V30 2483 N 224.671 0.411399 1.52136 0
M  V30 2484 C 225.634 -0.401089 2.25663 0
M  V30 2485 C 226.634 -0.971732 1.28117 0
M  V30 2486 O 227.824 -0.850254 1.52041 0
M  V30 2487 C 224.956 -1.56483 3.02863 0
M  V30 2488 H 226.149 0.24295 2.98914 0
M  V30 2489 H 223.702 0.163968 1.55438 0
M  V30 2490 H 224.437 -2.24567 2.33967 0
M  V30 2491 H 224.222 -1.16211 3.74483 0
M  V30 2492 H 225.712 -2.13951 3.58629 0
M  V30 2493 N 226.149 -1.5696 0.141893 0
M  V30 2494 C 227.059 -2.20066 -0.812905 0
M  V30 2495 C 228.075 -1.18344 -1.27557 0
M  V30 2496 O 229.251 -1.50902 -1.33381 0
M  V30 2497 C 226.316 -2.80583 -2.03652 0
M  V30 2498 C 225.377 -3.97414 -1.62359 0
M  V30 2499 C 224.61 -4.55036 -2.78887 0
M  V30 2500 O 224.833 -4.11538 -3.94959 0
M  V30 2501 O 223.767 -5.45376 -2.54653 0
M  V30 2502 H 227.593 -3.02157 -0.305746 0
M  V30 2503 H 225.178 -1.49159 -0.0848799 0
M  V30 2504 H 227.06 -3.19067 -2.75272 0
M  V30 2505 H 225.735 -2.01508 -2.5333 0
M  V30 2506 H 224.642 -3.63656 -0.877775 0
M  V30 2507 H 225.975 -4.77994 -1.17401 0
M  V30 2508 N 227.627 0.131896 -1.57047 0
M  V30 2509 C 228.855 0.856461 -1.88341 0
M  V30 2510 C 229.27 1.74042 -0.731757 0
M  V30 2511 O 228.627 1.80051 0.297945 0
M  V30 2512 C 228.678 1.70064 -3.18999 0
M  V30 2513 O 228.399 0.852278 -4.2973 0
M  V30 2514 C 229.9 2.53148 -3.63911 0
M  V30 2515 H 227.12 0.246885 -0.62393 0
M  V30 2516 H 229.664 0.120152 -2.04147 0
M  V30 2517 H 227.819 2.38984 -3.04902 0
M  V30 2518 H 228.233 1.43329 -5.04537 0
M  V30 2519 H 229.707 3.07931 -4.58129 0
M  V30 2520 H 230.184 3.29901 -2.89935 0
M  V30 2521 H 230.79 1.89492 -3.80753 0
M  V30 2522 N 229.106 1.52395 0.401703 0
M  V30 2523 C 230.354 1.66488 1.14569 0
M  V30 2524 C 230.675 0.400897 1.90835 0
M  V30 2525 O 229.945 -0.584415 1.8698 0
M  V30 2526 H 228.525 0.613672 0.425929 0
M  V30 2527 H 231.187 1.89464 0.457093 0
M  V30 2528 H 230.283 2.50942 1.85566 0
M  V30 2529 N 230.584 -0.659388 1.43143 0
M  V30 2530 C 231.534 -1.7655 1.44271 0
M  V30 2531 C 232.518 -1.57847 0.311961 0
M  V30 2532 O 233.71 -1.68064 0.555306 0
M  V30 2533 C 230.839 -3.15104 1.36251 0
M  V30 2534 C 229.925 -3.39377 2.54331 0
M  V30 2535 N 230.316 -3.34153 3.79704 0
M  V30 2536 C 228.614 -3.70072 2.48922 0
M  V30 2537 C 229.315 -3.58337 4.58225 0
M  V30 2538 N 228.291 -3.79851 3.88863 0
M  V30 2539 H 232.093 -1.70928 2.39083 0
M  V30 2540 H 229.607 -0.860823 1.37708 0
M  V30 2541 H 231.604 -3.94389 1.35141 0
M  V30 2542 H 230.264 -3.21913 0.424531 0
M  V30 2543 H 231.275 -3.13704 4.1208 0
M  V30 2544 H 227.952 -3.84034 1.63781 0
M  V30 2545 H 229.342 -3.60129 5.67236 0
M  V30 2546 N 232.062 -1.29571 -0.897171 0
M  V30 2547 C 233.473 -1.15964 -1.46319 0
M  V30 2548 C 233.824 0.244267 -1.94674 0
M  V30 2549 O 232.949 1.13998 -1.83939 0
M  V30 2550 C 233.544 -2.09906 -2.65942 0
M  V30 2551 C 232.103 -2.00314 -3.18671 0
M  V30 2552 C 231.25 -2.00687 -1.91363 0
M  V30 2553 H 234.201 -1.42019 -0.708268 0
M  V30 2554 H 234.222 -1.67276 -3.41759 0
M  V30 2555 H 233.734 -3.12075 -2.30718 0
M  V30 2556 H 231.835 -1.01242 -3.58582 0
M  V30 2557 H 231.948 -2.88102 -3.82798 0
M  V30 2558 H 230.312 -1.45319 -2.09175 0
M  V30 2559 H 231.095 -3.04566 -1.58413 0
M  V30 2560 N 233.54 1.10788 -1.12088 0
M  V30 2561 C 234.817 1.79136 -0.785476 0
M  V30 2562 C 235.197 1.98246 0.725377 0
M  V30 2563 O 234.545 1.57258 1.65778 0
M  V30 2564 C 234.755 3.12375 -1.55636 0
M  V30 2565 C 236.103 3.8731 -1.74001 0
M  V30 2566 O 237.127 3.22085 -1.52117 0
M  V30 2567 O 235.986 5.04369 -2.10415 0
M  V30 2568 H 233.08 0.776226 -0.285311 0
M  V30 2569 H 235.626 1.1747 -1.2247 0
M  V30 2570 H 234.398 2.93863 -2.5838 0
M  V30 2571 H 234.021 3.81758 -1.11114 0
M  V30 2572 N 235.018 0.912232 1.28515 0
M  V30 2573 C 236.295 0.463597 1.90027 0
M  V30 2574 C 236.675 -1.05753 1.82701 0
M  V30 2575 O 236.023 -1.90492 1.26194 0
M  V30 2576 C 236.233 0.992253 3.34597 0
M  V30 2577 C 237.581 1.04344 4.11579 0
M  V30 2578 O 238.605 0.94079 3.43551 0
M  V30 2579 O 237.464 1.1995 5.33174 0
M  V30 2580 H 234.558 0.146666 0.813891 0
M  V30 2581 H 237.104 1.00292 1.36893 0
M  V30 2582 H 235.876 2.03623 3.34146 0
M  V30 2583 H 235.499 0.433672 3.95228 0
M  V30 2584 N 236.496 -1.42363 0.676048 0
M  V30 2585 C 237.406 -2.346 -0.00153389 0
M  V30 2586 C 238.422 -1.5516 -0.787485 0
M  V30 2587 O 239.598 -1.87723 -0.729521 0
M  V30 2588 C 236.663 -3.33705 -0.940298 0
M  V30 2589 C 235.724 -4.29042 -0.148739 0
M  V30 2590 C 234.957 -5.23413 -1.04279 0
M  V30 2591 O 235.18 -5.22749 -2.28232 0
M  V30 2592 O 234.114 -5.99795 -0.502925 0
M  V30 2593 H 237.94 -2.94082 0.758268 0
M  V30 2594 H 235.525 -1.42888 0.436289 0
M  V30 2595 H 237.407 -3.94586 -1.47917 0
M  V30 2596 H 236.082 -2.76695 -1.67993 0
M  V30 2597 H 234.989 -3.71571 0.43427 0
M  V30 2598 H 236.322 -4.89097 0.551805 0
M  V30 2599 N 237.974 -0.419461 -1.51915 0
M  V30 2600 C 239.221 0.152939 -2.01922 0
M  V30 2601 C 239.549 1.4426 -1.30458 0
M  V30 2602 O 238.804 1.91514 -0.402593 0
M  V30 2603 C 239.103 0.437067 -3.54717 0
M  V30 2604 C 238.769 -0.764632 -4.44369 0
M  V30 2605 C 237.431 -1.09423 -4.68594 0
M  V30 2606 C 239.783 -1.56713 -4.97082 0
M  V30 2607 C 237.111 -2.22732 -5.42777 0
M  V30 2608 C 239.463 -2.69107 -5.72507 0
M  V30 2609 C 238.127 -3.02541 -5.95 0
M  V30 2610 H 237.397 0.0559644 -0.738884 0
M  V30 2611 H 240.044 -0.562998 -1.83037 0
M  V30 2612 H 238.349 1.23469 -3.71837 0
M  V30 2613 H 240.046 0.893083 -3.90928 0
M  V30 2614 H 236.636 -0.497775 -4.257 0
M  V30 2615 H 240.82 -1.32571 -4.78266 0
M  V30 2616 H 236.076 -2.48971 -5.58411 0
M  V30 2617 H 240.25 -3.31671 -6.12346 0
M  V30 2618 H 237.877 -3.90457 -6.52264 0
M  V30 2619 N 239.452 1.56882 -0.150215 0
M  V30 2620 C 240.362 2.20494 0.801222 0
M  V30 2621 C 241.378 1.19019 1.26927 0
M  V30 2622 O 242.554 1.51607 1.32579 0
M  V30 2623 C 239.619 2.81659 2.02161 0
M  V30 2624 C 238.68 3.9827 1.60249 0
M  V30 2625 C 237.913 4.56508 2.7647 0
M  V30 2626 O 238.136 4.13627 3.92771 0
M  V30 2627 O 237.07 5.46719 2.51757 0
M  V30 2628 H 240.896 3.02315 0.289717 0
M  V30 2629 H 238.481 1.49202 0.0769684 0
M  V30 2630 H 240.363 3.20522 2.73576 0
M  V30 2631 H 239.038 2.02849 2.52258 0
M  V30 2632 H 237.945 3.64117 0.858477 0
M  V30 2633 H 239.278 4.78609 1.14864 0
M  V30 2634 N 240.93 -0.123565 1.57115 0
M  V30 2635 C 242.155 -0.850398 1.89164 0
M  V30 2636 C 242.58 -1.7286 0.741688 0
M  V30 2637 O 241.938 -1.78665 -0.307958 0
M  V30 2638 C 241.986 -1.66353 3.19936 0
M  V30 2639 O 241.09 -2.77004 3.0552 0
M  V30 2640 H 240.431 -0.235454 0.620852 0
M  V30 2641 H 242.961 -0.107335 2.04318 0
M  V30 2642 H 242.971 -2.05372 3.52543 0
M  V30 2643 H 241.646 -1.01881 4.03228 0
M  V30 2644 H 240.223 -2.41221 2.84371 0
M  V30 2645 N 242.408 -1.52605 -0.393616 0
M  V30 2646 C 243.318 -1.79971 -1.50492 0
M  V30 2647 C 244.334 -0.686181 -1.59899 0
M  V30 2648 O 245.51 -0.973274 -1.76322 0
M  V30 2649 C 242.575 -1.95867 -2.86072 0
M  V30 2650 C 241.636 -3.19781 -2.86424 0
M  V30 2651 C 240.869 -3.34909 -4.15538 0
M  V30 2652 O 241.092 -2.54948 -5.10253 0
M  V30 2653 O 240.026 -4.28141 -4.23059 0
M  V30 2654 H 243.852 -2.74328 -1.30299 0
M  V30 2655 H 241.437 -1.3764 -0.581005 0
M  V30 2656 H 243.319 -2.08056 -3.66457 0
M  V30 2657 H 241.994 -1.04699 -3.063 0
M  V30 2658 H 240.901 -3.13038 -2.04837 0
M  V30 2659 H 242.234 -4.1078 -2.71147 0
M  V30 2660 N 243.887 0.651787 -1.4349 0
M  V30 2661 C 245.115 1.43937 -1.48626 0
M  V30 2662 C 245.53 1.8851 -0.104587 0
M  V30 2663 O 244.887 1.5958 0.885464 0
M  V30 2664 C 244.938 2.6734 -2.43334 0
M  V30 2665 O 244.659 2.24631 -3.76128 0
M  V30 2666 C 246.16 3.60683 -2.57726 0
M  V30 2667 H 243.38 0.44213 -0.504739 0
M  V30 2668 H 245.924 0.798944 -1.88248 0
M  V30 2669 H 244.079 3.2752 -2.06904 0
M  V30 2670 H 244.493 3.04485 -4.2707 0
M  V30 2671 H 245.967 4.43933 -3.28067 0
M  V30 2672 H 246.444 4.08126 -1.62265 0
M  V30 2673 H 247.05 3.06384 -2.94973 0
M  V30 2674 N 245.365 1.30045 0.890287 0
M  V30 2675 C 246.776 1.16738 1.45702 0
M  V30 2676 C 247.127 -0.233939 1.948 0
M  V30 2677 O 246.252 -1.13021 1.84541 0
M  V30 2678 C 246.847 2.11313 2.64825 0
M  V30 2679 C 245.406 2.02001 3.17604 0
M  V30 2680 C 244.553 2.01699 1.90296 0
M  V30 2681 H 247.504 1.42392 0.700726 0
M  V30 2682 H 247.525 1.69086 3.40867 0
M  V30 2683 H 247.037 3.13294 2.2906 0
M  V30 2684 H 245.138 1.03142 3.5804 0
M  V30 2685 H 245.251 2.90128 3.81264 0
M  V30 2686 H 243.615 1.46427 2.08402 0
M  V30 2687 H 244.398 3.05402 1.56795 0
M  V30 2688 N 246.843 -1.10192 1.12674 0
M  V30 2689 C 247.791 -2.18694 0.792196 0
M  V30 2690 C 248.785 -1.67938 -0.222058 0
M  V30 2691 O 249.991 -1.79822 -0.0800074 0
M  V30 2692 H 246.366 -0.713223 0.238364 0
M  V30 2693 H 248.337 -2.44149 1.71564 0
M  V30 2694 C 247.086 -3.46682 0.265859 0
M  V30 2695 H 246.409 -3.86101 1.03761 0
M  V30 2696 H 247.849 -4.23942 0.0701128 0
M  V30 2697 C 246.308 -3.21506 -1.00675 0
M  V30 2698 O 246.838 -3.43408 -2.08408 0
M  V30 2699 N 245.044 -2.75158 -0.934692 0
M  V30 2700 H 244.591 -2.57535 -0.0578604 0
M  V30 2701 H 244.549 -2.58691 -1.7868 0
M  V30 2702 N 248.321 -0.919034 -1.28029 0
M  V30 2703 C 249.568 -0.554934 -1.94748 0
M  V30 2704 C 249.896 0.90231 -1.72304 0
M  V30 2705 O 249.151 1.65767 -1.04018 0
M  V30 2706 C 249.45 -0.816855 -3.4794 0
M  V30 2707 C 249.116 -2.25448 -3.90492 0
M  V30 2708 C 247.778 -2.64752 -4.01821 0
M  V30 2709 C 250.13 -3.18977 -4.12193 0
M  V30 2710 C 247.458 -3.96727 -4.32232 0
M  V30 2711 C 249.81 -4.50523 -4.44086 0
M  V30 2712 C 248.474 -4.89673 -4.53626 0
M  V30 2713 H 247.744 -0.203065 -0.712633 0
M  V30 2714 H 250.391 -1.16136 -1.52265 0
M  V30 2715 H 248.696 -0.127677 -3.91592 0
M  V30 2716 H 250.393 -0.514238 -3.97689 0
M  V30 2717 H 246.983 -1.93952 -3.82205 0
M  V30 2718 H 251.167 -2.89817 -4.02889 0
M  V30 2719 H 246.423 -4.26754 -4.37825 0
M  V30 2720 H 250.597 -5.23005 -4.59825 0
M  V30 2721 H 248.224 -5.91969 -4.76946 0
M  V30 2722 N 249.799 1.42003 -0.683588 0
M  V30 2723 C 250.746 2.30798 -0.0107309 0
M  V30 2724 C 251.716 1.4645 0.783688 0
M  V30 2725 O 252.901 1.75263 0.754156 0
M  V30 2726 C 250.041 3.3238 0.928306 0
M  V30 2727 C 249.154 4.31814 0.126776 0
M  V30 2728 C 248.289 5.20468 1.06236 0
M  V30 2729 C 247.328 6.11577 0.253035 0
M  V30 2730 N 246.465 6.92754 1.14179 0
M  V30 2731 H 251.305 2.8778 -0.773727 0
M  V30 2732 H 248.842 1.41745 -0.393283 0
M  V30 2733 H 250.8 3.89813 1.48666 0
M  V30 2734 H 249.43 2.76976 1.65783 0
M  V30 2735 H 248.482 3.76427 -0.54833 0
M  V30 2736 H 249.794 4.96276 -0.501192 0
M  V30 2737 H 248.948 5.82677 1.69035 0
M  V30 2738 H 247.687 4.56204 1.7242 0
M  V30 2739 H 246.692 5.48428 -0.388108 0
M  V30 2740 H 247.917 6.77892 -0.404839 0
M  V30 2741 H 245.863 6.3111 1.78987 0
M  V30 2742 H 245.78 7.53855 0.569111 0
M  V30 2743 H 247.048 7.59441 1.75697 0
M  V30 2744 N 251.277 0.427512 1.51691 0
M  V30 2745 C 252.507 -0.140986 2.06118 0
M  V30 2746 C 252.915 -1.37854 1.29588 0
M  V30 2747 O 252.258 -1.80411 0.346036 0
M  V30 2748 C 252.32 -0.538276 3.55447 0
M  V30 2749 C 251.984 0.591095 4.53161 0
M  V30 2750 C 252.981 1.46027 4.98971 0
M  V30 2751 C 250.666 0.769028 4.96378 0
M  V30 2752 C 252.66 2.49216 5.8666 0
M  V30 2753 C 250.347 1.80421 5.83859 0
M  V30 2754 C 251.345 2.66417 6.28897 0
M  V30 2755 O 251.033 3.68159 7.14643 0
M  V30 2756 H 250.765 -0.0157455 0.675817 0
M  V30 2757 H 253.319 0.602495 1.96365 0
M  V30 2758 H 251.549 -1.33432 3.6295 0
M  V30 2759 H 253.238 -1.0368 3.92435 0
M  V30 2760 H 254.004 1.33429 4.66285 0
M  V30 2761 H 249.883 0.109273 4.6087 0
M  V30 2762 H 253.427 3.16372 6.21735 0
M  V30 2763 H 249.324 1.93042 6.15959 0
M  V30 2764 H 250.092 3.64622 7.32798 0
M  V30 2765 N 252.755 -1.56801 0.158532 0
M  V30 2766 C 253.718 -2.16138 -0.762705 0
M  V30 2767 C 254.718 -1.1061 -1.16713 0
M  V30 2768 O 255.908 -1.36191 -1.08617 0
M  V30 2769 C 253.04 -2.73386 -2.03649 0
M  V30 2770 H 254.233 -2.98886 -0.246354 0
M  V30 2771 H 251.786 -1.56035 -0.0909744 0
M  V30 2772 H 252.521 -1.94335 -2.59623 0
M  V30 2773 H 252.306 -3.50601 -1.75559 0
M  V30 2774 H 253.796 -3.19065 -2.6942 0
M  V30 2775 N 254.233 0.115231 -1.57178 0
M  V30 2776 C 255.165 1.16694 -1.97269 0
M  V30 2777 C 256.178 1.37445 -0.872502 0
M  V30 2778 O 257.367 1.36454 -1.15077 0
M  V30 2779 C 254.467 2.52627 -2.25905 0
M  V30 2780 C 253.64 2.52427 -3.57211 0
M  V30 2781 C 252.699 3.70134 -3.74016 0
M  V30 2782 O 251.725 3.53546 -4.46087 0
M  V30 2783 N 252.927 4.88844 -3.13068 0
M  V30 2784 H 255.692 0.82588 -2.88096 0
M  V30 2785 H 253.253 0.304461 -1.59011 0
M  V30 2786 H 255.245 3.29937 -2.34359 0
M  V30 2787 H 253.815 2.789 -1.41186 0
M  V30 2788 H 253.035 1.60805 -3.5991 0
M  V30 2789 H 254.323 2.49353 -4.43509 0
M  V30 2790 H 253.721 5.05225 -2.54489 0
M  V30 2791 H 252.278 5.63817 -3.27037 0
M  V30 2792 N 255.711 1.52812 0.385517 0
M  V30 2793 C 256.641 1.80808 1.47752 0
M  V30 2794 C 257.622 0.660318 1.5676 0
M  V30 2795 O 258.807 0.908246 1.71652 0
M  V30 2796 C 255.937 1.98008 2.85324 0
M  V30 2797 C 254.891 3.13709 2.91154 0
M  V30 2798 C 254.217 3.16169 4.31209 0
M  V30 2799 C 255.517 4.52709 2.60483 0
M  V30 2800 H 257.211 2.72253 1.24573 0
M  V30 2801 H 254.757 1.31003 0.597839 0
M  V30 2802 H 256.71 2.16176 3.61726 0
M  V30 2803 H 255.434 1.03255 3.09848 0
M  V30 2804 H 254.093 2.95329 2.17201 0
M  V30 2805 H 253.741 2.19092 4.52778 0
M  V30 2806 H 253.441 3.93894 4.36029 0
M  V30 2807 H 254.965 3.36496 5.09512 0
M  V30 2808 H 256.379 4.71173 3.26602 0
M  V30 2809 H 254.776 5.32528 2.76648 0
M  V30 2810 H 255.846 4.59186 1.55809 0
M  V30 2811 N 257.189 -0.644168 1.43834 0
M  V30 2812 C 258.466 -1.40188 1.36406 0
M  V30 2813 C 258.846 -2.11094 0.0163124 0
M  V30 2814 O 258.194 -2.05426 -1.00062 0
M  V30 2815 C 258.404 -2.3791 2.55343 0
M  V30 2816 C 259.752 -3.01637 2.98832 0
M  V30 2817 O 260.776 -2.48237 2.55455 0
M  V30 2818 O 259.635 -3.98477 3.74003 0
M  V30 2819 H 256.729 -0.626773 0.539523 0
M  V30 2820 H 259.275 -0.670317 1.559 0
M  V30 2821 H 258.047 -1.84525 3.4506 0
M  V30 2822 H 257.67 -3.18503 2.37995 0
M  V30 2823 N 258.668 -1.30515 -0.883378 0
M  V30 2824 C 259.914 -1.19607 -1.63774 0
M  V30 2825 C 260.247 0.248314 -1.92606 0
M  V30 2826 O 259.522 1.17742 -1.54813 0
M  V30 2827 C 259.805 -2.02669 -2.97653 0
M  V30 2828 C 259.658 -3.55335 -2.75784 0
M  V30 2829 C 260.977 -1.86573 -3.98596 0
M  V30 2830 H 258.096 -0.435856 -0.594305 0
M  V30 2831 H 260.738 -1.60165 -1.02212 0
M  V30 2832 H 258.888 -1.68208 -3.50197 0
M  V30 2833 H 260.56 -3.99863 -2.30016 0
M  V30 2834 H 258.803 -3.79438 -2.1026 0
M  V30 2835 H 259.474 -4.08745 -3.70988 0
M  V30 2836 H 261.95 -2.16703 -3.55217 0
M  V30 2837 H 260.826 -2.47014 -4.90179 0
M  V30 2838 H 261.087 -0.825321 -4.34328 0
M  V30 2839 N 260.146 1.09593 -1.13257 0
M  V30 2840 C 261.371 1.8604 -0.916732 0
M  V30 2841 C 261.796 1.80504 0.529146 0
M  V30 2842 O 261.154 1.18127 1.37534 0
M  V30 2843 C 261.202 3.32017 -1.40703 0
M  V30 2844 O 260.306 4.08141 -0.591153 0
M  V30 2845 H 259.647 0.576943 -0.328683 0
M  V30 2846 H 262.177 1.38405 -1.50682 0
M  V30 2847 H 262.187 3.82865 -1.4099 0
M  V30 2848 H 260.862 3.35361 -2.45979 0
M  V30 2849 H 259.439 3.67084 -0.656005 0
M  V30 2850 N 261.624 0.925811 1.2754 0
M  V30 2851 C 262.854 0.580666 1.98272 0
M  V30 2852 C 263.262 -0.845207 1.69272 0
M  V30 2853 O 262.605 -1.57306 0.948707 0
M  V30 2854 C 262.667 0.724418 3.52126 0
M  V30 2855 C 262.331 2.12206 4.04744 0
M  V30 2856 C 263.328 3.09604 4.17662 0
M  V30 2857 C 261.013 2.4385 4.39138 0
M  V30 2858 C 263.007 4.36755 4.64246 0
M  V30 2859 C 260.694 3.71237 4.85414 0
M  V30 2860 C 261.692 4.67503 4.97926 0
M  V30 2861 O 261.38 5.92624 5.43187 0
M  V30 2862 H 261.112 0.218987 0.639547 0
M  V30 2863 H 263.666 1.24452 1.63404 0
M  V30 2864 H 261.896 0.0034663 3.867 0
M  V30 2865 H 263.585 0.384607 4.04074 0
M  V30 2866 H 264.351 2.86478 3.91351 0
M  V30 2867 H 260.23 1.69665 4.28643 0
M  V30 2868 H 263.774 5.11898 4.73927 0
M  V30 2869 H 259.671 3.94182 5.11166 0
M  V30 2870 H 260.439 5.95585 5.61445 0
M  V30 2871 N 263.102 -1.41638 0.69111 0
M  V30 2872 C 264.327 -2.06148 0.227583 0
M  V30 2873 C 264.752 -1.51652 -1.11281 0
M  V30 2874 O 264.11 -0.64164 -1.69566 0
M  V30 2875 C 264.158 -3.60095 0.190858 0
M  V30 2876 O 263.262 -4.03845 -0.835664 0
M  V30 2877 H 262.603 -0.654434 0.112306 0
M  V30 2878 H 265.133 -1.81484 0.944714 0
M  V30 2879 H 265.143 -4.07995 0.020207 0
M  V30 2880 H 263.818 -3.99129 1.16915 0
M  V30 2881 H 262.395 -3.67458 -0.63473 0
M  V30 2882 N 264.58 -0.43555 -1.51462 0
M  V30 2883 C 265.828 0.131254 -2.01673 0
M  V30 2884 C 266.149 1.43368 -1.32177 0
M  V30 2885 O 265.419 1.90524 -0.455769 0
M  V30 2886 H 263.999 0.0514954 -0.745223 0
M  V30 2887 H 266.661 -0.577847 -1.86137 0
M  V30 2888 H 265.757 0.308446 -3.10572 0
M  V30 2889 N 266.058 1.56714 -0.166846 0
M  V30 2890 C 266.988 2.20754 0.760913 0
M  V30 2891 C 267.969 1.16178 1.24244 0
M  V30 2892 O 269.154 1.44592 1.29641 0
M  V30 2893 C 266.284 2.84478 1.99223 0
M  V30 2894 C 265.238 3.95053 1.64672 0
M  V30 2895 C 264.564 4.45805 2.95232 0
M  V30 2896 C 265.864 5.14865 0.878155 0
M  V30 2897 H 267.558 2.98537 0.22713 0
M  V30 2898 H 265.104 1.43596 0.107805 0
M  V30 2899 H 267.057 3.27951 2.64624 0
M  V30 2900 H 265.781 2.04056 2.55007 0
M  V30 2901 H 264.44 3.52228 1.01641 0
M  V30 2902 H 264.088 3.62181 3.49047 0
M  V30 2903 H 263.788 5.204 2.7287 0
M  V30 2904 H 265.312 4.91962 3.6167 0
M  V30 2905 H 266.726 5.55059 1.43466 0
M  V30 2906 H 265.123 5.95348 0.753738 0
M  V30 2907 H 266.193 4.84735 -0.126377 0
M  V30 2908 N 267.536 -0.106894 1.57237 0
M  V30 2909 C 268.782 -0.81373 1.85759 0
M  V30 2910 C 269.115 -1.78952 0.754315 0
M  V30 2911 O 268.39 -1.93029 -0.23879 0
M  V30 2912 C 268.673 -1.55293 3.24894 0
M  V30 2913 C 268.526 -0.595929 4.45835 0
M  V30 2914 C 269.845 -2.5063 3.61763 0
M  V30 2915 H 266.964 -0.294369 0.67566 0
M  V30 2916 H 269.606 -0.0776472 1.89841 0
M  V30 2917 H 267.756 -2.1804 3.21544 0
M  V30 2918 H 269.428 0.0236262 4.61294 0
M  V30 2919 H 267.671 0.0916191 4.33703 0
M  V30 2920 H 268.342 -1.15004 5.39887 0
M  V30 2921 H 270.818 -1.97982 3.65981 0
M  V30 2922 H 269.694 -2.99376 4.60071 0
M  V30 2923 H 269.955 -3.3385 2.89821 0
M  V30 2924 N 269.014 -1.53014 -0.377408 0
M  V30 2925 C 269.962 -1.7927 -1.48206 0
M  V30 2926 C 270.956 -0.661195 -1.55963 0
M  V30 2927 O 272.162 -0.843908 -1.58991 0
M  V30 2928 H 268.537 -0.567425 -0.493491 0
M  V30 2929 H 270.508 -2.71753 -1.2326 0
M  V30 2930 C 269.257 -1.98894 -2.85196 0
M  V30 2931 H 268.58 -2.85395 -2.79981 0
M  V30 2932 H 270.02 -2.21249 -3.61698 0
M  V30 2933 C 268.479 -0.764691 -3.28107 0
M  V30 2934 O 269.009 0.0523226 -4.01666 0
M  V30 2935 N 267.215 -0.591493 -2.84517 0
M  V30 2936 H 266.762 -1.25749 -2.24822 0
M  V30 2937 H 266.72 0.226253 -3.13585 0
M  V30 2938 N 270.492 0.636531 -1.44174 0
M  V30 2939 C 271.769 1.39463 -1.37148 0
M  V30 2940 C 272.149 2.11082 -0.027507 0
M  V30 2941 O 271.497 2.05954 0.989716 0
M  V30 2942 C 271.707 2.36552 -2.56601 0
M  V30 2943 C 273.055 3.00048 -3.00427 0
M  V30 2944 O 274.079 2.46878 -2.56767 0
M  V30 2945 O 272.938 3.96488 -3.76111 0
M  V30 2946 H 270.032 0.623903 -0.542839 0
M  V30 2947 H 272.578 0.662039 -1.56253 0
M  V30 2948 H 271.35 1.82692 -3.46034 0
M  V30 2949 H 270.973 3.17236 -2.39681 0
M  V30 2950 N 271.97 1.30982 0.876444 0
M  V30 2951 C 272.918 1.18006 2.00443 0
M  V30 2952 C 273.912 0.0898871 1.69161 0
M  V30 2953 O 275.118 0.251333 1.78237 0
M  V30 2954 H 271.493 0.365196 0.65737 0
M  V30 2955 H 273.464 2.13453 2.0852 0
M  V30 2956 C 272.213 0.897521 3.35916 0
M  V30 2957 H 271.536 1.7285 3.60504 0
M  V30 2958 H 272.976 0.846874 4.15456 0
M  V30 2959 C 271.435 -0.399674 3.34521 0
M  V30 2960 O 271.965 -1.41852 3.7582 0
M  V30 2961 N 270.171 -0.413893 2.87637 0
M  V30 2962 H 269.718 0.41571 2.54224 0
M  V30 2963 H 269.676 -1.28175 2.87086 0
M  V30 2964 N 273.449 -1.08991 1.13837 0
M  V30 2965 C 274.695 -1.81699 0.91417 0
M  V30 2966 C 275.05 -1.84264 -0.553594 0
M  V30 2967 O 274.343 -1.30313 -1.4046 0
M  V30 2968 C 274.537 -3.27042 1.44147 0
M  V30 2969 C 274.366 -3.38637 2.95897 0
M  V30 2970 C 273.136 -3.50177 3.64286 0
M  V30 2971 C 275.334 -3.30791 3.93804 0
M  V30 2972 N 273.316 -3.50501 5.04006 0
M  V30 2973 C 274.687 -3.38037 5.19741 0
M  V30 2974 C 276.742 -3.14488 3.86007 0
M  V30 2975 C 275.445 -3.30659 6.38793 0
M  V30 2976 C 277.471 -3.08438 5.04599 0
M  V30 2977 C 276.833 -3.1628 6.29402 0
M  V30 2978 H 272.932 -0.678967 0.387979 0
M  V30 2979 H 275.516 -1.30224 1.4474 0
M  V30 2980 H 273.687 -3.76976 0.935091 0
M  V30 2981 H 275.419 -3.87785 1.1578 0
M  V30 2982 H 272.174 -3.53815 3.1482 0
M  V30 2983 H 272.598 -3.54236 5.76928 0
M  V30 2984 H 277.24 -3.07291 2.90399 0
M  V30 2985 H 274.958 -3.36618 7.34652 0
M  V30 2986 H 278.544 -2.96952 5.0031 0
M  V30 2987 H 277.424 -3.1162 7.19627 0
M  V30 2988 N 274.927 -0.932562 -1.27047 0
M  V30 2989 C 275.874 -0.434072 -2.26681 0
M  V30 2990 C 276.844 0.501639 -1.58344 0
M  V30 2991 O 278.029 0.419734 -1.86126 0
M  V30 2992 C 275.169 0.30261 -3.43771 0
M  V30 2993 C 274.282 -0.667774 -4.26808 0
M  V30 2994 C 273.417 0.0892393 -5.31125 0
M  V30 2995 C 272.456 -0.873532 -6.05835 0
M  V30 2996 N 271.593 -0.148832 -7.01942 0
M  V30 2997 H 276.433 -1.28868 -2.68695 0
M  V30 2998 H 273.97 -0.646713 -1.32121 0
M  V30 2999 H 275.928 0.746092 -4.10474 0
M  V30 3000 H 274.558 1.12142 -3.02695 0
M  V30 3001 H 273.61 -1.22978 -3.59973 0
M  V30 3002 H 274.922 -1.40337 -4.78651 0
M  V30 3003 H 274.076 0.592409 -6.03801 0
M  V30 3004 H 272.815 0.85777 -4.80097 0
M  V30 3005 H 271.82 -1.38791 -5.31994 0
M  V30 3006 H 273.045 -1.64193 -6.58952 0
M  V30 3007 H 270.991 0.601365 -6.53238 0
M  V30 3008 H 270.908 -0.82391 -7.51497 0
M  V30 3009 H 272.176 0.333527 -7.78786 0
M  V30 3010 N 276.405 1.4127 -0.698611 0
M  V30 3011 C 277.821 1.55241 -0.370462 0
M  V30 3012 C 278.021 1.67351 1.12231 0
M  V30 3013 O 277.077 1.65363 1.90818 0
M  V30 3014 C 278.39 2.78997 -1.12165 0
M  V30 3015 C 279.938 2.92797 -1.1063 0
M  V30 3016 C 280.413 4.19445 -1.8393 0
M  V30 3017 N 281.904 4.26409 -1.80914 0
M  V30 3018 C 282.639 5.23271 -2.34467 0
M  V30 3019 N 282.135 6.26145 -2.96504 0
M  V30 3020 N 283.928 5.15232 -2.24706 0
M  V30 3021 H 276.079 1.31654 -1.66676 0
M  V30 3022 H 278.342 0.635393 -0.703548 0
M  V30 3023 H 278.048 2.76268 -2.17644 0
M  V30 3024 H 277.922 3.70606 -0.702209 0
M  V30 3025 H 280.309 2.95039 -0.0597713 0
M  V30 3026 H 280.39 2.02353 -1.56483 0
M  V30 3027 H 280.034 4.17964 -2.88563 0
M  V30 3028 H 279.964 5.08866 -1.35509 0
M  V30 3029 H 282.455 3.527 -1.35687 0
M  V30 3030 H 282.768 6.96451 -3.34927 0
M  V30 3031 H 281.113 6.26638 -3.00583 0
M  V30 3032 H 284.304 4.33789 -1.7591 0
M  V30 3033 H 284.477 5.90552 -2.66745 0
M  V30 3034 N 277.883 0.443576 1.51229 0
M  V30 3035 C 279.131 -0.120557 2.0174 0
M  V30 3036 C 279.452 -1.42665 1.32935 0
M  V30 3037 O 278.722 -1.9028 0.465866 0
M  V30 3038 H 277.302 -0.0475426 0.745486 0
M  V30 3039 H 279.964 0.587711 1.85828 0
M  V30 3040 H 279.06 -0.291972 3.10731 0
M  V30 3041 N 279.361 -1.56624 0.175154 0
M  V30 3042 C 280.308 -2.18149 -0.753634 0
M  V30 3043 C 281.278 -1.12265 -1.22417 0
M  V30 3044 O 282.463 -1.40432 -1.29165 0
M  V30 3045 C 279.603 -2.82933 -1.97592 0
M  V30 3046 C 278.716 -4.03289 -1.5486 0
M  V30 3047 C 277.851 -4.55988 -2.72485 0
M  V30 3048 C 276.89 -5.68746 -2.26262 0
M  V30 3049 N 276.027 -6.15938 -3.36994 0
M  V30 3050 H 280.867 -2.9717 -0.222195 0
M  V30 3051 H 278.404 -1.46774 -0.0979422 0
M  V30 3052 H 280.362 -3.18653 -2.69288 0
M  V30 3053 H 278.992 -2.06509 -2.481 0
M  V30 3054 H 278.044 -3.73364 -0.728246 0
M  V30 3055 H 279.356 -4.849 -1.16933 0
M  V30 3056 H 278.51 -4.9391 -3.52332 0
M  V30 3057 H 277.249 -3.73443 -3.13674 0
M  V30 3058 H 276.254 -5.30372 -1.44863 0
M  V30 3059 H 277.479 -6.53095 -1.86127 0
M  V30 3060 H 275.425 -5.36321 -3.77751 0
M  V30 3061 H 275.342 -6.92548 -3.03172 0
M  V30 3062 H 276.61 -6.58511 -4.17114 0
M  V30 3063 N 280.839 0.0985539 -1.57292 0
M  V30 3064 C 281.787 1.1387 -2.02821 0
M  V30 3065 C 282.781 1.41676 -0.928666 0
M  V30 3066 O 283.987 1.41398 -1.11385 0
M  V30 3067 H 280.362 0.384419 -0.646317 0
M  V30 3068 H 282.333 0.728347 -2.89375 0
M  V30 3069 C 281.082 2.45166 -2.46554 0
M  V30 3070 H 280.405 2.24613 -3.3074 0
M  V30 3071 H 281.845 3.16456 -2.8219 0
M  V30 3072 C 280.304 3.09216 -1.33742 0
M  V30 3073 O 280.834 3.96163 -0.66464 0
M  V30 3074 N 279.04 2.69413 -1.08928 0
M  V30 3075 H 278.587 1.98801 -1.63817 0
M  V30 3076 H 278.545 3.12594 -0.336458 0
M  V30 3077 N 282.317 1.53212 0.369288 0
M  V30 3078 C 283.227 1.82342 1.47609 0
M  V30 3079 C 284.243 0.711532 1.58787 0
M  V30 3080 O 285.419 1.0012 1.74751 0
M  V30 3081 C 282.484 2.00393 2.8292 0
M  V30 3082 C 281.545 3.24297 2.81301 0
M  V30 3083 C 280.778 3.41478 4.10157 0
M  V30 3084 O 281.001 2.63033 5.06132 0
M  V30 3085 O 279.935 4.34817 4.16194 0
M  V30 3086 H 283.761 2.76366 1.25918 0
M  V30 3087 H 281.346 1.38547 0.559034 0
M  V30 3088 H 283.228 2.13859 3.63101 0
M  V30 3089 H 281.903 1.09559 3.04596 0
M  V30 3090 H 280.81 3.16257 1.99831 0
M  V30 3091 H 282.143 4.15041 2.64578 0
M  V30 3092 N 283.795 -0.628877 1.44509 0
M  V30 3093 C 285.211 -0.947305 1.28446 0
M  V30 3094 C 285.411 -2.00275 0.221872 0
M  V30 3095 O 284.467 -2.49447 -0.391471 0
M  V30 3096 C 285.78 -1.40843 2.65676 0
M  V30 3097 C 287.328 -1.52379 2.73404 0
M  V30 3098 C 287.803 -2.01875 4.11109 0
M  V30 3099 N 289.294 -2.09142 4.13296 0
M  V30 3100 C 290.029 -2.48615 5.16699 0
M  V30 3101 N 289.525 -2.87209 6.30462 0
M  V30 3102 N 291.318 -2.48768 5.04054 0
M  V30 3103 H 283.469 0.0690977 2.12288 0
M  V30 3104 H 285.732 -0.0317164 0.947469 0
M  V30 3105 H 285.438 -0.707206 3.44516 0
M  V30 3106 H 285.312 -2.37902 2.92716 0
M  V30 3107 H 287.699 -2.21598 1.9488 0
M  V30 3108 H 287.78 -0.536898 2.50102 0
M  V30 3109 H 287.424 -1.3325 4.90109 0
M  V30 3110 H 287.354 -3.0144 4.31789 0
M  V30 3111 H 289.845 -1.81991 3.31191 0
M  V30 3112 H 290.158 -3.16149 7.05174 0
M  V30 3113 H 288.503 -2.84955 6.33897 0
M  V30 3114 H 291.694 -2.18009 4.14234 0
M  V30 3115 H 291.867 -2.79207 5.84763 0
M  V30 3116 N 285.273 -1.31445 -0.869486 0
M  V30 3117 C 286.498 -1.24256 -1.66058 0
M  V30 3118 C 286.923 0.188928 -1.87149 0
M  V30 3119 O 286.281 1.13522 -1.4136 0
M  V30 3120 C 286.329 -1.9924 -3.00559 0
M  V30 3121 O 285.433 -1.33007 -3.90362 0
M  V30 3122 H 284.774 -0.428973 -0.506831 0
M  V30 3123 H 287.304 -1.73521 -1.08404 0
M  V30 3124 H 287.314 -2.08854 -3.50491 0
M  V30 3125 H 285.989 -3.03342 -2.84528 0
M  V30 3126 H 284.566 -1.31848 -3.48813 0
M  V30 3127 N 286.751 1.08385 -1.14413 0
M  V30 3128 C 287.681 2.17321 -0.854044 0
M  V30 3129 C 288.662 1.69024 0.191049 0
M  V30 3130 O 289.847 1.94141 0.0476779 0
M  V30 3131 C 286.977 3.45719 -0.330983 0
M  V30 3132 C 285.931 4.07409 -1.31155 0
M  V30 3133 C 285.257 5.30762 -0.64778 0
M  V30 3134 C 286.557 4.48665 -2.67388 0
M  V30 3135 H 288.251 2.41845 -1.76498 0
M  V30 3136 H 285.797 1.16233 -0.850051 0
M  V30 3137 H 287.75 4.21241 -0.115645 0
M  V30 3138 H 286.474 3.2075 0.615381 0
M  V30 3139 H 285.133 3.33919 -1.51306 0
M  V30 3140 H 284.781 5.02078 0.304398 0
M  V30 3141 H 284.481 5.72992 -1.30207 0
M  V30 3142 H 286.005 6.08998 -0.441972 0
M  V30 3143 H 287.419 5.15364 -2.51143 0
M  V30 3144 H 285.816 5.01814 -3.29093 0
M  V30 3145 H 286.886 3.60543 -3.24248 0
M  V30 3146 N 288.23 0.939286 1.26551 0
M  V30 3147 C 289.18 0.418284 2.2413 0
M  V30 3148 C 290.164 -0.483935 1.5345 0
M  V30 3149 O 291.356 -0.319489 1.74093 0
M  V30 3150 C 288.485 -0.31709 3.41832 0
M  V30 3151 C 287.571 0.602311 4.19801 0
M  V30 3152 N 287.962 1.72726 4.75394 0
M  V30 3153 C 286.26 0.407534 4.44134 0
M  V30 3154 C 286.961 2.30004 5.34297 0
M  V30 3155 N 285.937 1.58828 5.1988 0
M  V30 3156 H 289.739 1.27705 2.64705 0
M  V30 3157 H 287.253 0.794929 1.41614 0
M  V30 3158 H 289.25 -0.707364 4.10855 0
M  V30 3159 H 287.91 -1.17264 3.02786 0
M  V30 3160 H 288.921 2.10944 4.72994 0
M  V30 3161 H 285.598 -0.406406 4.15517 0
M  V30 3162 H 286.988 3.24778 5.88191 0
M  V30 3163 N 289.708 -1.40897 0.706093 0
M  V30 3164 C 290.938 -2.05075 0.250523 0
M  V30 3165 C 291.346 -1.53275 -1.10921 0
M  V30 3166 O 290.689 -0.680281 -1.7064 0
M  V30 3167 C 290.751 -3.59219 0.142178 0
M  V30 3168 C 290.415 -4.33864 1.43566 0
M  V30 3169 C 291.412 -4.62448 2.37566 0
M  V30 3170 C 289.097 -4.72946 1.69195 0
M  V30 3171 C 291.091 -5.29088 3.5545 0
M  V30 3172 C 288.778 -5.3932 2.87362 0
M  V30 3173 C 289.776 -5.6732 3.80312 0
M  V30 3174 O 289.464 -6.32325 4.96408 0
M  V30 3175 H 289.196 -0.666645 0.112074 0
M  V30 3176 H 291.75 -1.81467 0.962239 0
M  V30 3177 H 289.98 -3.81609 -0.6254 0
M  V30 3178 H 291.669 -4.0495 -0.277584 0
M  V30 3179 H 292.435 -4.32727 2.19027 0
M  V30 3180 H 288.314 -4.50527 0.977042 0
M  V30 3181 H 291.858 -5.50859 4.28018 0
M  V30 3182 H 287.755 -5.68461 3.05814 0
M  V30 3183 H 288.523 -6.50821 4.9636 0
M  V30 3184 N 291.186 -0.45159 -1.50991 0
M  V30 3185 C 292.435 0.111653 -2.01391 0
M  V30 3186 C 292.748 1.42529 -1.33959 0
M  V30 3187 O 293.954 2.07232 -1.75405 0
M  V30 3188 C 292.41 0.249514 -3.59034 0
M  V30 3189 C 292.018 -1.05453 -4.35412 0
M  V30 3190 C 293.762 0.765762 -4.17536 0
M  V30 3191 C 291.669 -0.881529 -5.84793 0
M  V30 3192 H 290.599 0.0455022 -0.752626 0
M  V30 3193 H 293.25 -0.583524 -1.73975 0
M  V30 3194 H 291.632 1.00803 -3.82955 0
M  V30 3195 H 292.806 -1.82248 -4.23229 0
M  V30 3196 H 291.121 -1.50039 -3.88429 0
M  V30 3197 H 293.718 0.911913 -5.26866 0
M  V30 3198 H 294.061 1.75201 -3.77638 0
M  V30 3199 H 294.594 0.0651744 -3.97747 0
M  V30 3200 H 291.333 -1.84057 -6.29129 0
M  V30 3201 H 290.853 -0.153625 -5.99603 0
M  V30 3202 H 292.532 -0.540363 -6.4474 0
M  V30 3203 N 292.664 1.56529 -0.183458 0
M  V30 3204 C 293.611 2.18546 0.742055 0
M  V30 3205 C 294.581 1.12912 1.2182 0
M  V30 3206 O 295.766 1.41115 1.28418 0
M  V30 3207 C 292.906 2.83977 1.96089 0
M  V30 3208 C 292.019 4.04105 1.52719 0
M  V30 3209 C 291.154 4.57427 2.70063 0
M  V30 3210 C 290.193 5.69938 2.23243 0
M  V30 3211 N 289.33 6.17717 3.33722 0
M  V30 3212 H 294.17 2.97284 0.206432 0
M  V30 3213 H 291.707 1.46823 0.0901571 0
M  V30 3214 H 293.665 3.20077 2.67594 0
M  V30 3215 H 292.295 2.07822 2.47002 0
M  V30 3216 H 291.347 3.73745 0.708436 0
M  V30 3217 H 292.659 4.85513 1.1436 0
M  V30 3218 H 291.813 4.95772 3.49708 0
M  V30 3219 H 290.552 3.75101 3.11689 0
M  V30 3220 H 289.557 5.31133 1.42048 0
M  V30 3221 H 290.782 6.54073 1.82661 0
M  V30 3222 H 288.728 5.38317 3.74902 0
M  V30 3223 H 288.645 6.94146 2.99495 0
M  V30 3224 H 289.913 6.60713 4.13616 0
M  V30 3225 N 294.142 -0.090211 1.57342 0
M  V30 3226 C 295.558 -0.444547 1.53284 0
M  V30 3227 C 295.758 -1.80238 0.900914 0
M  V30 3228 O 294.814 -2.4759 0.495513 0
M  V30 3229 C 296.127 -0.402543 2.97993 0
M  V30 3230 C 297.675 -0.48405 3.09234 0
M  V30 3231 C 298.15 -0.472144 4.5556 0
M  V30 3232 N 299.641 -0.532757 4.60126 0
M  V30 3233 C 300.376 -0.545462 5.708 0
M  V30 3234 N 299.872 -0.514082 6.9089 0
M  V30 3235 N 301.665 -0.59064 5.58988 0
M  V30 3236 H 293.816 0.799121 1.96794 0
M  V30 3237 H 296.079 0.297965 0.899956 0
M  V30 3238 H 295.785 0.528106 3.47712 0
M  V30 3239 H 295.659 -1.21969 3.56936 0
M  V30 3240 H 298.046 -1.40512 2.595 0
M  V30 3241 H 298.127 0.361328 2.53235 0
M  V30 3242 H 297.771 0.445 5.05947 0
M  V30 3243 H 297.701 -1.3348 5.09402 0
M  V30 3244 H 300.192 -0.562006 3.73698 0
M  V30 3245 H 300.505 -0.527195 7.71 0
M  V30 3246 H 298.85 -0.481054 6.93333 0
M  V30 3247 H 302.041 -0.61272 4.64073 0
M  V30 3248 H 302.214 -0.597073 6.45243 0
M  V30 3249 N 295.62 -1.53406 -0.361157 0
M  V30 3250 C 296.86 -1.71507 -1.11197 0
M  V30 3251 C 297.224 -0.459337 -1.86425 0
M  V30 3252 O 298.425 -0.517102 -2.63779 0
M  V30 3253 C 296.696 -2.93307 -2.0422 0
M  V30 3254 S 298.255 -3.32135 -2.86761 0
M  V30 3255 H 295.073 -0.603448 -0.375995 0
M  V30 3256 H 297.675 -1.91516 -0.392642 0
M  V30 3257 H 296.379 -3.82891 -1.47724 0
M  V30 3258 H 295.91 -2.75712 -2.80618 0
M  V30 3259 H 297.925 -2.84493 -4.06544 0
M  V30 3260 N 297.098 0.621204 -1.44841 0
M  V30 3261 C 298.347 1.37658 -1.47422 0
M  V30 3262 C 298.66 1.95264 -0.114629 0
M  V30 3263 O 299.866 2.71494 -0.0180199 0
M  V30 3264 C 298.322 2.49285 -2.59586 0
M  V30 3265 C 297.93 1.98149 -4.01797 0
M  V30 3266 C 299.674 3.26409 -2.71399 0
M  V30 3267 C 297.581 3.07178 -5.05367 0
M  V30 3268 H 296.511 0.517344 -0.548517 0
M  V30 3269 H 299.162 0.667257 -1.70938 0
M  V30 3270 H 297.544 3.22839 -2.29328 0
M  V30 3271 H 298.718 1.31395 -4.41669 0
M  V30 3272 H 297.033 1.33812 -3.94314 0
M  V30 3273 H 299.63 4.07706 -3.45948 0
M  V30 3274 H 299.973 3.76535 -1.77559 0
M  V30 3275 H 300.506 2.5995 -3.01116 0
M  V30 3276 H 297.245 2.61985 -6.00869 0
M  V30 3277 H 296.765 3.72542 -4.70077 0
M  V30 3278 H 298.444 3.71789 -5.29511 0
M  V30 3279 N 298.576 1.31904 0.862503 0
M  V30 3280 C 299.486 1.22161 2.00285 0
M  V30 3281 C 300.502 0.136785 1.73462 0
M  V30 3282 O 301.678 0.355994 1.98229 0
M  V30 3283 C 298.743 0.937093 3.33796 0
M  V30 3284 C 297.804 2.10957 3.73893 0
M  V30 3285 C 297.037 1.83853 5.01033 0
M  V30 3286 O 297.26 0.777274 5.65079 0
M  V30 3287 O 296.194 2.69741 5.38074 0
M  V30 3288 H 300.02 2.18008 2.11439 0
M  V30 3289 H 297.605 1.11716 0.991957 0
M  V30 3290 H 299.487 0.794583 4.13841 0
M  V30 3291 H 298.162 0.00871894 3.23699 0
M  V30 3292 H 297.069 2.30752 2.94456 0
M  V30 3293 H 298.402 3.02046 3.88625 0
M  V30 3294 N 300.054 -1.07777 1.14986 0
M  V30 3295 C 301.331 -1.7699 0.832695 0
M  V30 3296 C 301.711 -2.001 -0.672561 0
M  V30 3297 O 301.059 -1.61598 -1.6155 0
M  V30 3298 C 301.269 -3.08139 1.63863 0
M  V30 3299 C 302.617 -3.8256 1.84208 0
M  V30 3300 O 303.641 -3.17939 1.60603 0
M  V30 3301 O 302.5 -4.98612 2.23714 0
M  V30 3302 H 299.594 -0.768389 0.305791 0
M  V30 3303 H 302.14 -1.14182 1.25541 0
M  V30 3304 H 300.912 -2.86909 2.6608 0
M  V30 3305 H 300.535 -3.78678 1.21197 0
M  V30 3306 N 301.532 -0.945985 -1.26051 0
M  V30 3307 C 302.462 -0.477172 -2.28572 0
M  V30 3308 C 303.443 0.472032 -1.63419 0
M  V30 3309 O 304.628 0.372853 -1.90587 0
M  V30 3310 C 301.758 0.253975 -3.4637 0
M  V30 3311 C 300.712 -0.609135 -4.23643 0
M  V30 3312 C 300.038 0.252252 -5.34105 0
M  V30 3313 C 301.338 -1.8829 -4.8718 0
M  V30 3314 H 303.032 -1.33402 -2.68038 0
M  V30 3315 H 300.578 -0.642904 -1.28852 0
M  V30 3316 H 302.531 0.593016 -4.17207 0
M  V30 3317 H 301.255 1.145 -3.05871 0
M  V30 3318 H 299.914 -0.931138 -3.54578 0
M  V30 3319 H 299.562 1.14278 -4.89846 0
M  V30 3320 H 299.262 -0.32188 -5.86718 0
M  V30 3321 H 300.786 0.586454 -6.07777 0
M  V30 3322 H 302.2 -1.61081 -5.50205 0
M  V30 3323 H 300.597 -2.40199 -5.49931 0
M  V30 3324 H 301.667 -2.59134 -4.09851 0
M  V30 3325 N 303.011 1.40521 -0.713556 0
M  V30 3326 C 304.422 1.83853 -0.324807 0
M  V30 3327 C 304.773 1.59667 1.14021 0
M  V30 3328 O 303.898 1.07649 1.87725 0
M  V30 3329 C 304.493 3.33751 -0.582746 0
M  V30 3330 C 303.052 3.75584 -0.247727 0
M  V30 3331 C 302.199 2.63753 -0.856121 0
M  V30 3332 H 305.15 1.29817 -0.91286 0
M  V30 3333 H 305.171 3.80194 0.152682 0
M  V30 3334 H 304.683 3.51322 -1.64908 0
M  V30 3335 H 302.784 3.63608 0.813624 0
M  V30 3336 H 302.897 4.7373 -0.715307 0
M  V30 3337 H 301.261 2.53108 -0.28432 0
M  V30 3338 H 302.044 2.84137 -1.92668 0
M  V30 3339 N 304.489 0.459591 1.5075 0
M  V30 3340 C 305.452 -0.329093 2.26825 0
M  V30 3341 C 306.452 -0.930481 1.31144 0
M  V30 3342 O 307.642 -0.801453 1.54669 0
M  V30 3343 C 304.774 -1.46768 3.07688 0
M  V30 3344 H 305.967 0.337924 2.9799 0
M  V30 3345 H 303.52 0.213336 1.54837 0
M  V30 3346 H 304.255 -2.17009 2.40993 0
M  V30 3347 H 304.04 -1.04238 3.77991 0
M  V30 3348 H 305.53 -2.02433 3.65254 0
M  V30 3349 N 305.967 -1.56429 0.191757 0
M  V30 3350 C 306.93 -2.17707 -0.716688 0
M  V30 3351 C 307.93 -1.13061 -1.14341 0
M  V30 3352 O 309.12 -1.38464 -1.05704 0
M  V30 3353 C 306.252 -2.77644 -1.97804 0
M  V30 3354 H 307.445 -2.99342 -0.1829 0
M  V30 3355 H 304.998 -1.56193 -0.0578566 0
M  V30 3356 H 305.733 -1.99799 -2.55443 0
M  V30 3357 H 305.518 -3.54246 -1.68083 0
M  V30 3358 H 307.008 -3.24708 -2.62592 0
M  V30 3359 N 307.445 0.0818655 -1.57387 0
M  V30 3360 C 308.685 0.788375 -1.88584 0
M  V30 3361 C 309.049 1.75248 -0.784351 0
M  V30 3362 O 310.25 2.50334 -0.979105 0
M  V30 3363 C 308.521 1.48654 -3.25018 0
M  V30 3364 S 310.08 2.22951 -3.7794 0
M  V30 3365 H 306.898 0.262383 -0.660815 0
M  V30 3366 H 309.5 0.0448995 -1.95448 0
M  V30 3367 H 308.204 0.770919 -4.03094 0
M  V30 3368 H 307.735 2.26965 -3.21326 0
M  V30 3369 H 309.75 3.49309 -3.52417 0
M  V30 3370 N 308.923 1.53595 0.353017 0
M  V30 3371 C 309.856 1.7572 1.45594 0
M  V30 3372 C 310.834 0.605961 1.50887 0
M  V30 3373 O 312.018 0.840023 1.68748 0
M  V30 3374 C 309.145 1.84732 2.83887 0
M  V30 3375 C 308.191 3.06808 2.96262 0
M  V30 3376 S 309.024 4.66065 2.63711 0
M  V30 3377 C 310.18 4.77943 4.04131 0
M  V30 3378 H 310.413 2.68994 1.26608 0
M  V30 3379 H 307.946 1.44343 0.548117 0
M  V30 3380 H 309.904 1.9061 3.63563 0
M  V30 3381 H 308.565 0.92488 3.00175 0
M  V30 3382 H 307.758 3.09761 3.97573 0
M  V30 3383 H 307.36 2.99108 2.24523 0
M  V30 3384 H 309.652 4.5877 4.98534 0
M  V30 3385 H 310.595 5.80022 4.06177 0
M  V30 3386 H 311.003 4.06472 3.91715 0
M  V30 3387 N 310.401 -0.613514 1.45168 0
M  V30 3388 C 311.331 -1.7354 1.56225 0
M  V30 3389 C 312.312 -1.64981 0.41414 0
M  V30 3390 O 313.497 -1.83472 0.636526 0
M  V30 3391 C 310.627 -3.12128 1.52295 0
M  V30 3392 C 309.581 -3.35491 2.65762 0
M  V30 3393 C 308.907 -4.74291 2.46885 0
M  V30 3394 C 310.207 -3.26325 4.0781 0
M  V30 3395 H 311.901 -1.64543 2.50132 0
M  V30 3396 H 309.447 -0.790185 1.20383 0
M  V30 3397 H 311.4 -3.90404 1.58628 0
M  V30 3398 H 310.124 -3.2195 0.549139 0
M  V30 3399 H 308.783 -2.59603 2.58847 0
M  V30 3400 H 308.431 -4.80839 1.47657 0
M  V30 3401 H 308.131 -4.9088 3.22972 0
M  V30 3402 H 309.655 -5.54775 2.55063 0
M  V30 3403 H 311.069 -3.94483 4.16 0
M  V30 3404 H 309.466 -3.54445 4.8424 0
M  V30 3405 H 310.536 -2.23855 4.30136 0
M  V30 3406 N 311.879 -1.3236 -0.855495 0
M  V30 3407 C 313.127 -1.22629 -1.60644 0
M  V30 3408 C 313.448 0.212136 -1.93843 0
M  V30 3409 O 312.718 1.13666 -1.59552 0
M  V30 3410 H 311.298 -0.450882 -0.595579 0
M  V30 3411 H 313.96 -1.65871 -1.02337 0
M  V30 3412 H 313.056 -1.80832 -2.54374 0
M  V30 3413 N 313.357 1.07166 -1.15556 0
M  V30 3414 C 314.768 1.6127 -0.940693 0
M  V30 3415 C 315.119 1.89251 0.517551 0
M  V30 3416 O 314.244 1.65937 1.38903 0
M  V30 3417 C 314.839 2.92993 -1.7012 0
M  V30 3418 C 313.398 3.43832 -1.53156 0
M  V30 3419 C 312.545 2.1786 -1.71558 0
M  V30 3420 H 315.496 0.90229 -1.30554 0
M  V30 3421 H 315.517 3.62007 -1.17181 0
M  V30 3422 H 315.029 2.72596 -2.76248 0
M  V30 3423 H 313.13 3.69307 -0.494294 0
M  V30 3424 H 313.243 4.19747 -2.30975 0
M  V30 3425 H 311.607 2.2765 -1.14225 0
M  V30 3426 H 312.39 1.99956 -2.79056 0
M  V30 3427 N 314.835 0.952656 1.25548 0
M  V30 3428 C 315.745 0.47782 2.29682 0
M  V30 3429 C 316.761 -0.453859 1.67977 0
M  V30 3430 O 317.937 -0.330587 1.98668 0
M  V30 3431 C 315.002 -0.238655 3.45878 0
M  V30 3432 C 314.063 0.730994 4.23031 0
M  V30 3433 C 313.296 0.0486165 5.33678 0
M  V30 3434 O 313.519 -1.16612 5.58353 0
M  V30 3435 O 312.453 0.733152 5.97418 0
M  V30 3436 H 316.279 1.34312 2.72386 0
M  V30 3437 H 313.864 0.719026 1.30959 0
M  V30 3438 H 315.746 -0.641774 4.16484 0
M  V30 3439 H 314.421 -1.07916 3.05181 0
M  V30 3440 H 313.328 1.18428 3.5486 0
M  V30 3441 H 314.661 1.53946 4.67506 0
M  V30 3442 N 316.313 -1.40141 0.720998 0
M  V30 3443 C 317.561 -2.0039 0.262323 0
M  V30 3444 C 317.882 -1.57469 -1.15015 0
M  V30 3445 O 317.152 -0.816582 -1.78069 0
M  V30 3446 H 315.732 -0.741063 0.093996 0
M  V30 3447 H 318.394 -1.71398 0.927835 0
M  V30 3448 H 317.49 -3.10658 0.299671 0
M  V30 3449 N 317.792 -0.46758 -1.50504 0
M  V30 3450 C 319.038 0.0887532 -2.02606 0
M  V30 3451 C 319.371 1.39686 -1.34913 0
M  V30 3452 O 318.646 1.88644 -0.473694 0
M  V30 3453 C 318.929 0.276206 -3.59039 0
M  V30 3454 C 318.782 -1.05267 -4.37309 0
M  V30 3455 C 320.101 1.03235 -4.27821 0
M  V30 3456 H 317.22 0.0307814 -0.736357 0
M  V30 3457 H 319.862 -0.612485 -1.79857 0
M  V30 3458 H 318.012 0.8735 -3.78553 0
M  V30 3459 H 319.684 -1.68628 -4.29374 0
M  V30 3460 H 317.927 -1.65015 -4.01189 0
M  V30 3461 H 318.598 -0.875197 -5.45018 0
M  V30 3462 H 321.074 0.526111 -4.12761 0
M  V30 3463 H 319.95 1.1323 -5.37094 0
M  V30 3464 H 320.211 2.06806 -3.90748 0
M  V30 3465 N 319.27 1.56325 -0.20005 0
M  V30 3466 C 320.681 1.8408 0.31167 0
M  V30 3467 C 321.032 1.12087 1.61031 0
M  V30 3468 O 320.157 0.38332 2.12978 0
M  V30 3469 C 320.752 3.33932 0.57226 0
M  V30 3470 C 319.311 3.6208 1.02834 0
M  V30 3471 C 318.458 2.77186 0.079634 0
M  V30 3472 H 321.409 1.52939 -0.423729 0
M  V30 3473 H 321.43 3.52971 1.42096 0
M  V30 3474 H 320.942 3.86303 -0.37308 0
M  V30 3475 H 319.043 3.15147 1.98778 0
M  V30 3476 H 319.156 4.7023 0.917624 0
M  V30 3477 H 317.52 2.47951 0.582448 0
M  V30 3478 H 318.303 3.32347 -0.860238 0
M  V30 3479 N 320.748 -0.0735177 1.57428 0
M  V30 3480 C 321.994 -0.774145 1.87443 0
M  V30 3481 C 322.327 -1.77311 0.792103 0
M  V30 3482 O 321.602 -1.93492 -0.197793 0
M  V30 3483 C 321.885 -1.48367 3.28115 0
M  V30 3484 C 321.738 -0.501227 4.46999 0
M  V30 3485 C 323.057 -2.429 3.66998 0
M  V30 3486 H 320.176 -0.279971 0.681752 0
M  V30 3487 H 322.818 -0.0373616 1.89963 0
M  V30 3488 H 320.968 -2.11171 3.26097 0
M  V30 3489 H 322.64 0.121468 4.6114 0
M  V30 3490 H 320.883 0.183593 4.33411 0
M  V30 3491 H 321.554 -1.03526 5.42205 0
M  V30 3492 H 324.03 -1.90175 3.70098 0
M  V30 3493 H 322.906 -2.89549 4.66318 0
M  V30 3494 H 323.167 -3.27628 2.96837 0
M  V30 3495 N 322.226 -1.5378 -0.344866 0
M  V30 3496 C 323.451 -1.75211 -1.10977 0
M  V30 3497 C 323.876 -0.48936 -1.81623 0
M  V30 3498 O 323.234 0.557925 -1.72502 0
M  V30 3499 C 323.282 -2.93147 -2.09993 0
M  V30 3500 O 322.386 -2.63203 -3.17487 0
M  V30 3501 H 321.727 -0.581241 -0.321021 0
M  V30 3502 H 324.257 -2.00738 -0.395661 0
M  V30 3503 H 324.267 -3.19898 -2.53237 0
M  V30 3504 H 322.942 -3.84731 -1.5797 0
M  V30 3505 H 321.519 -2.47336 -2.79069 0
M  V30 3506 N 323.704 0.605807 -1.45491 0
M  V30 3507 C 324.95 1.36481 -1.50813 0
M  V30 3508 C 325.305 1.91826 -0.148469 0
M  V30 3509 O 324.598 1.72211 0.839869 0
M  V30 3510 C 324.792 2.53012 -2.52428 0
M  V30 3511 C 324.621 2.09078 -3.98141 0
M  V30 3512 C 323.391 1.95167 -4.66088 0
M  V30 3513 C 325.589 1.66438 -4.86624 0
M  V30 3514 N 323.571 1.45062 -5.96515 0
M  V30 3515 C 324.942 1.27761 -6.06694 0
M  V30 3516 C 326.997 1.54046 -4.7347 0
M  V30 3517 C 325.7 0.779286 -7.15066 0
M  V30 3518 C 327.726 1.05618 -5.81892 0
M  V30 3519 C 327.088 0.67906 -7.01119 0
M  V30 3520 H 323.187 0.493267 -0.606805 0
M  V30 3521 H 325.771 0.692347 -1.81974 0
M  V30 3522 H 323.942 3.17851 -2.23215 0
M  V30 3523 H 325.674 3.19897 -2.47887 0
M  V30 3524 H 322.429 2.16407 -4.21266 0
M  V30 3525 H 322.853 1.22237 -6.65873 0
M  V30 3526 H 327.495 1.81827 -3.81705 0
M  V30 3527 H 325.213 0.489026 -8.06619 0
M  V30 3528 H 328.799 0.964529 -5.73749 0
M  V30 3529 H 327.679 0.310091 -7.83587 0
M  V30 3530 N 325.182 1.32811 0.848464 0
M  V30 3531 C 326.428 1.23907 1.60546 0
M  V30 3532 C 326.761 -0.197161 1.93197 0
M  V30 3533 O 326.036 -1.13596 1.5788 0
M  V30 3534 C 326.319 2.10489 2.92175 0
M  V30 3535 C 326.172 3.62522 2.66266 0
M  V30 3536 C 327.491 1.97075 3.93509 0
M  V30 3537 H 324.61 0.451459 0.58254 0
M  V30 3538 H 327.252 1.62818 0.979296 0
M  V30 3539 H 325.402 1.77434 3.45614 0
M  V30 3540 H 327.074 4.05821 2.19334 0
M  V30 3541 H 325.317 3.84879 2.00126 0
M  V30 3542 H 325.988 4.18437 3.6002 0
M  V30 3543 H 328.464 2.26045 3.49346 0
M  V30 3544 H 327.34 2.59923 4.83457 0
M  V30 3545 H 327.601 0.940186 4.31987 0
M  V30 3546 N 326.66 -1.06551 1.16123 0
M  V30 3547 C 327.888 -1.83005 0.965237 0
M  V30 3548 C 328.303 -1.82423 -0.486542 0
M  V30 3549 O 327.66 -1.24152 -1.33763 0
M  V30 3550 C 327.711 -3.29733 1.48183 0
M  V30 3551 O 327.432 -3.30416 2.87674 0
M  V30 3552 C 328.933 -4.22926 1.32848 0
M  V30 3553 H 326.153 -0.577118 0.342309 0
M  V30 3554 H 328.697 -1.3445 1.54089 0
M  V30 3555 H 326.852 -3.75609 0.948517 0
M  V30 3556 H 327.266 -4.22149 3.11272 0
M  V30 3557 H 328.74 -5.23916 1.73827 0
M  V30 3558 H 329.217 -4.38346 0.273692 0
M  V30 3559 H 329.823 -3.82894 1.85127 0
M  V30 3560 N 328.138 -0.959301 -1.25041 0
M  V30 3561 C 329.071 -0.427418 -2.24161 0
M  V30 3562 C 330.049 0.493837 -1.54919 0
M  V30 3563 O 331.233 0.427144 -1.83597 0
M  V30 3564 C 328.36 0.383893 -3.36517 0
M  V30 3565 C 327.406 -0.478431 -4.23808 0
M  V30 3566 S 328.239 -1.91353 -5.00144 0
M  V30 3567 C 329.395 -1.11077 -6.15965 0
M  V30 3568 H 329.628 -1.26743 -2.6893 0
M  V30 3569 H 327.161 -0.763714 -1.34189 0
M  V30 3570 H 329.119 0.846039 -4.01687 0
M  V30 3571 H 327.78 1.19878 -2.90324 0
M  V30 3572 H 326.973 0.14406 -5.03794 0
M  V30 3573 H 326.575 -0.87597 -3.63597 0
M  V30 3574 H 328.867 -0.361699 -6.76534 0
M  V30 3575 H 329.81 -1.88472 -6.82557 0
M  V30 3576 H 330.218 -0.638843 -5.60873 0
M  V30 3577 N 329.616 1.39756 -0.72842 0
M  V30 3578 C 330.893 1.94574 -0.200079 0
M  V30 3579 C 331.273 1.66569 1.29684 0
M  V30 3580 O 330.621 0.990326 2.05924 0
M  V30 3581 C 330.831 3.45004 -0.526608 0
M  V30 3582 C 332.179 4.21965 -0.472318 0
M  V30 3583 O 333.203 3.53173 -0.463413 0
M  V30 3584 O 332.062 5.44552 -0.461075 0
M  V30 3585 H 329.156 0.826289 -0.0342851 0
M  V30 3586 H 331.702 1.49293 -0.806829 0
M  V30 3587 H 330.474 3.58796 -1.56144 0
M  V30 3588 H 330.097 3.97449 0.109449 0
M  V30 3589 N 331.094 0.475555 1.50254 0
M  V30 3590 C 332.505 0.0215174 1.86688 0
M  V30 3591 C 332.856 -1.38467 1.39001 0
M  V30 3592 O 331.981 -2.02732 0.756894 0
M  V30 3593 C 332.576 0.0322715 3.38785 0
M  V30 3594 C 331.135 -0.366314 3.74613 0
M  V30 3595 C 330.282 0.415832 2.74164 0
M  V30 3596 H 333.233 0.689612 1.42934 0
M  V30 3597 H 333.254 -0.76889 3.7265 0
M  V30 3598 H 332.766 1.05584 3.73462 0
M  V30 3599 H 330.867 -1.39406 3.45538 0
M  V30 3600 H 330.98 -0.064555 4.79057 0
M  V30 3601 H 329.344 -0.131048 2.54363 0
M  V30 3602 H 330.127 1.43899 3.11686 0
M  V30 3603 N 332.573 -1.56217 0.208337 0
M  V30 3604 C 333.798 -2.02782 -0.435222 0
M  V30 3605 C 334.223 -1.08738 -1.53485 0
M  V30 3606 O 333.581 -0.0731855 -1.81152 0
M  V30 3607 C 333.629 -3.47687 -0.956335 0
M  V30 3608 O 332.733 -3.56773 -2.06849 0
M  V30 3609 H 332.074 -0.656403 -0.100158 0
M  V30 3610 H 334.604 -2.02033 0.3231 0
M  V30 3611 H 334.614 -3.87745 -1.26955 0
M  V30 3612 H 333.289 -4.15624 -0.15143 0
M  V30 3613 H 331.866 -3.28597 -1.76292 0
M  V30 3614 N 334.051 0.0651679 -1.57465 0
M  V30 3615 C 335.291 0.768329 -1.8941 0
M  V30 3616 C 335.655 1.74406 -0.802894 0
M  V30 3617 O 336.856 2.49281 -1.0056 0
M  V30 3618 C 335.127 1.45199 -3.26576 0
M  V30 3619 S 336.686 2.1893 -3.80283 0
M  V30 3620 H 333.504 0.255359 -0.663561 0
M  V30 3621 H 336.106 0.024167 -1.95485 0
M  V30 3622 H 334.81 0.728123 -4.03889 0
M  V30 3623 H 334.341 2.23545 -3.23715 0
M  V30 3624 H 336.356 3.45551 -3.56102 0
M  V30 3625 N 335.529 1.53961 0.336706 0
M  V30 3626 C 336.439 1.85432 1.43708 0
M  V30 3627 C 337.455 0.745053 1.57242 0
M  V30 3628 O 338.631 1.03804 1.72588 0
M  V30 3629 C 335.696 2.06349 2.78605 0
M  V30 3630 C 334.757 3.30191 2.74358 0
M  V30 3631 C 333.99 3.50101 4.02822 0
M  V30 3632 O 334.213 2.7371 5.00439 0
M  V30 3633 O 333.147 4.43547 4.06878 0
M  V30 3634 H 336.973 2.78975 1.20028 0
M  V30 3635 H 334.558 1.39701 0.52952 0
M  V30 3636 H 336.44 2.21513 3.58483 0
M  V30 3637 H 335.115 1.15995 3.02203 0
M  V30 3638 H 334.022 3.20425 1.93078 0
M  V30 3639 H 335.355 4.2056 2.55715 0
M  V30 3640 N 337.007 -0.598083 1.45811 0
M  V30 3641 C 338.253 -1.35882 1.50545 0
M  V30 3642 C 338.586 -1.93616 0.150445 0
M  V30 3643 O 337.861 -1.75604 -0.83628 0
M  V30 3644 C 338.144 -2.49966 2.59208 0
M  V30 3645 C 337.997 -1.97367 4.04186 0
M  V30 3646 C 339.316 -3.52068 2.64076 0
M  V30 3647 H 336.435 -0.492717 0.548087 0
M  V30 3648 H 339.077 -0.673319 1.77669 0
M  V30 3649 H 337.227 -3.08443 2.3621 0
M  V30 3650 H 338.899 -1.43466 4.38423 0
M  V30 3651 H 337.142 -1.283 4.14393 0
M  V30 3652 H 337.813 -2.79649 4.75921 0
M  V30 3653 H 340.289 -3.03448 2.84708 0
M  V30 3654 H 339.165 -4.2937 3.41954 0
M  V30 3655 H 339.426 -4.08304 1.69531 0
M  V30 3656 N 338.485 -1.33259 -0.841409 0
M  V30 3657 C 339.733 -1.24326 -1.59334 0
M  V30 3658 C 340.054 0.191564 -1.94057 0
M  V30 3659 O 339.324 1.11967 -1.60749 0
M  V30 3660 H 337.904 -0.457174 -0.590763 0
M  V30 3661 H 340.566 -1.66947 -1.00571 0
M  V30 3662 H 339.662 -1.8352 -2.52442 0
M  V30 3663 N 339.963 1.05934 -1.16686 0
M  V30 3664 C 340.896 2.1295 -0.820225 0
M  V30 3665 C 341.874 1.61242 0.209722 0
M  V30 3666 O 343.058 1.88271 0.0929688 0
M  V30 3667 C 340.185 3.3797 -0.22223 0
M  V30 3668 C 339.231 4.08488 -1.22637 0
M  V30 3669 S 340.064 4.58015 -2.77457 0
M  V30 3670 C 341.22 5.86292 -2.19117 0
M  V30 3671 H 341.453 2.42025 -1.72659 0
M  V30 3672 H 338.986 1.18423 -0.990722 0
M  V30 3673 H 340.944 4.10335 0.116322 0
M  V30 3674 H 339.605 3.07045 0.66196 0
M  V30 3675 H 338.798 4.98291 -0.756455 0
M  V30 3676 H 338.4 3.42154 -1.51019 0
M  V30 3677 H 340.692 6.59246 -1.56209 0
M  V30 3678 H 341.635 6.38019 -3.07144 0
M  V30 3679 H 342.043 5.40497 -1.62858 0
M  V30 3680 N 341.441 0.965919 1.2453 0
M  V30 3681 C 342.404 0.499547 2.2369 0
M  V30 3682 C 343.404 -0.40294 1.5567 0
M  V30 3683 O 344.594 -0.19865 1.73064 0
M  V30 3684 C 341.726 -0.276792 3.39774 0
M  V30 3685 H 342.919 1.37613 2.66463 0
M  V30 3686 H 340.472 0.750324 1.37112 0
M  V30 3687 H 341.207 -1.17055 3.02438 0
M  V30 3688 H 340.992 0.370826 3.90343 0
M  V30 3689 H 342.482 -0.592175 4.1338 0
M  V30 3690 N 342.919 -1.39368 0.735821 0
M  V30 3691 C 344.149 -2.04498 0.293967 0
M  V30 3692 C 344.557 -1.55593 -1.07645 0
M  V30 3693 O 343.9 -0.716324 -1.69158 0
M  V30 3694 C 343.962 -3.58836 0.218342 0
M  V30 3695 C 343.626 -4.30721 1.52736 0
M  V30 3696 C 344.623 -4.57305 2.47322 0
M  V30 3697 C 342.308 -4.69251 1.79189 0
M  V30 3698 C 344.302 -5.21429 3.66593 0
M  V30 3699 C 341.989 -5.33104 2.98737 0
M  V30 3700 C 342.987 -5.59125 3.9226 0
M  V30 3701 O 342.675 -6.21653 5.09708 0
M  V30 3702 H 342.407 -0.664118 0.126189 0
M  V30 3703 H 344.961 -1.79385 1.00051 0
M  V30 3704 H 343.191 -3.8285 -0.544314 0
M  V30 3705 H 344.88 -4.05447 -0.191626 0
M  V30 3706 H 345.646 -4.27983 2.28156 0
M  V30 3707 H 341.525 -4.48354 1.07239 0
M  V30 3708 H 345.069 -5.41656 4.39607 0
M  V30 3709 H 340.966 -5.61846 3.17803 0
M  V30 3710 H 341.734 -6.40146 5.10054 0
M  V30 3711 N 344.397 -0.483516 -1.5 0
M  V30 3712 C 345.622 0.0667119 -2.07293 0
M  V30 3713 C 346.047 1.3164 -1.3436 0
M  V30 3714 O 345.405 1.76945 -0.394987 0
M  V30 3715 C 345.453 0.321126 -3.59167 0
M  V30 3716 O 344.557 1.39927 -3.87936 0
M  V30 3717 H 343.898 -0.0184758 -0.663743 0
M  V30 3718 H 346.428 -0.678125 -1.93035 0
M  V30 3719 H 346.438 0.557906 -4.04168 0
M  V30 3720 H 345.113 -0.592007 -4.11665 0
M  V30 3721 H 343.69 1.14882 -3.54763 0
M  V30 3722 N 345.875 1.56104 -0.216619 0
M  V30 3723 C 346.808 2.16026 0.735395 0
M  V30 3724 C 347.786 1.1032 1.1945 0
M  V30 3725 O 348.97 1.38549 1.27814 0
M  V30 3726 C 346.097 2.73656 1.99575 0
M  V30 3727 C 345.143 3.92146 1.67702 0
M  V30 3728 S 345.976 5.29397 0.806145 0
M  V30 3729 C 347.132 5.90463 2.07617 0
M  V30 3730 H 347.365 2.96439 0.226072 0
M  V30 3731 H 344.898 1.544 -0.00136639 0
M  V30 3732 H 346.856 3.075 2.71945 0
M  V30 3733 H 345.517 1.93245 2.47619 0
M  V30 3734 H 344.71 4.30954 2.61332 0
M  V30 3735 H 344.312 3.59423 1.03398 0
M  V30 3736 H 346.604 6.06136 3.02664 0
M  V30 3737 H 347.547 6.86589 1.73207 0
M  V30 3738 H 347.955 5.19252 2.21445 0
M  V30 3739 N 347.353 -0.0568162 1.57498 0
M  V30 3740 C 348.263 -1.08346 2.08083 0
M  V30 3741 C 349.279 -1.41439 1.01346 0
M  V30 3742 O 350.455 -1.51316 1.32912 0
M  V30 3743 C 347.52 -2.37352 2.52715 0
M  V30 3744 C 346.581 -2.11093 3.73816 0
M  V30 3745 C 345.814 -3.33949 4.1631 0
M  V30 3746 O 346.037 -4.43622 3.58547 0
M  V30 3747 O 344.971 -3.21279 5.08983 0
M  V30 3748 H 348.797 -0.683667 2.95905 0
M  V30 3749 H 346.382 -0.271965 1.46904 0
M  V30 3750 H 348.264 -3.13246 2.81877 0
M  V30 3751 H 346.939 -2.76681 1.68016 0
M  V30 3752 H 345.846 -1.32856 3.49714 0
M  V30 3753 H 347.179 -1.76637 4.59413 0
M  V30 3754 N 348.832 -1.54138 -0.328536 0
M  V30 3755 C 349.779 -1.83176 -1.40411 0
M  V30 3756 C 350.749 -0.678494 -1.5161 0
M  V30 3757 O 351.934 -0.92443 -1.6691 0
M  V30 3758 C 349.074 -2.06035 -2.76846 0
M  V30 3759 C 348.187 -3.33727 -2.74318 0
M  V30 3760 C 347.322 -3.46574 -4.02567 0
M  V30 3761 C 346.361 -4.68159 -3.94327 0
M  V30 3762 N 345.498 -4.77959 -5.14296 0
M  V30 3763 H 350.338 -2.74938 -1.14948 0
M  V30 3764 H 347.875 -1.36166 -0.556538 0
M  V30 3765 H 349.833 -2.1728 -3.56153 0
M  V30 3766 H 348.463 -1.1757 -3.00628 0
M  V30 3767 H 347.515 -3.31246 -1.8703 0
M  V30 3768 H 348.827 -4.23139 -2.64111 0
M  V30 3769 H 347.981 -3.57333 -4.90304 0
M  V30 3770 H 346.72 -2.55245 -4.15574 0
M  V30 3771 H 345.725 -4.57461 -3.04974 0
M  V30 3772 H 346.95 -5.60868 -3.82889 0
M  V30 3773 H 344.896 -3.89544 -5.27818 0
M  V30 3774 H 344.813 -5.6133 -5.06404 0
M  V30 3775 H 346.081 -4.93044 -6.03761 0
M  V30 3776 N 350.31 0.590341 -1.46126 0
M  V30 3777 C 351.54 1.37304 -1.54373 0
M  V30 3778 C 351.948 1.88332 -0.181071 0
M  V30 3779 O 351.291 1.63852 0.830559 0
M  V30 3780 C 351.353 2.6012 -2.48149 0
M  V30 3781 C 351.017 2.30613 -3.94546 0
M  V30 3782 C 352.014 1.89915 -4.83971 0
M  V30 3783 C 349.699 2.42993 -4.39613 0
M  V30 3784 C 351.693 1.61981 -6.16475 0
M  V30 3785 C 349.38 2.14672 -5.72153 0
M  V30 3786 C 350.378 1.7423 -6.60404 0
M  V30 3787 O 350.066 1.46251 -7.90485 0
M  V30 3788 H 349.798 0.426086 -0.524811 0
M  V30 3789 H 352.352 0.72539 -1.92165 0
M  V30 3790 H 350.582 3.27664 -2.05361 0
M  V30 3791 H 352.271 3.22182 -2.46887 0
M  V30 3792 H 353.037 1.79872 -4.50412 0
M  V30 3793 H 348.916 2.73435 -3.71153 0
M  V30 3794 H 352.46 1.30341 -6.85315 0
M  V30 3795 H 348.357 2.24337 -6.05263 0
M  V30 3796 H 349.125 1.6016 -8.02677 0
M  V30 3797 N 351.788 1.33704 0.83433 0
M  V30 3798 C 353.204 1.13137 1.12571 0
M  V30 3799 C 353.404 -0.0747261 2.01361 0
M  V30 3800 O 352.46 -0.753647 2.4099 0
M  V30 3801 C 353.773 2.42105 1.78342 0
M  V30 3802 C 355.321 2.48054 1.90888 0
M  V30 3803 C 355.796 3.76995 2.60075 0
M  V30 3804 N 357.287 3.78092 2.67584 0
M  V30 3805 C 358.022 4.74574 3.21818 0
M  V30 3806 N 357.518 5.81434 3.76705 0
M  V30 3807 N 359.311 4.62044 3.20112 0
M  V30 3808 H 351.462 2.11 0.243489 0
M  V30 3809 H 353.725 0.932532 0.17055 0
M  V30 3810 H 353.431 3.30391 1.20561 0
M  V30 3811 H 353.305 2.54594 2.7832 0
M  V30 3812 H 355.692 1.60215 2.47821 0
M  V30 3813 H 355.773 2.39502 0.898459 0
M  V30 3814 H 355.417 4.65219 2.03799 0
M  V30 3815 H 355.347 3.82825 3.61597 0
M  V30 3816 H 357.838 3.00865 2.28667 0
M  V30 3817 H 358.151 6.51084 4.16305 0
M  V30 3818 H 356.496 5.85163 3.7498 0
M  V30 3819 H 359.687 3.77716 2.76493 0
M  V30 3820 H 359.86 5.37406 3.62076 0
M  V30 3821 N 353.266 -1.05314 1.17247 0
M  V30 3822 C 354.682 -1.30452 0.919473 0
M  V30 3823 C 354.882 -1.9703 -0.42209 0
M  V30 3824 O 353.938 -2.24311 -1.15935 0
M  V30 3825 C 355.251 -2.17551 2.07586 0
M  V30 3826 C 356.799 -2.30937 2.11275 0
M  V30 3827 C 357.274 -3.21396 3.26296 0
M  V30 3828 N 358.765 -3.28981 3.26076 0
M  V30 3829 C 359.5 -3.99095 4.11716 0
M  V30 3830 N 358.996 -4.71648 5.07465 0
M  V30 3831 N 360.789 -3.95247 3.9967 0
M  V30 3832 H 352.94 -0.604988 2.03602 0
M  V30 3833 H 355.203 -0.329368 0.888944 0
M  V30 3834 H 354.909 -1.75921 3.0454 0
M  V30 3835 H 354.783 -3.18182 2.02584 0
M  V30 3836 H 357.17 -2.71809 1.14907 0
M  V30 3837 H 357.251 -1.2994 2.20339 0
M  V30 3838 H 356.895 -2.81238 4.22927 0
M  V30 3839 H 356.825 -4.22395 3.14467 0
M  V30 3840 H 359.316 -2.77286 2.5675 0
M  V30 3841 H 359.629 -5.22705 5.6921 0
M  V30 3842 H 357.974 -4.70594 5.11435 0
M  V30 3843 H 361.165 -3.37691 3.24164 0
M  V30 3844 H 361.338 -4.4962 4.66632 0
M  V30 3845 N 354.744 -0.972509 -1.24016 0
M  V30 3846 C 355.972 -0.654803 -1.96265 0
M  V30 3847 C 356.387 0.776708 -1.72083 0
M  V30 3848 O 355.744 1.52171 -1.00748 0
M  V30 3849 C 355.795 -0.92592 -3.49441 0
M  V30 3850 O 355.516 -2.30116 -3.72798 0
M  V30 3851 C 357.017 -0.623068 -4.38899 0
M  V30 3852 H 354.237 -0.243907 -0.6251 0
M  V30 3853 H 356.781 -1.30175 -1.57717 0
M  V30 3854 H 354.936 -0.325108 -3.86033 0
M  V30 3855 H 355.35 -2.38483 -4.67147 0
M  V30 3856 H 356.824 -0.863189 -5.45209 0
M  V30 3857 H 357.301 0.442754 -4.36963 0
M  V30 3858 H 357.907 -1.204 -4.07902 0
M  V30 3859 N 356.222 1.38976 -0.743202 0
M  V30 3860 C 357.47 1.99948 -0.29417 0
M  V30 3861 C 357.791 1.59279 1.12495 0
M  V30 3862 O 357.061 0.844808 1.76748 0
M  V30 3863 H 355.641 0.739473 -0.105774 0
M  V30 3864 H 358.303 1.699 -0.954986 0
M  V30 3865 H 357.399 3.10142 -0.349056 0
M  V30 3866 N 357.7 0.491464 1.49741 0
M  V30 3867 C 358.648 -0.305837 2.30581 0
M  V30 3868 C 359.642 -0.971642 1.38764 0
M  V30 3869 O 360.848 -0.90042 1.5586 0
M  V30 3870 H 357.223 -0.117482 0.742767 0
M  V30 3871 H 359.194 0.396093 2.95759 0
M  V30 3872 C 357.943 -1.36319 3.19863 0
M  V30 3873 H 357.266 -0.860258 3.90435 0
M  V30 3874 H 358.706 -1.89323 3.79385 0
M  V30 3875 C 357.165 -2.37621 2.38826 0
M  V30 3876 O 357.695 -3.43311 2.08567 0
M  V30 3877 N 355.901 -2.09849 2.01026 0
M  V30 3878 H 355.448 -1.23922 2.25834 0
M  V30 3879 H 355.406 -2.77859 1.47112 0
M  V30 3880 N 359.178 -1.55987 0.224894 0
M  V30 3881 C 360.111 -2.16413 -0.723929 0
M  V30 3882 C 361.089 -1.10952 -1.18863 0
M  V30 3883 O 362.273 -1.39225 -1.27077 0
M  V30 3884 C 359.4 -2.74711 -1.98121 0
M  V30 3885 C 358.446 -3.9303 -1.6562 0
M  V30 3886 S 359.279 -5.29817 -0.778058 0
M  V30 3887 C 360.435 -5.91555 -2.04483 0
M  V30 3888 H 360.668 -2.96555 -0.210347 0
M  V30 3889 H 358.201 -1.54397 0.00955457 0
M  V30 3890 H 360.159 -3.08938 -2.70311 0
M  V30 3891 H 358.82 -1.94555 -2.46591 0
M  V30 3892 H 358.013 -4.32334 -2.59043 0
M  V30 3893 H 357.615 -3.59966 -1.01491 0
M  V30 3894 H 359.907 -6.07732 -2.99446 0
M  V30 3895 H 360.85 -6.87498 -1.69563 0
M  V30 3896 H 361.258 -5.20419 -2.18688 0
M  V30 3897 N 360.656 0.0484629 -1.57525 0
M  V30 3898 C 361.619 1.03956 -2.04269 0
M  V30 3899 C 362.619 1.30211 -0.943496 0
M  V30 3900 O 363.809 1.25539 -1.20771 0
M  V30 3901 C 360.941 2.37742 -2.44319 0
M  V30 3902 H 362.134 0.636182 -2.93075 0
M  V30 3903 H 359.687 0.294811 -1.53494 0
M  V30 3904 H 360.422 2.82866 -1.5861 0
M  V30 3905 H 360.207 2.20021 -3.24551 0
M  V30 3906 H 361.697 3.08936 -2.80978 0
M  V30 3907 N 362.134 1.5431 0.320358 0
M  V30 3908 C 363.55 1.45091 0.664889 0
M  V30 3909 C 363.75 0.626382 1.91517 0
M  V30 3910 O 362.806 0.126443 2.52183 0
M  V30 3911 C 364.119 2.88848 0.83591 0
M  V30 3912 C 365.667 2.9877 0.933046 0
M  V30 3913 C 366.142 4.43683 1.13621 0
M  V30 3914 N 367.633 4.47309 1.20287 0
M  V30 3915 C 368.368 5.56595 1.37801 0
M  V30 3916 N 367.864 6.75844 1.52338 0
M  V30 3917 N 369.657 5.44248 1.40535 0
M  V30 3918 H 361.808 2.06398 -0.501374 0
M  V30 3919 H 364.071 0.933963 -0.162534 0
M  V30 3920 H 363.777 3.51698 -0.0116092 0
M  V30 3921 H 363.651 3.35148 1.73078 0
M  V30 3922 H 366.038 2.36045 1.77107 0
M  V30 3923 H 366.119 2.55796 0.0145782 0
M  V30 3924 H 365.763 5.06995 0.303032 0
M  V30 3925 H 365.693 4.84269 2.0686 0
M  V30 3926 H 368.184 3.61388 1.10485 0
M  V30 3927 H 368.497 7.54892 1.65403 0
M  V30 3928 H 366.842 6.78746 1.4943 0
M  V30 3929 H 370.033 4.50038 1.28777 0
M  V30 3930 H 370.206 6.29473 1.53842 0
M  V30 3931 N 363.613 -0.582584 1.46437 0
M  V30 3932 C 364.859 -1.34278 1.51978 0
M  V30 3933 C 365.192 -1.93446 0.170973 0
M  V30 3934 O 364.467 -1.76481 -0.817608 0
M  V30 3935 C 364.75 -2.47203 2.61845 0
M  V30 3936 C 364.603 -1.93069 4.06257 0
M  V30 3937 C 365.922 -3.49247 2.67795 0
M  V30 3938 H 363.041 -0.486876 0.553282 0
M  V30 3939 H 365.683 -0.654437 1.78374 0
M  V30 3940 H 363.833 -3.0592 2.39469 0
M  V30 3941 H 365.505 -1.38808 4.3992 0
M  V30 3942 H 363.748 -1.23898 4.1573 0
M  V30 3943 H 364.419 -2.74586 4.7886 0
M  V30 3944 H 366.895 -3.00411 2.8791 0
M  V30 3945 H 365.771 -4.25719 3.46489 0
M  V30 3946 H 366.032 -4.06482 1.73852 0
M  V30 3947 N 365.091 -1.34144 -0.827227 0
M  V30 3948 C 366.024 -1.19707 -1.94282 0
M  V30 3949 C 367.002 -0.0897256 -1.62352 0
M  V30 3950 O 368.186 -0.254095 -1.8678 0
M  V30 3951 C 365.313 -0.838646 -3.28153 0
M  V30 3952 C 364.359 -1.95514 -3.79047 0
M  V30 3953 S 365.192 -3.56793 -3.99323 0
M  V30 3954 C 366.348 -3.22983 -5.36127 0
M  V30 3955 H 366.581 -2.1414 -2.06231 0
M  V30 3956 H 364.114 -1.19121 -0.982321 0
M  V30 3957 H 366.072 -0.638637 -4.05502 0
M  V30 3958 H 364.733 0.0872776 -3.13979 0
M  V30 3959 H 363.926 -1.658 -4.75948 0
M  V30 3960 H 363.528 -2.11241 -3.08631 0
M  V30 3961 H 365.82 -2.74531 -6.19386 0
M  V30 3962 H 366.763 -4.19008 -5.70822 0
M  V30 3963 H 367.171 -2.59276 -5.01434 0
M  V30 3964 N 366.569 1.04691 -1.17803 0
M  V30 3965 C 367.815 1.78045 -0.970969 0
M  V30 3966 C 368.148 1.87686 0.498751 0
M  V30 3967 O 367.423 1.38035 1.37027 0
M  V30 3968 C 367.706 3.2166 -1.61884 0
M  V30 3969 C 367.559 3.20001 -3.161 0
M  V30 3970 C 368.878 4.1962 -1.3269 0
M  V30 3971 H 365.997 0.64633 -0.354155 0
M  V30 3972 H 368.639 1.22333 -1.45378 0
M  V30 3973 H 366.789 3.69232 -1.20831 0
M  V30 3974 H 368.461 2.80467 -3.66246 0
M  V30 3975 H 366.704 2.58203 -3.48588 0
M  V30 3976 H 367.375 4.21386 -3.56564 0
M  V30 3977 H 369.851 3.80567 -1.68249 0
M  V30 3978 H 368.727 5.18339 -1.80599 0
M  V30 3979 H 368.988 4.414 -0.248622 0
M  V30 3980 N 368.047 0.979072 1.23499 0
M  V30 3981 C 369.463 0.687475 1.44034 0
M  V30 3982 C 369.663 -0.746801 1.8715 0
M  V30 3983 O 368.719 -1.51939 2.0167 0
M  V30 3984 C 370.032 1.68127 2.49307 0
M  V30 3985 C 371.58 1.69516 2.63122 0
M  V30 3986 C 372.055 2.67723 3.71603 0
M  V30 3987 N 373.546 2.66233 3.79044 0
M  V30 3988 C 374.281 3.38891 4.62537 0
M  V30 3989 N 373.777 4.21103 5.50131 0
M  V30 3990 N 375.57 3.27661 4.56721 0
M  V30 3991 H 367.721 1.90559 0.938135 0
M  V30 3992 H 369.984 0.821051 0.473897 0
M  V30 3993 H 369.69 2.70693 2.2454 0
M  V30 3994 H 369.564 1.46306 3.4767 0
M  V30 3995 H 371.951 0.676561 2.8724 0
M  V30 3996 H 372.032 1.95404 1.65079 0
M  V30 3997 H 371.676 3.69724 3.48233 0
M  V30 3998 H 371.606 2.39111 4.69184 0
M  V30 3999 H 374.097 2.06568 3.16446 0
M  V30 4000 H 374.41 4.73403 6.10827 0
M  V30 4001 H 372.755 4.25195 5.49759 0
M  V30 4002 H 375.946 2.62887 3.87309 0
M  V30 4003 H 376.119 3.84547 5.21562 0
M  V30 4004 N 369.525 -1.3858 0.750561 0
M  V30 4005 C 370.755 -2.04175 0.31564 0
M  V30 4006 C 371.163 -1.56726 -1.05989 0
M  V30 4007 O 370.506 -0.734225 -1.68389 0
M  V30 4008 C 370.568 -3.58585 0.256389 0
M  V30 4009 C 370.232 -4.29077 1.57296 0
M  V30 4010 C 371.229 -4.54656 2.52159 0
M  V30 4011 C 368.914 -4.67324 1.84156 0
M  V30 4012 C 370.908 -5.17512 3.72103 0
M  V30 4013 C 368.595 -5.29905 3.04374 0
M  V30 4014 C 369.593 -5.54933 3.98168 0
M  V30 4015 O 369.281 -6.16212 5.16273 0
M  V30 4016 H 369.013 -0.662742 0.133226 0
M  V30 4017 H 371.567 -1.78313 1.01948 0
M  V30 4018 H 369.797 -3.83406 -0.503677 0
M  V30 4019 H 371.486 -4.05628 -0.148612 0
M  V30 4020 H 372.252 -4.25539 2.32683 0
M  V30 4021 H 368.131 -4.47191 1.11988 0
M  V30 4022 H 371.675 -5.36963 4.45327 0
M  V30 4023 H 367.572 -5.58444 3.23745 0
M  V30 4024 H 368.34 -6.34701 5.16815 0
M  V30 4025 N 371.003 -0.499398 -1.49478 0
M  V30 4026 C 371.936 0.326491 -2.25852 0
M  V30 4027 C 372.914 0.971776 -1.30366 0
M  V30 4028 O 374.098 1.00219 -1.59651 0
M  V30 4029 C 371.225 1.45969 -3.05632 0
M  V30 4030 C 370.271 0.928938 -4.16261 0
M  V30 4031 S 371.104 -0.179012 -5.35201 0
M  V30 4032 C 372.26 0.957389 -6.18534 0
M  V30 4033 H 372.493 -0.321746 -2.95554 0
M  V30 4034 H 370.026 -0.284674 -1.51753 0
M  V30 4035 H 371.984 2.109 -3.52181 0
M  V30 4036 H 370.645 2.07953 -2.35402 0
M  V30 4037 H 369.838 1.77813 -4.71592 0
M  V30 4038 H 369.44 0.356869 -3.72293 0
M  V30 4039 H 371.732 1.86296 -6.51383 0
M  V30 4040 H 372.675 0.442733 -7.06715 0
M  V30 4041 H 373.083 1.224 -5.5107 0
M  V30 4042 N 372.481 1.55866 -0.233164 0
M  V30 4043 C 373.428 2.20796 0.67215 0
M  V30 4044 C 374.398 1.16731 1.18166 0
M  V30 4045 O 375.583 1.45129 1.23864 0
M  V30 4046 C 372.723 2.90072 1.86955 0
M  V30 4047 C 371.836 4.08759 1.39786 0
M  V30 4048 C 370.971 4.65787 2.55374 0
M  V30 4049 C 370.01 5.76752 2.04998 0
M  V30 4050 N 369.147 6.28021 3.13901 0
M  V30 4051 H 373.987 2.9779 0.111749 0
M  V30 4052 H 371.524 1.47036 0.0434007 0
M  V30 4053 H 373.482 3.28428 2.57276 0
M  V30 4054 H 372.112 2.15575 2.40265 0
M  V30 4055 H 371.164 3.7581 0.589173 0
M  V30 4056 H 372.476 4.88906 0.98856 0
M  V30 4057 H 371.63 5.06646 3.33758 0
M  V30 4058 H 370.369 3.84828 2.99598 0
M  V30 4059 H 369.374 5.35383 1.25079 0
M  V30 4060 H 370.599 6.59553 1.61759 0
M  V30 4061 H 368.545 5.49971 3.57586 0
M  V30 4062 H 368.462 7.03323 2.7726 0
M  V30 4063 H 369.73 6.73538 3.92386 0
M  V30 4064 N 373.959 -0.0401083 1.57549 0
M  V30 4065 C 375.189 -0.744115 1.92734 0
M  V30 4066 C 375.597 -1.70005 0.830348 0
M  V30 4067 O 374.94 -1.82576 -0.20286 0
M  V30 4068 C 375.002 -1.56516 3.2364 0
M  V30 4069 C 374.666 -0.7752 4.50377 0
M  V30 4070 C 375.663 -0.0803326 5.19838 0
M  V30 4071 C 373.348 -0.733002 4.96923 0
M  V30 4072 C 375.342 0.646154 6.34116 0
M  V30 4073 C 373.029 -0.00276321 6.111 0
M  V30 4074 C 374.027 0.685585 6.7955 0
M  V30 4075 O 373.715 1.40399 7.91545 0
M  V30 4076 H 373.447 -0.214861 0.640945 0
M  V30 4077 H 376.001 -0.00503675 2.05399 0
M  V30 4078 H 374.231 -2.3478 3.07271 0
M  V30 4079 H 375.92 -2.15076 3.44234 0
M  V30 4080 H 376.686 -0.104035 4.84888 0
M  V30 4081 H 372.565 -1.25827 4.43496 0
M  V30 4082 H 376.109 1.18398 6.87479 0
M  V30 4083 H 372.006 0.0229012 6.45496 0
M  V30 4084 H 372.774 1.31653 8.07843 0
M  V30 4085 N 375.437 -1.54477 -0.31217 0
M  V30 4086 C 376.367 -1.87652 -1.38957 0
M  V30 4087 C 377.348 -0.734358 -1.53431 0
M  V30 4088 O 378.533 -0.98911 -1.67123 0
M  V30 4089 C 375.663 -2.11396 -2.75552 0
M  V30 4090 C 374.617 -3.27243 -2.75855 0
M  V30 4091 C 373.943 -3.36382 -4.15633 0
M  V30 4092 C 375.243 -4.64622 -2.38587 0
M  V30 4093 H 376.937 -2.77887 -1.11442 0
M  V30 4094 H 374.483 -1.33707 -0.534655 0
M  V30 4095 H 376.436 -2.33189 -3.51 0
M  V30 4096 H 375.16 -1.17921 -3.04569 0
M  V30 4097 H 373.819 -3.05356 -2.02863 0
M  V30 4098 H 373.467 -2.40445 -4.41809 0
M  V30 4099 H 373.167 -4.14249 -4.1674 0
M  V30 4100 H 374.691 -3.60422 -4.92877 0
M  V30 4101 H 376.105 -4.86219 -3.03749 0
M  V30 4102 H 374.502 -5.45121 -2.50925 0
M  V30 4103 H 375.572 -4.66097 -1.33723 0
M  V30 4104 N 376.915 0.57481 -1.46744 0
M  V30 4105 C 378.331 0.898981 -1.31873 0
M  V30 4106 C 378.531 1.99313 -0.29605 0
M  V30 4107 O 377.587 2.50728 0.298621 0
M  V30 4108 C 378.9 1.30886 -2.7072 0
M  V30 4109 C 380.448 1.42127 -2.78871 0
M  V30 4110 C 380.923 1.86478 -4.18318 0
M  V30 4111 N 382.414 1.93658 -4.20774 0
M  V30 4112 C 383.149 2.29267 -5.2557 0
M  V30 4113 N 382.645 2.63612 -6.40688 0
M  V30 4114 N 384.438 2.29889 -5.1294 0
M  V30 4115 H 376.589 -0.147839 -2.11885 0
M  V30 4116 H 378.852 -0.00347013 -0.947994 0
M  V30 4117 H 378.558 0.578853 -3.46904 0
M  V30 4118 H 378.432 2.26874 -3.01343 0
M  V30 4119 H 380.819 2.14213 -2.0297 0
M  V30 4120 H 380.9 0.443705 -2.51922 0
M  V30 4121 H 380.544 1.14968 -4.94717 0
M  V30 4122 H 380.474 2.85207 -4.42679 0
M  V30 4123 H 382.965 1.69574 -3.37718 0
M  V30 4124 H 383.278 2.89759 -7.16421 0
M  V30 4125 H 381.623 2.61232 -6.44036 0
M  V30 4126 H 384.814 2.02485 -4.22039 0
M  V30 4127 H 384.987 2.57312 -5.94722 0
M  V30 4128 N 378.394 1.34581 0.820102 0
M  V30 4129 C 379.326 1.22236 1.93884 0
M  V30 4130 C 380.339 0.148776 1.62119 0
M  V30 4131 O 381.528 0.400877 1.7394 0
M  V30 4132 C 378.628 0.856542 3.27897 0
M  V30 4133 C 377.801 2.02569 3.87666 0
M  V30 4134 C 376.86 1.63782 5.00062 0
M  V30 4135 O 375.886 2.35477 5.18208 0
M  V30 4136 N 377.088 0.553611 5.77854 0
M  V30 4137 H 379.853 2.18615 2.05006 0
M  V30 4138 H 377.414 1.27573 0.99683 0
M  V30 4139 H 379.406 0.578806 4.0054 0
M  V30 4140 H 377.976 -0.0171518 3.12595 0
M  V30 4141 H 377.196 2.468 3.07382 0
M  V30 4142 H 378.484 2.80752 4.24329 0
M  V30 4143 H 377.882 -0.0423528 5.65684 0
M  V30 4144 H 376.439 0.335614 6.50935 0
M  V30 4145 N 379.872 -1.04064 1.18357 0
M  V30 4146 C 380.819 -2.12077 0.910603 0
M  V30 4147 C 381.789 -1.65421 -0.15 0
M  V30 4148 O 382.974 -1.90797 -0.0103614 0
M  V30 4149 C 380.114 -3.42252 0.442472 0
M  V30 4150 C 379.227 -4.0252 1.5685 0
M  V30 4151 C 378.362 -5.20657 1.05309 0
M  V30 4152 C 377.401 -5.72955 2.1538 0
M  V30 4153 N 376.538 -6.8238 1.65233 0
M  V30 4154 H 381.378 -2.34764 1.83548 0
M  V30 4155 H 378.915 -1.15157 0.915279 0
M  V30 4156 H 380.873 -4.16921 0.152534 0
M  V30 4157 H 379.503 -3.19712 -0.445428 0
M  V30 4158 H 378.555 -3.25178 1.97391 0
M  V30 4159 H 379.867 -4.37362 2.39824 0
M  V30 4160 H 379.021 -6.0244 0.717677 0
M  V30 4161 H 377.76 -4.87318 0.19293 0
M  V30 4162 H 376.765 -4.89793 2.49766 0
M  V30 4163 H 377.99 -6.08337 3.01832 0
M  V30 4164 H 375.936 -6.50917 0.815064 0
M  V30 4165 H 375.853 -7.16286 2.41805 0
M  V30 4166 H 377.121 -7.67788 1.34619 0
M  V30 4167 N 381.35 -0.985608 -1.22978 0
M  V30 4168 C 382.298 -0.522631 -2.26652 0
M  V30 4169 C 383.292 0.422998 -1.64034 0
M  V30 4170 O 384.498 0.296319 -1.77544 0
M  V30 4171 H 380.873 -0.150597 -0.736766 0
M  V30 4172 H 382.844 -1.40863 -2.63059 0
M  V30 4173 C 381.593 0.154238 -3.47358 0
M  V30 4174 H 380.916 -0.564329 -3.95797 0
M  V30 4175 H 382.356 0.441744 -4.21693 0
M  V30 4176 C 380.815 1.38719 -3.07016 0
M  V30 4177 O 381.345 2.48307 -3.15764 0
M  V30 4178 N 379.551 1.25975 -2.61875 0
M  V30 4179 H 379.098 0.368068 -2.54957 0
M  V30 4180 H 379.056 2.08578 -2.3525 0
M  V30 4181 N 382.828 1.3818 -0.7579 0
M  V30 4182 C 384.077 1.99261 -0.312744 0
M  V30 4183 C 384.39 1.60846 1.11301 0
M  V30 4184 O 385.596 2.14929 1.65885 0
M  V30 4185 C 384.052 3.56294 -0.50821 0
M  V30 4186 C 383.66 4.03657 -1.94333 0
M  V30 4187 C 385.404 4.24313 -0.125982 0
M  V30 4188 C 383.311 5.53347 -2.08712 0
M  V30 4189 H 382.241 0.745456 -0.113185 0
M  V30 4190 H 384.892 1.57889 -0.935056 0
M  V30 4191 H 383.274 3.95575 0.183353 0
M  V30 4192 H 384.448 3.75655 -2.66871 0
M  V30 4193 H 382.763 3.48376 -2.28086 0
M  V30 4194 H 385.36 5.34279 -0.212125 0
M  V30 4195 H 385.703 4.05962 0.921964 0
M  V30 4196 H 386.236 3.90285 -0.769563 0
M  V30 4197 H 382.975 5.76607 -3.11777 0
M  V30 4198 H 382.495 5.83078 -1.4064 0
M  V30 4199 H 384.174 6.19111 -1.87912 0
M  V30 4200 N 384.306 0.507319 1.49211 0
M  V30 4201 C 385.717 0.0611118 1.866 0
M  V30 4202 C 386.068 -1.35488 1.41907 0
M  V30 4203 O 385.193 -2.0108 0.799726 0
M  V30 4204 C 385.788 0.104125 3.3864 0
M  V30 4205 C 384.347 -0.28677 3.75306 0
M  V30 4206 C 383.494 0.473893 2.73221 0
M  V30 4207 H 386.445 0.719775 1.41439 0
M  V30 4208 H 386.466 -0.689672 3.74198 0
M  V30 4209 H 385.978 1.13482 3.71138 0
M  V30 4210 H 384.079 -1.32046 3.48417 0
M  V30 4211 H 384.192 0.0370745 4.79086 0
M  V30 4212 H 382.556 -0.0770644 2.54583 0
M  V30 4213 H 383.339 1.50478 3.08563 0
M  V30 4214 N 385.784 -1.5574 0.241426 0
M  V30 4215 C 387.031 -1.9881 -0.384836 0
M  V30 4216 C 387.359 -1.12947 -1.58346 0
M  V30 4217 O 386.614 -0.178993 -1.9488 0
M  V30 4218 C 386.913 -3.47308 -0.843317 0
M  V30 4219 C 386.579 -4.50223 0.246946 0
M  V30 4220 C 385.241 -4.78088 0.546399 0
M  V30 4221 C 387.593 -5.11841 0.983282 0
M  V30 4222 C 384.921 -5.64846 1.58636 0
M  V30 4223 C 387.273 -5.99727 2.01272 0
M  V30 4224 C 385.937 -6.25927 2.31888 0
M  V30 4225 H 385.207 -0.727496 -0.140821 0
M  V30 4226 H 387.854 -1.8831 0.348106 0
M  V30 4227 H 386.159 -3.55112 -1.65537 0
M  V30 4228 H 387.856 -3.78017 -1.33806 0
M  V30 4229 H 384.446 -4.286 0.00340639 0
M  V30 4230 H 388.63 -4.90366 0.765182 0
M  V30 4231 H 383.886 -5.83403 1.82896 0
M  V30 4232 H 388.06 -6.46517 2.58823 0
M  V30 4233 H 385.687 -6.92949 3.12611 0
M  V30 4234 N 387.262 0.0317525 -1.57568 0
M  V30 4235 C 388.492 0.733884 -1.93126 0
M  V30 4236 C 388.9 1.69563 -0.839352 0
M  V30 4237 O 388.243 1.82681 0.193175 0
M  V30 4238 C 388.305 1.54798 -3.24465 0
M  V30 4239 C 387.969 0.751304 -4.50782 0
M  V30 4240 C 388.966 0.0527632 -5.19873 0
M  V30 4241 C 386.651 0.706639 -4.97305 0
M  V30 4242 C 388.645 -0.679774 -6.33765 0
M  V30 4243 C 386.332 -0.0296449 -6.11093 0
M  V30 4244 C 387.33 -0.721614 -6.79177 0
M  V30 4245 O 387.018 -1.44595 -7.90789 0
M  V30 4246 H 386.75 0.211459 -0.642076 0
M  V30 4247 H 389.304 -0.00585615 -2.05399 0
M  V30 4248 H 387.534 2.33147 -3.08512 0
M  V30 4249 H 389.223 2.13247 -3.4537 0
M  V30 4250 H 389.989 0.0783188 -4.84937 0
M  V30 4251 H 385.868 1.23474 -4.44157 0
M  V30 4252 H 389.412 -1.22042 -6.86842 0
M  V30 4253 H 385.309 -0.0571331 -6.45475 0
M  V30 4254 H 386.077 -1.35935 -8.07133 0
M  V30 4255 N 388.74 1.54641 0.303973 0
M  V30 4256 C 389.989 1.7299 1.03717 0
M  V30 4257 C 390.302 0.521168 1.88529 0
M  V30 4258 O 391.508 0.586408 2.65092 0
M  V30 4259 C 389.964 3.06051 1.89369 0
M  V30 4260 C 389.572 4.34393 1.09574 0
M  V30 4261 C 391.316 3.3376 2.62306 0
M  V30 4262 C 389.223 5.58506 1.94486 0
M  V30 4263 H 388.153 0.64473 0.390947 0
M  V30 4264 H 390.804 1.81124 0.294328 0
M  V30 4265 H 389.186 2.91874 2.67629 0
M  V30 4266 H 390.36 4.59396 0.359485 0
M  V30 4267 H 388.675 4.13597 0.482324 0
M  V30 4268 H 391.272 4.23687 3.26181 0
M  V30 4269 H 391.615 2.52503 3.3098 0
M  V30 4270 H 392.148 3.48894 1.91097 0
M  V30 4271 H 388.887 6.42422 1.30287 0
M  V30 4272 H 388.407 5.37694 2.65792 0
M  V30 4273 H 390.086 5.95651 2.52605 0
M  V30 4274 N 390.218 -0.567019 1.47046 0
M  V30 4275 C 391.443 -1.3551 1.57009 0
M  V30 4276 C 391.868 -1.86841 0.217259 0
M  V30 4277 O 391.226 -1.62435 -0.805268 0
M  V30 4278 C 391.274 -2.50777 2.5912 0
M  V30 4279 O 390.378 -3.52706 2.13711 0
M  V30 4280 H 389.719 -0.402919 0.52778 0
M  V30 4281 H 392.249 -0.686241 1.92748 0
M  V30 4282 H 392.259 -2.97481 2.79229 0
M  V30 4283 H 390.934 -2.12771 3.57353 0
M  V30 4284 H 389.511 -3.12374 2.03659 0
M  V30 4285 N 391.696 -1.35014 -0.812953 0
M  V30 4286 C 392.942 -1.2812 -1.57204 0
M  V30 4287 C 393.275 0.145869 -1.93651 0
M  V30 4288 O 392.55 1.0937 -1.60836 0
M  V30 4289 C 392.833 -2.18162 -2.86492 0
M  V30 4290 C 392.686 -3.69454 -2.56561 0
M  V30 4291 C 394.005 -2.07439 -3.88145 0
M  V30 4292 H 391.124 -0.466746 -0.570366 0
M  V30 4293 H 393.766 -1.65357 -0.935783 0
M  V30 4294 H 391.916 -1.86535 -3.40789 0
M  V30 4295 H 393.588 -4.11493 -2.08497 0
M  V30 4296 H 391.831 -3.9005 -1.89851 0
M  V30 4297 H 392.502 -4.27835 -3.48799 0
M  V30 4298 H 394.978 -2.35228 -3.4323 0
M  V30 4299 H 393.854 -2.7265 -4.76396 0
M  V30 4300 H 394.115 -1.05439 -4.29343 0
M  V30 4301 N 393.175 1.03435 -1.18907 0
M  V30 4302 C 394.105 2.13503 -0.945448 0
M  V30 4303 C 395.086 1.69682 0.119189 0
M  V30 4304 O 396.271 1.94169 -0.034707 0
M  V30 4305 C 393.401 3.44004 -0.477316 0
M  V30 4306 C 392.355 4.0148 -1.48316 0
M  V30 4307 C 391.681 5.27537 -0.872311 0
M  V30 4308 C 392.981 4.36921 -2.86177 0
M  V30 4309 H 394.675 2.34141 -1.86597 0
M  V30 4310 H 392.221 1.12523 -0.898584 0
M  V30 4311 H 394.174 4.20372 -0.294204 0
M  V30 4312 H 392.898 3.23072 0.478786 0
M  V30 4313 H 391.557 3.27201 -1.65332 0
M  V30 4314 H 391.205 5.02917 0.0911752 0
M  V30 4315 H 390.905 5.66954 -1.54393 0
M  V30 4316 H 392.429 6.06576 -0.699871 0
M  V30 4317 H 393.843 5.04248 -2.72776 0
M  V30 4318 H 392.24 4.87405 -3.50081 0
M  V30 4319 H 393.31 3.46466 -3.39248 0
M  V30 4320 N 394.653 0.992116 1.22453 0
M  V30 4321 C 395.563 0.55065 2.28046 0
M  V30 4322 C 396.579 -0.400189 1.69335 0
M  V30 4323 O 397.755 -0.267215 1.99619 0
M  V30 4324 C 394.82 -0.128496 3.46462 0
M  V30 4325 C 393.881 0.865208 4.20491 0
M  V30 4326 C 393.114 0.218377 5.33253 0
M  V30 4327 O 393.337 -0.987894 5.6178 0
M  V30 4328 O 392.271 0.922845 5.94783 0
M  V30 4329 H 396.097 1.4291 2.67975 0
M  V30 4330 H 393.682 0.760326 1.28606 0
M  V30 4331 H 395.564 -0.508947 4.18315 0
M  V30 4332 H 394.239 -0.981526 3.0846 0
M  V30 4333 H 393.146 1.29658 3.50913 0
M  V30 4334 H 394.479 1.68741 4.62371 0
M  V30 4335 N 396.131 -1.37776 0.765217 0
M  V30 4336 C 397.041 -2.34135 0.147666 0
M  V30 4337 C 398.057 -1.59854 -0.687215 0
M  V30 4338 O 399.233 -1.91983 -0.608659 0
M  V30 4339 C 396.298 -3.3901 -0.72617 0
M  V30 4340 C 395.359 -4.2912 0.124417 0
M  V30 4341 C 394.592 -5.28986 -0.707807 0
M  V30 4342 O 394.815 -5.36205 -1.94525 0
M  V30 4343 O 393.749 -6.01779 -0.12046 0
M  V30 4344 H 397.575 -2.88664 0.943758 0
M  V30 4345 H 395.16 -1.39824 0.526277 0
M  V30 4346 H 397.042 -4.03195 -1.22524 0
M  V30 4347 H 395.717 -2.86819 -1.50056 0
M  V30 4348 H 394.624 -3.68057 0.669696 0
M  V30 4349 H 395.957 -4.84598 0.861736 0
M  V30 4350 N 397.609 -0.515225 -1.4894 0
M  V30 4351 C 398.557 0.269115 -2.31038 0
M  V30 4352 C 399.551 0.949443 -1.40292 0
M  V30 4353 O 400.757 0.87551 -1.57273 0
M  V30 4354 H 397.132 0.10565 -0.744542 0
M  V30 4355 H 399.103 -0.443096 -2.95092 0
M  V30 4356 C 397.852 1.31213 -3.21991 0
M  V30 4357 H 397.175 0.798034 -3.91754 0
M  V30 4358 H 398.615 1.83263 -3.82349 0
M  V30 4359 C 397.074 2.33791 -2.42576 0
M  V30 4360 O 397.604 3.3995 -2.14003 0
M  V30 4361 N 395.81 2.06625 -2.0434 0
M  V30 4362 H 395.357 1.20314 -2.27777 0
M  V30 4363 H 395.315 2.75483 -1.51514 0
M  V30 4364 N 399.087 1.5561 -0.249682 0
M  V30 4365 C 399.997 2.25143 0.659375 0
M  V30 4366 C 401.013 1.2685 1.19101 0
M  V30 4367 O 402.189 1.59732 1.22669 0
M  V30 4368 C 399.254 2.93945 1.8384 0
M  V30 4369 C 398.315 4.07655 1.34596 0
M  V30 4370 C 397.548 4.73167 2.46878 0
M  V30 4371 O 397.771 4.37768 3.65671 0
M  V30 4372 O 396.705 5.61623 2.16478 0
M  V30 4373 H 400.531 3.03545 0.0968698 0
M  V30 4374 H 398.116 1.49389 -0.018074 0
M  V30 4375 H 399.998 3.37271 2.52638 0
M  V30 4376 H 398.673 2.18481 2.38847 0
M  V30 4377 H 397.58 3.68839 0.625174 0
M  V30 4378 H 398.913 4.84946 0.841941 0
M  V30 4379 N 400.565 -0.0233959 1.57583 0
M  V30 4380 C 401.842 -0.748794 1.807 0
M  V30 4381 C 402.222 -1.9327 0.849106 0
M  V30 4382 O 401.57 -2.28247 -0.107468 0
M  V30 4383 C 401.78 -1.17651 3.28571 0
M  V30 4384 C 403.128 -1.59008 3.93702 0
M  V30 4385 O 404.152 -1.27094 3.32755 0
M  V30 4386 O 403.011 -2.18264 5.01022 0
M  V30 4387 H 400.105 -0.362578 0.743281 0
M  V30 4388 H 402.651 0.000261958 1.697 0
M  V30 4389 H 401.423 -0.331603 3.89892 0
M  V30 4390 H 401.046 -1.98541 3.44481 0
M  V30 4391 N 402.043 -1.548 -0.295768 0
M  V30 4392 C 403.268 -1.78653 -1.05346 0
M  V30 4393 C 403.693 -0.546894 -1.79974 0
M  V30 4394 O 403.051 0.502763 -1.7419 0
M  V30 4395 C 403.099 -2.99679 -2.00561 0
M  V30 4396 O 402.203 -2.7317 -3.08953 0
M  V30 4397 H 401.544 -0.59116 -0.302367 0
M  V30 4398 H 404.074 -2.01895 -0.331598 0
M  V30 4399 H 404.084 -3.27793 -2.42932 0
M  V30 4400 H 402.759 -3.89562 -1.4565 0
M  V30 4401 H 401.336 -2.56089 -2.71059 0
M  V30 4402 N 403.521 0.559213 -1.47345 0
M  V30 4403 C 404.937 0.884943 -1.32819 0
M  V30 4404 C 405.137 1.98988 -0.317173 0
M  V30 4405 O 404.193 2.51031 0.272011 0
M  V30 4406 C 405.506 1.28007 -2.72093 0
M  V30 4407 C 407.054 1.39161 -2.80363 0
M  V30 4408 C 407.529 1.82031 -4.20272 0
M  V30 4409 N 409.02 1.89185 -4.22804 0
M  V30 4410 C 409.755 2.2368 -5.27973 0
M  V30 4411 N 409.251 2.56802 -6.43447 0
M  V30 4412 N 411.044 2.24436 -5.15349 0
M  V30 4413 H 403.195 -0.170304 -2.11716 0
M  V30 4414 H 405.458 -0.0135247 -0.947904 0
M  V30 4415 H 405.164 0.542027 -3.47498 0
M  V30 4416 H 405.038 2.23665 -3.03733 0
M  V30 4417 H 407.425 2.12048 -2.05231 0
M  V30 4418 H 407.506 0.41696 -2.52379 0
M  V30 4419 H 407.15 1.09715 -4.95908 0
M  V30 4420 H 407.08 2.80495 -4.45679 0
M  V30 4421 H 409.571 1.65982 -3.39497 0
M  V30 4422 H 409.884 2.82144 -7.19454 0
M  V30 4423 H 408.229 2.54387 -6.46771 0
M  V30 4424 H 411.42 1.97998 -4.24163 0
M  V30 4425 H 411.593 2.50989 -5.97418 0
M  V30 4426 N 404.999 1.35443 0.805782 0
M  V30 4427 C 406.415 1.15499 1.10146 0
M  V30 4428 C 406.615 -0.0319975 2.01475 0
M  V30 4429 O 405.671 -0.70236 2.42535 0
M  V30 4430 C 406.984 2.45833 1.73166 0
M  V30 4431 C 408.532 2.52047 1.85583 0
M  V30 4432 C 409.007 3.82427 2.52019 0
M  V30 4433 N 410.498 3.83682 2.59504 0
M  V30 4434 C 411.233 4.81294 3.11679 0
M  V30 4435 N 410.729 5.89294 3.64287 0
M  V30 4436 N 412.522 4.6873 3.1024 0
M  V30 4437 H 404.673 2.11469 0.198678 0
M  V30 4438 H 406.936 0.93594 0.150731 0
M  V30 4439 H 406.642 3.32874 1.13526 0
M  V30 4440 H 406.516 2.6044 2.72857 0
M  V30 4441 H 408.903 1.65435 2.44367 0
M  V30 4442 H 408.984 2.41354 0.847455 0
M  V30 4443 H 408.628 4.69437 1.93885 0
M  V30 4444 H 408.558 3.90409 3.53395 0
M  V30 4445 H 411.049 3.05648 2.22234 0
M  V30 4446 H 411.362 6.59768 4.02401 0
M  V30 4447 H 409.707 5.92985 3.62483 0
M  V30 4448 H 412.898 3.83496 2.68419 0
M  V30 4449 H 413.071 5.44965 3.50596 0
M  V30 4450 N 406.477 -1.02803 1.19454 0
M  V30 4451 C 407.724 -1.76217 0.997693 0
M  V30 4452 C 408.052 -1.887 -0.47144 0
M  V30 4453 O 407.307 -1.4011 -1.3663 0
M  V30 4454 C 407.606 -3.18941 1.6128 0
M  V30 4455 C 407.272 -3.26463 3.11019 0
M  V30 4456 C 405.934 -3.28223 3.51885 0
M  V30 4457 C 408.286 -3.25542 4.07028 0
M  V30 4458 C 405.614 -3.26719 4.8731 0
M  V30 4459 C 407.966 -3.25579 5.42385 0
M  V30 4460 C 406.63 -3.25637 5.82681 0
M  V30 4461 H 405.9 -0.644823 0.365082 0
M  V30 4462 H 408.547 -1.20655 1.4871 0
M  V30 4463 H 406.852 -3.77587 1.04572 0
M  V30 4464 H 408.549 -3.74415 1.43577 0
M  V30 4465 H 405.139 -3.25822 2.78457 0
M  V30 4466 H 409.323 -3.23362 3.76498 0
M  V30 4467 H 404.579 -3.25089 5.1781 0
M  V30 4468 H 408.753 -3.23817 6.16535 0
M  V30 4469 H 406.38 -3.24226 6.87591 0
M  V30 4470 N 407.956 -0.998596 -1.21925 0
M  V30 4471 C 409.202 -0.678667 -1.91107 0
M  V30 4472 C 409.535 0.78791 -1.77498 0
M  V30 4473 O 408.81 1.57043 -1.1475 0
M  V30 4474 C 409.093 -1.09245 -3.43129 0
M  V30 4475 C 408.946 -2.61801 -3.6576 0
M  V30 4476 C 410.265 -0.649984 -4.35274 0
M  V30 4477 H 407.384 -0.248025 -0.694012 0
M  V30 4478 H 410.026 -1.24314 -1.43688 0
M  V30 4479 H 408.176 -0.612171 -3.83647 0
M  V30 4480 H 409.848 -3.17543 -3.34611 0
M  V30 4481 H 408.091 -3.03609 -3.09845 0
M  V30 4482 H 408.762 -2.85804 -4.7225 0
M  V30 4483 H 411.238 -1.0626 -4.02303 0
M  V30 4484 H 410.114 -0.967743 -5.40302 0
M  V30 4485 H 410.375 0.449139 -4.39813 0
M  V30 4486 N 409.434 1.37368 -0.772513 0
M  V30 4487 C 410.682 1.99279 -0.336516 0
M  V30 4488 C 411.003 1.6163 1.09091 0
M  V30 4489 O 410.273 0.882109 1.74916 0
M  V30 4490 H 408.853 0.737063 -0.121435 0
M  V30 4491 H 411.515 1.67836 -0.990809 0
M  V30 4492 H 410.611 3.09332 -0.414763 0
M  V30 4493 N 410.912 0.523116 1.48665 0
M  V30 4494 C 411.844 -0.280421 2.27478 0
M  V30 4495 C 412.857 -0.910694 1.34945 0
M  V30 4496 O 414.046 -0.790295 1.60052 0
M  V30 4497 C 411.146 -1.41171 3.08097 0
M  V30 4498 C 410.319 -0.884642 4.28361 0
M  V30 4499 C 409.378 -1.89622 4.90846 0
M  V30 4500 O 408.404 -1.4559 5.50265 0
M  V30 4501 N 409.606 -3.22801 4.82472 0
M  V30 4502 H 412.371 0.395481 2.97079 0
M  V30 4503 H 409.932 0.357018 1.57915 0
M  V30 4504 H 411.924 -2.08645 3.4677 0
M  V30 4505 H 410.494 -1.99139 2.40961 0
M  V30 4506 H 409.714 -0.0341177 3.94185 0
M  V30 4507 H 411.002 -0.511268 5.06225 0
M  V30 4508 H 410.4 -3.61246 4.35336 0
M  V30 4509 H 408.957 -3.85927 5.25265 0
M  V30 4510 N 412.39 -1.55475 0.257931 0
M  V30 4511 C 413.637 -1.99207 -0.363728 0
M  V30 4512 C 413.965 -1.1462 -1.57139 0
M  V30 4513 O 413.22 -0.199653 -1.94679 0
M  V30 4514 C 413.519 -3.48183 -0.806433 0
M  V30 4515 C 413.185 -4.49936 0.294684 0
M  V30 4516 C 411.847 -4.77481 0.597076 0
M  V30 4517 C 414.199 -5.10769 1.03751 0
M  V30 4518 C 411.527 -5.63132 1.64618 0
M  V30 4519 C 413.879 -5.97558 2.07622 0
M  V30 4520 C 412.543 -6.23432 2.38514 0
M  V30 4521 H 411.813 -0.728949 -0.133097 0
M  V30 4522 H 414.46 -1.8793 0.368059 0
M  V30 4523 H 412.765 -3.56848 -1.61761 0
M  V30 4524 H 414.462 -3.79415 -1.29789 0
M  V30 4525 H 411.052 -4.28572 0.0488649 0
M  V30 4526 H 415.236 -4.89527 0.817149 0
M  V30 4527 H 410.492 -5.8143 1.89074 0
M  V30 4528 H 414.666 -6.43735 2.65666 0
M  V30 4529 H 412.293 -6.89594 3.19943 0
M  V30 4530 N 413.868 0.0150385 -1.57593 0
M  V30 4531 C 415.116 0.701613 -1.8953 0
M  V30 4532 C 415.437 1.75139 -0.857396 0
M  V30 4533 O 414.707 1.95607 0.107194 0
M  V30 4534 H 413.287 0.26213 -0.699498 0
M  V30 4535 H 415.949 -0.0223304 -1.94887 0
M  V30 4536 H 415.045 1.18236 -2.88837 0
M  V30 4537 N 415.346 1.54954 0.287554 0
M  V30 4538 C 416.593 1.74873 1.02106 0
M  V30 4539 C 416.921 0.541829 1.86801 0
M  V30 4540 O 416.176 -0.475992 1.89823 0
M  V30 4541 C 416.475 2.99833 1.94512 0
M  V30 4542 C 416.141 4.33029 1.25686 0
M  V30 4543 C 414.803 4.69233 1.06649 0
M  V30 4544 C 417.155 5.15542 0.765913 0
M  V30 4545 C 414.483 5.85518 0.372222 0
M  V30 4546 C 416.835 6.32542 0.0853101 0
M  V30 4547 C 415.499 6.67398 -0.1169 0
M  V30 4548 H 414.769 0.639906 0.373632 0
M  V30 4549 H 417.416 1.89219 0.294665 0
M  V30 4550 H 415.721 2.80325 2.73725 0
M  V30 4551 H 417.418 3.1244 2.51361 0
M  V30 4552 H 414.008 4.04564 1.41512 0
M  V30 4553 H 418.192 4.88059 0.90066 0
M  V30 4554 H 413.448 6.11057 0.204695 0
M  V30 4555 H 417.622 6.95741 -0.302936 0
M  V30 4556 H 415.249 7.57357 -0.656859 0
M  V30 4557 N 416.824 -0.551391 1.4764 0
M  V30 4558 C 418.071 -1.3083 1.54563 0
M  V30 4559 C 418.399 -1.93359 0.210361 0
M  V30 4560 O 417.654 -1.78721 -0.797332 0
M  V30 4561 C 417.953 -2.43469 2.61644 0
M  V30 4562 C 417.619 -1.98732 4.04742 0
M  V30 4563 C 416.281 -1.86248 4.43695 0
M  V30 4564 C 418.633 -1.64659 4.94507 0
M  V30 4565 C 415.961 -1.37995 5.70241 0
M  V30 4566 C 418.313 -1.17875 6.21521 0
M  V30 4567 C 416.977 -1.03992 6.5935 0
M  V30 4568 H 416.247 -0.478741 0.565587 0
M  V30 4569 H 418.894 -0.617697 1.81264 0
M  V30 4570 H 417.199 -3.18109 2.28722 0
M  V30 4571 H 418.896 -3.01642 2.64222 0
M  V30 4572 H 415.486 -2.09393 3.73968 0
M  V30 4573 H 419.67 -1.73174 4.65107 0
M  V30 4574 H 414.926 -1.25915 5.98294 0
M  V30 4575 H 419.1 -0.905739 6.90485 0
M  V30 4576 H 416.727 -0.663794 7.57296 0
M  V30 4577 N 418.302 -1.35869 -0.798587 0
M  V30 4578 C 419.212 -1.31578 -1.94228 0
M  V30 4579 C 420.228 -0.21939 -1.72611 0
M  V30 4580 O 421.404 -0.450167 -1.96305 0
M  V30 4581 C 418.469 -1.09528 -3.28944 0
M  V30 4582 C 417.53 -2.28556 -3.63402 0
M  V30 4583 C 416.763 -2.07549 -4.9169 0
M  V30 4584 O 416.986 -1.046 -5.60727 0
M  V30 4585 O 415.92 -2.95106 -5.24591 0
M  V30 4586 H 419.746 -2.27847 -2.00796 0
M  V30 4587 H 417.331 -1.16322 -0.937526 0
M  V30 4588 H 419.213 -0.991127 -4.09579 0
M  V30 4589 H 417.888 -0.16315 -3.23289 0
M  V30 4590 H 416.795 -2.44538 -2.83112 0
M  V30 4591 H 418.128 -3.20244 -3.73771 0
M  V30 4592 N 419.78 1.02168 -1.19998 0
M  V30 4593 C 420.743 2.08765 -0.94604 0
M  V30 4594 C 421.743 1.60618 0.0763846 0
M  V30 4595 O 422.933 1.73472 -0.159135 0
M  V30 4596 C 420.065 3.38262 -0.423255 0
M  V30 4597 H 421.258 2.32726 -1.89153 0
M  V30 4598 H 418.811 1.1889 -1.01464 0
M  V30 4599 H 419.546 3.19974 0.527938 0
M  V30 4600 H 419.331 3.74532 -1.16053 0
M  V30 4601 H 420.821 4.16759 -0.264911 0
M  V30 4602 N 421.258 1.00505 1.21394 0
M  V30 4603 C 422.483 0.706367 1.95001 0
M  V30 4604 C 422.908 -0.72463 1.73582 0
M  V30 4605 O 422.266 -1.49702 1.0227 0
M  V30 4606 C 422.314 1.03299 3.45487 0
M  V30 4607 O 421.418 0.138275 4.12168 0
M  V30 4608 H 420.759 0.263175 0.609619 0
M  V30 4609 H 423.289 1.34531 1.54151 0
M  V30 4610 H 423.299 0.979872 3.96059 0
M  V30 4611 H 421.974 2.07567 3.60401 0
M  V30 4612 H 420.551 0.247928 3.72075 0
M  V30 4613 N 422.737 -1.36956 0.779787 0
M  V30 4614 C 423.977 -2.01328 0.353043 0
M  V30 4615 C 424.341 -1.60558 -1.05286 0
M  V30 4616 O 425.542 -2.1745 -1.58016 0
M  V30 4617 C 423.813 -3.53874 0.500822 0
M  V30 4618 S 425.372 -4.38506 0.16053 0
M  V30 4619 H 422.19 -0.69799 0.13539 0
M  V30 4620 H 424.792 -1.67016 1.01617 0
M  V30 4621 H 423.496 -3.81034 1.52451 0
M  V30 4622 H 423.027 -3.92994 -0.178574 0
M  V30 4623 H 425.042 -4.85153 -1.04121 0
M  V30 4624 N 424.215 -0.530993 -1.48385 0
M  V30 4625 C 425.125 0.23503 -2.3342 0
M  V30 4626 C 426.141 0.93801 -1.46552 0
M  V30 4627 O 427.317 0.912745 -1.7953 0
M  V30 4628 C 424.382 1.26778 -3.22689 0
M  V30 4629 C 423.443 0.575038 -4.25431 0
M  V30 4630 C 422.676 1.55858 -5.10435 0
M  V30 4631 O 422.899 2.79129 -4.97437 0
M  V30 4632 O 421.833 1.09742 -5.91811 0
M  V30 4633 H 425.659 -0.461794 -3.00169 0
M  V30 4634 H 423.244 -0.291903 -1.46521 0
M  V30 4635 H 425.126 1.86457 -3.77904 0
M  V30 4636 H 423.801 1.94699 -2.586 0
M  V30 4637 H 422.708 -0.0622782 -3.74048 0
M  V30 4638 H 424.041 -0.062253 -4.92161 0
M  V30 4639 N 425.693 1.55336 -0.266172 0
M  V30 4640 C 426.939 2.00423 0.346714 0
M  V30 4641 C 427.294 1.15132 1.54151 0
M  V30 4642 O 426.587 0.211289 1.90431 0
M  V30 4643 C 426.781 3.48606 0.787957 0
M  V30 4644 C 426.61 4.48236 -0.362535 0
M  V30 4645 C 425.38 4.98211 -0.843445 0
M  V30 4646 C 427.578 5.00199 -1.19603 0
M  V30 4647 N 425.56 5.81625 -1.96434 0
M  V30 4648 C 426.931 5.80973 -2.16497 0
M  V30 4649 C 428.986 4.82458 -1.2304 0
M  V30 4650 C 427.689 6.45896 -3.1656 0
M  V30 4651 C 429.715 5.48174 -2.21944 0
M  V30 4652 C 429.077 6.28751 -3.17571 0
M  V30 4653 H 425.176 0.776535 0.0922914 0
M  V30 4654 H 427.76 1.90792 -0.388154 0
M  V30 4655 H 425.931 3.58597 1.49207 0
M  V30 4656 H 427.663 3.80538 1.37742 0
M  V30 4657 H 424.418 4.71696 -0.424271 0
M  V30 4658 H 424.842 6.28025 -2.52813 0
M  V30 4659 H 429.484 4.19774 -0.504903 0
M  V30 4660 H 427.202 7.07734 -3.90048 0
M  V30 4661 H 430.788 5.36392 -2.25333 0
M  V30 4662 H 429.668 6.78703 -3.92851 0
M  V30 4663 N 427.171 -0.0066808 1.57599 0
M  V30 4664 C 428.121 -1.0086 2.04478 0
M  V30 4665 C 429.105 -1.30714 0.938231 0
M  V30 4666 O 430.297 -1.29924 1.20203 0
M  V30 4667 C 427.426 -2.30273 2.54615 0
M  V30 4668 C 426.512 -2.03413 3.72134 0
M  V30 4669 N 426.903 -1.46688 4.84062 0
M  V30 4670 C 425.201 -2.33589 3.79937 0
M  V30 4671 C 425.902 -1.36146 5.65543 0
M  V30 4672 N 424.878 -1.84477 5.1134 0
M  V30 4673 H 428.68 -0.564402 2.8843 0
M  V30 4674 H 426.194 -0.212521 1.61003 0
M  V30 4675 H 428.191 -3.02885 2.86472 0
M  V30 4676 H 426.851 -2.75352 1.72079 0
M  V30 4677 H 427.862 -1.14658 5.05049 0
M  V30 4678 H 424.539 -2.81589 3.08243 0
M  V30 4679 H 425.929 -0.925873 6.6549 0
M  V30 4680 N 428.649 -1.55105 -0.279332 0
M  V30 4681 C 429.581 -1.83952 -1.36727 0
M  V30 4682 C 430.594 -0.723642 -1.45833 0
M  V30 4683 O 431.783 -1.00141 -1.47763 0
M  V30 4684 C 428.883 -1.98183 -2.74912 0
M  V30 4685 C 428.056 -3.28787 -2.88475 0
M  V30 4686 C 427.115 -3.33162 -4.07295 0
M  V30 4687 O 426.141 -4.06576 -3.98353 0
M  V30 4688 N 427.343 -2.60109 -5.18964 0
M  V30 4689 H 430.108 -2.77853 -1.12328 0
M  V30 4690 H 427.669 -1.54945 -0.469442 0
M  V30 4691 H 429.661 -1.98488 -3.52682 0
M  V30 4692 H 428.231 -1.11177 -2.92162 0
M  V30 4693 H 427.451 -3.41075 -1.97641 0
M  V30 4694 H 428.739 -4.14933 -2.94463 0
M  V30 4695 H 428.137 -2.00136 -5.29115 0
M  V30 4696 H 426.694 -2.66143 -5.94988 0
M  V30 4697 N 430.127 0.543554 -1.4793 0
M  V30 4698 C 431.373 1.29961 -1.56466 0
M  V30 4699 C 431.728 1.91024 -0.229696 0
M  V30 4700 O 431.021 1.75619 0.766072 0
M  V30 4701 C 431.215 2.42078 -2.62932 0
M  V30 4702 C 431.044 1.92003 -4.06651 0
M  V30 4703 C 429.814 1.75223 -4.73946 0
M  V30 4704 C 432.012 1.45648 -4.93245 0
M  V30 4705 N 429.994 1.19632 -6.02131 0
M  V30 4706 C 431.365 1.01914 -6.11566 0
M  V30 4707 C 433.42 1.33826 -4.79578 0
M  V30 4708 C 432.123 0.475301 -7.17728 0
M  V30 4709 C 434.149 0.808427 -5.85848 0
M  V30 4710 C 433.511 0.381081 -7.03368 0
M  V30 4711 H 429.61 0.467086 -0.62718 0
M  V30 4712 H 432.194 0.614543 -1.84747 0
M  V30 4713 H 430.365 3.08098 -2.36496 0
M  V30 4714 H 432.097 3.09096 -2.61231 0
M  V30 4715 H 428.852 1.98345 -4.30065 0
M  V30 4716 H 429.276 0.93885 -6.70458 0
M  V30 4717 H 433.918 1.65474 -3.89074 0
M  V30 4718 H 431.636 0.146472 -8.07967 0
M  V30 4719 H 435.222 0.720315 -5.77324 0
M  V30 4720 H 434.102 -0.0225344 -7.84197 0
M  V30 4721 N 431.605 1.3629 0.791371 0
M  V30 4722 C 432.833 1.33562 1.58016 0
M  V30 4723 C 433.248 -0.0835616 1.88615 0
M  V30 4724 O 432.605 -1.0399 1.49974 0
M  V30 4725 C 432.656 2.15517 2.90232 0
M  V30 4726 O 432.377 3.51902 2.60953 0
M  V30 4727 C 433.878 2.20546 3.84544 0
M  V30 4728 H 431.098 0.458226 0.490173 0
M  V30 4729 H 433.642 1.79361 0.982345 0
M  V30 4730 H 431.797 1.73278 3.46487 0
M  V30 4731 H 432.211 3.94644 3.4548 0
M  V30 4732 H 433.685 2.82252 4.74382 0
M  V30 4733 H 434.162 1.20838 4.2225 0
M  V30 4734 H 434.768 2.63013 3.34222 0
M  V30 4735 N 433.083 -1.0153 1.20538 0
M  V30 4736 C 434.323 -1.76689 1.02763 0
M  V30 4737 C 434.687 -1.87065 -0.432513 0
M  V30 4738 O 435.888 -2.58684 -0.730481 0
M  V30 4739 C 434.159 -3.14707 1.69393 0
M  V30 4740 S 435.718 -4.05886 1.66738 0
M  V30 4741 H 432.536 -0.608076 0.368463 0
M  V30 4742 H 435.138 -1.21558 1.53114 0
M  V30 4743 H 433.842 -3.04782 2.74838 0
M  V30 4744 H 433.373 -3.74913 1.19179 0
M  V30 4745 H 435.388 -4.91221 0.70117 0
M  V30 4746 N 434.561 -1.01147 -1.20859 0
M  V30 4747 C 435.791 -0.715872 -1.93801 0
M  V30 4748 C 436.199 0.726592 -1.74692 0
M  V30 4749 O 435.542 1.50397 -1.05482 0
M  V30 4750 C 435.604 -0.965269 -3.46299 0
M  V30 4751 C 435.268 -2.39584 -3.89164 0
M  V30 4752 C 436.265 -3.3764 -3.95342 0
M  V30 4753 C 433.95 -2.73522 -4.21297 0
M  V30 4754 C 435.944 -4.67698 -4.33056 0
M  V30 4755 C 433.631 -4.03794 -4.58687 0
M  V30 4756 C 434.629 -5.00693 -4.64538 0
M  V30 4757 O 434.317 -6.28635 -5.01072 0
M  V30 4758 H 434.049 -0.262524 -0.622942 0
M  V30 4759 H 436.603 -1.35413 -1.54443 0
M  V30 4760 H 434.833 -0.269847 -3.85757 0
M  V30 4761 H 436.522 -0.662051 -4.00464 0
M  V30 4762 H 437.288 -3.12757 -3.70686 0
M  V30 4763 H 433.167 -1.9879 -4.15937 0
M  V30 4764 H 436.711 -5.4333 -4.37537 0
M  V30 4765 H 432.608 -4.28459 -4.82797 0
M  V30 4766 H 433.376 -6.32847 -5.19083 0
M  V30 4767 N 436.039 1.36541 -0.78704 0
M  V30 4768 C 437.45 1.81873 -0.421807 0
M  V30 4769 C 437.801 1.65487 1.05397 0
M  V30 4770 O 436.926 1.17448 1.81755 0
M  V30 4771 C 437.521 3.30192 -0.758841 0
M  V30 4772 C 436.08 3.73743 -0.446468 0
M  V30 4773 C 435.227 2.58844 -0.994728 0
M  V30 4774 H 438.178 1.24796 -0.98039 0
M  V30 4775 H 438.199 3.80468 -0.0490648 0
M  V30 4776 H 437.711 3.42087 -1.83299 0
M  V30 4777 H 435.812 3.6741 0.619739 0
M  V30 4778 H 435.925 4.69272 -0.965415 0
M  V30 4779 H 434.289 2.51245 -0.418087 0
M  V30 4780 H 435.072 2.73525 -2.07458 0
M  V30 4781 N 437.518 0.538854 1.48102 0
M  V30 4782 C 438.45 -0.256278 2.27763 0
M  V30 4783 C 439.463 -0.89633 1.35904 0
M  V30 4784 O 440.652 -0.773275 1.60881 0
M  V30 4785 C 437.752 -1.37896 3.09577 0
M  V30 4786 C 436.925 -0.839159 4.29275 0
M  V30 4787 C 435.984 -1.84405 4.9283 0
M  V30 4788 O 435.01 -1.39746 5.51779 0
M  V30 4789 N 436.212 -3.17666 4.85869 0
M  V30 4790 H 438.977 0.426968 2.96643 0
M  V30 4791 H 436.538 0.373747 1.57527 0
M  V30 4792 H 438.53 -2.04955 3.48963 0
M  V30 4793 H 437.1 -1.96572 2.4306 0
M  V30 4794 H 436.32 0.00769287 3.94199 0
M  V30 4795 H 437.608 -0.457548 5.06739 0
M  V30 4796 H 437.006 -3.56609 4.39143 0
M  V30 4797 H 435.563 -3.80334 5.29329 0
M  V30 4798 N 438.996 -1.55193 0.274407 0
M  V30 4799 C 439.944 -2.23924 -0.629362 0
M  V30 4800 C 440.938 -1.23602 -1.1584 0
M  V30 4801 O 442.144 -1.41535 -1.11211 0
M  V30 4802 H 438.519 -0.718637 -0.221507 0
M  V30 4803 H 440.49 -2.98388 -0.0268322 0
M  V30 4804 C 439.239 -2.97329 -1.80252 0
M  V30 4805 H 438.562 -3.74313 -1.40462 0
M  V30 4806 H 440.002 -3.48743 -2.41152 0
M  V30 4807 C 438.461 -2.0276 -2.69054 0
M  V30 4808 O 438.991 -1.57836 -3.69392 0
M  V30 4809 N 437.197 -1.69275 -2.36208 0
M  V30 4810 H 436.744 -2.06004 -1.54661 0
M  V30 4811 H 436.702 -1.06271 -2.95895 0
M  V30 4812 N 440.474 -0.00167713 -1.576 0
M  V30 4813 C 441.404 0.988091 -2.11563 0
M  V30 4814 C 442.385 1.35736 -1.02517 0
M  V30 4815 O 443.57 1.44082 -1.30208 0
M  V30 4816 C 440.7 2.27941 -2.62031 0
M  V30 4817 C 439.654 2.0517 -3.75619 0
M  V30 4818 C 438.98 3.4033 -4.12407 0
M  V30 4819 C 440.28 1.41294 -5.02825 0
M  V30 4820 H 441.974 0.538771 -2.94513 0
M  V30 4821 H 439.52 0.257712 -1.41675 0
M  V30 4822 H 441.473 2.97539 -2.9841 0
M  V30 4823 H 440.197 2.74989 -1.76205 0
M  V30 4824 H 438.856 1.37998 -3.39635 0
M  V30 4825 H 438.504 3.85085 -3.23603 0
M  V30 4826 H 438.204 3.25909 -4.88935 0
M  V30 4827 H 439.728 4.1124 -4.51347 0
M  V30 4828 H 441.142 2.00851 -5.36965 0
M  V30 4829 H 439.539 1.37356 -5.84169 0
M  V30 4830 H 440.609 0.382362 -4.8339 0
M  V30 4831 N 441.952 1.55251 0.271103 0
M  V30 4832 C 443.198 1.76207 1.00394 0
M  V30 4833 C 443.531 0.562604 1.85872 0
M  V30 4834 O 442.806 -0.439785 1.89463 0
M  V30 4835 C 443.089 3.06828 1.8849 0
M  V30 4836 C 442.942 4.37134 1.05992 0
M  V30 4837 C 444.261 3.33503 2.87165 0
M  V30 4838 H 441.38 0.641086 0.363562 0
M  V30 4839 H 444.022 1.87982 0.276189 0
M  V30 4840 H 442.172 2.96921 2.5054 0
M  V30 4841 H 443.844 4.59001 0.459978 0
M  V30 4842 H 442.087 4.32275 0.363443 0
M  V30 4843 H 442.758 5.2486 1.70955 0
M  V30 4844 H 445.234 3.43215 2.3525 0
M  V30 4845 H 444.11 4.2616 3.45946 0
M  V30 4846 H 444.371 2.53235 3.62387 0
M  V30 4847 N 443.43 -0.535701 1.48216 0
M  V30 4848 C 444.841 -1.11769 1.49548 0
M  V30 4849 C 445.192 -1.94442 0.26207 0
M  V30 4850 O 444.317 -2.06987 -0.631287 0
M  V30 4851 C 444.912 -2.03367 2.70975 0
M  V30 4852 C 443.471 -2.56795 2.75196 0
M  V30 4853 C 442.618 -1.33631 2.42977 0
M  V30 4854 H 445.569 -0.321232 1.55415 0
M  V30 4855 H 445.59 -2.87569 2.49167 0
M  V30 4856 H 445.102 -1.43169 3.60727 0
M  V30 4857 H 443.203 -3.20731 1.89638 0
M  V30 4858 H 443.316 -2.9632 3.76472 0
M  V30 4859 H 441.68 -1.6502 1.94012 0
M  V30 4860 H 442.463 -0.75194 3.34964 0
M  V30 4861 N 444.908 -1.36708 -0.784132 0
M  V30 4862 C 446.155 -1.31231 -1.54222 0
M  V30 4863 C 446.483 0.106864 -1.94206 0
M  V30 4864 O 445.738 1.07734 -1.63376 0
M  V30 4865 C 446.037 -2.18571 -2.82774 0
M  V30 4866 C 445.703 -3.67039 -2.61903 0
M  V30 4867 C 444.365 -4.07503 -2.55919 0
M  V30 4868 C 446.717 -4.61149 -2.4288 0
M  V30 4869 C 444.045 -5.40211 -2.28886 0
M  V30 4870 C 446.397 -5.94081 -2.17373 0
M  V30 4871 C 445.061 -6.33664 -2.09825 0
M  V30 4872 H 444.331 -0.48021 -0.56434 0
M  V30 4873 H 446.978 -1.68807 -0.904233 0
M  V30 4874 H 445.283 -1.73949 -3.51068 0
M  V30 4875 H 446.98 -2.11655 -3.40592 0
M  V30 4876 H 443.57 -3.34941 -2.67418 0
M  V30 4877 H 447.754 -4.30756 -2.46501 0
M  V30 4878 H 443.01 -5.69855 -2.21529 0
M  V30 4879 H 447.184 -6.66566 -2.01649 0
M  V30 4880 H 444.811 -7.36423 -1.88641 0
M  V30 4881 O 446.425 0.923818 -1.32468 0
M  V30 4882 H 447.116 1.55617 -1.15339 0
M  V30 END ATOM
M  V30 BEGIN BOND
M  V30 END BOND
M  V30 END CTAB
M  END
$$$$
