drugbank_target|Q96A70 Antizyme inhibitor 2 (DB00114; DB00125)
 OpenBabel12092119323D

  0  0  0     0  0            999 V3000
M  V30 BEGIN CTAB
M  V30 COUNTS 6979 7059 0 0 0
M  V30 BEGIN ATOM
M  V30 1 H -0.908 1.98254 -0.117106 0
M  V30 2 N 0 1.576 0 0
M  V30 3 C 0.933 2.03868 1.02534 0
M  V30 4 C 1.911 0.928543 1.3348 0
M  V30 5 O 3.095 1.19667 1.45644 0
M  V30 6 C 0.222 2.43627 2.35294 0
M  V30 7 C -0.732 3.65373 2.2001 0
M  V30 8 S 0.101 5.13292 1.52614 0
M  V30 9 C 1.257 5.56322 2.86805 0
M  V30 10 H 1.49 2.90518 0.631377 0
M  V30 11 H -0.977 1.52953 0.210867 0
M  V30 12 H 0.981 2.67203 3.11629 0
M  V30 13 H -0.358 1.57376 2.7183 0
M  V30 14 H -1.165 3.90944 3.18086 0
M  V30 15 H -1.563 3.418 1.51819 0
M  V30 16 H 0.729 5.58782 3.83104 0
M  V30 17 H 1.672 6.56266 2.65933 0
M  V30 18 H 2.08 4.83886 2.90714 0
M  V30 19 N 1.4781 -0.272755 1.55222 0
M  V30 20 C 2.4411 -1.32041 1.87344 0
M  V30 21 C 3.4411 -1.42342 0.74803 0
M  V30 22 O 4.6311 -1.41488 1.0162 0
M  V30 23 C 1.7631 -2.70173 2.07893 0
M  V30 24 H 2.9561 -1.04789 2.80997 0
M  V30 25 H 0.5091 -0.51083 1.47717 0
M  V30 26 H 1.2441 -3.02605 1.16622 0
M  V30 27 H 1.0291 -2.64082 2.89833 0
M  V30 28 H 2.5191 -3.45869 2.34017 0
M  V30 29 N 2.9562 -1.48159 -0.537278 0
M  V30 30 C 4.2042 -1.55497 -1.29094 0
M  V30 31 C 4.5252 -0.227454 -1.93669 0
M  V30 32 O 3.7952 0.750386 -1.80959 0
M  V30 33 H 2.3752 -0.572832 -0.47945 0
M  V30 34 H 5.0372 -1.84579 -0.625818 0
M  V30 35 H 4.1332 -2.33216 -2.07405 0
M  V30 36 N 4.4343 0.785586 -1.36625 0
M  V30 37 C 5.6643 1.5722 -1.34036 0
M  V30 38 C 6.0723 1.89033 0.0795062 0
M  V30 39 O 5.4153 1.50881 1.04789 0
M  V30 40 C 5.4773 2.91759 -2.10041 0
M  V30 41 C 5.1413 2.82654 -3.59104 0
M  V30 42 C 6.1383 2.54634 -4.53274 0
M  V30 43 C 3.8233 3.01111 -4.02042 0
M  V30 44 C 5.8173 2.45177 -5.88359 0
M  V30 45 C 3.5043 2.91276 -5.37216 0
M  V30 46 C 4.5023 2.63348 -6.30188 0
M  V30 47 O 4.1903 2.53514 -7.6288 0
M  V30 48 H 3.9223 0.494177 -0.461265 0
M  V30 49 H 6.4763 0.982632 -1.8037 0
M  V30 50 H 4.7063 3.52781 -1.58375 0
M  V30 51 H 6.3953 3.53059 -2.00261 0
M  V30 52 H 7.1613 2.40073 -4.21414 0
M  V30 53 H 3.0403 3.21854 -3.30047 0
M  V30 54 H 6.5843 2.23299 -6.60896 0
M  V30 55 H 2.4813 3.054 -5.68684 0
M  V30 56 H 3.2493 2.68967 -7.73045 0
M  V30 57 N 5.9124 1.20967 1.01018 0
M  V30 58 C 6.8424 0.988272 2.11555 0
M  V30 59 C 7.8234 -0.0849778 1.69888 0
M  V30 60 O 9.0084 0.0738202 1.9406 0
M  V30 61 C 6.1384 0.546528 3.42973 0
M  V30 62 C 5.0924 1.56375 3.9841 0
M  V30 63 C 4.4184 0.97842 5.25672 0
M  V30 64 C 5.7184 2.94922 4.31066 0
M  V30 65 H 7.4124 1.91276 2.30334 0
M  V30 66 H 4.9584 0.921073 1.1069 0
M  V30 67 H 6.9114 0.378839 4.19694 0
M  V30 68 H 5.6354 -0.413598 3.23971 0
M  V30 69 H 4.2944 1.71891 3.23804 0
M  V30 70 H 3.9424 0.0101688 5.02999 0
M  V30 71 H 3.6424 1.65784 5.63728 0
M  V30 72 H 5.1664 0.821939 6.05043 0
M  V30 73 H 6.5804 2.8288 4.9865 0
M  V30 74 H 4.9774 3.5983 4.80253 0
M  V30 75 H 6.0474 3.4616 3.39561 0
M  V30 76 N 7.3905 -1.2043 1.01659 0
M  V30 77 C 8.6155 -1.94318 0.724942 0
M  V30 78 C 9.0405 -1.74266 -0.708034 0
M  V30 79 O 8.3985 -1.03694 -1.48719 0
M  V30 80 C 8.4465 -3.44486 1.06591 0
M  V30 81 O 7.5505 -4.12017 0.177599 0
M  V30 82 H 6.8915 -0.60708 0.26898 0
M  V30 83 H 9.4215 -1.52861 1.35995 0
M  V30 84 H 9.4315 -3.95106 1.01762 0
M  V30 85 H 8.1065 -3.58404 2.10997 0
M  V30 86 H 6.6835 -3.71821 0.283421 0
M  V30 87 N 8.8686 -0.792821 -1.36206 0
M  V30 88 C 9.7786 -0.194808 -2.3379 0
M  V30 89 C 10.7946 0.654869 -1.61206 0
M  V30 90 O 11.9706 0.569856 -1.9317 0
M  V30 91 C 9.0356 0.657721 -3.40404 0
M  V30 92 C 8.0966 -0.210849 -4.28782 0
M  V30 93 C 7.3296 0.601086 -5.30304 0
M  V30 94 O 7.5526 1.83682 -5.40016 0
M  V30 95 O 6.4866 -0.000808277 -6.019 0
M  V30 96 H 10.3126 -1.00172 -2.86704 0
M  V30 97 H 7.8976 -0.554341 -1.38735 0
M  V30 98 H 9.7796 1.14375 -4.05581 0
M  V30 99 H 8.4546 1.44247 -2.89784 0
M  V30 100 H 7.3616 -0.743714 -3.66633 0
M  V30 101 H 8.6946 -0.959195 -4.82763 0
M  V30 102 N 10.3467 1.47872 -0.545128 0
M  V30 103 C 11.5717 2.07391 -0.0190611 0
M  V30 104 C 11.9967 1.39688 1.25971 0
M  V30 105 O 11.3547 0.467816 1.7516 0
M  V30 106 C 11.4027 3.60188 0.172335 0
M  V30 107 O 10.5067 3.9339 1.23766 0
M  V30 108 H 9.8477 0.662411 -0.0459059 0
M  V30 109 H 12.3777 1.90066 -0.757365 0
M  V30 110 H 12.3877 4.06129 0.390305 0
M  V30 111 H 11.0627 4.08865 -0.761725 0
M  V30 112 H 9.6397 3.5921 1.00114 0
M  V30 113 N 11.8248 0.280983 1.55075 0
M  V30 114 C 13.1018 -0.386207 1.91749 0
M  V30 115 C 13.4818 -1.73264 1.20594 0
M  V30 116 O 12.8298 -2.26034 0.334784 0
M  V30 117 C 13.0398 -0.520687 3.45094 0
M  V30 118 C 14.3878 -0.800865 4.16979 0
M  V30 119 O 15.4118 -0.605271 3.5102 0
M  V30 120 O 14.2708 -1.1753 5.33712 0
M  V30 121 H 11.3648 -0.212408 0.799257 0
M  V30 122 H 13.9108 0.327568 1.66509 0
M  V30 123 H 12.6828 0.426633 3.88967 0
M  V30 124 H 12.3058 -1.2837 3.76307 0
M  V30 125 N 13.3029 -1.57598 0.00835791 0
M  V30 126 C 14.5499 -1.90928 -0.674732 0
M  V30 127 C 14.8779 -0.88277 -1.73313 0
M  V30 128 O 14.1329 0.111294 -1.95383 0
M  V30 129 C 14.4319 -3.3101 -1.34787 0
M  V30 130 C 14.0979 -4.48922 -0.421861 0
M  V30 131 C 12.7599 -4.8091 -0.166927 0
M  V30 132 C 15.1119 -5.20755 0.215211 0
M  V30 133 C 12.4399 -5.821 0.733232 0
M  V30 134 C 14.7919 -6.22905 1.1033 0
M  V30 135 C 13.4559 -6.53346 1.36733 0
M  V30 136 H 12.7259 -0.698656 -0.246902 0
M  V30 137 H 15.3729 -1.91387 0.0656779 0
M  V30 138 H 13.6779 -3.26714 -2.16253 0
M  V30 139 H 15.3749 -3.54061 -1.8826 0
M  V30 140 H 11.9649 -4.23934 -0.630729 0
M  V30 141 H 16.1489 -4.9629 0.0312829 0
M  V30 142 H 11.4049 -6.04042 0.945712 0
M  V30 143 H 15.5789 -6.77694 1.60325 0
M  V30 144 H 13.2059 -7.31573 2.06652 0
M  V30 145 N 14.781 0.264519 -1.55364 0
M  V30 146 C 16.027 0.99646 -1.76631 0
M  V30 147 C 16.36 1.85632 -0.570478 0
M  V30 148 O 15.635 1.89647 0.43175 0
M  V30 149 C 15.918 1.87187 -3.07625 0
M  V30 150 C 15.771 1.04138 -4.37579 0
M  V30 151 C 17.09 2.85749 -3.34717 0
M  V30 152 H 14.209 0.360841 -0.642622 0
M  V30 153 H 16.851 0.268218 -1.88097 0
M  V30 154 H 15.001 2.49279 -2.9798 0
M  V30 155 H 16.673 0.440517 -4.59192 0
M  V30 156 H 14.916 0.345115 -4.32425 0
M  V30 157 H 15.587 1.68729 -5.2558 0
M  V30 158 H 18.063 2.33793 -3.4421 0
M  V30 159 H 16.939 3.44136 -4.27623 0
M  V30 160 H 17.2 3.61311 -2.54768 0
M  V30 161 N 16.2591 1.48442 0.529413 0
M  V30 162 C 17.1921 1.57577 1.65059 0
M  V30 163 C 18.1701 0.426198 1.56915 0
M  V30 164 O 19.3541 0.637877 1.77379 0
M  V30 165 C 16.4811 1.5043 3.03461 0
M  V30 166 C 15.5271 2.70235 3.29962 0
M  V30 167 S 16.3601 4.32198 3.16172 0
M  V30 168 C 17.5161 4.2765 4.57019 0
M  V30 169 H 17.7491 2.52427 1.5706 0
M  V30 170 H 15.2821 1.36982 0.712417 0
M  V30 171 H 17.2401 1.46992 3.8328 0
M  V30 172 H 15.9011 0.569167 3.089 0
M  V30 173 H 15.0941 2.61374 4.30929 0
M  V30 174 H 14.6961 2.70938 2.57815 0
M  V30 175 H 16.9881 3.97618 5.48549 0
M  V30 176 H 17.9311 5.28797 4.70934 0
M  V30 177 H 18.3391 3.5811 4.36368 0
M  V30 178 N 17.7372 -0.778329 1.37039 0
M  V30 179 C 18.9832 -1.53892 1.32079 0
M  V30 180 C 19.3162 -1.9396 -0.0965386 0
M  V30 181 O 18.5912 -1.63568 -1.05242 0
M  V30 182 C 18.8742 -2.80847 2.25382 0
M  V30 183 C 18.7272 -2.47076 3.75864 0
M  V30 184 C 20.0462 -3.82741 2.1725 0
M  V30 185 H 17.1652 -0.558303 0.48111 0
M  V30 186 H 19.8072 -0.893397 1.67685 0
M  V30 187 H 17.9572 -3.35931 1.95148 0
M  V30 188 H 19.6292 -1.97957 4.16666 0
M  V30 189 H 17.8722 -1.79863 3.94755 0
M  V30 190 H 18.5432 -3.37798 4.36574 0
M  V30 191 H 21.0192 -3.37133 2.43887 0
M  V30 192 H 19.8952 -4.69303 2.84686 0
M  V30 193 H 20.1562 -4.2652 1.16331 0
M  V30 194 N 19.2153 -1.21501 -1.00376 0
M  V30 195 C 20.1253 -0.991447 -2.12621 0
M  V30 196 C 21.1413 0.0568446 -1.73907 0
M  V30 197 O 22.3173 -0.13348 -2.00957 0
M  V30 198 C 19.3823 -0.560312 -3.42142 0
M  V30 199 C 18.4433 -1.68096 -3.95022 0
M  V30 200 C 17.6763 -1.2703 -5.18362 0
M  V30 201 O 17.8993 -0.144438 -5.70217 0
M  V30 202 O 16.8333 -2.08269 -5.64719 0
M  V30 203 H 20.6593 -1.93158 -2.34358 0
M  V30 204 H 18.2443 -0.999999 -1.10997 0
M  V30 205 H 20.1263 -0.329724 -4.20108 0
M  V30 206 H 18.8013 0.351089 -3.2179 0
M  V30 207 H 17.7083 -1.96597 -3.18278 0
M  V30 208 H 19.0413 -2.56983 -4.19786 0
M  V30 209 N 20.6934 1.19889 -1.02296 0
M  V30 210 C 21.6034 2.26571 -0.608508 0
M  V30 211 C 22.6194 1.70299 0.356964 0
M  V30 212 O 23.7954 2.00235 0.216326 0
M  V30 213 C 20.8604 3.46677 0.0402814 0
M  V30 214 C 19.9214 4.18153 -0.97194 0
M  V30 215 C 19.1544 5.32525 -0.354016 0
M  V30 216 O 19.3774 5.64112 0.844604 0
M  V30 217 O 18.3114 5.92242 -1.07391 0
M  V30 218 H 22.1374 2.64251 -1.49684 0
M  V30 219 H 19.7224 1.26629 -0.792809 0
M  V30 220 H 21.6044 4.19475 0.402324 0
M  V30 221 H 20.2794 3.10858 0.902707 0
M  V30 222 H 19.1864 3.47499 -1.38546 0
M  V30 223 H 20.5194 4.57927 -1.80454 0
M  V30 224 N 22.1715 0.800033 1.35784 0
M  V30 225 C 23.4195 0.376597 1.9856 0
M  V30 226 C 23.7405 -1.05812 1.63795 0
M  V30 227 O 23.0105 -1.73103 0.917171 0
M  V30 228 H 21.5905 0.136261 0.734467 0
M  V30 229 H 24.2525 1.02442 1.65806 0
M  V30 230 H 23.3485 0.477002 3.08433 0
M  V30 231 N 23.6496 -1.47581 0.552962 0
M  V30 232 C 24.8966 -2.02482 0.0273243 0
M  V30 233 C 25.2246 -1.42776 -1.32081 0
M  V30 234 O 24.4796 -0.571393 -1.87173 0
M  V30 235 C 24.7786 -3.57199 -0.119728 0
M  V30 236 C 24.4446 -4.35804 1.15697 0
M  V30 237 C 23.1066 -4.57 1.50681 0
M  V30 238 C 25.4586 -4.81167 2.00319 0
M  V30 239 C 22.7866 -5.20807 2.70142 0
M  V30 240 C 25.1386 -5.46293 3.18978 0
M  V30 241 C 23.8026 -5.65722 3.54281 0
M  V30 242 H 23.0726 -0.740933 0.00999866 0
M  V30 243 H 25.7196 -1.77302 0.72362 0
M  V30 244 H 24.0246 -3.81348 -0.89896 0
M  V30 245 H 25.7216 -3.97324 -0.541718 0
M  V30 246 H 22.3116 -4.19582 0.874561 0
M  V30 247 H 26.4956 -4.64574 1.74599 0
M  V30 248 H 21.7516 -5.34045 2.97668 0
M  V30 249 H 25.9256 -5.80407 3.84838 0
M  V30 250 H 23.5526 -6.14936 4.46942 0
M  V30 251 N 25.1277 -0.289203 -1.54924 0
M  V30 252 C 26.3527 0.329299 -2.04769 0
M  V30 253 C 26.7777 1.4763 -1.16564 0
M  V30 254 O 26.1357 1.80527 -0.167186 0
M  V30 255 C 26.1837 0.774438 -3.52186 0
M  V30 256 O 25.2877 1.88038 -3.67036 0
M  V30 257 H 24.6287 0.0659259 -0.660719 0
M  V30 258 H 27.1587 -0.42761 -2.00082 0
M  V30 259 H 27.1687 1.06642 -3.93816 0
M  V30 260 H 25.8437 -0.0646707 -4.1585 0
M  V30 261 H 24.4207 1.58985 -3.3731 0
M  V30 262 N 26.6058 1.57591 -0.0167156 0
M  V30 263 C 27.8338 1.95575 0.675128 0
M  V30 264 C 28.2488 0.892542 1.6637 0
M  V30 265 O 27.6058 -0.126912 1.82058 0
M  V30 266 C 27.6568 3.33608 1.39239 0
M  V30 267 O 27.3778 4.3585 0.443444 0
M  V30 268 C 28.8788 3.86151 2.17721 0
M  V30 269 H 26.0988 0.644423 0.186978 0
M  V30 270 H 28.6428 2.0437 -0.0728 0
M  V30 271 H 26.7978 3.2607 2.09182 0
M  V30 272 H 27.2118 5.158 0.951358 0
M  V30 273 H 28.6858 4.85114 2.63379 0
M  V30 274 H 29.1628 3.19738 3.01105 0
M  V30 275 H 29.7688 3.96918 1.52761 0
M  V30 276 N 28.0839 -0.256276 1.55502 0
M  V30 277 C 29.4999 -0.604325 1.47716 0
M  V30 278 C 29.6999 -1.88763 0.705039 0
M  V30 279 O 28.7559 -2.51445 0.230613 0
M  V30 280 C 30.0689 -0.715756 2.92057 0
M  V30 281 C 31.6169 -0.808706 3.02372 0
M  V30 282 C 32.0919 -0.951777 4.48001 0
M  V30 283 N 33.5829 -1.01688 4.519 0
M  V30 284 C 34.3179 -1.14668 5.61817 0
M  V30 285 N 33.8139 -1.24261 6.81565 0
M  V30 286 N 35.6069 -1.1791 5.49594 0
M  V30 287 H 27.7579 0.586291 2.04148 0
M  V30 288 H 30.0209 0.201015 0.926443 0
M  V30 289 H 29.7269 0.157027 3.51349 0
M  V30 290 H 29.6009 -1.59071 3.42018 0
M  V30 291 H 31.9879 -1.67195 2.43166 0
M  V30 292 H 32.0689 0.0912063 2.55637 0
M  V30 293 H 31.7129 -0.0931291 5.07815 0
M  V30 294 H 31.6429 -1.86659 4.92408 0
M  V30 295 H 34.1339 -0.954468 3.65648 0
M  V30 296 H 34.4469 -1.34046 7.61086 0
M  V30 297 H 32.7919 -1.21236 6.84344 0
M  V30 298 H 35.9829 -1.10057 4.54978 0
M  V30 299 H 36.1559 -1.27681 6.35296 0
M  V30 300 N 29.562 -1.4872 -0.521534 0
M  V30 301 C 30.839 -1.4766 -1.2828 0
M  V30 302 C 31.219 -0.19292 -2.10217 0
M  V30 303 O 30.567 0.825193 -2.13079 0
M  V30 304 C 30.777 -2.74358 -2.15705 0
M  V30 305 C 32.125 -3.23028 -2.75569 0
M  V30 306 O 33.149 -2.75333 -2.25987 0
M  V30 307 O 32.008 -4.0604 -3.65778 0
M  V30 308 H 29.102 -0.590085 -0.579421 0
M  V30 309 H 31.648 -1.60963 -0.537492 0
M  V30 310 H 30.42 -3.59292 -1.54999 0
M  V30 311 H 30.043 -2.63816 -2.97467 0
M  V30 312 N 31.0401 0.771051 -1.3745 0
M  V30 313 C 31.9701 1.89827 -1.3597 0
M  V30 314 C 32.9511 1.68562 -0.228216 0
M  V30 315 O 34.1361 1.8941 -0.428675 0
M  V30 316 C 31.2661 3.2712 -1.16662 0
M  V30 317 C 30.2201 3.6295 -2.2683 0
M  V30 318 C 29.5461 4.98791 -1.92644 0
M  V30 319 C 30.8461 3.69627 -3.69017 0
M  V30 320 H 32.5401 1.91323 -2.30295 0
M  V30 321 H 30.0861 0.919082 -1.10855 0
M  V30 322 H 32.0391 4.05615 -1.14256 0
M  V30 323 H 30.7631 3.26059 -0.187926 0
M  V30 324 H 29.4221 2.86763 -2.28392 0
M  V30 325 H 29.0701 4.94271 -0.933021 0
M  V30 326 H 28.7701 5.23733 -2.66416 0
M  V30 327 H 30.2941 5.79685 -1.91826 0
M  V30 328 H 31.7081 4.38273 -3.69581 0
M  V30 329 H 30.1051 4.06067 -4.41848 0
M  V30 330 H 31.1751 2.70273 -4.02592 0
M  V30 331 N 32.5182 1.22032 0.997298 0
M  V30 332 C 33.4482 1.01065 2.10495 0
M  V30 333 C 34.4292 -0.0669542 1.69968 0
M  V30 334 O 35.6142 0.0943987 1.9397 0
M  V30 335 C 32.7442 0.582874 3.42374 0
M  V30 336 C 31.6982 1.60592 3.96729 0
M  V30 337 C 31.0242 1.03412 5.24605 0
M  V30 338 C 32.3242 2.99478 4.27914 0
M  V30 339 H 34.0182 1.93708 2.28292 0
M  V30 340 H 31.5642 0.932761 1.09707 0
M  V30 341 H 33.5172 0.423332 4.19268 0
M  V30 342 H 32.2412 -0.379213 3.24391 0
M  V30 343 H 30.9002 1.75316 3.21963 0
M  V30 344 H 30.5482 0.063518 5.0296 0
M  V30 345 H 30.2482 1.71754 5.61938 0
M  V30 346 H 31.7722 0.886066 6.04137 0
M  V30 347 H 33.1862 2.88153 4.95622 0
M  V30 348 H 31.5832 3.64903 4.76409 0
M  V30 349 H 32.6532 3.49742 3.3587 0
M  V30 350 N 33.9963 -1.19345 1.0293 0
M  V30 351 C 34.9433 -2.2258 0.610464 0
M  V30 352 C 35.9133 -1.6179 -0.375946 0
M  V30 353 O 37.0983 -1.88844 -0.272511 0
M  V30 354 C 34.2383 -3.45085 -0.0321473 0
M  V30 355 C 33.3513 -4.20258 1.00035 0
M  V30 356 C 32.4863 -5.3019 0.32746 0
M  V30 357 C 31.5253 -5.97121 1.34584 0
M  V30 358 N 30.6623 -6.98615 0.698726 0
M  V30 359 H 35.5023 -2.57764 1.49538 0
M  V30 360 H 33.0393 -1.26644 0.748311 0
M  V30 361 H 34.9973 -4.15061 -0.421966 0
M  V30 362 H 33.6273 -3.10555 -0.88064 0
M  V30 363 H 32.6793 -3.49223 1.50823 0
M  V30 364 H 33.9913 -4.66175 1.77433 0
M  V30 365 H 33.1453 -6.06587 -0.11718 0
M  V30 366 H 31.8843 -4.85345 -0.478713 0
M  V30 367 H 30.8893 -5.19474 1.80074 0
M  V30 368 H 32.1143 -6.4405 2.15352 0
M  V30 369 H 30.0603 -6.55942 -0.0873471 0
M  V30 370 H 29.9773 -7.42724 1.41058 0
M  V30 371 H 31.2453 -7.79004 0.278102 0
M  V30 372 N 35.4744 -0.807222 -1.35358 0
M  V30 373 C 36.3844 -0.219594 -2.3357 0
M  V30 374 C 37.4004 0.637734 -1.61892 0
M  V30 375 O 38.5764 0.549336 -1.93763 0
M  V30 376 C 35.6414 0.62158 -3.41083 0
M  V30 377 C 34.7024 -0.256315 -4.28534 0
M  V30 378 C 33.9354 0.544807 -5.30912 0
M  V30 379 O 34.1584 1.77944 -5.41934 0
M  V30 380 O 33.0924 -0.0646478 -6.01865 0
M  V30 381 H 36.9184 -1.03208 -2.85625 0
M  V30 382 H 34.5034 -0.569025 -1.38139 0
M  V30 383 H 36.3854 1.10067 -4.06772 0
M  V30 384 H 35.0604 1.41165 -2.91297 0
M  V30 385 H 33.9674 -0.782559 -3.65823 0
M  V30 386 H 35.3004 -1.01034 -4.81719 0
M  V30 387 N 36.9525 1.47285 -0.560781 0
M  V30 388 C 37.8825 2.32857 0.173105 0
M  V30 389 C 38.8635 1.44009 0.905281 0
M  V30 390 O 40.0485 1.7286 0.885046 0
M  V30 391 C 37.1785 3.25861 1.20133 0
M  V30 392 C 36.1325 4.23978 0.585388 0
M  V30 393 C 35.4585 5.06332 1.7185 0
M  V30 394 C 36.7585 5.20242 -0.463178 0
M  V30 395 H 38.4525 2.94466 -0.541307 0
M  V30 396 H 35.9985 1.41601 -0.261764 0
M  V30 397 H 37.9515 3.84569 1.72293 0
M  V30 398 H 36.6755 2.62315 1.94573 0
M  V30 399 H 35.3345 3.66501 0.085054 0
M  V30 400 H 34.9825 4.39186 2.45203 0
M  V30 401 H 34.6825 5.72762 1.31213 0
M  V30 402 H 36.2065 5.67899 2.24329 0
M  V30 403 H 37.6205 5.73293 -0.027502 0
M  V30 404 H 36.0175 5.94896 -0.788627 0
M  V30 405 H 37.0875 4.65504 -1.35773 0
M  V30 406 N 38.4306 0.297415 1.54768 0
M  V30 407 C 39.6586 -0.315623 2.04478 0
M  V30 408 C 40.0736 -1.47792 1.17486 0
M  V30 409 O 39.4306 -1.81404 0.19971 0
M  V30 410 C 39.4816 -0.7753 3.53088 0
M  V30 411 O 39.2026 0.340732 4.36773 0
M  V30 412 C 40.7036 -1.45386 4.18781 0
M  V30 413 H 37.9236 -0.0690887 0.667434 0
M  V30 414 H 40.4676 0.436003 1.99798 0
M  V30 415 H 38.6226 -1.47696 3.58141 0
M  V30 416 H 39.0366 -0.0165035 5.24497 0
M  V30 417 H 40.5106 -1.72669 5.24299 0
M  V30 418 H 40.9876 -2.39275 3.68299 0
M  V30 419 H 41.5936 -0.795475 4.17795 0
M  V30 420 N 39.9087 -1.5758 0.0250728 0
M  V30 421 C 40.8387 -2.13007 -0.956575 0
M  V30 422 C 41.8197 -1.0452 -1.342 0
M  V30 423 O 43.0047 -1.32332 -1.42133 0
M  V30 424 C 40.1347 -2.65386 -2.24026 0
M  V30 425 C 39.0887 -3.78623 -1.99571 0
M  V30 426 C 38.4147 -4.17414 -3.3417 0
M  V30 427 C 39.7147 -5.04867 -1.33814 0
M  V30 428 H 41.4087 -2.9528 -0.494991 0
M  V30 429 H 38.9547 -1.42042 -0.236651 0
M  V30 430 H 40.9077 -3.02794 -2.93076 0
M  V30 431 H 39.6317 -1.80268 -2.72343 0
M  V30 432 H 38.2907 -3.41646 -1.32941 0
M  V30 433 H 37.9387 -3.29284 -3.80238 0
M  V30 434 H 37.6387 -4.93719 -3.18615 0
M  V30 435 H 39.1627 -4.57402 -4.04495 0
M  V30 436 H 40.5767 -5.39888 -1.92857 0
M  V30 437 H 38.9737 -5.86144 -1.28669 0
M  V30 438 H 40.0437 -4.83904 -0.310561 0
M  V30 439 N 41.3868 0.248026 -1.55636 0
M  V30 440 C 42.6348 0.974295 -1.77065 0
M  V30 441 C 42.9558 1.85897 -0.588849 0
M  V30 442 O 42.2258 1.91868 0.395407 0
M  V30 443 H 40.8058 0.362733 -0.653019 0
M  V30 444 H 43.4678 0.266244 -1.93073 0
M  V30 445 H 42.5638 1.59667 -2.68166 0
M  V30 446 N 42.8649 1.48995 0.513639 0
M  V30 447 C 43.8279 1.64229 1.59879 0
M  V30 448 C 44.8279 0.514696 1.5234 0
M  V30 449 O 46.0179 0.78087 1.55718 0
M  V30 450 C 43.1499 1.62783 2.99524 0
M  V30 451 H 44.3429 2.61004 1.47705 0
M  V30 452 H 41.8959 1.37837 0.736936 0
M  V30 453 H 42.6309 0.675461 3.17188 0
M  V30 454 H 42.4159 2.4466 3.06404 0
M  V30 455 H 43.9059 1.76669 3.78388 0
M  V30 456 N 44.343 -0.763751 1.37857 0
M  V30 457 C 45.568 -1.55805 1.36893 0
M  V30 458 C 45.993 -1.88054 -0.0416135 0
M  V30 459 O 45.351 -1.49825 -1.02089 0
M  V30 460 C 45.399 -2.84012 2.22192 0
M  V30 461 O 44.503 -3.78732 1.63204 0
M  V30 462 H 43.844 -0.471638 0.46739 0
M  V30 463 H 46.374 -0.944657 1.81487 0
M  V30 464 H 46.384 -3.33037 2.35691 0
M  V30 465 H 45.059 -2.59869 3.24716 0
M  V30 466 H 43.636 -3.37402 1.58791 0
M  V30 467 N 45.8211 -1.22559 -0.990812 0
M  V30 468 C 46.7531 -0.955325 -2.08342 0
M  V30 469 C 47.7661 0.0668408 -1.62663 0
M  V30 470 O 48.9551 -0.167421 -1.77713 0
M  V30 471 C 46.0551 -0.415566 -3.36342 0
M  V30 472 C 45.2281 -1.49544 -4.11042 0
M  V30 473 C 44.2871 -0.962399 -5.17324 0
M  V30 474 O 43.3131 -1.64907 -5.44788 0
M  V30 475 N 44.5151 0.215134 -5.80101 0
M  V30 476 H 47.2801 -1.89596 -2.32106 0
M  V30 477 H 44.8411 -1.13276 -1.15673 0
M  V30 478 H 46.8331 -0.0442386 -4.04676 0
M  V30 479 H 45.4031 0.430232 -3.09625 0
M  V30 480 H 44.6231 -2.04 -3.37309 0
M  V30 481 H 45.9111 -2.22195 -4.57719 0
M  V30 482 H 45.3091 0.789779 -5.6016 0
M  V30 483 H 43.8661 0.527826 -6.49659 0
M  V30 484 N 47.2992 1.18797 -1.03562 0
M  V30 485 C 48.2622 2.20464 -0.626769 0
M  V30 486 C 49.2622 1.57721 0.313173 0
M  V30 487 O 50.4522 1.73917 0.0992615 0
M  V30 488 C 47.5842 3.40802 0.0818498 0
M  V30 489 H 48.7772 2.58149 -1.5264 0
M  V30 490 H 46.3302 1.32593 -0.827578 0
M  V30 491 H 47.0652 3.08642 0.995518 0
M  V30 492 H 46.8502 3.8758 -0.593652 0
M  V30 493 H 48.3402 4.16092 0.354584 0
M  V30 494 N 48.7773 0.814389 1.34928 0
M  V30 495 C 50.0053 0.411136 2.02774 0
M  V30 496 C 50.4203 -0.980316 1.61354 0
M  V30 497 O 49.7773 -1.63299 0.814847 0
M  V30 498 C 49.8283 0.493865 3.58111 0
M  V30 499 O 49.5493 1.83047 3.98027 0
M  V30 500 C 51.0503 0.0844174 4.4322 0
M  V30 501 H 48.2703 0.166037 0.650133 0
M  V30 502 H 50.8143 1.10018 1.72384 0
M  V30 503 H 48.9693 -0.147006 3.87121 0
M  V30 504 H 49.3833 1.79872 4.92693 0
M  V30 505 H 50.8573 0.193404 5.51661 0
M  V30 506 H 51.3343 -0.97113 4.28329 0
M  V30 507 H 51.9403 0.69875 4.19521 0
M  V30 508 N 50.2554 -1.46986 0.568584 0
M  V30 509 C 51.4834 -2.0683 0.0539956 0
M  V30 510 C 51.8984 -1.41953 -1.24478 0
M  V30 511 O 51.2554 -0.519933 -1.74937 0
M  V30 512 C 51.3064 -3.61254 -0.133362 0
M  V30 513 O 51.0274 -4.237 1.11399 0
M  V30 514 C 52.5284 -4.37992 -0.683927 0
M  V30 515 H 49.7484 -0.669058 0.0510141 0
M  V30 516 H 52.2924 -1.88824 0.785234 0
M  V30 517 H 50.4474 -3.78735 -0.81477 0
M  V30 518 H 50.8614 -5.16388 0.91888 0
M  V30 519 H 52.3354 -5.46684 -0.764263 0
M  V30 520 H 52.8124 -4.05058 -1.69778 0
M  V30 521 H 53.4184 -4.25283 -0.0378494 0
M  V30 522 N 51.7335 -0.305618 -1.54608 0
M  V30 523 C 53.0105 0.355652 -1.92339 0
M  V30 524 C 53.3905 1.71324 -1.23335 0
M  V30 525 O 52.7385 2.25473 -0.370702 0
M  V30 526 C 52.9485 0.46572 -3.45879 0
M  V30 527 C 54.2965 0.734426 -4.182 0
M  V30 528 O 55.3205 0.54935 -3.51938 0
M  V30 529 O 54.1795 1.09024 -5.35515 0
M  V30 530 H 51.2735 0.199666 -0.802535 0
M  V30 531 H 53.8195 -0.354017 -1.65966 0
M  V30 532 H 52.5915 -0.488461 -3.88239 0
M  V30 533 H 52.2145 1.22367 -3.78301 0
M  V30 534 N 53.2116 1.57565 -0.0334293 0
M  V30 535 C 54.1216 2.13943 0.962572 0
M  V30 536 C 55.1376 1.09276 1.35406 0
M  V30 537 O 56.3136 1.41355 1.4346 0
M  V30 538 C 53.3786 2.65887 2.22497 0
M  V30 539 C 52.4396 3.85286 1.8935 0
M  V30 540 C 51.6726 4.34743 3.09571 0
M  V30 541 O 51.8956 3.83352 4.22371 0
M  V30 542 O 50.8296 5.26538 2.91618 0
M  V30 543 H 54.6556 2.99333 0.513169 0
M  V30 544 H 52.2406 1.4822 0.18743 0
M  V30 545 H 54.1226 2.99346 2.96598 0
M  V30 546 H 52.7976 1.83578 2.6661 0
M  V30 547 H 51.7046 3.56746 1.1262 0
M  V30 548 H 53.0376 4.68771 1.5005 0
M  V30 549 N 54.6897 -0.239769 1.55765 0
M  V30 550 C 55.9357 -0.968234 1.78194 0
M  V30 551 C 56.2687 -1.84701 0.599938 0
M  V30 552 O 55.5437 -1.9031 -0.401524 0
M  V30 553 C 55.8267 -1.8227 3.10564 0
M  V30 554 C 55.6797 -0.971633 4.3918 0
M  V30 555 C 56.9987 -2.80388 3.39221 0
M  V30 556 H 54.1177 -0.350572 0.648281 0
M  V30 557 H 56.7597 -0.238259 1.885 0
M  V30 558 H 54.9097 -2.44507 3.01908 0
M  V30 559 H 56.5817 -0.367408 4.59835 0
M  V30 560 H 54.8247 -0.276276 4.32919 0
M  V30 561 H 55.4957 -1.60346 5.28198 0
M  V30 562 H 57.9717 -2.28287 3.47885 0
M  V30 563 H 56.8477 -3.3729 4.33044 0
M  V30 564 H 57.1087 -3.57212 2.60484 0
M  V30 565 N 56.1678 -1.49265 -0.50573 0
M  V30 566 C 57.1308 -1.65075 -1.59006 0
M  V30 567 C 58.1308 -0.522768 -1.52065 0
M  V30 568 O 59.3208 -0.789117 -1.55302 0
M  V30 569 C 56.4528 -1.64369 -2.98656 0
M  V30 570 H 57.6458 -2.61784 -1.46319 0
M  V30 571 H 55.1988 -1.38226 -0.729616 0
M  V30 572 H 55.9338 -0.692272 -3.16825 0
M  V30 573 H 55.7188 -2.46282 -3.05103 0
M  V30 574 H 57.2088 -1.78674 -3.77446 0
M  V30 575 N 57.6459 0.756429 -1.3826 0
M  V30 576 C 58.6089 1.85176 -1.35065 0
M  V30 577 C 59.6089 1.58818 -0.251703 0
M  V30 578 O 60.7989 1.66615 -0.508433 0
M  V30 579 C 57.9309 3.22596 -1.10201 0
M  V30 580 H 59.1239 1.89417 -2.3251 0
M  V30 581 H 56.6769 0.95783 -1.23512 0
M  V30 582 H 57.4119 3.24025 -0.133504 0
M  V30 583 H 57.1969 3.43122 -1.89762 0
M  V30 584 H 58.6869 4.02673 -1.10654 0
M  V30 585 N 59.124 1.23083 0.984299 0
M  V30 586 C 60.371 1.06057 1.72505 0
M  V30 587 C 60.699 -0.403105 1.90277 0
M  V30 588 O 59.954 -1.3149 1.44944 0
M  V30 589 C 60.253 1.72673 3.1292 0
M  V30 590 C 59.919 3.22586 3.15038 0
M  V30 591 C 58.581 3.63489 3.15324 0
M  V30 592 C 60.933 4.185 3.10657 0
M  V30 593 C 58.261 4.98772 3.08939 0
M  V30 594 C 60.613 5.53769 3.05814 0
M  V30 595 C 59.277 5.94041 3.04419 0
M  V30 596 H 58.547 0.388091 0.631242 0
M  V30 597 H 61.194 1.52963 1.15215 0
M  V30 598 H 59.499 1.18116 3.73572 0
M  V30 599 H 61.196 1.56982 3.68996 0
M  V30 600 H 57.786 2.90022 3.15571 0
M  V30 601 H 61.97 3.87911 3.09579 0
M  V30 602 H 57.226 5.29193 3.0621 0
M  V30 603 H 61.4 6.27808 3.0138 0
M  V30 604 H 59.027 6.98833 2.99227 0
M  V30 605 N 60.6021 -1.18246 1.0419 0
M  V30 606 C 61.8491 -1.88257 0.746017 0
M  V30 607 C 62.1771 -1.80429 -0.726331 0
M  V30 608 O 61.4321 -1.2 -1.54591 0
M  V30 609 C 61.7311 -3.38082 1.15911 0
M  V30 610 C 61.3971 -3.66114 2.63195 0
M  V30 611 C 60.0591 -3.73474 3.03432 0
M  V30 612 C 62.4111 -3.78398 3.5842 0
M  V30 613 C 59.7391 -3.90599 4.37778 0
M  V30 614 C 62.0911 -3.97039 4.92487 0
M  V30 615 C 60.7551 -4.02635 5.32392 0
M  V30 616 H 60.0251 -0.688883 0.272987 0
M  V30 617 H 62.6721 -1.3995 1.30715 0
M  V30 618 H 60.9771 -3.88377 0.516806 0
M  V30 619 H 62.6741 -3.90596 0.907516 0
M  V30 620 H 59.2641 -3.61003 2.3103 0
M  V30 621 H 63.4481 -3.72042 3.28479 0
M  V30 622 H 58.7041 -3.93175 4.68213 0
M  V30 623 H 62.8781 -4.05486 5.66175 0
M  V30 624 H 60.5051 -4.15657 6.36501 0
M  V30 625 N 62.0802 -0.821533 -1.34494 0
M  V30 626 C 63.3262 -0.409552 -1.98622 0
M  V30 627 C 63.6592 1.0244 -1.64984 0
M  V30 628 O 62.9342 1.71325 -0.920758 0
M  V30 629 C 63.2172 -0.610458 -3.54888 0
M  V30 630 C 63.0702 -2.09043 -3.98273 0
M  V30 631 C 64.3892 -0.0455379 -4.40076 0
M  V30 632 H 61.5082 -0.15028 -0.721516 0
M  V30 633 H 64.1502 -1.03384 -1.59411 0
M  V30 634 H 62.3002 -0.079044 -3.8842 0
M  V30 635 H 63.9722 -2.68537 -3.75081 0
M  V30 636 H 62.2152 -2.58139 -3.48635 0
M  V30 637 H 62.8862 -2.18182 -5.07051 0
M  V30 638 H 65.3622 -0.499557 -4.1309 0
M  V30 639 H 64.2382 -0.215922 -5.48475 0
M  V30 640 H 64.4992 1.04939 -4.29465 0
M  V30 641 N 63.5583 1.46682 -0.576371 0
M  V30 642 C 64.5213 2.28707 0.150239 0
M  V30 643 C 65.5213 1.38035 0.824794 0
M  V30 644 O 66.7113 1.60476 0.677719 0
M  V30 645 C 63.8433 3.18248 1.22192 0
M  V30 646 H 65.0363 2.94423 -0.570521 0
M  V30 647 H 62.5893 1.52688 -0.334078 0
M  V30 648 H 63.3243 2.57265 1.97447 0
M  V30 649 H 63.1093 3.85 0.742812 0
M  V30 650 H 64.5993 3.80001 1.73172 0
M  V30 651 N 65.0364 0.313813 1.54444 0
M  V30 652 C 66.3134 -0.345447 1.92525 0
M  V30 653 C 66.6934 -1.70667 1.24242 0
M  V30 654 O 66.0414 -2.25273 0.382654 0
M  V30 655 C 66.2514 -0.44737 3.46121 0
M  V30 656 C 67.5994 -0.712238 4.18584 0
M  V30 657 O 68.6234 -0.530678 3.52225 0
M  V30 658 O 67.4824 -1.06183 5.36085 0
M  V30 659 H 64.5764 -0.195407 0.803583 0
M  V30 660 H 67.1224 0.362813 1.65776 0
M  V30 661 H 65.8944 0.509043 3.87975 0
M  V30 662 H 65.5174 -1.20359 3.78945 0
M  V30 663 N 66.5145 -1.57545 0.0417849 0
M  V30 664 C 67.4445 -2.14009 -0.933929 0
M  V30 665 C 68.4255 -1.05938 -1.33083 0
M  V30 666 O 69.6105 -1.33833 -1.40721 0
M  V30 667 C 66.7405 -2.67747 -2.21199 0
M  V30 668 C 65.6945 -3.80718 -1.95544 0
M  V30 669 C 65.0205 -4.20935 -3.29724 0
M  V30 670 C 66.3205 -5.06258 -1.28452 0
M  V30 671 H 68.0145 -2.95788 -0.463645 0
M  V30 672 H 65.5605 -1.42285 -0.221573 0
M  V30 673 H 67.5135 -3.05886 -2.89848 0
M  V30 674 H 66.2375 -1.83147 -2.70416 0
M  V30 675 H 64.8965 -3.43037 -1.2931 0
M  V30 676 H 64.5445 -3.33298 -3.76724 0
M  V30 677 H 64.2445 -4.9707 -3.13361 0
M  V30 678 H 65.7685 -4.61666 -3.9962 0
M  V30 679 H 67.1825 -5.41903 -1.8712 0
M  V30 680 H 65.5795 -5.87475 -1.22445 0
M  V30 681 H 66.6495 -4.84207 -0.259219 0
M  V30 682 N 67.9926 0.231505 -1.5589 0
M  V30 683 C 69.2406 0.955461 -1.78088 0
M  V30 684 C 69.5616 1.85262 -0.608533 0
M  V30 685 O 68.8316 1.92277 0.375035 0
M  V30 686 H 67.4116 0.355787 -0.656829 0
M  V30 687 H 70.0736 0.245751 -1.93344 0
M  V30 688 H 69.1696 1.56814 -2.69844 0
M  V30 689 N 69.4707 1.49531 0.497807 0
M  V30 690 C 70.4337 1.65916 1.58128 0
M  V30 691 C 71.4337 0.530825 1.51786 0
M  V30 692 O 72.6237 0.797342 1.54881 0
M  V30 693 C 69.7557 1.65951 2.9778 0
M  V30 694 H 70.9487 2.62556 1.44929 0
M  V30 695 H 68.5017 1.38611 0.722275 0
M  V30 696 H 69.2367 0.709065 3.16453 0
M  V30 697 H 69.0217 2.47897 3.03792 0
M  V30 698 H 70.5117 1.80673 3.76493 0
M  V30 699 N 70.9488 -0.749086 1.3866 0
M  V30 700 C 72.1978 -1.50371 1.3443 0
M  V30 701 C 72.5108 -1.95503 -0.0616397 0
M  V30 702 O 73.7168 -2.70554 -0.226489 0
M  V30 703 C 72.1728 -2.71644 2.36088 0
M  V30 704 C 71.7808 -2.3352 3.82325 0
M  V30 705 C 73.5248 -3.49518 2.40909 0
M  V30 706 C 71.4318 -3.51431 4.75658 0
M  V30 707 H 70.3618 -0.564628 0.499712 0
M  V30 708 H 73.0128 -0.818449 1.64237 0
M  V30 709 H 71.3948 -3.42175 1.9933 0
M  V30 710 H 72.5688 -1.70627 4.28046 0
M  V30 711 H 70.8838 -1.6877 3.80665 0
M  V30 712 H 73.4808 -4.37197 3.07836 0
M  V30 713 H 73.8238 -3.90992 1.42937 0
M  V30 714 H 74.3568 -2.86005 2.76489 0
M  V30 715 H 71.0958 -3.15019 5.74842 0
M  V30 716 H 70.6158 -4.13352 4.34627 0
M  V30 717 H 72.2948 -4.17953 4.93887 0
M  V30 718 N 72.4269 -1.23603 -0.977757 0
M  V30 719 C 73.6729 -1.07129 -1.72195 0
M  V30 720 C 74.0059 0.390501 -1.90233 0
M  V30 721 O 73.2809 1.28902 -1.45653 0
M  V30 722 C 73.5639 -1.80031 -3.11867 0
M  V30 723 C 73.4169 -3.33899 -3.01383 0
M  V30 724 C 74.7359 -1.56492 -4.11337 0
M  V30 725 H 71.8549 -0.390571 -0.624999 0
M  V30 726 H 74.4969 -1.52142 -1.13811 0
M  V30 727 H 72.6469 -1.41768 -3.6171 0
M  V30 728 H 74.3189 -3.81699 -2.59043 0
M  V30 729 H 72.5619 -3.62796 -2.37827 0
M  V30 730 H 73.2329 -3.801 -4.00285 0
M  V30 731 H 75.7089 -1.89757 -3.70313 0
M  V30 732 H 74.5849 -2.09973 -5.07151 0
M  V30 733 H 74.8459 -0.500874 -4.39254 0
M  V30 734 N 73.905 1.17692 -1.04816 0
M  V30 735 C 75.321 1.39863 -0.768794 0
M  V30 736 C 75.521 1.91118 0.638451 0
M  V30 737 O 74.577 2.10036 1.40146 0
M  V30 738 C 75.89 2.39274 -1.82122 0
M  V30 739 C 77.438 2.52987 -1.843 0
M  V30 740 C 77.913 3.55669 -2.88555 0
M  V30 741 N 79.404 3.63183 -2.87493 0
M  V30 742 C 80.139 4.42381 -3.64811 0
M  V30 743 N 79.635 5.25125 -4.51903 0
M  V30 744 N 81.428 4.37217 -3.53267 0
M  V30 745 H 73.579 0.82752 -1.95617 0
M  V30 746 H 75.842 0.426123 -0.846831 0
M  V30 747 H 75.548 2.08678 -2.83102 0
M  V30 748 H 75.422 3.38725 -1.65967 0
M  V30 749 H 77.809 2.82896 -0.839869 0
M  V30 750 H 77.89 1.53623 -2.04532 0
M  V30 751 H 77.534 3.26499 -3.89051 0
M  V30 752 H 77.464 4.54728 -2.65575 0
M  V30 753 H 79.955 3.04103 -2.24343 0
M  V30 754 H 80.268 5.82728 -5.07591 0
M  V30 755 H 78.613 5.24519 -4.55966 0
M  V30 756 H 81.804 3.71626 -2.84625 0
M  V30 757 H 81.977 4.98696 -4.13771 0
M  V30 758 N 75.3831 0.828654 1.34056 0
M  V30 759 C 76.3301 0.252567 2.29414 0
M  V30 760 C 77.3001 -0.62588 1.53857 0
M  V30 761 O 78.4851 -0.566312 1.82202 0
M  V30 762 C 75.6251 -0.574831 3.40279 0
M  V30 763 C 74.7381 0.326499 4.30764 0
M  V30 764 C 73.8731 -0.511016 5.28736 0
M  V30 765 C 72.9121 0.389342 6.1086 0
M  V30 766 N 72.0491 -0.409439 7.00905 0
M  V30 767 H 76.8891 1.07108 2.78086 0
M  V30 768 H 74.4261 0.539677 1.36843 0
M  V30 769 H 76.3841 -1.06992 4.03248 0
M  V30 770 H 75.0141 -1.35841 2.92826 0
M  V30 771 H 74.0661 0.939837 3.68607 0
M  V30 772 H 75.3781 1.01857 4.88289 0
M  V30 773 H 74.5321 -1.07035 5.97184 0
M  V30 774 H 73.2711 -1.23657 4.71763 0
M  V30 775 H 72.2761 0.960769 5.4134 0
M  V30 776 H 73.5011 1.1131 6.69916 0
M  V30 777 H 71.4471 -1.11856 6.46393 0
M  V30 778 H 71.3641 0.224126 7.55668 0
M  V30 779 H 72.6321 -0.951336 7.73673 0
M  V30 780 N 76.8612 -1.46375 0.584142 0
M  V30 781 C 77.8112 -2.27371 -0.169232 0
M  V30 782 C 78.7952 -1.35955 -0.860523 0
M  V30 783 O 79.9872 -1.60119 -0.754382 0
M  V30 784 C 77.1162 -3.22334 -1.18134 0
M  V30 785 C 76.2022 -4.21235 -0.492088 0
M  V30 786 N 76.5932 -5.03766 0.453129 0
M  V30 787 C 74.8912 -4.39773 -0.742652 0
M  V30 788 C 75.5922 -5.75366 0.85609 0
M  V30 789 N 74.5682 -5.43214 0.204926 0
M  V30 790 H 78.3702 -2.88572 0.557097 0
M  V30 791 H 75.8842 -1.57242 0.406042 0
M  V30 792 H 77.8812 -3.79071 -1.73525 0
M  V30 793 H 76.5412 -2.62693 -1.90847 0
M  V30 794 H 77.5522 -5.11227 0.828723 0
M  V30 795 H 74.2292 -3.91279 -1.45625 0
M  V30 796 H 75.6192 -6.5172 1.63434 0
M  V30 797 N 78.3393 -0.321999 -1.54275 0
M  V30 798 C 79.5863 0.281044 -2.0054 0
M  V30 799 C 79.9143 1.52265 -1.21019 0
M  V30 800 O 79.1693 1.93687 -0.279982 0
M  V30 801 C 79.4683 0.661769 -3.5122 0
M  V30 802 C 79.1343 -0.480482 -4.48333 0
M  V30 803 C 77.7963 -0.794005 -4.74604 0
M  V30 804 C 80.1483 -1.24783 -5.06042 0
M  V30 805 C 77.4763 -1.87763 -5.55844 0
M  V30 806 C 79.8283 -2.32153 -5.88462 0
M  V30 807 C 78.4923 -2.64089 -6.13036 0
M  V30 808 H 77.7623 0.102841 -0.733829 0
M  V30 809 H 80.4093 -0.445453 -1.86247 0
M  V30 810 H 78.7143 1.46867 -3.63232 0
M  V30 811 H 80.4113 1.13989 -3.84457 0
M  V30 812 H 77.0013 -0.226039 -4.28004 0
M  V30 813 H 81.1853 -1.01887 -4.85729 0
M  V30 814 H 76.4413 -2.12954 -5.73115 0
M  V30 815 H 80.6153 -2.92057 -6.32199 0
M  V30 816 H 78.2423 -3.48185 -6.75775 0
M  V30 817 N 79.8174 1.5752 -0.0501392 0
M  V30 818 C 81.0574 1.94521 0.627783 0
M  V30 819 C 81.4214 0.928265 1.68069 0
M  V30 820 O 82.6224 1.18517 2.41261 0
M  V30 821 C 80.8934 3.36319 1.20932 0
M  V30 822 S 82.4524 3.95272 1.90539 0
M  V30 823 H 79.2704 0.680456 0.206158 0
M  V30 824 H 81.8724 1.95139 -0.118829 0
M  V30 825 H 80.5764 4.08132 0.430865 0
M  V30 826 H 80.1074 3.39193 1.99277 0
M  V30 827 H 82.1224 3.80415 3.18589 0
M  V30 828 N 81.2955 -0.223234 1.56011 0
M  V30 829 C 82.5425 -0.947875 1.78946 0
M  V30 830 C 82.8705 -1.844 0.618608 0
M  V30 831 O 82.1255 -1.91629 -0.397093 0
M  V30 832 C 82.4245 -1.81948 3.0762 0
M  V30 833 C 82.0905 -1.07672 4.37856 0
M  V30 834 C 80.7525 -0.871544 4.73242 0
M  V30 835 C 83.1045 -0.552081 5.18268 0
M  V30 836 C 80.4325 -0.129791 5.86556 0
M  V30 837 C 82.7845 0.17632 6.32354 0
M  V30 838 C 81.4485 0.39277 6.66343 0
M  V30 839 H 80.7185 -0.346852 0.654809 0
M  V30 840 H 83.3655 -0.216171 1.90276 0
M  V30 841 H 81.6705 -2.61899 2.91404 0
M  V30 842 H 83.3675 -2.38227 3.22566 0
M  V30 843 H 79.9575 -1.24662 4.1007 0
M  V30 844 H 84.1415 -0.698076 4.91366 0
M  V30 845 H 79.3975 0.048153 6.11381 0
M  V30 846 H 83.5715 0.590367 6.93893 0
M  V30 847 H 81.1985 0.969466 7.53993 0
M  V30 848 N 82.7736 -1.49793 -0.48987 0
M  V30 849 C 83.7036 -1.70201 -1.59856 0
M  V30 850 C 84.6846 -0.55076 -1.60937 0
M  V30 851 O 85.8696 -0.787841 -1.77501 0
M  V30 852 C 82.9996 -1.77882 -2.98287 0
M  V30 853 C 81.9536 -2.92907 -3.12073 0
M  V30 854 C 81.2796 -2.85712 -4.51965 0
M  V30 855 C 82.5796 -4.3369 -2.91051 0
M  V30 856 H 84.2736 -2.63025 -1.43032 0
M  V30 857 H 81.8196 -1.26574 -0.686664 0
M  V30 858 H 83.7726 -1.90744 -3.75759 0
M  V30 859 H 82.4966 -0.816653 -3.16225 0
M  V30 860 H 81.1556 -2.79665 -2.37029 0
M  V30 861 H 80.8036 -1.8738 -4.66795 0
M  V30 862 H 80.5036 -3.62921 -4.62128 0
M  V30 863 H 82.0276 -3.00598 -5.31482 0
M  V30 864 H 83.4416 -4.47555 -3.58284 0
M  V30 865 H 81.8386 -5.12205 -3.12675 0
M  V30 866 H 82.9086 -4.47362 -1.87071 0
M  V30 867 N 84.2517 0.741722 -1.39055 0
M  V30 868 C 85.1987 1.85566 -1.37237 0
M  V30 869 C 86.1687 1.64457 -0.233072 0
M  V30 870 O 87.3537 1.85957 -0.427147 0
M  V30 871 C 84.4937 3.23004 -1.215 0
M  V30 872 C 83.6067 3.55864 -2.44918 0
M  V30 873 C 82.7417 4.82669 -2.21821 0
M  V30 874 C 81.7807 5.08351 -3.40948 0
M  V30 875 N 80.9177 6.26356 -3.17211 0
M  V30 876 H 85.7577 1.86455 -2.32462 0
M  V30 877 H 83.2947 0.911176 -1.15482 0
M  V30 878 H 85.2527 4.02331 -1.10389 0
M  V30 879 H 83.8827 3.21411 -0.29908 0
M  V30 880 H 82.9347 2.7129 -2.66657 0
M  V30 881 H 84.2467 3.70765 -3.33668 0
M  V30 882 H 83.4007 5.69962 -2.07914 0
M  V30 883 H 82.1397 4.69929 -1.30454 0
M  V30 884 H 81.1447 4.19522 -3.55361 0
M  V30 885 H 82.3697 5.22981 -4.33207 0
M  V30 886 H 80.3157 6.14917 -2.28502 0
M  V30 887 H 80.2327 6.41813 -3.99515 0
M  V30 888 H 81.5007 7.16506 -3.06984 0
M  V30 889 N 85.7298 1.2412 0.971189 0
M  V30 890 C 86.9698 1.09066 1.7287 0
M  V30 891 C 87.3338 -0.364794 1.88503 0
M  V30 892 O 88.5348 -0.636748 2.61149 0
M  V30 893 C 86.8058 1.80629 3.08396 0
M  V30 894 S 88.3648 1.81263 3.99611 0
M  V30 895 H 85.1828 0.390145 0.594397 0
M  V30 896 H 87.7848 1.57397 1.15959 0
M  V30 897 H 86.4888 2.85647 2.94676 0
M  V30 898 H 86.0198 1.32617 3.70373 0
M  V30 899 H 88.0348 0.877804 4.88374 0
M  V30 900 N 87.2079 -1.17134 1.05439 0
M  V30 901 C 88.1379 -2.2342 0.678649 0
M  V30 902 C 89.1189 -1.66971 -0.32476 0
M  V30 903 O 90.3039 -1.93149 -0.201802 0
M  V30 904 C 87.4339 -3.47256 0.0552099 0
M  V30 905 C 86.3879 -4.16543 0.98365 0
M  V30 906 C 85.7139 -5.34231 0.223961 0
M  V30 907 C 87.0139 -4.68495 2.3089 0
M  V30 908 H 88.7079 -2.55105 1.56722 0
M  V30 909 H 86.2539 -1.2262 0.754998 0
M  V30 910 H 88.2069 -4.20828 -0.21946 0
M  V30 911 H 86.9309 -3.14846 -0.868319 0
M  V30 912 H 85.5899 -3.44887 1.24293 0
M  V30 913 H 85.2379 -4.98071 -0.702412 0
M  V30 914 H 84.9379 -5.81527 0.842627 0
M  V30 915 H 86.4619 -6.10585 -0.0433671 0
M  V30 916 H 87.8759 -5.33691 2.09396 0
M  V30 917 H 86.2729 -5.26379 2.88176 0
M  V30 918 H 87.3429 -3.85169 2.94572 0
M  V30 919 N 88.686 -0.835752 -1.33615 0
M  V30 920 C 90.097 -0.487099 -1.80234 0
M  V30 921 C 90.448 0.993627 -1.69179 0
M  V30 922 O 89.573 1.77403 -1.23924 0
M  V30 923 C 90.168 -0.877385 -3.27242 0
M  V30 924 C 88.727 -0.580915 -3.7189 0
M  V30 925 C 87.874 -1.0874 -2.5509 0
M  V30 926 H 90.825 -1.02474 -1.2118 0
M  V30 927 H 90.846 -0.186195 -3.80044 0
M  V30 928 H 90.358 -1.95512 -3.35256 0
M  V30 929 H 88.459 0.486881 -3.69405 0
M  V30 930 H 88.572 -1.13396 -4.65487 0
M  V30 931 H 86.936 -0.508392 -2.49575 0
M  V30 932 H 87.719 -2.17184 -2.65868 0
M  V30 933 N 90.1641 1.46063 -0.591896 0
M  V30 934 C 91.5801 1.57561 -0.254288 0
M  V30 935 C 91.7801 1.58565 1.24336 0
M  V30 936 O 90.8361 1.50753 2.02558 0
M  V30 937 C 92.1491 2.86549 -0.911611 0
M  V30 938 C 93.6971 3.00197 -0.886059 0
M  V30 939 C 94.1721 4.31933 -1.5231 0
M  V30 940 N 95.6631 4.38654 -1.48786 0
M  V30 941 C 96.3981 5.39222 -1.95006 0
M  V30 942 N 95.8941 6.46414 -2.49241 0
M  V30 943 N 97.6871 5.3048 -1.85868 0
M  V30 944 H 89.8381 1.43655 -1.56451 0
M  V30 945 H 92.1011 0.68583 -0.654478 0
M  V30 946 H 91.8071 2.91651 -1.96551 0
M  V30 947 H 91.6811 3.74794 -0.425368 0
M  V30 948 H 94.0681 2.9467 0.159246 0
M  V30 949 H 94.1491 2.13403 -1.41041 0
M  V30 950 H 93.7931 4.38217 -2.56765 0
M  V30 951 H 93.7231 5.17516 -0.973891 0
M  V30 952 H 96.2141 3.61793 -1.09151 0
M  V30 953 H 96.5271 7.19376 -2.82344 0
M  V30 954 H 94.8721 6.47208 -2.53272 0
M  V30 955 H 98.0631 4.45643 -1.43248 0
M  V30 956 H 98.2361 6.08711 -2.22204 0
M  V30 957 N 91.6422 0.330177 1.54103 0
M  V30 958 C 92.8882 -0.270806 2.00984 0
M  V30 959 C 93.2212 -1.51265 1.21789 0
M  V30 960 O 92.4962 -1.92142 0.301927 0
M  V30 961 C 92.7792 -0.598339 3.55094 0
M  V30 962 C 92.6322 0.654674 4.4501 0
M  V30 963 C 93.9512 -1.41334 4.16789 0
M  V30 964 H 91.0702 -0.0969531 0.730595 0
M  V30 965 H 93.7122 0.448066 1.84641 0
M  V30 966 H 91.8622 -1.21078 3.69151 0
M  V30 967 H 93.5342 1.29285 4.42813 0
M  V30 968 H 91.7772 1.28224 4.14416 0
M  V30 969 H 92.4482 0.380944 5.50684 0
M  V30 970 H 94.9242 -0.895597 4.06347 0
M  V30 971 H 93.8002 -1.61127 5.24718 0
M  V30 972 H 94.0612 -2.41146 3.70541 0
M  V30 973 N 93.1203 -1.57491 0.0584922 0
M  V30 974 C 94.5363 -1.56792 -0.298091 0
M  V30 975 C 94.7363 -1.06679 -1.70944 0
M  V30 976 O 93.7923 -0.726672 -2.41818 0
M  V30 977 C 95.1053 -3.00461 -0.119879 0
M  V30 978 C 96.6533 -3.1242 -0.190428 0
M  V30 979 C 97.1283 -4.57982 -0.0406567 0
M  V30 980 N 98.6193 -4.63099 -0.0966958 0
M  V30 981 C 99.3543 -5.734 -0.00502943 0
M  V30 982 N 98.8503 -6.9266 0.139402 0
M  V30 983 N 100.643 -5.62067 -0.0611391 0
M  V30 984 H 92.7943 -1.88386 0.98105 0
M  V30 985 H 95.0573 -0.867865 0.381463 0
M  V30 986 H 94.7633 -3.41187 0.85349 0
M  V30 987 H 94.6373 -3.66843 -0.877833 0
M  V30 988 H 97.0243 -2.71589 -1.15427 0
M  V30 989 H 97.1053 -2.48702 0.598405 0
M  V30 990 H 96.7493 -4.995 0.919897 0
M  V30 991 H 96.6793 -5.19715 -0.848727 0
M  V30 992 H 99.1703 -3.77331 -0.207277 0
M  V30 993 H 99.4833 -7.72536 0.201855 0
M  V30 994 H 97.8283 -6.94781 0.174586 0
M  V30 995 H 101.019 -4.67782 -0.172583 0
M  V30 996 H 101.192 -6.47999 0.0137562 0
M  V30 997 N 94.5984 0.214957 -1.56127 0
M  V30 998 C 96.0094 0.781386 -1.69562 0
M  V30 999 C 96.3604 1.84707 -0.66165 0
M  V30 1000 O 95.4854 2.156 0.185927 0
M  V30 1001 C 96.0804 1.42411 -3.07416 0
M  V30 1002 C 94.6394 1.93786 -3.22683 0
M  V30 1003 C 93.7864 0.800438 -2.65496 0
M  V30 1004 H 96.7374 -0.00980633 -1.58697 0
M  V30 1005 H 96.7584 2.29309 -3.0364 0
M  V30 1006 H 96.2704 0.64826 -3.82648 0
M  V30 1007 H 94.3714 2.74152 -2.52332 0
M  V30 1008 H 94.4844 2.1133 -4.29973 0
M  V30 1009 H 92.8484 1.2095 -2.2415 0
M  V30 1010 H 93.6314 0.0371471 -3.4328 0
M  V30 1011 N 96.0765 1.50051 0.48192 0
M  V30 1012 C 97.3235 1.60498 1.23477 0
M  V30 1013 C 97.6515 0.300331 1.92167 0
M  V30 1014 O 96.9065 -0.713094 1.82246 0
M  V30 1015 C 97.2055 2.72717 2.30998 0
M  V30 1016 C 96.8715 4.13572 1.79636 0
M  V30 1017 C 95.5335 4.519 1.65348 0
M  V30 1018 C 97.8855 5.01649 1.41412 0
M  V30 1019 C 95.2135 5.76057 1.11244 0
M  V30 1020 C 97.5655 6.26343 0.887538 0
M  V30 1021 C 96.2295 6.63483 0.731207 0
M  V30 1022 H 95.4995 0.587303 0.451836 0
M  V30 1023 H 98.1465 1.83948 0.532468 0
M  V30 1024 H 96.4515 2.43312 3.07094 0
M  V30 1025 H 98.1485 2.78006 2.88988 0
M  V30 1026 H 94.7385 3.83329 1.91721 0
M  V30 1027 H 98.9225 4.72679 1.51289 0
M  V30 1028 H 94.1785 6.03516 0.978686 0
M  V30 1029 H 98.3525 6.93958 0.582654 0
M  V30 1030 H 95.9795 7.59568 0.309806 0
M  V30 1031 N 97.5546 -0.734337 1.39446 0
M  V30 1032 C 98.7846 -1.52137 1.39778 0
M  V30 1033 C 99.1926 -1.89198 -0.00929312 0
M  V30 1034 O 98.5356 -1.54666 -0.991168 0
M  V30 1035 C 98.5976 -2.83762 2.20724 0
M  V30 1036 C 98.2616 -2.69131 3.69347 0
M  V30 1037 C 99.2586 -2.37635 4.62413 0
M  V30 1038 C 96.9436 -2.85982 4.1294 0
M  V30 1039 C 98.9376 -2.23172 5.97054 0
M  V30 1040 C 96.6246 -2.71137 5.47657 0
M  V30 1041 C 97.6226 -2.39777 6.39528 0
M  V30 1042 O 97.3106 -2.25026 7.71763 0
M  V30 1043 H 97.0426 -0.476717 0.479288 0
M  V30 1044 H 99.5966 -0.915012 1.83893 0
M  V30 1045 H 97.8266 -3.4666 1.71359 0
M  V30 1046 H 99.5156 -3.45383 2.13226 0
M  V30 1047 H 100.282 -2.24267 4.30034 0
M  V30 1048 H 96.1606 -3.09383 3.41765 0
M  V30 1049 H 99.7046 -1.98617 6.68728 0
M  V30 1050 H 95.6016 -2.84083 5.79626 0
M  V30 1051 H 96.3696 -2.40091 7.82495 0
M  V30 1052 N 99.0327 -1.24633 -0.964593 0
M  V30 1053 C 99.9957 -1.0424 -2.04124 0
M  V30 1054 C 100.996 0.00137563 -1.608 0
M  V30 1055 O 102.186 -0.239883 -1.7254 0
M  V30 1056 C 99.3177 -0.580588 -3.3592 0
M  V30 1057 H 100.511 -1.99803 -2.23649 0
M  V30 1058 H 98.0637 -1.06899 -1.14027 0
M  V30 1059 H 98.7987 0.3781 -3.22088 0
M  V30 1060 H 98.5837 -1.33398 -3.6871 0
M  V30 1061 H 100.074 -0.459034 -4.15069 0
M  V30 1062 N 100.511 1.16574 -1.06058 0
M  V30 1063 C 101.757 1.87324 -0.777022 0
M  V30 1064 C 102.09 1.81351 0.694645 0
M  V30 1065 O 101.365 1.22753 1.50871 0
M  V30 1066 C 101.648 3.36991 -1.26922 0
M  V30 1067 C 101.501 3.51667 -2.80447 0
M  V30 1068 C 102.82 4.3131 -0.87521 0
M  V30 1069 H 99.9388 0.680191 -0.28374 0
M  V30 1070 H 102.581 1.37036 -1.3161 0
M  V30 1071 H 100.731 3.79949 -0.81063 0
M  V30 1072 H 102.403 3.17664 -3.34495 0
M  V30 1073 H 100.646 2.93656 -3.19294 0
M  V30 1074 H 101.317 4.56766 -3.0995 0
M  V30 1075 H 103.793 3.9624 -1.27014 0
M  V30 1076 H 102.669 5.34545 -1.2471 0
M  V30 1077 H 102.93 4.41552 0.220071 0
M  V30 1078 N 101.989 0.842826 1.3317 0
M  V30 1079 C 102.936 0.276885 2.29133 0
M  V30 1080 C 103.906 -0.609527 1.54512 0
M  V30 1081 O 105.091 -0.546955 1.82792 0
M  V30 1082 C 102.231 -0.538707 3.40869 0
M  V30 1083 C 101.344 0.372169 4.30394 0
M  V30 1084 C 100.479 -0.454908 5.29249 0
M  V30 1085 C 99.5179 0.45411 6.10413 0
M  V30 1086 N 98.6549 -0.335075 7.013 0
M  V30 1087 H 103.495 1.10052 2.76934 0
M  V30 1088 H 101.032 0.554161 1.36262 0
M  V30 1089 H 102.99 -1.02709 4.0436 0
M  V30 1090 H 101.62 -1.32727 2.9425 0
M  V30 1091 H 100.672 0.97888 3.6759 0
M  V30 1092 H 101.984 1.0703 4.87182 0
M  V30 1093 H 101.138 -1.00695 5.98285 0
M  V30 1094 H 99.8769 -1.18646 4.73048 0
M  V30 1095 H 98.8819 1.01813 5.40291 0
M  V30 1096 H 100.107 1.18409 6.68697 0
M  V30 1097 H 98.0529 -1.04994 6.47543 0
M  V30 1098 H 97.9699 0.304262 7.55387 0
M  V30 1099 H 99.2379 -0.869224 7.74638 0
M  V30 1100 N 103.467 -1.45747 0.599634 0
M  V30 1101 C 104.707 -2.04181 0.0946309 0
M  V30 1102 C 105.071 -1.45895 -1.24815 0
M  V30 1103 O 106.272 -1.95633 -1.8434 0
M  V30 1104 C 104.543 -3.57368 0.047581 0
M  V30 1105 S 106.102 -4.36997 -0.397387 0
M  V30 1106 H 102.92 -0.70953 0.0456954 0
M  V30 1107 H 105.522 -1.78564 0.795946 0
M  V30 1108 H 104.226 -3.97303 1.02852 0
M  V30 1109 H 103.757 -3.87549 -0.675977 0
M  V30 1110 H 105.772 -4.68012 -1.64862 0
M  V30 1111 N 104.945 -0.338344 -1.53925 0
M  V30 1112 C 105.893 0.536231 -2.26335 0
M  V30 1113 C 106.887 1.1063 -1.28286 0
M  V30 1114 O 108.093 1.05264 -1.46012 0
M  V30 1115 H 104.468 0.191602 -0.727181 0
M  V30 1116 H 106.439 -0.0965747 -2.98244 0
M  V30 1117 C 105.188 1.67803 -3.04528 0
M  V30 1118 H 104.511 1.24864 -3.79801 0
M  V30 1119 H 105.951 2.26526 -3.58416 0
M  V30 1120 C 104.41 2.60439 -2.13712 0
M  V30 1121 O 104.94 3.6255 -1.72975 0
M  V30 1122 N 103.146 2.29006 -1.78898 0
M  V30 1123 H 102.693 1.46011 -2.12223 0
M  V30 1124 H 102.651 2.91248 -1.18416 0
M  V30 1125 N 106.423 1.57458 -0.0668435 0
M  V30 1126 C 107.648 1.9804 0.616027 0
M  V30 1127 C 108.073 0.944771 1.62652 0
M  V30 1128 O 107.431 -0.0902094 1.81075 0
M  V30 1129 C 107.479 3.37665 1.26549 0
M  V30 1130 O 106.583 3.36701 2.38131 0
M  V30 1131 H 105.924 0.644719 0.158849 0
M  V30 1132 H 108.454 2.04121 -0.139891 0
M  V30 1133 H 108.464 3.7474 1.6135 0
M  V30 1134 H 107.139 4.12573 0.525016 0
M  V30 1135 H 105.716 3.1139 2.0516 0
M  V30 1136 N 107.901 -0.206675 1.56239 0
M  V30 1137 C 109.126 -0.949474 1.8439 0
M  V30 1138 C 109.551 -1.76549 0.649016 0
M  V30 1139 O 108.909 -1.76782 -0.402231 0
M  V30 1140 C 108.957 -1.83078 3.10668 0
M  V30 1141 O 108.061 -2.9281 2.90407 0
M  V30 1142 H 107.402 -0.268033 0.607499 0
M  V30 1143 H 109.932 -0.215488 2.03462 0
M  V30 1144 H 109.942 -2.2377 3.41161 0
M  V30 1145 H 108.617 -1.23112 3.97261 0
M  V30 1146 H 107.194 -2.55956 2.71184 0
M  V30 1147 N 109.379 -1.50304 -0.473955 0
M  V30 1148 C 110.79 -1.54042 -1.0549 0
M  V30 1149 C 111.141 -0.342248 -1.93192 0
M  V30 1150 O 110.266 0.545157 -2.09421 0
M  V30 1151 C 110.861 -2.79152 -1.91989 0
M  V30 1152 C 109.42 -2.8558 -2.45196 0
M  V30 1153 C 108.567 -2.48295 -1.2347 0
M  V30 1154 H 111.518 -1.5661 -0.256693 0
M  V30 1155 H 111.539 -2.60845 -2.7702 0
M  V30 1156 H 111.051 -3.66339 -1.28131 0
M  V30 1157 H 109.152 -2.02738 -3.12615 0
M  V30 1158 H 109.265 -3.88403 -2.80499 0
M  V30 1159 H 107.629 -2.00669 -1.56856 0
M  V30 1160 H 108.412 -3.37787 -0.612789 0
M  V30 1161 N 110.857 0.726932 -1.39834 0
M  V30 1162 C 112.105 1.4837 -1.37225 0
M  V30 1163 C 112.426 1.94979 0.0284857 0
M  V30 1164 O 111.696 1.69555 0.981213 0
M  V30 1165 H 110.276 0.55043 -0.505011 0
M  V30 1166 H 112.938 0.862468 -1.74778 0
M  V30 1167 H 112.034 2.36198 -2.04003 0
M  V30 1168 N 112.336 1.25143 0.95797 0
M  V30 1169 C 113.582 1.09855 1.70469 0
M  V30 1170 C 113.915 -0.360187 1.90831 0
M  V30 1171 O 113.19 -1.26568 1.47685 0
M  V30 1172 C 113.473 1.8497 3.08963 0
M  V30 1173 C 113.326 3.38652 2.96032 0
M  V30 1174 C 114.645 1.63016 4.08795 0
M  V30 1175 H 111.764 0.400465 0.618706 0
M  V30 1176 H 114.406 1.53933 1.11376 0
M  V30 1177 H 112.556 1.47505 3.59409 0
M  V30 1178 H 114.228 3.85772 2.52938 0
M  V30 1179 H 112.471 3.66534 2.32025 0
M  V30 1180 H 113.142 3.8642 3.94187 0
M  V30 1181 H 115.618 1.95625 3.67247 0
M  V30 1182 H 114.494 2.18015 5.03747 0
M  V30 1183 H 114.755 0.570692 4.38401 0
M  V30 1184 N 113.814 -1.1601 1.06675 0
M  V30 1185 C 114.744 -2.22688 0.702307 0
M  V30 1186 C 115.725 -1.67306 -0.307032 0
M  V30 1187 O 116.91 -1.93352 -0.181305 0
M  V30 1188 C 114.04 -3.47178 0.092038 0
M  V30 1189 C 112.994 -4.15477 1.02777 0
M  V30 1190 C 112.32 -5.33963 0.28061 0
M  V30 1191 C 113.62 -4.66019 2.35846 0
M  V30 1192 H 115.314 -2.53429 1.59419 0
M  V30 1193 H 112.86 -1.21813 0.767961 0
M  V30 1194 H 114.813 -4.21037 -0.174814 0
M  V30 1195 H 113.537 -3.15749 -0.834877 0
M  V30 1196 H 112.196 -3.43549 1.27944 0
M  V30 1197 H 111.844 -4.98788 -0.649545 0
M  V30 1198 H 111.544 -5.806 0.904258 0
M  V30 1199 H 113.068 -6.10596 0.021396 0
M  V30 1200 H 114.482 -5.3144 2.15045 0
M  V30 1201 H 112.879 -5.23293 2.93743 0
M  V30 1202 H 113.949 -3.82023 2.98641 0
M  V30 1203 N 115.292 -0.849877 -1.32721 0
M  V30 1204 C 116.239 -0.289033 -2.28983 0
M  V30 1205 C 117.209 0.601324 -1.54833 0
M  V30 1206 O 118.394 0.537253 -1.8308 0
M  V30 1207 C 115.534 0.520623 -3.4115 0
M  V30 1208 C 114.647 -0.394989 -4.3019 0
M  V30 1209 C 113.782 0.426834 -5.29482 0
M  V30 1210 C 112.821 -0.486476 -6.10164 0
M  V30 1211 N 111.958 0.297879 -7.01468 0
M  V30 1212 H 116.798 -1.11519 -2.76347 0
M  V30 1213 H 114.335 -0.56138 -1.35967 0
M  V30 1214 H 116.293 1.00563 -4.04899 0
M  V30 1215 H 114.923 1.31165 -2.9495 0
M  V30 1216 H 113.975 -0.99836 -3.67065 0
M  V30 1217 H 115.287 -1.09612 -4.86607 0
M  V30 1218 H 114.441 0.975205 -5.98811 0
M  V30 1219 H 113.18 1.16136 -4.73671 0
M  V30 1220 H 112.185 -1.04677 -5.39743 0
M  V30 1221 H 113.41 -1.21953 -6.6806 0
M  V30 1222 H 111.356 1.01558 -6.48091 0
M  V30 1223 H 111.273 -0.344318 -7.55216 0
M  V30 1224 H 112.541 0.828131 -7.75089 0
M  V30 1225 N 116.77 1.45427 -0.607355 0
M  V30 1226 C 118.016 2.0254 -0.102607 0
M  V30 1227 C 118.349 1.47478 1.26348 0
M  V30 1228 O 117.624 0.64939 1.83339 0
M  V30 1229 C 117.907 3.60044 -0.0634347 0
M  V30 1230 C 117.76 4.2544 -1.46017 0
M  V30 1231 C 119.079 4.35646 0.624514 0
M  V30 1232 H 116.198 0.73598 -0.0387607 0
M  V30 1233 H 118.84 1.73284 -0.779282 0
M  V30 1234 H 116.99 3.85101 0.512808 0
M  V30 1235 H 118.662 4.11569 -2.08347 0
M  V30 1236 H 116.905 3.83849 -2.02094 0
M  V30 1237 H 117.576 5.34342 -1.385 0
M  V30 1238 H 120.052 4.15882 0.134723 0
M  V30 1239 H 118.928 5.45376 0.621028 0
M  V30 1240 H 119.189 4.08501 1.69055 0
M  V30 1241 N 118.248 0.346503 1.53744 0
M  V30 1242 C 119.178 -0.501193 2.28058 0
M  V30 1243 C 120.159 -1.10014 1.29734 0
M  V30 1244 O 121.344 -1.12097 1.58581 0
M  V30 1245 C 118.474 -1.65078 3.05559 0
M  V30 1246 C 117.428 -1.18003 4.11411 0
M  V30 1247 C 116.754 -2.41837 4.76884 0
M  V30 1248 C 118.054 -0.278394 5.21558 0
M  V30 1249 H 119.748 0.11875 2.99164 0
M  V30 1250 H 117.294 0.0585531 1.43881 0
M  V30 1251 H 119.247 -2.25028 3.56287 0
M  V30 1252 H 117.971 -2.29767 2.32109 0
M  V30 1253 H 116.63 -0.603331 3.61601 0
M  V30 1254 H 116.278 -3.0494 4.00026 0
M  V30 1255 H 115.978 -2.1102 5.48402 0
M  V30 1256 H 117.502 -3.02508 5.30397 0
M  V30 1257 H 118.916 -0.784823 5.67903 0
M  V30 1258 H 117.313 -0.0619707 6.00068 0
M  V30 1259 H 118.383 0.684677 4.80042 0
M  V30 1260 N 119.726 -1.57421 0.075193 0
M  V30 1261 C 120.689 -2.11791 -0.876203 0
M  V30 1262 C 121.689 -1.04268 -1.22412 0
M  V30 1263 O 122.879 -1.30242 -1.15684 0
M  V30 1264 C 120.011 -2.62207 -2.17854 0
M  V30 1265 H 121.204 -2.9716 -0.40444 0
M  V30 1266 H 118.757 -1.55333 -0.173557 0
M  V30 1267 H 119.492 -1.803 -2.6956 0
M  V30 1268 H 119.277 -3.40802 -1.93897 0
M  V30 1269 H 120.767 -3.04335 -2.85955 0
M  V30 1270 N 121.204 0.198386 -1.56346 0
M  V30 1271 C 122.136 1.26987 -1.90806 0
M  V30 1272 C 123.149 1.41877 -0.798419 0
M  V30 1273 O 124.338 1.42362 -1.07682 0
M  V30 1274 C 121.438 2.64246 -2.12196 0
M  V30 1275 C 120.611 2.71007 -3.43328 0
M  V30 1276 C 119.67 3.89439 -3.5387 0
M  V30 1277 O 118.696 3.76695 -4.26719 0
M  V30 1278 N 119.898 5.04752 -2.86715 0
M  V30 1279 H 122.663 0.977433 -2.83313 0
M  V30 1280 H 120.224 0.388322 -1.57174 0
M  V30 1281 H 122.216 3.41896 -2.1654 0
M  V30 1282 H 120.786 2.85992 -1.26204 0
M  V30 1283 H 120.006 1.79657 -3.50881 0
M  V30 1284 H 121.294 2.72512 -4.29668 0
M  V30 1285 H 120.692 5.18004 -2.2735 0
M  V30 1286 H 119.249 5.8036 -2.96691 0
M  V30 1287 N 122.682 1.50554 0.465978 0
M  V30 1288 C 123.612 1.72722 1.57128 0
M  V30 1289 C 124.593 0.576294 1.6004 0
M  V30 1290 O 125.778 0.81598 1.76225 0
M  V30 1291 C 122.908 1.82605 2.95419 0
M  V30 1292 C 121.862 2.97835 3.07373 0
M  V30 1293 C 121.188 2.92867 4.47363 0
M  V30 1294 C 122.488 4.38265 2.84114 0
M  V30 1295 H 124.182 2.65267 1.38829 0
M  V30 1296 H 121.728 1.2765 0.666441 0
M  V30 1297 H 123.681 1.96698 3.72677 0
M  V30 1298 H 122.405 0.866858 3.14886 0
M  V30 1299 H 121.064 2.83401 2.3255 0
M  V30 1300 H 120.712 1.94783 4.63755 0
M  V30 1301 H 120.412 3.70227 4.56296 0
M  V30 1302 H 121.936 3.09015 5.26633 0
M  V30 1303 H 123.35 4.53198 3.51118 0
M  V30 1304 H 121.747 5.17115 3.04487 0
M  V30 1305 H 122.817 4.50281 1.7993 0
M  V30 1306 N 124.16 -0.719506 1.40217 0
M  V30 1307 C 125.408 -1.47641 1.3801 0
M  V30 1308 C 125.729 -1.94992 -0.018145 0
M  V30 1309 O 124.999 -1.70073 -0.972207 0
M  V30 1310 H 123.579 -0.547744 0.507923 0
M  V30 1311 H 126.241 -0.853187 1.75233 0
M  V30 1312 H 125.337 -2.35112 2.05253 0
M  V30 1313 N 125.638 -1.25649 -0.95132 0
M  V30 1314 C 126.568 -1.08808 -2.06599 0
M  V30 1315 C 127.549 0.00382547 -1.701 0
M  V30 1316 O 128.734 -0.166325 -1.93486 0
M  V30 1317 C 125.864 -0.709542 -3.39975 0
M  V30 1318 C 124.818 -1.75206 -3.90496 0
M  V30 1319 C 124.144 -1.22811 -5.20405 0
M  V30 1320 C 125.444 -3.15153 -4.16504 0
M  V30 1321 H 127.138 -2.02048 -2.20946 0
M  V30 1322 H 124.684 -0.972835 -1.06169 0
M  V30 1323 H 126.637 -0.578649 -4.17408 0
M  V30 1324 H 125.361 0.258556 -3.25575 0
M  V30 1325 H 124.02 -1.87145 -3.15234 0
M  V30 1326 H 123.668 -0.250145 -5.02378 0
M  V30 1327 H 123.368 -1.92492 -5.55176 0
M  V30 1328 H 124.892 -1.10968 -6.00432 0
M  V30 1329 H 126.306 -3.06349 -4.84586 0
M  V30 1330 H 124.703 -3.82333 -4.62538 0
M  V30 1331 H 125.773 -3.61966 -3.22658 0
M  V30 1332 N 127.117 1.15442 -1.07289 0
M  V30 1333 C 128.365 1.85845 -0.794096 0
M  V30 1334 C 128.686 1.82692 0.681809 0
M  V30 1335 O 127.956 1.26741 1.49377 0
M  V30 1336 H 126.536 0.688089 -0.290763 0
M  V30 1337 H 129.198 1.39947 -1.3565 0
M  V30 1338 H 128.294 2.91001 -1.12804 0
M  V30 1339 N 128.595 0.856903 1.32268 0
M  V30 1340 C 129.842 0.461386 1.97174 0
M  V30 1341 C 130.17 -0.983491 1.67803 0
M  V30 1342 O 129.425 -1.70541 0.959903 0
M  V30 1343 C 129.724 0.649919 3.51441 0
M  V30 1344 C 129.39 2.0656 4.00804 0
M  V30 1345 C 128.052 2.45279 4.13995 0
M  V30 1346 C 130.404 2.98947 4.26943 0
M  V30 1347 C 127.732 3.75653 4.50668 0
M  V30 1348 C 130.084 4.28822 4.65075 0
M  V30 1349 C 128.748 4.67472 4.76472 0
M  V30 1350 H 128.018 0.168833 0.72151 0
M  V30 1351 H 130.665 1.08739 1.57633 0
M  V30 1352 H 128.97 -0.0593018 3.91755 0
M  V30 1353 H 130.667 0.32391 3.9969 0
M  V30 1354 H 127.257 1.75495 3.91024 0
M  V30 1355 H 131.441 2.70265 4.16258 0
M  V30 1356 H 126.697 4.05379 4.57688 0
M  V30 1357 H 130.871 5.0047 4.84255 0
M  V30 1358 H 128.498 5.68539 5.04646 0
M  V30 1359 N 130.073 -1.45103 0.615059 0
M  V30 1360 C 131.298 -2.07064 0.117988 0
M  V30 1361 C 131.723 -1.4554 -1.19163 0
M  V30 1362 O 131.081 -0.550855 -1.72729 0
M  V30 1363 C 131.129 -3.606 -0.000288387 0
M  V30 1364 O 130.233 -3.98847 -1.04856 0
M  V30 1365 H 129.574 -0.659467 0.0774581 0
M  V30 1366 H 132.104 -1.86236 0.847186 0
M  V30 1367 H 132.114 -4.07529 -0.196091 0
M  V30 1368 H 130.789 -4.04765 0.955932 0
M  V30 1369 H 129.366 -3.63577 -0.828619 0
M  V30 1370 N 131.551 -0.354651 -1.53558 0
M  V30 1371 C 132.791 0.238651 -2.03002 0
M  V30 1372 C 133.155 1.46878 -1.23656 0
M  V30 1373 O 134.356 2.13699 -1.63053 0
M  V30 1374 C 132.627 0.534175 -3.53386 0
M  V30 1375 S 134.186 1.10271 -4.24719 0
M  V30 1376 H 131.004 0.0702908 -0.707517 0
M  V30 1377 H 133.606 -0.494987 -1.8913 0
M  V30 1378 H 132.31 -0.368765 -4.0874 0
M  V30 1379 H 131.841 1.29718 -3.71398 0
M  V30 1380 H 133.856 2.38772 -4.34974 0
M  V30 1381 N 133.029 1.57378 -0.0835403 0
M  V30 1382 C 133.992 2.12252 0.864959 0
M  V30 1383 C 134.992 1.04916 1.21858 0
M  V30 1384 O 136.182 1.30853 1.14991 0
M  V30 1385 C 133.314 2.63358 2.16461 0
M  V30 1386 H 134.507 2.97371 0.388676 0
M  V30 1387 H 132.06 1.55423 0.165317 0
M  V30 1388 H 132.795 1.81727 2.686 0
M  V30 1389 H 132.58 3.41826 1.92087 0
M  V30 1390 H 134.07 3.05847 2.84337 0
M  V30 1391 N 134.507 -0.190092 1.56449 0
M  V30 1392 C 135.455 -1.25501 1.95837 0
M  V30 1393 C 136.449 -1.4685 0.844485 0
M  V30 1394 O 137.655 -1.47651 1.02952 0
M  V30 1395 H 134.03 -0.421447 0.622805 0
M  V30 1396 H 136.001 -0.895821 2.84636 0
M  V30 1397 C 134.75 -2.59124 2.31841 0
M  V30 1398 H 134.073 -2.43514 3.17082 0
M  V30 1399 H 135.513 -3.32371 2.6326 0
M  V30 1400 C 133.972 -3.16488 1.15486 0
M  V30 1401 O 134.502 -3.99365 0.432535 0
M  V30 1402 N 132.708 -2.75305 0.930349 0
M  V30 1403 H 132.255 -2.08013 1.51948 0
M  V30 1404 H 132.213 -3.14024 0.153634 0
M  V30 1405 N 135.985 -1.50799 -0.457987 0
M  V30 1406 C 136.932 -1.70617 -1.5543 0
M  V30 1407 C 137.902 -0.547562 -1.56815 0
M  V30 1408 O 139.087 -0.779647 -1.74144 0
M  V30 1409 C 136.227 -1.81831 -2.93311 0
M  V30 1410 C 135.34 -3.09278 -3.01615 0
M  V30 1411 C 134.475 -3.11209 -4.30491 0
M  V30 1412 C 133.514 -4.33055 -4.32585 0
M  V30 1413 N 132.651 -4.32652 -5.52952 0
M  V30 1414 H 137.491 -2.64207 -1.37836 0
M  V30 1415 H 135.028 -1.30959 -0.669937 0
M  V30 1416 H 136.986 -1.86314 -3.73287 0
M  V30 1417 H 135.616 -0.916685 -3.0951 0
M  V30 1418 H 134.668 -3.14203 -2.1443 0
M  V30 1419 H 135.98 -3.99233 -2.99022 0
M  V30 1420 H 135.134 -3.14494 -5.18824 0
M  V30 1421 H 133.873 -2.19106 -4.35711 0
M  V30 1422 H 132.878 -4.29969 -3.42647 0
M  V30 1423 H 134.103 -5.264 -4.29046 0
M  V30 1424 H 132.049 -3.43409 -5.58933 0
M  V30 1425 H 131.966 -5.16392 -5.52155 0
M  V30 1426 H 133.234 -4.40101 -6.43375 0
M  V30 1427 N 137.463 0.71206 -1.40597 0
M  V30 1428 C 138.426 1.80785 -1.40888 0
M  V30 1429 C 139.426 1.57937 -0.302103 0
M  V30 1430 O 140.616 1.64913 -0.561182 0
M  V30 1431 C 137.748 3.18927 -1.20409 0
M  V30 1432 H 138.941 1.81924 -2.38419 0
M  V30 1433 H 136.494 0.91805 -1.26497 0
M  V30 1434 H 137.229 3.23436 -0.236522 0
M  V30 1435 H 137.014 3.36911 -2.00582 0
M  V30 1436 H 138.504 3.98949 -1.23408 0
M  V30 1437 N 138.941 1.26152 0.944643 0
M  V30 1438 C 139.851 1.09176 2.07648 0
M  V30 1439 C 140.867 0.0261935 1.7398 0
M  V30 1440 O 142.043 0.229208 2.00091 0
M  V30 1441 C 139.108 0.722915 3.39079 0
M  V30 1442 C 138.169 1.86752 3.86552 0
M  V30 1443 C 137.402 1.51617 5.11711 0
M  V30 1444 O 137.625 0.416331 5.68879 0
M  V30 1445 O 136.559 2.34975 5.54139 0
M  V30 1446 H 140.385 2.0412 2.24875 0
M  V30 1447 H 137.97 1.05182 1.061 0
M  V30 1448 H 139.852 0.529787 4.18056 0
M  V30 1449 H 138.527 -0.197159 3.23099 0
M  V30 1450 H 137.434 2.11558 3.08535 0
M  V30 1451 H 138.767 2.76719 4.07047 0
M  V30 1452 N 140.419 -1.14872 1.07899 0
M  V30 1453 C 141.352 -2.18794 0.64841 0
M  V30 1454 C 142.33 -1.59065 -0.337189 0
M  V30 1455 O 143.514 -1.86936 -0.242284 0
M  V30 1456 C 140.641 -3.38667 -0.0470417 0
M  V30 1457 C 139.687 -4.16942 0.897884 0
M  V30 1458 S 140.52 -4.78615 2.40183 0
M  V30 1459 C 141.676 -6.0185 1.71834 0
M  V30 1460 H 141.909 -2.5498 1.52881 0
M  V30 1461 H 139.442 -1.25922 0.893484 0
M  V30 1462 H 141.4 -4.08113 -0.442027 0
M  V30 1463 H 140.061 -3.00814 -0.903861 0
M  V30 1464 H 139.254 -5.02726 0.358096 0
M  V30 1465 H 138.856 -3.53073 1.23352 0
M  V30 1466 H 141.148 -6.69574 1.03328 0
M  V30 1467 H 142.091 -6.60408 2.55473 0
M  V30 1468 H 142.499 -5.5173 1.19392 0
M  V30 1469 N 141.898 -0.863906 -1.31812 0
M  V30 1470 C 142.808 -0.318461 -2.32428 0
M  V30 1471 C 143.824 0.568496 -1.64451 0
M  V30 1472 O 145 0.46666 -1.95919 0
M  V30 1473 C 142.065 0.476355 -3.43412 0
M  V30 1474 C 141.126 -0.43784 -4.27061 0
M  V30 1475 C 140.359 0.319138 -5.32745 0
M  V30 1476 O 140.582 1.54799 -5.48993 0
M  V30 1477 O 139.516 -0.319861 -6.01049 0
M  V30 1478 H 143.342 -1.15229 -2.80991 0
M  V30 1479 H 140.927 -0.627103 -1.35602 0
M  V30 1480 H 142.809 0.927156 -4.11074 0
M  V30 1481 H 141.484 1.28683 -2.97022 0
M  V30 1482 H 140.391 -0.937013 -3.62175 0
M  V30 1483 H 141.724 -1.21375 -4.77 0
M  V30 1484 N 143.376 1.44774 -0.622745 0
M  V30 1485 C 144.306 2.33382 0.0741861 0
M  V30 1486 C 145.287 1.47719 0.843387 0
M  V30 1487 O 146.472 1.76458 0.810934 0
M  V30 1488 C 143.602 3.30663 1.06204 0
M  V30 1489 C 142.556 4.26079 0.405037 0
M  V30 1490 C 141.882 5.13165 1.5022 0
M  V30 1491 C 143.182 5.1781 -0.683414 0
M  V30 1492 H 144.876 2.91905 -0.665713 0
M  V30 1493 H 142.422 1.40363 -0.321587 0
M  V30 1494 H 144.375 3.9153 1.55827 0
M  V30 1495 H 143.099 2.70331 1.83272 0
M  V30 1496 H 141.758 3.66532 -0.0704683 0
M  V30 1497 H 141.406 4.49191 2.26355 0
M  V30 1498 H 141.106 5.77812 1.06803 0
M  V30 1499 H 142.63 5.76902 2.00041 0
M  V30 1500 H 144.044 5.72661 -0.270631 0
M  V30 1501 H 142.441 5.91015 -1.04023 0
M  V30 1502 H 143.511 4.59326 -1.55395 0
M  V30 1503 N 144.854 0.36279 1.53368 0
M  V30 1504 C 146.1 -0.228113 2.01513 0
M  V30 1505 C 146.433 -1.48648 1.2497 0
M  V30 1506 O 145.708 -1.91459 0.342616 0
M  V30 1507 C 145.991 -0.522884 3.56284 0
M  V30 1508 C 145.844 0.74892 4.43521 0
M  V30 1509 C 147.163 -1.32461 4.19693 0
M  V30 1510 H 144.282 -0.0814343 0.732487 0
M  V30 1511 H 146.924 0.48713 1.83649 0
M  V30 1512 H 145.074 -1.1322 3.71636 0
M  V30 1513 H 146.746 1.38648 4.39971 0
M  V30 1514 H 144.989 1.36986 4.11603 0
M  V30 1515 H 145.66 0.497667 5.49752 0
M  V30 1516 H 148.136 -0.809203 4.08156 0
M  V30 1517 H 147.012 -1.49961 5.28018 0
M  V30 1518 H 147.273 -2.33232 3.75573 0
M  V30 1519 N 146.332 -1.57332 0.0918853 0
M  V30 1520 C 147.264 -2.10869 -0.898168 0
M  V30 1521 C 148.277 -1.04521 -1.24817 0
M  V30 1522 O 149.466 -1.31977 -1.20184 0
M  V30 1523 C 146.566 -2.57083 -2.2082 0
M  V30 1524 C 145.739 -3.87229 -2.03402 0
M  V30 1525 C 144.798 -4.19324 -3.17889 0
M  V30 1526 O 143.824 -4.88598 -2.91994 0
M  V30 1527 N 145.026 -3.74471 -4.43567 0
M  V30 1528 H 147.791 -2.96439 -0.440943 0
M  V30 1529 H 145.352 -1.61631 -0.0933064 0
M  V30 1530 H 147.344 -2.75602 -2.96354 0
M  V30 1531 H 145.914 -1.76541 -2.57977 0
M  V30 1532 H 145.134 -3.7789 -1.12218 0
M  V30 1533 H 146.422 -4.72379 -1.89038 0
M  V30 1534 H 145.82 -3.18546 -4.67488 0
M  V30 1535 H 144.377 -3.98151 -5.16061 0
M  V30 1536 N 147.81 0.181792 -1.56548 0
M  V30 1537 C 148.76 1.22961 -1.92002 0
M  V30 1538 C 149.744 1.40331 -0.787146 0
M  V30 1539 O 150.936 1.42478 -1.05019 0
M  V30 1540 C 148.065 2.57144 -2.27446 0
M  V30 1541 C 147.151 2.43512 -3.47222 0
M  V30 1542 N 147.542 1.99577 -4.64761 0
M  V30 1543 C 145.84 2.74368 -3.51622 0
M  V30 1544 C 146.541 1.98156 -5.46909 0
M  V30 1545 N 145.517 2.40164 -4.8767 0
M  V30 1546 H 149.319 0.881462 -2.8037 0
M  V30 1547 H 146.833 0.390141 -1.57644 0
M  V30 1548 H 148.83 3.32847 -2.51035 0
M  V30 1549 H 147.49 2.92771 -1.40411 0
M  V30 1550 H 148.501 1.70078 -4.89177 0
M  V30 1551 H 145.178 3.14102 -2.75038 0
M  V30 1552 H 146.568 1.65975 -6.51077 0
M  V30 1553 N 149.288 1.51039 0.449983 0
M  V30 1554 C 150.537 1.62317 1.19733 0
M  V30 1555 C 150.85 0.339101 1.92638 0
M  V30 1556 O 152.056 0.331069 2.69474 0
M  V30 1557 C 150.512 2.86608 2.17678 0
M  V30 1558 C 150.12 4.21972 1.50479 0
M  V30 1559 C 151.864 3.07239 2.92924 0
M  V30 1560 C 149.771 5.37426 2.46834 0
M  V30 1561 H 148.701 0.604532 0.450619 0
M  V30 1562 H 151.352 1.77494 0.465625 0
M  V30 1563 H 149.734 2.65037 2.94231 0
M  V30 1564 H 150.908 4.53878 0.795716 0
M  V30 1565 H 149.223 4.07117 0.874344 0
M  V30 1566 H 151.82 3.90668 3.65079 0
M  V30 1567 H 152.163 2.19807 3.5354 0
M  V30 1568 H 152.696 3.29091 2.23481 0
M  V30 1569 H 149.435 6.27079 1.90926 0
M  V30 1570 H 148.955 5.09912 3.15832 0
M  V30 1571 H 150.634 5.68862 3.08228 0
M  V30 1572 N 150.766 -0.704594 1.40972 0
M  V30 1573 C 152.014 -1.46169 1.39568 0
M  V30 1574 C 152.335 -1.95 0.00253745 0
M  V30 1575 O 151.605 -1.71095 -0.954114 0
M  V30 1576 H 150.185 -0.542326 0.513704 0
M  V30 1577 H 152.847 -0.834553 1.76128 0
M  V30 1578 H 151.943 -2.32922 2.07735 0
M  V30 1579 N 152.244 -1.26651 -0.937939 0
M  V30 1580 C 153.493 -1.11775 -1.67897 0
M  V30 1581 C 153.806 0.33794 -1.92659 0
M  V30 1582 O 155.012 0.607434 -2.64618 0
M  V30 1583 C 153.468 -1.9523 -3.02346 0
M  V30 1584 C 153.076 -3.45393 -2.8532 0
M  V30 1585 C 154.82 -1.88972 -3.80118 0
M  V30 1586 C 152.727 -4.21083 -4.15263 0
M  V30 1587 H 151.657 -0.414696 -0.629717 0
M  V30 1588 H 154.308 -1.50988 -1.04283 0
M  V30 1589 H 152.69 -1.48853 -3.66959 0
M  V30 1590 H 153.864 -3.99561 -2.29537 0
M  V30 1591 H 152.179 -3.52921 -2.20988 0
M  V30 1592 H 154.776 -2.42805 -4.76392 0
M  V30 1593 H 155.119 -0.86113 -4.07296 0
M  V30 1594 H 155.652 -2.33189 -3.22285 0
M  V30 1595 H 152.391 -5.24425 -3.93267 0
M  V30 1596 H 151.911 -3.71695 -4.70747 0
M  V30 1597 H 153.59 -4.29706 -4.83696 0
M  V30 1598 N 153.722 1.14298 -1.08507 0
M  V30 1599 C 155.133 1.66926 -0.836227 0
M  V30 1600 C 155.484 1.85576 0.63686 0
M  V30 1601 O 154.609 1.56767 1.49175 0
M  V30 1602 C 155.204 3.03219 -1.51142 0
M  V30 1603 C 153.763 3.52876 -1.30979 0
M  V30 1604 C 152.91 2.2833 -1.57356 0
M  V30 1605 H 155.861 0.983491 -1.24552 0
M  V30 1606 H 155.882 3.68726 -0.939211 0
M  V30 1607 H 155.394 2.89612 -2.58353 0
M  V30 1608 H 153.495 3.71703 -0.258429 0
M  V30 1609 H 153.608 4.33586 -2.03814 0
M  V30 1610 H 151.972 2.34454 -0.995164 0
M  V30 1611 H 152.755 2.17298 -2.65775 0
M  V30 1612 N 155.201 0.870884 1.31352 0
M  V30 1613 C 156.164 0.332243 2.26779 0
M  V30 1614 C 157.164 -0.517302 1.52252 0
M  V30 1615 O 158.354 -0.326477 1.71113 0
M  V30 1616 C 155.486 -0.528066 3.36785 0
M  V30 1617 H 156.679 1.17469 2.75937 0
M  V30 1618 H 154.232 0.64655 1.423 0
M  V30 1619 H 154.967 -1.39167 2.92922 0
M  V30 1620 H 154.752 0.0802582 3.92018 0
M  V30 1621 H 156.242 -0.897179 4.07849 0
M  V30 1622 N 156.679 -1.44442 0.630414 0
M  V30 1623 C 157.904 -2.06927 0.139944 0
M  V30 1624 C 158.329 -1.46795 -1.17613 0
M  V30 1625 O 157.687 -0.569144 -1.72135 0
M  V30 1626 C 157.735 -3.6058 0.0379581 0
M  V30 1627 O 156.839 -3.99937 -1.0062 0
M  V30 1628 H 156.18 -0.658608 0.0844483 0
M  V30 1629 H 158.71 -1.85327 0.866891 0
M  V30 1630 H 158.72 -4.07714 -0.152856 0
M  V30 1631 H 157.395 -4.03728 0.998809 0
M  V30 1632 H 155.972 -3.64436 -0.79001 0
M  V30 1633 N 158.157 -0.370918 -1.53173 0
M  V30 1634 C 159.104 0.473035 -2.259 0
M  V30 1635 C 160.074 1.07311 -1.26781 0
M  V30 1636 O 161.259 1.1046 -1.55574 0
M  V30 1637 C 158.399 1.60405 -3.05556 0
M  V30 1638 C 157.512 1.02863 -4.19575 0
M  V30 1639 C 156.647 2.12918 -4.86661 0
M  V30 1640 C 155.686 1.52869 -5.92704 0
M  V30 1641 N 154.823 2.56779 -6.53459 0
M  V30 1642 H 159.663 -0.153649 -2.97604 0
M  V30 1643 H 157.2 -0.0875946 -1.46839 0
M  V30 1644 H 159.158 2.27034 -3.50016 0
M  V30 1645 H 157.788 2.20131 -2.36097 0
M  V30 1646 H 156.84 0.252465 -3.79561 0
M  V30 1647 H 158.152 0.549642 -4.95762 0
M  V30 1648 H 157.306 2.87356 -5.34333 0
M  V30 1649 H 156.045 2.6417 -4.09958 0
M  V30 1650 H 155.05 0.769479 -5.44389 0
M  V30 1651 H 156.275 1.02435 -6.7133 0
M  V30 1652 H 154.221 3.07235 -5.79606 0
M  V30 1653 H 154.138 2.13583 -7.25202 0
M  V30 1654 H 155.406 3.30903 -7.05779 0
M  V30 1655 N 159.635 1.57281 -0.100228 0
M  V30 1656 C 160.884 1.93713 0.561984 0
M  V30 1657 C 161.197 0.984492 1.69018 0
M  V30 1658 O 162.403 1.24273 2.41389 0
M  V30 1659 C 160.859 3.4421 1.05106 0
M  V30 1660 C 160.467 4.47975 -0.0476628 0
M  V30 1661 C 162.211 3.89595 1.68571 0
M  V30 1662 C 160.118 5.89631 0.457055 0
M  V30 1663 H 159.048 0.723082 0.2137 0
M  V30 1664 H 161.699 1.82644 -0.177057 0
M  V30 1665 H 160.081 3.50449 1.84395 0
M  V30 1666 H 161.255 4.53385 -0.823333 0
M  V30 1667 H 159.57 4.1223 -0.587816 0
M  V30 1668 H 162.167 4.92832 2.07414 0
M  V30 1669 H 162.51 3.28526 2.55688 0
M  V30 1670 H 163.043 3.86078 0.958562 0
M  V30 1671 H 159.782 6.54411 -0.377616 0
M  V30 1672 H 159.302 5.87681 1.19962 0
M  V30 1673 H 160.981 6.40363 0.92437 0
M  V30 1674 N 161.113 -0.173488 1.56642 0
M  V30 1675 C 162.362 -0.888758 1.81063 0
M  V30 1676 C 162.675 -1.83506 0.67712 0
M  V30 1677 O 163.881 -2.59254 0.806206 0
M  V30 1678 C 162.337 -1.63091 3.20826 0
M  V30 1679 C 161.945 -0.728357 4.4204 0
M  V30 1680 C 163.689 -2.33454 3.54541 0
M  V30 1681 C 161.596 -1.47062 5.72823 0
M  V30 1682 H 160.526 -0.335618 0.675186 0
M  V30 1683 H 163.177 -0.141712 1.82952 0
M  V30 1684 H 161.559 -2.42263 3.13248 0
M  V30 1685 H 162.733 0.0262449 4.60793 0
M  V30 1686 H 161.048 -0.134492 4.16183 0
M  V30 1687 H 163.645 -2.89578 4.49498 0
M  V30 1688 H 163.988 -3.08687 2.79317 0
M  V30 1689 H 164.521 -1.61227 3.63663 0
M  V30 1690 H 161.26 -0.760658 6.51072 0
M  V30 1691 H 160.78 -2.1986 5.58052 0
M  V30 1692 H 162.459 -2.01868 6.14702 0
M  V30 1693 N 162.591 -1.51276 -0.441967 0
M  V30 1694 C 163.831 -1.65372 -1.20132 0
M  V30 1695 C 164.195 -0.359871 -1.88597 0
M  V30 1696 O 165.396 -0.376551 -2.66149 0
M  V30 1697 C 163.667 -2.8207 -2.1948 0
M  V30 1698 S 165.226 -3.16467 -3.03964 0
M  V30 1699 H 162.044 -0.582669 -0.407453 0
M  V30 1700 H 164.646 -1.89166 -0.493609 0
M  V30 1701 H 163.35 -3.74523 -1.67812 0
M  V30 1702 H 162.881 -2.6045 -2.94838 0
M  V30 1703 H 164.896 -2.62543 -4.21053 0
M  V30 1704 N 164.069 0.697108 -1.41344 0
M  V30 1705 C 165.032 1.79281 -1.42797 0
M  V30 1706 C 166.032 1.57607 -0.318837 0
M  V30 1707 O 167.222 1.64309 -0.578642 0
M  V30 1708 C 164.354 3.17632 -1.23785 0
M  V30 1709 H 165.547 1.79385 -2.40335 0
M  V30 1710 H 163.1 0.904582 -1.27464 0
M  V30 1711 H 163.835 3.23167 -0.270814 0
M  V30 1712 H 163.62 3.34765 -2.04144 0
M  V30 1713 H 165.11 3.97617 -1.27633 0
M  V30 1714 N 165.547 1.27147 0.931209 0
M  V30 1715 C 166.495 1.09398 2.05268 0
M  V30 1716 C 167.489 0.0180591 1.6939 0
M  V30 1717 O 168.695 0.17551 1.79142 0
M  V30 1718 H 165.07 0.336986 0.672268 0
M  V30 1719 H 167.041 2.04416 2.17386 0
M  V30 1720 C 165.79 0.75424 3.39421 0
M  V30 1721 H 165.113 1.57404 3.67511 0
M  V30 1722 H 166.553 0.669903 4.18674 0
M  V30 1723 C 165.012 -0.541197 3.32525 0
M  V30 1724 O 165.542 -1.57664 3.69466 0
M  V30 1725 N 163.748 -0.535517 2.85623 0
M  V30 1726 H 163.295 0.307511 2.55758 0
M  V30 1727 H 163.253 -1.40236 2.81392 0
M  V30 1728 N 167.025 -1.13721 1.09112 0
M  V30 1729 C 168.436 -1.6648 0.845068 0
M  V30 1730 C 168.787 -1.85911 -0.62701 0
M  V30 1731 O 167.912 -1.57556 -1.48341 0
M  V30 1732 C 168.507 -3.02413 1.52748 0
M  V30 1733 C 167.066 -3.52176 1.32849 0
M  V30 1734 C 166.213 -2.27492 1.58564 0
M  V30 1735 H 169.164 -0.976872 1.25072 0
M  V30 1736 H 169.185 -3.68223 0.958752 0
M  V30 1737 H 168.697 -2.88238 2.59885 0
M  V30 1738 H 166.798 -3.7156 0.278137 0
M  V30 1739 H 166.911 -4.32499 2.0611 0
M  V30 1740 H 165.275 -2.33923 1.00758 0
M  V30 1741 H 166.058 -2.15886 2.66924 0
M  V30 1742 N 168.503 -0.877838 -1.30888 0
M  V30 1743 C 169.743 -0.499301 -1.98208 0
M  V30 1744 C 170.107 0.932649 -1.67826 0
M  V30 1745 O 171.308 1.41694 -2.28421 0
M  V30 1746 C 169.579 -0.758221 -3.49265 0
M  V30 1747 S 171.138 -0.480719 -4.36159 0
M  V30 1748 H 167.956 -0.186062 -0.686223 0
M  V30 1749 H 170.558 -1.13556 -1.59139 0
M  V30 1750 H 169.262 -1.79903 -3.68867 0
M  V30 1751 H 168.793 -0.109247 -3.93248 0
M  V30 1752 H 170.808 0.683698 -4.91467 0
M  V30 1753 N 169.982 1.44106 -0.638065 0
M  V30 1754 C 170.929 2.30715 0.062701 0
M  V30 1755 C 171.899 1.43882 0.829883 0
M  V30 1756 O 173.084 1.72775 0.809532 0
M  V30 1757 C 170.224 3.29258 1.03358 0
M  V30 1758 C 169.337 4.31192 0.26409 0
M  V30 1759 C 168.472 5.16825 1.22741 0
M  V30 1760 C 167.511 6.10462 0.447475 0
M  V30 1761 N 166.648 6.8877 1.36161 0
M  V30 1762 H 171.488 2.90096 -0.681781 0
M  V30 1763 H 169.025 1.42925 -0.347988 0
M  V30 1764 H 170.983 3.84886 1.60992 0
M  V30 1765 H 169.613 2.71562 1.74511 0
M  V30 1766 H 168.665 3.77981 -0.428295 0
M  V30 1767 H 169.977 4.97619 -0.343052 0
M  V30 1768 H 169.131 5.77004 1.87487 0
M  V30 1769 H 167.87 4.50488 1.86847 0
M  V30 1770 H 166.875 5.49386 -0.213433 0
M  V30 1771 H 168.1 6.78837 -0.188968 0
M  V30 1772 H 166.046 6.25096 1.98975 0
M  V30 1773 H 165.963 7.51663 0.808656 0
M  V30 1774 H 167.231 7.53467 1.99769 0
M  V30 1775 N 171.46 0.379036 1.52974 0
M  V30 1776 C 172.392 -0.495963 2.2377 0
M  V30 1777 C 173.405 -1.03517 1.25651 0
M  V30 1778 O 174.594 -0.939249 1.51791 0
M  V30 1779 C 171.694 -1.69894 2.93239 0
M  V30 1780 C 170.867 -1.2889 4.17979 0
M  V30 1781 C 169.926 -2.35543 4.70538 0
M  V30 1782 O 168.952 -1.97375 5.33883 0
M  V30 1783 N 170.154 -3.67318 4.49508 0
M  V30 1784 H 172.919 0.110523 2.99496 0
M  V30 1785 H 170.48 0.204878 1.60598 0
M  V30 1786 H 172.472 -2.40747 3.25304 0
M  V30 1787 H 171.042 -2.212 2.20883 0
M  V30 1788 H 170.262 -0.409676 3.92065 0
M  V30 1789 H 171.55 -0.991443 4.99047 0
M  V30 1790 H 170.948 -4.01095 3.98923 0
M  V30 1791 H 169.505 -4.34235 4.8609 0
M  V30 1792 N 172.938 -1.57226 0.108567 0
M  V30 1793 C 174.187 -1.94008 -0.551703 0
M  V30 1794 C 174.5 -0.993442 -1.68494 0
M  V30 1795 O 175.706 -1.25551 -2.40726 0
M  V30 1796 C 174.162 -3.44763 -1.03279 0
M  V30 1797 C 173.77 -4.47943 0.0714193 0
M  V30 1798 C 175.514 -3.90483 -1.66503 0
M  V30 1799 C 173.421 -5.89865 -0.425779 0
M  V30 1800 H 172.351 -0.724206 -0.209863 0
M  V30 1801 H 175.002 -1.82547 0.186741 0
M  V30 1802 H 173.384 -3.51422 -1.82533 0
M  V30 1803 H 174.558 -4.52942 0.847365 0
M  V30 1804 H 172.873 -4.11913 0.609669 0
M  V30 1805 H 175.47 -4.93925 -2.04798 0
M  V30 1806 H 175.813 -3.29877 -2.53942 0
M  V30 1807 H 176.346 -3.86581 -0.938074 0
M  V30 1808 H 173.085 -6.54202 0.412316 0
M  V30 1809 H 172.605 -5.88309 -1.16843 0
M  V30 1810 H 174.284 -6.40844 -0.890397 0
M  V30 1811 N 174.416 0.165178 -1.56732 0
M  V30 1812 C 175.379 1.18822 -1.95995 0
M  V30 1813 C 176.379 1.3685 -0.84431 0
M  V30 1814 O 177.569 1.34152 -1.11126 0
M  V30 1815 C 174.701 2.5521 -2.26011 0
M  V30 1816 H 175.894 0.851825 -2.87548 0
M  V30 1817 H 173.447 0.407857 -1.50885 0
M  V30 1818 H 174.182 2.93852 -1.37191 0
M  V30 1819 H 173.967 2.43489 -3.07336 0
M  V30 1820 H 175.457 3.28927 -2.57288 0
M  V30 1821 N 175.894 1.51508 0.433938 0
M  V30 1822 C 176.826 1.69266 1.54537 0
M  V30 1823 C 177.839 0.573276 1.52373 0
M  V30 1824 O 179.028 0.847698 1.57087 0
M  V30 1825 C 176.128 1.69524 2.93453 0
M  V30 1826 C 175.301 2.98101 3.20085 0
M  V30 1827 C 174.36 2.90502 4.38742 0
M  V30 1828 O 173.386 3.64442 4.3723 0
M  V30 1829 N 174.588 2.06586 5.42496 0
M  V30 1830 H 177.353 2.65145 1.39708 0
M  V30 1831 H 174.914 1.49437 0.622922 0
M  V30 1832 H 176.906 1.62004 3.70859 0
M  V30 1833 H 175.476 0.812245 3.01863 0
M  V30 1834 H 174.696 3.19464 2.30947 0
M  V30 1835 H 175.984 3.83207 3.34708 0
M  V30 1836 H 175.382 1.45896 5.46563 0
M  V30 1837 H 173.939 2.04943 6.18742 0
M  V30 1838 N 177.372 -0.689602 1.41712 0
M  V30 1839 C 178.621 -1.44534 1.40686 0
M  V30 1840 C 178.934 -1.95588 0.0213352 0
M  V30 1841 O 180.14 -2.71271 -0.111534 0
M  V30 1842 C 178.596 -2.61387 2.47396 0
M  V30 1843 C 178.204 -2.17094 3.91885 0
M  V30 1844 C 179.948 -3.38986 2.55517 0
M  V30 1845 C 177.855 -3.3094 4.90135 0
M  V30 1846 H 176.785 -0.542925 0.52321 0
M  V30 1847 H 179.436 -0.748054 1.6756 0
M  V30 1848 H 177.818 -3.33412 2.13664 0
M  V30 1849 H 178.992 -1.52318 4.34897 0
M  V30 1850 H 177.307 -1.52473 3.8748 0
M  V30 1851 H 179.904 -4.23747 3.26102 0
M  V30 1852 H 180.247 -3.84578 1.59391 0
M  V30 1853 H 180.78 -2.74021 2.8837 0
M  V30 1854 H 177.519 -2.90355 5.87685 0
M  V30 1855 H 177.039 -3.94546 4.51767 0
M  V30 1856 H 178.718 -3.9663 5.11169 0
M  V30 1857 N 178.85 -1.27639 -0.924453 0
M  V30 1858 C 179.797 -1.10644 -2.0255 0
M  V30 1859 C 180.767 -0.00658438 -1.66099 0
M  V30 1860 O 181.952 -0.16952 -1.90045 0
M  V30 1861 C 179.092 -0.76309 -3.36557 0
M  V30 1862 C 178.205 -1.94091 -3.85944 0
M  V30 1863 C 177.34 -1.53914 -5.08413 0
M  V30 1864 C 176.379 -2.68425 -5.50104 0
M  V30 1865 N 175.516 -2.28815 -6.63768 0
M  V30 1866 H 180.356 -2.04858 -2.16419 0
M  V30 1867 H 177.893 -1.01974 -1.06017 0
M  V30 1868 H 179.851 -0.544822 -4.13627 0
M  V30 1869 H 178.481 0.142102 -3.22487 0
M  V30 1870 H 177.533 -2.27162 -3.05125 0
M  V30 1871 H 178.845 -2.7998 -4.12811 0
M  V30 1872 H 177.999 -1.28231 -5.92994 0
M  V30 1873 H 176.738 -0.651391 -4.8333 0
M  V30 1874 H 175.743 -2.94819 -4.64071 0
M  V30 1875 H 176.968 -3.57826 -5.7718 0
M  V30 1876 H 174.914 -1.42495 -6.40337 0
M  V30 1877 H 174.831 -3.08242 -6.90306 0
M  V30 1878 H 176.099 -2.06387 -7.51681 0
M  V30 1879 N 180.328 1.1314 -1.09713 0
M  V30 1880 C 181.558 1.88048 -0.855656 0
M  V30 1881 C 181.966 1.79537 0.596919 0
M  V30 1882 O 181.309 1.16196 1.42282 0
M  V30 1883 C 181.371 3.38314 -1.21589 0
M  V30 1884 C 181.035 3.70605 -2.67397 0
M  V30 1885 C 182.032 3.69596 -3.65643 0
M  V30 1886 C 179.717 4.0017 -3.03593 0
M  V30 1887 C 181.711 3.977 -4.9811 0
M  V30 1888 C 179.398 4.27935 -4.36251 0
M  V30 1889 C 180.396 4.26685 -5.33318 0
M  V30 1890 O 180.084 4.53767 -6.63589 0
M  V30 1891 H 179.816 0.60208 -0.307368 0
M  V30 1892 H 182.37 1.44128 -1.46343 0
M  V30 1893 H 180.6 3.82752 -0.551177 0
M  V30 1894 H 182.289 3.94552 -0.953083 0
M  V30 1895 H 183.055 3.46826 -3.39023 0
M  V30 1896 H 178.934 4.00289 -2.2867 0
M  V30 1897 H 182.478 3.9664 -5.73866 0
M  V30 1898 H 178.375 4.50178 -4.62613 0
M  V30 1899 H 179.143 4.71422 -6.69107 0
M  V30 1900 N 181.806 0.884767 1.30421 0
M  V30 1901 C 182.769 0.356277 2.26414 0
M  V30 1902 C 183.769 -0.501124 1.52792 0
M  V30 1903 O 184.959 -0.30831 1.7145 0
M  V30 1904 C 182.091 -0.492316 3.37326 0
M  V30 1905 H 183.284 1.20389 2.74675 0
M  V30 1906 H 180.837 0.661607 1.41607 0
M  V30 1907 H 181.572 -1.36052 2.94381 0
M  V30 1908 H 181.357 0.121832 3.91911 0
M  V30 1909 H 182.847 -0.853871 4.08777 0
M  V30 1910 N 183.284 -1.43765 0.645699 0
M  V30 1911 C 184.247 -2.29163 -0.0409488 0
M  V30 1912 C 185.247 -1.41813 -0.757996 0
M  V30 1913 O 186.437 -1.63527 -0.600382 0
M  V30 1914 C 183.569 -3.23716 -1.06869 0
M  V30 1915 H 184.762 -2.91366 0.710345 0
M  V30 1916 H 182.315 -1.5092 0.406547 0
M  V30 1917 H 183.05 -2.66393 -1.84947 0
M  V30 1918 H 182.835 -3.88105 -0.558277 0
M  V30 1919 H 184.325 -3.87831 -1.54845 0
M  V30 1920 N 184.763 -0.387143 -1.52771 0
M  V30 1921 C 185.71 0.449048 -2.26389 0
M  V30 1922 C 186.68 1.05961 -1.27912 0
M  V30 1923 O 187.865 1.08804 -1.56737 0
M  V30 1924 C 185.005 1.57155 -3.0724 0
M  V30 1925 C 184.118 0.984066 -4.20643 0
M  V30 1926 C 183.253 2.07745 -4.88892 0
M  V30 1927 C 182.292 1.46574 -5.94292 0
M  V30 1928 N 181.429 2.49834 -6.56146 0
M  V30 1929 H 186.269 -0.185205 -2.97424 0
M  V30 1930 H 183.806 -0.103164 -1.46738 0
M  V30 1931 H 185.764 2.23309 -3.52405 0
M  V30 1932 H 184.394 2.17615 -2.38419 0
M  V30 1933 H 183.446 0.212193 -3.79808 0
M  V30 1934 H 184.758 0.497029 -4.96318 0
M  V30 1935 H 183.912 2.81673 -5.3735 0
M  V30 1936 H 182.651 2.59807 -4.12737 0
M  V30 1937 H 181.656 0.711696 -5.45174 0
M  V30 1938 H 182.881 0.953088 -6.72379 0
M  V30 1939 H 180.827 3.0107 -5.82832 0
M  V30 1940 H 180.744 2.05879 -7.27427 0
M  V30 1941 H 182.012 3.23399 -7.09249 0
M  V30 1942 N 186.241 1.57166 -0.116904 0
M  V30 1943 C 187.191 2.11756 0.845178 0
M  V30 1944 C 188.175 1.03783 1.22955 0
M  V30 1945 O 189.367 1.3002 1.20099 0
M  V30 1946 C 186.496 2.71886 2.09602 0
M  V30 1947 C 185.582 3.86937 1.7361 0
M  V30 1948 N 185.973 4.94073 1.08284 0
M  V30 1949 C 184.271 3.97082 2.03082 0
M  V30 1950 C 184.972 5.74477 0.913855 0
M  V30 1951 N 183.948 5.2423 1.43818 0
M  V30 1952 H 187.75 2.91967 0.336523 0
M  V30 1953 H 185.264 1.62174 0.0856332 0
M  V30 1954 H 187.261 3.09338 2.79492 0
M  V30 1955 H 185.921 1.93138 2.61013 0
M  V30 1956 H 186.932 5.12483 0.747067 0
M  V30 1957 H 183.609 3.29372 2.56554 0
M  V30 1958 H 184.999 6.70701 0.40125 0
M  V30 1959 N 187.719 -0.156864 1.56817 0
M  V30 1960 C 188.967 -0.869404 1.82444 0
M  V30 1961 C 189.288 -1.82147 0.69623 0
M  V30 1962 O 188.558 -1.93847 -0.28287 0
M  V30 1963 H 187.138 -0.324043 0.673056 0
M  V30 1964 H 189.8 -0.153224 1.94297 0
M  V30 1965 H 188.896 -1.43761 2.77019 0
M  V30 1966 N 189.197 -1.51736 -0.425897 0
M  V30 1967 C 190.446 -1.64201 -1.17136 0
M  V30 1968 C 190.759 -0.369705 -1.92074 0
M  V30 1969 O 191.965 -0.373898 -2.68913 0
M  V30 1970 C 190.421 -2.90035 -2.13091 0
M  V30 1971 C 190.029 -4.24312 -1.43747 0
M  V30 1972 C 191.773 -3.1186 -2.87999 0
M  V30 1973 C 189.68 -5.41285 -2.38253 0
M  V30 1974 H 188.61 -0.611624 -0.440944 0
M  V30 1975 H 191.261 -1.78212 -0.437328 0
M  V30 1976 H 189.643 -2.69684 -2.89977 0
M  V30 1977 H 190.817 -4.55086 -0.723408 0
M  V30 1978 H 189.132 -4.08456 -0.809465 0
M  V30 1979 H 191.729 -3.96427 -3.58817 0
M  V30 1980 H 192.072 -2.25403 -3.49999 0
M  V30 1981 H 192.605 -3.32605 -2.18217 0
M  V30 1982 H 189.344 -6.30037 -1.80925 0
M  V30 1983 H 188.864 -5.14872 -3.0768 0
M  V30 1984 H 190.543 -5.73694 -2.99139 0
M  V30 1985 N 190.675 0.682077 -1.42076 0
M  V30 1986 C 191.607 1.80755 -1.40926 0
M  V30 1987 C 192.62 1.59833 -0.309398 0
M  V30 1988 O 193.809 1.69087 -0.572014 0
M  V30 1989 C 190.909 3.17744 -1.17865 0
M  V30 1990 C 190.082 3.65578 -2.40149 0
M  V30 1991 C 189.141 4.81277 -2.12742 0
M  V30 1992 O 188.167 4.92197 -2.85887 0
M  V30 1993 N 189.369 5.69474 -1.12602 0
M  V30 1994 H 192.134 1.82229 -2.37935 0
M  V30 1995 H 189.695 0.864903 -1.36861 0
M  V30 1996 H 191.687 3.9279 -0.9746 0
M  V30 1997 H 190.257 3.11214 -0.294068 0
M  V30 1998 H 189.477 2.81291 -2.76169 0
M  V30 1999 H 190.765 3.94278 -3.21593 0
M  V30 2000 H 190.163 5.63297 -0.520899 0
M  V30 2001 H 188.72 6.44363 -0.981842 0
M  V30 2002 N 192.153 1.28127 0.917671 0
M  V30 2003 C 193.083 1.14248 2.03641 0
M  V30 2004 C 194.064 0.0412748 1.7005 0
M  V30 2005 O 195.249 0.217566 1.92977 0
M  V30 2006 C 192.379 0.799431 3.37974 0
M  V30 2007 C 191.333 1.85497 3.85713 0
M  V30 2008 C 190.659 1.36565 5.16966 0
M  V30 2009 C 191.959 3.26085 4.08002 0
M  V30 2010 H 193.653 2.07835 2.15511 0
M  V30 2011 H 191.199 1.00064 1.03553 0
M  V30 2012 H 193.152 0.689114 4.15727 0
M  V30 2013 H 191.876 -0.172145 3.26146 0
M  V30 2014 H 190.535 1.95437 3.10161 0
M  V30 2015 H 190.183 0.383253 5.01538 0
M  V30 2016 H 189.883 2.07143 5.49878 0
M  V30 2017 H 191.407 1.26848 5.97279 0
M  V30 2018 H 192.821 3.19089 4.76293 0
M  V30 2019 H 191.218 3.94462 4.52238 0
M  V30 2020 H 192.288 3.70394 3.12948 0
M  V30 2021 N 193.631 -1.12557 1.10312 0
M  V30 2022 C 194.561 -2.20341 0.772798 0
M  V30 2023 C 195.542 -1.68198 -0.25365 0
M  V30 2024 O 196.727 -1.93831 -0.119699 0
M  V30 2025 C 193.857 -3.46709 0.202443 0
M  V30 2026 C 192.811 -4.11996 1.15943 0
M  V30 2027 C 192.137 -5.328 0.450345 0
M  V30 2028 C 193.437 -4.5828 2.50552 0
M  V30 2029 H 195.131 -2.48229 1.674 0
M  V30 2030 H 192.677 -1.19308 0.806326 0
M  V30 2031 H 194.63 -4.2138 -0.0407752 0
M  V30 2032 H 193.354 -3.18245 -0.734001 0
M  V30 2033 H 192.013 -3.39305 1.38808 0
M  V30 2034 H 191.661 -5.00602 -0.490531 0
M  V30 2035 H 191.361 -5.7743 1.08851 0
M  V30 2036 H 192.885 -6.10219 0.215642 0
M  V30 2037 H 194.299 -5.2433 2.31843 0
M  V30 2038 H 192.696 -5.13683 3.10242 0
M  V30 2039 H 193.766 -3.72329 3.10643 0
M  V30 2040 N 195.109 -0.891671 -1.2995 0
M  V30 2041 C 196.334 -0.527932 -2.00568 0
M  V30 2042 C 196.759 0.877969 -1.66353 0
M  V30 2043 O 196.117 1.58301 -0.883762 0
M  V30 2044 C 196.165 -0.717745 -3.53385 0
M  V30 2045 O 195.269 0.233376 -4.11739 0
M  V30 2046 H 194.61 -0.20722 -0.630837 0
M  V30 2047 H 197.14 -1.20105 -1.65638 0
M  V30 2048 H 197.15 -0.619307 -4.03272 0
M  V30 2049 H 195.825 -1.74276 -3.77625 0
M  V30 2050 H 194.402 0.0880706 -3.72796 0
M  V30 2051 N 196.587 1.43421 -0.653314 0
M  V30 2052 C 197.834 2.01812 -0.166745 0
M  V30 2053 C 198.162 1.51535 1.21931 0
M  V30 2054 O 197.417 0.698975 1.82792 0
M  V30 2055 C 197.716 3.57176 -0.126623 0
M  V30 2056 C 197.382 4.26798 -1.45444 0
M  V30 2057 C 196.044 4.45534 -1.81805 0
M  V30 2058 C 198.396 4.66225 -2.32989 0
M  V30 2059 C 195.724 5.00961 -3.05377 0
M  V30 2060 C 198.076 5.23021 -3.55853 0
M  V30 2061 C 196.74 5.39973 -3.9241 0
M  V30 2062 H 196.01 0.738484 -0.0610162 0
M  V30 2063 H 198.657 1.71896 -0.84404 0
M  V30 2064 H 196.962 3.86634 0.634123 0
M  V30 2065 H 198.659 4.00112 0.266723 0
M  V30 2066 H 195.249 4.12561 -1.16153 0
M  V30 2067 H 199.433 4.51443 -2.06187 0
M  V30 2068 H 194.689 5.12271 -3.3375 0
M  V30 2069 H 198.863 5.52518 -4.23907 0
M  V30 2070 H 196.49 5.82687 -4.88242 0
M  V30 2071 N 198.065 0.39524 1.52563 0
M  V30 2072 C 199.342 -0.242908 1.94086 0
M  V30 2073 C 199.722 -1.63841 1.33114 0
M  V30 2074 O 199.07 -2.22928 0.501529 0
M  V30 2075 C 199.28 -0.26327 3.48006 0
M  V30 2076 C 200.628 -0.489354 4.21771 0
M  V30 2077 O 201.652 -0.343226 3.54543 0
M  V30 2078 O 200.511 -0.776169 5.4096 0
M  V30 2079 H 197.605 -0.152536 0.812811 0
M  V30 2080 H 200.151 0.450178 1.6362 0
M  V30 2081 H 198.923 0.713985 3.84731 0
M  V30 2082 H 198.546 -1.00103 3.84792 0
M  V30 2083 N 199.544 -1.57102 0.125237 0
M  V30 2084 C 200.492 -2.16905 -0.839927 0
M  V30 2085 C 201.486 -1.11998 -1.27094 0
M  V30 2086 O 202.692 -1.3029 -1.24195 0
M  V30 2087 H 199.067 -0.694252 -0.288995 0
M  V30 2088 H 201.038 -2.96774 -0.311115 0
M  V30 2089 C 199.787 -2.78795 -2.07771 0
M  V30 2090 H 199.11 -3.59221 -1.755 0
M  V30 2091 H 200.55 -3.2417 -2.73295 0
M  V30 2092 C 199.009 -1.76193 -2.87155 0
M  V30 2093 O 199.539 -1.21909 -3.82755 0
M  V30 2094 N 197.745 -1.45991 -2.51267 0
M  V30 2095 H 197.292 -1.90325 -1.73592 0
M  V30 2096 H 197.25 -0.775844 -3.04677 0
M  V30 2097 N 201.022 0.148545 -1.56898 0
M  V30 2098 C 201.932 1.20293 -2.01412 0
M  V30 2099 C 202.948 1.47107 -0.929273 0
M  V30 2100 O 204.124 1.58807 -1.23863 0
M  V30 2101 C 201.189 2.51682 -2.38447 0
M  V30 2102 C 200.25 2.32529 -3.60872 0
M  V30 2103 C 199.483 3.57653 -3.96132 0
M  V30 2104 O 199.706 4.63771 -3.32073 0
M  V30 2105 O 198.64 3.50408 -4.89385 0
M  V30 2106 H 202.466 0.855025 -2.91416 0
M  V30 2107 H 200.051 0.357151 -1.45068 0
M  V30 2108 H 201.933 3.29147 -2.63135 0
M  V30 2109 H 200.608 2.86006 -1.51599 0
M  V30 2110 H 199.515 1.53019 -3.41373 0
M  V30 2111 H 200.848 2.03121 -4.48333 0
M  V30 2112 N 202.5 1.5196 0.417844 0
M  V30 2113 C 203.433 1.69387 1.52916 0
M  V30 2114 C 204.411 0.541419 1.53321 0
M  V30 2115 O 205.595 0.767695 1.72159 0
M  V30 2116 C 202.722 1.72525 2.91467 0
M  V30 2117 C 201.768 2.93967 3.09008 0
M  V30 2118 S 202.601 4.54461 2.83242 0
M  V30 2119 C 203.757 4.60372 4.24038 0
M  V30 2120 H 203.99 2.63382 1.37903 0
M  V30 2121 H 201.523 1.41889 0.608845 0
M  V30 2122 H 203.481 1.75018 3.7132 0
M  V30 2123 H 202.142 0.796733 3.03827 0
M  V30 2124 H 201.335 2.92619 4.10353 0
M  V30 2125 H 200.937 2.89316 2.37007 0
M  V30 2126 H 203.229 4.37213 5.17544 0
M  V30 2127 H 204.172 5.62273 4.30412 0
M  V30 2128 H 204.58 3.89492 4.08602 0
M  V30 2129 N 203.978 -0.674533 1.42435 0
M  V30 2130 C 204.888 -1.81751 1.48337 0
M  V30 2131 C 205.904 -1.69975 0.372099 0
M  V30 2132 O 207.08 -1.91521 0.62304 0
M  V30 2133 C 204.145 -3.17895 1.38361 0
M  V30 2134 C 203.206 -3.41625 2.59982 0
M  V30 2135 C 202.439 -4.71274 2.50473 0
M  V30 2136 O 202.662 -5.49197 1.54075 0
M  V30 2137 O 201.596 -4.96254 3.4061 0
M  V30 2138 H 205.422 -1.79728 2.44809 0
M  V30 2139 H 203.007 -0.830312 1.24202 0
M  V30 2140 H 204.889 -3.99136 1.35161 0
M  V30 2141 H 203.564 -3.20555 0.450144 0
M  V30 2142 H 202.471 -2.60231 2.68757 0
M  V30 2143 H 203.804 -3.43796 3.52229 0
M  V30 2144 N 205.456 -1.28612 -0.910864 0
M  V30 2145 C 206.386 -1.15326 -2.03032 0
M  V30 2146 C 207.367 -0.0502924 -1.70026 0
M  V30 2147 O 208.552 -0.227797 -1.92859 0
M  V30 2148 C 205.682 -0.817343 -3.37545 0
M  V30 2149 C 204.636 -1.8754 -3.84724 0
M  V30 2150 C 203.962 -1.39305 -5.16235 0
M  V30 2151 C 205.262 -3.28244 -4.06267 0
M  V30 2152 H 206.956 -2.08975 -2.14406 0
M  V30 2153 H 204.502 -1.00612 -1.03021 0
M  V30 2154 H 206.455 -0.711151 -4.15356 0
M  V30 2155 H 205.179 0.154846 -3.26233 0
M  V30 2156 H 203.838 -1.97079 -3.09121 0
M  V30 2157 H 203.486 -0.409846 -5.01328 0
M  V30 2158 H 203.186 -2.10057 -5.48771 0
M  V30 2159 H 204.71 -1.30014 -5.96598 0
M  V30 2160 H 206.124 -3.21611 -4.74594 0
M  V30 2161 H 204.521 -3.96855 -4.5014 0
M  V30 2162 H 205.591 -3.72048 -3.10979 0
M  V30 2163 N 206.934 1.1197 -1.10907 0
M  V30 2164 C 207.897 2.16031 -0.765707 0
M  V30 2165 C 208.897 1.59393 0.212235 0
M  V30 2166 O 210.087 1.74196 -0.0115441 0
M  V30 2167 C 207.219 3.40632 -0.135053 0
M  V30 2168 H 208.412 2.47919 -1.68748 0
M  V30 2169 H 205.965 1.27061 -0.910226 0
M  V30 2170 H 206.7 3.14348 0.797218 0
M  V30 2171 H 206.485 3.8302 -0.838937 0
M  V30 2172 H 207.975 4.17505 0.0892469 0
M  V30 2173 N 208.412 0.89855 1.29475 0
M  V30 2174 C 209.359 0.373819 2.27753 0
M  V30 2175 C 210.329 -0.543444 1.56958 0
M  V30 2176 O 211.514 -0.468934 1.84948 0
M  V30 2177 C 208.654 -0.393648 3.42848 0
M  V30 2178 C 207.767 0.554379 4.28428 0
M  V30 2179 C 206.902 -0.230026 5.30702 0
M  V30 2180 C 205.941 0.712599 6.07938 0
M  V30 2181 N 205.078 -0.0373283 7.0209 0
M  V30 2182 H 209.918 1.21699 2.72017 0
M  V30 2183 H 207.455 0.611456 1.33789 0
M  V30 2184 H 209.413 -0.85466 4.08352 0
M  V30 2185 H 208.043 -1.20128 2.99615 0
M  V30 2186 H 207.095 1.13391 3.63107 0
M  V30 2187 H 208.407 1.27597 4.82204 0
M  V30 2188 H 207.561 -0.752288 6.02018 0
M  V30 2189 H 206.3 -0.984758 4.77654 0
M  V30 2190 H 205.305 1.24637 5.35486 0
M  V30 2191 H 206.53 1.46664 6.63074 0
M  V30 2192 H 204.476 -0.774348 6.51414 0
M  V30 2193 H 204.393 0.624374 7.53417 0
M  V30 2194 H 205.661 -0.539891 7.77628 0
M  V30 2195 N 209.89 -1.43072 0.660911 0
M  V30 2196 C 211.136 -2.0202 0.177708 0
M  V30 2197 C 211.469 -1.52066 -1.20787 0
M  V30 2198 O 210.744 -0.716987 -1.80802 0
M  V30 2199 C 211.027 -3.59561 0.197019 0
M  V30 2200 C 210.88 -4.19727 1.61706 0
M  V30 2201 C 212.199 -4.37664 -0.462396 0
M  V30 2202 H 209.318 -0.734034 0.0660494 0
M  V30 2203 H 211.96 -1.70272 0.843058 0
M  V30 2204 H 210.11 -3.86739 -0.369527 0
M  V30 2205 H 211.782 -4.03553 2.23479 0
M  V30 2206 H 210.025 -3.76084 2.16201 0
M  V30 2207 H 210.696 -5.28834 1.58237 0
M  V30 2208 H 213.172 -4.16095 0.0197215 0
M  V30 2209 H 212.048 -5.47305 -0.418188 0
M  V30 2210 H 212.309 -4.14493 -1.53778 0
M  V30 2211 N 211.368 -0.403325 -1.52352 0
M  V30 2212 C 212.614 0.174605 -2.02047 0
M  V30 2213 C 212.947 1.45282 -1.28867 0
M  V30 2214 O 212.222 1.90483 -0.393257 0
M  V30 2215 C 212.505 0.428238 -3.57545 0
M  V30 2216 C 212.358 -0.866248 -4.4138 0
M  V30 2217 C 213.677 1.21287 -4.23057 0
M  V30 2218 H 210.796 0.0619851 -0.734389 0
M  V30 2219 H 213.438 -0.53565 -1.82293 0
M  V30 2220 H 211.588 1.03327 -3.74507 0
M  V30 2221 H 213.26 -1.50265 -4.3614 0
M  V30 2222 H 211.503 -1.47851 -4.07827 0
M  V30 2223 H 212.174 -0.643249 -5.48239 0
M  V30 2224 H 214.65 0.700703 -4.10158 0
M  V30 2225 H 213.526 1.35909 -5.31808 0
M  V30 2226 H 213.787 2.23193 -3.81625 0
M  V30 2227 N 212.846 1.57033 -0.133567 0
M  V30 2228 C 213.793 2.16074 0.811208 0
M  V30 2229 C 214.763 1.08979 1.2535 0
M  V30 2230 O 215.948 1.36958 1.32843 0
M  V30 2231 C 213.088 2.77595 2.05024 0
M  V30 2232 C 212.201 3.99042 1.65498 0
M  V30 2233 C 211.336 4.48603 2.84479 0
M  V30 2234 C 210.375 5.62547 2.41262 0
M  V30 2235 N 209.512 6.06787 3.53206 0
M  V30 2236 H 214.352 2.96477 0.300906 0
M  V30 2237 H 211.889 1.46462 0.136822 0
M  V30 2238 H 213.847 3.11402 2.77642 0
M  V30 2239 H 212.477 1.99859 2.53488 0
M  V30 2240 H 211.529 3.71302 0.826981 0
M  V30 2241 H 212.841 4.81629 1.29748 0
M  V30 2242 H 211.995 4.84395 3.65303 0
M  V30 2243 H 210.734 3.64995 3.23465 0
M  V30 2244 H 209.739 5.26345 1.58874 0
M  V30 2245 H 210.964 6.47931 2.03377 0
M  V30 2246 H 208.91 5.26117 3.91838 0
M  V30 2247 H 208.827 6.84266 3.21427 0
M  V30 2248 H 210.095 6.4722 4.34427 0
M  V30 2249 N 214.325 -0.140222 1.56975 0
M  V30 2250 C 215.55 -0.870414 1.88251 0
M  V30 2251 C 215.975 -1.73637 0.723312 0
M  V30 2252 O 215.333 -1.78329 -0.32689 0
M  V30 2253 C 215.381 -1.69737 3.18154 0
M  V30 2254 O 214.485 -2.80229 3.02565 0
M  V30 2255 H 213.826 -0.242025 0.61832 0
M  V30 2256 H 216.356 -0.128999 2.04193 0
M  V30 2257 H 216.366 -2.09099 3.50345 0
M  V30 2258 H 215.041 -1.06152 4.02125 0
M  V30 2259 H 213.618 -2.44224 2.81796 0
M  V30 2260 N 215.803 -1.52179 -0.40978 0
M  V30 2261 C 216.753 -1.71857 -1.49831 0
M  V30 2262 C 217.737 -0.572469 -1.50372 0
M  V30 2263 O 218.929 -0.829509 -1.56359 0
M  V30 2264 C 216.058 -1.87206 -2.87765 0
M  V30 2265 C 215.144 -3.07685 -2.91875 0
M  V30 2266 N 215.535 -4.30403 -2.65683 0
M  V30 2267 C 213.833 -3.07505 -3.23043 0
M  V30 2268 C 214.534 -5.11868 -2.76344 0
M  V30 2269 N 213.51 -4.47101 -3.09195 0
M  V30 2270 H 217.312 -2.64381 -1.28375 0
M  V30 2271 H 214.826 -1.50203 -0.617479 0
M  V30 2272 H 216.823 -1.99419 -3.66111 0
M  V30 2273 H 215.483 -0.958814 -3.10221 0
M  V30 2274 H 216.494 -4.58887 -2.4009 0
M  V30 2275 H 213.171 -2.25915 -3.51096 0
M  V30 2276 H 214.561 -6.19634 -2.59814 0
M  V30 2277 N 217.281 0.66697 -1.42791 0
M  V30 2278 C 218.692 1.2478 -1.38877 0
M  V30 2279 C 219.043 1.96012 -0.0859426 0
M  V30 2280 O 218.168 2.00463 0.815081 0
M  V30 2281 C 218.763 2.26938 -2.51564 0
M  V30 2282 C 217.322 2.80529 -2.50959 0
M  V30 2283 C 216.469 1.54965 -2.29959 0
M  V30 2284 H 219.42 0.459853 -1.51892 0
M  V30 2285 H 219.441 3.08834 -2.22265 0
M  V30 2286 H 218.953 1.75065 -3.46372 0
M  V30 2287 H 217.054 3.36502 -1.59991 0
M  V30 2288 H 217.167 3.29012 -3.48265 0
M  V30 2289 H 215.531 1.81817 -1.78366 0
M  V30 2290 H 216.314 1.05047 -3.26833 0
M  V30 2291 N 218.759 1.29093 0.90403 0
M  V30 2292 C 219.984 1.19809 1.69294 0
M  V30 2293 C 220.409 -0.238481 1.86582 0
M  V30 2294 O 219.767 -1.1723 1.383 0
M  V30 2295 C 219.815 1.91202 3.05736 0
M  V30 2296 O 218.919 1.22611 3.93752 0
M  V30 2297 H 218.26 0.415385 0.518027 0
M  V30 2298 H 220.79 1.70586 1.12967 0
M  V30 2299 H 220.8 1.99487 3.55906 0
M  V30 2300 H 219.475 2.95692 2.92471 0
M  V30 2301 H 218.052 1.22554 3.52186 0
M  V30 2302 N 220.237 -1.11381 1.11499 0
M  V30 2303 C 221.2 -2.15622 0.777153 0
M  V30 2304 C 222.2 -1.59504 -0.203779 0
M  V30 2305 O 223.39 -1.74188 0.020782 0
M  V30 2306 C 220.522 -3.40556 0.153116 0
M  V30 2307 H 221.715 -2.47021 1.70061 0
M  V30 2308 H 219.268 -1.26577 0.916952 0
M  V30 2309 H 220.003 -3.14767 -0.780536 0
M  V30 2310 H 219.788 -3.8257 0.859238 0
M  V30 2311 H 221.278 -4.17546 -0.0671044 0
M  V30 2312 N 221.715 -0.905404 -1.28997 0
M  V30 2313 C 222.662 -0.385892 -2.27551 0
M  V30 2314 C 223.632 0.535113 -1.57244 0
M  V30 2315 O 224.817 0.459119 -1.85194 0
M  V30 2316 C 221.957 0.375461 -3.43051 0
M  V30 2317 C 221.07 -0.577092 -4.28128 0
M  V30 2318 C 220.205 0.201879 -5.30816 0
M  V30 2319 C 219.244 -0.744829 -6.07551 0
M  V30 2320 N 218.381 9.42587e-05 -7.021 0
M  V30 2321 H 223.221 -1.23139 -2.71368 0
M  V30 2322 H 220.758 -0.618542 -1.33463 0
M  V30 2323 H 222.716 0.832992 -4.088 0
M  V30 2324 H 221.346 1.18537 -3.00248 0
M  V30 2325 H 220.398 -1.15315 -3.62501 0
M  V30 2326 H 221.71 -1.30152 -4.8152 0
M  V30 2327 H 220.864 0.720351 -6.02408 0
M  V30 2328 H 219.603 0.959413 -4.7817 0
M  V30 2329 H 218.608 -1.27475 -5.34818 0
M  V30 2330 H 219.833 -1.50178 -6.62286 0
M  V30 2331 H 217.779 0.739791 -6.51815 0
M  V30 2332 H 217.696 -0.664321 -7.53076 0
M  V30 2333 H 218.964 0.498644 -7.77903 0
M  V30 2334 N 223.193 1.4272 -0.668489 0
M  V30 2335 C 224.126 2.28111 0.0637898 0
M  V30 2336 C 225.104 1.40705 0.814912 0
M  V30 2337 O 226.288 1.70146 0.81134 0
M  V30 2338 C 223.415 3.20429 1.0974 0
M  V30 2339 C 222.461 4.24197 0.442579 0
M  V30 2340 S 223.294 5.29563 -0.795173 0
M  V30 2341 C 224.45 6.25449 0.237516 0
M  V30 2342 H 224.683 2.8987 -0.660521 0
M  V30 2343 H 222.216 1.47456 -0.457821 0
M  V30 2344 H 224.174 3.74158 1.68868 0
M  V30 2345 H 222.835 2.57818 1.79411 0
M  V30 2346 H 222.028 4.88954 1.22227 0
M  V30 2347 H 221.63 3.73925 -0.0749554 0
M  V30 2348 H 223.922 6.68524 1.09915 0
M  V30 2349 H 224.865 7.07104 -0.375421 0
M  V30 2350 H 225.273 5.61511 0.580167 0
M  V30 2351 N 224.671 0.411399 1.52136 0
M  V30 2352 C 225.917 -0.163888 2.02137 0
M  V30 2353 C 226.25 -1.44597 1.29636 0
M  V30 2354 O 225.525 -1.90272 0.403353 0
M  V30 2355 C 225.808 -0.40927 3.57767 0
M  V30 2356 C 225.661 0.889643 4.40914 0
M  V30 2357 C 226.98 -1.19042 4.23694 0
M  V30 2358 H 224.099 -0.0580896 0.734707 0
M  V30 2359 H 226.741 0.54531 1.82007 0
M  V30 2360 H 224.891 -1.0134 3.7505 0
M  V30 2361 H 226.563 1.52575 4.35337 0
M  V30 2362 H 224.806 1.50011 4.07037 0
M  V30 2363 H 225.477 0.672314 5.4789 0
M  V30 2364 H 227.953 -0.678942 4.10524 0
M  V30 2365 H 226.829 -1.33086 5.32522 0
M  V30 2366 H 227.09 -2.21166 3.82803 0
M  V30 2367 N 226.149 -1.5696 0.141893 0
M  V30 2368 C 227.079 -2.19516 -0.795936 0
M  V30 2369 C 228.06 -1.14187 -1.26077 0
M  V30 2370 O 229.245 -1.42511 -1.31925 0
M  V30 2371 C 226.375 -2.81272 -2.03723 0
M  V30 2372 C 225.329 -3.92384 -1.70936 0
M  V30 2373 C 224.655 -4.41052 -3.02287 0
M  V30 2374 C 225.955 -5.13403 -0.959954 0
M  V30 2375 H 227.649 -2.98138 -0.274596 0
M  V30 2376 H 225.195 -1.43406 -0.130636 0
M  V30 2377 H 227.148 -3.237 -2.69808 0
M  V30 2378 H 225.872 -1.99973 -2.58221 0
M  V30 2379 H 224.531 -3.50566 -1.07232 0
M  V30 2380 H 224.179 -3.56582 -3.54765 0
M  V30 2381 H 223.879 -5.15993 -2.81114 0
M  V30 2382 H 225.403 -4.86146 -3.69451 0
M  V30 2383 H 226.817 -5.52706 -1.52279 0
M  V30 2384 H 225.214 -5.94073 -0.848357 0
M  V30 2385 H 226.284 -4.84875 0.0492434 0
M  V30 2386 N 227.627 0.131896 -1.57047 0
M  V30 2387 C 228.867 0.847972 -1.85981 0
M  V30 2388 C 229.231 1.77655 -0.7282 0
M  V30 2389 O 230.432 2.53322 -0.898968 0
M  V30 2390 C 228.703 1.58919 -3.20124 0
M  V30 2391 S 230.262 2.34862 -3.70655 0
M  V30 2392 H 227.08 0.283273 -0.652133 0
M  V30 2393 H 229.682 0.107057 -1.95207 0
M  V30 2394 H 228.386 0.898771 -4.00438 0
M  V30 2395 H 227.917 2.37073 -3.13942 0
M  V30 2396 H 229.932 3.60344 -3.41126 0
M  V30 2397 N 229.106 1.52395 0.401703 0
M  V30 2398 C 230.355 1.66044 1.14509 0
M  V30 2399 C 230.668 0.400216 1.91462 0
M  V30 2400 O 231.874 0.416632 2.68284 0
M  V30 2401 C 230.33 2.93388 2.0845 0
M  V30 2402 C 229.938 4.26545 1.36978 0
M  V30 2403 C 231.682 3.16402 2.83001 0
M  V30 2404 C 229.589 5.45007 2.29611 0
M  V30 2405 H 228.519 0.618562 0.431158 0
M  V30 2406 H 231.17 1.78886 0.40892 0
M  V30 2407 H 229.552 2.74263 2.8565 0
M  V30 2408 H 230.726 4.56179 0.650916 0
M  V30 2409 H 229.041 4.09692 0.74438 0
M  V30 2410 H 231.638 4.02085 3.52465 0
M  V30 2411 H 231.981 2.30943 3.46368 0
M  V30 2412 H 232.514 3.36034 2.12898 0
M  V30 2413 H 229.253 6.32835 1.70879 0
M  V30 2414 H 228.773 5.19702 2.9945 0
M  V30 2415 H 230.452 5.7838 2.89974 0
M  V30 2416 N 230.584 -0.659388 1.43143 0
M  V30 2417 C 231.547 -1.75432 1.47501 0
M  V30 2418 C 232.547 -1.56707 0.360512 0
M  V30 2419 O 233.737 -1.62717 0.622002 0
M  V30 2420 C 230.869 -3.14239 1.32162 0
M  V30 2421 H 232.062 -1.7295 2.45006 0
M  V30 2422 H 229.615 -0.870469 1.29817 0
M  V30 2423 H 230.35 -3.22336 0.356401 0
M  V30 2424 H 230.135 -3.29235 2.12948 0
M  V30 2425 H 231.625 -3.94094 1.3813 0
M  V30 2426 N 232.062 -1.29571 -0.897171 0
M  V30 2427 C 233.29 -1.20583 -1.68129 0
M  V30 2428 C 233.705 0.233181 -1.87354 0
M  V30 2429 O 233.062 1.15579 -1.41236 0
M  V30 2430 C 233.113 -1.91772 -3.06441 0
M  V30 2431 O 232.834 -3.30053 -2.88091 0
M  V30 2432 C 234.335 -1.89291 -4.00854 0
M  V30 2433 H 231.555 -0.417826 -0.525036 0
M  V30 2434 H 234.099 -1.70987 -1.12177 0
M  V30 2435 H 232.254 -1.45196 -3.59161 0
M  V30 2436 H 232.668 -3.65942 -3.75748 0
M  V30 2437 H 234.142 -2.43662 -4.95311 0
M  V30 2438 H 234.619 -0.869014 -4.30517 0
M  V30 2439 H 235.225 -2.35622 -3.54066 0
M  V30 2440 N 233.54 1.10788 -1.12088 0
M  V30 2441 C 234.817 1.79136 -0.785476 0
M  V30 2442 C 235.197 1.98246 0.725377 0
M  V30 2443 O 234.545 1.57258 1.65778 0
M  V30 2444 C 234.755 3.12375 -1.55636 0
M  V30 2445 C 236.103 3.8731 -1.74001 0
M  V30 2446 O 237.127 3.22085 -1.52117 0
M  V30 2447 O 235.986 5.04369 -2.10415 0
M  V30 2448 H 233.08 0.776226 -0.285311 0
M  V30 2449 H 235.626 1.1747 -1.2247 0
M  V30 2450 H 234.398 2.93863 -2.5838 0
M  V30 2451 H 234.021 3.81758 -1.11114 0
M  V30 2452 N 235.018 0.912232 1.28515 0
M  V30 2453 C 236.295 0.463597 1.90027 0
M  V30 2454 C 236.675 -1.05753 1.82701 0
M  V30 2455 O 236.023 -1.90492 1.26194 0
M  V30 2456 C 236.233 0.992253 3.34597 0
M  V30 2457 C 237.581 1.04344 4.11579 0
M  V30 2458 O 238.605 0.94079 3.43551 0
M  V30 2459 O 237.464 1.1995 5.33174 0
M  V30 2460 H 234.558 0.146666 0.813891 0
M  V30 2461 H 237.104 1.00292 1.36893 0
M  V30 2462 H 235.876 2.03623 3.34146 0
M  V30 2463 H 235.499 0.433672 3.95228 0
M  V30 2464 N 236.496 -1.42363 0.676048 0
M  V30 2465 C 237.721 -2.06377 0.205705 0
M  V30 2466 C 238.146 -1.50463 -1.12883 0
M  V30 2467 O 237.504 -0.623619 -1.70237 0
M  V30 2468 C 237.552 -3.60277 0.152655 0
M  V30 2469 O 236.656 -4.02935 -0.87845 0
M  V30 2470 H 235.997 -0.655588 0.105359 0
M  V30 2471 H 238.527 -1.82475 0.925412 0
M  V30 2472 H 238.537 -4.07993 -0.0230675 0
M  V30 2473 H 237.212 -4.00346 1.12675 0
M  V30 2474 H 235.789 -3.66764 -0.673668 0
M  V30 2475 N 237.974 -0.419461 -1.51915 0
M  V30 2476 C 238.924 0.418496 -2.24126 0
M  V30 2477 C 239.908 1.00495 -1.25656 0
M  V30 2478 O 241.1 0.926058 -1.50842 0
M  V30 2479 C 238.229 1.52899 -3.07371 0
M  V30 2480 C 237.315 0.952797 -4.13258 0
M  V30 2481 N 237.706 0.104175 -5.05693 0
M  V30 2482 C 236.004 1.22224 -4.28926 0
M  V30 2483 C 236.705 -0.21752 -5.81293 0
M  V30 2484 N 235.681 0.394293 -5.42168 0
M  V30 2485 H 239.483 -0.236048 -2.92951 0
M  V30 2486 H 236.997 -0.230481 -1.60756 0
M  V30 2487 H 238.994 2.14199 -3.57665 0
M  V30 2488 H 237.654 2.18605 -2.40088 0
M  V30 2489 H 238.665 -0.260924 -5.17242 0
M  V30 2490 H 235.342 1.87812 -3.72871 0
M  V30 2491 H 236.732 -0.906992 -6.6575 0
M  V30 2492 N 239.452 1.56882 -0.150215 0
M  V30 2493 C 240.677 2.01027 0.510184 0
M  V30 2494 C 241.102 1.02966 1.57415 0
M  V30 2495 O 240.46 0.00590158 1.81299 0
M  V30 2496 C 240.508 3.43899 1.08472 0
M  V30 2497 O 239.612 3.4885 2.19948 0
M  V30 2498 H 238.953 0.652233 0.124451 0
M  V30 2499 H 241.483 2.03093 -0.247894 0
M  V30 2500 H 241.493 3.82766 1.41259 0
M  V30 2501 H 240.168 4.14776 0.305582 0
M  V30 2502 H 238.745 3.21827 1.88366 0
M  V30 2503 N 240.93 -0.123565 1.57115 0
M  V30 2504 C 241.86 -1.15309 2.03042 0
M  V30 2505 C 242.841 -1.43454 0.914061 0
M  V30 2506 O 244.026 -1.53973 1.18347 0
M  V30 2507 C 241.156 -2.48043 2.43089 0
M  V30 2508 C 240.11 -2.3437 3.58127 0
M  V30 2509 C 239.436 -3.72026 3.84059 0
M  V30 2510 C 240.736 -1.80804 4.90007 0
M  V30 2511 H 242.43 -0.771102 2.893 0
M  V30 2512 H 239.976 -0.369479 1.39179 0
M  V30 2513 H 241.929 -3.20311 2.73823 0
M  V30 2514 H 240.653 -2.88122 1.53796 0
M  V30 2515 H 239.312 -1.64551 3.27595 0
M  V30 2516 H 238.96 -4.09582 2.91979 0
M  V30 2517 H 238.66 -3.63732 4.6149 0
M  V30 2518 H 240.184 -4.45806 4.1724 0
M  V30 2519 H 241.598 -2.42886 5.19307 0
M  V30 2520 H 239.995 -1.83343 5.71407 0
M  V30 2521 H 241.065 -0.76528 4.78823 0
M  V30 2522 N 242.408 -1.52605 -0.393616 0
M  V30 2523 C 243.633 -1.71592 -1.16495 0
M  V30 2524 C 244.058 -0.43133 -1.83088 0
M  V30 2525 O 243.416 0.612523 -1.7064 0
M  V30 2526 C 243.464 -2.86318 -2.19213 0
M  V30 2527 O 242.568 -2.52969 -3.257 0
M  V30 2528 H 241.909 -0.570734 -0.33935 0
M  V30 2529 H 244.439 -1.99377 -0.459324 0
M  V30 2530 H 244.449 -3.1168 -2.63286 0
M  V30 2531 H 243.124 -3.79511 -1.7013 0
M  V30 2532 H 241.701 -2.38332 -2.86797 0
M  V30 2533 N 243.887 0.651787 -1.4349 0
M  V30 2534 C 245.127 1.42345 -1.46688 0
M  V30 2535 C 245.491 1.91793 -0.0891023 0
M  V30 2536 O 246.692 2.688 0.00423594 0
M  V30 2537 C 244.963 2.57221 -2.48137 0
M  V30 2538 S 246.522 3.45725 -2.70221 0
M  V30 2539 H 243.34 0.485878 -0.51908 0
M  V30 2540 H 245.942 0.756578 -1.80267 0
M  V30 2541 H 244.646 2.1917 -3.46976 0
M  V30 2542 H 244.177 3.28757 -2.16061 0
M  V30 2543 H 246.192 4.53996 -2.00255 0
M  V30 2544 N 245.365 1.30045 0.890287 0
M  V30 2545 C 246.295 1.18541 2.01172 0
M  V30 2546 C 247.276 0.0773356 1.69924 0
M  V30 2547 O 248.461 0.25845 1.92473 0
M  V30 2548 C 245.591 0.870941 3.36202 0
M  V30 2549 C 244.545 1.93637 3.81692 0
M  V30 2550 C 243.871 1.475 5.13953 0
M  V30 2551 C 245.171 3.34666 4.00994 0
M  V30 2552 H 246.865 2.12359 2.11054 0
M  V30 2553 H 244.411 1.02238 1.01407 0
M  V30 2554 H 246.364 0.777141 4.14172 0
M  V30 2555 H 245.088 -0.102926 3.26438 0
M  V30 2556 H 243.747 2.01972 3.05946 0
M  V30 2557 H 243.395 0.489551 5.00612 0
M  V30 2558 H 243.095 2.1876 5.4536 0
M  V30 2559 H 244.619 1.39489 5.94454 0
M  V30 2560 H 246.033 3.2912 4.69417 0
M  V30 2561 H 244.43 4.03966 4.43769 0
M  V30 2562 H 245.5 3.76949 3.05021 0
M  V30 2563 N 246.843 -1.10192 1.12674 0
M  V30 2564 C 248.068 -1.86523 0.906853 0
M  V30 2565 C 248.493 -1.80221 -0.538711 0
M  V30 2566 O 247.851 -1.17396 -1.38158 0
M  V30 2567 C 247.899 -3.32758 1.3894 0
M  V30 2568 O 247.003 -4.08449 0.5695 0
M  V30 2569 H 246.344 -0.578678 0.325619 0
M  V30 2570 H 248.874 -1.39203 1.49946 0
M  V30 2571 H 248.884 -3.83608 1.38958 0
M  V30 2572 H 247.559 -3.36661 2.44197 0
M  V30 2573 H 246.136 -3.67427 0.636528 0
M  V30 2574 N 248.321 -0.919034 -1.28029 0
M  V30 2575 C 249.251 -0.428581 -2.29533 0
M  V30 2576 C 250.232 0.50659 -1.62381 0
M  V30 2577 O 251.417 0.413195 -1.89753 0
M  V30 2578 C 248.547 0.327388 -3.45753 0
M  V30 2579 C 247.501 -0.519137 -4.2484 0
M  V30 2580 C 246.827 0.365486 -5.33449 0
M  V30 2581 C 248.127 -1.77914 -4.91064 0
M  V30 2582 H 249.821 -1.27687 -2.70807 0
M  V30 2583 H 247.367 -0.615428 -1.30186 0
M  V30 2584 H 249.32 0.681378 -4.15855 0
M  V30 2585 H 248.044 1.20963 -3.03374 0
M  V30 2586 H 246.703 -0.855717 -3.56473 0
M  V30 2587 H 246.351 1.24642 -4.87312 0
M  V30 2588 H 246.051 -0.197356 -5.87268 0
M  V30 2589 H 247.575 0.715241 -6.06396 0
M  V30 2590 H 248.989 -1.49374 -5.53498 0
M  V30 2591 H 247.386 -2.2848 -5.54903 0
M  V30 2592 H 248.456 -2.50382 -4.15255 0
M  V30 2593 N 249.799 1.42003 -0.683588 0
M  V30 2594 C 250.746 2.30798 -0.0107309 0
M  V30 2595 C 251.716 1.4645 0.783688 0
M  V30 2596 O 252.901 1.75263 0.754156 0
M  V30 2597 C 250.041 3.3238 0.928306 0
M  V30 2598 C 249.154 4.31814 0.126776 0
M  V30 2599 C 248.289 5.20468 1.06236 0
M  V30 2600 C 247.328 6.11577 0.253035 0
M  V30 2601 N 246.465 6.92754 1.14179 0
M  V30 2602 H 251.305 2.8778 -0.773727 0
M  V30 2603 H 248.842 1.41745 -0.393283 0
M  V30 2604 H 250.8 3.89813 1.48666 0
M  V30 2605 H 249.43 2.76976 1.65783 0
M  V30 2606 H 248.482 3.76427 -0.54833 0
M  V30 2607 H 249.794 4.96276 -0.501192 0
M  V30 2608 H 248.948 5.82677 1.69035 0
M  V30 2609 H 247.687 4.56204 1.7242 0
M  V30 2610 H 246.692 5.48428 -0.388108 0
M  V30 2611 H 247.917 6.77892 -0.404839 0
M  V30 2612 H 245.863 6.3111 1.78987 0
M  V30 2613 H 245.78 7.53855 0.569111 0
M  V30 2614 H 247.048 7.59441 1.75697 0
M  V30 2615 N 251.277 0.427512 1.51691 0
M  V30 2616 C 252.524 -0.142229 2.02 0
M  V30 2617 C 252.852 -1.43566 1.31221 0
M  V30 2618 O 252.107 -1.91298 0.412744 0
M  V30 2619 C 252.406 -0.418249 3.54944 0
M  V30 2620 C 252.072 0.788187 4.43958 0
M  V30 2621 C 250.734 1.11906 4.68007 0
M  V30 2622 C 253.086 1.59347 4.96244 0
M  V30 2623 C 250.414 2.25608 5.41588 0
M  V30 2624 C 252.766 2.7214 5.71072 0
M  V30 2625 C 251.43 3.05692 5.93387 0
M  V30 2626 H 250.7 -0.0520451 0.73917 0
M  V30 2627 H 253.347 0.572697 1.82736 0
M  V30 2628 H 251.652 -1.21496 3.72486 0
M  V30 2629 H 253.349 -0.872339 3.91397 0
M  V30 2630 H 249.939 0.520344 4.2543 0
M  V30 2631 H 254.123 1.35106 4.77556 0
M  V30 2632 H 249.379 2.51929 5.57083 0
M  V30 2633 H 253.553 3.34914 6.10578 0
M  V30 2634 H 251.18 3.9391 6.50184 0
M  V30 2635 N 252.755 -1.56801 0.158532 0
M  V30 2636 C 254.003 -1.96102 -0.488712 0
M  V30 2637 C 254.324 -1.04498 -1.64636 0
M  V30 2638 O 253.594 -0.108783 -1.95598 0
M  V30 2639 H 252.174 -0.724102 -0.183535 0
M  V30 2640 H 254.836 -1.93457 0.236728 0
M  V30 2641 H 253.932 -3.00097 -0.857219 0
M  V30 2642 N 254.233 0.115231 -1.57178 0
M  V30 2643 C 255.479 0.82357 -1.85325 0
M  V30 2644 C 255.812 1.79349 -0.744814 0
M  V30 2645 O 255.087 1.92899 0.249024 0
M  V30 2646 C 255.37 1.57014 -3.24066 0
M  V30 2647 C 255.223 0.619565 -4.45513 0
M  V30 2648 C 256.542 2.52545 -3.60429 0
M  V30 2649 H 253.661 0.297948 -0.674089 0
M  V30 2650 H 256.303 0.0877138 -1.89797 0
M  V30 2651 H 254.453 2.19742 -3.20383 0
M  V30 2652 H 256.125 0.000837639 -4.613 0
M  V30 2653 H 254.368 -0.0686174 -4.33746 0
M  V30 2654 H 255.039 1.17866 -5.3927 0
M  V30 2655 H 257.515 1.9992 -3.64926 0
M  V30 2656 H 256.391 3.01811 -4.58477 0
M  V30 2657 H 256.652 3.35383 -2.88047 0
M  V30 2658 N 255.711 1.52812 0.385517 0
M  V30 2659 C 256.936 1.72207 1.15583 0
M  V30 2660 C 257.361 0.441034 1.82857 0
M  V30 2661 O 256.719 -0.603465 1.70962 0
M  V30 2662 C 256.767 2.87476 2.17692 0
M  V30 2663 O 255.871 2.54693 3.24354 0
M  V30 2664 H 255.212 0.572526 0.336319 0
M  V30 2665 H 257.742 1.99618 0.448744 0
M  V30 2666 H 257.752 3.13072 2.6163 0
M  V30 2667 H 256.427 3.80408 1.68115 0
M  V30 2668 H 255.004 2.3985 2.85529 0
M  V30 2669 N 257.189 -0.644168 1.43834 0
M  V30 2670 C 258.119 -1.76814 1.52509 0
M  V30 2671 C 259.1 -1.65823 0.379052 0
M  V30 2672 O 260.285 -1.84781 0.597466 0
M  V30 2673 C 257.415 -3.15288 1.4564 0
M  V30 2674 C 256.369 -3.41053 2.58586 0
M  V30 2675 C 255.695 -4.79421 2.36769 0
M  V30 2676 C 256.995 -3.34902 4.00797 0
M  V30 2677 H 258.689 -1.69812 2.46586 0
M  V30 2678 H 256.235 -0.815542 1.1868 0
M  V30 2679 H 258.188 -3.93681 1.50311 0
M  V30 2680 H 256.912 -3.23043 0.480725 0
M  V30 2681 H 255.571 -2.65035 2.53282 0
M  V30 2682 H 255.219 -4.83863 1.37424 0
M  V30 2683 H 254.919 -4.9762 3.12487 0
M  V30 2684 H 256.443 -5.6006 2.43238 0
M  V30 2685 H 257.857 -4.03218 4.07539 0
M  V30 2686 H 256.254 -3.64637 4.76613 0
M  V30 2687 H 257.324 -2.32928 4.25291 0
M  V30 2688 N 258.668 -1.30515 -0.883378 0
M  V30 2689 C 259.615 -1.17032 -1.98927 0
M  V30 2690 C 260.585 -0.0594241 -1.65994 0
M  V30 2691 O 261.77 -0.229895 -1.8941 0
M  V30 2692 C 258.91 -0.869777 -3.33959 0
M  V30 2693 C 258.023 -2.06271 -3.79574 0
M  V30 2694 C 257.158 -1.70011 -5.03259 0
M  V30 2695 C 256.197 -2.8579 -5.41286 0
M  V30 2696 N 255.334 -2.49816 -6.56153 0
M  V30 2697 H 260.174 -2.1164 -2.09792 0
M  V30 2698 H 257.711 -1.05296 -1.02719 0
M  V30 2699 H 259.669 -0.676138 -4.11685 0
M  V30 2700 H 258.299 0.0394332 -3.22776 0
M  V30 2701 H 257.351 -2.36755 -2.97744 0
M  V30 2702 H 258.663 -2.92971 -4.03694 0
M  V30 2703 H 257.817 -1.47032 -5.88614 0
M  V30 2704 H 256.556 -0.804829 -4.81013 0
M  V30 2705 H 255.561 -3.09434 -4.54456 0
M  V30 2706 H 256.786 -3.76008 -5.65504 0
M  V30 2707 H 254.732 -1.62795 -6.35479 0
M  V30 2708 H 254.649 -3.30048 -6.8015 0
M  V30 2709 H 255.917 -2.30197 -7.44735 0
M  V30 2710 N 260.146 1.09593 -1.13257 0
M  V30 2711 C 261.371 1.8604 -0.916732 0
M  V30 2712 C 261.796 1.80504 0.529146 0
M  V30 2713 O 261.154 1.18127 1.37534 0
M  V30 2714 C 261.202 3.32017 -1.40703 0
M  V30 2715 O 260.306 4.08141 -0.591153 0
M  V30 2716 H 259.647 0.576943 -0.328683 0
M  V30 2717 H 262.177 1.38405 -1.50682 0
M  V30 2718 H 262.187 3.82865 -1.4099 0
M  V30 2719 H 260.862 3.35361 -2.45979 0
M  V30 2720 H 259.439 3.67084 -0.656005 0
M  V30 2721 N 261.624 0.925811 1.2754 0
M  V30 2722 C 262.864 0.572521 1.96218 0
M  V30 2723 C 263.228 -0.869719 1.71172 0
M  V30 2724 O 264.429 -1.33119 2.33523 0
M  V30 2725 C 262.7 0.887325 3.4621 0
M  V30 2726 S 264.259 0.642266 4.34074 0
M  V30 2727 H 261.077 0.211403 0.678845 0
M  V30 2728 H 263.679 1.19384 1.54815 0
M  V30 2729 H 262.383 1.93469 3.61936 0
M  V30 2730 H 261.914 0.255123 3.92572 0
M  V30 2731 H 263.929 -0.500822 4.93666 0
M  V30 2732 N 263.102 -1.41638 0.69111 0
M  V30 2733 C 264.518 -1.55435 0.362224 0
M  V30 2734 C 264.718 -1.66754 -1.13117 0
M  V30 2735 O 263.774 -1.64348 -1.91692 0
M  V30 2736 C 265.087 -2.79588 1.10684 0
M  V30 2737 C 266.635 -2.9338 1.09075 0
M  V30 2738 C 267.11 -4.20414 1.81703 0
M  V30 2739 N 268.601 -4.27362 1.7865 0
M  V30 2740 C 269.336 -5.24507 2.31689 0
M  V30 2741 N 268.832 -6.27708 2.93179 0
M  V30 2742 N 270.625 -5.16416 2.2197 0
M  V30 2743 H 262.776 -1.32536 1.65976 0
M  V30 2744 H 265.039 -0.639115 0.700168 0
M  V30 2745 H 264.745 -2.77419 2.16175 0
M  V30 2746 H 264.619 -3.70973 0.682545 0
M  V30 2747 H 267.006 -2.95067 0.0441238 0
M  V30 2748 H 267.087 -2.0318 1.55407 0
M  V30 2749 H 266.731 -4.19488 2.86343 0
M  V30 2750 H 266.661 -5.09578 1.32808 0
M  V30 2751 H 269.152 -3.53415 1.33815 0
M  V30 2752 H 269.465 -6.98217 3.31229 0
M  V30 2753 H 267.81 -6.28223 2.97255 0
M  V30 2754 H 271.001 -4.34716 1.73607 0
M  V30 2755 H 271.174 -5.91958 2.63609 0
M  V30 2756 N 264.58 -0.43555 -1.51462 0
M  V30 2757 C 265.53 0.394701 -2.24558 0
M  V30 2758 C 266.514 0.99157 -1.26715 0
M  V30 2759 O 267.706 0.910007 -1.51815 0
M  V30 2760 C 264.835 1.4963 -3.08975 0
M  V30 2761 C 263.921 0.908912 -4.14246 0
M  V30 2762 N 264.312 0.0505335 -5.05775 0
M  V30 2763 C 262.61 1.17668 -4.30198 0
M  V30 2764 C 263.311 -0.279161 -5.8103 0
M  V30 2765 N 262.287 0.336767 -5.42556 0
M  V30 2766 H 266.089 -0.267106 -2.92684 0
M  V30 2767 H 263.603 -0.247518 -1.60503 0
M  V30 2768 H 265.6 2.10394 -3.59917 0
M  V30 2769 H 264.26 2.16046 -2.42393 0
M  V30 2770 H 265.271 -0.31577 -5.16936 0
M  V30 2771 H 261.948 1.83847 -3.74842 0
M  V30 2772 H 263.338 -0.977553 -6.64751 0
M  V30 2773 N 266.058 1.56714 -0.166846 0
M  V30 2774 C 266.988 2.20754 0.760913 0
M  V30 2775 C 267.969 1.16178 1.24244 0
M  V30 2776 O 269.154 1.44592 1.29641 0
M  V30 2777 C 266.284 2.84478 1.99223 0
M  V30 2778 C 265.238 3.95053 1.64672 0
M  V30 2779 C 264.564 4.45805 2.95232 0
M  V30 2780 C 265.864 5.14865 0.878155 0
M  V30 2781 H 267.558 2.98537 0.22713 0
M  V30 2782 H 265.104 1.43596 0.107805 0
M  V30 2783 H 267.057 3.27951 2.64624 0
M  V30 2784 H 265.781 2.04056 2.55007 0
M  V30 2785 H 264.44 3.52228 1.01641 0
M  V30 2786 H 264.088 3.62181 3.49047 0
M  V30 2787 H 263.788 5.204 2.7287 0
M  V30 2788 H 265.312 4.91962 3.6167 0
M  V30 2789 H 266.726 5.55059 1.43466 0
M  V30 2790 H 265.123 5.95348 0.753738 0
M  V30 2791 H 266.193 4.84735 -0.126377 0
M  V30 2792 N 267.536 -0.106894 1.57237 0
M  V30 2793 C 268.466 -1.13148 2.04254 0
M  V30 2794 C 269.447 -1.42476 0.929224 0
M  V30 2795 O 270.632 -1.52709 1.19973 0
M  V30 2796 C 267.762 -2.4545 2.45706 0
M  V30 2797 C 266.716 -2.30558 3.60592 0
M  V30 2798 C 266.042 -3.67931 3.87983 0
M  V30 2799 C 267.342 -1.75597 4.91897 0
M  V30 2800 H 269.036 -0.740374 2.90101 0
M  V30 2801 H 266.582 -0.354696 1.39563 0
M  V30 2802 H 268.535 -3.17389 2.77205 0
M  V30 2803 H 267.259 -2.86475 1.56843 0
M  V30 2804 H 265.918 -1.61067 3.29322 0
M  V30 2805 H 265.566 -4.06462 2.96306 0
M  V30 2806 H 265.266 -3.58817 4.65322 0
M  V30 2807 H 266.79 -4.41356 4.21945 0
M  V30 2808 H 268.204 -2.37364 5.21854 0
M  V30 2809 H 266.601 -1.77272 5.73319 0
M  V30 2810 H 267.671 -0.714451 4.79608 0
M  V30 2811 N 269.014 -1.53014 -0.377408 0
M  V30 2812 C 269.924 -1.81557 -1.48574 0
M  V30 2813 C 270.94 -0.703102 -1.59162 0
M  V30 2814 O 272.116 -0.99192 -1.75279 0
M  V30 2815 C 269.181 -1.9889 -2.83978 0
M  V30 2816 C 268.242 -3.22801 -2.83016 0
M  V30 2817 C 267.475 -3.39298 -4.11962 0
M  V30 2818 O 267.698 -2.60345 -5.0752 0
M  V30 2819 O 266.632 -4.32604 -4.18494 0
M  V30 2820 H 270.458 -2.75695 -1.27382 0
M  V30 2821 H 268.043 -1.38248 -0.566373 0
M  V30 2822 H 269.925 -2.11931 -3.6423 0
M  V30 2823 H 268.6 -1.07942 -3.05172 0
M  V30 2824 H 267.507 -3.15193 -2.01505 0
M  V30 2825 H 268.84 -4.13632 -2.66775 0
M  V30 2826 N 270.492 0.636531 -1.44174 0
M  V30 2827 C 271.44 1.76995 -1.50915 0
M  V30 2828 C 272.434 1.65053 -0.381295 0
M  V30 2829 O 273.64 1.71197 -0.55601 0
M  V30 2830 H 270.015 0.584247 -0.473455 0
M  V30 2831 H 271.986 1.68432 -2.4632 0
M  V30 2832 C 270.735 3.15314 -1.46534 0
M  V30 2833 H 270.058 3.25149 -2.32633 0
M  V30 2834 H 271.498 3.9453 -1.55312 0
M  V30 2835 C 269.957 3.3639 -0.185305 0
M  V30 2836 O 270.487 3.94699 0.746688 0
M  V30 2837 N 268.693 2.9046 -0.0901606 0
M  V30 2838 H 268.24 2.43193 -0.849416 0
M  V30 2839 H 268.198 3.04937 0.765553 0
M  V30 2840 N 271.97 1.30982 0.876444 0
M  V30 2841 C 272.933 1.18054 1.96459 0
M  V30 2842 C 273.933 0.109399 1.60427 0
M  V30 2843 O 275.123 0.358173 1.70478 0
M  V30 2844 C 272.255 0.810616 3.31122 0
M  V30 2845 H 273.448 2.14735 2.09354 0
M  V30 2846 H 271.001 1.145 1.06392 0
M  V30 2847 H 271.736 -0.155322 3.23928 0
M  V30 2848 H 271.521 1.58481 3.58645 0
M  V30 2849 H 273.011 0.743876 4.10921 0
M  V30 2850 N 273.449 -1.08991 1.13837 0
M  V30 2851 C 274.396 -2.15748 0.819835 0
M  V30 2852 C 275.366 -1.64636 -0.220026 0
M  V30 2853 O 276.551 -1.90582 -0.0912757 0
M  V30 2854 C 273.691 -3.4382 0.296913 0
M  V30 2855 C 272.804 -4.0881 1.39636 0
M  V30 2856 C 271.939 -5.24655 0.831314 0
M  V30 2857 C 270.978 -5.81575 1.90886 0
M  V30 2858 N 270.115 -6.88774 1.36142 0
M  V30 2859 H 274.955 -2.42338 1.73426 0
M  V30 2860 H 272.492 -1.18935 0.865613 0
M  V30 2861 H 274.45 -4.17193 -0.0244339 0
M  V30 2862 H 273.08 -3.17535 -0.580628 0
M  V30 2863 H 272.132 -3.33258 1.83422 0
M  V30 2864 H 273.444 -4.47141 2.21058 0
M  V30 2865 H 272.598 -6.04942 0.461515 0
M  V30 2866 H 271.337 -4.87698 -0.013932 0
M  V30 2867 H 270.342 -4.99946 2.28767 0
M  V30 2868 H 271.567 -6.20592 2.75758 0
M  V30 2869 H 269.513 -6.53788 0.538254 0
M  V30 2870 H 269.43 -7.25898 2.11208 0
M  V30 2871 H 270.698 -7.72806 1.01933 0
M  V30 2872 N 274.927 -0.932562 -1.27047 0
M  V30 2873 C 275.874 -0.434072 -2.26681 0
M  V30 2874 C 276.844 0.501639 -1.58344 0
M  V30 2875 O 278.029 0.419734 -1.86126 0
M  V30 2876 C 275.169 0.30261 -3.43771 0
M  V30 2877 C 274.282 -0.667774 -4.26808 0
M  V30 2878 C 273.417 0.0892393 -5.31125 0
M  V30 2879 C 272.456 -0.873532 -6.05835 0
M  V30 2880 N 271.593 -0.148832 -7.01942 0
M  V30 2881 H 276.433 -1.28868 -2.68695 0
M  V30 2882 H 273.97 -0.646713 -1.32121 0
M  V30 2883 H 275.928 0.746092 -4.10474 0
M  V30 2884 H 274.558 1.12142 -3.02695 0
M  V30 2885 H 273.61 -1.22978 -3.59973 0
M  V30 2886 H 274.922 -1.40337 -4.78651 0
M  V30 2887 H 274.076 0.592409 -6.03801 0
M  V30 2888 H 272.815 0.85777 -4.80097 0
M  V30 2889 H 271.82 -1.38791 -5.31994 0
M  V30 2890 H 273.045 -1.64193 -6.58952 0
M  V30 2891 H 270.991 0.601365 -6.53238 0
M  V30 2892 H 270.908 -0.82391 -7.51497 0
M  V30 2893 H 272.176 0.333527 -7.78786 0
M  V30 2894 N 276.405 1.4127 -0.698611 0
M  V30 2895 C 277.355 2.27997 -0.0119836 0
M  V30 2896 C 278.339 1.42363 0.749765 0
M  V30 2897 O 279.531 1.65607 0.624758 0
M  V30 2898 C 276.66 3.30702 0.921458 0
M  V30 2899 C 275.746 4.23814 0.155796 0
M  V30 2900 N 276.137 4.98572 -0.852015 0
M  V30 2901 C 274.435 4.44284 0.390836 0
M  V30 2902 C 275.136 5.66744 -1.3106 0
M  V30 2903 N 274.112 5.39867 -0.635944 0
M  V30 2904 H 277.914 2.83232 -0.784649 0
M  V30 2905 H 275.428 1.53518 -0.529711 0
M  V30 2906 H 277.425 3.91661 1.42854 0
M  V30 2907 H 276.085 2.77028 1.69369 0
M  V30 2908 H 277.096 5.03024 -1.23235 0
M  V30 2909 H 273.773 4.01614 1.14071 0
M  V30 2910 H 275.163 6.36672 -2.14707 0
M  V30 2911 N 277.883 0.443576 1.51229 0
M  V30 2912 C 278.833 -0.382787 2.24764 0
M  V30 2913 C 279.817 -0.984836 1.27239 0
M  V30 2914 O 281.009 -0.901943 1.52296 0
M  V30 2915 C 278.138 -1.47989 3.09765 0
M  V30 2916 C 277.224 -0.886931 4.14722 0
M  V30 2917 N 277.615 -0.0237103 5.05794 0
M  V30 2918 C 275.913 -1.15385 4.30816 0
M  V30 2919 C 276.614 0.309971 5.80874 0
M  V30 2920 N 275.59 -0.307989 5.42727 0
M  V30 2921 H 279.392 0.282624 2.92538 0
M  V30 2922 H 276.906 0.256027 1.60369 0
M  V30 2923 H 278.903 -2.08482 3.61027 0
M  V30 2924 H 277.563 -2.14758 2.43535 0
M  V30 2925 H 278.574 0.34318 5.16762 0
M  V30 2926 H 275.251 -1.81857 3.75812 0
M  V30 2927 H 276.641 1.01279 6.64223 0
M  V30 2928 N 279.361 -1.56624 0.175154 0
M  V30 2929 C 280.607 -1.9729 -0.469506 0
M  V30 2930 C 280.94 -1.06128 -1.62636 0
M  V30 2931 O 280.215 -0.109183 -1.94193 0
M  V30 2932 C 280.498 -3.47375 -0.948804 0
M  V30 2933 C 280.351 -4.49317 0.208491 0
M  V30 2934 C 281.67 -4.00652 -1.82116 0
M  V30 2935 H 278.789 -0.717317 -0.16919 0
M  V30 2936 H 281.431 -1.88184 0.262062 0
M  V30 2937 H 279.581 -3.55267 -1.57219 0
M  V30 2938 H 281.253 -4.53482 0.845682 0
M  V30 2939 H 279.496 -4.25121 0.863395 0
M  V30 2940 H 280.167 -5.51741 -0.169059 0
M  V30 2941 H 282.643 -3.95416 -1.2956 0
M  V30 2942 H 281.519 -5.06075 -2.12554 0
M  V30 2943 H 281.78 -3.44699 -2.7683 0
M  V30 2944 N 280.839 0.0985539 -1.57292 0
M  V30 2945 C 281.749 1.13824 -2.05137 0
M  V30 2946 C 282.765 1.44076 -0.975604 0
M  V30 2947 O 283.941 1.54786 -1.28853 0
M  V30 2948 C 281.006 2.43969 -2.46333 0
M  V30 2949 C 280.067 2.2093 -3.68087 0
M  V30 2950 C 279.3 3.44869 -4.0731 0
M  V30 2951 O 279.523 4.52972 -3.46659 0
M  V30 2952 O 278.457 3.34661 -5.00285 0
M  V30 2953 H 282.283 0.761881 -2.93988 0
M  V30 2954 H 279.868 0.310818 -1.46131 0
M  V30 2955 H 281.75 3.20609 -2.73473 0
M  V30 2956 H 280.425 2.81038 -1.60621 0
M  V30 2957 H 279.332 1.42081 -3.46069 0
M  V30 2958 H 280.665 1.88755 -4.54568 0
M  V30 2959 N 282.317 1.53212 0.369288 0
M  V30 2960 C 283.563 1.69466 1.11397 0
M  V30 2961 C 283.896 0.443257 1.89074 0
M  V30 2962 O 283.171 -0.559386 1.86282 0
M  V30 2963 C 283.454 2.9422 2.07621 0
M  V30 2964 C 283.307 4.29508 1.33577 0
M  V30 2965 C 284.626 3.14565 3.07794 0
M  V30 2966 H 281.745 0.616667 0.403597 0
M  V30 2967 H 284.387 1.85845 0.395179 0
M  V30 2968 H 282.537 2.80387 2.68916 0
M  V30 2969 H 284.209 4.55147 0.750955 0
M  V30 2970 H 282.452 4.29088 0.637618 0
M  V30 2971 H 283.123 5.12926 2.03989 0
M  V30 2972 H 285.599 3.2756 2.56601 0
M  V30 2973 H 284.475 4.03297 3.72348 0
M  V30 2974 H 284.736 2.29675 3.77759 0
M  V30 2975 N 283.795 -0.628877 1.44509 0
M  V30 2976 C 285.041 -1.39045 1.47629 0
M  V30 2977 C 285.374 -1.93892 0.109343 0
M  V30 2978 O 284.649 -1.7379 -0.87334 0
M  V30 2979 C 284.932 -2.55408 2.53848 0
M  V30 2980 C 284.785 -2.05896 3.99909 0
M  V30 2981 C 286.104 -3.5759 2.56549 0
M  V30 2982 H 283.223 -0.504232 0.537512 0
M  V30 2983 H 285.865 -0.710854 1.76201 0
M  V30 2984 H 284.015 -3.13384 2.29615 0
M  V30 2985 H 285.687 -1.52734 4.35282 0
M  V30 2986 H 283.93 -1.37061 4.11578 0
M  V30 2987 H 284.601 -2.89681 4.69882 0
M  V30 2988 H 287.077 -3.09419 2.78207 0
M  V30 2989 H 285.953 -4.36527 3.32769 0
M  V30 2990 H 286.214 -4.11808 1.60832 0
M  V30 2991 N 285.273 -1.31445 -0.869486 0
M  V30 2992 C 286.521 -1.20918 -1.61936 0
M  V30 2993 C 286.842 0.232683 -1.93607 0
M  V30 2994 O 286.112 1.15352 -1.58338 0
M  V30 2995 H 284.692 -0.44454 -0.600328 0
M  V30 2996 H 287.354 -1.64776 -1.0409 0
M  V30 2997 H 286.45 -1.78124 -2.56278 0
M  V30 2998 N 286.751 1.08385 -1.14413 0
M  V30 2999 C 287.997 1.81044 -0.913834 0
M  V30 3000 C 288.33 1.86004 0.558209 0
M  V30 3001 O 287.605 1.33606 1.4135 0
M  V30 3002 C 287.888 3.26648 -1.51569 0
M  V30 3003 C 287.741 3.29895 -3.0576 0
M  V30 3004 C 289.06 4.23629 -1.19273 0
M  V30 3005 H 286.179 0.65727 -0.333414 0
M  V30 3006 H 288.821 1.26896 -1.41412 0
M  V30 3007 H 286.971 3.72889 -1.09023 0
M  V30 3008 H 288.643 2.91977 -3.57137 0
M  V30 3009 H 286.886 2.69163 -3.40197 0
M  V30 3010 H 287.557 4.32516 -3.42977 0
M  V30 3011 H 290.033 3.85727 -1.56057 0
M  V30 3012 H 288.909 5.23822 -1.64017 0
M  V30 3013 H 289.17 4.41968 -0.108068 0
M  V30 3014 N 288.23 0.939286 1.26551 0
M  V30 3015 C 289.455 0.602008 1.98471 0
M  V30 3016 C 289.88 -0.815624 1.69497 0
M  V30 3017 O 289.238 -1.54912 0.941905 0
M  V30 3018 C 289.286 0.848407 3.50477 0
M  V30 3019 O 288.39 -0.0804009 4.12322 0
M  V30 3020 H 287.731 0.23049 0.622712 0
M  V30 3021 H 290.261 1.2617 1.61066 0
M  V30 3022 H 290.271 0.768553 4.00696 0
M  V30 3023 H 288.946 1.88171 3.70897 0
M  V30 3024 H 287.523 0.0503508 3.72866 0
M  V30 3025 N 289.708 -1.40897 0.706093 0
M  V30 3026 C 290.955 -2.01054 0.241531 0
M  V30 3027 C 291.283 -1.55956 -1.16223 0
M  V30 3028 O 290.538 -0.766336 -1.80072 0
M  V30 3029 C 290.837 -3.5646 0.259099 0
M  V30 3030 C 290.503 -4.21106 1.61184 0
M  V30 3031 C 289.165 -4.38479 1.98216 0
M  V30 3032 C 291.517 -4.57256 2.50132 0
M  V30 3033 C 288.845 -4.89282 3.2376 0
M  V30 3034 C 291.197 -5.09454 3.7502 0
M  V30 3035 C 289.861 -5.25037 4.12181 0
M  V30 3036 H 289.131 -0.73571 0.0883825 0
M  V30 3037 H 291.778 -1.68645 0.907257 0
M  V30 3038 H 290.083 -3.88721 -0.490189 0
M  V30 3039 H 291.78 -4.00826 -0.11804 0
M  V30 3040 H 288.37 -4.07966 1.31384 0
M  V30 3041 H 292.554 -4.43479 2.228 0
M  V30 3042 H 287.81 -4.99531 3.52532 0
M  V30 3043 H 291.984 -5.36404 4.44121 0
M  V30 3044 H 289.611 -5.64164 5.09532 0
M  V30 3045 N 291.186 -0.45159 -1.50991 0
M  V30 3046 C 292.136 0.370861 -2.24964 0
M  V30 3047 C 293.12 0.978074 -1.2776 0
M  V30 3048 O 294.312 0.893854 -1.52772 0
M  V30 3049 C 291.441 1.46344 -3.10545 0
M  V30 3050 C 290.527 0.864924 -4.15187 0
M  V30 3051 N 290.918 -0.00311354 -5.058 0
M  V30 3052 C 289.216 1.13099 -4.31422 0
M  V30 3053 C 289.917 -0.340772 -5.80701 0
M  V30 3054 N 288.893 0.279203 -5.42883 0
M  V30 3055 H 292.695 -0.298134 -2.92384 0
M  V30 3056 H 290.209 -0.264528 -1.60231 0
M  V30 3057 H 292.206 2.06565 -3.62128 0
M  V30 3058 H 290.866 2.13463 -2.4467 0
M  V30 3059 H 291.877 -0.37058 -5.16572 0
M  V30 3060 H 288.554 1.79861 -3.76771 0
M  V30 3061 H 289.944 -1.048 -6.63677 0
M  V30 3062 N 292.664 1.56529 -0.183458 0
M  V30 3063 C 293.913 1.96419 0.458511 0
M  V30 3064 C 294.226 1.0727 1.63562 0
M  V30 3065 O 295.432 1.36893 2.34462 0
M  V30 3066 C 293.888 3.49298 0.867122 0
M  V30 3067 C 293.496 4.47092 -0.285057 0
M  V30 3068 C 295.24 3.97983 1.47683 0
M  V30 3069 C 293.147 5.91225 0.143862 0
M  V30 3070 H 292.077 0.733394 0.175071 0
M  V30 3071 H 294.728 1.81448 -0.273624 0
M  V30 3072 H 293.11 3.59731 1.65559 0
M  V30 3073 H 294.284 4.48383 -1.0625 0
M  V30 3074 H 292.599 4.08535 -0.805503 0
M  V30 3075 H 295.196 5.03134 1.80999 0
M  V30 3076 H 295.539 3.41618 2.37914 0
M  V30 3077 H 296.072 3.90617 0.752562 0
M  V30 3078 H 292.811 6.5149 -0.723974 0
M  V30 3079 H 292.331 5.93214 0.886413 0
M  V30 3080 H 294.01 6.44362 0.583628 0
M  V30 3081 N 294.142 -0.090211 1.57342 0
M  V30 3082 C 295.39 -0.791241 1.85967 0
M  V30 3083 C 295.711 -1.7903 0.772859 0
M  V30 3084 O 294.981 -1.94872 -0.200398 0
M  V30 3085 H 293.561 -0.295205 0.686195 0
M  V30 3086 H 296.223 -0.0706782 1.94772 0
M  V30 3087 H 295.319 -1.31882 2.82867 0
M  V30 3088 N 295.62 -1.53406 -0.361157 0
M  V30 3089 C 296.845 -1.74024 -1.12829 0
M  V30 3090 C 297.27 -0.470069 -1.82132 0
M  V30 3091 O 296.628 0.57619 -1.719 0
M  V30 3092 C 296.676 -2.90903 -2.13091 0
M  V30 3093 O 295.78 -2.59821 -3.20261 0
M  V30 3094 H 295.121 -0.577804 -0.327168 0
M  V30 3095 H 297.651 -2.00307 -0.41693 0
M  V30 3096 H 297.661 -3.17194 -2.56616 0
M  V30 3097 H 296.336 -3.83034 -1.62042 0
M  V30 3098 H 294.913 -2.44362 -2.81677 0
M  V30 3099 N 297.098 0.621204 -1.44841 0
M  V30 3100 C 298.346 1.37783 -1.47852 0
M  V30 3101 C 298.667 1.94653 -0.116224 0
M  V30 3102 O 297.937 1.76367 0.852737 0
M  V30 3103 H 296.517 0.511453 -0.544449 0
M  V30 3104 H 299.179 0.730446 -1.80694 0
M  V30 3105 H 298.275 2.20414 -2.20961 0
M  V30 3106 N 298.576 1.31904 0.862503 0
M  V30 3107 C 299.816 1.23324 1.63004 0
M  V30 3108 C 300.18 -0.203724 1.90916 0
M  V30 3109 O 301.381 -0.413132 2.65606 0
M  V30 3110 C 299.652 2.06116 2.91978 0
M  V30 3111 S 301.211 2.14478 3.82812 0
M  V30 3112 H 298.029 0.439117 0.559193 0
M  V30 3113 H 300.631 1.66658 1.02202 0
M  V30 3114 H 299.335 3.09593 2.69407 0
M  V30 3115 H 298.866 1.6353 3.57801 0
M  V30 3116 H 300.881 1.28855 4.79177 0
M  V30 3117 N 300.054 -1.07777 1.14986 0
M  V30 3118 C 301.465 -1.61766 0.932127 0
M  V30 3119 C 301.816 -1.88974 -0.527581 0
M  V30 3120 O 300.941 -1.65198 -1.39781 0
M  V30 3121 C 301.536 -2.93891 1.68563 0
M  V30 3122 C 300.095 -3.44639 1.5133 0
M  V30 3123 C 299.242 -2.18767 1.704 0
M  V30 3124 H 302.193 -0.909201 1.30074 0
M  V30 3125 H 302.214 -3.62623 1.15259 0
M  V30 3126 H 301.726 -2.74057 2.74799 0
M  V30 3127 H 299.827 -3.69564 0.474702 0
M  V30 3128 H 299.94 -4.20966 2.28746 0
M  V30 3129 H 298.304 -2.28253 1.13016 0
M  V30 3130 H 299.087 -2.01433 2.77992 0
M  V30 3131 N 301.532 -0.945985 -1.26051 0
M  V30 3132 C 302.809 -0.513816 -1.88731 0
M  V30 3133 C 303.189 1.00872 -1.8544 0
M  V30 3134 O 302.537 1.8708 -1.312 0
M  V30 3135 C 302.747 -1.08062 -3.31849 0
M  V30 3136 C 304.095 -1.1522 -4.08668 0
M  V30 3137 O 305.119 -1.03155 -3.40936 0
M  V30 3138 O 303.978 -1.34044 -5.29806 0
M  V30 3139 H 301.072 -0.168193 -0.809716 0
M  V30 3140 H 303.618 -1.03886 -1.34186 0
M  V30 3141 H 302.39 -2.1241 -3.2863 0
M  V30 3142 H 302.013 -0.538307 -3.93939 0
M  V30 3143 N 303.011 1.40521 -0.713556 0
M  V30 3144 C 304.422 1.83853 -0.324807 0
M  V30 3145 C 304.773 1.59667 1.14021 0
M  V30 3146 O 303.898 1.07649 1.87725 0
M  V30 3147 C 304.493 3.33751 -0.582746 0
M  V30 3148 C 303.052 3.75584 -0.247727 0
M  V30 3149 C 302.199 2.63753 -0.856121 0
M  V30 3150 H 305.15 1.29817 -0.91286 0
M  V30 3151 H 305.171 3.80194 0.152682 0
M  V30 3152 H 304.683 3.51322 -1.64908 0
M  V30 3153 H 302.784 3.63608 0.813624 0
M  V30 3154 H 302.897 4.7373 -0.715307 0
M  V30 3155 H 301.261 2.53108 -0.28432 0
M  V30 3156 H 302.044 2.84137 -1.92668 0
M  V30 3157 N 304.489 0.459591 1.5075 0
M  V30 3158 C 305.421 -0.37665 2.26084 0
M  V30 3159 C 306.434 -0.967109 1.30961 0
M  V30 3160 O 307.623 -0.857468 1.56556 0
M  V30 3161 C 304.723 -1.54112 3.01832 0
M  V30 3162 C 303.896 -1.06553 4.24223 0
M  V30 3163 C 302.955 -2.1027 4.82362 0
M  V30 3164 O 301.981 -1.68798 5.43595 0
M  V30 3165 N 303.183 -3.42974 4.68347 0
M  V30 3166 H 305.948 0.269124 2.98489 0
M  V30 3167 H 303.509 0.28972 1.59287 0
M  V30 3168 H 305.501 -2.23165 3.37608 0
M  V30 3169 H 304.071 -2.0918 2.32298 0
M  V30 3170 H 303.291 -0.201274 3.93686 0
M  V30 3171 H 304.579 -0.725516 5.03601 0
M  V30 3172 H 303.977 -3.79385 4.19623 0
M  V30 3173 H 302.534 -4.07858 5.08424 0
M  V30 3174 N 305.967 -1.56429 0.191757 0
M  V30 3175 C 306.93 -2.17707 -0.716688 0
M  V30 3176 C 307.93 -1.13061 -1.14341 0
M  V30 3177 O 309.12 -1.38464 -1.05704 0
M  V30 3178 C 306.252 -2.77644 -1.97804 0
M  V30 3179 H 307.445 -2.99342 -0.1829 0
M  V30 3180 H 304.998 -1.56193 -0.0578566 0
M  V30 3181 H 305.733 -1.99799 -2.55443 0
M  V30 3182 H 305.518 -3.54246 -1.68083 0
M  V30 3183 H 307.008 -3.24708 -2.62592 0
M  V30 3184 N 307.445 0.0818655 -1.57387 0
M  V30 3185 C 308.675 0.794954 -1.90694 0
M  V30 3186 C 309.083 1.72147 -0.784982 0
M  V30 3187 O 308.426 1.81974 0.251196 0
M  V30 3188 C 308.488 1.65042 -3.19376 0
M  V30 3189 C 308.152 0.894337 -4.48164 0
M  V30 3190 C 309.149 0.21813 -5.19442 0
M  V30 3191 C 306.834 0.864495 -4.94805 0
M  V30 3192 C 308.828 -0.477802 -6.35607 0
M  V30 3193 C 306.515 0.164785 -6.10878 0
M  V30 3194 C 307.513 -0.505173 -6.81129 0
M  V30 3195 O 307.201 -1.19363 -7.94989 0
M  V30 3196 H 306.933 0.231779 -0.635023 0
M  V30 3197 H 309.487 0.059493 -2.05314 0
M  V30 3198 H 307.717 2.42844 -3.00938 0
M  V30 3199 H 309.406 2.24127 -3.38411 0
M  V30 3200 H 310.172 0.232558 -4.84442 0
M  V30 3201 H 306.051 1.37542 -4.40004 0
M  V30 3202 H 309.595 -1.00129 -6.90377 0
M  V30 3203 H 305.492 0.148249 -6.4533 0
M  V30 3204 H 306.26 -1.10188 -8.11049 0
M  V30 3205 N 308.923 1.53595 0.353017 0
M  V30 3206 C 309.886 1.80232 1.41594 0
M  V30 3207 C 310.886 0.673081 1.46035 0
M  V30 3208 O 312.076 0.941335 1.46576 0
M  V30 3209 C 309.208 1.93578 2.80607 0
M  V30 3210 H 310.401 2.75174 1.19244 0
M  V30 3211 H 307.954 1.44864 0.586872 0
M  V30 3212 H 308.689 1.00746 3.08254 0
M  V30 3213 H 308.474 2.75724 2.78781 0
M  V30 3214 H 309.964 2.15735 3.57558 0
M  V30 3215 N 310.401 -0.613514 1.45168 0
M  V30 3216 C 311.333 -1.73825 1.4939 0
M  V30 3217 C 312.346 -1.58175 0.385304 0
M  V30 3218 O 313.535 -1.66165 0.652036 0
M  V30 3219 C 310.635 -3.11758 1.32891 0
M  V30 3220 C 309.808 -3.53704 2.57317 0
M  V30 3221 C 308.867 -4.70579 2.35462 0
M  V30 3222 O 307.893 -4.77996 3.09044 0
M  V30 3223 N 309.095 -5.63454 1.39644 0
M  V30 3224 H 311.86 -1.70669 2.46358 0
M  V30 3225 H 309.421 -0.79862 1.40832 0
M  V30 3226 H 311.413 -3.87692 1.1609 0
M  V30 3227 H 309.983 -3.09456 0.442218 0
M  V30 3228 H 309.203 -2.67794 2.89275 0
M  V30 3229 H 310.491 -3.78486 3.40038 0
M  V30 3230 H 309.889 -5.6017 0.789062 0
M  V30 3231 H 308.446 -6.38944 1.28816 0
M  V30 3232 N 311.879 -1.3236 -0.855495 0
M  V30 3233 C 313.104 -1.2601 -1.64731 0
M  V30 3234 C 313.529 0.169068 -1.87339 0
M  V30 3235 O 312.887 1.12016 -1.42556 0
M  V30 3236 C 312.935 -2.02417 -2.98429 0
M  V30 3237 O 312.039 -1.3714 -3.8893 0
M  V30 3238 H 311.38 -0.434325 -0.502253 0
M  V30 3239 H 313.91 -1.74661 -1.06558 0
M  V30 3240 H 313.92 -2.12559 -3.48257 0
M  V30 3241 H 312.595 -3.06343 -2.81295 0
M  V30 3242 H 311.172 -1.3554 -3.47395 0
M  V30 3243 N 313.357 1.07166 -1.15556 0
M  V30 3244 C 314.606 1.79181 -0.926132 0
M  V30 3245 C 314.919 1.87768 0.547967 0
M  V30 3246 O 316.125 2.56323 0.895036 0
M  V30 3247 C 314.581 3.22 -1.60761 0
M  V30 3248 C 314.189 3.21607 -3.11886 0
M  V30 3249 C 315.933 3.9861 -1.4598 0
M  V30 3250 C 313.84 4.59092 -3.72812 0
M  V30 3251 H 312.77 0.67154 -0.342856 0
M  V30 3252 H 315.421 1.2027 -1.3859 0
M  V30 3253 H 313.803 3.81115 -1.07553 0
M  V30 3254 H 314.977 2.72127 -3.71865 0
M  V30 3255 H 313.292 2.58495 -3.2645 0
M  V30 3256 H 315.889 5.00225 -1.88888 0
M  V30 3257 H 316.232 4.143 -0.407541 0
M  V30 3258 H 316.765 3.45996 -1.96295 0
M  V30 3259 H 313.504 4.48606 -4.77946 0
M  V30 3260 H 313.024 5.08803 -3.17616 0
M  V30 3261 H 314.703 5.28059 -3.73848 0
M  V30 3262 N 314.835 0.952656 1.25548 0
M  V30 3263 C 315.798 0.475794 2.24207 0
M  V30 3264 C 316.798 -0.419428 1.55234 0
M  V30 3265 O 317.988 -0.216994 1.72843 0
M  V30 3266 C 315.12 -0.312814 3.39462 0
M  V30 3267 H 316.313 1.34779 2.67908 0
M  V30 3268 H 313.866 0.735739 1.37901 0
M  V30 3269 H 314.601 -1.20257 3.01179 0
M  V30 3270 H 314.386 0.329404 3.90714 0
M  V30 3271 H 315.876 -0.635986 4.12729 0
M  V30 3272 N 316.313 -1.40141 0.720998 0
M  V30 3273 C 317.59 -1.94677 0.189757 0
M  V30 3274 C 317.97 -1.65879 -1.30566 0
M  V30 3275 O 317.318 -0.979391 -2.06447 0
M  V30 3276 C 317.528 -3.45279 0.508304 0
M  V30 3277 C 318.876 -4.22209 0.449934 0
M  V30 3278 O 319.9 -3.53413 0.444677 0
M  V30 3279 O 318.759 -5.44788 0.432189 0
M  V30 3280 H 315.853 -0.826459 0.0299026 0
M  V30 3281 H 318.399 -1.49719 0.7989 0
M  V30 3282 H 317.171 -3.59619 1.54239 0
M  V30 3283 H 316.794 -3.97386 -0.130525 0
M  V30 3284 N 317.792 -0.46758 -1.50504 0
M  V30 3285 C 318.755 0.317059 -2.26996 0
M  V30 3286 C 319.755 0.923513 -1.31635 0
M  V30 3287 O 320.945 0.793239 -1.55091 0
M  V30 3288 C 318.077 1.45134 -3.08462 0
M  V30 3289 H 319.27 -0.353723 -2.97807 0
M  V30 3290 H 316.823 -0.221545 -1.54722 0
M  V30 3291 H 317.558 2.15728 -2.4214 0
M  V30 3292 H 317.343 1.02232 -3.78538 0
M  V30 3293 H 318.833 2.00493 -3.66323 0
M  V30 3294 N 319.27 1.56325 -0.20005 0
M  V30 3295 C 320.686 1.58839 0.155716 0
M  V30 3296 C 320.886 1.21636 1.60645 0
M  V30 3297 O 319.942 0.941437 2.34293 0
M  V30 3298 C 321.255 3.0032 -0.151124 0
M  V30 3299 C 322.803 3.12866 -0.0916284 0
M  V30 3300 C 323.278 4.56488 -0.371845 0
M  V30 3301 N 324.769 4.62089 -0.320641 0
M  V30 3302 C 325.504 5.71116 -0.511243 0
M  V30 3303 N 325 6.88592 -0.762461 0
M  V30 3304 N 326.793 5.60335 -0.445157 0
M  V30 3305 H 318.944 1.78788 -1.14668 0
M  V30 3306 H 321.207 0.829996 -0.458051 0
M  V30 3307 H 320.913 3.32117 -1.15721 0
M  V30 3308 H 320.787 3.73257 0.543986 0
M  V30 3309 H 323.174 2.80878 0.905065 0
M  V30 3310 H 323.255 2.42304 -0.81989 0
M  V30 3311 H 322.899 4.89189 -1.36588 0
M  V30 3312 H 322.829 5.25246 0.377362 0
M  V30 3313 H 325.32 3.77665 -0.13329 0
M  V30 3314 H 325.633 7.67581 -0.896576 0
M  V30 3315 H 323.978 6.90387 -0.799412 0
M  V30 3316 H 327.169 4.67436 -0.249278 0
M  V30 3317 H 327.342 6.45243 -0.597116 0
M  V30 3318 N 320.748 -0.0735177 1.57428 0
M  V30 3319 C 321.678 -1.0879 2.06608 0
M  V30 3320 C 322.659 -1.40473 0.959237 0
M  V30 3321 O 323.844 -1.5013 1.23185 0
M  V30 3322 C 320.974 -2.40183 2.50857 0
M  V30 3323 C 319.928 -2.22858 3.65402 0
M  V30 3324 C 319.254 -3.59619 3.957 0
M  V30 3325 C 320.554 -1.65123 4.95511 0
M  V30 3326 H 322.248 -0.678673 2.91607 0
M  V30 3327 H 319.794 -0.325013 1.40284 0
M  V30 3328 H 321.747 -3.11437 2.83874 0
M  V30 3329 H 320.471 -2.83083 1.62885 0
M  V30 3330 H 319.13 -1.54045 3.32664 0
M  V30 3331 H 318.778 -4.00086 3.04861 0
M  V30 3332 H 318.478 -3.48866 4.72828 0
M  V30 3333 H 320.002 -4.32306 4.31212 0
M  V30 3334 H 321.416 -2.26241 5.26771 0
M  V30 3335 H 319.813 -1.65071 5.7695 0
M  V30 3336 H 320.883 -0.612559 4.81015 0
M  V30 3337 N 322.226 -1.5378 -0.344866 0
M  V30 3338 C 323.472 -1.71216 -1.08687 0
M  V30 3339 C 323.805 -0.473281 -1.88345 0
M  V30 3340 O 323.08 0.52968 -1.87149 0
M  V30 3341 C 323.363 -2.97486 -2.02914 0
M  V30 3342 C 323.216 -4.31579 -1.26727 0
M  V30 3343 C 324.535 -3.19422 -3.0275 0
M  V30 3344 H 321.654 -0.62301 -0.393735 0
M  V30 3345 H 324.296 -1.8645 -0.365563 0
M  V30 3346 H 322.446 -2.84629 -2.64421 0
M  V30 3347 H 324.118 -4.56284 -0.67845 0
M  V30 3348 H 322.361 -4.30049 -0.569273 0
M  V30 3349 H 323.032 -5.16106 -1.95803 0
M  V30 3350 H 325.508 -3.316 -2.51357 0
M  V30 3351 H 324.384 -4.09169 -3.65885 0
M  V30 3352 H 324.645 -2.35656 -3.74057 0
M  V30 3353 N 323.704 0.605807 -1.45491 0
M  V30 3354 C 324.951 1.36476 -1.49601 0
M  V30 3355 C 325.279 1.94007 -0.138452 0
M  V30 3356 O 324.534 1.75638 0.863114 0
M  V30 3357 C 324.833 2.53012 -2.52428 0
M  V30 3358 C 324.499 2.13617 -3.97087 0
M  V30 3359 C 323.161 2.02587 -4.36477 0
M  V30 3360 C 325.513 1.82899 -4.88055 0
M  V30 3361 C 322.841 1.59064 -5.64726 0
M  V30 3362 C 325.193 1.40861 -6.16718 0
M  V30 3363 C 323.857 1.28391 -6.55036 0
M  V30 3364 H 323.127 0.499402 -0.547429 0
M  V30 3365 H 325.774 0.684546 -1.78847 0
M  V30 3366 H 324.079 3.26379 -2.16758 0
M  V30 3367 H 325.776 3.1124 -2.52845 0
M  V30 3368 H 322.366 2.23129 -3.65939 0
M  V30 3369 H 326.55 1.90317 -4.58359 0
M  V30 3370 H 321.806 1.48034 -5.93208 0
M  V30 3371 H 325.98 1.16138 -6.86648 0
M  V30 3372 H 323.607 0.944403 -7.54311 0
M  V30 3373 N 325.182 1.32811 0.848464 0
M  V30 3374 C 326.092 1.24278 1.98978 0
M  V30 3375 C 327.108 0.155176 1.73307 0
M  V30 3376 O 328.284 0.376999 1.9784 0
M  V30 3377 C 325.349 0.972444 3.32783 0
M  V30 3378 C 324.41 2.14911 3.71634 0
M  V30 3379 C 323.643 1.89157 4.99054 0
M  V30 3380 O 323.866 0.837165 5.64223 0
M  V30 3381 O 322.8 2.75433 5.35183 0
M  V30 3382 H 326.626 2.20238 2.09115 0
M  V30 3383 H 324.211 1.12762 0.980052 0
M  V30 3384 H 326.093 0.838432 4.12975 0
M  V30 3385 H 324.768 0.043051 3.23671 0
M  V30 3386 H 323.675 2.33862 2.91992 0
M  V30 3387 H 325.008 3.06151 3.85399 0
M  V30 3388 N 326.66 -1.06551 1.16123 0
M  V30 3389 C 327.593 -2.13382 0.80892 0
M  V30 3390 C 328.571 -1.61128 -0.21827 0
M  V30 3391 O 329.755 -1.88219 -0.102952 0
M  V30 3392 C 326.882 -3.38083 0.204303 0
M  V30 3393 C 325.928 -4.09133 1.20469 0
M  V30 3394 S 326.761 -4.5948 2.75024 0
M  V30 3395 C 327.917 -5.87446 2.16005 0
M  V30 3396 H 328.15 -2.42937 1.71373 0
M  V30 3397 H 325.683 -1.18947 0.984428 0
M  V30 3398 H 327.641 -4.10268 -0.138081 0
M  V30 3399 H 326.302 -3.0669 -0.678234 0
M  V30 3400 H 325.495 -4.98685 0.730019 0
M  V30 3401 H 325.097 -3.4295 1.49202 0
M  V30 3402 H 327.389 -6.60065 1.5271 0
M  V30 3403 H 328.332 -6.39639 3.03756 0
M  V30 3404 H 328.74 -5.41354 1.59989 0
M  V30 3405 N 328.138 -0.959301 -1.25041 0
M  V30 3406 C 329.386 -0.615393 -1.92503 0
M  V30 3407 C 329.707 0.850969 -1.75452 0
M  V30 3408 O 328.977 1.60658 -1.12098 0
M  V30 3409 H 327.557 -0.224613 -0.712431 0
M  V30 3410 H 330.219 -1.21855 -1.5211 0
M  V30 3411 H 329.315 -0.848738 -3.00338 0
M  V30 3412 N 329.616 1.39756 -0.72842 0
M  V30 3413 C 330.844 2.04948 -0.283528 0
M  V30 3414 C 331.259 1.54908 1.0793 0
M  V30 3415 O 330.616 0.711135 1.68075 0
M  V30 3416 C 330.667 3.60498 -0.268957 0
M  V30 3417 O 330.388 4.08695 -1.57798 0
M  V30 3418 C 331.889 4.4288 0.192912 0
M  V30 3419 H 329.109 0.659243 -0.125056 0
M  V30 3420 H 331.653 1.78927 -0.990226 0
M  V30 3421 H 329.808 3.85444 0.388801 0
M  V30 3422 H 330.222 5.02977 -1.48709 0
M  V30 3423 H 331.696 5.51791 0.151952 0
M  V30 3424 H 332.173 4.21418 1.23708 0
M  V30 3425 H 332.779 4.23069 -0.435039 0
M  V30 3426 N 331.094 0.475555 1.50254 0
M  V30 3427 C 332.004 -0.321501 2.32387 0
M  V30 3428 C 333.02 -0.991755 1.42969 0
M  V30 3429 O 334.196 -0.978747 1.76018 0
M  V30 3430 C 331.261 -1.38667 3.17762 0
M  V30 3431 C 330.322 -0.732538 4.23004 0
M  V30 3432 C 329.555 -1.74695 5.04299 0
M  V30 3433 O 329.778 -2.97399 4.86734 0
M  V30 3434 O 328.712 -1.31631 5.8733 0
M  V30 3435 H 332.538 0.350071 3.01676 0
M  V30 3436 H 330.123 0.237321 1.47503 0
M  V30 3437 H 332.005 -2.00354 3.70724 0
M  V30 3438 H 330.68 -2.04163 2.51196 0
M  V30 3439 H 329.587 -0.0765902 3.74022 0
M  V30 3440 H 330.92 -0.120452 4.92053 0
M  V30 3441 N 332.573 -1.56217 0.208337 0
M  V30 3442 C 333.503 -2.22694 -0.702116 0
M  V30 3443 C 334.484 -1.19432 -1.2112 0
M  V30 3444 O 335.669 -1.47978 -1.25762 0
M  V30 3445 C 332.799 -2.8966 -1.9161 0
M  V30 3446 C 331.753 -3.9928 -1.5414 0
M  V30 3447 C 331.079 -4.53476 -2.83308 0
M  V30 3448 C 332.379 -5.17012 -0.741339 0
M  V30 3449 H 334.073 -2.99034 -0.147898 0
M  V30 3450 H 331.619 -1.43831 -0.0696951 0
M  V30 3451 H 333.572 -3.34852 -2.55836 0
M  V30 3452 H 332.296 -2.10746 -2.49507 0
M  V30 3453 H 330.955 -3.54799 -0.922668 0
M  V30 3454 H 330.603 -3.71308 -3.39322 0
M  V30 3455 H 330.303 -5.27451 -2.58976 0
M  V30 3456 H 331.827 -5.01378 -3.485 0
M  V30 3457 H 333.241 -5.58667 -1.28699 0
M  V30 3458 H 331.638 -5.97137 -0.595627 0
M  V30 3459 H 332.708 -4.8423 0.254851 0
M  V30 3460 N 334.051 0.0651679 -1.57465 0
M  V30 3461 C 335.299 0.761555 -1.87202 0
M  V30 3462 C 335.62 1.77778 -0.801243 0
M  V30 3463 O 334.89 1.95166 0.16937 0
M  V30 3464 H 333.47 0.284251 -0.690804 0
M  V30 3465 H 336.132 0.0396827 -1.9486 0
M  V30 3466 H 335.228 1.27365 -2.84929 0
M  V30 3467 N 335.529 1.53961 0.336706 0
M  V30 3468 C 336.479 1.7881 1.41461 0
M  V30 3469 C 337.463 0.643561 1.47469 0
M  V30 3470 O 338.655 0.903166 1.52223 0
M  V30 3471 C 335.784 2.00722 2.78506 0
M  V30 3472 C 334.87 3.2126 2.76862 0
M  V30 3473 N 335.261 4.42588 2.44845 0
M  V30 3474 C 333.559 3.22568 3.08004 0
M  V30 3475 C 334.26 5.2447 2.51607 0
M  V30 3476 N 333.236 4.61344 2.87511 0
M  V30 3477 H 337.038 2.70205 1.15615 0
M  V30 3478 H 334.552 1.52978 0.545112 0
M  V30 3479 H 336.549 2.1666 3.5618 0
M  V30 3480 H 335.209 1.10573 3.05293 0
M  V30 3481 H 336.22 4.69819 2.17922 0
M  V30 3482 H 332.897 2.42409 3.39918 0
M  V30 3483 H 334.287 6.31324 2.29955 0
M  V30 3484 N 337.007 -0.598083 1.45811 0
M  V30 3485 C 337.954 -1.7082 1.55207 0
M  V30 3486 C 338.924 -1.61278 0.39732 0
M  V30 3487 O 340.109 -1.80717 0.612038 0
M  V30 3488 C 337.249 -3.09144 1.53376 0
M  V30 3489 C 336.362 -3.29423 2.79472 0
M  V30 3490 C 335.497 -4.57907 2.69248 0
M  V30 3491 C 334.536 -4.71476 3.90354 0
M  V30 3492 N 333.673 -5.9127 3.78608 0
M  V30 3493 H 338.513 -1.62125 2.50039 0
M  V30 3494 H 336.05 -0.790389 1.24062 0
M  V30 3495 H 338.008 -3.89186 1.50301 0
M  V30 3496 H 336.638 -3.16773 0.620876 0
M  V30 3497 H 335.69 -2.43091 2.92594 0
M  V30 3498 H 337.002 -3.3532 3.69272 0
M  V30 3499 H 336.156 -5.46157 2.64192 0
M  V30 3500 H 334.895 -4.54423 1.77063 0
M  V30 3501 H 333.9 -3.81648 3.95759 0
M  V30 3502 H 335.125 -4.76751 4.83617 0
M  V30 3503 H 333.071 -5.88813 2.89199 0
M  V30 3504 H 332.988 -5.98369 4.6205 0
M  V30 3505 H 334.256 -6.81992 3.77501 0
M  V30 3506 N 338.485 -1.33259 -0.841409 0
M  V30 3507 C 339.418 -1.1764 -1.95541 0
M  V30 3508 C 340.396 -0.072501 -1.62438 0
M  V30 3509 O 341.58 -0.23427 -1.87039 0
M  V30 3510 C 338.707 -0.803794 -3.29024 0
M  V30 3511 C 337.753 -1.91482 -3.81099 0
M  V30 3512 S 338.586 -3.52538 -4.03085 0
M  V30 3513 C 339.742 -3.17279 -5.39523 0
M  V30 3514 H 339.975 -2.11941 -2.08491 0
M  V30 3515 H 337.508 -1.18072 -0.9949 0
M  V30 3516 H 339.466 -0.595592 -4.06156 0
M  V30 3517 H 338.127 0.120574 -3.13868 0
M  V30 3518 H 337.32 -1.60742 -4.7768 0
M  V30 3519 H 336.922 -2.07956 -3.10854 0
M  V30 3520 H 339.214 -2.67946 -6.22263 0
M  V30 3521 H 340.157 -4.1293 -5.75234 0
M  V30 3522 H 340.565 -2.53943 -5.04156 0
M  V30 3523 N 339.963 1.05934 -1.16686 0
M  V30 3524 C 340.913 2.11764 -0.844978 0
M  V30 3525 C 341.897 1.59922 0.177178 0
M  V30 3526 O 343.089 1.76983 -0.0241768 0
M  V30 3527 C 340.218 3.41493 -0.351812 0
M  V30 3528 C 339.304 4.00152 -1.40496 0
M  V30 3529 N 339.695 4.32874 -2.61636 0
M  V30 3530 C 337.993 4.278 -1.26106 0
M  V30 3531 C 338.694 4.79552 -3.29249 0
M  V30 3532 N 337.67 4.79211 -2.56628 0
M  V30 3533 H 341.472 2.34916 -1.76612 0
M  V30 3534 H 338.986 1.23511 -1.05446 0
M  V30 3535 H 340.983 4.16773 -0.102796 0
M  V30 3536 H 339.643 3.19778 0.56322 0
M  V30 3537 H 340.654 4.23109 -2.98663 0
M  V30 3538 H 337.331 4.15511 -0.407081 0
M  V30 3539 H 338.721 5.14045 -4.32675 0
M  V30 3540 N 341.441 0.965919 1.2453 0
M  V30 3541 C 342.687 0.62776 1.92839 0
M  V30 3542 C 343.02 -0.834694 1.75347 0
M  V30 3543 O 342.295 -1.60031 1.10546 0
M  V30 3544 C 342.578 1.00109 3.45905 0
M  V30 3545 C 342.431 2.52011 3.72573 0
M  V30 3546 C 343.75 0.53435 4.36844 0
M  V30 3547 H 340.869 0.229537 0.700344 0
M  V30 3548 H 343.511 1.2046 1.46933 0
M  V30 3549 H 341.661 0.510238 3.85135 0
M  V30 3550 H 343.333 3.08559 3.42912 0
M  V30 3551 H 341.576 2.95287 3.17786 0
M  V30 3552 H 342.247 2.73183 4.79661 0
M  V30 3553 H 344.723 0.955565 4.04979 0
M  V30 3554 H 343.599 0.824152 5.42678 0
M  V30 3555 H 343.86 -0.565589 4.38467 0
M  V30 3556 N 342.919 -1.39368 0.735821 0
M  V30 3557 C 343.849 -2.33234 0.111506 0
M  V30 3558 C 344.83 -1.53954 -0.723334 0
M  V30 3559 O 346.015 -1.82344 -0.668147 0
M  V30 3560 C 343.145 -3.38057 -0.795917 0
M  V30 3561 C 342.099 -4.2795 -0.065172 0
M  V30 3562 C 341.425 -5.23479 -1.08967 0
M  V30 3563 C 342.725 -5.10741 1.09273 0
M  V30 3564 H 344.419 -2.85692 0.895571 0
M  V30 3565 H 341.965 -1.37364 0.432109 0
M  V30 3566 H 343.918 -4.02675 -1.24221 0
M  V30 3567 H 342.642 -2.8404 -1.61211 0
M  V30 3568 H 341.301 -3.64813 0.361511 0
M  V30 3569 H 340.949 -4.65758 -1.89944 0
M  V30 3570 H 340.649 -5.84472 -0.605489 0
M  V30 3571 H 342.173 -5.90974 -1.53565 0
M  V30 3572 H 343.587 -5.68699 0.724841 0
M  V30 3573 H 341.984 -5.8088 1.50659 0
M  V30 3574 H 343.054 -4.45525 1.91404 0
M  V30 3575 N 344.397 -0.483516 -1.5 0
M  V30 3576 C 345.674 0.129337 -1.95172 0
M  V30 3577 C 346.054 1.55802 -1.4244 0
M  V30 3578 O 345.402 2.19625 -0.630649 0
M  V30 3579 C 345.612 0.0599251 -3.48949 0
M  V30 3580 C 346.96 0.242617 -4.23906 0
M  V30 3581 O 347.984 0.135933 -3.55941 0
M  V30 3582 O 346.843 0.459454 -5.44565 0
M  V30 3583 H 343.937 0.104887 -0.820322 0
M  V30 3584 H 346.483 -0.544807 -1.60717 0
M  V30 3585 H 345.255 -0.937079 -3.79914 0
M  V30 3586 H 344.878 0.774984 -3.89974 0
M  V30 3587 N 345.875 1.56104 -0.216619 0
M  V30 3588 C 346.805 2.23063 0.690296 0
M  V30 3589 C 347.786 1.20072 1.20485 0
M  V30 3590 O 348.971 1.48643 1.24976 0
M  V30 3591 C 346.101 2.90672 1.90072 0
M  V30 3592 C 345.055 4.00092 1.5202 0
M  V30 3593 C 344.381 4.54972 2.80899 0
M  V30 3594 C 345.681 5.17398 0.71391 0
M  V30 3595 H 347.375 2.99109 0.132038 0
M  V30 3596 H 344.921 1.43866 0.0620664 0
M  V30 3597 H 346.874 3.36204 2.54057 0
M  V30 3598 H 345.598 2.12066 2.48386 0
M  V30 3599 H 344.257 3.55283 0.903839 0
M  V30 3600 H 343.905 3.73102 3.37348 0
M  V30 3601 H 343.605 5.28817 2.56176 0
M  V30 3602 H 345.129 5.0322 3.45836 0
M  V30 3603 H 346.543 5.59342 1.25735 0
M  V30 3604 H 344.94 5.97444 0.563951 0
M  V30 3605 H 346.01 4.84088 -0.280527 0
M  V30 3606 N 347.353 -0.0568162 1.57498 0
M  V30 3607 C 348.601 -0.751617 1.87604 0
M  V30 3608 C 348.922 -1.77351 0.81066 0
M  V30 3609 O 348.192 -1.95254 -0.159018 0
M  V30 3610 H 346.772 -0.280583 0.692302 0
M  V30 3611 H 349.434 -0.0293483 1.94878 0
M  V30 3612 H 348.53 -1.25852 2.856 0
M  V30 3613 N 348.832 -1.54138 -0.328536 0
M  V30 3614 C 350.08 -1.71765 -1.06496 0
M  V30 3615 C 350.401 -0.49149 -1.88704 0
M  V30 3616 O 349.671 0.494539 -1.89555 0
M  V30 3617 H 348.251 -0.633295 -0.396164 0
M  V30 3618 H 350.913 -1.91429 -0.366176 0
M  V30 3619 H 350.009 -2.5951 -1.73381 0
M  V30 3620 N 350.31 0.590341 -1.46126 0
M  V30 3621 C 351.558 1.34616 -1.50742 0
M  V30 3622 C 351.879 1.94363 -0.157486 0
M  V30 3623 O 351.149 1.78136 0.815136 0
M  V30 3624 H 349.729 0.499789 -0.555175 0
M  V30 3625 H 352.391 0.691953 -1.82203 0
M  V30 3626 H 351.487 2.15678 -2.25587 0
M  V30 3627 N 351.788 1.33704 0.83433 0
M  V30 3628 C 353.035 1.25417 1.58987 0
M  V30 3629 C 353.363 -0.178869 1.93676 0
M  V30 3630 O 352.618 -1.13723 1.59265 0
M  V30 3631 C 352.917 2.07926 2.90692 0
M  V30 3632 C 352.583 3.57066 2.75345 0
M  V30 3633 C 351.245 3.97724 2.70867 0
M  V30 3634 C 353.597 4.51817 2.59828 0
M  V30 3635 C 350.925 5.31344 2.48778 0
M  V30 3636 C 353.277 5.85604 2.39272 0
M  V30 3637 C 351.941 6.25439 2.33199 0
M  V30 3638 H 351.211 0.458934 0.581774 0
M  V30 3639 H 353.858 1.65335 0.966261 0
M  V30 3640 H 352.163 1.608 3.57282 0
M  V30 3641 H 353.86 1.98868 3.48213 0
M  V30 3642 H 350.45 3.24785 2.79665 0
M  V30 3643 H 354.634 4.21311 2.62319 0
M  V30 3644 H 349.89 5.61241 2.42526 0
M  V30 3645 H 354.064 6.58623 2.2625 0
M  V30 3646 H 351.691 7.28914 2.15843 0
M  V30 3647 N 353.266 -1.05314 1.17247 0
M  V30 3648 C 354.677 -1.59753 0.96623 0
M  V30 3649 C 355.028 -1.9005 -0.487378 0
M  V30 3650 O 354.153 -1.68126 -1.36245 0
M  V30 3651 C 354.748 -2.90249 1.74759 0
M  V30 3652 C 353.307 -3.41352 1.58606 0
M  V30 3653 C 352.454 -2.15103 1.75002 0
M  V30 3654 H 355.405 -0.881406 1.31973 0
M  V30 3655 H 355.426 -3.60097 1.22925 0
M  V30 3656 H 354.938 -2.68166 2.8055 0
M  V30 3657 H 353.039 -3.68474 0.552985 0
M  V30 3658 H 353.152 -4.16019 2.37624 0
M  V30 3659 H 351.516 -2.25804 1.17833 0
M  V30 3660 H 352.299 -1.95491 2.82202 0
M  V30 3661 N 354.744 -0.972509 -1.24016 0
M  V30 3662 C 355.992 -0.635776 -1.91839 0
M  V30 3663 C 356.313 0.832312 -1.76345 0
M  V30 3664 O 355.583 1.5946 -1.13795 0
M  V30 3665 H 354.163 -0.232157 -0.710009 0
M  V30 3666 H 356.825 -1.23462 -1.50809 0
M  V30 3667 H 355.921 -0.880545 -2.99421 0
M  V30 3668 N 356.222 1.38976 -0.743202 0
M  V30 3669 C 357.45 2.04636 -0.30525 0
M  V30 3670 C 357.865 1.56044 1.06281 0
M  V30 3671 O 357.222 0.728921 1.67311 0
M  V30 3672 C 357.273 3.60193 -0.307177 0
M  V30 3673 O 356.994 4.06998 -1.62124 0
M  V30 3674 C 358.495 4.4306 0.145928 0
M  V30 3675 H 355.715 0.65788 -0.132041 0
M  V30 3676 H 358.259 1.77866 -1.00915 0
M  V30 3677 H 356.414 3.85835 0.347898 0
M  V30 3678 H 356.828 5.01371 -1.54036 0
M  V30 3679 H 358.302 5.51921 0.0934183 0
M  V30 3680 H 358.779 4.22706 1.19231 0
M  V30 3681 H 359.385 4.22584 -0.479886 0
M  V30 3682 N 357.7 0.491464 1.49741 0
M  V30 3683 C 358.61 -0.296835 2.32715 0
M  V30 3684 C 359.626 -0.976536 1.44013 0
M  V30 3685 O 360.802 -0.960023 1.77047 0
M  V30 3686 C 357.867 -1.35288 3.19215 0
M  V30 3687 C 356.928 -0.687632 4.23757 0
M  V30 3688 C 356.161 -1.69336 5.06123 0
M  V30 3689 O 356.384 -2.92219 4.89861 0
M  V30 3690 O 355.318 -1.25394 5.88693 0
M  V30 3691 H 359.144 0.382048 3.01287 0
M  V30 3692 H 356.729 0.252953 1.47243 0
M  V30 3693 H 358.611 -1.96411 3.72828 0
M  V30 3694 H 357.286 -2.01487 2.53347 0
M  V30 3695 H 356.193 -0.0369159 3.74082 0
M  V30 3696 H 357.526 -0.0682566 4.92153 0
M  V30 3697 N 359.178 -1.55987 0.224894 0
M  V30 3698 C 360.426 -1.97998 -0.405099 0
M  V30 3699 C 360.747 -1.11387 -1.60056 0
M  V30 3700 O 360.017 -0.191645 -1.9496 0
M  V30 3701 H 358.597 -0.731235 -0.152658 0
M  V30 3702 H 361.259 -1.92279 0.318567 0
M  V30 3703 H 360.355 -3.03463 -0.729167 0
M  V30 3704 N 360.656 0.0484629 -1.57525 0
M  V30 3705 C 361.619 1.03956 -2.04269 0
M  V30 3706 C 362.619 1.30211 -0.943496 0
M  V30 3707 O 363.809 1.25539 -1.20771 0
M  V30 3708 C 360.941 2.37742 -2.44319 0
M  V30 3709 H 362.134 0.636182 -2.93075 0
M  V30 3710 H 359.687 0.294811 -1.53494 0
M  V30 3711 H 360.422 2.82866 -1.5861 0
M  V30 3712 H 360.207 2.20021 -3.24551 0
M  V30 3713 H 361.697 3.08936 -2.80978 0
M  V30 3714 N 362.134 1.5431 0.320358 0
M  V30 3715 C 363.081 1.83918 1.39438 0
M  V30 3716 C 364.051 0.686525 1.51248 0
M  V30 3717 O 365.236 0.933269 1.66417 0
M  V30 3718 C 362.376 2.075 2.75749 0
M  V30 3719 C 361.489 3.35177 2.72544 0
M  V30 3720 C 360.624 3.48704 4.00723 0
M  V30 3721 C 359.663 4.70244 3.91838 0
M  V30 3722 N 358.8 4.80679 5.11754 0
M  V30 3723 H 363.64 2.75544 1.13489 0
M  V30 3724 H 361.177 1.36459 0.549309 0
M  V30 3725 H 363.135 2.19166 3.54996 0
M  V30 3726 H 361.765 1.19163 3 0
M  V30 3727 H 360.817 3.32233 1.85271 0
M  V30 3728 H 362.129 4.24534 2.61863 0
M  V30 3729 H 361.283 3.59928 4.88402 0
M  V30 3730 H 360.022 2.57445 4.14214 0
M  V30 3731 H 359.027 4.59072 3.02544 0
M  V30 3732 H 360.252 5.6289 3.7991 0
M  V30 3733 H 358.198 3.92337 5.25745 0
M  V30 3734 H 358.115 5.64007 5.0342 0
M  V30 3735 H 359.383 4.96239 6.01138 0
M  V30 3736 N 363.613 -0.582584 1.46437 0
M  V30 3737 C 364.859 -1.34278 1.51978 0
M  V30 3738 C 365.192 -1.93446 0.170973 0
M  V30 3739 O 364.467 -1.76481 -0.817608 0
M  V30 3740 C 364.75 -2.47203 2.61845 0
M  V30 3741 C 364.603 -1.93069 4.06257 0
M  V30 3742 C 365.922 -3.49247 2.67795 0
M  V30 3743 H 363.041 -0.486876 0.553282 0
M  V30 3744 H 365.683 -0.654437 1.78374 0
M  V30 3745 H 363.833 -3.0592 2.39469 0
M  V30 3746 H 365.505 -1.38808 4.3992 0
M  V30 3747 H 363.748 -1.23898 4.1573 0
M  V30 3748 H 364.419 -2.74586 4.7886 0
M  V30 3749 H 366.895 -3.00411 2.8791 0
M  V30 3750 H 365.771 -4.25719 3.46489 0
M  V30 3751 H 366.032 -4.06482 1.73852 0
M  V30 3752 N 365.091 -1.34144 -0.827227 0
M  V30 3753 C 366.507 -1.13732 -1.11969 0
M  V30 3754 C 366.707 0.0640463 -2.01398 0
M  V30 3755 O 365.763 0.740856 -2.41387 0
M  V30 3756 C 367.076 -2.43047 -1.77055 0
M  V30 3757 C 368.624 -2.49063 -1.89569 0
M  V30 3758 C 369.099 -3.78369 -2.58072 0
M  V30 3759 N 370.59 -3.79505 -2.65575 0
M  V30 3760 C 371.325 -4.76274 -3.19297 0
M  V30 3761 N 370.821 -5.83424 -3.73616 0
M  V30 3762 N 372.614 -4.63735 -3.17658 0
M  V30 3763 H 364.765 -2.11126 -0.232296 0
M  V30 3764 H 367.028 -0.933424 -0.165602 0
M  V30 3765 H 366.734 -3.31025 -1.18807 0
M  V30 3766 H 366.608 -2.56066 -2.76966 0
M  V30 3767 H 368.995 -1.61527 -2.46968 0
M  V30 3768 H 369.076 -2.39975 -0.885745 0
M  V30 3769 H 368.72 -4.66293 -2.01329 0
M  V30 3770 H 368.65 -3.84737 -3.59562 0
M  V30 3771 H 371.141 -3.02074 -2.27068 0
M  V30 3772 H 371.454 -6.53282 -4.12846 0
M  V30 3773 H 369.799 -5.87143 -3.71871 0
M  V30 3774 H 372.99 -3.79177 -2.74486 0
M  V30 3775 H 373.163 -5.39318 -3.59221 0
M  V30 3776 N 366.569 1.04691 -1.17803 0
M  V30 3777 C 367.816 1.77782 -0.969532 0
M  V30 3778 C 368.144 1.87926 0.501401 0
M  V30 3779 O 367.399 1.37918 1.38842 0
M  V30 3780 C 367.698 3.21467 -1.56186 0
M  V30 3781 C 367.364 3.3137 -3.05786 0
M  V30 3782 C 366.026 3.3378 -3.46619 0
M  V30 3783 C 368.378 3.31976 -4.01797 0
M  V30 3784 C 365.706 3.34431 -4.82051 0
M  V30 3785 C 368.058 3.34167 -5.37136 0
M  V30 3786 C 366.722 3.34866 -5.77426 0
M  V30 3787 H 365.992 0.650549 -0.354777 0
M  V30 3788 H 368.639 1.23006 -1.46772 0
M  V30 3789 H 366.944 3.79203 -0.985515 0
M  V30 3790 H 368.641 3.76652 -1.37602 0
M  V30 3791 H 365.231 3.3021 -2.73238 0
M  V30 3792 H 369.415 3.29311 -3.71306 0
M  V30 3793 H 364.671 3.33285 -5.12573 0
M  V30 3794 H 368.845 3.33585 -6.11305 0
M  V30 3795 H 366.472 3.35124 -6.82346 0
M  V30 3796 N 368.047 0.979072 1.23499 0
M  V30 3797 C 368.957 0.526431 2.28617 0
M  V30 3798 C 369.973 -0.418126 1.68901 0
M  V30 3799 O 371.149 -0.288372 1.99325 0
M  V30 3800 C 368.214 -0.165235 3.46306 0
M  V30 3801 C 367.275 0.82056 4.21385 0
M  V30 3802 C 366.508 0.161807 5.33455 0
M  V30 3803 O 366.731 -1.04742 5.60701 0
M  V30 3804 O 365.665 0.859708 5.95729 0
M  V30 3805 H 369.491 1.4006 2.69475 0
M  V30 3806 H 367.076 0.746643 1.29405 0
M  V30 3807 H 368.958 -0.553287 4.17752 0
M  V30 3808 H 367.633 -1.01419 3.07402 0
M  V30 3809 H 366.54 1.25929 3.52268 0
M  V30 3810 H 367.873 1.63828 4.64135 0
M  V30 3811 N 369.525 -1.3858 0.750561 0
M  V30 3812 C 370.435 -2.34278 0.122825 0
M  V30 3813 C 371.451 -1.59116 -0.704131 0
M  V30 3814 O 372.627 -1.91326 -0.628987 0
M  V30 3815 C 369.692 -3.38221 -0.762086 0
M  V30 3816 C 368.753 -4.29227 0.078896 0
M  V30 3817 C 367.986 -5.28205 -0.763874 0
M  V30 3818 O 368.209 -5.34112 -2.00201 0
M  V30 3819 O 367.143 -6.01618 -0.18428 0
M  V30 3820 H 370.969 -2.89649 0.913088 0
M  V30 3821 H 368.554 -1.40374 0.511417 0
M  V30 3822 H 370.436 -4.01872 -1.26793 0
M  V30 3823 H 369.111 -2.85211 -1.5309 0
M  V30 3824 H 368.018 -3.68747 0.630621 0
M  V30 3825 H 369.351 -4.85484 0.810289 0
M  V30 3826 N 371.003 -0.499398 -1.49478 0
M  V30 3827 C 372.252 0.0475259 -2.01644 0
M  V30 3828 C 372.565 1.38195 -1.38425 0
M  V30 3829 O 373.771 2.01547 -1.8191 0
M  V30 3830 C 372.227 0.135164 -3.59646 0
M  V30 3831 C 371.835 -1.19252 -4.31837 0
M  V30 3832 C 373.579 0.632538 -4.19761 0
M  V30 3833 C 371.486 -1.06713 -5.81693 0
M  V30 3834 H 370.416 0.0215349 -0.753692 0
M  V30 3835 H 373.067 -0.638577 -1.7203 0
M  V30 3836 H 371.449 0.885681 -3.85969 0
M  V30 3837 H 372.623 -1.9562 -4.17216 0
M  V30 3838 H 370.938 -1.62321 -3.83459 0
M  V30 3839 H 373.535 0.743833 -5.29501 0
M  V30 3840 H 373.878 1.63098 -3.83021 0
M  V30 3841 H 374.411 -0.0613987 -3.97753 0
M  V30 3842 H 371.15 -2.03979 -6.22955 0
M  V30 3843 H 370.67 -0.344307 -5.98811 0
M  V30 3844 H 372.349 -0.745208 -6.42694 0
M  V30 3845 N 372.481 1.55866 -0.233164 0
M  V30 3846 C 373.444 2.1953 0.658715 0
M  V30 3847 C 374.444 1.16053 1.11303 0
M  V30 3848 O 375.634 1.41218 1.01996 0
M  V30 3849 C 372.766 2.82791 1.90373 0
M  V30 3850 H 373.959 2.99721 0.10347 0
M  V30 3851 H 371.512 1.56291 0.0164245 0
M  V30 3852 H 372.247 2.06501 2.50056 0
M  V30 3853 H 372.032 3.58578 1.58632 0
M  V30 3854 H 373.522 3.31556 2.53891 0
M  V30 3855 N 373.959 -0.0401083 1.57549 0
M  V30 3856 C 375.184 -0.748931 1.93406 0
M  V30 3857 C 375.609 -1.68686 0.832274 0
M  V30 3858 O 374.967 -1.80047 -0.212818 0
M  V30 3859 C 375.015 -1.4916 3.28304 0
M  V30 3860 O 374.119 -2.6042 3.19774 0
M  V30 3861 H 373.46 -0.202212 0.63246 0
M  V30 3862 H 375.99 0.00112086 2.046 0
M  V30 3863 H 376 -1.86395 3.62934 0
M  V30 3864 H 374.675 -0.80364 4.08062 0
M  V30 3865 H 373.252 -2.25808 2.96758 0
M  V30 3866 N 375.437 -1.54477 -0.31217 0
M  V30 3867 C 376.683 -1.73483 -1.0503 0
M  V30 3868 C 377.016 -0.513125 -1.87298 0
M  V30 3869 O 376.291 0.489864 -1.8823 0
M  V30 3870 C 376.574 -3.01723 -1.96558 0
M  V30 3871 C 376.427 -4.3417 -1.17545 0
M  V30 3872 C 377.746 -3.25772 -2.95907 0
M  V30 3873 H 374.865 -0.631222 -0.380432 0
M  V30 3874 H 377.507 -1.87184 -0.325932 0
M  V30 3875 H 375.657 -2.90174 -2.58324 0
M  V30 3876 H 377.329 -4.5762 -0.581513 0
M  V30 3877 H 375.572 -4.31159 -0.477925 0
M  V30 3878 H 376.243 -5.20143 -1.84811 0
M  V30 3879 H 378.719 -3.36857 -2.44267 0
M  V30 3880 H 377.595 -4.16838 -3.57123 0
M  V30 3881 H 377.856 -2.43537 -3.68974 0
M  V30 3882 N 376.915 0.57481 -1.46744 0
M  V30 3883 C 378.164 1.32898 -1.51727 0
M  V30 3884 C 378.477 1.948 -0.176692 0
M  V30 3885 O 379.683 2.71299 -0.104385 0
M  V30 3886 C 378.139 2.40901 -2.67385 0
M  V30 3887 C 377.747 1.85266 -4.07898 0
M  V30 3888 C 379.491 3.17609 -2.81646 0
M  V30 3889 C 377.398 2.90945 -5.14883 0
M  V30 3890 H 376.328 0.499631 -0.564699 0
M  V30 3891 H 378.979 0.612536 -1.72975 0
M  V30 3892 H 377.361 3.15379 -2.39483 0
M  V30 3893 H 378.535 1.17278 -4.45626 0
M  V30 3894 H 376.85 1.21199 -3.98371 0
M  V30 3895 H 379.447 3.96493 -3.58744 0
M  V30 3896 H 379.79 3.70696 -1.89448 0
M  V30 3897 H 380.323 2.50239 -3.09233 0
M  V30 3898 H 377.062 2.42736 -6.089 0
M  V30 3899 H 376.582 3.57398 -4.81691 0
M  V30 3900 H 378.261 3.54755 -5.41071 0
M  V30 3901 N 378.394 1.34581 0.820102 0
M  V30 3902 C 379.342 1.26401 1.95258 0
M  V30 3903 C 380.336 0.161553 1.68628 0
M  V30 3904 O 381.542 0.326703 1.7701 0
M  V30 3905 H 377.917 0.392749 0.64129 0
M  V30 3906 H 379.888 2.22105 1.99279 0
M  V30 3907 C 378.637 1.03919 3.31807 0
M  V30 3908 H 377.96 1.87984 3.52848 0
M  V30 3909 H 379.4 1.02232 4.11491 0
M  V30 3910 C 377.859 -0.257433 3.35915 0
M  V30 3911 O 378.389 -1.25784 3.81499 0
M  V30 3912 N 376.595 -0.291524 2.89134 0
M  V30 3913 H 376.142 0.523161 2.52232 0
M  V30 3914 H 376.1 -1.15883 2.92264 0
M  V30 3915 N 379.872 -1.04064 1.18357 0
M  V30 3916 C 381.097 -1.81454 1.00445 0
M  V30 3917 C 381.522 -1.82823 -0.442423 0
M  V30 3918 O 380.88 -1.24555 -1.31741 0
M  V30 3919 C 380.928 -3.24925 1.56384 0
M  V30 3920 O 380.032 -4.04856 0.785209 0
M  V30 3921 H 379.373 -0.560604 0.355835 0
M  V30 3922 H 381.903 -1.31059 1.57114 0
M  V30 3923 H 381.913 -3.75702 1.59097 0
M  V30 3924 H 380.588 -3.23244 2.61699 0
M  V30 3925 H 379.165 -3.63537 0.830399 0
M  V30 3926 N 381.35 -0.985608 -1.22978 0
M  V30 3927 C 382.313 -0.535071 -2.22867 0
M  V30 3928 C 383.313 0.378123 -1.56291 0
M  V30 3929 O 384.503 0.171092 -1.73358 0
M  V30 3930 C 381.635 0.222702 -3.40172 0
M  V30 3931 H 382.828 -1.41835 -2.6424 0
M  V30 3932 H 380.381 -0.772042 -1.35901 0
M  V30 3933 H 381.116 1.12229 -3.04262 0
M  V30 3934 H 380.901 -0.43288 -3.89703 0
M  V30 3935 H 382.391 0.526335 -4.1427 0
M  V30 3936 N 382.828 1.3818 -0.7579 0
M  V30 3937 C 383.758 2.33027 -0.148597 0
M  V30 3938 C 384.739 1.55085 0.69875 0
M  V30 3939 O 385.924 1.83384 0.639053 0
M  V30 3940 C 383.054 3.3928 0.742034 0
M  V30 3941 C 382.008 4.28 -0.00291946 0
M  V30 3942 C 381.334 5.25146 1.00625 0
M  V30 3943 C 382.634 5.08938 -1.17385 0
M  V30 3944 H 384.328 2.84231 -0.940909 0
M  V30 3945 H 381.874 1.36659 -0.453908 0
M  V30 3946 H 383.827 4.046 1.17799 0
M  V30 3947 H 382.551 2.86569 1.56671 0
M  V30 3948 H 381.21 3.64192 -0.419504 0
M  V30 3949 H 380.858 4.68721 1.8251 0
M  V30 3950 H 380.558 5.85361 0.512428 0
M  V30 3951 H 382.082 5.93342 1.44143 0
M  V30 3952 H 383.496 5.67474 -0.815224 0
M  V30 3953 H 381.893 5.7841 -1.59882 0
M  V30 3954 H 382.963 4.42424 -1.98468 0
M  V30 3955 N 384.306 0.507319 1.49211 0
M  V30 3956 C 385.583 -0.0982702 1.95353 0
M  V30 3957 C 385.963 -1.53516 1.449 0
M  V30 3958 O 385.311 -2.18594 0.66551 0
M  V30 3959 C 385.521 -0.00440283 3.49 0
M  V30 3960 C 386.869 -0.175147 4.24239 0
M  V30 3961 O 387.893 -0.0792891 3.56112 0
M  V30 3962 O 386.752 -0.37276 5.45227 0
M  V30 3963 H 383.846 -0.0918236 0.821887 0
M  V30 3964 H 386.392 0.570307 1.5983 0
M  V30 3965 H 385.164 0.997402 3.78375 0
M  V30 3966 H 384.787 -0.712845 3.91158 0
M  V30 3967 N 385.784 -1.5574 0.241426 0
M  V30 3968 C 386.714 -2.24133 -0.654722 0
M  V30 3969 C 387.695 -1.21974 -1.1856 0
M  V30 3970 O 388.88 -1.50612 -1.22595 0
M  V30 3971 C 386.01 -2.93659 -1.85423 0
M  V30 3972 C 384.964 -4.0246 -1.45636 0
M  V30 3973 C 384.29 -4.59383 -2.73626 0
M  V30 3974 C 385.59 -5.18468 -0.631506 0
M  V30 3975 H 387.284 -2.99281 -0.0844353 0
M  V30 3976 H 384.83 -1.43947 -0.0391707 0
M  V30 3977 H 386.783 -3.40203 -2.48676 0
M  V30 3978 H 385.507 -2.15991 -2.44981 0
M  V30 3979 H 384.166 -3.56676 -0.847202 0
M  V30 3980 H 383.814 -3.78422 -3.3137 0
M  V30 3981 H 383.514 -5.32826 -2.4773 0
M  V30 3982 H 385.038 -5.08658 -3.37786 0
M  V30 3983 H 386.452 -5.61272 -1.1682 0
M  V30 3984 H 384.849 -5.98266 -0.468831 0
M  V30 3985 H 385.919 -4.8358 0.357506 0
M  V30 3986 N 387.262 0.0317525 -1.57568 0
M  V30 3987 C 388.492 0.733884 -1.93126 0
M  V30 3988 C 388.9 1.69563 -0.839352 0
M  V30 3989 O 388.243 1.82681 0.193175 0
M  V30 3990 C 388.305 1.54798 -3.24465 0
M  V30 3991 C 387.969 0.751304 -4.50782 0
M  V30 3992 C 388.966 0.0527632 -5.19873 0
M  V30 3993 C 386.651 0.706639 -4.97305 0
M  V30 3994 C 388.645 -0.679774 -6.33765 0
M  V30 3995 C 386.332 -0.0296449 -6.11093 0
M  V30 3996 C 387.33 -0.721614 -6.79177 0
M  V30 3997 O 387.018 -1.44595 -7.90789 0
M  V30 3998 H 386.75 0.211459 -0.642076 0
M  V30 3999 H 389.304 -0.00585615 -2.05399 0
M  V30 4000 H 387.534 2.33147 -3.08512 0
M  V30 4001 H 389.223 2.13247 -3.4537 0
M  V30 4002 H 389.989 0.0783188 -4.84937 0
M  V30 4003 H 385.868 1.23474 -4.44157 0
M  V30 4004 H 389.412 -1.22042 -6.86842 0
M  V30 4005 H 385.309 -0.0571331 -6.45475 0
M  V30 4006 H 386.077 -1.35935 -8.07133 0
M  V30 4007 N 388.74 1.54641 0.303973 0
M  V30 4008 C 389.987 1.7378 1.03955 0
M  V30 4009 C 390.315 0.521986 1.87365 0
M  V30 4010 O 389.57 -0.496099 1.89308 0
M  V30 4011 C 389.869 2.97753 1.97681 0
M  V30 4012 C 389.535 4.31671 1.30271 0
M  V30 4013 C 388.197 4.68075 1.11619 0
M  V30 4014 C 390.549 5.147 0.82055 0
M  V30 4015 C 387.877 5.8509 0.434304 0
M  V30 4016 C 390.229 6.32416 0.152395 0
M  V30 4017 C 388.893 6.67484 -0.0461067 0
M  V30 4018 H 388.163 0.635908 0.380398 0
M  V30 4019 H 390.81 1.88896 0.314718 0
M  V30 4020 H 389.115 2.77406 2.76682 0
M  V30 4021 H 390.812 3.09756 2.54661 0
M  V30 4022 H 387.402 4.03041 1.45795 0
M  V30 4023 H 391.586 4.87077 0.952374 0
M  V30 4024 H 386.842 6.10806 0.269495 0
M  V30 4025 H 391.016 6.96023 -0.229126 0
M  V30 4026 H 388.643 7.58011 -0.576494 0
M  V30 4027 N 390.218 -0.567019 1.47046 0
M  V30 4028 C 391.629 -1.14916 1.47143 0
M  V30 4029 C 391.98 -1.94954 0.220767 0
M  V30 4030 O 391.105 -2.05602 -0.67505 0
M  V30 4031 C 391.7 -2.09069 2.666 0
M  V30 4032 C 390.259 -2.62575 2.69687 0
M  V30 4033 C 389.406 -1.38755 2.40088 0
M  V30 4034 H 392.357 -0.354126 1.54699 0
M  V30 4035 H 392.378 -2.92789 2.43011 0
M  V30 4036 H 391.89 -1.50789 3.57609 0
M  V30 4037 H 389.991 -3.24681 1.82792 0
M  V30 4038 H 390.104 -3.04239 3.70102 0
M  V30 4039 H 388.468 -1.69098 1.90468 0
M  V30 4040 H 389.251 -0.822822 3.33293 0
M  V30 4041 N 391.696 -1.35014 -0.812953 0
M  V30 4042 C 392.606 -1.2951 -1.95613 0
M  V30 4043 C 393.622 -0.20107 -1.72834 0
M  V30 4044 O 394.798 -0.42932 -1.96771 0
M  V30 4045 C 391.863 -1.06033 -3.30088 0
M  V30 4046 C 390.924 -2.24688 -3.65805 0
M  V30 4047 C 390.157 -2.02322 -4.93864 0
M  V30 4048 O 390.38 -0.986464 -5.61805 0
M  V30 4049 O 389.314 -2.89525 -5.27692 0
M  V30 4050 H 393.14 -2.25705 -2.03202 0
M  V30 4051 H 390.725 -1.15321 -0.949811 0
M  V30 4052 H 392.607 -0.94763 -4.10607 0
M  V30 4053 H 391.282 -0.128852 -3.23443 0
M  V30 4054 H 390.189 -2.41521 -2.85689 0
M  V30 4055 H 391.522 -3.16261 -3.77147 0
M  V30 4056 N 393.175 1.03435 -1.18907 0
M  V30 4057 C 394.423 1.76394 -0.986382 0
M  V30 4058 C 394.744 1.88883 0.484567 0
M  V30 4059 O 394.014 1.41843 1.3512 0
M  V30 4060 H 392.594 0.65344 -0.361975 0
M  V30 4061 H 395.256 1.248 -1.49703 0
M  V30 4062 H 394.352 2.77424 -1.42978 0
M  V30 4063 N 394.653 0.992116 1.22453 0
M  V30 4064 C 395.893 0.675727 1.92907 0
M  V30 4065 C 396.257 -0.777762 1.75542 0
M  V30 4066 O 397.458 -1.20553 2.40251 0
M  V30 4067 C 395.729 1.0696 3.4102 0
M  V30 4068 S 397.288 0.871456 4.30059 0
M  V30 4069 H 394.106 0.247089 0.666684 0
M  V30 4070 H 396.708 1.27423 1.48269 0
M  V30 4071 H 395.412 2.12383 3.51172 0
M  V30 4072 H 394.943 0.462858 3.90668 0
M  V30 4073 H 396.958 -0.238436 4.95627 0
M  V30 4074 N 396.131 -1.37776 0.765217 0
M  V30 4075 C 397.379 -1.99454 0.325943 0
M  V30 4076 C 397.7 -1.61049 -1.09947 0
M  V30 4077 O 396.97 -0.872821 -1.75381 0
M  V30 4078 H 395.55 -0.737697 0.117525 0
M  V30 4079 H 398.212 -1.68359 0.981895 0
M  V30 4080 H 397.308 -3.09547 0.398353 0
M  V30 4081 N 397.609 -0.515225 -1.4894 0
M  V30 4082 C 398.855 0.0242508 -2.02785 0
M  V30 4083 C 399.188 1.35323 -1.39289 0
M  V30 4084 O 398.463 1.87041 -0.533469 0
M  V30 4085 C 398.746 0.16184 -3.59736 0
M  V30 4086 C 398.599 -1.19127 -4.33738 0
M  V30 4087 C 399.918 0.895719 -4.30888 0
M  V30 4088 H 397.037 0.00733914 -0.736963 0
M  V30 4089 H 399.679 -0.669395 -1.77818 0
M  V30 4090 H 397.829 0.752624 -3.8114 0
M  V30 4091 H 399.501 -1.82202 -4.23792 0
M  V30 4092 H 397.744 -1.77695 -3.95736 0
M  V30 4093 H 398.415 -1.04815 -5.41957 0
M  V30 4094 H 400.891 0.394528 -4.14225 0
M  V30 4095 H 399.767 0.960859 -5.40425 0
M  V30 4096 H 400.028 1.9427 -3.97129 0
M  V30 4097 N 399.087 1.5561 -0.249682 0
M  V30 4098 C 400.364 1.90932 0.424761 0
M  V30 4099 C 400.744 1.17078 1.75658 0
M  V30 4100 O 400.092 0.289176 2.26663 0
M  V30 4101 C 400.302 3.43975 0.590109 0
M  V30 4102 C 401.65 4.15281 0.884714 0
M  V30 4103 O 402.674 3.49729 0.67587 0
M  V30 4104 O 401.533 5.31236 1.28259 0
M  V30 4105 H 398.627 0.794815 0.228468 0
M  V30 4106 H 401.173 1.67135 -0.293954 0
M  V30 4107 H 399.945 3.89748 -0.34818 0
M  V30 4108 H 399.568 3.73644 1.35926 0
M  V30 4109 N 400.565 -0.0233959 1.57583 0
M  V30 4110 C 401.814 -0.712133 1.8871 0
M  V30 4111 C 402.127 -1.76217 0.848944 0
M  V30 4112 O 403.333 -2.50389 1.04964 0
M  V30 4113 C 401.789 -1.3177 3.3491 0
M  V30 4114 C 401.397 -0.303715 4.46969 0
M  V30 4115 C 403.141 -1.98598 3.75179 0
M  V30 4116 C 401.048 -0.917945 5.84233 0
M  V30 4117 H 399.978 -0.269735 0.704101 0
M  V30 4118 H 402.629 0.0333114 1.8347 0
M  V30 4119 H 401.011 -2.11304 3.34913 0
M  V30 4120 H 402.185 0.465325 4.58445 0
M  V30 4121 H 400.5 0.2628 4.1557 0
M  V30 4122 H 403.097 -2.45416 4.75053 0
M  V30 4123 H 403.44 -2.80659 3.07468 0
M  V30 4124 H 403.973 -1.25831 3.77374 0
M  V30 4125 H 400.712 -0.136633 6.55358 0
M  V30 4126 H 400.232 -1.65669 5.76467 0
M  V30 4127 H 401.911 -1.4236 6.31144 0
M  V30 4128 N 402.043 -1.548 -0.295768 0
M  V30 4129 C 403.29 -1.74329 -1.03032 0
M  V30 4130 C 403.618 -0.531915 -1.87085 0
M  V30 4131 O 402.873 0.486052 -1.89568 0
M  V30 4132 C 403.172 -2.98797 -1.961 0
M  V30 4133 C 402.838 -4.32356 -1.2798 0
M  V30 4134 C 401.5 -4.68661 -1.09135 0
M  V30 4135 C 403.852 -5.15128 -0.793243 0
M  V30 4136 C 401.18 -5.85312 -0.403269 0
M  V30 4137 C 403.532 -6.32488 -0.118854 0
M  V30 4138 C 402.196 -6.6745 0.0815043 0
M  V30 4139 H 401.466 -0.637916 -0.37702 0
M  V30 4140 H 404.113 -1.8906 -0.304696 0
M  V30 4141 H 402.418 -2.78869 -2.75207 0
M  V30 4142 H 404.115 -3.11102 -2.53015 0
M  V30 4143 H 400.705 -4.03808 -1.43655 0
M  V30 4144 H 404.889 -4.87575 -0.92653 0
M  V30 4145 H 400.145 -6.1094 -0.237098 0
M  V30 4146 H 404.319 -6.95892 0.266035 0
M  V30 4147 H 401.946 -7.57695 0.616685 0
M  V30 4148 N 403.521 0.559213 -1.47345 0
M  V30 4149 C 404.484 1.64854 -1.59235 0
M  V30 4150 C 405.484 1.53851 -0.467607 0
M  V30 4151 O 406.674 1.58045 -0.732617 0
M  V30 4152 C 403.806 3.04388 -1.53496 0
M  V30 4153 H 404.999 1.55662 -2.56339 0
M  V30 4154 H 402.552 0.778973 -1.35505 0
M  V30 4155 H 403.287 3.19115 -0.577604 0
M  V30 4156 H 403.072 3.13783 -2.35123 0
M  V30 4157 H 404.562 3.83642 -1.6495 0
M  V30 4158 N 404.999 1.35443 0.805782 0
M  V30 4159 C 405.909 1.30546 1.94923 0
M  V30 4160 C 406.925 0.210233 1.72725 0
M  V30 4161 O 408.101 0.43975 1.9654 0
M  V30 4162 C 405.166 1.07782 3.29521 0
M  V30 4163 C 404.227 2.26625 3.64609 0
M  V30 4164 C 403.46 2.04938 4.92784 0
M  V30 4165 O 403.683 1.01624 5.61274 0
M  V30 4166 O 402.617 2.9232 5.26149 0
M  V30 4167 H 406.443 2.26779 2.02002 0
M  V30 4168 H 404.028 1.15823 0.943682 0
M  V30 4169 H 405.91 0.969392 4.10098 0
M  V30 4170 H 404.585 0.146003 3.23371 0
M  V30 4171 H 403.492 2.43033 2.84404 0
M  V30 4172 H 404.825 3.18257 3.75464 0
M  V30 4173 N 406.477 -1.02803 1.19454 0
M  V30 4174 C 407.407 -2.12999 0.956758 0
M  V30 4175 C 408.388 -1.69743 -0.110188 0
M  V30 4176 O 409.573 -1.94148 0.0450038 0
M  V30 4177 C 406.703 -3.43746 0.495553 0
M  V30 4178 C 405.657 -4.00688 1.50443 0
M  V30 4179 C 404.983 -5.27067 0.900275 0
M  V30 4180 C 406.283 -4.35397 2.8849 0
M  V30 4181 H 407.977 -2.33148 1.87836 0
M  V30 4182 H 405.523 -1.12045 0.904539 0
M  V30 4183 H 407.476 -4.2021 0.316493 0
M  V30 4184 H 406.2 -3.23321 -0.461646 0
M  V30 4185 H 404.859 -3.2632 1.67065 0
M  V30 4186 H 404.507 -5.02959 -0.064503 0
M  V30 4187 H 404.207 -5.66127 1.57397 0
M  V30 4188 H 405.731 -6.06196 0.73203 0
M  V30 4189 H 407.145 -5.02795 2.75446 0
M  V30 4190 H 405.542 -4.85541 3.52661 0
M  V30 4191 H 406.612 -3.44662 3.41081 0
M  V30 4192 N 407.956 -0.998596 -1.21925 0
M  V30 4193 C 409.204 -0.676325 -1.90448 0
M  V30 4194 C 409.525 0.794719 -1.78071 0
M  V30 4195 O 408.795 1.5701 -1.17152 0
M  V30 4196 H 407.375 -0.247165 -0.704925 0
M  V30 4197 H 410.037 -1.26633 -1.48156 0
M  V30 4198 H 409.133 -0.943858 -2.97486 0
M  V30 4199 N 409.434 1.37368 -0.772513 0
M  V30 4200 C 410.85 1.53059 -0.452231 0
M  V30 4201 C 411.05 1.73065 1.03203 0
M  V30 4202 O 410.106 1.75245 1.81784 0
M  V30 4203 C 411.419 2.72659 -1.26797 0
M  V30 4204 C 412.967 2.86521 -1.25995 0
M  V30 4205 C 413.442 4.09105 -2.05905 0
M  V30 4206 N 414.933 4.16219 -2.03263 0
M  V30 4207 C 415.668 5.10107 -2.61875 0
M  V30 4208 N 415.164 6.09547 -3.29278 0
M  V30 4209 N 416.957 5.02596 -2.51701 0
M  V30 4210 H 409.108 1.22634 -1.7342 0
M  V30 4211 H 411.371 0.597206 -0.736239 0
M  V30 4212 H 411.077 2.64343 -2.31982 0
M  V30 4213 H 410.951 3.66363 -0.897672 0
M  V30 4214 H 413.338 2.94308 -0.216081 0
M  V30 4215 H 413.419 1.93774 -1.66989 0
M  V30 4216 H 413.063 4.0208 -3.10313 0
M  V30 4217 H 412.993 5.00968 -1.62292 0
M  V30 4218 H 415.484 3.45012 -1.54192 0
M  V30 4219 H 415.797 6.77718 -3.71374 0
M  V30 4220 H 414.142 6.09824 -3.33377 0
M  V30 4221 H 417.333 4.23855 -1.98657 0
M  V30 4222 H 417.506 5.75582 -2.97673 0
M  V30 4223 N 410.912 0.523116 1.48665 0
M  V30 4224 C 412.142 -0.00961724 2.06598 0
M  V30 4225 C 412.55 -1.29333 1.38093 0
M  V30 4226 O 411.893 -1.77846 0.46007 0
M  V30 4227 C 411.955 -0.311135 3.58151 0
M  V30 4228 C 411.619 0.878092 4.48485 0
M  V30 4229 C 412.616 1.77464 4.88674 0
M  V30 4230 C 410.301 1.08315 4.90483 0
M  V30 4231 C 412.295 2.86021 5.69623 0
M  V30 4232 C 409.982 2.17187 5.71203 0
M  V30 4233 C 410.98 3.05873 6.10681 0
M  V30 4234 O 410.668 4.12862 6.89783 0
M  V30 4235 H 410.4 0.0272658 0.67545 0
M  V30 4236 H 412.954 0.726156 1.92136 0
M  V30 4237 H 411.184 -1.10079 3.70701 0
M  V30 4238 H 412.873 -0.785125 3.98234 0
M  V30 4239 H 413.639 1.62813 4.56855 0
M  V30 4240 H 409.518 0.402149 4.59243 0
M  V30 4241 H 413.062 3.55272 6.00356 0
M  V30 4242 H 408.959 2.31824 6.02435 0
M  V30 4243 H 409.727 4.10487 7.08126 0
M  V30 4244 N 412.39 -1.55475 0.257931 0
M  V30 4245 C 413.62 -2.03314 -0.367026 0
M  V30 4246 C 414.028 -1.13625 -1.51281 0
M  V30 4247 O 413.371 -0.145334 -1.83124 0
M  V30 4248 C 413.433 -3.47362 -0.926284 0
M  V30 4249 C 413.097 -4.56914 0.0886584 0
M  V30 4250 C 414.094 -5.12013 0.902123 0
M  V30 4251 C 411.779 -5.01827 0.217936 0
M  V30 4252 C 413.773 -6.10529 1.83122 0
M  V30 4253 C 411.46 -6.00172 1.15052 0
M  V30 4254 C 412.458 -6.54402 1.95568 0
M  V30 4255 O 412.146 -7.50827 2.87253 0
M  V30 4256 H 411.878 -0.669976 -0.0900443 0
M  V30 4257 H 414.432 -2.01804 0.382673 0
M  V30 4258 H 412.662 -3.46056 -1.72575 0
M  V30 4259 H 414.351 -3.78637 -1.46249 0
M  V30 4260 H 415.117 -4.78139 0.812891 0
M  V30 4261 H 410.996 -4.59272 -0.398721 0
M  V30 4262 H 414.54 -6.52783 2.46008 0
M  V30 4263 H 410.437 -6.33465 1.24064 0
M  V30 4264 H 411.205 -7.68483 2.81739 0
M  V30 4265 N 413.868 0.0150385 -1.57593 0
M  V30 4266 C 415.114 0.704043 -1.90187 0
M  V30 4267 C 415.447 1.74249 -0.857366 0
M  V30 4268 O 414.722 1.94092 0.125843 0
M  V30 4269 C 415.005 1.36087 -3.33395 0
M  V30 4270 C 414.858 0.334981 -4.48551 0
M  V30 4271 C 416.177 2.29112 -3.7576 0
M  V30 4272 H 413.296 0.254475 -0.691673 0
M  V30 4273 H 415.938 -0.0331678 -1.89971 0
M  V30 4274 H 414.088 1.98922 -3.3371 0
M  V30 4275 H 415.76 -0.292534 -4.60372 0
M  V30 4276 H 414.003 -0.344325 -4.32431 0
M  V30 4277 H 414.674 0.833316 -5.45674 0
M  V30 4278 H 417.15 1.76308 -3.76902 0
M  V30 4279 H 416.026 2.72043 -4.76743 0
M  V30 4280 H 416.287 3.16385 -3.08793 0
M  V30 4281 N 415.346 1.54954 0.287554 0
M  V30 4282 C 416.574 1.78881 1.03967 0
M  V30 4283 C 416.989 0.554894 1.80462 0
M  V30 4284 O 416.346 -0.475676 1.76192 0
M  V30 4285 C 416.397 3.00488 2.0097 0
M  V30 4286 O 416.118 4.19113 1.27577 0
M  V30 4287 C 417.619 3.36907 2.88112 0
M  V30 4288 H 414.839 0.596259 0.307761 0
M  V30 4289 H 417.383 2.01937 0.322749 0
M  V30 4290 H 415.538 2.79601 2.68145 0
M  V30 4291 H 415.952 4.87765 1.92835 0
M  V30 4292 H 417.426 4.25205 3.52001 0
M  V30 4293 H 417.903 2.55659 3.57121 0
M  V30 4294 H 418.509 3.60001 2.26449 0
M  V30 4295 N 416.824 -0.551391 1.4764 0
M  V30 4296 C 418.049 -1.33837 1.58437 0
M  V30 4297 C 418.474 -1.866 0.237063 0
M  V30 4298 O 417.832 -1.6328 -0.787994 0
M  V30 4299 C 417.88 -2.48014 2.61766 0
M  V30 4300 O 416.984 -3.50419 2.1744 0
M  V30 4301 H 416.325 -0.397299 0.532024 0
M  V30 4302 H 418.855 -0.665759 1.93465 0
M  V30 4303 H 418.865 -2.94503 2.82369 0
M  V30 4304 H 417.54 -2.08969 3.5959 0
M  V30 4305 H 416.117 -3.10196 2.06961 0
M  V30 4306 N 418.302 -1.35869 -0.798587 0
M  V30 4307 C 419.265 -1.29307 -1.89242 0
M  V30 4308 C 420.265 -0.202747 -1.59517 0
M  V30 4309 O 421.455 -0.456957 -1.681 0
M  V30 4310 C 418.587 -1.00229 -3.25833 0
M  V30 4311 H 419.78 -2.26576 -1.96478 0
M  V30 4312 H 417.333 -1.20509 -0.995358 0
M  V30 4313 H 418.068 -0.033801 -3.24282 0
M  V30 4314 H 417.853 -1.79121 -3.48795 0
M  V30 4315 H 419.343 -0.98219 -4.05885 0
M  V30 4316 N 419.78 1.02168 -1.19998 0
M  V30 4317 C 421.027 1.75685 -1.00702 0
M  V30 4318 C 421.355 1.88947 0.461426 0
M  V30 4319 O 420.61 1.40832 1.35885 0
M  V30 4320 C 420.909 3.18081 -1.62969 0
M  V30 4321 C 420.575 3.24809 -3.12746 0
M  V30 4322 C 419.237 3.26352 -3.53621 0
M  V30 4323 C 421.589 3.23379 -4.08749 0
M  V30 4324 C 418.917 3.2413 -4.89036 0
M  V30 4325 C 421.269 3.22698 -5.44104 0
M  V30 4326 C 419.933 3.22542 -5.84399 0
M  V30 4327 H 419.203 0.642877 -0.368496 0
M  V30 4328 H 421.85 1.19865 -1.49348 0
M  V30 4329 H 420.155 3.77027 -1.06573 0
M  V30 4330 H 421.852 3.73648 -1.45561 0
M  V30 4331 H 418.442 3.2434 -2.80181 0
M  V30 4332 H 422.626 3.21361 -3.78207 0
M  V30 4333 H 417.882 3.22338 -5.19527 0
M  V30 4334 H 422.056 3.20543 -6.18244 0
M  V30 4335 H 419.683 3.20575 -6.89301 0
M  V30 4336 N 421.258 1.00505 1.21394 0
M  V30 4337 C 422.486 0.706609 1.9446 0
M  V30 4338 C 422.901 -0.73081 1.74082 0
M  V30 4339 O 422.258 -1.49446 1.04747 0
M  V30 4340 C 422.309 1.01824 3.46863 0
M  V30 4341 O 422.03 2.39919 3.66566 0
M  V30 4342 C 423.531 0.739216 4.37093 0
M  V30 4343 H 420.751 0.260394 0.618414 0
M  V30 4344 H 423.295 1.34311 1.54211 0
M  V30 4345 H 421.45 0.427343 3.85036 0
M  V30 4346 H 421.864 2.50784 4.6066 0
M  V30 4347 H 423.338 1.00744 5.42729 0
M  V30 4348 H 423.815 -0.326746 4.37983 0
M  V30 4349 H 424.421 1.31173 4.04566 0
M  V30 4350 N 422.737 -1.36956 0.779787 0
M  V30 4351 C 423.983 -1.99787 0.348281 0
M  V30 4352 C 424.316 -1.61756 -1.07465 0
M  V30 4353 O 423.591 -0.867639 -1.74075 0
M  V30 4354 C 423.874 -3.56597 0.50104 0
M  V30 4355 C 423.727 -4.04513 1.96697 0
M  V30 4356 C 425.046 -4.40008 -0.0898097 0
M  V30 4357 H 422.165 -0.725796 0.128022 0
M  V30 4358 H 424.807 -1.62514 0.984331 0
M  V30 4359 H 422.957 -3.88479 -0.0404347 0
M  V30 4360 H 424.629 -3.83161 2.56876 0
M  V30 4361 H 422.872 -3.56408 2.47297 0
M  V30 4362 H 423.543 -5.1352 2.02486 0
M  V30 4363 H 426.019 -4.14431 0.372293 0
M  V30 4364 H 424.895 -5.4888 0.0471605 0
M  V30 4365 H 425.156 -4.26035 -1.18096 0
M  V30 4366 N 424.215 -0.530993 -1.48385 0
M  V30 4367 C 425.178 0.220497 -2.28137 0
M  V30 4368 C 426.178 0.866851 -1.35434 0
M  V30 4369 O 427.368 0.726746 -1.58316 0
M  V30 4370 C 424.5 1.31921 -3.1434 0
M  V30 4371 H 425.693 -0.479714 -2.96038 0
M  V30 4372 H 423.246 -0.286968 -1.53643 0
M  V30 4373 H 423.981 2.05264 -2.51072 0
M  V30 4374 H 423.766 0.86085 -3.82533 0
M  V30 4375 H 425.256 1.84776 -3.74497 0
M  V30 4376 N 425.693 1.55336 -0.266172 0
M  V30 4377 C 426.939 1.99692 0.353681 0
M  V30 4378 C 427.272 1.1543 1.56172 0
M  V30 4379 O 426.547 0.222218 1.93226 0
M  V30 4380 C 426.83 3.52316 0.74466 0
M  V30 4381 C 426.683 4.47337 -0.470101 0
M  V30 4382 C 428.002 4.10588 1.58447 0
M  V30 4383 H 425.121 0.725961 0.12708 0
M  V30 4384 H 427.763 1.86336 -0.371333 0
M  V30 4385 H 425.913 3.63829 1.36239 0
M  V30 4386 H 427.585 4.4778 -1.10864 0
M  V30 4387 H 425.828 4.19364 -1.10978 0
M  V30 4388 H 426.499 5.51788 -0.15291 0
M  V30 4389 H 428.975 4.02297 1.06286 0
M  V30 4390 H 427.851 5.17607 1.82686 0
M  V30 4391 H 428.112 3.60253 2.56262 0
M  V30 4392 N 427.171 -0.0066808 1.57599 0
M  V30 4393 C 428.396 -0.707738 1.94951 0
M  V30 4394 C 428.821 -1.66882 0.867868 0
M  V30 4395 O 428.179 -1.80457 -0.17458 0
M  V30 4396 C 428.227 -1.42162 3.31394 0
M  V30 4397 O 427.331 -2.53578 3.25226 0
M  V30 4398 H 426.672 -0.188752 0.636607 0
M  V30 4399 H 429.202 0.0445193 2.04552 0
M  V30 4400 H 429.212 -1.78655 3.66806 0
M  V30 4401 H 427.887 -0.716903 4.09675 0
M  V30 4402 H 426.464 -2.19463 3.01481 0
M  V30 4403 N 428.649 -1.55105 -0.279332 0
M  V30 4404 C 429.898 -1.74618 -1.00952 0
M  V30 4405 C 430.211 -0.551096 -1.87676 0
M  V30 4406 O 431.417 -0.628507 -2.64125 0
M  V30 4407 C 429.873 -3.09025 -1.84476 0
M  V30 4408 C 429.481 -4.36081 -1.0265 0
M  V30 4409 C 431.225 -3.37891 -2.56963 0
M  V30 4410 C 429.132 -5.6153 -1.85576 0
M  V30 4411 H 428.062 -0.650868 -0.38064 0
M  V30 4412 H 430.713 -1.81569 -0.265475 0
M  V30 4413 H 429.095 -2.96095 -2.62952 0
M  V30 4414 H 430.269 -4.59909 -0.286354 0
M  V30 4415 H 428.584 -4.14312 -0.416464 0
M  V30 4416 H 431.181 -4.28822 -3.19399 0
M  V30 4417 H 431.524 -2.57737 -3.26921 0
M  V30 4418 H 432.057 -3.5189 -1.85522 0
M  V30 4419 H 428.796 -6.44413 -1.2005 0
M  V30 4420 H 428.316 -5.41854 -2.57204 0
M  V30 4421 H 429.995 -5.99594 -2.43096 0
M  V30 4422 N 430.127 0.543554 -1.4793 0
M  V30 4423 C 431.376 1.29649 -1.54512 0
M  V30 4424 C 431.689 1.94382 -0.217973 0
M  V30 4425 O 432.895 2.71017 -0.161908 0
M  V30 4426 C 431.351 2.35175 -2.72435 0
M  V30 4427 C 430.959 1.76572 -4.11736 0
M  V30 4428 C 432.703 3.11564 -2.8832 0
M  V30 4429 C 430.61 2.79958 -5.20939 0
M  V30 4430 H 429.54 0.487541 -0.57517 0
M  V30 4431 H 432.191 0.575708 -1.74235 0
M  V30 4432 H 430.573 3.10229 -2.46118 0
M  V30 4433 H 431.747 1.07799 -4.48013 0
M  V30 4434 H 430.062 1.12722 -4.00852 0
M  V30 4435 H 432.659 3.88794 -3.67074 0
M  V30 4436 H 433.002 3.66594 -1.97268 0
M  V30 4437 H 433.535 2.43623 -3.14472 0
M  V30 4438 H 430.274 2.29766 -6.13912 0
M  V30 4439 H 429.794 3.47101 -4.89164 0
M  V30 4440 H 431.473 3.43198 -5.48474 0
M  V30 4441 N 431.605 1.3629 0.791371 0
M  V30 4442 C 432.568 1.30309 1.88553 0
M  V30 4443 C 433.568 0.211204 1.59407 0
M  V30 4444 O 434.758 0.465865 1.67855 0
M  V30 4445 C 431.89 1.01956 3.25297 0
M  V30 4446 H 433.083 2.27614 1.95273 0
M  V30 4447 H 430.636 1.21035 0.988953 0
M  V30 4448 H 431.371 0.050998 3.2426 0
M  V30 4449 H 431.156 1.80968 3.4784 0
M  V30 4450 H 432.646 1.0037 4.05359 0
M  V30 4451 N 433.083 -1.0153 1.20538 0
M  V30 4452 C 434.03 -2.10098 0.955383 0
M  V30 4453 C 435 -1.65702 -0.114878 0
M  V30 4454 O 436.185 -1.90776 0.0301118 0
M  V30 4455 C 433.325 -3.41236 0.514969 0
M  V30 4456 C 432.438 -3.99102 1.65353 0
M  V30 4457 C 431.573 -5.18306 1.16329 0
M  V30 4458 C 430.612 -5.68258 2.27485 0
M  V30 4459 N 429.749 -6.78722 1.7967 0
M  V30 4460 H 434.589 -2.30818 1.88486 0
M  V30 4461 H 432.126 -1.13189 0.939499 0
M  V30 4462 H 434.084 -4.16504 0.240935 0
M  V30 4463 H 432.714 -3.20585 -0.377512 0
M  V30 4464 H 431.766 -3.20918 2.04245 0
M  V30 4465 H 433.078 -4.32177 2.49047 0
M  V30 4466 H 432.232 -6.00782 0.845302 0
M  V30 4467 H 430.971 -4.86799 0.296254 0
M  V30 4468 H 429.976 -4.84385 2.60099 0
M  V30 4469 H 431.201 -6.01798 3.14667 0
M  V30 4470 H 429.147 -6.49042 0.95295 0
M  V30 4471 H 429.064 -7.10996 2.56944 0
M  V30 4472 H 430.332 -7.64759 1.50875 0
M  V30 4473 N 434.561 -1.01147 -1.20859 0
M  V30 4474 C 435.508 -0.577354 -2.23462 0
M  V30 4475 C 436.478 0.399922 -1.61214 0
M  V30 4476 O 437.663 0.300515 -1.88419 0
M  V30 4477 C 434.803 0.083372 -3.44999 0
M  V30 4478 C 433.916 -0.937856 -4.21697 0
M  V30 4479 C 433.051 -0.248717 -5.30617 0
M  V30 4480 C 432.09 -1.25705 -5.99053 0
M  V30 4481 N 431.227 -0.594939 -6.99575 0
M  V30 4482 H 436.067 -1.45695 -2.59956 0
M  V30 4483 H 433.604 -0.729428 -1.27741 0
M  V30 4484 H 435.562 0.483535 -4.14388 0
M  V30 4485 H 434.192 0.926645 -3.09214 0
M  V30 4486 H 433.244 -1.45622 -3.51423 0
M  V30 4487 H 434.556 -1.70493 -4.68757 0
M  V30 4488 H 433.71 0.207215 -6.06346 0
M  V30 4489 H 432.449 0.55071 -4.84581 0
M  V30 4490 H 431.454 -1.72343 -5.2209 0
M  V30 4491 H 432.679 -2.05767 -6.47176 0
M  V30 4492 H 430.625 0.184713 -6.5574 0
M  V30 4493 H 430.542 -1.30017 -7.44736 0
M  V30 4494 H 431.81 -0.162427 -7.79331 0
M  V30 4495 N 436.039 1.36541 -0.78704 0
M  V30 4496 C 436.949 2.3387 -0.184896 0
M  V30 4497 C 437.965 1.60927 0.661697 0
M  V30 4498 O 439.141 1.92927 0.57804 0
M  V30 4499 C 436.206 3.40122 0.672145 0
M  V30 4500 C 435.267 4.28867 -0.19267 0
M  V30 4501 C 434.5 5.30045 0.623561 0
M  V30 4502 O 434.723 5.39232 1.8597 0
M  V30 4503 O 433.657 6.01895 0.0247068 0
M  V30 4504 H 437.483 2.87126 -0.989562 0
M  V30 4505 H 435.068 1.38969 -0.548455 0
M  V30 4506 H 436.95 4.05093 1.16094 0
M  V30 4507 H 435.625 2.89169 1.45474 0
M  V30 4508 H 434.532 3.66945 -0.728166 0
M  V30 4509 H 435.865 4.83165 -0.938722 0
M  V30 4510 N 437.518 0.538854 1.48102 0
M  V30 4511 C 438.764 0.00801365 2.02798 0
M  V30 4512 C 439.097 -1.3309 1.41424 0
M  V30 4513 O 438.372 -1.86169 0.563158 0
M  V30 4514 C 438.655 -0.104589 3.59948 0
M  V30 4515 C 438.508 1.26012 4.31788 0
M  V30 4516 C 439.827 -0.827055 4.32259 0
M  V30 4517 H 436.946 0.00438624 0.736987 0
M  V30 4518 H 439.588 0.6976 1.7673 0
M  V30 4519 H 437.738 -0.691893 3.82289 0
M  V30 4520 H 439.41 1.88922 4.2084 0
M  V30 4521 H 437.653 1.83968 3.92859 0
M  V30 4522 H 438.324 1.13424 5.40221 0
M  V30 4523 H 440.8 -0.328578 4.14801 0
M  V30 4524 H 439.676 -0.87476 5.41885 0
M  V30 4525 H 439.937 -1.87927 4.0017 0
M  V30 4526 N 438.996 -1.55193 0.274407 0
M  V30 4527 C 439.926 -2.25471 -0.607032 0
M  V30 4528 C 440.907 -1.24461 -1.15946 0
M  V30 4529 O 442.092 -1.53179 -1.19373 0
M  V30 4530 C 439.222 -2.97526 -1.79153 0
M  V30 4531 C 438.176 -4.05459 -1.37067 0
M  V30 4532 C 437.502 -4.65084 -2.6382 0
M  V30 4533 C 438.802 -5.19691 -0.521389 0
M  V30 4534 H 440.496 -2.99393 -0.0209343 0
M  V30 4535 H 438.042 -1.43997 -0.00862866 0
M  V30 4536 H 439.995 -3.45402 -2.41404 0
M  V30 4537 H 438.719 -2.21138 -2.40344 0
M  V30 4538 H 437.378 -3.58393 -0.771355 0
M  V30 4539 H 437.026 -3.85365 -3.23268 0
M  V30 4540 H 436.726 -5.37961 -2.36372 0
M  V30 4541 H 438.25 -5.15708 -3.26921 0
M  V30 4542 H 439.664 -5.63623 -1.04889 0
M  V30 4543 H 438.061 -5.99126 -0.341825 0
M  V30 4544 H 439.131 -4.82713 0.46 0
M  V30 4545 N 440.474 -0.00167713 -1.576 0
M  V30 4546 C 441.404 0.988091 -2.11563 0
M  V30 4547 C 442.385 1.35736 -1.02517 0
M  V30 4548 O 443.57 1.44082 -1.30208 0
M  V30 4549 C 440.7 2.27941 -2.62031 0
M  V30 4550 C 439.654 2.0517 -3.75619 0
M  V30 4551 C 438.98 3.4033 -4.12407 0
M  V30 4552 C 440.28 1.41294 -5.02825 0
M  V30 4553 H 441.974 0.538771 -2.94513 0
M  V30 4554 H 439.52 0.257712 -1.41675 0
M  V30 4555 H 441.473 2.97539 -2.9841 0
M  V30 4556 H 440.197 2.74989 -1.76205 0
M  V30 4557 H 438.856 1.37998 -3.39635 0
M  V30 4558 H 438.504 3.85085 -3.23603 0
M  V30 4559 H 438.204 3.25909 -4.88935 0
M  V30 4560 H 439.728 4.1124 -4.51347 0
M  V30 4561 H 441.142 2.00851 -5.36965 0
M  V30 4562 H 439.539 1.37356 -5.84169 0
M  V30 4563 H 440.609 0.382362 -4.8339 0
M  V30 4564 N 441.952 1.55251 0.271103 0
M  V30 4565 C 443.229 1.66664 1.02384 0
M  V30 4566 C 443.609 0.534363 2.04225 0
M  V30 4567 O 442.957 -0.465337 2.23712 0
M  V30 4568 C 443.167 3.05961 1.67895 0
M  V30 4569 C 444.515 3.63772 2.18986 0
M  V30 4570 O 445.539 3.08606 1.77878 0
M  V30 4571 O 444.398 4.60429 2.94393 0
M  V30 4572 H 441.492 0.676957 0.475035 0
M  V30 4573 H 444.038 1.67589 0.26681 0
M  V30 4574 H 442.81 3.79815 0.941071 0
M  V30 4575 H 442.433 3.08943 2.5028 0
M  V30 4576 N 443.43 -0.535701 1.48216 0
M  V30 4577 C 444.362 -1.65662 1.58394 0
M  V30 4578 C 445.375 -1.5591 0.468607 0
M  V30 4579 O 446.564 -1.62475 0.7392 0
M  V30 4580 C 443.664 -3.04276 1.4923 0
M  V30 4581 C 442.837 -3.39567 2.75705 0
M  V30 4582 C 441.896 -4.57436 2.60075 0
M  V30 4583 O 440.922 -4.60942 3.33948 0
M  V30 4584 N 442.124 -5.55259 1.69315 0
M  V30 4585 H 444.889 -1.5737 2.55058 0
M  V30 4586 H 442.45 -0.722845 1.44867 0
M  V30 4587 H 444.442 -3.80994 1.36477 0
M  V30 4588 H 443.012 -3.06677 0.605632 0
M  V30 4589 H 442.232 -2.52083 3.03064 0
M  V30 4590 H 443.52 -3.59929 3.59623 0
M  V30 4591 H 442.918 -5.552 1.08489 0
M  V30 4592 H 441.475 -6.31218 1.62504 0
M  V30 4593 N 444.908 -1.36708 -0.784132 0
M  V30 4594 C 446.319 -1.27947 -1.35965 0
M  V30 4595 C 446.67 0.0784013 -1.96043 0
M  V30 4596 O 445.795 0.979989 -1.92938 0
M  V30 4597 C 446.39 -2.31689 -2.47195 0
M  V30 4598 C 444.949 -2.26601 -3.00548 0
M  V30 4599 C 444.096 -2.16184 -1.73666 0
M  V30 4600 H 447.047 -1.4751 -0.585358 0
M  V30 4601 H 447.068 -1.95638 -3.26352 0
M  V30 4602 H 446.58 -3.30506 -2.03439 0
M  V30 4603 H 444.681 -1.31268 -3.48711 0
M  V30 4604 H 444.794 -3.19508 -3.57004 0
M  V30 4605 H 443.158 -1.62524 -1.96107 0
M  V30 4606 H 443.941 -3.16896 -1.32031 0
M  V30 4607 N 446.386 1.0089 -1.21074 0
M  V30 4608 C 447.634 1.74262 -1.02358 0
M  V30 4609 C 447.955 1.89869 0.444393 0
M  V30 4610 O 447.225 1.44677 1.32081 0
M  V30 4611 H 445.805 0.645615 -0.375754 0
M  V30 4612 H 448.467 1.21596 -1.52317 0
M  V30 4613 H 447.563 2.74328 -1.4883 0
M  V30 4614 N 447.864 1.01787 1.20321 0
M  V30 4615 C 449.28 0.732951 1.41774 0
M  V30 4616 C 449.48 -0.686883 1.89431 0
M  V30 4617 O 448.536 -1.45446 2.06402 0
M  V30 4618 C 449.849 1.75973 2.43832 0
M  V30 4619 C 451.397 1.77802 2.57596 0
M  V30 4620 C 451.872 2.7941 3.62897 0
M  V30 4621 N 453.363 2.78157 3.70382 0
M  V30 4622 C 454.098 3.53434 4.51521 0
M  V30 4623 N 453.594 4.38392 5.36455 0
M  V30 4624 N 455.387 3.42026 4.46066 0
M  V30 4625 H 447.538 1.93447 0.877035 0
M  V30 4626 H 449.801 0.835712 0.447536 0
M  V30 4627 H 449.507 2.77699 2.15815 0
M  V30 4628 H 449.381 1.57292 3.4284 0
M  V30 4629 H 451.768 0.767602 2.84942 0
M  V30 4630 H 451.849 2.00557 1.58779 0
M  V30 4631 H 451.493 3.80616 3.36295 0
M  V30 4632 H 451.423 2.53916 4.61339 0
M  V30 4633 H 453.914 2.16531 3.09714 0
M  V30 4634 H 454.227 4.92596 5.95457 0
M  V30 4635 H 452.572 4.4247 5.35953 0
M  V30 4636 H 455.763 2.75075 3.78749 0
M  V30 4637 H 455.936 4.00946 5.09064 0
M  V30 4638 N 449.342 -1.36122 0.79427 0
M  V30 4639 C 450.252 -2.33769 0.197296 0
M  V30 4640 C 451.268 -1.61276 -0.653153 0
M  V30 4641 O 452.444 -1.9323 -0.5678 0
M  V30 4642 C 449.509 -3.40474 -0.654098 0
M  V30 4643 C 448.57 -4.28759 0.215411 0
M  V30 4644 C 447.803 -5.30368 -0.595443 0
M  V30 4645 O 448.026 -5.40211 -1.83107 0
M  V30 4646 O 446.96 -6.019 0.00721351 0
M  V30 4647 H 450.786 -2.86597 1.00478 0
M  V30 4648 H 448.371 -1.38676 0.555818 0
M  V30 4649 H 450.253 -4.05703 -1.13944 0
M  V30 4650 H 448.928 -2.89937 -1.43938 0
M  V30 4651 H 447.835 -3.66554 0.747615 0
M  V30 4652 H 449.168 -4.82661 0.964332 0
M  V30 4653 N 450.82 -0.546701 -1.47814 0
M  V30 4654 C 451.73 0.21026 -2.33656 0
M  V30 4655 C 452.746 0.922413 -1.47538 0
M  V30 4656 O 453.922 0.893652 -1.80488 0
M  V30 4657 C 450.987 1.23348 -3.24016 0
M  V30 4658 C 450.048 0.529883 -4.26017 0
M  V30 4659 C 449.281 1.50435 -5.12059 0
M  V30 4660 O 449.504 2.73837 -5.00369 0
M  V30 4661 O 448.438 1.03459 -5.92942 0
M  V30 4662 H 452.264 -0.493605 -2.99662 0
M  V30 4663 H 449.849 -0.307427 -1.46203 0
M  V30 4664 H 451.731 1.82438 -3.79861 0
M  V30 4665 H 450.406 1.91945 -2.60651 0
M  V30 4666 H 449.313 -0.101948 -3.73961 0
M  V30 4667 H 450.646 -0.11445 -4.92067 0
M  V30 4668 N 452.299 1.55045 -0.282633 0
M  V30 4669 C 453.209 2.26491 0.61147 0
M  V30 4670 C 454.225 1.29348 1.16384 0
M  V30 4671 O 455.401 1.62298 1.19253 0
M  V30 4672 C 452.466 2.97779 1.77563 0
M  V30 4673 C 451.527 4.10418 1.25919 0
M  V30 4674 C 450.76 4.78297 2.36786 0
M  V30 4675 O 450.983 4.45426 3.56303 0
M  V30 4676 O 449.917 5.66089 2.04517 0
M  V30 4677 H 453.743 3.03683 0.0324615 0
M  V30 4678 H 451.328 1.49317 -0.0497576 0
M  V30 4679 H 453.21 3.42554 2.45427 0
M  V30 4680 H 451.885 2.23498 2.34159 0
M  V30 4681 H 450.792 3.70082 0.546797 0
M  V30 4682 H 452.125 4.86622 0.738887 0
M  V30 4683 N 453.777 0.010035 1.57597 0
M  V30 4684 C 454.725 -0.996272 2.10184 0
M  V30 4685 C 455.719 -1.34942 1.02406 0
M  V30 4686 O 456.925 -1.33389 1.20861 0
M  V30 4687 H 453.3 -0.338982 0.671264 0
M  V30 4688 H 455.271 -0.527272 2.93705 0
M  V30 4689 C 454.02 -2.27599 2.62857 0
M  V30 4690 H 453.343 -2.01295 3.45428 0
M  V30 4691 H 454.783 -2.96265 3.0332 0
M  V30 4692 C 453.242 -2.99269 1.54725 0
M  V30 4693 O 453.772 -3.90644 0.93597 0
M  V30 4694 N 451.978 -2.61269 1.27228 0
M  V30 4695 H 451.525 -1.87043 1.77123 0
M  V30 4696 H 451.483 -3.09534 0.550999 0
M  V30 4697 N 455.255 -1.55392 -0.262866 0
M  V30 4698 C 456.503 -1.76127 -0.991147 0
M  V30 4699 C 456.824 -0.571083 -1.8645 0
M  V30 4700 O 456.094 0.413698 -1.91482 0
M  V30 4701 H 454.674 -0.649528 -0.368948 0
M  V30 4702 H 457.336 -1.9281 -0.284655 0
M  V30 4703 H 456.432 -2.6663 -1.62219 0
M  V30 4704 N 456.733 0.527833 -1.48498 0
M  V30 4705 C 457.958 1.313 -1.60546 0
M  V30 4706 C 458.383 1.86199 -0.26672 0
M  V30 4707 O 457.741 1.64513 0.761918 0
M  V30 4708 C 457.789 2.43818 -2.65678 0
M  V30 4709 O 456.893 3.46916 -2.22987 0
M  V30 4710 H 456.234 0.388784 -0.538277 0
M  V30 4711 H 458.764 0.634896 -1.945 0
M  V30 4712 H 458.774 2.89973 -2.87018 0
M  V30 4713 H 457.449 2.03222 -3.62869 0
M  V30 4714 H 456.026 3.06864 -2.11869 0
M  V30 4715 N 458.211 1.37122 0.776871 0
M  V30 4716 C 459.439 1.3523 1.5659 0
M  V30 4717 C 459.854 -0.0635518 1.88693 0
M  V30 4718 O 459.211 -1.02394 1.51069 0
M  V30 4719 C 459.262 2.18583 2.8793 0
M  V30 4720 O 458.983 3.5465 2.57206 0
M  V30 4721 C 460.484 2.24612 3.82183 0
M  V30 4722 H 457.704 0.4634 0.485285 0
M  V30 4723 H 460.248 1.80392 0.963266 0
M  V30 4724 H 458.403 1.76943 3.4463 0
M  V30 4725 H 458.817 3.98286 3.41275 0
M  V30 4726 H 460.291 2.87267 4.71361 0
M  V30 4727 H 460.768 1.25309 4.20944 0
M  V30 4728 H 461.374 2.66543 3.31414 0
M  V30 4729 N 459.689 -1.00246 1.21608 0
M  V30 4730 C 460.914 -1.78167 1.06167 0
M  V30 4731 C 461.339 -1.84138 -0.384035 0
M  V30 4732 O 460.697 -1.28683 -1.27712 0
M  V30 4733 C 460.745 -3.19786 1.66642 0
M  V30 4734 O 459.849 -4.02153 0.913613 0
M  V30 4735 H 459.19 -0.549 0.37349 0
M  V30 4736 H 461.72 -1.25994 1.61204 0
M  V30 4737 H 461.73 -3.70451 1.70969 0
M  V30 4738 H 460.405 -3.14754 2.7185 0
M  V30 4739 H 458.982 -3.60711 0.945635 0
M  V30 4740 N 461.167 -1.02423 -1.1978 0
M  V30 4741 C 462.114 -0.601023 -2.22837 0
M  V30 4742 C 463.084 0.382801 -1.61629 0
M  V30 4743 O 464.269 0.280514 -1.88727 0
M  V30 4744 C 461.409 0.0467755 -3.45068 0
M  V30 4745 C 460.522 -0.98253 -4.20678 0
M  V30 4746 C 459.657 -0.304982 -5.30324 0
M  V30 4747 C 458.696 -1.32052 -5.97686 0
M  V30 4748 N 457.833 -0.669105 -6.98904 0
M  V30 4749 H 462.673 -1.48444 -2.58396 0
M  V30 4750 H 460.21 -0.742936 -1.2696 0
M  V30 4751 H 462.168 0.439556 -4.14878 0
M  V30 4752 H 460.798 0.893796 -3.10179 0
M  V30 4753 H 459.85 -1.49341 -3.49859 0
M  V30 4754 H 461.162 -1.75455 -4.66923 0
M  V30 4755 H 460.316 0.142893 -6.06532 0
M  V30 4756 H 459.055 0.499283 -4.85138 0
M  V30 4757 H 458.06 -1.7787 -5.20233 0
M  V30 4758 H 459.285 -2.1262 -6.44957 0
M  V30 4759 H 457.231 0.115152 -6.55899 0
M  V30 4760 H 457.148 -1.37908 -7.43315 0
M  V30 4761 H 458.416 -0.245076 -7.79115 0
M  V30 4762 N 462.645 1.35699 -0.801477 0
M  V30 4763 C 463.873 2.03157 -0.391768 0
M  V30 4764 C 464.288 1.60412 0.995668 0
M  V30 4765 O 463.645 0.799228 1.64069 0
M  V30 4766 C 463.696 3.58566 -0.459671 0
M  V30 4767 O 463.417 3.99756 -1.7924 0
M  V30 4768 C 464.918 4.4328 -0.0421205 0
M  V30 4769 H 462.138 0.651688 -0.159825 0
M  V30 4770 H 464.682 1.73426 -1.08368 0
M  V30 4771 H 462.837 3.86963 0.183939 0
M  V30 4772 H 463.251 4.94387 -1.75162 0
M  V30 4773 H 464.725 5.51821 -0.140754 0
M  V30 4774 H 465.202 4.27383 1.01196 0
M  V30 4775 H 465.808 4.20168 -0.658687 0
M  V30 4776 N 464.123 0.554532 1.47522 0
M  V30 4777 C 465.372 0.0273458 2.01681 0
M  V30 4778 C 465.685 -1.32962 1.43459 0
M  V30 4779 O 466.891 -1.94657 1.89265 0
M  V30 4780 C 465.347 -0.00159057 3.599 0
M  V30 4781 C 464.955 1.35197 4.27113 0
M  V30 4782 C 466.699 -0.476311 4.21819 0
M  V30 4783 C 464.606 1.28229 5.77331 0
M  V30 4784 H 463.536 0.00645269 0.753972 0
M  V30 4785 H 466.187 0.701985 1.69542 0
M  V30 4786 H 464.569 -0.741821 3.8899 0
M  V30 4787 H 465.743 2.1097 4.09668 0
M  V30 4788 H 464.058 1.76441 3.77171 0
M  V30 4789 H 466.655 -0.5468 5.31897 0
M  V30 4790 H 466.998 -1.4877 3.8881 0
M  V30 4791 H 467.531 0.20898 3.97251 0
M  V30 4792 H 464.27 2.26959 6.14955 0
M  V30 4793 H 463.79 0.566314 5.97121 0
M  V30 4794 H 465.469 0.983226 6.39485 0
M  V30 4795 N 465.601 -1.54893 0.290851 0
M  V30 4796 C 466.847 -2.0023 -0.321867 0
M  V30 4797 C 467.18 -1.179 -1.54316 0
M  V30 4798 O 466.455 -0.25293 -1.92848 0
M  V30 4799 C 466.738 -3.53456 -0.688515 0
M  V30 4800 C 466.591 -4.46532 0.541209 0
M  V30 4801 C 467.91 -4.13057 -1.51895 0
M  V30 4802 H 465.029 -0.727891 -0.115515 0
M  V30 4803 H 467.671 -1.85722 0.400931 0
M  V30 4804 H 465.821 -3.6595 -1.30433 0
M  V30 4805 H 467.493 -4.4596 1.17973 0
M  V30 4806 H 465.736 -4.17545 1.17636 0
M  V30 4807 H 466.407 -5.51475 0.240675 0
M  V30 4808 H 468.883 -4.03937 -0.99872 0
M  V30 4809 H 467.759 -5.20448 -1.74429 0
M  V30 4810 H 468.02 -3.64284 -2.50498 0
M  V30 4811 N 467.08 -0.0183926 -1.57589 0
M  V30 4812 C 468.31 0.67207 -1.95363 0
M  V30 4813 C 468.718 1.66807 -0.892872 0
M  V30 4814 O 468.061 1.83204 0.134958 0
M  V30 4815 C 468.123 1.44397 -3.29226 0
M  V30 4816 C 467.787 0.607511 -4.52944 0
M  V30 4817 C 468.784 -0.112657 -5.19778 0
M  V30 4818 C 466.469 0.548068 -4.99301 0
M  V30 4819 C 468.463 -0.881057 -6.31281 0
M  V30 4820 C 466.15 -0.224044 -6.10689 0
M  V30 4821 C 467.148 -0.937323 -6.76538 0
M  V30 4822 O 466.836 -1.6968 -7.85789 0
M  V30 4823 H 466.568 0.190925 -0.648478 0
M  V30 4824 H 469.122 -0.0711994 -2.05277 0
M  V30 4825 H 467.352 2.23214 -3.15773 0
M  V30 4826 H 469.041 2.02152 -3.51979 0
M  V30 4827 H 469.807 -0.0759998 -4.8494 0
M  V30 4828 H 465.686 1.09281 -4.4786 0
M  V30 4829 H 469.23 -1.43832 -6.82611 0
M  V30 4830 H 465.127 -0.262457 -6.44966 0
M  V30 4831 H 465.895 -1.61544 -8.024 0
M  V30 4832 N 468.558 1.5553 0.254621 0
M  V30 4833 C 469.508 1.86057 1.31783 0
M  V30 4834 C 470.492 0.720827 1.4385 0
M  V30 4835 O 471.684 0.982586 1.47222 0
M  V30 4836 C 468.813 2.15203 2.67475 0
M  V30 4837 C 467.899 3.35484 2.59444 0
M  V30 4838 N 468.29 4.54945 2.2104 0
M  V30 4839 C 466.588 3.38441 2.90472 0
M  V30 4840 C 467.289 5.3707 2.23453 0
M  V30 4841 N 466.265 4.75936 2.62652 0
M  V30 4842 H 470.067 2.75953 1.01129 0
M  V30 4843 H 467.581 1.55653 0.463255 0
M  V30 4844 H 469.578 2.35235 3.44195 0
M  V30 4845 H 468.238 1.26601 2.99002 0
M  V30 4846 H 469.249 4.8071 1.92712 0
M  V30 4847 H 465.926 2.60087 3.2659 0
M  V30 4848 H 467.316 6.42626 1.96166 0
M  V30 4849 N 470.036 -0.519951 1.48776 0
M  V30 4850 C 470.966 -1.63253 1.66945 0
M  V30 4851 C 471.947 -1.62014 0.518224 0
M  V30 4852 O 473.132 -1.79053 0.751919 0
M  V30 4853 C 470.262 -3.0181 1.71836 0
M  V30 4854 C 469.216 -3.17911 2.8656 0
M  V30 4855 C 468.542 -4.5763 2.76548 0
M  V30 4856 C 469.842 -2.99729 4.27738 0
M  V30 4857 H 471.536 -1.48302 2.6009 0
M  V30 4858 H 469.082 -0.712026 1.25165 0
M  V30 4859 H 471.035 -3.79525 1.83135 0
M  V30 4860 H 469.759 -3.17806 0.752775 0
M  V30 4861 H 468.418 -2.42616 2.74833 0
M  V30 4862 H 468.066 -4.70476 1.77937 0
M  V30 4863 H 467.766 -4.69346 3.53536 0
M  V30 4864 H 469.29 -5.37431 2.89828 0
M  V30 4865 H 470.704 -3.67228 4.40246 0
M  V30 4866 H 469.101 -3.22932 5.05801 0
M  V30 4867 H 470.171 -1.96047 4.43502 0
M  V30 4868 N 471.514 -1.37532 -0.769588 0
M  V30 4869 C 472.791 -1.23392 -1.51768 0
M  V30 4870 C 473.171 0.17157 -2.10402 0
M  V30 4871 O 472.519 1.17943 -1.95708 0
M  V30 4872 C 472.729 -2.33163 -2.59685 0
M  V30 4873 C 474.077 -2.70809 -3.27028 0
M  V30 4874 O 475.101 -2.32355 -2.69981 0
M  V30 4875 O 473.96 -3.37066 -4.30173 0
M  V30 4876 H 471.054 -0.481617 -0.67229 0
M  V30 4877 H 473.6 -1.49318 -0.806368 0
M  V30 4878 H 472.372 -3.27273 -2.14494 0
M  V30 4879 H 471.995 -2.08713 -3.38415 0
M  V30 4880 N 472.992 0.995999 -1.22138 0
M  V30 4881 C 473.902 2.11985 -1.00496 0
M  V30 4882 C 474.918 1.7394 0.0457701 0
M  V30 4883 O 476.094 2.00868 -0.146273 0
M  V30 4884 C 473.159 3.41779 -0.582086 0
M  V30 4885 C 472.22 3.93943 -1.70608 0
M  V30 4886 C 471.453 5.17542 -1.30328 0
M  V30 4887 O 471.676 5.70114 -0.180743 0
M  V30 4888 O 470.61 5.63382 -2.11861 0
M  V30 4889 H 474.436 2.33123 -1.94647 0
M  V30 4890 H 472.021 1.10358 -1.00705 0
M  V30 4891 H 473.903 4.1989 -0.356467 0
M  V30 4892 H 472.578 3.22007 0.330592 0
M  V30 4893 H 471.485 3.17019 -1.98619 0
M  V30 4894 H 472.818 4.18141 -2.59651 0
M  V30 4895 N 474.47 1.03057 1.19235 0
M  V30 4896 C 475.718 0.726581 1.88587 0
M  V30 4897 C 476.039 -0.747227 1.80115 0
M  V30 4898 O 475.309 -1.53849 1.21274 0
M  V30 4899 H 473.889 0.265768 0.698124 0
M  V30 4900 H 476.551 1.30516 1.44746 0
M  V30 4901 H 475.647 1.0224 2.94879 0
M  V30 4902 N 475.948 -1.35272 0.808662 0
M  V30 4903 C 477.194 -1.99003 0.390581 0
M  V30 4904 C 477.527 -1.63999 -1.0401 0
M  V30 4905 O 476.802 -0.904368 -1.72196 0
M  V30 4906 C 477.085 -3.55454 0.576566 0
M  V30 4907 C 476.938 -4.00249 2.05233 0
M  V30 4908 C 478.257 -4.401 0.00354277 0
M  V30 4909 H 475.376 -0.722917 0.143388 0
M  V30 4910 H 478.018 -1.6039 1.01858 0
M  V30 4911 H 476.168 -3.88477 0.0419766 0
M  V30 4912 H 477.84 -3.77626 2.64946 0
M  V30 4913 H 476.083 -3.51082 2.54801 0
M  V30 4914 H 476.754 -5.0911 2.13333 0
M  V30 4915 H 479.23 -4.13548 0.460117 0
M  V30 4916 H 478.106 -5.48656 0.163575 0
M  V30 4917 H 478.367 -4.28444 -1.09032 0
M  V30 4918 N 477.426 -0.562348 -1.47226 0
M  V30 4919 C 478.656 -0.0451619 -2.06551 0
M  V30 4920 C 479.064 1.25626 -1.41473 0
M  V30 4921 O 478.407 1.76563 -0.507061 0
M  V30 4922 C 478.469 0.216068 -3.5885 0
M  V30 4923 C 478.133 -0.996691 -4.45999 0
M  V30 4924 C 479.13 -1.90358 -4.83797 0
M  V30 4925 C 476.815 -1.21281 -4.87438 0
M  V30 4926 C 478.809 -3.01023 -5.6184 0
M  V30 4927 C 476.496 -2.32255 -5.65244 0
M  V30 4928 C 477.494 -3.21956 -6.02356 0
M  V30 4929 O 477.182 -4.31005 -6.78594 0
M  V30 4930 H 476.914 -0.0451646 -0.67449 0
M  V30 4931 H 479.468 -0.776842 -1.90143 0
M  V30 4932 H 477.698 1.00212 -3.7349 0
M  V30 4933 H 479.387 0.679264 -4.00176 0
M  V30 4934 H 480.153 -1.74868 -4.52378 0
M  V30 4935 H 476.032 -0.523767 -4.58015 0
M  V30 4936 H 479.576 -3.71064 -5.90726 0
M  V30 4937 H 475.473 -2.47715 -5.96077 0
M  V30 4938 H 476.241 -4.29118 -6.96994 0
M  V30 4939 N 478.904 1.54736 -0.299062 0
M  V30 4940 C 480.152 1.99706 0.31017 0
M  V30 4941 C 480.473 1.18896 1.54559 0
M  V30 4942 O 479.743 0.284445 1.93824 0
M  V30 4943 H 478.323 0.737686 0.117596 0
M  V30 4944 H 480.985 1.9054 -0.409943 0
M  V30 4945 H 480.081 3.06596 0.58355 0
M  V30 4946 N 480.382 0.0267497 1.57577 0
M  V30 4947 C 481.631 -0.651736 1.9088 0
M  V30 4948 C 481.944 -1.73427 0.904576 0
M  V30 4949 O 483.15 -2.46923 1.12877 0
M  V30 4950 C 481.606 -1.21048 3.38933 0
M  V30 4951 C 481.214 -0.161362 4.47709 0
M  V30 4952 C 482.958 -1.86562 3.81307 0
M  V30 4953 C 480.865 -0.731611 5.86857 0
M  V30 4954 H 479.795 -0.247198 0.712326 0
M  V30 4955 H 482.446 0.0916641 1.83271 0
M  V30 4956 H 480.828 -2.00542 3.41466 0
M  V30 4957 H 482.002 0.61094 4.56732 0
M  V30 4958 H 480.317 0.394877 4.14523 0
M  V30 4959 H 482.914 -2.30178 4.8262 0
M  V30 4960 H 483.257 -2.70735 3.16241 0
M  V30 4961 H 483.79 -1.13762 3.81186 0
M  V30 4962 H 480.529 0.0719329 6.55461 0
M  V30 4963 H 480.049 -1.47245 5.81445 0
M  V30 4964 H 481.728 -1.22208 6.35354 0
M  V30 4965 N 481.861 -1.55662 -0.24637 0
M  V30 4966 C 483.108 -1.77519 -0.974335 0
M  V30 4967 C 483.436 -0.591165 -1.85298 0
M  V30 4968 O 482.691 0.425497 -1.91018 0
M  V30 4969 C 482.99 -3.04885 -1.86494 0
M  V30 4970 C 482.656 -4.36209 -1.14161 0
M  V30 4971 C 481.318 -4.71896 -0.941701 0
M  V30 4972 C 483.67 -5.17391 -0.628957 0
M  V30 4973 C 480.998 -5.86299 -0.216852 0
M  V30 4974 C 483.35 -6.32546 0.0824273 0
M  V30 4975 C 482.014 -6.66853 0.293807 0
M  V30 4976 H 481.284 -0.649588 -0.356535 0
M  V30 4977 H 483.931 -1.89934 -0.244394 0
M  V30 4978 H 482.236 -2.87484 -2.66196 0
M  V30 4979 H 483.933 -3.18994 -2.42989 0
M  V30 4980 H 480.523 -4.08174 -1.30736 0
M  V30 4981 H 484.707 -4.90276 -0.770943 0
M  V30 4982 H 479.963 -6.11385 -0.0426124 0
M  V30 4983 H 484.137 -6.94693 0.487292 0
M  V30 4984 H 481.764 -7.55349 0.857428 0
M  V30 4985 N 483.339 0.512053 -1.4905 0
M  V30 4986 C 484.287 1.63568 -1.65373 0
M  V30 4987 C 485.281 1.61228 -0.519806 0
M  V30 4988 O 486.487 1.65869 -0.699101 0
M  V30 4989 H 482.862 0.542019 -0.521267 0
M  V30 4990 H 484.833 1.4695 -2.59708 0
M  V30 4991 C 483.582 3.01761 -1.7273 0
M  V30 4992 H 482.905 3.04263 -2.59353 0
M  V30 4993 H 484.345 3.79948 -1.8819 0
M  V30 4994 C 482.804 3.33609 -0.46973 0
M  V30 4995 O 483.334 3.99607 0.409492 0
M  V30 4996 N 481.54 2.88651 -0.336003 0
M  V30 4997 H 481.087 2.35119 -1.05247 0
M  V30 4998 H 481.045 3.10328 0.504363 0
M  V30 4999 N 484.817 1.37938 0.762283 0
M  V30 5000 C 486.042 1.37059 1.55659 0
M  V30 5001 C 486.467 -0.0396123 1.88058 0
M  V30 5002 O 485.825 -1.01929 1.49934 0
M  V30 5003 C 485.873 2.22494 2.83776 0
M  V30 5004 O 484.977 1.63607 3.78559 0
M  V30 5005 H 484.318 0.467892 0.47114 0
M  V30 5006 H 486.848 1.81587 0.942725 0
M  V30 5007 H 486.858 2.36045 3.32786 0
M  V30 5008 H 485.533 3.24993 2.59524 0
M  V30 5009 H 484.11 1.5915 3.37233 0
M  V30 5010 N 486.295 -0.989507 1.22664 0
M  V30 5011 C 487.541 -1.7321 1.05481 0
M  V30 5012 C 487.874 -1.89852 -0.408635 0
M  V30 5013 O 487.149 -1.44416 -1.30285 0
M  V30 5014 C 487.432 -3.1357 1.77047 0
M  V30 5015 C 487.285 -3.04555 3.31008 0
M  V30 5016 C 488.604 -4.12812 1.5256 0
M  V30 5017 H 485.723 -0.628697 0.384589 0
M  V30 5018 H 488.365 -1.15258 1.51049 0
M  V30 5019 H 486.515 -3.63046 1.3831 0
M  V30 5020 H 488.187 -2.62674 3.7921 0
M  V30 5021 H 486.43 -2.41278 3.6051 0
M  V30 5022 H 487.101 -4.03894 3.76263 0
M  V30 5023 H 489.577 -3.72106 1.86215 0
M  V30 5024 H 488.453 -5.09132 2.05124 0
M  V30 5025 H 488.714 -4.39711 0.458936 0
M  V30 5026 N 487.773 -1.03688 -1.18687 0
M  V30 5027 C 488.703 -0.645407 -2.24403 0
M  V30 5028 C 489.684 0.349511 -1.66471 0
M  V30 5029 O 490.869 0.230453 -1.92828 0
M  V30 5030 C 487.999 -0.00365337 -3.473 0
M  V30 5031 C 486.953 -0.921705 -4.17958 0
M  V30 5032 C 486.279 -0.144629 -5.34504 0
M  V30 5033 C 487.579 -2.23909 -4.71871 0
M  V30 5034 H 489.273 -1.52917 -2.57404 0
M  V30 5035 H 486.819 -0.736711 -1.23728 0
M  V30 5036 H 488.772 0.281908 -4.20456 0
M  V30 5037 H 487.496 0.914963 -3.13522 0
M  V30 5038 H 486.155 -1.19159 -3.46694 0
M  V30 5039 H 485.803 0.776274 -4.96974 0
M  V30 5040 H 485.503 -0.756206 -5.82714 0
M  V30 5041 H 487.027 0.134004 -6.10453 0
M  V30 5042 H 488.441 -2.0145 -5.36741 0
M  V30 5043 H 486.838 -2.8033 -5.30599 0
M  V30 5044 H 487.908 -2.88822 -3.895 0
M  V30 5045 N 489.251 1.34841 -0.815825 0
M  V30 5046 C 490.498 1.98499 -0.400535 0
M  V30 5047 C 490.826 1.64699 1.03463 0
M  V30 5048 O 490.081 0.907006 1.73412 0
M  V30 5049 C 490.38 3.53273 -0.541541 0
M  V30 5050 C 490.046 4.06966 -1.94138 0
M  V30 5051 C 488.708 4.21341 -2.32433 0
M  V30 5052 C 491.06 4.35933 -2.85677 0
M  V30 5053 C 488.388 4.62007 -3.61617 0
M  V30 5054 C 490.74 4.78042 -4.14317 0
M  V30 5055 C 489.404 4.90622 -4.52599 0
M  V30 5056 H 488.674 0.72636 -0.146566 0
M  V30 5057 H 491.321 1.60902 -1.0384 0
M  V30 5058 H 489.626 3.91387 0.179741 0
M  V30 5059 H 491.323 4.00497 -0.20085 0
M  V30 5060 H 487.913 3.96235 -1.63388 0
M  V30 5061 H 492.097 4.24372 -2.57337 0
M  V30 5062 H 487.353 4.69937 -3.91113 0
M  V30 5063 H 491.527 4.99415 -4.85342 0
M  V30 5064 H 489.154 5.2189 -5.52752 0
M  V30 5065 N 490.729 0.570148 1.46925 0
M  V30 5066 C 492.006 -0.0153259 1.95594 0
M  V30 5067 C 492.386 -1.47232 1.51281 0
M  V30 5068 O 491.734 -2.15574 0.757624 0
M  V30 5069 C 491.944 0.143624 3.48704 0
M  V30 5070 C 493.292 0.00494484 4.246 0
M  V30 5071 O 494.316 0.0718214 3.56128 0
M  V30 5072 O 493.175 -0.141175 5.46318 0
M  V30 5073 H 490.269 -0.0568819 0.825041 0
M  V30 5074 H 492.815 0.637583 1.57267 0
M  V30 5075 H 491.587 1.15699 3.73804 0
M  V30 5076 H 491.21 -0.5463 3.93829 0
M  V30 5077 N 492.207 -1.54576 0.307264 0
M  V30 5078 C 493.155 -2.25208 -0.581723 0
M  V30 5079 C 494.149 -1.26031 -1.13192 0
M  V30 5080 O 495.355 -1.43862 -1.08184 0
M  V30 5081 H 491.73 -0.723173 -0.206214 0
M  V30 5082 H 493.701 -2.98378 0.0364663 0
M  V30 5083 C 492.45 -3.01086 -1.73904 0
M  V30 5084 H 491.773 -3.77208 -1.32491 0
M  V30 5085 H 493.213 -3.5378 -2.33701 0
M  V30 5086 C 491.672 -2.08422 -2.64692 0
M  V30 5087 O 492.202 -1.65636 -3.65961 0
M  V30 5088 N 490.408 -1.74247 -2.32564 0
M  V30 5089 H 489.955 -2.09238 -1.50257 0
M  V30 5090 H 489.913 -1.12524 -2.93574 0
M  V30 5091 N 493.685 -0.035106 -1.57561 0
M  V30 5092 C 494.934 0.641604 -1.91223 0
M  V30 5093 C 495.247 1.72944 -0.913761 0
M  V30 5094 O 496.453 2.46321 -1.14185 0
M  V30 5095 C 494.909 1.19249 -3.3957 0
M  V30 5096 C 494.517 0.137616 -4.47789 0
M  V30 5097 C 496.261 1.84537 -3.82291 0
M  V30 5098 C 494.168 0.700478 -5.87237 0
M  V30 5099 H 493.098 0.243417 -0.713627 0
M  V30 5100 H 495.749 -0.101382 -1.8322 0
M  V30 5101 H 494.131 1.98728 -3.42525 0
M  V30 5102 H 495.305 -0.635153 -4.56402 0
M  V30 5103 H 493.62 -0.416855 -4.14308 0
M  V30 5104 H 496.217 2.27616 -4.83834 0
M  V30 5105 H 496.56 2.69054 -3.17672 0
M  V30 5106 H 497.093 1.11739 -3.81784 0
M  V30 5107 H 493.832 -0.106693 -6.55413 0
M  V30 5108 H 493.352 1.4416 -5.82218 0
M  V30 5109 H 495.031 1.18837 -6.35993 0
M  V30 5110 N 495.163 1.55791 0.238111 0
M  V30 5111 C 496.403 1.79801 0.972163 0
M  V30 5112 C 496.767 0.606027 1.82185 0
M  V30 5113 O 497.968 0.725079 2.58836 0
M  V30 5114 C 496.239 3.08608 1.80266 0
M  V30 5115 S 497.798 3.53872 2.59461 0
M  V30 5116 H 494.616 0.631418 0.326852 0
M  V30 5117 H 497.218 1.94031 0.239212 0
M  V30 5118 H 495.922 3.93419 1.1683 0
M  V30 5119 H 495.453 2.9714 2.57821 0
M  V30 5120 H 497.468 3.15899 3.82651 0
M  V30 5121 N 496.642 -0.504142 1.49319 0
M  V30 5122 C 498.053 -1.08572 1.51885 0
M  V30 5123 C 498.404 -1.93842 0.303255 0
M  V30 5124 O 497.529 -2.0828 -0.58724 0
M  V30 5125 C 498.124 -1.97574 2.75227 0
M  V30 5126 C 496.683 -2.509 2.80581 0
M  V30 5127 C 495.83 -1.28447 2.45757 0
M  V30 5128 H 498.781 -0.288194 1.56061 0
M  V30 5129 H 498.802 -2.82219 2.55211 0
M  V30 5130 H 498.314 -1.35486 3.63683 0
M  V30 5131 H 496.415 -3.16636 1.96398 0
M  V30 5132 H 496.528 -2.88268 3.82673 0
M  V30 5133 H 494.892 -1.60868 1.97468 0
M  V30 5134 H 495.675 -0.68072 3.36483 0
M  V30 5135 N 498.12 -1.38341 -0.754957 0
M  V30 5136 C 499.348 -1.37704 -1.54419 0
M  V30 5137 C 499.763 0.0335243 -1.8877 0
M  V30 5138 O 499.12 0.999773 -1.52679 0
M  V30 5139 C 499.171 -2.23136 -2.84416 0
M  V30 5140 O 498.892 -3.58697 -2.51531 0
M  V30 5141 C 500.393 -2.30664 -3.78562 0
M  V30 5142 H 497.613 -0.471061 -0.477852 0
M  V30 5143 H 500.157 -1.81902 -0.934446 0
M  V30 5144 H 498.312 -1.82403 -3.41772 0
M  V30 5145 H 498.726 -4.03665 -3.34896 0
M  V30 5146 H 500.2 -2.9473 -4.66732 0
M  V30 5147 H 500.677 -1.3199 -4.18898 0
M  V30 5148 H 501.283 -2.71781 -3.27131 0
M  V30 5149 N 499.598 0.982988 -1.23187 0
M  V30 5150 C 501.009 1.53847 -1.05773 0
M  V30 5151 C 501.36 1.92568 0.375744 0
M  V30 5152 O 500.485 1.75783 1.26211 0
M  V30 5153 C 501.08 2.79567 -1.91384 0
M  V30 5154 C 499.639 3.31524 -1.78238 0
M  V30 5155 C 498.786 2.04534 -1.87246 0
M  V30 5156 H 501.737 0.802962 -1.36888 0
M  V30 5157 H 501.758 3.52317 -1.43711 0
M  V30 5158 H 501.27 2.51353 -2.95708 0
M  V30 5159 H 499.371 3.64623 -0.766875 0
M  V30 5160 H 499.484 4.01457 -2.61475 0
M  V30 5161 H 497.848 2.1855 -1.30797 0
M  V30 5162 H 498.631 1.78706 -2.9312 0
M  V30 5163 N 501.076 1.04316 1.18135 0
M  V30 5164 C 502.325 0.74319 1.87509 0
M  V30 5165 C 502.638 -0.732136 1.81381 0
M  V30 5166 O 503.844 -1.14572 2.46141 0
M  V30 5167 C 502.3 1.27913 3.36402 0
M  V30 5168 C 501.908 2.78326 3.51053 0
M  V30 5169 C 503.652 1.0558 4.11161 0
M  V30 5170 C 501.559 3.25266 4.93919 0
M  V30 5171 H 500.489 0.274313 0.702331 0
M  V30 5172 H 503.14 1.25931 1.33467 0
M  V30 5173 H 501.522 0.690853 3.89927 0
M  V30 5174 H 502.696 3.42933 3.07788 0
M  V30 5175 H 501.011 2.991 2.89704 0
M  V30 5176 H 503.608 1.38161 5.16542 0
M  V30 5177 H 503.951 -0.00684729 4.16299 0
M  V30 5178 H 504.484 1.60882 3.63816 0
M  V30 5179 H 501.223 4.30922 4.9395 0
M  V30 5180 H 500.743 2.65396 5.3789 0
M  V30 5181 H 502.422 3.19433 5.62647 0
M  V30 5182 N 502.554 -1.34406 0.822964 0
M  V30 5183 C 503.484 -2.32052 0.259608 0
M  V30 5184 C 504.465 -1.58243 -0.623961 0
M  V30 5185 O 505.65 -1.86224 -0.55083 0
M  V30 5186 C 502.78 -3.42434 -0.579314 0
M  V30 5187 C 501.734 -4.27499 0.20712 0
M  V30 5188 C 501.06 -5.29349 -0.754547 0
M  V30 5189 C 502.36 -5.02758 1.41533 0
M  V30 5190 H 504.054 -2.79418 1.07545 0
M  V30 5191 H 501.6 -1.34338 0.518593 0
M  V30 5192 H 503.553 -4.0976 -0.983612 0
M  V30 5193 H 502.277 -2.93717 -1.4282 0
M  V30 5194 H 500.936 -3.61776 0.592787 0
M  V30 5195 H 500.584 -4.76895 -1.59939 0
M  V30 5196 H 500.284 -5.8714 -0.232561 0
M  V30 5197 H 501.808 -5.99544 -1.1567 0
M  V30 5198 H 503.222 -5.62938 1.08504 0
M  V30 5199 H 501.619 -5.70123 1.87296 0
M  V30 5200 H 502.689 -4.32451 2.1935 0
M  V30 5201 N 504.032 -0.577932 -1.46621 0
M  V30 5202 C 504.964 0.195801 -2.28362 0
M  V30 5203 C 505.977 0.859983 -1.38232 0
M  V30 5204 O 507.166 0.730349 -1.62875 0
M  V30 5205 C 504.266 1.29639 -3.13124 0
M  V30 5206 C 503.439 0.725049 -4.31349 0
M  V30 5207 C 502.498 1.71274 -4.97546 0
M  V30 5208 O 501.524 1.25067 -5.5529 0
M  V30 5209 N 502.726 3.04672 -4.94121 0
M  V30 5210 H 505.491 -0.505468 -2.95407 0
M  V30 5211 H 503.052 -0.415381 -1.56481 0
M  V30 5212 H 505.044 1.95631 -3.54275 0
M  V30 5213 H 503.614 1.90059 -2.48186 0
M  V30 5214 H 502.834 -0.112205 -3.9404 0
M  V30 5215 H 504.122 0.323034 -5.07774 0
M  V30 5216 H 503.52 3.4484 -4.48444 0
M  V30 5217 H 502.077 3.66166 -5.39227 0
M  V30 5218 N 505.51 1.54411 -0.315457 0
M  V30 5219 C 506.457 2.24048 0.554166 0
M  V30 5220 C 507.427 1.2283 1.11812 0
M  V30 5221 O 508.612 1.51491 1.15997 0
M  V30 5222 C 505.752 2.99574 1.71316 0
M  V30 5223 C 504.865 4.15594 1.17922 0
M  V30 5224 C 504 4.78669 2.30324 0
M  V30 5225 C 503.039 5.86807 1.74137 0
M  V30 5226 N 502.176 6.43777 2.8017 0
M  V30 5227 H 507.016 2.97964 -0.0462602 0
M  V30 5228 H 504.553 1.47059 -0.0346009 0
M  V30 5229 H 506.511 3.41604 2.39505 0
M  V30 5230 H 505.141 2.28008 2.285 0
M  V30 5231 H 504.193 3.78404 0.389136 0
M  V30 5232 H 505.505 4.93459 0.728012 0
M  V30 5233 H 504.659 5.23626 3.06433 0
M  V30 5234 H 503.398 4.00168 2.78778 0
M  V30 5235 H 502.403 5.41261 0.965236 0
M  V30 5236 H 503.628 6.67201 1.2657 0
M  V30 5237 H 501.574 5.68153 3.2793 0
M  V30 5238 H 501.491 7.17031 2.39588 0
M  V30 5239 H 502.759 6.9339 3.56132 0
M  V30 5240 N 506.988 0.0434614 1.5754 0
M  V30 5241 C 507.935 -0.93356 2.11077 0
M  V30 5242 C 508.905 -1.31383 1.01626 0
M  V30 5243 O 510.09 -1.40465 1.29129 0
M  V30 5244 C 507.23 -2.20578 2.65404 0
M  V30 5245 C 506.343 -1.88068 3.88914 0
M  V30 5246 C 505.478 -3.09691 4.31584 0
M  V30 5247 C 504.517 -2.73067 5.47815 0
M  V30 5248 N 503.654 -3.87359 5.85574 0
M  V30 5249 H 508.494 -0.470118 2.94268 0
M  V30 5250 H 506.031 -0.220434 1.45439 0
M  V30 5251 H 507.989 -2.95011 2.94999 0
M  V30 5252 H 506.619 -2.64513 1.85021 0
M  V30 5253 H 505.671 -1.03816 3.6596 0
M  V30 5254 H 506.983 -1.57104 4.73413 0
M  V30 5255 H 506.137 -3.92431 4.62691 0
M  V30 5256 H 504.876 -3.43827 3.45882 0
M  V30 5257 H 503.881 -1.88742 5.16388 0
M  V30 5258 H 505.106 -2.40131 6.35227 0
M  V30 5259 H 503.052 -4.21311 5.02825 0
M  V30 5260 H 502.969 -3.60068 6.64746 0
M  V30 5261 H 504.237 -4.70761 6.21292 0
M  V30 5262 N 508.466 -1.55915 -0.229846 0
M  V30 5263 C 509.877 -1.68809 -0.797531 0
M  V30 5264 C 510.228 -0.643995 -1.8533 0
M  V30 5265 O 509.353 0.206492 -2.15413 0
M  V30 5266 C 509.948 -3.06043 -1.45338 0
M  V30 5267 C 508.507 -3.20819 -1.96856 0
M  V30 5268 C 507.654 -2.6472 -0.825736 0
M  V30 5269 H 510.605 -1.58699 -0.00533733 0
M  V30 5270 H 510.626 -3.01438 -2.32196 0
M  V30 5271 H 510.138 -3.82012 -0.684743 0
M  V30 5272 H 508.239 -2.49704 -2.76548 0
M  V30 5273 H 508.352 -4.27937 -2.15423 0
M  V30 5274 H 506.716 -2.22985 -1.23084 0
M  V30 5275 H 507.499 -3.43229 -0.0699019 0
M  V30 5276 N 509.944 0.496216 -1.49584 0
M  V30 5277 C 511.169 1.27865 -1.63295 0
M  V30 5278 C 511.594 1.85592 -0.306156 0
M  V30 5279 O 510.952 1.66092 0.726851 0
M  V30 5280 C 511 2.38128 -2.7079 0
M  V30 5281 O 510.104 3.42108 -2.30296 0
M  V30 5282 H 509.445 0.377279 -0.546403 0
M  V30 5283 H 511.975 0.593497 -1.95803 0
M  V30 5284 H 511.985 2.8382 -2.93104 0
M  V30 5285 H 510.66 1.95479 -3.67098 0
M  V30 5286 H 509.237 3.02301 -2.18331 0
M  V30 5287 N 511.423 1.38739 0.74761 0
M  V30 5288 C 512.651 1.38521 1.53686 0
M  V30 5289 C 513.066 -0.0235129 1.88785 0
M  V30 5290 O 512.423 -0.991662 1.53207 0
M  V30 5291 C 512.474 2.24641 2.83229 0
M  V30 5292 O 512.195 3.60026 2.49625 0
M  V30 5293 C 513.696 2.32669 3.77333 0
M  V30 5294 H 510.916 0.473589 0.475347 0
M  V30 5295 H 513.46 1.82395 0.924786 0
M  V30 5296 H 511.615 1.84213 3.40799 0
M  V30 5297 H 512.029 4.05435 3.3275 0
M  V30 5298 H 513.503 2.97201 4.65162 0
M  V30 5299 H 513.98 1.3421 4.18192 0
M  V30 5300 H 514.586 2.73512 3.25685 0
M  V30 5301 N 512.901 -0.976442 1.23707 0
M  V30 5302 C 513.811 -2.10359 1.03856 0
M  V30 5303 C 514.827 -1.73991 -0.0180919 0
M  V30 5304 O 516.003 -2.0061 0.178211 0
M  V30 5305 C 513.068 -3.40809 0.636387 0
M  V30 5306 C 512.129 -3.91179 1.76854 0
M  V30 5307 C 511.362 -5.15404 1.38546 0
M  V30 5308 O 511.585 -5.69754 0.27142 0
M  V30 5309 O 510.519 -5.5994 2.20797 0
M  V30 5310 H 514.345 -2.29997 1.98331 0
M  V30 5311 H 511.93 -1.08742 1.02448 0
M  V30 5312 H 513.812 -4.19269 0.423223 0
M  V30 5313 H 512.487 -3.22493 -0.279322 0
M  V30 5314 H 511.394 -3.13819 2.03638 0
M  V30 5315 H 512.727 -4.13958 2.6627 0
M  V30 5316 N 514.379 -1.04941 -1.1758 0
M  V30 5317 C 515.311 -0.606174 -2.21039 0
M  V30 5318 C 516.324 0.328763 -1.59446 0
M  V30 5319 O 517.513 0.121895 -1.78083 0
M  V30 5320 C 514.613 0.133294 -3.38638 0
M  V30 5321 C 513.786 -0.811711 -4.29802 0
M  V30 5322 C 512.845 -0.113958 -5.26077 0
M  V30 5323 O 511.871 -0.747237 -5.64274 0
M  V30 5324 N 513.073 1.14953 -5.69004 0
M  V30 5325 H 515.838 -1.49606 -2.59689 0
M  V30 5326 H 513.399 -0.930997 -1.32454 0
M  V30 5327 H 515.391 0.610144 -4.00074 0
M  V30 5328 H 513.961 0.924816 -2.98607 0
M  V30 5329 H 513.181 -1.46824 -3.65837 0
M  V30 5330 H 514.469 -1.45326 -4.87604 0
M  V30 5331 H 513.867 1.68441 -5.40041 0
M  V30 5332 H 512.424 1.57049 -6.32597 0
M  V30 5333 N 515.857 1.33968 -0.830081 0
M  V30 5334 C 517.268 1.80439 -0.479455 0
M  V30 5335 C 517.619 1.68756 1.00079 0
M  V30 5336 O 516.744 1.23171 1.77927 0
M  V30 5337 C 517.339 3.27611 -0.863505 0
M  V30 5338 C 515.898 3.72133 -0.565145 0
M  V30 5339 C 515.045 2.55549 -1.07657 0
M  V30 5340 H 517.996 1.21614 -1.0196 0
M  V30 5341 H 518.017 3.8012 -0.170083 0
M  V30 5342 H 517.529 3.36082 -1.94089 0
M  V30 5343 H 515.63 3.69196 0.502536 0
M  V30 5344 H 515.743 4.65963 -1.11422 0
M  V30 5345 H 514.107 2.49788 -0.497807 0
M  V30 5346 H 514.89 2.66786 -2.16055 0
M  V30 5347 N 517.335 0.585699 1.46312 0
M  V30 5348 C 518.265 -0.133556 2.33118 0
M  V30 5349 C 519.246 -0.880707 1.45525 0
M  V30 5350 O 520.431 -0.855579 1.74337 0
M  V30 5351 C 517.561 -1.14585 3.27853 0
M  V30 5352 C 516.515 -0.513341 4.2491 0
M  V30 5353 C 515.841 -1.63231 5.09175 0
M  V30 5354 C 517.141 0.551413 5.19381 0
M  V30 5355 H 518.835 0.59121 2.93505 0
M  V30 5356 H 516.381 0.285761 1.41136 0
M  V30 5357 H 518.334 -1.65741 3.87438 0
M  V30 5358 H 517.058 -1.90093 2.65579 0
M  V30 5359 H 515.717 -0.0228349 3.66593 0
M  V30 5360 H 515.365 -2.37713 4.43285 0
M  V30 5361 H 515.065 -1.21473 5.74907 0
M  V30 5362 H 516.589 -2.14658 5.71624 0
M  V30 5363 H 518.003 0.124804 5.73164 0
M  V30 5364 H 516.4 0.889486 5.93471 0
M  V30 5365 H 517.47 1.43655 4.63132 0
M  V30 5366 N 518.813 -1.54241 0.323641 0
M  V30 5367 C 520.043 -2.04687 -0.280464 0
M  V30 5368 C 520.451 -1.19939 -1.46326 0
M  V30 5369 O 519.794 -0.222872 -1.82343 0
M  V30 5370 C 519.856 -3.50978 -0.778123 0
M  V30 5371 C 519.52 -4.56127 0.282371 0
M  V30 5372 C 520.517 -5.07726 1.11847 0
M  V30 5373 C 518.202 -5.00451 0.430582 0
M  V30 5374 C 520.196 -6.02212 2.08851 0
M  V30 5375 C 517.883 -5.94752 1.40404 0
M  V30 5376 C 518.881 -6.45519 2.23147 0
M  V30 5377 O 518.569 -7.37968 3.1884 0
M  V30 5378 H 518.301 -0.673192 -0.0615473 0
M  V30 5379 H 520.855 -1.99999 0.467921 0
M  V30 5380 H 519.085 -3.53064 -1.57742 0
M  V30 5381 H 520.774 -3.84499 -1.30058 0
M  V30 5382 H 521.54 -4.74261 1.01496 0
M  V30 5383 H 517.419 -4.6055 -0.203569 0
M  V30 5384 H 520.963 -6.41761 2.73474 0
M  V30 5385 H 516.86 -6.27633 1.5082 0
M  V30 5386 H 517.628 -7.55841 3.14079 0
M  V30 5387 N 520.291 -0.0518155 -1.57515 0
M  V30 5388 C 521.516 0.634896 -1.97443 0
M  V30 5389 C 521.941 1.63546 -0.929207 0
M  V30 5390 O 521.299 1.80981 0.107484 0
M  V30 5391 C 521.347 1.29765 -3.36442 0
M  V30 5392 O 520.451 2.41333 -3.34413 0
M  V30 5393 H 519.792 0.164994 -0.643174 0
M  V30 5394 H 522.322 -0.120407 -2.04245 0
M  V30 5395 H 522.332 1.64918 -3.73184 0
M  V30 5396 H 521.007 0.564361 -4.12053 0
M  V30 5397 H 519.584 2.08122 -3.09418 0
M  V30 5398 N 521.769 1.56035 0.221574 0
M  V30 5399 C 522.994 1.83476 0.967026 0
M  V30 5400 C 523.419 0.632139 1.7716 0
M  V30 5401 O 522.777 -0.419082 1.7639 0
M  V30 5402 C 522.825 3.08907 1.86034 0
M  V30 5403 O 521.929 2.876 2.95567 0
M  V30 5404 H 521.27 0.604913 0.273817 0
M  V30 5405 H 523.8 2.03247 0.234893 0
M  V30 5406 H 523.81 3.3901 2.27016 0
M  V30 5407 H 522.485 3.96068 1.26898 0
M  V30 5408 H 521.062 2.6873 2.58532 0
M  V30 5409 N 523.247 -0.488276 1.49845 0
M  V30 5410 C 524.472 -1.26997 1.63971 0
M  V30 5411 C 524.897 -1.85427 0.315994 0
M  V30 5412 O 524.255 -1.66475 -0.718032 0
M  V30 5413 C 524.303 -2.36689 2.72049 0
M  V30 5414 O 523.407 -3.40882 2.32107 0
M  V30 5415 H 522.748 -0.374376 0.548396 0
M  V30 5416 H 525.278 -0.583104 1.96115 0
M  V30 5417 H 525.288 -2.82262 2.94605 0
M  V30 5418 H 523.963 -1.93529 3.68129 0
M  V30 5419 H 522.54 -3.01139 2.19931 0
M  V30 5420 N 524.725 -1.39134 -0.740242 0
M  V30 5421 C 525.655 -1.40165 -1.86751 0
M  V30 5422 C 526.636 -0.265708 -1.68012 0
M  V30 5423 O 527.821 -0.47076 -1.88408 0
M  V30 5424 C 524.951 -1.2392 -3.2444 0
M  V30 5425 C 523.905 -2.34858 -3.57807 0
M  V30 5426 C 523.231 -2.03707 -4.94376 0
M  V30 5427 C 524.531 -3.77159 -3.61315 0
M  V30 5428 H 526.225 -2.345 -1.86145 0
M  V30 5429 H 523.771 -1.12875 -0.89416 0
M  V30 5430 H 525.724 -1.23263 -4.02969 0
M  V30 5431 H 524.448 -0.26051 -3.25559 0
M  V30 5432 H 523.107 -2.34723 -2.81604 0
M  V30 5433 H 522.755 -1.04289 -4.9207 0
M  V30 5434 H 522.455 -2.78016 -5.17669 0
M  V30 5435 H 523.979 -2.04691 -5.75268 0
M  V30 5436 H 525.393 -3.79252 -4.29931 0
M  V30 5437 H 523.79 -4.50784 -3.96124 0
M  V30 5438 H 524.86 -4.08513 -2.61238 0
M  V30 5439 N 526.204 0.969867 -1.24223 0
M  V30 5440 C 527.45 1.71582 -1.09231 0
M  V30 5441 C 527.805 1.88898 0.365432 0
M  V30 5442 O 527.098 1.43781 1.2664 0
M  V30 5443 C 527.292 3.10883 -1.76314 0
M  V30 5444 C 527.121 3.07155 -3.2846 0
M  V30 5445 C 525.891 3.11757 -3.97663 0
M  V30 5446 C 528.089 2.895 -4.25082 0
M  V30 5447 N 526.071 2.98025 -5.36707 0
M  V30 5448 C 527.442 2.84041 -5.51109 0
M  V30 5449 C 529.497 2.74064 -4.15684 0
M  V30 5450 C 528.2 2.64725 -6.68815 0
M  V30 5451 C 530.226 2.56115 -5.33066 0
M  V30 5452 C 529.588 2.51363 -6.58024 0
M  V30 5453 H 525.687 0.636496 -0.454309 0
M  V30 5454 H 528.271 1.15004 -1.57106 0
M  V30 5455 H 526.442 3.65657 -1.30955 0
M  V30 5456 H 528.174 3.74171 -1.54201 0
M  V30 5457 H 524.929 3.20352 -3.48814 0
M  V30 5458 H 525.353 2.94405 -6.09635 0
M  V30 5459 H 529.995 2.76521 -3.19837 0
M  V30 5460 H 527.713 2.61011 -7.64787 0
M  V30 5461 H 531.299 2.45119 -5.27644 0
M  V30 5462 H 530.179 2.37651 -7.47323 0
M  V30 5463 N 527.682 1.05563 1.17022 0
M  V30 5464 C 528.93 0.76642 1.87004 0
M  V30 5465 C 529.251 -0.708854 1.8166 0
M  V30 5466 O 528.521 -1.51242 1.2451 0
M  V30 5467 H 527.101 0.280516 0.692329 0
M  V30 5468 H 529.763 1.33557 1.41945 0
M  V30 5469 H 528.859 1.08472 2.92644 0
M  V30 5470 N 529.16 -1.33526 0.837174 0
M  V30 5471 C 530.571 -1.80182 0.489017 0
M  V30 5472 C 530.922 -1.69285 -0.991826 0
M  V30 5473 O 530.047 -1.24113 -1.77271 0
M  V30 5474 C 530.642 -3.27149 0.880866 0
M  V30 5475 C 529.201 -3.71828 0.584872 0
M  V30 5476 C 528.348 -2.54974 1.09011 0
M  V30 5477 H 531.299 -1.21071 1.02603 0
M  V30 5478 H 531.32 -3.80024 0.190239 0
M  V30 5479 H 530.832 -3.35048 1.95869 0
M  V30 5480 H 528.933 -3.69457 -0.48295 0
M  V30 5481 H 529.046 -4.65366 1.13892 0
M  V30 5482 H 527.41 -2.4952 0.511047 0
M  V30 5483 H 528.193 -2.65637 2.17467 0
M  V30 5484 N 530.638 -0.59345 -1.46 0
M  V30 5485 C 531.601 0.123538 -2.28867 0
M  V30 5486 C 532.601 0.808628 -1.38989 0
M  V30 5487 O 533.791 0.658945 -1.61256 0
M  V30 5488 C 530.923 1.1847 -3.19653 0
M  V30 5489 H 532.116 -0.604843 -2.93737 0
M  V30 5490 H 529.669 -0.351875 -1.52288 0
M  V30 5491 H 530.404 1.94431 -2.59552 0
M  V30 5492 H 530.189 0.69783 -3.8584 0
M  V30 5493 H 531.679 1.68726 -3.81997 0
M  V30 5494 N 532.116 1.54067 -0.331816 0
M  V30 5495 C 533.362 2.01012 0.268667 0
M  V30 5496 C 533.695 1.2195 1.51136 0
M  V30 5497 O 532.97 0.303972 1.9211 0
M  V30 5498 C 533.253 3.55158 0.59456 0
M  V30 5499 C 533.106 4.4494 -0.659409 0
M  V30 5500 C 534.425 4.16939 1.4089 0
M  V30 5501 H 531.544 0.730698 0.0961756 0
M  V30 5502 H 534.186 1.84593 -0.450031 0
M  V30 5503 H 532.336 3.6928 1.20685 0
M  V30 5504 H 534.008 4.42675 -1.29756 0
M  V30 5505 H 532.251 4.1428 -1.28665 0
M  V30 5506 H 532.922 5.50643 -0.386804 0
M  V30 5507 H 535.398 4.06443 0.891272 0
M  V30 5508 H 534.274 5.24889 1.60569 0
M  V30 5509 H 534.535 3.70798 2.40752 0
M  V30 5510 N 533.594 0.0601682 1.57485 0
M  V30 5511 C 534.871 -0.651956 1.84415 0
M  V30 5512 C 535.251 -1.88498 0.950361 0
M  V30 5513 O 534.599 -2.28496 0.0136719 0
M  V30 5514 C 534.809 -1.00069 3.34346 0
M  V30 5515 C 536.157 -1.37915 4.01578 0
M  V30 5516 O 537.181 -1.09277 3.39024 0
M  V30 5517 O 536.04 -1.91399 5.11887 0
M  V30 5518 H 533.134 -0.322668 0.761455 0
M  V30 5519 H 535.68 0.0902159 1.6946 0
M  V30 5520 H 534.452 -0.124463 3.91102 0
M  V30 5521 H 534.075 -1.80001 3.54521 0
M  V30 5522 N 535.072 -1.5615 -0.213296 0
M  V30 5523 C 536.32 -1.79191 -0.934612 0
M  V30 5524 C 536.641 -0.630112 -1.84539 0
M  V30 5525 O 535.911 0.35257 -1.92701 0
M  V30 5526 H 534.491 -0.660937 -0.348097 0
M  V30 5527 H 537.153 -1.93618 -0.22317 0
M  V30 5528 H 536.249 -2.71656 -1.53654 0
M  V30 5529 N 536.55 0.480323 -1.50102 0
M  V30 5530 C 537.79 1.24301 -1.62261 0
M  V30 5531 C 538.154 1.89452 -0.311758 0
M  V30 5532 O 539.355 2.67022 -0.308696 0
M  V30 5533 C 537.626 2.26588 -2.76392 0
M  V30 5534 S 539.185 3.11919 -3.08629 0
M  V30 5535 H 536.003 0.42215 -0.57211 0
M  V30 5536 H 538.605 0.541591 -1.87848 0
M  V30 5537 H 537.309 1.7729 -3.70131 0
M  V30 5538 H 536.84 3.01371 -2.52862 0
M  V30 5539 H 538.855 4.27598 -2.51742 0
M  V30 5540 N 538.028 1.39524 0.732853 0
M  V30 5541 C 539.305 1.27373 1.48444 0
M  V30 5542 C 539.685 -0.115725 2.10783 0
M  V30 5543 O 539.033 -1.12713 1.98766 0
M  V30 5544 C 539.243 2.39966 2.53412 0
M  V30 5545 C 540.591 2.79384 3.19733 0
M  V30 5546 O 541.615 2.39431 2.63725 0
M  V30 5547 O 540.474 3.48353 4.21085 0
M  V30 5548 H 537.568 0.499272 0.659285 0
M  V30 5549 H 540.114 1.51403 0.766496 0
M  V30 5550 H 538.886 3.32845 2.05742 0
M  V30 5551 H 538.509 2.17612 3.32762 0
M  V30 5552 N 539.506 -0.963266 1.24736 0
M  V30 5553 C 540.746 -1.72172 1.10165 0
M  V30 5554 C 541.11 -1.88731 -0.352784 0
M  V30 5555 O 542.311 -2.61549 -0.620107 0
M  V30 5556 C 540.582 -3.0724 1.82589 0
M  V30 5557 S 542.141 -3.98449 1.83803 0
M  V30 5558 H 538.959 -0.591901 0.393922 0
M  V30 5559 H 541.561 -1.14955 1.58132 0
M  V30 5560 H 540.265 -2.92851 2.87518 0
M  V30 5561 H 539.796 -3.69521 1.34973 0
M  V30 5562 H 541.811 -4.87805 0.908883 0
M  V30 5563 N 540.985 -1.06182 -1.16461 0
M  V30 5564 C 542.231 -0.779015 -1.87241 0
M  V30 5565 C 542.564 0.692715 -1.81425 0
M  V30 5566 O 541.839 1.5074 -1.22913 0
M  V30 5567 C 542.122 -1.2728 -3.36856 0
M  V30 5568 C 541.975 -2.80821 -3.51368 0
M  V30 5569 C 543.294 -0.879799 -4.31216 0
M  V30 5570 H 540.413 -0.284464 -0.679889 0
M  V30 5571 H 543.055 -1.31755 -1.36896 0
M  V30 5572 H 541.205 -0.814673 -3.79862 0
M  V30 5573 H 542.877 -3.34833 -3.17308 0
M  V30 5574 H 541.12 -3.19606 -2.93316 0
M  V30 5575 H 541.791 -3.10435 -4.56436 0
M  V30 5576 H 544.267 -1.27436 -3.96105 0
M  V30 5577 H 543.143 -1.25278 -5.34412 0
M  V30 5578 H 543.404 0.215372 -4.41575 0
M  V30 5579 N 542.463 1.3308 -0.844243 0
M  V30 5580 C 543.426 2.27403 -0.286485 0
M  V30 5581 C 544.426 1.51179 0.547872 0
M  V30 5582 O 545.616 1.70421 0.360886 0
M  V30 5583 C 542.748 3.35653 0.595813 0
M  V30 5584 H 543.941 2.78248 -1.11885 0
M  V30 5585 H 541.494 1.43574 -0.617749 0
M  V30 5586 H 542.229 2.90058 1.4504 0
M  V30 5587 H 542.014 3.921 -0.00125994 0
M  V30 5588 H 543.504 4.05958 0.979168 0
M  V30 5589 N 543.941 0.601185 1.45683 0
M  V30 5590 C 544.851 -0.123395 2.34275 0
M  V30 5591 C 545.867 -0.86702 1.5086 0
M  V30 5592 O 547.043 -0.826049 1.8368 0
M  V30 5593 C 544.108 -1.11237 3.2837 0
M  V30 5594 C 543.169 -0.371405 4.2769 0
M  V30 5595 C 542.402 -1.31327 5.1729 0
M  V30 5596 O 542.625 -2.55078 5.10188 0
M  V30 5597 O 541.559 -0.813811 5.96373 0
M  V30 5598 H 545.385 0.604483 2.97623 0
M  V30 5599 H 542.97 0.361477 1.44961 0
M  V30 5600 H 544.852 -1.68214 3.8637 0
M  V30 5601 H 543.527 -1.82139 2.67595 0
M  V30 5602 H 542.434 0.24067 3.73325 0
M  V30 5603 H 543.767 0.296998 4.91303 0
M  V30 5604 N 545.419 -1.53889 0.339982 0
M  V30 5605 C 546.667 -2.00458 -0.257112 0
M  V30 5606 C 546.988 -1.22953 -1.51353 0
M  V30 5607 O 546.258 -0.335734 -1.93002 0
M  V30 5608 H 544.838 -0.740544 -0.0979965 0
M  V30 5609 H 547.5 -1.89386 0.460317 0
M  V30 5610 H 546.596 -3.08035 -0.502057 0
M  V30 5611 N 546.897 -0.0685191 -1.57451 0
M  V30 5612 C 547.827 0.89747 -2.15564 0
M  V30 5613 C 548.808 1.31266 -1.08181 0
M  V30 5614 O 549.993 1.38429 -1.36202 0
M  V30 5615 C 547.123 2.16623 -2.71463 0
M  V30 5616 C 546.077 1.89054 -3.83982 0
M  V30 5617 C 545.403 3.22532 -4.26471 0
M  V30 5618 C 546.703 1.1984 -5.08366 0
M  V30 5619 H 548.397 0.413373 -2.96533 0
M  V30 5620 H 545.943 0.197391 -1.42641 0
M  V30 5621 H 547.896 2.84614 -3.10761 0
M  V30 5622 H 546.62 2.67269 -1.8771 0
M  V30 5623 H 545.279 1.23469 -3.45183 0
M  V30 5624 H 544.927 3.71013 -3.39644 0
M  V30 5625 H 544.627 3.04879 -5.02317 0
M  V30 5626 H 546.151 3.91727 -4.68383 0
M  V30 5627 H 547.565 1.77896 -5.45001 0
M  V30 5628 H 545.962 1.12456 -5.89469 0
M  V30 5629 H 547.032 0.176996 -4.84577 0
M  V30 5630 N 548.375 1.56261 0.205012 0
M  V30 5631 C 549.621 1.81211 0.923805 0
M  V30 5632 C 549.976 0.644065 1.813 0
M  V30 5633 O 549.269 -0.361208 1.88164 0
M  V30 5634 C 549.463 3.09722 1.78345 0
M  V30 5635 C 549.292 4.38915 0.978979 0
M  V30 5636 C 548.062 5.00874 0.667332 0
M  V30 5637 C 550.26 5.13199 0.336386 0
M  V30 5638 N 548.242 6.137 -0.156814 0
M  V30 5639 C 549.613 6.19009 -0.350402 0
M  V30 5640 C 551.668 4.97266 0.251101 0
M  V30 5641 C 550.371 7.10616 -1.11434 0
M  V30 5642 C 552.397 5.89288 -0.499413 0
M  V30 5643 C 551.759 6.94536 -1.17468 0
M  V30 5644 H 547.858 0.714528 0.317764 0
M  V30 5645 H 550.442 1.93738 0.193317 0
M  V30 5646 H 548.613 2.98448 2.48563 0
M  V30 5647 H 550.345 3.22798 2.44098 0
M  V30 5648 H 547.1 4.63151 0.989366 0
M  V30 5649 H 547.524 6.74695 -0.558206 0
M  V30 5650 H 552.166 4.15935 0.758823 0
M  V30 5651 H 549.884 7.91417 -1.63353 0
M  V30 5652 H 553.47 5.79034 -0.566627 0
M  V30 5653 H 552.35 7.64513 -1.74613 0
M  V30 5654 N 549.853 -0.472356 1.50355 0
M  V30 5655 C 550.783 -1.57859 1.72055 0
M  V30 5656 C 551.764 -1.60283 0.569505 0
M  V30 5657 O 552.949 -1.7657 0.808503 0
M  V30 5658 C 550.079 -2.96191 1.81351 0
M  V30 5659 C 549.033 -3.08633 2.96529 0
M  V30 5660 C 548.359 -4.486 2.90968 0
M  V30 5661 C 549.659 -2.85969 4.37057 0
M  V30 5662 H 551.353 -1.39953 2.64676 0
M  V30 5663 H 548.899 -0.671846 1.27367 0
M  V30 5664 H 550.852 -3.73507 1.95117 0
M  V30 5665 H 549.576 -3.15251 0.853502 0
M  V30 5666 H 548.235 -2.33749 2.82413 0
M  V30 5667 H 547.883 -4.64577 1.92815 0
M  V30 5668 H 547.583 -4.57861 3.68289 0
M  V30 5669 H 549.107 -5.27938 3.0678 0
M  V30 5670 H 550.521 -3.53036 4.51706 0
M  V30 5671 H 548.918 -3.06677 5.15819 0
M  V30 5672 H 549.988 -1.81838 4.49514 0
M  V30 5673 N 551.331 -1.39911 -0.725443 0
M  V30 5674 C 552.742 -1.33599 -1.30415 0
M  V30 5675 C 553.093 -0.00481792 -1.96199 0
M  V30 5676 O 552.218 0.897275 -1.96921 0
M  V30 5677 C 552.813 -2.41965 -2.37146 0
M  V30 5678 C 551.372 -2.39144 -2.90667 0
M  V30 5679 C 550.519 -2.23355 -1.64341 0
M  V30 5680 H 553.47 -1.4986 -0.522267 0
M  V30 5681 H 553.491 -2.09304 -3.17761 0
M  V30 5682 H 553.003 -3.38837 -1.89238 0
M  V30 5683 H 551.104 -1.4594 -3.4283 0
M  V30 5684 H 551.217 -3.34362 -3.43131 0
M  V30 5685 H 549.581 -1.70696 -1.89037 0
M  V30 5686 H 550.364 -3.2221 -1.18471 0
M  V30 5687 N 552.809 0.956637 -1.25245 0
M  V30 5688 C 553.741 2.05628 -1.01242 0
M  V30 5689 C 554.754 1.62785 0.0219579 0
M  V30 5690 O 555.943 1.77184 -0.216365 0
M  V30 5691 C 553.043 3.35069 -0.508161 0
M  V30 5692 C 552.216 4.06761 -1.60823 0
M  V30 5693 C 551.275 5.14473 -1.1047 0
M  V30 5694 O 550.301 5.40033 -1.79868 0
M  V30 5695 N 551.503 5.80474 0.0550773 0
M  V30 5696 H 554.268 2.2679 -1.95925 0
M  V30 5697 H 551.829 1.12505 -1.16423 0
M  V30 5698 H 553.821 4.044 -0.155819 0
M  V30 5699 H 552.391 3.10694 0.344683 0
M  V30 5700 H 551.611 3.31555 -2.13224 0
M  V30 5701 H 552.899 4.51418 -2.34733 0
M  V30 5702 H 552.297 5.62125 0.635004 0
M  V30 5703 H 550.854 6.50868 0.348469 0
M  V30 5704 N 554.287 1.06798 1.15896 0
M  V30 5705 C 555.217 0.704677 2.22613 0
M  V30 5706 C 556.198 -0.305252 1.67339 0
M  V30 5707 O 557.383 -0.179247 1.93371 0
M  V30 5708 C 554.513 0.0957325 3.47168 0
M  V30 5709 C 553.467 1.0322 4.15367 0
M  V30 5710 C 552.793 0.286293 5.33933 0
M  V30 5711 C 554.093 2.36341 4.65768 0
M  V30 5712 H 555.787 1.59688 2.53259 0
M  V30 5713 H 553.333 0.769257 1.21731 0
M  V30 5714 H 555.286 -0.170333 4.21056 0
M  V30 5715 H 554.01 -0.831516 3.15838 0
M  V30 5716 H 552.669 1.28309 3.43413 0
M  V30 5717 H 552.317 -0.644237 4.98857 0
M  V30 5718 H 552.017 0.910436 5.80504 0
M  V30 5719 H 553.541 0.0278938 6.10594 0
M  V30 5720 H 554.955 2.1561 5.31211 0
M  V30 5721 H 553.352 2.94299 5.2298 0
M  V30 5722 H 554.422 2.99047 3.81705 0
M  V30 5723 N 555.766 -1.3263 0.851289 0
M  V30 5724 C 556.716 -2.26451 0.265302 0
M  V30 5725 C 557.7 -1.49814 -0.586899 0
M  V30 5726 O 558.892 -1.71525 -0.436834 0
M  V30 5727 C 556.021 -3.38895 -0.548212 0
M  V30 5728 C 555.107 -4.2292 0.316189 0
M  V30 5729 N 555.498 -4.86014 1.40084 0
M  V30 5730 C 553.796 -4.45876 0.105356 0
M  V30 5731 C 554.497 -5.48667 1.93235 0
M  V30 5732 N 553.473 -5.29455 1.232 0
M  V30 5733 H 557.275 -2.72757 1.09457 0
M  V30 5734 H 554.789 -1.4668 0.697047 0
M  V30 5735 H 556.786 -4.05111 -0.984402 0
M  V30 5736 H 555.446 -2.94135 -1.37531 0
M  V30 5737 H 556.457 -4.86212 1.78377 0
M  V30 5738 H 553.134 -4.11804 -0.687299 0
M  V30 5739 H 554.524 -6.08865 2.84135 0
M  V30 5740 N 557.244 -0.608902 -1.45362 0
M  V30 5741 C 558.49 -0.104762 -2.02529 0
M  V30 5742 C 558.823 1.26191 -1.47613 0
M  V30 5743 O 558.098 1.8327 -0.65134 0
M  V30 5744 C 558.381 -0.0672661 -3.60037 0
M  V30 5745 C 558.234 -1.4647 -4.25284 0
M  V30 5746 C 559.553 0.619877 -4.35713 0
M  V30 5747 H 556.672 -0.0395438 -0.735938 0
M  V30 5748 H 559.314 -0.781126 -1.73201 0
M  V30 5749 H 557.464 0.50871 -3.85155 0
M  V30 5750 H 559.136 -2.08785 -4.11347 0
M  V30 5751 H 557.379 -2.02502 -3.83634 0
M  V30 5752 H 558.05 -1.39069 -5.34195 0
M  V30 5753 H 560.526 0.130297 -4.15896 0
M  V30 5754 H 559.402 0.615224 -5.45441 0
M  V30 5755 H 559.663 1.68621 -4.0868 0
M  V30 5756 N 558.722 1.53707 -0.348139 0
M  V30 5757 C 559.97 2.00591 0.246478 0
M  V30 5758 C 560.291 1.23753 1.50699 0
M  V30 5759 O 559.561 0.345964 1.92821 0
M  V30 5760 H 558.141 0.741053 0.0940679 0
M  V30 5761 H 560.803 1.89139 -0.470354 0
M  V30 5762 H 559.899 3.08297 0.485714 0
M  V30 5763 N 560.2 0.0768682 1.57412 0
M  V30 5764 C 561.477 -0.632359 1.85096 0
M  V30 5765 C 561.857 -1.87479 0.9703 0
M  V30 5766 O 561.205 -2.28469 0.0379062 0
M  V30 5767 C 561.415 -0.965174 3.35388 0
M  V30 5768 C 562.763 -1.33648 4.03018 0
M  V30 5769 O 563.787 -1.05675 3.40164 0
M  V30 5770 O 562.646 -1.85959 5.13889 0
M  V30 5771 H 559.74 -0.314574 0.764835 0
M  V30 5772 H 562.286 0.108184 1.69355 0
M  V30 5773 H 561.058 -0.0829745 3.91212 0
M  V30 5774 H 560.681 -1.76231 3.5641 0
M  V30 5775 N 561.678 -1.56367 -0.196722 0
M  V30 5776 C 562.924 -1.81698 -0.914182 0
M  V30 5777 C 563.279 -0.65367 -1.80956 0
M  V30 5778 O 562.572 0.351224 -1.88353 0
M  V30 5779 C 562.766 -3.10663 -1.767 0
M  V30 5780 C 562.595 -4.39428 -0.955689 0
M  V30 5781 C 561.365 -5.01221 -0.64076 0
M  V30 5782 C 563.563 -5.1337 -0.309165 0
M  V30 5783 N 561.545 -6.13608 0.189358 0
M  V30 5784 C 562.916 -6.18815 0.383225 0
M  V30 5785 C 564.971 -4.97393 -0.224726 0
M  V30 5786 C 563.674 -7.10015 1.15201 0
M  V30 5787 C 565.7 -5.89014 0.530658 0
M  V30 5788 C 565.062 -6.93903 1.2115 0
M  V30 5789 H 561.161 -0.716203 -0.31397 0
M  V30 5790 H 563.745 -1.93838 -0.18304 0
M  V30 5791 H 561.916 -2.99762 -2.46976 0
M  V30 5792 H 563.648 -3.24088 -2.42382 0
M  V30 5793 H 560.403 -4.63669 -0.96479 0
M  V30 5794 H 560.827 -6.74389 0.593979 0
M  V30 5795 H 565.469 -4.16331 -0.736754 0
M  V30 5796 H 563.187 -7.9054 1.67547 0
M  V30 5797 H 566.773 -5.78726 0.597326 0
M  V30 5798 H 565.653 -7.63576 1.78665 0
M  V30 5799 N 563.156 0.464375 -1.50603 0
M  V30 5800 C 564.086 1.56944 -1.72889 0
M  V30 5801 C 565.067 1.59979 -0.577997 0
M  V30 5802 O 566.252 1.76138 -0.817855 0
M  V30 5803 C 563.382 2.95225 -1.8292 0
M  V30 5804 C 562.336 3.07056 -2.98162 0
M  V30 5805 C 561.662 4.47051 -2.93343 0
M  V30 5806 C 562.962 2.83648 -4.38567 0
M  V30 5807 H 564.656 1.38547 -2.65415 0
M  V30 5808 H 562.202 0.665082 -1.27721 0
M  V30 5809 H 564.155 3.72467 -1.97095 0
M  V30 5810 H 562.879 3.14793 -0.870209 0
M  V30 5811 H 561.538 2.32248 -2.83648 0
M  V30 5812 H 561.186 4.63547 -1.95276 0
M  V30 5813 H 560.886 4.55902 -3.70712 0
M  V30 5814 H 562.41 5.26304 -3.09575 0
M  V30 5815 H 563.824 3.50636 -4.53572 0
M  V30 5816 H 562.221 3.03937 -5.17438 0
M  V30 5817 H 563.291 1.79451 -4.50472 0
M  V30 5818 N 564.634 1.40294 0.718013 0
M  V30 5819 C 565.88 1.38645 1.48005 0
M  V30 5820 C 566.213 -0.0121202 1.94196 0
M  V30 5821 O 565.488 -0.980309 1.67989 0
M  V30 5822 C 565.771 2.37379 2.70782 0
M  V30 5823 C 565.624 3.8625 2.30501 0
M  V30 5824 C 566.943 2.33685 3.72933 0
M  V30 5825 H 564.062 0.504928 0.536858 0
M  V30 5826 H 566.704 1.71411 0.819649 0
M  V30 5827 H 564.854 2.09568 3.27129 0
M  V30 5828 H 566.526 4.24879 1.79655 0
M  V30 5829 H 564.769 4.02202 1.6253 0
M  V30 5830 H 565.44 4.50847 3.18498 0
M  V30 5831 H 567.916 2.58314 3.2621 0
M  V30 5832 H 566.792 3.0482 4.56482 0
M  V30 5833 H 567.053 1.34765 4.21059 0
M  V30 5834 N 566.112 -0.949982 1.2575 0
M  V30 5835 C 567.359 -1.69515 1.10774 0
M  V30 5836 C 567.687 -1.91316 -0.350479 0
M  V30 5837 O 566.942 -1.48515 -1.27443 0
M  V30 5838 C 567.241 -3.08039 1.81237 0
M  V30 5839 C 566.907 -3.06023 3.31151 0
M  V30 5840 C 565.569 -3.0518 3.72047 0
M  V30 5841 C 567.921 -2.98998 4.26907 0
M  V30 5842 C 565.249 -2.95067 5.07102 0
M  V30 5843 C 567.601 -2.90426 5.61992 0
M  V30 5844 C 566.265 -2.87922 6.0221 0
M  V30 5845 H 565.535 -0.6203 0.405351 0
M  V30 5846 H 568.182 -1.10953 1.56082 0
M  V30 5847 H 566.487 -3.70172 1.28373 0
M  V30 5848 H 568.184 -3.64526 1.67098 0
M  V30 5849 H 564.774 -3.07453 2.98614 0
M  V30 5850 H 568.958 -2.98764 3.963 0
M  V30 5851 H 564.214 -2.915 5.37436 0
M  V30 5852 H 568.388 -2.83952 6.35881 0
M  V30 5853 H 566.015 -2.79841 7.06819 0
M  V30 5854 N 567.59 -1.07411 -1.15328 0
M  V30 5855 C 568.867 -0.710732 -1.82231 0
M  V30 5856 C 569.247 0.806732 -1.95077 0
M  V30 5857 O 568.595 1.72139 -1.50268 0
M  V30 5858 C 568.805 -1.42586 -3.18544 0
M  V30 5859 C 570.153 -1.57836 -3.94174 0
M  V30 5860 O 571.177 -1.38669 -3.281 0
M  V30 5861 O 570.036 -1.8938 -5.12638 0
M  V30 5862 H 567.13 -0.25297 -0.78736 0
M  V30 5863 H 569.676 -1.17508 -1.22434 0
M  V30 5864 H 568.448 -2.46008 -3.04296 0
M  V30 5865 H 568.071 -0.952332 -3.86026 0
M  V30 5866 N 569.068 1.32177 -0.85831 0
M  V30 5867 C 570.016 2.30729 -0.294442 0
M  V30 5868 C 571.01 1.59009 0.584165 0
M  V30 5869 O 572.216 1.73713 0.471562 0
M  V30 5870 H 568.591 0.748097 -0.0765171 0
M  V30 5871 H 570.562 2.75774 -1.1398 0
M  V30 5872 C 569.311 3.44098 0.499208 0
M  V30 5873 H 568.634 3.99449 -0.167579 0
M  V30 5874 H 570.074 4.15202 0.859273 0
M  V30 5875 C 568.533 2.91684 1.68588 0
M  V30 5876 O 569.063 2.89481 2.78503 0
M  V30 5877 N 567.269 2.48036 1.51415 0
M  V30 5878 H 566.816 2.50027 0.620006 0
M  V30 5879 H 566.774 2.13322 2.30957 0
M  V30 5880 N 570.547 0.616602 1.45037 0
M  V30 5881 C 571.48 -0.145984 2.27733 0
M  V30 5882 C 572.458 -0.865108 1.37676 0
M  V30 5883 O 573.642 -0.872152 1.6711 0
M  V30 5884 C 570.769 -1.2122 3.16265 0
M  V30 5885 C 569.815 -0.595218 4.22326 0
M  V30 5886 S 570.648 0.603744 5.32086 0
M  V30 5887 C 571.804 -0.462842 6.24186 0
M  V30 5888 H 572.037 0.555591 2.92062 0
M  V30 5889 H 569.57 0.404364 1.49011 0
M  V30 5890 H 571.528 -1.82247 3.67827 0
M  V30 5891 H 570.189 -1.88589 2.51183 0
M  V30 5892 H 569.382 -1.39775 4.8423 0
M  V30 5893 H 568.984 -0.0598965 3.73952 0
M  V30 5894 H 571.276 -1.33945 6.64127 0
M  V30 5895 H 572.219 0.120259 7.07998 0
M  V30 5896 H 572.627 -0.782219 5.59054 0
M  V30 5897 N 572.025 -1.5352 0.356285 0
M  V30 5898 C 573.273 -2.00719 -0.235837 0
M  V30 5899 C 573.594 -1.24551 -1.5004 0
M  V30 5900 O 572.864 -0.356185 -1.92635 0
M  V30 5901 H 571.444 -0.741542 -0.0901366 0
M  V30 5902 H 574.106 -1.88887 0.480378 0
M  V30 5903 H 573.202 -3.08551 -0.469357 0
M  V30 5904 N 573.503 -0.0852151 -1.57369 0
M  V30 5905 C 574.466 0.8627 -2.12344 0
M  V30 5906 C 575.466 1.21746 -1.05046 0
M  V30 5907 O 576.656 1.14852 -1.30976 0
M  V30 5908 C 573.788 2.1618 -2.63589 0
M  V30 5909 H 574.981 0.385511 -2.97412 0
M  V30 5910 H 572.534 0.163663 -1.55441 0
M  V30 5911 H 573.269 2.68406 -1.82013 0
M  V30 5912 H 573.054 1.91723 -3.4203 0
M  V30 5913 H 574.544 2.84011 -3.06149 0
M  V30 5914 N 574.981 1.5647 0.188427 0
M  V30 5915 C 576.211 1.84863 0.922463 0
M  V30 5916 C 576.619 0.666413 1.77075 0
M  V30 5917 O 575.962 -0.374044 1.79852 0
M  V30 5918 C 576.024 3.07447 1.86324 0
M  V30 5919 C 575.688 4.41066 1.19625 0
M  V30 5920 C 576.685 5.16767 0.569946 0
M  V30 5921 C 574.37 4.87802 1.19811 0
M  V30 5922 C 576.364 6.37384 -0.045594 0
M  V30 5923 C 574.051 6.08353 0.57874 0
M  V30 5924 C 575.049 6.82987 -0.0420259 0
M  V30 5925 O 574.737 8.01254 -0.651675 0
M  V30 5926 H 574.469 0.61784 0.274316 0
M  V30 5927 H 577.023 2.04437 0.198613 0
M  V30 5928 H 575.253 2.83774 2.62696 0
M  V30 5929 H 576.942 3.2243 2.46564 0
M  V30 5930 H 577.708 4.81749 0.560601 0
M  V30 5931 H 573.587 4.29662 1.67069 0
M  V30 5932 H 577.131 6.95578 -0.530731 0
M  V30 5933 H 573.028 6.42838 0.58561 0
M  V30 5934 H 573.796 8.16655 -0.549236 0
M  V30 5935 N 576.459 -0.456382 1.50847 0
M  V30 5936 C 577.687 -1.23026 1.66349 0
M  V30 5937 C 578.102 -1.85473 0.352868 0
M  V30 5938 O 577.459 -1.69885 -0.666739 0
M  V30 5939 C 577.51 -2.32827 2.76539 0
M  V30 5940 O 577.231 -1.72938 4.02522 0
M  V30 5941 C 578.732 -3.23448 3.03144 0
M  V30 5942 H 575.952 -0.371527 0.558756 0
M  V30 5943 H 578.496 -0.543082 1.97157 0
M  V30 5944 H 576.651 -2.97294 2.48384 0
M  V30 5945 H 577.065 -2.45357 4.63573 0
M  V30 5946 H 578.539 -3.96669 3.83872 0
M  V30 5947 H 579.016 -3.83094 2.14793 0
M  V30 5948 H 579.622 -2.64702 3.32886 0
M  V30 5949 N 577.937 -1.40673 -0.710563 0
M  V30 5950 C 579.183 -1.39428 -1.47267 0
M  V30 5951 C 579.516 0.00182129 -1.942 0
M  V30 5952 O 578.791 0.971387 -1.68506 0
M  V30 5953 C 579.074 -2.38812 -2.6952 0
M  V30 5954 C 578.927 -3.87467 -2.28449 0
M  V30 5955 C 580.246 -2.3566 -3.71689 0
M  V30 5956 H 577.365 -0.507768 -0.534173 0
M  V30 5957 H 580.007 -1.71843 -0.810547 0
M  V30 5958 H 578.157 -2.113 -3.26013 0
M  V30 5959 H 579.829 -4.25825 -1.77399 0
M  V30 5960 H 578.072 -4.03058 -1.60395 0
M  V30 5961 H 578.743 -4.5253 -3.16103 0
M  V30 5962 H 581.219 -2.6004 -3.24836 0
M  V30 5963 H 580.095 -3.07237 -4.54859 0
M  V30 5964 H 580.356 -1.36996 -4.20339 0
M  V30 5965 N 579.415 0.9433 -1.26252 0
M  V30 5966 C 580.663 1.68592 -1.11451 0
M  V30 5967 C 580.984 1.91957 0.343123 0
M  V30 5968 O 580.254 1.51475 1.24226 0
M  V30 5969 H 578.834 0.624789 -0.409448 0
M  V30 5970 H 581.496 1.13351 -1.58548 0
M  V30 5971 H 580.592 2.66054 -1.63162 0
M  V30 5972 N 580.893 1.08022 1.14757 0
M  V30 5973 C 581.826 0.650738 2.18725 0
M  V30 5974 C 582.804 -0.335496 1.59101 0
M  V30 5975 O 583.988 -0.240295 1.86962 0
M  V30 5976 C 581.115 -0.0434377 3.38672 0
M  V30 5977 C 580.161 0.90232 4.16846 0
M  V30 5978 S 580.994 2.40693 4.78359 0
M  V30 5979 C 582.15 1.72475 6.01667 0
M  V30 5980 H 582.383 1.53152 2.54817 0
M  V30 5981 H 579.916 0.894823 1.25826 0
M  V30 5982 H 581.874 -0.437684 4.0816 0
M  V30 5983 H 580.535 -0.900659 3.0091 0
M  V30 5984 H 579.728 0.363445 5.02688 0
M  V30 5985 H 579.33 1.23728 3.52941 0
M  V30 5986 H 581.622 1.0404 6.69464 0
M  V30 5987 H 582.565 2.56175 6.60136 0
M  V30 5988 H 582.973 1.19979 5.51602 0
M  V30 5989 N 582.371 -1.3172 0.865308 0
M  V30 5990 C 583.619 -1.96487 0.472995 0
M  V30 5991 C 583.94 -1.68761 -0.976975 0
M  V30 5992 O 583.21 -1.00051 -1.68424 0
M  V30 5993 H 581.79 -0.726947 0.171922 0
M  V30 5994 H 584.452 -1.60612 1.10407 0
M  V30 5995 H 583.548 -3.0574 0.62687 0
M  V30 5996 N 583.85 -0.624285 -1.44708 0
M  V30 5997 C 585.075 -0.131171 -2.06985 0
M  V30 5998 C 585.5 1.18234 -1.46295 0
M  V30 5999 O 584.858 1.72375 -0.561842 0
M  V30 6000 C 584.906 -0.0226724 -3.60593 0
M  V30 6001 O 584.01 1.02314 -3.99507 0
M  V30 6002 H 583.351 -0.0816556 -0.65896 0
M  V30 6003 H 585.88 -0.859027 -1.85693 0
M  V30 6004 H 585.891 0.170138 -4.07645 0
M  V30 6005 H 584.566 -0.981685 -4.04148 0
M  V30 6006 H 583.143 0.805452 -3.64097 0
M  V30 6007 N 585.328 1.53329 -0.364422 0
M  V30 6008 C 586.739 1.86345 0.115039 0
M  V30 6009 C 587.09 1.28505 1.4826 0
M  V30 6010 O 586.215 0.606639 2.07723 0
M  V30 6011 C 586.81 3.38114 0.215522 0
M  V30 6012 C 585.369 3.70932 0.639237 0
M  V30 6013 C 584.516 2.76471 -0.214261 0
M  V30 6014 H 587.467 1.47593 -0.583258 0
M  V30 6015 H 587.488 3.66031 1.0393 0
M  V30 6016 H 587 3.80182 -0.779948 0
M  V30 6017 H 585.101 3.3442 1.64298 0
M  V30 6018 H 585.214 4.77302 0.41465 0
M  V30 6019 H 583.578 2.52724 0.316678 0
M  V30 6020 H 584.361 3.21373 -1.20725 0
M  V30 6021 N 586.806 0.0935595 1.57322 0
M  V30 6022 C 588.053 -0.570509 1.94297 0
M  V30 6023 C 588.381 -1.68286 0.97519 0
M  V30 6024 O 587.636 -1.95699 -0.00548655 0
M  V30 6025 C 587.935 -1.16692 3.37813 0
M  V30 6026 C 587.601 -0.178509 4.50547 0
M  V30 6027 C 586.263 0.0933475 4.81109 0
M  V30 6028 C 588.615 0.496472 5.1883 0
M  V30 6029 C 585.943 1.0469 5.77284 0
M  V30 6030 C 588.295 1.43849 6.16028 0
M  V30 6031 C 586.959 1.71859 6.44997 0
M  V30 6032 H 586.229 -0.208764 0.710984 0
M  V30 6033 H 588.876 0.169066 1.90752 0
M  V30 6034 H 587.181 -1.98271 3.37929 0
M  V30 6035 H 588.878 -1.6884 3.63722 0
M  V30 6036 H 585.468 -0.400584 4.26724 0
M  V30 6037 H 589.652 0.299584 4.95395 0
M  V30 6038 H 584.908 1.27094 5.98044 0
M  V30 6039 H 589.082 1.96734 6.68034 0
M  V30 6040 H 586.709 2.45906 7.19329 0
M  V30 6041 N 588.284 -1.56567 -0.180126 0
M  V30 6042 C 589.53 -1.82658 -0.894859 0
M  V30 6043 C 589.885 -0.672826 -1.80252 0
M  V30 6044 O 589.178 0.331227 -1.88715 0
M  V30 6045 C 589.372 -3.1252 -1.73395 0
M  V30 6046 C 589.201 -4.40417 -0.909028 0
M  V30 6047 C 587.971 -5.01872 -0.587562 0
M  V30 6048 C 590.169 -5.13669 -0.254698 0
M  V30 6049 N 588.151 -6.13373 0.254428 0
M  V30 6050 C 589.522 -6.18373 0.448837 0
M  V30 6051 C 591.577 -4.97603 -0.171958 0
M  V30 6052 C 590.28 -7.08753 1.22725 0
M  V30 6053 C 592.306 -5.88418 0.593101 0
M  V30 6054 C 591.668 -6.92579 1.28503 0
M  V30 6055 H 587.767 -0.719493 -0.306356 0
M  V30 6056 H 590.351 -1.94021 -0.16247 0
M  V30 6057 H 588.522 -3.02365 -2.43783 0
M  V30 6058 H 590.254 -3.2664 -2.38931 0
M  V30 6059 H 587.009 -4.64666 -0.915557 0
M  V30 6060 H 587.433 -6.73721 0.665474 0
M  V30 6061 H 592.075 -4.17089 -0.692555 0
M  V30 6062 H 589.793 -7.88718 1.75923 0
M  V30 6063 H 593.379 -5.78059 0.658674 0
M  V30 6064 H 592.259 -7.61638 1.86754 0
M  V30 6065 N 589.762 0.448376 -1.51087 0
M  V30 6066 C 591.01 1.19635 -1.62886 0
M  V30 6067 C 591.331 1.91977 -0.342024 0
M  V30 6068 O 590.601 1.85094 0.641636 0
M  V30 6069 H 589.181 0.444598 -0.600285 0
M  V30 6070 H 591.843 0.515138 -1.87969 0
M  V30 6071 H 590.939 1.93194 -2.45117 0
M  V30 6072 N 591.24 1.41047 0.703093 0
M  V30 6073 C 592.468 1.4334 1.49202 0
M  V30 6074 C 592.883 0.0365596 1.88765 0
M  V30 6075 O 592.24 -0.942419 1.56284 0
M  V30 6076 C 592.291 2.33538 2.75939 0
M  V30 6077 O 592.012 3.67786 2.38045 0
M  V30 6078 C 593.513 2.44555 3.6974 0
M  V30 6079 H 590.733 0.488472 0.460039 0
M  V30 6080 H 593.277 1.85245 0.86629 0
M  V30 6081 H 591.432 1.94962 3.34766 0
M  V30 6082 H 591.846 4.15816 3.19683 0
M  V30 6083 H 593.32 3.11849 4.55471 0
M  V30 6084 H 593.797 1.47447 4.1371 0
M  V30 6085 H 594.403 2.83735 3.16819 0
M  V30 6086 N 592.718 -0.936591 1.26751 0
M  V30 6087 C 593.65 -2.03991 1.045 0
M  V30 6088 C 594.663 -1.628 0.00394261 0
M  V30 6089 O 595.852 -1.76817 0.244526 0
M  V30 6090 C 592.952 -3.34218 0.561403 0
M  V30 6091 C 592.125 -4.04151 1.67274 0
M  V30 6092 C 591.184 -5.12651 1.1864 0
M  V30 6093 O 590.21 -5.37104 1.88437 0
M  V30 6094 N 591.412 -5.80488 0.037278 0
M  V30 6095 H 594.177 -2.23644 1.99508 0
M  V30 6096 H 591.738 -1.10638 1.18198 0
M  V30 6097 H 593.73 -4.04101 0.220136 0
M  V30 6098 H 592.3 -3.11203 -0.295211 0
M  V30 6099 H 591.52 -3.28121 2.18472 0
M  V30 6100 H 592.808 -4.47626 2.41885 0
M  V30 6101 H 592.206 -5.63064 -0.545494 0
M  V30 6102 H 590.763 -6.5134 -0.244877 0
M  V30 6103 N 594.196 -1.08629 -1.14182 0
M  V30 6104 C 595.159 -0.722027 -2.1753 0
M  V30 6105 C 596.159 0.244305 -1.58933 0
M  V30 6106 O 597.349 0.0235545 -1.74184 0
M  V30 6107 C 594.481 -0.0663966 -3.40835 0
M  V30 6108 H 595.674 -1.63719 -2.51269 0
M  V30 6109 H 593.227 -0.884442 -1.28869 0
M  V30 6110 H 593.962 0.860389 -3.12678 0
M  V30 6111 H 593.747 -0.761598 -3.84632 0
M  V30 6112 H 595.237 0.173346 -4.1724 0
M  V30 6113 N 595.674 1.31259 -0.872281 0
M  V30 6114 C 596.914 1.98418 -0.490894 0
M  V30 6115 C 597.278 1.67429 0.939755 0
M  V30 6116 O 598.479 2.27818 1.42661 0
M  V30 6117 C 596.75 3.49583 -0.743408 0
M  V30 6118 S 598.309 4.36359 -0.462226 0
M  V30 6119 H 595.127 0.687005 -0.183151 0
M  V30 6120 H 597.729 1.59619 -1.12881 0
M  V30 6121 H 596.433 3.69627 -1.78338 0
M  V30 6122 H 595.964 3.93291 -0.0925758 0
M  V30 6123 H 597.979 4.91173 0.704525 0
M  V30 6124 N 597.152 0.631951 1.44375 0
M  V30 6125 C 598.102 -0.0943862 2.27805 0
M  V30 6126 C 599.086 -0.815359 1.38711 0
M  V30 6127 O 600.278 -0.701331 1.62513 0
M  V30 6128 C 597.407 -1.07472 3.26044 0
M  V30 6129 C 596.493 -0.353329 4.22626 0
M  V30 6130 N 596.884 0.618512 5.02004 0
M  V30 6131 C 595.182 -0.597662 4.41977 0
M  V30 6132 C 595.883 1.0448 5.7224 0
M  V30 6133 N 594.859 0.383413 5.42246 0
M  V30 6134 H 598.661 0.651672 2.86584 0
M  V30 6135 H 596.175 0.45752 1.55822 0
M  V30 6136 H 598.172 -1.60969 3.84571 0
M  V30 6137 H 596.832 -1.82107 2.68825 0
M  V30 6138 H 597.843 0.996356 5.08226 0
M  V30 6139 H 594.52 -1.32682 3.95856 0
M  V30 6140 H 595.91 1.84773 6.45994 0
M  V30 6141 N 598.631 -1.53133 0.372548 0
M  V30 6142 C 599.88 -2.00539 -0.216115 0
M  V30 6143 C 600.193 -1.26374 -1.49295 0
M  V30 6144 O 601.399 -1.64404 -2.16064 0
M  V30 6145 C 599.855 -3.57253 -0.435678 0
M  V30 6146 C 599.463 -4.40302 0.82693 0
M  V30 6147 C 601.207 -4.12995 -0.981618 0
M  V30 6148 C 599.114 -5.88583 0.576567 0
M  V30 6149 H 598.044 -0.749246 -0.084536 0
M  V30 6150 H 600.695 -1.76771 0.492364 0
M  V30 6151 H 599.077 -3.77202 -1.20559 0
M  V30 6152 H 600.251 -4.32124 1.60017 0
M  V30 6153 H 598.566 -3.95699 1.29659 0
M  V30 6154 H 601.163 -5.21418 -1.18436 0
M  V30 6155 H 601.506 -3.68027 -1.94581 0
M  V30 6156 H 602.039 -3.96871 -0.271696 0
M  V30 6157 H 598.778 -6.37841 1.51128 0
M  V30 6158 H 598.298 -5.99592 -0.158047 0
M  V30 6159 H 599.977 -6.46676 0.204722 0
M  V30 6160 N 600.109 -0.101901 -1.5727 0
M  V30 6161 C 601.337 0.568392 -1.98939 0
M  V30 6162 C 601.752 1.61301 -0.981194 0
M  V30 6163 O 601.109 1.82478 0.0282869 0
M  V30 6164 C 601.16 1.20997 -3.40649 0
M  V30 6165 O 600.881 0.207129 -4.3761 0
M  V30 6166 C 602.382 1.96523 -3.97358 0
M  V30 6167 H 599.602 0.15186 -0.65359 0
M  V30 6168 H 602.146 -0.183198 -2.03678 0
M  V30 6169 H 600.301 1.91245 -3.36904 0
M  V30 6170 H 600.715 0.671071 -5.20189 0
M  V30 6171 H 602.189 2.36764 -4.98645 0
M  V30 6172 H 602.666 2.83376 -3.35552 0
M  V30 6173 H 603.272 1.31076 -4.04598 0
M  V30 6174 N 601.587 1.56661 0.17182 0
M  V30 6175 C 602.817 1.85831 0.902804 0
M  V30 6176 C 603.225 0.685157 1.76358 0
M  V30 6177 O 602.568 -0.354947 1.80238 0
M  V30 6178 C 602.63 3.09406 1.83053 0
M  V30 6179 C 602.294 4.4231 1.1494 0
M  V30 6180 C 603.291 5.17342 0.515104 0
M  V30 6181 C 600.976 4.89045 1.14631 0
M  V30 6182 C 602.97 6.37299 -0.113194 0
M  V30 6183 C 600.657 6.08933 0.514184 0
M  V30 6184 C 601.655 6.82904 -0.114463 0
M  V30 6185 O 601.343 8.00518 -0.736622 0
M  V30 6186 H 601.075 0.620715 0.267748 0
M  V30 6187 H 603.629 2.04637 0.176918 0
M  V30 6188 H 601.859 2.86544 2.59672 0
M  V30 6189 H 603.548 3.25027 2.4313 0
M  V30 6190 H 604.314 4.82317 0.509474 0
M  V30 6191 H 600.193 4.31409 1.62502 0
M  V30 6192 H 603.737 6.94976 -0.604477 0
M  V30 6193 H 599.634 6.43423 0.517395 0
M  V30 6194 H 600.402 8.16027 -0.635822 0
M  V30 6195 N 603.065 -0.440357 1.51323 0
M  V30 6196 C 604.028 -1.51679 1.71832 0
M  V30 6197 C 605.028 -1.49648 0.588386 0
M  V30 6198 O 606.218 -1.51724 0.855891 0
M  V30 6199 C 603.35 -2.91228 1.77199 0
M  V30 6200 H 604.543 -1.34799 2.67898 0
M  V30 6201 H 602.096 -0.66883 1.41267 0
M  V30 6202 H 602.831 -3.13516 0.829363 0
M  V30 6203 H 602.616 -2.94107 2.59314 0
M  V30 6204 H 604.106 -3.69321 1.94915 0
M  V30 6205 N 604.543 -1.41418 -0.695603 0
M  V30 6206 C 605.476 -1.3768 -1.81988 0
M  V30 6207 C 606.454 -0.244061 -1.60758 0
M  V30 6208 O 607.638 -0.430965 -1.83507 0
M  V30 6209 C 604.765 -1.1476 -3.18666 0
M  V30 6210 C 603.811 -2.30752 -3.58686 0
M  V30 6211 S 604.644 -3.9323 -3.63498 0
M  V30 6212 C 605.8 -3.72613 -5.02902 0
M  V30 6213 H 606.033 -2.32822 -1.84882 0
M  V30 6214 H 603.566 -1.27942 -0.86431 0
M  V30 6215 H 605.524 -1.02223 -3.97569 0
M  V30 6216 H 604.185 -0.212385 -3.13381 0
M  V30 6217 H 603.378 -2.10409 -4.57978 0
M  V30 6218 H 602.98 -2.39696 -2.87092 0
M  V30 6219 H 605.272 -3.32317 -5.904 0
M  V30 6220 H 606.215 -4.71507 -5.28286 0
M  V30 6221 H 606.623 -3.0589 -4.74438 0
M  V30 6222 N 606.021 0.929856 -1.27246 0
M  V30 6223 C 607.246 1.71674 -1.16374 0
M  V30 6224 C 607.671 1.86064 0.276024 0
M  V30 6225 O 607.029 1.3591 1.19992 0
M  V30 6226 C 607.077 3.09526 -1.85003 0
M  V30 6227 O 606.181 3.96142 -1.14653 0
M  V30 6228 H 605.522 0.52629 -0.404863 0
M  V30 6229 H 608.052 1.16381 -1.68276 0
M  V30 6230 H 608.062 3.59852 -1.92276 0
M  V30 6231 H 606.737 2.98369 -2.89739 0
M  V30 6232 H 605.314 3.54584 -1.15433 0
M  V30 6233 N 607.499 1.09233 1.13605 0
M  V30 6234 C 608.915 0.82163 1.36826 0
M  V30 6235 C 609.115 -0.565021 1.93416 0
M  V30 6236 O 608.171 -1.32026 2.15234 0
M  V30 6237 C 609.484 1.91124 2.32147 0
M  V30 6238 C 611.032 1.93824 2.45767 0
M  V30 6239 C 611.507 3.01923 3.44393 0
M  V30 6240 N 612.998 3.01149 3.51942 0
M  V30 6241 C 613.733 3.81434 4.2813 0
M  V30 6242 N 613.229 4.71621 5.07489 0
M  V30 6243 N 615.022 3.69702 4.23411 0
M  V30 6244 H 607.173 1.98633 0.752234 0
M  V30 6245 H 609.436 0.862482 0.393482 0
M  V30 6246 H 609.142 2.90862 1.97717 0
M  V30 6247 H 609.016 1.78777 3.32142 0
M  V30 6248 H 611.403 0.94726 2.79483 0
M  V30 6249 H 611.484 2.10248 1.45703 0
M  V30 6250 H 611.128 4.01232 3.11408 0
M  V30 6251 H 611.058 2.82742 4.44257 0
M  V30 6252 H 613.549 2.35789 2.95317 0
M  V30 6253 H 613.862 5.29468 5.62924 0
M  V30 6254 H 612.207 4.75658 5.06729 0
M  V30 6255 H 615.398 2.98606 3.60489 0
M  V30 6256 H 615.571 4.32509 4.82535 0
M  V30 6257 N 608.977 -1.30795 0.87923 0
M  V30 6258 C 610.223 -1.96653 0.495519 0
M  V30 6259 C 610.556 -1.69282 -0.951703 0
M  V30 6260 O 609.831 -0.994374 -1.6716 0
M  V30 6261 C 610.114 -3.51898 0.764174 0
M  V30 6262 C 609.967 -3.88808 2.2616 0
M  V30 6263 C 611.286 -4.39462 0.236825 0
M  V30 6264 H 608.405 -0.7143 0.181507 0
M  V30 6265 H 611.047 -1.54765 1.10217 0
M  V30 6266 H 609.197 -3.87709 0.247841 0
M  V30 6267 H 610.869 -3.63051 2.8459 0
M  V30 6268 H 609.112 -3.37082 2.73053 0
M  V30 6269 H 609.783 -4.97086 2.4002 0
M  V30 6270 H 612.259 -4.10528 0.678683 0
M  V30 6271 H 611.135 -5.47018 0.454176 0
M  V30 6272 H 611.396 -4.33621 -0.861683 0
M  V30 6273 N 610.455 -0.639598 -1.44038 0
M  V30 6274 C 611.418 0.0506628 -2.29144 0
M  V30 6275 C 612.418 0.764001 -1.41491 0
M  V30 6276 O 613.608 0.607309 -1.63271 0
M  V30 6277 C 610.74 1.0824 -3.2326 0
M  V30 6278 H 611.933 -0.697987 -2.91664 0
M  V30 6279 H 609.486 -0.400146 -1.51091 0
M  V30 6280 H 610.221 1.86075 -2.65606 0
M  V30 6281 H 610.006 0.574725 -3.87865 0
M  V30 6282 H 611.496 1.56487 -3.87171 0
M  V30 6283 N 611.933 1.52934 -0.380664 0
M  V30 6284 C 613.179 2.02443 0.197089 0
M  V30 6285 C 613.534 1.26249 1.45186 0
M  V30 6286 O 612.827 0.351964 1.8834 0
M  V30 6287 C 613.021 3.5349 0.527199 0
M  V30 6288 C 612.85 4.44312 -0.694027 0
M  V30 6289 C 611.62 4.90582 -1.21068 0
M  V30 6290 C 613.818 4.8995 -1.56377 0
M  V30 6291 N 611.8 5.65451 -2.39036 0
M  V30 6292 C 613.171 5.63313 -2.58995 0
M  V30 6293 C 615.226 4.72002 -1.58488 0
M  V30 6294 C 613.929 6.20635 -3.63599 0
M  V30 6295 C 615.955 5.30201 -2.61995 0
M  V30 6296 C 615.317 6.03463 -3.63335 0
M  V30 6297 H 611.416 0.781241 0.0344357 0
M  V30 6298 H 614 1.87387 -0.528609 0
M  V30 6299 H 612.171 3.68677 1.22196 0
M  V30 6300 H 613.903 3.89707 1.09135 0
M  V30 6301 H 610.658 4.67249 -0.772995 0
M  V30 6302 H 611.082 6.07541 -2.98701 0
M  V30 6303 H 615.724 4.14873 -0.814891 0
M  V30 6304 H 613.442 6.76852 -4.41472 0
M  V30 6305 H 617.028 5.182 -2.645 0
M  V30 6306 H 615.908 6.47693 -4.42113 0
M  V30 6307 N 613.412 0.11024 1.57214 0
M  V30 6308 C 614.322 -0.857077 2.18383 0
M  V30 6309 C 615.338 -1.29915 1.1575 0
M  V30 6310 O 616.514 -1.36394 1.48184 0
M  V30 6311 C 613.579 -2.09264 2.76423 0
M  V30 6312 C 612.64 -1.70333 3.94063 0
M  V30 6313 C 611.873 -2.87999 4.49324 0
M  V30 6314 O 612.096 -4.0317 4.03497 0
M  V30 6315 O 611.03 -2.6559 5.40135 0
M  V30 6316 H 614.856 -0.366561 3.0148 0
M  V30 6317 H 612.441 -0.114914 1.48957 0
M  V30 6318 H 614.323 -2.81644 3.13456 0
M  V30 6319 H 612.998 -2.57339 1.96363 0
M  V30 6320 H 611.905 -0.950864 3.61814 0
M  V30 6321 H 613.238 -1.27007 4.75531 0
M  V30 6322 N 614.89 -1.56749 -0.16351 0
M  V30 6323 C 615.853 -1.96121 -1.18613 0
M  V30 6324 C 616.853 -0.845765 -1.36761 0
M  V30 6325 O 618.043 -1.11268 -1.34033 0
M  V30 6326 C 615.175 -2.26282 -2.54969 0
M  V30 6327 H 616.368 -2.87639 -0.848764 0
M  V30 6328 H 613.921 -1.50928 -0.406251 0
M  V30 6329 H 614.656 -1.37504 -2.93706 0
M  V30 6330 H 614.441 -3.07595 -2.43162 0
M  V30 6331 H 615.931 -2.57638 -3.28653 0
M  V30 6332 N 616.368 0.432326 -1.51554 0
M  V30 6333 C 617.298 1.53242 -1.76179 0
M  V30 6334 C 618.279 1.58717 -0.611801 0
M  V30 6335 O 619.464 1.74364 -0.855033 0
M  V30 6336 C 616.594 2.91278 -1.89141 0
M  V30 6337 C 615.548 3.00663 -3.04608 0
M  V30 6338 C 614.874 4.40728 -3.02759 0
M  V30 6339 C 616.174 2.74281 -4.44485 0
M  V30 6340 H 617.868 1.32886 -2.68294 0
M  V30 6341 H 615.414 0.637841 -1.29103 0
M  V30 6342 H 617.367 3.68203 -2.04951 0
M  V30 6343 H 616.091 3.12877 -0.936785 0
M  V30 6344 H 614.75 2.26179 -2.88511 0
M  V30 6345 H 614.398 4.59301 -2.05065 0
M  V30 6346 H 614.098 4.47936 -3.80299 0
M  V30 6347 H 615.622 5.19619 -3.20669 0
M  V30 6348 H 617.036 3.40936 -4.60907 0
M  V30 6349 H 615.433 2.92893 -5.23769 0
M  V30 6350 H 616.503 1.69856 -4.54177 0
M  V30 6351 N 617.846 1.41785 0.688094 0
M  V30 6352 C 619.262 1.24419 0.999608 0
M  V30 6353 C 619.462 0.138868 2.01021 0
M  V30 6354 O 618.518 -0.494283 2.47615 0
M  V30 6355 C 619.831 2.59625 1.51709 0
M  V30 6356 C 621.379 2.66869 1.63554 0
M  V30 6357 C 621.854 4.0241 2.18702 0
M  V30 6358 N 623.345 4.04295 2.26053 0
M  V30 6359 C 624.08 5.05977 2.69768 0
M  V30 6360 N 623.576 6.18047 3.13033 0
M  V30 6361 N 625.369 4.93336 2.69398 0
M  V30 6362 H 617.52 2.12392 0.0187427 0
M  V30 6363 H 619.783 0.945347 0.0708673 0
M  V30 6364 H 619.489 3.41297 0.849059 0
M  V30 6365 H 619.363 2.82628 2.49803 0
M  V30 6366 H 621.75 1.8555 2.29467 0
M  V30 6367 H 621.831 2.47668 0.639857 0
M  V30 6368 H 621.475 4.8418 1.53402 0
M  V30 6369 H 621.405 4.18955 3.19037 0
M  V30 6370 H 623.896 3.23383 1.9553 0
M  V30 6371 H 624.209 6.91498 3.45038 0
M  V30 6372 H 622.554 6.21572 3.10923 0
M  V30 6373 H 625.745 4.04865 2.34952 0
M  V30 6374 H 625.918 5.72717 3.03148 0
M  V30 6375 N 619.324 -0.923095 1.27737 0
M  V30 6376 C 620.74 -1.19985 1.05241 0
M  V30 6377 C 620.94 -2.00391 -0.21113 0
M  V30 6378 O 619.996 -2.35324 -0.915366 0
M  V30 6379 C 621.309 -1.94352 2.29451 0
M  V30 6380 C 622.857 -2.07273 2.34536 0
M  V30 6381 C 623.332 -2.85046 3.58487 0
M  V30 6382 N 624.823 -2.92612 3.59072 0
M  V30 6383 C 625.558 -3.53266 4.51654 0
M  V30 6384 N 625.054 -4.15274 5.54545 0
M  V30 6385 N 626.847 -3.50714 4.39268 0
M  V30 6386 H 618.998 -0.386042 2.08862 0
M  V30 6387 H 621.261 -0.233407 0.918817 0
M  V30 6388 H 620.967 -1.42692 3.21453 0
M  V30 6389 H 620.841 -2.94947 2.3513 0
M  V30 6390 H 623.228 -2.58117 1.43037 0
M  V30 6391 H 623.309 -1.05884 2.32857 0
M  V30 6392 H 622.953 -2.34884 4.50324 0
M  V30 6393 H 622.883 -3.8673 3.57418 0
M  V30 6394 H 625.374 -2.48547 2.84663 0
M  V30 6395 H 625.687 -4.59507 6.21348 0
M  V30 6396 H 624.032 -4.13806 5.58382 0
M  V30 6397 H 627.223 -3.01475 3.58093 0
M  V30 6398 H 627.396 -3.97693 5.1161 0
M  V30 6399 N 620.802 -1.09834 -1.13024 0
M  V30 6400 C 621.734 -0.699379 -2.18269 0
M  V30 6401 C 622.747 0.260841 -1.60697 0
M  V30 6402 O 623.936 0.0462538 -1.7844 0
M  V30 6403 C 621.036 -0.0104537 -3.38898 0
M  V30 6404 C 620.209 -0.993275 -4.25973 0
M  V30 6405 C 619.268 -0.336982 -5.2512 0
M  V30 6406 O 618.294 -0.985892 -5.60597 0
M  V30 6407 N 619.496 0.90716 -5.73368 0
M  V30 6408 H 622.261 -1.60486 -2.5311 0
M  V30 6409 H 619.822 -0.986337 -1.28386 0
M  V30 6410 H 621.814 0.43991 -4.02302 0
M  V30 6411 H 620.384 0.797335 -3.0226 0
M  V30 6412 H 619.604 -1.62208 -3.5928 0
M  V30 6413 H 620.892 -1.65876 -4.81002 0
M  V30 6414 H 620.29 1.45384 -5.46699 0
M  V30 6415 H 618.847 1.30077 -6.38689 0
M  V30 6416 N 622.28 1.30327 -0.886154 0
M  V30 6417 C 623.21 2.30549 -0.370028 0
M  V30 6418 C 624.191 1.61039 0.547751 0
M  V30 6419 O 625.376 1.8864 0.461353 0
M  V30 6420 C 622.506 3.44808 0.415275 0
M  V30 6421 C 621.46 4.26024 -0.41085 0
M  V30 6422 C 620.786 5.32347 0.501128 0
M  V30 6423 C 622.086 4.95433 -1.65359 0
M  V30 6424 H 623.78 2.73969 -1.20754 0
M  V30 6425 H 621.326 1.3171 -0.582097 0
M  V30 6426 H 623.279 4.13986 0.78699 0
M  V30 6427 H 622.003 3.00197 1.28644 0
M  V30 6428 H 620.662 3.58535 -0.764719 0
M  V30 6429 H 620.31 4.83982 1.37004 0
M  V30 6430 H 620.01 5.87581 -0.0478356 0
M  V30 6431 H 621.534 6.0438 0.869333 0
M  V30 6432 H 622.948 5.5712 -1.35239 0
M  V30 6433 H 621.345 5.60537 -2.14284 0
M  V30 6434 H 622.415 4.21493 -2.39733 0
M  V30 6435 N 623.758 0.647228 1.43697 0
M  V30 6436 C 624.691 -0.097646 2.27991 0
M  V30 6437 C 625.669 -0.83571 1.3948 0
M  V30 6438 O 626.853 -0.836509 1.68922 0
M  V30 6439 C 623.98 -1.14484 3.18765 0
M  V30 6440 C 623.026 -0.505503 4.23494 0
M  V30 6441 S 623.859 0.716471 5.30685 0
M  V30 6442 C 625.015 -0.330339 6.25028 0
M  V30 6443 H 625.248 0.617417 2.90818 0
M  V30 6444 H 622.781 0.435881 1.4812 0
M  V30 6445 H 624.739 -1.74403 3.7161 0
M  V30 6446 H 623.4 -1.83219 2.55127 0
M  V30 6447 H 622.593 -1.29473 4.87086 0
M  V30 6448 H 622.195 0.0194377 3.73995 0
M  V30 6449 H 624.487 -1.19828 6.66819 0
M  V30 6450 H 625.43 0.270409 7.07583 0
M  V30 6451 H 625.838 -0.663459 5.60588 0
M  V30 6452 N 625.236 -1.5273 0.388769 0
M  V30 6453 C 626.199 -2.25043 -0.434544 0
M  V30 6454 C 627.199 -1.26661 -0.990644 0
M  V30 6455 O 628.389 -1.50762 -0.872731 0
M  V30 6456 C 625.521 -3.00507 -1.60961 0
M  V30 6457 H 626.714 -2.99242 0.198549 0
M  V30 6458 H 624.267 -1.55664 0.140875 0
M  V30 6459 H 625.002 -2.30607 -2.28015 0
M  V30 6460 H 624.787 -3.72716 -1.21757 0
M  V30 6461 H 626.277 -3.55413 -2.19251 0
M  V30 6462 N 626.714 -0.118576 -1.57153 0
M  V30 6463 C 627.677 0.817464 -2.14127 0
M  V30 6464 C 628.677 1.1949 -1.07604 0
M  V30 6465 O 629.867 1.12048 -1.33382 0
M  V30 6466 C 626.999 2.10541 -2.68115 0
M  V30 6467 H 628.192 0.322339 -2.98163 0
M  V30 6468 H 625.745 0.130655 -1.55753 0
M  V30 6469 H 626.48 2.64485 -1.87665 0
M  V30 6470 H 626.265 1.84425 -3.4602 0
M  V30 6471 H 627.755 2.77453 -3.12105 0
M  V30 6472 N 628.193 1.56834 0.155195 0
M  V30 6473 C 629.103 2.009 1.21146 0
M  V30 6474 C 630.119 0.923029 1.475 0
M  V30 6475 O 631.295 1.23189 1.59331 0
M  V30 6476 C 628.36 2.37378 2.52691 0
M  V30 6477 C 627.421 3.59883 2.34057 0
M  V30 6478 C 626.654 3.94612 3.59329 0
M  V30 6479 O 626.877 3.30104 4.65175 0
M  V30 6480 O 625.811 4.87895 3.52479 0
M  V30 6481 H 629.637 2.9105 0.867371 0
M  V30 6482 H 627.222 1.44916 0.363298 0
M  V30 6483 H 629.104 2.61737 3.3026 0
M  V30 6484 H 627.779 1.50385 2.86646 0
M  V30 6485 H 626.686 3.40722 1.54465 0
M  V30 6486 H 628.019 4.47468 2.0502 0
M  V30 6487 N 629.671 -0.424282 1.51781 0
M  V30 6488 C 630.603 -1.53457 1.70246 0
M  V30 6489 C 631.616 -1.52004 0.582967 0
M  V30 6490 O 632.805 -1.56544 0.857683 0
M  V30 6491 C 629.905 -2.92368 1.71389 0
M  V30 6492 C 629.078 -3.1818 3.00133 0
M  V30 6493 C 628.137 -4.36884 2.9329 0
M  V30 6494 O 627.163 -4.34901 3.67219 0
M  V30 6495 N 628.365 -5.4117 2.10036 0
M  V30 6496 H 631.13 -1.38017 2.66029 0
M  V30 6497 H 628.691 -0.613394 1.4983 0
M  V30 6498 H 630.683 -3.6982 1.64362 0
M  V30 6499 H 629.253 -3.0134 0.831449 0
M  V30 6500 H 628.473 -2.28908 3.20928 0
M  V30 6501 H 629.761 -3.32261 3.85331 0
M  V30 6502 H 629.159 -5.45623 1.49373 0
M  V30 6503 H 627.716 -6.17425 2.08878 0
M  V30 6504 N 631.149 -1.42148 -0.680565 0
M  V30 6505 C 632.059 -1.47565 -1.82378 0
M  V30 6506 C 633.075 -0.36489 -1.70131 0
M  V30 6507 O 634.251 -0.614916 -1.91783 0
M  V30 6508 C 631.316 -1.37013 -3.18478 0
M  V30 6509 C 630.377 -2.58532 -3.42724 0
M  V30 6510 C 629.61 -2.48473 -4.72331 0
M  V30 6511 O 629.833 -1.51745 -5.49845 0
M  V30 6512 O 628.767 -3.38503 -4.97694 0
M  V30 6513 H 632.593 -2.44045 -1.80764 0
M  V30 6514 H 630.178 -1.23849 -0.835569 0
M  V30 6515 H 632.06 -1.33468 -3.99705 0
M  V30 6516 H 630.735 -0.436552 -3.20743 0
M  V30 6517 H 629.642 -2.67652 -2.61368 0
M  V30 6518 H 630.975 -3.50769 -3.45286 0
M  V30 6519 N 632.627 0.916307 -1.28225 0
M  V30 6520 C 633.904 1.64429 -1.05936 0
M  V30 6521 C 634.284 2.07234 0.402139 0
M  V30 6522 O 633.632 1.81535 1.3877 0
M  V30 6523 C 633.842 2.83773 -2.03159 0
M  V30 6524 C 635.19 3.54852 -2.33164 0
M  V30 6525 O 636.214 2.93918 -2.01223 0
M  V30 6526 O 635.073 4.64663 -2.87664 0
M  V30 6527 H 632.167 0.721221 -0.404683 0
M  V30 6528 H 634.713 0.965838 -1.39534 0
M  V30 6529 H 633.485 2.49217 -3.01673 0
M  V30 6530 H 633.108 3.59333 -1.70192 0
M  V30 6531 N 634.105 1.10431 1.1244 0
M  V30 6532 C 635.382 0.758797 1.80282 0
M  V30 6533 C 635.762 -0.754727 1.97147 0
M  V30 6534 O 635.11 -1.68094 1.54779 0
M  V30 6535 C 635.32 1.50982 3.14651 0
M  V30 6536 C 636.668 1.68232 3.8985 0
M  V30 6537 O 637.692 1.47319 3.24308 0
M  V30 6538 O 636.551 2.02905 5.07437 0
M  V30 6539 H 633.645 0.273756 0.780376 0
M  V30 6540 H 636.191 1.20713 1.19275 0
M  V30 6541 H 634.963 2.53989 2.97666 0
M  V30 6542 H 634.586 1.05435 3.83366 0
M  V30 6543 N 635.583 -1.29855 0.893053 0
M  V30 6544 C 636.829 -1.96116 0.516349 0
M  V30 6545 C 637.162 -1.70281 -0.933695 0
M  V30 6546 O 636.437 -1.01205 -1.66096 0
M  V30 6547 C 636.72 -3.51068 0.801455 0
M  V30 6548 C 636.573 -3.86387 2.30272 0
M  V30 6549 C 637.892 -4.39186 0.283423 0
M  V30 6550 H 635.011 -0.712335 0.189072 0
M  V30 6551 H 637.653 -1.53587 1.11852 0
M  V30 6552 H 635.803 -3.87424 0.288949 0
M  V30 6553 H 637.475 -3.60012 2.88425 0
M  V30 6554 H 635.718 -3.34167 2.76613 0
M  V30 6555 H 636.389 -4.94512 2.45279 0
M  V30 6556 H 638.865 -4.09785 0.722187 0
M  V30 6557 H 637.741 -5.46505 0.512169 0
M  V30 6558 H 638.002 -4.34511 -0.815643 0
M  V30 6559 N 637.061 -0.65484 -1.43351 0
M  V30 6560 C 637.971 0.0363603 -2.34572 0
M  V30 6561 C 638.987 0.810432 -1.53974 0
M  V30 6562 O 640.163 0.757308 -1.86619 0
M  V30 6563 C 637.228 0.989733 -3.32273 0
M  V30 6564 C 636.289 0.212414 -4.28774 0
M  V30 6565 C 635.522 1.12038 -5.21808 0
M  V30 6566 O 635.745 2.35967 -5.19303 0
M  V30 6567 O 634.679 0.59191 -5.98982 0
M  V30 6568 H 638.505 -0.714527 -2.95175 0
M  V30 6569 H 636.09 -0.415029 -1.4352 0
M  V30 6570 H 637.972 1.53759 -3.92347 0
M  V30 6571 H 636.647 1.72082 -2.74171 0
M  V30 6572 H 635.554 -0.379062 -3.72175 0
M  V30 6573 H 636.887 -0.479138 -4.89862 0
M  V30 6574 N 638.539 1.52521 -0.396863 0
M  V30 6575 C 639.787 2.01274 0.182536 0
M  V30 6576 C 640.108 1.28485 1.46685 0
M  V30 6577 O 639.378 0.407134 1.91623 0
M  V30 6578 H 637.958 0.743671 0.0704442 0
M  V30 6579 H 640.62 1.87547 -0.530289 0
M  V30 6580 H 639.716 3.09687 0.387385 0
M  V30 6581 N 640.017 0.126909 1.57088 0
M  V30 6582 C 641.263 -0.529952 1.95753 0
M  V30 6583 C 641.596 -1.65823 1.01077 0
M  V30 6584 O 640.871 -1.94437 0.0494162 0
M  V30 6585 C 641.154 -1.05517 3.44294 0
M  V30 6586 C 641.007 0.0702253 4.49745 0
M  V30 6587 C 642.326 -1.9435 3.94862 0
M  V30 6588 H 639.445 -0.191168 0.711775 0
M  V30 6589 H 642.087 0.204071 1.88901 0
M  V30 6590 H 640.237 -1.68069 3.50264 0
M  V30 6591 H 641.909 0.705834 4.55868 0
M  V30 6592 H 640.152 0.732259 4.27575 0
M  V30 6593 H 640.823 -0.338642 5.5096 0
M  V30 6594 H 643.299 -1.41658 3.91244 0
M  V30 6595 H 642.175 -2.28015 4.993 0
M  V30 6596 H 642.436 -2.87299 3.36024 0
M  V30 6597 N 641.495 -1.56914 -0.146875 0
M  V30 6598 C 642.735 -1.85163 -0.86568 0
M  V30 6599 C 643.099 -0.711215 -1.78342 0
M  V30 6600 O 644.3 -0.874754 -2.54168 0
M  V30 6601 C 642.571 -3.18593 -1.61967 0
M  V30 6602 S 644.13 -3.68397 -2.38388 0
M  V30 6603 H 640.948 -0.6494 -0.289483 0
M  V30 6604 H 643.55 -1.95096 -0.125679 0
M  V30 6605 H 642.254 -3.99562 -0.93694 0
M  V30 6606 H 641.785 -3.11666 -2.40058 0
M  V30 6607 H 643.8 -3.37672 -3.63582 0
M  V30 6608 N 642.974 0.416227 -1.52004 0
M  V30 6609 C 643.921 1.50666 -1.74838 0
M  V30 6610 C 644.891 1.55245 -0.590599 0
M  V30 6611 O 646.076 1.71928 -0.827374 0
M  V30 6612 C 643.216 2.88185 -1.89851 0
M  V30 6613 C 642.329 2.92971 -3.17478 0
M  V30 6614 C 641.464 4.21745 -3.22962 0
M  V30 6615 C 640.503 4.20478 -4.4482 0
M  V30 6616 N 639.64 5.40811 -4.47736 0
M  V30 6617 H 644.48 1.30498 -2.67907 0
M  V30 6618 H 642.017 0.633568 -1.32757 0
M  V30 6619 H 643.975 3.68007 -1.96537 0
M  V30 6620 H 642.605 3.06865 -1.00169 0
M  V30 6621 H 641.657 2.05684 -3.19997 0
M  V30 6622 H 642.969 2.87899 -4.07328 0
M  V30 6623 H 642.123 5.09954 -3.28682 0
M  V30 6624 H 640.862 4.29503 -2.31038 0
M  V30 6625 H 639.867 3.30659 -4.39254 0
M  V30 6626 H 641.092 4.14366 -5.38031 0
M  V30 6627 H 639.038 5.4925 -3.58692 0
M  V30 6628 H 638.955 5.37705 -5.31422 0
M  V30 6629 H 640.223 6.30993 -4.57676 0
M  V30 6630 N 644.452 1.42507 0.673017 0
M  V30 6631 C 645.863 1.38347 1.25367 0
M  V30 6632 C 646.214 0.0776327 1.96046 0
M  V30 6633 O 645.339 -0.823571 2.00116 0
M  V30 6634 C 645.934 2.506 2.28002 0
M  V30 6635 C 644.493 2.49767 2.81591 0
M  V30 6636 C 643.64 2.293 1.55938 0
M  V30 6637 H 646.591 1.51695 0.466288 0
M  V30 6638 H 646.612 2.20953 3.09774 0
M  V30 6639 H 646.124 3.45627 1.76532 0
M  V30 6640 H 644.225 1.58563 3.37177 0
M  V30 6641 H 644.338 3.46867 3.30485 0
M  V30 6642 H 642.702 1.77594 1.82572 0
M  V30 6643 H 643.485 3.26385 1.06431 0
M  V30 6644 N 645.93 -0.909495 1.28709 0
M  V30 6645 C 646.86 -2.0291 1.15542 0
M  V30 6646 C 647.841 -1.7002 0.0521017 0
M  V30 6647 O 649.026 -1.92835 0.229849 0
M  V30 6648 C 646.156 -3.37458 0.820935 0
M  V30 6649 C 645.11 -3.84524 1.87949 0
M  V30 6650 C 644.436 -5.16086 1.39854 0
M  V30 6651 C 645.736 -4.05918 3.28676 0
M  V30 6652 H 647.43 -2.14183 2.09203 0
M  V30 6653 H 644.976 -1.02913 1.00722 0
M  V30 6654 H 646.929 -4.1528 0.715571 0
M  V30 6655 H 645.653 -3.26249 -0.151374 0
M  V30 6656 H 644.312 -3.08911 1.97408 0
M  V30 6657 H 643.96 -5.01284 0.41518 0
M  V30 6658 H 643.66 -5.48547 2.1064 0
M  V30 6659 H 645.184 -5.96459 1.30649 0
M  V30 6660 H 646.598 -4.74252 3.22115 0
M  V30 6661 H 644.995 -4.49717 3.97334 0
M  V30 6662 H 646.065 -3.10583 3.72379 0
M  V30 6663 N 647.408 -1.11026 -1.11852 0
M  V30 6664 C 648.633 -0.879064 -1.87849 0
M  V30 6665 C 649.058 0.565406 -1.79401 0
M  V30 6666 O 648.416 1.39886 -1.15333 0
M  V30 6667 C 648.464 -1.33985 -3.34784 0
M  V30 6668 O 647.568 -0.508803 -4.09249 0
M  V30 6669 H 646.909 -0.316992 -0.583448 0
M  V30 6670 H 649.439 -1.47863 -1.41413 0
M  V30 6671 H 649.449 -1.33248 -3.85628 0
M  V30 6672 H 648.124 -2.39172 -3.40249 0
M  V30 6673 H 646.701 -0.581913 -3.68332 0
M  V30 6674 N 648.886 1.2938 -0.899927 0
M  V30 6675 C 650.126 1.97332 -0.532871 0
M  V30 6676 C 650.49 1.69385 0.904029 0
M  V30 6677 O 651.691 2.30793 1.37797 0
M  V30 6678 C 649.962 3.47927 -0.817393 0
M  V30 6679 S 651.521 4.3528 -0.55468 0
M  V30 6680 H 648.339 0.682966 -0.197683 0
M  V30 6681 H 650.941 1.57189 -1.16241 0
M  V30 6682 H 649.645 3.65761 -1.86138 0
M  V30 6683 H 649.176 3.93006 -0.175978 0
M  V30 6684 H 651.191 4.92557 0.600182 0
M  V30 6685 N 650.364 0.662433 1.43002 0
M  V30 6686 C 651.612 0.179237 2.01304 0
M  V30 6687 C 651.933 -1.21428 1.52579 0
M  V30 6688 O 651.203 -1.81294 0.742252 0
M  V30 6689 H 649.783 0.0632725 0.744316 0
M  V30 6690 H 652.445 0.856169 1.75088 0
M  V30 6691 H 651.541 0.170957 3.11631 0
M  V30 6692 N 651.842 -1.52309 0.404946 0
M  V30 6693 C 653.088 -2.02731 -0.164857 0
M  V30 6694 C 653.443 -1.28543 -1.43159 0
M  V30 6695 O 652.736 -0.381883 -1.87756 0
M  V30 6696 C 652.93 -3.54284 -0.470895 0
M  V30 6697 C 652.759 -4.43152 0.764625 0
M  V30 6698 C 651.529 -4.88594 1.28858 0
M  V30 6699 C 653.727 -4.874 1.64152 0
M  V30 6700 N 651.709 -5.61577 2.48001 0
M  V30 6701 C 653.08 -5.59121 2.67924 0
M  V30 6702 C 655.135 -4.69421 1.65978 0
M  V30 6703 C 653.838 -6.14772 3.73427 0
M  V30 6704 C 655.864 -5.25966 2.70396 0
M  V30 6705 C 655.226 -5.97606 3.7289 0
M  V30 6706 H 651.325 -0.78169 -0.0220025 0
M  V30 6707 H 653.909 -1.86522 0.558354 0
M  V30 6708 H 652.08 -3.70574 -1.16315 0
M  V30 6709 H 653.812 -3.91394 -1.02921 0
M  V30 6710 H 650.567 -4.6596 0.847232 0
M  V30 6711 H 650.991 -6.02712 3.08329 0
M  V30 6712 H 655.633 -4.13524 0.88079 0
M  V30 6713 H 653.351 -6.69743 4.52184 0
M  V30 6714 H 656.937 -5.13926 2.72711 0
M  V30 6715 H 655.817 -6.40577 4.52361 0
M  V30 6716 N 653.32 -0.135238 -1.57019 0
M  V30 6717 C 654.23 0.822226 -2.19719 0
M  V30 6718 C 655.246 1.28057 -1.17802 0
M  V30 6719 O 656.422 1.3402 -1.50335 0
M  V30 6720 C 653.487 2.0484 -2.79717 0
M  V30 6721 C 652.548 1.64042 -3.96723 0
M  V30 6722 C 651.781 2.80814 -4.53849 0
M  V30 6723 O 652.004 3.967 -4.0986 0
M  V30 6724 O 650.938 2.56963 -5.44292 0
M  V30 6725 H 654.764 0.318552 -3.02025 0
M  V30 6726 H 652.349 0.0912021 -1.49121 0
M  V30 6727 H 654.231 2.76622 -3.17897 0
M  V30 6728 H 652.906 2.54182 -2.00432 0
M  V30 6729 H 651.813 0.893182 -3.63281 0
M  V30 6730 H 653.146 1.19426 -4.77492 0
M  V30 6731 N 654.798 1.5699 0.138552 0
M  V30 6732 C 656.047 1.82998 0.848205 0
M  V30 6733 C 656.36 0.717829 1.81952 0
M  V30 6734 O 657.566 0.863756 2.57394 0
M  V30 6735 C 656.022 3.24379 1.55904 0
M  V30 6736 C 655.63 4.43552 0.62971 0
M  V30 6737 C 657.374 3.59654 2.25498 0
M  V30 6738 C 655.281 5.75957 1.34266 0
M  V30 6739 H 654.211 0.682495 0.320495 0
M  V30 6740 H 656.862 1.83222 0.100924 0
M  V30 6741 H 655.244 3.18567 2.35226 0
M  V30 6742 H 656.418 4.6062 -0.128882 0
M  V30 6743 H 654.733 4.16379 0.0417526 0
M  V30 6744 H 657.33 4.55837 2.79493 0
M  V30 6745 H 657.673 2.86124 3.02388 0
M  V30 6746 H 658.206 3.67164 1.53087 0
M  V30 6747 H 654.945 6.52604 0.615441 0
M  V30 6748 H 654.465 5.62811 2.07375 0
M  V30 6749 H 656.144 6.19046 1.88126 0
M  V30 6750 N 656.276 -0.40816 1.52223 0
M  V30 6751 C 657.504 -1.17672 1.70179 0
M  V30 6752 C 657.919 -1.84257 0.411696 0
M  V30 6753 O 657.276 -1.7192 -0.612354 0
M  V30 6754 C 657.327 -2.23911 2.83806 0
M  V30 6755 O 657.048 -1.60044 4.0782 0
M  V30 6756 C 658.549 -3.1364 3.13281 0
M  V30 6757 H 655.769 -0.353562 0.570293 0
M  V30 6758 H 658.313 -0.480083 1.98785 0
M  V30 6759 H 656.468 -2.89242 2.57717 0
M  V30 6760 H 656.882 -2.30484 4.71145 0
M  V30 6761 H 658.356 -3.84255 3.96298 0
M  V30 6762 H 658.833 -3.76066 2.26872 0
M  V30 6763 H 659.439 -2.53977 3.41139 0
M  V30 6764 N 657.755 -1.42862 -0.66545 0
M  V30 6765 C 659.032 -1.3431 -1.42197 0
M  V30 6766 C 659.412 0.0150265 -2.11095 0
M  V30 6767 O 658.76 1.03101 -2.03918 0
M  V30 6768 C 658.97 -2.51783 -2.41674 0
M  V30 6769 C 660.318 -2.94321 -3.0604 0
M  V30 6770 O 661.342 -2.51741 -2.52001 0
M  V30 6771 O 660.201 -3.68047 -4.03985 0
M  V30 6772 H 657.295 -0.530159 -0.634713 0
M  V30 6773 H 659.841 -1.54888 -0.693386 0
M  V30 6774 H 658.613 -3.42282 -1.89627 0
M  V30 6775 H 658.236 -2.33241 -3.22001 0
M  V30 6776 N 659.233 0.902656 -1.29189 0
M  V30 6777 C 660.461 1.68639 -1.19869 0
M  V30 6778 C 660.876 1.87254 0.241121 0
M  V30 6779 O 660.233 1.40745 1.16177 0
M  V30 6780 C 660.284 3.07251 -1.90471 0
M  V30 6781 O 660.005 2.89488 -3.28829 0
M  V30 6782 C 661.506 4.01653 -1.8759 0
M  V30 6783 H 658.726 0.526802 -0.415596 0
M  V30 6784 H 661.27 1.12901 -1.7051 0
M  V30 6785 H 659.425 3.59774 -1.43672 0
M  V30 6786 H 659.839 3.77296 -3.64346 0
M  V30 6787 H 661.313 4.96339 -2.4156 0
M  V30 6788 H 661.79 4.30881 -0.850756 0
M  V30 6789 H 662.396 3.55061 -2.34119 0
M  V30 6790 N 660.711 1.11618 1.11262 0
M  V30 6791 C 661.641 0.79846 2.19424 0
M  V30 6792 C 662.622 -0.234003 1.68483 0
M  V30 6793 O 663.807 -0.0970704 1.93957 0
M  V30 6794 C 660.937 0.242892 3.4645 0
M  V30 6795 C 659.891 1.20744 4.10615 0
M  V30 6796 C 659.217 0.512494 5.32238 0
M  V30 6797 C 660.517 2.55884 4.55325 0
M  V30 6798 H 662.211 1.70286 2.46258 0
M  V30 6799 H 659.757 0.820195 1.18359 0
M  V30 6800 H 661.71 0.00840447 4.21399 0
M  V30 6801 H 660.434 -0.696811 3.1908 0
M  V30 6802 H 659.093 1.42759 3.37662 0
M  V30 6803 H 658.741 -0.432075 5.01141 0
M  V30 6804 H 658.441 1.15583 5.7612 0
M  V30 6805 H 659.965 0.286842 6.09926 0
M  V30 6806 H 661.379 2.37946 5.21588 0
M  V30 6807 H 659.776 3.16216 5.10027 0
M  V30 6808 H 660.846 3.14968 3.68678 0
M  V30 6809 N 662.189 -1.289 0.906776 0
M  V30 6810 C 663.429 -1.97046 0.543329 0
M  V30 6811 C 663.793 -1.69862 -0.895034 0
M  V30 6812 O 664.994 -2.31521 -1.36571 0
M  V30 6813 C 663.265 -3.47489 0.835833 0
M  V30 6814 S 664.824 -4.3498 0.577756 0
M  V30 6815 H 661.642 -0.681908 0.201302 0
M  V30 6816 H 664.244 -1.5657 1.17073 0
M  V30 6817 H 662.948 -3.64768 1.88075 0
M  V30 6818 H 662.479 -3.92907 0.196817 0
M  V30 6819 H 664.494 -4.92868 -0.574052 0
M  V30 6820 N 663.667 -0.670007 -1.42649 0
M  V30 6821 C 664.913 -0.190568 -2.01903 0
M  V30 6822 C 665.246 1.19817 -1.52832 0
M  V30 6823 O 664.521 1.80342 -0.728485 0
M  V30 6824 C 664.804 -0.21991 -3.59428 0
M  V30 6825 C 664.657 -1.64376 -4.18689 0
M  V30 6826 C 665.976 0.434519 -4.3795 0
M  V30 6827 H 663.095 -0.0707219 -0.733599 0
M  V30 6828 H 665.737 -0.853883 -1.69732 0
M  V30 6829 H 663.887 0.344894 -3.86966 0
M  V30 6830 H 665.559 -2.26044 -4.02122 0
M  V30 6831 H 663.802 -2.18591 -3.747 0
M  V30 6832 H 664.473 -1.61601 -5.27815 0
M  V30 6833 H 666.949 -0.0462156 -4.16074 0
M  V30 6834 H 665.825 0.38333 -5.4756 0
M  V30 6835 H 666.086 1.51135 -4.15464 0
M  V30 6836 N 665.145 1.52092 -0.413018 0
M  V30 6837 C 666.393 2.01456 0.161178 0
M  V30 6838 C 666.714 1.30034 1.45314 0
M  V30 6839 O 665.984 0.427435 1.9118 0
M  V30 6840 H 664.564 0.744376 0.0625526 0
M  V30 6841 H 667.226 1.86974 -0.550151 0
M  V30 6842 H 666.322 3.1008 0.354517 0
M  V30 6843 N 666.623 0.143563 1.56945 0
M  V30 6844 C 668.034 -0.37783 1.82837 0
M  V30 6845 C 668.385 -1.64967 1.06209 0
M  V30 6846 O 667.51 -2.14221 0.306291 0
M  V30 6847 C 668.105 -0.692274 3.31652 0
M  V30 6848 C 666.664 -1.1582 3.58138 0
M  V30 6849 C 665.811 -0.17951 2.76718 0
M  V30 6850 H 668.762 0.368317 1.54367 0
M  V30 6851 H 668.783 -1.54729 3.47619 0
M  V30 6852 H 668.295 0.233572 3.87397 0
M  V30 6853 H 666.396 -2.10011 3.07776 0
M  V30 6854 H 666.509 -1.08655 4.66616 0
M  V30 6855 H 664.873 -0.671458 2.4569 0
M  V30 6856 H 665.656 0.739865 3.35233 0
M  V30 6857 N 668.101 -1.57061 -0.130224 0
M  V30 6858 C 669.347 -1.8453 -0.841216 0
M  V30 6859 C 669.68 -0.727666 -1.80052 0
M  V30 6860 O 668.955 0.267419 -1.92653 0
M  V30 6861 C 669.238 -3.22553 -1.60099 0
M  V30 6862 C 669.091 -4.44901 -0.662048 0
M  V30 6863 C 670.41 -3.58003 -2.55973 0
M  V30 6864 H 667.529 -0.671215 -0.304366 0
M  V30 6865 H 670.171 -1.89705 -0.105821 0
M  V30 6866 H 668.321 -3.18272 -2.22789 0
M  V30 6867 H 669.993 -4.61278 -0.0448559 0
M  V30 6868 H 668.236 -4.33791 0.0272253 0
M  V30 6869 H 668.907 -5.3812 -1.23006 0
M  V30 6870 H 671.383 -3.63002 -2.03393 0
M  V30 6871 H 670.259 -4.55576 -3.06172 0
M  V30 6872 H 670.52 -2.84833 -3.38116 0
M  V30 6873 N 669.579 0.400081 -1.52437 0
M  V30 6874 C 670.826 1.14619 -1.6694 0
M  V30 6875 C 671.154 1.90262 -0.403797 0
M  V30 6876 O 670.409 1.85835 0.61351 0
M  V30 6877 C 670.708 2.15914 -2.84808 0
M  V30 6878 C 670.374 1.57011 -4.2268 0
M  V30 6879 C 669.036 1.40672 -4.60179 0
M  V30 6880 C 671.388 1.14081 -5.08562 0
M  V30 6881 C 668.716 0.799335 -5.81229 0
M  V30 6882 C 671.068 0.547573 -6.30226 0
M  V30 6883 C 669.732 0.371389 -6.66466 0
M  V30 6884 H 669.002 0.419419 -0.610875 0
M  V30 6885 H 671.649 0.432227 -1.86558 0
M  V30 6886 H 669.954 2.93488 -2.59561 0
M  V30 6887 H 671.651 2.73533 -2.93225 0
M  V30 6888 H 668.241 1.70713 -3.93135 0
M  V30 6889 H 672.425 1.2551 -4.80168 0
M  V30 6890 H 667.681 0.65093 -6.07925 0
M  V30 6891 H 671.855 0.206575 -6.96094 0
M  V30 6892 H 669.482 -0.10135 -7.60132 0
M  V30 6893 N 671.057 1.43213 0.657864 0
M  V30 6894 C 672.285 1.48015 1.44566 0
M  V30 6895 C 672.7 0.0965951 1.88553 0
M  V30 6896 O 672.057 -0.892221 1.59203 0
M  V30 6897 C 672.108 2.42199 2.68369 0
M  V30 6898 O 671.829 3.75173 2.26223 0
M  V30 6899 C 673.33 2.56195 3.61772 0
M  V30 6900 H 670.55 0.502861 0.444266 0
M  V30 6901 H 673.094 1.87907 0.806917 0
M  V30 6902 H 671.249 2.05514 3.28394 0
M  V30 6903 H 671.663 4.25776 3.06293 0
M  V30 6904 H 673.137 3.26182 4.4532 0
M  V30 6905 H 673.614 1.60534 4.0881 0
M  V30 6906 H 674.22 2.93671 3.07632 0
M  V30 6907 N 672.536 -0.895792 1.29666 0
M  V30 6908 C 673.947 -1.46195 1.1612 0
M  V30 6909 C 674.298 -1.94699 -0.242195 0
M  V30 6910 O 673.423 -1.8406 -1.13802 0
M  V30 6911 C 674.018 -2.65718 2.10189 0
M  V30 6912 C 672.577 -3.18458 2.00653 0
M  V30 6913 C 671.724 -1.91149 2.00891 0
M  V30 6914 H 674.675 -0.706756 1.42094 0
M  V30 6915 H 674.696 -3.4158 1.6764 0
M  V30 6916 H 674.208 -2.30386 3.12321 0
M  V30 6917 H 672.309 -3.58474 1.01623 0
M  V30 6918 H 672.422 -3.82491 2.88509 0
M  V30 6919 H 670.786 -2.09021 1.45542 0
M  V30 6920 H 671.569 -1.58089 3.04734 0
M  V30 6921 N 674.014 -1.12206 -1.10668 0
M  V30 6922 C 674.977 -0.790867 -2.15123 0
M  V30 6923 C 675.977 0.193618 -1.5963 0
M  V30 6924 O 677.167 -0.0318728 -1.74171 0
M  V30 6925 C 674.299 -0.174797 -3.40452 0
M  V30 6926 H 675.492 -1.7163 -2.45933 0
M  V30 6927 H 673.045 -0.924993 -1.2599 0
M  V30 6928 H 673.78 0.760478 -3.15257 0
M  V30 6929 H 673.565 -0.88358 -3.82015 0
M  V30 6930 H 675.055 0.0405162 -4.1758 0
M  V30 6931 N 675.492 1.28418 -0.913599 0
M  V30 6932 C 676.717 1.99643 -0.561899 0
M  V30 6933 C 677.142 1.67819 0.849608 0
M  V30 6934 O 676.5 0.910503 1.56779 0
M  V30 6935 C 676.548 3.52116 -0.777622 0
M  V30 6936 O 675.652 4.12076 0.163457 0
M  V30 6937 H 674.993 0.627229 -0.217898 0
M  V30 6938 H 677.523 1.63575 -1.229 0
M  V30 6939 H 677.533 4.02163 -0.687666 0
M  V30 6940 H 676.208 3.74613 -1.8066 0
M  V30 6941 H 674.785 3.72892 0.0247827 0
M  V30 6942 N 676.97 0.677563 1.42291 0
M  V30 6943 C 678.219 0.198173 2.00724 0
M  V30 6944 C 678.532 -1.20325 1.54211 0
M  V30 6945 O 679.738 -1.77916 2.05081 0
M  V30 6946 C 678.194 0.303432 3.58619 0
M  V30 6947 C 677.802 1.70909 4.14119 0
M  V30 6948 C 679.546 -0.117103 4.24338 0
M  V30 6949 C 677.453 1.76696 5.64387 0
M  V30 6950 H 676.383 0.070329 0.750713 0
M  V30 6951 H 679.034 0.843147 1.62982 0
M  V30 6952 H 677.416 -0.409482 3.93877 0
M  V30 6953 H 678.59 2.44931 3.90315 0
M  V30 6954 H 676.905 2.07771 3.6086 0
M  V30 6955 H 679.502 -0.0940471 5.34617 0
M  V30 6956 H 679.845 -1.15283 4.00019 0
M  V30 6957 H 680.378 0.5449 3.9405 0
M  V30 6958 H 677.117 2.7826 5.93508 0
M  V30 6959 H 676.637 1.07034 5.90173 0
M  V30 6960 H 678.316 1.52166 6.28852 0
M  V30 6961 N 678.448 -1.51871 0.421078 0
M  V30 6962 C 679.381 -2.23851 -0.443369 0
M  V30 6963 C 680.359 -1.25142 -1.03818 0
M  V30 6964 O 681.543 -1.5423 -1.08377 0
M  V30 6965 C 678.67 -2.97637 -1.61648 0
M  V30 6966 C 677.716 -4.10873 -1.14391 0
M  V30 6967 S 678.549 -5.35408 -0.0992403 0
M  V30 6968 C 679.705 -6.12726 -1.27739 0
M  V30 6969 H 679.938 -2.96826 0.167786 0
M  V30 6970 H 677.471 -1.53027 0.205461 0
M  V30 6971 H 679.429 -3.40751 -2.28909 0
M  V30 6972 H 678.09 -2.24282 -2.199 0
M  V30 6973 H 677.283 -4.61718 -2.02069 0
M  V30 6974 H 676.885 -3.69937 -0.549775 0
M  V30 6975 H 679.177 -6.40827 -2.19881 0
M  V30 6976 H 680.12 -7.03461 -0.809239 0
M  V30 6977 H 680.528 -5.43968 -1.5086 0
M  V30 6978 O 679.965 -0.292728 -1.58825 0
M  V30 6979 H 680.656 0.273626 -1.91758 0
M  V30 END ATOM
M  V30 BEGIN BOND
M  V30 END BOND
M  V30 END CTAB
M  END
$$$$
