drugbank_target|Q96AE4 Far upstream element-binding protein 1 (DB05786; DB12893)
 OpenBabel12092120323D

  0  0  0     0  0            999 V3000
M  V30 BEGIN CTAB
M  V30 COUNTS 9356 9495 0 0 0
M  V30 BEGIN ATOM
M  V30 1 H -0.908 1.98254 -0.117106 0
M  V30 2 N 0 1.576 0 0
M  V30 3 C 0.933 2.03868 1.02534 0
M  V30 4 C 1.911 0.928543 1.3348 0
M  V30 5 O 3.095 1.19667 1.45644 0
M  V30 6 C 0.222 2.43627 2.35294 0
M  V30 7 C -0.732 3.65373 2.2001 0
M  V30 8 S 0.101 5.13292 1.52614 0
M  V30 9 C 1.257 5.56322 2.86805 0
M  V30 10 H 1.49 2.90518 0.631377 0
M  V30 11 H -0.977 1.52953 0.210867 0
M  V30 12 H 0.981 2.67203 3.11629 0
M  V30 13 H -0.358 1.57376 2.7183 0
M  V30 14 H -1.165 3.90944 3.18086 0
M  V30 15 H -1.563 3.418 1.51819 0
M  V30 16 H 0.729 5.58782 3.83104 0
M  V30 17 H 1.672 6.56266 2.65933 0
M  V30 18 H 2.08 4.83886 2.90714 0
M  V30 19 N 1.4781 -0.272755 1.55222 0
M  V30 20 C 2.4411 -1.32041 1.87344 0
M  V30 21 C 3.4411 -1.42342 0.74803 0
M  V30 22 O 4.6311 -1.41488 1.0162 0
M  V30 23 C 1.7631 -2.70173 2.07893 0
M  V30 24 H 2.9561 -1.04789 2.80997 0
M  V30 25 H 0.5091 -0.51083 1.47717 0
M  V30 26 H 1.2441 -3.02605 1.16622 0
M  V30 27 H 1.0291 -2.64082 2.89833 0
M  V30 28 H 2.5191 -3.45869 2.34017 0
M  V30 29 N 2.9562 -1.48159 -0.537278 0
M  V30 30 C 4.2332 -1.46291 -1.29839 0
M  V30 31 C 4.6132 -0.170613 -2.10409 0
M  V30 32 O 3.9612 0.847746 -2.12192 0
M  V30 33 C 4.1712 -2.72055 -2.18603 0
M  V30 34 C 5.5192 -3.20087 -2.7898 0
M  V30 35 O 6.5432 -2.72921 -2.28894 0
M  V30 36 O 5.4022 -4.02138 -3.70064 0
M  V30 37 H 2.4962 -0.583906 -0.585647 0
M  V30 38 H 5.0422 -1.60384 -0.554534 0
M  V30 39 H 3.8142 -3.57628 -1.58801 0
M  V30 40 H 3.4372 -2.60646 -3.00249 0
M  V30 41 N 4.4343 0.785586 -1.36625 0
M  V30 42 C 5.6643 1.5722 -1.34036 0
M  V30 43 C 6.0723 1.89033 0.0795062 0
M  V30 44 O 5.4153 1.50881 1.04789 0
M  V30 45 C 5.4773 2.91759 -2.10041 0
M  V30 46 C 5.1413 2.82654 -3.59104 0
M  V30 47 C 6.1383 2.54634 -4.53274 0
M  V30 48 C 3.8233 3.01111 -4.02042 0
M  V30 49 C 5.8173 2.45177 -5.88359 0
M  V30 50 C 3.5043 2.91276 -5.37216 0
M  V30 51 C 4.5023 2.63348 -6.30188 0
M  V30 52 O 4.1903 2.53514 -7.6288 0
M  V30 53 H 3.9223 0.494177 -0.461265 0
M  V30 54 H 6.4763 0.982632 -1.8037 0
M  V30 55 H 4.7063 3.52781 -1.58375 0
M  V30 56 H 6.3953 3.53059 -2.00261 0
M  V30 57 H 7.1613 2.40073 -4.21414 0
M  V30 58 H 3.0403 3.21854 -3.30047 0
M  V30 59 H 6.5843 2.23299 -6.60896 0
M  V30 60 H 2.4813 3.054 -5.68684 0
M  V30 61 H 3.2493 2.68967 -7.73045 0
M  V30 62 N 5.9124 1.20967 1.01018 0
M  V30 63 C 7.1374 1.0503 1.78839 0
M  V30 64 C 7.5624 -0.395752 1.8389 0
M  V30 65 O 6.9204 -1.28529 1.27867 0
M  V30 66 C 6.9684 1.64602 3.2084 0
M  V30 67 O 6.0724 0.887988 4.02726 0
M  V30 68 H 5.4134 0.369987 0.551367 0
M  V30 69 H 7.9434 1.60399 1.27018 0
M  V30 70 H 7.9534 1.68607 3.71532 0
M  V30 71 H 6.6284 2.69841 3.16479 0
M  V30 72 H 5.2054 0.922648 3.61305 0
M  V30 73 N 7.3905 -1.2043 1.01659 0
M  V30 74 C 8.6185 -1.93777 0.725132 0
M  V30 75 C 9.0335 -1.74772 -0.714166 0
M  V30 76 O 8.3905 -1.06169 -1.4844 0
M  V30 77 C 8.4415 -3.45876 1.05129 0
M  V30 78 O 8.1625 -3.6426 2.43406 0
M  V30 79 C 9.6635 -4.36368 0.780891 0
M  V30 80 H 6.8835 -0.615901 0.266284 0
M  V30 81 H 9.4275 -1.52922 1.35776 0
M  V30 82 H 7.5825 -3.8461 0.464065 0
M  V30 83 H 7.9965 -4.58246 2.55169 0
M  V30 84 H 9.4705 -5.41743 1.05918 0
M  V30 85 H 9.9475 -4.38275 -0.284937 0
M  V30 86 H 10.5535 -4.03296 1.35027 0
M  V30 87 N 8.8686 -0.792821 -1.36206 0
M  V30 88 C 10.1146 -0.36733 -1.99446 0
M  V30 89 C 10.4476 1.05917 -1.62774 0
M  V30 90 O 9.7226 1.7324 -0.88421 0
M  V30 91 C 10.0056 -0.535044 -3.56103 0
M  V30 92 C 9.8586 -2.00548 -4.02617 0
M  V30 93 C 11.1776 0.0478191 -4.40074 0
M  V30 94 H 8.2966 -0.134941 -0.724541 0
M  V30 95 H 10.9386 -0.999794 -1.61568 0
M  V30 96 H 9.0886 0.00336329 -3.885 0
M  V30 97 H 10.7606 -2.60521 -3.80692 0
M  V30 98 H 9.0036 -2.50686 -3.54032 0
M  V30 99 H 9.6746 -2.07377 -5.11565 0
M  V30 100 H 12.1506 -0.411822 -4.14057 0
M  V30 101 H 11.0266 -0.0995336 -5.4881 0
M  V30 102 H 11.2876 1.14025 -4.27142 0
M  V30 103 N 10.3467 1.47872 -0.545128 0
M  V30 104 C 11.7577 1.86384 -0.108581 0
M  V30 105 C 12.1087 1.45309 1.31832 0
M  V30 106 O 11.2337 0.850641 1.9898 0
M  V30 107 C 11.8287 3.38265 -0.190274 0
M  V30 108 C 10.3877 3.75914 0.191164 0
M  V30 109 C 9.5347 2.71926 -0.543273 0
M  V30 110 H 12.4857 1.39561 -0.755537 0
M  V30 111 H 12.5067 3.75831 0.594217 0
M  V30 112 H 12.0187 3.6813 -1.2289 0
M  V30 113 H 10.1197 3.51665 1.23136 0
M  V30 114 H 10.2327 4.78836 -0.158987 0
M  V30 115 H 8.5967 2.54697 0.0122495 0
M  V30 116 H 9.3797 3.04634 -1.58282 0
M  V30 117 N 11.8248 0.280983 1.55075 0
M  V30 118 C 13.2358 -0.215629 1.85451 0
M  V30 119 C 13.5868 -1.54991 1.203 0
M  V30 120 O 12.7118 -2.10699 0.493435 0
M  V30 121 C 13.3068 -0.398026 3.36454 0
M  V30 122 C 11.8658 -0.838866 3.66933 0
M  V30 123 C 11.0128 0.064458 2.77225 0
M  V30 124 H 13.9638 0.502601 1.50531 0
M  V30 125 H 13.9848 -1.23569 3.59876 0
M  V30 126 H 13.4968 0.573241 3.83843 0
M  V30 127 H 11.5978 -1.8214 3.25048 0
M  V30 128 H 11.7108 -0.672123 4.74362 0
M  V30 129 H 10.0748 -0.452863 2.50642 0
M  V30 130 H 10.8578 1.03172 3.2743 0
M  V30 131 N 13.3029 -1.57598 0.00835791 0
M  V30 132 C 14.7139 -1.7892 -0.53333 0
M  V30 133 C 15.0649 -0.916609 -1.73473 0
M  V30 134 O 14.1899 -0.121336 -2.1606 0
M  V30 135 C 14.7849 -3.24488 -0.974313 0
M  V30 136 C 13.3439 -3.46878 -1.46125 0
M  V30 137 C 12.4909 -2.74157 -0.416302 0
M  V30 138 H 15.4419 -1.56958 0.234495 0
M  V30 139 H 15.4629 -3.3306 -1.83988 0
M  V30 140 H 14.9749 -3.87972 -0.099718 0
M  V30 141 H 13.0759 -2.8862 -2.35646 0
M  V30 142 H 13.1889 -4.55572 -1.48295 0
M  V30 143 H 11.5529 -2.39022 -0.87981 0
M  V30 144 H 12.3359 -3.40345 0.44947 0
M  V30 145 N 14.781 0.264519 -1.55364 0
M  V30 146 C 16.006 1.01726 -1.80739 0
M  V30 147 C 16.431 1.78836 -0.583044 0
M  V30 148 O 15.789 1.75167 0.467566 0
M  V30 149 C 15.837 1.94482 -3.03659 0
M  V30 150 O 14.941 3.03386 -2.7934 0
M  V30 151 H 14.282 0.290395 -0.597132 0
M  V30 152 H 16.812 0.290854 -2.02522 0
M  V30 153 H 16.822 2.36278 -3.32621 0
M  V30 154 H 15.497 1.37772 -3.92418 0
M  V30 155 H 14.074 2.65844 -2.61498 0
M  V30 156 N 16.2591 1.48442 0.529413 0
M  V30 157 C 17.4841 1.60406 1.31471 0
M  V30 158 C 17.9091 0.264738 1.86228 0
M  V30 159 O 17.2671 -0.763668 1.64432 0
M  V30 160 C 17.3151 2.65419 2.44101 0
M  V30 161 O 16.4191 2.22618 3.47153 0
M  V30 162 H 15.7601 0.537863 0.389357 0
M  V30 163 H 18.2901 1.94432 0.636965 0
M  V30 164 H 18.3001 2.86709 2.90279 0
M  V30 165 H 16.9751 3.62652 2.03608 0
M  V30 166 H 15.5521 2.11543 3.0709 0
M  V30 167 N 17.7372 -0.778329 1.37039 0
M  V30 168 C 18.9852 -1.53361 1.31623 0
M  V30 169 C 19.3062 -1.94739 -0.100831 0
M  V30 170 O 18.5762 -1.65797 -1.04347 0
M  V30 171 H 17.1562 -0.568794 0.484234 0
M  V30 172 H 19.8182 -0.926742 1.71457 0
M  V30 173 H 18.9142 -2.43606 1.95096 0
M  V30 174 N 19.2153 -1.21501 -1.00376 0
M  V30 175 C 20.4403 -1.05977 -1.78279 0
M  V30 176 C 20.8653 0.385994 -1.84097 0
M  V30 177 O 20.2233 1.27849 -1.28547 0
M  V30 178 C 20.2713 -1.66302 -3.19963 0
M  V30 179 O 19.3753 -0.909333 -4.0225 0
M  V30 180 H 18.7163 -0.372906 -0.549397 0
M  V30 181 H 21.2463 -1.6107 -1.26165 0
M  V30 182 H 21.2563 -1.70574 -3.70632 0
M  V30 183 H 19.9313 -2.71515 -3.15043 0
M  V30 184 H 18.5083 -0.941795 -3.60811 0
M  V30 185 N 20.6934 1.19889 -1.02296 0
M  V30 186 C 21.6564 2.21116 -0.603351 0
M  V30 187 C 22.6564 1.5738 0.329884 0
M  V30 188 O 23.8464 1.73802 0.117702 0
M  V30 189 C 20.9784 3.40696 0.117992 0
M  V30 190 H 22.1714 2.59754 -1.49893 0
M  V30 191 H 19.7244 1.33463 -0.813468 0
M  V30 192 H 20.4594 3.07569 1.0282 0
M  V30 193 H 20.2444 3.88188 -0.552511 0
M  V30 194 H 21.7344 4.15692 0.398696 0
M  V30 195 N 22.1715 0.800033 1.35784 0
M  V30 196 C 23.4195 0.376597 1.9856 0
M  V30 197 C 23.7405 -1.05812 1.63795 0
M  V30 198 O 23.0105 -1.73103 0.917171 0
M  V30 199 H 21.5905 0.136261 0.734467 0
M  V30 200 H 24.2525 1.02442 1.65806 0
M  V30 201 H 23.3485 0.477002 3.08433 0
M  V30 202 N 23.6496 -1.47581 0.552962 0
M  V30 203 C 24.8976 -2.02082 0.0272703 0
M  V30 204 C 25.2186 -1.4301 -1.32563 0
M  V30 205 O 24.4886 -0.603745 -1.86365 0
M  V30 206 H 23.0686 -0.746966 0.00709182 0
M  V30 207 H 25.7306 -1.81033 0.722008 0
M  V30 208 H 24.8266 -3.12034 -0.0639951 0
M  V30 209 N 25.1277 -0.289203 -1.54924 0
M  V30 210 C 26.3757 0.322879 -1.99504 0
M  V30 211 C 26.6967 1.55313 -1.1791 0
M  V30 212 O 25.9667 1.94001 -0.272097 0
M  V30 213 H 24.5467 0.122291 -0.736922 0
M  V30 214 H 27.2087 -0.397802 -1.90797 0
M  V30 215 H 26.3047 0.603061 -3.06218 0
M  V30 216 N 26.6058 1.57591 -0.0167156 0
M  V30 217 C 27.8538 1.90906 0.663285 0
M  V30 218 C 28.1748 0.892509 1.73376 0
M  V30 219 O 27.4448 -0.0677623 1.95783 0
M  V30 220 H 26.0248 0.704637 0.247983 0
M  V30 221 H 28.6868 1.94803 -0.0615909 0
M  V30 222 H 27.7828 2.9116 1.12393 0
M  V30 223 N 28.0839 -0.256276 1.55502 0
M  V30 224 C 29.3319 -0.983672 1.76545 0
M  V30 225 C 29.6529 -1.86206 0.578982 0
M  V30 226 O 28.9229 -1.91656 -0.405577 0
M  V30 227 H 27.5029 -0.366191 0.651086 0
M  V30 228 H 30.1649 -0.276479 1.92929 0
M  V30 229 H 29.2609 -1.61087 2.67315 0
M  V30 230 N 29.562 -1.4872 -0.521534 0
M  V30 231 C 30.81 -1.56857 -1.27437 0
M  V30 232 C 31.131 -0.247982 -1.93417 0
M  V30 233 O 30.401 0.731151 -1.81744 0
M  V30 234 H 28.981 -0.577885 -0.473347 0
M  V30 235 H 31.643 -1.85233 -0.606205 0
M  V30 236 H 30.739 -2.35402 -2.0492 0
M  V30 237 N 31.0401 0.771051 -1.3745 0
M  V30 238 C 32.2881 1.52661 -1.32435 0
M  V30 239 C 32.6091 1.9479 0.0905024 0
M  V30 240 O 31.8791 1.66348 1.03466 0
M  V30 241 H 30.4591 0.566218 -0.487244 0
M  V30 242 H 33.1211 0.917636 -1.71946 0
M  V30 243 H 32.2171 2.42568 -1.96385 0
M  V30 244 N 32.5182 1.22032 0.997298 0
M  V30 245 C 33.7662 1.04016 1.73278 0
M  V30 246 C 34.0872 -0.426255 1.90284 0
M  V30 247 O 33.3572 -1.30694 1.45931 0
M  V30 248 H 31.9372 0.381897 0.642 0
M  V30 249 H 34.5992 1.5347 1.20137 0
M  V30 250 H 33.6952 1.51441 2.72896 0
M  V30 251 N 33.9963 -1.19345 1.0293 0
M  V30 252 C 35.2443 -1.88665 0.724574 0
M  V30 253 C 35.5653 -1.80036 -0.749144 0
M  V30 254 O 34.8353 -1.2111 -1.53978 0
M  V30 255 H 33.4153 -0.698406 0.265025 0
M  V30 256 H 36.0773 -1.44885 1.30362 0
M  V30 257 H 35.1733 -2.94987 1.01926 0
M  V30 258 N 35.4744 -0.807222 -1.35358 0
M  V30 259 C 36.7224 -0.387122 -1.98358 0
M  V30 260 C 37.0434 1.04942 -1.64354 0
M  V30 261 O 36.3134 1.72615 -0.926339 0
M  V30 262 H 34.8934 -0.140154 -0.733734 0
M  V30 263 H 37.5554 -1.0332 -1.6526 0
M  V30 264 H 36.6514 -0.493352 -3.08176 0
M  V30 265 N 36.9525 1.47285 -0.560781 0
M  V30 266 C 38.2005 2.02064 -0.0379868 0
M  V30 267 C 38.5215 1.43711 1.31803 0
M  V30 268 O 37.7915 0.61362 1.86042 0
M  V30 269 H 36.3715 0.746918 -0.0110531 0
M  V30 270 H 39.0335 1.80648 -0.731598 0
M  V30 271 H 38.1295 3.12064 0.0474463 0
M  V30 272 N 38.4306 0.297415 1.54768 0
M  V30 273 C 39.6766 -0.313376 2.00364 0
M  V30 274 C 40.0096 -1.53815 1.18553 0
M  V30 275 O 39.2846 -1.92739 0.261103 0
M  V30 276 C 39.5676 -0.673525 3.53745 0
M  V30 277 C 39.4206 0.560133 4.46299 0
M  V30 278 C 40.7396 -1.50143 4.13697 0
M  V30 279 H 37.8586 -0.112428 0.728374 0
M  V30 280 H 40.5006 0.4088 1.8555 0
M  V30 281 H 38.6506 -1.28881 3.665 0
M  V30 282 H 40.3226 1.19863 4.45455 0
M  V30 283 H 38.5656 1.19405 4.17043 0
M  V30 284 H 39.2366 0.26405 5.51368 0
M  V30 285 H 41.7126 -0.981588 4.04356 0
M  V30 286 H 40.5886 -1.72221 5.21182 0
M  V30 287 H 40.8496 -2.48952 3.65343 0
M  V30 288 N 39.9087 -1.5758 0.0250728 0
M  V30 289 C 40.8567 -2.11125 -0.97617 0
M  V30 290 C 41.8507 -1.03689 -1.33959 0
M  V30 291 O 43.0567 -1.22128 -1.3223 0
M  V30 292 H 39.4317 -0.674468 -0.332561 0
M  V30 293 H 41.4027 -2.94194 -0.499223 0
M  V30 294 C 40.1517 -2.65017 -2.2508 0
M  V30 295 H 39.4747 -3.47333 -1.9799 0
M  V30 296 H 40.9147 -3.06133 -2.93357 0
M  V30 297 C 39.3737 -1.57574 -2.97779 0
M  V30 298 O 39.9037 -0.973203 -3.89733 0
M  V30 299 N 38.1097 -1.29716 -2.60043 0
M  V30 300 H 37.6567 -1.789 -1.85345 0
M  V30 301 H 37.6147 -0.58051 -3.08994 0
M  V30 302 N 41.3868 0.248026 -1.55636 0
M  V30 303 C 42.6638 0.998988 -1.68165 0
M  V30 304 C 43.0438 2.03409 -0.564621 0
M  V30 305 O 42.3918 2.24378 0.432076 0
M  V30 306 C 42.6018 1.63334 -3.0842 0
M  V30 307 C 43.9498 2.13562 -3.66983 0
M  V30 308 O 44.9738 1.73277 -3.11213 0
M  V30 309 O 43.8328 2.87526 -4.64749 0
M  V30 310 H 40.9268 0.464933 -0.683935 0
M  V30 311 H 43.4728 0.241902 -1.67967 0
M  V30 312 H 42.2448 0.884583 -3.8117 0
M  V30 313 H 41.8678 2.45666 -3.12624 0
M  V30 314 N 42.8649 1.48995 0.513639 0
M  V30 315 C 43.8279 1.64229 1.59879 0
M  V30 316 C 44.8279 0.514696 1.5234 0
M  V30 317 O 46.0179 0.78087 1.55718 0
M  V30 318 C 43.1499 1.62783 2.99524 0
M  V30 319 H 44.3429 2.61004 1.47705 0
M  V30 320 H 41.8959 1.37837 0.736936 0
M  V30 321 H 42.6309 0.675461 3.17188 0
M  V30 322 H 42.4159 2.4466 3.06404 0
M  V30 323 H 43.9059 1.76669 3.78388 0
M  V30 324 N 44.343 -0.763751 1.37857 0
M  V30 325 C 45.59 -1.52257 1.33506 0
M  V30 326 C 45.918 -1.94343 -0.078022 0
M  V30 327 O 45.173 -1.64958 -1.05297 0
M  V30 328 C 45.472 -2.79499 2.22745 0
M  V30 329 C 45.138 -2.56426 3.70886 0
M  V30 330 C 43.8 -2.49842 4.11257 0
M  V30 331 C 46.152 -2.36008 4.64704 0
M  V30 332 C 43.48 -2.20841 5.43549 0
M  V30 333 C 45.832 -2.0853 5.97242 0
M  V30 334 C 44.496 -2.00396 6.36709 0
M  V30 335 H 43.766 -0.557149 0.488534 0
M  V30 336 H 46.413 -0.879073 1.70131 0
M  V30 337 H 44.718 -3.48447 1.79142 0
M  V30 338 H 46.415 -3.37413 2.16688 0
M  V30 339 H 43.005 -2.62416 3.38874 0
M  V30 340 H 47.189 -2.40079 4.34368 0
M  V30 341 H 42.445 -2.13045 5.73081 0
M  V30 342 H 46.619 -1.91732 6.69486 0
M  V30 343 H 44.246 -1.77688 7.39142 0
M  V30 344 N 45.8211 -1.22559 -0.990812 0
M  V30 345 C 46.7681 -0.997519 -2.0813 0
M  V30 346 C 47.7381 0.0814702 -1.659 0
M  V30 347 O 48.9231 -0.0685424 -1.90677 0
M  V30 348 C 46.0631 -0.583615 -3.40129 0
M  V30 349 C 45.1761 -1.7336 -3.9569 0
M  V30 350 C 44.3111 -1.26748 -5.15857 0
M  V30 351 C 43.3501 -2.38888 -5.63559 0
M  V30 352 N 42.4871 -1.93308 -6.74964 0
M  V30 353 H 47.3271 -1.93099 -2.26973 0
M  V30 354 H 44.8641 -0.962114 -1.11273 0
M  V30 355 H 46.8221 -0.324801 -4.15934 0
M  V30 356 H 45.4521 0.312845 -3.2128 0
M  V30 357 H 44.5041 -2.10669 -3.16738 0
M  V30 358 H 45.8161 -2.57704 -4.27071 0
M  V30 359 H 44.9701 -0.966173 -5.98957 0
M  V30 360 H 43.7091 -0.394272 -4.86104 0
M  V30 361 H 42.7141 -2.69805 -4.79046 0
M  V30 362 H 43.9391 -3.26728 -5.95336 0
M  V30 363 H 41.8851 -1.08352 -6.4699 0
M  V30 364 H 41.8021 -2.71217 -7.05675 0
M  V30 365 H 43.0701 -1.66252 -7.61564 0
M  V30 366 N 47.2992 1.18797 -1.03562 0
M  V30 367 C 48.5762 1.84469 -0.650434 0
M  V30 368 C 48.9562 1.92319 0.870433 0
M  V30 369 O 48.3042 1.44528 1.76986 0
M  V30 370 C 48.5142 3.2306 -1.32036 0
M  V30 371 C 49.8622 3.9915 -1.44792 0
M  V30 372 O 50.8862 3.32481 -1.27806 0
M  V30 373 O 49.7452 5.18587 -1.72423 0
M  V30 374 H 46.8392 0.795251 -0.226946 0
M  V30 375 H 49.3852 1.26231 -1.13419 0
M  V30 376 H 48.1572 3.1222 -2.3587 0
M  V30 377 H 47.7802 3.88949 -0.8249 0
M  V30 378 N 48.7773 0.814389 1.34928 0
M  V30 379 C 49.7403 0.235759 2.27984 0
M  V30 380 C 50.7403 -0.581412 1.49921 0
M  V30 381 O 51.9303 -0.398758 1.69575 0
M  V30 382 C 49.0623 -0.670433 3.34242 0
M  V30 383 H 50.2553 1.05659 2.80671 0
M  V30 384 H 47.8083 0.585614 1.44915 0
M  V30 385 H 48.5433 -1.51466 2.86755 0
M  V30 386 H 48.3283 -0.0860822 3.92005 0
M  V30 387 H 49.8183 -1.06935 4.03676 0
M  V30 388 N 50.2554 -1.46986 0.568584 0
M  V30 389 C 51.1854 -2.32946 -0.160753 0
M  V30 390 C 52.1664 -1.44487 -0.897631 0
M  V30 391 O 53.3514 -1.73327 -0.875867 0
M  V30 392 C 50.4814 -3.26494 -1.18403 0
M  V30 393 C 49.4354 -4.24282 -0.562895 0
M  V30 394 C 48.7614 -5.07236 -1.69163 0
M  V30 395 C 50.0614 -5.19989 0.490761 0
M  V30 396 H 51.7554 -2.94175 0.556916 0
M  V30 397 H 49.3014 -1.4146 0.26927 0
M  V30 398 H 51.2544 -3.85477 -1.70251 0
M  V30 399 H 49.9784 -2.63343 -1.93179 0
M  V30 400 H 48.6374 -3.66541 -0.0656164 0
M  V30 401 H 48.2854 -4.4048 -2.42871 0
M  V30 402 H 47.9854 -5.7345 -1.28174 0
M  V30 403 H 49.5094 -5.6908 -2.21314 0
M  V30 404 H 50.9234 -5.73271 0.0579047 0
M  V30 405 H 49.3204 -5.94469 0.820165 0
M  V30 406 H 50.3904 -4.64777 1.3824 0
M  V30 407 N 51.7335 -0.305618 -1.54608 0
M  V30 408 C 52.6655 0.602161 -2.21149 0
M  V30 409 C 53.6785 1.09394 -1.20569 0
M  V30 410 O 54.8675 1.0106 -1.47136 0
M  V30 411 C 51.9675 1.83692 -2.84799 0
M  V30 412 C 51.1405 1.48686 -4.11353 0
M  V30 413 C 50.1995 2.57725 -4.58764 0
M  V30 414 O 49.2255 2.22623 -5.23858 0
M  V30 415 N 50.4275 3.88346 -4.31471 0
M  V30 416 H 53.1925 0.0324966 -2.99682 0
M  V30 417 H 50.7535 -0.128021 -1.61393 0
M  V30 418 H 52.7455 2.55994 -3.13448 0
M  V30 419 H 51.3155 2.31486 -2.10078 0
M  V30 420 H 50.5355 0.596269 -3.89664 0
M  V30 421 H 51.8235 1.22842 -4.93748 0
M  V30 422 H 51.2215 4.19671 -3.79331 0
M  V30 423 H 49.7785 4.56932 -4.64818 0
M  V30 424 N 53.2116 1.57565 -0.0334293 0
M  V30 425 C 54.6276 1.56297 0.322997 0
M  V30 426 C 54.8276 1.03945 1.7262 0
M  V30 427 O 53.8836 0.688109 2.42943 0
M  V30 428 C 55.1966 3.00232 0.167664 0
M  V30 429 C 56.7446 3.12078 0.240107 0
M  V30 430 C 57.2196 4.57859 0.113513 0
M  V30 431 N 58.7106 4.62887 0.170359 0
M  V30 432 C 59.4456 5.73319 0.0962517 0
M  V30 433 N 58.9416 6.92794 -0.0291881 0
M  V30 434 N 60.7346 5.61898 0.150551 0
M  V30 435 H 52.8856 1.89923 -0.950956 0
M  V30 436 H 55.1486 0.873824 -0.367608 0
M  V30 437 H 54.8546 3.42501 -0.799102 0
M  V30 438 H 54.7286 3.654 0.936083 0
M  V30 439 H 57.1156 2.69718 1.19733 0
M  V30 440 H 57.1966 2.49623 -0.558763 0
M  V30 441 H 56.8406 5.009 -0.840314 0
M  V30 442 H 56.7706 5.18299 0.931302 0
M  V30 443 H 59.2616 3.76954 0.26728 0
M  V30 444 H 59.5746 7.7276 -0.0789252 0
M  V30 445 H 57.9196 6.94971 -0.0640299 0
M  V30 446 H 61.1106 4.67448 0.246981 0
M  V30 447 H 61.2836 6.47938 0.0893365 0
M  V30 448 N 54.6897 -0.239769 1.55765 0
M  V30 449 C 55.6527 -1.28038 1.90103 0
M  V30 450 C 56.6527 -1.40723 0.778055 0
M  V30 451 O 57.8427 -1.39301 1.04599 0
M  V30 452 C 54.9747 -2.65702 2.13577 0
M  V30 453 H 56.1677 -0.988048 2.83157 0
M  V30 454 H 53.7207 -0.479382 1.48767 0
M  V30 455 H 54.4557 -3.00063 1.23015 0
M  V30 456 H 54.2407 -2.57875 2.95369 0
M  V30 457 H 55.7307 -3.40828 2.41301 0
M  V30 458 N 56.1678 -1.49265 -0.50573 0
M  V30 459 C 57.5838 -1.35923 -0.836486 0
M  V30 460 C 57.7838 -0.388704 -1.97715 0
M  V30 461 O 56.8398 0.181336 -2.51848 0
M  V30 462 C 58.1528 -2.76531 -1.18115 0
M  V30 463 C 59.7008 -2.85197 -1.28964 0
M  V30 464 C 60.1758 -4.26561 -1.66761 0
M  V30 465 N 61.6668 -4.2935 -1.73819 0
M  V30 466 C 62.4018 -5.35693 -2.045 0
M  V30 467 N 61.8978 -6.52287 -2.33438 0
M  V30 468 N 63.6908 -5.23105 -2.05711 0
M  V30 469 H 55.8418 -2.10965 0.246519 0
M  V30 470 H 58.1048 -0.9468 0.0476887 0
M  V30 471 H 57.8108 -3.49226 -0.416398 0
M  V30 472 H 57.6848 -3.11599 -2.1257 0
M  V30 473 H 60.0718 -2.12742 -2.04511 0
M  V30 474 H 60.1528 -2.53718 -0.325704 0
M  V30 475 H 59.7968 -4.99541 -0.917656 0
M  V30 476 H 59.7268 -4.55502 -2.64246 0
M  V30 477 H 62.2178 -3.4526 -1.53635 0
M  V30 478 H 62.5308 -7.29158 -2.56024 0
M  V30 479 H 60.8758 -6.55521 -2.30905 0
M  V30 480 H 64.0668 -4.31026 -1.82577 0
M  V30 481 H 64.2398 -6.06078 -2.29289 0
M  V30 482 N 57.6459 0.756429 -1.3826 0
M  V30 483 C 58.5779 1.87971 -1.31147 0
M  V30 484 C 59.5909 1.61248 -0.224239 0
M  V30 485 O 60.7799 1.71881 -0.481581 0
M  V30 486 C 57.8799 3.23545 -1.00857 0
M  V30 487 C 57.0529 3.77794 -2.20432 0
M  V30 488 C 56.1119 4.91877 -1.86931 0
M  V30 489 O 55.1379 5.06659 -2.59395 0
M  V30 490 N 56.3399 5.74643 -0.822568 0
M  V30 491 H 59.1049 1.94585 -2.2794 0
M  V30 492 H 56.6659 0.936234 -1.32084 0
M  V30 493 H 58.6579 3.97403 -0.765021 0
M  V30 494 H 57.2279 3.12335 -0.128687 0
M  V30 495 H 56.4479 2.95534 -2.6087 0
M  V30 496 H 57.7359 4.10771 -3.00241 0
M  V30 497 H 57.1339 5.65266 -0.221575 0
M  V30 498 H 55.6909 6.48661 -0.638899 0
M  V30 499 N 59.124 1.23083 0.984299 0
M  V30 500 C 60.373 1.05466 1.71929 0
M  V30 501 C 60.686 -0.409211 1.91272 0
M  V30 502 O 61.892 -0.705226 2.62181 0
M  V30 503 C 60.348 1.83874 3.09384 0
M  V30 504 C 59.956 3.34566 2.97943 0
M  V30 505 C 61.7 1.74734 3.8687 0
M  V30 506 C 59.607 4.05381 4.30605 0
M  V30 507 H 58.537 0.391039 0.644674 0
M  V30 508 H 61.188 1.47013 1.09815 0
M  V30 509 H 59.57 1.35131 3.72231 0
M  V30 510 H 60.744 3.90767 2.44209 0
M  V30 511 H 59.059 3.44476 2.33934 0
M  V30 512 H 61.656 2.24957 4.85076 0
M  V30 513 H 61.999 0.709372 4.10212 0
M  V30 514 H 62.532 2.21067 3.30717 0
M  V30 515 H 59.271 5.09467 4.1246 0
M  V30 516 H 58.791 3.53967 4.84218 0
M  V30 517 H 60.47 4.11458 4.99311 0
M  V30 518 N 60.6021 -1.18246 1.0419 0
M  V30 519 C 61.5651 -2.20128 0.638452 0
M  V30 520 C 62.5651 -1.57885 -0.304805 0
M  V30 521 O 63.7551 -1.73967 -0.0900369 0
M  V30 522 C 60.8871 -3.4084 -0.0637751 0
M  V30 523 H 62.0801 -2.57336 1.54007 0
M  V30 524 H 59.6331 -1.32152 0.834598 0
M  V30 525 H 60.3681 -3.09166 -0.979136 0
M  V30 526 H 60.1531 -3.8726 0.614198 0
M  V30 527 H 61.6431 -4.16274 -0.332512 0
M  V30 528 N 62.0802 -0.821533 -1.34494 0
M  V30 529 C 63.0432 -0.247847 -2.27856 0
M  V30 530 C 64.0432 0.573453 -1.50227 0
M  V30 531 O 65.2332 0.389759 -1.69784 0
M  V30 532 C 62.3652 0.652698 -3.34593 0
M  V30 533 H 63.5582 -1.07146 -2.80107 0
M  V30 534 H 61.1112 -0.593291 -1.44602 0
M  V30 535 H 61.8462 1.49943 -2.87555 0
M  V30 536 H 61.6312 0.065292 -3.92046 0
M  V30 537 H 63.1212 1.04793 -4.04238 0
M  V30 538 N 63.5583 1.46682 -0.576371 0
M  V30 539 C 64.5053 2.30241 0.160499 0
M  V30 540 C 65.4753 1.40233 0.890162 0
M  V30 541 O 66.6603 1.69186 0.882084 0
M  V30 542 C 63.8003 3.24578 1.1723 0
M  V30 543 C 62.9133 4.29684 0.446736 0
M  V30 544 C 62.0483 5.11154 1.44551 0
M  V30 545 C 61.0873 6.08015 0.70599 0
M  V30 546 N 60.2243 6.82376 1.65251 0
M  V30 547 H 65.0643 2.92727 -0.558127 0
M  V30 548 H 62.6013 1.44272 -0.287056 0
M  V30 549 H 64.5593 3.77711 1.77172 0
M  V30 550 H 63.1893 2.63916 1.85872 0
M  V30 551 H 62.2413 3.79458 -0.267594 0
M  V30 552 H 63.5533 4.98626 -0.131686 0
M  V30 553 H 62.7073 5.68533 2.11791 0
M  V30 554 H 61.4463 4.42158 2.05786 0
M  V30 555 H 60.4513 5.49796 0.0197725 0
M  V30 556 H 61.6763 6.79028 0.09912 0
M  V30 557 H 59.6223 6.16094 2.25308 0
M  V30 558 H 59.5393 7.47556 1.12673 0
M  V30 559 H 60.8073 7.44316 2.31546 0
M  V30 560 N 65.0364 0.313813 1.54444 0
M  V30 561 C 66.2854 -0.292519 1.99568 0
M  V30 562 C 66.5984 -1.54011 1.20582 0
M  V30 563 O 67.8044 -2.22183 1.56035 0
M  V30 564 C 66.2604 -0.571752 3.55329 0
M  V30 565 C 65.8684 0.658229 4.43138 0
M  V30 566 C 67.6124 -1.13857 4.08946 0
M  V30 567 C 65.5194 0.351439 5.90355 0
M  V30 568 H 64.4494 -0.113079 0.745472 0
M  V30 569 H 67.1004 0.424518 1.78522 0
M  V30 570 H 65.4824 -1.34872 3.72325 0
M  V30 571 H 66.6564 1.43403 4.37918 0
M  V30 572 H 64.9714 1.14458 4.0036 0
M  V30 573 H 67.5684 -1.38257 5.16516 0
M  V30 574 H 67.9114 -2.08489 3.6033 0
M  V30 575 H 68.4444 -0.423015 3.95544 0
M  V30 576 H 65.1834 1.26667 6.43145 0
M  V30 577 H 64.7034 -0.386842 5.98551 0
M  V30 578 H 66.3824 -0.0423134 6.46986 0
M  V30 579 N 66.5145 -1.57545 0.0417849 0
M  V30 580 C 67.7625 -1.91937 -0.632829 0
M  V30 581 C 68.0835 -0.919978 -1.71934 0
M  V30 582 O 67.3535 0.0366064 -1.95866 0
M  V30 583 H 65.9335 -0.708493 -0.236742 0
M  V30 584 H 68.5955 -1.9468 0.0925745 0
M  V30 585 H 67.6915 -2.92912 -1.07746 0
M  V30 586 N 67.9926 0.231505 -1.5589 0
M  V30 587 C 69.2406 0.955461 -1.78088 0
M  V30 588 C 69.5616 1.85262 -0.608533 0
M  V30 589 O 68.8316 1.92277 0.375035 0
M  V30 590 H 67.4116 0.355787 -0.656829 0
M  V30 591 H 70.0736 0.245751 -1.93344 0
M  V30 592 H 69.1696 1.56814 -2.69844 0
M  V30 593 N 69.4707 1.49531 0.497807 0
M  V30 594 C 70.7477 1.49682 1.25915 0
M  V30 595 C 71.1277 0.226339 2.09883 0
M  V30 596 O 70.4757 -0.791189 2.14365 0
M  V30 597 C 70.6857 2.77755 2.11313 0
M  V30 598 C 72.0337 3.27371 2.70395 0
M  V30 599 O 73.0577 2.78894 2.21578 0
M  V30 600 O 71.9167 4.11808 3.59272 0
M  V30 601 H 69.0107 0.599228 0.56996 0
M  V30 602 H 71.5567 1.61798 0.511816 0
M  V30 603 H 70.3287 3.61713 1.49264 0
M  V30 604 H 69.9517 2.68515 2.93233 0
M  V30 605 N 70.9488 -0.749086 1.3866 0
M  V30 606 C 71.9118 -1.84457 1.36045 0
M  V30 607 C 72.9118 -1.58682 0.260122 0
M  V30 608 O 74.1018 -1.66343 0.517261 0
M  V30 609 C 71.2338 -3.22008 1.11911 0
M  V30 610 H 72.4268 -1.88182 2.33512 0
M  V30 611 H 69.9798 -0.951266 1.24019 0
M  V30 612 H 70.7148 -3.2395 0.150686 0
M  V30 613 H 70.4998 -3.42111 1.91579 0
M  V30 614 H 71.9898 -4.0208 1.12788 0
M  V30 615 N 72.4269 -1.23603 -0.977757 0
M  V30 616 C 73.6749 -1.06759 -1.71601 0
M  V30 617 C 73.9959 0.395929 -1.90938 0
M  V30 618 O 73.2659 1.28356 -1.47992 0
M  V30 619 H 71.8459 -0.392062 -0.635843 0
M  V30 620 H 74.5079 -1.55362 -1.1768 0
M  V30 621 H 73.6039 -1.55763 -2.70452 0
M  V30 622 N 73.905 1.17692 -1.04816 0
M  V30 623 C 75.133 1.91786 -0.776254 0
M  V30 624 C 75.548 1.76604 0.667577 0
M  V30 625 O 74.905 1.10067 1.45573 0
M  V30 626 C 74.956 3.42967 -1.14263 0
M  V30 627 O 74.677 3.57678 -2.52978 0
M  V30 628 C 76.178 4.34144 -0.896311 0
M  V30 629 H 73.398 0.608624 -0.282519 0
M  V30 630 H 75.942 1.49268 -1.39783 0
M  V30 631 H 74.097 3.83245 -0.565874 0
M  V30 632 H 74.511 4.51319 -2.67229 0
M  V30 633 H 75.985 5.38744 -1.20244 0
M  V30 634 H 76.462 4.38876 0.168636 0
M  V30 635 H 77.068 3.99574 -1.45672 0
M  V30 636 N 75.3831 0.828654 1.34056 0
M  V30 637 C 76.6081 0.431637 2.02859 0
M  V30 638 C 77.0331 -0.956339 1.61975 0
M  V30 639 O 76.3911 -1.62338 0.807228 0
M  V30 640 C 76.4391 0.548323 3.56407 0
M  V30 641 O 75.5431 -0.429556 4.10157 0
M  V30 642 H 74.8841 0.176886 0.640006 0
M  V30 643 H 77.4141 1.12066 1.71179 0
M  V30 644 H 77.4241 0.426196 4.05768 0
M  V30 645 H 76.0991 1.5606 3.8551 0
M  V30 646 H 74.6761 -0.265836 3.71951 0
M  V30 647 N 76.8612 -1.46375 0.584142 0
M  V30 648 C 77.7912 -2.33103 -0.136037 0
M  V30 649 C 78.7722 -1.45431 -0.882255 0
M  V30 650 O 79.9572 -1.74246 -0.857434 0
M  V30 651 C 77.0872 -3.27731 -1.14933 0
M  V30 652 C 76.0412 -4.24855 -0.517862 0
M  V30 653 C 75.3672 -5.09001 -1.63773 0
M  V30 654 C 76.6672 -5.19439 0.545886 0
M  V30 655 H 78.3612 -2.93568 0.588086 0
M  V30 656 H 75.9072 -1.41166 0.284259 0
M  V30 657 H 77.8602 -3.87261 -1.66153 0
M  V30 658 H 76.5842 -2.65377 -1.90375 0
M  V30 659 H 75.2432 -3.6659 -0.0267361 0
M  V30 660 H 74.8912 -4.43031 -2.38185 0
M  V30 661 H 74.5912 -5.74777 -1.22085 0
M  V30 662 H 76.1152 -5.71396 -2.15266 0
M  V30 663 H 77.5292 -5.73177 0.118704 0
M  V30 664 H 75.9262 -5.93566 0.88317 0
M  V30 665 H 76.9962 -4.63285 1.43162 0
M  V30 666 N 78.3393 -0.321999 -1.54275 0
M  V30 667 C 79.2873 0.560206 -2.25753 0
M  V30 668 C 80.2813 1.11984 -1.27106 0
M  V30 669 O 81.4873 1.06806 -1.44888 0
M  V30 670 H 77.8623 0.199304 -0.725108 0
M  V30 671 H 79.8333 -0.0649365 -2.98329 0
M  V30 672 C 78.5823 1.71023 -3.02731 0
M  V30 673 H 77.9053 1.28885 -3.78456 0
M  V30 674 H 79.3453 2.30314 -3.55993 0
M  V30 675 C 77.8043 2.62692 -2.10938 0
M  V30 676 O 78.3343 3.64364 -1.6912 0
M  V30 677 N 76.5403 2.30891 -1.76459 0
M  V30 678 H 76.0873 1.48253 -2.10663 0
M  V30 679 H 76.0453 2.92487 -1.1532 0
M  V30 680 N 79.8174 1.5752 -0.0501392 0
M  V30 681 C 81.0424 1.97376 0.636997 0
M  V30 682 C 81.4674 0.927466 1.63645 0
M  V30 683 O 80.8254 -0.10941 1.8097 0
M  V30 684 C 80.8734 3.36304 1.30123 0
M  V30 685 O 79.9774 3.34156 2.41689 0
M  V30 686 H 79.3184 0.642998 0.165679 0
M  V30 687 H 81.8484 2.04258 -0.118233 0
M  V30 688 H 81.8584 3.73008 1.65315 0
M  V30 689 H 80.5334 4.11993 0.568746 0
M  V30 690 H 79.1104 3.09196 2.08451 0
M  V30 691 N 81.2955 -0.223234 1.56011 0
M  V30 692 C 82.2435 -1.29627 1.93131 0
M  V30 693 C 83.2375 -1.48608 0.813146 0
M  V30 694 O 84.4435 -1.49802 0.997966 0
M  V30 695 H 80.8185 -0.434563 0.613726 0
M  V30 696 H 82.7895 -0.955995 2.82672 0
M  V30 697 C 81.5385 -2.63983 2.26292 0
M  V30 698 H 80.8615 -2.50185 3.11846 0
M  V30 699 H 82.3015 -3.3788 2.56151 0
M  V30 700 C 80.7605 -3.18866 1.08747 0
M  V30 701 O 81.2905 -4.00192 0.347727 0
M  V30 702 N 79.4965 -2.77217 0.871743 0
M  V30 703 H 79.0435 -2.1119 1.47501 0
M  V30 704 H 79.0015 -3.1428 0.0869905 0
M  V30 705 N 82.7736 -1.49793 -0.48987 0
M  V30 706 C 84.0506 -1.50348 -1.25119 0
M  V30 707 C 84.4306 -0.237466 -2.0976 0
M  V30 708 O 83.7786 0.77981 -2.14782 0
M  V30 709 C 83.9886 -2.78872 -2.09837 0
M  V30 710 C 85.3366 -3.288 -2.68655 0
M  V30 711 O 86.3606 -2.80065 -2.20096 0
M  V30 712 O 85.2196 -4.13707 -3.57083 0
M  V30 713 H 82.3136 -0.602242 -0.566775 0
M  V30 714 H 84.8596 -1.62067 -0.503229 0
M  V30 715 H 83.6316 -3.62499 -1.47343 0
M  V30 716 H 83.2546 -2.70066 -2.91805 0
M  V30 717 N 84.2517 0.741722 -1.39055 0
M  V30 718 C 85.4817 1.52876 -1.3897 0
M  V30 719 C 85.8897 1.8919 0.0193266 0
M  V30 720 O 85.2327 1.54138 0.999356 0
M  V30 721 C 85.2947 2.84929 -2.19216 0
M  V30 722 C 84.9587 2.71086 -3.67915 0
M  V30 723 C 85.9557 2.40084 -4.61146 0
M  V30 724 C 83.6407 2.88168 -4.11418 0
M  V30 725 C 85.6347 2.26335 -5.95862 0
M  V30 726 C 83.3217 2.74037 -5.46211 0
M  V30 727 C 84.3197 2.43166 -6.38247 0
M  V30 728 O 84.0077 2.29115 -7.70559 0
M  V30 729 H 83.7397 0.479252 -0.476753 0
M  V30 730 H 86.2937 0.924751 -1.83405 0
M  V30 731 H 84.5237 3.47564 -1.69518 0
M  V30 732 H 86.2127 3.46509 -2.11392 0
M  V30 733 H 86.9787 2.26545 -4.28838 0
M  V30 734 H 82.8577 3.11191 -3.40119 0
M  V30 735 H 86.4017 2.0216 -6.67665 0
M  V30 736 H 82.2987 2.87153 -5.78112 0
M  V30 737 H 83.0667 2.44237 -7.81211 0
M  V30 738 N 85.7298 1.2412 0.971189 0
M  V30 739 C 86.9778 1.07668 1.71032 0
M  V30 740 C 87.2988 -0.385797 1.91146 0
M  V30 741 O 86.5688 -1.27569 1.4867 0
M  V30 742 H 85.1488 0.395429 0.633755 0
M  V30 743 H 87.8108 1.55984 1.16855 0
M  V30 744 H 86.9068 1.57195 2.69622 0
M  V30 745 N 87.2079 -1.17134 1.05439 0
M  V30 746 C 88.4379 -1.91094 0.785274 0
M  V30 747 C 88.8459 -1.77198 -0.663142 0
M  V30 748 O 88.1889 -1.10835 -1.46497 0
M  V30 749 C 88.2509 -3.42594 1.08949 0
M  V30 750 C 87.9149 -3.80274 2.53458 0
M  V30 751 C 88.9119 -3.82912 3.51673 0
M  V30 752 C 86.5969 -4.11162 2.88532 0
M  V30 753 C 88.5909 -4.15913 4.83006 0
M  V30 754 C 86.2779 -4.43831 4.20068 0
M  V30 755 C 87.2759 -4.46185 5.17115 0
M  V30 756 O 86.9639 -4.78083 6.46291 0
M  V30 757 H 86.6959 -0.613073 0.284811 0
M  V30 758 H 89.2499 -1.49461 1.40893 0
M  V30 759 H 87.4799 -3.84534 0.408741 0
M  V30 760 H 89.1689 -3.97817 0.805991 0
M  V30 761 H 89.9349 -3.5917 3.25917 0
M  V30 762 H 85.8139 -4.085 2.13656 0
M  V30 763 H 89.3579 -4.17665 5.5875 0
M  V30 764 H 85.2549 -4.67037 4.45586 0
M  V30 765 H 86.0229 -4.9593 6.51149 0
M  V30 766 N 88.686 -0.835752 -1.33615 0
M  V30 767 C 89.934 -0.429109 -1.97492 0
M  V30 768 C 90.255 1.01433 -1.66543 0
M  V30 769 O 89.525 1.70611 -0.962744 0
M  V30 770 H 88.105 -0.155686 -0.730596 0
M  V30 771 H 90.767 -1.06802 -1.63031 0
M  V30 772 H 89.863 -0.55861 -3.0706 0
M  V30 773 N 90.1641 1.46063 -0.591896 0
M  V30 774 C 91.4121 2.01938 -0.0808391 0
M  V30 775 C 91.7331 1.46475 1.28725 0
M  V30 776 O 91.0031 0.652944 1.84698 0
M  V30 777 H 89.5831 0.746516 -0.0268938 0
M  V30 778 H 92.2451 1.79055 -0.769752 0
M  V30 779 H 91.3411 3.12094 -0.0187578 0
M  V30 780 N 91.6422 0.330177 1.54103 0
M  V30 781 C 92.5742 -0.566902 2.22079 0
M  V30 782 C 93.5872 -1.07462 1.22294 0
M  V30 783 O 94.7762 -0.987065 1.48726 0
M  V30 784 C 91.8762 -1.79138 2.87685 0
M  V30 785 C 91.0492 -1.42123 4.13666 0
M  V30 786 C 90.1082 -2.50394 4.62806 0
M  V30 787 O 89.1342 -2.14261 5.27334 0
M  V30 788 N 90.3362 -3.81433 4.37595 0
M  V30 789 H 93.1012 0.0151844 2.99696 0
M  V30 790 H 90.6622 0.153681 1.61169 0
M  V30 791 H 92.6542 -2.50975 3.1748 0
M  V30 792 H 91.2242 -2.28115 2.13734 0
M  V30 793 H 90.4442 -0.534201 3.90564 0
M  V30 794 H 91.7322 -1.14971 4.9564 0
M  V30 795 H 91.1302 -4.13584 3.8596 0
M  V30 796 H 89.6872 -4.4948 4.72029 0
M  V30 797 N 93.1203 -1.57491 0.0584922 0
M  V30 798 C 94.0673 -2.11958 -0.913376 0
M  V30 799 C 95.0373 -1.02875 -1.30407 0
M  V30 800 O 96.2223 -1.30464 -1.39226 0
M  V30 801 C 93.3623 -2.67497 -2.18035 0
M  V30 802 C 92.4753 -3.90691 -1.84349 0
M  V30 803 C 91.6103 -4.3452 -3.05559 0
M  V30 804 C 90.6493 -5.50395 -2.67827 0
M  V30 805 N 89.7863 -5.89244 -3.81754 0
M  V30 806 H 94.6263 -2.94704 -0.442017 0
M  V30 807 H 92.1633 -1.45643 -0.206545 0
M  V30 808 H 94.1213 -2.978 -2.92183 0
M  V30 809 H 92.7513 -1.87537 -2.62735 0
M  V30 810 H 91.8033 -3.66934 -1.00319 0
M  V30 811 H 93.1153 -4.7489 -1.5258 0
M  V30 812 H 92.2693 -4.66414 -3.87998 0
M  V30 813 H 91.0083 -3.49147 -3.40511 0
M  V30 814 H 90.0133 -5.18165 -1.83806 0
M  V30 815 H 91.2383 -6.3749 -2.34059 0
M  V30 816 H 89.1843 -5.06823 -4.16493 0
M  V30 817 H 89.1013 -6.68151 -3.53708 0
M  V30 818 H 90.3693 -6.25756 -4.64811 0
M  V30 819 N 94.5984 0.214957 -1.56127 0
M  V30 820 C 96.0144 0.564948 -1.49267 0
M  V30 821 C 96.2144 1.86827 -0.754838 0
M  V30 822 O 95.2704 2.50745 -0.297198 0
M  V30 823 C 96.5834 0.638071 -2.93852 0
M  V30 824 C 98.1314 0.728253 -3.0441 0
M  V30 825 C 98.6064 0.832663 -4.50367 0
M  V30 826 N 100.097 0.896712 -4.54437 0
M  V30 827 C 100.832 0.997324 -5.6466 0
M  V30 828 N 100.328 1.06147 -6.8462 0
M  V30 829 N 102.121 1.03297 -5.52527 0
M  V30 830 H 94.2724 -0.640211 -2.02522 0
M  V30 831 H 96.5354 -0.225507 -0.920788 0
M  V30 832 H 96.2414 -0.250126 -3.50809 0
M  V30 833 H 96.1154 1.49947 -3.46115 0
M  V30 834 H 98.5024 1.60689 -2.47514 0
M  V30 835 H 98.5834 -0.158952 -2.55306 0
M  V30 836 H 98.2274 -0.0415417 -5.07883 0
M  V30 837 H 98.1574 1.73538 -4.97184 0
M  V30 838 H 100.648 0.857188 -3.6805 0
M  V30 839 H 100.961 1.1382 -7.64372 0
M  V30 840 H 99.3064 1.03049 -6.87318 0
M  V30 841 H 102.497 0.979558 -4.57736 0
M  V30 842 H 102.67 1.10793 -6.38458 0
M  V30 843 N 96.0765 1.50051 0.48192 0
M  V30 844 C 97.4875 1.5348 1.06305 0
M  V30 845 C 97.8385 0.331997 1.93371 0
M  V30 846 O 96.9635 -0.556256 2.09129 0
M  V30 847 C 97.5585 2.7813 1.93466 0
M  V30 848 C 96.1175 2.84275 2.46707 0
M  V30 849 C 95.2645 2.47637 1.24785 0
M  V30 850 H 98.2155 1.56472 0.264995 0
M  V30 851 H 98.2365 2.59372 2.78399 0
M  V30 852 H 97.7485 3.65654 1.30072 0
M  V30 853 H 95.8495 2.01077 3.13686 0
M  V30 854 H 95.9625 3.8691 2.82555 0
M  V30 855 H 94.3265 1.99835 1.57918 0
M  V30 856 H 95.1095 3.37457 0.630694 0
M  V30 857 N 97.5546 -0.734337 1.39446 0
M  V30 858 C 98.4846 -1.86155 1.40955 0
M  V30 859 C 99.4656 -1.67898 0.272827 0
M  V30 860 O 100.651 -1.88207 0.478743 0
M  V30 861 C 97.7806 -3.23912 1.25294 0
M  V30 862 C 96.7346 -3.56808 2.36373 0
M  V30 863 C 96.0606 -4.93508 2.058 0
M  V30 864 C 97.3606 -3.59713 3.78687 0
M  V30 865 H 99.0546 -1.8515 2.35287 0
M  V30 866 H 96.6006 -0.889367 1.13253 0
M  V30 867 H 98.5536 -4.02443 1.2497 0
M  V30 868 H 97.2776 -3.25446 0.274308 0
M  V30 869 H 95.9366 -2.80606 2.35914 0
M  V30 870 H 95.5846 -4.91623 1.06374 0
M  V30 871 H 95.2846 -5.16486 2.80208 0
M  V30 872 H 96.8086 -5.74396 2.07128 0
M  V30 873 H 98.2226 -4.2832 3.81071 0
M  V30 874 H 96.6196 -3.94209 4.52459 0
M  V30 875 H 97.6896 -2.59504 4.09617 0
M  V30 876 N 99.0327 -1.24633 -0.964593 0
M  V30 877 C 99.9427 -1.05859 -2.09359 0
M  V30 878 C 100.959 0.00148855 -1.74 0
M  V30 879 O 102.135 -0.197346 -2.00431 0
M  V30 880 C 99.1997 -0.668879 -3.40187 0
M  V30 881 C 98.2607 -1.80578 -3.89474 0
M  V30 882 C 97.4937 -1.43457 -5.14058 0
M  V30 883 O 97.7167 -0.325775 -5.69469 0
M  V30 884 O 96.6507 -2.2613 -5.57807 0
M  V30 885 H 100.477 -2.00516 -2.28094 0
M  V30 886 H 98.0617 -1.03481 -1.0776 0
M  V30 887 H 99.9437 -0.463211 -4.18846 0
M  V30 888 H 98.6187 0.248536 -3.22744 0
M  V30 889 H 97.5257 -2.06623 -3.11862 0
M  V30 890 H 98.8587 -2.70208 -4.11398 0
M  V30 891 N 100.511 1.16574 -1.06058 0
M  V30 892 C 101.788 1.83048 -0.689416 0
M  V30 893 C 102.168 1.94122 0.829443 0
M  V30 894 O 101.516 1.48249 1.7388 0
M  V30 895 C 101.726 3.20186 -1.38859 0
M  V30 896 C 103.074 3.95989 -1.53226 0
M  V30 897 O 104.098 3.29696 -1.3483 0
M  V30 898 O 102.957 5.14813 -1.83384 0
M  V30 899 H 100.051 0.790258 -0.243764 0
M  V30 900 H 102.597 1.23797 -1.16071 0
M  V30 901 H 101.369 3.07146 -2.4244 0
M  V30 902 H 100.992 3.87112 -0.907216 0
M  V30 903 N 101.989 0.842826 1.3317 0
M  V30 904 C 103.237 0.439577 1.97262 0
M  V30 905 C 103.558 -1.00548 1.67078 0
M  V30 906 O 102.828 -1.70098 0.971779 0
M  V30 907 H 101.408 0.159558 0.72976 0
M  V30 908 H 104.07 1.07665 1.62463 0
M  V30 909 H 103.166 0.574886 3.0676 0
M  V30 910 N 103.467 -1.45747 0.599634 0
M  V30 911 C 104.744 -1.95585 0.0240846 0
M  V30 912 C 105.124 -1.54217 -1.44154 0
M  V30 913 O 104.472 -0.800903 -2.14004 0
M  V30 914 C 104.682 -3.48344 0.21385 0
M  V30 915 C 106.03 -4.24504 0.0904902 0
M  V30 916 O 107.054 -3.55911 0.143558 0
M  V30 917 O 105.913 -5.46491 -0.0310766 0
M  V30 918 H 103.007 -0.82602 -0.0402478 0
M  V30 919 H 105.553 -1.55951 0.669139 0
M  V30 920 H 104.325 -3.71397 1.23206 0
M  V30 921 H 103.948 -3.9485 -0.466842 0
M  V30 922 N 104.945 -0.338344 -1.53925 0
M  V30 923 C 105.877 0.555117 -2.22376 0
M  V30 924 C 106.89 1.06812 -1.22862 0
M  V30 925 O 108.079 0.979163 -1.49247 0
M  V30 926 C 105.179 1.77609 -2.88631 0
M  V30 927 C 104.352 1.39927 -4.14414 0
M  V30 928 C 103.411 2.47936 -4.64127 0
M  V30 929 O 102.437 2.11461 -5.28463 0
M  V30 930 N 103.639 3.79107 -4.39612 0
M  V30 931 H 106.404 -0.0310778 -2.99684 0
M  V30 932 H 103.965 -0.162226 -1.61085 0
M  V30 933 H 105.957 2.49287 -3.18807 0
M  V30 934 H 104.527 2.26978 -2.14941 0
M  V30 935 H 103.747 0.513481 -3.90841 0
M  V30 936 H 105.035 1.12341 -4.96243 0
M  V30 937 H 104.433 4.11531 -3.88148 0
M  V30 938 H 102.99 4.4697 -4.74406 0
M  V30 939 N 106.423 1.57458 -0.0668435 0
M  V30 940 C 107.834 1.80776 0.466558 0
M  V30 941 C 108.185 0.980361 1.69951 0
M  V30 942 O 107.31 0.201441 2.1546 0
M  V30 943 C 107.905 3.27881 0.85321 0
M  V30 944 C 106.464 3.52062 1.3315 0
M  V30 945 C 105.611 2.75513 0.314264 0
M  V30 946 H 108.562 1.5598 -0.292588 0
M  V30 947 H 108.583 3.39659 1.715 0
M  V30 948 H 108.095 3.88075 -0.0443439 0
M  V30 949 H 106.196 2.97167 2.24772 0
M  V30 950 H 106.309 4.60762 1.31285 0
M  V30 951 H 104.673 2.42123 0.790492 0
M  V30 952 H 105.456 3.38442 -0.575477 0
M  V30 953 N 107.901 -0.206675 1.56239 0
M  V30 954 C 109.178 -0.954051 1.70755 0
M  V30 955 C 109.558 -2.01841 0.618353 0
M  V30 956 O 108.906 -2.25444 -0.372434 0
M  V30 957 C 109.116 -1.551 3.12642 0
M  V30 958 C 110.464 -2.03757 3.72516 0
M  V30 959 O 111.488 -1.64965 3.15698 0
M  V30 960 O 110.347 -2.75103 4.72208 0
M  V30 961 H 107.441 -0.446636 0.696021 0
M  V30 962 H 109.987 -0.197283 1.68549 0
M  V30 963 H 108.759 -0.783212 3.83382 0
M  V30 964 H 108.382 -2.37291 3.19028 0
M  V30 965 N 109.379 -1.50304 -0.473955 0
M  V30 966 C 110.342 -1.6841 -1.55469 0
M  V30 967 C 111.342 -0.554905 -1.50922 0
M  V30 968 O 112.532 -0.821882 -1.53593 0
M  V30 969 C 109.664 -1.70667 -2.95102 0
M  V30 970 H 110.857 -2.64828 -1.40733 0
M  V30 971 H 108.41 -1.39742 -0.700132 0
M  V30 972 H 109.145 -0.75932 -3.15285 0
M  V30 973 H 108.93 -2.52698 -2.9981 0
M  V30 974 H 110.42 -1.8664 -3.73571 0
M  V30 975 N 110.857 0.726932 -1.39834 0
M  V30 976 C 111.804 1.841 -1.39197 0
M  V30 977 C 112.774 1.642 -0.250502 0
M  V30 978 O 113.959 1.85494 -0.446846 0
M  V30 979 C 111.099 3.21697 -1.24919 0
M  V30 980 C 110.212 3.53247 -2.48678 0
M  V30 981 C 109.347 4.80289 -2.26928 0
M  V30 982 C 108.386 5.04707 -3.4632 0
M  V30 983 N 107.523 6.22956 -3.23836 0
M  V30 984 H 112.363 1.83979 -2.34427 0
M  V30 985 H 109.9 0.898876 -1.16442 0
M  V30 986 H 111.858 4.01137 -1.1465 0
M  V30 987 H 110.488 3.21076 -0.333153 0
M  V30 988 H 109.54 2.68447 -2.69519 0
M  V30 989 H 110.852 3.67205 -3.37582 0
M  V30 990 H 110.006 5.67725 -2.13947 0
M  V30 991 H 108.745 4.68519 -1.35431 0
M  V30 992 H 107.75 4.1573 -3.5979 0
M  V30 993 H 108.975 5.18357 -4.38729 0
M  V30 994 H 106.921 6.12459 -2.35011 0
M  V30 995 H 106.838 6.37539 -4.063 0
M  V30 996 H 108.106 7.1321 -3.14566 0
M  V30 997 N 112.336 1.25143 0.95797 0
M  V30 998 C 113.283 1.05235 2.05412 0
M  V30 999 C 114.253 -0.0374561 1.66058 0
M  V30 1000 O 115.438 0.119073 1.90428 0
M  V30 1001 C 112.578 0.673589 3.38462 0
M  V30 1002 C 111.691 1.8379 3.90954 0
M  V30 1003 C 110.826 1.40381 5.12315 0
M  V30 1004 C 109.865 2.53746 5.57027 0
M  V30 1005 N 109.002 2.11136 6.69601 0
M  V30 1006 H 113.842 1.99048 2.21774 0
M  V30 1007 H 111.379 0.991277 1.08683 0
M  V30 1008 H 113.337 0.434964 4.14926 0
M  V30 1009 H 111.967 -0.227554 3.21997 0
M  V30 1010 H 111.019 2.18992 3.11041 0
M  V30 1011 H 112.331 2.68937 4.20089 0
M  V30 1012 H 111.485 1.12464 5.96185 0
M  V30 1013 H 110.224 0.523015 4.84887 0
M  V30 1014 H 109.229 2.82412 4.71724 0
M  V30 1015 H 110.454 3.42398 5.86464 0
M  V30 1016 H 108.4 1.25468 6.4389 0
M  V30 1017 H 108.317 2.89832 6.98236 0
M  V30 1018 H 109.585 1.86385 7.56889 0
M  V30 1019 N 113.814 -1.1601 1.06675 0
M  V30 1020 C 115.06 -1.86909 0.786945 0
M  V30 1021 C 115.393 -1.81717 -0.685018 0
M  V30 1022 O 114.668 -1.23551 -1.50218 0
M  V30 1023 C 114.951 -3.36313 1.28707 0
M  V30 1024 C 114.804 -3.50175 2.82308 0
M  V30 1025 C 116.123 -4.3084 0.898071 0
M  V30 1026 H 113.242 -0.678677 0.287343 0
M  V30 1027 H 115.884 -1.36336 1.32334 0
M  V30 1028 H 114.034 -3.79513 0.830768 0
M  V30 1029 H 115.706 -3.15886 3.36175 0
M  V30 1030 H 113.949 -2.91959 3.20847 0
M  V30 1031 H 114.62 -4.55116 3.12368 0
M  V30 1032 H 117.096 -3.95561 1.29114 0
M  V30 1033 H 115.972 -5.33876 1.27543 0
M  V30 1034 H 116.233 -4.41662 -0.196651 0
M  V30 1035 N 115.292 -0.849877 -1.32721 0
M  V30 1036 C 116.255 -0.296122 -2.27279 0
M  V30 1037 C 117.255 0.541458 -1.5141 0
M  V30 1038 O 118.445 0.353658 -1.70572 0
M  V30 1039 C 115.577 0.581579 -3.35902 0
M  V30 1040 H 116.77 -1.13064 -2.77771 0
M  V30 1041 H 114.323 -0.62383 -1.43311 0
M  V30 1042 H 115.058 1.43809 -2.9067 0
M  V30 1043 H 114.843 -0.0178814 -3.92096 0
M  V30 1044 H 116.333 0.961951 -4.0637 0
M  V30 1045 N 116.77 1.45427 -0.607355 0
M  V30 1046 C 118.181 1.85756 -0.187535 0
M  V30 1047 C 118.532 1.5077 1.25551 0
M  V30 1048 O 117.657 0.93427 1.95193 0
M  V30 1049 C 118.252 3.37154 -0.333572 0
M  V30 1050 C 116.811 3.76387 0.0315542 0
M  V30 1051 C 115.958 2.69377 -0.658117 0
M  V30 1052 H 118.909 1.36231 -0.81405 0
M  V30 1053 H 118.93 3.78014 0.43428 0
M  V30 1054 H 118.442 3.62586 -1.38393 0
M  V30 1055 H 116.543 3.56571 1.0811 0
M  V30 1056 H 116.656 4.77731 -0.361935 0
M  V30 1057 H 115.02 2.5452 -0.0957873 0
M  V30 1058 H 115.803 2.97646 -1.7106 0
M  V30 1059 N 118.248 0.346503 1.53744 0
M  V30 1060 C 119.18 -0.543316 2.22667 0
M  V30 1061 C 120.193 -1.06159 1.23427 0
M  V30 1062 O 121.382 -0.971235 1.49764 0
M  V30 1063 C 118.482 -1.76076 2.89569 0
M  V30 1064 C 117.655 -1.37727 4.15151 0
M  V30 1065 C 116.714 -2.45471 4.65436 0
M  V30 1066 O 115.74 -2.08655 5.29577 0
M  V30 1067 N 116.942 -3.7677 4.41616 0
M  V30 1068 H 119.707 0.0469703 2.99663 0
M  V30 1069 H 117.268 0.170766 1.60997 0
M  V30 1070 H 119.26 -2.47593 3.20125 0
M  V30 1071 H 117.83 -2.25835 2.16142 0
M  V30 1072 H 117.05 -0.492746 3.91108 0
M  V30 1073 H 118.338 -1.09708 4.96832 0
M  V30 1074 H 117.736 -4.09467 3.90325 0
M  V30 1075 H 116.293 -4.44448 4.7677 0
M  V30 1076 N 119.726 -1.57421 0.075193 0
M  V30 1077 C 120.674 -2.14124 -0.908508 0
M  V30 1078 C 121.668 -1.07898 -1.30592 0
M  V30 1079 O 122.874 -1.26273 -1.28277 0
M  V30 1080 H 119.249 -0.684707 -0.310935 0
M  V30 1081 H 121.22 -2.95634 -0.405374 0
M  V30 1082 C 119.969 -2.72044 -2.16535 0
M  V30 1083 H 119.292 -3.53456 -1.86839 0
M  V30 1084 H 120.732 -3.15311 -2.83469 0
M  V30 1085 C 119.191 -1.66968 -2.92615 0
M  V30 1086 O 119.721 -1.0967 -3.86439 0
M  V30 1087 N 117.927 -1.37923 -2.55784 0
M  V30 1088 H 117.474 -1.84706 -1.79559 0
M  V30 1089 H 117.432 -0.67852 -3.06991 0
M  V30 1090 N 121.204 0.198386 -1.56346 0
M  V30 1091 C 122.481 0.944982 -1.71258 0
M  V30 1092 C 122.861 2.0151 -0.629048 0
M  V30 1093 O 122.209 2.25639 0.360473 0
M  V30 1094 C 122.419 1.5344 -3.1346 0
M  V30 1095 C 123.767 2.01778 -3.73591 0
M  V30 1096 O 124.791 1.63288 -3.16568 0
M  V30 1097 O 123.65 2.72594 -4.73661 0
M  V30 1098 H 120.744 0.442939 -0.69838 0
M  V30 1099 H 123.29 0.188342 -1.68652 0
M  V30 1100 H 122.062 0.762869 -3.83792 0
M  V30 1101 H 121.685 2.35596 -3.20282 0
M  V30 1102 N 122.682 1.50554 0.465978 0
M  V30 1103 C 123.907 1.65838 1.24549 0
M  V30 1104 C 124.332 0.343486 1.84937 0
M  V30 1105 O 123.69 -0.69324 1.67523 0
M  V30 1106 C 123.738 2.75533 2.32624 0
M  V30 1107 O 122.842 2.37142 3.37398 0
M  V30 1108 H 122.183 0.553893 0.366194 0
M  V30 1109 H 124.713 1.96959 0.553927 0
M  V30 1110 H 124.723 2.98763 2.77857 0
M  V30 1111 H 123.398 3.70962 1.88043 0
M  V30 1112 H 121.975 2.24377 2.97841 0
M  V30 1113 N 124.16 -0.719506 1.40217 0
M  V30 1114 C 125.407 -1.47933 1.38283 0
M  V30 1115 C 125.735 -1.94493 -0.0161536 0
M  V30 1116 O 124.99 -1.68224 -0.999956 0
M  V30 1117 C 125.289 -2.72271 2.31524 0
M  V30 1118 C 124.955 -2.44496 3.78857 0
M  V30 1119 C 123.617 -2.36631 4.18998 0
M  V30 1120 C 125.969 -2.21104 4.71977 0
M  V30 1121 C 123.297 -2.03437 5.503 0
M  V30 1122 C 125.649 -1.89423 6.03574 0
M  V30 1123 C 124.313 -1.80038 6.42762 0
M  V30 1124 H 123.583 -0.541325 0.506012 0
M  V30 1125 H 126.23 -0.824502 1.72842 0
M  V30 1126 H 124.535 -3.42572 1.90137 0
M  V30 1127 H 126.232 -3.30348 2.27313 0
M  V30 1128 H 122.822 -2.51503 3.47051 0
M  V30 1129 H 127.006 -2.26139 4.41786 0
M  V30 1130 H 122.262 -1.94705 5.79569 0
M  V30 1131 H 126.436 -1.70336 6.75247 0
M  V30 1132 H 124.063 -1.54083 7.44421 0
M  V30 1133 N 125.638 -1.25649 -0.95132 0
M  V30 1134 C 126.886 -1.10375 -1.69298 0
M  V30 1135 C 127.207 0.355339 -1.91735 0
M  V30 1136 O 126.477 1.25188 -1.50681 0
M  V30 1137 H 125.057 -0.405461 -0.627384 0
M  V30 1138 H 127.719 -1.57823 -1.14358 0
M  V30 1139 H 126.815 -1.61465 -2.67087 0
M  V30 1140 N 127.117 1.15442 -1.07289 0
M  V30 1141 C 128.345 1.90096 -0.81676 0
M  V30 1142 C 128.76 1.7798 0.629966 0
M  V30 1143 O 128.117 1.1313 1.43206 0
M  V30 1144 C 128.168 3.40466 -1.21512 0
M  V30 1145 O 127.889 3.52232 -2.60508 0
M  V30 1146 C 129.39 4.32145 -0.988198 0
M  V30 1147 H 126.61 0.602495 -0.295366 0
M  V30 1148 H 129.154 1.4627 -1.42918 0
M  V30 1149 H 127.309 3.81958 -0.647039 0
M  V30 1150 H 127.723 4.45549 -2.76742 0
M  V30 1151 H 129.197 5.36072 -1.31645 0
M  V30 1152 H 129.674 4.39135 0.0755063 0
M  V30 1153 H 130.28 3.96395 -1.54115 0
M  V30 1154 N 128.595 0.856903 1.32268 0
M  V30 1155 C 129.527 0.260412 2.27716 0
M  V30 1156 C 130.54 -0.569137 1.52528 0
M  V30 1157 O 131.729 -0.39326 1.74114 0
M  V30 1158 C 128.829 -0.650477 3.32599 0
M  V30 1159 C 128.002 0.14372 4.37164 0
M  V30 1160 C 127.061 -0.69328 5.21613 0
M  V30 1161 O 126.087 -0.12599 5.69061 0
M  V30 1162 N 127.289 -2.00761 5.44679 0
M  V30 1163 H 130.054 1.08059 2.79541 0
M  V30 1164 H 127.615 0.717103 1.45152 0
M  V30 1165 H 129.607 -1.21581 3.86005 0
M  V30 1166 H 128.177 -1.37133 2.80915 0
M  V30 1167 H 127.397 0.890486 3.8401 0
M  V30 1168 H 128.685 0.68915 5.04111 0
M  V30 1169 H 128.083 -2.49181 5.07863 0
M  V30 1170 H 126.64 -2.52103 6.01072 0
M  V30 1171 N 130.073 -1.45103 0.615059 0
M  V30 1172 C 131.003 -2.33339 -0.0865619 0
M  V30 1173 C 131.984 -1.4727 -0.851209 0
M  V30 1174 O 133.169 -1.76026 -0.820281 0
M  V30 1175 C 130.299 -3.30095 -1.07956 0
M  V30 1176 C 129.253 -4.25858 -0.427628 0
M  V30 1177 C 128.579 -5.12361 -1.5294 0
M  V30 1178 C 129.879 -5.18165 0.655944 0
M  V30 1179 H 131.573 -2.92254 0.650224 0
M  V30 1180 H 129.119 -1.40532 0.314138 0
M  V30 1181 H 131.072 -3.90698 -1.57901 0
M  V30 1182 H 129.796 -2.69355 -1.84703 0
M  V30 1183 H 128.455 -3.66564 0.0510292 0
M  V30 1184 H 128.103 -4.47984 -2.28734 0
M  V30 1185 H 127.803 -5.77238 -1.09865 0
M  V30 1186 H 129.327 -5.75833 -2.03098 0
M  V30 1187 H 130.741 -5.72796 0.240257 0
M  V30 1188 H 129.138 -5.91559 1.00888 0
M  V30 1189 H 130.208 -4.60144 1.52957 0
M  V30 1190 N 131.551 -0.354651 -1.53558 0
M  V30 1191 C 132.962 0.126902 -1.86268 0
M  V30 1192 C 133.313 1.49075 -1.27558 0
M  V30 1193 O 132.438 2.08105 -0.5934 0
M  V30 1194 C 133.033 0.237046 -3.3797 0
M  V30 1195 C 131.592 0.662842 -3.70518 0
M  V30 1196 C 130.739 -0.196652 -2.76602 0
M  V30 1197 H 133.69 -0.573849 -1.47962 0
M  V30 1198 H 133.711 1.06259 -3.65362 0
M  V30 1199 H 133.223 -0.755725 -3.80671 0
M  V30 1200 H 131.324 1.66424 -3.33367 0
M  V30 1201 H 131.437 0.445034 -4.77029 0
M  V30 1202 H 129.801 0.332763 -2.52517 0
M  V30 1203 H 130.584 -1.18676 -3.22135 0
M  V30 1204 N 133.029 1.57378 -0.0835403 0
M  V30 1205 C 134.44 1.81261 0.447358 0
M  V30 1206 C 134.791 0.998331 1.68902 0
M  V30 1207 O 133.916 0.224282 2.15235 0
M  V30 1208 C 134.511 3.28767 0.818386 0
M  V30 1209 C 133.07 3.53455 1.29409 0
M  V30 1210 C 132.217 2.75831 0.285024 0
M  V30 1211 H 135.168 1.5566 -0.309115 0
M  V30 1212 H 135.189 3.41459 1.67887 0
M  V30 1213 H 134.701 3.88006 -0.0855019 0
M  V30 1214 H 132.802 2.99534 2.21608 0
M  V30 1215 H 132.915 4.62128 1.2639 0
M  V30 1216 H 131.279 2.42947 0.764767 0
M  V30 1217 H 132.062 3.37813 -0.611341 0
M  V30 1218 N 134.507 -0.190092 1.56449 0
M  V30 1219 C 135.44 -1.26375 1.90012 0
M  V30 1220 C 136.418 -1.43705 0.760765 0
M  V30 1221 O 137.602 -1.59014 1.01226 0
M  V30 1222 C 134.729 -2.62962 2.13468 0
M  V30 1223 C 133.775 -2.62474 3.36169 0
M  V30 1224 S 134.608 -2.13412 4.91137 0
M  V30 1225 C 135.764 -3.51812 5.17667 0
M  V30 1226 H 135.997 -0.977181 2.80782 0
M  V30 1227 H 133.53 -0.393814 1.49293 0
M  V30 1228 H 135.488 -3.41583 2.27664 0
M  V30 1229 H 134.149 -2.88828 1.23439 0
M  V30 1230 H 133.342 -3.62918 3.49723 0
M  V30 1231 H 132.944 -1.91937 3.20992 0
M  V30 1232 H 135.236 -4.47706 5.08494 0
M  V30 1233 H 136.179 -3.43148 6.19399 0
M  V30 1234 H 136.587 -3.46956 4.45288 0
M  V30 1235 N 135.985 -1.50799 -0.457987 0
M  V30 1236 C 136.935 -1.67003 -1.55222 0
M  V30 1237 C 137.919 -0.52434 -1.52117 0
M  V30 1238 O 139.111 -0.779345 -1.58919 0
M  V30 1239 C 136.24 -1.77956 -2.93576 0
M  V30 1240 C 135.326 -2.98243 -3.01516 0
M  V30 1241 N 135.717 -4.21732 -2.79241 0
M  V30 1242 C 134.015 -2.97072 -3.32662 0
M  V30 1243 C 134.716 -5.02817 -2.92489 0
M  V30 1244 N 133.692 -4.37038 -3.23262 0
M  V30 1245 H 137.494 -2.60163 -1.36721 0
M  V30 1246 H 135.008 -1.48163 -0.664952 0
M  V30 1247 H 137.005 -1.87671 -3.72271 0
M  V30 1248 H 135.665 -0.859634 -3.13114 0
M  V30 1249 H 136.676 -4.51016 -2.54567 0
M  V30 1250 H 133.353 -2.14631 -3.58106 0
M  V30 1251 H 134.743 -6.11054 -2.79396 0
M  V30 1252 N 137.463 0.71206 -1.40597 0
M  V30 1253 C 138.395 1.83704 -1.37061 0
M  V30 1254 C 139.408 1.60453 -0.275426 0
M  V30 1255 O 140.597 1.70262 -0.53602 0
M  V30 1256 C 137.697 3.20172 -1.11099 0
M  V30 1257 C 136.87 3.7059 -2.3234 0
M  V30 1258 C 135.929 4.85681 -2.02485 0
M  V30 1259 O 134.955 4.9815 -2.75382 0
M  V30 1260 N 136.157 5.71735 -1.00497 0
M  V30 1261 H 138.922 1.87235 -2.34016 0
M  V30 1262 H 136.483 0.893739 -1.34996 0
M  V30 1263 H 138.475 3.94768 -0.891064 0
M  V30 1264 H 137.045 3.11767 -0.227989 0
M  V30 1265 H 136.265 2.87085 -2.7014 0
M  V30 1266 H 137.553 4.01011 -3.13157 0
M  V30 1267 H 136.951 5.64275 -0.401298 0
M  V30 1268 H 135.508 6.463 -0.844942 0
M  V30 1269 N 138.941 1.26152 0.944643 0
M  V30 1270 C 139.873 1.03199 2.04652 0
M  V30 1271 C 140.886 -0.00642356 1.62799 0
M  V30 1272 O 142.075 0.233263 1.76969 0
M  V30 1273 C 139.175 0.540111 3.34568 0
M  V30 1274 C 138.348 1.64697 4.05208 0
M  V30 1275 C 137.407 1.15374 5.13396 0
M  V30 1276 O 136.433 1.85013 5.38293 0
M  V30 1277 N 137.635 0.00031529 5.805 0
M  V30 1278 H 140.4 1.9808 2.2491 0
M  V30 1279 H 137.961 1.17491 1.11389 0
M  V30 1280 H 139.953 0.194401 4.04233 0
M  V30 1281 H 138.523 -0.315021 3.11009 0
M  V30 1282 H 137.743 2.16379 3.29506 0
M  V30 1283 H 139.031 2.3903 4.49157 0
M  V30 1284 H 138.429 -0.581336 5.62705 0
M  V30 1285 H 136.986 -0.286346 6.51171 0
M  V30 1286 N 140.419 -1.14872 1.07899 0
M  V30 1287 C 141.351 -2.19425 0.662231 0
M  V30 1288 C 142.364 -1.60231 -0.288079 0
M  V30 1289 O 143.553 -1.78336 -0.076534 0
M  V30 1290 C 140.653 -3.38867 -0.0470695 0
M  V30 1291 C 139.826 -4.27597 0.920831 0
M  V30 1292 C 138.885 -5.25616 0.247805 0
M  V30 1293 O 137.911 -5.62189 0.890599 0
M  V30 1294 N 139.113 -5.71746 -1.00435 0
M  V30 1295 H 141.878 -2.55797 1.56166 0
M  V30 1296 H 139.439 -1.30042 0.964404 0
M  V30 1297 H 141.431 -4.01497 -0.50813 0
M  V30 1298 H 140.001 -3.00864 -0.848523 0
M  V30 1299 H 139.221 -3.61982 1.56087 0
M  V30 1300 H 140.509 -4.83748 1.57688 0
M  V30 1301 H 139.907 -5.44153 -1.54642 0
M  V30 1302 H 138.464 -6.36389 -1.40899 0
M  V30 1303 N 141.898 -0.863906 -1.31812 0
M  V30 1304 C 143.123 -0.48527 -2.01643 0
M  V30 1305 C 143.548 0.913058 -1.64453 0
M  V30 1306 O 142.906 1.6014 -0.849985 0
M  V30 1307 C 142.954 -0.642625 -3.54828 0
M  V30 1308 O 142.058 0.320659 -4.11151 0
M  V30 1309 H 141.399 -0.193793 -0.635091 0
M  V30 1310 H 143.929 -1.16565 -1.68148 0
M  V30 1311 H 143.939 -0.533628 -4.04495 0
M  V30 1312 H 142.614 -1.66227 -3.81237 0
M  V30 1313 H 141.191 0.167126 -3.72525 0
M  V30 1314 N 143.376 1.44774 -0.622745 0
M  V30 1315 C 144.792 1.56986 -0.287652 0
M  V30 1316 C 144.992 1.61167 1.20944 0
M  V30 1317 O 144.048 1.55015 1.99315 0
M  V30 1318 C 145.361 2.84551 -0.972188 0
M  V30 1319 C 146.909 2.9825 -0.949536 0
M  V30 1320 C 147.384 4.28605 -1.61437 0
M  V30 1321 N 148.875 4.35399 -1.58057 0
M  V30 1322 C 149.61 5.34964 -2.064 0
M  V30 1323 N 149.106 6.40981 -2.62897 0
M  V30 1324 N 150.899 5.26419 -1.97078 0
M  V30 1325 H 143.05 1.40304 -1.59463 0
M  V30 1326 H 145.313 0.671794 -0.668878 0
M  V30 1327 H 145.019 2.87417 -2.02693 0
M  V30 1328 H 144.893 3.73807 -0.504771 0
M  V30 1329 H 147.28 2.94941 0.0967067 0
M  V30 1330 H 147.361 2.10364 -1.45536 0
M  V30 1331 H 147.005 4.32672 -2.66002 0
M  V30 1332 H 146.935 5.15334 -1.08344 0
M  V30 1333 H 149.426 3.59397 -1.16801 0
M  V30 1334 H 149.739 7.13225 -2.97539 0
M  V30 1335 H 148.084 6.4169 -2.66943 0
M  V30 1336 H 151.275 4.42504 -1.52669 0
M  V30 1337 H 151.448 6.03861 -2.35066 0
M  V30 1338 N 144.854 0.36279 1.53368 0
M  V30 1339 C 146.079 -0.231226 2.06107 0
M  V30 1340 C 146.504 -1.419 1.23474 0
M  V30 1341 O 145.862 -1.79524 0.253128 0
M  V30 1342 C 145.91 -0.605523 3.5548 0
M  V30 1343 O 145.014 -1.70312 3.7559 0
M  V30 1344 H 144.355 -0.034327 0.663112 0
M  V30 1345 H 146.885 0.522584 1.97814 0
M  V30 1346 H 146.895 -0.877314 3.98456 0
M  V30 1347 H 145.57 0.263004 4.15068 0
M  V30 1348 H 144.147 -1.4271 3.44512 0
M  V30 1349 N 146.332 -1.57332 0.0918853 0
M  V30 1350 C 147.578 -1.94524 -0.573425 0
M  V30 1351 C 147.911 -0.973578 -1.68033 0
M  V30 1352 O 147.186 -0.00609226 -1.94499 0
M  V30 1353 C 147.469 -3.41858 -1.13161 0
M  V30 1354 C 147.322 -4.4979 -0.0299747 0
M  V30 1355 C 148.641 -3.90435 -2.03098 0
M  V30 1356 H 145.76 -0.70734 -0.206975 0
M  V30 1357 H 148.402 -1.89309 0.161942 0
M  V30 1358 H 146.552 -3.46433 -1.7583 0
M  V30 1359 H 148.224 -4.57327 0.604112 0
M  V30 1360 H 146.467 -4.291 0.636833 0
M  V30 1361 H 147.138 -5.50069 -0.461287 0
M  V30 1362 H 149.614 -3.87992 -1.50338 0
M  V30 1363 H 148.49 -4.94097 -2.39081 0
M  V30 1364 H 148.751 -3.29541 -2.94712 0
M  V30 1365 N 147.81 0.181792 -1.56548 0
M  V30 1366 C 148.743 1.25366 -1.90679 0
M  V30 1367 C 149.721 1.43299 -0.768376 0
M  V30 1368 O 150.905 1.58475 -1.02068 0
M  V30 1369 C 148.032 2.61826 -2.1486 0
M  V30 1370 C 147.078 2.60688 -3.37556 0
M  V30 1371 S 147.911 2.10804 -4.92262 0
M  V30 1372 C 149.067 3.49062 -5.19525 0
M  V30 1373 H 149.3 0.962277 -2.81296 0
M  V30 1374 H 146.833 0.385892 -1.495 0
M  V30 1375 H 148.791 3.40371 -2.29473 0
M  V30 1376 H 147.452 2.88169 -1.24969 0
M  V30 1377 H 146.645 3.61058 -3.51643 0
M  V30 1378 H 146.247 1.90232 -3.22006 0
M  V30 1379 H 148.539 4.45003 -5.10861 0
M  V30 1380 H 149.482 3.39859 -6.2121 0
M  V30 1381 H 149.89 3.4459 -4.47122 0
M  V30 1382 N 149.288 1.51039 0.449983 0
M  V30 1383 C 150.516 1.66869 1.2232 0
M  V30 1384 C 150.931 0.360727 1.85322 0
M  V30 1385 O 150.288 -0.659531 1.70166 0
M  V30 1386 C 150.339 2.77524 2.31652 0
M  V30 1387 O 150.06 4.03252 1.7123 0
M  V30 1388 C 151.561 3.04512 3.2216 0
M  V30 1389 H 148.781 0.560326 0.369155 0
M  V30 1390 H 151.325 1.97385 0.534719 0
M  V30 1391 H 149.48 2.49642 2.96239 0
M  V30 1392 H 149.894 4.64609 2.43389 0
M  V30 1393 H 151.368 3.85551 3.95038 0
M  V30 1394 H 151.845 2.16415 3.8218 0
M  V30 1395 H 152.451 3.34005 2.63288 0
M  V30 1396 N 150.766 -0.704594 1.40972 0
M  V30 1397 C 151.676 -1.84856 1.44448 0
M  V30 1398 C 152.692 -1.70726 0.335961 0
M  V30 1399 O 153.868 -1.92799 0.582276 0
M  V30 1400 C 150.933 -3.20758 1.31587 0
M  V30 1401 C 149.994 -3.47063 2.52677 0
M  V30 1402 C 149.227 -4.76481 2.4042 0
M  V30 1403 O 149.45 -5.52341 1.42391 0
M  V30 1404 O 148.384 -5.03367 3.30007 0
M  V30 1405 H 152.21 -1.8488 2.40942 0
M  V30 1406 H 149.795 -0.85647 1.22413 0
M  V30 1407 H 151.677 -4.01913 1.26665 0
M  V30 1408 H 150.352 -3.21438 0.382049 0
M  V30 1409 H 149.259 -2.65873 2.63177 0
M  V30 1410 H 150.592 -3.5119 3.44858 0
M  V30 1411 N 152.244 -1.26651 -0.937939 0
M  V30 1412 C 153.154 -1.10276 -2.07066 0
M  V30 1413 C 154.17 -0.0354197 -1.73964 0
M  V30 1414 O 155.346 -0.239816 -1.99967 0
M  V30 1415 C 152.411 -0.740887 -3.38691 0
M  V30 1416 C 151.472 -1.88799 -3.85556 0
M  V30 1417 C 150.705 -1.54329 -5.10899 0
M  V30 1418 O 150.928 -0.446494 -5.6865 0
M  V30 1419 O 149.862 -2.37911 -5.52885 0
M  V30 1420 H 153.688 -2.05309 -2.23789 0
M  V30 1421 H 151.273 -1.05743 -1.0554 0
M  V30 1422 H 153.155 -0.55195 -4.1777 0
M  V30 1423 H 151.83 0.180022 -3.23199 0
M  V30 1424 H 150.737 -2.13191 -3.07409 0
M  V30 1425 H 152.07 -2.78874 -4.05574 0
M  V30 1426 N 153.722 1.14298 -1.08507 0
M  V30 1427 C 154.952 1.88945 -0.835663 0
M  V30 1428 C 155.36 1.78894 0.615928 0
M  V30 1429 O 154.703 1.1468 1.43506 0
M  V30 1430 C 154.765 3.39585 -1.17994 0
M  V30 1431 C 154.429 3.7342 -2.63451 0
M  V30 1432 C 155.426 3.73454 -3.61702 0
M  V30 1433 C 153.111 4.03368 -2.99332 0
M  V30 1434 C 155.105 4.02961 -4.93864 0
M  V30 1435 C 152.792 4.32538 -4.31687 0
M  V30 1436 C 153.79 4.32318 -5.28763 0
M  V30 1437 O 153.478 4.6078 -6.58739 0
M  V30 1438 H 153.21 0.605307 -0.300965 0
M  V30 1439 H 155.764 1.45673 -1.44806 0
M  V30 1440 H 153.994 3.83315 -0.51055 0
M  V30 1441 H 155.683 3.9554 -0.911182 0
M  V30 1442 H 156.449 3.50403 -3.35325 0
M  V30 1443 H 152.328 4.02692 -2.24411 0
M  V30 1444 H 155.872 4.02704 -5.69627 0
M  V30 1445 H 151.769 4.55059 -4.57812 0
M  V30 1446 H 152.537 4.78492 -6.64069 0
M  V30 1447 N 155.201 0.870884 1.31352 0
M  V30 1448 C 156.148 0.325425 2.28494 0
M  V30 1449 C 157.118 -0.576615 1.5577 0
M  V30 1450 O 158.303 -0.508059 1.83911 0
M  V30 1451 C 155.443 -0.466283 3.41935 0
M  V30 1452 C 154.556 0.463378 4.29508 0
M  V30 1453 C 153.691 -0.342544 5.30094 0
M  V30 1454 C 152.73 0.583486 6.09313 0
M  V30 1455 N 151.867 -0.186244 7.01853 0
M  V30 1456 H 156.707 1.15901 2.74538 0
M  V30 1457 H 154.244 0.58294 1.35056 0
M  V30 1458 H 156.202 -0.941085 4.06447 0
M  V30 1459 H 154.832 -1.26456 2.97 0
M  V30 1460 H 153.884 1.05663 3.65431 0
M  V30 1461 H 155.196 1.1734 4.84802 0
M  V30 1462 H 154.35 -0.879816 6.00287 0
M  V30 1463 H 153.089 -1.08585 4.75458 0
M  V30 1464 H 152.094 1.13251 5.3801 0
M  V30 1465 H 153.319 1.32566 6.66035 0
M  V30 1466 H 151.265 -0.912348 6.49625 0
M  V30 1467 H 151.182 0.464422 7.54572 0
M  V30 1468 H 152.45 -0.704716 7.76308 0
M  V30 1469 N 156.679 -1.44442 0.630414 0
M  V30 1470 C 157.925 -2.02351 0.134816 0
M  V30 1471 C 158.258 -1.4947 -1.23986 0
M  V30 1472 O 157.533 -0.678475 -1.82283 0
M  V30 1473 C 157.816 -3.59898 0.120707 0
M  V30 1474 C 157.669 -4.23063 1.52767 0
M  V30 1475 C 158.988 -4.36585 -0.555127 0
M  V30 1476 H 156.107 -0.73527 0.0504646 0
M  V30 1477 H 158.749 -1.72022 0.806751 0
M  V30 1478 H 156.899 -3.85868 -0.451477 0
M  V30 1479 H 158.571 -4.08202 2.14869 0
M  V30 1480 H 156.814 -3.80586 2.08175 0
M  V30 1481 H 157.485 -5.32071 1.46984 0
M  V30 1482 H 159.961 -4.16044 -0.0685429 0
M  V30 1483 H 158.837 -5.46294 -0.534185 0
M  V30 1484 H 159.098 -4.11138 -1.62535 0
M  V30 1485 N 158.157 -0.370918 -1.53173 0
M  V30 1486 C 159.568 0.107139 -1.86392 0
M  V30 1487 C 159.919 1.47714 -1.29132 0
M  V30 1488 O 159.044 2.07464 -0.615439 0
M  V30 1489 C 159.639 0.201187 -3.38202 0
M  V30 1490 C 158.198 0.623507 -3.712 0
M  V30 1491 C 157.345 -0.225978 -2.76378 0
M  V30 1492 H 160.296 -0.58951 -1.47345 0
M  V30 1493 H 160.317 1.02377 -3.66468 0
M  V30 1494 H 159.829 -0.796058 -3.79848 0
M  V30 1495 H 157.93 1.62879 -3.35114 0
M  V30 1496 H 158.043 0.394414 -4.77474 0
M  V30 1497 H 156.407 0.305962 -2.52856 0
M  V30 1498 H 157.19 -1.22086 -3.20858 0
M  V30 1499 N 159.635 1.57281 -0.100228 0
M  V30 1500 C 160.912 1.86014 0.604812 0
M  V30 1501 C 161.292 0.998025 1.86018 0
M  V30 1502 O 160.64 0.0718184 2.28387 0
M  V30 1503 C 160.85 3.36784 0.915278 0
M  V30 1504 C 162.198 4.04957 1.27651 0
M  V30 1505 O 163.222 3.41695 1.00613 0
M  V30 1506 O 162.081 5.16593 1.7831 0
M  V30 1507 H 159.175 0.76942 0.303185 0
M  V30 1508 H 161.721 1.69176 -0.133313 0
M  V30 1509 H 160.493 3.91292 0.0248896 0
M  V30 1510 H 160.116 3.58987 1.70921 0
M  V30 1511 N 161.113 -0.173488 1.56642 0
M  V30 1512 C 162.361 -0.888706 1.81512 0
M  V30 1513 C 162.682 -1.82875 0.676872 0
M  V30 1514 O 161.952 -1.93536 -0.303414 0
M  V30 1515 H 160.532 -0.331164 0.669582 0
M  V30 1516 H 163.194 -0.173823 1.94123 0
M  V30 1517 H 162.29 -1.46691 2.75478 0
M  V30 1518 N 162.591 -1.51276 -0.441967 0
M  V30 1519 C 163.524 -1.66933 -1.55591 0
M  V30 1520 C 164.502 -0.516958 -1.54163 0
M  V30 1521 O 165.686 -0.740209 -1.73358 0
M  V30 1522 C 162.813 -1.67866 -2.94174 0
M  V30 1523 C 161.859 -2.89013 -3.13646 0
M  V30 1524 S 162.692 -4.49897 -2.90436 0
M  V30 1525 C 163.848 -4.53568 -4.31308 0
M  V30 1526 H 164.081 -2.61155 -1.42076 0
M  V30 1527 H 161.614 -1.40902 -0.631341 0
M  V30 1528 H 163.572 -1.69089 -3.74058 0
M  V30 1529 H 162.233 -0.748296 -3.05056 0
M  V30 1530 H 161.426 -2.86054 -4.14957 0
M  V30 1531 H 161.028 -2.85509 -2.4158 0
M  V30 1532 H 163.32 -4.28924 -5.24434 0
M  V30 1533 H 164.263 -5.55355 -4.39303 0
M  V30 1534 H 164.671 -3.82943 -4.14747 0
M  V30 1535 N 164.069 0.697108 -1.41344 0
M  V30 1536 C 165.315 1.4593 -1.40827 0
M  V30 1537 C 165.648 1.94193 -0.0167098 0
M  V30 1538 O 164.923 1.69425 0.955263 0
M  V30 1539 C 165.206 2.67229 -2.41373 0
M  V30 1540 C 165.059 2.24741 -3.8963 0
M  V30 1541 C 166.378 3.69423 -2.39196 0
M  V30 1542 H 163.497 0.529303 -0.512842 0
M  V30 1543 H 166.139 0.794112 -1.72609 0
M  V30 1544 H 164.289 3.23982 -2.14401 0
M  V30 1545 H 165.961 1.73327 -4.27499 0
M  V30 1546 H 164.204 1.56542 -4.0457 0
M  V30 1547 H 164.875 3.1177 -4.55525 0
M  V30 1548 H 167.351 3.2234 -2.63128 0
M  V30 1549 H 166.227 4.51907 -3.11563 0
M  V30 1550 H 166.488 4.19012 -1.41001 0
M  V30 1551 N 165.547 1.27147 0.931209 0
M  V30 1552 C 166.795 1.13055 1.6752 0
M  V30 1553 C 167.116 -0.324791 1.92276 0
M  V30 1554 O 166.386 -1.22775 1.52654 0
M  V30 1555 H 164.966 0.415391 0.620854 0
M  V30 1556 H 167.628 1.59623 1.11833 0
M  V30 1557 H 166.724 1.65694 2.64485 0
M  V30 1558 N 167.025 -1.13721 1.09112 0
M  V30 1559 C 168.272 -1.84924 0.825192 0
M  V30 1560 C 168.6 -1.83347 -0.649151 0
M  V30 1561 O 167.855 -1.26449 -1.49362 0
M  V30 1562 C 168.154 -3.32861 1.30146 0
M  V30 1563 C 167.82 -3.54621 2.78486 0
M  V30 1564 C 166.482 -3.60268 3.18999 0
M  V30 1565 C 168.834 -3.62855 3.74146 0
M  V30 1566 C 166.162 -3.71679 4.53951 0
M  V30 1567 C 168.514 -3.75793 5.08883 0
M  V30 1568 C 167.178 -3.79692 5.4899 0
M  V30 1569 H 166.448 -0.676684 0.301959 0
M  V30 1570 H 169.095 -1.3428 1.36533 0
M  V30 1571 H 167.4 -3.85835 0.681064 0
M  V30 1572 H 169.097 -3.86395 1.07236 0
M  V30 1573 H 165.687 -3.50879 2.46134 0
M  V30 1574 H 169.871 -3.57775 3.43963 0
M  V30 1575 H 165.127 -3.72963 4.84467 0
M  V30 1576 H 169.301 -3.81107 5.82864 0
M  V30 1577 H 166.928 -3.88287 6.53558 0
M  V30 1578 N 168.503 -0.877838 -1.30888 0
M  V30 1579 C 169.752 -0.488793 -1.95688 0
M  V30 1580 C 170.065 0.965485 -1.70111 0
M  V30 1581 O 171.271 1.46104 -2.28836 0
M  V30 1582 C 169.727 -0.823201 -3.50359 0
M  V30 1583 C 169.335 -2.29477 -3.84765 0
M  V30 1584 C 171.079 -0.503009 -4.21509 0
M  V30 1585 C 168.986 -2.57118 -5.32583 0
M  V30 1586 H 167.916 -0.179062 -0.732429 0
M  V30 1587 H 170.567 -1.07183 -1.48943 0
M  V30 1588 H 168.949 -0.169331 -3.95638 0
M  V30 1589 H 170.123 -2.99236 -3.5042 0
M  V30 1590 H 168.438 -2.58178 -3.267 0
M  V30 1591 H 171.035 -0.68665 -5.30273 0
M  V30 1592 H 171.378 0.557109 -4.12555 0
M  V30 1593 H 171.911 -1.11376 -3.8189 0
M  V30 1594 H 168.65 -3.61843 -5.4658 0
M  V30 1595 H 168.17 -1.91961 -5.68253 0
M  V30 1596 H 169.849 -2.42251 -5.99936 0
M  V30 1597 N 169.982 1.44106 -0.638065 0
M  V30 1598 C 171.231 2.01194 -0.142744 0
M  V30 1599 C 171.544 1.50835 1.24532 0
M  V30 1600 O 172.75 2.00096 1.83504 0
M  V30 1601 C 171.206 3.59319 -0.20442 0
M  V30 1602 C 170.814 4.18674 -1.59423 0
M  V30 1603 C 172.558 4.23854 0.234079 0
M  V30 1604 C 170.465 5.69045 -1.61065 0
M  V30 1605 H 169.395 0.752367 -0.0495998 0
M  V30 1606 H 172.046 1.65246 -0.797881 0
M  V30 1607 H 170.428 3.92598 0.517946 0
M  V30 1608 H 171.602 3.96921 -2.34074 0
M  V30 1609 H 169.917 3.66453 -1.97741 0
M  V30 1610 H 172.514 5.34155 0.241443 0
M  V30 1611 H 172.857 3.96688 1.2627 0
M  V30 1612 H 173.39 3.95403 -0.436025 0
M  V30 1613 H 170.129 6.00956 -2.61787 0
M  V30 1614 H 169.649 5.929 -0.90718 0
M  V30 1615 H 171.328 6.32809 -1.34766 0
M  V30 1616 N 171.46 0.379036 1.52974 0
M  V30 1617 C 172.708 -0.206014 2.01047 0
M  V30 1618 C 173.029 -1.48175 1.26765 0
M  V30 1619 O 172.299 -1.92085 0.384743 0
M  V30 1620 H 170.879 -0.0791184 0.742798 0
M  V30 1621 H 173.541 0.508366 1.88153 0
M  V30 1622 H 172.637 -0.423501 3.09213 0
M  V30 1623 N 172.938 -1.57226 0.108567 0
M  V30 1624 C 174.354 -1.5766 -0.248058 0
M  V30 1625 C 174.554 -1.12063 -1.67464 0
M  V30 1626 O 173.61 -0.803236 -2.39383 0
M  V30 1627 C 174.923 -3.0069 -0.0242287 0
M  V30 1628 C 176.471 -3.12868 -0.0909372 0
M  V30 1629 C 176.946 -4.57879 0.105067 0
M  V30 1630 N 178.437 -4.63172 0.0506846 0
M  V30 1631 C 179.172 -5.73126 0.177396 0
M  V30 1632 N 178.668 -6.91866 0.359696 0
M  V30 1633 N 180.461 -5.61977 0.117709 0
M  V30 1634 H 172.612 -1.85169 1.04049 0
M  V30 1635 H 174.875 -0.85529 0.40888 0
M  V30 1636 H 174.581 -3.38299 0.961604 0
M  V30 1637 H 174.455 -3.6945 -0.76068 0
M  V30 1638 H 176.842 -2.75124 -1.06729 0
M  V30 1639 H 176.923 -2.46672 0.677225 0
M  V30 1640 H 176.567 -4.96321 1.07834 0
M  V30 1641 H 176.497 -5.22153 -0.682954 0
M  V30 1642 H 178.988 -3.778 -0.0871266 0
M  V30 1643 H 179.301 -7.71503 0.447529 0
M  V30 1644 H 177.646 -6.93874 0.395536 0
M  V30 1645 H 180.837 -4.68094 -0.0236741 0
M  V30 1646 H 181.01 -6.47627 0.219905 0
M  V30 1647 N 174.416 0.165178 -1.56732 0
M  V30 1648 C 175.664 0.879068 -1.8198 0
M  V30 1649 C 175.985 1.82514 -0.686561 0
M  V30 1650 O 175.255 1.93694 0.293146 0
M  V30 1651 H 173.835 0.327608 -0.671329 0
M  V30 1652 H 176.497 0.163526 -1.94213 0
M  V30 1653 H 175.593 1.45228 -2.76252 0
M  V30 1654 N 175.894 1.51508 0.433938 0
M  V30 1655 C 177.142 1.6402 1.18075 0
M  V30 1656 C 177.463 0.360328 1.91642 0
M  V30 1657 O 176.733 -0.623945 1.85698 0
M  V30 1658 H 175.313 0.6045 0.43885 0
M  V30 1659 H 177.975 1.88452 0.497178 0
M  V30 1660 H 177.071 2.46949 1.90847 0
M  V30 1661 N 177.372 -0.689602 1.41712 0
M  V30 1662 C 178.282 -1.83314 1.46401 0
M  V30 1663 C 179.298 -1.7036 0.35405 0
M  V30 1664 O 180.474 -1.92171 0.602692 0
M  V30 1665 C 177.539 -3.19344 1.34982 0
M  V30 1666 C 176.6 -3.44363 2.56344 0
M  V30 1667 C 175.833 -4.73904 2.45461 0
M  V30 1668 O 176.056 -5.508 1.48241 0
M  V30 1669 O 174.99 -4.99839 3.35328 0
M  V30 1670 H 178.816 -1.82314 2.42889 0
M  V30 1671 H 176.401 -0.843438 1.23315 0
M  V30 1672 H 178.283 -4.00547 1.3092 0
M  V30 1673 H 176.958 -3.21014 0.41612 0
M  V30 1674 H 175.865 -2.63067 2.65982 0
M  V30 1675 H 177.198 -3.47512 3.48563 0
M  V30 1676 N 178.85 -1.27639 -0.924453 0
M  V30 1677 C 179.782 -1.06442 -2.02985 0
M  V30 1678 C 180.795 -0.0194771 -1.62788 0
M  V30 1679 O 181.984 -0.261388 -1.76576 0
M  V30 1680 C 179.084 -0.59327 -3.33667 0
M  V30 1681 C 178.257 -1.71123 -4.02537 0
M  V30 1682 C 177.316 -1.23527 -5.11495 0
M  V30 1683 O 176.342 -1.93553 -5.35281 0
M  V30 1684 N 177.544 -0.0926678 -5.80426 0
M  V30 1685 H 180.309 -2.01633 -2.2173 0
M  V30 1686 H 177.87 -1.19248 -1.09505 0
M  V30 1687 H 179.862 -0.258686 -4.03872 0
M  V30 1688 H 178.432 0.265502 -3.1147 0
M  V30 1689 H 177.652 -2.21593 -3.26022 0
M  V30 1690 H 178.94 -2.46145 -4.45298 0
M  V30 1691 H 178.338 0.491741 -5.63559 0
M  V30 1692 H 176.895 0.182714 -6.51544 0
M  V30 1693 N 180.328 1.1314 -1.09713 0
M  V30 1694 C 181.577 1.83838 -0.829851 0
M  V30 1695 C 181.89 1.84599 0.646728 0
M  V30 1696 O 183.096 2.51218 1.02965 0
M  V30 1697 C 181.552 3.30069 -1.43466 0
M  V30 1698 C 181.16 3.37688 -2.94399 0
M  V30 1699 C 182.904 4.05788 -1.24645 0
M  V30 1700 C 180.811 4.78209 -3.47952 0
M  V30 1701 H 179.741 0.68877 -0.306777 0
M  V30 1702 H 182.392 1.27448 -1.3202 0
M  V30 1703 H 180.774 3.8628 -0.871996 0
M  V30 1704 H 181.948 2.91456 -3.56918 0
M  V30 1705 H 180.263 2.75436 -3.12289 0
M  V30 1706 H 182.86 5.09535 -1.62107 0
M  V30 1707 H 183.203 4.15878 -0.187357 0
M  V30 1708 H 183.736 3.55915 -1.77678 0
M  V30 1709 H 180.475 4.73311 -4.53495 0
M  V30 1710 H 179.995 5.24924 -2.90198 0
M  V30 1711 H 181.674 5.47133 -3.45332 0
M  V30 1712 N 181.806 0.884767 1.30421 0
M  V30 1713 C 183.031 0.517288 2.00845 0
M  V30 1714 C 183.456 -0.886779 1.65885 0
M  V30 1715 O 182.814 -1.58768 0.875354 0
M  V30 1716 C 182.862 0.698994 3.5376 0
M  V30 1717 O 181.966 -0.255208 4.1161 0
M  V30 1718 H 181.307 0.203872 0.631927 0
M  V30 1719 H 183.837 1.19225 1.66272 0
M  V30 1720 H 183.847 0.597912 4.03595 0
M  V30 1721 H 182.522 1.72271 3.78544 0
M  V30 1722 H 181.099 -0.10784 3.72744 0
M  V30 1723 N 183.284 -1.43765 0.645699 0
M  V30 1724 C 184.7 -1.56509 0.312591 0
M  V30 1725 C 184.9 -1.6307 -1.18365 0
M  V30 1726 O 183.956 -1.58167 -1.96824 0
M  V30 1727 C 185.269 -2.82968 1.01733 0
M  V30 1728 C 186.817 -2.96701 0.996865 0
M  V30 1729 C 187.292 -4.25982 1.68236 0
M  V30 1730 N 188.783 -4.32829 1.64964 0
M  V30 1731 C 189.518 -5.31613 2.14885 0
M  V30 1732 N 189.014 -6.36718 2.73061 0
M  V30 1733 N 190.807 -5.23217 2.05428 0
M  V30 1734 H 182.958 -1.3775 1.61675 0
M  V30 1735 H 185.221 -0.661067 0.679481 0
M  V30 1736 H 184.927 -2.84156 2.0724 0
M  V30 1737 H 184.801 -3.72957 0.564177 0
M  V30 1738 H 187.188 -2.95058 -0.0497719 0
M  V30 1739 H 187.269 -2.08022 1.48865 0
M  V30 1740 H 186.913 -4.28386 2.72852 0
M  V30 1741 H 186.843 -5.13545 1.16529 0
M  V30 1742 H 189.334 -3.57493 1.22503 0
M  V30 1743 H 189.647 -7.08401 3.08848 0
M  V30 1744 H 187.992 -6.37362 2.77118 0
M  V30 1745 H 191.183 -4.40019 1.59689 0
M  V30 1746 H 191.356 -6.00045 2.44643 0
M  V30 1747 N 184.763 -0.387143 -1.52771 0
M  V30 1748 C 186.012 0.19697 -2.00736 0
M  V30 1749 C 186.325 1.48082 -1.27793 0
M  V30 1750 O 187.531 2.14485 -1.66458 0
M  V30 1751 C 185.987 0.401568 -3.57653 0
M  V30 1752 C 185.595 -0.868907 -4.39493 0
M  V30 1753 C 187.339 0.942164 -4.13912 0
M  V30 1754 C 185.246 -0.632705 -5.88006 0
M  V30 1755 H 184.176 0.0773827 -0.750019 0
M  V30 1756 H 186.827 -0.50921 -1.76293 0
M  V30 1757 H 185.209 1.16954 -3.78335 0
M  V30 1758 H 186.383 -1.64133 -4.30577 0
M  V30 1759 H 184.698 -1.33429 -3.94443 0
M  V30 1760 H 187.295 1.13455 -5.22525 0
M  V30 1761 H 187.638 1.9106 -3.69867 0
M  V30 1762 H 188.171 0.233814 -3.97112 0
M  V30 1763 H 184.91 -1.57208 -6.36369 0
M  V30 1764 H 184.43 0.100825 -5.99715 0
M  V30 1765 H 186.109 -0.26642 -6.46451 0
M  V30 1766 N 186.241 1.57166 -0.116904 0
M  V30 1767 C 187.173 2.12271 0.864507 0
M  V30 1768 C 188.186 1.06494 1.23138 0
M  V30 1769 O 189.375 1.33873 1.18069 0
M  V30 1770 C 186.475 2.60564 2.16702 0
M  V30 1771 C 185.648 3.90416 1.97216 0
M  V30 1772 C 184.707 4.24329 3.11178 0
M  V30 1773 O 183.733 4.93182 2.84184 0
M  V30 1774 N 184.935 3.8148 4.37554 0
M  V30 1775 H 187.7 2.97102 0.393726 0
M  V30 1776 H 185.261 1.61759 0.0675805 0
M  V30 1777 H 187.253 2.80282 2.91932 0
M  V30 1778 H 185.823 1.80623 2.55135 0
M  V30 1779 H 185.043 3.79627 1.06192 0
M  V30 1780 H 186.331 4.75327 1.81499 0
M  V30 1781 H 185.729 3.25943 4.62361 0
M  V30 1782 H 184.286 4.06311 5.09661 0
M  V30 1783 N 187.719 -0.156864 1.56817 0
M  V30 1784 C 188.651 -1.21883 1.94106 0
M  V30 1785 C 189.664 -1.3971 0.835754 0
M  V30 1786 O 190.853 -1.39457 1.11418 0
M  V30 1787 C 187.953 -2.58527 2.19127 0
M  V30 1788 C 187.126 -2.61809 3.50393 0
M  V30 1789 C 186.185 -3.7992 3.64071 0
M  V30 1790 O 185.211 -3.65249 4.36557 0
M  V30 1791 N 186.413 -4.96973 2.99997 0
M  V30 1792 H 189.178 -0.901974 2.85805 0
M  V30 1793 H 186.739 -0.346513 1.58148 0
M  V30 1794 H 188.731 -3.36034 2.25529 0
M  V30 1795 H 187.301 -2.82545 1.33742 0
M  V30 1796 H 186.521 -1.7029 3.5552 0
M  V30 1797 H 187.809 -2.61024 4.36742 0
M  V30 1798 H 187.207 -5.11794 2.41004 0
M  V30 1799 H 185.764 -5.7229 3.11974 0
M  V30 1800 N 189.197 -1.51736 -0.425897 0
M  V30 1801 C 190.107 -1.76738 -1.54275 0
M  V30 1802 C 191.123 -0.65211 -1.61318 0
M  V30 1803 O 192.299 -0.935654 -1.78346 0
M  V30 1804 C 189.364 -1.89755 -2.90162 0
M  V30 1805 C 188.425 -3.13633 -2.93143 0
M  V30 1806 C 187.658 -3.2602 -4.22548 0
M  V30 1807 O 187.881 -2.44067 -5.15546 0
M  V30 1808 O 186.815 -4.19071 -4.32046 0
M  V30 1809 H 190.641 -2.71502 -1.36089 0
M  V30 1810 H 188.226 -1.36376 -0.610069 0
M  V30 1811 H 190.108 -2.00236 -3.70788 0
M  V30 1812 H 188.783 -0.981785 -3.08452 0
M  V30 1813 H 187.69 -3.08622 -2.11431 0
M  V30 1814 H 189.023 -4.04936 -2.798 0
M  V30 1815 N 190.675 0.682077 -1.42076 0
M  V30 1816 C 191.9 1.47558 -1.45744 0
M  V30 1817 C 192.325 1.87977 -0.0680981 0
M  V30 1818 O 191.683 1.55522 0.9318 0
M  V30 1819 C 191.731 2.70575 -2.38373 0
M  V30 1820 O 190.835 3.68573 -1.85007 0
M  V30 1821 H 190.176 0.443585 -0.494093 0
M  V30 1822 H 192.706 0.837238 -1.86686 0
M  V30 1823 H 192.716 3.18729 -2.54707 0
M  V30 1824 H 191.391 2.40495 -3.39315 0
M  V30 1825 H 189.968 3.2757 -1.78192 0
M  V30 1826 N 192.153 1.28127 0.917671 0
M  V30 1827 C 193.401 1.14825 1.66312 0
M  V30 1828 C 193.722 -0.304379 1.9261 0
M  V30 1829 O 192.992 -1.21149 1.53947 0
M  V30 1830 H 191.572 0.421953 0.616413 0
M  V30 1831 H 194.234 1.608 1.10134 0
M  V30 1832 H 193.33 1.68489 2.62712 0
M  V30 1833 N 193.631 -1.12557 1.10312 0
M  V30 1834 C 194.871 -1.8568 0.854543 0
M  V30 1835 C 195.235 -1.82091 -0.608843 0
M  V30 1836 O 196.436 -2.50544 -0.973717 0
M  V30 1837 C 194.707 -3.2942 1.38626 0
M  V30 1838 S 196.266 -4.19931 1.27293 0
M  V30 1839 H 193.084 -0.640427 0.308827 0
M  V30 1840 H 195.686 -1.35599 1.40831 0
M  V30 1841 H 194.39 -3.2959 2.44537 0
M  V30 1842 H 193.921 -3.84566 0.82902 0
M  V30 1843 H 195.936 -4.95668 0.229776 0
M  V30 1844 N 195.109 -0.891671 -1.2995 0
M  V30 1845 C 196.056 -0.361736 -2.27948 0
M  V30 1846 C 197.026 0.551761 -1.56668 0
M  V30 1847 O 198.211 0.478736 -1.84696 0
M  V30 1848 C 195.351 0.411825 -3.42634 0
M  V30 1849 C 194.464 -0.531651 -4.28716 0
M  V30 1850 C 193.599 0.258167 -5.30572 0
M  V30 1851 C 192.638 -0.680349 -6.08307 0
M  V30 1852 N 191.775 0.0745613 -7.0206 0
M  V30 1853 H 196.615 -1.20254 -2.72659 0
M  V30 1854 H 194.152 -0.604352 -1.34112 0
M  V30 1855 H 196.11 0.876304 -4.07893 0
M  V30 1856 H 194.74 1.21715 -2.98974 0
M  V30 1857 H 193.792 -1.11463 -3.63703 0
M  V30 1858 H 195.104 -1.25038 -4.82874 0
M  V30 1859 H 194.258 0.784204 -6.0161 0
M  V30 1860 H 192.997 1.01008 -4.77126 0
M  V30 1861 H 192.002 -1.21796 -5.3614 0
M  V30 1862 H 193.227 -1.43145 -6.63842 0
M  V30 1863 H 191.173 0.808883 -6.50994 0
M  V30 1864 H 191.09 -0.584409 -7.53738 0
M  V30 1865 H 192.358 0.581123 -7.77331 0
M  V30 1866 N 196.587 1.43421 -0.653314 0
M  V30 1867 C 197.836 2.01032 -0.164076 0
M  V30 1868 C 198.149 1.52147 1.22926 0
M  V30 1869 O 199.355 2.02031 1.81371 0
M  V30 1870 C 197.811 3.59082 -0.24252 0
M  V30 1871 C 197.419 4.1696 -1.63855 0
M  V30 1872 C 199.163 4.24079 0.18911 0
M  V30 1873 C 197.07 5.67304 -1.67092 0
M  V30 1874 H 196 0.751798 -0.0575769 0
M  V30 1875 H 198.651 1.6439 -0.815362 0
M  V30 1876 H 197.033 3.93125 0.476276 0
M  V30 1877 H 198.207 3.94416 -2.38271 0
M  V30 1878 H 196.522 3.64335 -2.01616 0
M  V30 1879 H 199.119 5.34381 0.184775 0
M  V30 1880 H 199.462 3.98005 1.22056 0
M  V30 1881 H 199.995 3.94918 -0.477938 0
M  V30 1882 H 196.734 5.98145 -2.68146 0
M  V30 1883 H 196.254 5.91904 -0.970014 0
M  V30 1884 H 197.933 6.31344 -1.4147 0
M  V30 1885 N 198.065 0.39524 1.52563 0
M  V30 1886 C 198.997 -0.472201 2.24283 0
M  V30 1887 C 200.01 -1.02178 1.26742 0
M  V30 1888 O 201.199 -0.923097 1.52778 0
M  V30 1889 C 198.299 -1.66775 2.95024 0
M  V30 1890 C 197.472 -1.2445 4.19322 0
M  V30 1891 C 196.531 -2.30539 4.7301 0
M  V30 1892 O 195.557 -1.91702 5.35947 0
M  V30 1893 N 196.759 -3.6253 4.53379 0
M  V30 1894 H 199.524 0.142282 2.99362 0
M  V30 1895 H 197.085 0.2219 1.60372 0
M  V30 1896 H 199.077 -2.37283 3.27839 0
M  V30 1897 H 197.647 -2.18845 2.23217 0
M  V30 1898 H 196.867 -0.368069 3.92478 0
M  V30 1899 H 198.155 -0.938457 5.0007 0
M  V30 1900 H 197.553 -3.96841 4.03154 0
M  V30 1901 H 196.11 -4.29055 4.90668 0
M  V30 1902 N 199.544 -1.57102 0.125237 0
M  V30 1903 C 200.793 -1.94582 -0.531095 0
M  V30 1904 C 201.106 -1.01126 -1.6743 0
M  V30 1905 O 202.312 -1.28097 -2.39381 0
M  V30 1906 C 200.768 -3.45839 -0.996164 0
M  V30 1907 C 200.376 -4.47842 0.118926 0
M  V30 1908 C 202.12 -3.92227 -1.62352 0
M  V30 1909 C 200.027 -5.90284 -0.363192 0
M  V30 1910 H 198.957 -0.726391 -0.20217 0
M  V30 1911 H 201.608 -1.82339 0.206092 0
M  V30 1912 H 199.99 -3.53338 -1.78796 0
M  V30 1913 H 201.164 -4.52018 0.895358 0
M  V30 1914 H 199.479 -4.11243 0.653324 0
M  V30 1915 H 202.076 -4.96069 -1.99548 0
M  V30 1916 H 202.419 -3.32552 -2.50429 0
M  V30 1917 H 202.952 -3.87554 -0.897019 0
M  V30 1918 H 199.691 -6.53728 0.481679 0
M  V30 1919 H 199.211 -5.89515 -1.10597 0
M  V30 1920 H 200.89 -6.41752 -0.822377 0
M  V30 1921 N 201.022 0.148545 -1.56898 0
M  V30 1922 C 201.985 1.16736 -1.97244 0
M  V30 1923 C 202.985 1.35947 -0.858777 0
M  V30 1924 O 204.175 1.32966 -1.12542 0
M  V30 1925 C 201.307 2.52798 -2.28705 0
M  V30 1926 H 202.5 0.821279 -2.88435 0
M  V30 1927 H 200.053 0.391831 -1.51309 0
M  V30 1928 H 200.788 2.92381 -1.403 0
M  V30 1929 H 200.573 2.40216 -3.09901 0
M  V30 1930 H 202.063 3.26179 -2.60762 0
M  V30 1931 N 202.5 1.5196 0.417844 0
M  V30 1932 C 203.911 1.57851 0.997 0
M  V30 1933 C 204.262 0.413714 1.91789 0
M  V30 1934 O 203.387 -0.467057 2.113 0
M  V30 1935 C 203.982 2.86085 1.81496 0
M  V30 1936 C 202.541 2.94483 2.34428 0
M  V30 1937 C 201.688 2.52707 1.14169 0
M  V30 1938 H 204.639 1.57455 0.198392 0
M  V30 1939 H 204.66 2.70947 2.67148 0
M  V30 1940 H 204.172 3.70842 1.14446 0
M  V30 1941 H 202.273 2.142 3.04875 0
M  V30 1942 H 202.386 3.98546 2.65891 0
M  V30 1943 H 200.75 2.06353 1.49301 0
M  V30 1944 H 201.533 3.39828 0.486999 0
M  V30 1945 N 203.978 -0.674533 1.42435 0
M  V30 1946 C 205.255 -1.4305 1.33402 0
M  V30 1947 C 205.635 -2.11081 -0.0284674 0
M  V30 1948 O 204.983 -2.03257 -1.04397 0
M  V30 1949 C 205.193 -2.43272 2.50239 0
M  V30 1950 C 206.541 -3.07907 2.92367 0
M  V30 1951 O 207.565 -2.53599 2.50132 0
M  V30 1952 O 206.424 -4.0632 3.65467 0
M  V30 1953 H 203.518 -0.638076 0.526106 0
M  V30 1954 H 206.064 -0.703235 1.54443 0
M  V30 1955 H 204.836 -1.91803 3.41068 0
M  V30 1956 H 204.459 -3.23479 2.31186 0
M  V30 1957 N 205.456 -1.28612 -0.910864 0
M  V30 1958 C 206.681 -1.1891 -1.69927 0
M  V30 1959 C 207.106 0.248372 -1.86453 0
M  V30 1960 O 206.464 1.17961 -1.37676 0
M  V30 1961 C 206.512 -1.89578 -3.06745 0
M  V30 1962 O 205.616 -1.20521 -3.94396 0
M  V30 1963 H 204.957 -0.412632 -0.520222 0
M  V30 1964 H 207.487 -1.69985 -1.1387 0
M  V30 1965 H 207.497 -1.97597 -3.56958 0
M  V30 1966 H 206.172 -2.94136 -2.94035 0
M  V30 1967 H 204.749 -1.20684 -3.52831 0
M  V30 1968 N 206.934 1.1197 -1.10907 0
M  V30 1969 C 208.182 1.83225 -0.852819 0
M  V30 1970 C 208.503 1.84769 0.623341 0
M  V30 1971 O 207.773 1.3143 1.45269 0
M  V30 1972 H 206.353 0.67849 -0.312507 0
M  V30 1973 H 209.015 1.3556 -1.40033 0
M  V30 1974 H 208.111 2.87265 -1.22005 0
M  V30 1975 N 208.412 0.89855 1.29475 0
M  V30 1976 C 209.66 0.522847 1.9522 0
M  V30 1977 C 209.981 -0.93371 1.71192 0
M  V30 1978 O 209.251 -1.65823 1.04305 0
M  V30 1979 H 207.831 0.190366 0.722336 0
M  V30 1980 H 210.493 1.14459 1.5775 0
M  V30 1981 H 209.589 0.704476 3.04045 0
M  V30 1982 N 209.89 -1.43072 0.660911 0
M  V30 1983 C 210.82 -2.33497 -0.0122829 0
M  V30 1984 C 211.801 -1.49903 -0.803925 0
M  V30 1985 O 212.986 -1.78546 -0.763864 0
M  V30 1986 C 210.116 -3.33363 -0.973994 0
M  V30 1987 C 209.07 -4.27003 -0.291928 0
M  V30 1988 C 208.396 -5.16967 -1.36562 0
M  V30 1989 C 209.696 -5.15816 0.820462 0
M  V30 1990 H 211.39 -2.90038 0.742873 0
M  V30 1991 H 208.936 -1.39461 0.358688 0
M  V30 1992 H 210.889 -3.95524 -1.45392 0
M  V30 1993 H 209.613 -2.75095 -1.7604 0
M  V30 1994 H 208.272 -3.66217 0.167623 0
M  V30 1995 H 207.92 -4.55034 -2.14366 0
M  V30 1996 H 207.62 -5.80441 -0.914454 0
M  V30 1997 H 209.144 -5.82003 -1.84675 0
M  V30 1998 H 210.558 -5.71742 0.422366 0
M  V30 1999 H 208.955 -5.8805 1.19656 0
M  V30 2000 H 210.025 -4.55045 1.67518 0
M  V30 2001 N 211.368 -0.403325 -1.52352 0
M  V30 2002 C 212.779 0.0675782 -1.86578 0
M  V30 2003 C 213.13 1.44941 -1.32236 0
M  V30 2004 O 212.255 2.06112 -0.659307 0
M  V30 2005 C 212.85 0.129404 -3.38553 0
M  V30 2006 C 211.409 0.544629 -3.72439 0
M  V30 2007 C 210.556 -0.284551 -2.75836 0
M  V30 2008 H 213.507 -0.620631 -1.46061 0
M  V30 2009 H 213.528 0.94581 -3.68558 0
M  V30 2010 H 213.04 -0.87645 -3.78074 0
M  V30 2011 H 211.141 1.55734 -3.38493 0
M  V30 2012 H 211.254 0.293046 -4.78203 0
M  V30 2013 H 209.618 0.252258 -2.53448 0
M  V30 2014 H 210.401 -1.28865 -3.18196 0
M  V30 2015 N 212.846 1.57033 -0.133567 0
M  V30 2016 C 213.756 2.19632 0.824564 0
M  V30 2017 C 214.772 1.17666 1.28182 0
M  V30 2018 O 215.948 1.50193 1.3418 0
M  V30 2019 C 213.013 2.79499 2.05137 0
M  V30 2020 C 212.074 3.96548 1.64464 0
M  V30 2021 C 211.307 4.5355 2.81297 0
M  V30 2022 O 211.53 4.09438 3.97136 0
M  V30 2023 O 210.464 5.44018 2.57542 0
M  V30 2024 H 214.29 3.01991 0.321766 0
M  V30 2025 H 211.875 1.49112 0.0927889 0
M  V30 2026 H 213.757 3.17602 2.7696 0
M  V30 2027 H 212.432 2.00162 2.54395 0
M  V30 2028 H 211.339 3.63186 0.897048 0
M  V30 2029 H 212.672 4.77364 1.19934 0
M  V30 2030 N 214.325 -0.140222 1.56975 0
M  V30 2031 C 215.741 -0.493088 1.51792 0
M  V30 2032 C 215.941 -1.83013 0.843116 0
M  V30 2033 O 214.997 -2.49041 0.416493 0
M  V30 2034 C 216.31 -0.497144 2.96562 0
M  V30 2035 C 217.858 -0.582186 3.07538 0
M  V30 2036 C 218.333 -0.616838 4.53827 0
M  V30 2037 N 219.824 -0.678873 4.58198 0
M  V30 2038 C 220.559 -0.726782 5.68775 0
M  V30 2039 N 220.055 -0.733623 6.88905 0
M  V30 2040 N 221.848 -0.768179 5.56826 0
M  V30 2041 H 213.999 0.736108 1.99237 0
M  V30 2042 H 216.262 0.269182 0.90898 0
M  V30 2043 H 215.968 0.417217 3.49217 0
M  V30 2044 H 215.842 -1.33263 3.52875 0
M  V30 2045 H 218.229 -1.48697 2.54899 0
M  V30 2046 H 218.31 0.280581 2.54257 0
M  V30 2047 H 217.954 0.283812 5.07106 0
M  V30 2048 H 217.884 -1.49619 5.04898 0
M  V30 2049 H 220.375 -0.68061 3.7172 0
M  V30 2050 H 220.688 -0.772215 7.68932 0
M  V30 2051 H 219.033 -0.701389 6.91452 0
M  V30 2052 H 222.224 -0.760051 4.61888 0
M  V30 2053 H 222.397 -0.80205 6.43017 0
M  V30 2054 N 215.803 -1.52179 -0.40978 0
M  V30 2055 C 217.028 -1.70347 -1.18308 0
M  V30 2056 C 217.453 -0.411887 -1.83535 0
M  V30 2057 O 216.811 0.630587 -1.6998 0
M  V30 2058 C 216.859 -2.83977 -2.22238 0
M  V30 2059 O 215.963 -2.495 -3.28365 0
M  V30 2060 H 215.304 -0.567103 -0.345384 0
M  V30 2061 H 217.834 -1.98879 -0.480445 0
M  V30 2062 H 217.844 -3.0887 -2.66577 0
M  V30 2063 H 216.519 -3.77685 -1.74146 0
M  V30 2064 H 215.096 -2.35277 -2.89308 0
M  V30 2065 N 217.281 0.66697 -1.42791 0
M  V30 2066 C 218.521 1.43892 -1.4517 0
M  V30 2067 C 218.885 1.91877 -0.0687551 0
M  V30 2068 O 220.086 2.6878 0.0327455 0
M  V30 2069 C 218.357 2.59839 -2.45395 0
M  V30 2070 S 219.916 3.48572 -2.66539 0
M  V30 2071 H 216.734 0.491356 -0.513897 0
M  V30 2072 H 219.336 0.775656 -1.79454 0
M  V30 2073 H 218.04 2.22838 -3.44632 0
M  V30 2074 H 217.571 3.3103 -2.12562 0
M  V30 2075 H 219.586 4.56094 -1.95429 0
M  V30 2076 N 218.759 1.29093 0.90403 0
M  V30 2077 C 219.692 1.08176 2.00931 0
M  V30 2078 C 220.67 -0.005083 1.62599 0
M  V30 2079 O 221.854 0.144765 1.87943 0
M  V30 2080 C 218.981 0.645897 3.32484 0
M  V30 2081 C 218.027 1.73081 3.89801 0
M  V30 2082 S 218.86 3.32905 4.19446 0
M  V30 2083 C 220.016 2.91176 5.54046 0
M  V30 2084 H 220.249 2.01752 2.18365 0
M  V30 2085 H 217.782 1.13191 1.0501 0
M  V30 2086 H 219.74 0.401131 4.08535 0
M  V30 2087 H 218.401 -0.270188 3.12936 0
M  V30 2088 H 217.594 1.37768 4.84805 0
M  V30 2089 H 217.196 1.92888 3.20422 0
M  V30 2090 H 219.488 2.37952 6.34338 0
M  V30 2091 H 220.431 3.85014 5.94281 0
M  V30 2092 H 220.839 2.296 5.15698 0
M  V30 2093 N 220.237 -1.11381 1.11499 0
M  V30 2094 C 221.167 -2.19509 0.796125 0
M  V30 2095 C 222.148 -1.68458 -0.235796 0
M  V30 2096 O 223.333 -1.93947 -0.0991344 0
M  V30 2097 C 220.463 -3.46475 0.239205 0
M  V30 2098 C 219.417 -4.10744 1.20307 0
M  V30 2099 C 218.743 -5.32293 0.50683 0
M  V30 2100 C 220.043 -4.55597 2.55399 0
M  V30 2101 H 221.737 -2.46439 1.70024 0
M  V30 2102 H 219.283 -1.18446 0.818935 0
M  V30 2103 H 221.236 -4.214 0.00392006 0
M  V30 2104 H 219.96 -3.19006 -0.700206 0
M  V30 2105 H 218.619 -3.37813 1.42399 0
M  V30 2106 H 218.267 -5.01095 -0.437408 0
M  V30 2107 H 217.967 -5.76243 1.1497 0
M  V30 2108 H 219.491 -6.09956 0.280351 0
M  V30 2109 H 220.905 -5.21841 2.37391 0
M  V30 2110 H 219.302 -5.10363 3.15673 0
M  V30 2111 H 220.372 -3.69013 3.14575 0
M  V30 2112 N 221.715 -0.905404 -1.28997 0
M  V30 2113 C 222.943 -0.549846 -1.9946 0
M  V30 2114 C 223.358 0.866834 -1.67724 0
M  V30 2115 O 222.715 1.57298 -0.925404 0
M  V30 2116 C 222.766 -0.739387 -3.53858 0
M  V30 2117 O 222.487 -2.10031 -3.84472 0
M  V30 2118 C 223.988 -0.389541 -4.41585 0
M  V30 2119 H 221.208 -0.210429 -0.637151 0
M  V30 2120 H 223.752 -1.21632 -1.64396 0
M  V30 2121 H 221.907 -0.120023 -3.87214 0
M  V30 2122 H 222.321 -2.13385 -4.79132 0
M  V30 2123 H 223.795 -0.572972 -5.49018 0
M  V30 2124 H 224.272 0.673756 -4.34001 0
M  V30 2125 H 224.878 -0.986089 -4.1371 0
M  V30 2126 N 223.193 1.4272 -0.668489 0
M  V30 2127 C 224.441 2.01226 -0.187769 0
M  V30 2128 C 224.762 1.53092 1.2078 0
M  V30 2129 O 224.032 0.74993 1.80977 0
M  V30 2130 H 222.612 0.744041 -0.0664272 0
M  V30 2131 H 225.274 1.74723 -0.863583 0
M  V30 2132 H 224.37 3.11556 -0.184166 0
M  V30 2133 N 224.671 0.411399 1.52136 0
M  V30 2134 C 225.899 -0.163076 2.06256 0
M  V30 2135 C 226.314 -1.3867 1.28125 0
M  V30 2136 O 225.671 -1.79423 0.333721 0
M  V30 2137 C 225.722 -0.511252 3.57867 0
M  V30 2138 O 225.443 0.66378 4.33042 0
M  V30 2139 C 226.944 -1.13921 4.28412 0
M  V30 2140 H 224.164 -0.0193897 0.67072 0
M  V30 2141 H 226.708 0.583007 1.96013 0
M  V30 2142 H 224.863 -1.20723 3.6811 0
M  V30 2143 H 225.277 0.372601 5.23175 0
M  V30 2144 H 226.751 -1.33302 5.35663 0
M  V30 2145 H 227.228 -2.11296 3.85033 0
M  V30 2146 H 227.834 -0.483373 4.22544 0
M  V30 2147 N 226.149 -1.5696 0.141893 0
M  V30 2148 C 227.56 -1.82797 -0.379776 0
M  V30 2149 C 227.911 -1.06033 -1.6508 0
M  V30 2150 O 227.036 -0.304011 -2.14254 0
M  V30 2151 C 227.631 -3.31578 -0.695802 0
M  V30 2152 C 226.19 -3.58014 -1.16201 0
M  V30 2153 C 225.337 -2.76699 -0.182455 0
M  V30 2154 H 228.288 -1.54406 0.366675 0
M  V30 2155 H 228.309 -3.47454 -1.55099 0
M  V30 2156 H 227.821 -3.87421 0.229449 0
M  V30 2157 H 225.922 -3.07553 -2.10338 0
M  V30 2158 H 226.035 -4.66501 -1.09151 0
M  V30 2159 H 224.399 -2.45618 -0.674072 0
M  V30 2160 H 225.182 -3.35311 0.736297 0
M  V30 2161 N 227.627 0.131896 -1.57047 0
M  V30 2162 C 228.537 1.1815 -2.02676 0
M  V30 2163 C 229.553 1.46113 -0.944824 0
M  V30 2164 O 230.729 1.57485 -1.25541 0
M  V30 2165 C 227.794 2.49139 -2.41103 0
M  V30 2166 C 226.855 2.28688 -3.63318 0
M  V30 2167 C 226.088 3.53431 -3.99903 0
M  V30 2168 O 226.311 4.60223 -3.36973 0
M  V30 2169 O 225.245 3.45198 -4.93074 0
M  V30 2170 H 229.071 0.824069 -2.92306 0
M  V30 2171 H 226.656 0.341745 -1.45439 0
M  V30 2172 H 228.538 3.26338 -2.66611 0
M  V30 2173 H 227.213 2.84382 -1.54624 0
M  V30 2174 H 226.12 1.4939 -3.42977 0
M  V30 2175 H 227.453 1.98355 -4.50462 0
M  V30 2176 N 229.106 1.52395 0.401703 0
M  V30 2177 C 230.331 1.70972 1.17403 0
M  V30 2178 C 230.756 0.421615 1.83314 0
M  V30 2179 O 230.114 -0.621564 1.70312 0
M  V30 2180 C 230.162 2.85151 2.20728 0
M  V30 2181 O 229.266 2.51238 3.27037 0
M  V30 2182 H 228.607 0.568927 0.342372 0
M  V30 2183 H 231.137 1.99131 0.469891 0
M  V30 2184 H 231.147 3.10279 2.64936 0
M  V30 2185 H 229.822 3.78603 1.7214 0
M  V30 2186 H 228.399 2.36808 2.88057 0
M  V30 2187 N 230.584 -0.659388 1.43143 0
M  V30 2188 C 231.83 -1.42145 1.44647 0
M  V30 2189 C 232.163 -1.9408 0.0681907 0
M  V30 2190 O 231.438 -1.71899 -0.910007 0
M  V30 2191 C 231.721 -2.60735 2.48373 0
M  V30 2192 C 231.574 -2.14332 3.95451 0
M  V30 2193 C 232.893 -3.62951 2.48906 0
M  V30 2194 H 230.012 -0.51552 0.526696 0
M  V30 2195 H 232.654 -0.748069 1.74654 0
M  V30 2196 H 230.804 -3.18184 2.22916 0
M  V30 2197 H 232.476 -1.61932 4.31944 0
M  V30 2198 H 230.719 -1.4576 4.08578 0
M  V30 2199 H 231.39 -2.99583 4.63631 0
M  V30 2200 H 233.866 -3.1525 2.71582 0
M  V30 2201 H 232.742 -4.43487 3.23435 0
M  V30 2202 H 233.003 -4.15126 1.52061 0
M  V30 2203 N 232.062 -1.29571 -0.897171 0
M  V30 2204 C 232.994 -1.10724 -2.00681 0
M  V30 2205 C 234.007 -0.0540026 -1.6271 0
M  V30 2206 O 235.196 -0.298783 -1.75982 0
M  V30 2207 C 232.296 -0.663912 -3.32333 0
M  V30 2208 C 231.469 -1.79622 -3.98816 0
M  V30 2209 C 230.528 -1.34349 -5.0876 0
M  V30 2210 O 229.554 -2.04864 -5.31055 0
M  V30 2211 N 230.756 -0.215764 -5.80099 0
M  V30 2212 H 233.521 -2.06291 -2.17403 0
M  V30 2213 H 231.082 -1.21544 -1.06951 0
M  V30 2214 H 233.074 -0.344295 -4.03233 0
M  V30 2215 H 231.644 0.199375 -3.11964 0
M  V30 2216 H 230.864 -2.28459 -3.21248 0
M  V30 2217 H 232.152 -2.55535 -4.39976 0
M  V30 2218 H 231.55 0.372091 -5.64475 0
M  V30 2219 H 230.107 0.0444707 -6.51785 0
M  V30 2220 N 233.54 1.10788 -1.12088 0
M  V30 2221 C 234.765 1.87002 -0.896949 0
M  V30 2222 C 235.19 1.79933 0.548261 0
M  V30 2223 O 234.548 1.16662 1.38779 0
M  V30 2224 C 234.596 3.3349 -1.37174 0
M  V30 2225 O 233.7 4.08745 -0.547831 0
M  V30 2226 H 233.041 0.580397 -0.322545 0
M  V30 2227 H 235.571 1.39996 -1.49206 0
M  V30 2228 H 235.581 3.84339 -1.36922 0
M  V30 2229 H 234.256 3.37951 -2.42408 0
M  V30 2230 H 232.833 3.6776 -0.617034 0
M  V30 2231 N 235.018 0.912232 1.28515 0
M  V30 2232 C 235.981 0.404223 2.25607 0
M  V30 2233 C 236.981 -0.468602 1.53821 0
M  V30 2234 O 238.171 -0.271873 1.72065 0
M  V30 2235 C 235.303 -0.420653 3.38295 0
M  V30 2236 H 236.496 1.26188 2.7206 0
M  V30 2237 H 234.049 0.691495 1.40171 0
M  V30 2238 H 234.784 -1.29777 2.97201 0
M  V30 2239 H 234.569 0.204935 3.91564 0
M  V30 2240 H 236.059 -0.766971 4.10496 0
M  V30 2241 N 236.496 -1.42363 0.676048 0
M  V30 2242 C 237.443 -2.308 -0.00150904 0
M  V30 2243 C 238.413 -1.46032 -0.791444 0
M  V30 2244 O 239.598 -1.74861 -0.76344 0
M  V30 2245 C 236.738 -3.31883 -0.945919 0
M  V30 2246 C 235.851 -4.31741 -0.149675 0
M  V30 2247 C 234.986 -5.19898 -1.08995 0
M  V30 2248 C 234.025 -6.11434 -0.285465 0
M  V30 2249 N 233.162 -6.92138 -1.17851 0
M  V30 2250 H 238.002 -2.88187 0.758455 0
M  V30 2251 H 235.539 -1.41952 0.38576 0
M  V30 2252 H 237.497 -3.89019 -1.50731 0
M  V30 2253 H 236.127 -2.76093 -1.6725 0
M  V30 2254 H 235.179 -3.76713 0.528359 0
M  V30 2255 H 236.491 -4.96534 0.474866 0
M  V30 2256 H 235.645 -5.81772 -1.72123 0
M  V30 2257 H 234.384 -4.55284 -1.74837 0
M  V30 2258 H 233.389 -5.48627 0.359018 0
M  V30 2259 H 234.614 -6.78097 0.368883 0
M  V30 2260 H 232.56 -6.30152 -1.82332 0
M  V30 2261 H 232.477 -7.53542 -0.609082 0
M  V30 2262 H 233.745 -7.58499 -1.79722 0
M  V30 2263 N 237.974 -0.419461 -1.51915 0
M  V30 2264 C 239.39 -0.0708431 -1.59443 0
M  V30 2265 C 239.59 1.41796 -1.43164 0
M  V30 2266 O 238.646 2.18596 -1.26381 0
M  V30 2267 C 239.959 -0.574991 -2.95151 0
M  V30 2268 C 241.507 -0.533867 -3.08413 0
M  V30 2269 C 241.982 -1.01469 -4.46618 0
M  V30 2270 N 243.473 -0.971939 -4.52888 0
M  V30 2271 C 244.208 -1.31505 -5.58116 0
M  V30 2272 N 243.704 -1.73014 -6.70849 0
M  V30 2273 N 245.497 -1.23436 -5.48379 0
M  V30 2274 H 237.648 -1.38836 -1.60743 0
M  V30 2275 H 239.911 -0.570998 -0.756747 0
M  V30 2276 H 239.617 -1.61597 -3.12377 0
M  V30 2277 H 239.491 0.00979777 -3.77199 0
M  V30 2278 H 241.878 0.498086 -2.90866 0
M  V30 2279 H 241.959 -1.15484 -2.28248 0
M  V30 2280 H 241.603 -2.04502 -4.6491 0
M  V30 2281 H 241.533 -0.370433 -5.25295 0
M  V30 2282 H 244.024 -0.666893 -3.71969 0
M  V30 2283 H 244.337 -1.97479 -7.47143 0
M  V30 2284 H 242.682 -1.76926 -6.72103 0
M  V30 2285 H 245.873 -0.908869 -4.59192 0
M  V30 2286 H 246.046 -1.50506 -6.30279 0
M  V30 2287 N 239.452 1.56882 -0.150215 0
M  V30 2288 C 240.382 2.19935 0.784284 0
M  V30 2289 C 241.363 1.14854 1.25469 0
M  V30 2290 O 242.548 1.43209 1.31168 0
M  V30 2291 C 239.678 2.82349 2.02229 0
M  V30 2292 C 238.632 3.93285 1.68853 0
M  V30 2293 C 237.958 4.42649 2.99944 0
M  V30 2294 C 239.258 5.13904 0.932714 0
M  V30 2295 H 240.952 2.9828 0.258781 0
M  V30 2296 H 238.498 1.43473 0.123029 0
M  V30 2297 H 240.451 3.25126 2.68088 0
M  V30 2298 H 239.175 2.0134 2.57157 0
M  V30 2299 H 237.834 3.5113 1.05371 0
M  V30 2300 H 237.482 3.58458 3.52869 0
M  V30 2301 H 237.182 5.17476 2.78374 0
M  V30 2302 H 238.706 4.88099 3.66868 0
M  V30 2303 H 240.12 5.53506 1.49345 0
M  V30 2304 H 238.517 5.94515 0.81684 0
M  V30 2305 H 239.587 4.84842 -0.0749568 0
M  V30 2306 N 240.93 -0.123565 1.57115 0
M  V30 2307 C 241.86 -1.15309 2.03042 0
M  V30 2308 C 242.841 -1.43454 0.914061 0
M  V30 2309 O 244.026 -1.53973 1.18347 0
M  V30 2310 C 241.156 -2.48043 2.43089 0
M  V30 2311 C 240.11 -2.3437 3.58127 0
M  V30 2312 C 239.436 -3.72026 3.84059 0
M  V30 2313 C 240.736 -1.80804 4.90007 0
M  V30 2314 H 242.43 -0.771102 2.893 0
M  V30 2315 H 239.976 -0.369479 1.39179 0
M  V30 2316 H 241.929 -3.20311 2.73823 0
M  V30 2317 H 240.653 -2.88122 1.53796 0
M  V30 2318 H 239.312 -1.64551 3.27595 0
M  V30 2319 H 238.96 -4.09582 2.91979 0
M  V30 2320 H 238.66 -3.63732 4.6149 0
M  V30 2321 H 240.184 -4.45806 4.1724 0
M  V30 2322 H 241.598 -2.42886 5.19307 0
M  V30 2323 H 239.995 -1.83343 5.71407 0
M  V30 2324 H 241.065 -0.76528 4.78823 0
M  V30 2325 N 242.408 -1.52605 -0.393616 0
M  V30 2326 C 243.685 -1.58001 -1.15304 0
M  V30 2327 C 244.065 -0.370385 -2.07825 0
M  V30 2328 O 243.413 0.641638 -2.19306 0
M  V30 2329 C 243.623 -2.91652 -1.91677 0
M  V30 2330 C 244.971 -3.4522 -2.47201 0
M  V30 2331 O 245.995 -2.93495 -2.01839 0
M  V30 2332 O 244.854 -4.35579 -3.3005 0
M  V30 2333 H 241.948 -0.637068 -0.527327 0
M  V30 2334 H 244.494 -1.64939 -0.399141 0
M  V30 2335 H 243.266 -3.71136 -1.23992 0
M  V30 2336 H 242.889 -2.88077 -2.74039 0
M  V30 2337 N 243.887 0.651787 -1.4349 0
M  V30 2338 C 244.819 1.77725 -1.44729 0
M  V30 2339 C 245.832 1.59141 -0.343231 0
M  V30 2340 O 247.021 1.67835 -0.607751 0
M  V30 2341 C 244.121 3.15172 -1.24579 0
M  V30 2342 C 243.294 3.60402 -2.47849 0
M  V30 2343 C 242.353 4.76656 -2.22902 0
M  V30 2344 O 241.379 4.86022 -2.96263 0
M  V30 2345 N 242.581 5.66958 -1.24656 0
M  V30 2346 H 245.346 1.77141 -2.41746 0
M  V30 2347 H 242.907 0.835678 -1.38665 0
M  V30 2348 H 244.899 3.90634 -1.0577 0
M  V30 2349 H 243.469 3.1052 -0.360015 0
M  V30 2350 H 242.689 2.75369 -2.82073 0
M  V30 2351 H 243.977 3.87368 -3.29884 0
M  V30 2352 H 243.375 5.62065 -0.640265 0
M  V30 2353 H 241.932 6.42135 -1.1183 0
M  V30 2354 N 245.365 1.30045 0.890287 0
M  V30 2355 C 246.614 1.17929 1.63633 0
M  V30 2356 C 246.927 -0.266204 1.9378 0
M  V30 2357 O 248.133 -0.508804 2.6669 0
M  V30 2358 C 246.589 2.06317 2.94892 0
M  V30 2359 C 246.197 3.55745 2.72305 0
M  V30 2360 C 247.941 2.0295 3.72843 0
M  V30 2361 C 245.848 4.36205 3.99348 0
M  V30 2362 H 244.778 0.437782 0.613892 0
M  V30 2363 H 247.429 1.54754 0.986075 0
M  V30 2364 H 245.811 1.6237 3.61182 0
M  V30 2365 H 246.985 4.07805 2.1455 0
M  V30 2366 H 245.3 3.6088 2.07737 0
M  V30 2367 H 247.897 2.60319 4.67053 0
M  V30 2368 H 248.24 1.0117 4.0382 0
M  V30 2369 H 248.773 2.4499 3.13408 0
M  V30 2370 H 245.512 5.38659 3.73533 0
M  V30 2371 H 245.032 3.8891 4.56628 0
M  V30 2372 H 246.711 4.47362 4.67415 0
M  V30 2373 N 246.843 -1.10192 1.12674 0
M  V30 2374 C 248.089 -1.82475 0.884915 0
M  V30 2375 C 248.422 -1.85093 -0.58773 0
M  V30 2376 O 247.697 -1.3134 -1.43457 0
M  V30 2377 C 247.98 -3.29018 1.46353 0
M  V30 2378 C 247.833 -3.34718 3.00473 0
M  V30 2379 C 249.152 -4.25473 1.12519 0
M  V30 2380 H 246.271 -0.662492 0.322915 0
M  V30 2381 H 248.913 -1.2913 1.39375 0
M  V30 2382 H 247.063 -3.74576 1.03077 0
M  V30 2383 H 248.735 -2.97622 3.52447 0
M  V30 2384 H 246.978 -2.74541 3.35872 0
M  V30 2385 H 247.649 -4.37918 3.36053 0
M  V30 2386 H 250.125 -3.88161 1.499 0
M  V30 2387 H 249.001 -5.26365 1.55663 0
M  V30 2388 H 249.262 -4.42084 0.0377407 0
M  V30 2389 N 248.321 -0.919034 -1.28029 0
M  V30 2390 C 249.231 -0.416756 -2.30869 0
M  V30 2391 C 250.247 0.498235 -1.66714 0
M  V30 2392 O 251.423 0.383144 -1.97722 0
M  V30 2393 C 248.488 0.330274 -3.45123 0
M  V30 2394 C 247.549 -0.618578 -4.2482 0
M  V30 2395 C 246.782 0.0928959 -5.33619 0
M  V30 2396 O 247.005 1.31375 -5.55065 0
M  V30 2397 O 245.939 -0.574499 -5.99152 0
M  V30 2398 H 249.765 -1.27043 -2.75851 0
M  V30 2399 H 247.35 -0.684052 -1.3282 0
M  V30 2400 H 249.232 0.751972 -4.14636 0
M  V30 2401 H 247.907 1.1597 -3.02213 0
M  V30 2402 H 246.814 -1.08978 -3.57875 0
M  V30 2403 H 248.147 -1.41497 -4.71423 0
M  V30 2404 N 249.799 1.42003 -0.683588 0
M  V30 2405 C 250.746 2.30798 -0.0107309 0
M  V30 2406 C 251.716 1.4645 0.783688 0
M  V30 2407 O 252.901 1.75263 0.754156 0
M  V30 2408 C 250.041 3.3238 0.928306 0
M  V30 2409 C 249.154 4.31814 0.126776 0
M  V30 2410 C 248.289 5.20468 1.06236 0
M  V30 2411 C 247.328 6.11577 0.253035 0
M  V30 2412 N 246.465 6.92754 1.14179 0
M  V30 2413 H 251.305 2.8778 -0.773727 0
M  V30 2414 H 248.842 1.41745 -0.393283 0
M  V30 2415 H 250.8 3.89813 1.48666 0
M  V30 2416 H 249.43 2.76976 1.65783 0
M  V30 2417 H 248.482 3.76427 -0.54833 0
M  V30 2418 H 249.794 4.96276 -0.501192 0
M  V30 2419 H 248.948 5.82677 1.69035 0
M  V30 2420 H 247.687 4.56204 1.7242 0
M  V30 2421 H 246.692 5.48428 -0.388108 0
M  V30 2422 H 247.917 6.77892 -0.404839 0
M  V30 2423 H 245.863 6.3111 1.78987 0
M  V30 2424 H 245.78 7.53855 0.569111 0
M  V30 2425 H 247.048 7.59441 1.75697 0
M  V30 2426 N 251.277 0.427512 1.51691 0
M  V30 2427 C 252.525 -0.141948 2.01601 0
M  V30 2428 C 252.846 -1.44067 1.31414 0
M  V30 2429 O 252.116 -1.90763 0.445658 0
M  V30 2430 H 250.696 -0.0554468 0.744939 0
M  V30 2431 H 253.358 0.567968 1.86441 0
M  V30 2432 H 252.454 -0.324913 3.10404 0
M  V30 2433 N 252.755 -1.56801 0.158532 0
M  V30 2434 C 254.171 -1.5837 -0.197774 0
M  V30 2435 C 254.371 -1.17334 -1.63814 0
M  V30 2436 O 253.427 -0.878988 -2.36707 0
M  V30 2437 C 254.74 -3.00615 0.0714459 0
M  V30 2438 C 256.288 -3.12999 0.00864533 0
M  V30 2439 C 256.763 -4.57313 0.250685 0
M  V30 2440 N 258.254 -4.62777 0.198014 0
M  V30 2441 C 258.989 -5.72271 0.359642 0
M  V30 2442 N 258.485 -6.90371 0.579625 0
M  V30 2443 N 260.278 -5.61318 0.296438 0
M  V30 2444 H 252.429 -1.81765 1.09887 0
M  V30 2445 H 254.692 -0.841849 0.435884 0
M  V30 2446 H 254.398 -3.35068 1.06874 0
M  V30 2447 H 254.272 -3.71683 -0.642757 0
M  V30 2448 H 256.659 -2.7838 -0.979217 0
M  V30 2449 H 256.74 -2.44393 0.755359 0
M  V30 2450 H 256.384 -4.92639 1.2357 0
M  V30 2451 H 256.314 -5.24061 -0.516489 0
M  V30 2452 H 258.805 -3.77885 0.0331115 0
M  V30 2453 H 259.118 -7.69689 0.69275 0
M  V30 2454 H 257.463 -6.92264 0.616087 0
M  V30 2455 H 260.654 -4.67932 0.125258 0
M  V30 2456 H 260.827 -6.46599 0.425831 0
M  V30 2457 N 254.233 0.115231 -1.57178 0
M  V30 2458 C 255.644 0.67197 -1.74188 0
M  V30 2459 C 255.995 1.80125 -0.777777 0
M  V30 2460 O 255.12 2.16346 0.0484376 0
M  V30 2461 C 255.715 1.22573 -3.1585 0
M  V30 2462 C 254.274 1.72872 -3.34353 0
M  V30 2463 C 253.421 0.629972 -2.70049 0
M  V30 2464 H 256.372 -0.110712 -1.58313 0
M  V30 2465 H 256.393 2.09535 -3.17609 0
M  V30 2466 H 255.905 0.403598 -3.85996 0
M  V30 2467 H 254.006 2.5755 -2.69256 0
M  V30 2468 H 254.119 1.83557 -4.42542 0
M  V30 2469 H 252.483 1.0645 -2.31388 0
M  V30 2470 H 253.266 -0.181241 -3.42821 0
M  V30 2471 N 255.711 1.52812 0.385517 0
M  V30 2472 C 256.674 1.77188 1.45386 0
M  V30 2473 C 257.674 0.641953 1.4743 0
M  V30 2474 O 258.864 0.910033 1.4854 0
M  V30 2475 C 255.996 1.87582 2.8465 0
M  V30 2476 H 257.189 2.72583 1.25054 0
M  V30 2477 H 254.742 1.43586 0.617467 0
M  V30 2478 H 255.477 0.941849 3.10322 0
M  V30 2479 H 255.262 2.69748 2.84567 0
M  V30 2480 H 256.752 2.08102 3.62054 0
M  V30 2481 N 257.189 -0.644168 1.43834 0
M  V30 2482 C 258.6 -1.22554 1.40845 0
M  V30 2483 C 258.951 -1.9585 0.117115 0
M  V30 2484 O 258.076 -2.01734 -0.783086 0
M  V30 2485 C 258.671 -2.22907 2.55143 0
M  V30 2486 C 257.23 -2.76501 2.5539 0
M  V30 2487 C 256.377 -1.51287 2.32396 0
M  V30 2488 H 259.328 -0.43563 1.52604 0
M  V30 2489 H 259.349 -3.05259 2.2715 0
M  V30 2490 H 258.861 -1.69533 3.49114 0
M  V30 2491 H 256.962 -3.33914 1.65324 0
M  V30 2492 H 257.075 -3.23429 3.53455 0
M  V30 2493 H 255.439 -1.78957 1.81236 0
M  V30 2494 H 256.222 -0.998336 3.28463 0
M  V30 2495 N 258.668 -1.30515 -0.883378 0
M  V30 2496 C 259.916 -1.19194 -1.63209 0
M  V30 2497 C 260.237 0.253205 -1.93349 0
M  V30 2498 O 259.507 1.17025 -1.57105 0
M  V30 2499 H 258.087 -0.438148 -0.605009 0
M  V30 2500 H 260.749 -1.63663 -1.05832 0
M  V30 2501 H 259.845 -1.75396 -2.58153 0
M  V30 2502 N 260.146 1.09593 -1.13257 0
M  V30 2503 C 261.393 1.81734 -0.893257 0
M  V30 2504 C 261.721 1.8563 0.580656 0
M  V30 2505 O 260.976 1.31906 1.44566 0
M  V30 2506 C 261.275 3.27802 -1.42411 0
M  V30 2507 C 260.941 3.44041 -2.91456 0
M  V30 2508 C 259.603 3.48181 -3.3215 0
M  V30 2509 C 261.955 3.48719 -3.87356 0
M  V30 2510 C 259.283 3.54575 -4.67433 0
M  V30 2511 C 261.635 3.56648 -5.2248 0
M  V30 2512 C 260.299 3.59055 -5.62704 0
M  V30 2513 H 259.569 0.665011 -0.326866 0
M  V30 2514 H 262.216 1.2912 -1.41422 0
M  V30 2515 H 260.521 3.83042 -0.823795 0
M  V30 2516 H 262.218 3.82149 -1.21503 0
M  V30 2517 H 258.808 3.41502 -2.58987 0
M  V30 2518 H 262.992 3.44763 -3.57004 0
M  V30 2519 H 258.248 3.54725 -4.97976 0
M  V30 2520 H 262.422 3.59212 -5.96607 0
M  V30 2521 H 260.049 3.63763 -6.67518 0
M  V30 2522 N 261.624 0.925811 1.2754 0
M  V30 2523 C 262.574 0.394488 2.24561 0
M  V30 2524 C 263.558 -0.500183 1.52928 0
M  V30 2525 O 264.75 -0.337936 1.73744 0
M  V30 2526 C 261.879 -0.353328 3.41477 0
M  V30 2527 C 260.965 0.557752 4.20416 0
M  V30 2528 N 261.356 1.67674 4.77199 0
M  V30 2529 C 259.654 0.360404 4.44541 0
M  V30 2530 C 260.355 2.24324 5.36706 0
M  V30 2531 N 259.331 1.53305 5.21535 0
M  V30 2532 H 263.133 1.2489 2.66045 0
M  V30 2533 H 260.647 0.779864 1.4245 0
M  V30 2534 H 262.644 -0.7509 4.10082 0
M  V30 2535 H 261.304 -1.20469 3.01525 0
M  V30 2536 H 262.315 2.05915 4.75204 0
M  V30 2537 H 258.992 -0.450454 4.15063 0
M  V30 2538 H 260.382 3.18521 5.91603 0
M  V30 2539 N 263.102 -1.41638 0.69111 0
M  V30 2540 C 264.052 -2.28 -0.000107832 0
M  V30 2541 C 265.036 -1.41964 -0.757304 0
M  V30 2542 O 266.228 -1.65274 -0.633532 0
M  V30 2543 C 263.357 -3.30209 -0.938983 0
M  V30 2544 C 262.443 -4.23725 -0.17827 0
M  V30 2545 N 262.834 -4.99017 0.825563 0
M  V30 2546 C 261.132 -4.44071 -0.414392 0
M  V30 2547 C 261.833 -5.67431 1.28052 0
M  V30 2548 N 260.809 -5.40197 0.607304 0
M  V30 2549 H 264.611 -2.83644 0.769617 0
M  V30 2550 H 262.125 -1.53797 0.521562 0
M  V30 2551 H 264.122 -3.90898 -1.44929 0
M  V30 2552 H 262.782 -2.76126 -1.70836 0
M  V30 2553 H 263.793 -5.03671 1.20566 0
M  V30 2554 H 260.47 -4.01004 -1.162 0
M  V30 2555 H 261.86 -6.37801 2.11327 0
M  V30 2556 N 264.58 -0.43555 -1.51462 0
M  V30 2557 C 265.828 0.131254 -2.01673 0
M  V30 2558 C 266.149 1.43368 -1.32177 0
M  V30 2559 O 265.419 1.90524 -0.455769 0
M  V30 2560 H 263.999 0.0514954 -0.745223 0
M  V30 2561 H 266.661 -0.577847 -1.86137 0
M  V30 2562 H 265.757 0.308446 -3.10572 0
M  V30 2563 N 266.058 1.56714 -0.166846 0
M  V30 2564 C 267.335 1.88412 0.525373 0
M  V30 2565 C 267.715 1.07602 1.81618 0
M  V30 2566 O 267.063 0.168621 2.27877 0
M  V30 2567 C 267.273 3.40363 0.771613 0
M  V30 2568 C 268.621 4.10007 1.1036 0
M  V30 2569 O 269.645 3.45655 0.860304 0
M  V30 2570 O 268.504 5.2369 1.56239 0
M  V30 2571 H 265.598 0.781587 0.270278 0
M  V30 2572 H 268.144 1.68458 -0.204946 0
M  V30 2573 H 266.916 3.91046 -0.141093 0
M  V30 2574 H 266.539 3.65914 1.55541 0
M  V30 2575 N 267.536 -0.106894 1.57237 0
M  V30 2576 C 268.784 -0.810921 1.85117 0
M  V30 2577 C 269.105 -1.7984 0.753827 0
M  V30 2578 O 268.375 -1.94649 -0.221056 0
M  V30 2579 H 266.955 -0.302466 0.683025 0
M  V30 2580 H 269.617 -0.0913324 1.94686 0
M  V30 2581 H 268.713 -1.34875 2.81452 0
M  V30 2582 N 269.014 -1.53014 -0.377408 0
M  V30 2583 C 270.425 -1.60438 -0.954798 0
M  V30 2584 C 270.776 -0.464418 -1.90624 0
M  V30 2585 O 269.901 0.41087 -2.12464 0
M  V30 2586 C 270.496 -2.90797 -1.73847 0
M  V30 2587 C 269.055 -3.00595 -2.26538 0
M  V30 2588 C 268.202 -2.55645 -1.07429 0
M  V30 2589 H 271.153 -1.57926 -0.156575 0
M  V30 2590 H 271.174 -2.77935 -2.5987 0
M  V30 2591 H 270.686 -3.73746 -1.04574 0
M  V30 2592 H 268.787 -2.22208 -2.99089 0
M  V30 2593 H 268.9 -4.05456 -2.5523 0
M  V30 2594 H 267.264 -2.10239 -1.43777 0
M  V30 2595 H 268.047 -3.41 -0.396728 0
M  V30 2596 N 270.492 0.636531 -1.44174 0
M  V30 2597 C 271.74 1.39343 -1.46383 0
M  V30 2598 C 272.061 1.94766 -0.0955715 0
M  V30 2599 O 271.331 1.75452 0.871395 0
M  V30 2600 H 269.911 0.517199 -0.538994 0
M  V30 2601 H 272.573 0.74957 -1.7991 0
M  V30 2602 H 271.669 2.22746 -2.18611 0
M  V30 2603 N 271.97 1.30982 0.876444 0
M  V30 2604 C 272.918 1.18006 2.00443 0
M  V30 2605 C 273.912 0.0898871 1.69161 0
M  V30 2606 O 275.118 0.251333 1.78237 0
M  V30 2607 H 271.493 0.365196 0.65737 0
M  V30 2608 H 273.464 2.13453 2.0852 0
M  V30 2609 C 272.213 0.897521 3.35916 0
M  V30 2610 H 271.536 1.7285 3.60504 0
M  V30 2611 H 272.976 0.846874 4.15456 0
M  V30 2612 C 271.435 -0.399674 3.34521 0
M  V30 2613 O 271.965 -1.41852 3.7582 0
M  V30 2614 N 270.171 -0.413893 2.87637 0
M  V30 2615 H 269.718 0.41571 2.54224 0
M  V30 2616 H 269.676 -1.28175 2.87086 0
M  V30 2617 N 273.449 -1.08991 1.13837 0
M  V30 2618 C 274.412 -2.13925 0.822715 0
M  V30 2619 C 275.412 -1.599 -0.1699 0
M  V30 2620 O 276.602 -1.74104 0.0577251 0
M  V30 2621 C 273.734 -3.40155 0.225318 0
M  V30 2622 H 274.927 -2.43358 1.75262 0
M  V30 2623 H 272.48 -1.24603 0.943594 0
M  V30 2624 H 273.215 -3.16352 -0.713594 0
M  V30 2625 H 273 -3.80661 0.940193 0
M  V30 2626 H 274.49 -4.17594 0.0214784 0
M  V30 2627 N 274.927 -0.932562 -1.27047 0
M  V30 2628 C 276.173 -0.576412 -1.94436 0
M  V30 2629 C 276.506 0.880891 -1.73072 0
M  V30 2630 O 275.781 1.62905 -1.06264 0
M  V30 2631 C 276.064 -0.909031 -3.48437 0
M  V30 2632 C 275.917 -2.42044 -3.79123 0
M  V30 2633 C 277.236 -0.418341 -4.38107 0
M  V30 2634 H 274.355 -0.210888 -0.706184 0
M  V30 2635 H 276.997 -1.16522 -1.50075 0
M  V30 2636 H 275.147 -0.407947 -3.86352 0
M  V30 2637 H 276.819 -2.99359 -3.50973 0
M  V30 2638 H 275.062 -2.86758 -3.25503 0
M  V30 2639 H 275.733 -2.6037 -4.86736 0
M  V30 2640 H 278.209 -0.847856 -4.0737 0
M  V30 2641 H 277.085 -0.679981 -5.44672 0
M  V30 2642 H 277.346 0.681642 -4.36814 0
M  V30 2643 N 276.405 1.4127 -0.698611 0
M  V30 2644 C 277.337 2.292 0.00399731 0
M  V30 2645 C 278.35 1.44944 0.741279 0
M  V30 2646 O 279.539 1.68416 0.591477 0
M  V30 2647 C 276.639 3.22875 1.02979 0
M  V30 2648 C 275.812 4.35904 0.36151 0
M  V30 2649 C 274.871 5.10134 1.29033 0
M  V30 2650 O 273.897 5.63809 0.781562 0
M  V30 2651 N 275.099 5.17885 2.6225 0
M  V30 2652 H 277.864 2.9014 -0.750921 0
M  V30 2653 H 275.425 1.52455 -0.544882 0
M  V30 2654 H 277.417 3.69404 1.65296 0
M  V30 2655 H 275.987 2.63221 1.68622 0
M  V30 2656 H 275.207 3.91719 -0.441584 0
M  V30 2657 H 276.495 5.08696 -0.103055 0
M  V30 2658 H 275.893 4.7573 3.061 0
M  V30 2659 H 274.45 5.6798 3.19754 0
M  V30 2660 N 277.883 0.443576 1.51229 0
M  V30 2661 C 278.793 -0.370721 2.31652 0
M  V30 2662 C 279.809 -1.02186 1.40833 0
M  V30 2663 O 280.985 -1.01586 1.73903 0
M  V30 2664 C 278.05 -1.45376 3.14749 0
M  V30 2665 C 277.111 -0.822099 4.21355 0
M  V30 2666 C 276.344 -1.85353 5.0048 0
M  V30 2667 O 276.567 -3.07656 4.80316 0
M  V30 2668 O 275.501 -1.4406 5.84406 0
M  V30 2669 H 279.327 0.286002 3.0235 0
M  V30 2670 H 276.912 0.20598 1.47973 0
M  V30 2671 H 278.794 -2.08173 3.66391 0
M  V30 2672 H 277.469 -2.09445 2.46809 0
M  V30 2673 H 276.376 -0.155909 3.73775 0
M  V30 2674 H 277.709 -0.224797 4.91686 0
M  V30 2675 N 279.361 -1.56624 0.175154 0
M  V30 2676 C 280.61 -1.96173 -0.468921 0
M  V30 2677 C 280.923 -1.06401 -1.64128 0
M  V30 2678 O 282.129 -1.35648 -2.35185 0
M  V30 2679 C 280.585 -3.48833 -0.885633 0
M  V30 2680 C 280.193 -4.47237 0.261343 0
M  V30 2681 C 281.937 -3.97194 -1.49791 0
M  V30 2682 C 279.844 -5.9114 -0.175214 0
M  V30 2683 H 278.774 -0.732455 -0.178958 0
M  V30 2684 H 281.425 -1.81591 0.263997 0
M  V30 2685 H 279.807 -3.58848 -1.67464 0
M  V30 2686 H 280.981 -4.4894 1.03871 0
M  V30 2687 H 279.296 -4.08956 0.783827 0
M  V30 2688 H 281.893 -5.02167 -1.83665 0
M  V30 2689 H 282.236 -3.40351 -2.39722 0
M  V30 2690 H 282.769 -3.90212 -0.773267 0
M  V30 2691 H 279.508 -6.51865 0.689414 0
M  V30 2692 H 279.028 -5.92735 -0.91786 0
M  V30 2693 H 280.707 -6.44044 -0.617792 0
M  V30 2694 N 280.839 0.0985539 -1.57292 0
M  V30 2695 C 281.772 1.15082 -1.97057 0
M  V30 2696 C 282.75 1.39025 -0.843255 0
M  V30 2697 O 283.934 1.52842 -1.10325 0
M  V30 2698 C 281.061 2.50069 -2.28437 0
M  V30 2699 C 280.107 2.42428 -3.509 0
M  V30 2700 S 280.94 1.84414 -5.02744 0
M  V30 2701 C 282.096 3.21032 -5.37298 0
M  V30 2702 H 282.329 0.811815 -2.86002 0
M  V30 2703 H 279.862 0.306102 -1.51335 0
M  V30 2704 H 281.82 3.27729 -2.47192 0
M  V30 2705 H 280.481 2.8114 -1.40069 0
M  V30 2706 H 279.674 3.41911 -3.70288 0
M  V30 2707 H 279.276 1.72896 -3.31637 0
M  V30 2708 H 281.568 4.17297 -5.33731 0
M  V30 2709 H 282.511 3.06452 -6.38352 0
M  V30 2710 H 282.919 3.20404 -4.64759 0
M  V30 2711 N 282.317 1.53212 0.369288 0
M  V30 2712 C 283.566 1.68436 1.10961 0
M  V30 2713 C 283.879 0.440738 1.9057 0
M  V30 2714 O 285.085 0.473446 2.6734 0
M  V30 2715 C 283.541 2.97744 2.0218 0
M  V30 2716 C 283.149 4.29355 1.279 0
M  V30 2717 C 284.893 3.22334 2.76226 0
M  V30 2718 C 282.8 5.49755 2.17999 0
M  V30 2719 H 281.73 0.627568 0.41794 0
M  V30 2720 H 284.381 1.79713 0.370884 0
M  V30 2721 H 282.763 2.8026 2.79768 0
M  V30 2722 H 283.937 4.57458 0.554007 0
M  V30 2723 H 282.252 4.11179 0.657311 0
M  V30 2724 H 284.849 4.09471 3.43857 0
M  V30 2725 H 285.192 2.38238 3.41392 0
M  V30 2726 H 285.725 3.40475 2.05723 0
M  V30 2727 H 282.464 6.36318 1.57417 0
M  V30 2728 H 281.984 5.25937 2.88359 0
M  V30 2729 H 283.663 5.84401 2.77641 0
M  V30 2730 N 283.795 -0.628877 1.44509 0
M  V30 2731 C 285.206 -1.21054 1.42137 0
M  V30 2732 C 285.557 -1.95715 0.137881 0
M  V30 2733 O 284.682 -2.02554 -0.761645 0
M  V30 2734 C 285.277 -2.20189 2.57493 0
M  V30 2735 C 283.836 -2.73777 2.58308 0
M  V30 2736 C 282.983 -1.48813 2.33987 0
M  V30 2737 H 285.934 -0.41942 1.53057 0
M  V30 2738 H 285.955 -3.02833 2.30375 0
M  V30 2739 H 285.467 -1.6582 3.50892 0
M  V30 2740 H 283.568 -3.32142 1.68856 0
M  V30 2741 H 283.681 -3.19662 3.56865 0
M  V30 2742 H 282.045 -1.77024 1.83124 0
M  V30 2743 H 282.828 -0.963442 3.29504 0
M  V30 2744 N 285.273 -1.31445 -0.869486 0
M  V30 2745 C 286.236 -1.19094 -1.9583 0
M  V30 2746 C 287.236 -0.117906 -1.60367 0
M  V30 2747 O 288.426 -0.367208 -1.70286 0
M  V30 2748 C 285.558 -0.828165 -3.30688 0
M  V30 2749 H 286.751 -2.15842 -2.08212 0
M  V30 2750 H 284.304 -1.15063 -1.05784 0
M  V30 2751 H 285.039 0.138142 -3.24006 0
M  V30 2752 H 284.824 -1.6038 -3.578 0
M  V30 2753 H 286.314 -0.765658 -4.10521 0
M  V30 2754 N 286.751 1.08385 -1.14413 0
M  V30 2755 C 287.976 1.85057 -0.936413 0
M  V30 2756 C 288.401 1.81055 0.509971 0
M  V30 2757 O 287.759 1.1958 1.36273 0
M  V30 2758 C 287.807 3.30505 -1.44217 0
M  V30 2759 O 286.911 4.07491 -0.634409 0
M  V30 2760 H 286.252 0.573425 -0.334784 0
M  V30 2761 H 288.782 1.36799 -1.52142 0
M  V30 2762 H 288.792 3.81348 -1.45043 0
M  V30 2763 H 287.467 3.32734 -2.49522 0
M  V30 2764 H 286.044 3.66368 -0.694902 0
M  V30 2765 N 288.23 0.939286 1.26551 0
M  V30 2766 C 289.177 0.446088 2.26448 0
M  V30 2767 C 290.147 -0.493234 1.58608 0
M  V30 2768 O 291.332 -0.409857 1.86346 0
M  V30 2769 C 288.472 -0.284375 3.43926 0
M  V30 2770 C 287.585 0.690399 4.26448 0
M  V30 2771 C 286.72 -0.0610712 5.31165 0
M  V30 2772 C 285.759 0.905649 6.05363 0
M  V30 2773 N 284.896 0.186055 7.01853 0
M  V30 2774 H 289.736 1.30291 2.68008 0
M  V30 2775 H 287.273 0.65371 1.31776 0
M  V30 2776 H 289.231 -0.724313 4.10864 0
M  V30 2777 H 287.861 -1.10535 3.03285 0
M  V30 2778 H 286.913 1.24885 3.59316 0
M  V30 2779 H 288.225 1.42873 4.779 0
M  V30 2780 H 287.379 -0.56038 6.04106 0
M  V30 2781 H 286.118 -0.832297 4.80546 0
M  V30 2782 H 285.123 1.4161 5.3125 0
M  V30 2783 H 286.348 1.67685 6.58072 0
M  V30 2784 H 284.294 -0.566714 6.53548 0
M  V30 2785 H 284.211 0.863752 7.51049 0
M  V30 2786 H 285.479 -0.292221 7.78952 0
M  V30 2787 N 289.708 -1.40897 0.706093 0
M  V30 2788 C 290.671 -2.29131 0.0562841 0
M  V30 2789 C 291.671 -1.44901 -0.697166 0
M  V30 2790 O 292.861 -1.65926 -0.530484 0
M  V30 2791 C 289.993 -3.27957 -0.93043 0
M  V30 2792 H 291.186 -2.88091 0.833284 0
M  V30 2793 H 288.739 -1.4906 0.470192 0
M  V30 2794 H 289.474 -2.73997 -1.73482 0
M  V30 2795 H 289.259 -3.90124 -0.393166 0
M  V30 2796 H 290.749 -3.94049 -1.38256 0
M  V30 2797 N 291.186 -0.45159 -1.50991 0
M  V30 2798 C 292.434 0.109857 -2.01801 0
M  V30 2799 C 292.755 1.41958 -1.3369 0
M  V30 2800 O 292.025 1.9003 -0.475951 0
M  V30 2801 H 290.605 0.0435884 -0.745727 0
M  V30 2802 H 293.267 -0.597557 -1.85514 0
M  V30 2803 H 292.363 0.275489 -3.10882 0
M  V30 2804 N 292.664 1.56529 -0.183458 0
M  V30 2805 C 293.594 2.21549 0.737456 0
M  V30 2806 C 294.575 1.17489 1.23005 0
M  V30 2807 O 295.76 1.45959 1.281 0
M  V30 2808 C 292.89 2.86575 1.96194 0
M  V30 2809 C 291.844 3.96778 1.60473 0
M  V30 2810 C 291.17 4.48911 2.90487 0
M  V30 2811 C 292.47 5.15767 0.823497 0
M  V30 2812 H 294.164 2.98761 0.195453 0
M  V30 2813 H 291.71 1.43702 0.0925686 0
M  V30 2814 H 293.663 3.30739 2.61131 0
M  V30 2815 H 292.387 2.06749 2.52828 0
M  V30 2816 H 291.046 3.53286 0.978997 0
M  V30 2817 H 290.694 3.65862 3.45186 0
M  V30 2818 H 290.394 5.23265 2.67335 0
M  V30 2819 H 291.918 4.95771 3.56432 0
M  V30 2820 H 293.332 5.56549 1.37571 0
M  V30 2821 H 291.729 5.96114 0.690551 0
M  V30 2822 H 292.799 4.84574 -0.177782 0
M  V30 2823 N 294.142 -0.090211 1.57342 0
M  V30 2824 C 295.388 -0.793982 1.86611 0
M  V30 2825 C 295.721 -1.78142 0.773252 0
M  V30 2826 O 294.996 -1.93271 -0.218304 0
M  V30 2827 C 295.279 -1.51839 3.26523 0
M  V30 2828 C 295.132 -0.548609 4.46442 0
M  V30 2829 C 296.451 -2.46779 3.64401 0
M  V30 2830 H 293.57 -0.287186 0.678744 0
M  V30 2831 H 296.212 -0.0575076 1.89913 0
M  V30 2832 H 294.362 -2.14617 3.23839 0
M  V30 2833 H 296.034 0.0725513 4.61243 0
M  V30 2834 H 294.277 0.137614 4.33582 0
M  V30 2835 H 294.948 -1.09271 5.41076 0
M  V30 2836 H 297.424 -1.94089 3.68061 0
M  V30 2837 H 296.3 -2.94479 4.63221 0
M  V30 2838 H 296.561 -3.30758 2.93346 0
M  V30 2839 N 295.62 -1.53406 -0.361157 0
M  V30 2840 C 296.869 -1.69022 -1.10066 0
M  V30 2841 C 297.182 -0.450838 -1.90333 0
M  V30 2842 O 298.388 -0.487617 -2.67085 0
M  V30 2843 C 296.844 -2.98812 -2.00598 0
M  V30 2844 C 296.452 -4.30027 -1.25621 0
M  V30 2845 C 298.196 -3.23795 -2.74513 0
M  V30 2846 C 296.103 -5.50903 -2.1508 0
M  V30 2847 H 295.033 -0.629776 -0.414606 0
M  V30 2848 H 297.684 -1.79907 -0.361348 0
M  V30 2849 H 296.066 -2.8174 -2.78278 0
M  V30 2850 H 297.24 -4.57745 -0.529739 0
M  V30 2851 H 295.555 -4.11522 -0.635496 0
M  V30 2852 H 298.152 -4.11289 -3.41681 0
M  V30 2853 H 298.495 -2.40045 -3.40123 0
M  V30 2854 H 299.028 -3.41561 -2.03914 0
M  V30 2855 H 295.767 -6.37143 -1.54041 0
M  V30 2856 H 295.287 -5.27459 -2.85565 0
M  V30 2857 H 296.966 -5.85865 -2.74538 0
M  V30 2858 N 297.098 0.621204 -1.44841 0
M  V30 2859 C 298.346 1.37783 -1.47852 0
M  V30 2860 C 298.667 1.94653 -0.116224 0
M  V30 2861 O 297.937 1.76367 0.852737 0
M  V30 2862 H 296.517 0.511453 -0.544449 0
M  V30 2863 H 299.179 0.730446 -1.80694 0
M  V30 2864 H 298.275 2.20414 -2.20961 0
M  V30 2865 N 298.576 1.31904 0.862503 0
M  V30 2866 C 299.523 1.20182 1.9704 0
M  V30 2867 C 300.493 0.0858247 1.65878 0
M  V30 2868 O 301.678 0.26 1.8902 0
M  V30 2869 C 298.818 0.922797 3.32533 0
M  V30 2870 C 297.931 2.12284 3.76244 0
M  V30 2871 C 297.066 1.77996 5.00491 0
M  V30 2872 C 296.105 2.94366 5.36671 0
M  V30 2873 N 295.242 2.60223 6.52095 0
M  V30 2874 H 300.082 2.14951 2.06398 0
M  V30 2875 H 297.619 1.06917 1.01031 0
M  V30 2876 H 299.577 0.741548 4.10557 0
M  V30 2877 H 298.207 0.0119227 3.22798 0
M  V30 2878 H 297.259 2.41461 2.9394 0
M  V30 2879 H 298.571 2.99357 3.98982 0
M  V30 2880 H 297.725 1.56377 5.862 0
M  V30 2881 H 296.464 0.881252 4.79672 0
M  V30 2882 H 295.469 3.16625 4.49476 0
M  V30 2883 H 296.694 3.84957 5.59451 0
M  V30 2884 H 294.64 1.72884 6.32809 0
M  V30 2885 H 294.557 3.40827 6.74814 0
M  V30 2886 H 295.825 2.42016 7.40978 0
M  V30 2887 N 300.054 -1.07777 1.14986 0
M  V30 2888 C 301.302 -1.79934 0.920235 0
M  V30 2889 C 301.623 -1.86955 -0.554336 0
M  V30 2890 O 300.893 -1.36731 -1.40291 0
M  V30 2891 H 299.473 -0.666424 0.337473 0
M  V30 2892 H 302.135 -1.3027 1.44968 0
M  V30 2893 H 301.231 -2.82539 1.32583 0
M  V30 2894 N 301.532 -0.945985 -1.26051 0
M  V30 2895 C 302.78 -0.594941 -1.93145 0
M  V30 2896 C 303.101 0.86953 -1.7454 0
M  V30 2897 O 302.371 1.61838 -1.10387 0
M  V30 2898 H 300.951 -0.217044 -0.714773 0
M  V30 2899 H 303.613 -1.20235 -1.53393 0
M  V30 2900 H 302.709 -0.816835 -3.01221 0
M  V30 2901 N 303.011 1.40521 -0.713556 0
M  V30 2902 C 303.921 2.34522 -0.0606667 0
M  V30 2903 C 304.937 1.57193 0.74607 0
M  V30 2904 O 306.113 1.89591 0.679493 0
M  V30 2905 C 303.178 3.36081 0.851491 0
M  V30 2906 C 302.239 4.29286 0.0349339 0
M  V30 2907 C 301.472 5.25994 0.903649 0
M  V30 2908 O 301.695 5.28616 2.14292 0
M  V30 2909 O 300.629 6.00918 0.343723 0
M  V30 2910 H 304.455 2.91968 -0.835972 0
M  V30 2911 H 302.04 1.41681 -0.47402 0
M  V30 2912 H 303.922 3.98369 1.37404 0
M  V30 2913 H 302.597 2.81052 1.60598 0
M  V30 2914 H 301.504 3.70289 -0.532633 0
M  V30 2915 H 302.837 4.87462 -0.681287 0
M  V30 2916 N 304.489 0.459591 1.5075 0
M  V30 2917 C 305.717 -0.0973749 2.06671 0
M  V30 2918 C 306.132 -1.34524 1.32472 0
M  V30 2919 O 305.489 -1.7827 0.390634 0
M  V30 2920 C 305.54 -0.39714 3.59312 0
M  V30 2921 O 305.261 0.801214 4.30711 0
M  V30 2922 C 306.762 -1.00234 4.31819 0
M  V30 2923 H 303.982 0.00195854 0.670997 0
M  V30 2924 H 306.526 0.645072 1.94059 0
M  V30 2925 H 304.681 -1.08951 3.71764 0
M  V30 2926 H 305.095 0.538857 5.21725 0
M  V30 2927 H 306.569 -1.16193 5.39632 0
M  V30 2928 H 307.046 -1.98939 3.91561 0
M  V30 2929 H 307.652 -0.348699 4.23868 0
M  V30 2930 N 305.967 -1.56429 0.191757 0
M  V30 2931 C 307.216 -1.9666 -0.448088 0
M  V30 2932 C 307.529 -1.08136 -1.62991 0
M  V30 2933 O 308.735 -1.38135 -2.33733 0
M  V30 2934 C 307.191 -3.49753 -0.848585 0
M  V30 2935 C 306.799 -4.46935 0.308764 0
M  V30 2936 C 308.543 -3.9876 -1.4557 0
M  V30 2937 C 306.45 -5.91293 -0.112506 0
M  V30 2938 H 305.38 -0.734312 -0.171179 0
M  V30 2939 H 308.031 -1.81301 0.283242 0
M  V30 2940 H 306.413 -3.60604 -1.63649 0
M  V30 2941 H 307.587 -4.47813 1.08627 0
M  V30 2942 H 305.902 -4.08102 0.827158 0
M  V30 2943 H 308.499 -5.04086 -1.78328 0
M  V30 2944 H 308.842 -3.42875 -2.36099 0
M  V30 2945 H 309.375 -3.9101 -0.731836 0
M  V30 2946 H 306.114 -6.51097 0.758514 0
M  V30 2947 H 305.634 -5.93676 -0.854941 0
M  V30 2948 H 307.313 -6.44663 -0.549448 0
M  V30 2949 N 307.445 0.0818655 -1.57387 0
M  V30 2950 C 308.392 1.09834 -2.0299 0
M  V30 2951 C 309.362 1.39043 -0.908639 0
M  V30 2952 O 310.547 1.50282 -1.17559 0
M  V30 2953 C 307.687 2.40971 -2.47037 0
M  V30 2954 C 306.8 2.18379 -3.7274 0
M  V30 2955 C 305.935 3.43008 -4.0561 0
M  V30 2956 C 304.974 3.15736 -5.24383 0
M  V30 2957 N 304.111 4.32667 -5.52941 0
M  V30 2958 H 308.951 0.702472 -2.89602 0
M  V30 2959 H 306.488 0.33531 -1.43227 0
M  V30 2960 H 308.446 3.1752 -2.70623 0
M  V30 2961 H 307.076 2.78379 -1.63417 0
M  V30 2962 H 306.128 1.32569 -3.56552 0
M  V30 2963 H 307.44 1.94227 -4.59431 0
M  V30 2964 H 306.594 4.27958 -4.30043 0
M  V30 2965 H 305.333 3.70225 -3.17466 0
M  V30 2966 H 304.338 2.2918 -4.99757 0
M  V30 2967 H 305.563 2.8985 -6.14136 0
M  V30 2968 H 303.509 4.59935 -4.67756 0
M  V30 2969 H 303.426 4.11753 -6.34031 0
M  V30 2970 H 304.694 5.18644 -5.81918 0
M  V30 2971 N 308.923 1.53595 0.353017 0
M  V30 2972 C 309.855 1.77219 1.45348 0
M  V30 2973 C 310.868 0.65324 1.49119 0
M  V30 2974 O 312.057 0.929775 1.52373 0
M  V30 2975 C 309.157 1.84841 2.84055 0
M  V30 2976 C 308.33 3.14649 3.03833 0
M  V30 2977 C 307.389 3.13351 4.22727 0
M  V30 2978 O 306.415 3.87107 4.17297 0
M  V30 2979 N 307.617 2.35052 5.30783 0
M  V30 2980 H 310.382 2.72178 1.25457 0
M  V30 2981 H 307.943 1.52528 0.542833 0
M  V30 2982 H 309.935 1.81435 3.61751 0
M  V30 2983 H 308.505 0.971114 2.97133 0
M  V30 2984 H 307.725 3.31256 2.13689 0
M  V30 2985 H 309.013 4.00411 3.13925 0
M  V30 2986 H 308.411 1.74663 5.38061 0
M  V30 2987 H 306.968 2.37453 6.07009 0
M  V30 2988 N 310.401 -0.613514 1.45168 0
M  V30 2989 C 311.331 -1.7354 1.56225 0
M  V30 2990 C 312.312 -1.64981 0.41414 0
M  V30 2991 O 313.497 -1.83472 0.636526 0
M  V30 2992 C 310.627 -3.12128 1.52295 0
M  V30 2993 C 309.581 -3.35491 2.65762 0
M  V30 2994 C 308.907 -4.74291 2.46885 0
M  V30 2995 C 310.207 -3.26325 4.0781 0
M  V30 2996 H 311.901 -1.64543 2.50132 0
M  V30 2997 H 309.447 -0.790185 1.20383 0
M  V30 2998 H 311.4 -3.90404 1.58628 0
M  V30 2999 H 310.124 -3.2195 0.549139 0
M  V30 3000 H 308.783 -2.59603 2.58847 0
M  V30 3001 H 308.431 -4.80839 1.47657 0
M  V30 3002 H 308.131 -4.9088 3.22972 0
M  V30 3003 H 309.655 -5.54775 2.55063 0
M  V30 3004 H 311.069 -3.94483 4.16 0
M  V30 3005 H 309.466 -3.54445 4.8424 0
M  V30 3006 H 310.536 -2.23855 4.30136 0
M  V30 3007 N 311.879 -1.3236 -0.855495 0
M  V30 3008 C 312.811 -1.17052 -1.97057 0
M  V30 3009 C 313.824 -0.10574 -1.62456 0
M  V30 3010 O 315.013 -0.354619 -1.74942 0
M  V30 3011 C 312.113 -0.769305 -3.30053 0
M  V30 3012 C 311.286 -1.9222 -3.929 0
M  V30 3013 C 310.345 -1.50466 -5.04228 0
M  V30 3014 O 309.371 -2.21655 -5.24269 0
M  V30 3015 N 310.573 -0.400209 -5.79119 0
M  V30 3016 H 313.338 -2.13103 -2.1073 0
M  V30 3017 H 310.899 -1.24885 -1.0303 0
M  V30 3018 H 312.891 -0.472407 -4.01933 0
M  V30 3019 H 311.461 0.100025 -3.1244 0
M  V30 3020 H 310.681 -2.38563 -3.13817 0
M  V30 3021 H 311.969 -2.69403 -4.31624 0
M  V30 3022 H 311.367 0.192319 -5.65373 0
M  V30 3023 H 309.924 -0.162912 -6.51596 0
M  V30 3024 N 313.357 1.07166 -1.15556 0
M  V30 3025 C 314.267 2.17947 -0.868116 0
M  V30 3026 C 315.283 1.73297 0.156297 0
M  V30 3027 O 316.459 2.01392 -0.0182327 0
M  V30 3028 C 313.524 3.44789 -0.36355 0
M  V30 3029 C 312.585 4.03996 -1.45209 0
M  V30 3030 C 311.818 5.24783 -0.971508 0
M  V30 3031 O 312.041 5.70109 0.182194 0
M  V30 3032 O 310.975 5.75715 -1.75603 0
M  V30 3033 H 314.801 2.4503 -1.79427 0
M  V30 3034 H 312.386 1.16539 -0.934824 0
M  V30 3035 H 314.268 4.21307 -0.0887113 0
M  V30 3036 H 312.943 3.19253 0.534708 0
M  V30 3037 H 311.85 3.29009 -1.78056 0
M  V30 3038 H 313.183 4.33808 -2.32533 0
M  V30 3039 N 314.835 0.952656 1.25548 0
M  V30 3040 C 316.251 0.656769 1.4546 0
M  V30 3041 C 316.451 -0.78633 1.85524 0
M  V30 3042 O 315.507 -1.56183 1.98402 0
M  V30 3043 C 316.82 1.62801 2.52817 0
M  V30 3044 C 318.368 1.63897 2.66659 0
M  V30 3045 C 318.843 2.5978 3.77198 0
M  V30 3046 N 320.334 2.58133 3.84606 0
M  V30 3047 C 321.069 3.29003 4.69621 0
M  V30 3048 N 320.565 4.09339 5.58939 0
M  V30 3049 N 322.358 3.179 4.63569 0
M  V30 3050 H 314.509 1.88526 0.978344 0
M  V30 3051 H 316.772 0.810815 0.491206 0
M  V30 3052 H 316.478 2.65869 2.30232 0
M  V30 3053 H 316.352 1.38898 3.50695 0
M  V30 3054 H 318.739 0.615481 2.8861 0
M  V30 3055 H 318.82 1.91858 1.69187 0
M  V30 3056 H 318.464 3.62254 3.55997 0
M  V30 3057 H 318.394 2.29105 4.7415 0
M  V30 3058 H 320.885 1.99809 3.20757 0
M  V30 3059 H 321.198 4.6034 6.20731 0
M  V30 3060 H 319.543 4.13438 5.58654 0
M  V30 3061 H 322.734 2.54612 3.92798 0
M  V30 3062 H 322.907 3.73398 5.29602 0
M  V30 3063 N 316.313 -1.40141 0.720998 0
M  V30 3064 C 317.276 -2.29058 0.0805834 0
M  V30 3065 C 318.276 -1.45632 -0.681758 0
M  V30 3066 O 319.466 -1.6648 -0.512856 0
M  V30 3067 C 316.598 -3.28925 -0.895593 0
M  V30 3068 H 317.791 -2.87191 0.863793 0
M  V30 3069 H 315.344 -1.48553 0.485975 0
M  V30 3070 H 316.079 -2.75822 -1.70566 0
M  V30 3071 H 315.864 -3.90519 -0.351766 0
M  V30 3072 H 317.354 -3.95494 -1.34069 0
M  V30 3073 N 317.792 -0.46758 -1.50504 0
M  V30 3074 C 319.04 0.0884469 -2.01906 0
M  V30 3075 C 319.361 1.40532 -1.35188 0
M  V30 3076 O 318.631 1.89515 -0.496079 0
M  V30 3077 H 317.211 0.0356765 -0.746148 0
M  V30 3078 H 319.873 -0.6172 -1.84869 0
M  V30 3079 H 318.969 0.2425 -3.11156 0
M  V30 3080 N 319.27 1.56325 -0.20005 0
M  V30 3081 C 320.516 1.98012 0.438059 0
M  V30 3082 C 320.849 1.08702 1.60927 0
M  V30 3083 O 320.124 0.140064 1.93995 0
M  V30 3084 C 320.407 3.48841 0.893419 0
M  V30 3085 C 320.26 4.48928 -0.279947 0
M  V30 3086 C 321.579 4.03498 1.75719 0
M  V30 3087 H 318.698 0.719918 0.157757 0
M  V30 3088 H 321.34 1.87743 -0.291968 0
M  V30 3089 H 319.49 3.57723 1.51547 0
M  V30 3090 H 321.162 4.52079 -0.91772 0
M  V30 3091 H 319.405 4.23694 -0.930919 0
M  V30 3092 H 320.076 5.5194 0.0812601 0
M  V30 3093 H 322.552 3.97427 1.23253 0
M  V30 3094 H 321.428 5.09393 2.04476 0
M  V30 3095 H 321.689 3.4906 2.71311 0
M  V30 3096 N 320.748 -0.0735177 1.57428 0
M  V30 3097 C 321.695 -1.08756 2.0357 0
M  V30 3098 C 322.665 -1.38559 0.916 0
M  V30 3099 O 323.85 -1.49656 1.18354 0
M  V30 3100 C 320.99 -2.39657 2.48311 0
M  V30 3101 C 320.103 -2.16399 3.73892 0
M  V30 3102 C 319.238 -3.40852 4.07423 0
M  V30 3103 C 318.277 -3.1295 5.2605 0
M  V30 3104 N 317.414 -4.29729 5.55228 0
M  V30 3105 H 322.254 -0.687104 2.8997 0
M  V30 3106 H 319.791 -0.327709 1.43403 0
M  V30 3107 H 321.749 -3.16081 2.72303 0
M  V30 3108 H 320.379 -2.77508 1.64891 0
M  V30 3109 H 319.431 -1.30676 3.57251 0
M  V30 3110 H 320.743 -1.91788 4.60455 0
M  V30 3111 H 319.897 -4.25671 4.32306 0
M  V30 3112 H 318.636 -3.68537 3.19425 0
M  V30 3113 H 317.641 -2.26526 5.00965 0
M  V30 3114 H 318.866 -2.86589 6.15665 0
M  V30 3115 H 316.812 -4.57448 4.70188 0
M  V30 3116 H 316.729 -4.08385 6.36206 0
M  V30 3117 H 317.997 -5.1555 5.84661 0
M  V30 3118 N 322.226 -1.5378 -0.344866 0
M  V30 3119 C 323.159 -1.7649 -1.4466 0
M  V30 3120 C 324.137 -0.613954 -1.50563 0
M  V30 3121 O 325.321 -0.84896 -1.683 0
M  V30 3122 C 322.448 -1.86235 -2.82903 0
M  V30 3123 C 321.494 -3.08375 -2.94631 0
M  V30 3124 S 322.327 -4.67457 -2.61236 0
M  V30 3125 C 323.483 -4.80079 -4.0159 0
M  V30 3126 H 323.716 -2.69661 -1.2518 0
M  V30 3127 H 321.249 -1.44632 -0.540455 0
M  V30 3128 H 323.207 -1.92535 -3.62547 0
M  V30 3129 H 321.868 -0.940786 -2.9968 0
M  V30 3130 H 321.061 -3.11865 -3.95925 0
M  V30 3131 H 320.663 -3.00294 -2.22934 0
M  V30 3132 H 322.955 -4.61407 -4.96094 0
M  V30 3133 H 323.898 -5.82168 -4.03095 0
M  V30 3134 H 324.306 -4.08544 -3.89554 0
M  V30 3135 N 323.704 0.605807 -1.45491 0
M  V30 3136 C 324.95 1.36679 -1.49823 0
M  V30 3137 C 325.283 1.93693 -0.140175 0
M  V30 3138 O 324.558 1.75158 0.845581 0
M  V30 3139 C 324.841 2.51337 -2.57879 0
M  V30 3140 C 324.694 1.99508 -4.03134 0
M  V30 3141 C 326.013 3.53463 -2.62205 0
M  V30 3142 H 323.132 0.495617 -0.545466 0
M  V30 3143 H 325.774 0.682732 -1.7731 0
M  V30 3144 H 323.924 3.09691 -2.34571 0
M  V30 3145 H 325.596 1.45789 -4.37656 0
M  V30 3146 H 323.839 1.30496 -4.13707 0
M  V30 3147 H 324.51 2.82169 -4.74431 0
M  V30 3148 H 326.986 3.04953 -2.83095 0
M  V30 3149 H 325.862 4.31178 -3.39672 0
M  V30 3150 H 326.123 4.09197 -1.67363 0
M  V30 3151 N 325.182 1.32811 0.848464 0
M  V30 3152 C 326.115 1.16601 1.96162 0
M  V30 3153 C 327.093 0.0638855 1.62474 0
M  V30 3154 O 328.277 0.224348 1.8716 0
M  V30 3155 C 325.404 0.786333 3.29446 0
M  V30 3156 C 324.45 1.89459 3.8211 0
M  V30 3157 S 325.283 3.50395 4.04949 0
M  V30 3158 C 326.439 3.14413 5.41198 0
M  V30 3159 H 326.672 2.10832 2.09612 0
M  V30 3160 H 324.205 1.17543 1.00115 0
M  V30 3161 H 326.163 0.574044 4.06466 0
M  V30 3162 H 324.824 -0.137218 3.138 0
M  V30 3163 H 324.017 1.58207 4.78526 0
M  V30 3164 H 323.619 2.06304 3.11953 0
M  V30 3165 H 325.911 2.64642 6.23675 0
M  V30 3166 H 326.854 4.09874 5.77416 0
M  V30 3167 H 327.262 2.51266 5.05495 0
M  V30 3168 N 326.66 -1.06551 1.16123 0
M  V30 3169 C 327.909 -1.78687 0.935622 0
M  V30 3170 C 328.222 -1.88056 -0.538001 0
M  V30 3171 O 329.428 -2.56794 -0.88143 0
M  V30 3172 C 327.884 -3.21143 1.62466 0
M  V30 3173 C 327.492 -3.19949 3.13587 0
M  V30 3174 C 329.236 -3.9783 1.48092 0
M  V30 3175 C 327.143 -4.57108 3.75241 0
M  V30 3176 H 326.073 -0.669712 0.346412 0
M  V30 3177 H 328.724 -1.19534 1.39226 0
M  V30 3178 H 327.106 -3.80539 1.09572 0
M  V30 3179 H 328.28 -2.70151 3.73303 0
M  V30 3180 H 326.595 -2.5676 3.27816 0
M  V30 3181 H 329.192 -4.99217 1.91538 0
M  V30 3182 H 329.535 -4.14078 0.429507 0
M  V30 3183 H 330.068 -3.4495 1.98127 0
M  V30 3184 H 326.807 -4.46065 4.80319 0
M  V30 3185 H 326.327 -5.07111 3.20309 0
M  V30 3186 H 328.006 -5.26069 3.76644 0
M  V30 3187 N 328.138 -0.959301 -1.25041 0
M  V30 3188 C 329.07 -0.440543 -2.24926 0
M  V30 3189 C 330.083 0.446131 -1.56568 0
M  V30 3190 O 331.272 0.253657 -1.76689 0
M  V30 3191 C 328.372 0.38412 -3.36716 0
M  V30 3192 C 327.545 -0.490658 -4.34639 0
M  V30 3193 C 326.604 0.276587 -5.25473 0
M  V30 3194 O 325.63 -0.326614 -5.68262 0
M  V30 3195 N 326.832 1.56844 -5.5891 0
M  V30 3196 H 329.597 -1.29931 -2.70071 0
M  V30 3197 H 327.158 -0.830181 -1.38995 0
M  V30 3198 H 329.15 0.905228 -3.94446 0
M  V30 3199 H 327.72 1.14377 -2.90924 0
M  V30 3200 H 326.94 -1.19282 -3.7572 0
M  V30 3201 H 328.228 -1.08756 -4.97041 0
M  V30 3202 H 327.626 2.08036 -5.26059 0
M  V30 3203 H 326.183 2.03541 -6.19205 0
M  V30 3204 N 329.616 1.39756 -0.72842 0
M  V30 3205 C 330.893 1.94574 -0.200079 0
M  V30 3206 C 331.273 1.66569 1.29684 0
M  V30 3207 O 330.621 0.990326 2.05924 0
M  V30 3208 C 330.831 3.45004 -0.526608 0
M  V30 3209 C 332.179 4.21965 -0.472318 0
M  V30 3210 O 333.203 3.53173 -0.463413 0
M  V30 3211 O 332.062 5.44552 -0.461075 0
M  V30 3212 H 329.156 0.826289 -0.0342851 0
M  V30 3213 H 331.702 1.49293 -0.806829 0
M  V30 3214 H 330.474 3.58796 -1.56144 0
M  V30 3215 H 330.097 3.97449 0.109449 0
M  V30 3216 N 331.094 0.475555 1.50254 0
M  V30 3217 C 332.342 -0.077738 2.0195 0
M  V30 3218 C 332.663 -1.39813 1.35931 0
M  V30 3219 O 331.933 -1.89249 0.506123 0
M  V30 3220 H 330.513 -0.031719 0.746326 0
M  V30 3221 H 333.175 0.626995 1.84539 0
M  V30 3222 H 332.271 -0.225995 3.11281 0
M  V30 3223 N 332.573 -1.56217 0.208337 0
M  V30 3224 C 333.984 -1.84243 -0.301904 0
M  V30 3225 C 334.335 -1.12939 -1.60434 0
M  V30 3226 O 333.46 -0.39461 -2.12772 0
M  V30 3227 C 334.055 -3.34231 -0.554543 0
M  V30 3228 C 332.614 -3.62621 -1.00912 0
M  V30 3229 C 331.761 -2.77224 -0.064933 0
M  V30 3230 H 334.712 -1.52712 0.431833 0
M  V30 3231 H 334.733 -3.5372 -1.40223 0
M  V30 3232 H 334.245 -3.86099 0.393561 0
M  V30 3233 H 332.346 -3.16197 -1.97104 0
M  V30 3234 H 332.459 -4.7071 -0.892674 0
M  V30 3235 H 330.823 -2.48256 -0.56929 0
M  V30 3236 H 331.606 -3.31887 0.877851 0
M  V30 3237 N 334.051 0.0651679 -1.57465 0
M  V30 3238 C 334.983 1.10359 -2.00882 0
M  V30 3239 C 335.996 1.346 -0.915788 0
M  V30 3240 O 337.185 1.32723 -1.1936 0
M  V30 3241 C 334.285 2.45312 -2.33828 0
M  V30 3242 C 333.458 2.40934 -3.65061 0
M  V30 3243 C 332.517 3.58047 -3.85602 0
M  V30 3244 O 331.543 3.39175 -4.57109 0
M  V30 3245 N 332.745 4.78637 -3.28462 0
M  V30 3246 H 335.51 0.733807 -2.90578 0
M  V30 3247 H 333.071 0.253719 -1.599 0
M  V30 3248 H 335.063 3.22314 -2.44737 0
M  V30 3249 H 333.633 2.74267 -1.49988 0
M  V30 3250 H 332.853 1.49273 -3.64844 0
M  V30 3251 H 334.141 2.35117 -4.51218 0
M  V30 3252 H 333.539 4.96872 -2.70433 0
M  V30 3253 H 332.096 5.53127 -3.44809 0
M  V30 3254 N 335.529 1.53961 0.336706 0
M  V30 3255 C 336.477 1.83136 1.43401 0
M  V30 3256 C 337.471 0.702313 1.54156 0
M  V30 3257 O 338.677 0.885765 1.56698 0
M  V30 3258 H 335.052 0.580309 0.478273 0
M  V30 3259 H 337.023 2.74925 1.16012 0
M  V30 3260 C 335.772 2.06385 2.79822 0
M  V30 3261 H 335.095 2.92718 2.72316 0
M  V30 3262 H 336.535 2.30761 3.55704 0
M  V30 3263 C 334.994 0.851414 3.25964 0
M  V30 3264 O 335.524 0.0541904 4.01663 0
M  V30 3265 N 333.73 0.66672 2.82848 0
M  V30 3266 H 333.277 1.31665 2.21409 0
M  V30 3267 H 333.235 -0.143032 3.14074 0
M  V30 3268 N 337.007 -0.598083 1.45811 0
M  V30 3269 C 338.235 -1.38322 1.53866 0
M  V30 3270 C 338.65 -1.87992 0.174479 0
M  V30 3271 O 338.007 -1.62756 -0.825627 0
M  V30 3272 C 338.058 -2.58125 2.53089 0
M  V30 3273 O 337.779 -2.10516 3.84206 0
M  V30 3274 C 339.28 -3.50869 2.70935 0
M  V30 3275 H 336.5 -0.423093 0.520801 0
M  V30 3276 H 339.044 -0.728527 1.91083 0
M  V30 3277 H 337.199 -3.19615 2.18917 0
M  V30 3278 H 337.613 -2.88425 4.38077 0
M  V30 3279 H 339.087 -4.31451 3.44317 0
M  V30 3280 H 339.564 -4.01822 1.77301 0
M  V30 3281 H 340.17 -2.95225 3.06141 0
M  V30 3282 N 338.485 -1.33259 -0.841409 0
M  V30 3283 C 339.733 -1.24326 -1.59334 0
M  V30 3284 C 340.054 0.191564 -1.94057 0
M  V30 3285 O 339.324 1.11967 -1.60749 0
M  V30 3286 H 337.904 -0.457174 -0.590763 0
M  V30 3287 H 340.566 -1.66947 -1.00571 0
M  V30 3288 H 339.662 -1.8352 -2.52442 0
M  V30 3289 N 339.963 1.05934 -1.16686 0
M  V30 3290 C 340.926 2.11669 -0.879144 0
M  V30 3291 C 341.926 1.60294 0.127445 0
M  V30 3292 O 343.116 1.7389 -0.103865 0
M  V30 3293 C 340.248 3.39438 -0.315425 0
M  V30 3294 H 341.441 2.38626 -1.81653 0
M  V30 3295 H 338.994 1.22058 -0.976299 0
M  V30 3296 H 339.729 3.18132 0.629468 0
M  V30 3297 H 339.514 3.78034 -1.04079 0
M  V30 3298 H 341.004 4.17391 -0.132189 0
M  V30 3299 N 341.441 0.965919 1.2453 0
M  V30 3300 C 342.718 0.543777 1.87889 0
M  V30 3301 C 343.098 -0.97909 1.87021 0
M  V30 3302 O 342.446 -1.84969 1.3416 0
M  V30 3303 C 342.656 1.13327 3.30088 0
M  V30 3304 C 344.004 1.21707 4.06783 0
M  V30 3305 O 345.028 1.08566 3.39252 0
M  V30 3306 O 343.887 1.42456 5.27606 0
M  V30 3307 H 340.981 0.181054 0.806938 0
M  V30 3308 H 343.527 1.06007 1.32516 0
M  V30 3309 H 342.299 2.17612 3.25209 0
M  V30 3310 H 341.922 0.600911 3.93033 0
M  V30 3311 N 342.919 -1.39368 0.735821 0
M  V30 3312 C 343.866 -2.30599 0.0963825 0
M  V30 3313 C 344.836 -1.49257 -0.728794 0
M  V30 3314 O 346.021 -1.77941 -0.688588 0
M  V30 3315 C 343.161 -3.35596 -0.804305 0
M  V30 3316 C 342.274 -4.31987 0.0335761 0
M  V30 3317 C 341.409 -5.24053 -0.868461 0
M  V30 3318 C 340.448 -6.12095 -0.0258776 0
M  V30 3319 N 339.585 -6.96514 -0.883893 0
M  V30 3320 H 344.425 -2.8471 0.880002 0
M  V30 3321 H 341.962 -1.40188 0.445619 0
M  V30 3322 H 343.92 -3.95062 -1.34096 0
M  V30 3323 H 342.55 -2.82938 -1.55389 0
M  V30 3324 H 341.602 -3.74133 0.68766 0
M  V30 3325 H 342.914 -4.94074 0.685036 0
M  V30 3326 H 342.068 -5.88549 -1.47293 0
M  V30 3327 H 340.807 -4.62289 -1.5537 0
M  V30 3328 H 339.812 -5.4661 0.591386 0
M  V30 3329 H 341.037 -6.75923 0.656156 0
M  V30 3330 H 338.983 -6.37318 -1.55441 0
M  V30 3331 H 338.9 -7.55448 -0.288931 0
M  V30 3332 H 340.168 -7.65439 -1.4739 0
M  V30 3333 N 344.397 -0.483516 -1.5 0
M  V30 3334 C 345.808 -0.0314176 -1.86674 0
M  V30 3335 C 346.159 1.37728 -1.39733 0
M  V30 3336 O 345.284 2.02327 -0.767635 0
M  V30 3337 C 345.879 -0.0502376 -3.38763 0
M  V30 3338 C 344.438 0.346442 -3.74802 0
M  V30 3339 C 343.585 -0.430366 -2.7394 0
M  V30 3340 H 346.536 -0.697182 -1.42566 0
M  V30 3341 H 346.557 0.749116 -3.73053 0
M  V30 3342 H 346.069 -1.07563 -3.72897 0
M  V30 3343 H 344.17 1.37572 -3.46273 0
M  V30 3344 H 344.283 0.0391486 -4.79084 0
M  V30 3345 H 342.647 0.117557 -2.54429 0
M  V30 3346 H 343.43 -1.4555 -3.10918 0
M  V30 3347 N 345.875 1.56104 -0.216619 0
M  V30 3348 C 346.805 2.23063 0.690296 0
M  V30 3349 C 347.786 1.20072 1.20485 0
M  V30 3350 O 348.971 1.48643 1.24976 0
M  V30 3351 C 346.101 2.90672 1.90072 0
M  V30 3352 C 345.055 4.00092 1.5202 0
M  V30 3353 C 344.381 4.54972 2.80899 0
M  V30 3354 C 345.681 5.17398 0.71391 0
M  V30 3355 H 347.375 2.99109 0.132038 0
M  V30 3356 H 344.921 1.43866 0.0620664 0
M  V30 3357 H 346.874 3.36204 2.54057 0
M  V30 3358 H 345.598 2.12066 2.48386 0
M  V30 3359 H 344.257 3.55283 0.903839 0
M  V30 3360 H 343.905 3.73102 3.37348 0
M  V30 3361 H 343.605 5.28817 2.56176 0
M  V30 3362 H 345.129 5.0322 3.45836 0
M  V30 3363 H 346.543 5.59342 1.25735 0
M  V30 3364 H 344.94 5.97444 0.563951 0
M  V30 3365 H 346.01 4.84088 -0.280527 0
M  V30 3366 N 347.353 -0.0568162 1.57498 0
M  V30 3367 C 348.769 -0.411933 1.54192 0
M  V30 3368 C 348.969 -1.78287 0.938942 0
M  V30 3369 O 348.025 -2.46483 0.547919 0
M  V30 3370 C 349.338 -0.339244 2.9878 0
M  V30 3371 C 350.886 -0.418348 3.10192 0
M  V30 3372 C 351.361 -0.375407 4.56459 0
M  V30 3373 N 352.852 -0.435038 4.61153 0
M  V30 3374 C 353.587 -0.424265 5.71828 0
M  V30 3375 N 353.083 -0.367418 6.91825 0
M  V30 3376 N 354.876 -0.471938 5.60115 0
M  V30 3377 H 347.027 0.840684 1.95055 0
M  V30 3378 H 349.29 0.316987 0.893433 0
M  V30 3379 H 348.996 0.601742 3.46514 0
M  V30 3380 H 348.87 -1.14371 3.59443 0
M  V30 3381 H 351.257 -1.34976 2.62422 0
M  V30 3382 H 351.338 0.414962 2.52412 0
M  V30 3383 H 350.982 0.552219 5.04889 0
M  V30 3384 H 350.912 -1.22645 5.12119 0
M  V30 3385 H 353.403 -0.482612 3.74806 0
M  V30 3386 H 353.716 -0.363535 7.71944 0
M  V30 3387 H 352.061 -0.333879 6.94198 0
M  V30 3388 H 355.252 -0.514145 4.65268 0
M  V30 3389 H 355.425 -0.460073 6.46365 0
M  V30 3390 N 348.832 -1.54138 -0.328536 0
M  V30 3391 C 350.081 -1.71318 -1.06456 0
M  V30 3392 C 350.394 -0.491109 -1.89334 0
M  V30 3393 O 351.6 -0.54416 -2.65991 0
M  V30 3394 C 350.056 -3.03 -1.94214 0
M  V30 3395 C 349.664 -4.32595 -1.16471 0
M  V30 3396 C 351.408 -3.29544 -2.67583 0
M  V30 3397 C 349.315 -5.55341 -2.03347 0
M  V30 3398 H 348.245 -0.638429 -0.401155 0
M  V30 3399 H 350.896 -1.80633 -0.323106 0
M  V30 3400 H 349.278 -2.87579 -2.72239 0
M  V30 3401 H 350.452 -4.58766 -0.432525 0
M  V30 3402 H 348.767 -4.12777 -0.548063 0
M  V30 3403 H 351.364 -4.18444 -3.3288 0
M  V30 3404 H 351.707 -2.47206 -3.34955 0
M  V30 3405 H 352.24 -3.45809 -1.96623 0
M  V30 3406 H 348.979 -6.40268 -1.40491 0
M  V30 3407 H 348.499 -5.33397 -2.74313 0
M  V30 3408 H 350.178 -5.91557 -2.62049 0
M  V30 3409 N 350.31 0.590341 -1.46126 0
M  V30 3410 C 351.538 1.37504 -1.54597 0
M  V30 3411 C 351.953 1.87897 -0.184447 0
M  V30 3412 O 351.31 1.63192 0.816984 0
M  V30 3413 C 351.361 2.56779 -2.54454 0
M  V30 3414 O 351.082 2.08476 -3.85317 0
M  V30 3415 C 352.583 3.49427 -2.72792 0
M  V30 3416 H 349.803 0.420325 -0.523037 0
M  V30 3417 H 352.347 0.718383 -1.91467 0
M  V30 3418 H 350.502 3.1845 -2.20609 0
M  V30 3419 H 350.916 2.86097 -4.396 0
M  V30 3420 H 352.39 4.29619 -3.466 0
M  V30 3421 H 352.867 4.00876 -1.79429 0
M  V30 3422 H 353.473 2.93598 -3.07702 0
M  V30 3423 N 351.788 1.33704 0.83433 0
M  V30 3424 C 353.036 1.25169 1.58673 0
M  V30 3425 C 353.357 -0.18127 1.94156 0
M  V30 3426 O 352.627 -1.11113 1.6134 0
M  V30 3427 H 351.207 0.4603 0.58833 0
M  V30 3428 H 353.869 1.67478 0.996847 0
M  V30 3429 H 352.965 1.84856 2.51465 0
M  V30 3430 N 353.266 -1.05314 1.17247 0
M  V30 3431 C 354.543 -1.75184 0.87005 0
M  V30 3432 C 354.923 -2.01481 -0.629965 0
M  V30 3433 O 354.271 -1.64988 -1.58086 0
M  V30 3434 C 354.481 -3.04594 1.70363 0
M  V30 3435 C 355.829 -3.78567 1.92281 0
M  V30 3436 O 356.853 -3.14461 1.67311 0
M  V30 3437 O 355.712 -4.93755 2.3424 0
M  V30 3438 H 352.806 -0.761729 0.322021 0
M  V30 3439 H 355.352 -1.11493 1.27935 0
M  V30 3440 H 354.124 -2.81201 2.72106 0
M  V30 3441 H 353.747 -3.76022 1.29202 0
M  V30 3442 N 354.744 -0.972509 -1.24016 0
M  V30 3443 C 356.155 -0.67517 -1.74064 0
M  V30 3444 C 356.506 0.808939 -1.78747 0
M  V30 3445 O 355.631 1.63286 -1.42009 0
M  V30 3446 C 356.226 -1.21889 -3.16115 0
M  V30 3447 C 354.785 -0.971358 -3.6365 0
M  V30 3448 C 353.932 -1.35134 -2.42145 0
M  V30 3449 H 356.883 -1.14727 -1.09651 0
M  V30 3450 H 356.904 -0.587489 -3.75937 0
M  V30 3451 H 356.416 -2.29906 -3.12674 0
M  V30 3452 H 354.517 0.0930686 -3.72484 0
M  V30 3453 H 354.63 -1.62039 -4.50866 0
M  V30 3454 H 352.994 -0.769751 -2.4279 0
M  V30 3455 H 353.777 -2.4411 -2.41381 0
M  V30 3456 N 356.222 1.38976 -0.743202 0
M  V30 3457 C 357.452 2.04339 -0.304807 0
M  V30 3458 C 357.86 1.56162 1.06819 0
M  V30 3459 O 357.203 0.725284 1.68776 0
M  V30 3460 C 357.265 3.58716 -0.237369 0
M  V30 3461 C 356.929 4.29905 -1.55018 0
M  V30 3462 C 357.926 4.55987 -2.49744 0
M  V30 3463 C 355.611 4.68294 -1.81675 0
M  V30 3464 C 357.605 5.19478 -3.69353 0
M  V30 3465 C 355.292 5.31512 -3.0156 0
M  V30 3466 C 356.29 5.57037 -3.9522 0
M  V30 3467 O 355.978 6.18941 -5.12998 0
M  V30 3468 H 355.71 0.663439 -0.12971 0
M  V30 3469 H 358.264 1.78852 -1.01001 0
M  V30 3470 H 356.494 3.83133 0.524003 0
M  V30 3471 H 358.183 4.05543 0.170121 0
M  V30 3472 H 358.949 4.26767 -2.30423 0
M  V30 3473 H 354.828 4.47779 -1.09615 0
M  V30 3474 H 358.372 5.39318 -4.42473 0
M  V30 3475 H 354.269 5.60153 -3.20778 0
M  V30 3476 H 355.037 6.37433 -5.13441 0
M  V30 3477 N 357.7 0.491464 1.49741 0
M  V30 3478 C 358.647 -0.292027 2.28945 0
M  V30 3479 C 359.617 -0.968973 1.34908 0
M  V30 3480 O 360.802 -0.97748 1.6386 0
M  V30 3481 C 357.942 -1.35617 3.17336 0
M  V30 3482 C 357.055 -0.691957 4.26422 0
M  V30 3483 C 356.19 -1.73572 5.02042 0
M  V30 3484 C 355.229 -1.05286 6.02977 0
M  V30 3485 N 354.366 -2.0404 6.71798 0
M  V30 3486 H 359.206 0.389654 2.95442 0
M  V30 3487 H 356.743 0.204003 1.45679 0
M  V30 3488 H 358.701 -1.98502 3.66951 0
M  V30 3489 H 357.331 -2.00674 2.52844 0
M  V30 3490 H 356.383 0.0499523 3.80367 0
M  V30 3491 H 357.695 -0.153946 4.98562 0
M  V30 3492 H 356.849 -2.43987 5.55478 0
M  V30 3493 H 355.588 -2.30757 4.29654 0
M  V30 3494 H 354.593 -0.334446 5.48782 0
M  V30 3495 H 355.818 -0.487636 6.77347 0
M  V30 3496 H 353.764 -2.60205 6.02187 0
M  V30 3497 H 353.681 -1.55279 7.39881 0
M  V30 3498 H 354.949 -2.73772 7.29842 0
M  V30 3499 N 359.178 -1.55987 0.224894 0
M  V30 3500 C 360.424 -1.98684 -0.406502 0
M  V30 3501 C 360.757 -1.11248 -1.59177 0
M  V30 3502 O 360.032 -0.170909 -1.93748 0
M  V30 3503 C 360.315 -3.50218 -0.837808 0
M  V30 3504 C 360.168 -4.48426 0.351332 0
M  V30 3505 C 361.487 -4.06243 -1.69278 0
M  V30 3506 H 358.606 -0.722337 -0.146283 0
M  V30 3507 H 361.248 -1.87255 0.321799 0
M  V30 3508 H 359.398 -3.60089 -1.45837 0
M  V30 3509 H 361.07 -4.50562 0.989526 0
M  V30 3510 H 359.313 -4.22159 0.998207 0
M  V30 3511 H 359.984 -5.52 0.00655905 0
M  V30 3512 H 362.46 -3.99337 -1.16914 0
M  V30 3513 H 361.336 -5.12581 -1.96346 0
M  V30 3514 H 361.597 -3.53332 -2.65723 0
M  V30 3515 N 360.656 0.0484629 -1.57525 0
M  V30 3516 C 361.588 1.08222 -2.02041 0
M  V30 3517 C 362.601 1.33621 -0.930012 0
M  V30 3518 O 363.79 1.3145 -1.20761 0
M  V30 3519 C 360.89 2.42818 -2.36416 0
M  V30 3520 C 360.063 2.37049 -3.67596 0
M  V30 3521 C 359.122 3.53937 -3.89378 0
M  V30 3522 O 358.148 3.34308 -4.60681 0
M  V30 3523 N 359.35 4.75126 -3.3352 0
M  V30 3524 H 362.115 0.702946 -2.9134 0
M  V30 3525 H 359.676 0.236745 -1.6016 0
M  V30 3526 H 361.668 3.197 -2.48141 0
M  V30 3527 H 360.238 2.72661 -1.52888 0
M  V30 3528 H 359.458 1.45395 -3.66407 0
M  V30 3529 H 360.746 2.30318 -4.53686 0
M  V30 3530 H 360.144 4.93976 -2.75688 0
M  V30 3531 H 358.701 5.49439 -3.50656 0
M  V30 3532 N 362.134 1.5431 0.320358 0
M  V30 3533 C 363.066 1.80262 1.41556 0
M  V30 3534 C 364.079 0.684723 1.477 0
M  V30 3535 O 365.268 0.961886 1.50366 0
M  V30 3536 C 362.368 1.90825 2.8007 0
M  V30 3537 C 361.541 3.21023 2.97091 0
M  V30 3538 C 360.6 3.22247 4.15985 0
M  V30 3539 O 359.626 3.95871 4.08992 0
M  V30 3540 N 360.828 2.46258 5.25678 0
M  V30 3541 H 363.593 2.74778 1.19655 0
M  V30 3542 H 361.154 1.53646 0.510358 0
M  V30 3543 H 363.146 1.89067 3.57821 0
M  V30 3544 H 361.716 1.03392 2.95006 0
M  V30 3545 H 360.936 3.35715 2.06614 0
M  V30 3546 H 362.224 4.0698 3.05361 0
M  V30 3547 H 361.622 1.86037 5.34235 0
M  V30 3548 H 360.179 2.50275 6.01835 0
M  V30 3549 N 363.613 -0.582584 1.46437 0
M  V30 3550 C 364.576 -1.67366 1.56592 0
M  V30 3551 C 365.576 -1.54575 0.443072 0
M  V30 3552 O 366.766 -1.59191 0.707381 0
M  V30 3553 C 363.898 -3.06791 1.48634 0
M  V30 3554 H 365.091 -1.5972 2.5383 0
M  V30 3555 H 362.644 -0.800432 1.34249 0
M  V30 3556 H 363.379 -3.19993 0.526763 0
M  V30 3557 H 363.164 -3.17484 2.30101 0
M  V30 3558 H 364.654 -3.86218 1.58826 0
M  V30 3559 N 365.091 -1.34144 -0.827227 0
M  V30 3560 C 366.038 -1.25364 -1.93785 0
M  V30 3561 C 367.008 -0.129774 -1.65592 0
M  V30 3562 O 368.193 -0.310024 -1.88264 0
M  V30 3563 C 365.333 -1.01064 -3.2997 0
M  V30 3564 C 364.446 -2.22185 -3.70484 0
M  V30 3565 C 363.581 -1.91203 -4.95595 0
M  V30 3566 C 362.62 -3.08491 -5.28677 0
M  V30 3567 N 361.757 -2.77421 -6.44967 0
M  V30 3568 H 366.597 -2.20347 -2.00627 0
M  V30 3569 H 364.134 -1.09558 -0.981608 0
M  V30 3570 H 366.092 -0.850139 -4.08446 0
M  V30 3571 H 364.722 -0.0975026 -3.22653 0
M  V30 3572 H 363.774 -2.4917 -2.87434 0
M  V30 3573 H 365.086 -3.0983 -3.90905 0
M  V30 3574 H 364.24 -1.71864 -5.81848 0
M  V30 3575 H 362.979 -1.00812 -4.77167 0
M  V30 3576 H 361.984 -3.28431 -4.40923 0
M  V30 3577 H 363.209 -3.99655 -5.49047 0
M  V30 3578 H 361.155 -1.89601 -6.28003 0
M  V30 3579 H 361.072 -3.58598 -6.6554 0
M  V30 3580 H 362.34 -2.61577 -7.34301 0
M  V30 3581 N 366.569 1.04691 -1.17803 0
M  V30 3582 C 367.479 2.16057 -0.914151 0
M  V30 3583 C 368.495 1.73589 0.119503 0
M  V30 3584 O 369.671 2.01308 -0.0609468 0
M  V30 3585 C 366.736 3.4394 -0.436603 0
M  V30 3586 C 365.797 4.00825 -1.53746 0
M  V30 3587 C 365.03 5.22604 -1.0826 0
M  V30 3588 O 365.253 5.70367 0.0612244 0
M  V30 3589 O 364.187 5.7186 -1.87775 0
M  V30 3590 H 368.013 2.41169 -1.84584 0
M  V30 3591 H 365.598 1.1453 -0.959334 0
M  V30 3592 H 367.48 4.21024 -0.178057 0
M  V30 3593 H 366.155 3.20316 0.466869 0
M  V30 3594 H 365.062 3.25158 -1.84995 0
M  V30 3595 H 366.395 4.28778 -2.41683 0
M  V30 3596 N 368.047 0.979072 1.23499 0
M  V30 3597 C 368.98 0.463027 2.23453 0
M  V30 3598 C 369.958 -0.469128 1.55685 0
M  V30 3599 O 371.142 -0.397882 1.84253 0
M  V30 3600 C 368.269 -0.330308 3.37086 0
M  V30 3601 C 367.315 0.545795 4.22993 0
M  V30 3602 S 368.148 1.99285 4.97037 0
M  V30 3603 C 369.304 1.20862 6.1412 0
M  V30 3604 H 369.537 1.31005 2.6688 0
M  V30 3605 H 367.07 0.784965 1.32957 0
M  V30 3606 H 369.028 -0.782027 4.02982 0
M  V30 3607 H 367.689 -1.15244 2.92194 0
M  V30 3608 H 366.882 -0.0638928 5.03959 0
M  V30 3609 H 366.484 0.933705 3.62157 0
M  V30 3610 H 368.776 0.469284 6.75873 0
M  V30 3611 H 369.719 1.99307 6.79472 0
M  V30 3612 H 370.127 0.727992 5.59786 0
M  V30 3613 N 369.525 -1.3858 0.750561 0
M  V30 3614 C 370.771 -2.00481 0.305825 0
M  V30 3615 C 371.104 -1.5944 -1.10872 0
M  V30 3616 O 370.379 -0.83052 -1.75877 0
M  V30 3617 C 370.662 -3.5758 0.425287 0
M  V30 3618 C 370.515 -4.08594 1.88072 0
M  V30 3619 C 371.834 -4.39719 -0.183122 0
M  V30 3620 H 368.953 -0.728348 0.112598 0
M  V30 3621 H 371.595 -1.64566 0.949638 0
M  V30 3622 H 369.745 -3.88306 -0.122828 0
M  V30 3623 H 371.417 -3.88523 2.48691 0
M  V30 3624 H 369.66 -3.61574 2.39681 0
M  V30 3625 H 370.331 -5.177 1.91548 0
M  V30 3626 H 372.807 -4.15128 0.284303 0
M  V30 3627 H 371.683 -5.48856 -0.0692757 0
M  V30 3628 H 371.944 -4.23434 -1.27106 0
M  V30 3629 N 371.003 -0.499398 -1.49478 0
M  V30 3630 C 371.933 0.269244 -2.31943 0
M  V30 3631 C 372.914 0.964054 -1.40143 0
M  V30 3632 O 374.099 0.955767 -1.69052 0
M  V30 3633 C 371.229 1.33504 -3.20615 0
M  V30 3634 C 370.183 0.760202 -4.21195 0
M  V30 3635 C 369.509 1.9264 -4.98792 0
M  V30 3636 C 370.809 -0.247661 -5.21712 0
M  V30 3637 H 372.503 -0.419082 -2.96452 0
M  V30 3638 H 370.049 -0.202988 -1.42562 0
M  V30 3639 H 372.002 1.88048 -3.77115 0
M  V30 3640 H 370.726 2.05253 -2.54045 0
M  V30 3641 H 369.385 0.23653 -3.65836 0
M  V30 3642 H 369.033 2.63154 -4.28671 0
M  V30 3643 H 368.733 1.54785 -5.66847 0
M  V30 3644 H 370.257 2.4762 -5.58137 0
M  V30 3645 H 371.671 0.209579 -5.72917 0
M  V30 3646 H 370.068 -0.541962 -5.97648 0
M  V30 3647 H 371.138 -1.16409 -4.7072 0
M  V30 3648 N 372.481 1.55866 -0.233164 0
M  V30 3649 C 373.391 2.24431 0.683217 0
M  V30 3650 C 374.407 1.2558 1.2044 0
M  V30 3651 O 375.583 1.58422 1.24356 0
M  V30 3652 C 372.648 2.91979 1.86947 0
M  V30 3653 C 371.709 4.06204 1.38912 0
M  V30 3654 C 370.942 4.70522 2.51883 0
M  V30 3655 O 371.165 4.33865 3.70293 0
M  V30 3656 O 370.099 5.59296 2.22423 0
M  V30 3657 H 373.925 3.03426 0.129059 0
M  V30 3658 H 371.51 1.494 -0.0022283 0
M  V30 3659 H 373.392 3.34573 2.56201 0
M  V30 3660 H 372.067 2.15935 2.41151 0
M  V30 3661 H 370.974 3.68155 0.664259 0
M  V30 3662 H 372.307 4.84025 0.893328 0
M  V30 3663 N 373.959 -0.0401083 1.57549 0
M  V30 3664 C 374.889 -1.04384 2.08869 0
M  V30 3665 C 375.87 -1.38407 0.988817 0
M  V30 3666 O 377.055 -1.47483 1.26342 0
M  V30 3667 C 374.185 -2.34808 2.55895 0
M  V30 3668 C 373.139 -2.15057 3.70047 0
M  V30 3669 C 372.465 -3.51145 4.03239 0
M  V30 3670 C 373.765 -1.54576 4.98902 0
M  V30 3671 H 375.459 -0.616666 2.92981 0
M  V30 3672 H 373.005 -0.295184 1.40942 0
M  V30 3673 H 374.958 -3.05346 2.90417 0
M  V30 3674 H 373.682 -2.79565 1.68853 0
M  V30 3675 H 372.341 -1.46954 3.35857 0
M  V30 3676 H 371.989 -3.93529 3.13279 0
M  V30 3677 H 371.689 -3.38758 4.80122 0
M  V30 3678 H 373.213 -4.23062 4.40285 0
M  V30 3679 H 374.627 -2.15017 5.31451 0
M  V30 3680 H 373.024 -1.52796 5.80322 0
M  V30 3681 H 374.094 -0.51039 4.82206 0
M  V30 3682 N 375.437 -1.54477 -0.31217 0
M  V30 3683 C 376.686 -1.72438 -1.04633 0
M  V30 3684 C 376.999 -0.511163 -1.88803 0
M  V30 3685 O 378.205 -0.572341 -2.65399 0
M  V30 3686 C 376.661 -3.05043 -1.9099 0
M  V30 3687 C 376.269 -4.33806 -1.11877 0
M  V30 3688 C 378.013 -3.32364 -2.64073 0
M  V30 3689 C 375.92 -5.57467 -1.97445 0
M  V30 3690 H 374.85 -0.642647 -0.394361 0
M  V30 3691 H 377.501 -1.80966 -0.303929 0
M  V30 3692 H 375.883 -2.90451 -2.69173 0
M  V30 3693 H 377.057 -4.59199 -0.383843 0
M  V30 3694 H 375.372 -4.13336 -0.504252 0
M  V30 3695 H 377.969 -4.21951 -3.28423 0
M  V30 3696 H 378.312 -2.50745 -3.32314 0
M  V30 3697 H 378.845 -3.47875 -1.92944 0
M  V30 3698 H 375.584 -6.41722 -1.33692 0
M  V30 3699 H 375.104 -5.36277 -2.6864 0
M  V30 3700 H 376.783 -5.94303 -2.5576 0
M  V30 3701 N 376.915 0.57481 -1.46744 0
M  V30 3702 C 378.331 0.898981 -1.31873 0
M  V30 3703 C 378.531 1.99313 -0.29605 0
M  V30 3704 O 377.587 2.50728 0.298621 0
M  V30 3705 C 378.9 1.30886 -2.7072 0
M  V30 3706 C 380.448 1.42127 -2.78871 0
M  V30 3707 C 380.923 1.86478 -4.18318 0
M  V30 3708 N 382.414 1.93658 -4.20774 0
M  V30 3709 C 383.149 2.29267 -5.2557 0
M  V30 3710 N 382.645 2.63612 -6.40688 0
M  V30 3711 N 384.438 2.29889 -5.1294 0
M  V30 3712 H 376.589 -0.147839 -2.11885 0
M  V30 3713 H 378.852 -0.00347013 -0.947994 0
M  V30 3714 H 378.558 0.578853 -3.46904 0
M  V30 3715 H 378.432 2.26874 -3.01343 0
M  V30 3716 H 380.819 2.14213 -2.0297 0
M  V30 3717 H 380.9 0.443705 -2.51922 0
M  V30 3718 H 380.544 1.14968 -4.94717 0
M  V30 3719 H 380.474 2.85207 -4.42679 0
M  V30 3720 H 382.965 1.69574 -3.37718 0
M  V30 3721 H 383.278 2.89759 -7.16421 0
M  V30 3722 H 381.623 2.61232 -6.44036 0
M  V30 3723 H 384.814 2.02485 -4.22039 0
M  V30 3724 H 384.987 2.57312 -5.94722 0
M  V30 3725 N 378.394 1.34581 0.820102 0
M  V30 3726 C 379.671 1.17675 1.56244 0
M  V30 3727 C 380.051 -0.249541 2.0962 0
M  V30 3728 O 379.399 -1.25125 1.91196 0
M  V30 3729 C 379.609 2.23364 2.6816 0
M  V30 3730 C 380.957 2.58485 3.36854 0
M  V30 3731 O 381.981 2.22175 2.78418 0
M  V30 3732 O 380.84 3.20868 4.42386 0
M  V30 3733 H 377.934 0.456333 0.689702 0
M  V30 3734 H 380.48 1.46222 0.861231 0
M  V30 3735 H 379.252 3.19087 2.26493 0
M  V30 3736 H 378.875 1.96009 3.45928 0
M  V30 3737 N 379.872 -1.04064 1.18357 0
M  V30 3738 C 380.804 -2.12114 0.868358 0
M  V30 3739 C 381.817 -1.62247 -0.134045 0
M  V30 3740 O 383.006 -1.78253 0.0937933 0
M  V30 3741 C 380.106 -3.37773 0.276132 0
M  V30 3742 C 379.279 -4.16874 1.3242 0
M  V30 3743 C 378.338 -5.20861 0.747662 0
M  V30 3744 O 377.364 -5.51141 1.42239 0
M  V30 3745 N 378.566 -5.78715 -0.454823 0
M  V30 3746 H 381.331 -2.39748 1.79836 0
M  V30 3747 H 378.892 -1.20258 1.08396 0
M  V30 3748 H 380.884 -4.04513 -0.123133 0
M  V30 3749 H 379.454 -3.07581 -0.557895 0
M  V30 3750 H 378.674 -3.45456 1.89878 0
M  V30 3751 H 379.962 -4.66516 2.03078 0
M  V30 3752 H 379.36 -5.56415 -1.02073 0
M  V30 3753 H 377.917 -6.46921 -0.79601 0
M  V30 3754 N 381.35 -0.985608 -1.22978 0
M  V30 3755 C 382.598 -0.656087 -1.91154 0
M  V30 3756 C 382.919 0.813561 -1.77218 0
M  V30 3757 O 382.189 1.58244 -1.1548 0
M  V30 3758 H 380.769 -0.239674 -0.707506 0
M  V30 3759 H 383.431 -1.25054 -1.49491 0
M  V30 3760 H 382.527 -0.912253 -2.9847 0
M  V30 3761 N 382.828 1.3818 -0.7579 0
M  V30 3762 C 384.076 1.99624 -0.315361 0
M  V30 3763 C 384.397 1.60464 1.10799 0
M  V30 3764 O 383.667 0.863507 1.75842 0
M  V30 3765 H 382.247 0.73831 -0.113611 0
M  V30 3766 H 384.909 1.68878 -0.972952 0
M  V30 3767 H 384.005 3.09754 -0.381931 0
M  V30 3768 N 384.306 0.507319 1.49211 0
M  V30 3769 C 385.553 -0.0349529 2.0247 0
M  V30 3770 C 385.881 -1.36409 1.38647 0
M  V30 3771 O 385.136 -1.88841 0.513566 0
M  V30 3772 C 385.435 -0.229513 3.56662 0
M  V30 3773 C 385.101 1.02241 4.39156 0
M  V30 3774 C 383.763 1.36557 4.61417 0
M  V30 3775 C 386.115 1.85428 4.871 0
M  V30 3776 C 383.443 2.53999 5.28868 0
M  V30 3777 C 385.795 3.02028 5.55843 0
M  V30 3778 C 384.459 3.36717 5.76349 0
M  V30 3779 H 383.729 -0.0127902 0.74089 0
M  V30 3780 H 386.376 0.668756 1.79443 0
M  V30 3781 H 384.681 -1.0158 3.78403 0
M  V30 3782 H 386.378 -0.663641 3.9547 0
M  V30 3783 H 382.968 0.745124 4.22073 0
M  V30 3784 H 387.152 1.6023 4.69723 0
M  V30 3785 H 382.408 2.81105 5.42946 0
M  V30 3786 H 386.582 3.66808 5.91967 0
M  V30 3787 H 384.209 4.27821 6.28389 0
M  V30 3788 N 385.784 -1.5574 0.241426 0
M  V30 3789 C 387.2 -1.59196 -0.113548 0
M  V30 3790 C 387.4 -1.25852 -1.57364 0
M  V30 3791 O 386.456 -1.00322 -2.31715 0
M  V30 3792 C 387.769 -2.99814 0.230695 0
M  V30 3793 C 389.317 -3.12513 0.174547 0
M  V30 3794 C 389.792 -4.55342 0.492744 0
M  V30 3795 N 391.283 -4.61076 0.443043 0
M  V30 3796 C 392.018 -5.6956 0.662484 0
M  V30 3797 N 391.514 -6.86328 0.944761 0
M  V30 3798 N 393.307 -5.58957 0.593564 0
M  V30 3799 H 385.458 -1.75685 1.19368 0
M  V30 3800 H 387.721 -0.81756 0.479896 0
M  V30 3801 H 387.427 -3.28932 1.24485 0
M  V30 3802 H 387.301 -3.74568 -0.444833 0
M  V30 3803 H 389.688 -2.83179 -0.830277 0
M  V30 3804 H 389.769 -2.40045 0.883845 0
M  V30 3805 H 389.413 -4.85396 1.4951 0
M  V30 3806 H 389.343 -5.26062 -0.23797 0
M  V30 3807 H 391.834 -3.77179 0.233374 0
M  V30 3808 H 392.147 -7.64935 1.09977 0
M  V30 3809 H 390.492 -6.88025 0.982175 0
M  V30 3810 H 393.683 -4.66611 0.373123 0
M  V30 3811 H 393.856 -6.43433 0.767981 0
M  V30 3812 N 387.262 0.0317525 -1.57568 0
M  V30 3813 C 388.172 1.05021 -2.0978 0
M  V30 3814 C 389.188 1.39809 -1.03583 0
M  V30 3815 O 390.364 1.49182 -1.35302 0
M  V30 3816 C 387.429 2.33301 -2.56459 0
M  V30 3817 C 386.49 2.0512 -3.77127 0
M  V30 3818 C 385.723 3.27283 -4.2157 0
M  V30 3819 O 385.946 4.37861 -3.65559 0
M  V30 3820 O 384.88 3.13141 -5.14029 0
M  V30 3821 H 388.706 0.636505 -2.96955 0
M  V30 3822 H 386.291 0.248559 -1.47318 0
M  V30 3823 H 388.173 3.08722 -2.86825 0
M  V30 3824 H 386.848 2.73973 -1.72397 0
M  V30 3825 H 385.755 1.27276 -3.51784 0
M  V30 3826 H 387.088 1.69305 -4.62165 0
M  V30 3827 N 388.74 1.54641 0.303973 0
M  V30 3828 C 389.986 1.74038 1.04109 0
M  V30 3829 C 390.319 0.523051 1.87024 0
M  V30 3830 O 389.594 -0.479874 1.88487 0
M  V30 3831 C 389.877 3.02761 1.94955 0
M  V30 3832 C 389.73 4.34787 1.1524 0
M  V30 3833 C 391.049 3.27336 2.94175 0
M  V30 3834 H 388.168 0.63323 0.377079 0
M  V30 3835 H 390.81 1.87354 0.316001 0
M  V30 3836 H 388.96 2.9154 2.56782 0
M  V30 3837 H 390.632 4.57922 0.557236 0
M  V30 3838 H 388.875 4.31407 0.455053 0
M  V30 3839 H 389.546 5.21116 1.8205 0
M  V30 3840 H 392.022 3.38148 2.42477 0
M  V30 3841 H 390.898 4.18726 3.54908 0
M  V30 3842 H 391.159 2.45491 3.67677 0
M  V30 3843 N 390.218 -0.567019 1.47046 0
M  V30 3844 C 391.634 -0.891975 1.32348 0
M  V30 3845 C 391.834 -1.99154 0.306616 0
M  V30 3846 O 390.89 -2.50883 -0.28532 0
M  V30 3847 C 392.203 -1.29449 2.7141 0
M  V30 3848 C 393.751 -1.40646 2.79621 0
M  V30 3849 C 394.226 -1.84257 4.19301 0
M  V30 3850 N 395.717 -1.91424 4.21795 0
M  V30 3851 C 396.452 -2.26476 5.26779 0
M  V30 3852 N 395.948 -2.60211 6.42077 0
M  V30 3853 N 397.741 -2.27166 5.14152 0
M  V30 3854 H 389.892 0.159074 2.11803 0
M  V30 3855 H 392.155 0.00849752 0.947962 0
M  V30 3856 H 391.861 -0.560448 3.47206 0
M  V30 3857 H 391.735 -2.25273 3.02542 0
M  V30 3858 H 394.122 -2.13133 2.04104 0
M  V30 3859 H 394.203 -0.430339 2.52154 0
M  V30 3860 H 393.847 -1.12343 4.95319 0
M  V30 3861 H 393.777 -2.82855 4.44185 0
M  V30 3862 H 396.268 -1.6778 3.38612 0
M  V30 3863 H 396.581 -2.85956 7.17948 0
M  V30 3864 H 394.926 -2.57813 6.45413 0
M  V30 3865 H 398.117 -2.00244 4.23107 0
M  V30 3866 H 398.29 -2.54154 5.96079 0
M  V30 3867 N 391.696 -1.35014 -0.812953 0
M  V30 3868 C 392.644 -1.27435 -1.94585 0
M  V30 3869 C 393.638 -0.170494 -1.6854 0
M  V30 3870 O 394.844 -0.336085 -1.76835 0
M  V30 3871 H 391.219 -0.396144 -0.639198 0
M  V30 3872 H 393.19 -2.23158 -1.98098 0
M  V30 3873 C 391.939 -1.05677 -3.31252 0
M  V30 3874 H 391.262 -1.89853 -3.51846 0
M  V30 3875 H 392.702 -1.04413 -4.10943 0
M  V30 3876 C 391.161 0.239615 -3.36047 0
M  V30 3877 O 391.691 1.23759 -3.8216 0
M  V30 3878 N 389.897 0.276186 -2.89285 0
M  V30 3879 H 389.444 -0.53653 -2.51951 0
M  V30 3880 H 389.402 1.14332 -2.92875 0
M  V30 3881 N 393.175 1.03435 -1.18907 0
M  V30 3882 C 394.085 2.15075 -0.937015 0
M  V30 3883 C 395.101 1.73706 0.101085 0
M  V30 3884 O 396.277 2.01232 -0.0822948 0
M  V30 3885 C 393.342 3.43458 -0.473057 0
M  V30 3886 C 392.403 3.99172 -1.57989 0
M  V30 3887 C 391.636 5.21427 -1.13797 0
M  V30 3888 O 391.859 5.704 0.000725941 0
M  V30 3889 O 390.793 5.69837 -1.9383 0
M  V30 3890 H 394.619 2.39198 -1.87131 0
M  V30 3891 H 392.204 1.13506 -0.971427 0
M  V30 3892 H 394.086 4.20811 -0.222702 0
M  V30 3893 H 392.761 3.20793 0.432869 0
M  V30 3894 H 391.668 3.23178 -1.88433 0
M  V30 3895 H 393.001 4.2619 -2.46217 0
M  V30 3896 N 394.653 0.992116 1.22453 0
M  V30 3897 C 395.883 0.684949 1.94915 0
M  V30 3898 C 396.291 -0.754292 1.73514 0
M  V30 3899 O 395.634 -1.52056 1.03076 0
M  V30 3900 C 395.696 0.910054 3.47791 0
M  V30 3901 C 395.36 2.33363 3.92926 0
M  V30 3902 C 396.357 3.31308 4.00663 0
M  V30 3903 C 394.042 2.66785 4.25595 0
M  V30 3904 C 396.036 4.6075 4.40441 0
M  V30 3905 C 393.723 3.96446 4.65053 0
M  V30 3906 C 394.721 4.9324 4.72444 0
M  V30 3907 O 394.409 6.20584 5.1101 0
M  V30 3908 H 394.141 0.25258 0.62704 0
M  V30 3909 H 396.695 1.32939 1.56577 0
M  V30 3910 H 394.925 0.208443 3.86138 0
M  V30 3911 H 396.614 0.598257 4.01467 0
M  V30 3912 H 397.38 3.0682 3.75615 0
M  V30 3913 H 393.259 1.92148 4.19047 0
M  V30 3914 H 396.803 5.363 4.46126 0
M  V30 3915 H 392.7 4.20724 4.89552 0
M  V30 3916 H 393.468 6.24509 5.29085 0
M  V30 3917 N 396.131 -1.37776 0.765217 0
M  V30 3918 C 397.379 -1.99454 0.325943 0
M  V30 3919 C 397.7 -1.61049 -1.09947 0
M  V30 3920 O 396.97 -0.872821 -1.75381 0
M  V30 3921 H 395.55 -0.737697 0.117525 0
M  V30 3922 H 398.212 -1.68359 0.981895 0
M  V30 3923 H 397.308 -3.09547 0.398353 0
M  V30 3924 N 397.609 -0.515225 -1.4894 0
M  V30 3925 C 398.834 0.022727 -2.07388 0
M  V30 3926 C 399.259 1.2876 -1.37122 0
M  V30 3927 O 398.617 1.76067 -0.432431 0
M  V30 3928 C 398.665 0.244869 -3.59768 0
M  V30 3929 O 397.769 1.31667 -3.90817 0
M  V30 3930 H 397.11 -0.0325506 -0.663202 0
M  V30 3931 H 399.64 -0.718918 -1.91553 0
M  V30 3932 H 399.65 0.47205 -4.0526 0
M  V30 3933 H 398.325 -0.679194 -4.10317 0
M  V30 3934 H 396.902 1.07331 -3.5712 0
M  V30 3935 N 399.087 1.5561 -0.249682 0
M  V30 3936 C 400.503 1.59254 0.105103 0
M  V30 3937 C 400.703 1.26685 1.56694 0
M  V30 3938 O 399.759 1.0155 2.31179 0
M  V30 3939 C 401.072 2.99687 -0.246592 0
M  V30 3940 C 402.62 3.12416 -0.191118 0
M  V30 3941 C 403.095 4.55074 -0.516885 0
M  V30 3942 N 404.586 4.60835 -0.467489 0
M  V30 3943 C 405.321 5.69201 -0.69268 0
M  V30 3944 N 404.817 6.85817 -0.981146 0
M  V30 3945 N 406.61 5.58635 -0.623198 0
M  V30 3946 H 398.761 1.75049 -1.20298 0
M  V30 3947 H 401.024 0.815003 -0.484225 0
M  V30 3948 H 400.73 3.28267 -1.26228 0
M  V30 3949 H 400.604 3.74798 0.424962 0
M  V30 3950 H 402.991 2.83615 0.815247 0
M  V30 3951 H 403.072 2.39573 -0.896563 0
M  V30 3952 H 402.716 4.84596 -1.52082 0
M  V30 3953 H 402.646 5.26181 0.210068 0
M  V30 3954 H 405.137 3.7705 -0.253373 0
M  V30 3955 H 405.45 7.64341 -1.14032 0
M  V30 3956 H 403.795 6.87494 -1.01865 0
M  V30 3957 H 406.986 4.66406 -0.397863 0
M  V30 3958 H 407.159 6.43017 -0.802093 0
M  V30 3959 N 400.565 -0.0233959 1.57583 0
M  V30 3960 C 401.814 -0.712133 1.8871 0
M  V30 3961 C 402.127 -1.76217 0.848944 0
M  V30 3962 O 403.333 -2.50389 1.04964 0
M  V30 3963 C 401.789 -1.3177 3.3491 0
M  V30 3964 C 401.397 -0.303715 4.46969 0
M  V30 3965 C 403.141 -1.98598 3.75179 0
M  V30 3966 C 401.048 -0.917945 5.84233 0
M  V30 3967 H 399.978 -0.269735 0.704101 0
M  V30 3968 H 402.629 0.0333114 1.8347 0
M  V30 3969 H 401.011 -2.11304 3.34913 0
M  V30 3970 H 402.185 0.465325 4.58445 0
M  V30 3971 H 400.5 0.2628 4.1557 0
M  V30 3972 H 403.097 -2.45416 4.75053 0
M  V30 3973 H 403.44 -2.80659 3.07468 0
M  V30 3974 H 403.973 -1.25831 3.77374 0
M  V30 3975 H 400.712 -0.136633 6.55358 0
M  V30 3976 H 400.232 -1.65669 5.76467 0
M  V30 3977 H 401.911 -1.4236 6.31144 0
M  V30 3978 N 402.043 -1.548 -0.295768 0
M  V30 3979 C 403.291 -1.73985 -1.02828 0
M  V30 3980 C 403.612 -0.531406 -1.87619 0
M  V30 3981 O 402.882 0.454221 -1.90561 0
M  V30 3982 H 401.462 -0.641556 -0.382642 0
M  V30 3983 H 404.124 -1.92163 -0.325489 0
M  V30 3984 H 403.22 -2.63129 -1.67838 0
M  V30 3985 N 403.521 0.559213 -1.47345 0
M  V30 3986 C 404.769 1.31388 -1.53563 0
M  V30 3987 C 405.09 1.93985 -0.198678 0
M  V30 3988 O 404.36 1.79825 0.777167 0
M  V30 3989 H 402.94 0.487901 -0.565652 0
M  V30 3990 H 405.602 0.65315 -1.8363 0
M  V30 3991 H 404.698 2.10844 -2.30111 0
M  V30 3992 N 404.999 1.35443 0.805782 0
M  V30 3993 C 405.947 1.28465 1.93906 0
M  V30 3994 C 406.941 0.17943 1.68447 0
M  V30 3995 O 408.147 0.345459 1.76654 0
M  V30 3996 H 404.522 0.399528 0.637088 0
M  V30 3997 H 406.493 2.24206 1.96912 0
M  V30 3998 C 405.242 1.07432 3.30687 0
M  V30 3999 H 404.565 1.91716 3.50835 0
M  V30 4000 H 406.005 1.06591 4.10383 0
M  V30 4001 C 404.464 -0.22179 3.36169 0
M  V30 4002 O 404.994 -1.21731 3.82811 0
M  V30 4003 N 403.2 -0.260841 2.89427 0
M  V30 4004 H 402.747 0.549884 2.51663 0
M  V30 4005 H 402.705 -1.12777 2.93477 0
M  V30 4006 N 406.477 -1.02803 1.19454 0
M  V30 4007 C 407.387 -2.14575 0.948408 0
M  V30 4008 C 408.403 -1.73757 -0.091871 0
M  V30 4009 O 409.579 -2.01185 0.0929654 0
M  V30 4010 C 406.644 -3.43202 0.491265 0
M  V30 4011 C 405.705 -3.98328 1.60103 0
M  V30 4012 C 404.938 -5.20816 1.16561 0
M  V30 4013 O 405.161 -5.70392 0.0295238 0
M  V30 4014 O 404.095 -5.68801 1.96849 0
M  V30 4015 H 407.921 -2.38202 1.88397 0
M  V30 4016 H 405.506 -1.12989 0.977433 0
M  V30 4017 H 407.388 -4.20687 0.245015 0
M  V30 4018 H 406.063 -3.21018 -0.415851 0
M  V30 4019 H 404.97 -3.22174 1.90144 0
M  V30 4020 H 406.303 -4.24879 2.48473 0
M  V30 4021 N 407.956 -0.998596 -1.21925 0
M  V30 4022 C 409.204 -0.676325 -1.90448 0
M  V30 4023 C 409.525 0.794719 -1.78071 0
M  V30 4024 O 408.795 1.5701 -1.17152 0
M  V30 4025 H 407.375 -0.247165 -0.704925 0
M  V30 4026 H 410.037 -1.26633 -1.48156 0
M  V30 4027 H 409.133 -0.943858 -2.97486 0
M  V30 4028 N 409.434 1.37368 -0.772513 0
M  V30 4029 C 410.683 1.98918 -0.333861 0
M  V30 4030 C 410.996 1.62017 1.09589 0
M  V30 4031 O 412.202 2.16676 1.63596 0
M  V30 4032 C 410.658 3.55735 -0.545971 0
M  V30 4033 C 410.266 4.01573 -1.98603 0
M  V30 4034 C 412.01 4.24156 -0.170979 0
M  V30 4035 C 409.917 5.51102 -2.1457 0
M  V30 4036 H 408.847 0.744214 -0.121085 0
M  V30 4037 H 411.498 1.56888 -0.95175 0
M  V30 4038 H 409.88 3.95748 0.141387 0
M  V30 4039 H 411.054 3.72803 -2.7084 0
M  V30 4040 H 409.369 3.45937 -2.31769 0
M  V30 4041 H 411.966 5.34024 -0.26878 0
M  V30 4042 H 412.309 4.06917 0.878855 0
M  V30 4043 H 412.842 3.89447 -0.810914 0
M  V30 4044 H 409.581 5.73268 -3.17875 0
M  V30 4045 H 409.101 5.81554 -1.46817 0
M  V30 4046 H 410.78 6.17083 -1.94468 0
M  V30 4047 N 410.912 0.523116 1.48665 0
M  V30 4048 C 412.189 -0.0775449 1.95446 0
M  V30 4049 C 412.569 -1.5197 1.4652 0
M  V30 4050 O 411.917 -2.17876 0.688657 0
M  V30 4051 C 412.127 0.0326135 3.48985 0
M  V30 4052 C 413.475 -0.130141 4.24401 0
M  V30 4053 O 414.499 -0.0415142 3.56176 0
M  V30 4054 O 413.358 -0.31491 5.45592 0
M  V30 4055 H 410.452 -0.0831012 0.822814 0
M  V30 4056 H 412.998 0.587227 1.59216 0
M  V30 4057 H 411.77 1.03748 3.77296 0
M  V30 4058 H 411.393 -0.671317 3.91892 0
M  V30 4059 N 412.39 -1.55475 0.257931 0
M  V30 4060 C 413.636 -1.99502 -0.364266 0
M  V30 4061 C 413.969 -1.146 -1.56782 0
M  V30 4062 O 413.244 -0.211968 -1.93342 0
M  V30 4063 C 413.527 -3.51917 -0.763333 0
M  V30 4064 C 413.38 -4.4758 0.446371 0
M  V30 4065 C 414.699 -4.09742 -1.60623 0
M  V30 4066 H 411.818 -0.725277 -0.130929 0
M  V30 4067 H 414.46 -1.8653 0.361446 0
M  V30 4068 H 412.61 -3.63101 -1.38166 0
M  V30 4069 H 414.282 -4.48362 1.08487 0
M  V30 4070 H 412.525 -4.19947 1.08753 0
M  V30 4071 H 413.196 -5.51862 0.123645 0
M  V30 4072 H 415.672 -4.01727 -1.08418 0
M  V30 4073 H 414.548 -5.16631 -1.85429 0
M  V30 4074 H 414.809 -3.58889 -2.58169 0
M  V30 4075 N 413.868 0.0150385 -1.57593 0
M  V30 4076 C 415.279 0.559832 -1.78109 0
M  V30 4077 C 415.63 1.74814 -0.890756 0
M  V30 4078 O 414.755 2.16216 -0.0892482 0
M  V30 4079 C 415.35 1.02238 -3.23006 0
M  V30 4080 C 413.909 1.51258 -3.44671 0
M  V30 4081 C 413.056 0.456955 -2.73509 0
M  V30 4082 H 416.007 -0.211169 -1.57289 0
M  V30 4083 H 416.028 1.88912 -3.30292 0
M  V30 4084 H 415.54 0.157302 -3.87781 0
M  V30 4085 H 413.641 2.39905 -2.8509 0
M  V30 4086 H 413.754 1.55042 -4.5332 0
M  V30 4087 H 412.118 0.915196 -2.37689 0
M  V30 4088 H 412.901 -0.398896 -3.40975 0
M  V30 4089 N 415.346 1.54954 0.287554 0
M  V30 4090 C 416.595 1.74081 1.01877 0
M  V30 4091 C 416.908 0.541135 1.87966 0
M  V30 4092 O 418.114 0.614491 2.64455 0
M  V30 4093 C 416.57 3.08042 1.86113 0
M  V30 4094 C 416.178 4.35531 1.04961 0
M  V30 4095 C 417.922 3.36523 2.58752 0
M  V30 4096 C 415.829 5.60538 1.88551 0
M  V30 4097 H 414.759 0.64884 0.384087 0
M  V30 4098 H 417.41 1.81426 0.275101 0
M  V30 4099 H 415.792 2.94696 2.64519 0
M  V30 4100 H 416.966 4.59751 0.31074 0
M  V30 4101 H 415.281 4.14085 0.43843 0
M  V30 4102 H 417.878 4.27122 3.21668 0
M  V30 4103 H 418.221 2.56 3.28283 0
M  V30 4104 H 418.754 3.50901 1.87386 0
M  V30 4105 H 415.493 6.43767 1.23466 0
M  V30 4106 H 415.013 5.40483 2.60074 0
M  V30 4107 H 416.692 5.98297 2.46273 0
M  V30 4108 N 416.824 -0.551391 1.4764 0
M  V30 4109 C 418.235 -1.13349 1.48354 0
M  V30 4110 C 418.586 -1.94709 0.241432 0
M  V30 4111 O 417.711 -2.06306 -0.653205 0
M  V30 4112 C 418.306 -2.0623 2.68802 0
M  V30 4113 C 416.865 -2.597 2.72457 0
M  V30 4114 C 416.012 -1.36201 2.41546 0
M  V30 4115 H 418.963 -0.337698 1.55065 0
M  V30 4116 H 418.984 -2.90196 2.46103 0
M  V30 4117 H 418.496 -1.46987 3.59188 0
M  V30 4118 H 416.597 -3.22724 1.86225 0
M  V30 4119 H 416.71 -3.00296 3.73308 0
M  V30 4120 H 415.074 -1.67068 1.9225 0
M  V30 4121 H 415.857 -0.787425 3.34147 0
M  V30 4122 N 418.302 -1.35869 -0.798587 0
M  V30 4123 C 419.718 -1.16082 -1.09532 0
M  V30 4124 C 419.918 0.0213124 -2.01489 0
M  V30 4125 O 418.974 0.689488 -2.42904 0
M  V30 4126 C 420.287 -2.46748 -1.7186 0
M  V30 4127 C 421.835 -2.53028 -1.84244 0
M  V30 4128 C 422.31 -3.83758 -2.49988 0
M  V30 4129 N 423.801 -3.85053 -2.57465 0
M  V30 4130 C 424.536 -4.8294 -3.09122 0
M  V30 4131 N 424.032 -5.91217 -3.61157 0
M  V30 4132 N 425.825 -4.70369 -3.0775 0
M  V30 4133 H 417.976 -2.11571 -0.187461 0
M  V30 4134 H 420.239 -0.936726 -0.145765 0
M  V30 4135 H 419.945 -3.33471 -1.11759 0
M  V30 4136 H 419.819 -2.61883 -2.71472 0
M  V30 4137 H 422.206 -1.66729 -2.43486 0
M  V30 4138 H 422.287 -2.418 -0.834643 0
M  V30 4139 H 421.931 -4.70459 -1.91393 0
M  V30 4140 H 421.861 -3.92278 -3.5132 0
M  V30 4141 H 424.352 -3.06822 -2.20609 0
M  V30 4142 H 424.665 -6.61892 -3.98896 0
M  V30 4143 H 423.01 -5.94899 -3.59333 0
M  V30 4144 H 426.201 -3.84914 -2.66381 0
M  V30 4145 H 426.374 -5.46816 -3.47701 0
M  V30 4146 N 419.78 1.02168 -1.19998 0
M  V30 4147 C 421.027 1.75685 -1.00702 0
M  V30 4148 C 421.355 1.88947 0.461426 0
M  V30 4149 O 420.61 1.40832 1.35885 0
M  V30 4150 C 420.909 3.18081 -1.62969 0
M  V30 4151 C 420.575 3.24809 -3.12746 0
M  V30 4152 C 419.237 3.26352 -3.53621 0
M  V30 4153 C 421.589 3.23379 -4.08749 0
M  V30 4154 C 418.917 3.2413 -4.89036 0
M  V30 4155 C 421.269 3.22698 -5.44104 0
M  V30 4156 C 419.933 3.22542 -5.84399 0
M  V30 4157 H 419.203 0.642877 -0.368496 0
M  V30 4158 H 421.85 1.19865 -1.49348 0
M  V30 4159 H 420.155 3.77027 -1.06573 0
M  V30 4160 H 421.852 3.73648 -1.45561 0
M  V30 4161 H 418.442 3.2434 -2.80181 0
M  V30 4162 H 422.626 3.21361 -3.78207 0
M  V30 4163 H 417.882 3.22338 -5.19527 0
M  V30 4164 H 422.056 3.20543 -6.18244 0
M  V30 4165 H 419.683 3.20575 -6.89301 0
M  V30 4166 N 421.258 1.00505 1.21394 0
M  V30 4167 C 422.221 0.570459 2.21987 0
M  V30 4168 C 423.221 -0.353211 1.56873 0
M  V30 4169 O 424.411 -0.14349 1.73608 0
M  V30 4170 C 421.543 -0.168555 3.40483 0
M  V30 4171 H 422.736 1.46021 2.6195 0
M  V30 4172 H 420.289 0.793565 1.34656 0
M  V30 4173 H 421.024 -1.07374 3.06009 0
M  V30 4174 H 420.809 0.494823 3.88965 0
M  V30 4175 H 422.299 -0.460362 4.15055 0
M  V30 4176 N 422.737 -1.36956 0.779787 0
M  V30 4177 C 423.983 -1.99787 0.348281 0
M  V30 4178 C 424.316 -1.61756 -1.07465 0
M  V30 4179 O 423.591 -0.867639 -1.74075 0
M  V30 4180 C 423.874 -3.56597 0.50104 0
M  V30 4181 C 423.727 -4.04513 1.96697 0
M  V30 4182 C 425.046 -4.40008 -0.0898097 0
M  V30 4183 H 422.165 -0.725796 0.128022 0
M  V30 4184 H 424.807 -1.62514 0.984331 0
M  V30 4185 H 422.957 -3.88479 -0.0404347 0
M  V30 4186 H 424.629 -3.83161 2.56876 0
M  V30 4187 H 422.872 -3.56408 2.47297 0
M  V30 4188 H 423.543 -5.1352 2.02486 0
M  V30 4189 H 426.019 -4.14431 0.372293 0
M  V30 4190 H 424.895 -5.4888 0.0471605 0
M  V30 4191 H 425.156 -4.26035 -1.18096 0
M  V30 4192 N 424.215 -0.530993 -1.48385 0
M  V30 4193 C 425.463 0.00273189 -2.021 0
M  V30 4194 C 425.784 1.34672 -1.41027 0
M  V30 4195 O 425.054 1.8724 -0.576012 0
M  V30 4196 H 423.634 0.00399774 -0.746989 0
M  V30 4197 H 426.296 -0.695054 -1.82085 0
M  V30 4198 H 425.392 0.11031 -3.11905 0
M  V30 4199 N 425.693 1.55336 -0.266172 0
M  V30 4200 C 426.942 1.98574 0.353749 0
M  V30 4201 C 427.255 1.15789 1.57646 0
M  V30 4202 O 428.461 1.49129 2.26876 0
M  V30 4203 C 426.917 3.53403 0.680747 0
M  V30 4204 C 426.525 4.44953 -0.52165 0
M  V30 4205 C 428.269 4.05251 1.26379 0
M  V30 4206 C 426.176 5.91156 -0.169736 0
M  V30 4207 H 425.106 0.741643 0.135949 0
M  V30 4208 H 427.757 1.79743 -0.369421 0
M  V30 4209 H 426.139 3.68001 1.46257 0
M  V30 4210 H 427.313 4.42121 -1.29869 0
M  V30 4211 H 425.628 4.03691 -1.02093 0
M  V30 4212 H 428.225 5.12021 1.54074 0
M  V30 4213 H 428.568 3.53749 2.19471 0
M  V30 4214 H 429.101 3.94057 0.544447 0
M  V30 4215 H 425.84 6.46736 -1.0683 0
M  V30 4216 H 425.36 5.97079 0.570717 0
M  V30 4217 H 427.039 6.4655 0.241245 0
M  V30 4218 N 427.171 -0.0066808 1.57599 0
M  V30 4219 C 428.417 -0.693947 1.90558 0
M  V30 4220 C 428.75 -1.73792 0.866594 0
M  V30 4221 O 428.025 -1.94156 -0.115548 0
M  V30 4222 C 428.308 -1.34317 3.34112 0
M  V30 4223 C 428.161 -0.311189 4.48722 0
M  V30 4224 C 429.48 -2.27116 3.7697 0
M  V30 4225 H 426.599 -0.250803 0.693013 0
M  V30 4226 H 429.241 0.043242 1.89951 0
M  V30 4227 H 427.391 -1.9715 3.3476 0
M  V30 4228 H 429.063 0.316944 4.6021 0
M  V30 4229 H 427.306 0.367253 4.32243 0
M  V30 4230 H 427.977 -0.804366 5.46108 0
M  V30 4231 H 430.453 -1.74306 3.77831 0
M  V30 4232 H 429.329 -2.69511 4.78179 0
M  V30 4233 H 429.59 -3.14743 3.10466 0
M  V30 4234 N 428.649 -1.55105 -0.279332 0
M  V30 4235 C 429.898 -1.74618 -1.00952 0
M  V30 4236 C 430.211 -0.551096 -1.87676 0
M  V30 4237 O 431.417 -0.628507 -2.64125 0
M  V30 4238 C 429.873 -3.09025 -1.84476 0
M  V30 4239 C 429.481 -4.36081 -1.0265 0
M  V30 4240 C 431.225 -3.37891 -2.56963 0
M  V30 4241 C 429.132 -5.6153 -1.85576 0
M  V30 4242 H 428.062 -0.650868 -0.38064 0
M  V30 4243 H 430.713 -1.81569 -0.265475 0
M  V30 4244 H 429.095 -2.96095 -2.62952 0
M  V30 4245 H 430.269 -4.59909 -0.286354 0
M  V30 4246 H 428.584 -4.14312 -0.416464 0
M  V30 4247 H 431.181 -4.28822 -3.19399 0
M  V30 4248 H 431.524 -2.57737 -3.26921 0
M  V30 4249 H 432.057 -3.5189 -1.85522 0
M  V30 4250 H 428.796 -6.44413 -1.2005 0
M  V30 4251 H 428.316 -5.41854 -2.57204 0
M  V30 4252 H 429.995 -5.99594 -2.43096 0
M  V30 4253 N 430.127 0.543554 -1.4793 0
M  V30 4254 C 431.375 1.29752 -1.54948 0
M  V30 4255 C 431.696 1.93764 -0.219242 0
M  V30 4256 O 430.966 1.80639 0.75805 0
M  V30 4257 H 429.546 0.481874 -0.570795 0
M  V30 4258 H 432.208 0.633636 -1.84312 0
M  V30 4259 H 431.304 2.08392 -2.32334 0
M  V30 4260 N 431.605 1.3629 0.791371 0
M  V30 4261 C 433.021 1.16661 1.08914 0
M  V30 4262 C 433.221 -0.0106266 2.01497 0
M  V30 4263 O 432.277 -0.676596 2.43266 0
M  V30 4264 C 433.59 2.47656 1.70549 0
M  V30 4265 C 435.138 2.54002 1.82899 0
M  V30 4266 C 435.613 3.85078 2.47949 0
M  V30 4267 N 437.104 3.86413 2.5542 0
M  V30 4268 C 437.839 4.84572 3.06557 0
M  V30 4269 N 437.335 5.93124 3.58016 0
M  V30 4270 N 439.128 4.71994 3.05251 0
M  V30 4271 H 431.279 2.11668 0.176238 0
M  V30 4272 H 433.542 0.937486 0.140796 0
M  V30 4273 H 433.248 3.34059 1.09989 0
M  V30 4274 H 433.122 2.63319 2.70079 0
M  V30 4275 H 435.509 1.68018 2.42598 0
M  V30 4276 H 435.59 2.42239 0.821808 0
M  V30 4277 H 435.234 4.71467 1.88895 0
M  V30 4278 H 435.164 3.94135 3.49235 0
M  V30 4279 H 437.655 3.07988 2.18979 0
M  V30 4280 H 437.968 6.63999 3.95381 0
M  V30 4281 H 436.313 5.96796 3.56173 0
M  V30 4282 H 439.504 3.86321 2.64336 0
M  V30 4283 H 439.677 5.48653 3.44796 0
M  V30 4284 N 433.083 -1.0153 1.20538 0
M  V30 4285 C 434.031 -2.12215 0.952235 0
M  V30 4286 C 435.025 -1.69123 -0.0968735 0
M  V30 4287 O 436.231 -1.7992 0.0536006 0
M  V30 4288 H 432.606 -0.693576 0.290613 0
M  V30 4289 H 434.577 -2.3075 1.89201 0
M  V30 4290 C 433.326 -3.43755 0.522287 0
M  V30 4291 H 432.649 -3.7734 1.32115 0
M  V30 4292 H 434.089 -4.22254 0.384389 0
M  V30 4293 C 432.548 -3.28088 -0.765489 0
M  V30 4294 O 433.078 -3.57921 -1.8236 0
M  V30 4295 N 431.284 -2.81333 -0.728011 0
M  V30 4296 H 430.831 -2.57255 0.133332 0
M  V30 4297 H 430.789 -2.71232 -1.58999 0
M  V30 4298 N 434.561 -1.01147 -1.20859 0
M  V30 4299 C 435.809 -0.696486 -1.89719 0
M  V30 4300 C 436.13 0.775788 -1.78904 0
M  V30 4301 O 435.4 1.55759 -1.18811 0
M  V30 4302 H 433.98 -0.254628 -0.702263 0
M  V30 4303 H 436.642 -1.28197 -1.46804 0
M  V30 4304 H 435.738 -0.975357 -2.96468 0
M  V30 4305 N 436.039 1.36541 -0.78704 0
M  V30 4306 C 436.949 2.3387 -0.184896 0
M  V30 4307 C 437.965 1.60927 0.661697 0
M  V30 4308 O 439.141 1.92927 0.57804 0
M  V30 4309 C 436.206 3.40122 0.672145 0
M  V30 4310 C 435.267 4.28867 -0.19267 0
M  V30 4311 C 434.5 5.30045 0.623561 0
M  V30 4312 O 434.723 5.39232 1.8597 0
M  V30 4313 O 433.657 6.01895 0.0247068 0
M  V30 4314 H 437.483 2.87126 -0.989562 0
M  V30 4315 H 435.068 1.38969 -0.548455 0
M  V30 4316 H 436.95 4.05093 1.16094 0
M  V30 4317 H 435.625 2.89169 1.45474 0
M  V30 4318 H 434.532 3.66945 -0.728166 0
M  V30 4319 H 435.865 4.83165 -0.938722 0
M  V30 4320 N 437.518 0.538854 1.48102 0
M  V30 4321 C 438.451 -0.266495 2.26639 0
M  V30 4322 C 439.429 -0.93687 1.32897 0
M  V30 4323 O 440.613 -0.959507 1.62252 0
M  V30 4324 C 437.74 -1.37814 3.09394 0
M  V30 4325 C 436.786 -0.818247 4.18577 0
M  V30 4326 S 437.619 0.320848 5.34538 0
M  V30 4327 C 438.775 -0.793059 6.20855 0
M  V30 4328 H 439.008 0.399994 2.94597 0
M  V30 4329 H 436.541 0.324808 1.50945 0
M  V30 4330 H 438.499 -2.01488 3.57649 0
M  V30 4331 H 437.16 -2.01639 2.40833 0
M  V30 4332 H 436.353 -1.65247 4.7614 0
M  V30 4333 H 435.955 -0.258036 3.73109 0
M  V30 4334 H 438.247 -1.68961 6.56093 0
M  V30 4335 H 439.19 -0.255204 7.0764 0
M  V30 4336 H 439.598 -1.07746 5.54122 0
M  V30 4337 N 438.996 -1.55193 0.274407 0
M  V30 4338 C 440.245 -1.98758 -0.343213 0
M  V30 4339 C 440.558 -1.16624 -1.5703 0
M  V30 4340 O 441.764 -1.5033 -2.26082 0
M  V30 4341 C 440.22 -3.53759 -0.661996 0
M  V30 4342 C 439.828 -4.4467 0.54524 0
M  V30 4343 C 441.572 -4.05916 -1.24228 0
M  V30 4344 C 439.479 -5.91058 0.201084 0
M  V30 4345 H 438.409 -0.742353 -0.132014 0
M  V30 4346 H 441.06 -1.79545 0.378948 0
M  V30 4347 H 439.442 -3.68772 -1.44304 0
M  V30 4348 H 440.616 -4.41426 1.32212 0
M  V30 4349 H 438.931 -4.03143 1.04232 0
M  V30 4350 H 441.528 -5.12831 -1.51357 0
M  V30 4351 H 441.871 -3.54908 -2.17592 0
M  V30 4352 H 442.404 -3.9434 -0.523542 0
M  V30 4353 H 439.143 -6.46161 1.10258 0
M  V30 4354 H 438.663 -5.97373 -0.539045 0
M  V30 4355 H 440.342 -6.46669 -0.206954 0
M  V30 4356 N 440.474 -0.00167713 -1.576 0
M  V30 4357 C 441.421 0.989195 -2.08527 0
M  V30 4358 C 442.391 1.34031 -0.981065 0
M  V30 4359 O 443.576 1.43839 -1.2536 0
M  V30 4360 C 440.716 2.27537 -2.59463 0
M  V30 4361 C 439.829 1.98314 -3.83791 0
M  V30 4362 C 438.964 3.21025 -4.23222 0
M  V30 4363 C 438.003 2.87495 -5.40382 0
M  V30 4364 N 437.14 4.02749 -5.75098 0
M  V30 4365 H 441.98 0.547973 -2.92919 0
M  V30 4366 H 439.517 0.258917 -1.44803 0
M  V30 4367 H 441.475 3.02729 -2.87073 0
M  V30 4368 H 440.105 2.69325 -1.77943 0
M  V30 4369 H 439.157 1.13482 -3.63078 0
M  V30 4370 H 440.469 1.69601 -4.69081 0
M  V30 4371 H 439.623 4.04561 -4.52123 0
M  V30 4372 H 438.362 3.52877 -3.36644 0
M  V30 4373 H 437.367 2.02367 -5.11202 0
M  V30 4374 H 438.592 2.56889 -6.28637 0
M  V30 4375 H 436.538 4.34494 -4.91478 0
M  V30 4376 H 436.455 3.77566 -6.54966 0
M  V30 4377 H 437.723 4.87068 -6.08592 0
M  V30 4378 N 441.952 1.55251 0.271103 0
M  V30 4379 C 442.899 1.88261 1.33516 0
M  V30 4380 C 443.869 0.734296 1.48988 0
M  V30 4381 O 445.054 0.985741 1.63364 0
M  V30 4382 C 442.194 2.16168 2.69008 0
M  V30 4383 C 441.307 3.43678 2.61743 0
M  V30 4384 C 440.442 3.61276 3.89427 0
M  V30 4385 C 439.481 4.82472 3.7668 0
M  V30 4386 N 438.618 4.96717 4.96202 0
M  V30 4387 H 443.458 2.79015 1.04665 0
M  V30 4388 H 440.995 1.38137 0.505618 0
M  V30 4389 H 442.953 2.30349 3.47844 0
M  V30 4390 H 441.583 1.28646 2.96057 0
M  V30 4391 H 440.635 3.37959 1.74607 0
M  V30 4392 H 441.947 4.3265 2.48224 0
M  V30 4393 H 441.101 3.75284 4.76704 0
M  V30 4394 H 439.84 2.70492 4.05814 0
M  V30 4395 H 438.845 4.68465 2.87786 0
M  V30 4396 H 440.07 5.74692 3.61809 0
M  V30 4397 H 438.016 4.08865 5.12997 0
M  V30 4398 H 437.933 5.79738 4.85222 0
M  V30 4399 H 439.201 5.15113 5.85046 0
M  V30 4400 N 443.43 -0.535701 1.48216 0
M  V30 4401 C 444.679 -1.28828 1.55197 0
M  V30 4402 C 444.992 -1.94263 0.228278 0
M  V30 4403 O 446.198 -2.70927 0.176278 0
M  V30 4404 C 444.654 -2.33727 2.73678 0
M  V30 4405 C 444.262 -1.74386 4.12666 0
M  V30 4406 C 446.006 -3.1003 2.89968 0
M  V30 4407 C 443.913 -2.77192 5.22416 0
M  V30 4408 H 442.843 -0.484484 0.577747 0
M  V30 4409 H 445.494 -0.56646 1.74538 0
M  V30 4410 H 443.876 -3.08919 2.4776 0
M  V30 4411 H 445.05 -1.05421 4.48579 0
M  V30 4412 H 443.365 -1.10595 4.01445 0
M  V30 4413 H 445.962 -3.86842 3.6913 0
M  V30 4414 H 446.305 -3.65542 1.9921 0
M  V30 4415 H 446.838 -2.41952 3.15759 0
M  V30 4416 H 443.577 -2.26507 6.15122 0
M  V30 4417 H 443.097 -3.44502 4.90998 0
M  V30 4418 H 444.776 -3.40285 5.50286 0
M  V30 4419 N 444.908 -1.36708 -0.784132 0
M  V30 4420 C 445.84 -1.27333 -1.90575 0
M  V30 4421 C 446.853 -0.191706 -1.61667 0
M  V30 4422 O 448.042 -0.446854 -1.72816 0
M  V30 4423 C 445.142 -0.943177 -3.25511 0
M  V30 4424 C 444.315 -2.12776 -3.82158 0
M  V30 4425 C 443.374 -1.76983 -4.95544 0
M  V30 4426 O 442.4 -2.49134 -5.11782 0
M  V30 4427 N 443.602 -0.706624 -5.76183 0
M  V30 4428 H 446.367 -2.23974 -1.99138 0
M  V30 4429 H 443.928 -1.30171 -0.962656 0
M  V30 4430 H 445.92 -0.684799 -3.98864 0
M  V30 4431 H 444.49 -0.0657333 -3.12531 0
M  V30 4432 H 443.71 -2.54863 -3.0073 0
M  V30 4433 H 444.998 -2.91904 -4.16737 0
M  V30 4434 H 444.396 -0.107643 -5.65598 0
M  V30 4435 H 442.953 -0.50808 -6.49817 0
M  V30 4436 N 446.386 1.0089 -1.21074 0
M  V30 4437 C 447.334 2.11707 -0.963476 0
M  V30 4438 C 448.328 1.69172 0.0879032 0
M  V30 4439 O 449.534 1.79889 -0.0631415 0
M  V30 4440 H 445.909 0.692026 -0.294287 0
M  V30 4441 H 447.88 2.29743 -1.90422 0
M  V30 4442 C 446.629 3.43473 -0.540509 0
M  V30 4443 H 445.952 3.76634 -1.34114 0
M  V30 4444 H 447.392 4.22044 -0.406777 0
M  V30 4445 C 445.851 3.2849 0.748079 0
M  V30 4446 O 446.381 3.58883 1.8046 0
M  V30 4447 N 444.587 2.81715 0.713081 0
M  V30 4448 H 444.134 2.5718 -0.146973 0
M  V30 4449 H 444.092 2.72071 1.57558 0
M  V30 4450 N 447.864 1.01787 1.20321 0
M  V30 4451 C 449.141 0.622978 1.85414 0
M  V30 4452 C 449.521 -0.898887 1.91006 0
M  V30 4453 O 448.869 -1.79112 1.41884 0
M  V30 4454 C 449.079 1.27226 3.24984 0
M  V30 4455 C 450.427 1.3885 4.01255 0
M  V30 4456 O 451.451 1.22857 3.34342 0
M  V30 4457 O 450.31 1.64705 5.2109 0
M  V30 4458 H 447.404 0.215116 0.798533 0
M  V30 4459 H 449.95 1.11533 1.27901 0
M  V30 4460 H 448.722 2.31209 3.15687 0
M  V30 4461 H 448.345 0.767069 3.90131 0
M  V30 4462 N 449.342 -1.36122 0.79427 0
M  V30 4463 C 450.305 -2.28309 0.201889 0
M  V30 4464 C 451.305 -1.49041 -0.603603 0
M  V30 4465 O 452.495 -1.68964 -0.423888 0
M  V30 4466 C 449.627 -3.3321 -0.719978 0
M  V30 4467 H 450.82 -2.82208 1.01481 0
M  V30 4468 H 448.373 -1.45768 0.564037 0
M  V30 4469 H 449.108 -2.84475 -1.55706 0
M  V30 4470 H 448.893 -3.91835 -0.144266 0
M  V30 4471 H 450.383 -4.02044 -1.12916 0
M  V30 4472 N 450.82 -0.546701 -1.47814 0
M  V30 4473 C 452.068 -0.0187037 -2.02091 0
M  V30 4474 C 452.389 1.33168 -1.42447 0
M  V30 4475 O 451.659 1.86619 -0.595839 0
M  V30 4476 H 450.239 -0.00392531 -0.74699 0
M  V30 4477 H 452.901 -0.714327 -1.81338 0
M  V30 4478 H 451.997 0.0772219 -3.12004 0
M  V30 4479 N 452.299 1.55045 -0.282633 0
M  V30 4480 C 453.545 2.00056 0.332481 0
M  V30 4481 C 453.878 1.1708 1.54939 0
M  V30 4482 O 453.153 0.2427 1.9298 0
M  V30 4483 C 453.436 3.53086 0.70725 0
M  V30 4484 C 453.289 4.46813 -0.517521 0
M  V30 4485 C 454.608 4.12245 1.54084 0
M  V30 4486 H 451.727 0.727268 0.119373 0
M  V30 4487 H 454.369 1.85932 -0.391076 0
M  V30 4488 H 452.519 3.65253 1.32372 0
M  V30 4489 H 454.191 4.46579 -1.15607 0
M  V30 4490 H 452.434 4.18163 -1.1542 0
M  V30 4491 H 453.105 5.51595 -0.211426 0
M  V30 4492 H 455.581 4.03401 1.02013 0
M  V30 4493 H 454.457 5.19515 1.77186 0
M  V30 4494 H 454.718 3.62951 2.52427 0
M  V30 4495 N 453.777 0.010035 1.57597 0
M  V30 4496 C 455.193 -0.346164 1.55801 0
M  V30 4497 C 455.393 -1.74144 1.01371 0
M  V30 4498 O 454.449 -2.43938 0.651968 0
M  V30 4499 C 455.762 -0.212216 2.9995 0
M  V30 4500 C 457.31 -0.286409 3.11687 0
M  V30 4501 C 457.785 -0.18147 4.5764 0
M  V30 4502 N 459.276 -0.239056 4.62583 0
M  V30 4503 C 460.011 -0.181351 5.73113 0
M  V30 4504 N 459.507 -0.073661 6.92761 0
M  V30 4505 N 461.3 -0.233949 5.61613 0
M  V30 4506 H 453.451 0.922657 1.91313 0
M  V30 4507 H 455.714 0.354595 0.879185 0
M  V30 4508 H 455.42 0.748169 3.4365 0
M  V30 4509 H 455.294 -0.990224 3.6397 0
M  V30 4510 H 457.681 -1.23724 2.67911 0
M  V30 4511 H 457.762 0.521645 2.50425 0
M  V30 4512 H 457.406 0.765863 5.02093 0
M  V30 4513 H 457.336 -1.00814 5.1686 0
M  V30 4514 H 459.827 -0.32321 3.76515 0
M  V30 4515 H 460.14 -0.0358003 7.72792 0
M  V30 4516 H 458.485 -0.0391461 6.94989 0
M  V30 4517 H 461.676 -0.316347 4.6703 0
M  V30 4518 H 461.849 -0.185514 6.47734 0
M  V30 4519 N 455.255 -1.55392 -0.262866 0
M  V30 4520 C 456.504 -1.75679 -0.990943 0
M  V30 4521 C 456.817 -0.57097 -1.87081 0
M  V30 4522 O 458.023 -0.656486 -2.63444 0
M  V30 4523 C 456.479 -3.10964 -1.81188 0
M  V30 4524 C 456.087 -4.37146 -0.980188 0
M  V30 4525 C 457.831 -3.40597 -2.53365 0
M  V30 4526 C 455.738 -5.63466 -1.7961 0
M  V30 4527 H 454.668 -0.654868 -0.373716 0
M  V30 4528 H 457.319 -1.81841 -0.246203 0
M  V30 4529 H 455.701 -2.98867 -2.59797 0
M  V30 4530 H 456.875 -4.60187 -0.237558 0
M  V30 4531 H 455.19 -4.14731 -0.372497 0
M  V30 4532 H 457.787 -4.32186 -3.14833 0
M  V30 4533 H 458.13 -2.6119 -3.24169 0
M  V30 4534 H 458.663 -3.53838 -1.81779 0
M  V30 4535 H 455.402 -6.4565 -1.13209 0
M  V30 4536 H 454.922 -5.44552 -2.51443 0
M  V30 4537 H 456.601 -6.02139 -2.36723 0
M  V30 4538 N 456.733 0.527833 -1.48498 0
M  V30 4539 C 457.665 1.6482 -1.5927 0
M  V30 4540 C 458.678 1.55659 -0.476869 0
M  V30 4541 O 459.867 1.62081 -0.747806 0
M  V30 4542 C 456.967 3.0348 -1.50842 0
M  V30 4543 C 456.14 3.381 -2.77502 0
M  V30 4544 C 455.199 4.5605 -2.62497 0
M  V30 4545 O 454.225 4.59165 -3.36387 0
M  V30 4546 N 455.427 5.54353 -1.72257 0
M  V30 4547 H 458.192 1.56015 -2.55889 0
M  V30 4548 H 455.753 0.715152 -1.45249 0
M  V30 4549 H 457.745 3.80264 -1.38496 0
M  V30 4550 H 456.315 3.06352 -0.621887 0
M  V30 4551 H 455.535 2.50473 -3.04396 0
M  V30 4552 H 456.823 3.58017 -3.61527 0
M  V30 4553 H 456.221 5.54617 -1.11431 0
M  V30 4554 H 454.778 6.30347 -1.65849 0
M  V30 4555 N 458.211 1.37122 0.776871 0
M  V30 4556 C 459.458 1.32047 1.53524 0
M  V30 4557 C 459.786 -0.0965631 1.9426 0
M  V30 4558 O 459.041 -1.06866 1.63945 0
M  V30 4559 C 459.34 2.20068 2.81611 0
M  V30 4560 C 459.006 3.68423 2.59953 0
M  V30 4561 C 457.668 4.08854 2.53755 0
M  V30 4562 C 460.02 4.62431 2.40431 0
M  V30 4563 C 457.348 5.41417 2.26018 0
M  V30 4564 C 459.7 5.95225 2.14219 0
M  V30 4565 C 458.364 6.34767 2.06462 0
M  V30 4566 H 457.634 0.483196 0.561785 0
M  V30 4567 H 460.281 1.69284 0.895268 0
M  V30 4568 H 458.586 1.75809 3.50141 0
M  V30 4569 H 460.283 2.13458 3.39465 0
M  V30 4570 H 456.873 3.36354 2.65638 0
M  V30 4571 H 461.057 4.32057 2.44213 0
M  V30 4572 H 456.313 5.71022 2.18504 0
M  V30 4573 H 460.487 6.67626 1.98112 0
M  V30 4574 H 458.114 7.37413 1.84733 0
M  V30 4575 N 459.689 -1.00246 1.21608 0
M  V30 4576 C 460.636 -2.09073 0.977613 0
M  V30 4577 C 461.606 -1.65815 -0.097297 0
M  V30 4578 O 462.791 -1.90734 0.0503445 0
M  V30 4579 C 459.931 -3.40671 0.551133 0
M  V30 4580 C 459.044 -3.97326 1.69576 0
M  V30 4581 C 458.179 -5.17043 1.2182 0
M  V30 4582 C 457.218 -5.65813 2.335 0
M  V30 4583 N 456.355 -6.76778 1.86859 0
M  V30 4584 H 461.195 -2.28806 1.90924 0
M  V30 4585 H 458.732 -1.12186 0.951452 0
M  V30 4586 H 460.69 -4.16225 0.285097 0
M  V30 4587 H 459.32 -3.20967 -0.343489 0
M  V30 4588 H 458.372 -3.18734 2.07637 0
M  V30 4589 H 459.684 -4.29511 2.53617 0
M  V30 4590 H 458.838 -5.99852 0.908975 0
M  V30 4591 H 457.577 -4.86458 0.347869 0
M  V30 4592 H 456.582 -4.81599 2.65222 0
M  V30 4593 H 457.807 -5.98427 3.21033 0
M  V30 4594 H 455.753 -6.47994 1.02174 0
M  V30 4595 H 455.67 -7.08231 2.64471 0
M  V30 4596 H 456.938 -7.63116 1.58978 0
M  V30 4597 N 461.167 -1.02423 -1.1978 0
M  V30 4598 C 462.578 -0.748389 -1.71044 0
M  V30 4599 C 462.929 0.732398 -1.82017 0
M  V30 4600 O 462.054 1.57116 -1.48807 0
M  V30 4601 C 462.649 -1.35187 -3.1066 0
M  V30 4602 C 461.208 -1.12472 -3.59203 0
M  V30 4603 C 460.355 -1.45283 -2.36195 0
M  V30 4604 H 463.306 -1.19275 -1.04686 0
M  V30 4605 H 463.327 -0.746408 -3.73107 0
M  V30 4606 H 462.839 -2.4296 -3.02642 0
M  V30 4607 H 460.94 -0.0649983 -3.72543 0
M  V30 4608 H 461.053 -1.81016 -4.43588 0
M  V30 4609 H 459.417 -0.872034 -2.39307 0
M  V30 4610 H 460.2 -2.54129 -2.30811 0
M  V30 4611 N 462.645 1.35699 -0.801477 0
M  V30 4612 C 463.922 1.9324 -0.302937 0
M  V30 4613 C 464.302 1.73209 1.20672 0
M  V30 4614 O 463.65 1.09809 2.00385 0
M  V30 4615 C 463.86 3.41728 -0.708747 0
M  V30 4616 C 465.208 4.18868 -0.695328 0
M  V30 4617 O 466.232 3.5022 -0.649971 0
M  V30 4618 O 465.091 5.41342 -0.749081 0
M  V30 4619 H 462.185 0.82331 -0.0780367 0
M  V30 4620 H 464.731 1.44806 -0.884832 0
M  V30 4621 H 463.503 3.50015 -1.74944 0
M  V30 4622 H 463.126 3.97471 -0.101384 0
M  V30 4623 N 464.123 0.554532 1.47522 0
M  V30 4624 C 465.4 -0.0360704 1.95567 0
M  V30 4625 C 465.78 -1.48828 1.49711 0
M  V30 4626 O 465.128 -2.16366 0.734717 0
M  V30 4627 C 465.338 0.106631 3.48837 0
M  V30 4628 C 466.686 -0.0400899 4.24581 0
M  V30 4629 O 467.71 0.0340453 3.56184 0
M  V30 4630 O 466.569 -0.199111 5.46137 0
M  V30 4631 H 463.663 -0.0656294 0.824392 0
M  V30 4632 H 466.209 0.620867 1.57935 0
M  V30 4633 H 464.981 1.11727 3.7501 0
M  V30 4634 H 464.604 -0.58804 3.93227 0
M  V30 4635 N 465.601 -1.54893 0.290851 0
M  V30 4636 C 466.849 -1.99538 -0.320756 0
M  V30 4637 C 467.17 -1.18075 -1.55188 0
M  V30 4638 O 466.44 -0.274162 -1.93972 0
M  V30 4639 H 465.02 -0.737052 -0.121507 0
M  V30 4640 H 467.682 -1.90755 0.399832 0
M  V30 4641 H 466.778 -3.06282 -0.599802 0
M  V30 4642 N 467.08 -0.0183926 -1.57589 0
M  V30 4643 C 468.308 0.673046 -1.95647 0
M  V30 4644 C 468.723 1.66275 -0.894312 0
M  V30 4645 O 468.08 1.82072 0.124975 0
M  V30 4646 C 468.131 1.38884 -3.33756 0
M  V30 4647 O 467.852 0.438806 -4.35897 0
M  V30 4648 C 469.353 2.1731 -3.86383 0
M  V30 4649 H 466.573 0.186292 -0.644621 0
M  V30 4650 H 469.117 -0.0749748 -2.04363 0
M  V30 4651 H 467.272 2.08835 -3.26293 0
M  V30 4652 H 467.686 0.945869 -5.15901 0
M  V30 4653 H 469.16 2.62863 -4.85394 0
M  V30 4654 H 469.637 3.00764 -3.20059 0
M  V30 4655 H 470.243 1.52339 -3.97081 0
M  V30 4656 N 468.558 1.5553 0.254621 0
M  V30 4657 C 469.786 1.81046 1.00149 0
M  V30 4658 C 470.201 0.593047 1.79244 0
M  V30 4659 O 469.558 -0.438196 1.77161 0
M  V30 4660 C 469.609 3.04684 1.94551 0
M  V30 4661 O 469.33 4.21725 1.18658 0
M  V30 4662 C 470.831 3.42943 2.80901 0
M  V30 4663 H 468.051 0.602653 0.295044 0
M  V30 4664 H 470.595 2.02576 0.279842 0
M  V30 4665 H 468.75 2.85226 2.62154 0
M  V30 4666 H 469.164 4.91746 1.82445 0
M  V30 4667 H 470.638 4.32576 3.42902 0
M  V30 4668 H 471.115 2.63176 3.51617 0
M  V30 4669 H 471.721 3.64724 2.18762 0
M  V30 4670 N 470.036 -0.519951 1.48776 0
M  V30 4671 C 471.447 -1.10177 1.50725 0
M  V30 4672 C 471.798 -1.94153 0.282678 0
M  V30 4673 O 470.923 -2.07645 -0.609298 0
M  V30 4674 C 471.518 -2.00482 2.73116 0
M  V30 4675 C 470.077 -2.53862 2.77905 0
M  V30 4676 C 469.224 -1.31047 2.44381 0
M  V30 4677 H 472.175 -0.30473 1.55747 0
M  V30 4678 H 472.196 -2.8491 2.52203 0
M  V30 4679 H 471.708 -1.39335 3.62225 0
M  V30 4680 H 469.809 -3.18702 1.93029 0
M  V30 4681 H 469.922 -2.9231 3.79594 0
M  V30 4682 H 468.286 -1.62953 1.95751 0
M  V30 4683 H 469.069 -0.71637 3.35743 0
M  V30 4684 N 471.514 -1.37532 -0.769588 0
M  V30 4685 C 472.424 -1.35668 -1.91393 0
M  V30 4686 C 473.44 -0.255954 -1.72107 0
M  V30 4687 O 474.616 -0.491704 -1.95305 0
M  V30 4688 C 471.681 -1.16481 -3.26547 0
M  V30 4689 C 470.742 -2.36212 -3.58472 0
M  V30 4690 C 469.975 -2.17932 -4.87177 0
M  V30 4691 O 470.198 -1.1647 -5.58382 0
M  V30 4692 O 469.132 -3.06167 -5.18214 0
M  V30 4693 H 472.958 -2.32055 -1.95918 0
M  V30 4694 H 470.543 -1.18284 -0.912641 0
M  V30 4695 H 472.425 -1.07778 -4.07384 0
M  V30 4696 H 471.1 -0.231687 -3.2287 0
M  V30 4697 H 470.007 -2.50488 -2.77861 0
M  V30 4698 H 471.34 -3.281 -3.66894 0
M  V30 4699 N 472.992 0.995999 -1.22138 0
M  V30 4700 C 474.408 1.25917 -0.980667 0
M  V30 4701 C 474.608 1.98819 0.327604 0
M  V30 4702 O 473.664 2.29587 1.05101 0
M  V30 4703 C 474.977 2.07399 -2.17729 0
M  V30 4704 C 476.525 2.20594 -2.22052 0
M  V30 4705 C 477 3.05462 -3.41258 0
M  V30 4706 N 478.491 3.13049 -3.41401 0
M  V30 4707 C 479.226 3.78997 -4.30289 0
M  V30 4708 N 478.722 4.46899 -5.2939 0
M  V30 4709 N 480.515 3.75728 -4.18073 0
M  V30 4710 H 472.666 0.507158 -2.06256 0
M  V30 4711 H 474.929 0.28658 -0.903646 0
M  V30 4712 H 474.635 1.61191 -3.12586 0
M  V30 4713 H 474.509 3.08154 -2.17534 0
M  V30 4714 H 476.896 2.66017 -1.27745 0
M  V30 4715 H 476.977 1.1928 -2.26287 0
M  V30 4716 H 476.621 2.60739 -4.35864 0
M  V30 4717 H 476.551 4.06911 -3.34262 0
M  V30 4718 H 479.042 2.64721 -2.69688 0
M  V30 4719 H 479.355 4.94952 -5.935 0
M  V30 4720 H 477.7 4.45657 -5.33306 0
M  V30 4721 H 480.891 3.2184 -3.39907 0
M  V30 4722 H 481.064 4.26845 -4.87553 0
M  V30 4723 N 474.47 1.03057 1.19235 0
M  V30 4724 C 475.719 0.72326 1.88287 0
M  V30 4725 C 476.032 -0.751333 1.80594 0
M  V30 4726 O 477.238 -1.17176 2.44912 0
M  V30 4727 C 475.694 1.24338 3.3774 0
M  V30 4728 C 475.302 2.74587 3.53986 0
M  V30 4729 C 477.046 1.01213 4.12257 0
M  V30 4730 C 474.953 3.20009 4.97341 0
M  V30 4731 H 473.883 0.266848 0.705201 0
M  V30 4732 H 476.534 1.24509 1.34795 0
M  V30 4733 H 474.916 0.649457 3.90638 0
M  V30 4734 H 476.09 3.39649 3.11408 0
M  V30 4735 H 474.405 2.9601 2.9286 0
M  V30 4736 H 477.002 1.32675 5.17978 0
M  V30 4737 H 477.345 -0.051001 4.16269 0
M  V30 4738 H 477.878 1.57014 3.65501 0
M  V30 4739 H 474.617 4.25659 4.98493 0
M  V30 4740 H 474.137 2.59676 5.40674 0
M  V30 4741 H 475.816 3.13447 5.66003 0
M  V30 4742 N 475.948 -1.35272 0.808662 0
M  V30 4743 C 476.911 -2.28082 0.226093 0
M  V30 4744 C 477.911 -1.49673 -0.587762 0
M  V30 4745 O 479.101 -1.69404 -0.405943 0
M  V30 4746 C 476.233 -3.33955 -0.684596 0
M  V30 4747 H 477.426 -2.81116 1.04469 0
M  V30 4748 H 474.979 -1.45162 0.579466 0
M  V30 4749 H 475.714 -2.86111 -1.5268 0
M  V30 4750 H 475.499 -3.91965 -0.102699 0
M  V30 4751 H 476.989 -4.03219 -1.08646 0
M  V30 4752 N 477.426 -0.562348 -1.47226 0
M  V30 4753 C 478.358 0.220011 -2.28142 0
M  V30 4754 C 479.371 0.874596 -1.37312 0
M  V30 4755 O 480.56 0.747583 -1.62091 0
M  V30 4756 C 477.66 1.32953 -3.11732 0
M  V30 4757 C 476.833 0.770759 -4.30556 0
M  V30 4758 C 475.892 1.76541 -4.95701 0
M  V30 4759 O 474.918 1.3095 -5.53932 0
M  V30 4760 N 476.12 3.09896 -4.90861 0
M  V30 4761 H 478.885 -0.474107 -2.95926 0
M  V30 4762 H 476.446 -0.398761 -1.56912 0
M  V30 4763 H 478.438 1.99378 -3.5218 0
M  V30 4764 H 477.008 1.92681 -2.46156 0
M  V30 4765 H 476.228 -0.0704056 -3.94137 0
M  V30 4766 H 477.516 0.376872 -5.07402 0
M  V30 4767 H 476.914 3.49577 -4.44761 0
M  V30 4768 H 475.471 3.71865 -5.35313 0
M  V30 4769 N 478.904 1.54736 -0.299062 0
M  V30 4770 C 480.153 1.99279 0.311549 0
M  V30 4771 C 480.466 1.19107 1.55154 0
M  V30 4772 O 481.672 1.53908 2.23662 0
M  V30 4773 C 480.128 3.54768 0.605632 0
M  V30 4774 C 479.736 4.43746 -0.615914 0
M  V30 4775 C 481.48 4.07841 1.17754 0
M  V30 4776 C 479.387 5.90663 -0.29509 0
M  V30 4777 H 478.317 0.744359 0.120187 0
M  V30 4778 H 480.968 1.78919 -0.407464 0
M  V30 4779 H 479.35 3.71021 1.38419 0
M  V30 4780 H 480.524 4.39267 -1.39218 0
M  V30 4781 H 478.839 4.01434 -1.10633 0
M  V30 4782 H 481.436 5.15174 1.43179 0
M  V30 4783 H 481.779 3.58324 2.11918 0
M  V30 4784 H 482.312 3.95123 0.460739 0
M  V30 4785 H 479.051 6.44325 -1.20524 0
M  V30 4786 H 478.571 5.98155 0.44394 0
M  V30 4787 H 480.25 6.46916 0.104048 0
M  V30 4788 N 480.382 0.0267497 1.57577 0
M  V30 4789 C 481.61 -0.662661 1.96001 0
M  V30 4790 C 482.025 -1.65799 0.903117 0
M  V30 4791 O 481.382 -1.82135 -0.115317 0
M  V30 4792 C 481.433 -1.37112 3.34488 0
M  V30 4793 O 481.154 -0.415683 4.36123 0
M  V30 4794 C 482.655 -2.15257 3.8753 0
M  V30 4795 H 479.875 -0.18287 0.6456 0
M  V30 4796 H 482.419 0.0858116 2.0432 0
M  V30 4797 H 480.574 -2.07101 3.27395 0
M  V30 4798 H 480.988 -0.918496 5.16395 0
M  V30 4799 H 482.462 -2.60285 4.86781 0
M  V30 4800 H 482.939 -2.99063 3.21649 0
M  V30 4801 H 483.545 -1.50231 3.97883 0
M  V30 4802 N 481.861 -1.55662 -0.24637 0
M  V30 4803 C 483.109 -1.77168 -0.972411 0
M  V30 4804 C 483.43 -0.590827 -1.85834 0
M  V30 4805 O 482.7 0.393365 -1.9191 0
M  V30 4806 H 481.28 -0.653405 -0.362038 0
M  V30 4807 H 483.942 -1.93101 -0.264189 0
M  V30 4808 H 483.038 -2.68335 -1.59382 0
M  V30 4809 N 483.339 0.512053 -1.4905 0
M  V30 4810 C 484.75 1.09376 -1.51307 0
M  V30 4811 C 485.101 1.94 -0.292971 0
M  V30 4812 O 484.226 2.07965 0.598277 0
M  V30 4813 C 484.821 1.99031 -2.74176 0
M  V30 4814 C 483.38 2.52385 -2.79247 0
M  V30 4815 C 482.527 1.29749 -2.45073 0
M  V30 4816 H 485.478 0.296467 -1.55906 0
M  V30 4817 H 485.499 2.83569 -2.53711 0
M  V30 4818 H 485.011 1.37412 -3.62959 0
M  V30 4819 H 483.112 3.17673 -1.94716 0
M  V30 4820 H 483.225 2.90293 -3.81139 0
M  V30 4821 H 481.589 1.61912 -1.96612 0
M  V30 4822 H 482.372 0.698555 -3.36118 0
M  V30 4823 N 484.817 1.37938 0.762283 0
M  V30 4824 C 486.228 1.30094 1.33912 0
M  V30 4825 C 486.579 -0.0472026 1.96143 0
M  V30 4826 O 485.704 -0.94917 1.94473 0
M  V30 4827 C 486.299 2.35592 2.43478 0
M  V30 4828 C 484.858 2.31353 2.96905 0
M  V30 4829 C 484.005 2.18919 1.70205 0
M  V30 4830 H 486.956 1.48423 0.561816 0
M  V30 4831 H 486.977 2.00806 3.23199 0
M  V30 4832 H 486.489 3.33701 1.98155 0
M  V30 4833 H 484.59 1.36799 3.46579 0
M  V30 4834 H 484.703 3.25147 3.51875 0
M  V30 4835 H 483.067 1.65624 1.93496 0
M  V30 4836 H 483.85 3.18956 1.26973 0
M  V30 4837 N 486.295 -0.989507 1.22664 0
M  V30 4838 C 487.572 -1.70326 0.961688 0
M  V30 4839 C 487.952 -2.04537 -0.522279 0
M  V30 4840 O 487.3 -1.73136 -1.49118 0
M  V30 4841 C 487.51 -2.95135 1.86269 0
M  V30 4842 C 488.858 -3.67842 2.12078 0
M  V30 4843 O 489.882 -3.0515 1.83745 0
M  V30 4844 O 488.741 -4.80644 2.60083 0
M  V30 4845 H 485.835 -0.743589 0.361946 0
M  V30 4846 H 488.381 -1.04555 1.33665 0
M  V30 4847 H 487.153 -2.66382 2.8663 0
M  V30 4848 H 486.776 -3.68645 1.48952 0
M  V30 4849 N 487.773 -1.03688 -1.18687 0
M  V30 4850 C 489.189 -0.755413 -1.4059 0
M  V30 4851 C 489.389 0.656659 -1.905 0
M  V30 4852 O 488.445 1.42144 -2.08689 0
M  V30 4853 C 489.758 -1.7983 -2.41001 0
M  V30 4854 C 491.306 -1.81877 -2.54735 0
M  V30 4855 C 491.781 -2.85148 -3.58406 0
M  V30 4856 N 493.272 -2.84015 -3.6591 0
M  V30 4857 C 494.007 -3.60573 -4.45841 0
M  V30 4858 N 493.503 -4.46871 -5.29413 0
M  V30 4859 N 495.296 -3.49079 -4.40568 0
M  V30 4860 H 487.447 -1.94818 -0.846148 0
M  V30 4861 H 489.71 -0.842727 -0.434184 0
M  V30 4862 H 489.416 -2.81097 -2.1137 0
M  V30 4863 H 489.29 -1.62727 -3.40294 0
M  V30 4864 H 491.677 -0.812836 -2.83685 0
M  V30 4865 H 491.758 -2.03057 -1.55568 0
M  V30 4866 H 491.402 -3.85918 -3.30197 0
M  V30 4867 H 491.332 -2.61224 -4.57241 0
M  V30 4868 H 493.823 -2.21431 -3.0623 0
M  V30 4869 H 494.136 -5.02007 -5.87545 0
M  V30 4870 H 492.481 -4.5094 -5.28846 0
M  V30 4871 H 495.672 -2.81066 -3.74325 0
M  V30 4872 H 495.845 -4.08994 -5.02621 0
M  V30 4873 N 489.251 1.34841 -0.815825 0
M  V30 4874 C 490.491 2.00321 -0.406297 0
M  V30 4875 C 490.855 1.63293 1.00992 0
M  V30 4876 O 492.056 2.21563 1.52195 0
M  V30 4877 C 490.327 3.52421 -0.594469 0
M  V30 4878 S 491.886 4.37926 -0.276735 0
M  V30 4879 H 488.704 0.694155 -0.153848 0
M  V30 4880 H 491.306 1.64263 -1.06009 0
M  V30 4881 H 490.01 3.76858 -1.625 0
M  V30 4882 H 489.541 3.9333 0.0743157 0
M  V30 4883 H 491.556 4.87743 0.912215 0
M  V30 4884 N 490.729 0.570148 1.46925 0
M  V30 4885 C 491.661 -0.207909 2.28255 0
M  V30 4886 C 492.674 -0.867301 1.37774 0
M  V30 4887 O 493.863 -0.738976 1.62485 0
M  V30 4888 C 490.963 -1.31298 3.12433 0
M  V30 4889 C 490.136 -0.747915 4.30958 0
M  V30 4890 C 489.195 -1.7391 4.9663 0
M  V30 4891 O 488.221 -1.2801 5.54619 0
M  V30 4892 N 489.423 -3.07288 4.92498 0
M  V30 4893 H 492.188 0.489794 2.95671 0
M  V30 4894 H 489.749 0.407076 1.56699 0
M  V30 4895 H 491.741 -1.97507 3.53232 0
M  V30 4896 H 490.311 -1.91373 2.47175 0
M  V30 4897 H 489.531 0.0913066 3.94094 0
M  V30 4898 H 490.819 -0.349958 5.07595 0
M  V30 4899 H 490.217 -3.47213 4.46609 0
M  V30 4900 H 488.774 -3.69021 5.37277 0
M  V30 4901 N 492.207 -1.54576 0.307264 0
M  V30 4902 C 493.157 -2.20467 -0.581249 0
M  V30 4903 C 494.141 -1.17972 -1.09414 0
M  V30 4904 O 495.333 -1.43667 -1.03387 0
M  V30 4905 C 492.462 -2.95369 -1.74963 0
M  V30 4906 C 491.548 -4.05186 -1.25241 0
M  V30 4907 N 491.939 -5.03577 -0.47364 0
M  V30 4908 C 490.237 -4.18841 -1.53259 0
M  V30 4909 C 490.938 -5.81328 -0.208083 0
M  V30 4910 N 489.914 -5.37834 -0.789651 0
M  V30 4911 H 493.716 -2.93892 0.0212221 0
M  V30 4912 H 491.23 -1.62011 0.112325 0
M  V30 4913 H 493.227 -3.41046 -2.39777 0
M  V30 4914 H 491.887 -2.23461 -2.35574 0
M  V30 4915 H 492.898 -5.17766 -0.117963 0
M  V30 4916 H 489.575 -3.58141 -2.14573 0
M  V30 4917 H 490.965 -6.706 0.417793 0
M  V30 4918 N 493.685 -0.035106 -1.57561 0
M  V30 4919 C 494.648 0.929819 -2.09492 0
M  V30 4920 C 495.648 1.25026 -1.01119 0
M  V30 4921 O 496.838 1.18961 -1.27255 0
M  V30 4922 C 493.97 2.24457 -2.56577 0
M  V30 4923 H 495.163 0.479935 -2.96035 0
M  V30 4924 H 492.716 0.213033 -1.54841 0
M  V30 4925 H 493.451 2.74061 -1.73382 0
M  V30 4926 H 493.236 2.02508 -3.35757 0
M  V30 4927 H 494.726 2.93607 -2.96959 0
M  V30 4928 N 495.163 1.55791 0.238111 0
M  V30 4929 C 496.126 1.90239 1.27835 0
M  V30 4930 C 497.126 0.779552 1.4064 0
M  V30 4931 O 498.316 1.04747 1.3919 0
M  V30 4932 C 495.448 2.13859 2.65475 0
M  V30 4933 H 496.641 2.83262 0.985034 0
M  V30 4934 H 494.194 1.48818 0.477799 0
M  V30 4935 H 494.929 1.23334 2.99932 0
M  V30 4936 H 494.714 2.95643 2.57561 0
M  V30 4937 H 496.204 2.41664 3.40571 0
M  V30 4938 N 496.642 -0.504142 1.49319 0
M  V30 4939 C 497.552 -1.63248 1.68486 0
M  V30 4940 C 498.568 -1.64488 0.567432 0
M  V30 4941 O 499.744 -1.82966 0.841749 0
M  V30 4942 C 496.809 -2.99627 1.74426 0
M  V30 4943 C 495.87 -3.09039 2.97982 0
M  V30 4944 C 495.103 -4.38913 3.0363 0
M  V30 4945 O 495.326 -5.27528 2.16958 0
M  V30 4946 O 494.26 -4.53231 3.96062 0
M  V30 4947 H 498.086 -1.50008 2.64067 0
M  V30 4948 H 495.671 -0.680086 1.33023 0
M  V30 4949 H 497.553 -3.80689 1.80705 0
M  V30 4950 H 496.228 -3.13136 0.820233 0
M  V30 4951 H 495.135 -2.27177 2.97223 0
M  V30 4952 H 496.468 -3.00456 3.89855 0
M  V30 4953 N 498.12 -1.38341 -0.754957 0
M  V30 4954 C 499.369 -1.33791 -1.5094 0
M  V30 4955 C 499.682 0.0699267 -1.95475 0
M  V30 4956 O 500.888 0.237956 -2.70455 0
M  V30 4957 C 499.344 -2.34934 -2.72643 0
M  V30 4958 C 498.952 -3.81332 -2.35138 0
M  V30 4959 C 500.696 -2.39425 -3.50536 0
M  V30 4960 C 498.603 -4.74164 -3.53444 0
M  V30 4961 H 497.533 -0.497314 -0.566741 0
M  V30 4962 H 500.184 -1.63888 -0.825403 0
M  V30 4963 H 498.566 -1.97878 -3.43017 0
M  V30 4964 H 499.74 -4.27319 -1.7244 0
M  V30 4965 H 498.055 -3.79946 -1.70382 0
M  V30 4966 H 500.652 -3.0598 -4.38498 0
M  V30 4967 H 500.995 -1.41278 -3.91594 0
M  V30 4968 H 501.528 -2.75274 -2.87174 0
M  V30 4969 H 498.267 -5.73501 -3.17453 0
M  V30 4970 H 497.787 -4.3287 -4.15191 0
M  V30 4971 H 499.466 -4.92111 -4.20043 0
M  V30 4972 N 499.598 0.982988 -1.23187 0
M  V30 4973 C 500.847 1.71817 -1.05649 0
M  V30 4974 C 501.16 1.91315 0.407176 0
M  V30 4975 O 502.366 2.62256 0.702436 0
M  V30 4976 C 500.822 3.09188 -1.84203 0
M  V30 4977 C 500.43 2.97586 -3.34882 0
M  V30 4978 C 502.174 3.86684 -1.75146 0
M  V30 4979 C 500.081 4.30173 -4.05839 0
M  V30 4980 H 499.011 0.644258 -0.391724 0
M  V30 4981 H 501.662 1.09659 -1.4713 0
M  V30 4982 H 500.044 3.72087 -1.35527 0
M  V30 4983 H 501.218 2.43793 -3.91026 0
M  V30 4984 H 499.533 2.33567 -3.44725 0
M  V30 4985 H 502.13 4.84836 -2.25473 0
M  V30 4986 H 502.473 4.10136 -0.713737 0
M  V30 4987 H 503.006 3.30482 -2.21419 0
M  V30 4988 H 499.745 4.11918 -5.09906 0
M  V30 4989 H 499.265 4.83841 -3.54482 0
M  V30 4990 H 500.944 4.98873 -4.11989 0
M  V30 4991 N 501.076 1.04316 1.18135 0
M  V30 4992 C 502.304 0.768117 1.92113 0
M  V30 4993 C 502.719 -0.675057 1.76319 0
M  V30 4994 O 502.076 -1.46038 1.09449 0
M  V30 4995 C 502.127 1.12808 3.43448 0
M  V30 4996 O 501.848 2.5146 3.58747 0
M  V30 4997 C 503.349 0.8779 4.3452 0
M  V30 4998 H 500.569 0.279937 0.609817 0
M  V30 4999 H 503.113 1.39149 1.49859 0
M  V30 5000 H 501.268 0.549623 3.83481 0
M  V30 5001 H 501.682 2.65313 4.52448 0
M  V30 5002 H 503.156 1.17959 5.39249 0
M  V30 5003 H 503.633 -0.187239 4.38801 0
M  V30 5004 H 504.239 1.43977 4.00188 0
M  V30 5005 N 502.554 -1.34406 0.822964 0
M  V30 5006 C 503.831 -1.92733 0.333641 0
M  V30 5007 C 504.211 -1.75107 -1.17901 0
M  V30 5008 O 503.559 -1.12983 -1.98613 0
M  V30 5009 C 503.769 -3.40557 0.763023 0
M  V30 5010 C 505.117 -4.17709 0.761879 0
M  V30 5011 O 506.141 -3.49141 0.705606 0
M  V30 5012 O 505 -5.40082 0.835109 0
M  V30 5013 H 502.094 -0.821964 0.0911249 0
M  V30 5014 H 504.64 -1.4338 0.907757 0
M  V30 5015 H 503.412 -3.47187 1.8049 0
M  V30 5016 H 503.035 -3.97259 0.164605 0
M  V30 5017 N 504.032 -0.577932 -1.46621 0
M  V30 5018 C 504.962 0.145917 -2.33044 0
M  V30 5019 C 505.943 0.888412 -1.45056 0
M  V30 5020 O 507.128 0.864812 -1.73881 0
M  V30 5021 C 504.258 1.16322 -3.27241 0
M  V30 5022 C 503.212 0.535868 -4.24632 0
M  V30 5023 C 502.538 1.65929 -5.08303 0
M  V30 5024 C 503.838 -0.523861 -5.19666 0
M  V30 5025 H 505.532 -0.575636 -2.93814 0
M  V30 5026 H 503.078 -0.278272 -1.41286 0
M  V30 5027 H 505.031 1.67793 -3.86553 0
M  V30 5028 H 503.755 1.91498 -2.64567 0
M  V30 5029 H 502.414 0.0422759 -3.66576 0
M  V30 5030 H 502.062 2.40061 -4.42018 0
M  V30 5031 H 501.762 1.2452 -5.74255 0
M  V30 5032 H 503.286 2.17686 -5.70478 0
M  V30 5033 H 504.7 -0.0944059 -5.73222 0
M  V30 5034 H 503.097 -0.858 -5.93935 0
M  V30 5035 H 504.167 -1.41197 -4.63887 0
M  V30 5036 N 505.51 1.54411 -0.315457 0
M  V30 5037 C 506.44 2.27002 0.547039 0
M  V30 5038 C 507.421 1.27492 1.12605 0
M  V30 5039 O 508.606 1.5629 1.15269 0
M  V30 5040 C 505.736 3.02171 1.71201 0
M  V30 5041 C 504.69 4.0895 1.26268 0
M  V30 5042 C 504.016 4.71915 2.51396 0
M  V30 5043 C 505.316 5.20891 0.383419 0
M  V30 5044 H 507.01 2.99343 -0.0584517 0
M  V30 5045 H 504.556 1.4397 -0.0295527 0
M  V30 5046 H 506.509 3.51681 2.32161 0
M  V30 5047 H 505.233 2.27433 2.34397 0
M  V30 5048 H 503.892 3.60312 0.676062 0
M  V30 5049 H 503.54 3.93801 3.12937 0
M  V30 5050 H 503.24 5.44039 2.22026 0
M  V30 5051 H 504.764 5.24195 3.13133 0
M  V30 5052 H 506.178 5.66206 0.899082 0
M  V30 5053 H 504.575 5.99821 0.182857 0
M  V30 5054 H 505.645 4.81324 -0.587821 0
M  V30 5055 N 506.988 0.0434614 1.5754 0
M  V30 5056 C 508.404 -0.313039 1.565 0
M  V30 5057 C 508.604 -1.71954 1.05043 0
M  V30 5058 O 507.66 -2.425 0.703564 0
M  V30 5059 C 508.973 -0.148544 3.00333 0
M  V30 5060 C 510.521 -0.220231 3.12224 0
M  V30 5061 C 510.996 -0.0843565 4.57922 0
M  V30 5062 N 512.487 -0.140881 4.62986 0
M  V30 5063 C 513.222 -0.0597443 5.73369 0
M  V30 5064 N 512.718 0.0733004 6.92761 0
M  V30 5065 N 514.511 -0.11477 5.61983 0
M  V30 5066 H 506.662 0.96303 1.89313 0
M  V30 5067 H 508.925 0.373164 0.871466 0
M  V30 5068 H 508.631 0.820894 3.41986 0
M  V30 5069 H 508.505 -0.912798 3.65989 0
M  V30 5070 H 510.892 -1.18014 2.70475 0
M  V30 5071 H 510.973 0.574646 2.49262 0
M  V30 5072 H 510.617 0.872192 5.00355 0
M  V30 5073 H 510.547 -0.898281 5.18882 0
M  V30 5074 H 513.038 -0.243273 3.77116 0
M  V30 5075 H 513.351 0.128128 7.72694 0
M  V30 5076 H 511.696 0.10828 6.94916 0
M  V30 5077 H 514.887 -0.217212 4.67596 0
M  V30 5078 H 515.06 -0.0480779 6.47982 0
M  V30 5079 N 508.466 -1.55915 -0.229846 0
M  V30 5080 C 509.691 -1.8296 -0.976743 0
M  V30 5081 C 510.116 -0.622735 -1.77493 0
M  V30 5082 O 509.474 0.428431 -1.76165 0
M  V30 5083 C 509.522 -3.07916 -1.8767 0
M  V30 5084 O 508.626 -2.86028 -2.97088 0
M  V30 5085 H 507.967 -0.603453 -0.277021 0
M  V30 5086 H 510.497 -2.0312 -0.245669 0
M  V30 5087 H 510.507 -3.37802 -2.2881 0
M  V30 5088 H 509.182 -3.95389 -1.28996 0
M  V30 5089 H 507.759 -2.67355 -2.59954 0
M  V30 5090 N 509.944 0.496216 -1.49584 0
M  V30 5091 C 511.19 1.25189 -1.59548 0
M  V30 5092 C 511.523 1.9212 -0.283466 0
M  V30 5093 O 510.798 1.80947 0.713324 0
M  V30 5094 C 511.081 2.31516 -2.75812 0
M  V30 5095 C 510.934 1.69054 -4.16822 0
M  V30 5096 C 512.253 3.3304 -2.87702 0
M  V30 5097 H 509.372 0.45379 -0.580727 0
M  V30 5098 H 512.014 0.549327 -1.81886 0
M  V30 5099 H 510.164 2.91438 -2.56897 0
M  V30 5100 H 511.836 1.12923 -4.47265 0
M  V30 5101 H 510.079 0.994485 -4.22247 0
M  V30 5102 H 510.75 2.462 -4.94054 0
M  V30 5103 H 513.226 2.83114 -3.04936 0
M  V30 5104 H 512.102 4.04794 -3.7072 0
M  V30 5105 H 512.363 3.95655 -1.97255 0
M  V30 5106 N 511.423 1.38739 0.74761 0
M  V30 5107 C 512.355 1.32341 1.87132 0
M  V30 5108 C 513.368 0.234502 1.61102 0
M  V30 5109 O 514.557 0.492516 1.71571 0
M  V30 5110 C 511.657 1.02915 3.22896 0
M  V30 5111 C 510.83 2.22834 3.76383 0
M  V30 5112 C 509.889 1.90059 4.90677 0
M  V30 5113 O 508.915 2.62615 5.04997 0
M  V30 5114 N 510.117 0.859141 5.74107 0
M  V30 5115 H 512.882 2.29175 1.93129 0
M  V30 5116 H 510.443 1.32678 0.927805 0
M  V30 5117 H 512.435 0.79031 3.96908 0
M  V30 5118 H 511.005 0.148572 3.12247 0
M  V30 5119 H 510.225 2.62747 2.93867 0
M  V30 5120 H 511.513 3.02851 4.08851 0
M  V30 5121 H 510.911 0.257564 5.65113 0
M  V30 5122 H 509.468 0.680189 6.48241 0
M  V30 5123 N 512.901 -0.976442 1.23707 0
M  V30 5124 C 513.864 -2.0511 1.02287 0
M  V30 5125 C 514.864 -1.60791 -0.0167195 0
M  V30 5126 O 516.054 -1.72761 0.223408 0
M  V30 5127 C 513.186 -3.36458 0.548507 0
M  V30 5128 H 514.379 -2.25545 1.9766 0
M  V30 5129 H 511.932 -1.15042 1.05806 0
M  V30 5130 H 512.667 -3.21713 -0.408818 0
M  V30 5131 H 512.452 -3.69967 1.29874 0
M  V30 5132 H 513.942 -4.15489 0.419406 0
M  V30 5133 N 514.379 -1.04941 -1.1758 0
M  V30 5134 C 515.627 -0.756492 -1.87408 0
M  V30 5135 C 515.948 0.718478 -1.81281 0
M  V30 5136 O 515.218 1.519 -1.23706 0
M  V30 5137 H 513.798 -0.276841 -0.693807 0
M  V30 5138 H 516.46 -1.32803 -1.42652 0
M  V30 5139 H 515.556 -1.06918 -2.93215 0
M  V30 5140 N 515.857 1.33968 -0.830081 0
M  V30 5141 C 516.805 2.31301 -0.245435 0
M  V30 5142 C 517.799 1.57734 0.617762 0
M  V30 5143 O 519.005 1.72674 0.508303 0
M  V30 5144 H 515.38 0.749552 -0.0606316 0
M  V30 5145 H 517.351 2.78129 -1.08105 0
M  V30 5146 C 516.1 3.42961 0.572084 0
M  V30 5147 H 515.423 3.99714 -0.0828118 0
M  V30 5148 H 516.863 4.13286 0.94715 0
M  V30 5149 C 515.322 2.88043 1.74737 0
M  V30 5150 O 515.852 2.83508 2.8458 0
M  V30 5151 N 514.058 2.44768 1.56642 0
M  V30 5152 H 513.605 2.48656 0.672901 0
M  V30 5153 H 513.563 2.08375 2.3543 0
M  V30 5154 N 517.335 0.585699 1.46312 0
M  V30 5155 C 518.746 0.159938 1.86014 0
M  V30 5156 C 519.097 -1.27775 1.48889 0
M  V30 5157 O 518.222 -1.96559 0.90519 0
M  V30 5158 C 518.817 0.283485 3.37612 0
M  V30 5159 C 517.376 -0.0874256 3.76298 0
M  V30 5160 C 516.523 0.618055 2.70325 0
M  V30 5161 H 519.474 0.793737 1.37425 0
M  V30 5162 H 519.495 -0.490348 3.77327 0
M  V30 5163 H 519.007 1.32995 3.64601 0
M  V30 5164 H 517.108 -1.13391 3.54927 0
M  V30 5165 H 517.221 0.290975 4.78216 0
M  V30 5166 H 515.585 0.057993 2.54634 0
M  V30 5167 H 516.368 1.66623 3.00153 0
M  V30 5168 N 518.813 -1.54241 0.323641 0
M  V30 5169 C 520.061 -2.00174 -0.278359 0
M  V30 5170 C 520.382 -1.2134 -1.52648 0
M  V30 5171 O 519.652 -0.315244 -1.93347 0
M  V30 5172 H 518.232 -0.739463 -0.105845 0
M  V30 5173 H 520.894 -1.89864 0.440204 0
M  V30 5174 H 519.99 -3.07486 -0.5347 0
M  V30 5175 N 520.291 -0.0518155 -1.57515 0
M  V30 5176 C 521.539 0.620595 -1.92336 0
M  V30 5177 C 521.86 1.71345 -0.930907 0
M  V30 5178 O 521.13 1.95885 0.0241341 0
M  V30 5179 H 519.71 0.232226 -0.709986 0
M  V30 5180 H 522.372 -0.104969 -1.94617 0
M  V30 5181 H 521.468 1.05879 -2.93592 0
M  V30 5182 N 521.769 1.56035 0.221574 0
M  V30 5183 C 523.18 1.69229 0.788567 0
M  V30 5184 C 523.531 0.653814 1.84986 0
M  V30 5185 O 522.656 -0.195065 2.15519 0
M  V30 5186 C 523.251 3.06809 1.43713 0
M  V30 5187 C 521.81 3.21858 1.95152 0
M  V30 5188 C 520.957 2.65155 0.811685 0
M  V30 5189 H 523.908 1.587 -0.00307894 0
M  V30 5190 H 523.929 3.02666 2.30594 0
M  V30 5191 H 523.441 3.82369 0.664475 0
M  V30 5192 H 521.542 2.51167 2.7522 0
M  V30 5193 H 521.655 4.29073 2.1315 0
M  V30 5194 H 520.019 2.23635 1.21899 0
M  V30 5195 H 520.802 3.43261 0.0516987 0
M  V30 5196 N 523.247 -0.488276 1.49845 0
M  V30 5197 C 524.495 -1.23911 1.59657 0
M  V30 5198 C 524.816 -1.92816 0.291005 0
M  V30 5199 O 524.086 -1.83328 -0.690485 0
M  V30 5200 H 522.666 -0.460357 0.588286 0
M  V30 5201 H 525.328 -0.564794 1.86537 0
M  V30 5202 H 524.424 -1.99625 2.39909 0
M  V30 5203 N 524.725 -1.39134 -0.740242 0
M  V30 5204 C 526.136 -1.32208 -1.31825 0
M  V30 5205 C 526.487 0.0159919 -1.96193 0
M  V30 5206 O 525.612 0.918111 -1.95958 0
M  V30 5207 C 526.207 -2.39436 -2.39699 0
M  V30 5208 C 524.766 -2.36048 -2.93187 0
M  V30 5209 C 523.913 -2.21599 -1.66701 0
M  V30 5210 H 526.864 -1.49298 -0.538133 0
M  V30 5211 H 526.885 -2.05922 -3.19963 0
M  V30 5212 H 526.397 -3.36811 -1.92821 0
M  V30 5213 H 524.498 -1.42295 -3.44359 0
M  V30 5214 H 524.611 -3.30704 -3.46658 0
M  V30 5215 H 522.975 -1.68681 -1.90837 0
M  V30 5216 H 523.758 -3.20936 -1.21882 0
M  V30 5217 N 526.204 0.969867 -1.24223 0
M  V30 5218 C 527.452 1.70918 -1.0785 0
M  V30 5219 C 527.773 1.91186 0.383763 0
M  V30 5220 O 527.043 1.48806 1.27411 0
M  V30 5221 H 525.623 0.633334 -0.396103 0
M  V30 5222 H 528.285 1.16689 -1.56108 0
M  V30 5223 H 527.381 2.69455 -1.57482 0
M  V30 5224 N 527.682 1.05563 1.17022 0
M  V30 5225 C 528.93 0.76642 1.87004 0
M  V30 5226 C 529.251 -0.708854 1.8166 0
M  V30 5227 O 528.521 -1.51242 1.2451 0
M  V30 5228 H 527.101 0.280516 0.692329 0
M  V30 5229 H 529.763 1.33557 1.41945 0
M  V30 5230 H 528.859 1.08472 2.92644 0
M  V30 5231 N 529.16 -1.33526 0.837174 0
M  V30 5232 C 530.576 -1.50727 0.524743 0
M  V30 5233 C 530.776 -1.77792 -0.948279 0
M  V30 5234 O 529.832 -1.83719 -1.73216 0
M  V30 5235 C 531.145 -2.66299 1.39661 0
M  V30 5236 C 532.693 -2.80183 1.39521 0
M  V30 5237 C 533.168 -3.98815 2.25189 0
M  V30 5238 N 534.659 -4.06047 2.2289 0
M  V30 5239 C 535.394 -4.97032 2.85915 0
M  V30 5240 N 534.89 -5.93143 3.57985 0
M  V30 5241 N 536.683 -4.90015 2.75394 0
M  V30 5242 H 528.834 -1.1422 1.79074 0
M  V30 5243 H 531.097 -0.561399 0.763894 0
M  V30 5244 H 530.803 -2.52974 2.4433 0
M  V30 5245 H 530.677 -3.61663 1.07145 0
M  V30 5246 H 533.064 -2.92942 0.356253 0
M  V30 5247 H 533.145 -1.85586 1.76044 0
M  V30 5248 H 532.789 -3.86817 3.29143 0
M  V30 5249 H 532.719 -4.92654 1.86009 0
M  V30 5250 H 535.21 -3.37262 1.70478 0
M  V30 5251 H 535.523 -6.59227 4.03286 0
M  V30 5252 H 533.868 -5.93223 3.62093 0
M  V30 5253 H 537.059 -4.13894 2.18654 0
M  V30 5254 H 537.232 -5.60724 3.24796 0
M  V30 5255 N 530.638 -0.59345 -1.46 0
M  V30 5256 C 531.886 -0.082988 -2.0193 0
M  V30 5257 C 532.207 1.28569 -1.46612 0
M  V30 5258 O 531.477 1.84629 -0.654909 0
M  V30 5259 H 530.057 -0.0276882 -0.746487 0
M  V30 5260 H 532.719 -0.771657 -1.78973 0
M  V30 5261 H 531.815 -0.022079 -3.12092 0
M  V30 5262 N 532.116 1.54067 -0.331816 0
M  V30 5263 C 533.532 1.59587 0.0205388 0
M  V30 5264 C 533.732 1.34813 1.49759 0
M  V30 5265 O 532.788 1.13661 2.25471 0
M  V30 5266 C 534.101 2.97959 -0.405103 0
M  V30 5267 C 535.649 3.10964 -0.356454 0
M  V30 5268 C 536.124 4.51694 -0.757384 0
M  V30 5269 N 537.615 4.57709 -0.71111 0
M  V30 5270 C 538.35 5.64729 -0.993427 0
M  V30 5271 N 537.846 6.79652 -1.3433 0
M  V30 5272 N 539.639 5.54546 -0.918442 0
M  V30 5273 H 531.79 1.68426 -1.29407 0
M  V30 5274 H 534.053 0.78819 -0.526745 0
M  V30 5275 H 533.759 3.21115 -1.43451 0
M  V30 5276 H 533.633 3.76524 0.225692 0
M  V30 5277 H 536.02 2.87538 0.663763 0
M  V30 5278 H 536.101 2.34484 -1.02229 0
M  V30 5279 H 535.745 4.75853 -1.77555 0
M  V30 5280 H 535.675 5.26555 -0.0691444 0
M  V30 5281 H 538.166 3.75176 -0.452883 0
M  V30 5282 H 538.479 7.57221 -1.54388 0
M  V30 5283 H 536.824 6.81128 -1.38164 0
M  V30 5284 H 540.015 4.63641 -0.644536 0
M  V30 5285 H 540.188 6.37861 -1.14181 0
M  V30 5286 N 533.594 0.0601682 1.57485 0
M  V30 5287 C 534.842 -0.610386 1.92662 0
M  V30 5288 C 535.163 -1.70849 0.939981 0
M  V30 5289 O 534.433 -1.95895 -0.0137455 0
M  V30 5290 H 533.013 -0.228457 0.711208 0
M  V30 5291 H 535.675 0.115288 1.94559 0
M  V30 5292 H 534.771 -1.0432 2.94149 0
M  V30 5293 N 535.072 -1.5615 -0.213296 0
M  V30 5294 C 536.488 -1.49327 -0.56336 0
M  V30 5295 C 536.688 -0.756826 -1.86747 0
M  V30 5296 O 535.744 -0.299866 -2.50713 0
M  V30 5297 C 537.057 -2.9392 -0.634944 0
M  V30 5298 C 538.605 -3.04487 -0.725013 0
M  V30 5299 C 539.08 -4.50456 -0.82787 0
M  V30 5300 N 540.571 -4.54533 -0.891876 0
M  V30 5301 C 541.306 -5.64766 -0.991315 0
M  V30 5302 N 540.802 -6.84733 -1.05419 0
M  V30 5303 N 542.595 -5.52637 -1.02709 0
M  V30 5304 H 534.746 -2.02453 0.642366 0
M  V30 5305 H 537.009 -0.920548 0.226487 0
M  V30 5306 H 536.715 -3.50783 0.253859 0
M  V30 5307 H 536.589 -3.46274 -1.49579 0
M  V30 5308 H 538.976 -2.47685 -1.60425 0
M  V30 5309 H 539.057 -2.55289 0.161669 0
M  V30 5310 H 538.701 -5.07878 0.0469464 0
M  V30 5311 H 538.631 -4.97369 -1.73009 0
M  V30 5312 H 541.122 -3.68141 -0.85327 0
M  V30 5313 H 541.435 -7.64493 -1.13007 0
M  V30 5314 H 539.78 -6.87427 -1.02318 0
M  V30 5315 H 542.971 -4.5784 -0.974687 0
M  V30 5316 H 543.144 -6.38576 -1.10113 0
M  V30 5317 N 536.55 0.480323 -1.50102 0
M  V30 5318 C 537.798 1.23063 -1.60312 0
M  V30 5319 C 538.119 1.92659 -0.301226 0
M  V30 5320 O 537.389 1.83691 0.680753 0
M  V30 5321 H 535.969 0.457231 -0.590719 0
M  V30 5322 H 538.631 0.554893 -1.86834 0
M  V30 5323 H 537.727 1.9835 -2.40964 0
M  V30 5324 N 538.028 1.39524 0.732853 0
M  V30 5325 C 538.96 1.34318 1.85718 0
M  V30 5326 C 539.973 0.251576 1.60844 0
M  V30 5327 O 541.162 0.510685 1.71039 0
M  V30 5328 C 538.262 1.06334 3.21786 0
M  V30 5329 C 537.435 2.26813 3.73998 0
M  V30 5330 C 536.494 1.95253 4.88634 0
M  V30 5331 O 535.52 2.67957 5.02183 0
M  V30 5332 N 536.722 0.919984 5.73164 0
M  V30 5333 H 539.487 2.3121 1.90688 0
M  V30 5334 H 537.048 1.33654 0.91368 0
M  V30 5335 H 539.04 0.832363 3.96048 0
M  V30 5336 H 537.61 0.181682 3.12072 0
M  V30 5337 H 536.83 2.65849 2.91064 0
M  V30 5338 H 538.118 3.0717 4.05616 0
M  V30 5339 H 537.516 0.317487 5.64808 0
M  V30 5340 H 536.073 0.748905 6.47483 0
M  V30 5341 N 539.506 -0.963266 1.24736 0
M  V30 5342 C 540.754 -1.70343 1.08755 0
M  V30 5343 C 541.075 -1.91387 -0.373619 0
M  V30 5344 O 540.345 -1.4948 -1.2662 0
M  V30 5345 H 538.925 -0.631224 0.399456 0
M  V30 5346 H 541.587 -1.15859 1.56725 0
M  V30 5347 H 540.683 -2.68616 1.58909 0
M  V30 5348 N 540.985 -1.06182 -1.16461 0
M  V30 5349 C 541.933 -0.665716 -2.2287 0
M  V30 5350 C 542.927 0.317822 -1.66392 0
M  V30 5351 O 544.133 0.182807 -1.79069 0
M  V30 5352 H 540.508 -0.197148 -0.725697 0
M  V30 5353 H 542.479 -1.57307 -2.53569 0
M  V30 5354 C 541.228 -0.0669803 -3.47635 0
M  V30 5355 H 540.551 -0.814899 -3.91407 0
M  V30 5356 H 541.991 0.172669 -4.23648 0
M  V30 5357 C 540.45 1.18913 -3.15216 0
M  V30 5358 O 540.98 2.27723 -3.30916 0
M  V30 5359 N 539.186 1.09066 -2.69357 0
M  V30 5360 H 538.733 0.20518 -2.56782 0
M  V30 5361 H 538.691 1.93195 -2.48039 0
M  V30 5362 N 542.463 1.3308 -0.844243 0
M  V30 5363 C 543.709 1.98304 -0.452453 0
M  V30 5364 C 544.064 1.65645 0.978746 0
M  V30 5365 O 543.357 0.928849 1.6758 0
M  V30 5366 C 543.551 3.52045 -0.616354 0
M  V30 5367 C 543.38 3.99643 -2.06193 0
M  V30 5368 C 542.15 4.27224 -2.69829 0
M  V30 5369 C 544.348 4.15471 -3.03131 0
M  V30 5370 N 542.33 4.60998 -4.05406 0
M  V30 5371 C 543.701 4.52665 -4.23668 0
M  V30 5372 C 545.756 3.97776 -2.99465 0
M  V30 5373 C 544.459 4.74011 -5.41023 0
M  V30 5374 C 546.485 4.20301 -4.16055 0
M  V30 5375 C 545.847 4.57801 -5.35348 0
M  V30 5376 H 541.946 0.752122 -0.214096 0
M  V30 5377 H 544.53 1.61096 -1.09344 0
M  V30 5378 H 542.701 3.884 -0.00513205 0
M  V30 5379 H 544.433 4.04228 -0.19548 0
M  V30 5380 H 541.188 4.18911 -2.20931 0
M  V30 5381 H 541.612 4.82087 -4.75312 0
M  V30 5382 H 546.254 3.67893 -2.08362 0
M  V30 5383 H 543.972 5.02753 -6.32665 0
M  V30 5384 H 547.558 4.08122 -4.14641 0
M  V30 5385 H 546.438 4.74884 -6.24063 0
M  V30 5386 N 543.941 0.601185 1.45683 0
M  V30 5387 C 544.889 -0.133955 2.32214 0
M  V30 5388 C 545.883 -0.866034 1.45589 0
M  V30 5389 O 547.089 -0.782326 1.6211 0
M  V30 5390 H 543.464 -0.0620613 0.749435 0
M  V30 5391 H 545.435 0.614389 2.92007 0
M  V30 5392 C 544.184 -1.12216 3.29094 0
M  V30 5393 H 543.507 -0.568273 3.95741 0
M  V30 5394 H 544.947 -1.60659 3.92383 0
M  V30 5395 C 543.406 -2.19251 2.55794 0
M  V30 5396 O 543.936 -3.26894 2.33459 0
M  V30 5397 N 542.142 -1.9436 2.16039 0
M  V30 5398 H 541.689 -1.06829 2.34404 0
M  V30 5399 H 541.647 -2.66181 1.67318 0
M  V30 5400 N 545.419 -1.53889 0.339982 0
M  V30 5401 C 546.352 -2.21187 -0.561405 0
M  V30 5402 C 547.33 -1.19463 -1.10306 0
M  V30 5403 O 548.514 -1.48268 -1.164 0
M  V30 5404 C 545.641 -2.8865 -1.77198 0
M  V30 5405 C 544.687 -4.04232 -1.3601 0
M  V30 5406 S 545.52 -5.34129 -0.382909 0
M  V30 5407 C 546.676 -6.05094 -1.60039 0
M  V30 5408 H 546.909 -2.97298 0.0102092 0
M  V30 5409 H 544.442 -1.53901 0.124056 0
M  V30 5410 H 546.4 -3.28138 -2.4665 0
M  V30 5411 H 545.061 -2.12311 -2.3148 0
M  V30 5412 H 544.254 -4.50358 -2.2626 0
M  V30 5413 H 543.856 -3.66503 -0.745098 0
M  V30 5414 H 546.148 -6.2827 -2.53541 0
M  V30 5415 H 547.091 -6.98182 -1.18099 0
M  V30 5416 H 547.499 -5.35207 -1.79483 0
M  V30 5417 N 546.897 -0.0685191 -1.57451 0
M  V30 5418 C 548.145 0.60016 -1.92983 0
M  V30 5419 C 548.466 1.70348 -0.949028 0
M  V30 5420 O 547.736 1.959 0.00335647 0
M  V30 5421 H 546.316 0.224682 -0.712409 0
M  V30 5422 H 548.978 -0.125605 -1.94495 0
M  V30 5423 H 548.074 1.02759 -2.94698 0
M  V30 5424 N 548.375 1.56261 0.205012 0
M  V30 5425 C 549.786 1.70056 0.770574 0
M  V30 5426 C 550.137 0.673398 1.84282 0
M  V30 5427 O 549.262 -0.172196 2.15714 0
M  V30 5428 C 549.857 3.08316 1.40451 0
M  V30 5429 C 548.416 3.2391 1.91727 0
M  V30 5430 C 547.563 2.66001 0.783516 0
M  V30 5431 H 550.514 1.58688 -0.019911 0
M  V30 5432 H 550.535 3.05094 2.27371 0
M  V30 5433 H 550.047 3.83053 0.623882 0
M  V30 5434 H 548.148 2.54072 2.7254 0
M  V30 5435 H 548.261 4.3131 2.08588 0
M  V30 5436 H 546.625 2.24915 1.19521 0
M  V30 5437 H 547.408 3.43297 0.0152883 0
M  V30 5438 N 549.853 -0.472356 1.50355 0
M  V30 5439 C 551.264 -1.05326 1.54154 0
M  V30 5440 C 551.615 -1.93155 0.344303 0
M  V30 5441 O 550.74 -2.09479 -0.542928 0
M  V30 5442 C 551.335 -1.91691 2.79356 0
M  V30 5443 C 549.894 -2.44892 2.8584 0
M  V30 5444 C 549.041 -1.23205 2.48426 0
M  V30 5445 H 551.992 -0.255027 1.56637 0
M  V30 5446 H 552.013 -2.76742 2.6114 0
M  V30 5447 H 551.525 -1.27741 3.66475 0
M  V30 5448 H 549.626 -3.12399 2.0307 0
M  V30 5449 H 549.739 -2.80086 3.88701 0
M  V30 5450 H 548.103 -1.56643 2.00836 0
M  V30 5451 H 548.886 -0.609194 3.37852 0
M  V30 5452 N 551.331 -1.39911 -0.725443 0
M  V30 5453 C 552.579 -1.37382 -1.48224 0
M  V30 5454 C 552.9 0.0264107 -1.94982 0
M  V30 5455 O 552.17 0.979408 -1.6966 0
M  V30 5456 H 550.75 -0.505596 -0.549892 0
M  V30 5457 H 553.412 -1.7487 -0.860608 0
M  V30 5458 H 552.508 -2.04254 -2.3598 0
M  V30 5459 N 552.809 0.956637 -1.25245 0
M  V30 5460 C 554.057 1.69764 -1.09657 0
M  V30 5461 C 554.378 1.91583 0.363464 0
M  V30 5462 O 553.648 1.50149 1.25825 0
M  V30 5463 H 552.228 0.629097 -0.402798 0
M  V30 5464 H 554.89 1.15026 -1.57337 0
M  V30 5465 H 553.986 2.67769 -1.60331 0
M  V30 5466 N 554.287 1.06798 1.15896 0
M  V30 5467 C 555.217 0.704677 2.22613 0
M  V30 5468 C 556.198 -0.305252 1.67339 0
M  V30 5469 O 557.383 -0.179247 1.93371 0
M  V30 5470 C 554.513 0.0957325 3.47168 0
M  V30 5471 C 553.467 1.0322 4.15367 0
M  V30 5472 C 552.793 0.286293 5.33933 0
M  V30 5473 C 554.093 2.36341 4.65768 0
M  V30 5474 H 555.787 1.59688 2.53259 0
M  V30 5475 H 553.333 0.769257 1.21731 0
M  V30 5476 H 555.286 -0.170333 4.21056 0
M  V30 5477 H 554.01 -0.831516 3.15838 0
M  V30 5478 H 552.669 1.28309 3.43413 0
M  V30 5479 H 552.317 -0.644237 4.98857 0
M  V30 5480 H 552.017 0.910436 5.80504 0
M  V30 5481 H 553.541 0.0278938 6.10594 0
M  V30 5482 H 554.955 2.1561 5.31211 0
M  V30 5483 H 553.352 2.94299 5.2298 0
M  V30 5484 H 554.422 2.99047 3.81705 0
M  V30 5485 N 555.766 -1.3263 0.851289 0
M  V30 5486 C 556.698 -2.27824 0.250757 0
M  V30 5487 C 557.711 -1.52285 -0.575598 0
M  V30 5488 O 558.9 -1.73946 -0.400638 0
M  V30 5489 C 556 -3.3232 -0.664571 0
M  V30 5490 C 555.173 -4.37221 0.125187 0
M  V30 5491 C 554.232 -5.21314 -0.715385 0
M  V30 5492 O 553.258 -5.69002 -0.150111 0
M  V30 5493 N 554.46 -5.43823 -2.03069 0
M  V30 5494 H 557.225 -2.79997 1.06873 0
M  V30 5495 H 554.786 -1.45455 0.710943 0
M  V30 5496 H 556.778 -3.85486 -1.23216 0
M  V30 5497 H 555.348 -2.80331 -1.38323 0
M  V30 5498 H 554.568 -3.84384 0.874199 0
M  V30 5499 H 555.856 -5.04399 0.667774 0
M  V30 5500 H 555.254 -5.06803 -2.51332 0
M  V30 5501 H 553.811 -5.99998 -2.54648 0
M  V30 5502 N 557.244 -0.608902 -1.45362 0
M  V30 5503 C 558.154 0.110969 -2.34337 0
M  V30 5504 C 559.17 0.859007 -1.51318 0
M  V30 5505 O 560.346 0.816296 -1.84116 0
M  V30 5506 C 557.411 1.09494 -3.28956 0
M  V30 5507 C 556.472 0.348718 -4.27881 0
M  V30 5508 C 555.705 1.28582 -5.17979 0
M  V30 5509 O 555.928 2.52369 -5.11533 0
M  V30 5510 O 554.862 0.782172 -5.96796 0
M  V30 5511 H 558.688 -0.620258 -2.97299 0
M  V30 5512 H 556.273 -0.36916 -1.44767 0
M  V30 5513 H 558.155 1.66163 -3.87257 0
M  V30 5514 H 556.83 1.80717 -2.68557 0
M  V30 5515 H 555.737 -0.260465 -3.73192 0
M  V30 5516 H 557.07 -0.323049 -4.91139 0
M  V30 5517 N 558.722 1.53707 -0.348139 0
M  V30 5518 C 559.969 2.00988 0.246966 0
M  V30 5519 C 560.297 1.23586 1.50189 0
M  V30 5520 O 559.552 0.312817 1.93184 0
M  V30 5521 C 559.851 3.52292 0.602061 0
M  V30 5522 C 559.517 4.47453 -0.556509 0
M  V30 5523 C 558.179 4.73188 -0.874446 0
M  V30 5524 C 560.531 5.03851 -1.33354 0
M  V30 5525 C 557.859 5.52577 -1.9717 0
M  V30 5526 C 560.211 5.84437 -2.42108 0
M  V30 5527 C 558.875 6.08465 -2.74456 0
M  V30 5528 H 558.145 0.735469 0.0903712 0
M  V30 5529 H 560.792 1.85464 -0.477001 0
M  V30 5530 H 559.097 3.65672 1.40681 0
M  V30 5531 H 560.794 3.86337 1.07447 0
M  V30 5532 H 557.384 4.27558 -0.298652 0
M  V30 5533 H 561.568 4.8393 -1.10117 0
M  V30 5534 H 556.824 5.69418 -2.22651 0
M  V30 5535 H 560.998 6.27151 -3.02745 0
M  V30 5536 H 558.625 6.69768 -3.59604 0
M  V30 5537 N 560.2 0.0768682 1.57412 0
M  V30 5538 C 561.148 -0.906229 2.1422 0
M  V30 5539 C 562.142 -1.30477 1.08037 0
M  V30 5540 O 563.348 -1.28143 1.2641 0
M  V30 5541 H 559.723 -0.310207 0.685037 0
M  V30 5542 H 561.694 -0.402228 2.95677 0
M  V30 5543 C 560.443 -2.16245 2.72274 0
M  V30 5544 H 559.766 -1.86463 3.53655 0
M  V30 5545 H 561.206 -2.83134 3.15613 0
M  V30 5546 C 559.665 -2.92437 1.67279 0
M  V30 5547 O 560.195 -3.86322 1.10081 0
M  V30 5548 N 558.401 -2.55637 1.38195 0
M  V30 5549 H 557.948 -1.79363 1.84897 0
M  V30 5550 H 557.906 -3.06919 0.681787 0
M  V30 5551 N 561.678 -1.56367 -0.196722 0
M  V30 5552 C 562.925 -1.80529 -0.917366 0
M  V30 5553 C 563.253 -0.649817 -1.83324 0
M  V30 5554 O 562.508 0.36451 -1.92275 0
M  V30 5555 C 562.807 -3.10663 -1.767 0
M  V30 5556 C 562.473 -4.3962 -1.00225 0
M  V30 5557 C 561.135 -4.74653 -0.791095 0
M  V30 5558 C 563.487 -5.1913 -0.464035 0
M  V30 5559 C 560.815 -5.86692 -0.0302155 0
M  V30 5560 C 563.167 -6.31964 0.283625 0
M  V30 5561 C 561.831 -6.65581 0.505813 0
M  V30 5562 H 561.101 -0.660602 -0.335688 0
M  V30 5563 H 563.748 -1.90615 -0.183844 0
M  V30 5564 H 562.053 -2.95807 -2.56915 0
M  V30 5565 H 563.75 -3.26563 -2.32718 0
M  V30 5566 H 560.34 -4.12127 -1.17684 0
M  V30 5567 H 564.524 -4.9248 -0.614575 0
M  V30 5568 H 559.78 -6.11211 0.151917 0
M  V30 5569 H 563.954 -6.92791 0.708057 0
M  V30 5570 H 561.581 -7.52239 1.0973 0
M  V30 5571 N 563.156 0.464375 -1.50603 0
M  V30 5572 C 564.405 1.21277 -1.61167 0
M  V30 5573 C 564.718 1.92953 -0.320704 0
M  V30 5574 O 565.924 2.69778 -0.30534 0
M  V30 5575 C 564.38 2.20403 -2.84518 0
M  V30 5576 C 563.988 1.54499 -4.20516 0
M  V30 5577 C 565.732 2.95843 -3.0443 0
M  V30 5578 C 563.639 2.51951 -5.35047 0
M  V30 5579 H 562.569 0.456367 -0.600204 0
M  V30 5580 H 565.22 0.48254 -1.77042 0
M  V30 5581 H 563.602 2.96746 -2.62217 0
M  V30 5582 H 564.776 0.83899 -4.53098 0
M  V30 5583 H 563.091 0.913152 -4.06264 0
M  V30 5584 H 565.688 3.6879 -3.87167 0
M  V30 5585 H 566.031 3.55622 -2.16423 0
M  V30 5586 H 566.564 2.26611 -3.26944 0
M  V30 5587 H 563.303 1.96901 -6.25228 0
M  V30 5588 H 562.823 3.20683 -5.06875 0
M  V30 5589 H 564.502 3.13643 -5.65895 0
M  V30 5590 N 564.634 1.40294 0.718013 0
M  V30 5591 C 565.88 1.38645 1.48005 0
M  V30 5592 C 566.213 -0.0121202 1.94196 0
M  V30 5593 O 565.488 -0.980309 1.67989 0
M  V30 5594 C 565.771 2.37379 2.70782 0
M  V30 5595 C 565.624 3.8625 2.30501 0
M  V30 5596 C 566.943 2.33685 3.72933 0
M  V30 5597 H 564.062 0.504928 0.536858 0
M  V30 5598 H 566.704 1.71411 0.819649 0
M  V30 5599 H 564.854 2.09568 3.27129 0
M  V30 5600 H 566.526 4.24879 1.79655 0
M  V30 5601 H 564.769 4.02202 1.6253 0
M  V30 5602 H 565.44 4.50847 3.18498 0
M  V30 5603 H 567.916 2.58314 3.2621 0
M  V30 5604 H 566.792 3.0482 4.56482 0
M  V30 5605 H 567.053 1.34765 4.21059 0
M  V30 5606 N 566.112 -0.949982 1.2575 0
M  V30 5607 C 567.523 -1.50989 1.09815 0
M  V30 5608 C 567.874 -1.93497 -0.324556 0
M  V30 5609 O 566.999 -1.79068 -1.21506 0
M  V30 5610 C 567.594 -2.74394 1.98729 0
M  V30 5611 C 566.153 -3.26682 1.86965 0
M  V30 5612 C 565.3 -1.99498 1.92603 0
M  V30 5613 H 568.251 -0.766387 1.38968 0
M  V30 5614 H 568.272 -3.48383 1.53001 0
M  V30 5615 H 567.784 -2.43425 3.02268 0
M  V30 5616 H 565.885 -3.62461 0.863279 0
M  V30 5617 H 565.998 -3.94383 2.72027 0
M  V30 5618 H 564.362 -2.15005 1.36546 0
M  V30 5619 H 565.145 -1.70871 2.97755 0
M  V30 5620 N 567.59 -1.07411 -1.15328 0
M  V30 5621 C 568.818 -0.818782 -1.90009 0
M  V30 5622 C 569.233 0.628072 -1.78047 0
M  V30 5623 O 568.59 1.43085 -1.13282 0
M  V30 5624 C 568.641 -1.21874 -3.40337 0
M  V30 5625 O 568.362 -2.60883 -3.51954 0
M  V30 5626 C 569.863 -0.992796 -4.3204 0
M  V30 5627 H 567.083 -0.296007 -0.60218 0
M  V30 5628 H 569.627 -1.43073 -1.46117 0
M  V30 5629 H 567.782 -0.651103 -3.81889 0
M  V30 5630 H 568.196 -2.77216 -4.45255 0
M  V30 5631 H 569.67 -1.32215 -5.35932 0
M  V30 5632 H 570.147 0.0708331 -4.39143 0
M  V30 5633 H 570.753 -1.54537 -3.9623 0
M  V30 5634 N 569.068 1.32177 -0.85831 0
M  V30 5635 C 570.316 1.96735 -0.462568 0
M  V30 5636 C 570.637 1.6824 0.985911 0
M  V30 5637 O 569.907 0.991564 1.68952 0
M  V30 5638 H 568.487 0.727849 -0.168064 0
M  V30 5639 H 571.149 1.61195 -1.09554 0
M  V30 5640 H 570.245 3.06068 -0.610647 0
M  V30 5641 N 570.547 0.616602 1.45037 0
M  V30 5642 C 571.494 -0.0969439 2.30596 0
M  V30 5643 C 572.464 -0.851151 1.42635 0
M  V30 5644 O 573.649 -0.835092 1.71554 0
M  V30 5645 C 570.789 -1.08234 3.27688 0
M  V30 5646 C 569.902 -0.328072 4.30752 0
M  V30 5647 C 569.037 -1.30399 5.14946 0
M  V30 5648 C 568.076 -0.538049 6.09731 0
M  V30 5649 N 567.213 -1.46371 6.86673 0
M  V30 5650 H 572.053 0.63864 2.91076 0
M  V30 5651 H 569.59 0.326733 1.43425 0
M  V30 5652 H 571.548 -1.66688 3.82454 0
M  V30 5653 H 570.178 -1.78523 2.68941 0
M  V30 5654 H 569.23 0.372136 3.78575 0
M  V30 5655 H 570.542 0.269142 4.98073 0
M  V30 5656 H 569.696 -1.96032 5.74157 0
M  V30 5657 H 568.435 -1.93514 4.47665 0
M  V30 5658 H 567.44 0.131852 5.49642 0
M  V30 5659 H 568.665 0.0881732 6.79043 0
M  V30 5660 H 566.611 -2.08233 6.22073 0
M  V30 5661 H 566.528 -0.920152 7.50379 0
M  V30 5662 H 567.796 -2.10932 7.50418 0
M  V30 5663 N 572.025 -1.5352 0.356285 0
M  V30 5664 C 573.253 -2.05534 -0.237328 0
M  V30 5665 C 573.668 -1.23043 -1.43199 0
M  V30 5666 O 573.025 -0.268821 -1.80509 0
M  V30 5667 C 573.076 -3.55791 -0.639933 0
M  V30 5668 O 572.797 -4.35154 0.507233 0
M  V30 5669 C 574.298 -4.24027 -1.29292 0
M  V30 5670 H 571.518 -0.669585 -0.0435572 0
M  V30 5671 H 574.062 -1.97988 0.511963 0
M  V30 5672 H 572.217 -3.63518 -1.33915 0
M  V30 5673 H 572.631 -5.24178 0.18375 0
M  V30 5674 H 574.105 -5.30509 -1.52527 0
M  V30 5675 H 574.582 -3.77166 -2.25039 0
M  V30 5676 H 575.188 -4.20527 -0.63539 0
M  V30 5677 N 573.503 -0.0852151 -1.57369 0
M  V30 5678 C 574.751 0.579658 -1.93609 0
M  V30 5679 C 575.072 1.69332 -0.967043 0
M  V30 5680 O 574.342 1.95892 -0.0174215 0
M  V30 5681 H 572.922 0.217113 -0.714752 0
M  V30 5682 H 575.584 -0.146226 -1.94351 0
M  V30 5683 H 574.68 0.996276 -2.95771 0
M  V30 5684 N 574.981 1.5647 0.188427 0
M  V30 5685 C 575.911 1.98101 1.23606 0
M  V30 5686 C 576.892 0.853961 1.47111 0
M  V30 5687 O 578.077 1.11879 1.58735 0
M  V30 5688 C 575.207 2.32624 2.57882 0
M  V30 5689 C 574.161 3.48129 2.48978 0
M  V30 5690 C 573.487 3.68347 3.87588 0
M  V30 5691 C 574.787 4.82112 2.00911 0
M  V30 5692 H 576.481 2.85864 0.890068 0
M  V30 5693 H 574.027 1.37532 0.426714 0
M  V30 5694 H 575.98 2.60343 3.3136 0
M  V30 5695 H 574.704 1.41751 2.94235 0
M  V30 5696 H 573.363 3.20511 1.77956 0
M  V30 5697 H 573.011 2.74793 4.21305 0
M  V30 5698 H 572.711 4.46055 3.82503 0
M  V30 5699 H 574.235 3.98449 4.62678 0
M  V30 5700 H 575.649 5.08819 2.64151 0
M  V30 5701 H 574.046 5.63337 2.06814 0
M  V30 5702 H 575.116 4.75249 0.96262 0
M  V30 5703 N 576.459 -0.456382 1.50847 0
M  V30 5704 C 577.708 -1.2042 1.61808 0
M  V30 5705 C 578.021 -1.9278 0.330932 0
M  V30 5706 O 579.227 -2.69612 0.319643 0
M  V30 5707 C 577.683 -2.18891 2.85683 0
M  V30 5708 C 577.291 -1.52267 4.2133 0
M  V30 5709 C 579.035 -2.94224 3.05994 0
M  V30 5710 C 576.942 -2.4911 5.36375 0
M  V30 5711 H 575.872 -0.453177 0.602616 0
M  V30 5712 H 578.523 -0.473144 1.77295 0
M  V30 5713 H 576.905 -2.95351 2.63787 0
M  V30 5714 H 578.079 -0.814949 4.53536 0
M  V30 5715 H 576.394 -0.891594 4.06743 0
M  V30 5716 H 578.991 -3.66732 3.89117 0
M  V30 5717 H 579.334 -3.54469 2.18306 0
M  V30 5718 H 579.867 -2.24874 3.28141 0
M  V30 5719 H 576.606 -1.93582 6.26264 0
M  V30 5720 H 576.126 -3.17991 5.08569 0
M  V30 5721 H 577.805 -3.10637 5.67551 0
M  V30 5722 N 577.937 -1.40673 -0.710563 0
M  V30 5723 C 579.186 -1.38525 -1.46607 0
M  V30 5724 C 579.499 0.0077024 -1.95598 0
M  V30 5725 O 580.705 0.151792 -2.71075 0
M  V30 5726 C 579.161 -2.43489 -2.6503 0
M  V30 5727 C 578.769 -3.88619 -2.22888 0
M  V30 5728 C 580.513 -2.50456 -3.42742 0
M  V30 5729 C 578.42 -4.85168 -3.3818 0
M  V30 5730 H 577.35 -0.515092 -0.550632 0
M  V30 5731 H 580.001 -1.66431 -0.772846 0
M  V30 5732 H 578.383 -2.0869 -3.36548 0
M  V30 5733 H 579.557 -4.32588 -1.58758 0
M  V30 5734 H 577.872 -3.85174 -1.58208 0
M  V30 5735 H 580.469 -3.19776 -4.28541 0
M  V30 5736 H 580.812 -1.53665 -3.86902 0
M  V30 5737 H 581.345 -2.84271 -2.78271 0
M  V30 5738 H 578.084 -5.8331 -2.99047 0
M  V30 5739 H 577.604 -4.4586 -4.01209 0
M  V30 5740 H 579.283 -5.05225 -4.04174 0
M  V30 5741 N 579.415 0.9433 -1.26252 0
M  V30 5742 C 580.663 1.68592 -1.11451 0
M  V30 5743 C 580.984 1.91957 0.343123 0
M  V30 5744 O 580.254 1.51475 1.24226 0
M  V30 5745 H 578.834 0.624789 -0.409448 0
M  V30 5746 H 581.496 1.13351 -1.58548 0
M  V30 5747 H 580.592 2.66054 -1.63162 0
M  V30 5748 N 580.893 1.08022 1.14757 0
M  V30 5749 C 581.84 0.706657 2.19716 0
M  V30 5750 C 582.81 -0.30525 1.63271 0
M  V30 5751 O 583.995 -0.19015 1.8985 0
M  V30 5752 C 581.135 0.117914 3.44898 0
M  V30 5753 C 580.248 1.18212 4.15512 0
M  V30 5754 C 579.383 0.557659 5.28265 0
M  V30 5755 C 578.422 1.60418 5.90705 0
M  V30 5756 N 577.559 1.0018 6.94916 0
M  V30 5757 H 582.399 1.60603 2.51019 0
M  V30 5758 H 579.936 0.802664 1.23271 0
M  V30 5759 H 581.894 -0.241112 4.16503 0
M  V30 5760 H 580.524 -0.744788 3.1409 0
M  V30 5761 H 579.576 1.65863 3.42335 0
M  V30 5762 H 580.888 1.97533 4.5802 0
M  V30 5763 H 580.042 0.146654 6.06523 0
M  V30 5764 H 578.781 -0.267249 4.86967 0
M  V30 5765 H 577.786 2.02489 5.11154 0
M  V30 5766 H 579.011 2.43149 6.34078 0
M  V30 5767 H 576.957 0.197917 6.55701 0
M  V30 5768 H 576.874 1.73216 7.35889 0
M  V30 5769 H 578.142 0.616523 7.77058 0
M  V30 5770 N 582.371 -1.3172 0.865308 0
M  V30 5771 C 583.619 -1.96487 0.472995 0
M  V30 5772 C 583.94 -1.68761 -0.976975 0
M  V30 5773 O 583.21 -1.00051 -1.68424 0
M  V30 5774 H 581.79 -0.726947 0.171922 0
M  V30 5775 H 584.452 -1.60612 1.10407 0
M  V30 5776 H 583.548 -3.0574 0.62687 0
M  V30 5777 N 583.85 -0.624285 -1.44708 0
M  V30 5778 C 585.098 -0.125802 -2.01708 0
M  V30 5779 C 585.418 1.2543 -1.49306 0
M  V30 5780 O 584.689 1.83198 -0.693924 0
M  V30 5781 H 583.269 -0.0435161 -0.745731 0
M  V30 5782 H 585.931 -0.809446 -1.77296 0
M  V30 5783 H 585.027 -0.0882734 -3.11975 0
M  V30 5784 N 585.328 1.53329 -0.364422 0
M  V30 5785 C 586.238 2.29414 0.490552 0
M  V30 5786 C 587.254 1.35335 1.09363 0
M  V30 5787 O 588.43 1.68391 1.10483 0
M  V30 5788 C 585.495 3.06772 1.61529 0
M  V30 5789 C 584.556 4.16516 1.03986 0
M  V30 5790 C 583.789 4.90176 2.111 0
M  V30 5791 O 584.012 4.63687 3.32191 0
M  V30 5792 O 582.946 5.76134 1.74222 0
M  V30 5793 H 586.772 3.03428 -0.12856 0
M  V30 5794 H 584.357 1.48843 -0.128837 0
M  V30 5795 H 586.239 3.55082 2.26924 0
M  V30 5796 H 584.914 2.35596 2.21983 0
M  V30 5797 H 583.821 3.7246 0.349856 0
M  V30 5798 H 585.154 4.89855 0.4799 0
M  V30 5799 N 586.806 0.0935595 1.57322 0
M  V30 5800 C 588.034 -0.578934 1.98635 0
M  V30 5801 C 588.449 -1.61819 0.972626 0
M  V30 5802 O 587.806 -1.82461 -0.0379638 0
M  V30 5803 C 587.857 -1.22802 3.40003 0
M  V30 5804 O 587.578 -0.230334 4.37494 0
M  V30 5805 C 589.079 -1.98627 3.96311 0
M  V30 5806 H 586.299 -0.155324 0.652775 0
M  V30 5807 H 588.843 0.172393 2.03772 0
M  V30 5808 H 586.998 -1.93029 3.35885 0
M  V30 5809 H 587.412 -0.698649 5.19826 0
M  V30 5810 H 588.886 -2.39405 4.97382 0
M  V30 5811 H 589.363 -2.85151 3.34044 0
M  V30 5812 H 589.969 -1.3322 4.03897 0
M  V30 5813 N 588.284 -1.56567 -0.180126 0
M  V30 5814 C 589.533 -1.80685 -0.896426 0
M  V30 5815 C 589.846 -0.669335 -1.83791 0
M  V30 5816 O 591.052 -0.795209 -2.59593 0
M  V30 5817 C 589.508 -3.20132 -1.6445 0
M  V30 5818 C 589.116 -4.41727 -0.747088 0
M  V30 5819 C 590.86 -3.53549 -2.34955 0
M  V30 5820 C 588.767 -5.72195 -1.49489 0
M  V30 5821 H 587.697 -0.673758 -0.338477 0
M  V30 5822 H 590.348 -1.8289 -0.149467 0
M  V30 5823 H 588.73 -3.12218 -2.43589 0
M  V30 5824 H 589.904 -4.608 0.00671129 0
M  V30 5825 H 588.219 -4.16122 -0.152134 0
M  V30 5826 H 590.816 -4.48267 -2.91481 0
M  V30 5827 H 591.159 -2.78006 -3.09868 0
M  V30 5828 H 591.692 -3.62976 -1.62768 0
M  V30 5829 H 588.431 -6.50743 -0.788251 0
M  V30 5830 H 587.951 -5.57115 -2.22224 0
M  V30 5831 H 589.63 -6.1384 -2.04472 0
M  V30 5832 N 589.762 0.448376 -1.51087 0
M  V30 5833 C 590.709 1.54341 -1.71603 0
M  V30 5834 C 591.679 1.56463 -0.557536 0
M  V30 5835 O 592.864 1.73644 -0.79072 0
M  V30 5836 C 590.004 2.92148 -1.83695 0
M  V30 5837 C 589.117 2.99639 -3.11192 0
M  V30 5838 C 588.252 4.285 -3.13944 0
M  V30 5839 C 587.291 4.29819 -4.35801 0
M  V30 5840 N 586.428 5.50186 -4.36164 0
M  V30 5841 H 591.268 1.36151 -2.65079 0
M  V30 5842 H 588.805 0.661585 -1.31383 0
M  V30 5843 H 590.763 3.72093 -1.88687 0
M  V30 5844 H 589.393 3.0892 -0.936374 0
M  V30 5845 H 588.445 2.12425 -3.15562 0
M  V30 5846 H 589.757 2.96474 -4.01129 0
M  V30 5847 H 588.911 5.16811 -3.17791 0
M  V30 5848 H 587.65 4.34307 -2.21876 0
M  V30 5849 H 586.655 3.39902 -4.32142 0
M  V30 5850 H 587.88 4.25685 -5.29121 0
M  V30 5851 H 585.826 5.56735 -3.46961 0
M  V30 5852 H 585.743 5.48856 -5.19897 0
M  V30 5853 H 587.011 6.40559 -4.44189 0
M  V30 5854 N 591.24 1.41047 0.703093 0
M  V30 5855 C 592.465 1.43537 1.49706 0
M  V30 5856 C 592.89 0.0401853 1.88057 0
M  V30 5857 O 592.248 -0.954785 1.54122 0
M  V30 5858 C 592.296 2.3433 2.74084 0
M  V30 5859 O 591.4 1.79515 3.71279 0
M  V30 5860 H 590.741 0.487454 0.450871 0
M  V30 5861 H 593.271 1.85422 0.86486 0
M  V30 5862 H 593.281 2.49947 3.22476 0
M  V30 5863 H 591.956 3.35708 2.45506 0
M  V30 5864 H 590.533 1.7331 3.30179 0
M  V30 5865 N 592.718 -0.936591 1.26751 0
M  V30 5866 C 593.967 -1.67778 1.11953 0
M  V30 5867 C 594.28 -1.92694 -0.33589 0
M  V30 5868 O 595.486 -2.64682 -0.604618 0
M  V30 5869 C 593.942 -3.02138 1.95551 0
M  V30 5870 C 593.55 -2.84953 3.45696 0
M  V30 5871 C 595.294 -3.79917 1.89377 0
M  V30 5872 C 593.201 -4.14814 4.21525 0
M  V30 5873 H 592.131 -0.629275 0.415366 0
M  V30 5874 H 594.782 -1.04122 1.51099 0
M  V30 5875 H 593.164 -3.668 1.49243 0
M  V30 5876 H 594.338 -2.29112 3.99805 0
M  V30 5877 H 592.653 -2.20612 3.53156 0
M  V30 5878 H 595.25 -4.76134 2.43312 0
M  V30 5879 H 595.593 -4.07204 0.865464 0
M  V30 5880 H 596.126 -3.22037 2.33532 0
M  V30 5881 H 592.865 -3.92709 5.24843 0
M  V30 5882 H 592.385 -4.70352 3.72195 0
M  V30 5883 H 594.064 -4.83239 4.3022 0
M  V30 5884 N 594.196 -1.08629 -1.14182 0
M  V30 5885 C 595.421 -0.83902 -1.89671 0
M  V30 5886 C 595.846 0.603332 -1.78161 0
M  V30 5887 O 595.204 1.42301 -1.12339 0
M  V30 5888 C 595.252 -1.26854 -3.37551 0
M  V30 5889 O 594.356 -0.42188 -4.10236 0
M  V30 5890 H 593.697 -0.304545 -0.590041 0
M  V30 5891 H 596.227 -1.4483 -1.44518 0
M  V30 5892 H 596.237 -1.25038 -3.88368 0
M  V30 5893 H 594.912 -2.31901 -3.45246 0
M  V30 5894 H 593.489 -0.503654 -3.69483 0
M  V30 5895 N 595.674 1.31259 -0.872281 0
M  V30 5896 C 596.606 2.27396 -0.28697 0
M  V30 5897 C 597.619 1.53181 0.551297 0
M  V30 5898 O 598.808 1.74561 0.372914 0
M  V30 5899 C 595.908 3.33335 0.611617 0
M  V30 5900 C 595.081 4.36966 -0.194729 0
M  V30 5901 C 594.14 5.22387 0.632358 0
M  V30 5902 O 593.166 5.69169 0.0595691 0
M  V30 5903 N 594.368 5.46985 1.94391 0
M  V30 5904 H 597.133 2.78261 -1.11314 0
M  V30 5905 H 594.694 1.44306 -0.733994 0
M  V30 5906 H 596.686 3.87398 1.17068 0
M  V30 5907 H 595.256 2.82496 1.33846 0
M  V30 5908 H 594.476 3.82945 -0.935241 0
M  V30 5909 H 595.764 5.03273 -0.747935 0
M  V30 5910 H 595.162 5.10737 2.43237 0
M  V30 5911 H 593.719 6.03973 2.45071 0
M  V30 5912 N 597.152 0.631951 1.44375 0
M  V30 5913 C 598.084 -0.110911 2.28931 0
M  V30 5914 C 599.097 -0.808086 1.41329 0
M  V30 5915 O 600.286 -0.669396 1.65473 0
M  V30 5916 C 597.386 -1.17928 3.1772 0
M  V30 5917 C 596.559 -0.564458 4.33743 0
M  V30 5918 C 595.618 -1.5269 5.0356 0
M  V30 5919 O 594.644 -1.04372 5.59549 0
M  V30 5920 N 595.846 -2.86123 5.05088 0
M  V30 5921 H 598.611 0.614758 2.93327 0
M  V30 5922 H 596.172 0.473171 1.54831 0
M  V30 5923 H 598.164 -1.82348 3.61291 0
M  V30 5924 H 596.734 -1.80717 2.55069 0
M  V30 5925 H 595.954 0.258373 3.93352 0
M  V30 5926 H 597.242 -0.134355 5.08623 0
M  V30 5927 H 596.64 -3.27959 4.60933 0
M  V30 5928 H 595.197 -3.45901 5.52445 0
M  V30 5929 N 598.631 -1.53133 0.372548 0
M  V30 5930 C 599.856 -2.0625 -0.218098 0
M  V30 5931 C 600.281 -1.24375 -1.41111 0
M  V30 5932 O 599.639 -0.264554 -1.79359 0
M  V30 5933 C 599.687 -3.55858 -0.582876 0
M  V30 5934 O 598.791 -3.76667 -1.67917 0
M  V30 5935 H 598.132 -0.663317 -0.030104 0
M  V30 5936 H 600.662 -1.97477 0.535169 0
M  V30 5937 H 600.672 -3.99007 -0.851925 0
M  V30 5938 H 599.347 -4.14892 0.289428 0
M  V30 5939 H 597.924 -3.45413 -1.40513 0
M  V30 5940 N 600.109 -0.101901 -1.5727 0
M  V30 5941 C 601.357 0.559091 -1.94213 0
M  V30 5942 C 601.678 1.68297 -0.984948 0
M  V30 5943 O 600.948 1.95863 -0.0381975 0
M  V30 5944 H 599.528 0.20952 -0.717015 0
M  V30 5945 H 602.19 -0.166831 -1.94185 0
M  V30 5946 H 601.286 0.96485 -2.96811 0
M  V30 5947 N 601.587 1.56661 0.17182 0
M  V30 5948 C 602.55 1.9549 1.19651 0
M  V30 5949 C 603.55 0.838501 1.37207 0
M  V30 5950 O 604.74 1.10556 1.34622 0
M  V30 5951 C 601.872 2.24927 2.56166 0
M  V30 5952 H 603.065 2.87184 0.864007 0
M  V30 5953 H 600.618 1.50711 0.41425 0
M  V30 5954 H 601.353 1.35944 2.94431 0
M  V30 5955 H 601.138 3.06301 2.4479 0
M  V30 5956 H 602.628 2.55891 3.30014 0
M  V30 5957 N 603.065 -0.440357 1.51323 0
M  V30 5958 C 604.481 -0.7766 1.39431 0
M  V30 5959 C 604.681 -1.95838 0.474296 0
M  V30 5960 O 603.737 -2.52398 -0.0716692 0
M  V30 5961 C 605.05 -1.05981 2.81405 0
M  V30 5962 C 606.598 -1.16442 2.90534 0
M  V30 5963 C 607.073 -1.48058 4.33408 0
M  V30 5964 N 608.564 -1.54988 4.36501 0
M  V30 5965 C 609.299 -1.81017 5.44078 0
M  V30 5966 N 608.795 -2.04858 6.61819 0
M  V30 5967 N 610.588 -1.82774 5.31554 0
M  V30 5968 H 602.739 0.338006 2.09693 0
M  V30 5969 H 605.002 0.0888072 0.943831 0
M  V30 5970 H 604.708 -0.264173 3.50706 0
M  V30 5971 H 604.582 -1.98822 3.20546 0
M  V30 5972 H 606.969 -1.95068 2.21432 0
M  V30 5973 H 607.05 -0.215088 2.54894 0
M  V30 5974 H 606.694 -0.699605 5.03059 0
M  V30 5975 H 606.624 -2.44192 4.66559 0
M  V30 5976 H 609.115 -1.38479 3.51613 0
M  V30 5977 H 609.428 -2.2408 7.396 0
M  V30 5978 H 607.773 -2.02187 6.6494 0
M  V30 5979 H 610.964 -1.63665 4.38556 0
M  V30 5980 H 611.137 -2.02722 6.15474 0
M  V30 5981 N 604.543 -1.41418 -0.695603 0
M  V30 5982 C 605.792 -1.40073 -1.4513 0
M  V30 5983 C 606.105 -0.0130439 -1.95596 0
M  V30 5984 O 607.311 0.123032 -2.71221 0
M  V30 5985 C 605.767 -2.46286 -2.62433 0
M  V30 5986 C 605.375 -3.90962 -2.18753 0
M  V30 5987 C 607.119 -2.54077 -3.40066 0
M  V30 5988 C 605.026 -4.88728 -3.33015 0
M  V30 5989 H 603.956 -0.520903 -0.545138 0
M  V30 5990 H 606.607 -1.67242 -0.75515 0
M  V30 5991 H 604.989 -2.12248 -3.34315 0
M  V30 5992 H 606.163 -4.34248 -1.54161 0
M  V30 5993 H 604.478 -3.86831 -1.54114 0
M  V30 5994 H 607.075 -3.24303 -4.25125 0
M  V30 5995 H 607.418 -1.5776 -3.8525 0
M  V30 5996 H 607.951 -2.87206 -2.75241 0
M  V30 5997 H 604.69 -5.86449 -2.92844 0
M  V30 5998 H 604.21 -4.50091 -3.96457 0
M  V30 5999 H 605.889 -5.09483 -3.98793 0
M  V30 6000 N 606.021 0.929856 -1.27246 0
M  V30 6001 C 606.931 2.0636 -1.11592 0
M  V30 6002 C 607.947 1.73938 -0.046496 0
M  V30 6003 O 609.123 1.9981 -0.252544 0
M  V30 6004 C 606.188 3.38213 -0.762437 0
M  V30 6005 C 605.249 3.84346 -1.9125 0
M  V30 6006 C 604.482 5.09906 -1.57579 0
M  V30 6007 O 604.705 5.68354 -0.482694 0
M  V30 6008 O 603.639 5.51359 -2.41426 0
M  V30 6009 H 607.465 2.22478 -2.0673 0
M  V30 6010 H 605.05 1.04865 -1.06413 0
M  V30 6011 H 606.932 4.1741 -0.57854 0
M  V30 6012 H 605.607 3.23307 0.159439 0
M  V30 6013 H 604.514 3.06045 -2.15144 0
M  V30 6014 H 605.847 4.0379 -2.81451 0
M  V30 6015 N 607.499 1.09233 1.13605 0
M  V30 6016 C 608.429 0.751738 2.21068 0
M  V30 6017 C 609.41 -0.269688 1.67948 0
M  V30 6018 O 610.595 -0.13819 1.93708 0
M  V30 6019 C 607.725 0.16935 3.46887 0
M  V30 6020 C 606.679 1.12007 4.13084 0
M  V30 6021 C 606.005 0.399483 5.33206 0
M  V30 6022 C 607.305 2.46168 4.6065 0
M  V30 6023 H 608.999 1.65024 2.49815 0
M  V30 6024 H 606.545 0.794905 1.20072 0
M  V30 6025 H 608.498 -0.0809824 4.21322 0
M  V30 6026 H 607.222 -0.764335 3.1753 0
M  V30 6027 H 605.881 1.35564 3.40614 0
M  V30 6028 H 605.529 -0.538277 5.00112 0
M  V30 6029 H 605.229 1.03337 5.78442 0
M  V30 6030 H 606.753 0.157403 6.10397 0
M  V30 6031 H 608.167 2.26829 5.26518 0
M  V30 6032 H 606.564 3.05326 5.1662 0
M  V30 6033 H 607.634 3.07076 3.75276 0
M  V30 6034 N 608.977 -1.30795 0.87923 0
M  V30 6035 C 609.909 -2.27241 0.299025 0
M  V30 6036 C 610.922 -1.53472 -0.543166 0
M  V30 6037 O 612.111 -1.74756 -0.363651 0
M  V30 6038 C 609.211 -3.33655 -0.593931 0
M  V30 6039 C 608.384 -4.36857 0.2179 0
M  V30 6040 C 607.443 -5.22715 -0.604646 0
M  V30 6041 O 606.469 -5.69192 -0.0293838 0
M  V30 6042 N 607.671 -5.48008 -1.91488 0
M  V30 6043 H 610.436 -2.77667 1.12788 0
M  V30 6044 H 607.997 -1.43914 0.741637 0
M  V30 6045 H 609.989 -3.88013 -1.15012 0
M  V30 6046 H 608.559 -2.83202 -1.32346 0
M  V30 6047 H 607.779 -3.82444 0.955536 0
M  V30 6048 H 609.067 -5.02869 0.774614 0
M  V30 6049 H 608.465 -5.1202 -2.40525 0
M  V30 6050 H 607.022 -6.05264 -2.41864 0
M  V30 6051 N 610.455 -0.639598 -1.44038 0
M  V30 6052 C 611.871 -0.305953 -1.5664 0
M  V30 6053 C 612.071 1.19055 -1.62567 0
M  V30 6054 O 611.127 1.97492 -1.57331 0
M  V30 6055 C 612.44 -1.00533 -2.83397 0
M  V30 6056 C 613.988 -0.984278 -2.97121 0
M  V30 6057 C 614.463 -1.66428 -4.26691 0
M  V30 6058 N 615.954 -1.63127 -4.33525 0
M  V30 6059 C 616.689 -2.12629 -5.32519 0
M  V30 6060 N 616.185 -2.70359 -6.3787 0
M  V30 6061 N 617.978 -2.03208 -5.24083 0
M  V30 6062 H 610.129 -1.6109 -1.38434 0
M  V30 6063 H 612.392 -0.676672 -0.663942 0
M  V30 6064 H 612.098 -2.06034 -2.85032 0
M  V30 6065 H 611.972 -0.548362 -3.73193 0
M  V30 6066 H 614.359 0.0622792 -2.95034 0
M  V30 6067 H 614.44 -1.47981 -2.08651 0
M  V30 6068 H 614.084 -2.71034 -4.29538 0
M  V30 6069 H 614.014 -1.14351 -5.14034 0
M  V30 6070 H 616.505 -1.20987 -3.58009 0
M  V30 6071 H 616.818 -3.05842 -7.09704 0
M  V30 6072 H 615.163 -2.74414 -6.38531 0
M  V30 6073 H 618.354 -1.57823 -4.40692 0
M  V30 6074 H 618.527 -2.42097 -6.01077 0
M  V30 6075 N 611.933 1.52934 -0.380664 0
M  V30 6076 C 612.881 2.27727 0.47361 0
M  V30 6077 C 613.875 1.31288 1.0705 0
M  V30 6078 O 615.081 1.4886 1.01197 0
M  V30 6079 H 611.456 0.732189 0.171475 0
M  V30 6080 H 613.427 2.97864 -0.178785 0
M  V30 6081 C 612.176 3.0904 1.59341 0
M  V30 6082 H 611.499 3.831 1.14343 0
M  V30 6083 H 612.939 3.64527 2.16555 0
M  V30 6084 C 611.398 2.20813 2.54447 0
M  V30 6085 O 611.928 1.82907 3.57642 0
M  V30 6086 N 610.134 1.85145 2.23986 0
M  V30 6087 H 609.681 2.16169 1.40103 0
M  V30 6088 H 609.639 1.26402 2.87871 0
M  V30 6089 N 613.412 0.11024 1.57214 0
M  V30 6090 C 614.823 -0.416527 1.81994 0
M  V30 6091 C 615.174 -1.67183 1.02686 0
M  V30 6092 O 614.299 -2.14823 0.260782 0
M  V30 6093 C 614.894 -0.762466 3.30109 0
M  V30 6094 C 613.453 -1.23391 3.556 0
M  V30 6095 C 612.6 -0.238166 2.76275 0
M  V30 6096 H 615.551 0.335491 1.55113 0
M  V30 6097 H 615.572 -1.62068 3.44259 0
M  V30 6098 H 615.084 0.151346 3.87805 0
M  V30 6099 H 613.185 -2.16492 3.03253 0
M  V30 6100 H 613.298 -1.18528 4.64207 0
M  V30 6101 H 611.662 -0.723421 2.4421 0
M  V30 6102 H 612.445 0.668591 3.36727 0
M  V30 6103 N 614.89 -1.56749 -0.16351 0
M  V30 6104 C 616.301 -1.72039 -0.725216 0
M  V30 6105 C 616.652 -0.72202 -1.82432 0
M  V30 6106 O 615.777 0.114942 -2.16095 0
M  V30 6107 C 616.372 -3.11932 -1.32227 0
M  V30 6108 C 614.931 -3.28879 -1.83072 0
M  V30 6109 C 614.078 -2.67984 -0.712716 0
M  V30 6110 H 617.029 -1.58579 0.0619772 0
M  V30 6111 H 617.05 -3.11015 -2.19202 0
M  V30 6112 H 616.562 -3.84572 -0.522103 0
M  V30 6113 H 614.663 -2.61209 -2.65708 0
M  V30 6114 H 614.776 -4.36688 -1.97079 0
M  V30 6115 H 613.14 -2.28005 -1.13515 0
M  V30 6116 H 613.923 -3.43216 0.0757361 0
M  V30 6117 N 616.368 0.432326 -1.51554 0
M  V30 6118 C 617.779 1.01202 -1.56892 0
M  V30 6119 C 618.13 1.92175 -0.395394 0
M  V30 6120 O 617.255 2.10844 0.487198 0
M  V30 6121 C 617.85 1.84217 -2.8434 0
M  V30 6122 C 616.409 2.37228 -2.92233 0
M  V30 6123 C 615.556 1.16576 -2.51606 0
M  V30 6124 H 618.507 0.213407 -1.57259 0
M  V30 6125 H 618.528 2.69721 -2.68385 0
M  V30 6126 H 618.04 1.17979 -3.69733 0
M  V30 6127 H 616.141 3.06905 -2.11282 0
M  V30 6128 H 616.254 2.69682 -3.95991 0
M  V30 6129 H 614.618 1.51263 -2.04919 0
M  V30 6130 H 615.401 0.519404 -3.39348 0
M  V30 6131 N 617.846 1.41785 0.688094 0
M  V30 6132 C 618.794 1.44436 1.82321 0
M  V30 6133 C 619.788 0.321544 1.6632 0
M  V30 6134 O 620.994 0.493931 1.73091 0
M  V30 6135 H 617.369 0.452084 0.600936 0
M  V30 6136 H 619.34 2.40087 1.77202 0
M  V30 6137 C 618.089 1.35071 3.20392 0
M  V30 6138 H 617.412 2.2076 3.33324 0
M  V30 6139 H 618.852 1.40988 3.99873 0
M  V30 6140 C 617.311 0.0639127 3.36839 0
M  V30 6141 O 617.841 -0.888495 3.91751 0
M  V30 6142 N 616.047 -0.0146114 2.90596 0
M  V30 6143 H 615.594 0.761191 2.46097 0
M  V30 6144 H 615.552 -0.874988 3.01979 0
M  V30 6145 N 619.324 -0.923095 1.27737 0
M  V30 6146 C 620.287 -2.00587 1.10894 0
M  V30 6147 C 621.287 -1.60718 0.0514927 0
M  V30 6148 O 622.477 -1.71658 0.296481 0
M  V30 6149 C 619.609 -3.33829 0.690717 0
M  V30 6150 H 620.802 -2.16959 2.07048 0
M  V30 6151 H 618.355 -1.10451 1.1059 0
M  V30 6152 H 619.09 -3.23157 -0.272 0
M  V30 6153 H 618.875 -3.64125 1.45448 0
M  V30 6154 H 620.365 -4.13336 0.595252 0
M  V30 6155 N 620.802 -1.09834 -1.13024 0
M  V30 6156 C 622.079 -0.749225 -1.80682 0
M  V30 6157 C 622.459 0.765171 -1.96744 0
M  V30 6158 O 621.807 1.68912 -1.53886 0
M  V30 6159 C 622.017 -1.49311 -3.15448 0
M  V30 6160 C 623.365 -1.66162 -3.90737 0
M  V30 6161 O 624.389 -1.45597 -3.25085 0
M  V30 6162 O 623.248 -2.00211 -5.08505 0
M  V30 6163 H 620.342 -0.269614 -0.781817 0
M  V30 6164 H 622.888 -1.20078 -1.19914 0
M  V30 6165 H 621.66 -2.52407 -2.99009 0
M  V30 6166 H 621.283 -1.034 -3.8392 0
M  V30 6167 N 622.28 1.30327 -0.886154 0
M  V30 6168 C 623.691 1.78243 -0.555554 0
M  V30 6169 C 624.042 1.72849 0.928314 0
M  V30 6170 O 623.167 1.30607 1.72542 0
M  V30 6171 C 623.762 3.23654 -1.00168 0
M  V30 6172 C 622.321 3.69401 -0.722471 0
M  V30 6173 C 621.468 2.50753 -1.18399 0
M  V30 6174 H 624.419 1.1718 -1.07026 0
M  V30 6175 H 624.44 3.79056 -0.331152 0
M  V30 6176 H 623.952 3.27548 -2.08169 0
M  V30 6177 H 622.053 3.70995 0.345496 0
M  V30 6178 H 622.166 4.60818 -1.31085 0
M  V30 6179 H 620.53 2.47452 -0.603303 0
M  V30 6180 H 621.313 2.57383 -2.27176 0
M  V30 6181 N 623.758 0.647228 1.43697 0
M  V30 6182 C 624.706 -0.0600105 2.32523 0
M  V30 6183 C 625.7 -0.819277 1.48271 0
M  V30 6184 O 626.906 -0.730356 1.64517 0
M  V30 6185 H 623.281 -0.0381872 0.75103 0
M  V30 6186 H 625.252 0.706978 2.89904 0
M  V30 6187 C 624.001 -1.0169 3.32497 0
M  V30 6188 H 623.324 -0.442083 3.97348 0
M  V30 6189 H 624.764 -1.48095 3.97296 0
M  V30 6190 C 623.223 -2.11002 2.6264 0
M  V30 6191 O 623.753 -3.19302 2.4374 0
M  V30 6192 N 621.959 -1.87388 2.22113 0
M  V30 6193 H 621.506 -0.993174 2.37684 0
M  V30 6194 H 621.464 -2.60723 1.75701 0
M  V30 6195 N 625.236 -1.5273 0.388769 0
M  V30 6196 C 626.169 -2.22861 -0.490752 0
M  V30 6197 C 627.147 -1.22912 -1.06449 0
M  V30 6198 O 628.331 -1.51896 -1.11624 0
M  V30 6199 C 625.458 -2.94141 -1.67925 0
M  V30 6200 C 624.504 -4.08355 -1.23081 0
M  V30 6201 S 625.337 -5.35077 -0.212786 0
M  V30 6202 C 626.493 -6.09879 -1.40708 0
M  V30 6203 H 626.726 -2.97115 0.104787 0
M  V30 6204 H 624.259 -1.53428 0.172956 0
M  V30 6205 H 626.217 -3.35818 -2.36085 0
M  V30 6206 H 624.878 -2.19568 -2.24608 0
M  V30 6207 H 624.071 -4.57328 -2.11818 0
M  V30 6208 H 623.673 -3.68688 -0.628121 0
M  V30 6209 H 625.965 -6.36018 -2.33424 0
M  V30 6210 H 626.908 -7.01586 -0.958271 0
M  V30 6211 H 627.316 -5.40646 -1.62364 0
M  V30 6212 N 626.714 -0.118576 -1.57153 0
M  V30 6213 C 627.661 0.831789 -2.1529 0
M  V30 6214 C 628.631 1.26385 -1.07778 0
M  V30 6215 O 629.816 1.34144 -1.35684 0
M  V30 6216 C 626.956 2.07664 -2.75626 0
M  V30 6217 C 626.069 1.69298 -3.97444 0
M  V30 6218 C 625.204 2.88747 -4.45868 0
M  V30 6219 C 624.243 2.46619 -5.60219 0
M  V30 6220 N 623.38 3.5898 -6.03389 0
M  V30 6221 H 628.22 0.329183 -2.96176 0
M  V30 6222 H 625.757 0.150792 -1.46325 0
M  V30 6223 H 627.715 2.80601 -3.08738 0
M  V30 6224 H 626.345 2.55384 -1.97431 0
M  V30 6225 H 625.397 0.862374 -3.70496 0
M  V30 6226 H 626.709 1.34338 -4.80369 0
M  V30 6227 H 625.863 3.69909 -4.80887 0
M  V30 6228 H 624.602 3.26933 -3.61892 0
M  V30 6229 H 623.607 1.63889 -5.24805 0
M  V30 6230 H 624.832 2.0955 -6.45961 0
M  V30 6231 H 622.778 3.9684 -5.22354 0
M  V30 6232 H 622.695 3.27942 -6.81168 0
M  V30 6233 H 623.963 4.40583 -6.43045 0
M  V30 6234 N 628.193 1.56834 0.155195 0
M  V30 6235 C 629.123 2.00678 1.19376 0
M  V30 6236 C 630.104 0.884973 1.45266 0
M  V30 6237 O 631.289 1.1522 1.56326 0
M  V30 6238 C 628.419 2.38042 2.5289 0
M  V30 6239 C 627.373 3.53332 2.41538 0
M  V30 6240 C 626.699 3.76485 3.79688 0
M  V30 6241 C 627.999 4.86265 1.9064 0
M  V30 6242 H 629.693 2.87688 0.829232 0
M  V30 6243 H 627.239 1.38407 0.397445 0
M  V30 6244 H 629.192 2.67314 3.25763 0
M  V30 6245 H 627.916 1.4796 2.91162 0
M  V30 6246 H 626.575 3.24213 1.71117 0
M  V30 6247 H 626.223 2.83667 4.15382 0
M  V30 6248 H 625.923 4.54068 3.72956 0
M  V30 6249 H 627.447 4.08174 4.54122 0
M  V30 6250 H 628.861 5.14308 2.53299 0
M  V30 6251 H 627.258 5.67597 1.94818 0
M  V30 6252 H 628.328 4.77184 0.861596 0
M  V30 6253 N 629.671 -0.424282 1.51781 0
M  V30 6254 C 630.918 -1.1726 1.65095 0
M  V30 6255 C 631.246 -1.90881 0.373477 0
M  V30 6256 O 630.501 -1.84835 -0.642997 0
M  V30 6257 C 630.8 -2.20418 2.81337 0
M  V30 6258 C 630.466 -1.63715 4.20129 0
M  V30 6259 C 629.128 -1.47975 4.57883 0
M  V30 6260 C 631.48 -1.22157 5.06682 0
M  V30 6261 C 628.808 -0.891703 5.79884 0
M  V30 6262 C 631.16 -0.647767 6.29275 0
M  V30 6263 C 629.824 -0.477371 6.65791 0
M  V30 6264 H 629.094 -0.429085 0.604125 0
M  V30 6265 H 631.741 -0.461852 1.85847 0
M  V30 6266 H 630.046 -2.97581 2.54859 0
M  V30 6267 H 631.743 -2.78163 2.88836 0
M  V30 6268 H 628.333 -1.76946 3.90369 0
M  V30 6269 H 632.517 -1.33133 4.7811 0
M  V30 6270 H 627.773 -0.747563 6.06813 0
M  V30 6271 H 631.947 -0.317291 6.95677 0
M  V30 6272 H 629.574 -0.0195936 7.60197 0
M  V30 6273 N 631.149 -1.42148 -0.680565 0
M  V30 6274 C 632.377 -1.45696 -1.46902 0
M  V30 6275 C 632.792 -0.0665858 -1.88683 0
M  V30 6276 O 632.149 0.917436 -1.57764 0
M  V30 6277 C 632.2 -2.37898 -2.72188 0
M  V30 6278 O 631.921 -3.71526 -2.32163 0
M  V30 6279 C 633.422 -2.50407 -3.65802 0
M  V30 6280 H 630.642 -0.495729 -0.45221 0
M  V30 6281 H 633.186 -1.866 -0.836709 0
M  V30 6282 H 631.341 -2.00263 -3.31622 0
M  V30 6283 H 631.755 -4.20849 -3.13027 0
M  V30 6284 H 633.229 -3.19056 -4.50452 0
M  V30 6285 H 633.706 -1.5401 -4.11312 0
M  V30 6286 H 634.312 -2.8874 -3.12265 0
M  V30 6287 N 632.627 0.916307 -1.28225 0
M  V30 6288 C 633.876 1.65975 -1.14608 0
M  V30 6289 C 634.189 1.93204 0.305191 0
M  V30 6290 O 635.395 2.65611 0.562432 0
M  V30 6291 C 633.851 2.98989 -2.00333 0
M  V30 6292 C 633.459 2.79417 -3.50186 0
M  V30 6293 C 635.203 3.76856 -1.95397 0
M  V30 6294 C 633.11 4.08056 -4.28071 0
M  V30 6295 H 632.04 0.622587 -0.425324 0
M  V30 6296 H 634.691 1.01705 -1.52736 0
M  V30 6297 H 633.073 3.6438 -1.5506 0
M  V30 6298 H 634.247 2.22723 -4.034 0
M  V30 6299 H 632.562 2.14966 -3.56621 0
M  V30 6300 H 635.159 4.72203 -2.50856 0
M  V30 6301 H 635.502 4.05776 -0.930137 0
M  V30 6302 H 636.035 3.1828 -2.38626 0
M  V30 6303 H 632.774 3.8431 -5.31024 0
M  V30 6304 H 632.294 4.64371 -3.79631 0
M  V30 6305 H 633.973 4.76333 -4.37854 0
M  V30 6306 N 634.105 1.10431 1.1244 0
M  V30 6307 C 635.521 0.836096 1.35947 0
M  V30 6308 C 635.721 -0.544475 1.94004 0
M  V30 6309 O 634.777 -1.29735 2.16622 0
M  V30 6310 C 636.09 1.93575 2.30107 0
M  V30 6311 C 637.638 1.9642 2.43697 0
M  V30 6312 C 638.113 3.05559 3.41171 0
M  V30 6313 N 639.604 3.04865 3.48728 0
M  V30 6314 C 640.339 3.85954 4.24061 0
M  V30 6315 N 639.835 4.76977 5.02458 0
M  V30 6316 N 641.628 3.74172 4.19466 0
M  V30 6317 H 633.779 1.9942 0.731124 0
M  V30 6318 H 636.042 0.866607 0.384312 0
M  V30 6319 H 635.748 2.92943 1.94621 0
M  V30 6320 H 635.622 1.8229 3.30227 0
M  V30 6321 H 638.009 0.97685 2.78463 0
M  V30 6322 H 638.09 2.11782 1.43465 0
M  V30 6323 H 637.734 4.04513 3.07135 0
M  V30 6324 H 637.664 2.87438 4.41234 0
M  V30 6325 H 640.155 2.38908 2.92799 0
M  V30 6326 H 640.468 5.35409 5.57277 0
M  V30 6327 H 638.813 4.81006 5.01655 0
M  V30 6328 H 642.004 3.02412 3.57302 0
M  V30 6329 H 642.177 4.37602 4.77921 0
M  V30 6330 N 635.583 -1.29855 0.893053 0
M  V30 6331 C 636.831 -1.9544 0.514566 0
M  V30 6332 C 637.152 -1.70795 -0.940959 0
M  V30 6333 O 636.422 -1.03601 -1.66264 0
M  V30 6334 H 635.002 -0.723137 0.187302 0
M  V30 6335 H 637.664 -1.58234 1.13789 0
M  V30 6336 H 636.76 -3.04341 0.691581 0
M  V30 6337 N 637.061 -0.65484 -1.43351 0
M  V30 6338 C 638.289 -0.176685 -2.06144 0
M  V30 6339 C 638.704 1.15831 -1.49093 0
M  V30 6340 O 638.061 1.71542 -0.622868 0
M  V30 6341 C 638.112 -0.0813326 -3.61408 0
M  V30 6342 O 637.833 -1.36355 -4.1634 0
M  V30 6343 C 639.334 0.422706 -4.4128 0
M  V30 6344 H 636.554 -0.0906429 -0.66485 0
M  V30 6345 H 639.098 -0.895945 -1.83829 0
M  V30 6346 H 637.253 0.588496 -3.82904 0
M  V30 6347 H 637.667 -1.22381 -5.10023 0
M  V30 6348 H 639.141 0.438375 -5.50257 0
M  V30 6349 H 639.618 1.45432 -4.14423 0
M  V30 6350 H 640.224 -0.214687 -4.24758 0
M  V30 6351 N 638.539 1.52521 -0.396863 0
M  V30 6352 C 639.95 1.86547 0.0754868 0
M  V30 6353 C 640.301 1.31621 1.45501 0
M  V30 6354 O 639.426 0.650563 2.0639 0
M  V30 6355 C 640.021 3.38495 0.143754 0
M  V30 6356 C 638.58 3.72205 0.560413 0
M  V30 6357 C 637.727 2.75954 -0.272856 0
M  V30 6358 H 640.678 1.46323 -0.614434 0
M  V30 6359 H 640.699 3.68153 0.961425 0
M  V30 6360 H 640.211 3.78442 -0.860415 0
M  V30 6361 H 638.312 3.3783 1.57167 0
M  V30 6362 H 638.425 4.78074 0.313314 0
M  V30 6363 H 636.789 2.53339 0.263 0
M  V30 6364 H 637.572 3.1874 -1.27515 0
M  V30 6365 N 640.017 0.126909 1.57088 0
M  V30 6366 C 640.949 -0.850973 2.12817 0
M  V30 6367 C 641.962 -1.22457 1.07276 0
M  V30 6368 O 643.151 -1.17215 1.34622 0
M  V30 6369 C 640.251 -2.15039 2.61938 0
M  V30 6370 C 639.424 -1.94726 3.91664 0
M  V30 6371 C 638.483 -3.0847 4.26301 0
M  V30 6372 O 637.509 -2.81038 4.94981 0
M  V30 6373 N 638.711 -4.35116 3.84259 0
M  V30 6374 H 641.476 -0.3748 2.97347 0
M  V30 6375 H 639.037 -0.0572793 1.61799 0
M  V30 6376 H 641.029 -2.90141 2.82135 0
M  V30 6377 H 639.599 -2.5398 1.82244 0
M  V30 6378 H 638.819 -1.03772 3.80296 0
M  V30 6379 H 640.107 -1.78469 4.76473 0
M  V30 6380 H 639.505 -4.60276 3.2888 0
M  V30 6381 H 638.062 -5.07064 4.09548 0
M  V30 6382 N 641.495 -1.56914 -0.146875 0
M  V30 6383 C 642.427 -1.94878 -1.20645 0
M  V30 6384 C 643.44 -0.844633 -1.39175 0
M  V30 6385 O 644.629 -1.12304 -1.38744 0
M  V30 6386 C 641.729 -2.20769 -2.57127 0
M  V30 6387 C 640.902 -3.52053 -2.59572 0
M  V30 6388 C 639.961 -3.66482 -3.77594 0
M  V30 6389 O 638.987 -4.38873 -3.62462 0
M  V30 6390 N 640.189 -3.03156 -4.95052 0
M  V30 6391 H 642.954 -2.86374 -0.883757 0
M  V30 6392 H 640.515 -1.58366 -0.336436 0
M  V30 6393 H 642.507 -2.27664 -3.34591 0
M  V30 6394 H 641.077 -1.35538 -2.81688 0
M  V30 6395 H 640.297 -3.56598 -1.68023 0
M  V30 6396 H 641.585 -4.38396 -2.58238 0
M  V30 6397 H 640.983 -2.44258 -5.10249 0
M  V30 6398 H 639.54 -3.15611 -5.70292 0
M  V30 6399 N 642.974 0.416227 -1.52004 0
M  V30 6400 C 644.223 1.16088 -1.64944 0
M  V30 6401 C 644.536 1.91835 -0.381928 0
M  V30 6402 O 645.742 2.6867 -0.391013 0
M  V30 6403 C 644.198 2.1124 -2.91386 0
M  V30 6404 C 643.806 1.41042 -4.25219 0
M  V30 6405 C 645.55 2.86008 -3.13688 0
M  V30 6406 C 643.457 2.34801 -5.42791 0
M  V30 6407 H 642.387 0.437041 -0.61442 0
M  V30 6408 H 645.038 0.425971 -1.78487 0
M  V30 6409 H 643.42 2.88254 -2.71525 0
M  V30 6410 H 644.594 0.694416 -4.55538 0
M  V30 6411 H 642.909 0.78344 -4.08964 0
M  V30 6412 H 645.506 3.56286 -3.98703 0
M  V30 6413 H 645.849 3.48556 -2.27628 0
M  V30 6414 H 646.382 2.16095 -3.33988 0
M  V30 6415 H 643.121 1.7691 -6.31176 0
M  V30 6416 H 642.641 3.04395 -5.16821 0
M  V30 6417 H 644.32 2.9548 -5.75587 0
M  V30 6418 N 644.452 1.42507 0.673017 0
M  V30 6419 C 645.729 1.33554 1.42908 0
M  V30 6420 C 646.109 -0.0262211 2.11084 0
M  V30 6421 O 645.457 -1.04181 2.03368 0
M  V30 6422 C 645.667 2.50498 2.43006 0
M  V30 6423 C 647.015 2.92694 3.07596 0
M  V30 6424 O 648.039 2.50401 2.53333 0
M  V30 6425 O 646.898 3.65899 4.05931 0
M  V30 6426 H 643.992 0.526785 0.637516 0
M  V30 6427 H 646.538 1.54518 0.701591 0
M  V30 6428 H 645.31 3.41272 1.9144 0
M  V30 6429 H 644.933 2.3153 3.23233 0
M  V30 6430 N 645.93 -0.909495 1.28709 0
M  V30 6431 C 647.16 -1.69027 1.188 0
M  V30 6432 C 647.568 -1.87469 -0.255329 0
M  V30 6433 O 646.911 -1.40458 -1.18394 0
M  V30 6434 C 646.973 -3.10064 1.81936 0
M  V30 6435 C 646.637 -3.14891 3.31199 0
M  V30 6436 C 647.634 -2.95768 4.27571 0
M  V30 6437 C 645.319 -3.37269 3.7223 0
M  V30 6438 C 647.313 -2.98942 5.6295 0
M  V30 6439 C 645 -3.40074 5.07733 0
M  V30 6440 C 645.998 -3.20932 6.02903 0
M  V30 6441 O 645.686 -3.23507 7.35934 0
M  V30 6442 H 645.418 -0.535014 0.413203 0
M  V30 6443 H 647.972 -1.14645 1.70428 0
M  V30 6444 H 646.202 -3.66005 1.24808 0
M  V30 6445 H 647.891 -3.70185 1.66486 0
M  V30 6446 H 648.657 -2.78302 3.97206 0
M  V30 6447 H 644.536 -3.51212 2.98615 0
M  V30 6448 H 648.08 -2.83919 6.37209 0
M  V30 6449 H 643.977 -3.5707 5.37747 0
M  V30 6450 H 644.745 -3.3984 7.44615 0
M  V30 6451 N 647.408 -1.11026 -1.11852 0
M  V30 6452 C 648.371 -0.768006 -2.1595 0
M  V30 6453 C 649.371 0.210538 -1.59416 0
M  V30 6454 O 650.561 -0.0133978 -1.74195 0
M  V30 6455 C 647.693 -0.138678 -3.40618 0
M  V30 6456 H 648.886 -1.69012 -2.4774 0
M  V30 6457 H 646.439 -0.911578 -1.26964 0
M  V30 6458 H 647.174 0.793872 -3.14433 0
M  V30 6459 H 646.959 -0.843012 -3.8293 0
M  V30 6460 H 648.449 0.0848039 -4.17514 0
M  V30 6461 N 648.886 1.2938 -0.899927 0
M  V30 6462 C 650.302 1.48052 -0.596059 0
M  V30 6463 C 650.502 1.82114 0.862372 0
M  V30 6464 O 649.558 1.91774 1.64253 0
M  V30 6465 C 650.871 2.59332 -1.52208 0
M  V30 6466 C 652.419 2.73208 -1.5273 0
M  V30 6467 C 652.894 3.87617 -2.43961 0
M  V30 6468 N 654.385 3.9495 -2.42009 0
M  V30 6469 C 655.12 4.82824 -3.09303 0
M  V30 6470 N 654.616 5.75387 -3.85877 0
M  V30 6471 N 656.409 4.76317 -2.98459 0
M  V30 6472 H 648.56 1.05546 -1.8432 0
M  V30 6473 H 650.823 0.524314 -0.78981 0
M  V30 6474 H 650.529 2.41029 -2.56121 0
M  V30 6475 H 650.403 3.56139 -1.24278 0
M  V30 6476 H 652.79 2.90908 -0.495614 0
M  V30 6477 H 652.871 1.76975 -1.84698 0
M  V30 6478 H 652.515 3.70672 -3.47224 0
M  V30 6479 H 652.445 4.83218 -2.09303 0
M  V30 6480 H 654.936 3.28744 -1.86375 0
M  V30 6481 H 655.249 6.39235 -4.34279 0
M  V30 6482 H 653.594 5.75272 -3.89984 0
M  V30 6483 H 656.785 4.0299 -2.38152 0
M  V30 6484 H 656.958 5.44589 -3.51179 0
M  V30 6485 N 650.364 0.662433 1.43002 0
M  V30 6486 C 651.296 -0.062326 2.29115 0
M  V30 6487 C 652.309 -0.777926 1.43011 0
M  V30 6488 O 653.498 -0.634146 1.66856 0
M  V30 6489 C 650.598 -1.11163 3.2015 0
M  V30 6490 C 649.771 -0.472327 4.34842 0
M  V30 6491 C 648.83 -1.41974 5.06685 0
M  V30 6492 O 647.856 -0.924795 5.61637 0
M  V30 6493 N 649.058 -2.75345 5.11043 0
M  V30 6494 H 651.823 0.676838 2.91957 0
M  V30 6495 H 649.384 0.505907 1.53793 0
M  V30 6496 H 651.376 -1.74643 3.65078 0
M  V30 6497 H 649.946 -1.75266 2.58845 0
M  V30 6498 H 649.166 0.341751 3.92716 0
M  V30 6499 H 650.454 -0.0264381 5.08793 0
M  V30 6500 H 649.852 -3.18108 4.67786 0
M  V30 6501 H 648.409 -3.34105 5.59658 0
M  V30 6502 N 651.842 -1.52309 0.404946 0
M  V30 6503 C 652.772 -2.29805 -0.41376 0
M  V30 6504 C 653.753 -1.3384 -1.0498 0
M  V30 6505 O 654.938 -1.62745 -1.05961 0
M  V30 6506 C 652.068 -3.11639 -1.53292 0
M  V30 6507 C 651.022 -4.15616 -1.02211 0
M  V30 6508 C 650.348 -4.8577 -2.23455 0
M  V30 6509 C 651.648 -5.2224 -0.0790725 0
M  V30 6510 H 653.342 -2.98493 0.232878 0
M  V30 6511 H 650.888 -1.43552 0.113441 0
M  V30 6512 H 652.841 -3.64618 -2.11262 0
M  V30 6513 H 651.565 -2.40712 -2.20738 0
M  V30 6514 H 650.224 -3.63641 -0.46484 0
M  V30 6515 H 649.872 -4.11376 -2.89445 0
M  V30 6516 H 649.572 -5.56058 -1.89929 0
M  V30 6517 H 651.096 -5.4156 -2.82038 0
M  V30 6518 H 652.51 -5.70485 -0.567438 0
M  V30 6519 H 650.907 -5.99867 0.167167 0
M  V30 6520 H 651.977 -4.77078 0.867447 0
M  V30 6521 N 653.32 -0.135238 -1.57019 0
M  V30 6522 C 654.569 0.518694 -1.94917 0
M  V30 6523 C 654.882 1.66783 -1.0219 0
M  V30 6524 O 656.088 2.38561 -1.29619 0
M  V30 6525 C 654.544 0.974123 -3.46466 0
M  V30 6526 C 654.152 -0.147439 -4.47757 0
M  V30 6527 C 655.896 1.59851 -3.93253 0
M  V30 6528 C 653.803 0.325599 -5.90503 0
M  V30 6529 H 652.733 0.19754 -0.727663 0
M  V30 6530 H 655.384 -0.217698 -1.82204 0
M  V30 6531 H 653.766 1.76542 -3.5447 0
M  V30 6532 H 654.94 -0.924122 -4.51438 0
M  V30 6533 H 653.255 -0.679496 -4.10818 0
M  V30 6534 H 655.852 1.96385 -4.9733 0
M  V30 6535 H 656.195 2.48306 -3.3414 0
M  V30 6536 H 656.728 0.872323 -3.88118 0
M  V30 6537 H 653.467 -0.523295 -6.53408 0
M  V30 6538 H 652.987 1.06841 -5.90208 0
M  V30 6539 H 654.666 0.781498 -6.42263 0
M  V30 6540 N 654.798 1.5699 0.138552 0
M  V30 6541 C 655.708 2.02174 1.19008 0
M  V30 6542 C 656.724 0.938622 1.46512 0
M  V30 6543 O 657.9 1.24872 1.58016 0
M  V30 6544 C 654.965 2.40045 2.50159 0
M  V30 6545 C 654.026 3.62346 2.30226 0
M  V30 6546 C 653.259 3.98401 3.55123 0
M  V30 6547 O 653.482 3.35019 4.61647 0
M  V30 6548 O 652.416 4.91606 3.47285 0
M  V30 6549 H 656.242 2.91954 0.836452 0
M  V30 6550 H 653.827 1.45293 0.347907 0
M  V30 6551 H 655.709 2.65225 3.27465 0
M  V30 6552 H 654.384 1.53417 2.85035 0
M  V30 6553 H 653.291 3.42341 1.50843 0
M  V30 6554 H 654.624 4.49617 2.00262 0
M  V30 6555 N 656.276 -0.40816 1.52223 0
M  V30 6556 C 657.186 -1.52202 1.78526 0
M  V30 6557 C 658.202 -1.60546 0.670892 0
M  V30 6558 O 659.378 -1.77242 0.956404 0
M  V30 6559 C 656.443 -2.87928 1.93128 0
M  V30 6560 C 655.504 -2.89463 3.17033 0
M  V30 6561 C 654.737 -4.18715 3.30929 0
M  V30 6562 O 654.96 -5.12662 2.50067 0
M  V30 6563 O 653.894 -4.27125 4.24084 0
M  V30 6564 H 657.72 -1.32911 2.73072 0
M  V30 6565 H 655.305 -0.594112 1.37079 0
M  V30 6566 H 657.187 -3.68426 2.04549 0
M  V30 6567 H 655.862 -3.07285 1.01772 0
M  V30 6568 H 654.769 -2.07815 3.11069 0
M  V30 6569 H 656.102 -2.75055 4.08174 0
M  V30 6570 N 657.755 -1.42862 -0.66545 0
M  V30 6571 C 658.702 -1.4707 -1.77874 0
M  V30 6572 C 659.672 -0.321654 -1.62956 0
M  V30 6573 O 660.857 -0.52707 -1.83376 0
M  V30 6574 C 657.997 -1.38788 -3.15962 0
M  V30 6575 C 657.11 -2.63801 -3.42101 0
M  V30 6576 C 656.245 -2.47594 -4.69969 0
M  V30 6577 C 655.284 -3.67936 -4.89172 0
M  V30 6578 N 654.421 -3.50614 -6.08288 0
M  V30 6579 H 659.261 -2.42204 -1.73613 0
M  V30 6580 H 656.798 -1.20239 -0.847401 0
M  V30 6581 H 658.756 -1.31982 -3.95773 0
M  V30 6582 H 657.386 -0.472431 -3.19324 0
M  V30 6583 H 656.438 -2.80935 -2.56475 0
M  V30 6584 H 657.75 -3.53228 -3.52181 0
M  V30 6585 H 656.904 -2.38427 -5.57886 0
M  V30 6586 H 655.643 -1.55672 -4.62188 0
M  V30 6587 H 654.648 -3.77525 -3.99694 0
M  V30 6588 H 655.873 -4.60851 -4.98792 0
M  V30 6589 H 653.819 -2.61417 -6.01662 0
M  V30 6590 H 653.736 -4.33634 -6.19272 0
M  V30 6591 H 655.004 -3.45276 -6.98859 0
M  V30 6592 N 659.233 0.902656 -1.29189 0
M  V30 6593 C 660.482 1.6475 -1.16362 0
M  V30 6594 C 660.795 1.93517 0.284682 0
M  V30 6595 O 662.001 2.66192 0.534229 0
M  V30 6596 C 660.457 2.96848 -2.03493 0
M  V30 6597 C 660.065 2.75687 -3.5313 0
M  V30 6598 C 661.809 3.74762 -1.99383 0
M  V30 6599 C 659.716 4.03492 -4.32375 0
M  V30 6600 H 658.646 0.618041 -0.431904 0
M  V30 6601 H 661.297 1.0008 -1.53806 0
M  V30 6602 H 659.679 3.62715 -1.58916 0
M  V30 6603 H 660.853 2.18431 -4.05739 0
M  V30 6604 H 659.168 2.11171 -3.58881 0
M  V30 6605 H 661.765 4.69515 -2.5585 0
M  V30 6606 H 662.108 4.04767 -0.973123 0
M  V30 6607 H 662.641 3.15732 -2.41988 0
M  V30 6608 H 659.38 3.78656 -5.3507 0
M  V30 6609 H 658.9 4.60318 -3.84535 0
M  V30 6610 H 660.579 4.71662 -4.42881 0
M  V30 6611 N 660.711 1.11618 1.11262 0
M  V30 6612 C 661.959 0.864469 1.82678 0
M  V30 6613 C 662.28 -0.611564 1.85162 0
M  V30 6614 O 661.55 -1.44429 1.32352 0
M  V30 6615 H 660.13 0.316821 0.676486 0
M  V30 6616 H 662.792 1.40894 1.34666 0
M  V30 6617 H 661.888 1.23832 2.86482 0
M  V30 6618 N 662.189 -1.289 0.906776 0
M  V30 6619 C 663.437 -1.94883 0.535266 0
M  V30 6620 C 663.758 -1.71784 -0.922791 0
M  V30 6621 O 663.028 -1.05359 -1.65156 0
M  V30 6622 H 661.608 -0.721109 0.194962 0
M  V30 6623 H 664.27 -1.57018 1.15461 0
M  V30 6624 H 663.366 -3.03591 0.723821 0
M  V30 6625 N 663.667 -0.670007 -1.42649 0
M  V30 6626 C 665.078 -0.268118 -1.84765 0
M  V30 6627 C 665.429 1.18877 -1.56086 0
M  V30 6628 O 664.554 1.90947 -1.01825 0
M  V30 6629 C 665.149 -0.47984 -3.35385 0
M  V30 6630 C 663.708 -0.132116 -3.76168 0
M  V30 6631 C 662.855 -0.774611 -2.66261 0
M  V30 6632 H 665.806 -0.872509 -1.32563 0
M  V30 6633 H 665.827 0.269522 -3.79544 0
M  V30 6634 H 665.339 -1.54026 -3.56227 0
M  V30 6635 H 663.44 0.92505 -3.60934 0
M  V30 6636 H 663.553 -0.569294 -4.75706 0
M  V30 6637 H 661.917 -0.206353 -2.53863 0
M  V30 6638 H 662.7 -1.83839 -2.89928 0
M  V30 6639 N 665.145 1.52092 -0.413018 0
M  V30 6640 C 666.391 2.02154 0.161737 0
M  V30 6641 C 666.724 1.29789 1.44459 0
M  V30 6642 O 665.999 0.405378 1.90229 0
M  V30 6643 C 666.282 3.5781 0.405463 0
M  V30 6644 C 666.135 4.40819 -0.894335 0
M  V30 6645 C 667.454 4.23821 1.18591 0
M  V30 6646 H 664.573 0.734769 0.0573077 0
M  V30 6647 H 667.215 1.81948 -0.547247 0
M  V30 6648 H 665.365 3.75158 1.0094 0
M  V30 6649 H 667.037 4.35175 -1.53039 0
M  V30 6650 H 665.28 4.06877 -1.50444 0
M  V30 6651 H 665.951 5.47819 -0.678144 0
M  V30 6652 H 668.427 4.10596 0.674573 0
M  V30 6653 H 667.303 5.32663 1.3252 0
M  V30 6654 H 667.564 3.83038 2.20758 0
M  V30 6655 N 666.623 0.143563 1.56945 0
M  V30 6656 C 667.571 -0.814556 2.17871 0
M  V30 6657 C 668.565 -1.25778 1.13474 0
M  V30 6658 O 669.771 -1.22666 1.31731 0
M  V30 6659 H 666.146 -0.280873 0.697578 0
M  V30 6660 H 668.117 -0.276459 2.97117 0
M  V30 6661 C 666.866 -2.04503 2.81201 0
M  V30 6662 H 666.189 -1.71296 3.61245 0
M  V30 6663 H 667.629 -2.69493 3.27337 0
M  V30 6664 C 666.088 -2.85079 1.79532 0
M  V30 6665 O 666.618 -3.81306 1.26368 0
M  V30 6666 N 664.824 -2.49546 1.48913 0
M  V30 6667 H 664.371 -1.71359 1.92338 0
M  V30 6668 H 664.329 -3.03751 0.811348 0
M  V30 6669 N 668.101 -1.57061 -0.130224 0
M  V30 6670 C 669.512 -1.73539 -0.68856 0
M  V30 6671 C 669.863 -0.760554 -1.80859 0
M  V30 6672 O 668.988 0.0690796 -2.1629 0
M  V30 6673 C 669.583 -3.14666 -1.25581 0
M  V30 6674 C 668.142 -3.32689 -1.76055 0
M  V30 6675 C 667.289 -2.69436 -0.655712 0
M  V30 6676 H 670.24 -1.58412 0.0956002 0
M  V30 6677 H 670.261 -3.15595 -2.12556 0
M  V30 6678 H 669.773 -3.85593 -0.440412 0
M  V30 6679 H 667.874 -2.66786 -2.60108 0
M  V30 6680 H 667.987 -4.4077 -1.87772 0
M  V30 6681 H 666.351 -2.30362 -1.08654 0
M  V30 6682 H 667.134 -3.42979 0.14852 0
M  V30 6683 N 669.579 0.400081 -1.52437 0
M  V30 6684 C 670.509 1.4947 -1.7939 0
M  V30 6685 C 671.49 1.57383 -0.645329 0
M  V30 6686 O 672.675 1.72511 -0.891826 0
M  V30 6687 C 669.805 2.87201 -1.95276 0
M  V30 6688 C 668.759 2.94134 -3.10917 0
M  V30 6689 C 668.085 4.34207 -3.1204 0
M  V30 6690 C 669.385 2.64791 -4.50203 0
M  V30 6691 H 671.079 1.27165 -2.71052 0
M  V30 6692 H 668.625 0.610312 -1.30427 0
M  V30 6693 H 670.578 3.63772 -2.12715 0
M  V30 6694 H 669.302 3.10819 -1.00294 0
M  V30 6695 H 667.961 2.20009 -2.93243 0
M  V30 6696 H 667.609 4.54848 -2.14761 0
M  V30 6697 H 667.309 4.39768 -3.89715 0
M  V30 6698 H 668.833 5.127 -3.31619 0
M  V30 6699 H 670.247 3.31083 -4.68035 0
M  V30 6700 H 668.644 2.81717 -5.29864 0
M  V30 6701 H 669.714 1.60184 -4.57678 0
M  V30 6702 N 671.057 1.43213 0.657864 0
M  V30 6703 C 672.305 1.44298 1.41501 0
M  V30 6704 C 672.626 0.0666478 1.94886 0
M  V30 6705 O 671.896 -0.897345 1.74139 0
M  V30 6706 H 670.476 0.531257 0.525143 0
M  V30 6707 H 673.138 1.78777 0.776195 0
M  V30 6708 H 672.234 2.1528 2.25966 0
M  V30 6709 N 672.536 -0.895792 1.29666 0
M  V30 6710 C 673.947 -1.46195 1.1612 0
M  V30 6711 C 674.298 -1.94699 -0.242195 0
M  V30 6712 O 673.423 -1.8406 -1.13802 0
M  V30 6713 C 674.018 -2.65718 2.10189 0
M  V30 6714 C 672.577 -3.18458 2.00653 0
M  V30 6715 C 671.724 -1.91149 2.00891 0
M  V30 6716 H 674.675 -0.706756 1.42094 0
M  V30 6717 H 674.696 -3.4158 1.6764 0
M  V30 6718 H 674.208 -2.30386 3.12321 0
M  V30 6719 H 672.309 -3.58474 1.01623 0
M  V30 6720 H 672.422 -3.82491 2.88509 0
M  V30 6721 H 670.786 -2.09021 1.45542 0
M  V30 6722 H 671.569 -1.58089 3.04734 0
M  V30 6723 N 674.014 -1.12206 -1.10668 0
M  V30 6724 C 675.425 -0.890657 -1.64086 0
M  V30 6725 C 675.776 0.575502 -1.8757 0
M  V30 6726 O 674.901 1.4394 -1.61587 0
M  V30 6727 C 675.496 -1.61029 -2.98085 0
M  V30 6728 C 674.055 -1.4251 -3.48379 0
M  V30 6729 C 673.202 -1.64778 -2.23033 0
M  V30 6730 H 676.153 -1.27718 -0.94201 0
M  V30 6731 H 676.174 -1.05993 -3.65439 0
M  V30 6732 H 675.686 -2.67735 -2.80962 0
M  V30 6733 H 673.787 -0.380497 -3.70652 0
M  V30 6734 H 673.9 -2.17959 -4.26651 0
M  V30 6735 H 672.264 -1.07171 -2.31055 0
M  V30 6736 H 673.047 -2.72776 -2.08443 0
M  V30 6737 N 675.492 1.28418 -0.913599 0
M  V30 6738 C 676.738 1.9527 -0.547484 0
M  V30 6739 C 677.071 1.71745 0.906486 0
M  V30 6740 O 676.346 1.03834 1.64465 0
M  V30 6741 C 676.629 3.49748 -0.857205 0
M  V30 6742 C 676.482 3.82675 -2.3639 0
M  V30 6743 C 677.801 4.3868 -0.353258 0
M  V30 6744 H 674.92 0.709236 -0.200381 0
M  V30 6745 H 677.562 1.51789 -1.14281 0
M  V30 6746 H 675.712 3.86915 -0.350548 0
M  V30 6747 H 677.384 3.55378 -2.94116 0
M  V30 6748 H 675.627 3.29724 -2.81894 0
M  V30 6749 H 676.298 4.90547 -2.53115 0
M  V30 6750 H 678.774 4.08584 -0.787288 0
M  V30 6751 H 677.65 5.45621 -0.599049 0
M  V30 6752 H 677.911 4.35753 0.746413 0
M  V30 6753 N 676.97 0.677563 1.42291 0
M  V30 6754 C 678.381 0.277912 1.8462 0
M  V30 6755 C 678.732 -1.18048 1.56714 0
M  V30 6756 O 677.857 -1.90404 1.02836 0
M  V30 6757 C 678.452 0.497619 3.35126 0
M  V30 6758 C 677.011 0.152063 3.76093 0
M  V30 6759 C 676.158 0.78872 2.65847 0
M  V30 6760 H 679.109 0.879527 1.32098 0
M  V30 6761 H 679.13 -0.24939 3.79682 0
M  V30 6762 H 678.642 1.55913 3.55405 0
M  V30 6763 H 676.743 -0.905896 3.6142 0
M  V30 6764 H 676.856 0.594514 4.75397 0
M  V30 6765 H 675.22 0.219813 2.5375 0
M  V30 6766 H 676.003 1.85374 2.88949 0
M  V30 6767 N 678.448 -1.51871 0.421078 0
M  V30 6768 C 679.398 -2.24171 -0.416111 0
M  V30 6769 C 680.382 -1.25763 -1.00362 0
M  V30 6770 O 681.574 -1.5094 -0.924452 0
M  V30 6771 C 678.703 -3.07533 -1.52571 0
M  V30 6772 C 677.789 -4.1336 -0.948399 0
M  V30 6773 N 678.18 -5.05704 -0.0987933 0
M  V30 6774 C 676.478 -4.29055 -1.21768 0
M  V30 6775 C 677.179 -5.8127 0.223705 0
M  V30 6776 N 676.155 -5.4221 -0.388524 0
M  V30 6777 H 679.957 -2.92925 0.239166 0
M  V30 6778 H 677.471 -1.60732 0.232191 0
M  V30 6779 H 679.468 -3.57893 -2.13819 0
M  V30 6780 H 678.128 -2.4032 -2.18349 0
M  V30 6781 H 679.139 -5.17214 0.266428 0
M  V30 6782 H 675.816 -3.73071 -1.87416 0
M  V30 6783 H 677.206 -6.65653 0.914076 0
M  V30 6784 N 679.926 -0.151884 -1.56866 0
M  V30 6785 C 681.174 0.497021 -1.95893 0
M  V30 6786 C 681.495 1.65078 -1.03799 0
M  V30 6787 O 680.765 1.95642 -0.10049 0
M  V30 6788 H 679.345 0.186603 -0.723318 0
M  V30 6789 H 682.007 -0.228525 -1.93556 0
M  V30 6790 H 681.103 0.869933 -2.99731 0
M  V30 6791 N 681.404 1.57128 0.121893 0
M  V30 6792 C 682.815 1.73902 0.679348 0
M  V30 6793 C 683.166 0.770135 1.80453 0
M  V30 6794 O 682.291 -0.0576083 2.16323 0
M  V30 6795 C 682.886 3.15328 1.2391 0
M  V30 6796 C 681.445 3.33618 1.74288 0
M  V30 6797 C 680.592 2.6978 0.641414 0
M  V30 6798 H 683.543 1.58359 -0.104 0
M  V30 6799 H 683.564 3.16718 2.10879 0
M  V30 6800 H 683.076 3.85821 0.419957 0
M  V30 6801 H 681.177 2.68162 2.58689 0
M  V30 6802 H 681.29 4.4176 1.85432 0
M  V30 6803 H 679.654 2.30935 1.0743 0
M  V30 6804 H 680.437 3.42895 -0.166707 0
M  V30 6805 N 682.882 -0.391992 1.52647 0
M  V30 6806 C 683.832 -1.47815 1.73594 0
M  V30 6807 C 684.816 -1.49693 0.589979 0
M  V30 6808 O 686.008 -1.5538 0.847701 0
M  V30 6809 C 683.137 -2.85561 1.90551 0
M  V30 6810 C 682.223 -2.88264 3.1107 0
M  V30 6811 N 682.614 -2.60642 4.33474 0
M  V30 6812 C 680.912 -3.19432 3.11254 0
M  V30 6813 C 681.613 -2.70351 5.15058 0
M  V30 6814 N 680.589 -3.03956 4.50679 0
M  V30 6815 H 684.391 -1.2528 2.65861 0
M  V30 6816 H 681.905 -0.599907 1.50913 0
M  V30 6817 H 683.902 -3.63759 2.03678 0
M  V30 6818 H 682.562 -3.09081 0.994952 0
M  V30 6819 H 683.573 -2.34718 4.61658 0
M  V30 6820 H 680.25 -3.48436 2.29997 0
M  V30 6821 H 681.64 -2.52565 6.22624 0
M  V30 6822 N 684.36 -1.4356 -0.65026 0
M  V30 6823 C 685.608 -1.45046 -1.40734 0
M  V30 6824 C 685.929 -0.0769822 -1.94848 0
M  V30 6825 O 685.199 0.888098 -1.74613 0
M  V30 6826 H 683.779 -0.534034 -0.522318 0
M  V30 6827 H 686.441 -1.79186 -0.766703 0
M  V30 6828 H 685.537 -2.16476 -2.24822 0
M  V30 6829 N 685.838 0.888903 -1.30139 0
M  V30 6830 C 687.084 1.6428 -1.18912 0
M  V30 6831 C 687.417 1.92499 0.256477 0
M  V30 6832 O 686.692 1.54312 1.18397 0
M  V30 6833 C 686.975 2.9851 -2.01405 0
M  V30 6834 C 686.828 2.77288 -3.54163 0
M  V30 6835 C 688.147 3.99383 -1.84882 0
M  V30 6836 H 685.266 0.596148 -0.433333 0
M  V30 6837 H 687.908 1.0289 -1.5973 0
M  V30 6838 H 686.058 3.50907 -1.66722 0
M  V30 6839 H 687.73 2.31709 -3.98884 0
M  V30 6840 H 685.973 2.11867 -3.78543 0
M  V30 6841 H 686.644 3.72717 -4.07168 0
M  V30 6842 H 689.12 3.56132 -2.15196 0
M  V30 6843 H 687.996 4.91222 -2.44934 0
M  V30 6844 H 688.257 4.34674 -0.806902 0
M  V30 6845 N 687.317 1.12792 1.10072 0
M  V30 6846 C 688.728 0.899346 1.63611 0
M  V30 6847 C 689.079 -0.565547 1.87872 0
M  V30 6848 O 688.204 -1.43081 1.62348 0
M  V30 6849 C 688.799 1.62608 2.97227 0
M  V30 6850 C 687.358 1.44356 3.47618 0
M  V30 6851 C 686.505 1.65958 2.22156 0
M  V30 6852 H 689.456 1.28216 0.935223 0
M  V30 6853 H 689.477 1.0793 3.64872 0
M  V30 6854 H 688.989 2.69221 2.79538 0
M  V30 6855 H 687.09 0.400148 3.70445 0
M  V30 6856 H 687.203 2.20218 4.25489 0
M  V30 6857 H 685.567 1.08395 2.30484 0
M  V30 6858 H 686.35 2.73877 2.06993 0
M  V30 6859 N 688.795 -1.27931 0.920396 0
M  V30 6860 C 690.043 -1.94304 0.555906 0
M  V30 6861 C 690.364 -1.72753 -0.904519 0
M  V30 6862 O 689.634 -1.07104 -1.64029 0
M  V30 6863 H 688.214 -0.719001 0.202599 0
M  V30 6864 H 690.876 -1.55785 1.1712 0
M  V30 6865 H 689.972 -3.02806 0.755981 0
M  V30 6866 N 690.273 -0.685099 -1.4193 0
M  V30 6867 C 691.684 -0.287699 -1.8447 0
M  V30 6868 C 692.035 1.17215 -1.57338 0
M  V30 6869 O 691.16 1.89856 -1.03845 0
M  V30 6870 C 691.755 -0.515385 -3.34857 0
M  V30 6871 C 690.314 -0.172006 -3.76007 0
M  V30 6872 C 689.461 -0.802808 -2.65425 0
M  V30 6873 H 692.412 -0.88652 -1.3163 0
M  V30 6874 H 692.433 0.229251 -3.79809 0
M  V30 6875 H 691.945 -1.57796 -3.54573 0
M  V30 6876 H 690.046 0.886716 -3.61895 0
M  V30 6877 H 690.159 -0.619717 -4.75075 0
M  V30 6878 H 688.523 -0.233267 -2.5363 0
M  V30 6879 H 689.306 -1.86904 -2.87961 0
M  V30 6880 N 691.751 1.51645 -0.429126 0
M  V30 6881 C 692.701 2.24388 0.404217 0
M  V30 6882 C 693.685 1.26294 0.996933 0
M  V30 6883 O 694.877 1.51428 0.916434 0
M  V30 6884 C 692.006 3.08338 1.50938 0
M  V30 6885 C 691.092 4.13857 0.926464 0
M  V30 6886 N 691.483 5.05749 0.0719732 0
M  V30 6887 C 689.781 4.29695 1.19491 0
M  V30 6888 C 690.482 5.81143 -0.254528 0
M  V30 6889 N 689.458 5.42408 0.359763 0
M  V30 6890 H 693.26 2.92794 -0.254697 0
M  V30 6891 H 690.774 1.60606 -0.240712 0
M  V30 6892 H 692.771 3.59022 2.11918 0
M  V30 6893 H 691.431 2.41475 2.17072 0
M  V30 6894 H 692.442 5.17066 -0.293854 0
M  V30 6895 H 689.119 3.74059 1.85434 0
M  V30 6896 H 690.509 6.65159 -0.949365 0
M  V30 6897 N 693.229 0.160201 1.56784 0
M  V30 6898 C 694.477 -0.486625 1.96154 0
M  V30 6899 C 694.798 -1.64525 1.04673 0
M  V30 6900 O 694.068 -1.95586 0.110864 0
M  V30 6901 H 692.648 -0.182764 0.724297 0
M  V30 6902 H 695.31 0.238787 1.93432 0
M  V30 6903 H 694.406 -0.854025 3.00188 0
M  V30 6904 N 694.707 -1.5719 -0.113559 0
M  V30 6905 C 696.118 -1.74259 -0.670116 0
M  V30 6906 C 696.469 -0.779694 -1.80042 0
M  V30 6907 O 695.594 0.0461353 -2.16351 0
M  V30 6908 C 696.189 -3.15981 -1.22236 0
M  V30 6909 C 694.748 -3.34537 -1.72516 0
M  V30 6910 C 693.895 -2.70116 -0.627098 0
M  V30 6911 H 696.846 -1.58301 0.112396 0
M  V30 6912 H 696.867 -3.17832 -2.09197 0
M  V30 6913 H 696.379 -3.86038 -0.39949 0
M  V30 6914 H 694.48 -2.6953 -2.57263 0
M  V30 6915 H 694.593 -4.42737 -1.83086 0
M  V30 6916 H 692.957 -2.31501 -1.06204 0
M  V30 6917 H 693.74 -3.42802 0.184889 0
M  V30 6918 N 696.185 0.383891 -1.52853 0
M  V30 6919 C 697.596 0.961591 -1.60032 0
M  V30 6920 C 697.947 1.90819 -0.456333 0
M  V30 6921 O 697.072 2.12288 0.419873 0
M  V30 6922 C 697.667 1.75078 -2.90057 0
M  V30 6923 C 696.226 2.2781 -2.99632 0
M  V30 6924 C 695.373 1.08512 -2.55187 0
M  V30 6925 H 698.324 0.163269 -1.57858 0
M  V30 6926 H 698.345 2.61046 -2.7683 0
M  V30 6927 H 697.857 1.06157 -3.73299 0
M  V30 6928 H 695.958 3.00028 -2.20939 0
M  V30 6929 H 696.071 2.56947 -4.0437 0
M  V30 6930 H 694.435 1.44667 -2.09627 0
M  V30 6931 H 695.218 0.41118 -3.40829 0
M  V30 6932 N 697.663 1.43903 0.642637 0
M  V30 6933 C 698.911 1.45791 1.39962 0
M  V30 6934 C 699.232 0.0873144 1.94804 0
M  V30 6935 O 698.502 -0.878825 1.75081 0
M  V30 6936 H 697.082 0.536797 0.519479 0
M  V30 6937 H 699.744 1.7959 0.757189 0
M  V30 6938 H 698.84 2.17665 2.2367 0
M  V30 6939 N 699.141 -0.881989 1.30609 0
M  V30 6940 C 700.552 -1.44956 1.17664 0
M  V30 6941 C 700.903 -1.94945 -0.221531 0
M  V30 6942 O 700.028 -1.85257 -1.11844 0
M  V30 6943 C 700.623 -2.63474 2.12995 0
M  V30 6944 C 699.182 -3.16312 2.04019 0
M  V30 6945 C 698.329 -1.89008 2.02907 0
M  V30 6946 H 701.28 -0.691645 1.42835 0
M  V30 6947 H 701.301 -3.39783 1.71253 0
M  V30 6948 H 700.813 -2.2706 3.14746 0
M  V30 6949 H 698.914 -3.57376 1.0542 0
M  V30 6950 H 699.027 -3.79409 2.9255 0
M  V30 6951 H 697.391 -2.07465 1.47751 0
M  V30 6952 H 698.174 -1.54848 3.06394 0
M  V30 6953 N 700.619 -1.13374 -1.09472 0
M  V30 6954 C 702.03 -0.90801 -1.63132 0
M  V30 6955 C 702.381 0.555576 -1.8817 0
M  V30 6956 O 701.506 1.42218 -1.63104 0
M  V30 6957 C 702.101 -1.64182 -2.96361 0
M  V30 6958 C 700.66 -1.46197 -3.46848 0
M  V30 6959 C 699.807 -1.67134 -2.21273 0
M  V30 6960 H 702.758 -1.2871 -0.928411 0
M  V30 6961 H 702.779 -1.09863 -3.64294 0
M  V30 6962 H 702.291 -2.707 -2.78106 0
M  V30 6963 H 700.392 -0.419788 -3.70228 0
M  V30 6964 H 700.505 -2.22472 -4.24315 0
M  V30 6965 H 698.869 -1.09616 -2.29905 0
M  V30 6966 H 699.652 -2.74971 -2.05538 0
M  V30 6967 N 702.098 1.27442 -0.927168 0
M  V30 6968 C 703.346 1.94007 -0.566203 0
M  V30 6969 C 703.667 1.7323 0.895345 0
M  V30 6970 O 702.937 1.07973 1.63459 0
M  V30 6971 H 701.517 0.717917 -0.206409 0
M  V30 6972 H 704.179 1.55161 -1.17945 0
M  V30 6973 H 703.275 3.02401 -0.772028 0
M  V30 6974 N 703.576 0.692616 1.41565 0
M  V30 6975 C 704.987 0.297478 1.84315 0
M  V30 6976 C 705.338 -1.16379 1.57957 0
M  V30 6977 O 704.463 -1.89303 1.0485 0
M  V30 6978 C 705.058 0.533136 3.34579 0
M  V30 6979 C 703.617 0.191944 3.7591 0
M  V30 6980 C 702.764 0.816873 2.64995 0
M  V30 6981 H 705.715 0.893488 1.31158 0
M  V30 6982 H 705.736 -0.209105 3.79925 0
M  V30 6983 H 705.248 1.59674 3.53731 0
M  V30 6984 H 703.349 -0.867512 3.6236 0
M  V30 6985 H 703.462 0.644902 4.7474 0
M  V30 6986 H 701.826 0.246715 2.53502 0
M  V30 6987 H 702.609 1.88429 2.86966 0
M  V30 6988 N 705.054 -1.51416 0.437162 0
M  V30 6989 C 706.302 -2.01687 -0.129108 0
M  V30 6990 C 706.623 -1.32329 -1.43227 0
M  V30 6991 O 705.893 -0.457796 -1.90476 0
M  V30 6992 H 704.473 -0.745277 -0.0507023 0
M  V30 6993 H 707.135 -1.86075 0.579828 0
M  V30 6994 H 706.231 -3.10605 -0.305141 0
M  V30 6995 N 706.532 -0.168513 -1.56696 0
M  V30 6996 C 707.76 0.483503 -2.01171 0
M  V30 6997 C 708.175 1.56994 -1.04872 0
M  V30 6998 O 707.532 1.82434 -0.0491337 0
M  V30 6999 C 707.583 1.0644 -3.45475 0
M  V30 7000 O 707.304 0.0213375 -4.38095 0
M  V30 7001 C 708.805 1.79493 -4.05336 0
M  V30 7002 H 706.025 0.124002 -0.659443 0
M  V30 7003 H 708.569 -0.269419 -2.02717 0
M  V30 7004 H 706.724 1.76784 -3.44712 0
M  V30 7005 H 707.138 0.449837 -5.22567 0
M  V30 7006 H 708.612 2.15401 -5.08238 0
M  V30 7007 H 709.089 2.68889 -3.47269 0
M  V30 7008 H 709.695 1.13798 -4.09793 0
M  V30 7009 N 708.01 1.57248 0.105221 0
M  V30 7010 C 709.421 1.74612 0.660865 0
M  V30 7011 C 709.772 0.789231 1.79626 0
M  V30 7012 O 708.897 -0.0346611 2.16372 0
M  V30 7013 C 709.492 3.16624 1.20559 0
M  V30 7014 C 708.051 3.35447 1.7074 0
M  V30 7015 C 707.198 2.70445 0.612764 0
M  V30 7016 H 710.149 1.5824 -0.12079 0
M  V30 7017 H 710.17 3.18937 2.07508 0
M  V30 7018 H 709.682 3.86245 0.379012 0
M  V30 7019 H 707.783 2.7089 2.5583 0
M  V30 7020 H 707.896 4.43702 1.80736 0
M  V30 7021 H 706.26 2.32061 1.04975 0
M  V30 7022 H 707.043 3.42699 -0.203066 0
M  V30 7023 N 709.488 -0.375779 1.53054 0
M  V30 7024 C 710.421 -1.48187 1.7354 0
M  V30 7025 C 711.399 -1.5177 0.583495 0
M  V30 7026 O 712.583 -1.69976 0.81488 0
M  V30 7027 C 709.71 -2.86598 1.80497 0
M  V30 7028 C 708.756 -3.00784 3.02376 0
M  V30 7029 S 709.589 -2.70601 4.62099 0
M  V30 7030 C 710.745 -4.11181 4.71891 0
M  V30 7031 H 710.978 -1.30587 2.67085 0
M  V30 7032 H 708.511 -0.569485 1.43514 0
M  V30 7033 H 710.469 -3.66353 1.85192 0
M  V30 7034 H 709.13 -3.01514 0.880217 0
M  V30 7035 H 708.323 -4.02128 3.03824 0
M  V30 7036 H 707.925 -2.28939 2.95742 0
M  V30 7037 H 710.217 -5.0529 4.51319 0
M  V30 7038 H 711.16 -4.14742 5.73929 0
M  V30 7039 H 711.568 -3.97706 4.00612 0
M  V30 7040 N 710.966 -1.44241 -0.634997 0
M  V30 7041 C 712.214 -1.46531 -1.39187 0
M  V30 7042 C 712.535 -0.0976441 -1.94755 0
M  V30 7043 O 711.805 0.869528 -1.75545 0
M  V30 7044 H 710.385 -0.539544 -0.516625 0
M  V30 7045 H 713.047 -1.79989 -0.747655 0
M  V30 7046 H 712.143 -2.18848 -2.22513 0
M  V30 7047 N 712.444 0.87505 -1.31075 0
M  V30 7048 C 713.855 1.4433 -1.18431 0
M  V30 7049 C 714.206 1.9506 0.211189 0
M  V30 7050 O 713.331 1.85847 1.10859 0
M  V30 7051 C 713.926 2.62341 -2.14389 0
M  V30 7052 C 712.485 3.15225 -2.05694 0
M  V30 7053 C 711.632 1.87929 -2.03907 0
M  V30 7054 H 714.583 0.684061 -1.432 0
M  V30 7055 H 714.604 3.3887 -1.73053 0
M  V30 7056 H 714.116 2.25388 -3.15946 0
M  V30 7057 H 712.217 3.56812 -1.07314 0
M  V30 7058 H 712.33 3.77853 -2.94558 0
M  V30 7059 H 710.694 2.06679 -1.48849 0
M  V30 7060 H 711.477 1.53221 -3.07211 0
M  V30 7061 N 713.922 1.13953 1.08869 0
M  V30 7062 C 715.152 0.926825 1.84644 0
M  V30 7063 C 715.56 -0.527941 1.81685 0
M  V30 7064 O 714.903 -1.37742 1.21543 0
M  V30 7065 C 714.965 1.34416 3.33426 0
M  V30 7066 C 714.629 2.81351 3.60126 0
M  V30 7067 C 715.626 3.79486 3.55368 0
M  V30 7068 C 713.311 3.1865 3.88288 0
M  V30 7069 C 715.305 5.1293 3.78393 0
M  V30 7070 C 712.992 4.5227 4.10968 0
M  V30 7071 C 713.99 5.4922 4.06013 0
M  V30 7072 O 713.678 6.80429 4.28102 0
M  V30 7073 H 713.41 0.33013 0.589907 0
M  V30 7074 H 715.964 1.51738 1.38436 0
M  V30 7075 H 714.194 0.696901 3.80368 0
M  V30 7076 H 715.883 1.10302 3.90626 0
M  V30 7077 H 716.649 3.52017 3.3363 0
M  V30 7078 H 712.528 2.43785 3.91267 0
M  V30 7079 H 716.072 5.88591 3.74442 0
M  V30 7080 H 711.969 4.79462 4.32188 0
M  V30 7081 H 712.737 6.86617 4.45533 0
M  V30 7082 N 715.4 -1.26948 0.933913 0
M  V30 7083 C 716.348 -2.2862 0.428463 0
M  V30 7084 C 717.342 -1.62144 -0.490464 0
M  V30 7085 O 718.548 -1.76167 -0.36948 0
M  V30 7086 H 714.923 -0.742363 0.120003 0
M  V30 7087 H 716.894 -2.68659 1.29865 0
M  V30 7088 C 715.643 -3.46423 -0.29774 0
M  V30 7089 H 714.966 -3.97792 0.400183 0
M  V30 7090 H 716.406 -4.19505 -0.615736 0
M  V30 7091 C 714.865 -3.01017 -1.51295 0
M  V30 7092 O 715.395 -3.05226 -2.61151 0
M  V30 7093 N 713.601 -2.56442 -1.36696 0
M  V30 7094 H 713.148 -2.53217 -0.473178 0
M  V30 7095 H 713.106 -2.26424 -2.18127 0
M  V30 7096 N 716.879 -0.700114 -1.41195 0
M  V30 7097 C 718.29 -0.307249 -1.84154 0
M  V30 7098 C 718.641 1.15539 -1.58572 0
M  V30 7099 O 717.766 1.88744 -1.05852 0
M  V30 7100 C 718.361 -0.550872 -3.34292 0
M  V30 7101 C 716.92 -0.211877 -3.75803 0
M  V30 7102 C 716.067 -0.830915 -2.64558 0
M  V30 7103 H 719.018 -0.900431 -1.30683 0
M  V30 7104 H 719.039 0.188954 -3.80031 0
M  V30 7105 H 718.551 -1.61548 -3.5288 0
M  V30 7106 H 716.652 0.848283 -3.62815 0
M  V30 7107 H 716.765 -0.67007 -4.74391 0
M  V30 7108 H 715.129 -0.260155 -2.53368 0
M  V30 7109 H 715.912 -1.89948 -2.85963 0
M  V30 7110 N 718.357 1.51182 -0.445186 0
M  V30 7111 C 719.32 2.26501 0.350722 0
M  V30 7112 C 720.32 1.3025 0.942952 0
M  V30 7113 O 721.51 1.53897 0.816175 0
M  V30 7114 C 718.642 3.06274 1.49697 0
M  V30 7115 H 719.835 2.98299 -0.309474 0
M  V30 7116 H 717.388 1.55034 -0.198551 0
M  V30 7117 H 718.123 2.38911 2.19299 0
M  V30 7118 H 717.908 3.76979 1.0784 0
M  V30 7119 H 719.398 3.63306 2.05909 0
M  V30 7120 N 719.835 0.176821 1.56605 0
M  V30 7121 C 721.246 -0.338963 1.83597 0
M  V30 7122 C 721.597 -1.62677 1.09684 0
M  V30 7123 O 720.722 -2.13524 0.351661 0
M  V30 7124 C 721.317 -0.62177 3.33046 0
M  V30 7125 C 719.876 -1.08198 3.60514 0
M  V30 7126 C 719.023 -0.120774 2.77037 0
M  V30 7127 H 721.974 0.400978 1.53551 0
M  V30 7128 H 721.995 -1.47321 3.50823 0
M  V30 7129 H 721.507 0.315692 3.86814 0
M  V30 7130 H 719.608 -2.03435 3.12162 0
M  V30 7131 H 719.721 -0.987329 4.68816 0
M  V30 7132 H 718.085 -0.619192 2.47059 0
M  V30 7133 H 718.868 0.810806 3.33588 0
M  V30 7134 N 721.313 -1.57302 -0.09688 0
M  V30 7135 C 722.543 -1.89926 -0.813114 0
M  V30 7136 C 722.951 -0.76852 -1.72888 0
M  V30 7137 O 722.294 0.268549 -1.81726 0
M  V30 7138 C 722.356 -3.17787 -1.68082 0
M  V30 7139 C 722.02 -4.4729 -0.937061 0
M  V30 7140 C 723.017 -5.1921 -0.267687 0
M  V30 7141 C 720.702 -4.93957 -0.911671 0
M  V30 7142 C 722.696 -6.36034 0.417129 0
M  V30 7143 C 720.383 -6.10693 -0.223068 0
M  V30 7144 C 721.381 -6.8158 0.440155 0
M  V30 7145 O 721.069 -7.96092 1.11772 0
M  V30 7146 H 720.801 -0.632783 -0.237828 0
M  V30 7147 H 723.355 -2.05248 -0.0790818 0
M  V30 7148 H 721.585 -2.98607 -2.45705 0
M  V30 7149 H 723.274 -3.36257 -2.27346 0
M  V30 7150 H 724.04 -4.84198 -0.278774 0
M  V30 7151 H 719.919 -4.38671 -1.41734 0
M  V30 7152 H 723.463 -6.91301 0.93537 0
M  V30 7153 H 719.36 -6.45159 -0.209821 0
M  V30 7154 H 720.128 -8.12064 1.02443 0
M  V30 7155 N 722.791 0.367657 -1.53252 0
M  V30 7156 C 723.739 1.47061 -1.8021 0
M  V30 7157 C 724.733 1.55539 -0.671112 0
M  V30 7158 O 725.939 1.58451 -0.854014 0
M  V30 7159 H 722.314 0.489868 -0.570555 0
M  V30 7160 H 724.285 1.21527 -2.72532 0
M  V30 7161 C 723.034 2.83924 -2.00706 0
M  V30 7162 H 722.357 2.78158 -2.87172 0
M  V30 7163 H 723.797 3.60281 -2.23547 0
M  V30 7164 C 722.256 3.27613 -0.785568 0
M  V30 7165 O 722.786 4.01691 0.0267459 0
M  V30 7166 N 720.992 2.84134 -0.609597 0
M  V30 7167 H 720.539 2.24017 -1.27178 0
M  V30 7168 H 720.497 3.13723 0.206281 0
M  V30 7169 N 724.269 1.44576 0.627338 0
M  V30 7170 C 725.68 1.42266 1.20902 0
M  V30 7171 C 726.031 0.139964 1.957 0
M  V30 7172 O 725.156 -0.759489 2.02634 0
M  V30 7173 C 725.751 2.57727 2.19914 0
M  V30 7174 C 724.31 2.58599 2.73502 0
M  V30 7175 C 723.457 2.34145 1.48564 0
M  V30 7176 H 726.408 1.53102 0.417791 0
M  V30 7177 H 726.429 2.30697 3.02588 0
M  V30 7178 H 725.941 3.51068 1.65447 0
M  V30 7179 H 724.042 1.6921 3.31962 0
M  V30 7180 H 724.155 3.57205 3.19282 0
M  V30 7181 H 722.519 1.83313 1.76829 0
M  V30 7182 H 723.302 3.29606 0.959935 0
M  V30 7183 N 725.747 -0.868086 1.31537 0
M  V30 7184 C 726.995 -1.61807 1.21091 0
M  V30 7185 C 727.316 -1.93631 -0.230623 0
M  V30 7186 O 726.586 -1.5846 -1.15183 0
M  V30 7187 H 725.166 -0.599854 0.445178 0
M  V30 7188 H 727.828 -1.03915 1.64887 0
M  V30 7189 H 726.924 -2.56088 1.78396 0
M  V30 7190 N 727.225 -1.14528 -1.08264 0
M  V30 7191 C 728.636 -0.925261 -1.6216 0
M  V30 7192 C 728.987 0.535587 -1.88748 0
M  V30 7193 O 728.112 1.4048 -1.64604 0
M  V30 7194 C 728.707 -1.67316 -2.94603 0
M  V30 7195 C 727.266 -1.49868 -3.45278 0
M  V30 7196 C 726.413 -1.69471 -2.19487 0
M  V30 7197 H 729.364 -1.29687 -0.914707 0
M  V30 7198 H 729.385 -1.13721 -3.63109 0
M  V30 7199 H 728.897 -2.73635 -2.75219 0
M  V30 7200 H 726.998 -0.459032 -3.69762 0
M  V30 7201 H 727.111 -2.2696 -4.21931 0
M  V30 7202 H 725.475 -1.12048 -2.2873 0
M  V30 7203 H 726.258 -2.77136 -2.0261 0
M  V30 7204 N 728.703 1.26451 -0.940633 0
M  V30 7205 C 730.114 1.75726 -0.630653 0
M  V30 7206 C 730.465 1.76631 0.854167 0
M  V30 7207 O 729.59 1.37807 1.66848 0
M  V30 7208 C 730.185 3.19114 -1.13805 0
M  V30 7209 C 728.744 3.66005 -0.878497 0
M  V30 7210 C 727.891 2.45505 -1.28928 0
M  V30 7211 H 730.842 1.12535 -1.119 0
M  V30 7212 H 730.863 3.77311 -0.491625 0
M  V30 7213 H 730.375 3.18424 -2.21874 0
M  V30 7214 H 728.476 3.72126 0.187833 0
M  V30 7215 H 728.589 4.54844 -1.50512 0
M  V30 7216 H 726.953 2.4467 -0.707713 0
M  V30 7217 H 727.736 2.47516 -2.37888 0
M  V30 7218 N 730.181 0.707592 1.40822 0
M  V30 7219 C 731.429 0.243189 2.00632 0
M  V30 7220 C 731.75 -1.16512 1.56365 0
M  V30 7221 O 731.02 -1.78841 0.799553 0
M  V30 7222 H 729.6 0.0869203 0.741926 0
M  V30 7223 H 732.262 0.911438 1.72275 0
M  V30 7224 H 731.358 0.270014 3.1093 0
M  V30 7225 N 731.66 -1.50943 0.453197 0
M  V30 7226 C 733.071 -1.86699 -0.00619892 0
M  V30 7227 C 733.422 -1.3693 -1.40515 0
M  V30 7228 O 732.547 -0.726715 -2.03833 0
M  V30 7229 C 733.142 -3.38795 -0.018025 0
M  V30 7230 C 731.701 -3.74028 -0.421885 0
M  V30 7231 C 730.848 -2.74752 0.375087 0
M  V30 7232 H 733.799 -1.43942 0.668317 0
M  V30 7233 H 733.82 -3.71468 -0.824125 0
M  V30 7234 H 733.332 -3.74988 1.00028 0
M  V30 7235 H 731.433 -3.43431 -1.44521 0
M  V30 7236 H 731.546 -4.78908 -0.135664 0
M  V30 7237 H 729.91 -2.5414 -0.168794 0
M  V30 7238 H 730.693 -3.13787 1.39256 0
M  V30 7239 N 733.138 -0.185124 -1.56509 0
M  V30 7240 C 734.101 0.72591 -2.17401 0
M  V30 7241 C 735.101 1.14819 -1.12575 0
M  V30 7242 O 736.291 1.0629 -1.38015 0
M  V30 7243 C 733.423 1.98979 -2.76803 0
M  V30 7244 H 734.616 0.195588 -2.99262 0
M  V30 7245 H 732.169 0.0644772 -1.56167 0
M  V30 7246 H 732.904 2.56287 -1.98714 0
M  V30 7247 H 732.689 1.69583 -3.53531 0
M  V30 7248 H 734.179 2.63966 -3.23592 0
M  V30 7249 N 734.616 1.57351 0.0885366 0
M  V30 7250 C 736.027 1.75303 0.642308 0
M  V30 7251 C 736.378 0.808238 1.78779 0
M  V30 7252 O 735.503 -0.01171 2.16397 0
M  V30 7253 C 736.098 3.17885 1.17194 0
M  V30 7254 C 734.657 3.37239 1.67172 0
M  V30 7255 C 733.804 2.7108 0.584045 0
M  V30 7256 H 736.755 1.58103 -0.137567 0
M  V30 7257 H 736.776 3.2112 2.04114 0
M  V30 7258 H 736.288 3.86625 0.338024 0
M  V30 7259 H 734.389 2.73588 2.52943 0
M  V30 7260 H 734.502 4.45594 1.76019 0
M  V30 7261 H 732.866 2.33161 1.02508 0
M  V30 7262 H 733.649 3.42464 -0.239403 0
M  V30 7263 N 736.094 -0.359525 1.53444 0
M  V30 7264 C 737.044 -1.441 1.7669 0
M  V30 7265 C 738.028 -1.48408 0.621599 0
M  V30 7266 O 739.22 -1.53547 0.880468 0
M  V30 7267 C 736.349 -2.81455 1.96566 0
M  V30 7268 C 735.435 -2.81601 3.17115 0
M  V30 7269 N 735.826 -2.51388 4.38905 0
M  V30 7270 C 734.124 -3.12758 3.1796 0
M  V30 7271 C 734.825 -2.59365 5.20677 0
M  V30 7272 N 733.801 -2.94328 4.57025 0
M  V30 7273 H 737.603 -1.19613 2.68458 0
M  V30 7274 H 735.117 -0.567761 1.52152 0
M  V30 7275 H 737.114 -3.59357 2.11348 0
M  V30 7276 H 735.774 -3.06901 1.06029 0
M  V30 7277 H 736.785 -2.24873 4.66533 0
M  V30 7278 H 733.462 -3.43479 2.37336 0
M  V30 7279 H 734.852 -2.39301 6.27841 0
M  V30 7280 N 737.572 -1.44907 -0.619662 0
M  V30 7281 C 738.82 -1.47999 -1.37625 0
M  V30 7282 C 739.141 -0.118295 -1.94641 0
M  V30 7283 O 738.411 0.85086 -1.76457 0
M  V30 7284 H 736.991 -0.544993 -0.510873 0
M  V30 7285 H 739.653 -1.80772 -0.728522 0
M  V30 7286 H 738.749 -2.21196 -2.20179 0
M  V30 7287 N 739.05 0.861098 -1.31996 0
M  V30 7288 C 740.461 1.43065 -1.19955 0
M  V30 7289 C 740.812 1.95273 0.190489 0
M  V30 7290 O 739.937 1.87012 1.08882 0
M  V30 7291 C 740.532 2.60052 -2.1716 0
M  V30 7292 C 739.091 3.13026 -2.09026 0
M  V30 7293 C 738.238 1.85756 -2.05888 0
M  V30 7294 H 741.189 0.668834 -1.43918 0
M  V30 7295 H 741.21 3.37016 -1.76637 0
M  V30 7296 H 740.722 2.22024 -3.18319 0
M  V30 7297 H 738.823 3.55653 -1.11092 0
M  V30 7298 H 738.936 3.74707 -2.98549 0
M  V30 7299 H 737.3 2.05088 -1.51033 0
M  V30 7300 H 738.083 1.49954 -3.08818 0
M  V30 7301 N 740.528 1.15101 1.07655 0
M  V30 7302 C 741.939 0.933848 1.61667 0
M  V30 7303 C 742.29 -0.525569 1.8903 0
M  V30 7304 O 741.415 -1.39605 1.65346 0
M  V30 7305 C 742.01 1.68876 2.93711 0
M  V30 7306 C 740.569 1.51697 3.44478 0
M  V30 7307 C 739.716 1.70633 2.18586 0
M  V30 7308 H 742.667 1.30171 0.907816 0
M  V30 7309 H 742.688 1.15645 3.625 0
M  V30 7310 H 742.2 2.7509 2.73764 0
M  V30 7311 H 740.301 0.478635 3.69513 0
M  V30 7312 H 740.414 2.29194 4.20722 0
M  V30 7313 H 738.778 1.13259 2.28132 0
M  V30 7314 H 739.561 2.78206 2.01137 0
M  V30 7315 N 742.006 -1.2595 0.947325 0
M  V30 7316 C 742.969 -2.24407 0.466285 0
M  V30 7317 C 743.969 -1.55054 -0.426005 0
M  V30 7318 O 745.159 -1.7275 -0.224319 0
M  V30 7319 C 742.291 -3.39326 -0.327201 0
M  V30 7320 H 743.484 -2.68477 1.33642 0
M  V30 7321 H 741.037 -1.38211 0.729887 0
M  V30 7322 H 741.772 -3.00667 -1.21532 0
M  V30 7323 H 741.557 -3.9085 0.312839 0
M  V30 7324 H 743.047 -4.12455 -0.653477 0
M  V30 7325 N 743.484 -0.715051 -1.40445 0
M  V30 7326 C 744.895 -0.326763 -1.83818 0
M  V30 7327 C 745.246 1.13851 -1.59789 0
M  V30 7328 O 744.371 1.87611 -1.07848 0
M  V30 7329 C 744.966 -0.586297 -3.33688 0
M  V30 7330 C 743.525 -0.251724 -3.75557 0
M  V30 7331 C 742.672 -0.858928 -2.63662 0
M  V30 7332 H 745.623 -0.914241 -1.2972 0
M  V30 7333 H 745.644 0.148636 -3.8021 0
M  V30 7334 H 745.156 -1.65281 -3.51146 0
M  V30 7335 H 743.257 0.809754 -3.63695 0
M  V30 7336 H 743.37 -0.720348 -4.73654 0
M  V30 7337 H 741.734 -0.287013 -2.53078 0
M  V30 7338 H 742.517 -1.9297 -2.83932 0
M  V30 7339 N 744.962 1.50701 -0.461195 0
M  V30 7340 C 746.192 2.06381 0.0950376 0
M  V30 7341 C 746.6 1.32627 1.34933 0
M  V30 7342 O 745.943 0.386137 1.79596 0
M  V30 7343 C 746.005 3.56558 0.458965 0
M  V30 7344 C 745.669 4.51732 -0.691891 0
M  V30 7345 C 746.666 4.95594 -1.57105 0
M  V30 7346 C 744.351 4.94542 -0.879407 0
M  V30 7347 C 746.345 5.80963 -2.62223 0
M  V30 7348 C 744.032 5.79695 -1.93382 0
M  V30 7349 C 745.03 6.22806 -2.80359 0
M  V30 7350 O 744.718 7.06265 -3.83986 0
M  V30 7351 H 744.45 0.676 0.000687488 0
M  V30 7352 H 747.004 1.94974 -0.646087 0
M  V30 7353 H 745.234 3.65832 1.25314 0
M  V30 7354 H 746.923 3.94647 0.949124 0
M  V30 7355 H 747.689 4.63197 -1.43783 0
M  V30 7356 H 743.568 4.60513 -0.211907 0
M  V30 7357 H 747.112 6.14533 -3.30143 0
M  V30 7358 H 743.009 6.11506 -2.06715 0
M  V30 7359 H 743.777 7.24494 -3.80855 0
M  V30 7360 N 746.441 0.193421 1.56409 0
M  V30 7361 C 747.404 -0.714371 2.17783 0
M  V30 7362 C 748.404 -1.1422 1.13183 0
M  V30 7363 O 749.594 -1.05557 1.38576 0
M  V30 7364 C 746.726 -1.97509 2.77855 0
M  V30 7365 H 747.919 -0.179714 2.99361 0
M  V30 7366 H 745.472 -0.0561944 1.56199 0
M  V30 7367 H 746.207 -2.5523 2.0007 0
M  V30 7368 H 745.992 -1.67706 3.54425 0
M  V30 7369 H 747.482 -2.62246 3.24987 0
M  V30 7370 N 747.919 -1.57396 -0.0801906 0
M  V30 7371 C 749.33 -1.75642 -0.633002 0
M  V30 7372 C 749.681 -0.817708 -1.78348 0
M  V30 7373 O 748.806 0.000233743 -2.164 0
M  V30 7374 C 749.401 -3.18502 -1.15507 0
M  V30 7375 C 747.96 -3.38121 -1.65381 0
M  V30 7376 C 747.107 -2.71386 -0.569661 0
M  V30 7377 H 750.058 -1.58027 0.145949 0
M  V30 7378 H 750.079 -3.22198 -2.02408 0
M  V30 7379 H 749.591 -3.86799 -0.317515 0
M  V30 7380 H 747.692 -2.74926 -2.51488 0
M  V30 7381 H 747.805 -4.46521 -1.73654 0
M  V30 7382 H 746.169 -2.33702 -1.0127 0
M  V30 7383 H 746.952 -3.42332 0.257561 0
M  V30 7384 N 749.397 0.351382 -1.53633 0
M  V30 7385 C 750.329 1.45159 -1.77374 0
M  V30 7386 C 751.342 1.4905 -0.654826 0
M  V30 7387 O 752.531 1.52274 -0.931396 0
M  V30 7388 C 749.631 2.83858 -1.85143 0
M  V30 7389 C 748.804 3.03498 -3.14972 0
M  V30 7390 C 747.863 4.22393 -3.138 0
M  V30 7391 O 746.889 4.16885 -3.87551 0
M  V30 7392 N 748.091 5.30533 -2.35617 0
M  V30 7393 H 750.856 1.25167 -2.72311 0
M  V30 7394 H 748.417 0.54121 -1.52586 0
M  V30 7395 H 750.409 3.61557 -1.8182 0
M  V30 7396 H 748.979 2.9703 -0.974275 0
M  V30 7397 H 748.199 2.13336 -3.31484 0
M  V30 7398 H 749.487 3.13498 -4.00745 0
M  V30 7399 H 748.885 5.37875 -1.75235 0
M  V30 7400 H 747.442 6.06756 -2.38098 0
M  V30 7401 N 750.875 1.45233 0.611969 0
M  V30 7402 C 752.123 1.48727 1.36838 0
M  V30 7403 C 752.444 0.128616 1.94575 0
M  V30 7404 O 751.714 -0.84149 1.76906 0
M  V30 7405 H 750.294 0.547695 0.507976 0
M  V30 7406 H 752.956 1.81156 0.718925 0
M  V30 7407 H 752.052 2.2236 2.19003 0
M  V30 7408 N 752.353 -0.854086 1.3245 0
M  V30 7409 C 753.599 -1.6105 1.24235 0
M  V30 7410 C 753.954 -1.91421 -0.193877 0
M  V30 7411 O 753.247 -1.54599 -1.1318 0
M  V30 7412 C 753.441 -2.93746 2.03587 0
M  V30 7413 C 753.27 -2.76335 3.54781 0
M  V30 7414 C 752.04 -2.74687 4.24117 0
M  V30 7415 C 754.238 -2.50052 4.4942 0
M  V30 7416 N 752.22 -2.48493 5.6136 0
M  V30 7417 C 753.591 -2.33269 5.74444 0
M  V30 7418 C 755.646 -2.35525 4.38671 0
M  V30 7419 C 754.349 -2.03434 6.89933 0
M  V30 7420 C 756.375 -2.07081 5.5396 0
M  V30 7421 C 755.737 -1.91098 6.77983 0
M  V30 7422 H 751.836 -0.593008 0.50977 0
M  V30 7423 H 754.42 -1.00392 1.66822 0
M  V30 7424 H 752.591 -3.52382 1.63345 0
M  V30 7425 H 754.323 -3.58768 1.87263 0
M  V30 7426 H 751.078 -2.87647 3.7624 0
M  V30 7427 H 751.502 -2.38322 6.33665 0
M  V30 7428 H 756.144 -2.46602 3.43435 0
M  V30 7429 H 753.862 -1.91095 7.85181 0
M  V30 7430 H 757.448 -1.96618 5.4757 0
M  V30 7431 H 756.328 -1.69402 7.65684 0
M  V30 7432 N 753.831 -1.1567 -1.07043 0
M  V30 7433 C 755.079 -0.931673 -1.79344 0
M  V30 7434 C 755.4 0.542421 -1.87304 0
M  V30 7435 O 754.67 1.39418 -1.37621 0
M  V30 7436 H 753.25 -0.34171 -0.664262 0
M  V30 7437 H 755.912 -1.45795 -1.29344 0
M  V30 7438 H 755.008 -1.34379 -2.81689 0
M  V30 7439 N 755.309 1.25446 -0.953992 0
M  V30 7440 C 756.257 2.27909 -0.46478 0
M  V30 7441 C 757.251 1.62904 0.464607 0
M  V30 7442 O 758.457 1.76733 0.341407 0
M  V30 7443 H 754.832 0.74036 -0.131798 0
M  V30 7444 H 756.803 2.66559 -1.34122 0
M  V30 7445 C 755.552 3.46853 0.242589 0
M  V30 7446 H 754.875 3.97105 -0.463418 0
M  V30 7447 H 756.315 4.20432 0.548919 0
M  V30 7448 C 754.774 3.03386 1.46487 0
M  V30 7449 O 755.304 3.09342 2.56262 0
M  V30 7450 N 753.51 2.58584 1.32599 0
M  V30 7451 H 753.057 2.53938 0.432834 0
M  V30 7452 H 753.015 2.29866 2.14497 0
M  V30 7453 N 756.787 0.722489 1.40064 0
M  V30 7454 C 757.75 0.0830209 2.2905 0
M  V30 7455 C 758.75 -0.680208 1.45705 0
M  V30 7456 O 759.94 -0.511084 1.66534 0
M  V30 7457 C 757.072 -0.892092 3.29021 0
M  V30 7458 H 758.265 0.866848 2.87099 0
M  V30 7459 H 755.818 0.487556 1.48501 0
M  V30 7460 H 756.553 -1.70273 2.76003 0
M  V30 7461 H 756.338 -0.34761 3.90556 0
M  V30 7462 H 757.828 -1.33648 3.95636 0
M  V30 7463 N 758.265 -1.50454 0.469181 0
M  V30 7464 C 759.495 -2.06429 -0.0840913 0
M  V30 7465 C 759.903 -1.3334 -1.34227 0
M  V30 7466 O 759.246 -0.395656 -1.79389 0
M  V30 7467 C 759.308 -3.56797 -0.440049 0
M  V30 7468 C 758.972 -4.51359 0.715838 0
M  V30 7469 C 759.969 -4.94754 1.59732 0
M  V30 7470 C 757.654 -4.94069 0.905621 0
M  V30 7471 C 759.648 -5.79564 2.653 0
M  V30 7472 C 757.335 -5.78662 1.96453 0
M  V30 7473 C 758.333 -6.21311 2.83658 0
M  V30 7474 O 758.021 -7.04218 3.87727 0
M  V30 7475 H 757.753 -0.675994 0.00289751 0
M  V30 7476 H 760.307 -1.94629 0.656417 0
M  V30 7477 H 758.537 -3.66492 -1.23372 0
M  V30 7478 H 760.226 -3.95145 -0.928181 0
M  V30 7479 H 760.992 -4.62428 1.46237 0
M  V30 7480 H 756.871 -4.60394 0.236326 0
M  V30 7481 H 760.415 -6.12774 3.33398 0
M  V30 7482 H 756.312 -6.10401 2.09955 0
M  V30 7483 H 757.08 -7.22464 3.84692 0
M  V30 7484 N 759.743 -0.201713 -1.56304 0
M  V30 7485 C 761.154 0.309711 -1.84113 0
M  V30 7486 C 761.505 1.60912 -1.12258 0
M  V30 7487 O 760.63 2.12937 -0.385587 0
M  V30 7488 C 761.225 0.568706 -3.33993 0
M  V30 7489 C 759.784 1.02448 -3.6219 0
M  V30 7490 C 758.931 0.0766842 -2.77194 0
M  V30 7491 H 761.882 -0.425356 -1.52893 0
M  V30 7492 H 761.903 1.41721 -3.53122 0
M  V30 7493 H 761.415 -0.37719 -3.86263 0
M  V30 7494 H 759.516 1.98443 -3.15359 0
M  V30 7495 H 759.629 0.912619 -4.70328 0
M  V30 7496 H 757.993 0.579809 -2.48013 0
M  V30 7497 H 758.776 -0.863774 -3.32256 0
M  V30 7498 N 761.222 1.57436 0.0718424 0
M  V30 7499 C 762.172 2.00132 1.09229 0
M  V30 7500 C 763.156 0.883379 1.34481 0
M  V30 7501 O 764.348 1.14728 1.34783 0
M  V30 7502 C 761.477 2.44876 2.40605 0
M  V30 7503 C 760.563 3.63405 2.18627 0
M  V30 7504 N 760.954 4.77583 1.66579 0
M  V30 7505 C 759.252 3.69953 2.491 0
M  V30 7506 C 759.953 5.5943 1.59415 0
M  V30 7507 N 758.929 5.03275 2.05464 0
M  V30 7508 H 762.731 2.85849 0.683185 0
M  V30 7509 H 760.245 1.59987 0.278914 0
M  V30 7510 H 762.242 2.73703 3.14471 0
M  V30 7511 H 760.902 1.60546 2.82232 0
M  V30 7512 H 761.913 4.99875 1.35443 0
M  V30 7513 H 758.59 2.96336 2.94094 0
M  V30 7514 H 759.98 6.61093 1.20026 0
M  V30 7515 N 762.7 -0.34323 1.53817 0
M  V30 7516 C 763.946 -1.08137 1.72273 0
M  V30 7517 C 764.301 -1.86311 0.480201 0
M  V30 7518 O 763.594 -1.84204 -0.527192 0
M  V30 7519 C 763.788 -2.05195 2.92626 0
M  V30 7520 C 763.617 -1.36561 4.28464 0
M  V30 7521 C 762.387 -1.11033 4.9295 0
M  V30 7522 C 764.585 -0.791663 5.0817 0
M  V30 7523 N 762.567 -0.389839 6.12661 0
M  V30 7524 C 763.938 -0.201742 6.19672 0
M  V30 7525 C 765.993 -0.692541 4.9306 0
M  V30 7526 C 764.696 0.477661 7.17712 0
M  V30 7527 C 766.722 -0.0268775 5.91394 0
M  V30 7528 C 766.084 0.552072 7.02233 0
M  V30 7529 H 762.183 -0.380078 0.683421 0
M  V30 7530 H 764.767 -0.364925 1.9125 0
M  V30 7531 H 762.938 -2.74131 2.75149 0
M  V30 7532 H 764.67 -2.7185 2.99799 0
M  V30 7533 H 761.425 -1.39752 4.52511 0
M  V30 7534 H 761.849 -0.0443076 6.76986 0
M  V30 7535 H 766.491 -1.12589 4.07534 0
M  V30 7536 H 764.209 0.922895 8.02813 0
M  V30 7537 H 767.795 0.0491921 5.81779 0
M  V30 7538 H 766.675 1.05899 7.77017 0
M  V30 7539 N 764.178 -1.45556 -0.604258 0
M  V30 7540 C 765.11 -1.50494 -1.72871 0
M  V30 7541 C 766.123 -0.395368 -1.57926 0
M  V30 7542 O 767.312 -0.662603 -1.65746 0
M  V30 7543 C 764.412 -1.34874 -3.10906 0
M  V30 7544 C 763.585 -2.59564 -3.52058 0
M  V30 7545 C 762.644 -2.38453 -4.6907 0
M  V30 7546 O 761.67 -3.12082 -4.76018 0
M  V30 7547 N 762.872 -1.43229 -5.62553 0
M  V30 7548 H 765.637 -2.4744 -1.69097 0
M  V30 7549 H 763.198 -1.41338 -0.789636 0
M  V30 7550 H 765.19 -1.18556 -3.86945 0
M  V30 7551 H 763.76 -0.461913 -3.09168 0
M  V30 7552 H 762.98 -2.90974 -2.65946 0
M  V30 7553 H 764.268 -3.42441 -3.76313 0
M  V30 7554 H 763.666 -0.824714 -5.59656 0
M  V30 7555 H 762.223 -1.32882 -6.38111 0
M  V30 7556 N 765.656 0.84705 -1.32902 0
M  V30 7557 C 766.588 1.96308 -1.18304 0
M  V30 7558 C 767.601 1.62386 -0.116082 0
M  V30 7559 O 768.79 1.74713 -0.365751 0
M  V30 7560 C 765.89 3.29556 -0.790305 0
M  V30 7561 C 765.063 3.91668 -1.94717 0
M  V30 7562 C 764.122 5.0326 -1.53674 0
M  V30 7563 O 763.148 5.22847 -2.24989 0
M  V30 7564 N 764.35 5.78852 -0.437075 0
M  V30 7565 H 767.115 2.09369 -2.14441 0
M  V30 7566 H 764.676 1.02233 -1.25539 0
M  V30 7567 H 766.668 4.01624 -0.49799 0
M  V30 7568 H 765.238 3.12497 0.0801286 0
M  V30 7569 H 764.458 3.12292 -2.40557 0
M  V30 7570 H 765.746 4.299 -2.72146 0
M  V30 7571 H 765.144 5.65484 0.156316 0
M  V30 7572 H 763.701 6.51479 -0.204399 0
M  V30 7573 N 767.134 1.16236 1.06428 0
M  V30 7574 C 768.066 0.825446 2.1382 0
M  V30 7575 C 769.079 -0.166707 1.61944 0
M  V30 7576 O 770.268 0.0578606 1.78406 0
M  V30 7577 C 767.368 0.208023 3.38261 0
M  V30 7578 C 766.541 1.23994 4.19457 0
M  V30 7579 C 765.6 0.642569 5.22262 0
M  V30 7580 O 764.626 1.31106 5.53895 0
M  V30 7581 N 765.828 -0.571327 5.77682 0
M  V30 7582 H 768.593 1.7497 2.43322 0
M  V30 7583 H 766.154 1.05951 1.22417 0
M  V30 7584 H 768.146 -0.204608 4.04182 0
M  V30 7585 H 766.716 -0.619752 3.06395 0
M  V30 7586 H 765.936 1.82879 3.49212 0
M  V30 7587 H 767.224 1.93638 4.70512 0
M  V30 7588 H 766.622 -1.13263 5.54245 0
M  V30 7589 H 765.179 -0.926187 6.45186 0
M  V30 7590 N 768.612 -1.24939 0.960631 0
M  V30 7591 C 769.575 -2.239 0.49006 0
M  V30 7592 C 770.575 -1.55497 -0.409535 0
M  V30 7593 O 771.765 -1.72978 -0.205984 0
M  V30 7594 C 768.897 -3.39654 -0.291193 0
M  V30 7595 H 770.09 -2.67044 1.36482 0
M  V30 7596 H 767.643 -1.37429 0.744505 0
M  V30 7597 H 768.378 -3.01939 -1.18336 0
M  V30 7598 H 768.163 -3.90496 0.354276 0
M  V30 7599 H 769.653 -4.13125 -0.609693 0
M  V30 7600 N 770.09 -0.729906 -1.39679 0
M  V30 7601 C 771.501 -0.346241 -1.83461 0
M  V30 7602 C 771.852 1.1215 -1.60987 0
M  V30 7603 O 770.977 1.86456 -1.09832 0
M  V30 7604 C 771.572 -0.621656 -3.33048 0
M  V30 7605 C 770.131 -0.291543 -3.75269 0
M  V30 7606 C 769.278 -0.886844 -2.62736 0
M  V30 7607 H 772.229 -0.927949 -1.28743 0
M  V30 7608 H 772.25 0.108301 -3.80346 0
M  V30 7609 H 771.762 -1.68996 -3.49373 0
M  V30 7610 H 769.863 0.771133 -3.64533 0
M  V30 7611 H 769.976 -0.770544 -4.72863 0
M  V30 7612 H 768.34 -0.313839 -2.52759 0
M  V30 7613 H 769.123 -1.95971 -2.81869 0
M  V30 7614 N 771.568 1.50203 -0.477153 0
M  V30 7615 C 772.979 1.86685 -0.0235041 0
M  V30 7616 C 773.33 1.39148 1.38319 0
M  V30 7617 O 772.455 0.759051 2.02651 0
M  V30 7618 C 773.05 3.38781 -0.0358767 0
M  V30 7619 C 771.609 3.74652 0.362327 0
M  V30 7620 C 770.756 2.7412 -0.41875 0
M  V30 7621 H 773.707 1.4286 -0.691133 0
M  V30 7622 H 773.728 3.72732 0.764924 0
M  V30 7623 H 773.24 3.73349 -1.05981 0
M  V30 7624 H 771.341 3.45686 1.39039 0
M  V30 7625 H 771.454 4.79063 0.059457 0
M  V30 7626 H 769.818 2.54376 0.128341 0
M  V30 7627 H 770.601 3.11532 -1.44231 0
M  V30 7628 N 773.046 0.209999 1.56195 0
M  V30 7629 C 774.323 -0.473214 1.89789 0
M  V30 7630 C 774.703 -1.78581 1.1257 0
M  V30 7631 O 774.051 -2.27325 0.231398 0
M  V30 7632 C 774.261 -0.677458 3.42362 0
M  V30 7633 C 775.609 -0.990114 4.12895 0
M  V30 7634 O 776.633 -0.764655 3.47896 0
M  V30 7635 O 775.492 -1.41737 5.278 0
M  V30 7636 H 772.586 -0.248622 0.788743 0
M  V30 7637 H 775.132 0.251324 1.67829 0
M  V30 7638 H 773.904 0.248878 3.90508 0
M  V30 7639 H 773.527 -1.45391 3.70064 0
M  V30 7640 N 774.524 -1.57472 -0.0634922 0
M  V30 7641 C 775.935 -1.76303 -0.614337 0
M  V30 7642 C 776.286 -0.836578 -1.77471 0
M  V30 7643 O 775.411 -0.0227184 -2.16388 0
M  V30 7644 C 776.006 -3.19709 -1.12122 0
M  V30 7645 C 774.565 -3.39856 -1.61786 0
M  V30 7646 C 773.712 -2.71975 -0.540845 0
M  V30 7647 H 776.663 -1.57864 0.162702 0
M  V30 7648 H 776.684 -3.24326 -1.98979 0
M  V30 7649 H 776.196 -3.87114 -0.276472 0
M  V30 7650 H 774.297 -2.77578 -2.48558 0
M  V30 7651 H 774.41 -4.48338 -1.68908 0
M  V30 7652 H 772.774 -2.34763 -0.987854 0
M  V30 7653 H 773.557 -3.4204 0.293856 0
M  V30 7654 N 776.003 0.335068 -1.53997 0
M  V30 7655 C 776.966 1.39481 -1.81872 0
M  V30 7656 C 777.966 1.4524 -0.690078 0
M  V30 7657 O 779.156 1.45467 -0.958377 0
M  V30 7658 C 776.288 2.78329 -1.9684 0
M  V30 7659 H 777.481 1.16024 -2.76547 0
M  V30 7660 H 775.034 0.569926 -1.45539 0
M  V30 7661 H 775.769 3.07058 -1.04337 0
M  V30 7662 H 775.554 2.75544 -2.78958 0
M  V30 7663 H 777.044 3.55016 -2.19894 0
M  V30 7664 N 777.481 1.45874 0.596531 0
M  V30 7665 C 778.428 1.55389 1.70655 0
M  V30 7666 C 779.398 0.399036 1.61236 0
M  V30 7667 O 780.583 0.61396 1.80652 0
M  V30 7668 C 777.723 1.53705 3.0898 0
M  V30 7669 C 776.836 2.79823 3.29125 0
M  V30 7670 C 775.971 2.69735 4.5762 0
M  V30 7671 C 775.01 3.90856 4.71061 0
M  V30 7672 N 774.147 3.79237 5.90867 0
M  V30 7673 H 778.987 2.50211 1.61859 0
M  V30 7674 H 776.524 1.24146 0.789069 0
M  V30 7675 H 778.482 1.50715 3.89026 0
M  V30 7676 H 777.112 0.624247 3.16706 0
M  V30 7677 H 776.164 2.92852 2.42779 0
M  V30 7678 H 777.476 3.69628 3.34927 0
M  V30 7679 H 776.63 2.64773 5.45875 0
M  V30 7680 H 775.369 1.77547 4.54234 0
M  V30 7681 H 774.374 3.96164 3.81227 0
M  V30 7682 H 775.599 4.84124 4.76236 0
M  V30 7683 H 773.545 2.89825 5.88504 0
M  V30 7684 H 773.462 4.62686 5.97877 0
M  V30 7685 H 774.73 3.78227 6.8159 0
M  V30 7686 N 778.959 -0.83999 1.33349 0
M  V30 7687 C 779.922 -1.93128 1.23426 0
M  V30 7688 C 780.922 -1.60065 0.153599 0
M  V30 7689 O 782.112 -1.69425 0.405049 0
M  V30 7690 C 779.244 -3.28761 0.901622 0
M  V30 7691 H 780.437 -2.03352 2.20427 0
M  V30 7692 H 777.99 -1.03194 1.17391 0
M  V30 7693 H 778.725 -3.24233 -0.0659337 0
M  V30 7694 H 778.51 -3.54138 1.68311 0
M  V30 7695 H 780 -4.08714 0.856913 0
M  V30 7696 N 780.437 -1.16799 -1.0581 0
M  V30 7697 C 781.685 -0.950642 -1.78346 0
M  V30 7698 C 782.006 0.522524 -1.87869 0
M  V30 7699 O 781.276 1.3795 -1.39092 0
M  V30 7700 H 779.856 -0.348736 -0.6606 0
M  V30 7701 H 782.518 -1.47158 -1.27791 0
M  V30 7702 H 781.614 -1.37359 -2.80248 0
M  V30 7703 N 781.915 1.24427 -0.967243 0
M  V30 7704 C 783.143 1.96541 -0.646477 0
M  V30 7705 C 783.558 1.71753 0.783996 0
M  V30 7706 O 782.915 1.00102 1.52597 0
M  V30 7707 C 782.966 3.4983 -0.911098 0
M  V30 7708 O 782.687 3.7377 -2.28534 0
M  V30 7709 C 784.188 4.3916 -0.604458 0
M  V30 7710 H 781.408 0.626129 -0.241255 0
M  V30 7711 H 783.952 1.58268 -1.29505 0
M  V30 7712 H 782.107 3.86168 -0.308741 0
M  V30 7713 H 782.521 4.68154 -2.365 0
M  V30 7714 H 783.995 5.4557 -0.840069 0
M  V30 7715 H 784.472 4.36771 0.461273 0
M  V30 7716 H 785.078 4.08409 -1.1867 0
M  V30 7717 N 783.393 0.737304 1.3929 0
M  V30 7718 C 784.67 0.212464 1.94443 0
M  V30 7719 C 785.05 -1.28621 1.67391 0
M  V30 7720 O 784.398 -2.0529 1.00342 0
M  V30 7721 C 784.608 0.548565 3.44662 0
M  V30 7722 C 785.956 0.499177 4.21656 0
M  V30 7723 O 786.98 0.485892 3.5287 0
M  V30 7724 O 785.839 0.495739 5.44247 0
M  V30 7725 H 782.933 0.0395457 0.826054 0
M  V30 7726 H 785.479 0.816319 1.48776 0
M  V30 7727 H 784.251 1.58426 3.57795 0
M  V30 7728 H 783.874 -0.0841399 3.97511 0
M  V30 7729 N 784.871 -1.49948 0.485112 0
M  V30 7730 C 786.282 -1.8667 0.0334041 0
M  V30 7731 C 786.633 -1.3988 -1.37579 0
M  V30 7732 O 785.758 -0.769788 -2.02245 0
M  V30 7733 C 786.353 -3.38757 0.0538426 0
M  V30 7734 C 784.912 -3.74839 -0.342453 0
M  V30 7735 C 784.059 -2.73894 0.433281 0
M  V30 7736 H 787.01 -1.42492 0.698699 0
M  V30 7737 H 787.031 -3.73132 -0.745146 0
M  V30 7738 H 786.543 -3.72782 1.07959 0
M  V30 7739 H 784.644 -3.46419 -1.37203 0
M  V30 7740 H 784.757 -4.79088 -0.0340503 0
M  V30 7741 H 783.121 -2.54441 -0.114849 0
M  V30 7742 H 783.904 -3.10763 1.45881 0
M  V30 7743 N 786.349 -0.21828 -1.56081 0
M  V30 7744 C 787.297 0.709679 -2.21509 0
M  V30 7745 C 788.291 1.20221 -1.19346 0
M  V30 7746 O 789.497 1.16241 -1.37433 0
M  V30 7747 H 785.872 0.247271 -0.710184 0
M  V30 7748 H 787.843 0.134386 -2.98097 0
M  V30 7749 C 786.592 1.90853 -2.90638 0
M  V30 7750 H 785.915 1.53865 -3.69006 0
M  V30 7751 H 787.355 2.53568 -3.39822 0
M  V30 7752 C 785.814 2.76189 -1.92929 0
M  V30 7753 O 786.344 3.74842 -1.44416 0
M  V30 7754 N 784.55 2.42157 -1.6065 0
M  V30 7755 H 784.097 1.61987 -2.00294 0
M  V30 7756 H 784.055 2.99534 -0.955347 0
M  V30 7757 N 787.827 1.57504 0.0551401 0
M  V30 7758 C 789.052 1.92682 0.767352 0
M  V30 7759 C 789.477 0.81614 1.69472 0
M  V30 7760 O 788.835 -0.229989 1.79835 0
M  V30 7761 C 788.883 3.26866 1.52286 0
M  V30 7762 O 787.987 3.17274 2.63459 0
M  V30 7763 H 787.328 0.630502 0.208238 0
M  V30 7764 H 789.858 2.04592 0.0184026 0
M  V30 7765 H 789.868 3.61138 1.8985 0
M  V30 7766 H 788.543 4.07276 0.842541 0
M  V30 7767 H 787.12 2.94589 2.2863 0
M  V30 7768 N 789.305 -0.326896 1.54172 0
M  V30 7769 C 790.268 -1.38515 1.8261 0
M  V30 7770 C 791.268 -1.44872 0.697771 0
M  V30 7771 O 792.458 -1.44957 0.966078 0
M  V30 7772 C 789.59 -2.77281 1.98313 0
M  V30 7773 H 790.783 -1.14556 2.77159 0
M  V30 7774 H 788.336 -0.562199 1.45839 0
M  V30 7775 H 789.071 -3.065 1.05964 0
M  V30 7776 H 788.856 -2.74061 2.80416 0
M  V30 7777 H 790.346 -3.53845 2.21773 0
M  V30 7778 N 790.784 -1.46188 -0.588786 0
M  V30 7779 C 791.747 -1.55882 -1.68029 0
M  V30 7780 C 792.747 -0.436515 -1.54762 0
M  V30 7781 O 793.937 -0.700626 -1.59489 0
M  V30 7782 C 791.069 -1.47332 -3.07418 0
M  V30 7783 H 792.262 -2.5315 -1.60795 0
M  V30 7784 H 789.815 -1.33908 -0.806116 0
M  V30 7785 H 790.55 -0.513193 -3.20214 0
M  V30 7786 H 790.335 -2.28753 -3.18456 0
M  V30 7787 H 791.825 -1.57187 -3.86887 0
M  V30 7788 N 792.262 0.832906 -1.33792 0
M  V30 7789 C 793.508 1.59053 -1.26782 0
M  V30 7790 C 793.863 1.91705 0.163399 0
M  V30 7791 O 793.156 1.5638 1.10706 0
M  V30 7792 C 793.35 2.9047 -2.08235 0
M  V30 7793 C 793.179 2.70656 -3.59132 0
M  V30 7794 C 791.949 2.67905 -4.28433 0
M  V30 7795 C 794.147 2.42871 -4.53341 0
M  V30 7796 N 792.129 2.39531 -5.65242 0
M  V30 7797 C 793.5 2.24101 -5.78082 0
M  V30 7798 C 795.555 2.28517 -4.42362 0
M  V30 7799 C 794.258 1.92432 -6.93082 0
M  V30 7800 C 796.284 1.98242 -5.57184 0
M  V30 7801 C 795.646 1.80288 -6.80937 0
M  V30 7802 H 791.745 0.584823 -0.51914 0
M  V30 7803 H 794.329 0.977252 -1.68398 0
M  V30 7804 H 792.5 3.49739 -1.6893 0
M  V30 7805 H 794.232 3.55744 -1.92947 0
M  V30 7806 H 790.987 2.81624 -3.80768 0
M  V30 7807 H 791.411 2.28211 -6.37377 0
M  V30 7808 H 796.053 2.41107 -3.47314 0
M  V30 7809 H 793.771 1.78579 -7.88121 0
M  V30 7810 H 797.357 1.87882 -5.50628 0
M  V30 7811 H 796.237 1.57199 -7.68283 0
M  V30 7812 N 793.74 1.17359 1.05189 0
M  V30 7813 C 794.703 0.892604 2.11105 0
M  V30 7814 C 795.703 -0.117236 1.60372 0
M  V30 7815 O 796.893 0.114936 1.7382 0
M  V30 7816 C 794.025 0.337032 3.3923 0
M  V30 7817 H 795.218 1.83169 2.37464 0
M  V30 7818 H 792.771 0.984051 1.21434 0
M  V30 7819 H 793.506 -0.609198 3.18527 0
M  V30 7820 H 793.291 1.06484 3.77364 0
M  V30 7821 H 794.781 0.158763 4.17298 0
M  V30 7822 N 795.218 -1.23913 0.973828 0
M  V30 7823 C 796.181 -2.23367 0.51378 0
M  V30 7824 C 797.181 -1.55923 -0.39302 0
M  V30 7825 O 798.371 -1.73187 -0.187626 0
M  V30 7826 C 795.503 -3.39944 -0.255152 0
M  V30 7827 H 796.696 -2.65581 1.39307 0
M  V30 7828 H 794.249 -1.36632 0.759039 0
M  V30 7829 H 794.984 -3.03177 -1.15127 0
M  V30 7830 H 794.769 -3.90098 0.395673 0
M  V30 7831 H 796.259 -4.13749 -0.565842 0
M  V30 7832 N 796.696 -0.74468 -1.38897 0
M  V30 7833 C 797.926 -0.306982 -2.04307 0
M  V30 7834 C 798.334 1.06652 -1.56275 0
M  V30 7835 O 797.677 1.68699 -0.72708 0
M  V30 7836 C 797.739 -0.241186 -3.5869 0
M  V30 7837 C 797.403 -1.55476 -4.2974 0
M  V30 7838 C 798.4 -2.50229 -4.55721 0
M  V30 7839 C 796.085 -1.82173 -4.68101 0
M  V30 7840 C 798.079 -3.69905 -5.19085 0
M  V30 7841 C 795.766 -3.02125 -5.31191 0
M  V30 7842 C 796.764 -3.95812 -5.56616 0
M  V30 7843 O 796.452 -5.13656 -6.18395 0
M  V30 7844 H 796.184 -0.130416 -0.663301 0
M  V30 7845 H 798.738 -1.01192 -1.78744 0
M  V30 7846 H 796.968 0.519925 -3.83189 0
M  V30 7847 H 798.657 0.165806 -4.05561 0
M  V30 7848 H 799.423 -2.30877 -4.26522 0
M  V30 7849 H 795.302 -1.10091 -4.47662 0
M  V30 7850 H 798.846 -4.43047 -5.38846 0
M  V30 7851 H 794.743 -3.21374 -5.59811 0
M  V30 7852 H 795.511 -5.14119 -6.36886 0
M  V30 7853 N 798.174 1.49689 -0.493057 0
M  V30 7854 C 799.404 2.06536 0.0512397 0
M  V30 7855 C 799.812 1.35459 1.32089 0
M  V30 7856 O 799.155 0.424145 1.78736 0
M  V30 7857 C 799.217 3.57452 0.383231 0
M  V30 7858 C 798.881 4.50163 -0.787555 0
M  V30 7859 C 799.878 4.92151 -1.67582 0
M  V30 7860 C 797.563 4.92565 -0.984109 0
M  V30 7861 C 799.557 5.7527 -2.74487 0
M  V30 7862 C 797.244 5.75463 -2.05634 0
M  V30 7863 C 798.242 6.16719 -2.93507 0
M  V30 7864 O 797.93 6.97961 -3.98881 0
M  V30 7865 H 797.662 0.675862 -0.0136516 0
M  V30 7866 H 800.216 1.9356 -0.687298 0
M  V30 7867 H 798.446 3.68408 1.17526 0
M  V30 7868 H 800.135 3.96572 0.8652 0
M  V30 7869 H 800.901 4.60043 -1.53575 0
M  V30 7870 H 796.78 4.5996 -0.309541 0
M  V30 7871 H 800.324 6.07392 -3.43104 0
M  V30 7872 H 796.221 6.06983 -2.19639 0
M  V30 7873 H 796.989 7.16253 -3.96137 0
M  V30 7874 N 799.652 0.226554 1.55963 0
M  V30 7875 C 800.615 -0.668015 2.19249 0
M  V30 7876 C 801.615 -1.11794 1.1558 0
M  V30 7877 O 802.805 -1.02593 1.40784 0
M  V30 7878 C 799.937 -1.91571 2.81981 0
M  V30 7879 H 801.13 -0.116175 2.99675 0
M  V30 7880 H 798.683 -0.0230497 1.56283 0
M  V30 7881 H 799.418 -2.50929 2.05439 0
M  V30 7882 H 799.203 -1.6015 3.57903 0
M  V30 7883 H 800.693 -2.55294 3.30477 0
M  V30 7884 N 801.13 -1.57531 -0.0467866 0
M  V30 7885 C 802.08 -2.01845 -1.06031 0
M  V30 7886 C 803.064 -0.904662 -1.33059 0
M  V30 7887 O 804.256 -1.16858 -1.32941 0
M  V30 7888 C 801.385 -2.48673 -2.36679 0
M  V30 7889 C 800.471 -3.66837 -2.12818 0
M  V30 7890 N 800.862 -4.80172 -1.5896 0
M  V30 7891 C 799.16 -3.73869 -2.43183 0
M  V30 7892 C 799.861 -5.61895 -1.50494 0
M  V30 7893 N 798.837 -5.0648 -1.97431 0
M  V30 7894 H 802.639 -2.869 -0.637623 0
M  V30 7895 H 800.153 -1.6041 -0.253427 0
M  V30 7896 H 802.15 -2.78671 -3.10077 0
M  V30 7897 H 800.81 -1.65016 -2.79642 0
M  V30 7898 H 801.821 -5.01967 -1.27474 0
M  V30 7899 H 798.498 -3.00977 -2.89342 0
M  V30 7900 H 799.888 -6.62918 -1.09494 0
M  V30 7901 N 802.608 0.318715 -1.54344 0
M  V30 7902 C 803.838 1.07394 -1.76494 0
M  V30 7903 C 804.246 1.82031 -0.515881 0
M  V30 7904 O 803.589 1.7609 0.52325 0
M  V30 7905 C 803.651 2.11401 -2.90775 0
M  V30 7906 C 803.315 1.56118 -4.29507 0
M  V30 7907 C 804.312 1.00043 -5.10184 0
M  V30 7908 C 801.997 1.60215 -4.76063 0
M  V30 7909 C 803.991 0.487993 -6.35529 0
M  V30 7910 C 801.678 1.08584 -6.01376 0
M  V30 7911 C 802.676 0.529714 -6.80943 0
M  V30 7912 O 802.364 0.0211823 -8.03897 0
M  V30 7913 H 802.096 0.325061 -0.592715 0
M  V30 7914 H 804.65 0.36901 -2.02058 0
M  V30 7915 H 802.88 2.85524 -2.60793 0
M  V30 7916 H 804.569 2.72683 -3.00664 0
M  V30 7917 H 805.335 0.961811 -4.75367 0
M  V30 7918 H 801.214 2.02441 -4.14172 0
M  V30 7919 H 804.758 0.0532608 -6.9758 0
M  V30 7920 H 800.655 1.12155 -6.35682 0
M  V30 7921 H 801.423 0.136151 -8.18387 0
M  V30 7922 N 804.086 1.46499 0.581025 0
M  V30 7923 C 805.316 1.55244 1.36319 0
M  V30 7924 C 805.724 0.193059 1.88212 0
M  V30 7925 O 805.067 -0.820109 1.64377 0
M  V30 7926 C 805.129 2.498 2.58535 0
M  V30 7927 C 804.793 3.96007 2.28096 0
M  V30 7928 C 805.79 4.85171 1.8683 0
M  V30 7929 C 803.475 4.41152 2.40189 0
M  V30 7930 C 805.469 6.17493 1.58053 0
M  V30 7931 C 803.156 5.73508 2.11024 0
M  V30 7932 C 804.154 6.615 1.70021 0
M  V30 7933 O 803.842 7.914 1.41215 0
M  V30 7934 H 803.574 0.527513 0.422736 0
M  V30 7935 H 806.128 1.92623 0.713139 0
M  V30 7936 H 804.358 2.07443 3.2635 0
M  V30 7937 H 806.047 2.48934 3.20604 0
M  V30 7938 H 806.813 4.51548 1.77001 0
M  V30 7939 H 802.692 3.72886 2.71066 0
M  V30 7940 H 806.236 6.86131 1.25974 0
M  V30 7941 H 802.133 6.06679 2.20478 0
M  V30 7942 H 802.901 8.03681 1.55046 0
M  V30 7943 N 805.565 -0.825799 1.34232 0
M  V30 7944 C 806.497 -1.94401 1.21413 0
M  V30 7945 C 807.51 -1.6218 0.141902 0
M  V30 7946 O 808.699 -1.74109 0.3935 0
M  V30 7947 C 805.799 -3.28257 0.842635 0
M  V30 7948 C 804.972 -3.88521 2.00924 0
M  V30 7949 C 804.031 -5.00752 1.61661 0
M  V30 7950 O 803.057 -5.19201 2.33279 0
M  V30 7951 N 804.259 -5.78084 0.52911 0
M  V30 7952 H 807.024 -2.05931 2.17744 0
M  V30 7953 H 804.585 -1.00223 1.27149 0
M  V30 7954 H 806.577 -4.00781 0.561822 0
M  V30 7955 H 805.147 -3.12585 -0.0304029 0
M  V30 7956 H 804.367 -3.08425 2.45495 0
M  V30 7957 H 805.655 -4.25516 2.78951 0
M  V30 7958 H 805.053 -5.65661 -0.0663322 0
M  V30 7959 H 803.61 -6.51072 0.308017 0
M  V30 7960 N 807.043 -1.17915 -1.04565 0
M  V30 7961 C 807.975 -0.859359 -2.1248 0
M  V30 7962 C 808.988 0.140922 -1.62189 0
M  V30 7963 O 810.177 -0.0862361 -1.78292 0
M  V30 7964 C 807.277 -0.261811 -3.37887 0
M  V30 7965 C 806.45 -1.30651 -4.17431 0
M  V30 7966 C 805.509 -0.725575 -5.21174 0
M  V30 7967 O 804.535 -1.39901 -5.51739 0
M  V30 7968 N 805.737 0.479351 -5.78517 0
M  V30 7969 H 808.502 -1.78818 -2.40508 0
M  V30 7970 H 806.063 -1.07885 -1.20716 0
M  V30 7971 H 808.055 0.14028 -4.04457 0
M  V30 7972 H 806.625 0.570929 -3.07342 0
M  V30 7973 H 805.845 -1.88412 -3.46258 0
M  V30 7974 H 807.133 -2.01099 -4.67372 0
M  V30 7975 H 806.531 1.04431 -5.55977 0
M  V30 7976 H 805.088 0.823427 -6.46578 0
M  V30 7977 N 808.521 1.23394 -0.980386 0
M  V30 7978 C 809.453 2.24146 -0.478657 0
M  V30 7979 C 810.466 1.57303 0.419492 0
M  V30 7980 O 811.655 1.77094 0.223631 0
M  V30 7981 C 808.755 3.3732 0.326913 0
M  V30 7982 C 807.928 4.33744 -0.56436 0
M  V30 7983 C 806.987 5.25866 0.187358 0
M  V30 7984 O 806.013 5.67626 -0.423019 0
M  V30 7985 N 807.215 5.61492 1.47335 0
M  V30 7986 H 809.98 2.67826 -1.34496 0
M  V30 7987 H 807.541 1.37566 -0.853653 0
M  V30 7988 H 809.533 3.95926 0.838148 0
M  V30 7989 H 808.103 2.92823 1.09422 0
M  V30 7990 H 807.323 3.73641 -1.25642 0
M  V30 7991 H 808.611 4.95123 -1.17177 0
M  V30 7992 H 808.009 5.29514 1.99077 0
M  V30 7993 H 806.566 6.2257 1.93002 0
M  V30 7994 N 809.999 0.752036 1.385 0
M  V30 7995 C 810.962 0.131587 2.28822 0
M  V30 7996 C 811.962 -0.649149 1.47115 0
M  V30 7997 O 813.152 -0.475645 1.67581 0
M  V30 7998 C 810.284 -0.822101 3.30839 0
M  V30 7999 H 811.477 0.927551 2.85196 0
M  V30 8000 H 809.03 0.518945 1.47434 0
M  V30 8001 H 809.765 -1.6438 2.79553 0
M  V30 8002 H 809.55 -0.264689 3.91206 0
M  V30 8003 H 811.04 -1.25226 3.98382 0
M  V30 8004 N 811.477 -1.49425 0.500989 0
M  V30 8005 C 812.409 -2.27037 -0.314159 0
M  V30 8006 C 813.422 -1.33578 -0.930626 0
M  V30 8007 O 814.611 -1.58861 -0.813968 0
M  V30 8008 C 811.711 -3.05968 -1.45729 0
M  V30 8009 C 810.884 -4.27 -0.948135 0
M  V30 8010 C 809.943 -4.87977 -1.96888 0
M  V30 8011 O 808.969 -5.48044 -1.53743 0
M  V30 8012 N 810.171 -4.77627 -3.29928 0
M  V30 8013 H 812.936 -2.97634 0.351336 0
M  V30 8014 H 810.497 -1.58427 0.333536 0
M  V30 8015 H 812.489 -3.43634 -2.1377 0
M  V30 8016 H 811.059 -2.37978 -2.02695 0
M  V30 8017 H 810.279 -3.94091 -0.0926311 0
M  V30 8018 H 811.567 -5.0541 -0.586362 0
M  V30 8019 H 810.965 -4.29926 -3.67669 0
M  V30 8020 H 809.522 -5.19478 -3.93682 0
M  V30 8021 N 812.955 -0.234822 -1.55841 0
M  V30 8022 C 814.366 0.270588 -1.84729 0
M  V30 8023 C 814.717 1.58494 -1.15646 0
M  V30 8024 O 813.842 2.12071 -0.430667 0
M  V30 8025 C 814.437 0.497733 -3.35124 0
M  V30 8026 C 812.996 0.947428 -3.64281 0
M  V30 8027 C 812.143 0.01787 -2.77294 0
M  V30 8028 H 815.094 -0.457691 -1.51957 0
M  V30 8029 H 815.115 1.34199 -3.56049 0
M  V30 8030 H 814.627 -0.459037 -3.85376 0
M  V30 8031 H 812.728 1.91709 -3.19497 0
M  V30 8032 H 812.841 0.812651 -4.72158 0
M  V30 8033 H 811.205 0.527071 -2.49187 0
M  V30 8034 H 811.988 -0.934056 -3.30349 0
M  V30 8035 N 814.433 1.57553 0.0384317 0
M  V30 8036 C 815.844 1.77258 0.586211 0
M  V30 8037 C 816.195 0.864706 1.76117 0
M  V30 8038 O 815.32 0.057141 2.16325 0
M  V30 8039 C 815.915 3.21453 1.07021 0
M  V30 8040 C 814.474 3.42387 1.56358 0
M  V30 8041 C 813.621 2.72801 0.497508 0
M  V30 8042 H 816.572 1.57585 -0.187796 0
M  V30 8043 H 816.593 3.27451 1.93794 0
M  V30 8044 H 816.105 3.87505 0.214851 0
M  V30 8045 H 814.206 2.81497 2.44111 0
M  V30 8046 H 814.319 4.50968 1.61754 0
M  V30 8047 H 812.683 2.36305 0.95038 0
M  V30 8048 H 813.466 3.41529 -0.348234 0
M  V30 8049 N 815.911 -0.310526 1.54511 0
M  V30 8050 C 817.322 -0.884142 1.64438 0
M  V30 8051 C 817.673 -1.88425 0.546855 0
M  V30 8052 O 816.798 -2.14049 -0.31811 0
M  V30 8053 C 817.393 -1.6104 2.9808 0
M  V30 8054 C 815.952 -2.13255 3.1016 0
M  V30 8055 C 815.099 -0.96213 2.60074 0
M  V30 8056 H 818.05 -0.0877666 1.58457 0
M  V30 8057 H 818.071 -2.47541 2.8897 0
M  V30 8058 H 817.583 -0.882255 3.77939 0
M  V30 8059 H 815.684 -2.89145 2.35002 0
M  V30 8060 H 815.797 -2.37361 4.16169 0
M  V30 8061 H 814.161 -1.34501 2.16291 0
M  V30 8062 H 814.944 -0.248098 3.42402 0
M  V30 8063 N 817.389 -1.46805 -0.573248 0
M  V30 8064 C 818.352 -1.57655 -1.66366 0
M  V30 8065 C 819.352 -0.452905 -1.5429 0
M  V30 8066 O 820.542 -0.717502 -1.58737 0
M  V30 8067 C 817.674 -1.50584 -3.05839 0
M  V30 8068 H 818.867 -2.54842 -1.581 0
M  V30 8069 H 816.42 -1.34756 -0.791868 0
M  V30 8070 H 817.155 -0.547127 -3.19651 0
M  V30 8071 H 816.94 -2.32118 -3.16012 0
M  V30 8072 H 818.43 -1.61282 -3.85199 0
M  V30 8073 N 818.867 0.818669 -1.34668 0
M  V30 8074 C 819.83 1.9114 -1.26483 0
M  V30 8075 C 820.83 1.598 -0.179044 0
M  V30 8076 O 822.02 1.6876 -0.431952 0
M  V30 8077 C 819.152 3.27285 -0.95381 0
M  V30 8078 H 820.345 1.9982 -2.23634 0
M  V30 8079 H 817.898 1.01314 -1.19018 0
M  V30 8080 H 818.633 3.24297 0.0143428 0
M  V30 8081 H 818.418 3.51416 -1.73924 0
M  V30 8082 H 819.908 4.07299 -0.921827 0
M  V30 8083 N 820.346 1.18468 1.03938 0
M  V30 8084 C 821.757 0.984808 1.58614 0
M  V30 8085 C 822.108 -0.465165 1.90606 0
M  V30 8086 O 821.233 -1.34274 1.69704 0
M  V30 8087 C 821.828 1.78135 2.8819 0
M  V30 8088 C 820.387 1.62579 3.39478 0
M  V30 8089 C 819.534 1.77501 2.13046 0
M  V30 8090 H 822.485 1.32993 0.865944 0
M  V30 8091 H 822.506 1.27119 3.58638 0
M  V30 8092 H 822.018 2.83661 2.64874 0
M  V30 8093 H 820.119 0.59595 3.67803 0
M  V30 8094 H 820.232 2.42463 4.13217 0
M  V30 8095 H 818.596 1.2046 2.24414 0
M  V30 8096 H 819.379 2.84464 1.92185 0
M  V30 8097 N 821.824 -1.22873 0.986916 0
M  V30 8098 C 822.787 -2.2281 0.537442 0
M  V30 8099 C 823.787 -1.56331 -0.37646 0
M  V30 8100 O 824.977 -1.73376 -0.169247 0
M  V30 8101 C 822.109 -3.40195 -0.219082 0
M  V30 8102 H 823.302 -2.64089 1.42116 0
M  V30 8103 H 820.855 -1.35819 0.773488 0
M  V30 8104 H 821.59 -3.04381 -1.11905 0
M  V30 8105 H 821.375 -3.89657 0.437026 0
M  V30 8106 H 822.865 -4.14326 -0.521926 0
M  V30 8107 N 823.302 -0.75937 -1.38099 0
M  V30 8108 C 824.55 -0.317485 -1.99591 0
M  V30 8109 C 824.871 1.10628 -1.60581 0
M  V30 8110 O 824.141 1.7575 -0.865378 0
M  V30 8111 H 822.721 -0.114397 -0.738189 0
M  V30 8112 H 825.383 -0.974749 -1.68774 0
M  V30 8113 H 824.479 -0.385227 -3.09713 0
M  V30 8114 N 824.78 1.49157 -0.508906 0
M  V30 8115 C 825.743 2.27784 0.25434 0
M  V30 8116 C 826.743 1.34132 0.88686 0
M  V30 8117 O 827.933 1.5722 0.750168 0
M  V30 8118 C 825.065 3.12347 1.36573 0
M  V30 8119 H 826.258 2.96718 -0.435714 0
M  V30 8120 H 823.811 1.54052 -0.264128 0
M  V30 8121 H 824.546 2.47997 2.08969 0
M  V30 8122 H 824.331 3.81213 0.917543 0
M  V30 8123 H 825.821 3.71712 1.90315 0
M  V30 8124 N 826.258 0.243083 1.55714 0
M  V30 8125 C 827.669 -0.260788 1.8487 0
M  V30 8126 C 828.02 -1.57879 1.16485 0
M  V30 8127 O 827.145 -2.1184 0.441908 0
M  V30 8128 C 827.74 -0.479954 3.35383 0
M  V30 8129 C 826.299 -0.928096 3.64778 0
M  V30 8130 C 825.446 -0.00316416 2.773 0
M  V30 8131 H 828.397 0.465743 1.51712 0
M  V30 8132 H 828.418 -1.32308 3.56756 0
M  V30 8133 H 827.93 0.479468 3.85127 0
M  V30 8134 H 826.031 -1.90012 3.20509 0
M  V30 8135 H 826.144 -0.7876 4.72582 0
M  V30 8136 H 824.508 -0.513849 2.49463 0
M  V30 8137 H 825.291 0.951562 3.29849 0
M  V30 8138 N 827.736 -1.57571 -0.0300757 0
M  V30 8139 C 828.964 -1.93485 -0.732891 0
M  V30 8140 C 829.379 -0.842758 -1.68947 0
M  V30 8141 O 828.736 0.180904 -1.81601 0
M  V30 8142 C 828.787 -3.29328 -1.49082 0
M  V30 8143 O 828.508 -4.34341 -0.572639 0
M  V30 8144 C 830.009 -3.79517 -2.29088 0
M  V30 8145 H 827.229 -0.638588 -0.206026 0
M  V30 8146 H 829.773 -2.04496 0.0120966 0
M  V30 8147 H 827.928 -3.19716 -2.1877 0
M  V30 8148 H 828.342 -5.12748 -1.10406 0
M  V30 8149 H 829.816 -4.77081 -2.77665 0
M  V30 8150 H 830.293 -3.10659 -3.10464 0
M  V30 8151 H 830.899 -3.92208 -1.64477 0
M  V30 8152 N 829.214 0.302327 -1.54673 0
M  V30 8153 C 830.442 1.05669 -1.77881 0
M  V30 8154 C 830.857 1.80983 -0.537648 0
M  V30 8155 O 830.214 1.7573 0.492467 0
M  V30 8156 C 830.265 2.03828 -2.98557 0
M  V30 8157 O 829.986 1.3157 -4.17877 0
M  V30 8158 C 831.487 2.91314 -3.34143 0
M  V30 8159 H 828.707 0.313436 -0.593295 0
M  V30 8160 H 831.251 0.342003 -2.0162 0
M  V30 8161 H 829.406 2.70801 -2.7703 0
M  V30 8162 H 829.82 1.97481 -4.85903 0
M  V30 8163 H 831.294 3.56042 -4.21827 0
M  V30 8164 H 831.771 3.59544 -2.52239 0
M  V30 8165 H 832.377 2.29874 -3.57824 0
M  V30 8166 N 830.692 1.47107 0.565454 0
M  V30 8167 C 831.92 1.56909 1.3486 0
M  V30 8168 C 832.335 0.216312 1.87557 0
M  V30 8169 O 831.692 -0.789168 1.64555 0
M  V30 8170 C 831.743 2.58776 2.52423 0
M  V30 8171 O 831.464 3.888 2.01906 0
M  V30 8172 C 832.965 2.78683 3.44747 0
M  V30 8173 H 830.185 0.530096 0.411387 0
M  V30 8174 H 832.729 1.92658 0.685782 0
M  V30 8175 H 830.884 2.25983 3.1466 0
M  V30 8176 H 831.298 4.44393 2.78595 0
M  V30 8177 H 832.772 3.53842 4.23674 0
M  V30 8178 H 833.249 1.86208 3.97773 0
M  V30 8179 H 833.855 3.12641 2.88333 0
M  V30 8180 N 832.17 -0.811516 1.35101 0
M  V30 8181 C 833.102 -1.93102 1.23468 0
M  V30 8182 C 834.115 -1.62021 0.159095 0
M  V30 8183 O 835.304 -1.73682 0.411945 0
M  V30 8184 C 832.404 -3.27345 0.877404 0
M  V30 8185 C 831.577 -3.86368 2.05033 0
M  V30 8186 C 830.636 -4.99009 1.66963 0
M  V30 8187 O 829.662 -5.16698 2.38772 0
M  V30 8188 N 830.864 -5.7749 0.590394 0
M  V30 8189 H 833.629 -2.0361 2.19916 0
M  V30 8190 H 831.19 -0.988687 1.28205 0
M  V30 8191 H 833.182 -4.00163 0.604298 0
M  V30 8192 H 831.752 -3.126 0.00275267 0
M  V30 8193 H 830.972 -3.05804 2.48752 0
M  V30 8194 H 832.26 -4.22533 2.83449 0
M  V30 8195 H 831.658 -5.657 -0.00633259 0
M  V30 8196 H 830.215 -6.50708 0.377055 0
M  V30 8197 N 833.648 -1.19017 -1.03309 0
M  V30 8198 C 834.876 -1.01534 -1.80273 0
M  V30 8199 C 835.291 0.43605 -1.83696 0
M  V30 8200 O 834.648 1.30288 -1.27794 0
M  V30 8201 C 834.699 -1.5722 -3.25522 0
M  V30 8202 O 834.42 -2.96677 -3.22358 0
M  V30 8203 C 835.921 -1.4446 -4.19102 0
M  V30 8204 H 833.141 -0.358094 -0.567459 0
M  V30 8205 H 835.685 -1.57738 -1.3015 0
M  V30 8206 H 833.84 -1.05174 -3.7285 0
M  V30 8207 H 834.254 -3.22795 -4.13405 0
M  V30 8208 H 835.728 -1.88209 -5.18923 0
M  V30 8209 H 836.205 -0.394471 -4.37425 0
M  V30 8210 H 836.811 -1.95616 -3.77643 0
M  V30 8211 N 835.127 1.22348 -0.993418 0
M  V30 8212 C 836.075 2.26315 -0.537052 0
M  V30 8213 C 837.069 1.643 0.412545 0
M  V30 8214 O 838.275 1.77729 0.285008 0
M  V30 8215 H 834.65 0.735792 -0.155286 0
M  V30 8216 H 836.621 2.62157 -1.42535 0
M  V30 8217 C 835.37 3.47449 0.132118 0
M  V30 8218 H 834.693 3.9543 -0.589519 0
M  V30 8219 H 836.133 4.21965 0.414884 0
M  V30 8220 C 834.592 3.07893 1.36761 0
M  V30 8221 O 835.122 3.17338 2.46291 0
M  V30 8222 N 833.328 2.62672 1.24305 0
M  V30 8223 H 832.875 2.55186 0.351826 0
M  V30 8224 H 832.833 2.36574 2.07076 0
M  V30 8225 N 836.605 0.766683 1.37694 0
M  V30 8226 C 837.853 0.328065 1.9942 0
M  V30 8227 C 838.174 -1.09775 1.61166 0
M  V30 8228 O 837.444 -1.75288 0.874686 0
M  V30 8229 H 836.024 0.11831 0.737572 0
M  V30 8230 H 838.686 0.983686 1.68255 0
M  V30 8231 H 837.782 0.401647 3.09505 0
M  V30 8232 N 838.083 -1.48885 0.516809 0
M  V30 8233 C 839.015 -2.27357 -0.290061 0
M  V30 8234 C 840.028 -1.34558 -0.916406 0
M  V30 8235 O 841.217 -1.59715 -0.797073 0
M  V30 8236 C 838.317 -3.07496 -1.42476 0
M  V30 8237 C 837.49 -4.27982 -0.902793 0
M  V30 8238 C 836.549 -4.90038 -1.91701 0
M  V30 8239 O 835.575 -5.49643 -1.47922 0
M  V30 8240 N 836.777 -4.811 -3.24843 0
M  V30 8241 H 839.542 -2.97244 0.382884 0
M  V30 8242 H 837.103 -1.58064 0.35032 0
M  V30 8243 H 839.095 -3.45882 -2.10113 0
M  V30 8244 H 837.665 -2.40115 -2.00159 0
M  V30 8245 H 836.885 -3.94167 -0.0508272 0
M  V30 8246 H 838.173 -5.06003 -0.532723 0
M  V30 8247 H 837.571 -4.33801 -3.63088 0
M  V30 8248 H 836.128 -5.23625 -3.8815 0
M  V30 8249 N 839.561 -0.251338 -1.55583 0
M  V30 8250 C 840.809 0.371434 -1.98657 0
M  V30 8251 C 841.13 1.58143 -1.14087 0
M  V30 8252 O 840.4 1.94607 -0.224708 0
M  V30 8253 H 838.98 0.140225 -0.733721 0
M  V30 8254 H 841.642 -0.351157 -1.9171 0
M  V30 8255 H 840.738 0.677554 -3.04657 0
M  V30 8256 N 841.039 1.57585 0.0217189 0
M  V30 8257 C 842.316 1.80779 0.74687 0
M  V30 8258 C 842.696 0.851163 1.9318 0
M  V30 8259 O 842.044 -0.105039 2.28258 0
M  V30 8260 C 842.254 3.28696 1.17302 0
M  V30 8261 C 843.602 3.93871 1.58589 0
M  V30 8262 O 844.626 3.3289 1.2674 0
M  V30 8263 O 843.485 5.01254 2.1773 0
M  V30 8264 H 840.579 0.743666 0.361786 0
M  V30 8265 H 843.125 1.697 -0.00206785 0
M  V30 8266 H 841.897 3.89927 0.327453 0
M  V30 8267 H 841.52 3.44692 1.98174 0
M  V30 8268 N 842.517 -0.29412 1.54831 0
M  V30 8269 C 843.449 -1.38476 1.82639 0
M  V30 8270 C 844.462 -1.46517 0.709694 0
M  V30 8271 O 845.651 -1.48712 0.987269 0
M  V30 8272 C 842.751 -2.76791 1.95551 0
M  V30 8273 C 841.924 -2.91599 3.26019 0
M  V30 8274 C 840.983 -4.10456 3.29261 0
M  V30 8275 O 840.009 -4.02214 4.02756 0
M  V30 8276 N 841.211 -5.21422 2.55145 0
M  V30 8277 H 843.976 -1.14974 2.76769 0
M  V30 8278 H 841.537 -0.484206 1.5449 0
M  V30 8279 H 843.529 -3.5456 1.95113 0
M  V30 8280 H 842.099 -2.93209 1.08384 0
M  V30 8281 H 841.319 -2.00886 3.39173 0
M  V30 8282 H 842.607 -2.98409 4.12104 0
M  V30 8283 H 842.005 -5.31 1.95078 0
M  V30 8284 H 840.562 -5.97501 2.60454 0
M  V30 8285 N 843.995 -1.47404 -0.557645 0
M  V30 8286 C 844.927 -1.55917 -1.67995 0
M  V30 8287 C 845.94 -0.445411 -1.56588 0
M  V30 8288 O 847.129 -0.714999 -1.63554 0
M  V30 8289 C 844.229 -1.44697 -3.06457 0
M  V30 8290 C 843.402 -2.70633 -3.43622 0
M  V30 8291 C 842.461 -2.53256 -4.61246 0
M  V30 8292 O 841.487 -3.27068 -4.65849 0
M  V30 8293 N 842.689 -1.61053 -5.57711 0
M  V30 8294 H 845.454 -2.52694 -1.61139 0
M  V30 8295 H 843.015 -1.43778 -0.744271 0
M  V30 8296 H 845.007 -1.30806 -3.82978 0
M  V30 8297 H 843.577 -0.560039 -3.07542 0
M  V30 8298 H 842.797 -2.99288 -2.56555 0
M  V30 8299 H 844.085 -3.5424 -3.65228 0
M  V30 8300 H 843.483 -1.00235 -5.56749 0
M  V30 8301 H 842.04 -1.53115 -6.33561 0
M  V30 8302 N 845.473 0.80434 -1.35529 0
M  V30 8303 C 846.421 1.93769 -1.28671 0
M  V30 8304 C 847.415 1.68428 -0.181222 0
M  V30 8305 O 848.621 1.76617 -0.347338 0
M  V30 8306 H 844.996 0.636663 -0.400206 0
M  V30 8307 H 846.967 1.96673 -2.24415 0
M  V30 8308 C 845.716 3.30572 -1.07784 0
M  V30 8309 H 845.039 3.5063 -1.9209 0
M  V30 8310 H 846.479 4.1027 -1.07027 0
M  V30 8311 C 844.938 3.36193 0.218213 0
M  V30 8312 O 845.468 3.82941 1.21323 0
M  V30 8313 N 843.674 2.89455 0.257761 0
M  V30 8314 H 843.221 2.51604 -0.552562 0
M  V30 8315 H 843.179 2.93597 1.12465 0
M  V30 8316 N 846.951 1.19563 1.02676 0
M  V30 8317 C 848.362 1.00158 1.57561 0
M  V30 8318 C 848.713 -0.444922 1.91089 0
M  V30 8319 O 847.838 -1.32466 1.71119 0
M  V30 8320 C 848.433 1.81181 2.86284 0
M  V30 8321 C 846.992 1.66171 3.37734 0
M  V30 8322 C 846.139 1.7975 2.11152 0
M  V30 8323 H 849.09 1.33904 0.85179 0
M  V30 8324 H 849.111 1.30916 3.57269 0
M  V30 8325 H 848.623 2.86454 2.6185 0
M  V30 8326 H 846.724 0.634927 3.6715 0
M  V30 8327 H 846.837 2.46832 4.10622 0
M  V30 8328 H 845.201 1.22833 2.23123 0
M  V30 8329 H 845.984 2.86487 1.89157 0
M  V30 8330 N 848.429 -1.21819 0.999893 0
M  V30 8331 C 849.392 -2.22227 0.561044 0
M  V30 8332 C 850.392 -1.56722 -0.359858 0
M  V30 8333 O 851.582 -1.73546 -0.150848 0
M  V30 8334 C 848.714 -3.40409 -0.182987 0
M  V30 8335 H 849.907 -2.62567 1.44909 0
M  V30 8336 H 847.46 -1.34991 0.78785 0
M  V30 8337 H 848.195 -3.05551 -1.08671 0
M  V30 8338 H 847.98 -3.89171 0.47833 0
M  V30 8339 H 849.47 -4.14856 -0.477952 0
M  V30 8340 N 849.908 -0.773975 -1.37286 0
M  V30 8341 C 851.319 -0.404433 -1.82267 0
M  V30 8342 C 851.67 1.06971 -1.64474 0
M  V30 8343 O 850.795 1.82867 -1.15708 0
M  V30 8344 C 851.39 -0.727298 -3.30902 0
M  V30 8345 C 849.949 -0.410784 -3.74152 0
M  V30 8346 C 849.096 -0.969983 -2.59782 0
M  V30 8347 H 852.047 -0.968437 -1.25726 0
M  V30 8348 H 852.068 -0.0127575 -3.80498 0
M  V30 8349 H 851.58 -1.80026 -3.4382 0
M  V30 8350 H 849.681 0.65477 -3.66802 0
M  V30 8351 H 849.794 -0.920592 -4.70172 0
M  V30 8352 H 848.158 -0.394094 -2.51633 0
M  V30 8353 H 848.941 -2.04839 -2.75492 0
M  V30 8354 N 851.386 1.48609 -0.524698 0
M  V30 8355 C 852.349 2.28041 0.230166 0
M  V30 8356 C 853.349 1.35065 0.872584 0
M  V30 8357 O 854.539 1.58007 0.73345 0
M  V30 8358 C 851.671 3.13778 1.33252 0
M  V30 8359 H 852.864 2.96239 -0.467161 0
M  V30 8360 H 850.417 1.53763 -0.280452 0
M  V30 8361 H 851.152 2.502 2.06327 0
M  V30 8362 H 850.937 3.82165 0.877058 0
M  V30 8363 H 852.427 3.7371 1.86362 0
M  V30 8364 N 852.864 0.259585 1.55447 0
M  V30 8365 C 854.112 -0.360893 1.98852 0
M  V30 8366 C 854.433 -1.57535 1.14924 0
M  V30 8367 O 853.703 -1.94485 0.235025 0
M  V30 8368 H 852.283 -0.136332 0.734454 0
M  V30 8369 H 854.945 0.361319 1.91522 0
M  V30 8370 H 854.041 -0.661388 3.05012 0
M  V30 8371 N 854.342 -1.57594 -0.0133615 0
M  V30 8372 C 855.274 -2.04402 -1.03695 0
M  V30 8373 C 856.287 -0.959546 -1.31516 0
M  V30 8374 O 857.476 -1.23659 -1.28727 0
M  V30 8375 C 854.576 -2.41766 -2.37491 0
M  V30 8376 C 853.749 -3.72785 -2.28802 0
M  V30 8377 C 852.808 -3.97165 -3.45176 0
M  V30 8378 O 851.834 -4.68013 -3.23963 0
M  V30 8379 N 853.036 -3.44021 -4.67579 0
M  V30 8380 H 855.801 -2.92833 -0.637874 0
M  V30 8381 H 853.362 -1.60647 -0.20101 0
M  V30 8382 H 855.354 -2.55201 -3.14093 0
M  V30 8383 H 853.924 -1.58924 -2.69188 0
M  V30 8384 H 853.144 -3.69555 -1.37197 0
M  V30 8385 H 854.432 -4.58704 -2.20154 0
M  V30 8386 H 853.83 -2.86623 -4.87713 0
M  V30 8387 H 852.387 -3.62808 -5.41492 0
M  V30 8388 N 855.82 0.285905 -1.54985 0
M  V30 8389 C 857.066 1.02071 -1.75241 0
M  V30 8390 C 857.399 1.864 -0.544842 0
M  V30 8391 O 856.674 1.89034 0.457844 0
M  V30 8392 C 856.957 1.91409 -3.05016 0
M  V30 8393 C 856.81 1.10158 -4.36102 0
M  V30 8394 C 858.129 2.90335 -3.30747 0
M  V30 8395 H 855.248 0.369663 -0.637588 0
M  V30 8396 H 857.89 0.294114 -1.8771 0
M  V30 8397 H 856.04 2.53362 -2.94517 0
M  V30 8398 H 857.712 0.503756 -4.58541 0
M  V30 8399 H 855.955 0.404675 -4.31908 0
M  V30 8400 H 856.626 1.75956 -5.23205 0
M  V30 8401 H 859.102 2.38514 -3.40955 0
M  V30 8402 H 857.978 3.49997 -4.2284 0
M  V30 8403 H 858.239 3.64787 -2.49765 0
M  V30 8404 N 857.298 1.47698 0.54982 0
M  V30 8405 C 858.575 1.45185 1.31075 0
M  V30 8406 C 858.955 0.152768 2.10547 0
M  V30 8407 O 858.303 -0.865706 2.11466 0
M  V30 8408 C 858.513 2.70192 2.20902 0
M  V30 8409 C 859.861 3.1771 2.81683 0
M  V30 8410 O 860.885 2.70971 2.312 0
M  V30 8411 O 859.744 3.98986 3.7346 0
M  V30 8412 H 856.838 0.57892 0.590577 0
M  V30 8413 H 859.384 1.59908 0.568112 0
M  V30 8414 H 858.156 3.56269 1.61828 0
M  V30 8415 H 857.779 2.58091 3.02448 0
M  V30 8416 N 858.776 -0.797141 1.35954 0
M  V30 8417 C 860.006 -1.5835 1.32698 0
M  V30 8418 C 860.414 -1.88959 -0.0955298 0
M  V30 8419 O 859.757 -1.49987 -1.06064 0
M  V30 8420 C 859.819 -2.93529 2.0756 0
M  V30 8421 C 859.483 -2.85688 3.56695 0
M  V30 8422 C 860.48 -2.58467 4.51099 0
M  V30 8423 C 858.165 -3.04508 3.99475 0
M  V30 8424 C 860.159 -2.50157 5.8626 0
M  V30 8425 C 857.846 -2.9582 5.34728 0
M  V30 8426 C 858.844 -2.68681 6.27933 0
M  V30 8427 O 858.532 -2.59973 7.60703 0
M  V30 8428 H 858.264 -0.49807 0.457059 0
M  V30 8429 H 860.818 -0.997889 1.79531 0
M  V30 8430 H 859.048 -3.54111 1.55378 0
M  V30 8431 H 860.737 -3.54744 1.9726 0
M  V30 8432 H 861.503 -2.43638 4.19363 0
M  V30 8433 H 857.382 -3.24641 3.27306 0
M  V30 8434 H 860.926 -2.28894 6.58979 0
M  V30 8435 H 856.823 -3.10211 5.66074 0
M  V30 8436 H 857.591 -2.75511 7.70737 0
M  V30 8437 N 860.254 -1.20106 -1.0204 0
M  V30 8438 C 861.482 -1.0344 -1.79186 0
M  V30 8439 C 861.897 0.416542 -1.84148 0
M  V30 8440 O 861.254 1.28925 -1.29168 0
M  V30 8441 C 861.305 -1.60663 -3.23836 0
M  V30 8442 O 861.026 -3.00079 -3.19193 0
M  V30 8443 C 862.527 -1.48897 -4.17546 0
M  V30 8444 H 859.747 -0.364093 -0.563629 0
M  V30 8445 H 862.291 -1.5911 -1.28469 0
M  V30 8446 H 860.446 -1.09122 -3.71714 0
M  V30 8447 H 860.86 -3.27162 -4.09958 0
M  V30 8448 H 862.334 -1.93703 -5.16898 0
M  V30 8449 H 862.811 -0.440843 -4.36982 0
M  V30 8450 H 863.417 -1.9961 -3.75547 0
M  V30 8451 N 861.732 1.21287 -1.00634 0
M  V30 8452 C 862.679 2.23705 -0.567876 0
M  V30 8453 C 863.649 1.61043 0.406753 0
M  V30 8454 O 864.834 1.88289 0.308499 0
M  V30 8455 C 861.974 3.44961 0.097996 0
M  V30 8456 C 861.087 4.22091 -0.919972 0
M  V30 8457 C 860.222 5.30718 -0.226222 0
M  V30 8458 C 859.261 5.99581 -1.23165 0
M  V30 8459 N 858.398 6.99821 -0.565278 0
M  V30 8460 H 863.238 2.60571 -1.44592 0
M  V30 8461 H 860.775 1.28049 -0.724006 0
M  V30 8462 H 862.733 4.1418 0.501097 0
M  V30 8463 H 861.363 3.08818 0.939744 0
M  V30 8464 H 860.415 3.52038 -1.44131 0
M  V30 8465 H 861.727 4.69476 -1.68505 0
M  V30 8466 H 860.881 6.06253 0.232917 0
M  V30 8467 H 859.62 4.84343 0.571247 0
M  V30 8468 H 858.625 5.22816 -1.70128 0
M  V30 8469 H 859.85 6.48042 -2.03022 0
M  V30 8470 H 857.796 6.55656 0.212508 0
M  V30 8471 H 857.713 7.4528 -1.26858 0
M  V30 8472 H 858.981 7.79393 -0.129389 0
M  V30 8473 N 863.21 0.781244 1.36873 0
M  V30 8474 C 864.173 0.180094 2.28491 0
M  V30 8475 C 865.173 -0.617798 1.48458 0
M  V30 8476 O 866.363 -0.439991 1.68552 0
M  V30 8477 C 863.495 -0.751741 3.32508 0
M  V30 8478 H 864.688 0.987837 2.83164 0
M  V30 8479 H 862.241 0.550102 1.463 0
M  V30 8480 H 862.976 -1.58413 2.82977 0
M  V30 8481 H 862.761 -0.181649 3.91679 0
M  V30 8482 H 864.251 -1.16748 4.00949 0
M  V30 8483 N 864.689 -1.48329 0.532571 0
M  V30 8484 C 865.935 -2.03399 0.00755104 0
M  V30 8485 C 866.29 -1.40213 -1.3175 0
M  V30 8486 O 865.583 -0.539633 -1.83844 0
M  V30 8487 C 865.777 -3.57 -0.168943 0
M  V30 8488 C 865.606 -4.35077 1.13745 0
M  V30 8489 C 864.376 -4.75915 1.69803 0
M  V30 8490 C 866.574 -4.71734 2.04869 0
M  V30 8491 N 864.556 -5.38538 2.94703 0
M  V30 8492 C 865.927 -5.34403 3.14346 0
M  V30 8493 C 867.982 -4.53665 2.05164 0
M  V30 8494 C 866.685 -5.80912 4.24186 0
M  V30 8495 C 868.711 -5.01157 3.13999 0
M  V30 8496 C 868.073 -5.63853 4.22195 0
M  V30 8497 H 864.172 -0.780743 0.0443253 0
M  V30 8498 H 866.756 -1.81119 0.714423 0
M  V30 8499 H 864.927 -3.79099 -0.844903 0
M  V30 8500 H 866.659 -3.98708 -0.693804 0
M  V30 8501 H 863.414 -4.57103 1.23909 0
M  V30 8502 H 863.838 -5.74413 3.583 0
M  V30 8503 H 868.48 -4.04571 1.22808 0
M  V30 8504 H 866.198 -6.2901 5.07318 0
M  V30 8505 H 869.784 -4.88965 3.15285 0
M  V30 8506 H 868.664 -5.99935 5.05023 0
M  V30 8507 N 866.167 -0.267825 -1.55308 0
M  V30 8508 C 867.077 0.633055 -2.25897 0
M  V30 8509 C 868.093 1.17613 -1.28231 0
M  V30 8510 O 869.269 1.20797 -1.61153 0
M  V30 8511 C 866.334 1.80397 -2.96071 0
M  V30 8512 C 865.395 1.29829 -4.09198 0
M  V30 8513 C 864.628 2.4134 -4.76016 0
M  V30 8514 O 864.851 3.60537 -4.42006 0
M  V30 8515 O 863.785 2.09909 -5.64111 0
M  V30 8516 H 867.611 0.0614381 -3.03638 0
M  V30 8517 H 865.196 -0.0355072 -1.49358 0
M  V30 8518 H 867.078 2.48685 -3.40197 0
M  V30 8519 H 865.753 2.36281 -2.21253 0
M  V30 8520 H 864.66 0.582086 -3.69544 0
M  V30 8521 H 865.993 0.785288 -4.85895 0
M  V30 8522 N 867.645 1.57599 0.00500368 0
M  V30 8523 C 868.555 2.11532 1.01446 0
M  V30 8524 C 869.571 1.05941 1.3803 0
M  V30 8525 O 870.747 1.37815 1.46864 0
M  V30 8526 C 867.812 2.60382 2.28915 0
M  V30 8527 C 866.873 3.80554 1.98689 0
M  V30 8528 C 866.106 4.27064 3.20081 0
M  V30 8529 O 866.329 3.72939 4.31593 0
M  V30 8530 O 865.263 5.1927 3.04371 0
M  V30 8531 H 869.089 2.97993 0.586011 0
M  V30 8532 H 866.674 1.47718 0.223519 0
M  V30 8533 H 868.556 2.92024 3.03809 0
M  V30 8534 H 867.231 1.77022 2.71007 0
M  V30 8535 H 866.138 3.53893 1.21286 0
M  V30 8536 H 867.471 4.64972 1.61437 0
M  V30 8537 N 869.123 -0.277682 1.55134 0
M  V30 8538 C 870.353 -1.02677 1.79279 0
M  V30 8539 C 870.761 -1.80599 0.563962 0
M  V30 8540 O 870.104 -1.77416 -0.476378 0
M  V30 8541 C 870.166 -2.03617 2.96277 0
M  V30 8542 C 869.83 -1.44676 4.33495 0
M  V30 8543 C 870.827 -0.864811 5.12657 0
M  V30 8544 C 868.512 -1.47537 4.80144 0
M  V30 8545 C 870.506 -0.319322 6.366 0
M  V30 8546 C 868.193 -0.926016 6.04043 0
M  V30 8547 C 869.191 -0.348988 6.82108 0
M  V30 8548 O 868.879 0.191964 8.03671 0
M  V30 8549 H 868.611 -0.309232 0.601125 0
M  V30 8550 H 871.165 -0.315308 2.02965 0
M  V30 8551 H 869.395 -2.78509 2.68272 0
M  V30 8552 H 871.084 -2.64616 3.07788 0
M  V30 8553 H 871.85 -0.835438 4.7775 0
M  V30 8554 H 867.729 -1.91389 4.19394 0
M  V30 8555 H 871.273 0.131709 6.97476 0
M  V30 8556 H 867.17 -0.952613 6.38432 0
M  V30 8557 H 867.938 0.0808779 8.1846 0
M  V30 8558 N 870.601 -1.47988 -0.541979 0
M  V30 8559 C 871.831 -1.58804 -1.32155 0
M  V30 8560 C 872.239 -0.242893 -1.87634 0
M  V30 8561 O 871.582 0.776239 -1.66494 0
M  V30 8562 C 871.644 -2.56567 -2.51821 0
M  V30 8563 C 871.308 -4.01915 -2.17517 0
M  V30 8564 C 872.305 -4.89954 -1.73901 0
M  V30 8565 C 869.99 -4.47365 -2.28408 0
M  V30 8566 C 871.984 -6.21467 -1.41625 0
M  V30 8567 C 869.671 -5.78902 -1.95745 0
M  V30 8568 C 870.669 -6.65775 -1.52423 0
M  V30 8569 O 870.357 -7.94866 -1.20183 0
M  V30 8570 H 870.089 -0.538536 -0.408601 0
M  V30 8571 H 872.643 -1.94446 -0.661818 0
M  V30 8572 H 870.873 -2.16023 -3.20735 0
M  V30 8573 H 872.562 -2.57347 -3.13891 0
M  V30 8574 H 873.328 -4.56082 -1.64966 0
M  V30 8575 H 869.207 -3.79942 -2.61084 0
M  V30 8576 H 872.751 -6.8923 -1.07738 0
M  V30 8577 H 868.648 -6.12311 -2.04316 0
M  V30 8578 H 869.416 -8.07509 -1.33683 0
M  V30 8579 N 872.079 0.78992 -1.36375 0
M  V30 8580 C 873.026 1.90254 -1.3066 0
M  V30 8581 C 873.996 1.65171 -0.17539 0
M  V30 8582 O 875.181 1.87338 -0.361824 0
M  V30 8583 C 872.321 3.27057 -1.10125 0
M  V30 8584 C 871.434 3.64215 -2.32317 0
M  V30 8585 C 870.569 4.90134 -2.04798 0
M  V30 8586 C 869.608 5.19969 -3.22953 0
M  V30 8587 N 868.745 6.37071 -2.95102 0
M  V30 8588 H 873.585 1.94474 -2.25796 0
M  V30 8589 H 871.122 0.951022 -1.12223 0
M  V30 8590 H 873.08 4.05947 -0.962453 0
M  V30 8591 H 871.71 3.22261 -0.186444 0
M  V30 8592 H 870.762 2.80454 -2.57002 0
M  V30 8593 H 872.074 3.82212 -3.20492 0
M  V30 8594 H 871.228 5.76888 -1.87845 0
M  V30 8595 H 869.967 4.74205 -1.13932 0
M  V30 8596 H 868.972 4.31699 -3.40465 0
M  V30 8597 H 870.197 5.37817 -4.14644 0
M  V30 8598 H 868.143 6.22535 -2.06848 0
M  V30 8599 H 868.06 6.55398 -3.76815 0
M  V30 8600 H 869.328 7.26808 -2.81727 0
M  V30 8601 N 873.557 1.20646 1.01402 0
M  V30 8602 C 874.504 0.957618 2.09996 0
M  V30 8603 C 875.474 -0.113115 1.65714 0
M  V30 8604 O 876.659 0.032142 1.90773 0
M  V30 8605 C 873.799 0.5186 3.41181 0
M  V30 8606 C 872.912 1.65777 3.98926 0
M  V30 8607 C 872.047 1.16881 5.18182 0
M  V30 8608 C 871.086 2.2809 5.68015 0
M  V30 8609 N 870.223 1.80392 6.7853 0
M  V30 8610 H 875.063 1.88732 2.30617 0
M  V30 8611 H 872.6 0.940703 1.13089 0
M  V30 8612 H 874.558 0.245367 4.16478 0
M  V30 8613 H 873.188 -0.3741 3.20625 0
M  V30 8614 H 872.24 2.04586 3.207 0
M  V30 8615 H 873.552 2.49507 4.31912 0
M  V30 8616 H 872.706 0.851694 6.00692 0
M  V30 8617 H 871.445 0.301434 4.86768 0
M  V30 8618 H 870.45 2.60614 4.84108 0
M  V30 8619 H 871.675 3.15308 6.01463 0
M  V30 8620 H 869.621 0.959856 6.4894 0
M  V30 8621 H 869.538 2.57701 7.10722 0
M  V30 8622 H 870.806 1.51688 7.64598 0
M  V30 8623 N 875.035 -1.20752 1.01276 0
M  V30 8624 C 875.968 -2.22091 0.524472 0
M  V30 8625 C 876.946 -1.5692 -0.426017 0
M  V30 8626 O 878.13 -1.8528 -0.346919 0
M  V30 8627 C 875.257 -3.37868 -0.237224 0
M  V30 8628 C 874.303 -4.21327 0.662236 0
M  V30 8629 S 875.136 -4.91352 2.12916 0
M  V30 8630 C 876.292 -6.10553 1.37752 0
M  V30 8631 H 876.525 -2.63166 1.38315 0
M  V30 8632 H 874.058 -1.30742 0.821332 0
M  V30 8633 H 876.016 -4.04985 -0.670599 0
M  V30 8634 H 874.677 -2.95261 -1.07143 0
M  V30 8635 H 873.87 -5.03944 0.0751085 0
M  V30 8636 H 873.472 -3.59445 1.03322 0
M  V30 8637 H 875.764 -6.74322 0.655491 0
M  V30 8638 H 876.707 -6.73717 2.17969 0
M  V30 8639 H 877.115 -5.57566 0.882088 0
M  V30 8640 N 876.513 -0.788492 -1.36457 0
M  V30 8641 C 877.761 -0.359749 -1.98872 0
M  V30 8642 C 878.082 1.07197 -1.62892 0
M  V30 8643 O 877.352 1.73875 -0.902463 0
M  V30 8644 H 875.932 -0.130029 -0.735596 0
M  V30 8645 H 878.594 -1.01033 -1.66668 0
M  V30 8646 H 877.69 -0.450835 -3.08827 0
M  V30 8647 N 877.991 1.48044 -0.54043 0
M  V30 8648 C 878.923 2.2779 0.253854 0
M  V30 8649 C 879.936 1.35999 0.894883 0
M  V30 8650 O 881.125 1.60963 0.771563 0
M  V30 8651 C 878.225 3.09724 1.37566 0
M  V30 8652 C 877.398 4.29364 0.83459 0
M  V30 8653 C 876.457 4.93026 1.83881 0
M  V30 8654 O 875.483 5.51927 1.39159 0
M  V30 8655 N 876.685 4.86207 3.17149 0
M  V30 8656 H 879.45 2.96597 -0.430125 0
M  V30 8657 H 877.011 1.57487 -0.375423 0
M  V30 8658 H 879.003 3.49181 2.04584 0
M  V30 8659 H 877.573 2.43269 1.96314 0
M  V30 8660 H 876.793 3.94198 -0.0118878 0
M  V30 8661 H 878.081 5.06787 0.452155 0
M  V30 8662 H 877.479 4.39523 3.56141 0
M  V30 8663 H 876.036 5.29733 3.79771 0
M  V30 8664 N 879.47 0.276058 1.55163 0
M  V30 8665 C 880.433 -0.597924 2.21263 0
M  V30 8666 C 881.433 -1.0806 1.19078 0
M  V30 8667 O 882.623 -0.980626 1.43977 0
M  V30 8668 C 879.755 -1.82503 2.87933 0
M  V30 8669 H 880.948 -0.0207769 2.99893 0
M  V30 8670 H 878.501 0.0266823 1.56277 0
M  V30 8671 H 879.236 -2.44266 2.13318 0
M  V30 8672 H 879.021 -1.48683 3.62816 0
M  V30 8673 H 880.511 -2.44651 3.38431 0
M  V30 8674 N 880.948 -1.576 0.00335426 0
M  V30 8675 C 882.194 -1.90996 -0.681799 0
M  V30 8676 C 882.527 -0.877643 -1.73237 0
M  V30 8677 O 881.802 0.103183 -1.94226 0
M  V30 8678 C 882.085 -3.34961 -1.32187 0
M  V30 8679 C 881.938 -4.48911 -0.28261 0
M  V30 8680 C 883.257 -3.78408 -2.24711 0
M  V30 8681 H 880.376 -0.694596 -0.246386 0
M  V30 8682 H 883.018 -1.89919 0.055336 0
M  V30 8683 H 881.168 -3.36008 -1.95014 0
M  V30 8684 H 882.84 -4.59999 0.346241 0
M  V30 8685 H 881.083 -4.32 0.394768 0
M  V30 8686 H 881.754 -5.46609 -0.769576 0
M  V30 8687 H 884.23 -3.78934 -1.71897 0
M  V30 8688 H 883.106 -4.79885 -2.66461 0
M  V30 8689 H 883.367 -3.12464 -3.1276 0
M  V30 8690 N 882.426 0.269451 -1.5528 0
M  V30 8691 C 883.837 0.840233 -1.66724 0
M  V30 8692 C 884.188 1.86909 -0.596621 0
M  V30 8693 O 883.313 2.14817 0.261246 0
M  V30 8694 C 883.908 1.5308 -3.02245 0
M  V30 8695 C 882.467 2.04957 -3.15705 0
M  V30 8696 C 881.614 0.892838 -2.62533 0
M  V30 8697 H 884.565 0.0457236 -1.58634 0
M  V30 8698 H 884.586 2.39792 -2.95432 0
M  V30 8699 H 884.098 0.781741 -3.80145 0
M  V30 8700 H 882.199 2.82813 -2.42585 0
M  V30 8701 H 882.312 2.26244 -4.22316 0
M  V30 8702 H 880.676 1.28719 -2.19781 0
M  V30 8703 H 881.459 0.157229 -3.4294 0
M  V30 8704 N 883.904 1.48273 0.534124 0
M  V30 8705 C 884.867 1.6201 1.62127 0
M  V30 8706 C 885.867 0.493653 1.53035 0
M  V30 8707 O 887.057 0.759337 1.56779 0
M  V30 8708 C 884.189 1.5864 3.01739 0
M  V30 8709 H 885.382 2.58944 1.51288 0
M  V30 8710 H 882.935 1.36808 0.755861 0
M  V30 8711 H 883.67 0.631685 3.18088 0
M  V30 8712 H 883.455 2.40415 3.09747 0
M  V30 8713 H 884.945 1.71438 3.80787 0
M  V30 8714 N 885.382 -0.782676 1.36792 0
M  V30 8715 C 886.793 -1.35828 1.28092 0
M  V30 8716 C 887.144 -1.96052 -0.076315 0
M  V30 8717 O 886.269 -1.93042 -0.977935 0
M  V30 8718 C 886.864 -2.46949 2.31952 0
M  V30 8719 C 885.423 -3.00307 2.2692 0
M  V30 8720 C 884.57 -1.73436 2.16368 0
M  V30 8721 H 887.521 -0.583788 1.47572 0
M  V30 8722 H 887.542 -3.26144 1.95986 0
M  V30 8723 H 887.054 -2.03087 3.30722 0
M  V30 8724 H 885.155 -3.48571 1.31639 0
M  V30 8725 H 885.268 -3.56663 3.19887 0
M  V30 8726 H 883.632 -1.95934 1.62733 0
M  V30 8727 H 884.415 -1.31693 3.17036 0
M  V30 8728 N 886.86 -1.21182 -1.00761 0
M  V30 8729 C 888.088 -1.05335 -1.78079 0
M  V30 8730 C 888.503 0.396988 -1.84579 0
M  V30 8731 O 887.86 1.27548 -1.30529 0
M  V30 8732 C 887.911 -1.64089 -3.22113 0
M  V30 8733 O 887.632 -3.03448 -3.15992 0
M  V30 8734 C 889.133 -1.53318 -4.15943 0
M  V30 8735 H 886.353 -0.37005 -0.559736 0
M  V30 8736 H 888.897 -1.60463 -1.26775 0
M  V30 8737 H 887.052 -1.13059 -3.70535 0
M  V30 8738 H 887.466 -3.31492 -4.06465 0
M  V30 8739 H 888.94 -1.99174 -5.14814 0
M  V30 8740 H 889.417 -0.487166 -4.3649 0
M  V30 8741 H 890.023 -2.03582 -3.73409 0
M  V30 8742 N 888.338 1.20213 -1.01915 0
M  V30 8743 C 889.586 1.89272 -0.708552 0
M  V30 8744 C 889.907 1.79394 0.76438 0
M  V30 8745 O 889.177 1.198 1.54999 0
M  V30 8746 H 887.757 0.700628 -0.259094 0
M  V30 8747 H 890.419 1.45985 -1.29129 0
M  V30 8748 H 889.515 2.95841 -0.994215 0
M  V30 8749 N 889.816 0.795718 1.36037 0
M  V30 8750 C 890.779 0.204318 2.28287 0
M  V30 8751 C 891.779 -0.602017 1.49105 0
M  V30 8752 O 892.969 -0.422089 1.69009 0
M  V30 8753 C 890.101 -0.716431 3.33287 0
M  V30 8754 H 891.294 1.01781 2.821 0
M  V30 8755 H 888.847 0.565588 1.45708 0
M  V30 8756 H 889.582 -1.55403 2.84641 0
M  V30 8757 H 889.367 -0.140096 3.9185 0
M  V30 8758 H 890.857 -1.12488 4.02164 0
M  V30 8759 N 891.294 -1.47756 0.548274 0
M  V30 8760 C 892.705 -1.8636 0.112547 0
M  V30 8761 C 893.056 -1.45589 -1.31523 0
M  V30 8762 O 892.181 -0.854874 -1.98799 0
M  V30 8763 C 892.776 -3.38224 0.197473 0
M  V30 8764 C 891.335 -3.75954 -0.183163 0
M  V30 8765 C 890.482 -2.7181 0.549059 0
M  V30 8766 H 893.433 -1.394 0.758506 0
M  V30 8767 H 893.454 -3.75957 -0.586217 0
M  V30 8768 H 892.966 -3.67868 1.23673 0
M  V30 8769 H 891.067 -3.51926 -1.22387 0
M  V30 8770 H 891.18 -4.78801 0.169178 0
M  V30 8771 H 889.544 -2.54699 -0.00682862 0
M  V30 8772 H 890.327 -3.04296 1.5893 0
M  V30 8773 N 892.772 -0.284283 -1.55015 0
M  V30 8774 C 894.183 0.211681 -1.85496 0
M  V30 8775 C 894.534 1.54735 -1.2063 0
M  V30 8776 O 893.659 2.10594 -0.497918 0
M  V30 8777 C 894.254 0.390864 -3.36538 0
M  V30 8778 C 892.813 0.831055 -3.67111 0
M  V30 8779 C 891.96 -0.0703581 -2.77211 0
M  V30 8780 H 894.911 -0.505803 -1.50424 0
M  V30 8781 H 894.932 1.22803 -3.60138 0
M  V30 8782 H 894.444 -0.581409 -3.8372 0
M  V30 8783 H 892.545 1.81447 -3.25434 0
M  V30 8784 H 892.658 0.662026 -4.74504 0
M  V30 8785 H 891.022 0.447528 -2.50737 0
M  V30 8786 H 891.805 -1.03868 -3.2721 0
M  V30 8787 N 894.251 1.57596 -0.0117121 0
M  V30 8788 C 895.499 1.90694 0.669342 0
M  V30 8789 C 895.82 0.886999 1.73659 0
M  V30 8790 O 895.09 -0.0739779 1.9576 0
M  V30 8791 H 893.67 0.703846 0.250219 0
M  V30 8792 H 896.332 1.94821 -0.0554057 0
M  V30 8793 H 895.428 2.90802 1.13316 0
M  V30 8794 N 895.729 -0.261212 1.5542 0
M  V30 8795 C 896.977 -0.989272 1.76232 0
M  V30 8796 C 897.298 -1.86389 0.573067 0
M  V30 8797 O 896.568 -1.91526 -0.41166 0
M  V30 8798 H 895.148 -0.368256 0.64992 0
M  V30 8799 H 897.81 -0.282603 1.9284 0
M  V30 8800 H 896.906 -1.61935 2.66802 0
M  V30 8801 N 897.207 -1.48554 -0.526253 0
M  V30 8802 C 898.139 -1.59446 -1.6465 0
M  V30 8803 C 899.152 -0.478525 -1.55608 0
M  V30 8804 O 900.341 -0.74953 -1.62001 0
M  V30 8805 C 897.441 -1.51164 -3.03319 0
M  V30 8806 C 896.614 -2.77861 -3.37805 0
M  V30 8807 C 895.673 -2.62982 -4.5577 0
M  V30 8808 O 894.699 -3.36876 -4.58806 0
M  V30 8809 N 895.901 -1.72847 -5.5417 0
M  V30 8810 H 898.666 -2.56055 -1.55743 0
M  V30 8811 H 896.227 -1.45325 -0.713606 0
M  V30 8812 H 898.219 -1.389 -3.80117 0
M  V30 8813 H 896.789 -0.625147 -3.06285 0
M  V30 8814 H 896.009 -3.04663 -2.50149 0
M  V30 8815 H 897.297 -3.61908 -3.57632 0
M  V30 8816 H 896.695 -1.12022 -5.54498 0
M  V30 8817 H 895.252 -1.6652 -6.3017 0
M  V30 8818 N 898.685 0.775411 -1.37205 0
M  V30 8819 C 900.096 1.35147 -1.28811 0
M  V30 8820 C 900.447 1.96089 0.0659168 0
M  V30 8821 O 899.572 1.93558 0.967684 0
M  V30 8822 C 900.167 2.45715 -2.33258 0
M  V30 8823 C 898.726 2.99099 -2.2851 0
M  V30 8824 C 897.873 1.72286 -2.17285 0
M  V30 8825 H 900.824 0.575954 -1.4788 0
M  V30 8826 H 900.845 3.251 -1.97712 0
M  V30 8827 H 900.357 2.01331 -3.31795 0
M  V30 8828 H 898.458 3.47868 -1.33485 0
M  V30 8829 H 898.571 3.54962 -3.21774 0
M  V30 8830 H 896.935 1.95068 -1.6377 0
M  V30 8831 H 897.718 1.3001 -3.1773 0
M  V30 8832 N 900.163 1.21714 1.00117 0
M  V30 8833 C 901.44 0.945391 1.71236 0
M  V30 8834 C 901.82 -0.541772 2.0403 0
M  V30 8835 O 901.168 -1.50763 1.71705 0
M  V30 8836 C 901.378 1.83444 2.96899 0
M  V30 8837 C 902.726 2.08558 3.69849 0
M  V30 8838 O 903.75 1.80824 3.06889 0
M  V30 8839 O 902.609 2.55485 4.83104 0
M  V30 8840 H 899.703 0.354834 0.747009 0
M  V30 8841 H 902.249 1.32661 1.05825 0
M  V30 8842 H 901.021 2.84075 2.69105 0
M  V30 8843 H 900.644 1.45428 3.70049 0
M  V30 8844 N 901.641 -1.19671 1.02551 0
M  V30 8845 C 902.871 -1.92952 0.738441 0
M  V30 8846 C 903.279 -1.75528 -0.706155 0
M  V30 8847 O 902.622 -1.0723 -1.49156 0
M  V30 8848 C 902.684 -3.45149 1.00562 0
M  V30 8849 C 902.348 -3.86341 2.44109 0
M  V30 8850 C 903.345 -3.91374 3.42231 0
M  V30 8851 C 901.03 -4.18076 2.7842 0
M  V30 8852 C 903.024 -4.27568 4.7272 0
M  V30 8853 C 900.711 -4.53943 4.0912 0
M  V30 8854 C 901.709 -4.58663 5.06081 0
M  V30 8855 O 901.397 -4.93701 6.3444 0
M  V30 8856 H 901.129 -0.619836 0.269776 0
M  V30 8857 H 903.683 -1.52852 1.37206 0
M  V30 8858 H 901.913 -3.85416 0.314849 0
M  V30 8859 H 903.602 -3.99664 0.708742 0
M  V30 8860 H 904.368 -3.67011 3.17061 0
M  V30 8861 H 900.247 -4.13589 2.03631 0
M  V30 8862 H 903.791 -4.31166 5.48399 0
M  V30 8863 H 899.688 -4.77764 4.34064 0
M  V30 8864 H 900.456 -5.11662 6.38862 0
M  V30 8865 N 903.119 -0.802921 -1.35613 0
M  V30 8866 C 904.344 -0.392846 -2.03645 0
M  V30 8867 C 904.769 0.987075 -1.6012 0
M  V30 8868 O 904.127 1.63849 -0.776101 0
M  V30 8869 C 904.175 -0.480208 -3.57388 0
M  V30 8870 O 903.279 0.507751 -4.09262 0
M  V30 8871 H 902.62 -0.16464 -0.643265 0
M  V30 8872 H 905.15 -1.08779 -1.73287 0
M  V30 8873 H 905.16 -0.348683 -4.06507 0
M  V30 8874 H 903.835 -1.48675 -3.88418 0
M  V30 8875 H 902.412 0.336769 -3.71376 0
M  V30 8876 N 904.597 1.47463 -0.556102 0
M  V30 8877 C 905.56 2.28478 0.181743 0
M  V30 8878 C 906.56 1.36886 0.843738 0
M  V30 8879 O 907.75 1.59527 0.69977 0
M  V30 8880 C 904.882 3.16534 1.26566 0
M  V30 8881 H 906.075 2.95182 -0.529892 0
M  V30 8882 H 903.628 1.53134 -0.313005 0
M  V30 8883 H 904.363 2.5452 2.00973 0
M  V30 8884 H 904.148 3.83939 0.795798 0
M  V30 8885 H 905.638 3.77579 1.78393 0
M  V30 8886 N 906.075 0.2925 1.54862 0
M  V30 8887 C 907.038 -0.574423 2.21885 0
M  V30 8888 C 908.038 -1.06791 1.20218 0
M  V30 8889 O 909.228 -0.9653 1.45009 0
M  V30 8890 C 906.36 -1.79438 2.89853 0
M  V30 8891 H 907.553 0.0110319 2.99898 0
M  V30 8892 H 905.106 0.043256 1.5624 0
M  V30 8893 H 905.841 -2.4199 2.15897 0
M  V30 8894 H 905.626 -1.44827 3.64373 0
M  V30 8895 H 907.116 -2.41048 3.41007 0
M  V30 8896 N 907.553 -1.57587 0.0200696 0
M  V30 8897 C 908.799 -1.92539 -0.655764 0
M  V30 8898 C 909.154 -0.896187 -1.70253 0
M  V30 8899 O 908.447 0.0890022 -1.91393 0
M  V30 8900 C 908.641 -3.32002 -1.32323 0
M  V30 8901 C 908.47 -4.48393 -0.342632 0
M  V30 8902 C 907.24 -5.05271 0.0542423 0
M  V30 8903 C 909.438 -5.12747 0.399388 0
M  V30 8904 N 907.42 -6.05181 1.03095 0
M  V30 8905 C 908.791 -6.07674 1.23014 0
M  V30 8906 C 910.846 -4.95761 0.461065 0
M  V30 8907 C 909.549 -6.87442 2.11698 0
M  V30 8908 C 911.575 -5.7613 1.33521 0
M  V30 8909 C 910.937 -6.70666 2.15376 0
M  V30 8910 H 907.036 -0.75256 -0.212549 0
M  V30 8911 H 909.62 -1.94514 0.0851247 0
M  V30 8912 H 907.791 -3.30863 -2.0343 0
M  V30 8913 H 909.523 -3.54327 -1.95537 0
M  V30 8914 H 906.278 -4.72529 -0.318327 0
M  V30 8915 H 906.702 -6.59824 1.51528 0
M  V30 8916 H 911.344 -4.22506 -0.15752 0
M  V30 8917 H 909.062 -7.60008 2.74616 0
M  V30 8918 H 912.648 -5.65023 1.38711 0
M  V30 8919 H 911.528 -7.31772 2.81922 0
M  V30 8920 N 909.032 0.252966 -1.55557 0
M  V30 8921 C 909.995 1.29645 -1.8901 0
M  V30 8922 C 910.995 1.41378 -0.766096 0
M  V30 8923 O 912.185 1.40183 -1.03414 0
M  V30 8924 C 909.317 2.67504 -2.11316 0
M  V30 8925 H 910.51 1.01202 -2.82309 0
M  V30 8926 H 908.063 0.491977 -1.48355 0
M  V30 8927 H 908.798 3.01095 -1.20466 0
M  V30 8928 H 908.583 2.6037 -2.93172 0
M  V30 8929 H 910.073 3.42861 -2.38403 0
M  V30 8930 N 910.51 1.48831 0.518367 0
M  V30 8931 C 911.42 1.6692 1.64848 0
M  V30 8932 C 912.436 0.551711 1.65022 0
M  V30 8933 O 913.612 0.824251 1.83761 0
M  V30 8934 C 910.677 1.71559 3.01278 0
M  V30 8935 C 909.738 2.9502 3.11868 0
M  V30 8936 C 908.971 2.99428 4.4179 0
M  V30 8937 O 909.194 2.11914 5.29574 0
M  V30 8938 O 908.128 3.91719 4.5699 0
M  V30 8939 H 911.954 2.62623 1.52521 0
M  V30 8940 H 909.539 1.32368 0.692749 0
M  V30 8941 H 911.421 1.77064 3.82396 0
M  V30 8942 H 910.096 0.790316 3.13904 0
M  V30 8943 H 909.003 2.95042 2.30003 0
M  V30 8944 H 910.336 3.8697 3.04163 0
M  V30 8945 N 911.988 -0.768124 1.37614 0
M  V30 8946 C 913.218 -1.555 1.36027 0
M  V30 8947 C 913.626 -1.89119 -0.0554273 0
M  V30 8948 O 912.969 -1.52203 -1.02859 0
M  V30 8949 C 913.031 -2.8906 2.13739 0
M  V30 8950 C 912.695 -2.78058 3.62674 0
M  V30 8951 C 913.692 -2.48841 4.5648 0
M  V30 8952 C 911.377 -2.95966 4.05844 0
M  V30 8953 C 913.371 -2.37665 5.91434 0
M  V30 8954 C 911.058 -2.84411 5.40882 0
M  V30 8955 C 912.056 -2.55301 6.33491 0
M  V30 8956 O 911.744 -2.43779 7.66046 0
M  V30 8957 H 911.476 -0.488263 0.467521 0
M  V30 8958 H 914.03 -0.959583 1.81607 0
M  V30 8959 H 912.26 -3.50735 1.62854 0
M  V30 8960 H 913.949 -3.5048 2.04741 0
M  V30 8961 H 914.715 -2.34687 4.24437 0
M  V30 8962 H 910.594 -3.17625 3.34119 0
M  V30 8963 H 914.138 -2.14865 6.63686 0
M  V30 8964 H 910.035 -2.98134 5.72527 0
M  V30 8965 H 910.803 -2.59101 7.76408 0
M  V30 8966 N 913.466 -1.22244 -0.994698 0
M  V30 8967 C 914.696 -1.07062 -1.76695 0
M  V30 8968 C 915.104 0.381895 -1.85306 0
M  V30 8969 O 914.447 1.27648 -1.32105 0
M  V30 8970 C 914.509 -1.60487 -3.2169 0
M  V30 8971 C 914.173 -3.09079 -3.36629 0
M  V30 8972 C 915.17 -4.06526 -3.24088 0
M  V30 8973 C 912.855 -3.48497 -3.61739 0
M  V30 8974 C 914.849 -5.41377 -3.36437 0
M  V30 8975 C 912.536 -4.83498 -3.73729 0
M  V30 8976 C 913.534 -5.79747 -3.61086 0
M  V30 8977 O 913.222 -7.12297 -3.72678 0
M  V30 8978 H 912.954 -0.375963 -0.561807 0
M  V30 8979 H 915.508 -1.62259 -1.25941 0
M  V30 8980 H 913.738 -0.996957 -3.73628 0
M  V30 8981 H 915.427 -1.40994 -3.80625 0
M  V30 8982 H 916.193 -3.77415 -3.04602 0
M  V30 8983 H 912.072 -2.74106 -3.70657 0
M  V30 8984 H 915.616 -6.16485 -3.26485 0
M  V30 8985 H 911.513 -5.1229 -3.92721 0
M  V30 8986 H 912.281 -7.1985 -3.89562 0
M  V30 8987 N 914.944 1.19125 -1.03184 0
M  V30 8988 C 916.36 1.40909 -0.749447 0
M  V30 8989 C 916.56 1.9022 0.664729 0
M  V30 8990 O 915.616 2.08085 1.43028 0
M  V30 8991 C 916.929 2.41761 -1.78807 0
M  V30 8992 C 918.477 2.55503 -1.80796 0
M  V30 8993 C 918.952 3.59612 -2.83626 0
M  V30 8994 N 920.443 3.6711 -2.82461 0
M  V30 8995 C 921.178 4.47366 -3.5868 0
M  V30 8996 N 920.674 5.31302 -4.44623 0
M  V30 8997 N 922.467 4.42044 -3.47208 0
M  V30 8998 H 914.618 0.854399 -1.94458 0
M  V30 8999 H 916.881 0.437753 -0.840878 0
M  V30 9000 H 916.587 2.12559 -2.80199 0
M  V30 9001 H 916.461 3.40981 -1.61283 0
M  V30 9002 H 918.848 2.84027 -0.800803 0
M  V30 9003 H 918.929 1.56427 -2.02396 0
M  V30 9004 H 918.573 3.3183 -3.84515 0
M  V30 9005 H 918.503 4.58345 -2.59283 0
M  V30 9006 H 920.994 3.07166 -2.2013 0
M  V30 9007 H 921.307 5.89667 -4.99512 0
M  V30 9008 H 919.652 5.30753 -4.48694 0
M  V30 9009 H 922.843 3.75513 -2.79477 0
M  V30 9010 H 923.016 5.0435 -4.06859 0
M  V30 9011 N 916.422 0.810101 1.35185 0
M  V30 9012 C 917.354 0.180581 2.28488 0
M  V30 9013 C 918.367 -0.622154 1.50443 0
M  V30 9014 O 919.556 -0.453938 1.72632 0
M  V30 9015 C 916.656 -0.766447 3.30119 0
M  V30 9016 C 915.829 -0.00932028 4.37399 0
M  V30 9017 C 914.888 -0.875354 5.18868 0
M  V30 9018 O 913.914 -0.325012 5.68271 0
M  V30 9019 N 915.116 -2.19695 5.37321 0
M  V30 9020 H 917.881 0.98212 2.83151 0
M  V30 9021 H 915.442 0.665879 1.47573 0
M  V30 9022 H 917.434 -1.35012 3.81515 0
M  V30 9023 H 916.004 -1.46878 2.75945 0
M  V30 9024 H 915.224 0.755585 3.86891 0
M  V30 9025 H 916.512 0.512352 5.06214 0
M  V30 9026 H 915.91 -2.66797 4.98834 0
M  V30 9027 H 914.467 -2.72978 5.91884 0
M  V30 9028 N 917.9 -1.47166 0.563914 0
M  V30 9029 C 918.832 -2.28165 -0.217583 0
M  V30 9030 C 919.845 -1.37405 -0.873134 0
M  V30 9031 O 921.034 -1.6217 -0.745857 0
M  V30 9032 C 918.134 -3.11873 -1.32621 0
M  V30 9033 C 917.307 -4.30637 -0.766177 0
M  V30 9034 C 916.366 -4.95889 -1.76014 0
M  V30 9035 O 915.392 -5.54071 -1.3036 0
M  V30 9036 N 916.594 -4.91191 -3.09373 0
M  V30 9037 H 919.359 -2.95876 0.477256 0
M  V30 9038 H 916.92 -1.5687 0.40043 0
M  V30 9039 H 918.912 -3.52392 -1.99003 0
M  V30 9040 H 917.482 -2.46361 -1.92419 0
M  V30 9041 H 916.702 -3.94129 0.0745998 0
M  V30 9042 H 917.99 -5.07442 -0.371472 0
M  V30 9043 H 917.388 -4.45133 -3.49104 0
M  V30 9044 H 915.945 -5.35708 -3.71295 0
M  V30 9045 N 919.378 -0.300708 -1.54705 0
M  V30 9046 C 920.341 0.562648 -2.22187 0
M  V30 9047 C 921.341 1.06152 -1.20782 0
M  V30 9048 O 922.531 0.957596 -1.45519 0
M  V30 9049 C 919.663 1.77899 -2.908 0
M  V30 9050 H 920.856 -0.0269361 -2.99888 0
M  V30 9051 H 918.409 -0.0515412 -1.56215 0
M  V30 9052 H 919.144 2.40841 -2.17177 0
M  V30 9053 H 918.929 1.42892 -3.65136 0
M  V30 9054 H 920.419 2.39236 -3.42281 0
M  V30 9055 N 920.856 1.57574 -0.0284266 0
M  V30 9056 C 921.819 2.09096 0.938691 0
M  V30 9057 C 922.819 1.00588 1.25454 0
M  V30 9058 O 924.009 1.2675 1.19499 0
M  V30 9059 C 921.141 2.55624 2.25542 0
M  V30 9060 H 922.334 2.95829 0.49248 0
M  V30 9061 H 919.887 1.5475 0.219594 0
M  V30 9062 H 920.622 1.72218 2.74793 0
M  V30 9063 H 920.407 3.34896 2.03929 0
M  V30 9064 H 921.897 2.95712 2.94863 0
M  V30 9065 N 922.334 -0.244713 1.55689 0
M  V30 9066 C 923.564 -0.988508 1.81417 0
M  V30 9067 C 923.972 -1.79362 0.602143 0
M  V30 9068 O 923.315 -1.78386 -0.438639 0
M  V30 9069 C 923.377 -1.97287 3.0053 0
M  V30 9070 C 923.041 -1.35448 4.36466 0
M  V30 9071 C 924.038 -0.755874 5.14376 0
M  V30 9072 C 921.723 -1.37319 4.83165 0
M  V30 9073 C 923.717 -0.184218 6.37134 0
M  V30 9074 C 921.404 -0.797681 6.05871 0
M  V30 9075 C 922.402 -0.204224 6.82695 0
M  V30 9076 O 922.09 0.362392 8.03083 0
M  V30 9077 H 921.822 -0.296412 0.607549 0
M  V30 9078 H 924.376 -0.272185 2.03589 0
M  V30 9079 H 922.606 -2.72756 2.74119 0
M  V30 9080 H 924.295 -2.58028 3.13331 0
M  V30 9081 H 925.061 -0.733912 4.79415 0
M  V30 9082 H 920.94 -1.8245 4.23359 0
M  V30 9083 H 924.484 0.279624 6.97039 0
M  V30 9084 H 920.381 -0.816978 6.40309 0
M  V30 9085 H 921.149 0.254467 8.18104 0
M  V30 9086 N 923.813 -1.49104 -0.510467 0
M  V30 9087 C 925.043 -1.61571 -1.28757 0
M  V30 9088 C 925.451 -0.282638 -1.87077 0
M  V30 9089 O 924.794 0.740749 -1.68103 0
M  V30 9090 C 924.856 -2.61851 -2.46322 0
M  V30 9091 C 924.52 -4.06438 -2.08942 0
M  V30 9092 C 925.517 -4.93532 -1.63469 0
M  V30 9093 C 923.202 -4.52109 -2.18867 0
M  V30 9094 C 925.196 -6.24331 -1.28411 0
M  V30 9095 C 922.883 -5.82924 -1.83421 0
M  V30 9096 C 923.881 -6.68858 -1.38267 0
M  V30 9097 O 923.569 -7.97236 -1.03296 0
M  V30 9098 H 923.301 -0.547082 -0.397086 0
M  V30 9099 H 925.855 -1.95806 -0.620424 0
M  V30 9100 H 924.085 -2.22777 -3.16081 0
M  V30 9101 H 925.774 -2.63947 -3.08362 0
M  V30 9102 H 926.54 -4.59479 -1.55255 0
M  V30 9103 H 922.419 -3.85395 -2.52966 0
M  V30 9104 H 925.963 -6.9136 -0.930946 0
M  V30 9105 H 921.86 -6.16507 -1.91282 0
M  V30 9106 H 922.628 -8.10163 -1.16525 0
M  V30 9107 N 925.291 0.760815 -1.38019 0
M  V30 9108 C 926.254 1.85604 -1.34476 0
M  V30 9109 C 927.254 1.58897 -0.24666 0
M  V30 9110 O 928.444 1.66776 -0.50314 0
M  V30 9111 C 925.576 3.22945 -1.09176 0
M  V30 9112 H 926.769 1.90155 -2.31908 0
M  V30 9113 H 924.322 0.961746 -1.23208 0
M  V30 9114 H 925.057 3.24066 -0.123216 0
M  V30 9115 H 924.842 3.43723 -1.88672 0
M  V30 9116 H 926.332 4.03022 -1.09375 0
M  V30 9117 N 926.769 1.22769 0.988202 0
M  V30 9118 C 927.701 0.959757 2.08138 0
M  V30 9119 C 928.714 -0.0633787 1.62677 0
M  V30 9120 O 929.903 0.171203 1.77677 0
M  V30 9121 C 927.003 0.422724 3.36253 0
M  V30 9122 C 926.176 1.50419 4.10722 0
M  V30 9123 C 925.235 0.973407 5.17118 0
M  V30 9124 O 924.261 1.66066 5.44436 0
M  V30 9125 N 925.463 -0.202787 5.80146 0
M  V30 9126 H 928.228 1.9009 2.31702 0
M  V30 9127 H 925.789 1.13522 1.15431 0
M  V30 9128 H 927.781 0.0528514 4.04665 0
M  V30 9129 H 926.351 -0.423642 3.09716 0
M  V30 9130 H 925.571 2.04718 3.36874 0
M  V30 9131 H 926.859 2.23169 4.57245 0
M  V30 9132 H 926.257 -0.777856 5.60327 0
M  V30 9133 H 924.814 -0.513998 6.4977 0
M  V30 9134 N 928.247 -1.18576 1.03814 0
M  V30 9135 C 929.475 -1.92437 0.759966 0
M  V30 9136 C 929.89 -1.76031 -0.682526 0
M  V30 9137 O 929.247 -1.08829 -1.46501 0
M  V30 9138 C 929.298 -3.43923 1.11351 0
M  V30 9139 O 929.019 -3.5981 2.49937 0
M  V30 9140 C 930.52 -4.34888 0.859472 0
M  V30 9141 H 927.74 -0.610998 0.277349 0
M  V30 9142 H 930.284 -1.50448 1.38512 0
M  V30 9143 H 928.439 -3.83711 0.533362 0
M  V30 9144 H 928.853 -4.53569 2.63393 0
M  V30 9145 H 930.327 -5.39744 1.15672 0
M  V30 9146 H 930.804 -4.38717 -0.205839 0
M  V30 9147 H 931.41 -4.00795 1.42279 0
M  V30 9148 N 929.725 -0.817259 -1.34754 0
M  V30 9149 C 930.95 -0.414423 -2.03217 0
M  V30 9150 C 931.375 0.970037 -1.61158 0
M  V30 9151 O 930.733 1.63016 -0.793436 0
M  V30 9152 C 930.781 -0.518087 -3.56859 0
M  V30 9153 O 929.885 0.464314 -4.09778 0
M  V30 9154 H 929.226 -0.171454 -0.641482 0
M  V30 9155 H 931.756 -1.10611 -1.72123 0
M  V30 9156 H 931.766 -0.391779 -4.06115 0
M  V30 9157 H 930.441 -1.52786 -3.86819 0
M  V30 9158 H 929.018 0.297361 -3.71712 0
M  V30 9159 N 931.203 1.46865 -0.571711 0
M  V30 9160 C 932.614 1.86158 -0.142181 0
M  V30 9161 C 932.965 1.47663 1.2919 0
M  V30 9162 O 932.09 0.886393 1.97413 0
M  V30 9163 C 932.685 3.37867 -0.251256 0
M  V30 9164 C 931.244 3.76198 0.123329 0
M  V30 9165 C 930.391 2.70902 -0.592232 0
M  V30 9166 H 933.342 1.38176 -0.780587 0
M  V30 9167 H 933.363 3.76842 0.526331 0
M  V30 9168 H 932.875 3.65853 -1.2951 0
M  V30 9169 H 930.976 3.53829 1.16773 0
M  V30 9170 H 931.089 4.78471 -0.24533 0
M  V30 9171 H 929.453 2.54678 -0.0336927 0
M  V30 9172 H 930.236 3.01729 -1.63751 0
M  V30 9173 N 932.681 0.308908 1.54543 0
M  V30 9174 C 933.613 -0.597453 2.21276 0
M  V30 9175 C 934.626 -1.09137 1.20801 0
M  V30 9176 O 935.815 -1.00747 1.47351 0
M  V30 9177 C 932.915 -1.83085 2.85189 0
M  V30 9178 C 932.088 -1.4781 4.11669 0
M  V30 9179 C 931.147 -2.56748 4.59311 0
M  V30 9180 O 930.173 -2.21507 5.24331 0
M  V30 9181 N 931.375 -3.87427 4.32297 0
M  V30 9182 H 934.14 -0.0261183 2.99689 0
M  V30 9183 H 931.701 0.131456 1.61365 0
M  V30 9184 H 933.693 -2.55326 3.13992 0
M  V30 9185 H 932.263 -2.31039 2.1057 0
M  V30 9186 H 931.483 -0.587974 3.8979 0
M  V30 9187 H 932.771 -1.2179 4.94009 0
M  V30 9188 H 932.169 -4.18863 3.80224 0
M  V30 9189 H 930.726 -4.55942 4.6579 0
M  V30 9190 N 934.159 -1.57557 0.0367827 0
M  V30 9191 C 935.407 -1.91735 -0.63892 0
M  V30 9192 C 935.728 -0.914515 -1.72226 0
M  V30 9193 O 934.998 0.0428248 -1.95853 0
M  V30 9194 H 933.578 -0.707738 -0.23899 0
M  V30 9195 H 936.24 -1.94708 0.0863931 0
M  V30 9196 H 935.336 -2.92568 -1.08676 0
M  V30 9197 N 935.637 0.236453 -1.55816 0
M  V30 9198 C 936.57 1.3196 -1.86177 0
M  V30 9199 C 937.548 1.459 -0.717769 0
M  V30 9200 O 938.732 1.61949 -0.964606 0
M  V30 9201 C 935.859 2.69183 -2.05568 0
M  V30 9202 C 934.905 2.72338 -3.28229 0
M  V30 9203 S 935.738 2.27898 -4.84585 0
M  V30 9204 C 936.894 3.67025 -5.06994 0
M  V30 9205 H 937.127 1.06011 -2.77757 0
M  V30 9206 H 934.66 0.437961 -1.48058 0
M  V30 9207 H 936.618 3.48191 -2.17423 0
M  V30 9208 H 935.279 2.92365 -1.14811 0
M  V30 9209 H 934.472 3.7314 -3.38795 0
M  V30 9210 H 934.074 2.01382 -3.15153 0
M  V30 9211 H 936.366 4.62604 -4.94979 0
M  V30 9212 H 937.309 3.61385 -6.08939 0
M  V30 9213 H 937.717 3.60022 -4.34792 0
M  V30 9214 N 937.115 1.49373 0.502552 0
M  V30 9215 C 938.526 1.52 1.0841 0
M  V30 9216 C 938.877 0.305317 1.9381 0
M  V30 9217 O 938.002 -0.585023 2.08342 0
M  V30 9218 C 938.597 2.75437 1.97281 0
M  V30 9219 C 937.156 2.80848 2.50602 0
M  V30 9220 C 936.303 2.45894 1.28186 0
M  V30 9221 H 939.254 1.56092 0.286533 0
M  V30 9222 H 939.275 2.55511 2.81947 0
M  V30 9223 H 938.787 3.63827 1.35098 0
M  V30 9224 H 936.888 1.96735 3.16427 0
M  V30 9225 H 937.001 3.82979 2.8786 0
M  V30 9226 H 935.365 1.97639 1.60657 0
M  V30 9227 H 936.148 3.36556 0.677139 0
M  V30 9228 N 938.594 -0.753485 1.38421 0
M  V30 9229 C 939.526 -1.87692 1.31547 0
M  V30 9230 C 940.539 -1.612 0.227671 0
M  V30 9231 O 941.728 -1.71778 0.485238 0
M  V30 9232 C 938.828 -3.23329 1.01545 0
M  V30 9233 C 938.001 -3.77324 2.21236 0
M  V30 9234 C 937.06 -4.91478 1.87977 0
M  V30 9235 O 936.086 -5.06106 2.60472 0
M  V30 9236 N 937.288 -5.74466 0.834796 0
M  V30 9237 H 940.053 -1.94099 2.28354 0
M  V30 9238 H 937.614 -0.933421 1.32283 0
M  V30 9239 H 939.606 -3.9724 0.773477 0
M  V30 9240 H 938.176 -3.12307 0.135334 0
M  V30 9241 H 937.396 -2.94978 2.61498 0
M  V30 9242 H 938.684 -4.10131 3.01115 0
M  V30 9243 H 938.082 -5.65217 0.233606 0
M  V30 9244 H 936.639 -6.48524 0.652703 0
M  V30 9245 N 940.072 -1.23292 -0.981677 0
M  V30 9246 C 941.022 -0.980133 -2.05858 0
M  V30 9247 C 942.006 0.0734044 -1.60732 0
M  V30 9248 O 943.198 -0.138561 -1.76457 0
M  V30 9249 C 940.327 -0.571879 -3.38503 0
M  V30 9250 C 939.413 -1.66075 -3.90231 0
M  V30 9251 N 939.804 -2.89077 -4.15052 0
M  V30 9252 C 938.102 -1.53503 -4.18751 0
M  V30 9253 C 938.803 -3.59567 -4.5726 0
M  V30 9254 N 937.779 -2.87076 -4.61615 0
M  V30 9255 H 941.581 -1.91432 -2.23005 0
M  V30 9256 H 939.095 -1.13211 -1.16434 0
M  V30 9257 H 941.092 -0.372059 -4.15236 0
M  V30 9258 H 939.752 0.355278 -3.2275 0
M  V30 9259 H 940.763 -3.25395 -4.02912 0
M  V30 9260 H 937.44 -0.674891 -4.12009 0
M  V30 9261 H 938.83 -4.65007 -4.84993 0
M  V30 9262 N 941.55 1.18024 -1.04442 0
M  V30 9263 C 942.961 1.69749 -0.777312 0
M  V30 9264 C 943.312 1.83234 0.701399 0
M  V30 9265 O 942.437 1.51452 1.54568 0
M  V30 9266 C 943.032 3.08321 -1.40441 0
M  V30 9267 C 941.591 3.57243 -1.18553 0
M  V30 9268 C 940.738 2.33695 -1.49271 0
M  V30 9269 H 943.689 1.02647 -1.21035 0
M  V30 9270 H 943.71 3.71787 -0.809628 0
M  V30 9271 H 943.222 2.98474 -2.48062 0
M  V30 9272 H 941.323 3.72379 -0.128221 0
M  V30 9273 H 941.436 4.40451 -1.88519 0
M  V30 9274 H 939.8 2.37792 -0.912526 0
M  V30 9275 H 940.583 2.26464 -2.5801 0
M  V30 9276 N 943.028 0.824394 1.34319 0
M  V30 9277 C 944.439 0.471802 1.8064 0
M  V30 9278 C 944.79 -1.00793 1.6833 0
M  V30 9279 O 943.915 -1.78447 1.22416 0
M  V30 9280 C 944.51 0.849609 3.27974 0
M  V30 9281 C 943.069 0.549365 3.72369 0
M  V30 9282 C 942.216 1.06573 2.56003 0
M  V30 9283 H 945.167 1.01443 1.22045 0
M  V30 9284 H 945.188 0.153968 3.80188 0
M  V30 9285 H 944.7 1.92663 3.36902 0
M  V30 9286 H 942.801 -0.518182 3.68979 0
M  V30 9287 H 942.914 1.09446 4.66432 0
M  V30 9288 H 941.278 0.487214 2.49997 0
M  V30 9289 H 942.061 2.14923 2.677 0
M  V30 9290 N 944.506 -1.46559 0.579492 0
M  V30 9291 C 945.469 -2.28739 -0.145371 0
M  V30 9292 C 946.469 -1.38211 -0.821854 0
M  V30 9293 O 947.659 -1.6062 -0.674302 0
M  V30 9294 C 944.791 -3.18507 -1.21515 0
M  V30 9295 H 945.984 -2.94301 0.576786 0
M  V30 9296 H 943.537 -1.52616 0.337327 0
M  V30 9297 H 944.272 -2.57685 -1.96899 0
M  V30 9298 H 944.057 -3.85157 -0.734616 0
M  V30 9299 H 945.547 -3.80369 -1.72363 0
M  V30 9300 N 945.984 -0.3171 -1.54377 0
M  V30 9301 C 947.395 0.172287 -1.85903 0
M  V30 9302 C 947.746 1.52141 -1.23885 0
M  V30 9303 O 946.871 2.0949 -0.542476 0
M  V30 9304 C 947.466 0.319392 -3.37291 0
M  V30 9305 C 946.025 0.752998 -3.68791 0
M  V30 9306 C 945.172 -0.129143 -2.76999 0
M  V30 9307 H 948.123 -0.537597 -1.49317 0
M  V30 9308 H 948.144 1.15137 -3.62662 0
M  V30 9309 H 947.656 -0.662671 -3.82401 0
M  V30 9310 H 945.757 1.74504 -3.2921 0
M  V30 9311 H 945.87 0.561228 -4.75801 0
M  V30 9312 H 944.234 0.394242 -2.5163 0
M  V30 9313 H 945.017 -1.10785 -3.24933 0
M  V30 9314 N 947.462 1.57535 -0.0451378 0
M  V30 9315 C 948.394 2.08109 0.960372 0
M  V30 9316 C 949.407 1.0077 1.27864 0
M  V30 9317 O 950.596 1.28351 1.24049 0
M  V30 9318 C 947.696 2.50414 2.28355 0
M  V30 9319 C 946.869 3.8102 2.14808 0
M  V30 9320 C 945.928 4.09702 3.30198 0
M  V30 9321 O 944.954 4.79715 3.0637 0
M  V30 9322 N 946.156 3.61138 4.54489 0
M  V30 9323 H 948.921 2.94999 0.528752 0
M  V30 9324 H 946.482 1.61283 0.141248 0
M  V30 9325 H 948.474 2.66683 3.04405 0
M  V30 9326 H 947.044 1.68805 2.63104 0
M  V30 9327 H 946.264 3.74392 1.23387 0
M  V30 9328 H 947.552 4.66559 2.02978 0
M  V30 9329 H 946.95 3.04527 4.76739 0
M  V30 9330 H 945.507 3.82656 5.27653 0
M  V30 9331 N 948.94 -0.228186 1.55939 0
M  V30 9332 C 950.188 -0.951668 1.78291 0
M  V30 9333 C 950.509 -1.85132 0.612474 0
M  V30 9334 O 949.779 -1.92356 -0.370942 0
M  V30 9335 H 948.359 -0.354388 0.657585 0
M  V30 9336 H 951.021 -0.241635 1.93396 0
M  V30 9337 H 950.117 -1.56239 2.70177 0
M  V30 9338 N 950.418 -1.49637 -0.494624 0
M  V30 9339 C 951.35 -1.62902 -1.61231 0
M  V30 9340 C 952.363 -0.511425 -1.54558 0
M  V30 9341 O 953.552 -0.783724 -1.60375 0
M  V30 9342 C 950.652 -1.57564 -3.00045 0
M  V30 9343 C 949.825 -2.84964 -3.31835 0
M  V30 9344 C 948.884 -2.72591 -4.5009 0
M  V30 9345 O 947.91 -3.46532 -4.51558 0
M  V30 9346 N 949.112 -1.84563 -5.50379 0
M  V30 9347 H 951.877 -2.59301 -1.50276 0
M  V30 9348 H 949.438 -1.46806 -0.68262 0
M  V30 9349 H 951.43 -1.46932 -3.77085 0
M  V30 9350 H 950 -0.689974 -3.0489 0
M  V30 9351 H 949.22 -3.099 -2.4363 0
M  V30 9352 H 950.508 -3.69412 -3.49875 0
M  V30 9353 H 949.906 -1.23758 -5.51997 0
M  V30 9354 H 948.463 -1.79849 -6.26496 0
M  V30 9355 O 951.935 0.63997 -1.48279 0
M  V30 9356 H 952.626 1.29381 -1.44153 0
M  V30 END ATOM
M  V30 BEGIN BOND
M  V30 END BOND
M  V30 END CTAB
M  END
$$$$
