drugbank_target|Q96BH3 Epididymal sperm-binding protein 1 (DB03945)
 OpenBabel12092120533D

  0  0  0     0  0            999 V3000
M  V30 BEGIN CTAB
M  V30 COUNTS 3517 3583 0 0 0
M  V30 BEGIN ATOM
M  V30 1 H -0.908 1.98254 -0.117106 0
M  V30 2 N 0 1.576 0 0
M  V30 3 C 0.933 2.03868 1.02534 0
M  V30 4 C 1.911 0.928543 1.3348 0
M  V30 5 O 3.095 1.19667 1.45644 0
M  V30 6 C 0.222 2.43627 2.35294 0
M  V30 7 C -0.732 3.65373 2.2001 0
M  V30 8 S 0.101 5.13292 1.52614 0
M  V30 9 C 1.257 5.56322 2.86805 0
M  V30 10 H 1.49 2.90518 0.631377 0
M  V30 11 H -0.977 1.52953 0.210867 0
M  V30 12 H 0.981 2.67203 3.11629 0
M  V30 13 H -0.358 1.57376 2.7183 0
M  V30 14 H -1.165 3.90944 3.18086 0
M  V30 15 H -1.563 3.418 1.51819 0
M  V30 16 H 0.729 5.58782 3.83104 0
M  V30 17 H 1.672 6.56266 2.65933 0
M  V30 18 H 2.08 4.83886 2.90714 0
M  V30 19 N 1.4781 -0.272755 1.55222 0
M  V30 20 C 2.7061 -1.02255 1.79865 0
M  V30 21 C 3.1211 -1.79924 0.572088 0
M  V30 22 O 2.4781 -1.76638 -0.458842 0
M  V30 23 C 2.5291 -1.98094 3.02392 0
M  V30 24 O 2.2501 -1.23572 4.20311 0
M  V30 25 C 3.7511 -2.84884 3.39641 0
M  V30 26 H 0.9711 -0.302057 0.599168 0
M  V30 27 H 3.5151 -0.303465 2.02236 0
M  V30 28 H 1.6701 -2.65465 2.82147 0
M  V30 29 H 2.0841 -1.88172 4.89583 0
M  V30 30 H 3.5581 -3.47927 4.28545 0
M  V30 31 H 4.0351 -3.54665 2.59055 0
M  V30 32 H 4.6411 -2.23003 3.62146 0
M  V30 33 N 2.9562 -1.48159 -0.537278 0
M  V30 34 C 4.3722 -1.34118 -0.865129 0
M  V30 35 C 4.5722 -0.346678 -1.98495 0
M  V30 36 O 3.6282 0.234715 -2.51407 0
M  V30 37 C 4.9412 -2.73963 -1.23954 0
M  V30 38 C 6.4892 -2.82397 -1.34984 0
M  V30 39 C 6.9642 -4.22928 -1.75772 0
M  V30 40 N 8.4552 -4.25566 -1.82887 0
M  V30 41 C 9.1902 -5.31235 -2.15817 0
M  V30 42 N 8.6862 -6.47189 -2.47222 0
M  V30 43 N 10.4792 -5.18624 -2.16761 0
M  V30 44 H 2.6302 -2.1144 0.201715 0
M  V30 45 H 4.8932 -0.947598 0.0275949 0
M  V30 46 H 4.5992 -3.48264 -0.490381 0
M  V30 47 H 4.4732 -3.0702 -2.19132 0
M  V30 48 H 6.8602 -2.08356 -2.08978 0
M  V30 49 H 6.9412 -2.5297 -0.379448 0
M  V30 50 H 6.5852 -4.97482 -1.02341 0
M  V30 51 H 6.5152 -4.49794 -2.73848 0
M  V30 52 H 9.0062 -3.41924 -1.60924 0
M  V30 53 H 9.3192 -7.23564 -2.71433 0
M  V30 54 H 7.6642 -6.50476 -2.44757 0
M  V30 55 H 10.8552 -4.27056 -1.91679 0
M  V30 56 H 11.0282 -6.01078 -2.42093 0
M  V30 57 N 4.4343 0.785586 -1.36625 0
M  V30 58 C 5.6803 1.5452 -1.32269 0
M  V30 59 C 6.0353 1.92159 0.0962266 0
M  V30 60 O 5.3283 1.60158 1.05167 0
M  V30 61 C 5.5223 2.83007 -2.1827 0
M  V30 62 C 5.3513 2.57925 -3.68382 0
M  V30 63 C 4.1213 2.52752 -4.37544 0
M  V30 64 C 6.3193 2.26861 -4.61561 0
M  V30 65 N 4.3013 2.19608 -5.73276 0
M  V30 66 C 5.6723 2.03738 -5.85569 0
M  V30 67 C 7.7273 2.129 -4.50087 0
M  V30 68 C 6.4303 1.68065 -6.9939 0
M  V30 69 C 8.4563 1.78626 -5.63779 0
M  V30 70 C 7.8183 1.56353 -6.86828 0
M  V30 71 H 3.9173 0.566301 -0.539283 0
M  V30 72 H 6.5013 0.917736 -1.71714 0
M  V30 73 H 4.6723 3.43614 -1.81063 0
M  V30 74 H 6.4043 3.48775 -2.05275 0
M  V30 75 H 3.1593 2.6813 -3.90389 0
M  V30 76 H 3.5833 2.05771 -6.44971 0
M  V30 77 H 8.2253 2.28808 -3.55537 0
M  V30 78 H 5.9433 1.50895 -7.93887 0
M  V30 79 H 9.5293 1.68502 -5.56865 0
M  V30 80 H 8.4093 1.30223 -7.73312 0
M  V30 81 N 5.9124 1.20967 1.01018 0
M  V30 82 C 7.1374 1.0503 1.78839 0
M  V30 83 C 7.5624 -0.395752 1.8389 0
M  V30 84 O 6.9204 -1.28529 1.27867 0
M  V30 85 C 6.9684 1.64602 3.2084 0
M  V30 86 O 6.0724 0.887988 4.02726 0
M  V30 87 H 5.4134 0.369987 0.551367 0
M  V30 88 H 7.9434 1.60399 1.27018 0
M  V30 89 H 7.9534 1.68607 3.71532 0
M  V30 90 H 6.6284 2.69841 3.16479 0
M  V30 91 H 5.2054 0.922648 3.61305 0
M  V30 92 N 7.3905 -1.2043 1.01659 0
M  V30 93 C 8.6155 -1.94318 0.724942 0
M  V30 94 C 9.0405 -1.74266 -0.708034 0
M  V30 95 O 8.3985 -1.03694 -1.48719 0
M  V30 96 C 8.4465 -3.44486 1.06591 0
M  V30 97 O 7.5505 -4.12017 0.177599 0
M  V30 98 H 6.8915 -0.60708 0.26898 0
M  V30 99 H 9.4215 -1.52861 1.35995 0
M  V30 100 H 9.4315 -3.95106 1.01762 0
M  V30 101 H 8.1065 -3.58404 2.10997 0
M  V30 102 H 6.6835 -3.71821 0.283421 0
M  V30 103 N 8.8686 -0.792821 -1.36206 0
M  V30 104 C 10.0986 -0.378275 -2.03107 0
M  V30 105 C 10.5066 1.01119 -1.59911 0
M  V30 106 O 9.8496 1.66052 -0.785658 0
M  V30 107 C 9.9116 -0.366535 -3.57627 0
M  V30 108 C 9.5756 -1.70416 -4.24037 0
M  V30 109 C 10.5726 -2.6602 -4.46687 0
M  V30 110 C 8.2576 -1.98439 -4.6144 0
M  V30 111 C 10.2516 -3.8784 -5.05825 0
M  V30 112 C 7.9386 -3.20525 -5.20295 0
M  V30 113 C 8.9366 -4.15044 -5.42427 0
M  V30 114 O 8.6246 -5.34978 -6.00045 0
M  V30 115 H 8.3566 -0.153543 -0.658332 0
M  V30 116 H 10.9106 -1.07383 -1.75094 0
M  V30 117 H 9.1406 0.385539 -3.84773 0
M  V30 118 H 10.8296 0.0238088 -4.05893 0
M  V30 119 H 11.5956 -2.45658 -4.18183 0
M  V30 120 H 7.4746 -1.25686 -4.43536 0
M  V30 121 H 11.0186 -4.61628 -5.23015 0
M  V30 122 H 6.9156 -3.40764 -5.48225 0
M  V30 123 H 7.6836 -5.36088 -6.18508 0
M  V30 124 N 10.3467 1.47872 -0.545128 0
M  V30 125 C 11.2767 2.32661 0.197793 0
M  V30 126 C 12.2577 1.43041 0.920504 0
M  V30 127 O 13.4427 1.71912 0.90333 0
M  V30 128 C 10.5727 3.24569 1.23582 0
M  V30 129 C 9.5267 4.23333 0.630323 0
M  V30 130 C 8.8527 5.0448 1.77211 0
M  V30 131 C 10.1527 5.20704 -0.407974 0
M  V30 132 H 11.8467 2.95024 -0.510045 0
M  V30 133 H 9.3927 1.4187 -0.246731 0
M  V30 134 H 11.3457 3.8272 1.76362 0
M  V30 135 H 10.0697 2.60236 1.97344 0
M  V30 136 H 8.7287 3.6639 0.123922 0
M  V30 137 H 8.3767 4.36561 2.49847 0
M  V30 138 H 8.0767 5.71339 1.37281 0
M  V30 139 H 9.6007 5.65487 2.3034 0
M  V30 140 H 11.0147 5.7329 0.033305 0
M  V30 141 H 9.4117 5.95699 -0.725486 0
M  V30 142 H 10.4817 4.66917 -1.30828 0
M  V30 143 N 11.8248 0.280983 1.55075 0
M  V30 144 C 12.7548 -0.597469 2.25727 0
M  V30 145 C 13.7358 -1.15417 1.24952 0
M  V30 146 O 14.9208 -1.18722 1.53684 0
M  V30 147 C 12.0508 -1.7789 2.98283 0
M  V30 148 C 11.0048 -1.35347 4.06036 0
M  V30 149 C 10.3308 -2.61846 4.66198 0
M  V30 150 C 11.6308 -0.499354 5.19907 0
M  V30 151 H 13.3248 -0.00824265 2.99399 0
M  V30 152 H 10.8708 -0.0025244 1.44 0
M  V30 153 H 12.8238 -2.39937 3.46422 0
M  V30 154 H 11.5478 -2.39405 2.22155 0
M  V30 155 H 10.2068 -0.756156 3.58717 0
M  V30 156 H 9.8548 -3.21632 3.86732 0
M  V30 157 H 9.5548 -2.3409 5.38958 0
M  V30 158 H 11.0788 -3.24732 5.1709 0
M  V30 159 H 12.4928 -1.02498 5.64063 0
M  V30 160 H 10.8898 -0.316424 5.99265 0
M  V30 161 H 11.9598 0.480459 4.82514 0
M  V30 162 N 13.3029 -1.57598 0.00835791 0
M  V30 163 C 14.5509 -1.90551 -0.6734 0
M  V30 164 C 14.8719 -0.883301 -1.73847 0
M  V30 165 O 14.1419 0.0781442 -1.95744 0
M  V30 166 H 12.7219 -0.703312 -0.251717 0
M  V30 167 H 15.3839 -1.94833 0.0512592 0
M  V30 168 H 14.4799 -2.9056 -1.13935 0
M  V30 169 N 14.781 0.264519 -1.55364 0
M  V30 170 C 16.027 0.992314 -1.77552 0
M  V30 171 C 16.382 1.83626 -0.574379 0
M  V30 172 O 15.675 1.86648 0.432782 0
M  V30 173 C 15.869 1.9004 -3.02687 0
M  V30 174 C 15.698 1.14583 -4.34857 0
M  V30 175 C 14.468 0.858068 -4.97961 0
M  V30 176 C 16.666 0.532069 -5.1154 0
M  V30 177 N 14.648 0.0775974 -6.13851 0
M  V30 178 C 16.019 -0.113823 -6.19896 0
M  V30 179 C 18.074 0.440763 -4.95945 0
M  V30 180 C 16.777 -0.842231 -7.14352 0
M  V30 181 C 18.803 -0.274072 -5.90765 0
M  V30 182 C 18.165 -0.90867 -6.98515 0
M  V30 183 H 14.264 0.344811 -0.701875 0
M  V30 184 H 16.848 0.267141 -1.92859 0
M  V30 185 H 15.019 2.59775 -2.88741 0
M  V30 186 H 16.751 2.56243 -3.13243 0
M  V30 187 H 13.506 1.16547 -4.59036 0
M  V30 188 H 13.93 -0.300216 -6.76334 0
M  V30 189 H 18.572 0.917064 -4.12735 0
M  V30 190 H 16.29 -1.33019 -7.97077 0
M  V30 191 H 19.876 -0.345151 -5.80775 0
M  V30 192 H 18.756 -1.45299 -7.70622 0
M  V30 193 N 16.2591 1.48442 0.529413 0
M  V30 194 C 17.4871 1.60151 1.30994 0
M  V30 195 C 17.9021 0.261985 1.86973 0
M  V30 196 O 17.2591 -0.748805 1.66431 0
M  V30 197 C 17.3101 2.64854 2.46038 0
M  V30 198 O 17.0311 3.93608 1.92365 0
M  V30 199 C 18.5321 2.87007 3.37849 0
M  V30 200 H 15.7521 0.539971 0.398338 0
M  V30 201 H 18.2961 1.94273 0.638597 0
M  V30 202 H 16.4511 2.33589 3.09055 0
M  V30 203 H 16.8651 4.51055 2.67675 0
M  V30 204 H 18.3391 3.64068 4.14919 0
M  V30 205 H 18.8161 1.95852 3.93114 0
M  V30 206 H 19.4221 3.19579 2.80623 0
M  V30 207 N 17.7372 -0.778329 1.37039 0
M  V30 208 C 18.9652 -1.56734 1.35063 0
M  V30 209 C 19.3802 -1.88686 -0.0655597 0
M  V30 210 O 18.7372 -1.5096 -1.02554 0
M  V30 211 C 18.7882 -2.88163 2.18276 0
M  V30 212 O 18.5092 -2.57583 3.54376 0
M  V30 213 C 20.0102 -3.82422 2.24206 0
M  V30 214 H 17.2302 -0.485778 0.462883 0
M  V30 215 H 19.7742 -0.965185 1.8029 0
M  V30 216 H 17.9292 -3.44818 1.76576 0
M  V30 217 H 18.3432 -3.41699 3.97922 0
M  V30 218 H 19.8172 -4.71667 2.86765 0
M  V30 219 H 20.2942 -4.21078 1.24861 0
M  V30 220 H 20.9002 -3.31697 2.6619 0
M  V30 221 N 19.2153 -1.21501 -1.00376 0
M  V30 222 C 20.4623 -1.03299 -1.74171 0
M  V30 223 C 20.7903 0.433326 -1.89612 0
M  V30 224 O 20.0453 1.33779 -1.42834 0
M  V30 225 C 20.3443 -1.67673 -3.15627 0
M  V30 226 C 20.0103 -3.17533 -3.2013 0
M  V30 227 C 18.6723 -3.58427 -3.21067 0
M  V30 228 C 21.0243 -4.13504 -3.17275 0
M  V30 229 C 18.3523 -4.93794 -3.16835 0
M  V30 230 C 20.7043 -5.48834 -3.14585 0
M  V30 231 C 19.3683 -5.89123 -3.13831 0
M  V30 232 H 18.6383 -0.377999 -0.637336 0
M  V30 233 H 21.2853 -1.51111 -1.17634 0
M  V30 234 H 19.5903 -1.12158 -3.75404 0
M  V30 235 H 21.2873 -1.51091 -3.71446 0
M  V30 236 H 17.8773 -2.84965 -3.20145 0
M  V30 237 H 22.0613 -3.82936 -3.15711 0
M  V30 238 H 17.3173 -5.24255 -3.1459 0
M  V30 239 H 21.4913 -6.22934 -3.1133 0
M  V30 240 H 19.1183 -6.93984 -3.10307 0
M  V30 241 N 20.6934 1.19889 -1.02296 0
M  V30 242 C 21.6234 2.25141 -0.619174 0
M  V30 243 C 22.6044 1.66051 0.368915 0
M  V30 244 O 23.7894 1.92546 0.252941 0
M  V30 245 C 20.9194 3.4728 0.0368783 0
M  V30 246 C 19.8734 4.19005 -0.872865 0
M  V30 247 C 19.1994 5.34637 -0.0822402 0
M  V30 248 C 20.4994 4.74452 -2.18387 0
M  V30 249 H 22.1934 2.59171 -1.49903 0
M  V30 250 H 19.7394 1.24579 -0.722222 0
M  V30 251 H 21.6924 4.20098 0.330958 0
M  V30 252 H 20.4164 3.12433 0.95149 0
M  V30 253 H 19.0754 3.48061 -1.15105 0
M  V30 254 H 18.7234 4.96034 0.83422 0
M  V30 255 H 18.4234 5.83557 -0.688149 0
M  V30 256 H 19.9474 6.10255 0.205238 0
M  V30 257 H 21.3614 5.39055 -1.95172 0
M  V30 258 H 19.7584 5.33834 -2.74119 0
M  V30 259 H 20.8284 3.92844 -2.84257 0
M  V30 260 N 22.1715 0.800033 1.35784 0
M  V30 261 C 23.1015 0.220184 2.3246 0
M  V30 262 C 24.0825 -0.65073 1.57161 0
M  V30 263 O 25.2675 -0.582359 1.85263 0
M  V30 264 C 22.3975 -0.637353 3.41402 0
M  V30 265 C 21.3515 0.134531 4.27789 0
M  V30 266 C 20.6775 -0.844285 5.27992 0
M  V30 267 C 21.9775 1.32979 5.05088 0
M  V30 268 H 23.6715 1.02787 2.81203 0
M  V30 269 H 21.2175 0.495717 1.35199 0
M  V30 270 H 23.1705 -1.05302 4.08031 0
M  V30 271 H 21.8945 -1.47785 2.91251 0
M  V30 272 H 20.5535 0.531296 3.6273 0
M  V30 273 H 20.2015 -1.68011 4.74111 0
M  V30 274 H 19.9015 -0.332184 5.8666 0
M  V30 275 H 21.4255 -1.2583 5.97494 0
M  V30 276 H 22.8395 0.98934 5.64699 0
M  V30 277 H 21.2365 1.77593 5.7322 0
M  V30 278 H 22.3065 2.11978 4.36111 0
M  V30 279 N 23.6496 -1.47581 0.552962 0
M  V30 280 C 24.8796 -2.06575 0.0320091 0
M  V30 281 C 25.2876 -1.4067 -1.26525 0
M  V30 282 O 24.6306 -0.495808 -1.76883 0
M  V30 283 C 24.6926 -3.58705 -0.238913 0
M  V30 284 C 24.3566 -4.46625 0.968272 0
M  V30 285 C 25.3536 -4.85 1.87274 0
M  V30 286 C 23.0386 -4.88201 1.18175 0
M  V30 287 C 25.0326 -5.63745 2.9744 0
M  V30 288 C 22.7196 -5.66712 2.28651 0
M  V30 289 C 23.7176 -6.04394 3.18114 0
M  V30 290 O 23.4056 -6.81324 4.26676 0
M  V30 291 H 23.1376 -0.674763 0.0408689 0
M  V30 292 H 25.6916 -1.90634 0.764719 0
M  V30 293 H 23.9216 -3.72844 -1.02588 0
M  V30 294 H 25.6106 -3.99735 -0.704731 0
M  V30 295 H 26.3766 -4.53482 1.71984 0
M  V30 296 H 22.2556 -4.58339 0.494593 0
M  V30 297 H 25.7996 -5.93077 3.67296 0
M  V30 298 H 21.6966 -5.97642 2.43915 0
M  V30 299 H 22.4646 -6.99712 4.24671 0
M  V30 300 N 25.1277 -0.289203 -1.54924 0
M  V30 301 C 26.3527 0.329299 -2.04769 0
M  V30 302 C 26.7777 1.4763 -1.16564 0
M  V30 303 O 26.1357 1.80527 -0.167186 0
M  V30 304 C 26.1837 0.774438 -3.52186 0
M  V30 305 O 25.2877 1.88038 -3.67036 0
M  V30 306 H 24.6287 0.0659259 -0.660719 0
M  V30 307 H 27.1587 -0.42761 -2.00082 0
M  V30 308 H 27.1687 1.06642 -3.93816 0
M  V30 309 H 25.8437 -0.0646707 -4.1585 0
M  V30 310 H 24.4207 1.58985 -3.3731 0
M  V30 311 N 26.6058 1.57591 -0.0167156 0
M  V30 312 C 27.8358 1.95292 0.674149 0
M  V30 313 C 28.2438 0.891097 1.66901 0
M  V30 314 O 27.5868 -0.136908 1.83189 0
M  V30 315 C 27.6488 3.29072 1.44747 0
M  V30 316 C 27.3128 4.52879 0.612331 0
M  V30 317 C 28.3098 5.1979 -0.107126 0
M  V30 318 C 25.9948 4.99242 0.553381 0
M  V30 319 C 27.9888 6.31375 -0.874339 0
M  V30 320 C 25.6758 6.10713 -0.217546 0
M  V30 321 C 26.6738 6.76637 -0.930123 0
M  V30 322 O 26.3618 7.85969 -1.68844 0
M  V30 323 H 26.0938 0.648275 0.191615 0
M  V30 324 H 28.6478 2.05284 -0.0690148 0
M  V30 325 H 26.8778 3.15535 2.2355 0
M  V30 326 H 28.5668 3.51764 2.02526 0
M  V30 327 H 29.3328 4.84948 -0.0708392 0
M  V30 328 H 25.2118 4.47744 1.09757 0
M  V30 329 H 28.7558 6.82764 -1.43106 0
M  V30 330 H 24.6528 6.44994 -0.255593 0
M  V30 331 H 25.4208 8.02571 -1.6069 0
M  V30 332 N 28.0839 -0.256276 1.55502 0
M  V30 333 C 28.9939 -1.33882 1.92647 0
M  V30 334 C 30.0099 -1.53159 0.825727 0
M  V30 335 O 31.1859 -1.66963 1.12629 0
M  V30 336 C 28.2509 -2.6751 2.20543 0
M  V30 337 C 27.3119 -2.56836 3.43997 0
M  V30 338 C 26.5449 -3.84092 3.70553 0
M  V30 339 O 26.7679 -4.85545 2.99336 0
M  V30 340 O 25.7019 -3.83288 4.64084 0
M  V30 341 H 29.5279 -1.05374 2.84833 0
M  V30 342 H 27.1129 -0.456237 1.42263 0
M  V30 343 H 28.9949 -3.46492 2.39835 0
M  V30 344 H 27.6699 -2.9577 1.31536 0
M  V30 345 H 26.5769 -1.76172 3.30021 0
M  V30 346 H 27.9099 -2.33523 4.33275 0
M  V30 347 N 29.562 -1.4872 -0.521534 0
M  V30 348 C 30.787 -1.61101 -1.30618 0
M  V30 349 C 31.212 -0.274611 -1.86085 0
M  V30 350 O 30.57 0.754937 -1.64834 0
M  V30 351 C 30.618 -2.66709 -2.4269 0
M  V30 352 O 29.722 -2.24456 -3.45967 0
M  V30 353 H 29.063 -0.539921 -0.386499 0
M  V30 354 H 31.593 -1.94767 -0.626645 0
M  V30 355 H 31.603 -2.88245 -2.88754 0
M  V30 356 H 30.278 -3.63727 -2.01682 0
M  V30 357 H 28.855 -2.13168 -3.05964 0
M  V30 358 N 31.0401 0.771051 -1.3745 0
M  V30 359 C 32.2651 1.56529 -1.36065 0
M  V30 360 C 32.6901 1.88029 0.0515859 0
M  V30 361 O 32.0481 1.49282 1.02882 0
M  V30 362 C 32.0961 2.85187 -2.20683 0
M  V30 363 O 31.2001 3.79593 -1.61193 0
M  V30 364 H 30.5411 0.47411 -0.464883 0
M  V30 365 H 33.0711 0.954269 -1.80983 0
M  V30 366 H 33.0811 3.34283 -2.33921 0
M  V30 367 H 31.7561 2.61588 -3.23334 0
M  V30 368 H 30.3331 3.38239 -1.56999 0
M  V30 369 N 32.5182 1.22032 0.997298 0
M  V30 370 C 33.7662 1.04016 1.73278 0
M  V30 371 C 34.0872 -0.426255 1.90284 0
M  V30 372 O 33.3572 -1.30694 1.45931 0
M  V30 373 H 31.9372 0.381897 0.642 0
M  V30 374 H 34.5992 1.5347 1.20137 0
M  V30 375 H 33.6952 1.51441 2.72896 0
M  V30 376 N 33.9963 -1.19345 1.0293 0
M  V30 377 C 35.2443 -1.88665 0.724574 0
M  V30 378 C 35.5653 -1.80036 -0.749144 0
M  V30 379 O 34.8353 -1.2111 -1.53978 0
M  V30 380 H 33.4153 -0.698406 0.265025 0
M  V30 381 H 36.0773 -1.44885 1.30362 0
M  V30 382 H 35.1733 -2.94987 1.01926 0
M  V30 383 N 35.4744 -0.807222 -1.35358 0
M  V30 384 C 36.4074 -0.163572 -2.27613 0
M  V30 385 C 37.3854 0.670817 -1.48118 0
M  V30 386 O 38.5694 0.63796 -1.77376 0
M  V30 387 C 35.6964 0.773015 -3.29761 0
M  V30 388 C 34.7424 0.0181653 -4.26496 0
M  V30 389 S 35.5754 -1.31831 -5.19019 0
M  V30 390 C 36.7314 -0.38619 -6.24707 0
M  V30 391 H 36.9644 -0.945757 -2.81856 0
M  V30 392 H 34.4974 -0.602315 -1.42167 0
M  V30 393 H 36.4554 1.30788 -3.89108 0
M  V30 394 H 35.1164 1.52859 -2.74396 0
M  V30 395 H 34.3094 0.729534 -4.98692 0
M  V30 396 H 33.9114 -0.446761 -3.71322 0
M  V30 397 H 36.2034 0.428295 -6.76145 0
M  V30 398 H 37.1464 -1.07736 -6.99856 0
M  V30 399 H 37.5544 0.018398 -5.64497 0
M  V30 400 N 36.9525 1.47285 -0.560781 0
M  V30 401 C 37.9025 2.27073 0.205384 0
M  V30 402 C 38.8865 1.34569 0.882044 0
M  V30 403 O 40.0785 1.58899 0.77976 0
M  V30 404 C 37.2075 3.20414 1.23247 0
M  V30 405 C 36.2935 4.20399 0.559041 0
M  V30 406 N 36.6845 5.04423 -0.372927 0
M  V30 407 C 34.9825 4.38536 0.812522 0
M  V30 408 C 35.6835 5.76655 -0.764446 0
M  V30 409 N 34.6595 5.43471 -0.11848 0
M  V30 410 H 38.4615 2.89422 -0.511117 0
M  V30 411 H 35.9755 1.57868 -0.380975 0
M  V30 412 H 37.9725 3.76262 1.79534 0
M  V30 413 H 36.6325 2.59623 1.95002 0
M  V30 414 H 37.6435 5.1248 -0.747287 0
M  V30 415 H 34.3205 3.88913 1.51832 0
M  V30 416 H 35.7105 6.54238 -1.53045 0
M  V30 417 N 38.4306 0.297415 1.54768 0
M  V30 418 C 39.3406 -0.58983 2.27064 0
M  V30 419 C 40.3566 -1.15144 1.30453 0
M  V30 420 O 41.5326 -1.17699 1.63428 0
M  V30 421 C 38.5976 -1.74714 2.9946 0
M  V30 422 C 37.6586 -1.21997 4.11601 0
M  V30 423 C 36.8916 -2.32212 4.80535 0
M  V30 424 O 37.1146 -3.52036 4.48806 0
M  V30 425 O 36.0486 -1.99106 5.68014 0
M  V30 426 H 39.8746 -0.00348199 3.037 0
M  V30 427 H 37.4596 0.0640035 1.49263 0
M  V30 428 H 39.3416 -2.42147 3.44881 0
M  V30 429 H 38.0166 -2.32016 2.25722 0
M  V30 430 H 36.9236 -0.511458 3.70587 0
M  V30 431 H 38.2566 -0.692419 4.87305 0
M  V30 432 N 39.9087 -1.5758 0.0250728 0
M  V30 433 C 40.8187 -2.1343 -0.973905 0
M  V30 434 C 41.8347 -1.08556 -1.35984 0
M  V30 435 O 43.0107 -1.40592 -1.44207 0
M  V30 436 C 40.0757 -2.64703 -2.23904 0
M  V30 437 C 39.1367 -3.84276 -1.91391 0
M  V30 438 C 38.3697 -4.33095 -3.11873 0
M  V30 439 O 38.5927 -3.81107 -4.24398 0
M  V30 440 O 37.5267 -5.24984 -2.94406 0
M  V30 441 H 41.3527 -2.99057 -0.529036 0
M  V30 442 H 38.9377 -1.48118 -0.195288 0
M  V30 443 H 40.8197 -2.97769 -2.98181 0
M  V30 444 H 39.4947 -1.82161 -2.6758 0
M  V30 445 H 38.4017 -3.56143 -1.14511 0
M  V30 446 H 39.7347 -4.67968 -1.52534 0
M  V30 447 N 41.3868 0.248026 -1.55636 0
M  V30 448 C 42.6268 0.983592 -1.79178 0
M  V30 449 C 42.9908 1.82567 -0.594414 0
M  V30 450 O 44.1918 2.59292 -0.708583 0
M  V30 451 C 42.4628 1.82228 -3.07454 0
M  V30 452 S 44.0218 2.61709 -3.52213 0
M  V30 453 H 40.8398 0.330866 -0.629324 0
M  V30 454 H 43.4418 0.251562 -1.93875 0
M  V30 455 H 42.1458 1.19333 -3.92668 0
M  V30 456 H 41.6768 2.59708 -2.95492 0
M  V30 457 H 43.6918 3.84655 -3.13457 0
M  V30 458 N 42.8649 1.48995 0.513639 0
M  V30 459 C 44.1109 1.58076 1.27042 0
M  V30 460 C 44.4439 0.261026 1.92438 0
M  V30 461 O 43.7189 -0.734393 1.80103 0
M  V30 462 C 44.0019 2.73091 2.34719 0
M  V30 463 C 43.8549 4.14821 1.73907 0
M  V30 464 C 45.1739 2.83796 3.36375 0
M  V30 465 H 42.2929 0.575391 0.460536 0
M  V30 466 H 44.9349 1.81232 0.570516 0
M  V30 467 H 43.0849 2.53479 2.94416 0
M  V30 468 H 44.7569 4.45917 1.18135 0
M  V30 469 H 42.9999 4.21058 1.0437 0
M  V30 470 H 43.6709 4.91147 2.51949 0
M  V30 471 H 46.1469 3.01611 2.86653 0
M  V30 472 H 45.0229 3.65971 4.09093 0
M  V30 473 H 45.2839 1.92624 3.9793 0
M  V30 474 N 44.343 -0.763751 1.37857 0
M  V30 475 C 45.59 -1.52257 1.33506 0
M  V30 476 C 45.918 -1.94343 -0.078022 0
M  V30 477 O 45.173 -1.64958 -1.05297 0
M  V30 478 C 45.472 -2.79499 2.22745 0
M  V30 479 C 45.138 -2.56426 3.70886 0
M  V30 480 C 43.8 -2.49842 4.11257 0
M  V30 481 C 46.152 -2.36008 4.64704 0
M  V30 482 C 43.48 -2.20841 5.43549 0
M  V30 483 C 45.832 -2.0853 5.97242 0
M  V30 484 C 44.496 -2.00396 6.36709 0
M  V30 485 H 43.766 -0.557149 0.488534 0
M  V30 486 H 46.413 -0.879073 1.70131 0
M  V30 487 H 44.718 -3.48447 1.79142 0
M  V30 488 H 46.415 -3.37413 2.16688 0
M  V30 489 H 43.005 -2.62416 3.38874 0
M  V30 490 H 47.189 -2.40079 4.34368 0
M  V30 491 H 42.445 -2.13045 5.73081 0
M  V30 492 H 46.619 -1.91732 6.69486 0
M  V30 493 H 44.246 -1.77688 7.39142 0
M  V30 494 N 45.8211 -1.22559 -0.990812 0
M  V30 495 C 47.2321 -1.04791 -1.54518 0
M  V30 496 C 47.5831 0.387998 -1.92325 0
M  V30 497 O 46.7081 1.27328 -1.74976 0
M  V30 498 C 47.3031 -1.896 -2.80779 0
M  V30 499 C 45.8621 -1.76124 -3.32652 0
M  V30 500 C 45.0091 -1.8594 -2.05722 0
M  V30 501 H 47.9601 -1.36374 -0.811662 0
M  V30 502 H 47.9811 -1.41464 -3.53225 0
M  V30 503 H 47.4931 -2.94101 -2.53231 0
M  V30 504 H 45.5941 -0.743643 -3.65104 0
M  V30 505 H 45.7071 -2.58913 -4.03114 0
M  V30 506 H 44.0711 -1.29403 -2.19379 0
M  V30 507 H 44.8541 -2.91976 -1.80568 0
M  V30 508 N 47.2992 1.18797 -1.03562 0
M  V30 509 C 48.5462 1.8865 -0.736023 0
M  V30 510 C 48.8742 1.80041 0.735889 0
M  V30 511 O 48.1292 1.19179 1.55225 0
M  V30 512 C 48.4282 3.38692 -1.14117 0
M  V30 513 C 48.0942 3.67504 -2.6125 0
M  V30 514 C 46.7562 3.75078 -3.01447 0
M  V30 515 C 49.1082 3.80293 -3.56408 0
M  V30 516 C 46.4362 3.92915 -4.35701 0
M  V30 517 C 48.7882 3.99645 -4.90374 0
M  V30 518 C 47.4522 4.05453 -5.30249 0
M  V30 519 H 46.7222 0.690321 -0.26933 0
M  V30 520 H 49.3692 1.40641 -1.29971 0
M  V30 521 H 47.6742 3.88645 -0.496202 0
M  V30 522 H 49.3712 3.91072 -0.886789 0
M  V30 523 H 45.9612 3.62223 -2.29113 0
M  V30 524 H 50.1452 3.73779 -3.26501 0
M  V30 525 H 45.4012 3.95653 -4.66121 0
M  V30 526 H 49.5752 4.08482 -5.64017 0
M  V30 527 H 47.2022 4.19027 -6.34288 0
M  V30 528 N 48.7773 0.814389 1.34928 0
M  V30 529 C 50.0053 0.411136 2.02774 0
M  V30 530 C 50.4203 -0.980316 1.61354 0
M  V30 531 O 49.7773 -1.63299 0.814847 0
M  V30 532 C 49.8283 0.493865 3.58111 0
M  V30 533 O 49.5493 1.83047 3.98027 0
M  V30 534 C 51.0503 0.0844174 4.4322 0
M  V30 535 H 48.2703 0.166037 0.650133 0
M  V30 536 H 50.8143 1.10018 1.72384 0
M  V30 537 H 48.9693 -0.147006 3.87121 0
M  V30 538 H 49.3833 1.79872 4.92693 0
M  V30 539 H 50.8573 0.193404 5.51661 0
M  V30 540 H 51.3343 -0.97113 4.28329 0
M  V30 541 H 51.9403 0.69875 4.19521 0
M  V30 542 N 50.2554 -1.46986 0.568584 0
M  V30 543 C 51.4854 -2.0653 0.0539173 0
M  V30 544 C 51.8934 -1.42004 -1.25026 0
M  V30 545 O 51.2364 -0.514541 -1.76347 0
M  V30 546 C 51.2984 -3.58938 -0.200854 0
M  V30 547 C 50.9624 -4.45572 1.01559 0
M  V30 548 C 51.9594 -4.82986 1.92407 0
M  V30 549 C 49.6444 -4.8692 1.23346 0
M  V30 550 C 51.6384 -5.60559 3.03402 0
M  V30 551 C 49.3254 -5.64255 2.34649 0
M  V30 552 C 50.3234 -6.00986 3.24507 0
M  V30 553 O 50.0114 -6.76761 4.33878 0
M  V30 554 H 49.7434 -0.674292 0.0480234 0
M  V30 555 H 52.2974 -1.89812 0.784896 0
M  V30 556 H 50.5274 -3.73911 -0.986279 0
M  V30 557 H 52.2164 -4.0046 -0.662294 0
M  V30 558 H 52.9824 -4.51633 1.76785 0
M  V30 559 H 48.8614 -4.57789 0.543178 0
M  V30 560 H 52.4054 -5.89147 3.73565 0
M  V30 561 H 48.3024 -5.95021 2.5024 0
M  V30 562 H 49.0704 -6.95168 4.32068 0
M  V30 563 N 51.7335 -0.305618 -1.54608 0
M  V30 564 C 52.6805 0.568421 -2.23691 0
M  V30 565 C 53.6505 1.12592 -1.22116 0
M  V30 566 O 54.8355 1.16959 -1.50749 0
M  V30 567 C 51.9755 1.7322 -2.98477 0
M  V30 568 C 51.0885 1.20566 -4.14835 0
M  V30 569 C 50.2235 2.33368 -4.77193 0
M  V30 570 C 49.2625 1.7787 -5.85686 0
M  V30 571 N 48.3995 2.84263 -6.4198 0
M  V30 572 H 53.2395 -0.0272867 -2.97988 0
M  V30 573 H 50.7765 -0.0252363 -1.47078 0
M  V30 574 H 52.7345 2.41675 -3.40072 0
M  V30 575 H 51.3645 2.29947 -2.26548 0
M  V30 576 H 50.4165 0.413223 -3.78149 0
M  V30 577 H 51.7285 0.759417 -4.92985 0
M  V30 578 H 50.8825 3.09761 -5.21664 0
M  V30 579 H 49.6215 2.8132 -3.98385 0
M  V30 580 H 48.6265 0.99968 -5.40635 0
M  V30 581 H 49.8515 1.30816 -6.66381 0
M  V30 582 H 47.7975 3.31541 -5.66053 0
M  V30 583 H 47.7145 2.44149 -7.15491 0
M  V30 584 H 48.9825 3.6054 -6.91109 0
M  V30 585 N 53.2116 1.57565 -0.0334293 0
M  V30 586 C 54.4596 1.91598 0.642999 0
M  V30 587 C 54.7806 0.910847 1.7242 0
M  V30 588 O 54.0506 -0.0469931 1.95844 0
M  V30 589 H 52.6306 0.707228 0.240496 0
M  V30 590 H 55.2926 1.94726 -0.0822488 0
M  V30 591 H 54.3886 2.92336 1.09298 0
M  V30 592 N 54.6897 -0.239769 1.55765 0
M  V30 593 C 55.9147 -0.988373 1.82335 0
M  V30 594 C 56.3397 -1.77886 0.611421 0
M  V30 595 O 55.6977 -1.75889 -0.439639 0
M  V30 596 C 55.7457 -1.89627 3.06715 0
M  V30 597 O 54.8497 -2.98904 2.84131 0
M  V30 598 H 54.1907 -0.280858 0.601677 0
M  V30 599 H 56.7207 -0.258597 2.02959 0
M  V30 600 H 56.7307 -2.30957 3.36338 0
M  V30 601 H 55.4057 -1.31511 3.9456 0
M  V30 602 H 53.9827 -2.61651 2.65694 0
M  V30 603 N 56.1678 -1.49265 -0.50573 0
M  V30 604 C 57.4138 -1.58748 -1.26202 0
M  V30 605 C 57.7468 -0.271227 -1.92297 0
M  V30 606 O 57.0218 0.724831 -1.80489 0
M  V30 607 C 57.3048 -2.74332 -2.33268 0
M  V30 608 C 57.1578 -4.15737 -1.71705 0
M  V30 609 C 58.4768 -2.85576 -3.34865 0
M  V30 610 H 55.5958 -0.577826 -0.457478 0
M  V30 611 H 58.2378 -1.81532 -0.560897 0
M  V30 612 H 56.3878 -2.55036 -2.93068 0
M  V30 613 H 58.0598 -4.46537 -1.15769 0
M  V30 614 H 56.3028 -4.21605 -1.02135 0
M  V30 615 H 56.9738 -4.92477 -2.49341 0
M  V30 616 H 59.4498 -3.03127 -2.8505 0
M  V30 617 H 58.3258 -3.68135 -4.07146 0
M  V30 618 H 58.5868 -1.94732 -3.96903 0
M  V30 619 N 57.6459 0.756429 -1.3826 0
M  V30 620 C 58.8759 1.54341 -1.3734 0
M  V30 621 C 59.2839 1.89159 0.0393917 0
M  V30 622 O 58.6269 1.5307 1.01565 0
M  V30 623 C 58.6889 2.87238 -2.16182 0
M  V30 624 C 58.3529 2.74973 -3.65019 0
M  V30 625 C 59.3499 2.44962 -4.58574 0
M  V30 626 C 57.0349 2.92515 -4.08338 0
M  V30 627 C 59.0289 2.32642 -5.93428 0
M  V30 628 C 56.7159 2.79815 -5.43274 0
M  V30 629 C 57.7139 2.49921 -6.35632 0
M  V30 630 O 57.4019 2.37275 -7.68086 0
M  V30 631 H 57.1339 0.484281 -0.471643 0
M  V30 632 H 59.6879 0.944152 -1.82414 0
M  V30 633 H 57.9179 3.49342 -1.65822 0
M  V30 634 H 59.6069 3.48731 -2.07705 0
M  V30 635 H 60.3729 2.31081 -4.26412 0
M  V30 636 H 56.2519 3.14781 -3.368 0
M  V30 637 H 59.7959 2.0923 -6.65484 0
M  V30 638 H 55.6929 2.93269 -5.75034 0
M  V30 639 H 56.4609 2.52509 -7.78577 0
M  V30 640 N 59.124 1.23083 0.984299 0
M  V30 641 C 60.371 1.06057 1.72505 0
M  V30 642 C 60.699 -0.403105 1.90277 0
M  V30 643 O 59.954 -1.3149 1.44944 0
M  V30 644 C 60.253 1.72673 3.1292 0
M  V30 645 C 59.919 3.22586 3.15038 0
M  V30 646 C 58.581 3.63489 3.15324 0
M  V30 647 C 60.933 4.185 3.10657 0
M  V30 648 C 58.261 4.98772 3.08939 0
M  V30 649 C 60.613 5.53769 3.05814 0
M  V30 650 C 59.277 5.94041 3.04419 0
M  V30 651 H 58.547 0.388091 0.631242 0
M  V30 652 H 61.194 1.52963 1.15215 0
M  V30 653 H 59.499 1.18116 3.73572 0
M  V30 654 H 61.196 1.56982 3.68996 0
M  V30 655 H 57.786 2.90022 3.15571 0
M  V30 656 H 61.97 3.87911 3.09579 0
M  V30 657 H 57.226 5.29193 3.0621 0
M  V30 658 H 61.4 6.27808 3.0138 0
M  V30 659 H 59.027 6.98833 2.99227 0
M  V30 660 N 60.6021 -1.18246 1.0419 0
M  V30 661 C 61.8301 -1.92195 0.766072 0
M  V30 662 C 62.2451 -1.76247 -0.676933 0
M  V30 663 O 61.6021 -1.09293 -1.46155 0
M  V30 664 C 61.6531 -3.43568 1.12442 0
M  V30 665 O 61.3741 -3.59015 2.51078 0
M  V30 666 C 62.8751 -4.34613 0.873275 0
M  V30 667 H 60.0951 -0.610114 0.279288 0
M  V30 668 H 62.6391 -1.50007 1.38989 0
M  V30 669 H 60.7941 -3.8354 0.545542 0
M  V30 670 H 61.2081 -4.5273 2.64831 0
M  V30 671 H 62.6821 -5.39374 1.17385 0
M  V30 672 H 63.1591 -4.38781 -0.191909 0
M  V30 673 H 63.7651 -4.00341 1.43551 0
M  V30 674 N 62.0802 -0.821533 -1.34494 0
M  V30 675 C 63.3202 -0.414785 -2.00147 0
M  V30 676 C 63.6842 1.00299 -1.6372 0
M  V30 677 O 64.8852 1.51255 -2.22206 0
M  V30 678 C 63.1562 -0.609403 -3.52166 0
M  V30 679 S 64.7152 -0.295297 -4.37805 0
M  V30 680 H 61.5332 -0.15679 -0.693497 0
M  V30 681 H 64.1352 -1.06705 -1.63812 0
M  V30 682 H 62.8392 -1.64096 -3.76166 0
M  V30 683 H 62.3702 0.0576414 -3.93358 0
M  V30 684 H 64.3852 0.891531 -4.88125 0
M  V30 685 N 63.5583 1.46682 -0.576371 0
M  V30 686 C 64.7863 2.06798 -0.0649635 0
M  V30 687 C 65.2013 1.42612 1.23723 0
M  V30 688 O 64.5583 0.529203 1.74659 0
M  V30 689 C 64.6093 3.6132 0.114202 0
M  V30 690 O 64.3303 4.23104 -1.13644 0
M  V30 691 C 65.8313 4.38349 0.66069 0
M  V30 692 H 63.0513 0.668778 -0.0545616 0
M  V30 693 H 65.5953 1.88404 -0.795237 0
M  V30 694 H 63.7503 3.79162 0.794673 0
M  V30 695 H 64.1643 5.15894 -0.946253 0
M  V30 696 H 65.6383 5.47081 0.73526 0
M  V30 697 H 66.1153 4.05953 1.67627 0
M  V30 698 H 66.7213 4.25297 0.0152951 0
M  V30 699 N 65.0364 0.313813 1.54444 0
M  V30 700 C 65.9864 -0.571898 2.20711 0
M  V30 701 C 66.9704 -1.08913 1.18435 0
M  V30 702 O 68.1624 -1.02777 1.44104 0
M  V30 703 C 65.2914 -1.7371 2.96108 0
M  V30 704 C 64.3774 -1.23522 4.05713 0
M  V30 705 N 64.7684 -0.452288 5.03774 0
M  V30 706 C 63.0664 -1.51482 4.19487 0
M  V30 707 C 63.7674 -0.183438 5.81411 0
M  V30 708 N 62.7434 -0.766845 5.38164 0
M  V30 709 H 66.5454 0.0336802 2.93881 0
M  V30 710 H 64.0594 0.119192 1.61962 0
M  V30 711 H 66.0564 -2.38329 3.4206 0
M  V30 712 H 64.7164 -2.34625 2.24458 0
M  V30 713 H 65.7274 -0.0960131 5.17811 0
M  V30 714 H 62.4044 -2.13053 3.59047 0
M  V30 715 H 63.7944 0.446216 6.70417 0
M  V30 716 N 66.5145 -1.57545 0.0417849 0
M  V30 717 C 67.7635 -1.91494 -0.633492 0
M  V30 718 C 68.0765 -0.921084 -1.72556 0
M  V30 719 O 69.2825 -1.15228 -2.45835 0
M  V30 720 C 67.7385 -3.40072 -1.17808 0
M  V30 721 C 67.3465 -4.47843 -0.118633 0
M  V30 722 C 69.0905 -3.8307 -1.82915 0
M  V30 723 C 66.9975 -5.87529 -0.675578 0
M  V30 724 H 65.9275 -0.714653 -0.24039 0
M  V30 725 H 68.5785 -1.83175 0.109148 0
M  V30 726 H 66.9605 -3.43364 -1.97274 0
M  V30 727 H 68.1345 -4.56128 0.654494 0
M  V30 728 H 66.4495 -4.14128 0.434414 0
M  V30 729 H 69.0465 -4.84794 -2.25563 0
M  V30 730 H 69.3895 -3.1881 -2.67705 0
M  V30 731 H 69.9225 -3.82255 -1.10119 0
M  V30 732 H 66.6615 -6.55362 0.134475 0
M  V30 733 H 66.1815 -5.82824 -1.4169 0
M  V30 734 H 67.8605 -6.36491 -1.1614 0
M  V30 735 N 67.9926 0.231505 -1.5589 0
M  V30 736 C 68.9426 1.29007 -1.87993 0
M  V30 737 C 69.9266 1.42764 -0.742102 0
M  V30 738 O 71.1186 1.45747 -1.00433 0
M  V30 739 C 68.2476 2.6425 -2.1915 0
M  V30 740 C 67.3336 2.54435 -3.39299 0
M  V30 741 N 67.7246 2.14262 -4.58176 0
M  V30 742 C 66.0226 2.85416 -3.42715 0
M  V30 743 C 66.7236 2.15455 -5.40328 0
M  V30 744 N 65.6996 2.55558 -4.79783 0
M  V30 745 H 69.5016 0.970213 -2.77424 0
M  V30 746 H 67.0156 0.440097 -1.56323 0
M  V30 747 H 69.0126 3.40665 -2.40319 0
M  V30 748 H 67.6726 2.9709 -1.31025 0
M  V30 749 H 68.6836 1.85554 -4.83518 0
M  V30 750 H 65.3606 3.22693 -2.64906 0
M  V30 751 H 66.7506 1.86605 -6.45467 0
M  V30 752 N 69.4707 1.49531 0.497807 0
M  V30 753 C 70.6957 1.63159 1.28039 0
M  V30 754 C 71.1207 0.30418 1.85624 0
M  V30 755 O 70.4787 -0.728618 1.66015 0
M  V30 756 C 70.5267 2.70537 2.38416 0
M  V30 757 O 69.6307 2.29931 3.42353 0
M  V30 758 H 68.9717 0.546001 0.377861 0
M  V30 759 H 71.5017 1.9574 0.59558 0
M  V30 760 H 71.5117 2.92802 2.84132 0
M  V30 761 H 70.1867 3.6689 1.95869 0
M  V30 762 H 68.7637 2.18009 3.02533 0
M  V30 763 N 70.9488 -0.749086 1.3866 0
M  V30 764 C 71.8788 -1.8764 1.38973 0
M  V30 765 C 72.8598 -1.68178 0.255004 0
M  V30 766 O 74.0448 -1.88704 0.458754 0
M  V30 767 C 71.1748 -3.25222 1.21851 0
M  V30 768 C 70.1288 -3.59295 2.32575 0
M  V30 769 C 69.4548 -4.95663 2.00555 0
M  V30 770 C 70.7548 -3.63709 3.7485 0
M  V30 771 H 72.4488 -1.87635 2.3331 0
M  V30 772 H 69.9948 -0.901329 1.12303 0
M  V30 773 H 71.9478 -4.03746 1.20695 0
M  V30 774 H 70.6718 -3.25719 0.239775 0
M  V30 775 H 69.3308 -2.83093 2.32925 0
M  V30 776 H 68.9788 -4.92724 1.01154 0
M  V30 777 H 68.6788 -5.19429 2.74714 0
M  V30 778 H 70.2028 -5.7656 2.01024 0
M  V30 779 H 71.6168 -4.32338 3.76506 0
M  V30 780 H 70.0138 -3.98986 4.48252 0
M  V30 781 H 71.0838 -2.63834 4.06841 0
M  V30 782 N 72.4269 -1.23603 -0.977757 0
M  V30 783 C 73.6519 -1.09735 -1.75991 0
M  V30 784 C 74.0769 0.346858 -1.84874 0
M  V30 785 O 73.4349 1.25093 -1.3123 0
M  V30 786 C 73.4829 -1.73051 -3.16363 0
M  V30 787 O 72.5869 -0.994452 -4.0023 0
M  V30 788 H 71.9279 -0.384476 -0.541364 0
M  V30 789 H 74.4579 -1.6371 -1.2272 0
M  V30 790 H 74.4679 -1.78398 -3.66931 0
M  V30 791 H 73.1429 -2.78137 -3.09213 0
M  V30 792 H 71.7199 -1.01812 -3.58732 0
M  V30 793 N 73.905 1.17692 -1.04816 0
M  V30 794 C 75.316 1.69501 -0.782698 0
M  V30 795 C 75.667 1.83456 0.695577 0
M  V30 796 O 74.792 1.51942 1.54086 0
M  V30 797 C 75.387 3.07874 -1.41419 0
M  V30 798 C 73.946 3.56864 -1.19686 0
M  V30 799 C 73.093 2.3322 -1.50012 0
M  V30 800 H 76.044 1.02262 -1.2136 0
M  V30 801 H 76.065 3.71528 -0.821428 0
M  V30 802 H 75.577 2.97685 -2.49009 0
M  V30 803 H 73.678 3.72337 -0.140043 0
M  V30 804 H 73.791 4.39851 -1.89916 0
M  V30 805 H 72.155 2.37501 -0.920071 0
M  V30 806 H 72.938 2.25644 -2.58727 0
M  V30 807 N 75.3831 0.828654 1.34056 0
M  V30 808 C 76.6291 0.429279 1.98818 0
M  V30 809 C 76.9841 -0.998011 1.64492 0
M  V30 810 O 76.2771 -1.68652 0.909228 0
M  V30 811 C 76.4711 0.575226 3.52741 0
M  V30 812 C 76.3001 2.01515 4.02022 0
M  V30 813 C 75.0701 2.64825 4.30344 0
M  V30 814 C 77.2681 2.98261 4.18981 0
M  V30 815 N 75.2501 3.99998 4.65698 0
M  V30 816 C 76.6211 4.18356 4.57578 0
M  V30 817 C 78.6761 2.94802 4.01243 0
M  V30 818 C 77.3791 5.35454 4.80293 0
M  V30 819 C 79.4051 4.11121 4.25128 0
M  V30 820 C 78.7671 5.29969 4.64018 0
M  V30 821 H 74.8661 0.205304 0.754569 0
M  V30 822 H 77.4501 1.07457 1.62361 0
M  V30 823 H 75.6211 -0.0401962 3.88379 0
M  V30 824 H 77.3531 0.148292 4.04428 0
M  V30 825 H 74.1081 2.16027 4.21461 0
M  V30 826 H 74.5321 4.69653 4.87601 0
M  V30 827 H 79.1741 2.04054 3.70299 0
M  V30 828 H 76.8921 6.26755 5.10102 0
M  V30 829 H 80.4781 4.0985 4.12934 0
M  V30 830 H 79.3581 6.18479 4.82134 0
M  V30 831 N 76.8612 -1.46375 0.584142 0
M  V30 832 C 78.1012 -2.0427 0.0729695 0
M  V30 833 C 78.4652 -1.44563 -1.26355 0
M  V30 834 O 79.6662 -1.93667 -1.86405 0
M  V30 835 C 77.9372 -3.57399 0.00967464 0
M  V30 836 S 79.4962 -4.36551 -0.443714 0
M  V30 837 H 76.3142 -0.709975 0.0381673 0
M  V30 838 H 78.9162 -1.79398 0.776962 0
M  V30 839 H 77.6202 -3.98372 0.986319 0
M  V30 840 H 77.1512 -3.8681 -0.717044 0
M  V30 841 H 79.1662 -4.66237 -1.69816 0
M  V30 842 N 78.3393 -0.321999 -1.54275 0
M  V30 843 C 79.3023 0.531975 -2.22941 0
M  V30 844 C 80.3023 1.04478 -1.22234 0
M  V30 845 O 81.4923 0.937452 -1.46825 0
M  V30 846 C 78.6243 1.73874 -2.93224 0
M  V30 847 H 79.8173 -0.0682612 -2.99822 0
M  V30 848 H 77.3703 -0.0730644 -1.56129 0
M  V30 849 H 78.1053 2.37825 -2.20476 0
M  V30 850 H 77.8903 1.37847 -3.6707 0
M  V30 851 H 79.3803 2.34496 -3.45545 0
M  V30 852 N 79.8174 1.5752 -0.0501392 0
M  V30 853 C 81.0454 1.96963 0.633492 0
M  V30 854 C 81.4604 0.927631 1.6444 0
M  V30 855 O 80.8174 -0.0882665 1.82286 0
M  V30 856 C 80.8684 3.36487 1.32132 0
M  V30 857 O 80.5894 4.36693 0.350894 0
M  V30 858 C 82.0904 3.90682 2.09481 0
M  V30 859 H 79.3104 0.648244 0.173266 0
M  V30 860 H 81.8544 2.0417 -0.116134 0
M  V30 861 H 80.0094 3.30434 2.02218 0
M  V30 862 H 80.4234 5.17702 0.841735 0
M  V30 863 H 81.8974 4.90591 2.5303 0
M  V30 864 H 82.3744 3.26053 2.94255 0
M  V30 865 H 82.9804 4.00069 1.44307 0
M  V30 866 N 81.2955 -0.223234 1.56011 0
M  V30 867 C 82.7115 -0.572856 1.48965 0
M  V30 868 C 82.9115 -1.87225 0.74492 0
M  V30 869 O 81.9675 -2.50899 0.283896 0
M  V30 870 C 83.2805 -0.653646 2.9351 0
M  V30 871 C 84.8285 -0.744386 3.0402 0
M  V30 872 C 85.3035 -0.856535 4.49919 0
M  V30 873 N 86.7945 -0.9208 4.53955 0
M  V30 874 C 87.5295 -1.02726 5.64123 0
M  V30 875 N 87.0255 -1.09777 6.84047 0
M  V30 876 N 88.8185 -1.06226 5.51971 0
M  V30 877 H 80.9695 0.629462 2.02858 0
M  V30 878 H 83.2325 0.220621 0.921971 0
M  V30 879 H 82.9385 0.231518 3.50937 0
M  V30 880 H 82.8125 -1.51781 3.45315 0
M  V30 881 H 85.1995 -1.61999 2.46658 0
M  V30 882 H 85.2805 0.14541 2.55386 0
M  V30 883 H 84.9245 0.0146069 5.07898 0
M  V30 884 H 84.8545 -1.76172 4.96257 0
M  V30 885 H 87.3455 -0.876694 3.6759 0
M  V30 886 H 87.6585 -1.17872 7.63758 0
M  V30 887 H 86.0035 -1.06693 6.86762 0
M  V30 888 H 89.1945 -1.00382 4.5721 0
M  V30 889 H 89.3675 -1.14177 6.37862 0
M  V30 890 N 82.7736 -1.49793 -0.48987 0
M  V30 891 C 83.7366 -1.66752 -1.57246 0
M  V30 892 C 84.7366 -0.538867 -1.51502 0
M  V30 893 O 85.9266 -0.805545 -1.54456 0
M  V30 894 C 83.0586 -1.67528 -2.96896 0
M  V30 895 H 84.2516 -2.63321 -1.43534 0
M  V30 896 H 81.8046 -1.38992 -0.714914 0
M  V30 897 H 82.5396 -0.725837 -3.16073 0
M  V30 898 H 82.3246 -2.49504 -3.02473 0
M  V30 899 H 83.8146 -1.82667 -3.7553 0
M  V30 900 N 84.2517 0.741722 -1.39055 0
M  V30 901 C 85.4977 1.50336 -1.36113 0
M  V30 902 C 85.8307 1.94148 0.0450796 0
M  V30 903 O 85.1057 1.66301 1.00868 0
M  V30 904 C 85.3887 2.74773 -2.32749 0
M  V30 905 C 85.2417 2.37023 -3.82283 0
M  V30 906 C 86.5607 3.76846 -2.27322 0
M  V30 907 H 83.6797 0.545351 -0.495743 0
M  V30 908 H 86.3217 0.848624 -1.69995 0
M  V30 909 H 84.4717 3.30639 -2.03986 0
M  V30 910 H 86.1437 1.8684 -4.21768 0
M  V30 911 H 84.3867 1.69334 -3.99385 0
M  V30 912 H 85.0577 3.26104 -4.45376 0
M  V30 913 H 87.5337 3.30548 -2.5274 0
M  V30 914 H 86.4097 4.6159 -2.97028 0
M  V30 915 H 86.6707 4.23286 -1.27599 0
M  V30 916 N 85.7298 1.2412 0.971189 0
M  V30 917 C 86.9598 1.10415 1.7462 0
M  V30 918 C 87.3678 -0.346462 1.86001 0
M  V30 919 O 86.7108 -1.25104 1.34517 0
M  V30 920 C 86.7728 1.66596 3.18568 0
M  V30 921 C 86.4368 3.15446 3.3067 0
M  V30 922 C 87.4338 4.12636 3.16271 0
M  V30 923 C 85.1188 3.55337 3.55022 0
M  V30 924 C 87.1128 5.47699 3.26044 0
M  V30 925 C 84.7998 4.90542 3.64434 0
M  V30 926 C 85.7978 5.86532 3.49956 0
M  V30 927 O 85.4858 7.19279 3.59017 0
M  V30 928 H 85.2178 0.386616 0.55453 0
M  V30 929 H 87.7718 1.64633 1.22821 0
M  V30 930 H 86.0018 1.06808 3.71657 0
M  V30 931 H 87.6908 1.48232 3.77865 0
M  V30 932 H 88.4568 3.8316 2.97344 0
M  V30 933 H 84.3358 2.8113 3.65359 0
M  V30 934 H 87.8798 6.22603 3.14661 0
M  V30 935 H 83.7768 5.19691 3.82873 0
M  V30 936 H 84.5448 7.27153 3.75754 0
M  V30 937 N 87.2079 -1.17134 1.05439 0
M  V30 938 C 88.1559 -2.23289 0.651511 0
M  V30 939 C 89.1499 -1.66186 -0.328411 0
M  V30 940 O 90.3559 -1.78949 -0.194206 0
M  V30 941 H 86.7309 -0.726938 0.192523 0
M  V30 942 H 88.7019 -2.54565 1.55689 0
M  V30 943 C 87.4509 -3.47671 0.0448436 0
M  V30 944 H 86.7739 -3.91918 0.78996 0
M  V30 945 H 88.2139 -4.2353 -0.19964 0
M  V30 946 C 86.6729 -3.14453 -1.20918 0
M  V30 947 O 87.2029 -3.29459 -2.29825 0
M  V30 948 N 85.4089 -2.68657 -1.10779 0
M  V30 949 H 84.9559 -2.56646 -0.221526 0
M  V30 950 H 84.9139 -2.46804 -1.9477 0
M  V30 951 N 88.686 -0.835752 -1.33615 0
M  V30 952 C 89.934 -0.429109 -1.97492 0
M  V30 953 C 90.255 1.01433 -1.66543 0
M  V30 954 O 89.525 1.70611 -0.962744 0
M  V30 955 H 88.105 -0.155686 -0.730596 0
M  V30 956 H 90.767 -1.06802 -1.63031 0
M  V30 957 H 89.863 -0.55861 -3.0706 0
M  V30 958 N 90.1641 1.46063 -0.591896 0
M  V30 959 C 91.0961 2.28539 0.174001 0
M  V30 960 C 92.1091 1.39047 0.846753 0
M  V30 961 O 93.2981 1.63564 0.714774 0
M  V30 962 C 90.3981 3.14347 1.26645 0
M  V30 963 C 89.5711 4.32021 0.683856 0
M  V30 964 C 88.6301 4.99157 1.66518 0
M  V30 965 O 87.6561 5.56458 1.19763 0
M  V30 966 N 88.8581 4.97005 2.99943 0
M  V30 967 H 91.6231 2.94911 -0.533633 0
M  V30 968 H 89.1841 1.56077 -0.430294 0
M  V30 969 H 91.1761 3.56125 1.92242 0
M  V30 970 H 89.7461 2.49988 1.87682 0
M  V30 971 H 88.9661 3.93915 -0.1498 0
M  V30 972 H 90.2541 5.08059 0.274567 0
M  V30 973 H 89.6521 4.51714 3.40545 0
M  V30 974 H 88.2091 5.42696 3.61004 0
M  V30 975 N 91.6422 0.330177 1.54103 0
M  V30 976 C 92.8882 -0.263542 2.01685 0
M  V30 977 C 93.2432 -1.49258 1.21408 0
M  V30 978 O 92.5362 -1.89395 0.289852 0
M  V30 979 C 92.7302 -0.643134 3.51566 0
M  V30 980 C 92.5592 0.547571 4.46354 0
M  V30 981 C 91.3292 1.04873 4.94297 0
M  V30 982 C 93.5272 1.40184 4.94826 0
M  V30 983 N 91.5092 2.20316 5.73005 0
M  V30 984 C 92.8802 2.40335 5.71524 0
M  V30 985 C 94.9352 1.42884 4.76958 0
M  V30 986 C 93.6382 3.42998 6.32254 0
M  V30 987 C 95.6642 2.44421 5.38528 0
M  V30 988 C 95.0262 3.43298 6.15082 0
M  V30 989 H 91.1252 -0.0601026 0.779687 0
M  V30 990 H 93.7092 0.466714 1.89023 0
M  V30 991 H 91.8802 -1.34251 3.6446 0
M  V30 992 H 93.6122 -1.21889 3.85908 0
M  V30 993 H 90.3672 0.618956 4.69538 0
M  V30 994 H 90.7912 2.78565 6.17034 0
M  V30 995 H 95.4332 0.678049 4.17328 0
M  V30 996 H 93.1512 4.1898 6.91 0
M  V30 997 H 96.7372 2.4732 5.26616 0
M  V30 998 H 95.6172 4.20579 6.61878 0
M  V30 999 N 93.1203 -1.57491 0.0584922 0
M  V30 1000 C 94.0673 -2.11958 -0.913376 0
M  V30 1001 C 95.0373 -1.02875 -1.30407 0
M  V30 1002 O 96.2223 -1.30464 -1.39226 0
M  V30 1003 C 93.3623 -2.67497 -2.18035 0
M  V30 1004 C 92.4753 -3.90691 -1.84349 0
M  V30 1005 C 91.6103 -4.3452 -3.05559 0
M  V30 1006 C 90.6493 -5.50395 -2.67827 0
M  V30 1007 N 89.7863 -5.89244 -3.81754 0
M  V30 1008 H 94.6263 -2.94704 -0.442017 0
M  V30 1009 H 92.1633 -1.45643 -0.206545 0
M  V30 1010 H 94.1213 -2.978 -2.92183 0
M  V30 1011 H 92.7513 -1.87537 -2.62735 0
M  V30 1012 H 91.8033 -3.66934 -1.00319 0
M  V30 1013 H 93.1153 -4.7489 -1.5258 0
M  V30 1014 H 92.2693 -4.66414 -3.87998 0
M  V30 1015 H 91.0083 -3.49147 -3.40511 0
M  V30 1016 H 90.0133 -5.18165 -1.83806 0
M  V30 1017 H 91.2383 -6.3749 -2.34059 0
M  V30 1018 H 89.1843 -5.06823 -4.16493 0
M  V30 1019 H 89.1013 -6.68151 -3.53708 0
M  V30 1020 H 90.3693 -6.25756 -4.64811 0
M  V30 1021 N 94.5984 0.214957 -1.56127 0
M  V30 1022 C 95.8284 0.953707 -1.8327 0
M  V30 1023 C 96.2364 1.78181 -0.636262 0
M  V30 1024 O 95.5794 1.79191 0.404516 0
M  V30 1025 C 95.6414 1.91516 -3.0424 0
M  V30 1026 C 95.3054 1.27094 -4.38972 0
M  V30 1027 C 96.3024 0.657575 -5.15725 0
M  V30 1028 C 93.9874 1.28073 -4.85698 0
M  V30 1029 C 95.9814 0.0625968 -6.37369 0
M  V30 1030 C 93.6684 0.681914 -6.07283 0
M  V30 1031 C 94.6664 0.0739046 -6.8296 0
M  V30 1032 O 94.3544 -0.515582 -8.02245 0
M  V30 1033 H 94.0864 0.284764 -0.613095 0
M  V30 1034 H 96.6404 0.233283 -2.04071 0
M  V30 1035 H 94.8704 2.67475 -2.79274 0
M  V30 1036 H 96.5594 2.52001 -3.18198 0
M  V30 1037 H 97.3254 0.642288 -4.80728 0
M  V30 1038 H 93.2044 1.74337 -4.26764 0
M  V30 1039 H 96.7484 -0.412593 -6.96379 0
M  V30 1040 H 92.6454 0.694636 -6.41752 0
M  V30 1041 H 93.4134 -0.410544 -8.1747 0
M  V30 1042 N 96.0765 1.50051 0.48192 0
M  V30 1043 C 97.3165 1.62128 1.24474 0
M  V30 1044 C 97.6805 0.309742 1.89485 0
M  V30 1045 O 98.8815 0.305854 2.67054 0
M  V30 1046 C 97.1525 2.76151 2.26882 0
M  V30 1047 S 98.7115 3.08297 3.12247 0
M  V30 1048 H 95.5295 0.571661 0.422759 0
M  V30 1049 H 98.1315 1.87791 0.54359 0
M  V30 1050 H 96.8355 3.69942 1.77683 0
M  V30 1051 H 96.3665 2.52541 3.0164 0
M  V30 1052 H 98.3815 2.51287 4.27866 0
M  V30 1053 N 97.5546 -0.734337 1.39446 0
M  V30 1054 C 98.4866 -1.85861 1.34121 0
M  V30 1055 C 99.4996 -1.60871 0.249864 0
M  V30 1056 O 100.689 -1.71093 0.508865 0
M  V30 1057 C 97.7886 -3.21899 1.05991 0
M  V30 1058 C 96.9616 -3.74239 2.26415 0
M  V30 1059 C 96.0206 -4.88841 1.94733 0
M  V30 1060 O 95.0466 -5.02468 2.67422 0
M  V30 1061 N 96.2486 -5.73261 0.913884 0
M  V30 1062 H 99.0136 -1.90934 2.31007 0
M  V30 1063 H 96.5746 -0.915102 1.33557 0
M  V30 1064 H 98.5666 -3.96136 0.828147 0
M  V30 1065 H 97.1366 -3.12091 0.178361 0
M  V30 1066 H 96.3566 -2.91347 2.65539 0
M  V30 1067 H 97.6446 -4.05942 3.06738 0
M  V30 1068 H 97.0426 -5.64842 0.311476 0
M  V30 1069 H 95.5996 -6.47563 0.742015 0
M  V30 1070 N 99.0327 -1.24633 -0.964593 0
M  V30 1071 C 100.258 -1.11596 -1.74818 0
M  V30 1072 C 100.683 0.32723 -1.85232 0
M  V30 1073 O 100.041 1.23695 -1.32549 0
M  V30 1074 C 100.089 -1.76397 -3.1451 0
M  V30 1075 O 99.1927 -1.03685 -3.99153 0
M  V30 1076 H 98.5337 -0.390196 -0.537255 0
M  V30 1077 H 101.064 -1.65002 -1.20977 0
M  V30 1078 H 101.074 -1.8228 -3.65018 0
M  V30 1079 H 99.7487 -2.81401 -3.06246 0
M  V30 1080 H 98.3257 -1.05611 -3.57632 0
M  V30 1081 N 100.511 1.16574 -1.06058 0
M  V30 1082 C 101.421 2.2452 -0.680282 0
M  V30 1083 C 102.437 1.71348 0.302604 0
M  V30 1084 O 103.613 2.00822 0.152513 0
M  V30 1085 C 100.678 3.46629 -0.0700315 0
M  V30 1086 C 99.7388 4.14849 -1.10448 0
M  V30 1087 C 98.9718 5.31129 -0.523256 0
M  V30 1088 O 99.1948 5.66514 0.664709 0
M  V30 1089 O 98.1288 5.88526 -1.26179 0
M  V30 1090 H 101.955 2.59355 -1.58015 0
M  V30 1091 H 99.5398 1.24043 -0.832694 0
M  V30 1092 H 101.422 4.20543 0.268667 0
M  V30 1093 H 100.097 3.13573 0.803353 0
M  V30 1094 H 99.0038 3.42916 -1.49532 0
M  V30 1095 H 100.337 4.51954 -1.94931 0
M  V30 1096 N 101.989 0.842826 1.3317 0
M  V30 1097 C 103.266 0.362216 1.92217 0
M  V30 1098 C 103.646 -1.15289 1.76838 0
M  V30 1099 O 102.994 -1.96914 1.15919 0
M  V30 1100 C 103.204 0.813495 3.39387 0
M  V30 1101 C 104.552 0.823804 4.16532 0
M  V30 1102 O 105.576 0.757358 3.48055 0
M  V30 1103 O 104.435 0.915193 5.38782 0
M  V30 1104 H 101.529 0.103317 0.820521 0
M  V30 1105 H 104.075 0.928942 1.42017 0
M  V30 1106 H 102.847 1.85624 3.4447 0
M  V30 1107 H 102.47 0.223561 3.96971 0
M  V30 1108 N 103.467 -1.45747 0.599634 0
M  V30 1109 C 104.697 -2.06369 0.0977132 0
M  V30 1110 C 105.105 -1.44624 -1.21985 0
M  V30 1111 O 104.448 -0.551831 -1.75216 0
M  V30 1112 C 104.51 -3.59284 -0.124673 0
M  V30 1113 C 104.174 -4.43318 1.10987 0
M  V30 1114 C 105.171 -4.78796 2.02609 0
M  V30 1115 C 102.856 -4.84194 1.33647 0
M  V30 1116 C 104.85 -5.53997 3.15224 0
M  V30 1117 C 102.537 -5.5915 2.46565 0
M  V30 1118 C 103.535 -5.93968 3.37182 0
M  V30 1119 O 103.223 -6.67405 4.48136 0
M  V30 1120 H 102.955 -0.673122 0.0623153 0
M  V30 1121 H 105.509 -1.88104 0.824981 0
M  V30 1122 H 103.739 -3.75919 -0.906745 0
M  V30 1123 H 105.428 -4.01775 -0.577201 0
M  V30 1124 H 106.194 -4.47781 1.86325 0
M  V30 1125 H 102.073 -4.56534 0.64016 0
M  V30 1126 H 105.617 -5.81091 3.85978 0
M  V30 1127 H 101.514 -5.89579 2.62805 0
M  V30 1128 H 102.282 -6.85847 4.46717 0
M  V30 1129 N 104.945 -0.338344 -1.53925 0
M  V30 1130 C 106.356 0.146651 -1.86123 0
M  V30 1131 C 106.707 1.5042 -1.2597 0
M  V30 1132 O 105.832 2.08723 -0.571294 0
M  V30 1133 C 106.427 0.272879 -3.37699 0
M  V30 1134 C 104.986 0.702103 -3.69794 0
M  V30 1135 C 104.133 -0.167304 -2.76795 0
M  V30 1136 H 107.084 -0.558123 -1.48562 0
M  V30 1137 H 107.105 1.10128 -3.64214 0
M  V30 1138 H 106.617 -0.715307 -3.81451 0
M  V30 1139 H 104.718 1.6995 -3.31584 0
M  V30 1140 H 104.831 0.495604 -4.7653 0
M  V30 1141 H 103.195 0.359527 -2.5215 0
M  V30 1142 H 103.978 -1.15253 -3.23375 0
M  V30 1143 N 106.423 1.57458 -0.0668435 0
M  V30 1144 C 107.839 1.56947 0.289772 0
M  V30 1145 C 108.039 1.07584 1.70376 0
M  V30 1146 O 107.095 0.739486 2.41429 0
M  V30 1147 C 108.408 3.0052 0.103943 0
M  V30 1148 C 109.956 3.12517 0.173857 0
M  V30 1149 C 110.431 4.57997 0.0163682 0
M  V30 1150 N 111.922 4.63144 0.0721352 0
M  V30 1151 C 112.657 5.73394 -0.0253794 0
M  V30 1152 N 112.153 6.92576 -0.176133 0
M  V30 1153 N 113.946 5.62091 0.0313305 0
M  V30 1154 H 106.097 1.87863 -0.991027 0
M  V30 1155 H 108.36 0.86583 -0.38606 0
M  V30 1156 H 108.066 3.40729 -0.871572 0
M  V30 1157 H 107.94 3.67304 0.858366 0
M  V30 1158 H 110.327 2.72197 1.13985 0
M  V30 1159 H 110.408 2.48381 -0.611586 0
M  V30 1160 H 110.052 4.99005 -0.946374 0
M  V30 1161 H 109.982 5.20158 0.821153 0
M  V30 1162 H 112.473 3.77436 0.187263 0
M  V30 1163 H 112.786 7.72418 -0.242821 0
M  V30 1164 H 111.131 6.94678 -0.211429 0
M  V30 1165 H 114.322 4.67867 0.147773 0
M  V30 1166 H 114.495 6.47982 -0.048121 0
M  V30 1167 N 107.901 -0.206675 1.56239 0
M  V30 1168 C 109.141 -0.93574 1.81723 0
M  V30 1169 C 109.505 -1.80927 0.642609 0
M  V30 1170 O 110.706 -2.57323 0.777081 0
M  V30 1171 C 108.977 -1.74012 3.12177 0
M  V30 1172 S 110.536 -2.52279 3.59028 0
M  V30 1173 H 107.354 -0.314065 0.637875 0
M  V30 1174 H 109.956 -0.200071 1.94474 0
M  V30 1175 H 108.66 -1.0888 3.95693 0
M  V30 1176 H 108.191 -2.51782 3.02274 0
M  V30 1177 H 110.206 -3.76209 3.23545 0
M  V30 1178 N 109.379 -1.50304 -0.473955 0
M  V30 1179 C 110.628 -1.60392 -1.22301 0
M  V30 1180 C 110.941 -0.308411 -1.93153 0
M  V30 1181 O 112.147 -0.288156 -2.69966 0
M  V30 1182 C 110.603 -2.83109 -2.2221 0
M  V30 1183 C 110.211 -4.19524 -1.57173 0
M  V30 1184 C 111.955 -3.0254 -2.97775 0
M  V30 1185 C 109.862 -5.33431 -2.55353 0
M  V30 1186 H 108.792 -0.597286 -0.460179 0
M  V30 1187 H 111.443 -1.76731 -0.493803 0
M  V30 1188 H 109.825 -2.60322 -2.9841 0
M  V30 1189 H 110.999 -4.52554 -0.867824 0
M  V30 1190 H 109.314 -4.05674 -0.939002 0
M  V30 1191 H 111.911 -3.84811 -3.71248 0
M  V30 1192 H 112.254 -2.14154 -3.56992 0
M  V30 1193 H 112.787 -3.25494 -2.28688 0
M  V30 1194 H 109.526 -6.23962 -2.00878 0
M  V30 1195 H 109.046 -5.04823 -3.23904 0
M  V30 1196 H 110.725 -5.63887 -3.17239 0
M  V30 1197 N 110.857 0.726932 -1.39834 0
M  V30 1198 C 112.104 1.48664 -1.37496 0
M  V30 1199 C 112.432 1.94482 0.0264678 0
M  V30 1200 O 111.687 1.67692 1.00886 0
M  V30 1201 C 111.986 2.73495 -2.30077 0
M  V30 1202 C 111.652 2.46502 -3.77555 0
M  V30 1203 C 110.314 2.3885 -4.17737 0
M  V30 1204 C 112.666 2.23604 -4.70798 0
M  V30 1205 C 109.994 2.06352 -5.49214 0
M  V30 1206 C 112.346 1.92622 -6.02561 0
M  V30 1207 C 111.01 1.83444 -6.41798 0
M  V30 1208 H 110.28 0.544001 -0.503135 0
M  V30 1209 H 112.927 0.833657 -1.72402 0
M  V30 1210 H 111.232 3.43575 -1.88317 0
M  V30 1211 H 112.929 3.31549 -2.25558 0
M  V30 1212 H 109.519 2.5334 -3.45712 0
M  V30 1213 H 113.703 2.28479 -4.40581 0
M  V30 1214 H 108.959 1.97776 -5.78528 0
M  V30 1215 H 113.133 1.73914 -6.74334 0
M  V30 1216 H 110.76 1.58029 -7.43593 0
M  V30 1217 N 112.336 1.25143 0.95797 0
M  V30 1218 C 113.747 1.08851 1.51685 0
M  V30 1219 C 114.098 -0.33687 1.93286 0
M  V30 1220 O 113.223 -1.22644 1.7829 0
M  V30 1221 C 113.818 1.96978 2.75654 0
M  V30 1222 C 112.377 1.84881 3.27866 0
M  V30 1223 C 111.524 1.91329 2.0072 0
M  V30 1224 H 114.475 1.38478 0.77522 0
M  V30 1225 H 114.496 1.5078 3.4935 0
M  V30 1226 H 114.008 3.00712 2.45345 0
M  V30 1227 H 112.109 0.840182 3.63004 0
M  V30 1228 H 112.222 2.6951 3.96107 0
M  V30 1229 H 110.586 1.35174 2.15871 0
M  V30 1230 H 111.369 2.96661 1.72764 0
M  V30 1231 N 113.814 -1.1601 1.06675 0
M  V30 1232 C 115.061 -1.86633 0.785781 0
M  V30 1233 C 115.389 -1.81929 -0.687896 0
M  V30 1234 O 114.644 -1.23253 -1.52011 0
M  V30 1235 C 114.943 -3.35547 1.23057 0
M  V30 1236 C 114.609 -3.60448 2.70902 0
M  V30 1237 C 113.271 -3.66954 3.11285 0
M  V30 1238 C 115.623 -3.7071 3.66365 0
M  V30 1239 C 112.951 -3.81225 4.45965 0
M  V30 1240 C 115.303 -3.86503 5.00797 0
M  V30 1241 C 113.967 -3.91252 5.40813 0
M  V30 1242 H 113.237 -0.682937 0.287538 0
M  V30 1243 H 115.884 -1.37146 1.33654 0
M  V30 1244 H 114.189 -3.87193 0.59907 0
M  V30 1245 H 115.886 -3.88583 0.990163 0
M  V30 1246 H 112.476 -3.56021 2.38636 0
M  V30 1247 H 116.66 -3.64991 3.36296 0
M  V30 1248 H 111.916 -3.83155 4.76447 0
M  V30 1249 H 116.09 -3.93385 5.74649 0
M  V30 1250 H 113.717 -4.02062 6.45174 0
M  V30 1251 N 115.292 -0.849877 -1.32721 0
M  V30 1252 C 116.541 -0.447175 -1.96681 0
M  V30 1253 C 116.854 1.00135 -1.68025 0
M  V30 1254 O 118.06 1.50926 -2.25685 0
M  V30 1255 C 116.516 -0.7487 -3.52026 0
M  V30 1256 C 116.124 -2.21264 -3.89546 0
M  V30 1257 C 117.868 -0.413487 -4.22481 0
M  V30 1258 C 115.775 -2.45763 -5.37917 0
M  V30 1259 H 114.705 -0.163486 -0.736063 0
M  V30 1260 H 117.356 -1.03999 -1.51183 0
M  V30 1261 H 115.738 -0.0853727 -3.95908 0
M  V30 1262 H 116.912 -2.91736 -3.56689 0
M  V30 1263 H 115.227 -2.5119 -3.32103 0
M  V30 1264 H 117.824 -0.574017 -5.3161 0
M  V30 1265 H 118.167 0.644492 -4.11281 0
M  V30 1266 H 118.7 -1.03251 -3.84167 0
M  V30 1267 H 115.439 -3.50168 -5.54132 0
M  V30 1268 H 114.959 -1.79864 -5.72197 0
M  V30 1269 H 116.638 -2.29471 -6.0494 0
M  V30 1270 N 116.77 1.45427 -0.607355 0
M  V30 1271 C 118 2.06314 -0.108656 0
M  V30 1272 C 118.408 1.45269 1.21217 0
M  V30 1273 O 117.751 0.561115 1.74921 0
M  V30 1274 C 117.813 3.59345 0.105618 0
M  V30 1275 C 117.477 4.42723 -1.13337 0
M  V30 1276 C 118.474 4.77715 -2.05145 0
M  V30 1277 C 116.159 4.83478 -1.36213 0
M  V30 1278 C 118.153 5.52317 -3.18158 0
M  V30 1279 C 115.84 5.57835 -2.49527 0
M  V30 1280 C 116.838 5.92171 -3.40327 0
M  V30 1281 O 116.526 6.65019 -4.51669 0
M  V30 1282 H 116.258 0.672782 -0.0658842 0
M  V30 1283 H 118.812 1.87664 -0.834945 0
M  V30 1284 H 117.042 3.76394 0.886796 0
M  V30 1285 H 118.731 4.02076 0.555886 0
M  V30 1286 H 119.497 4.46787 -1.88697 0
M  V30 1287 H 115.376 4.56188 -0.664362 0
M  V30 1288 H 118.92 5.79036 -3.89054 0
M  V30 1289 H 114.817 5.88177 -2.65928 0
M  V30 1290 H 115.585 6.83469 -4.50348 0
M  V30 1291 N 118.248 0.346503 1.53744 0
M  V30 1292 C 119.664 -0.00530975 1.59599 0
M  V30 1293 C 119.864 -1.48465 1.36236 0
M  V30 1294 O 118.92 -2.24376 1.15808 0
M  V30 1295 C 120.233 0.433516 2.97559 0
M  V30 1296 C 121.781 0.386111 3.10609 0
M  V30 1297 C 122.256 0.800451 4.50951 0
M  V30 1298 N 123.747 0.754753 4.5701 0
M  V30 1299 C 124.482 1.04727 5.63755 0
M  V30 1300 N 123.978 1.4081 6.7834 0
M  V30 1301 N 125.771 0.971316 5.53644 0
M  V30 1302 H 117.922 1.31009 1.67184 0
M  V30 1303 H 120.185 0.534242 0.783128 0
M  V30 1304 H 119.891 1.46509 3.19731 0
M  V30 1305 H 119.765 -0.189753 3.76722 0
M  V30 1306 H 122.152 -0.636295 2.88158 0
M  V30 1307 H 122.233 1.04462 2.33498 0
M  V30 1308 H 121.877 1.82088 4.74137 0
M  V30 1309 H 121.807 0.119386 5.26465 0
M  V30 1310 H 124.298 0.488662 3.74727 0
M  V30 1311 H 124.611 1.61607 7.55714 0
M  V30 1312 H 122.956 1.44657 6.79779 0
M  V30 1313 H 126.147 0.688748 4.63005 0
M  V30 1314 H 126.32 1.20263 6.36742 0
M  V30 1315 N 119.726 -1.57421 0.075193 0
M  V30 1316 C 120.974 -1.93236 -0.591974 0
M  V30 1317 C 121.295 -0.956241 -1.69944 0
M  V30 1318 O 120.565 -0.00494792 -1.95899 0
M  V30 1319 H 119.145 -0.713355 -0.22166 0
M  V30 1320 H 121.807 -1.9444 0.133848 0
M  V30 1321 H 120.903 -2.95131 -1.01509 0
M  V30 1322 N 121.204 0.198386 -1.56346 0
M  V30 1323 C 122.151 1.24589 -1.94284 0
M  V30 1324 C 123.121 1.454 -0.802997 0
M  V30 1325 O 124.306 1.58588 -1.06087 0
M  V30 1326 C 121.446 2.58631 -2.28482 0
M  V30 1327 C 120.559 2.45426 -3.55514 0
M  V30 1328 C 119.694 3.7215 -3.79049 0
M  V30 1329 C 118.733 3.53763 -4.99518 0
M  V30 1330 N 117.87 4.72491 -5.19323 0
M  V30 1331 H 122.71 0.915356 -2.83593 0
M  V30 1332 H 120.247 0.440629 -1.40346 0
M  V30 1333 H 122.205 3.3672 -2.46324 0
M  V30 1334 H 120.835 2.89734 -1.42317 0
M  V30 1335 H 119.887 1.58652 -3.45737 0
M  V30 1336 H 121.199 2.27772 -4.43758 0
M  V30 1337 H 120.353 4.58679 -3.97113 0
M  V30 1338 H 119.092 3.92754 -2.89129 0
M  V30 1339 H 118.097 2.65619 -4.8138 0
M  V30 1340 H 119.322 3.34607 -5.90944 0
M  V30 1341 H 117.268 4.93365 -4.3235 0
M  V30 1342 H 117.185 4.5765 -6.01741 0
M  V30 1343 H 118.453 5.6038 -5.41843 0
M  V30 1344 N 122.682 1.50554 0.465978 0
M  V30 1345 C 123.645 1.69233 1.54574 0
M  V30 1346 C 124.645 0.562901 1.50626 0
M  V30 1347 O 125.835 0.830016 1.53155 0
M  V30 1348 C 122.967 1.7223 2.94193 0
M  V30 1349 H 124.16 2.65571 1.39327 0
M  V30 1350 H 121.713 1.40111 0.692711 0
M  V30 1351 H 122.448 0.77603 3.14878 0
M  V30 1352 H 122.233 2.54285 2.98466 0
M  V30 1353 H 123.723 1.88618 3.72576 0
M  V30 1354 N 124.16 -0.719506 1.40217 0
M  V30 1355 C 125.39 -1.50646 1.41384 0
M  V30 1356 C 125.798 -1.89197 0.0107743 0
M  V30 1357 O 125.141 -1.55709 -0.974708 0
M  V30 1358 C 125.203 -2.81405 2.23722 0
M  V30 1359 C 124.867 -2.65199 3.72181 0
M  V30 1360 C 125.864 -2.32717 4.64907 0
M  V30 1361 C 123.549 -2.81586 4.1595 0
M  V30 1362 C 125.543 -2.16827 5.99387 0
M  V30 1363 C 123.23 -2.65313 5.50502 0
M  V30 1364 C 124.228 -2.32981 6.42035 0
M  V30 1365 O 123.916 -2.16827 7.74107 0
M  V30 1366 H 123.648 -0.471606 0.484318 0
M  V30 1367 H 126.202 -0.895456 1.84853 0
M  V30 1368 H 124.432 -3.44823 1.75026 0
M  V30 1369 H 126.121 -3.43102 2.16878 0
M  V30 1370 H 126.887 -2.19694 4.32388 0
M  V30 1371 H 122.766 -3.0574 3.45027 0
M  V30 1372 H 126.31 -1.91513 6.70797 0
M  V30 1373 H 122.207 -2.7792 5.82607 0
M  V30 1374 H 122.975 -2.31778 7.84998 0
M  V30 1375 N 125.638 -1.25649 -0.95132 0
M  V30 1376 C 126.586 -1.06118 -2.06982 0
M  V30 1377 C 127.58 0.00889169 -1.69398 0
M  V30 1378 O 128.786 -0.146988 -1.79399 0
M  V30 1379 H 125.161 -0.326248 -0.677544 0
M  V30 1380 H 127.132 -2.00932 -2.2061 0
M  V30 1381 C 125.881 -0.700145 -3.40578 0
M  V30 1382 H 125.204 -1.51537 -3.69968 0
M  V30 1383 H 126.644 -0.603211 -4.19687 0
M  V30 1384 C 125.103 0.59403 -3.31622 0
M  V30 1385 O 125.633 1.63522 -3.66911 0
M  V30 1386 N 123.839 0.58089 -2.84735 0
M  V30 1387 H 123.386 -0.266783 -2.56215 0
M  V30 1388 H 123.344 1.44695 -2.79125 0
M  V30 1389 N 127.117 1.15442 -1.07289 0
M  V30 1390 C 128.342 1.90638 -0.816828 0
M  V30 1391 C 128.767 1.77445 0.624083 0
M  V30 1392 O 128.125 1.10671 1.43602 0
M  V30 1393 C 128.173 3.39008 -1.22906 0
M  V30 1394 O 127.277 4.10701 -0.373975 0
M  V30 1395 H 126.618 0.593555 -0.297638 0
M  V30 1396 H 129.148 1.46198 -1.43134 0
M  V30 1397 H 129.158 3.89801 -1.20497 0
M  V30 1398 H 127.833 3.47929 -2.27856 0
M  V30 1399 H 126.41 3.70046 -0.460499 0
M  V30 1400 N 128.595 0.856903 1.32268 0
M  V30 1401 C 129.835 0.467705 1.98977 0
M  V30 1402 C 130.199 -0.959231 1.66321 0
M  V30 1403 O 131.4 -1.4531 2.26138 0
M  V30 1404 C 129.671 0.70256 3.50427 0
M  V30 1405 S 131.23 0.411269 4.36868 0
M  V30 1406 H 128.048 0.175121 0.689096 0
M  V30 1407 H 130.65 1.1101 1.60925 0
M  V30 1408 H 129.354 1.74012 3.71683 0
M  V30 1409 H 128.885 0.0466707 3.93372 0
M  V30 1410 H 130.9 -0.761799 4.90317 0
M  V30 1411 N 130.073 -1.45103 0.615059 0
M  V30 1412 C 131.322 -2.01396 0.110718 0
M  V30 1413 C 131.635 -1.48834 -1.26916 0
M  V30 1414 O 132.841 -1.97152 -1.86664 0
M  V30 1415 C 131.297 -3.59599 0.14723 0
M  V30 1416 C 130.905 -4.21158 1.52743 0
M  V30 1417 C 132.649 -4.23428 -0.30148 0
M  V30 1418 C 130.556 -5.71535 1.51992 0
M  V30 1419 H 129.486 -0.753061 0.0376241 0
M  V30 1420 H 132.137 -1.66494 0.77149 0
M  V30 1421 H 130.519 -3.91724 -0.580339 0
M  V30 1422 H 131.693 -4.00594 2.2773 0
M  V30 1423 H 130.008 -3.69552 1.91886 0
M  V30 1424 H 132.605 -5.33703 -0.326392 0
M  V30 1425 H 132.948 -3.94629 -1.32565 0
M  V30 1426 H 133.481 -3.96047 0.373065 0
M  V30 1427 H 130.22 -6.05044 2.52193 0
M  V30 1428 H 129.74 -5.94268 0.81274 0
M  V30 1429 H 131.419 -6.34873 1.24681 0
M  V30 1430 N 131.551 -0.354651 -1.53558 0
M  V30 1431 C 132.776 0.242153 -2.05981 0
M  V30 1432 C 133.201 1.42553 -1.2272 0
M  V30 1433 O 132.559 1.79656 -0.243604 0
M  V30 1434 C 132.607 0.624367 -3.55154 0
M  V30 1435 O 131.711 1.72301 -3.74681 0
M  V30 1436 H 131.052 0.0378432 -0.662921 0
M  V30 1437 H 133.582 -0.512087 -1.98088 0
M  V30 1438 H 133.592 0.898433 -3.97985 0
M  V30 1439 H 132.267 -0.240989 -4.15201 0
M  V30 1440 H 130.844 1.44535 -3.4375 0
M  V30 1441 N 133.029 1.57378 -0.0835403 0
M  V30 1442 C 133.961 2.10389 0.909338 0
M  V30 1443 C 134.974 1.03858 1.25369 0
M  V30 1444 O 136.163 1.31338 1.20882 0
M  V30 1445 C 133.263 2.55908 2.2218 0
M  V30 1446 C 132.436 3.86145 2.05453 0
M  V30 1447 C 131.495 4.17633 3.20108 0
M  V30 1448 O 130.521 4.87043 2.94581 0
M  V30 1449 N 131.723 3.72113 4.45547 0
M  V30 1450 H 134.488 2.962 0.456657 0
M  V30 1451 H 132.049 1.61579 0.101877 0
M  V30 1452 H 134.041 2.74027 2.97811 0
M  V30 1453 H 132.611 1.75171 2.58909 0
M  V30 1454 H 131.831 3.7729 1.1422 0
M  V30 1455 H 133.119 4.7137 1.91541 0
M  V30 1456 H 132.517 3.16062 4.69171 0
M  V30 1457 H 131.074 3.95409 5.18165 0
M  V30 1458 N 134.507 -0.190092 1.56449 0
M  V30 1459 C 135.755 -0.907908 1.80559 0
M  V30 1460 C 136.076 -1.83583 0.657438 0
M  V30 1461 O 135.346 -1.93203 -0.323924 0
M  V30 1462 H 133.926 -0.338247 0.666032 0
M  V30 1463 H 136.588 -0.194403 1.93928 0
M  V30 1464 H 135.684 -1.49604 2.73907 0
M  V30 1465 N 135.985 -1.50799 -0.457987 0
M  V30 1466 C 137.21 -1.66496 -1.23668 0
M  V30 1467 C 137.635 -0.353288 -1.84752 0
M  V30 1468 O 136.993 0.684346 -1.67888 0
M  V30 1469 C 137.041 -2.76763 -2.3116 0
M  V30 1470 O 136.145 -2.38928 -3.36136 0
M  V30 1471 H 135.486 -0.555828 -0.363252 0
M  V30 1472 H 138.016 -1.9725 -0.543474 0
M  V30 1473 H 138.026 -3.00232 -2.76269 0
M  V30 1474 H 136.701 -3.71954 -1.86073 0
M  V30 1475 H 135.278 -2.25953 -2.96647 0
M  V30 1476 N 137.463 0.71206 -1.40597 0
M  V30 1477 C 138.71 1.47197 -1.39065 0
M  V30 1478 C 139.038 1.94499 0.00583891 0
M  V30 1479 O 138.293 1.68752 0.99102 0
M  V30 1480 C 138.592 2.71039 -2.32965 0
M  V30 1481 C 138.258 2.42484 -3.80148 0
M  V30 1482 C 136.92 2.34406 -4.20247 0
M  V30 1483 C 139.272 2.18598 -4.73143 0
M  V30 1484 C 136.6 2.00516 -5.51371 0
M  V30 1485 C 138.952 1.8622 -6.0457 0
M  V30 1486 C 137.616 1.76626 -6.43708 0
M  V30 1487 H 136.886 0.538634 -0.508876 0
M  V30 1488 H 139.533 0.815325 -1.73276 0
M  V30 1489 H 137.838 3.41558 -1.91951 0
M  V30 1490 H 139.535 3.29138 -2.29061 0
M  V30 1491 H 136.125 2.49659 -3.4838 0
M  V30 1492 H 140.309 2.23793 -4.42979 0
M  V30 1493 H 135.565 1.91628 -5.80593 0
M  V30 1494 H 139.739 1.66752 -6.76141 0
M  V30 1495 H 137.366 1.50133 -7.45228 0
M  V30 1496 N 138.941 1.26152 0.944643 0
M  V30 1497 C 139.871 1.09902 2.06019 0
M  V30 1498 C 140.852 0.00519538 1.70099 0
M  V30 1499 O 142.037 0.176583 1.93396 0
M  V30 1500 C 139.167 0.727562 3.39594 0
M  V30 1501 C 138.121 1.77274 3.89561 0
M  V30 1502 C 137.447 1.25569 5.19747 0
M  V30 1503 C 138.747 3.17357 4.14827 0
M  V30 1504 H 140.441 2.03217 2.19871 0
M  V30 1505 H 137.987 0.978452 1.05652 0
M  V30 1506 H 139.94 0.600777 4.17095 0
M  V30 1507 H 138.664 -0.241287 3.25707 0
M  V30 1508 H 137.323 1.88814 3.14237 0
M  V30 1509 H 136.971 0.276783 5.02238 0
M  V30 1510 H 136.671 1.95433 5.54148 0
M  V30 1511 H 138.195 1.1415 5.99835 0
M  V30 1512 H 139.609 3.08914 4.82954 0
M  V30 1513 H 138.006 3.84781 4.60504 0
M  V30 1514 H 139.076 3.63673 3.20734 0
M  V30 1515 N 140.419 -1.14872 1.07899 0
M  V30 1516 C 141.667 -1.85422 0.803941 0
M  V30 1517 C 141.988 -1.83051 -0.67211 0
M  V30 1518 O 141.258 -1.27532 -1.48703 0
M  V30 1519 H 139.838 -0.686537 0.294408 0
M  V30 1520 H 142.5 -1.39226 1.3639 0
M  V30 1521 H 141.596 -2.90399 1.14346 0
M  V30 1522 N 141.898 -0.863906 -1.31812 0
M  V30 1523 C 143.123 -0.48527 -2.01643 0
M  V30 1524 C 143.548 0.913058 -1.64453 0
M  V30 1525 O 142.906 1.6014 -0.849985 0
M  V30 1526 C 142.954 -0.642625 -3.54828 0
M  V30 1527 O 142.058 0.320659 -4.11151 0
M  V30 1528 H 141.399 -0.193793 -0.635091 0
M  V30 1529 H 143.929 -1.16565 -1.68148 0
M  V30 1530 H 143.939 -0.533628 -4.04495 0
M  V30 1531 H 142.614 -1.66227 -3.81237 0
M  V30 1532 H 141.191 0.167126 -3.72525 0
M  V30 1533 N 143.376 1.44774 -0.622745 0
M  V30 1534 C 144.306 2.33382 0.0741861 0
M  V30 1535 C 145.287 1.47719 0.843387 0
M  V30 1536 O 146.472 1.76458 0.810934 0
M  V30 1537 C 143.602 3.30663 1.06204 0
M  V30 1538 C 142.556 4.26079 0.405037 0
M  V30 1539 C 141.882 5.13165 1.5022 0
M  V30 1540 C 143.182 5.1781 -0.683414 0
M  V30 1541 H 144.876 2.91905 -0.665713 0
M  V30 1542 H 142.422 1.40363 -0.321587 0
M  V30 1543 H 144.375 3.9153 1.55827 0
M  V30 1544 H 143.099 2.70331 1.83272 0
M  V30 1545 H 141.758 3.66532 -0.0704683 0
M  V30 1546 H 141.406 4.49191 2.26355 0
M  V30 1547 H 141.106 5.77812 1.06803 0
M  V30 1548 H 142.63 5.76902 2.00041 0
M  V30 1549 H 144.044 5.72661 -0.270631 0
M  V30 1550 H 142.441 5.91015 -1.04023 0
M  V30 1551 H 143.511 4.59326 -1.55395 0
M  V30 1552 N 144.854 0.36279 1.53368 0
M  V30 1553 C 146.1 -0.220702 2.02199 0
M  V30 1554 C 146.455 -1.46649 1.24546 0
M  V30 1555 O 145.748 -1.88737 0.32996 0
M  V30 1556 C 145.942 -0.568417 3.52851 0
M  V30 1557 C 145.771 0.642126 4.45092 0
M  V30 1558 C 144.541 1.15335 4.91961 0
M  V30 1559 C 146.739 1.50649 4.91741 0
M  V30 1560 N 144.721 2.3242 5.68202 0
M  V30 1561 C 146.092 2.52404 5.66297 0
M  V30 1562 C 148.147 1.52969 4.73819 0
M  V30 1563 C 146.85 3.56331 6.24836 0
M  V30 1564 C 148.876 2.55789 5.33222 0
M  V30 1565 C 148.238 3.56268 6.07662 0
M  V30 1566 H 144.337 -0.0435508 0.780786 0
M  V30 1567 H 146.921 0.506704 1.87991 0
M  V30 1568 H 145.092 -1.2649 3.67226 0
M  V30 1569 H 146.824 -1.13676 3.88407 0
M  V30 1570 H 143.579 0.718412 4.68119 0
M  V30 1571 H 144.003 2.91591 6.10986 0
M  V30 1572 H 148.645 0.766418 4.15795 0
M  V30 1573 H 146.363 4.33543 6.81958 0
M  V30 1574 H 149.949 2.58435 5.21251 0
M  V30 1575 H 148.829 4.34524 6.52808 0
M  V30 1576 N 146.332 -1.57332 0.0918853 0
M  V30 1577 C 147.572 -1.96117 -0.575988 0
M  V30 1578 C 147.936 -0.972499 -1.65549 0
M  V30 1579 O 149.137 -1.24872 -2.38034 0
M  V30 1580 C 147.408 -3.39407 -1.11973 0
M  V30 1581 S 148.967 -4.00185 -1.79992 0
M  V30 1582 H 145.785 -0.685682 -0.188045 0
M  V30 1583 H 148.387 -1.94755 0.170525 0
M  V30 1584 H 147.091 -4.09131 -0.322504 0
M  V30 1585 H 146.622 -3.44358 -1.90214 0
M  V30 1586 H 148.637 -3.88728 -3.08391 0
M  V30 1587 N 147.81 0.181792 -1.56548 0
M  V30 1588 C 149.035 0.920019 -1.85877 0
M  V30 1589 C 149.46 1.75494 -0.677021 0
M  V30 1590 O 148.818 1.77399 0.374056 0
M  V30 1591 C 148.866 1.78112 -3.13542 0
M  V30 1592 O 147.97 2.88152 -2.95029 0
M  V30 1593 H 147.311 0.258334 -0.611686 0
M  V30 1594 H 149.841 0.183092 -2.03779 0
M  V30 1595 H 149.851 2.18314 -3.44678 0
M  V30 1596 H 148.526 1.16777 -3.99169 0
M  V30 1597 H 147.103 2.51609 -2.75222 0
M  V30 1598 N 149.288 1.51039 0.449983 0
M  V30 1599 C 150.534 1.63322 1.20223 0
M  V30 1600 C 150.867 0.34241 1.91158 0
M  V30 1601 O 150.142 -0.657344 1.83055 0
M  V30 1602 C 150.425 2.82801 2.22925 0
M  V30 1603 C 150.278 4.21823 1.56157 0
M  V30 1604 C 151.597 2.97807 3.24035 0
M  V30 1605 H 148.716 0.594407 0.435718 0
M  V30 1606 H 151.358 1.83489 0.493136 0
M  V30 1607 H 149.508 2.65738 2.834 0
M  V30 1608 H 151.18 4.50526 0.991162 0
M  V30 1609 H 149.423 4.25105 0.864172 0
M  V30 1610 H 150.094 5.01391 2.30891 0
M  V30 1611 H 152.57 3.13497 2.73603 0
M  V30 1612 H 151.446 3.82992 3.93202 0
M  V30 1613 H 151.707 2.09328 3.89402 0
M  V30 1614 N 150.766 -0.704594 1.40972 0
M  V30 1615 C 151.994 -1.49354 1.43182 0
M  V30 1616 C 152.409 -1.88768 0.0345508 0
M  V30 1617 O 151.766 -1.56184 -0.944081 0
M  V30 1618 C 151.817 -2.76187 2.33244 0
M  V30 1619 O 151.538 -2.38436 3.67532 0
M  V30 1620 C 153.039 -3.7 2.44162 0
M  V30 1621 H 150.259 -0.460559 0.487982 0
M  V30 1622 H 152.803 -0.868261 1.85153 0
M  V30 1623 H 150.958 -3.34974 1.94606 0
M  V30 1624 H 151.372 -3.20126 4.15475 0
M  V30 1625 H 152.846 -4.55803 3.11364 0
M  V30 1626 H 153.323 -4.13867 1.47006 0
M  V30 1627 H 153.929 -3.17121 2.83398 0
M  V30 1628 N 152.244 -1.26651 -0.937939 0
M  V30 1629 C 153.469 -1.15279 -1.72411 0
M  V30 1630 C 153.894 0.287866 -1.85884 0
M  V30 1631 O 153.252 1.20855 -1.35143 0
M  V30 1632 C 153.3 -1.83028 -3.10698 0
M  V30 1633 O 152.404 -1.12128 -3.96864 0
M  V30 1634 H 151.745 -0.401504 -0.528858 0
M  V30 1635 H 154.275 -1.67531 -1.1745 0
M  V30 1636 H 154.285 -1.89981 -3.6107 0
M  V30 1637 H 152.96 -2.87833 -3.00208 0
M  V30 1638 H 151.537 -1.13173 -3.55312 0
M  V30 1639 N 153.722 1.14298 -1.08507 0
M  V30 1640 C 154.968 1.85633 -0.816581 0
M  V30 1641 C 155.301 1.82784 0.656021 0
M  V30 1642 O 154.576 1.25926 1.48233 0
M  V30 1643 C 154.859 3.34223 -1.34041 0
M  V30 1644 C 154.712 3.45639 -2.87843 0
M  V30 1645 C 156.031 4.29356 -0.9665 0
M  V30 1646 H 153.15 0.67402 -0.298104 0
M  V30 1647 H 155.792 1.34214 -1.34487 0
M  V30 1648 H 153.942 3.78144 -0.89104 0
M  V30 1649 H 155.614 3.10498 -3.41158 0
M  V30 1650 H 153.857 2.86817 -3.25451 0
M  V30 1651 H 154.528 4.50089 -3.19569 0
M  V30 1652 H 157.004 3.93457 -1.35391 0
M  V30 1653 H 155.88 5.3178 -1.3602 0
M  V30 1654 H 156.141 4.41919 0.126362 0
M  V30 1655 N 155.201 0.870884 1.31352 0
M  V30 1656 C 156.448 0.482273 1.96673 0
M  V30 1657 C 156.776 -0.965638 1.68836 0
M  V30 1658 O 156.031 -1.69514 0.977937 0
M  V30 1659 C 156.33 0.687157 3.50732 0
M  V30 1660 C 155.996 2.108 3.9859 0
M  V30 1661 C 154.658 2.49656 4.1137 0
M  V30 1662 C 157.01 3.03459 4.23748 0
M  V30 1663 C 154.338 3.80412 4.46659 0
M  V30 1664 C 156.69 4.3373 4.60501 0
M  V30 1665 C 155.354 4.725 4.71487 0
M  V30 1666 H 154.624 0.176476 0.719679 0
M  V30 1667 H 157.271 1.10405 1.56471 0
M  V30 1668 H 155.576 -0.0177476 3.91796 0
M  V30 1669 H 157.273 0.366284 3.99324 0
M  V30 1670 H 153.863 1.79633 3.8914 0
M  V30 1671 H 158.047 2.74665 4.13368 0
M  V30 1672 H 153.303 4.1021 4.53362 0
M  V30 1673 H 157.477 5.05578 4.78919 0
M  V30 1674 H 155.104 5.73859 4.98588 0
M  V30 1675 N 156.679 -1.44442 0.630414 0
M  V30 1676 C 157.956 -1.9549 0.0655657 0
M  V30 1677 C 158.336 -1.5724 -1.40851 0
M  V30 1678 O 157.684 -0.846116 -2.12257 0
M  V30 1679 C 157.894 -3.47812 0.287691 0
M  V30 1680 C 159.242 -4.24216 0.180513 0
M  V30 1681 O 160.266 -3.55526 0.219019 0
M  V30 1682 O 159.125 -5.46434 0.0848493 0
M  V30 1683 H 156.219 -0.826688 -0.0227177 0
M  V30 1684 H 158.765 -1.54496 0.702068 0
M  V30 1685 H 157.537 -3.687 1.31056 0
M  V30 1686 H 157.16 -3.95751 -0.382984 0
M  V30 1687 N 158.157 -0.370918 -1.53173 0
M  V30 1688 C 159.067 0.480823 -2.2962 0
M  V30 1689 C 160.083 1.08789 -1.35798 0
M  V30 1690 O 161.259 1.09768 -1.68858 0
M  V30 1691 C 158.324 1.60227 -3.07454 0
M  V30 1692 C 157.385 1.0222 -4.16953 0
M  V30 1693 C 156.618 2.0902 -4.91066 0
M  V30 1694 O 156.841 3.30222 -4.65091 0
M  V30 1695 O 155.775 1.71778 -5.76867 0
M  V30 1696 H 159.601 -0.141421 -3.03371 0
M  V30 1697 H 157.186 -0.135146 -1.48787 0
M  V30 1698 H 159.068 2.25417 -3.56041 0
M  V30 1699 H 157.743 2.20982 -2.36535 0
M  V30 1700 H 156.65 0.334064 -3.72605 0
M  V30 1701 H 157.983 0.459131 -4.90054 0
M  V30 1702 N 159.635 1.57281 -0.100228 0
M  V30 1703 C 160.582 2.14305 0.856858 0
M  V30 1704 C 161.552 1.06296 1.27634 0
M  V30 1705 O 162.737 1.34109 1.35718 0
M  V30 1706 C 159.877 2.73184 2.10866 0
M  V30 1707 C 158.99 3.95442 1.73925 0
M  V30 1708 C 158.125 4.42468 2.93931 0
M  V30 1709 C 157.164 5.57303 2.5314 0
M  V30 1710 N 156.301 5.99158 3.65997 0
M  V30 1711 H 161.141 2.95772 0.363726 0
M  V30 1712 H 158.678 1.46139 0.167858 0
M  V30 1713 H 160.636 3.05442 2.84185 0
M  V30 1714 H 159.266 1.94437 2.57671 0
M  V30 1715 H 158.318 3.69464 0.905554 0
M  V30 1716 H 159.63 4.78769 1.39935 0
M  V30 1717 H 158.784 4.76537 3.75496 0
M  V30 1718 H 157.523 3.58052 3.31134 0
M  V30 1719 H 156.528 5.22857 1.70003 0
M  V30 1720 H 157.753 6.43471 2.17075 0
M  V30 1721 H 155.699 5.17687 4.02909 0
M  V30 1722 H 155.616 6.77295 3.35869 0
M  V30 1723 H 156.884 6.3786 4.48057 0
M  V30 1724 N 161.113 -0.173488 1.56642 0
M  V30 1725 C 162.045 -1.23935 1.92802 0
M  V30 1726 C 163.058 -1.40589 0.820889 0
M  V30 1727 O 164.247 -1.40631 1.09933 0
M  V30 1728 C 161.347 -2.60837 2.16373 0
M  V30 1729 C 160.52 -2.6551 3.47596 0
M  V30 1730 C 159.579 -3.8376 3.60021 0
M  V30 1731 O 158.605 -3.69859 4.32658 0
M  V30 1732 N 159.807 -5.00127 2.94709 0
M  V30 1733 H 162.572 -0.932236 2.84832 0
M  V30 1734 H 160.133 -0.363268 1.57772 0
M  V30 1735 H 162.125 -3.38407 2.21952 0
M  V30 1736 H 160.695 -2.83948 1.30738 0
M  V30 1737 H 159.915 -1.74052 3.53694 0
M  V30 1738 H 161.203 -2.65641 4.33949 0
M  V30 1739 H 160.601 -5.14322 2.35563 0
M  V30 1740 H 159.158 -5.75567 3.05886 0
M  V30 1741 N 162.591 -1.51276 -0.441967 0
M  V30 1742 C 163.523 -1.68444 -1.55433 0
M  V30 1743 C 164.536 -0.565187 -1.52674 0
M  V30 1744 O 165.725 -0.839356 -1.57534 0
M  V30 1745 C 162.825 -1.67966 -2.94348 0
M  V30 1746 C 161.998 -2.964 -3.21661 0
M  V30 1747 C 161.057 -2.88171 -4.40277 0
M  V30 1748 O 160.083 -3.62119 -4.39157 0
M  V30 1749 N 161.285 -2.03706 -5.43584 0
M  V30 1750 H 164.05 -2.644 -1.41112 0
M  V30 1751 H 161.611 -1.49104 -0.630838 0
M  V30 1752 H 163.603 -1.60035 -3.71713 0
M  V30 1753 H 162.173 -0.796225 -3.0229 0
M  V30 1754 H 161.393 -3.18234 -2.32638 0
M  V30 1755 H 162.681 -3.81427 -3.36736 0
M  V30 1756 H 162.079 -1.42995 -5.47329 0
M  V30 1757 H 160.636 -2.01658 -6.1982 0
M  V30 1758 N 164.069 0.697108 -1.41344 0
M  V30 1759 C 165.315 1.45796 -1.41828 0
M  V30 1760 C 165.67 1.92382 -0.0261743 0
M  V30 1761 O 164.963 1.66522 0.947688 0
M  V30 1762 C 165.157 2.68553 -2.35826 0
M  V30 1763 C 164.986 2.33975 -3.84039 0
M  V30 1764 C 163.756 2.24414 -4.52732 0
M  V30 1765 C 165.954 1.97048 -4.75054 0
M  V30 1766 N 163.936 1.82705 -5.86082 0
M  V30 1767 C 165.307 1.66086 -5.9734 0
M  V30 1768 C 167.362 1.83845 -4.62715 0
M  V30 1769 C 166.065 1.23246 -7.08663 0
M  V30 1770 C 168.091 1.4241 -5.73998 0
M  V30 1771 C 167.453 1.12357 -6.95381 0
M  V30 1772 H 163.552 0.530859 -0.574206 0
M  V30 1773 H 166.136 0.806674 -1.77203 0
M  V30 1774 H 164.307 3.31404 -2.02549 0
M  V30 1775 H 166.039 3.35015 -2.2704 0
M  V30 1776 H 162.794 2.4276 -4.0665 0
M  V30 1777 H 163.218 1.64337 -6.56751 0
M  V30 1778 H 167.86 2.05734 -3.69369 0
M  V30 1779 H 165.578 1.00102 -8.01876 0
M  V30 1780 H 169.164 1.32746 -5.66454 0
M  V30 1781 H 168.044 0.807795 -7.80028 0
M  V30 1782 N 165.547 1.27147 0.931209 0
M  V30 1783 C 166.494 1.09568 2.03134 0
M  V30 1784 C 167.464 -0.00222433 1.661 0
M  V30 1785 O 168.649 0.159439 1.90133 0
M  V30 1786 C 165.789 0.745231 3.36957 0
M  V30 1787 C 164.902 1.92041 3.86968 0
M  V30 1788 C 164.037 1.51216 5.09222 0
M  V30 1789 C 163.076 2.65504 5.5152 0
M  V30 1790 N 162.213 2.25291 6.64972 0
M  V30 1791 H 167.053 2.03708 2.17502 0
M  V30 1792 H 164.59 1.01411 1.06556 0
M  V30 1793 H 166.548 0.522878 4.1391 0
M  V30 1794 H 165.178 -0.159202 3.22407 0
M  V30 1795 H 164.23 2.25541 3.06326 0
M  V30 1796 H 165.542 2.77787 4.1429 0
M  V30 1797 H 164.696 1.25084 5.93666 0
M  V30 1798 H 163.435 0.625749 4.83669 0
M  V30 1799 H 162.44 2.92354 4.65628 0
M  V30 1800 H 163.665 3.54761 5.7907 0
M  V30 1801 H 161.611 1.39098 6.41083 0
M  V30 1802 H 161.528 3.04577 6.91931 0
M  V30 1803 H 162.796 2.02398 7.52765 0
M  V30 1804 N 167.025 -1.13721 1.09112 0
M  V30 1805 C 168.272 -1.84924 0.825192 0
M  V30 1806 C 168.6 -1.83347 -0.649151 0
M  V30 1807 O 167.855 -1.26449 -1.49362 0
M  V30 1808 C 168.154 -3.32861 1.30146 0
M  V30 1809 C 167.82 -3.54621 2.78486 0
M  V30 1810 C 166.482 -3.60268 3.18999 0
M  V30 1811 C 168.834 -3.62855 3.74146 0
M  V30 1812 C 166.162 -3.71679 4.53951 0
M  V30 1813 C 168.514 -3.75793 5.08883 0
M  V30 1814 C 167.178 -3.79692 5.4899 0
M  V30 1815 H 166.448 -0.676684 0.301959 0
M  V30 1816 H 169.095 -1.3428 1.36533 0
M  V30 1817 H 167.4 -3.85835 0.681064 0
M  V30 1818 H 169.097 -3.86395 1.07236 0
M  V30 1819 H 165.687 -3.50879 2.46134 0
M  V30 1820 H 169.871 -3.57775 3.43963 0
M  V30 1821 H 165.127 -3.72963 4.84467 0
M  V30 1822 H 169.301 -3.81107 5.82864 0
M  V30 1823 H 166.928 -3.88287 6.53558 0
M  V30 1824 N 168.503 -0.877838 -1.30888 0
M  V30 1825 C 169.743 -0.499301 -1.98208 0
M  V30 1826 C 170.107 0.932649 -1.67826 0
M  V30 1827 O 171.308 1.41694 -2.28421 0
M  V30 1828 C 169.579 -0.758221 -3.49265 0
M  V30 1829 S 171.138 -0.480719 -4.36159 0
M  V30 1830 H 167.956 -0.186062 -0.686223 0
M  V30 1831 H 170.558 -1.13556 -1.59139 0
M  V30 1832 H 169.262 -1.79903 -3.68867 0
M  V30 1833 H 168.793 -0.109247 -3.93248 0
M  V30 1834 H 170.808 0.683698 -4.91467 0
M  V30 1835 N 169.982 1.44106 -0.638065 0
M  V30 1836 C 170.892 2.34513 0.0637334 0
M  V30 1837 C 171.908 1.53018 0.828346 0
M  V30 1838 O 173.084 1.85723 0.779036 0
M  V30 1839 C 170.149 3.31095 1.02844 0
M  V30 1840 C 169.21 4.28497 0.26244 0
M  V30 1841 C 168.443 5.20465 1.1812 0
M  V30 1842 O 168.666 5.16514 2.42011 0
M  V30 1843 O 167.6 5.98251 0.661774 0
M  V30 1844 H 171.426 2.95989 -0.68003 0
M  V30 1845 H 169.011 1.43994 -0.398252 0
M  V30 1846 H 170.893 3.90526 1.58327 0
M  V30 1847 H 169.568 2.72144 1.7527 0
M  V30 1848 H 168.475 3.72592 -0.335602 0
M  V30 1849 H 169.808 4.90388 -0.421936 0
M  V30 1850 N 171.46 0.379036 1.52974 0
M  V30 1851 C 172.688 -0.20679 2.05864 0
M  V30 1852 C 173.103 -1.41356 1.25155 0
M  V30 1853 O 172.46 -1.8009 0.295588 0
M  V30 1854 C 172.511 -0.587045 3.56702 0
M  V30 1855 O 172.232 0.571776 4.34353 0
M  V30 1856 C 173.733 -1.22983 4.25899 0
M  V30 1857 H 170.953 -0.0336123 0.670158 0
M  V30 1858 H 173.497 0.541298 1.97206 0
M  V30 1859 H 171.652 -1.28504 3.65466 0
M  V30 1860 H 172.066 0.261544 5.23847 0
M  V30 1861 H 173.54 -1.44635 5.32715 0
M  V30 1862 H 174.017 -2.19416 3.80465 0
M  V30 1863 H 174.623 -0.572892 4.21424 0
M  V30 1864 N 172.938 -1.57226 0.108567 0
M  V30 1865 C 173.886 -2.16002 -0.862885 0
M  V30 1866 C 174.88 -1.10644 -1.28274 0
M  V30 1867 O 176.086 -1.28966 -1.2557 0
M  V30 1868 H 172.461 -0.691148 -0.296342 0
M  V30 1869 H 174.432 -2.96427 -0.342575 0
M  V30 1870 C 173.181 -2.76576 -2.10716 0
M  V30 1871 H 172.504 -3.5734 -1.793 0
M  V30 1872 H 173.944 -3.21253 -2.76717 0
M  V30 1873 C 172.403 -1.73137 -2.89007 0
M  V30 1874 O 172.933 -1.17842 -3.84026 0
M  V30 1875 N 171.139 -1.43317 -2.52801 0
M  V30 1876 H 170.686 -1.88473 -1.75601 0
M  V30 1877 H 170.644 -0.743485 -3.05483 0
M  V30 1878 N 174.416 0.165178 -1.56732 0
M  V30 1879 C 175.326 1.22423 -2.00125 0
M  V30 1880 C 176.342 1.48084 -0.913619 0
M  V30 1881 O 177.518 1.60112 -1.22172 0
M  V30 1882 C 174.583 2.54197 -2.35764 0
M  V30 1883 C 173.644 2.36343 -3.58386 0
M  V30 1884 C 172.877 3.61834 -3.92316 0
M  V30 1885 O 173.1 4.67267 -3.27135 0
M  V30 1886 O 172.034 3.55579 -4.85641 0
M  V30 1887 H 175.86 0.885886 -2.90492 0
M  V30 1888 H 173.445 0.372518 -1.44681 0
M  V30 1889 H 175.327 3.3192 -2.59629 0
M  V30 1890 H 174.002 2.87598 -1.48557 0
M  V30 1891 H 172.909 1.56632 -3.39731 0
M  V30 1892 H 174.242 2.07865 -4.46154 0
M  V30 1893 N 175.894 1.51508 0.433938 0
M  V30 1894 C 177.124 1.67914 1.20369 0
M  V30 1895 C 177.532 0.377461 1.85397 0
M  V30 1896 O 176.875 -0.654255 1.71654 0
M  V30 1897 C 176.937 2.74045 2.32679 0
M  V30 1898 C 176.601 4.16543 1.87991 0
M  V30 1899 C 177.598 5.01211 1.38145 0
M  V30 1900 C 175.283 4.6266 1.95579 0
M  V30 1901 C 177.277 6.30056 0.964774 0
M  V30 1902 C 174.964 5.91501 1.53523 0
M  V30 1903 C 175.962 6.75027 1.04055 0
M  V30 1904 O 175.65 8.01459 0.625964 0
M  V30 1905 H 175.382 0.566578 0.368735 0
M  V30 1906 H 177.936 1.98709 0.51999 0
M  V30 1907 H 176.166 2.38572 3.04336 0
M  V30 1908 H 177.855 2.79295 2.94532 0
M  V30 1909 H 178.621 4.66783 1.31675 0
M  V30 1910 H 174.5 3.97767 2.33029 0
M  V30 1911 H 178.044 6.95202 0.57796 0
M  V30 1912 H 173.941 6.25442 1.59665 0
M  V30 1913 H 174.709 8.15043 0.751509 0
M  V30 1914 N 177.372 -0.689602 1.41712 0
M  V30 1915 C 178.62 -1.4468 1.4111 0
M  V30 1916 C 178.941 -1.94986 0.0232196 0
M  V30 1917 O 178.211 -1.72097 -0.935913 0
M  V30 1918 H 176.791 -0.536847 0.519427 0
M  V30 1919 H 179.453 -0.815825 1.77004 0
M  V30 1920 H 178.549 -2.30706 2.10193 0
M  V30 1921 N 178.85 -1.27639 -0.924453 0
M  V30 1922 C 180.098 -1.13941 -1.66918 0
M  V30 1923 C 180.419 0.314589 -1.92446 0
M  V30 1924 O 179.689 1.21964 -1.53303 0
M  V30 1925 H 178.269 -0.418678 -0.618642 0
M  V30 1926 H 180.931 -1.60213 -1.10985 0
M  V30 1927 H 180.027 -1.67094 -2.63602 0
M  V30 1928 N 180.328 1.1314 -1.09713 0
M  V30 1929 C 181.276 2.20717 -0.733934 0
M  V30 1930 C 182.27 1.6729 0.266506 0
M  V30 1931 O 183.476 1.79547 0.127656 0
M  V30 1932 H 179.851 0.719292 -0.21937 0
M  V30 1933 H 181.822 2.48611 -1.6503 0
M  V30 1934 C 180.571 3.47265 -0.173849 0
M  V30 1935 H 179.894 3.88716 -0.934873 0
M  V30 1936 H 181.334 4.23979 0.0423126 0
M  V30 1937 C 179.793 3.18724 1.09164 0
M  V30 1938 O 180.323 3.37762 2.17439 0
M  V30 1939 N 178.529 2.72583 1.00732 0
M  V30 1940 H 178.076 2.57291 0.126121 0
M  V30 1941 H 178.034 2.53862 1.85476 0
M  V30 1942 N 181.806 0.884767 1.30421 0
M  V30 1943 C 183.031 0.517288 2.00845 0
M  V30 1944 C 183.456 -0.886779 1.65885 0
M  V30 1945 O 182.814 -1.58768 0.875354 0
M  V30 1946 C 182.862 0.698994 3.5376 0
M  V30 1947 O 181.966 -0.255208 4.1161 0
M  V30 1948 H 181.307 0.203872 0.631927 0
M  V30 1949 H 183.837 1.19225 1.66272 0
M  V30 1950 H 183.847 0.597912 4.03595 0
M  V30 1951 H 182.522 1.72271 3.78544 0
M  V30 1952 H 181.099 -0.10784 3.72744 0
M  V30 1953 N 183.284 -1.43765 0.645699 0
M  V30 1954 C 184.214 -2.33471 -0.0370477 0
M  V30 1955 C 185.195 -1.49042 -0.819779 0
M  V30 1956 O 186.38 -1.77726 -0.782758 0
M  V30 1957 C 183.51 -3.32311 -1.0093 0
M  V30 1958 C 182.464 -4.2667 -0.337201 0
M  V30 1959 C 181.79 -5.1549 -1.42037 0
M  V30 1960 C 183.09 -5.16657 0.765706 0
M  V30 1961 H 184.784 -2.90809 0.712069 0
M  V30 1962 H 182.33 -1.39834 0.343876 0
M  V30 1963 H 184.283 -3.9396 -1.49578 0
M  V30 1964 H 183.007 -2.73213 -1.78948 0
M  V30 1965 H 181.666 -3.66374 0.128771 0
M  V30 1966 H 181.314 -4.52735 -2.1918 0
M  V30 1967 H 181.014 -5.79438 -0.975966 0
M  V30 1968 H 182.538 -5.80012 -1.90838 0
M  V30 1969 H 183.952 -5.72158 0.361702 0
M  V30 1970 H 182.349 -5.89286 1.13413 0
M  V30 1971 H 183.419 -4.56796 1.62683 0
M  V30 1972 N 184.763 -0.387143 -1.52771 0
M  V30 1973 C 186.179 -0.037007 -1.59557 0
M  V30 1974 C 186.379 1.44801 -1.40124 0
M  V30 1975 O 185.435 2.21227 -1.21716 0
M  V30 1976 C 186.748 -0.512256 -2.96305 0
M  V30 1977 C 188.296 -0.468328 -3.09476 0
M  V30 1978 C 188.771 -0.919731 -4.4867 0
M  V30 1979 N 190.262 -0.875656 -4.54848 0
M  V30 1980 C 190.997 -1.19637 -5.6078 0
M  V30 1981 N 190.493 -1.58745 -6.74368 0
M  V30 1982 N 192.286 -1.11776 -5.50874 0
M  V30 1983 H 184.437 -1.35395 -1.63652 0
M  V30 1984 H 186.7 -0.554818 -0.768688 0
M  V30 1985 H 186.406 -1.54935 -3.15734 0
M  V30 1986 H 186.28 0.089805 -3.77093 0
M  V30 1987 H 188.667 0.559671 -2.89744 0
M  V30 1988 H 188.748 -1.10616 -2.30646 0
M  V30 1989 H 188.392 -1.94595 -4.69143 0
M  V30 1990 H 188.322 -0.258927 -5.25963 0
M  V30 1991 H 190.813 -0.587843 -3.733 0
M  V30 1992 H 191.126 -1.81586 -7.51163 0
M  V30 1993 H 189.471 -1.6263 -6.75705 0
M  V30 1994 H 192.662 -0.811264 -4.61016 0
M  V30 1995 H 192.835 -1.37103 -6.3333 0
M  V30 1996 N 186.241 1.57166 -0.116904 0
M  V30 1997 C 187.188 2.15202 0.83408 0
M  V30 1998 C 188.158 1.07644 1.26499 0
M  V30 1999 O 189.343 1.35541 1.34288 0
M  V30 2000 C 186.483 2.75405 2.07957 0
M  V30 2001 C 185.596 3.97264 1.69721 0
M  V30 2002 C 184.731 4.45561 2.89221 0
M  V30 2003 C 183.77 5.59956 2.47215 0
M  V30 2004 N 182.907 6.03006 3.59622 0
M  V30 2005 H 187.747 2.96141 0.332335 0
M  V30 2006 H 185.284 1.46309 0.152349 0
M  V30 2007 H 187.242 3.08439 2.80929 0
M  V30 2008 H 185.872 1.97159 2.55594 0
M  V30 2009 H 184.924 3.70404 0.866316 0
M  V30 2010 H 186.236 4.80226 1.34849 0
M  V30 2011 H 185.39 4.80493 3.7042 0
M  V30 2012 H 184.129 3.61544 3.27318 0
M  V30 2013 H 183.134 5.2463 1.64448 0
M  V30 2014 H 184.359 6.45738 2.10238 0
M  V30 2015 H 182.305 5.21931 3.97396 0
M  V30 2016 H 182.222 6.80819 3.28667 0
M  V30 2017 H 183.49 6.42576 4.41267 0
M  V30 2018 N 187.719 -0.156864 1.56817 0
M  V30 2019 C 189.13 -0.717916 1.72345 0
M  V30 2020 C 189.481 -1.82124 0.729747 0
M  V30 2021 O 188.606 -2.16141 -0.105781 0
M  V30 2022 C 189.201 -1.30904 3.12489 0
M  V30 2023 C 187.76 -1.81676 3.29653 0
M  V30 2024 C 186.907 -0.701349 2.68284 0
M  V30 2025 H 189.858 0.0686989 1.58551 0
M  V30 2026 H 189.879 -2.17882 3.11942 0
M  V30 2027 H 189.391 -0.505796 3.8479 0
M  V30 2028 H 187.492 -2.64598 2.62333 0
M  V30 2029 H 187.605 -1.95226 4.3752 0
M  V30 2030 H 185.969 -1.12548 2.28484 0
M  V30 2031 H 186.752 0.0902846 3.43181 0
M  V30 2032 N 189.197 -1.51736 -0.425897 0
M  V30 2033 C 190.437 -1.66636 -1.18371 0
M  V30 2034 C 190.801 -0.379854 -1.88205 0
M  V30 2035 O 192.002 -0.404758 -2.65735 0
M  V30 2036 C 190.273 -2.84382 -2.16476 0
M  V30 2037 S 191.832 -3.19673 -3.0059 0
M  V30 2038 H 188.65 -0.586957 -0.40125 0
M  V30 2039 H 191.252 -1.89679 -0.473518 0
M  V30 2040 H 189.956 -3.76281 -1.63831 0
M  V30 2041 H 189.487 -2.63562 -2.92059 0
M  V30 2042 H 191.502 -2.66994 -4.18245 0
M  V30 2043 N 190.675 0.682077 -1.42076 0
M  V30 2044 C 191.924 1.43786 -1.41451 0
M  V30 2045 C 192.237 1.95574 -0.0317074 0
M  V30 2046 O 193.443 2.71326 0.0971462 0
M  V30 2047 C 191.899 2.60071 -2.48779 0
M  V30 2048 C 191.507 2.15013 -3.93031 0
M  V30 2049 C 193.251 3.37626 -2.57311 0
M  V30 2050 C 191.158 3.28336 -4.91883 0
M  V30 2051 H 190.088 0.540143 -0.526082 0
M  V30 2052 H 192.739 0.739157 -1.67955 0
M  V30 2053 H 191.121 3.32275 -2.15429 0
M  V30 2054 H 192.295 1.5001 -4.35699 0
M  V30 2055 H 190.61 1.50416 -3.88284 0
M  V30 2056 H 193.207 4.22012 -3.28345 0
M  V30 2057 H 193.55 3.83727 -1.61429 0
M  V30 2058 H 194.083 2.72488 -2.89819 0
M  V30 2059 H 190.822 2.87234 -5.89217 0
M  V30 2060 H 190.342 3.92145 -4.53853 0
M  V30 2061 H 192.021 3.93913 -5.13265 0
M  V30 2062 N 192.153 1.28127 0.917671 0
M  V30 2063 C 193.4 1.15052 1.66641 0
M  V30 2064 C 193.728 -0.301677 1.92146 0
M  V30 2065 O 192.983 -1.23622 1.51711 0
M  V30 2066 C 193.282 1.89018 3.03327 0
M  V30 2067 C 192.948 3.38832 2.97496 0
M  V30 2068 C 191.61 3.79693 2.95613 0
M  V30 2069 C 193.962 4.34378 2.88036 0
M  V30 2070 C 191.29 5.14447 2.82066 0
M  V30 2071 C 193.642 5.69201 2.7603 0
M  V30 2072 C 192.306 6.09343 2.72502 0
M  V30 2073 H 191.576 0.421006 0.609783 0
M  V30 2074 H 194.223 1.58855 1.06945 0
M  V30 2075 H 192.528 1.37752 3.66785 0
M  V30 2076 H 194.225 1.76321 3.60156 0
M  V30 2077 H 190.815 3.06342 2.99754 0
M  V30 2078 H 194.999 4.03775 2.88581 0
M  V30 2079 H 190.255 5.44681 2.77728 0
M  V30 2080 H 194.429 6.42901 2.67678 0
M  V30 2081 H 192.056 7.13712 2.61762 0
M  V30 2082 N 193.631 -1.12557 1.10312 0
M  V30 2083 C 195.042 -1.65574 0.862678 0
M  V30 2084 C 195.393 -1.86566 -0.607256 0
M  V30 2085 O 194.518 -1.59121 -1.46662 0
M  V30 2086 C 195.113 -3.00776 1.55947 0
M  V30 2087 C 193.672 -3.50748 1.36576 0
M  V30 2088 C 192.819 -2.25797 1.60968 0
M  V30 2089 H 195.77 -0.963552 1.26101 0
M  V30 2090 H 195.791 -3.67185 0.997753 0
M  V30 2091 H 195.303 -2.85465 2.62928 0
M  V30 2092 H 193.404 -3.71245 0.317531 0
M  V30 2093 H 193.517 -4.30289 2.10686 0
M  V30 2094 H 191.881 -2.32841 1.03234 0
M  V30 2095 H 192.664 -2.13043 2.69198 0
M  V30 2096 N 195.109 -0.891671 -1.2995 0
M  V30 2097 C 196.334 -0.527932 -2.00568 0
M  V30 2098 C 196.759 0.877969 -1.66353 0
M  V30 2099 O 196.117 1.58301 -0.883762 0
M  V30 2100 C 196.165 -0.717745 -3.53385 0
M  V30 2101 O 195.269 0.233376 -4.11739 0
M  V30 2102 H 194.61 -0.20722 -0.630837 0
M  V30 2103 H 197.14 -1.20105 -1.65638 0
M  V30 2104 H 197.15 -0.619307 -4.03272 0
M  V30 2105 H 195.825 -1.74276 -3.77625 0
M  V30 2106 H 194.402 0.0880706 -3.72796 0
M  V30 2107 N 196.587 1.43421 -0.653314 0
M  V30 2108 C 197.836 2.01032 -0.164076 0
M  V30 2109 C 198.149 1.52147 1.22926 0
M  V30 2110 O 199.355 2.02031 1.81371 0
M  V30 2111 C 197.811 3.59082 -0.24252 0
M  V30 2112 C 197.419 4.1696 -1.63855 0
M  V30 2113 C 199.163 4.24079 0.18911 0
M  V30 2114 C 197.07 5.67304 -1.67092 0
M  V30 2115 H 196 0.751798 -0.0575769 0
M  V30 2116 H 198.651 1.6439 -0.815362 0
M  V30 2117 H 197.033 3.93125 0.476276 0
M  V30 2118 H 198.207 3.94416 -2.38271 0
M  V30 2119 H 196.522 3.64335 -2.01616 0
M  V30 2120 H 199.119 5.34381 0.184775 0
M  V30 2121 H 199.462 3.98005 1.22056 0
M  V30 2122 H 199.995 3.94918 -0.477938 0
M  V30 2123 H 196.734 5.98145 -2.68146 0
M  V30 2124 H 196.254 5.91904 -0.970014 0
M  V30 2125 H 197.933 6.31344 -1.4147 0
M  V30 2126 N 198.065 0.39524 1.52563 0
M  V30 2127 C 199.295 -0.184675 2.05773 0
M  V30 2128 C 199.703 -1.40571 1.26635 0
M  V30 2129 O 199.046 -1.81105 0.30769 0
M  V30 2130 C 199.108 -0.613551 3.54226 0
M  V30 2131 C 198.772 0.49484 4.54313 0
M  V30 2132 C 199.769 1.3541 5.01956 0
M  V30 2133 C 197.454 0.663565 4.97898 0
M  V30 2134 C 199.448 2.36716 5.91814 0
M  V30 2135 C 197.135 1.67996 5.87555 0
M  V30 2136 C 198.133 2.53017 6.34406 0
M  V30 2137 O 197.821 3.52917 7.22291 0
M  V30 2138 H 197.553 -0.030077 0.675331 0
M  V30 2139 H 200.107 0.560708 1.97599 0
M  V30 2140 H 198.337 -1.411 3.60038 0
M  V30 2141 H 200.026 -1.11981 3.90148 0
M  V30 2142 H 200.792 1.23509 4.6901 0
M  V30 2143 H 196.671 0.0114913 4.60999 0
M  V30 2144 H 200.215 3.03113 6.28306 0
M  V30 2145 H 196.112 1.79933 6.19915 0
M  V30 2146 H 196.88 3.48996 7.40367 0
M  V30 2147 N 199.544 -1.57102 0.125237 0
M  V30 2148 C 200.96 -1.57915 -0.231322 0
M  V30 2149 C 201.16 -1.13833 -1.66266 0
M  V30 2150 O 200.216 -0.828581 -2.38518 0
M  V30 2151 C 201.529 -3.00699 0.00766489 0
M  V30 2152 C 203.077 -3.12947 -0.0577483 0
M  V30 2153 C 203.552 -4.57742 0.153626 0
M  V30 2154 N 205.043 -4.63092 0.0998073 0
M  V30 2155 C 205.778 -5.72905 0.238174 0
M  V30 2156 N 205.274 -6.91445 0.433057 0
M  V30 2157 N 207.067 -5.6182 0.177308 0
M  V30 2158 H 199.218 -1.84055 1.06007 0
M  V30 2159 H 201.481 -0.850905 0.417929 0
M  V30 2160 H 201.187 -3.3726 0.997431 0
M  V30 2161 H 201.061 -3.70236 -0.721452 0
M  V30 2162 H 203.448 -2.7624 -1.03804 0
M  V30 2163 H 203.529 -2.4594 0.70335 0
M  V30 2164 H 203.173 -4.95149 1.13092 0
M  V30 2165 H 203.103 -5.22848 -0.627534 0
M  V30 2166 H 205.594 -3.77871 -0.047051 0
M  V30 2167 H 205.907 -7.70985 0.529332 0
M  V30 2168 H 204.252 -6.93415 0.469109 0
M  V30 2169 H 207.443 -4.68093 0.0259748 0
M  V30 2170 H 207.616 -6.47357 0.288582 0
M  V30 2171 N 201.022 0.148545 -1.56898 0
M  V30 2172 C 201.97 1.20265 -1.99096 0
M  V30 2173 C 202.964 1.44559 -0.883123 0
M  V30 2174 O 204.17 1.4487 -1.0683 0
M  V30 2175 H 200.545 0.404786 -0.63376 0
M  V30 2176 H 202.516 0.82004 -2.86911 0
M  V30 2177 C 201.265 2.52886 -2.3863 0
M  V30 2178 H 200.588 2.35021 -3.23427 0
M  V30 2179 H 202.028 3.25274 -2.7198 0
M  V30 2180 C 200.487 3.13315 -1.23837 0
M  V30 2181 O 201.017 3.98077 -0.538268 0
M  V30 2182 N 199.223 2.72742 -1.00301 0
M  V30 2183 H 198.77 2.03912 -1.5741 0
M  V30 2184 H 198.728 3.13507 -0.236838 0
M  V30 2185 N 202.5 1.5196 0.417844 0
M  V30 2186 C 203.448 1.75278 1.52907 0
M  V30 2187 C 204.442 0.619611 1.57662 0
M  V30 2188 O 205.648 0.801457 1.61173 0
M  V30 2189 H 202.023 0.554141 0.508362 0
M  V30 2190 H 203.994 2.68389 1.30422 0
M  V30 2191 C 202.743 1.91262 2.90369 0
M  V30 2192 H 202.066 2.77872 2.8745 0
M  V30 2193 H 203.506 2.11581 3.67436 0
M  V30 2194 C 201.965 0.677431 3.30019 0
M  V30 2195 O 202.495 -0.158799 4.01386 0
M  V30 2196 N 200.701 0.515851 2.85985 0
M  V30 2197 H 200.248 1.19744 2.28077 0
M  V30 2198 H 200.206 -0.309315 3.12875 0
M  V30 2199 N 203.978 -0.674533 1.42435 0
M  V30 2200 C 205.224 -1.43671 1.43131 0
M  V30 2201 C 205.557 -1.94142 0.0476021 0
M  V30 2202 O 204.832 -1.70924 -0.928188 0
M  V30 2203 C 205.115 -2.63355 2.45594 0
M  V30 2204 C 204.968 -2.18514 3.93156 0
M  V30 2205 C 206.287 -3.65571 2.45043 0
M  V30 2206 H 203.406 -0.521077 0.521198 0
M  V30 2207 H 206.048 -0.766551 1.7385 0
M  V30 2208 H 204.198 -3.2053 2.19528 0
M  V30 2209 H 205.87 -1.66504 4.30202 0
M  V30 2210 H 204.113 -1.50086 4.07009 0
M  V30 2211 H 204.784 -3.04484 4.60428 0
M  V30 2212 H 207.26 -3.18113 2.68223 0
M  V30 2213 H 206.136 -4.46893 3.18713 0
M  V30 2214 H 206.397 -4.16716 1.47649 0
M  V30 2215 N 205.456 -1.28612 -0.910864 0
M  V30 2216 C 206.702 -1.16106 -1.66274 0
M  V30 2217 C 207.035 0.289113 -1.92036 0
M  V30 2218 O 206.31 1.21 -1.52281 0
M  V30 2219 C 206.593 -1.96309 -3.01885 0
M  V30 2220 C 206.446 -3.49405 -2.8326 0
M  V30 2221 C 207.765 -1.78076 -4.02463 0
M  V30 2222 H 204.884 -0.423152 -0.603417 0
M  V30 2223 H 207.526 -1.57961 -1.05586 0
M  V30 2224 H 205.676 -1.60742 -3.53687 0
M  V30 2225 H 207.348 -3.94894 -2.38446 0
M  V30 2226 H 205.591 -3.74893 -2.18261 0
M  V30 2227 H 206.262 -4.00784 -3.79574 0
M  V30 2228 H 208.738 -2.0912 -3.59733 0
M  V30 2229 H 207.614 -2.36561 -4.95308 0
M  V30 2230 H 207.875 -0.733008 -4.35981 0
M  V30 2231 N 206.934 1.1197 -1.10907 0
M  V30 2232 C 208.159 1.87942 -0.877064 0
M  V30 2233 C 208.584 1.79341 0.567314 0
M  V30 2234 O 207.942 1.15184 1.40009 0
M  V30 2235 C 207.99 3.34926 -1.33629 0
M  V30 2236 O 207.094 4.09303 -0.504447 0
M  V30 2237 H 206.435 0.583785 -0.316371 0
M  V30 2238 H 208.965 1.4157 -1.47712 0
M  V30 2239 H 208.975 3.8577 -1.32837 0
M  V30 2240 H 207.65 3.40504 -2.3881 0
M  V30 2241 H 206.227 3.68393 -0.577993 0
M  V30 2242 N 208.412 0.89855 1.29475 0
M  V30 2243 C 209.689 0.443416 1.90508 0
M  V30 2244 C 210.069 -1.07685 1.81569 0
M  V30 2245 O 209.417 -1.9182 1.24166 0
M  V30 2246 C 209.627 0.956708 3.35631 0
M  V30 2247 C 210.975 0.999728 4.12663 0
M  V30 2248 O 211.999 0.904299 3.4453 0
M  V30 2249 O 210.858 1.14289 5.34416 0
M  V30 2250 H 207.952 0.138025 0.815401 0
M  V30 2251 H 210.498 0.98834 1.37949 0
M  V30 2252 H 209.27 2.00067 3.36287 0
M  V30 2253 H 208.893 0.391728 3.95666 0
M  V30 2254 N 209.89 -1.43072 0.660911 0
M  V30 2255 C 211.13 -2.03596 0.181146 0
M  V30 2256 C 211.494 -1.51057 -1.18515 0
M  V30 2257 O 212.695 -2.03275 -1.75877 0
M  V30 2258 C 210.966 -3.56845 0.19911 0
M  V30 2259 S 212.525 -4.38289 -0.211684 0
M  V30 2260 H 209.343 -0.706954 0.0757479 0
M  V30 2261 H 211.945 -1.75027 0.870965 0
M  V30 2262 H 210.649 -3.92583 1.1961 0
M  V30 2263 H 210.18 -3.90067 -0.510996 0
M  V30 2264 H 212.195 -4.74583 -1.44863 0
M  V30 2265 N 211.368 -0.403325 -1.52352 0
M  V30 2266 C 212.301 0.469463 -2.23319 0
M  V30 2267 C 213.279 1.05272 -1.23922 0
M  V30 2268 O 214.463 1.10169 -1.52954 0
M  V30 2269 C 211.59 1.6511 -2.9573 0
M  V30 2270 C 210.636 1.19178 -4.0951 0
M  V30 2271 S 211.469 0.161718 -5.35256 0
M  V30 2272 C 212.625 1.34882 -6.11194 0
M  V30 2273 H 212.858 -0.133134 -2.97002 0
M  V30 2274 H 210.391 -0.187588 -1.53256 0
M  V30 2275 H 212.349 2.3287 -3.38056 0
M  V30 2276 H 211.01 2.22503 -2.21701 0
M  V30 2277 H 210.203 2.07444 -4.59329 0
M  V30 2278 H 209.805 0.592911 -3.6927 0
M  V30 2279 H 212.097 2.27345 -6.38217 0
M  V30 2280 H 213.04 0.89128 -7.02468 0
M  V30 2281 H 213.448 1.57198 -5.42171 0
M  V30 2282 N 212.846 1.57033 -0.133567 0
M  V30 2283 C 213.756 2.19632 0.824564 0
M  V30 2284 C 214.772 1.17666 1.28182 0
M  V30 2285 O 215.948 1.50193 1.3418 0
M  V30 2286 C 213.013 2.79499 2.05137 0
M  V30 2287 C 212.074 3.96548 1.64464 0
M  V30 2288 C 211.307 4.5355 2.81297 0
M  V30 2289 O 211.53 4.09438 3.97136 0
M  V30 2290 O 210.464 5.44018 2.57542 0
M  V30 2291 H 214.29 3.01991 0.321766 0
M  V30 2292 H 211.875 1.49112 0.0927889 0
M  V30 2293 H 213.757 3.17602 2.7696 0
M  V30 2294 H 212.432 2.00162 2.54395 0
M  V30 2295 H 211.339 3.63186 0.897048 0
M  V30 2296 H 212.672 4.77364 1.19934 0
M  V30 2297 N 214.325 -0.140222 1.56975 0
M  V30 2298 C 215.602 -0.880769 1.74648 0
M  V30 2299 C 215.982 -1.99036 0.703404 0
M  V30 2300 O 215.33 -2.26821 -0.27648 0
M  V30 2301 C 215.54 -1.417 3.18939 0
M  V30 2302 C 216.888 -1.87774 3.80823 0
M  V30 2303 O 217.912 -1.51427 3.2241 0
M  V30 2304 O 216.771 -2.54827 4.83452 0
M  V30 2305 H 213.865 -0.416713 0.714338 0
M  V30 2306 H 216.411 -0.125618 1.69234 0
M  V30 2307 H 215.183 -0.619902 3.86359 0
M  V30 2308 H 214.806 -2.23546 3.28805 0
M  V30 2309 N 215.803 -1.52179 -0.40978 0
M  V30 2310 C 216.713 -1.78364 -1.52392 0
M  V30 2311 C 217.729 -0.669183 -1.60617 0
M  V30 2312 O 218.905 -0.954518 -1.77344 0
M  V30 2313 C 215.97 -1.92822 -2.88133 0
M  V30 2314 C 215.031 -3.16725 -2.898 0
M  V30 2315 C 214.264 -3.30483 -4.19067 0
M  V30 2316 O 214.487 -2.49522 -5.12928 0
M  V30 2317 O 213.421 -4.2363 -4.27576 0
M  V30 2318 H 217.247 -2.72931 -1.33201 0
M  V30 2319 H 214.832 -1.37016 -0.59557 0
M  V30 2320 H 216.714 -2.04157 -3.68643 0
M  V30 2321 H 215.389 -1.01444 -3.07393 0
M  V30 2322 H 214.296 -3.10848 -2.08146 0
M  V30 2323 H 215.629 -4.07881 -2.75489 0
M  V30 2324 N 217.281 0.66697 -1.42791 0
M  V30 2325 C 218.506 1.46004 -1.47301 0
M  V30 2326 C 218.931 1.87894 -0.0880317 0
M  V30 2327 O 218.289 1.56502 0.915253 0
M  V30 2328 C 218.337 2.68031 -2.41229 0
M  V30 2329 O 217.441 3.6659 -1.88906 0
M  V30 2330 H 216.782 0.43832 -0.49877 0
M  V30 2331 H 219.312 0.817391 -1.87563 0
M  V30 2332 H 219.322 3.1601 -2.58073 0
M  V30 2333 H 217.997 2.36883 -3.41847 0
M  V30 2334 H 216.574 3.25661 -1.81656 0
M  V30 2335 N 218.759 1.29093 0.90403 0
M  V30 2336 C 219.707 1.13727 2.02901 0
M  V30 2337 C 220.701 0.0539853 1.69314 0
M  V30 2338 O 221.907 0.213469 1.7873 0
M  V30 2339 H 218.282 0.35117 0.664969 0
M  V30 2340 H 220.253 2.08982 2.13001 0
M  V30 2341 C 219.002 0.826066 3.37745 0
M  V30 2342 H 218.325 1.65164 3.64089 0
M  V30 2343 H 219.765 0.758559 4.17159 0
M  V30 2344 C 218.224 -0.470541 3.33598 0
M  V30 2345 O 218.754 -1.49792 3.72727 0
M  V30 2346 N 216.96 -0.474812 2.86695 0
M  V30 2347 H 216.507 0.361692 2.55048 0
M  V30 2348 H 216.465 -1.34236 2.84303 0
M  V30 2349 N 220.237 -1.11381 1.11499 0
M  V30 2350 C 221.184 -2.17439 0.773887 0
M  V30 2351 C 222.154 -1.64132 -0.254899 0
M  V30 2352 O 223.339 -1.90345 -0.13168 0
M  V30 2353 C 220.479 -3.44373 0.223917 0
M  V30 2354 C 219.592 -4.1168 1.30934 0
M  V30 2355 C 218.727 -5.263 0.71984 0
M  V30 2356 C 217.766 -5.85493 1.78507 0
M  V30 2357 N 216.903 -6.91507 1.21502 0
M  V30 2358 H 221.743 -2.45962 1.68246 0
M  V30 2359 H 219.28 -1.20744 0.840191 0
M  V30 2360 H 221.238 -4.17047 -0.112921 0
M  V30 2361 H 219.868 -3.16232 -0.647851 0
M  V30 2362 H 218.92 -3.37073 1.76312 0
M  V30 2363 H 220.232 -4.51729 2.11524 0
M  V30 2364 H 219.386 -6.05785 0.333094 0
M  V30 2365 H 218.125 -4.87559 -0.117377 0
M  V30 2366 H 217.13 -5.04686 2.18111 0
M  V30 2367 H 218.355 -6.26301 2.62533 0
M  V30 2368 H 216.301 -6.54783 0.399455 0
M  V30 2369 H 216.218 -7.30214 1.95763 0
M  V30 2370 H 217.486 -7.74795 0.855181 0
M  V30 2371 N 221.715 -0.905404 -1.28997 0
M  V30 2372 C 222.645 -0.404212 -2.29975 0
M  V30 2373 C 223.626 0.523784 -1.61835 0
M  V30 2374 O 224.811 0.433298 -1.89304 0
M  V30 2375 C 221.941 0.364042 -3.45387 0
M  V30 2376 C 220.895 -0.474048 -4.25367 0
M  V30 2377 C 220.221 0.422045 -5.33032 0
M  V30 2378 C 221.521 -1.72696 -4.92923 0
M  V30 2379 H 223.215 -1.24807 -2.72146 0
M  V30 2380 H 220.761 -0.601585 -1.30832 0
M  V30 2381 H 222.714 0.725447 -4.15109 0
M  V30 2382 H 221.438 1.24174 -3.02074 0
M  V30 2383 H 220.097 -0.81786 -3.57361 0
M  V30 2384 H 219.745 1.29804 -4.85963 0
M  V30 2385 H 219.445 -0.135057 -5.87445 0
M  V30 2386 H 220.969 0.779517 -6.05604 0
M  V30 2387 H 222.383 -1.43495 -5.55051 0
M  V30 2388 H 220.78 -2.22582 -5.57295 0
M  V30 2389 H 221.85 -2.45964 -4.17887 0
M  V30 2390 N 223.193 1.4272 -0.668489 0
M  V30 2391 C 224.439 2.02443 -0.197076 0
M  V30 2392 C 224.794 1.51882 1.18109 0
M  V30 2393 O 224.087 0.708618 1.78015 0
M  V30 2394 C 224.281 3.57021 -0.164499 0
M  V30 2395 C 224.11 4.22583 -1.53797 0
M  V30 2396 C 222.88 4.58019 -2.13416 0
M  V30 2397 C 225.078 4.50588 -2.47941 0
M  V30 2398 N 223.06 5.08729 -3.4361 0
M  V30 2399 C 224.431 5.02782 -3.62782 0
M  V30 2400 C 226.486 4.32571 -2.46551 0
M  V30 2401 C 225.189 5.38852 -4.76478 0
M  V30 2402 C 227.215 4.69713 -3.59338 0
M  V30 2403 C 226.577 5.22053 -4.72906 0
M  V30 2404 H 222.676 0.773214 -0.116894 0
M  V30 2405 H 225.26 1.73673 -0.880108 0
M  V30 2406 H 223.431 3.85323 0.487925 0
M  V30 2407 H 225.163 4.03439 0.319207 0
M  V30 2408 H 221.918 4.43566 -1.65969 0
M  V30 2409 H 222.342 5.38521 -4.10273 0
M  V30 2410 H 226.984 3.91365 -1.59978 0
M  V30 2411 H 224.702 5.78993 -5.63731 0
M  V30 2412 H 228.288 4.57454 -3.59482 0
M  V30 2413 H 227.168 5.50258 -5.58736 0
M  V30 2414 N 224.671 0.411399 1.52136 0
M  V30 2415 C 225.911 -0.163143 2.03748 0
M  V30 2416 C 226.275 -1.42187 1.29022 0
M  V30 2417 O 227.476 -2.075 1.70872 0
M  V30 2418 C 225.747 -0.402651 3.55125 0
M  V30 2419 S 227.306 -0.944315 4.28519 0
M  V30 2420 H 224.124 -0.0439833 0.709638 0
M  V30 2421 H 226.726 0.56484 1.87163 0
M  V30 2422 H 225.43 0.520212 4.0709 0
M  V30 2423 H 224.961 -1.15844 3.75957 0
M  V30 2424 H 226.976 -2.22463 4.43536 0
M  V30 2425 N 226.149 -1.5696 0.141893 0
M  V30 2426 C 227.56 -1.82797 -0.379776 0
M  V30 2427 C 227.911 -1.06033 -1.6508 0
M  V30 2428 O 227.036 -0.304011 -2.14254 0
M  V30 2429 C 227.631 -3.31578 -0.695802 0
M  V30 2430 C 226.19 -3.58014 -1.16201 0
M  V30 2431 C 225.337 -2.76699 -0.182455 0
M  V30 2432 H 228.288 -1.54406 0.366675 0
M  V30 2433 H 228.309 -3.47454 -1.55099 0
M  V30 2434 H 227.821 -3.87421 0.229449 0
M  V30 2435 H 225.922 -3.07553 -2.10338 0
M  V30 2436 H 226.035 -4.66501 -1.09151 0
M  V30 2437 H 224.399 -2.45618 -0.674072 0
M  V30 2438 H 225.182 -3.35311 0.736297 0
M  V30 2439 N 227.627 0.131896 -1.57047 0
M  V30 2440 C 228.855 0.856461 -1.88341 0
M  V30 2441 C 229.27 1.74042 -0.731757 0
M  V30 2442 O 228.627 1.80051 0.297945 0
M  V30 2443 C 228.678 1.70064 -3.18999 0
M  V30 2444 O 228.399 0.852278 -4.2973 0
M  V30 2445 C 229.9 2.53148 -3.63911 0
M  V30 2446 H 227.12 0.246885 -0.62393 0
M  V30 2447 H 229.664 0.120152 -2.04147 0
M  V30 2448 H 227.819 2.38984 -3.04902 0
M  V30 2449 H 228.233 1.43329 -5.04537 0
M  V30 2450 H 229.707 3.07931 -4.58129 0
M  V30 2451 H 230.184 3.29901 -2.89935 0
M  V30 2452 H 230.79 1.89492 -3.80753 0
M  V30 2453 N 229.106 1.52395 0.401703 0
M  V30 2454 C 230.334 1.70676 1.16949 0
M  V30 2455 C 230.749 0.419503 1.8408 0
M  V30 2456 O 230.106 -0.605061 1.72178 0
M  V30 2457 C 230.157 2.84753 2.22706 0
M  V30 2458 O 229.878 4.08495 1.58314 0
M  V30 2459 C 231.379 3.14608 3.12309 0
M  V30 2460 H 228.599 0.571787 0.351142 0
M  V30 2461 H 231.143 1.98987 0.471652 0
M  V30 2462 H 229.298 2.58941 2.88147 0
M  V30 2463 H 229.712 4.72117 2.28485 0
M  V30 2464 H 231.186 3.97923 3.82572 0
M  V30 2465 H 231.663 2.28464 3.75101 0
M  V30 2466 H 232.269 3.42212 2.52529 0
M  V30 2467 N 230.584 -0.659388 1.43143 0
M  V30 2468 C 231.494 -1.80167 1.50256 0
M  V30 2469 C 232.51 -1.69571 0.390106 0
M  V30 2470 O 233.686 -1.90849 0.643319 0
M  V30 2471 C 230.751 -3.16409 1.41725 0
M  V30 2472 C 229.812 -3.38848 2.63591 0
M  V30 2473 C 229.045 -4.68591 2.55458 0
M  V30 2474 O 229.268 -5.47532 1.59891 0
M  V30 2475 O 228.202 -4.92614 3.45854 0
M  V30 2476 H 232.028 -1.77121 2.46702 0
M  V30 2477 H 229.613 -0.817092 1.25076 0
M  V30 2478 H 231.495 -3.9768 1.39387 0
M  V30 2479 H 230.17 -3.20059 0.484118 0
M  V30 2480 H 229.077 -2.57366 2.71502 0
M  V30 2481 H 230.41 -3.4004 3.55856 0
M  V30 2482 N 232.062 -1.29571 -0.897171 0
M  V30 2483 C 233.01 -1.14802 -2.02295 0
M  V30 2484 C 234.004 -0.0629637 -1.69283 0
M  V30 2485 O 235.21 -0.222945 -1.78614 0
M  V30 2486 H 231.585 -0.354692 -0.663097 0
M  V30 2487 H 233.556 -2.10108 -2.11889 0
M  V30 2488 C 232.305 -0.843966 -3.37302 0
M  V30 2489 H 231.628 -1.67093 -3.63208 0
M  V30 2490 H 233.068 -0.780672 -4.16751 0
M  V30 2491 C 231.527 0.452843 -3.33843 0
M  V30 2492 O 232.057 1.47813 -3.73516 0
M  V30 2493 N 230.263 0.459601 -2.86943 0
M  V30 2494 H 229.81 -0.375213 -2.54853 0
M  V30 2495 H 229.768 1.32726 -2.85011 0
M  V30 2496 N 233.54 1.10788 -1.12088 0
M  V30 2497 C 234.473 2.16237 -0.729168 0
M  V30 2498 C 235.451 1.60207 0.277921 0
M  V30 2499 O 236.635 1.87707 0.172737 0
M  V30 2500 C 233.762 3.38609 -0.0786848 0
M  V30 2501 C 232.808 4.13322 -1.05201 0
M  V30 2502 S 233.641 4.69371 -2.57781 0
M  V30 2503 C 234.797 5.95058 -1.94053 0
M  V30 2504 H 235.03 2.4913 -1.62239 0
M  V30 2505 H 232.563 1.22519 -0.939603 0
M  V30 2506 H 234.521 4.09473 0.290254 0
M  V30 2507 H 233.182 3.03962 0.791593 0
M  V30 2508 H 232.375 5.01051 -0.544433 0
M  V30 2509 H 231.977 3.48251 -1.36371 0
M  V30 2510 H 234.269 6.65278 -1.28107 0
M  V30 2511 H 235.212 6.50472 -2.79807 0
M  V30 2512 H 235.62 5.46918 -1.39787 0
M  V30 2513 N 235.018 0.912232 1.28515 0
M  V30 2514 C 236.295 0.463597 1.90027 0
M  V30 2515 C 236.675 -1.05753 1.82701 0
M  V30 2516 O 236.023 -1.90492 1.26194 0
M  V30 2517 C 236.233 0.992253 3.34597 0
M  V30 2518 C 237.581 1.04344 4.11579 0
M  V30 2519 O 238.605 0.94079 3.43551 0
M  V30 2520 O 237.464 1.1995 5.33174 0
M  V30 2521 H 234.558 0.146666 0.813891 0
M  V30 2522 H 237.104 1.00292 1.36893 0
M  V30 2523 H 235.876 2.03623 3.34146 0
M  V30 2524 H 235.499 0.433672 3.95228 0
M  V30 2525 N 236.496 -1.42363 0.676048 0
M  V30 2526 C 237.443 -2.308 -0.00150904 0
M  V30 2527 C 238.413 -1.46032 -0.791444 0
M  V30 2528 O 239.598 -1.74861 -0.76344 0
M  V30 2529 C 236.738 -3.31883 -0.945919 0
M  V30 2530 C 235.851 -4.31741 -0.149675 0
M  V30 2531 C 234.986 -5.19898 -1.08995 0
M  V30 2532 C 234.025 -6.11434 -0.285465 0
M  V30 2533 N 233.162 -6.92138 -1.17851 0
M  V30 2534 H 238.002 -2.88187 0.758455 0
M  V30 2535 H 235.539 -1.41952 0.38576 0
M  V30 2536 H 237.497 -3.89019 -1.50731 0
M  V30 2537 H 236.127 -2.76093 -1.6725 0
M  V30 2538 H 235.179 -3.76713 0.528359 0
M  V30 2539 H 236.491 -4.96534 0.474866 0
M  V30 2540 H 235.645 -5.81772 -1.72123 0
M  V30 2541 H 234.384 -4.55284 -1.74837 0
M  V30 2542 H 233.389 -5.48627 0.359018 0
M  V30 2543 H 234.614 -6.78097 0.368883 0
M  V30 2544 H 232.56 -6.30152 -1.82332 0
M  V30 2545 H 232.477 -7.53542 -0.609082 0
M  V30 2546 H 233.745 -7.58499 -1.79722 0
M  V30 2547 N 237.974 -0.419461 -1.51915 0
M  V30 2548 C 239.251 0.211999 -1.94448 0
M  V30 2549 C 239.631 1.61703 -1.35703 0
M  V30 2550 O 238.979 2.22102 -0.536931 0
M  V30 2551 C 239.189 0.207872 -3.4838 0
M  V30 2552 C 240.537 0.422192 -4.22496 0
M  V30 2553 O 241.561 0.286778 -3.55044 0
M  V30 2554 O 240.42 0.690009 -5.42126 0
M  V30 2555 H 237.514 0.139586 -0.815135 0
M  V30 2556 H 240.06 -0.476151 -1.62883 0
M  V30 2557 H 238.832 -0.775102 -3.83546 0
M  V30 2558 H 238.455 0.939688 -3.86336 0
M  V30 2559 N 239.452 1.56882 -0.150215 0
M  V30 2560 C 240.7 1.9584 0.499105 0
M  V30 2561 C 241.021 1.03623 1.65188 0
M  V30 2562 O 240.291 0.0984084 1.95653 0
M  V30 2563 H 238.871 0.723119 0.187373 0
M  V30 2564 H 241.533 1.9358 -0.226466 0
M  V30 2565 H 240.629 2.99638 0.873122 0
M  V30 2566 N 240.93 -0.123565 1.57115 0
M  V30 2567 C 241.877 -1.15177 2.00007 0
M  V30 2568 C 242.847 -1.41403 0.871454 0
M  V30 2569 O 244.032 -1.53346 1.13533 0
M  V30 2570 C 241.172 -2.47436 2.40561 0
M  V30 2571 C 240.285 -2.28184 3.66819 0
M  V30 2572 C 239.42 -3.53641 3.96373 0
M  V30 2573 C 238.459 -3.29528 5.15827 0
M  V30 2574 N 237.596 -4.47175 5.41275 0
M  V30 2575 H 242.436 -0.779008 2.87638 0
M  V30 2576 H 239.973 -0.373166 1.42288 0
M  V30 2577 H 241.931 -3.24584 2.62109 0
M  V30 2578 H 240.561 -2.82614 1.55978 0
M  V30 2579 H 239.613 -1.41976 3.52912 0
M  V30 2580 H 240.925 -2.0634 4.5412 0
M  V30 2581 H 240.079 -4.39209 4.18545 0
M  V30 2582 H 238.818 -3.78512 3.07538 0
M  V30 2583 H 237.823 -2.42349 4.93505 0
M  V30 2584 H 239.048 -3.06031 6.06236 0
M  V30 2585 H 236.994 -4.72175 4.55397 0
M  V30 2586 H 236.911 -4.28419 6.22891 0
M  V30 2587 H 238.179 -5.3389 5.67963 0
M  V30 2588 N 242.408 -1.52605 -0.393616 0
M  V30 2589 C 243.654 -1.68624 -1.13743 0
M  V30 2590 C 244.009 -0.418687 -1.87789 0
M  V30 2591 O 243.302 0.58747 -1.82371 0
M  V30 2592 C 243.496 -2.85721 -2.14705 0
M  V30 2593 C 243.325 -4.23742 -1.50575 0
M  V30 2594 C 242.095 -4.89033 -1.2718 0
M  V30 2595 C 244.293 -5.05293 -0.958311 0
M  V30 2596 N 242.275 -6.11048 -0.591058 0
M  V30 2597 C 243.646 -6.18673 -0.405367 0
M  V30 2598 C 245.701 -4.90517 -0.854274 0
M  V30 2599 C 244.404 -7.18895 0.241434 0
M  V30 2600 C 246.43 -5.90986 -0.221301 0
M  V30 2601 C 245.792 -7.03669 0.320894 0
M  V30 2602 H 241.891 -0.670556 -0.402342 0
M  V30 2603 H 244.475 -1.89946 -0.427607 0
M  V30 2604 H 242.646 -2.65987 -2.83029 0
M  V30 2605 H 244.378 -2.90699 -2.8156 0
M  V30 2606 H 241.133 -4.47672 -1.54554 0
M  V30 2607 H 241.557 -6.76474 -0.266862 0
M  V30 2608 H 246.199 -4.03612 -1.25926 0
M  V30 2609 H 243.917 -8.05413 0.658448 0
M  V30 2610 H 247.503 -5.81626 -0.142111 0
M  V30 2611 H 246.383 -7.80078 0.802956 0
M  V30 2612 N 243.887 0.651787 -1.4349 0
M  V30 2613 C 245.112 1.44434 -1.48841 0
M  V30 2614 C 245.537 1.8779 -0.107955 0
M  V30 2615 O 244.895 1.57464 0.898602 0
M  V30 2616 C 244.943 2.65458 -2.44059 0
M  V30 2617 O 244.047 3.64566 -1.92784 0
M  V30 2618 H 243.388 0.433005 -0.503391 0
M  V30 2619 H 245.918 0.797451 -1.88419 0
M  V30 2620 H 245.928 3.13255 -2.6141 0
M  V30 2621 H 244.603 2.33244 -3.4434 0
M  V30 2622 H 243.18 3.23716 -1.851 0
M  V30 2623 N 245.365 1.30045 0.890287 0
M  V30 2624 C 246.612 1.18561 1.64163 0
M  V30 2625 C 246.94 -0.260852 1.92743 0
M  V30 2626 O 246.195 -1.20376 1.54299 0
M  V30 2627 C 246.494 1.95409 2.99249 0
M  V30 2628 C 246.16 3.45066 2.90242 0
M  V30 2629 C 244.822 3.85878 2.87492 0
M  V30 2630 C 247.174 4.4039 2.78758 0
M  V30 2631 C 244.502 5.20314 2.7109 0
M  V30 2632 C 246.854 5.74928 2.63894 0
M  V30 2633 C 245.518 6.14986 2.59516 0
M  V30 2634 H 244.788 0.433846 0.600715 0
M  V30 2635 H 247.435 1.61088 1.03552 0
M  V30 2636 H 245.74 1.45501 3.63781 0
M  V30 2637 H 247.437 1.8392 3.56334 0
M  V30 2638 H 244.027 3.12631 2.93189 0
M  V30 2639 H 248.211 4.09806 2.79952 0
M  V30 2640 H 243.467 5.50449 2.66112 0
M  V30 2641 H 247.641 6.48434 2.53981 0
M  V30 2642 H 245.268 7.19104 2.46565 0
M  V30 2643 N 246.843 -1.10192 1.12674 0
M  V30 2644 C 248.083 -1.83825 0.893736 0
M  V30 2645 C 248.447 -1.83341 -0.570082 0
M  V30 2646 O 249.648 -2.52553 -0.920354 0
M  V30 2647 C 247.919 -3.26405 1.45582 0
M  V30 2648 S 249.478 -4.17136 1.36171 0
M  V30 2649 H 246.296 -0.633732 0.322342 0
M  V30 2650 H 248.898 -1.32581 1.43675 0
M  V30 2651 H 247.602 -3.24329 2.51473 0
M  V30 2652 H 247.133 -3.82721 0.910405 0
M  V30 2653 H 249.148 -4.95069 0.334863 0
M  V30 2654 N 248.321 -0.919034 -1.28029 0
M  V30 2655 C 249.284 -0.416182 -2.2539 0
M  V30 2656 C 250.284 0.460438 -1.54067 0
M  V30 2657 O 251.474 0.262744 -1.72207 0
M  V30 2658 C 248.606 0.402707 -3.38513 0
M  V30 2659 H 249.799 -1.27629 -2.71387 0
M  V30 2660 H 247.352 -0.698919 -1.39803 0
M  V30 2661 H 248.087 1.282 -2.97885 0
M  V30 2662 H 247.872 -0.225698 -3.9145 0
M  V30 2663 H 249.362 0.745191 -4.10897 0
M  V30 2664 N 249.799 1.42003 -0.683588 0
M  V30 2665 C 251.076 1.95112 -0.138075 0
M  V30 2666 C 251.456 1.62359 1.34918 0
M  V30 2667 O 250.804 0.924311 2.08971 0
M  V30 2668 C 251.014 3.46505 -0.416581 0
M  V30 2669 C 252.362 4.23254 -0.337834 0
M  V30 2670 O 253.386 3.54468 -0.35082 0
M  V30 2671 O 252.245 5.45743 -0.287596 0
M  V30 2672 H 249.339 0.826961 -0.00797996 0
M  V30 2673 H 251.885 1.51784 -0.758924 0
M  V30 2674 H 250.657 3.63582 -1.4465 0
M  V30 2675 H 250.28 3.969 0.235839 0
M  V30 2676 N 251.277 0.427512 1.51691 0
M  V30 2677 C 252.505 -0.141191 2.06418 0
M  V30 2678 C 252.92 -1.37303 1.29589 0
M  V30 2679 O 252.277 -1.79059 0.352732 0
M  V30 2680 C 252.328 -0.473266 3.58389 0
M  V30 2681 O 252.049 0.709673 4.32314 0
M  V30 2682 C 253.55 -1.09371 4.29596 0
M  V30 2683 H 250.77 -0.0122747 0.670888 0
M  V30 2684 H 253.314 0.603764 1.95384 0
M  V30 2685 H 251.469 -1.16812 3.69369 0
M  V30 2686 H 251.883 0.42807 5.2275 0
M  V30 2687 H 253.357 -1.27613 5.37046 0
M  V30 2688 H 253.834 -2.072 3.87253 0
M  V30 2689 H 254.44 -0.43853 4.23033 0
M  V30 2690 N 252.755 -1.56801 0.158532 0
M  V30 2691 C 254.171 -1.5837 -0.197774 0
M  V30 2692 C 254.371 -1.17334 -1.63814 0
M  V30 2693 O 253.427 -0.878988 -2.36707 0
M  V30 2694 C 254.74 -3.00615 0.0714459 0
M  V30 2695 C 256.288 -3.12999 0.00864533 0
M  V30 2696 C 256.763 -4.57313 0.250685 0
M  V30 2697 N 258.254 -4.62777 0.198014 0
M  V30 2698 C 258.989 -5.72271 0.359642 0
M  V30 2699 N 258.485 -6.90371 0.579625 0
M  V30 2700 N 260.278 -5.61318 0.296438 0
M  V30 2701 H 252.429 -1.81765 1.09887 0
M  V30 2702 H 254.692 -0.841849 0.435884 0
M  V30 2703 H 254.398 -3.35068 1.06874 0
M  V30 2704 H 254.272 -3.71683 -0.642757 0
M  V30 2705 H 256.659 -2.7838 -0.979217 0
M  V30 2706 H 256.74 -2.44393 0.755359 0
M  V30 2707 H 256.384 -4.92639 1.2357 0
M  V30 2708 H 256.314 -5.24061 -0.516489 0
M  V30 2709 H 258.805 -3.77885 0.0331115 0
M  V30 2710 H 259.118 -7.69689 0.69275 0
M  V30 2711 H 257.463 -6.92264 0.616087 0
M  V30 2712 H 260.654 -4.67932 0.125258 0
M  V30 2713 H 260.827 -6.46599 0.425831 0
M  V30 2714 N 254.233 0.115231 -1.57178 0
M  V30 2715 C 255.482 0.820945 -1.84237 0
M  V30 2716 C 255.795 1.80866 -0.744761 0
M  V30 2717 O 257.001 2.56083 -0.901871 0
M  V30 2718 C 255.457 1.51072 -3.26658 0
M  V30 2719 C 255.065 0.563795 -4.44438 0
M  V30 2720 C 256.809 2.20134 -3.62962 0
M  V30 2721 C 254.716 1.25701 -5.77887 0
M  V30 2722 H 253.646 0.310328 -0.687177 0
M  V30 2723 H 256.297 0.0737134 -1.83352 0
M  V30 2724 H 254.679 2.30471 -3.22024 0
M  V30 2725 H 255.853 -0.197247 -4.60378 0
M  V30 2726 H 254.168 -0.0200638 -4.16395 0
M  V30 2727 H 256.765 2.72696 -4.59936 0
M  V30 2728 H 257.108 2.98107 -2.90582 0
M  V30 2729 H 257.641 1.47619 -3.69396 0
M  V30 2730 H 254.38 0.518493 -6.53446 0
M  V30 2731 H 253.9 1.98997 -5.65827 0
M  V30 2732 H 255.579 1.78915 -6.2177 0
M  V30 2733 N 255.711 1.52812 0.385517 0
M  V30 2734 C 256.936 1.72207 1.15583 0
M  V30 2735 C 257.361 0.441034 1.82857 0
M  V30 2736 O 256.719 -0.603465 1.70962 0
M  V30 2737 C 256.767 2.87476 2.17692 0
M  V30 2738 O 255.871 2.54693 3.24354 0
M  V30 2739 H 255.212 0.572526 0.336319 0
M  V30 2740 H 257.742 1.99618 0.448744 0
M  V30 2741 H 257.752 3.13072 2.6163 0
M  V30 2742 H 256.427 3.80408 1.68115 0
M  V30 2743 H 255.004 2.3985 2.85529 0
M  V30 2744 N 257.189 -0.644168 1.43834 0
M  V30 2745 C 258.152 -1.73857 1.49353 0
M  V30 2746 C 259.152 -1.56315 0.377112 0
M  V30 2747 O 260.342 -1.62048 0.639226 0
M  V30 2748 C 257.474 -3.12819 1.35488 0
M  V30 2749 H 258.667 -1.70342 2.46827 0
M  V30 2750 H 256.22 -0.856652 1.30733 0
M  V30 2751 H 256.955 -3.2194 0.390569 0
M  V30 2752 H 256.74 -3.26958 2.16428 0
M  V30 2753 H 258.23 -3.92606 1.42302 0
M  V30 2754 N 258.668 -1.30515 -0.883378 0
M  V30 2755 C 259.598 -1.19607 -2.00541 0
M  V30 2756 C 260.579 -0.086346 -1.69881 0
M  V30 2757 O 261.764 -0.268654 -1.92333 0
M  V30 2758 C 258.894 -0.888758 -3.35736 0
M  V30 2759 C 257.848 -1.95659 -3.8066 0
M  V30 2760 C 257.174 -1.50224 -5.13164 0
M  V30 2761 C 258.474 -3.36788 -3.99213 0
M  V30 2762 H 260.168 -2.13476 -2.09925 0
M  V30 2763 H 257.714 -1.02775 -1.00863 0
M  V30 2764 H 259.667 -0.799094 -4.13754 0
M  V30 2765 H 258.391 0.0856125 -3.26488 0
M  V30 2766 H 257.05 -2.03591 -3.04871 0
M  V30 2767 H 256.698 -0.516092 -5.00345 0
M  V30 2768 H 256.398 -2.2165 -5.44192 0
M  V30 2769 H 257.922 -1.42639 -5.93706 0
M  V30 2770 H 259.336 -3.31605 -4.67665 0
M  V30 2771 H 257.733 -4.06314 -4.41621 0
M  V30 2772 H 258.803 -3.78561 -3.03017 0
M  V30 2773 N 260.146 1.09593 -1.13257 0
M  V30 2774 C 261.392 1.82003 -0.89458 0
M  V30 2775 C 261.725 1.85402 0.577906 0
M  V30 2776 O 261 1.32099 1.42759 0
M  V30 2777 C 261.283 3.28237 -1.48096 0
M  V30 2778 C 261.136 3.3312 -3.02244 0
M  V30 2779 C 262.455 4.24871 -1.14774 0
M  V30 2780 H 259.574 0.66077 -0.326424 0
M  V30 2781 H 262.216 1.28389 -1.40058 0
M  V30 2782 H 260.366 3.74024 -1.05062 0
M  V30 2783 H 262.038 2.95748 -3.54021 0
M  V30 2784 H 260.281 2.72756 -3.37323 0
M  V30 2785 H 260.952 4.3613 -3.38371 0
M  V30 2786 H 263.428 3.87361 -1.51957 0
M  V30 2787 H 262.304 5.25532 -1.58452 0
M  V30 2788 H 262.565 4.42058 -0.0611849 0
M  V30 2789 N 261.624 0.925811 1.2754 0
M  V30 2790 C 263.035 0.610102 1.7645 0
M  V30 2791 C 263.386 -0.874723 1.75622 0
M  V30 2792 O 262.511 -1.68444 1.35851 0
M  V30 2793 C 263.106 1.10073 3.20421 0
M  V30 2794 C 261.665 0.835723 3.67005 0
M  V30 2795 C 260.812 1.26054 2.46993 0
M  V30 2796 H 263.763 1.10579 1.13833 0
M  V30 2797 H 263.784 0.447557 3.77859 0
M  V30 2798 H 263.296 2.18143 3.20991 0
M  V30 2799 H 261.397 -0.231249 3.71882 0
M  V30 2800 H 261.51 1.45193 4.56569 0
M  V30 2801 H 259.874 0.679111 2.45479 0
M  V30 2802 H 260.657 2.34984 2.50275 0
M  V30 2803 N 263.102 -1.41638 0.69111 0
M  V30 2804 C 264.35 -2.00902 0.219758 0
M  V30 2805 C 264.671 -1.54994 -1.18329 0
M  V30 2806 O 263.941 -0.778628 -1.79762 0
M  V30 2807 H 262.521 -0.74289 0.0782558 0
M  V30 2808 H 265.183 -1.73327 0.891271 0
M  V30 2809 H 264.279 -3.11224 0.233708 0
M  V30 2810 N 264.58 -0.43555 -1.51462 0
M  V30 2811 C 265.827 0.131514 -2.02072 0
M  V30 2812 C 266.155 1.42868 -1.31981 0
M  V30 2813 O 265.41 1.91076 -0.422883 0
M  V30 2814 C 265.709 0.39942 -3.55161 0
M  V30 2815 C 265.375 -0.81172 -4.43533 0
M  V30 2816 C 264.037 -1.14387 -4.67407 0
M  V30 2817 C 266.389 -1.61976 -4.95392 0
M  V30 2818 C 263.717 -2.28477 -5.40384 0
M  V30 2819 C 266.069 -2.75164 -5.6962 0
M  V30 2820 C 264.733 -3.08835 -5.91758 0
M  V30 2821 H 264.003 0.0481244 -0.739436 0
M  V30 2822 H 266.65 -0.58238 -1.8243 0
M  V30 2823 H 264.955 1.19519 -3.73125 0
M  V30 2824 H 266.652 0.85157 -3.91854 0
M  V30 2825 H 263.242 -0.542898 -4.25148 0
M  V30 2826 H 267.426 -1.37637 -4.76833 0
M  V30 2827 H 262.682 -2.5488 -5.55739 0
M  V30 2828 H 266.856 -3.38147 -6.08793 0
M  V30 2829 H 264.483 -3.97353 -6.48086 0
M  V30 2830 N 266.058 1.56714 -0.166846 0
M  V30 2831 C 267.469 1.83378 0.350646 0
M  V30 2832 C 267.82 1.08646 1.63372 0
M  V30 2833 O 266.945 0.338058 2.13743 0
M  V30 2834 C 267.54 3.32643 0.642963 0
M  V30 2835 C 266.099 3.59818 1.10491 0
M  V30 2836 C 265.246 2.76954 0.138411 0
M  V30 2837 H 268.197 1.53803 -0.391193 0
M  V30 2838 H 268.218 3.49878 1.49551 0
M  V30 2839 H 267.73 3.87007 -0.291055 0
M  V30 2840 H 265.831 3.1086 2.05418 0
M  V30 2841 H 265.944 4.68178 1.01716 0
M  V30 2842 H 264.308 2.4666 0.634911 0
M  V30 2843 H 265.091 3.34097 -0.789549 0
M  V30 2844 N 267.536 -0.106894 1.57237 0
M  V30 2845 C 268.776 -0.818277 1.87306 0
M  V30 2846 C 269.14 -1.76474 0.756371 0
M  V30 2847 O 270.341 -2.5186 0.939155 0
M  V30 2848 C 268.612 -1.53806 3.22612 0
M  V30 2849 S 270.171 -2.28935 3.74345 0
M  V30 2850 H 266.989 -0.272862 0.656557 0
M  V30 2851 H 269.591 -0.075988 1.95352 0
M  V30 2852 H 268.295 -0.834951 4.01817 0
M  V30 2853 H 267.826 -2.32049 3.17674 0
M  V30 2854 H 269.841 -3.54871 3.46815 0
M  V30 2855 N 269.014 -1.53014 -0.377408 0
M  V30 2856 C 269.964 -1.74996 -1.46152 0
M  V30 2857 C 270.948 -0.604236 -1.49123 0
M  V30 2858 O 272.14 -0.862489 -1.54564 0
M  V30 2859 C 269.269 -1.93267 -2.8373 0
M  V30 2860 C 268.355 -3.13807 -2.85283 0
M  V30 2861 N 268.746 -4.35941 -2.56493 0
M  V30 2862 C 267.044 -3.14288 -3.16448 0
M  V30 2863 C 267.745 -5.17615 -2.65424 0
M  V30 2864 N 266.721 -4.53559 -2.99641 0
M  V30 2865 H 270.523 -2.67044 -1.22738 0
M  V30 2866 H 268.037 -1.51479 -0.585479 0
M  V30 2867 H 270.034 -2.0714 -3.61799 0
M  V30 2868 H 268.694 -1.0244 -3.08117 0
M  V30 2869 H 269.705 -4.63876 -2.30302 0
M  V30 2870 H 266.382 -2.33312 -3.46225 0
M  V30 2871 H 267.772 -6.25006 -2.46612 0
M  V30 2872 N 270.492 0.636531 -1.44174 0
M  V30 2873 C 271.739 1.39619 -1.46672 0
M  V30 2874 C 272.067 1.94257 -0.0972691 0
M  V30 2875 O 271.322 1.73768 0.900175 0
M  V30 2876 C 271.621 2.58309 -2.47005 0
M  V30 2877 C 271.287 2.21992 -3.92467 0
M  V30 2878 C 269.949 2.118 -4.32081 0
M  V30 2879 C 272.301 1.9321 -4.84065 0
M  V30 2880 C 269.629 1.71007 -5.61225 0
M  V30 2881 C 271.981 1.53911 -6.13591 0
M  V30 2882 C 270.645 1.42257 -6.52165 0
M  V30 2883 H 269.915 0.510902 -0.536712 0
M  V30 2884 H 272.562 0.722328 -1.77355 0
M  V30 2885 H 270.867 3.30903 -2.09786 0
M  V30 2886 H 272.564 3.16533 -2.46186 0
M  V30 2887 H 269.154 2.30841 -3.61124 0
M  V30 2888 H 273.338 1.99997 -4.54219 0
M  V30 2889 H 268.594 1.60583 -5.89935 0
M  V30 2890 H 272.768 1.30677 -6.8403 0
M  V30 2891 H 270.395 1.10419 -7.52138 0
M  V30 2892 N 271.97 1.30982 0.876444 0
M  V30 2893 C 273.381 1.18277 1.44456 0
M  V30 2894 C 273.732 -0.213265 1.95037 0
M  V30 2895 O 272.857 -1.11057 1.85729 0
M  V30 2896 C 273.452 2.1411 2.62569 0
M  V30 2897 C 272.011 2.05358 3.15444 0
M  V30 2898 C 271.158 2.03706 1.88146 0
M  V30 2899 H 274.109 1.43127 0.685584 0
M  V30 2900 H 274.13 1.72692 3.39054 0
M  V30 2901 H 273.642 3.15706 2.25724 0
M  V30 2902 H 271.743 1.06934 3.56926 0
M  V30 2903 H 271.856 2.94156 3.78166 0
M  V30 2904 H 270.22 1.48629 2.06837 0
M  V30 2905 H 271.003 3.07047 1.53547 0
M  V30 2906 N 273.449 -1.08991 1.13837 0
M  V30 2907 C 274.696 -1.81258 0.902882 0
M  V30 2908 C 275.024 -1.85936 -0.570803 0
M  V30 2909 O 274.279 -1.3267 -1.43865 0
M  V30 2910 C 274.578 -3.27042 1.44147 0
M  V30 2911 C 274.244 -3.4249 2.93276 0
M  V30 2912 C 272.906 -3.46414 3.33992 0
M  V30 2913 C 275.258 -3.4666 3.892 0
M  V30 2914 C 272.586 -3.52091 4.69307 0
M  V30 2915 C 274.938 -3.53872 5.24364 0
M  V30 2916 C 273.602 -3.56066 5.646 0
M  V30 2917 H 272.872 -0.663268 0.330388 0
M  V30 2918 H 275.519 -1.28368 1.42105 0
M  V30 2919 H 273.824 -3.82599 0.844097 0
M  V30 2920 H 275.521 -3.81499 1.23528 0
M  V30 2921 H 272.111 -3.40124 2.60794 0
M  V30 2922 H 276.295 -3.42865 3.58828 0
M  V30 2923 H 271.551 -3.52079 4.9985 0
M  V30 2924 H 275.725 -3.56043 5.98503 0
M  V30 2925 H 273.352 -3.60218 6.69438 0
M  V30 2926 N 274.927 -0.932562 -1.27047 0
M  V30 2927 C 275.875 -0.42603 -2.28665 0
M  V30 2928 C 276.869 0.49219 -1.62092 0
M  V30 2929 O 278.075 0.371355 -1.76128 0
M  V30 2930 H 274.45 -0.119213 -0.742491 0
M  V30 2931 H 276.421 -1.29579 -2.68797 0
M  V30 2932 C 275.17 0.301426 -3.46391 0
M  V30 2933 H 274.493 -0.39595 -3.97834 0
M  V30 2934 H 275.933 0.6202 -4.1944 0
M  V30 2935 C 274.392 1.51616 -3.00856 0
M  V30 2936 O 274.922 2.61476 -3.04948 0
M  V30 2937 N 273.128 1.36969 -2.56296 0
M  V30 2938 H 272.675 0.475873 -2.53166 0
M  V30 2939 H 272.633 2.18368 -2.26192 0
M  V30 2940 N 276.405 1.4127 -0.698611 0
M  V30 2941 C 277.635 2.05205 -0.239644 0
M  V30 2942 C 278.043 1.52684 1.11733 0
M  V30 2943 O 277.386 0.671222 1.70998 0
M  V30 2944 C 277.448 3.59289 -0.123126 0
M  V30 2945 C 277.112 4.34619 -1.41263 0
M  V30 2946 C 278.109 4.63701 -2.35111 0
M  V30 2947 C 275.794 4.73837 -1.66684 0
M  V30 2948 C 277.788 5.30966 -3.52639 0
M  V30 2949 C 275.475 5.40837 -2.84498 0
M  V30 2950 C 276.473 5.69329 -3.77298 0
M  V30 2951 O 276.161 6.34949 -4.93047 0
M  V30 2952 H 275.893 0.66723 -0.108537 0
M  V30 2953 H 278.447 1.81974 -0.952602 0
M  V30 2954 H 276.677 3.81272 0.645628 0
M  V30 2955 H 278.366 4.04797 0.299056 0
M  V30 2956 H 279.132 4.33882 -2.16729 0
M  V30 2957 H 275.011 4.51039 -0.953135 0
M  V30 2958 H 278.555 5.53121 -4.25091 0
M  V30 2959 H 274.452 5.70075 -3.02795 0
M  V30 2960 H 275.22 6.53445 -4.92902 0
M  V30 2961 N 277.883 0.443576 1.51229 0
M  V30 2962 C 278.83 -0.364716 2.279 0
M  V30 2963 C 279.8 -1.0114 1.31757 0
M  V30 2964 O 280.985 -1.02912 1.60667 0
M  V30 2965 C 278.125 -1.45644 3.12861 0
M  V30 2966 C 277.238 -0.827269 4.24005 0
M  V30 2967 C 276.373 -1.89456 4.96266 0
M  V30 2968 C 275.412 -1.24416 5.99322 0
M  V30 2969 N 274.549 -2.25309 6.64966 0
M  V30 2970 H 279.389 0.295464 2.96532 0
M  V30 2971 H 276.926 0.157554 1.46254 0
M  V30 2972 H 278.884 -2.10076 3.6045 0
M  V30 2973 H 277.514 -2.08616 2.46331 0
M  V30 2974 H 276.566 -0.0710839 3.80334 0
M  V30 2975 H 277.878 -0.312481 4.9782 0
M  V30 2976 H 277.032 -2.61535 5.47434 0
M  V30 2977 H 275.771 -2.4431 4.22095 0
M  V30 2978 H 274.776 -0.508868 5.4744 0
M  V30 2979 H 276.001 -0.702882 6.75453 0
M  V30 2980 H 273.947 -2.79231 5.93604 0
M  V30 2981 H 273.864 -1.78739 7.34567 0
M  V30 2982 H 275.132 -2.96853 7.20763 0
M  V30 2983 N 279.361 -1.56624 0.175154 0
M  V30 2984 C 280.309 -2.19468 -0.770495 0
M  V30 2985 C 281.303 -1.15985 -1.23466 0
M  V30 2986 O 282.509 -1.34176 -1.19987 0
M  V30 2987 H 278.884 -0.703095 -0.266761 0
M  V30 2988 H 280.855 -2.97613 -0.216542 0
M  V30 2989 C 279.604 -2.85264 -1.98796 0
M  V30 2990 H 278.927 -3.64623 -1.63983 0
M  V30 2991 H 280.367 -3.327 -2.62843 0
M  V30 2992 C 278.826 -1.85239 -2.81404 0
M  V30 2993 O 279.356 -1.34024 -3.78682 0
M  V30 2994 N 277.562 -1.53911 -2.46495 0
M  V30 2995 H 277.109 -1.95751 -1.67449 0
M  V30 2996 H 277.067 -0.872382 -3.02054 0
M  V30 2997 N 280.839 0.0985539 -1.57292 0
M  V30 2998 C 281.786 1.11981 -2.01814 0
M  V30 2999 C 282.756 1.39999 -0.89384 0
M  V30 3000 O 283.941 1.5152 -1.15958 0
M  V30 3001 C 281.081 2.43577 -2.44467 0
M  V30 3002 C 280.194 2.2232 -3.70402 0
M  V30 3003 C 279.329 3.4729 -4.01949 0
M  V30 3004 C 278.368 3.2128 -5.21005 0
M  V30 3005 N 277.505 4.38507 -5.48321 0
M  V30 3006 H 282.345 0.733149 -2.88841 0
M  V30 3007 H 279.882 0.350482 -1.42864 0
M  V30 3008 H 281.84 3.20373 -2.6724 0
M  V30 3009 H 280.47 2.80097 -1.60455 0
M  V30 3010 H 279.522 1.36343 -3.55126 0
M  V30 3011 H 280.834 1.99089 -4.57345 0
M  V30 3012 H 279.988 4.32495 -4.25479 0
M  V30 3013 H 278.727 3.73572 -3.13521 0
M  V30 3014 H 277.732 2.34468 -4.97298 0
M  V30 3015 H 278.957 2.96348 -6.11028 0
M  V30 3016 H 276.903 4.64871 -4.62851 0
M  V30 3017 H 276.82 4.18455 -6.29628 0
M  V30 3018 H 278.088 5.24787 -5.76385 0
M  V30 3019 N 282.317 1.53212 0.369288 0
M  V30 3020 C 283.265 1.80054 1.47253 0
M  V30 3021 C 284.259 0.669456 1.55611 0
M  V30 3022 O 285.465 0.852328 1.58541 0
M  V30 3023 H 281.84 0.570034 0.490475 0
M  V30 3024 H 283.811 2.72403 1.21817 0
M  V30 3025 C 282.56 2.00403 2.84137 0
M  V30 3026 H 281.883 2.86876 2.78464 0
M  V30 3027 H 283.323 2.23164 3.60519 0
M  V30 3028 C 281.782 0.782081 3.27697 0
M  V30 3029 O 282.312 -0.0310205 4.01688 0
M  V30 3030 N 280.518 0.606573 2.84199 0
M  V30 3031 H 280.065 1.26939 2.24152 0
M  V30 3032 H 280.023 -0.20962 3.137 0
M  V30 3033 N 283.795 -0.628877 1.44509 0
M  V30 3034 C 285.025 -1.41349 1.50678 0
M  V30 3035 C 285.433 -1.88745 0.131075 0
M  V30 3036 O 284.776 -1.61592 -0.87371 0
M  V30 3037 C 284.838 -2.66608 2.41165 0
M  V30 3038 C 284.502 -2.40993 3.88293 0
M  V30 3039 C 285.499 -2.0268 4.78766 0
M  V30 3040 C 283.184 -2.54563 4.33016 0
M  V30 3041 C 285.178 -1.78269 6.11963 0
M  V30 3042 C 282.865 -2.29766 5.6626 0
M  V30 3043 C 283.863 -1.91678 6.55552 0
M  V30 3044 O 283.551 -1.67158 7.86329 0
M  V30 3045 H 283.283 -0.439851 0.51333 0
M  V30 3046 H 285.837 -0.776084 1.90174 0
M  V30 3047 H 284.067 -3.32994 1.96601 0
M  V30 3048 H 285.756 -3.28615 2.38259 0
M  V30 3049 H 286.522 -1.91751 4.45485 0
M  V30 3050 H 282.401 -2.83179 3.63773 0
M  V30 3051 H 285.945 -1.48465 6.81619 0
M  V30 3052 H 281.842 -2.40306 5.99102 0
M  V30 3053 H 282.61 -1.81386 7.98149 0
M  V30 3054 N 285.273 -1.31445 -0.869486 0
M  V30 3055 C 286.52 -1.21158 -1.62256 0
M  V30 3056 C 286.848 0.230155 -1.93133 0
M  V30 3057 O 286.103 1.17906 -1.56194 0
M  V30 3058 C 286.402 -2.00145 -2.96102 0
M  V30 3059 C 286.068 -3.4964 -2.84715 0
M  V30 3060 C 284.73 -3.90403 -2.81317 0
M  V30 3061 C 287.082 -4.44769 -2.71716 0
M  V30 3062 C 284.41 -5.24561 -2.62778 0
M  V30 3063 C 286.762 -5.79054 -2.54714 0
M  V30 3064 C 285.426 -6.19037 -2.49699 0
M  V30 3065 H 284.696 -0.443348 -0.593737 0
M  V30 3066 H 287.343 -1.62715 -1.00976 0
M  V30 3067 H 285.648 -1.5127 -3.6142 0
M  V30 3068 H 287.345 -1.89566 -3.53363 0
M  V30 3069 H 283.935 -3.17256 -2.88178 0
M  V30 3070 H 288.119 -4.14208 -2.73397 0
M  V30 3071 H 283.375 -5.54613 -2.57321 0
M  V30 3072 H 287.549 -6.52393 -2.43632 0
M  V30 3073 H 285.176 -7.22935 -2.35093 0
M  V30 3074 N 286.751 1.08385 -1.14413 0
M  V30 3075 C 287.699 2.17406 -0.826888 0
M  V30 3076 C 288.693 1.6827 0.195312 0
M  V30 3077 O 289.899 1.79927 0.0513892 0
M  V30 3078 H 286.274 0.70934 -0.249681 0
M  V30 3079 H 288.245 2.41388 -1.75426 0
M  V30 3080 C 286.994 3.46215 -0.320979 0
M  V30 3081 H 286.317 3.84401 -1.0989 0
M  V30 3082 H 287.757 4.23777 -0.137549 0
M  V30 3083 C 286.216 3.23067 0.955472 0
M  V30 3084 O 286.746 3.4668 2.02918 0
M  V30 3085 N 284.952 2.7661 0.890798 0
M  V30 3086 H 284.499 2.57594 0.0168815 0
M  V30 3087 H 284.457 2.61501 1.74542 0
M  V30 3088 N 288.23 0.939286 1.26551 0
M  V30 3089 C 289.47 0.5933 1.956 0
M  V30 3090 C 289.834 -0.851515 1.72085 0
M  V30 3091 O 291.035 -1.30634 2.34921 0
M  V30 3092 C 289.306 0.923996 3.45249 0
M  V30 3093 S 290.865 0.688269 4.33369 0
M  V30 3094 H 287.683 0.218591 0.676564 0
M  V30 3095 H 290.285 1.2102 1.5354 0
M  V30 3096 H 288.989 1.97297 3.59864 0
M  V30 3097 H 288.52 0.296746 3.92279 0
M  V30 3098 H 290.535 -0.448434 4.9417 0
M  V30 3099 N 289.708 -1.40897 0.706093 0
M  V30 3100 C 290.936 -2.05373 0.250887 0
M  V30 3101 C 291.351 -1.53172 -1.10381 0
M  V30 3102 O 290.708 -0.684305 -1.69185 0
M  V30 3103 C 290.759 -3.6088 0.211571 0
M  V30 3104 O 290.48 -4.11153 1.51276 0
M  V30 3105 C 291.981 -4.42517 -0.263346 0
M  V30 3106 H 289.201 -0.66115 0.114552 0
M  V30 3107 H 291.745 -1.80479 0.961635 0
M  V30 3108 H 289.9 -3.84777 -0.450073 0
M  V30 3109 H 290.314 -5.05279 1.40689 0
M  V30 3110 H 291.788 -5.51479 -0.239718 0
M  V30 3111 H 292.265 -4.19396 -1.30397 0
M  V30 3112 H 292.871 -4.23708 0.367677 0
M  V30 3113 N 291.186 -0.45159 -1.50991 0
M  V30 3114 C 292.134 0.366864 -2.29689 0
M  V30 3115 C 293.128 1.00809 -1.36139 0
M  V30 3116 O 294.334 0.941427 -1.53418 0
M  V30 3117 H 290.709 0.137133 -0.739391 0
M  V30 3118 H 292.68 -0.317538 -2.96706 0
M  V30 3119 C 291.429 1.44751 -3.16137 0
M  V30 3120 H 290.752 0.963473 -3.88017 0
M  V30 3121 H 292.192 1.99315 -3.74232 0
M  V30 3122 C 290.651 2.43869 -2.32442 0
M  V30 3123 O 291.181 3.4872 -1.99392 0
M  V30 3124 N 289.387 2.15105 -1.95392 0
M  V30 3125 H 288.934 1.29866 -2.22469 0
M  V30 3126 H 288.892 2.81661 -1.39693 0
M  V30 3127 N 292.664 1.56529 -0.183458 0
M  V30 3128 C 293.574 2.22144 0.754272 0
M  V30 3129 C 294.59 1.21684 1.24374 0
M  V30 3130 O 295.766 1.54385 1.29333 0
M  V30 3131 C 292.831 2.85884 1.96141 0
M  V30 3132 C 291.892 4.01579 1.51765 0
M  V30 3133 C 291.125 4.6227 2.66725 0
M  V30 3134 O 291.348 4.21865 3.83909 0
M  V30 3135 O 290.282 5.51936 2.40104 0
M  V30 3136 H 294.108 3.02861 0.225527 0
M  V30 3137 H 291.693 1.49331 0.0453032 0
M  V30 3138 H 293.575 3.26253 2.66715 0
M  V30 3139 H 292.25 2.08154 2.47899 0
M  V30 3140 H 291.157 3.65856 0.781049 0
M  V30 3141 H 292.49 4.80938 1.04686 0
M  V30 3142 N 294.142 -0.090211 1.57342 0
M  V30 3143 C 295.39 -0.791241 1.85967 0
M  V30 3144 C 295.711 -1.7903 0.772859 0
M  V30 3145 O 294.981 -1.94872 -0.200398 0
M  V30 3146 H 293.561 -0.295205 0.686195 0
M  V30 3147 H 296.223 -0.0706782 1.94772 0
M  V30 3148 H 295.319 -1.31882 2.82867 0
M  V30 3149 N 295.62 -1.53406 -0.361157 0
M  V30 3150 C 296.845 -1.74024 -1.12829 0
M  V30 3151 C 297.27 -0.470069 -1.82132 0
M  V30 3152 O 296.628 0.57619 -1.719 0
M  V30 3153 C 296.676 -2.90903 -2.13091 0
M  V30 3154 O 295.78 -2.59821 -3.20261 0
M  V30 3155 H 295.121 -0.577804 -0.327168 0
M  V30 3156 H 297.651 -2.00307 -0.41693 0
M  V30 3157 H 297.661 -3.17194 -2.56616 0
M  V30 3158 H 296.336 -3.83034 -1.62042 0
M  V30 3159 H 294.913 -2.44362 -2.81677 0
M  V30 3160 N 297.098 0.621204 -1.44841 0
M  V30 3161 C 298.045 1.73267 -1.5247 0
M  V30 3162 C 299.015 1.6189 -0.371611 0
M  V30 3163 O 300.2 1.81668 -0.58321 0
M  V30 3164 C 297.34 3.11545 -1.48438 0
M  V30 3165 C 296.453 3.33827 -2.74196 0
M  V30 3166 C 295.588 4.62133 -2.61929 0
M  V30 3167 C 294.627 4.77627 -3.82804 0
M  V30 3168 N 293.764 5.97219 -3.69153 0
M  V30 3169 H 298.604 1.66082 -2.47428 0
M  V30 3170 H 296.141 0.810026 -1.22788 0
M  V30 3171 H 298.099 3.91528 -1.4409 0
M  V30 3172 H 296.729 3.1772 -0.570402 0
M  V30 3173 H 295.781 2.47715 -2.88689 0
M  V30 3174 H 297.093 3.41153 -3.6389 0
M  V30 3175 H 296.247 5.50291 -2.5547 0
M  V30 3176 H 294.986 4.57182 -1.69811 0
M  V30 3177 H 293.991 3.87896 -3.89637 0
M  V30 3178 H 295.216 4.84385 -4.75971 0
M  V30 3179 H 293.162 5.93339 -2.79794 0
M  V30 3180 H 293.079 6.05644 -4.52472 0
M  V30 3181 H 294.347 6.87912 -3.66603 0
M  V30 3182 N 298.576 1.31904 0.862503 0
M  V30 3183 C 299.486 1.22161 2.00285 0
M  V30 3184 C 300.502 0.136785 1.73462 0
M  V30 3185 O 301.678 0.355994 1.98229 0
M  V30 3186 C 298.743 0.937093 3.33796 0
M  V30 3187 C 297.804 2.10957 3.73893 0
M  V30 3188 C 297.037 1.83853 5.01033 0
M  V30 3189 O 297.26 0.777274 5.65079 0
M  V30 3190 O 296.194 2.69741 5.38074 0
M  V30 3191 H 300.02 2.18008 2.11439 0
M  V30 3192 H 297.605 1.11716 0.991957 0
M  V30 3193 H 299.487 0.794583 4.13841 0
M  V30 3194 H 298.162 0.00871894 3.23699 0
M  V30 3195 H 297.069 2.30752 2.94456 0
M  V30 3196 H 298.402 3.02046 3.88625 0
M  V30 3197 N 300.054 -1.07777 1.14986 0
M  V30 3198 C 301.002 -2.16964 0.838406 0
M  V30 3199 C 301.996 -1.68372 -0.186386 0
M  V30 3200 O 303.202 -1.79951 -0.0418465 0
M  V30 3201 H 299.577 -0.708006 0.253439 0
M  V30 3202 H 301.548 -2.40454 1.76704 0
M  V30 3203 C 300.297 -3.4604 0.339335 0
M  V30 3204 H 299.62 -3.83813 1.11927 0
M  V30 3205 H 301.06 -4.23698 0.160021 0
M  V30 3206 C 299.519 -3.23569 -0.938325 0
M  V30 3207 O 300.049 -3.47752 -2.01077 0
M  V30 3208 N 298.255 -2.77079 -0.876117 0
M  V30 3209 H 297.802 -2.576 -0.00322037 0
M  V30 3210 H 297.76 -2.62422 -1.73153 0
M  V30 3211 N 301.532 -0.945985 -1.26051 0
M  V30 3212 C 302.462 -0.477172 -2.28572 0
M  V30 3213 C 303.443 0.472032 -1.63419 0
M  V30 3214 O 304.628 0.372853 -1.90587 0
M  V30 3215 C 301.758 0.253975 -3.4637 0
M  V30 3216 C 300.712 -0.609135 -4.23643 0
M  V30 3217 C 300.038 0.252252 -5.34105 0
M  V30 3218 C 301.338 -1.8829 -4.8718 0
M  V30 3219 H 303.032 -1.33402 -2.68038 0
M  V30 3220 H 300.578 -0.642904 -1.28852 0
M  V30 3221 H 302.531 0.593016 -4.17207 0
M  V30 3222 H 301.255 1.145 -3.05871 0
M  V30 3223 H 299.914 -0.931138 -3.54578 0
M  V30 3224 H 299.562 1.14278 -4.89846 0
M  V30 3225 H 299.262 -0.32188 -5.86718 0
M  V30 3226 H 300.786 0.586454 -6.07777 0
M  V30 3227 H 302.2 -1.61081 -5.50205 0
M  V30 3228 H 300.597 -2.40199 -5.49931 0
M  V30 3229 H 301.667 -2.59134 -4.09851 0
M  V30 3230 N 303.011 1.40521 -0.713556 0
M  V30 3231 C 304.257 2.01221 -0.252564 0
M  V30 3232 C 304.59 1.56444 1.1506 0
M  V30 3233 O 303.865 0.783597 1.78017 0
M  V30 3234 C 304.148 3.58582 -0.330332 0
M  V30 3235 C 304.001 4.13437 -1.77173 0
M  V30 3236 C 305.32 4.39079 0.299641 0
M  V30 3237 H 302.439 0.731077 -0.0932471 0
M  V30 3238 H 305.081 1.67026 -0.905673 0
M  V30 3239 H 303.231 3.87844 0.225737 0
M  V30 3240 H 304.903 3.9498 -2.38303 0
M  V30 3241 H 303.146 3.67801 -2.3001 0
M  V30 3242 H 303.817 5.22597 -1.77755 0
M  V30 3243 H 306.293 4.15735 -0.174139 0
M  V30 3244 H 305.169 5.4848 0.214771 0
M  V30 3245 H 305.43 4.19915 1.38288 0
M  V30 3246 N 304.489 0.459591 1.5075 0
M  V30 3247 C 305.735 -0.091664 2.03193 0
M  V30 3248 C 306.09 -1.38432 1.3362 0
M  V30 3249 O 305.383 -1.86257 0.449322 0
M  V30 3250 C 305.577 -0.342866 3.55752 0
M  V30 3251 C 305.406 0.923888 4.40107 0
M  V30 3252 C 304.176 1.46388 4.83631 0
M  V30 3253 C 306.374 1.81617 4.81165 0
M  V30 3254 N 304.356 2.68086 5.52271 0
M  V30 3255 C 305.727 2.87907 5.49099 0
M  V30 3256 C 307.782 1.82793 4.63132 0
M  V30 3257 C 306.485 3.95347 6.0091 0
M  V30 3258 C 308.511 2.89182 5.15876 0
M  V30 3259 C 307.873 3.94191 5.83774 0
M  V30 3260 H 303.972 0.00619247 0.781975 0
M  V30 3261 H 306.556 0.625233 1.84388 0
M  V30 3262 H 304.727 -1.0288 3.74527 0
M  V30 3263 H 306.459 -0.887445 3.9485 0
M  V30 3264 H 303.214 1.01466 4.62603 0
M  V30 3265 H 303.638 3.29857 5.91205 0
M  V30 3266 H 308.28 1.0293 4.1008 0
M  V30 3267 H 305.998 4.76035 6.53006 0
M  V30 3268 H 309.584 2.91061 5.0376 0
M  V30 3269 H 308.464 4.75161 6.23853 0
M  V30 3270 N 305.967 -1.56429 0.191757 0
M  V30 3271 C 307.207 -1.99383 -0.450099 0
M  V30 3272 C 307.571 -1.07581 -1.59029 0
M  V30 3273 O 308.772 -1.39758 -2.29611 0
M  V30 3274 C 307.043 -3.45841 -0.901611 0
M  V30 3275 S 308.602 -4.10822 -1.54177 0
M  V30 3276 H 305.42 -0.696253 -0.144057 0
M  V30 3277 H 308.022 -1.93276 0.294036 0
M  V30 3278 H 306.726 -4.10354 -0.0616596 0
M  V30 3279 H 306.257 -3.55757 -1.67929 0
M  V30 3280 H 308.272 -4.07553 -2.83046 0
M  V30 3281 N 307.445 0.0818655 -1.57387 0
M  V30 3282 C 308.408 1.08265 -2.02018 0
M  V30 3283 C 309.408 1.32183 -0.915664 0
M  V30 3284 O 310.598 1.28073 -1.18081 0
M  V30 3285 C 307.73 2.42871 -2.39221 0
M  V30 3286 H 308.923 0.698204 -2.91659 0
M  V30 3287 H 306.476 0.327303 -1.52835 0
M  V30 3288 H 307.211 2.86167 -1.52575 0
M  V30 3289 H 306.996 2.26855 -3.19811 0
M  V30 3290 H 308.486 3.14826 -2.74362 0
M  V30 3291 N 308.923 1.53595 0.353017 0
M  V30 3292 C 310.151 1.74311 1.1146 0
M  V30 3293 C 310.566 0.477854 1.82653 0
M  V30 3294 O 309.923 -0.549977 1.74016 0
M  V30 3295 C 309.974 2.91694 2.13534 0
M  V30 3296 O 309.695 4.13325 1.45238 0
M  V30 3297 C 311.196 3.24384 3.02142 0
M  V30 3298 H 308.416 0.582669 0.332773 0
M  V30 3299 H 310.96 2.00386 0.408107 0
M  V30 3300 H 309.115 2.67977 2.79763 0
M  V30 3301 H 309.529 4.79148 2.13349 0
M  V30 3302 H 311.003 4.09893 3.69718 0
M  V30 3303 H 311.48 2.40282 3.67643 0
M  V30 3304 H 312.086 3.50073 2.41514 0
M  V30 3305 N 310.401 -0.613514 1.45168 0
M  V30 3306 C 311.626 -1.40437 1.52618 0
M  V30 3307 C 312.051 -1.87438 0.157707 0
M  V30 3308 O 311.409 -1.59791 -0.856537 0
M  V30 3309 C 311.457 -2.58894 2.51011 0
M  V30 3310 O 310.561 -3.59326 2.02382 0
M  V30 3311 H 309.902 -0.419506 0.514695 0
M  V30 3312 H 312.432 -0.747215 1.90467 0
M  V30 3313 H 312.442 -3.06214 2.69624 0
M  V30 3314 H 311.117 -2.24032 3.50403 0
M  V30 3315 H 309.694 -3.18695 1.93618 0
M  V30 3316 N 311.879 -1.3236 -0.855495 0
M  V30 3317 C 313.109 -1.25688 -1.6397 0
M  V30 3318 C 313.517 0.177592 -1.88365 0
M  V30 3319 O 312.86 1.12485 -1.45234 0
M  V30 3320 C 312.922 -1.94602 -3.02275 0
M  V30 3321 C 312.586 -3.43937 -3.00926 0
M  V30 3322 C 313.583 -4.39435 -2.77835 0
M  V30 3323 C 311.268 -3.85858 -3.21588 0
M  V30 3324 C 313.262 -5.74829 -2.75409 0
M  V30 3325 C 310.949 -5.21361 -3.18789 0
M  V30 3326 C 311.947 -6.15658 -2.95727 0
M  V30 3327 O 311.635 -7.48681 -2.928 0
M  V30 3328 H 311.367 -0.434972 -0.51747 0
M  V30 3329 H 313.921 -1.75023 -1.075 0
M  V30 3330 H 312.151 -1.39836 -3.60531 0
M  V30 3331 H 313.84 -1.81651 -3.62985 0
M  V30 3332 H 314.606 -4.08374 -2.6164 0
M  V30 3333 H 310.485 -3.12883 -3.38564 0
M  V30 3334 H 314.029 -6.48404 -2.57328 0
M  V30 3335 H 309.926 -5.52052 -3.34528 0
M  V30 3336 H 310.694 -7.5803 -3.0876 0
M  V30 3337 N 313.357 1.07166 -1.15556 0
M  V30 3338 C 314.305 2.16517 -0.8499 0
M  V30 3339 C 315.299 1.68468 0.177454 0
M  V30 3340 O 316.505 1.79971 0.0323026 0
M  V30 3341 H 312.88 0.706652 -0.25719 0
M  V30 3342 H 314.851 2.39514 -1.77976 0
M  V30 3343 C 313.6 3.45855 -0.357682 0
M  V30 3344 H 312.923 3.83214 -1.13961 0
M  V30 3345 H 314.363 4.23607 -0.182489 0
M  V30 3346 C 312.822 3.24062 0.921152 0
M  V30 3347 O 313.352 3.48813 1.9923 0
M  V30 3348 N 311.558 2.77539 0.86141 0
M  V30 3349 H 311.105 2.57598 -0.0104408 0
M  V30 3350 H 311.063 2.63337 1.71758 0
M  V30 3351 N 314.835 0.952656 1.25548 0
M  V30 3352 C 316.065 0.622592 1.96996 0
M  V30 3353 C 316.473 -0.809112 1.71026 0
M  V30 3354 O 315.816 -1.55258 0.981861 0
M  V30 3355 C 315.878 0.798946 3.5051 0
M  V30 3356 C 315.542 2.20744 4.00151 0
M  V30 3357 C 316.539 3.18394 4.11001 0
M  V30 3358 C 314.224 2.5311 4.33867 0
M  V30 3359 C 316.218 4.46504 4.54877 0
M  V30 3360 C 313.905 3.8145 4.7743 0
M  V30 3361 C 314.903 4.77959 4.87897 0
M  V30 3362 O 314.591 6.04012 5.30494 0
M  V30 3363 H 314.323 0.232503 0.634758 0
M  V30 3364 H 316.877 1.2789 1.60728 0
M  V30 3365 H 315.107 0.0854903 3.86605 0
M  V30 3366 H 316.796 0.47023 4.03167 0
M  V30 3367 H 317.562 2.94715 3.85186 0
M  V30 3368 H 313.441 1.78719 4.24948 0
M  V30 3369 H 316.985 5.21835 4.62962 0
M  V30 3370 H 312.882 4.04936 5.0269 0
M  V30 3371 H 313.65 6.0736 5.48685 0
M  V30 3372 N 316.313 -1.40141 0.720998 0
M  V30 3373 C 317.59 -1.94677 0.189757 0
M  V30 3374 C 317.97 -1.65879 -1.30566 0
M  V30 3375 O 317.318 -0.979391 -2.06447 0
M  V30 3376 C 317.528 -3.45279 0.508304 0
M  V30 3377 C 318.876 -4.22209 0.449934 0
M  V30 3378 O 319.9 -3.53413 0.444677 0
M  V30 3379 O 318.759 -5.44788 0.432189 0
M  V30 3380 H 315.853 -0.826459 0.0299026 0
M  V30 3381 H 318.399 -1.49719 0.7989 0
M  V30 3382 H 317.171 -3.59619 1.54239 0
M  V30 3383 H 316.794 -3.97386 -0.130525 0
M  V30 3384 N 317.792 -0.46758 -1.50504 0
M  V30 3385 C 318.724 0.364655 -2.26281 0
M  V30 3386 C 319.737 0.960151 -1.31472 0
M  V30 3387 O 320.926 0.849153 -1.57008 0
M  V30 3388 C 318.026 1.52509 -3.02645 0
M  V30 3389 C 317.199 1.04302 -4.24782 0
M  V30 3390 C 316.258 2.07709 -4.8347 0
M  V30 3391 O 315.284 1.65913 -5.44483 0
M  V30 3392 N 316.486 3.40485 -4.70159 0
M  V30 3393 H 319.251 -0.28495 -2.98342 0
M  V30 3394 H 316.812 -0.298163 -1.59131 0
M  V30 3395 H 318.804 2.21371 -3.38787 0
M  V30 3396 H 317.374 2.07945 -2.33404 0
M  V30 3397 H 316.594 0.180393 -3.93787 0
M  V30 3398 H 317.882 0.698798 -5.03978 0
M  V30 3399 H 317.28 3.77155 -4.21629 0
M  V30 3400 H 315.837 4.05156 -5.1058 0
M  V30 3401 N 319.27 1.56325 -0.20005 0
M  V30 3402 C 320.547 1.89484 0.48529 0
M  V30 3403 C 320.927 1.1143 1.79294 0
M  V30 3404 O 320.275 0.216919 2.27468 0
M  V30 3405 C 320.485 3.41923 0.699243 0
M  V30 3406 C 321.833 4.12256 1.01638 0
M  V30 3407 O 322.857 3.47402 0.786792 0
M  V30 3408 O 321.716 5.26887 1.45095 0
M  V30 3409 H 318.81 0.787144 0.253639 0
M  V30 3410 H 321.356 1.67985 -0.240633 0
M  V30 3411 H 320.128 3.90658 -0.224008 0
M  V30 3412 H 319.751 3.69131 1.47744 0
M  V30 3413 N 320.748 -0.0735177 1.57428 0
M  V30 3414 C 321.698 -1.09442 2.00016 0
M  V30 3415 C 322.682 -1.34575 0.881947 0
M  V30 3416 O 323.874 -1.34905 1.14585 0
M  V30 3417 C 321.003 -2.40865 2.4462 0
M  V30 3418 C 320.089 -2.19014 3.63172 0
M  V30 3419 N 320.48 -1.67087 4.77405 0
M  V30 3420 C 318.778 -2.49494 3.69688 0
M  V30 3421 C 319.479 -1.6001 5.5926 0
M  V30 3422 N 318.455 -2.05999 5.03056 0
M  V30 3423 H 322.257 -0.686227 2.85776 0
M  V30 3424 H 319.771 -0.280617 1.59957 0
M  V30 3425 H 321.768 -3.14763 2.73368 0
M  V30 3426 H 320.428 -2.82403 1.60246 0
M  V30 3427 H 321.439 -1.35975 4.99731 0
M  V30 3428 H 318.116 -2.94409 2.96023 0
M  V30 3429 H 319.506 -1.2073 6.60964 0
M  V30 3430 N 322.226 -1.5378 -0.344866 0
M  V30 3431 C 323.454 -1.74899 -1.10534 0
M  V30 3432 C 323.869 -0.487534 -1.82397 0
M  V30 3433 O 323.226 0.540741 -1.74305 0
M  V30 3434 C 323.277 -2.92822 -2.11984 0
M  V30 3435 O 322.998 -4.14089 -1.43044 0
M  V30 3436 C 324.499 -3.25982 -3.00417 0
M  V30 3437 H 321.719 -0.584426 -0.329678 0
M  V30 3438 H 324.263 -2.006 -0.397474 0
M  V30 3439 H 322.418 -2.69457 -2.78338 0
M  V30 3440 H 322.832 -4.80272 -2.10805 0
M  V30 3441 H 324.306 -4.11848 -3.67539 0
M  V30 3442 H 324.783 -2.42228 -3.66363 0
M  V30 3443 H 325.389 -3.51349 -2.39654 0
M  V30 3444 N 323.704 0.605807 -1.45491 0
M  V30 3445 C 324.95 1.36481 -1.50813 0
M  V30 3446 C 325.305 1.91826 -0.148469 0
M  V30 3447 O 324.598 1.72211 0.839869 0
M  V30 3448 C 324.792 2.53012 -2.52428 0
M  V30 3449 C 324.621 2.09078 -3.98141 0
M  V30 3450 C 323.391 1.95167 -4.66088 0
M  V30 3451 C 325.589 1.66438 -4.86624 0
M  V30 3452 N 323.571 1.45062 -5.96515 0
M  V30 3453 C 324.942 1.27761 -6.06694 0
M  V30 3454 C 326.997 1.54046 -4.7347 0
M  V30 3455 C 325.7 0.779286 -7.15066 0
M  V30 3456 C 327.726 1.05618 -5.81892 0
M  V30 3457 C 327.088 0.67906 -7.01119 0
M  V30 3458 H 323.187 0.493267 -0.606805 0
M  V30 3459 H 325.771 0.692347 -1.81974 0
M  V30 3460 H 323.942 3.17851 -2.23215 0
M  V30 3461 H 325.674 3.19897 -2.47887 0
M  V30 3462 H 322.429 2.16407 -4.21266 0
M  V30 3463 H 322.853 1.22237 -6.65873 0
M  V30 3464 H 327.495 1.81827 -3.81705 0
M  V30 3465 H 325.213 0.489026 -8.06619 0
M  V30 3466 H 328.799 0.964529 -5.73749 0
M  V30 3467 H 327.679 0.310091 -7.83587 0
M  V30 3468 N 325.182 1.32811 0.848464 0
M  V30 3469 C 326.428 1.23907 1.60546 0
M  V30 3470 C 326.761 -0.197161 1.93197 0
M  V30 3471 O 326.036 -1.13596 1.5788 0
M  V30 3472 C 326.319 2.10489 2.92175 0
M  V30 3473 C 326.172 3.62522 2.66266 0
M  V30 3474 C 327.491 1.97075 3.93509 0
M  V30 3475 H 324.61 0.451459 0.58254 0
M  V30 3476 H 327.252 1.62818 0.979296 0
M  V30 3477 H 325.402 1.77434 3.45614 0
M  V30 3478 H 327.074 4.05821 2.19334 0
M  V30 3479 H 325.317 3.84879 2.00126 0
M  V30 3480 H 325.988 4.18437 3.6002 0
M  V30 3481 H 328.464 2.26045 3.49346 0
M  V30 3482 H 327.34 2.59923 4.83457 0
M  V30 3483 H 327.601 0.940186 4.31987 0
M  V30 3484 N 326.66 -1.06551 1.16123 0
M  V30 3485 C 327.89 -1.8274 0.963838 0
M  V30 3486 C 328.298 -1.82712 -0.491228 0
M  V30 3487 O 327.641 -1.24294 -1.35265 0
M  V30 3488 C 327.703 -3.3065 1.41106 0
M  V30 3489 C 327.367 -3.54384 2.88549 0
M  V30 3490 C 328.364 -3.4765 3.86569 0
M  V30 3491 C 326.049 -3.81789 3.26408 0
M  V30 3492 C 328.043 -3.67982 5.2045 0
M  V30 3493 C 325.73 -4.01772 4.60459 0
M  V30 3494 C 326.728 -3.94866 5.57288 0
M  V30 3495 O 326.416 -4.14306 6.88916 0
M  V30 3496 H 326.148 -0.583136 0.341948 0
M  V30 3497 H 328.702 -1.35351 1.54497 0
M  V30 3498 H 326.932 -3.78887 0.773394 0
M  V30 3499 H 328.621 -3.88324 1.1815 0
M  V30 3500 H 329.387 -3.2647 3.58667 0
M  V30 3501 H 325.266 -3.86276 2.51619 0
M  V30 3502 H 328.81 -3.62507 5.96015 0
M  V30 3503 H 324.707 -4.2244 4.88072 0
M  V30 3504 H 325.475 -4.31609 6.95454 0
M  V30 3505 N 328.138 -0.959301 -1.25041 0
M  V30 3506 C 329.378 -0.624343 -1.94631 0
M  V30 3507 C 329.742 0.82403 -1.73418 0
M  V30 3508 O 330.943 1.26881 -2.3697 0
M  V30 3509 C 329.214 -0.978805 -3.43736 0
M  V30 3510 S 330.773 -0.757127 -4.32219 0
M  V30 3511 H 327.591 -0.229327 -0.673001 0
M  V30 3512 H 330.193 -1.23447 -1.51595 0
M  V30 3513 H 328.897 -2.02997 -3.56679 0
M  V30 3514 H 328.428 -0.359117 -3.91757 0
M  V30 3515 H 330.443 0.369759 -4.9482 0
M  V30 3516 O 329.655 1.36296 -0.866345 0
M  V30 3517 H 330.346 1.88046 -0.464585 0
M  V30 END ATOM
M  V30 BEGIN BOND
M  V30 END BOND
M  V30 END CTAB
M  END
$$$$
