drugbank_target|Q96BI3 Gamma-secretase subunit APH-1A (DB05171)
 OpenBabel12092120313D

  0  0  0     0  0            999 V3000
M  V30 BEGIN CTAB
M  V30 COUNTS 4150 4205 0 0 0
M  V30 BEGIN ATOM
M  V30 1 H -0.908 1.98254 -0.117106 0
M  V30 2 N 0 1.576 0 0
M  V30 3 C 0.933 2.03868 1.02534 0
M  V30 4 C 1.911 0.928543 1.3348 0
M  V30 5 O 3.095 1.19667 1.45644 0
M  V30 6 C 0.222 2.43627 2.35294 0
M  V30 7 C -0.732 3.65373 2.2001 0
M  V30 8 S 0.101 5.13292 1.52614 0
M  V30 9 C 1.257 5.56322 2.86805 0
M  V30 10 H 1.49 2.90518 0.631377 0
M  V30 11 H -0.977 1.52953 0.210867 0
M  V30 12 H 0.981 2.67203 3.11629 0
M  V30 13 H -0.358 1.57376 2.7183 0
M  V30 14 H -1.165 3.90944 3.18086 0
M  V30 15 H -1.563 3.418 1.51819 0
M  V30 16 H 0.729 5.58782 3.83104 0
M  V30 17 H 1.672 6.56266 2.65933 0
M  V30 18 H 2.08 4.83886 2.90714 0
M  V30 19 N 1.4781 -0.272755 1.55222 0
M  V30 20 C 2.7261 -1.00234 1.75492 0
M  V30 21 C 3.0471 -1.8681 0.5592 0
M  V30 22 O 2.3171 -1.91215 -0.425882 0
M  V30 23 H 0.8971 -0.373076 0.647166 0
M  V30 24 H 3.5591 -0.296926 1.92625 0
M  V30 25 H 2.6551 -1.63913 2.65592 0
M  V30 26 N 2.9562 -1.48159 -0.537278 0
M  V30 27 C 3.9192 -1.61665 -1.62472 0
M  V30 28 C 4.9192 -0.490395 -1.5314 0
M  V30 29 O 6.1092 -0.755998 -1.5694 0
M  V30 30 C 3.2412 -1.57997 -3.02076 0
M  V30 31 H 4.4342 -2.58621 -1.51839 0
M  V30 32 H 1.9872 -1.36647 -0.758771 0
M  V30 33 H 2.7222 -0.624913 -3.18222 0
M  V30 34 H 2.5072 -2.39755 -3.10258 0
M  V30 35 H 3.9972 -1.70627 -3.81151 0
M  V30 36 N 4.4343 0.785586 -1.36625 0
M  V30 37 C 5.3973 1.87999 -1.31107 0
M  V30 38 C 6.3973 1.59316 -0.217959 0
M  V30 39 O 7.5873 1.67656 -0.472977 0
M  V30 40 C 4.7193 3.24861 -1.03334 0
M  V30 41 H 5.9123 1.94307 -2.2844 0
M  V30 42 H 3.4653 0.983813 -1.21453 0
M  V30 43 H 4.2003 3.24235 -0.0647432 0
M  V30 44 H 3.9853 3.4707 -1.82441 0
M  V30 45 H 5.4753 4.04929 -1.02088 0
M  V30 46 N 5.9124 1.20967 1.01018 0
M  V30 47 C 7.1584 1.02526 1.74975 0
M  V30 48 C 7.4914 -0.4408 1.89131 0
M  V30 49 O 6.7664 -1.32718 1.42184 0
M  V30 50 C 7.0494 1.71699 3.1653 0
M  V30 51 C 6.9024 3.25791 3.10129 0
M  V30 52 C 8.2214 1.45531 4.15342 0
M  V30 53 H 5.3404 0.373863 0.635134 0
M  V30 54 H 7.9824 1.49071 1.17805 0
M  V30 55 H 6.1324 1.32128 3.65341 0
M  V30 56 H 7.8044 3.74697 2.69072 0
M  V30 57 H 6.0474 3.56363 2.47362 0
M  V30 58 H 6.7184 3.69353 4.10222 0
M  V30 59 H 9.1944 1.79872 3.75213 0
M  V30 60 H 8.0704 1.96453 5.1254 0
M  V30 61 H 8.3314 0.384237 4.40427 0
M  V30 62 N 7.3905 -1.2043 1.01659 0
M  V30 63 C 8.6375 -1.89797 0.705917 0
M  V30 64 C 8.9655 -1.78848 -0.764439 0
M  V30 65 O 8.2205 -1.16694 -1.57102 0
M  V30 66 C 8.5195 -3.40464 1.08714 0
M  V30 67 C 8.1855 -3.71614 2.5537 0
M  V30 68 C 6.8475 -3.79826 2.95441 0
M  V30 69 C 9.1995 -3.85915 3.50313 0
M  V30 70 C 6.5275 -3.99797 4.29394 0
M  V30 71 C 8.8795 -4.07396 4.83954 0
M  V30 72 C 7.5435 -4.13837 5.23732 0
M  V30 73 H 6.8135 -0.694518 0.258313 0
M  V30 74 H 9.4605 -1.42691 1.27717 0
M  V30 75 H 7.7655 -3.89385 0.434309 0
M  V30 76 H 9.4625 -3.92433 0.824461 0
M  V30 77 H 6.0525 -3.65822 2.23321 0
M  V30 78 H 10.2365 -3.78926 3.20513 0
M  V30 79 H 5.4925 -4.03018 4.59768 0
M  V30 80 H 9.6665 -4.17404 5.57447 0
M  V30 81 H 7.2935 -4.29064 6.27541 0
M  V30 82 N 8.8686 -0.792821 -1.36206 0
M  V30 83 C 10.1156 -0.366786 -1.99151 0
M  V30 84 C 10.4436 1.06243 -1.62919 0
M  V30 85 O 9.6986 1.74927 -0.877442 0
M  V30 86 C 9.9976 -0.481501 -3.54142 0
M  V30 87 C 9.6636 -1.87202 -4.10203 0
M  V30 88 C 8.3256 -2.25248 -4.25226 0
M  V30 89 C 10.6776 -2.78237 -4.40719 0
M  V30 90 C 8.0056 -3.53723 -4.68078 0
M  V30 91 C 10.3576 -4.06144 -4.85005 0
M  V30 92 C 9.0216 -4.44207 -4.98234 0
M  V30 93 H 8.2916 -0.134217 -0.728743 0
M  V30 94 H 10.9386 -1.01094 -1.62641 0
M  V30 95 H 9.2436 0.246146 -3.91026 0
M  V30 96 H 10.9406 -0.132844 -4.0078 0
M  V30 97 H 7.5306 -1.56639 -3.98951 0
M  V30 98 H 11.7146 -2.50097 -4.28679 0
M  V30 99 H 6.9706 -3.8308 -4.76508 0
M  V30 100 H 11.1446 -4.76796 -5.07581 0
M  V30 101 H 8.7716 -5.43814 -5.31197 0
M  V30 102 N 10.3467 1.47872 -0.545128 0
M  V30 103 C 11.5947 2.02093 -0.016553 0
M  V30 104 C 11.9157 1.42305 1.3332 0
M  V30 105 O 11.1857 0.593853 1.86682 0
M  V30 106 H 9.7657 0.746993 -0.00313038 0
M  V30 107 H 12.4277 1.81414 -0.712397 0
M  V30 108 H 11.5237 3.11996 0.0805422 0
M  V30 109 N 11.8248 0.280983 1.55075 0
M  V30 110 C 13.0648 -0.335234 2.01632 0
M  V30 111 C 13.4288 -1.5261 1.16508 0
M  V30 112 O 14.6298 -2.21235 1.52672 0
M  V30 113 C 12.9008 -0.702172 3.50434 0
M  V30 114 S 14.4598 -1.30409 4.18974 0
M  V30 115 H 11.2778 -0.103967 0.703358 0
M  V30 116 H 13.8798 0.404187 1.91276 0
M  V30 117 H 12.5838 0.17333 4.10034 0
M  V30 118 H 12.1148 -1.4729 3.64786 0
M  V30 119 H 14.1298 -2.59253 4.23087 0
M  V30 120 N 13.3029 -1.57598 0.00835791 0
M  V30 121 C 14.5309 -1.95214 -0.68549 0
M  V30 122 C 14.9459 -0.883706 -1.66841 0
M  V30 123 O 14.3029 0.136565 -1.81988 0
M  V30 124 C 14.3539 -3.32865 -1.41007 0
M  V30 125 O 14.0749 -4.35609 -0.466552 0
M  V30 126 C 15.5759 -3.84991 -2.19765 0
M  V30 127 H 12.7959 -0.643422 -0.190392 0
M  V30 128 H 15.3399 -2.04406 0.0619607 0
M  V30 129 H 13.4949 -3.24956 -2.10908 0
M  V30 130 H 13.9089 -5.15288 -0.978699 0
M  V30 131 H 15.3829 -4.8371 -2.65948 0
M  V30 132 H 15.8599 -3.18137 -3.02796 0
M  V30 133 H 16.4659 -3.96103 -1.54864 0
M  V30 134 N 14.781 0.264519 -1.55364 0
M  V30 135 C 16.028 0.994986 -1.7637 0
M  V30 136 C 16.356 1.85976 -0.5695 0
M  V30 137 O 15.611 1.90509 0.44776 0
M  V30 138 C 15.91 1.9004 -3.02687 0
M  V30 139 C 15.576 1.19243 -4.34847 0
M  V30 140 C 14.238 0.996709 -4.70764 0
M  V30 141 C 16.59 0.689296 -5.16622 0
M  V30 142 C 13.918 0.285261 -5.86006 0
M  V30 143 C 16.27 -0.00860079 -6.32599 0
M  V30 144 C 14.934 -0.215963 -6.67151 0
M  V30 145 H 14.204 0.364091 -0.645383 0
M  V30 146 H 16.851 0.266543 -1.89636 0
M  V30 147 H 15.156 2.69533 -2.84357 0
M  V30 148 H 16.853 2.46695 -3.16137 0
M  V30 149 H 13.443 1.3549 -4.06621 0
M  V30 150 H 17.627 0.828108 -4.89342 0
M  V30 151 H 12.883 0.113961 -6.11294 0
M  V30 152 H 17.057 -0.406186 -6.95214 0
M  V30 153 H 14.684 -0.769217 -7.56298 0
M  V30 154 N 16.2591 1.48442 0.529413 0
M  V30 155 C 17.5051 1.5672 1.28711 0
M  V30 156 C 17.8381 0.2406 1.92704 0
M  V30 157 O 17.1131 -0.753454 1.79313 0
M  V30 158 C 17.3961 2.70587 2.37603 0
M  V30 159 C 17.2491 4.12953 1.78297 0
M  V30 160 C 18.5681 2.80212 3.39366 0
M  V30 161 H 15.6871 0.570474 0.466613 0
M  V30 162 H 18.3291 1.80617 0.589706 0
M  V30 163 H 16.4791 2.50342 2.97088 0
M  V30 164 H 18.1511 4.44639 1.22858 0
M  V30 165 H 16.3941 4.19927 1.0883 0
M  V30 166 H 17.0651 4.88448 2.57144 0
M  V30 167 H 19.5411 2.98553 2.89836 0
M  V30 168 H 18.4171 3.61611 4.12951 0
M  V30 169 H 18.6781 1.88393 3.99951 0
M  V30 170 N 17.7372 -0.778329 1.37039 0
M  V30 171 C 18.7002 -1.87301 1.32102 0
M  V30 172 C 19.7002 -1.59198 0.226405 0
M  V30 173 O 20.8902 -1.67403 0.481861 0
M  V30 174 C 18.0222 -3.24309 1.05055 0
M  V30 175 H 19.2152 -1.93093 2.29467 0
M  V30 176 H 16.7682 -0.977358 1.21973 0
M  V30 177 H 17.5032 -3.24196 0.0819373 0
M  V30 178 H 17.2882 -3.46098 1.84279 0
M  V30 179 H 18.7782 -4.04382 1.04234 0
M  V30 180 N 19.2153 -1.21501 -1.00376 0
M  V30 181 C 20.4623 -1.03299 -1.74171 0
M  V30 182 C 20.7903 0.433326 -1.89612 0
M  V30 183 O 20.0453 1.33779 -1.42834 0
M  V30 184 C 20.3443 -1.67673 -3.15627 0
M  V30 185 C 20.0103 -3.17533 -3.2013 0
M  V30 186 C 18.6723 -3.58427 -3.21067 0
M  V30 187 C 21.0243 -4.13504 -3.17275 0
M  V30 188 C 18.3523 -4.93794 -3.16835 0
M  V30 189 C 20.7043 -5.48834 -3.14585 0
M  V30 190 C 19.3683 -5.89123 -3.13831 0
M  V30 191 H 18.6383 -0.377999 -0.637336 0
M  V30 192 H 21.2853 -1.51111 -1.17634 0
M  V30 193 H 19.5903 -1.12158 -3.75404 0
M  V30 194 H 21.2873 -1.51091 -3.71446 0
M  V30 195 H 17.8773 -2.84965 -3.20145 0
M  V30 196 H 22.0613 -3.82936 -3.15711 0
M  V30 197 H 17.3173 -5.24255 -3.1459 0
M  V30 198 H 21.4913 -6.22934 -3.1133 0
M  V30 199 H 19.1183 -6.93984 -3.10307 0
M  V30 200 N 20.6934 1.19889 -1.02296 0
M  V30 201 C 21.9414 1.89046 -0.714558 0
M  V30 202 C 22.2624 1.79636 0.758681 0
M  V30 203 O 21.5324 1.20292 1.54618 0
M  V30 204 H 20.1124 0.699802 -0.261317 0
M  V30 205 H 22.7744 1.45574 -1.29592 0
M  V30 206 H 21.8704 2.95524 -1.0036 0
M  V30 207 N 22.1715 0.800033 1.35784 0
M  V30 208 C 23.5825 0.439142 1.81462 0
M  V30 209 C 23.9335 -1.03813 1.66485 0
M  V30 210 O 23.0585 -1.80626 1.19177 0
M  V30 211 C 23.6535 0.790314 3.29453 0
M  V30 212 C 22.2125 0.482111 3.733 0
M  V30 213 C 21.3595 1.01938 2.57883 0
M  V30 214 H 24.3105 0.992254 1.23855 0
M  V30 215 H 24.3315 0.0853677 3.80404 0
M  V30 216 H 23.8435 1.86554 3.40322 0
M  V30 217 H 21.9445 -0.584652 3.67984 0
M  V30 218 H 22.0575 1.01015 4.6833 0
M  V30 219 H 20.4215 0.442043 2.50835 0
M  V30 220 H 21.2045 2.10059 2.71533 0
M  V30 221 N 23.6496 -1.47581 0.552962 0
M  V30 222 C 24.6126 -2.28439 -0.186605 0
M  V30 223 C 25.6126 -1.36706 -0.84665 0
M  V30 224 O 26.8026 -1.59378 -0.703164 0
M  V30 225 C 23.9346 -3.16264 -1.2724 0
M  V30 226 H 25.1276 -2.95294 0.523609 0
M  V30 227 H 22.6806 -1.532 0.309745 0
M  V30 228 H 23.4156 -2.54091 -2.01514 0
M  V30 229 H 23.2006 -3.83769 -0.803968 0
M  V30 230 H 24.6906 -3.77198 -1.79196 0
M  V30 231 N 25.1277 -0.289203 -1.54924 0
M  V30 232 C 26.3747 0.323519 -1.99899 0
M  V30 233 C 26.7027 1.54797 -1.17762 0
M  V30 234 O 25.9577 1.94237 -0.238835 0
M  V30 235 C 26.2567 0.736119 -3.49737 0
M  V30 236 C 25.9227 -0.385276 -4.49251 0
M  V30 237 C 24.5847 -0.693156 -4.76181 0
M  V30 238 C 26.9367 -1.14021 -5.08575 0
M  V30 239 C 24.2647 -1.7593 -5.59701 0
M  V30 240 C 26.6167 -2.19619 -5.93254 0
M  V30 241 C 25.2807 -2.51026 -6.185 0
M  V30 242 H 24.5507 0.118384 -0.731482 0
M  V30 243 H 27.1977 -0.405847 -1.8715 0
M  V30 244 H 25.5027 1.54539 -3.60035 0
M  V30 245 H 27.1997 1.22118 -3.81953 0
M  V30 246 H 23.7897 -0.135202 -4.28387 0
M  V30 247 H 27.9737 -0.915611 -4.87781 0
M  V30 248 H 23.2297 -2.0075 -5.77503 0
M  V30 249 H 27.4037 -2.78581 -6.38252 0
M  V30 250 H 25.0307 -3.33772 -6.83008 0
M  V30 251 N 26.6058 1.57591 -0.0167156 0
M  V30 252 C 27.5688 2.08393 0.954204 0
M  V30 253 C 28.5688 0.996531 1.26198 0
M  V30 254 O 29.7588 1.25858 1.20438 0
M  V30 255 C 26.8908 2.5394 2.27436 0
M  V30 256 H 28.0838 2.95455 0.514451 0
M  V30 257 H 25.6368 1.54582 0.231089 0
M  V30 258 H 26.3718 1.70171 2.76066 0
M  V30 259 H 26.1568 3.33371 2.06412 0
M  V30 260 H 27.6468 2.93512 2.97053 0
M  V30 261 N 28.0839 -0.256276 1.55502 0
M  V30 262 C 29.0139 -1.32102 1.92539 0
M  V30 263 C 29.9949 -1.50684 0.789194 0
M  V30 264 O 31.1799 -1.63449 1.04872 0
M  V30 265 C 28.3099 -2.67752 2.21192 0
M  V30 266 C 27.2639 -2.63878 3.36975 0
M  V30 267 C 26.5899 -4.03236 3.51147 0
M  V30 268 C 27.8899 -2.21682 4.72921 0
M  V30 269 H 29.5839 -1.01351 2.81724 0
M  V30 270 H 27.1299 -0.486105 1.35547 0
M  V30 271 H 29.0829 -3.42365 2.45691 0
M  V30 272 H 27.8069 -3.0012 1.28824 0
M  V30 273 H 26.4659 -1.91722 3.12471 0
M  V30 274 H 26.1139 -4.32854 2.56216 0
M  V30 275 H 25.8139 -4.01535 4.29003 0
M  V30 276 H 27.3379 -4.79563 3.77957 0
M  V30 277 H 28.7519 -2.86023 4.96854 0
M  V30 278 H 27.1489 -2.3111 5.53812 0
M  V30 279 H 28.2189 -1.16833 4.70615 0
M  V30 280 N 29.562 -1.4872 -0.521534 0
M  V30 281 C 30.809 -1.57168 -1.27689 0
M  V30 282 C 31.137 -0.249275 -1.92896 0
M  V30 283 O 30.392 0.761162 -1.80291 0
M  V30 284 C 30.691 -2.66497 -2.38148 0
M  V30 285 C 30.357 -4.08664 -1.90538 0
M  V30 286 C 29.019 -4.47357 -1.77271 0
M  V30 287 C 31.371 -4.97724 -1.54663 0
M  V30 288 C 28.699 -5.72905 -1.26478 0
M  V30 289 C 31.051 -6.2377 -1.05329 0
M  V30 290 C 29.715 -6.61311 -0.906861 0
M  V30 291 H 28.985 -0.575117 -0.467249 0
M  V30 292 H 31.632 -1.82472 -0.581051 0
M  V30 293 H 29.937 -2.35085 -3.13437 0
M  V30 294 H 31.634 -2.70246 -2.96257 0
M  V30 295 H 28.224 -3.78111 -2.01816 0
M  V30 296 H 32.408 -4.68501 -1.63768 0
M  V30 297 H 27.664 -6.00709 -1.13835 0
M  V30 298 H 31.838 -6.9217 -0.76644 0
M  V30 299 H 29.465 -7.5848 -0.511083 0
M  V30 300 N 31.0401 0.771051 -1.3745 0
M  V30 301 C 31.9701 1.89827 -1.3597 0
M  V30 302 C 32.9511 1.68562 -0.228216 0
M  V30 303 O 34.1361 1.8941 -0.428675 0
M  V30 304 C 31.2661 3.2712 -1.16662 0
M  V30 305 C 30.2201 3.6295 -2.2683 0
M  V30 306 C 29.5461 4.98791 -1.92644 0
M  V30 307 C 30.8461 3.69627 -3.69017 0
M  V30 308 H 32.5401 1.91323 -2.30295 0
M  V30 309 H 30.0861 0.919082 -1.10855 0
M  V30 310 H 32.0391 4.05615 -1.14256 0
M  V30 311 H 30.7631 3.26059 -0.187926 0
M  V30 312 H 29.4221 2.86763 -2.28392 0
M  V30 313 H 29.0701 4.94271 -0.933021 0
M  V30 314 H 28.7701 5.23733 -2.66416 0
M  V30 315 H 30.2941 5.79685 -1.91826 0
M  V30 316 H 31.7081 4.38273 -3.69581 0
M  V30 317 H 30.1051 4.06067 -4.41848 0
M  V30 318 H 31.1751 2.70273 -4.02592 0
M  V30 319 N 32.5182 1.22032 0.997298 0
M  V30 320 C 33.7672 1.03637 1.73038 0
M  V30 321 C 34.0802 -0.429475 1.90827 0
M  V30 322 O 35.2862 -0.732995 2.61418 0
M  V30 323 C 33.7422 1.80582 3.11317 0
M  V30 324 C 33.3502 3.31387 3.01474 0
M  V30 325 C 35.0942 1.70621 3.88701 0
M  V30 326 C 33.0012 4.00791 4.3488 0
M  V30 327 H 31.9312 0.384179 0.648785 0
M  V30 328 H 34.5822 1.4584 1.11368 0
M  V30 329 H 32.9642 1.31175 3.73643 0
M  V30 330 H 34.1382 3.88155 2.4834 0
M  V30 331 H 32.4532 3.41976 2.37575 0
M  V30 332 H 35.0502 2.19799 4.87434 0
M  V30 333 H 35.3932 0.665823 4.10941 0
M  V30 334 H 35.9262 2.17547 3.33044 0
M  V30 335 H 32.6652 5.05064 4.1784 0
M  V30 336 H 32.1852 3.48811 4.87945 0
M  V30 337 H 33.8642 4.06139 5.03647 0
M  V30 338 N 33.9963 -1.19345 1.0293 0
M  V30 339 C 35.2243 -1.92997 0.745644 0
M  V30 340 C 35.6393 -1.75519 -0.695589 0
M  V30 341 O 34.9963 -1.07737 -1.47306 0
M  V30 342 C 35.0473 -3.44741 1.08792 0
M  V30 343 O 34.7683 -3.61658 2.47256 0
M  V30 344 C 36.2693 -4.35515 0.827129 0
M  V30 345 H 33.4893 -0.613042 0.272801 0
M  V30 346 H 36.0333 -1.51473 1.3739 0
M  V30 347 H 34.1883 -3.84097 0.504832 0
M  V30 348 H 34.6023 -4.55514 2.60015 0
M  V30 349 H 36.0763 -5.40589 1.11658 0
M  V30 350 H 36.5533 -4.38552 -0.238436 0
M  V30 351 H 37.1593 -4.01841 1.39297 0
M  V30 352 N 35.4744 -0.807222 -1.35358 0
M  V30 353 C 36.7204 -0.388463 -1.99045 0
M  V30 354 C 37.0534 1.04184 -1.63888 0
M  V30 355 O 36.3284 1.72292 -0.902535 0
M  V30 356 C 36.6114 -0.572783 -3.55515 0
M  V30 357 C 36.4644 -2.04807 -4.00468 0
M  V30 358 C 37.7834 0.00114064 -4.401 0
M  V30 359 H 34.9024 -0.142619 -0.723069 0
M  V30 360 H 37.5444 -1.01687 -1.60498 0
M  V30 361 H 35.6944 -0.0378425 -3.88482 0
M  V30 362 H 37.3664 -2.64544 -3.77908 0
M  V30 363 H 35.6094 -2.54427 -3.51353 0
M  V30 364 H 36.2804 -2.12792 -5.09337 0
M  V30 365 H 38.7564 -0.455716 -4.13597 0
M  V30 366 H 37.6324 -0.157737 -5.48673 0
M  V30 367 H 37.8934 1.09488 -4.28328 0
M  V30 368 N 36.9525 1.47285 -0.560781 0
M  V30 369 C 37.9155 2.28535 0.174488 0
M  V30 370 C 38.9155 1.37153 0.839388 0
M  V30 371 O 40.1055 1.59748 0.694702 0
M  V30 372 C 37.2375 3.16934 1.25561 0
M  V30 373 H 38.4305 2.95012 -0.539262 0
M  V30 374 H 35.9835 1.53034 -0.317865 0
M  V30 375 H 36.7185 2.55157 2.00164 0
M  V30 376 H 36.5035 3.8419 0.783604 0
M  V30 377 H 37.9935 3.78143 1.77193 0
M  V30 378 N 38.4306 0.297415 1.54768 0
M  V30 379 C 39.6786 -0.312295 1.99673 0
M  V30 380 C 39.9996 -1.54686 1.18732 0
M  V30 381 O 39.2696 -1.93854 0.282382 0
M  V30 382 H 37.8496 -0.118381 0.73756 0
M  V30 383 H 40.5116 0.407915 1.90583 0
M  V30 384 H 39.6076 -0.586813 3.06534 0
M  V30 385 N 39.9087 -1.5758 0.0250728 0
M  V30 386 C 41.1857 -1.82917 -0.692873 0
M  V30 387 C 41.5657 -0.908137 -1.90568 0
M  V30 388 O 40.9137 0.0372298 -2.2847 0
M  V30 389 C 41.1237 -3.32034 -1.07492 0
M  V30 390 C 42.4717 -3.98406 -1.46826 0
M  V30 391 O 43.4957 -3.36505 -1.16801 0
M  V30 392 O 42.3547 -5.07497 -2.02754 0
M  V30 393 H 39.4487 -0.754079 -0.33955 0
M  V30 394 H 41.9947 -1.69619 0.0524456 0
M  V30 395 H 40.7667 -3.90728 -0.211552 0
M  V30 396 H 40.3897 -3.50424 -1.87854 0
M  V30 397 N 41.3868 0.248026 -1.55636 0
M  V30 398 C 42.7978 0.817177 -1.67866 0
M  V30 399 C 43.1488 1.86069 -0.622322 0
M  V30 400 O 42.2738 2.15157 0.231618 0
M  V30 401 C 42.8688 1.489 -3.04326 0
M  V30 402 C 41.4278 2.00587 -3.185 0
M  V30 403 C 40.5748 0.856573 -2.63739 0
M  V30 404 H 43.5258 0.0238579 -1.58682 0
M  V30 405 H 43.5468 2.35698 -2.98708 0
M  V30 406 H 43.0588 0.729279 -3.81186 0
M  V30 407 H 41.1598 2.79443 -2.4646 0
M  V30 408 H 41.2728 2.20402 -4.25393 0
M  V30 409 H 39.6368 1.25678 -2.21534 0
M  V30 410 H 40.4198 0.109953 -3.43124 0
M  V30 411 N 42.8649 1.48995 0.513639 0
M  V30 412 C 43.7949 1.67636 1.62544 0
M  V30 413 C 44.7759 0.525087 1.61793 0
M  V30 414 O 45.9609 0.759502 1.78732 0
M  V30 415 C 43.0909 1.73114 3.01079 0
M  V30 416 C 42.0449 2.87905 3.16693 0
M  V30 417 C 41.3709 2.78486 4.56453 0
M  V30 418 C 42.6709 4.29005 2.97913 0
M  V30 419 H 44.3649 2.60716 1.47198 0
M  V30 420 H 41.9109 1.25465 0.706714 0
M  V30 421 H 43.8639 1.84742 3.78746 0
M  V30 422 H 42.5879 0.766241 3.17484 0
M  V30 423 H 41.2469 2.75859 2.41448 0
M  V30 424 H 40.8949 1.7993 4.69717 0
M  V30 425 H 40.5949 3.55523 4.67843 0
M  V30 426 H 42.1189 2.92104 5.36197 0
M  V30 427 H 43.5329 4.41798 3.65359 0
M  V30 428 H 41.9299 5.07166 3.20785 0
M  V30 429 H 42.9999 4.44329 1.94165 0
M  V30 430 N 44.343 -0.763751 1.37857 0
M  V30 431 C 45.759 -1.06542 1.18832 0
M  V30 432 C 45.959 -2.01478 0.0299722 0
M  V30 433 O 45.015 -2.4458 -0.627447 0
M  V30 434 C 46.328 -1.65525 2.51042 0
M  V30 435 C 47.876 -1.77745 2.57635 0
M  V30 436 C 48.351 -2.4014 3.89996 0
M  V30 437 N 49.842 -2.47582 3.91481 0
M  V30 438 C 50.577 -2.96732 4.9065 0
M  V30 439 N 50.073 -3.45993 6.00217 0
M  V30 440 N 51.866 -2.95679 4.78048 0
M  V30 441 H 44.017 -0.133556 2.1198 0
M  V30 442 H 46.28 -0.121879 0.940133 0
M  V30 443 H 45.986 -1.03236 3.36207 0
M  V30 444 H 45.86 -2.64719 2.68707 0
M  V30 445 H 48.247 -2.39164 1.72872 0
M  V30 446 H 48.328 -0.772836 2.43846 0
M  V30 447 H 47.972 -1.79358 4.75177 0
M  V30 448 H 47.902 -3.41223 4.01092 0
M  V30 449 H 50.393 -2.1273 3.12337 0
M  V30 450 H 50.706 -3.81922 6.7183 0
M  V30 451 H 49.051 -3.44077 6.03851 0
M  V30 452 H 52.242 -2.56499 3.91568 0
M  V30 453 H 52.415 -3.33672 5.55488 0
M  V30 454 N 45.8211 -1.22559 -0.990812 0
M  V30 455 C 47.0671 -1.05297 -1.73322 0
M  V30 456 C 47.4001 0.410655 -1.89808 0
M  V30 457 O 46.6751 1.30439 -1.44277 0
M  V30 458 C 46.9581 -1.76713 -3.13759 0
M  V30 459 C 46.8111 -3.30684 -3.04907 0
M  V30 460 C 48.1301 -1.52121 -4.12974 0
M  V30 461 H 45.2491 -0.38392 -0.629106 0
M  V30 462 H 47.8911 -1.50926 -1.15418 0
M  V30 463 H 46.0411 -1.37924 -3.63193 0
M  V30 464 H 47.7131 -3.7893 -2.63077 0
M  V30 465 H 45.9561 -3.60253 -2.41661 0
M  V30 466 H 46.6271 -3.75833 -4.04294 0
M  V30 467 H 49.1031 -1.85819 -3.72304 0
M  V30 468 H 47.9791 -2.04582 -5.0935 0
M  V30 469 H 48.2401 -0.454257 -4.3976 0
M  V30 470 N 47.2992 1.18797 -1.03562 0
M  V30 471 C 48.5482 1.87978 -0.731235 0
M  V30 472 C 48.8612 1.80911 0.743671 0
M  V30 473 O 50.0672 2.45407 1.16137 0
M  V30 474 C 48.5232 3.3721 -1.25768 0
M  V30 475 C 48.1312 3.52818 -2.76085 0
M  V30 476 C 49.8752 4.11825 -1.0296 0
M  V30 477 C 47.7822 4.9598 -3.22114 0
M  V30 478 H 46.7122 0.704063 -0.269835 0
M  V30 479 H 49.3632 1.34266 -1.25079 0
M  V30 480 H 47.7452 3.90359 -0.666011 0
M  V30 481 H 48.9192 3.09965 -3.40966 0
M  V30 482 H 47.2342 2.91602 -2.97249 0
M  V30 483 H 49.8312 5.17411 -1.34869 0
M  V30 484 H 50.1742 4.16287 0.0333546 0
M  V30 485 H 50.7072 3.64833 -1.58562 0
M  V30 486 H 47.4462 4.96684 -4.27768 0
M  V30 487 H 46.9662 5.39569 -2.61965 0
M  V30 488 H 48.6452 5.6467 -3.15844 0
M  V30 489 N 48.7773 0.814389 1.34928 0
M  V30 490 C 50.0263 0.394871 1.97797 0
M  V30 491 C 50.3393 -1.04555 1.65311 0
M  V30 492 O 51.5453 -1.56856 2.21604 0
M  V30 493 C 50.0013 0.655103 3.53888 0
M  V30 494 C 49.6093 2.10858 3.95276 0
M  V30 495 C 51.3533 0.301329 4.23429 0
M  V30 496 C 49.2603 2.31415 5.44244 0
M  V30 497 H 48.1903 0.143913 0.740139 0
M  V30 498 H 50.8413 0.999544 1.53888 0
M  V30 499 H 49.2233 -0.0196253 3.95995 0
M  V30 500 H 50.3973 2.82176 3.64298 0
M  V30 501 H 48.7123 2.42297 3.38646 0
M  V30 502 H 51.3093 0.432869 5.32945 0
M  V30 503 H 51.6523 -0.75331 4.09428 0
M  V30 504 H 52.1853 0.930288 3.86769 0
M  V30 505 H 48.9243 3.35353 5.63222 0
M  V30 506 H 48.4443 1.6463 5.76764 0
M  V30 507 H 50.1233 2.13352 6.10811 0
M  V30 508 N 50.2554 -1.46986 0.568584 0
M  V30 509 C 51.1854 -2.32946 -0.160753 0
M  V30 510 C 52.1664 -1.44487 -0.897631 0
M  V30 511 O 53.3514 -1.73327 -0.875867 0
M  V30 512 C 50.4814 -3.26494 -1.18403 0
M  V30 513 C 49.4354 -4.24282 -0.562895 0
M  V30 514 C 48.7614 -5.07236 -1.69163 0
M  V30 515 C 50.0614 -5.19989 0.490761 0
M  V30 516 H 51.7554 -2.94175 0.556916 0
M  V30 517 H 49.3014 -1.4146 0.26927 0
M  V30 518 H 51.2544 -3.85477 -1.70251 0
M  V30 519 H 49.9784 -2.63343 -1.93179 0
M  V30 520 H 48.6374 -3.66541 -0.0656164 0
M  V30 521 H 48.2854 -4.4048 -2.42871 0
M  V30 522 H 47.9854 -5.7345 -1.28174 0
M  V30 523 H 49.5094 -5.6908 -2.21314 0
M  V30 524 H 50.9234 -5.73271 0.0579047 0
M  V30 525 H 49.3204 -5.94469 0.820165 0
M  V30 526 H 50.3904 -4.64777 1.3824 0
M  V30 527 N 51.7335 -0.305618 -1.54608 0
M  V30 528 C 52.9795 0.302746 -2.00528 0
M  V30 529 C 53.3125 1.53184 -1.19367 0
M  V30 530 O 52.5875 1.92598 -0.271321 0
M  V30 531 C 52.8705 0.654756 -3.54097 0
M  V30 532 C 52.7235 -0.583793 -4.45995 0
M  V30 533 C 54.0425 1.47947 -4.14487 0
M  V30 534 H 51.1615 0.108564 -0.72896 0
M  V30 535 H 53.8035 -0.418634 -1.85331 0
M  V30 536 H 51.9535 1.26935 -3.67178 0
M  V30 537 H 53.6255 -1.22224 -4.44814 0
M  V30 538 H 51.8685 -1.21615 -4.16404 0
M  V30 539 H 52.5395 -0.293287 -5.5122 0
M  V30 540 H 55.0155 0.96013 -4.04871 0
M  V30 541 H 53.8915 1.69454 -5.22088 0
M  V30 542 H 54.1525 2.47011 -3.66658 0
M  V30 543 N 53.2116 1.57565 -0.0334293 0
M  V30 544 C 54.1746 2.09393 0.932048 0
M  V30 545 C 55.1746 1.00986 1.25134 0
M  V30 546 O 56.3646 1.27129 1.19096 0
M  V30 547 C 53.4966 2.56338 2.2473 0
M  V30 548 H 54.6896 2.95984 0.483085 0
M  V30 549 H 52.2426 1.54819 0.21468 0
M  V30 550 H 52.9776 1.7309 2.74245 0
M  V30 551 H 52.7626 3.35542 2.02865 0
M  V30 552 H 54.2526 2.96646 2.93923 0
M  V30 553 N 54.6897 -0.239769 1.55765 0
M  V30 554 C 55.9377 -0.964892 1.77579 0
M  V30 555 C 56.2587 -1.85582 0.598699 0
M  V30 556 O 55.5287 -1.92075 -0.385226 0
M  V30 557 H 54.1087 -0.359265 0.654933 0
M  V30 558 H 56.7707 -0.256001 1.93211 0
M  V30 559 H 55.8667 -1.58243 2.69009 0
M  V30 560 N 56.1678 -1.49265 -0.50573 0
M  V30 561 C 57.1308 -1.65075 -1.59006 0
M  V30 562 C 58.1308 -0.522768 -1.52065 0
M  V30 563 O 59.3208 -0.789117 -1.55302 0
M  V30 564 C 56.4528 -1.64369 -2.98656 0
M  V30 565 H 57.6458 -2.61784 -1.46319 0
M  V30 566 H 55.1988 -1.38226 -0.729616 0
M  V30 567 H 55.9338 -0.692272 -3.16825 0
M  V30 568 H 55.7188 -2.46282 -3.05103 0
M  V30 569 H 57.2088 -1.78674 -3.77446 0
M  V30 570 N 57.6459 0.756429 -1.3826 0
M  V30 571 C 58.8929 1.51547 -1.34312 0
M  V30 572 C 59.2209 1.94382 0.0677144 0
M  V30 573 O 58.4759 1.65514 1.04421 0
M  V30 574 C 58.7749 2.78313 -2.24224 0
M  V30 575 C 58.4409 2.54455 -3.72241 0
M  V30 576 C 57.1029 2.47657 -4.12576 0
M  V30 577 C 59.4549 2.3354 -4.65949 0
M  V30 578 C 56.7829 2.17956 -5.44713 0
M  V30 579 C 59.1349 2.05359 -5.9834 0
M  V30 580 C 57.7989 1.97016 -6.37762 0
M  V30 581 H 57.0689 0.55455 -0.491482 0
M  V30 582 H 59.7159 0.870039 -1.70595 0
M  V30 583 H 58.0209 3.47492 -1.80987 0
M  V30 584 H 59.7179 3.36259 -2.18474 0
M  V30 585 H 56.3079 2.60616 -3.40261 0
M  V30 586 H 60.4919 2.37772 -4.35635 0
M  V30 587 H 55.7479 2.10003 -5.74203 0
M  V30 588 H 59.9219 1.88179 -6.70494 0
M  V30 589 H 57.5489 1.73766 -7.40074 0
M  V30 590 N 59.124 1.23083 0.984299 0
M  V30 591 C 60.371 1.06057 1.72505 0
M  V30 592 C 60.699 -0.403105 1.90277 0
M  V30 593 O 59.954 -1.3149 1.44944 0
M  V30 594 C 60.253 1.72673 3.1292 0
M  V30 595 C 59.919 3.22586 3.15038 0
M  V30 596 C 58.581 3.63489 3.15324 0
M  V30 597 C 60.933 4.185 3.10657 0
M  V30 598 C 58.261 4.98772 3.08939 0
M  V30 599 C 60.613 5.53769 3.05814 0
M  V30 600 C 59.277 5.94041 3.04419 0
M  V30 601 H 58.547 0.388091 0.631242 0
M  V30 602 H 61.194 1.52963 1.15215 0
M  V30 603 H 59.499 1.18116 3.73572 0
M  V30 604 H 61.196 1.56982 3.68996 0
M  V30 605 H 57.786 2.90022 3.15571 0
M  V30 606 H 61.97 3.87911 3.09579 0
M  V30 607 H 57.226 5.29193 3.0621 0
M  V30 608 H 61.4 6.27808 3.0138 0
M  V30 609 H 59.027 6.98833 2.99227 0
M  V30 610 N 60.6021 -1.18246 1.0419 0
M  V30 611 C 61.8481 -1.88793 0.75689 0
M  V30 612 C 62.2031 -1.78909 -0.707767 0
M  V30 613 O 61.4961 -1.1794 -1.50999 0
M  V30 614 C 61.6901 -3.38082 1.15911 0
M  V30 615 C 61.5191 -3.62496 2.66133 0
M  V30 616 C 60.2891 -3.7979 3.33298 0
M  V30 617 C 62.4871 -3.62976 3.64353 0
M  V30 618 N 60.4691 -3.91955 4.72487 0
M  V30 619 C 61.8401 -3.80869 4.89222 0
M  V30 620 C 63.8951 -3.46071 3.57965 0
M  V30 621 C 62.5981 -3.83608 6.08471 0
M  V30 622 C 64.6241 -3.50093 4.76643 0
M  V30 623 C 63.9861 -3.68484 6.00332 0
M  V30 624 H 60.0851 -0.709406 0.32904 0
M  V30 625 H 62.6691 -1.42022 1.33183 0
M  V30 626 H 60.8401 -3.83544 0.612238 0
M  V30 627 H 62.5721 -3.96202 0.824989 0
M  V30 628 H 59.3271 -3.79224 2.83701 0
M  V30 629 H 59.7511 -4.01857 5.44831 0
M  V30 630 H 64.3931 -3.30797 2.63311 0
M  V30 631 H 62.1111 -3.97669 7.0348 0
M  V30 632 H 65.6971 -3.38285 4.73344 0
M  V30 633 H 64.5771 -3.71488 6.90627 0
M  V30 634 N 62.0802 -0.821533 -1.34494 0
M  V30 635 C 63.0102 -0.257138 -2.3208 0
M  V30 636 C 63.9912 0.625645 -1.58176 0
M  V30 637 O 65.1762 0.552811 -1.86166 0
M  V30 638 C 62.3062 0.582958 -3.42372 0
M  V30 639 C 61.2602 -0.202571 -4.2752 0
M  V30 640 C 60.5862 0.760179 -5.29269 0
M  V30 641 C 61.8862 -1.40998 -5.02908 0
M  V30 642 H 63.5802 -1.07247 -2.79532 0
M  V30 643 H 61.1262 -0.517163 -1.34393 0
M  V30 644 H 63.0792 0.987972 -4.09655 0
M  V30 645 H 61.8032 1.43133 -2.93565 0
M  V30 646 H 60.4622 -0.588936 -3.61838 0
M  V30 647 H 60.1102 1.60447 -4.76724 0
M  V30 648 H 59.8102 0.238809 -5.87115 0
M  V30 649 H 61.3342 1.16308 -5.9942 0
M  V30 650 H 62.7482 -1.07905 -5.63054 0
M  V30 651 H 61.1452 -1.86689 -5.70322 0
M  V30 652 H 62.2152 -2.1889 -4.32684 0
M  V30 653 N 63.5583 1.46682 -0.576371 0
M  V30 654 C 64.8043 2.02712 -0.0596221 0
M  V30 655 C 65.1373 1.44765 1.29448 0
M  V30 656 O 64.4123 0.610355 1.84675 0
M  V30 657 C 64.6953 3.60098 0.0129503 0
M  V30 658 C 64.5483 4.28441 -1.3696 0
M  V30 659 C 65.8673 4.34224 0.71678 0
M  V30 660 H 62.9863 0.736637 -0.0231407 0
M  V30 661 H 65.6283 1.74898 -0.742351 0
M  V30 662 H 63.7783 3.83926 0.594378 0
M  V30 663 H 65.4503 4.15896 -1.9957 0
M  V30 664 H 63.6933 3.8805 -1.93907 0
M  V30 665 H 64.3643 5.3716 -1.27135 0
M  V30 666 H 66.8403 4.15503 0.222908 0
M  V30 667 H 65.7163 5.43936 0.73657 0
M  V30 668 H 65.9773 4.04823 1.77682 0
M  V30 669 N 65.0364 0.313813 1.54444 0
M  V30 670 C 66.2614 -0.296681 2.05267 0
M  V30 671 C 66.6864 -1.45757 1.18897 0
M  V30 672 O 66.0444 -1.80239 0.195886 0
M  V30 673 C 66.0924 -0.71831 3.53373 0
M  V30 674 O 65.1964 -1.82175 3.69981 0
M  V30 675 H 64.5374 -0.0554061 0.661684 0
M  V30 676 H 67.0674 0.459387 1.99376 0
M  V30 677 H 67.0774 -1.00364 3.95463 0
M  V30 678 H 65.7524 0.130821 4.15694 0
M  V30 679 H 64.3294 -1.53598 3.39797 0
M  V30 680 N 66.5145 -1.57545 0.0417849 0
M  V30 681 C 67.4445 -2.14009 -0.933929 0
M  V30 682 C 68.4255 -1.05938 -1.33083 0
M  V30 683 O 69.6105 -1.33833 -1.40721 0
M  V30 684 C 66.7405 -2.67747 -2.21199 0
M  V30 685 C 65.6945 -3.80718 -1.95544 0
M  V30 686 C 65.0205 -4.20935 -3.29724 0
M  V30 687 C 66.3205 -5.06258 -1.28452 0
M  V30 688 H 68.0145 -2.95788 -0.463645 0
M  V30 689 H 65.5605 -1.42285 -0.221573 0
M  V30 690 H 67.5135 -3.05886 -2.89848 0
M  V30 691 H 66.2375 -1.83147 -2.70416 0
M  V30 692 H 64.8965 -3.43037 -1.2931 0
M  V30 693 H 64.5445 -3.33298 -3.76724 0
M  V30 694 H 64.2445 -4.9707 -3.13361 0
M  V30 695 H 65.7685 -4.61666 -3.9962 0
M  V30 696 H 67.1825 -5.41903 -1.8712 0
M  V30 697 H 65.5795 -5.87475 -1.22445 0
M  V30 698 H 66.6495 -4.84207 -0.259219 0
M  V30 699 N 67.9926 0.231505 -1.5589 0
M  V30 700 C 68.9226 1.29022 -1.94617 0
M  V30 701 C 69.9036 1.4941 -0.813067 0
M  V30 702 O 71.0886 1.6176 -1.07459 0
M  V30 703 C 68.2186 2.64199 -2.25424 0
M  V30 704 C 67.1726 2.58484 -3.41131 0
M  V30 705 C 66.4986 3.97599 -3.57518 0
M  V30 706 C 67.7986 2.1413 -4.76388 0
M  V30 707 H 69.4926 0.968563 -2.83301 0
M  V30 708 H 67.0386 0.464479 -1.36303 0
M  V30 709 H 68.9916 3.38413 -2.51107 0
M  V30 710 H 67.7156 2.98032 -1.33583 0
M  V30 711 H 66.3746 1.86727 -3.15481 0
M  V30 712 H 66.0226 4.28723 -2.6307 0
M  V30 713 H 65.7226 3.94659 -4.35337 0
M  V30 714 H 67.2466 4.7349 -3.85538 0
M  V30 715 H 68.6606 2.78083 -5.01341 0
M  V30 716 H 67.0576 2.2227 -5.57419 0
M  V30 717 H 68.1276 1.09331 -4.72414 0
M  V30 718 N 69.4707 1.49531 0.497807 0
M  V30 719 C 70.4007 1.6935 1.60757 0
M  V30 720 C 71.3817 0.542218 1.61227 0
M  V30 721 O 72.5667 0.778417 1.77917 0
M  V30 722 C 69.6967 1.76298 2.99226 0
M  V30 723 C 68.6507 2.91248 3.13622 0
M  V30 724 C 67.9767 2.83312 4.53474 0
M  V30 725 C 69.2767 4.3214 2.93346 0
M  V30 726 H 70.9707 2.62263 1.44425 0
M  V30 727 H 68.5167 1.26208 0.693367 0
M  V30 728 H 70.4697 1.88749 3.76765 0
M  V30 729 H 69.1937 0.799871 3.16654 0
M  V30 730 H 67.8527 2.78404 2.38509 0
M  V30 731 H 67.5007 1.84902 4.67782 0
M  V30 732 H 67.2007 3.60465 4.64046 0
M  V30 733 H 68.7247 2.97775 5.33069 0
M  V30 734 H 70.1387 4.45649 3.60652 0
M  V30 735 H 68.5357 5.1054 3.15387 0
M  V30 736 H 69.6057 4.46363 1.89441 0
M  V30 737 N 70.9488 -0.749086 1.3866 0
M  V30 738 C 71.9118 -1.84457 1.36045 0
M  V30 739 C 72.9118 -1.58682 0.260122 0
M  V30 740 O 74.1018 -1.66343 0.517261 0
M  V30 741 C 71.2338 -3.22008 1.11911 0
M  V30 742 H 72.4268 -1.88182 2.33512 0
M  V30 743 H 69.9798 -0.951266 1.24019 0
M  V30 744 H 70.7148 -3.2395 0.150686 0
M  V30 745 H 70.4998 -3.42111 1.91579 0
M  V30 746 H 71.9898 -4.0208 1.12788 0
M  V30 747 N 72.4269 -1.23603 -0.977757 0
M  V30 748 C 73.6519 -1.09735 -1.75991 0
M  V30 749 C 74.0769 0.346858 -1.84874 0
M  V30 750 O 73.4349 1.25093 -1.3123 0
M  V30 751 C 73.4829 -1.73051 -3.16363 0
M  V30 752 O 72.5869 -0.994452 -4.0023 0
M  V30 753 H 71.9279 -0.384476 -0.541364 0
M  V30 754 H 74.4579 -1.6371 -1.2272 0
M  V30 755 H 74.4679 -1.78398 -3.66931 0
M  V30 756 H 73.1429 -2.78137 -3.09213 0
M  V30 757 H 71.7199 -1.01812 -3.58732 0
M  V30 758 N 73.905 1.17692 -1.04816 0
M  V30 759 C 75.151 1.88137 -0.75711 0
M  V30 760 C 75.484 1.80604 0.713841 0
M  V30 761 O 74.759 1.21146 1.52164 0
M  V30 762 C 75.042 3.38318 -1.2334 0
M  V30 763 C 74.895 3.54622 -2.76701 0
M  V30 764 C 76.214 4.32214 -0.829415 0
M  V30 765 H 73.333 0.683163 -0.27651 0
M  V30 766 H 75.975 1.38424 -1.30149 0
M  V30 767 H 74.125 3.80787 -0.770286 0
M  V30 768 H 75.797 3.21194 -3.31107 0
M  V30 769 H 74.04 2.97026 -3.16161 0
M  V30 770 H 74.711 4.60028 -3.05088 0
M  V30 771 H 77.187 3.97565 -1.22805 0
M  V30 772 H 76.063 5.35838 -1.19033 0
M  V30 773 H 76.324 4.41294 0.266891 0
M  V30 774 N 75.3831 0.828654 1.34056 0
M  V30 775 C 76.6291 0.42008 1.98402 0
M  V30 776 C 76.9621 -1.01564 1.65525 0
M  V30 777 O 76.2371 -1.70834 0.929831 0
M  V30 778 C 76.5201 0.62927 3.54559 0
M  V30 779 C 76.3731 2.11152 3.97159 0
M  V30 780 C 77.6921 0.0688756 4.40046 0
M  V30 781 H 74.8111 0.154104 0.720709 0
M  V30 782 H 77.4531 1.04228 1.5886 0
M  V30 783 H 75.6031 0.0996418 3.88372 0
M  V30 784 H 77.2751 2.70522 3.73651 0
M  V30 785 H 75.5181 2.59985 3.47261 0
M  V30 786 H 76.1891 2.20868 5.05887 0
M  V30 787 H 78.6651 0.521458 4.1282 0
M  V30 788 H 77.5411 0.245006 5.48353 0
M  V30 789 H 77.8021 -1.0266 4.30015 0
M  V30 790 N 76.8612 -1.46375 0.584142 0
M  V30 791 C 78.1072 -2.03248 0.0787103 0
M  V30 792 C 78.4622 -1.44737 -1.26763 0
M  V30 793 O 77.7552 -0.603625 -1.81843 0
M  V30 794 C 77.9492 -3.57373 -0.0439342 0
M  V30 795 C 77.7782 -4.30831 1.28897 0
M  V30 796 C 76.5482 -4.69683 1.8635 0
M  V30 797 C 78.7462 -4.64278 2.21248 0
M  V30 798 N 76.7282 -5.27898 3.13365 0
M  V30 799 C 78.0992 -5.23078 3.32851 0
M  V30 800 C 80.1542 -4.46209 2.20911 0
M  V30 801 C 78.8572 -5.65715 4.44251 0
M  V30 802 C 80.8832 -4.89864 3.31341 0
M  V30 803 C 80.2452 -5.48736 4.41665 0
M  V30 804 H 76.3442 -0.778714 0.0716144 0
M  V30 805 H 78.9282 -1.78509 0.777355 0
M  V30 806 H 77.0992 -3.81823 -0.711749 0
M  V30 807 H 78.8312 -4.00892 -0.553881 0
M  V30 808 H 75.5862 -4.52488 1.39826 0
M  V30 809 H 76.0102 -5.61525 3.78178 0
M  V30 810 H 80.6522 -4.00027 1.36888 0
M  V30 811 H 78.3702 -6.10875 5.29015 0
M  V30 812 H 81.9562 -4.77634 3.322 0
M  V30 813 H 80.8362 -5.81898 5.25704 0
M  V30 814 N 78.3393 -0.321999 -1.54275 0
M  V30 815 C 79.5863 0.281044 -2.0054 0
M  V30 816 C 79.9143 1.52265 -1.21019 0
M  V30 817 O 79.1693 1.93687 -0.279982 0
M  V30 818 C 79.4683 0.661769 -3.5122 0
M  V30 819 C 79.1343 -0.480482 -4.48333 0
M  V30 820 C 77.7963 -0.794005 -4.74604 0
M  V30 821 C 80.1483 -1.24783 -5.06042 0
M  V30 822 C 77.4763 -1.87763 -5.55844 0
M  V30 823 C 79.8283 -2.32153 -5.88462 0
M  V30 824 C 78.4923 -2.64089 -6.13036 0
M  V30 825 H 77.7623 0.102841 -0.733829 0
M  V30 826 H 80.4093 -0.445453 -1.86247 0
M  V30 827 H 78.7143 1.46867 -3.63232 0
M  V30 828 H 80.4113 1.13989 -3.84457 0
M  V30 829 H 77.0013 -0.226039 -4.28004 0
M  V30 830 H 81.1853 -1.01887 -4.85729 0
M  V30 831 H 76.4413 -2.12954 -5.73115 0
M  V30 832 H 80.6153 -2.92057 -6.32199 0
M  V30 833 H 78.2423 -3.48185 -6.75775 0
M  V30 834 N 79.8174 1.5752 -0.0501392 0
M  V30 835 C 81.0664 1.91827 0.623328 0
M  V30 836 C 81.3794 0.930222 1.72065 0
M  V30 837 O 82.5854 1.1653 2.4522 0
M  V30 838 C 81.0414 3.40692 1.16003 0
M  V30 839 C 80.6494 4.479 0.0948811 0
M  V30 840 C 82.3934 3.84034 1.80881 0
M  V30 841 C 80.3004 5.87879 0.644411 0
M  V30 842 H 79.2304 0.715918 0.236596 0
M  V30 843 H 81.8814 1.83115 -0.118861 0
M  V30 844 H 80.2634 3.44405 1.9545 0
M  V30 845 H 81.4374 4.55775 -0.678675 0
M  V30 846 H 79.7524 4.13892 -0.45637 0
M  V30 847 H 82.3494 4.85984 2.22988 0
M  V30 848 H 82.6924 3.20225 2.6601 0
M  V30 849 H 83.2254 3.82833 1.0809 0
M  V30 850 H 79.9644 6.55282 -0.169229 0
M  V30 851 H 79.4844 5.83567 1.38598 0
M  V30 852 H 81.1634 6.37098 1.12763 0
M  V30 853 N 81.2955 -0.223234 1.56011 0
M  V30 854 C 82.2255 -1.27988 1.95298 0
M  V30 855 C 83.2065 -1.48976 0.820979 0
M  V30 856 O 84.3915 -1.61188 1.08315 0
M  V30 857 C 81.5215 -2.63 2.26822 0
M  V30 858 C 80.4755 -2.56671 3.42497 0
M  V30 859 C 79.8015 -3.95697 3.59622 0
M  V30 860 C 81.1015 -2.11601 4.77517 0
M  V30 861 H 82.7955 -0.953525 2.8381 0
M  V30 862 H 80.3415 -0.457244 1.36548 0
M  V30 863 H 82.2945 -3.37077 2.52898 0
M  V30 864 H 81.0185 -2.9732 1.35161 0
M  V30 865 H 79.6775 -1.85051 3.16467 0
M  V30 866 H 79.3255 -4.27322 2.6534 0
M  V30 867 H 79.0255 -3.92345 4.37424 0
M  V30 868 H 80.5495 -4.71438 3.88044 0
M  V30 869 H 81.9635 -2.7542 5.02809 0
M  V30 870 H 80.3605 -2.19311 5.5859 0
M  V30 871 H 81.4305 -1.06824 4.72987 0
M  V30 872 N 82.7736 -1.49793 -0.48987 0
M  V30 873 C 84.0196 -1.60078 -1.24511 0
M  V30 874 C 84.3526 -0.291608 -1.91998 0
M  V30 875 O 83.6276 0.705647 -1.81248 0
M  V30 876 C 83.9106 -2.76791 -2.30345 0
M  V30 877 C 83.7636 -4.17535 -1.67286 0
M  V30 878 C 85.0826 -2.89111 -3.31817 0
M  V30 879 H 82.2016 -0.582645 -0.451324 0
M  V30 880 H 84.8436 -1.82117 -0.541612 0
M  V30 881 H 82.9936 -2.5813 -2.90346 0
M  V30 882 H 84.6656 -4.4774 -1.11026 0
M  V30 883 H 82.9086 -4.22665 -0.976577 0
M  V30 884 H 83.5796 -4.95094 -2.44103 0
M  V30 885 H 86.0556 -3.06133 -2.81819 0
M  V30 886 H 84.9316 -3.72433 -4.03219 0
M  V30 887 H 85.1926 -1.9893 -3.94815 0
M  V30 888 N 84.2517 0.741722 -1.39055 0
M  V30 889 C 85.2017 1.84661 -1.33732 0
M  V30 890 C 86.1857 1.59397 -0.219401 0
M  V30 891 O 87.3777 1.71015 -0.456375 0
M  V30 892 C 84.5067 3.22512 -1.17647 0
M  V30 893 C 83.5927 3.53628 -2.34112 0
M  V30 894 N 83.9837 3.55723 -3.59576 0
M  V30 895 C 82.2817 3.83956 -2.26923 0
M  V30 896 C 82.9827 3.84443 -4.36553 0
M  V30 897 N 81.9587 4.01877 -3.66055 0
M  V30 898 H 85.7607 1.84576 -2.28711 0
M  V30 899 H 83.2747 0.939647 -1.32455 0
M  V30 900 H 85.2717 4.01597 -1.11917 0
M  V30 901 H 83.9317 3.2384 -0.236124 0
M  V30 902 H 84.9427 3.37196 -3.93089 0
M  V30 903 H 81.6197 3.92929 -1.41113 0
M  V30 904 H 83.0097 3.92588 -5.45274 0
M  V30 905 N 85.7298 1.2412 0.971189 0
M  V30 906 C 86.9758 1.08041 1.71625 0
M  V30 907 C 87.3088 -0.380407 1.90438 0
M  V30 908 O 86.5838 -1.28127 1.46334 0
M  V30 909 C 86.8668 1.81682 3.10908 0
M  V30 910 C 86.7198 3.35493 2.99608 0
M  V30 911 C 88.0388 1.58671 4.10501 0
M  V30 912 H 85.1578 0.39388 0.622919 0
M  V30 913 H 87.7998 1.52743 1.13003 0
M  V30 914 H 85.9498 1.43684 3.60953 0
M  V30 915 H 87.6218 3.83068 2.57015 0
M  V30 916 H 85.8648 3.64052 2.35899 0
M  V30 917 H 86.5358 3.82217 3.98264 0
M  V30 918 H 89.0118 1.91719 3.69301 0
M  V30 919 H 87.8878 2.1266 5.06031 0
M  V30 920 H 88.1488 0.524161 4.38982 0
M  V30 921 N 87.2079 -1.17134 1.05439 0
M  V30 922 C 88.4359 -1.91372 0.786414 0
M  V30 923 C 88.8509 -1.76955 -0.658202 0
M  V30 924 O 88.2079 -1.10838 -1.44987 0
M  V30 925 C 88.2589 -3.42356 1.1608 0
M  V30 926 O 87.9799 -3.56332 2.54871 0
M  V30 927 C 89.4809 -4.33663 0.919322 0
M  V30 928 H 86.7009 -0.607118 0.285743 0
M  V30 929 H 89.2449 -1.48525 1.40572 0
M  V30 930 H 87.3999 -3.82939 0.586191 0
M  V30 931 H 87.8139 -4.49896 2.69618 0
M  V30 932 H 89.2879 -5.38099 1.231 0
M  V30 933 H 89.7649 -4.38959 -0.145359 0
M  V30 934 H 90.3709 -3.98796 1.47789 0
M  V30 935 N 88.686 -0.835752 -1.33615 0
M  V30 936 C 89.963 -0.352017 -1.92406 0
M  V30 937 C 90.343 1.16225 -1.76224 0
M  V30 938 O 89.691 1.97526 -1.14873 0
M  V30 939 C 89.901 -0.795485 -3.39813 0
M  V30 940 C 91.249 -0.801703 -4.16963 0
M  V30 941 O 92.273 -0.738889 -3.48452 0
M  V30 942 O 91.132 -0.886607 -5.3926 0
M  V30 943 H 88.226 -0.0989641 -0.821057 0
M  V30 944 H 90.772 -0.921397 -1.42507 0
M  V30 945 H 89.544 -1.83795 -3.45449 0
M  V30 946 H 89.167 -0.202505 -3.97084 0
M  V30 947 N 90.1641 1.46063 -0.591896 0
M  V30 948 C 91.5801 1.57561 -0.254288 0
M  V30 949 C 91.7801 1.58565 1.24336 0
M  V30 950 O 90.8361 1.50753 2.02558 0
M  V30 951 C 92.1491 2.86549 -0.911611 0
M  V30 952 C 93.6971 3.00197 -0.886059 0
M  V30 953 C 94.1721 4.31933 -1.5231 0
M  V30 954 N 95.6631 4.38654 -1.48786 0
M  V30 955 C 96.3981 5.39222 -1.95006 0
M  V30 956 N 95.8941 6.46414 -2.49241 0
M  V30 957 N 97.6871 5.3048 -1.85868 0
M  V30 958 H 89.8381 1.43655 -1.56451 0
M  V30 959 H 92.1011 0.68583 -0.654478 0
M  V30 960 H 91.8071 2.91651 -1.96551 0
M  V30 961 H 91.6811 3.74794 -0.425368 0
M  V30 962 H 94.0681 2.9467 0.159246 0
M  V30 963 H 94.1491 2.13403 -1.41041 0
M  V30 964 H 93.7931 4.38217 -2.56765 0
M  V30 965 H 93.7231 5.17516 -0.973891 0
M  V30 966 H 96.2141 3.61793 -1.09151 0
M  V30 967 H 96.5271 7.19376 -2.82344 0
M  V30 968 H 94.8721 6.47208 -2.53272 0
M  V30 969 H 98.0631 4.45643 -1.43248 0
M  V30 970 H 98.2361 6.08711 -2.22204 0
M  V30 971 N 91.6422 0.330177 1.54103 0
M  V30 972 C 92.8672 -0.274893 2.0557 0
M  V30 973 C 93.2922 -1.44487 1.20437 0
M  V30 974 O 92.6502 -1.80021 0.214991 0
M  V30 975 C 92.6982 -0.68079 3.54115 0
M  V30 976 O 91.8022 -1.7824 3.71893 0
M  V30 977 H 91.1432 -0.0483849 0.662235 0
M  V30 978 H 93.6732 0.480508 1.98878 0
M  V30 979 H 93.6832 -0.961635 3.96505 0
M  V30 980 H 92.3582 0.174903 4.15532 0
M  V30 981 H 90.9352 -1.49985 3.41407 0
M  V30 982 N 93.1203 -1.57491 0.0584922 0
M  V30 983 C 94.3973 -1.84346 -0.653918 0
M  V30 984 C 94.7773 -0.948355 -1.88599 0
M  V30 985 O 94.1253 -0.0112403 -2.28497 0
M  V30 986 C 94.3353 -3.34239 -1.00425 0
M  V30 987 C 95.6833 -4.01431 -1.38342 0
M  V30 988 O 96.7073 -3.38907 -1.09637 0
M  V30 989 O 95.5663 -5.11683 -1.91943 0
M  V30 990 H 92.6603 -0.761112 -0.323478 0
M  V30 991 H 95.2063 -1.6947 0.0884125 0
M  V30 992 H 93.9783 -3.91089 -0.128625 0
M  V30 993 H 93.6013 -3.54329 -1.80378 0
M  V30 994 N 94.5984 0.214957 -1.56127 0
M  V30 995 C 95.5614 1.24997 -1.92116 0
M  V30 996 C 96.5614 1.39467 -0.800344 0
M  V30 997 O 97.7514 1.37619 -1.06802 0
M  V30 998 C 94.8834 2.62271 -2.17777 0
M  V30 999 H 96.0764 0.942875 -2.84693 0
M  V30 1000 H 93.6294 0.455654 -1.49511 0
M  V30 1001 H 94.3644 2.98068 -1.27773 0
M  V30 1002 H 94.1494 2.53143 -2.99434 0
M  V30 1003 H 95.6394 3.36946 -2.46693 0
M  V30 1004 N 96.0765 1.50051 0.48192 0
M  V30 1005 C 97.4925 1.37237 0.814756 0
M  V30 1006 C 97.6925 0.420109 1.97072 0
M  V30 1007 O 96.7485 -0.141246 2.52105 0
M  V30 1008 C 98.0615 2.78375 1.13701 0
M  V30 1009 C 99.6095 2.87213 1.2441 0
M  V30 1010 C 100.084 4.29161 1.59954 0
M  V30 1011 N 101.575 4.32061 1.66967 0
M  V30 1012 C 102.31 5.38879 1.95952 0
M  V30 1013 N 101.806 6.55918 2.23031 0
M  V30 1014 N 103.599 5.26312 1.97363 0
M  V30 1015 H 95.7505 2.10546 -0.28005 0
M  V30 1016 H 98.0135 0.945921 -0.0627454 0
M  V30 1017 H 97.7195 3.49845 0.360787 0
M  V30 1018 H 97.5935 3.14941 2.07586 0
M  V30 1019 H 99.9805 2.15969 2.01101 0
M  V30 1020 H 100.061 2.54204 0.285299 0
M  V30 1021 H 99.7055 5.00938 0.838067 0
M  V30 1022 H 99.6355 4.59648 2.56966 0
M  V30 1023 H 102.126 3.47661 1.48123 0
M  V30 1024 H 102.439 7.33139 2.44391 0
M  V30 1025 H 100.784 6.59112 2.20447 0
M  V30 1026 H 103.975 4.33876 1.75697 0
M  V30 1027 H 104.148 6.09649 2.19618 0
M  V30 1028 N 97.5546 -0.734337 1.39446 0
M  V30 1029 C 98.4846 -1.86155 1.40955 0
M  V30 1030 C 99.4656 -1.67898 0.272827 0
M  V30 1031 O 100.651 -1.88207 0.478743 0
M  V30 1032 C 97.7806 -3.23912 1.25294 0
M  V30 1033 C 96.7346 -3.56808 2.36373 0
M  V30 1034 C 96.0606 -4.93508 2.058 0
M  V30 1035 C 97.3606 -3.59713 3.78687 0
M  V30 1036 H 99.0546 -1.8515 2.35287 0
M  V30 1037 H 96.6006 -0.889367 1.13253 0
M  V30 1038 H 98.5536 -4.02443 1.2497 0
M  V30 1039 H 97.2776 -3.25446 0.274308 0
M  V30 1040 H 95.9366 -2.80606 2.35914 0
M  V30 1041 H 95.5846 -4.91623 1.06374 0
M  V30 1042 H 95.2846 -5.16486 2.80208 0
M  V30 1043 H 96.8086 -5.74396 2.07128 0
M  V30 1044 H 98.2226 -4.2832 3.81071 0
M  V30 1045 H 96.6196 -3.94209 4.52459 0
M  V30 1046 H 97.6896 -2.59504 4.09617 0
M  V30 1047 N 99.0327 -1.24633 -0.964593 0
M  V30 1048 C 99.9647 -0.999302 -2.06268 0
M  V30 1049 C 100.978 0.0323226 -1.62768 0
M  V30 1050 O 102.167 -0.205079 -1.77318 0
M  V30 1051 C 99.2667 -0.486816 -3.35385 0
M  V30 1052 C 98.4397 -1.5823 -4.07777 0
M  V30 1053 C 97.4987 -1.07191 -5.15166 0
M  V30 1054 O 96.5247 -1.76426 -5.41168 0
M  V30 1055 N 97.7267 0.0920373 -5.80427 0
M  V30 1056 H 100.492 -1.94477 -2.28033 0
M  V30 1057 H 98.0527 -1.15704 -1.13244 0
M  V30 1058 H 100.045 -0.130066 -4.04491 0
M  V30 1059 H 98.6147 0.364459 -3.10468 0
M  V30 1060 H 97.8347 -2.11109 -3.32906 0
M  V30 1061 H 99.1227 -2.31854 -4.52903 0
M  V30 1062 H 98.5207 0.670784 -5.61709 0
M  V30 1063 H 97.0777 0.389905 -6.50633 0
M  V30 1064 N 100.511 1.16574 -1.06058 0
M  V30 1065 C 101.741 1.90675 -0.795397 0
M  V30 1066 C 102.149 1.77547 0.653735 0
M  V30 1067 O 101.492 1.11611 1.45907 0
M  V30 1068 C 101.554 3.42011 -1.10764 0
M  V30 1069 C 101.218 3.78924 -2.55471 0
M  V30 1070 C 102.215 3.81042 -3.53699 0
M  V30 1071 C 99.8998 4.09626 -2.90708 0
M  V30 1072 C 101.894 4.13346 -4.85205 0
M  V30 1073 C 99.5808 4.41597 -4.22416 0
M  V30 1074 C 100.579 4.43436 -5.19474 0
M  V30 1075 O 100.267 4.74649 -6.48817 0
M  V30 1076 H 99.9988 0.611554 -0.288058 0
M  V30 1077 H 102.553 1.48711 -1.41683 0
M  V30 1078 H 100.783 3.84312 -0.429128 0
M  V30 1079 H 102.472 3.97384 -0.827077 0
M  V30 1080 H 103.238 3.57437 -3.27817 0
M  V30 1081 H 99.1168 4.07361 -2.15819 0
M  V30 1082 H 102.661 4.14696 -5.60957 0
M  V30 1083 H 98.5578 4.64667 -4.48056 0
M  V30 1084 H 99.3258 4.9247 -6.5377 0
M  V30 1085 N 101.989 0.842826 1.3317 0
M  V30 1086 C 103.237 0.439577 1.97262 0
M  V30 1087 C 103.558 -1.00548 1.67078 0
M  V30 1088 O 102.828 -1.70098 0.971779 0
M  V30 1089 H 101.408 0.159558 0.72976 0
M  V30 1090 H 104.07 1.07665 1.62463 0
M  V30 1091 H 103.166 0.574886 3.0676 0
M  V30 1092 N 103.467 -1.45747 0.599634 0
M  V30 1093 C 104.397 -2.33235 -0.111306 0
M  V30 1094 C 105.378 -1.46359 -0.866781 0
M  V30 1095 O 106.563 -1.75146 -0.838904 0
M  V30 1096 C 103.693 -3.28932 -1.11451 0
M  V30 1097 C 102.647 -4.25381 -0.472772 0
M  V30 1098 C 101.973 -5.1071 -1.58365 0
M  V30 1099 C 103.273 -5.18831 0.600948 0
M  V30 1100 H 104.967 -2.92927 0.61919 0
M  V30 1101 H 102.513 -1.40857 0.299215 0
M  V30 1102 H 104.466 -3.89002 -1.62036 0
M  V30 1103 H 103.19 -2.67381 -1.8755 0
M  V30 1104 H 101.849 -3.66598 0.0121472 0
M  V30 1105 H 101.497 -4.45533 -2.33473 0
M  V30 1106 H 101.197 -5.7604 -1.15982 0
M  V30 1107 H 102.721 -5.73647 -2.09194 0
M  V30 1108 H 104.135 -5.73019 0.179491 0
M  V30 1109 H 102.532 -5.92595 0.946076 0
M  V30 1110 H 103.602 -4.6174 1.48068 0
M  V30 1111 N 104.945 -0.338344 -1.53925 0
M  V30 1112 C 105.875 0.51328 -2.27789 0
M  V30 1113 C 106.856 1.107 -1.29149 0
M  V30 1114 O 108.041 1.12937 -1.57984 0
M  V30 1115 C 105.171 1.66697 -3.04679 0
M  V30 1116 C 104.125 1.20183 -4.1078 0
M  V30 1117 C 103.451 2.44363 -4.75595 0
M  V30 1118 C 104.751 0.30605 -5.21403 0
M  V30 1119 H 106.445 -0.102883 -2.99223 0
M  V30 1120 H 103.991 -0.0509219 -1.4391 0
M  V30 1121 H 105.944 2.26915 -3.55088 0
M  V30 1122 H 104.668 2.30995 -2.30887 0
M  V30 1123 H 103.327 0.622499 -3.61276 0
M  V30 1124 H 102.975 3.07057 -3.98403 0
M  V30 1125 H 102.675 2.13925 -5.47275 0
M  V30 1126 H 104.199 3.05317 -5.28786 0
M  V30 1127 H 105.613 0.814929 -5.67478 0
M  V30 1128 H 104.01 0.0937929 -6.00027 0
M  V30 1129 H 105.08 -0.65921 -4.80398 0
M  V30 1130 N 106.423 1.57458 -0.0668435 0
M  V30 1131 C 107.672 1.92477 0.602947 0
M  V30 1132 C 107.985 0.948419 1.71068 0
M  V30 1133 O 109.191 1.19124 2.43971 0
M  V30 1134 C 107.647 3.41903 1.12383 0
M  V30 1135 C 107.255 4.47975 0.04737 0
M  V30 1136 C 108.999 3.85931 1.76797 0
M  V30 1137 C 106.906 5.88529 0.582022 0
M  V30 1138 H 105.836 0.718387 0.22899 0
M  V30 1139 H 108.487 1.82978 -0.138276 0
M  V30 1140 H 106.869 3.46459 1.91787 0
M  V30 1141 H 108.043 4.55029 -0.726978 0
M  V30 1142 H 106.358 4.13384 -0.500243 0
M  V30 1143 H 108.955 4.88322 2.17821 0
M  V30 1144 H 109.298 3.23029 2.62599 0
M  V30 1145 H 109.831 3.83958 1.04024 0
M  V30 1146 H 106.57 6.55065 -0.238721 0
M  V30 1147 H 106.09 5.85004 1.324 0
M  V30 1148 H 107.769 6.38258 1.05999 0
M  V30 1149 N 107.901 -0.206675 1.56239 0
M  V30 1150 C 109.148 -0.928842 1.79941 0
M  V30 1151 C 109.476 -1.83734 0.638131 0
M  V30 1152 O 108.731 -1.92039 -0.376746 0
M  V30 1153 C 109.03 -1.78675 3.09532 0
M  V30 1154 C 108.696 -1.03022 4.38973 0
M  V30 1155 C 107.358 -0.821302 4.74139 0
M  V30 1156 C 109.71 -0.497081 5.18824 0
M  V30 1157 C 107.038 -0.0675719 5.86661 0
M  V30 1158 C 109.39 0.24338 6.32132 0
M  V30 1159 C 108.054 0.463422 6.65889 0
M  V30 1160 H 107.324 -0.339887 0.658451 0
M  V30 1161 H 109.971 -0.195977 1.90495 0
M  V30 1162 H 108.276 -2.58794 2.94165 0
M  V30 1163 H 109.973 -2.34792 3.25075 0
M  V30 1164 H 106.563 -1.20306 4.11369 0
M  V30 1165 H 110.747 -0.645921 4.92079 0
M  V30 1166 H 106.003 0.112995 6.11296 0
M  V30 1167 H 110.177 0.66393 6.93228 0
M  V30 1168 H 107.804 1.04938 7.52922 0
M  V30 1169 N 109.379 -1.50304 -0.473955 0
M  V30 1170 C 110.627 -1.60832 -1.22382 0
M  V30 1171 C 110.948 -0.30939 -1.9253 0
M  V30 1172 O 110.218 0.67296 -1.83978 0
M  V30 1173 H 108.798 -0.592652 -0.454723 0
M  V30 1174 H 111.46 -1.87068 -0.546968 0
M  V30 1175 H 110.556 -2.41803 -1.97327 0
M  V30 1176 N 110.857 0.726932 -1.39834 0
M  V30 1177 C 111.82 1.82269 -1.38962 0
M  V30 1178 C 112.82 1.58248 -0.285334 0
M  V30 1179 O 114.01 1.65499 -0.54366 0
M  V30 1180 C 111.142 3.20186 -1.17019 0
M  V30 1181 H 112.335 1.84443 -2.36476 0
M  V30 1182 H 109.888 0.931416 -1.25516 0
M  V30 1183 H 110.623 3.23669 -0.202204 0
M  V30 1184 H 110.408 3.3902 -1.96998 0
M  V30 1185 H 111.898 4.00235 -1.1917 0
M  V30 1186 N 112.336 1.25143 0.95797 0
M  V30 1187 C 113.299 1.05321 2.03569 0
M  V30 1188 C 114.299 0.007152 1.60798 0
M  V30 1189 O 115.489 0.24903 1.72411 0
M  V30 1190 C 112.621 0.598394 3.35607 0
M  V30 1191 H 113.814 2.00986 2.22586 0
M  V30 1192 H 111.367 1.07502 1.13459 0
M  V30 1193 H 112.102 -0.361014 3.22284 0
M  V30 1194 H 111.887 1.35351 3.67998 0
M  V30 1195 H 113.377 0.48104 4.1482 0
M  V30 1196 N 113.814 -1.1601 1.06675 0
M  V30 1197 C 115.06 -1.86909 0.786945 0
M  V30 1198 C 115.393 -1.81717 -0.685018 0
M  V30 1199 O 114.668 -1.23551 -1.50218 0
M  V30 1200 C 114.951 -3.36313 1.28707 0
M  V30 1201 C 114.804 -3.50175 2.82308 0
M  V30 1202 C 116.123 -4.3084 0.898071 0
M  V30 1203 H 113.242 -0.678677 0.287343 0
M  V30 1204 H 115.884 -1.36336 1.32334 0
M  V30 1205 H 114.034 -3.79513 0.830768 0
M  V30 1206 H 115.706 -3.15886 3.36175 0
M  V30 1207 H 113.949 -2.91959 3.20847 0
M  V30 1208 H 114.62 -4.55116 3.12368 0
M  V30 1209 H 117.096 -3.95561 1.29114 0
M  V30 1210 H 115.972 -5.33876 1.27543 0
M  V30 1211 H 116.233 -4.41662 -0.196651 0
M  V30 1212 N 115.292 -0.849877 -1.32721 0
M  V30 1213 C 116.517 -0.463856 -2.02146 0
M  V30 1214 C 116.942 0.930449 -1.63476 0
M  V30 1215 O 116.3 1.61033 -0.832952 0
M  V30 1216 C 116.348 -0.604955 -3.55489 0
M  V30 1217 O 115.452 0.36425 -4.10788 0
M  V30 1218 H 114.793 -0.187046 -0.637111 0
M  V30 1219 H 117.323 -1.14775 -1.69375 0
M  V30 1220 H 117.333 -0.490696 -4.05038 0
M  V30 1221 H 116.008 -1.62174 -3.82978 0
M  V30 1222 H 114.585 0.206628 -3.72327 0
M  V30 1223 N 116.77 1.45427 -0.607355 0
M  V30 1224 C 118.016 2.0254 -0.102607 0
M  V30 1225 C 118.349 1.47478 1.26348 0
M  V30 1226 O 117.624 0.64939 1.83339 0
M  V30 1227 C 117.907 3.60044 -0.0634347 0
M  V30 1228 C 117.76 4.2544 -1.46017 0
M  V30 1229 C 119.079 4.35646 0.624514 0
M  V30 1230 H 116.198 0.73598 -0.0387607 0
M  V30 1231 H 118.84 1.73284 -0.779282 0
M  V30 1232 H 116.99 3.85101 0.512808 0
M  V30 1233 H 118.662 4.11569 -2.08347 0
M  V30 1234 H 116.905 3.83849 -2.02094 0
M  V30 1235 H 117.576 5.34342 -1.385 0
M  V30 1236 H 120.052 4.15882 0.134723 0
M  V30 1237 H 118.928 5.45376 0.621028 0
M  V30 1238 H 119.189 4.08501 1.69055 0
M  V30 1239 N 118.248 0.346503 1.53744 0
M  V30 1240 C 119.178 -0.501193 2.28058 0
M  V30 1241 C 120.159 -1.10014 1.29734 0
M  V30 1242 O 121.344 -1.12097 1.58581 0
M  V30 1243 C 118.474 -1.65078 3.05559 0
M  V30 1244 C 117.428 -1.18003 4.11411 0
M  V30 1245 C 116.754 -2.41837 4.76884 0
M  V30 1246 C 118.054 -0.278394 5.21558 0
M  V30 1247 H 119.748 0.11875 2.99164 0
M  V30 1248 H 117.294 0.0585531 1.43881 0
M  V30 1249 H 119.247 -2.25028 3.56287 0
M  V30 1250 H 117.971 -2.29767 2.32109 0
M  V30 1251 H 116.63 -0.603331 3.61601 0
M  V30 1252 H 116.278 -3.0494 4.00026 0
M  V30 1253 H 115.978 -2.1102 5.48402 0
M  V30 1254 H 117.502 -3.02508 5.30397 0
M  V30 1255 H 118.916 -0.784823 5.67903 0
M  V30 1256 H 117.313 -0.0619707 6.00068 0
M  V30 1257 H 118.383 0.684677 4.80042 0
M  V30 1258 N 119.726 -1.57421 0.075193 0
M  V30 1259 C 120.656 -2.15942 -0.888324 0
M  V30 1260 C 121.637 -1.08737 -1.30806 0
M  V30 1261 O 122.822 -1.36787 -1.37851 0
M  V30 1262 C 119.952 -2.72379 -2.1547 0
M  V30 1263 C 118.906 -3.8478 -1.87425 0
M  V30 1264 C 118.232 -4.27834 -3.20721 0
M  V30 1265 C 119.532 -5.08869 -1.17684 0
M  V30 1266 H 121.226 -2.96705 -0.400799 0
M  V30 1267 H 118.772 -1.42723 -0.191342 0
M  V30 1268 H 120.725 -3.11965 -2.83295 0
M  V30 1269 H 119.449 -1.88841 -2.6647 0
M  V30 1270 H 118.108 -3.45703 -1.22004 0
M  V30 1271 H 117.756 -3.41214 -3.6957 0
M  V30 1272 H 117.456 -5.03605 -3.02746 0
M  V30 1273 H 118.98 -4.70039 -3.89738 0
M  V30 1274 H 120.394 -5.4575 -1.75584 0
M  V30 1275 H 118.791 -5.8994 -1.09956 0
M  V30 1276 H 119.861 -4.84648 -0.156453 0
M  V30 1277 N 121.204 0.198386 -1.56346 0
M  V30 1278 C 122.136 1.26987 -1.90806 0
M  V30 1279 C 123.149 1.41877 -0.798419 0
M  V30 1280 O 124.338 1.42362 -1.07682 0
M  V30 1281 C 121.438 2.64246 -2.12196 0
M  V30 1282 C 120.611 2.71007 -3.43328 0
M  V30 1283 C 119.67 3.89439 -3.5387 0
M  V30 1284 O 118.696 3.76695 -4.26719 0
M  V30 1285 N 119.898 5.04752 -2.86715 0
M  V30 1286 H 122.663 0.977433 -2.83313 0
M  V30 1287 H 120.224 0.388322 -1.57174 0
M  V30 1288 H 122.216 3.41896 -2.1654 0
M  V30 1289 H 120.786 2.85992 -1.26204 0
M  V30 1290 H 120.006 1.79657 -3.50881 0
M  V30 1291 H 121.294 2.72512 -4.29668 0
M  V30 1292 H 120.692 5.18004 -2.2735 0
M  V30 1293 H 119.249 5.8036 -2.96691 0
M  V30 1294 N 122.682 1.50554 0.465978 0
M  V30 1295 C 123.592 1.72585 1.58907 0
M  V30 1296 C 124.608 0.60911 1.6299 0
M  V30 1297 O 125.784 0.88804 1.80765 0
M  V30 1298 C 122.849 1.81995 2.95091 0
M  V30 1299 C 121.91 3.05751 3.01355 0
M  V30 1300 C 121.143 3.14702 4.31043 0
M  V30 1301 O 121.366 2.30313 5.21835 0
M  V30 1302 O 120.3 4.07468 4.43005 0
M  V30 1303 H 124.126 2.67799 1.43239 0
M  V30 1304 H 121.711 1.34711 0.646013 0
M  V30 1305 H 123.593 1.90335 3.75966 0
M  V30 1306 H 122.268 0.899659 3.10947 0
M  V30 1307 H 121.175 3.02908 2.19539 0
M  V30 1308 H 122.508 3.97375 2.90437 0
M  V30 1309 N 124.16 -0.719506 1.40217 0
M  V30 1310 C 125.406 -1.48152 1.38488 0
M  V30 1311 C 125.739 -1.94195 -0.0141867 0
M  V30 1312 O 125.014 -1.67884 -0.982096 0
M  V30 1313 C 125.297 -2.71035 2.37091 0
M  V30 1314 C 125.15 -2.30912 3.86005 0
M  V30 1315 C 126.469 -3.73182 2.33288 0
M  V30 1316 H 123.588 -0.537395 0.504357 0
M  V30 1317 H 126.23 -0.821472 1.71324 0
M  V30 1318 H 124.38 -3.27352 2.0922 0
M  V30 1319 H 126.052 -1.80107 4.24687 0
M  V30 1320 H 124.295 -1.62958 4.02029 0
M  V30 1321 H 124.966 -3.18978 4.50508 0
M  V30 1322 H 127.442 -3.26485 2.57966 0
M  V30 1323 H 126.318 -4.56806 3.04334 0
M  V30 1324 H 126.579 -4.21202 1.34317 0
M  V30 1325 N 125.638 -1.25649 -0.95132 0
M  V30 1326 C 126.885 -1.10594 -1.69633 0
M  V30 1327 C 127.213 0.352515 -1.91279 0
M  V30 1328 O 126.468 1.27601 -1.4838 0
M  V30 1329 C 126.767 -1.80909 -3.08231 0
M  V30 1330 C 126.433 -3.30825 -3.06375 0
M  V30 1331 C 125.095 -3.71722 -3.05576 0
M  V30 1332 C 127.447 -4.26589 -2.99452 0
M  V30 1333 C 124.775 -5.06788 -2.95606 0
M  V30 1334 C 127.127 -5.61683 -2.91024 0
M  V30 1335 C 125.791 -6.01904 -2.88562 0
M  V30 1336 H 125.061 -0.404691 -0.620731 0
M  V30 1337 H 127.708 -1.55964 -1.11119 0
M  V30 1338 H 126.013 -1.27979 -3.70309 0
M  V30 1339 H 127.71 -1.6671 -3.64704 0
M  V30 1340 H 124.3 -2.98287 -3.07771 0
M  V30 1341 H 128.484 -3.95982 -2.99185 0
M  V30 1342 H 123.74 -5.37126 -2.92071 0
M  V30 1343 H 127.914 -6.35578 -2.84629 0
M  V30 1344 H 125.541 -7.06521 -2.80593 0
M  V30 1345 N 127.117 1.15442 -1.07289 0
M  V30 1346 C 128.533 1.38201 -0.798288 0
M  V30 1347 C 128.733 1.92429 0.597769 0
M  V30 1348 O 127.789 2.12962 1.3566 0
M  V30 1349 C 129.102 2.35357 -1.87156 0
M  V30 1350 C 130.65 2.49021 -1.89624 0
M  V30 1351 C 131.125 3.49468 -2.96034 0
M  V30 1352 N 132.616 3.57003 -2.95132 0
M  V30 1353 C 133.351 4.34543 -3.74112 0
M  V30 1354 N 132.847 5.15421 -4.6294 0
M  V30 1355 N 134.64 4.29625 -3.62462 0
M  V30 1356 H 126.791 0.78584 -1.97328 0
M  V30 1357 H 129.054 0.408065 -0.855679 0
M  V30 1358 H 128.76 2.02626 -2.87464 0
M  V30 1359 H 128.634 3.35129 -1.73114 0
M  V30 1360 H 131.021 2.81051 -0.899687 0
M  V30 1361 H 131.102 1.4925 -2.07745 0
M  V30 1362 H 130.746 3.18173 -3.95889 0
M  V30 1363 H 130.676 4.48992 -2.75161 0
M  V30 1364 H 133.167 2.99276 -2.30743 0
M  V30 1365 H 133.48 5.7183 -5.19837 0
M  V30 1366 H 131.825 5.14729 -4.66989 0
M  V30 1367 H 135.016 3.65505 -2.92444 0
M  V30 1368 H 135.189 4.89807 -4.24256 0
M  V30 1369 N 128.595 0.856903 1.32268 0
M  V30 1370 C 129.842 0.461386 1.97174 0
M  V30 1371 C 130.17 -0.983491 1.67803 0
M  V30 1372 O 129.425 -1.70541 0.959903 0
M  V30 1373 C 129.724 0.649919 3.51441 0
M  V30 1374 C 129.39 2.0656 4.00804 0
M  V30 1375 C 128.052 2.45279 4.13995 0
M  V30 1376 C 130.404 2.98947 4.26943 0
M  V30 1377 C 127.732 3.75653 4.50668 0
M  V30 1378 C 130.084 4.28822 4.65075 0
M  V30 1379 C 128.748 4.67472 4.76472 0
M  V30 1380 H 128.018 0.168833 0.72151 0
M  V30 1381 H 130.665 1.08739 1.57633 0
M  V30 1382 H 128.97 -0.0593018 3.91755 0
M  V30 1383 H 130.667 0.32391 3.9969 0
M  V30 1384 H 127.257 1.75495 3.91024 0
M  V30 1385 H 131.441 2.70265 4.16258 0
M  V30 1386 H 126.697 4.05379 4.57688 0
M  V30 1387 H 130.871 5.0047 4.84255 0
M  V30 1388 H 128.498 5.68539 5.04646 0
M  V30 1389 N 130.073 -1.45103 0.615059 0
M  V30 1390 C 131.036 -2.29025 -0.0895485 0
M  V30 1391 C 132.036 -1.40174 -0.787906 0
M  V30 1392 O 133.226 -1.62217 -0.634933 0
M  V30 1393 C 130.358 -3.21376 -1.13711 0
M  V30 1394 H 131.551 -2.92807 0.648382 0
M  V30 1395 H 129.104 -1.51749 0.374444 0
M  V30 1396 H 129.839 -2.6241 -1.90556 0
M  V30 1397 H 129.624 -3.86834 -0.640475 0
M  V30 1398 H 131.114 -3.84459 -1.63036 0
M  V30 1399 N 131.551 -0.354651 -1.53558 0
M  V30 1400 C 132.781 0.239167 -2.05211 0
M  V30 1401 C 133.189 1.43879 -1.22863 0
M  V30 1402 O 132.532 1.81857 -0.259565 0
M  V30 1403 C 132.594 0.707251 -3.52474 0
M  V30 1404 C 132.258 -0.374212 -4.55465 0
M  V30 1405 C 133.255 -1.22054 -5.0537 0
M  V30 1406 C 130.94 -0.531323 -4.99482 0
M  V30 1407 C 132.934 -2.20942 -5.97882 0
M  V30 1408 C 130.621 -1.52358 -5.91802 0
M  V30 1409 C 131.619 -2.36108 -6.40892 0
M  V30 1410 O 131.307 -3.33643 -7.31394 0
M  V30 1411 H 131.039 0.0479716 -0.674296 0
M  V30 1412 H 133.593 -0.508121 -1.99016 0
M  V30 1413 H 131.823 1.50596 -3.56171 0
M  V30 1414 H 133.512 1.22285 -3.87042 0
M  V30 1415 H 134.278 -1.1103 -4.7212 0
M  V30 1416 H 130.157 0.110738 -4.60867 0
M  V30 1417 H 133.701 -2.86348 -6.36121 0
M  V30 1418 H 129.598 -1.63434 -6.24467 0
M  V30 1419 H 130.366 -3.29244 -7.4936 0
M  V30 1420 N 133.029 1.57378 -0.0835403 0
M  V30 1421 C 134.259 1.97975 0.590713 0
M  V30 1422 C 134.667 0.961083 1.62972 0
M  V30 1423 O 134.01 -0.0590879 1.83605 0
M  V30 1424 C 134.072 3.34915 1.3066 0
M  V30 1425 C 133.736 4.55069 0.419698 0
M  V30 1426 C 134.733 5.18868 -0.32749 0
M  V30 1427 C 132.418 5.0114 0.341137 0
M  V30 1428 C 134.412 6.27098 -1.14134 0
M  V30 1429 C 132.099 6.0924 -0.476374 0
M  V30 1430 C 133.097 6.72083 -1.21627 0
M  V30 1431 O 132.785 7.781 -2.02028 0
M  V30 1432 H 132.517 0.655818 0.163947 0
M  V30 1433 H 135.071 2.04807 -0.156021 0
M  V30 1434 H 133.301 3.24733 2.09966 0
M  V30 1435 H 134.99 3.60037 1.87424 0
M  V30 1436 H 135.756 4.84211 -0.276459 0
M  V30 1437 H 131.635 4.51996 0.90668 0
M  V30 1438 H 135.179 6.7608 -1.71935 0
M  V30 1439 H 131.076 6.43329 -0.528927 0
M  V30 1440 H 131.844 7.95034 -1.94586 0
M  V30 1441 N 134.507 -0.190092 1.56449 0
M  V30 1442 C 135.454 -1.23557 1.94942 0
M  V30 1443 C 136.424 -1.44972 0.810696 0
M  V30 1444 O 137.609 -1.58023 1.06927 0
M  V30 1445 C 134.749 -2.57416 2.2985 0
M  V30 1446 C 133.862 -2.43537 3.5681 0
M  V30 1447 C 132.997 -3.70134 3.81017 0
M  V30 1448 C 132.036 -3.51109 5.01387 0
M  V30 1449 N 131.173 -4.6973 5.21822 0
M  V30 1450 H 136.013 -0.900304 2.84075 0
M  V30 1451 H 133.55 -0.43318 1.40577 0
M  V30 1452 H 135.508 -3.35409 2.48106 0
M  V30 1453 H 134.138 -2.88975 1.43852 0
M  V30 1454 H 133.19 -1.56816 3.46573 0
M  V30 1455 H 134.502 -2.25415 4.4496 0
M  V30 1456 H 133.656 -4.56566 3.9954 0
M  V30 1457 H 132.395 -3.91215 2.91207 0
M  V30 1458 H 131.4 -2.63063 4.82782 0
M  V30 1459 H 132.625 -3.31468 5.9271 0
M  V30 1460 H 130.571 -4.91065 4.34961 0
M  V30 1461 H 130.488 -4.54452 6.0416 0
M  V30 1462 H 131.756 -5.57499 5.44808 0
M  V30 1463 N 135.985 -1.50799 -0.457987 0
M  V30 1464 C 136.915 -1.73553 -1.5621 0
M  V30 1465 C 137.896 -0.584774 -1.59732 0
M  V30 1466 O 139.081 -0.825314 -1.7579 0
M  V30 1467 C 136.211 -1.84169 -2.94447 0
M  V30 1468 C 135.165 -2.99461 -3.0579 0
M  V30 1469 C 134.491 -2.95235 -4.45803 0
M  V30 1470 C 135.791 -4.39766 -2.81786 0
M  V30 1471 H 137.485 -2.66 -1.37421 0
M  V30 1472 H 135.031 -1.28002 -0.659662 0
M  V30 1473 H 136.984 -1.98672 -3.71628 0
M  V30 1474 H 135.708 -0.883545 -3.14422 0
M  V30 1475 H 134.367 -2.8463 -2.31044 0
M  V30 1476 H 134.015 -1.97239 -4.62715 0
M  V30 1477 H 133.715 -3.72642 -4.54326 0
M  V30 1478 H 135.239 -3.11803 -5.24987 0
M  V30 1479 H 136.653 -4.55054 -3.4871 0
M  V30 1480 H 135.05 -5.18722 -3.0174 0
M  V30 1481 H 136.12 -4.51229 -1.7754 0
M  V30 1482 N 137.463 0.71206 -1.40597 0
M  V30 1483 C 138.393 1.83889 -1.43899 0
M  V30 1484 C 139.374 1.67442 -0.299504 0
M  V30 1485 O 140.559 1.87421 -0.508624 0
M  V30 1486 C 137.689 3.21877 -1.30431 0
M  V30 1487 C 136.643 3.53002 -2.42019 0
M  V30 1488 C 135.969 4.90172 -2.13626 0
M  V30 1489 C 137.269 3.53643 -3.84362 0
M  V30 1490 H 138.963 1.81383 -2.38203 0
M  V30 1491 H 136.509 0.871237 -1.14654 0
M  V30 1492 H 138.462 4.00404 -1.31357 0
M  V30 1493 H 137.186 3.24968 -0.326049 0
M  V30 1494 H 135.845 2.76818 -2.40349 0
M  V30 1495 H 135.493 4.89869 -1.14182 0
M  V30 1496 H 135.193 5.11962 -2.88389 0
M  V30 1497 H 136.717 5.71028 -2.1624 0
M  V30 1498 H 138.131 4.22203 -3.87837 0
M  V30 1499 H 136.528 3.86961 -4.58673 0
M  V30 1500 H 137.598 2.52954 -4.13693 0
M  V30 1501 N 138.941 1.26152 0.944643 0
M  V30 1502 C 139.888 1.07408 2.04285 0
M  V30 1503 C 140.858 -0.0198413 1.66088 0
M  V30 1504 O 142.043 0.139264 1.90291 0
M  V30 1505 C 139.183 0.70945 3.37729 0
M  V30 1506 C 138.296 1.87926 3.88983 0
M  V30 1507 C 137.431 1.45807 5.10797 0
M  V30 1508 C 136.47 2.5964 5.54305 0
M  V30 1509 N 135.607 2.18226 6.67324 0
M  V30 1510 H 140.447 2.01389 2.1965 0
M  V30 1511 H 137.984 1.00275 1.07626 0
M  V30 1512 H 139.942 0.478948 4.14442 0
M  V30 1513 H 138.572 -0.193389 3.2222 0
M  V30 1514 H 137.624 2.22279 3.08701 0
M  V30 1515 H 138.936 2.73377 4.17213 0
M  V30 1516 H 138.09 1.18781 5.94959 0
M  V30 1517 H 136.829 0.574414 4.84305 0
M  V30 1518 H 135.834 2.87399 4.68702 0
M  V30 1519 H 137.059 3.48599 5.828 0
M  V30 1520 H 135.005 1.3229 6.42523 0
M  V30 1521 H 134.922 2.97221 6.95123 0
M  V30 1522 H 136.19 1.94403 7.54869 0
M  V30 1523 N 140.419 -1.14872 1.07899 0
M  V30 1524 C 141.366 -2.19791 0.704319 0
M  V30 1525 C 142.336 -1.63238 -0.306987 0
M  V30 1526 O 143.521 -1.8983 -0.192171 0
M  V30 1527 C 140.661 -3.44911 0.114244 0
M  V30 1528 C 139.774 -4.15637 1.1777 0
M  V30 1529 C 138.909 -5.28324 0.552037 0
M  V30 1530 C 137.948 -5.90875 1.59789 0
M  V30 1531 N 137.085 -6.95022 0.994404 0
M  V30 1532 H 141.925 -2.5119 1.60336 0
M  V30 1533 H 139.462 -1.23356 0.801352 0
M  V30 1534 H 141.42 -4.16477 -0.245544 0
M  V30 1535 H 140.05 -3.14011 -0.74813 0
M  V30 1536 H 139.102 -3.42512 1.65499 0
M  V30 1537 H 140.414 -4.5823 1.97046 0
M  V30 1538 H 139.568 -6.06538 0.1402 0
M  V30 1539 H 138.307 -4.86939 -0.272431 0
M  V30 1540 H 137.312 -5.11369 2.01945 0
M  V30 1541 H 138.537 -6.34337 2.42474 0
M  V30 1542 H 136.483 -6.55722 0.190939 0
M  V30 1543 H 136.4 -7.36073 1.72432 0
M  V30 1544 H 137.668 -7.77123 0.608253 0
M  V30 1545 N 141.898 -0.863906 -1.31812 0
M  V30 1546 C 142.861 -0.320212 -2.26952 0
M  V30 1547 C 143.861 0.525369 -1.51975 0
M  V30 1548 O 145.051 0.335547 -1.70938 0
M  V30 1549 C 142.183 0.545919 -3.365 0
M  V30 1550 H 143.376 -1.16004 -2.76556 0
M  V30 1551 H 140.929 -0.638995 -1.42641 0
M  V30 1552 H 141.664 1.40718 -2.92179 0
M  V30 1553 H 141.449 -0.0594674 -3.92055 0
M  V30 1554 H 142.939 0.918796 -4.07367 0
M  V30 1555 N 143.376 1.44774 -0.622745 0
M  V30 1556 C 144.653 1.95522 -0.0551974 0
M  V30 1557 C 145.033 1.5649 1.41683 0
M  V30 1558 O 144.381 0.834848 2.12703 0
M  V30 1559 C 144.591 3.4796 -0.269242 0
M  V30 1560 C 145.939 4.24306 -0.158014 0
M  V30 1561 O 146.963 3.55637 -0.200162 0
M  V30 1562 O 145.822 5.46471 -0.0558693 0
M  V30 1563 H 142.916 0.826556 0.0271015 0
M  V30 1564 H 145.462 1.54866 -0.693864 0
M  V30 1565 H 144.234 3.6939 -1.29099 0
M  V30 1566 H 143.857 3.95543 0.403966 0
M  V30 1567 N 144.854 0.36279 1.53368 0
M  V30 1568 C 145.764 -0.492994 2.29362 0
M  V30 1569 C 146.78 -1.09507 1.35219 0
M  V30 1570 O 147.956 -1.10662 1.68273 0
M  V30 1571 C 145.021 -1.61855 3.066 0
M  V30 1572 C 144.082 -1.04429 4.16405 0
M  V30 1573 C 143.315 -2.11621 4.89951 0
M  V30 1574 O 143.538 -3.32684 4.63333 0
M  V30 1575 O 142.472 -1.74835 5.75948 0
M  V30 1576 H 146.298 0.125331 3.03441 0
M  V30 1577 H 143.883 0.127253 1.48857 0
M  V30 1578 H 145.765 -2.27302 3.54841 0
M  V30 1579 H 144.44 -2.22233 2.3536 0
M  V30 1580 H 143.347 -0.353819 3.72423 0
M  V30 1581 H 144.68 -0.485113 4.89804 0
M  V30 1582 N 146.332 -1.57332 0.0918853 0
M  V30 1583 C 147.58 -1.93853 -0.571446 0
M  V30 1584 C 147.901 -0.974212 -1.6892 0
M  V30 1585 O 147.171 -0.0257254 -1.95883 0
M  V30 1586 H 145.751 -0.715666 -0.214082 0
M  V30 1587 H 148.413 -1.94287 0.154464 0
M  V30 1588 H 147.509 -2.96191 -0.983729 0
M  V30 1589 N 147.81 0.181792 -1.56548 0
M  V30 1590 C 148.74 1.22765 -1.98623 0
M  V30 1591 C 149.721 1.46747 -0.860189 0
M  V30 1592 O 150.906 1.58259 -1.12551 0
M  V30 1593 C 148.036 2.56894 -2.33715 0
M  V30 1594 C 146.99 2.475 -3.49182 0
M  V30 1595 C 146.316 3.86023 -3.69986 0
M  V30 1596 C 147.616 1.98866 -4.82959 0
M  V30 1597 H 149.31 0.877942 -2.86239 0
M  V30 1598 H 146.856 0.42088 -1.37712 0
M  V30 1599 H 148.809 3.30253 -2.61746 0
M  V30 1600 H 147.533 2.93632 -1.42997 0
M  V30 1601 H 146.192 1.76596 -3.21262 0
M  V30 1602 H 145.84 4.20136 -2.76576 0
M  V30 1603 H 145.54 3.80609 -4.47672 0
M  V30 1604 H 147.064 4.60984 -4.00407 0
M  V30 1605 H 148.478 2.61992 -5.09934 0
M  V30 1606 H 146.875 2.04424 -5.64208 0
M  V30 1607 H 147.945 0.942465 -4.75653 0
M  V30 1608 N 149.288 1.51039 0.449983 0
M  V30 1609 C 150.251 1.70863 1.5277 0
M  V30 1610 C 151.251 0.578846 1.5002 0
M  V30 1611 O 152.441 0.846213 1.52266 0
M  V30 1612 C 149.573 1.75341 2.9235 0
M  V30 1613 H 150.766 2.67034 1.36502 0
M  V30 1614 H 148.319 1.40838 0.677812 0
M  V30 1615 H 149.054 0.809383 3.14037 0
M  V30 1616 H 148.839 2.57436 2.95752 0
M  V30 1617 H 150.329 1.92559 3.70555 0
M  V30 1618 N 150.766 -0.704594 1.40972 0
M  V30 1619 C 151.991 -1.49858 1.43378 0
M  V30 1620 C 152.416 -1.88061 0.038184 0
M  V30 1621 O 151.774 -1.5402 -0.956425 0
M  V30 1622 C 151.822 -2.74333 2.34038 0
M  V30 1623 O 150.926 -3.7147 1.7912 0
M  V30 1624 H 150.267 -0.45139 0.486974 0
M  V30 1625 H 152.797 -0.866832 1.8533 0
M  V30 1626 H 152.807 -3.22741 2.49604 0
M  V30 1627 H 151.482 -2.45863 3.35446 0
M  V30 1628 H 150.059 -3.30363 1.72958 0
M  V30 1629 N 152.244 -1.26651 -0.937939 0
M  V30 1630 C 153.174 -1.10993 -2.05433 0
M  V30 1631 C 154.155 -0.0142161 -1.70094 0
M  V30 1632 O 155.34 -0.186837 -1.93299 0
M  V30 1633 C 152.47 -0.745561 -3.39203 0
M  V30 1634 C 151.424 -1.79337 -3.88616 0
M  V30 1635 C 150.75 -1.28324 -5.19073 0
M  V30 1636 C 152.05 -3.19553 -4.13138 0
M  V30 1637 H 153.744 -2.0438 -2.1879 0
M  V30 1638 H 151.29 -0.984041 -1.05131 0
M  V30 1639 H 153.243 -0.622888 -4.16771 0
M  V30 1640 H 151.967 0.22401 -3.25831 0
M  V30 1641 H 150.626 -1.90477 -3.13231 0
M  V30 1642 H 150.274 -0.303414 -5.02084 0
M  V30 1643 H 149.974 -1.98369 -5.53103 0
M  V30 1644 H 151.498 -1.1733 -5.99221 0
M  V30 1645 H 152.912 -3.11471 -4.81309 0
M  V30 1646 H 151.309 -3.87218 -4.58457 0
M  V30 1647 H 152.379 -3.65368 -3.18801 0
M  V30 1648 N 153.722 1.14298 -1.08507 0
M  V30 1649 C 154.947 1.8976 -0.837001 0
M  V30 1650 C 155.372 1.78097 0.605228 0
M  V30 1651 O 154.73 1.12188 1.4242 0
M  V30 1652 C 154.778 3.37685 -1.26495 0
M  V30 1653 O 153.882 4.10281 -0.417514 0
M  V30 1654 H 153.223 0.590365 -0.303917 0
M  V30 1655 H 155.753 1.44672 -1.44676 0
M  V30 1656 H 155.763 3.88501 -1.24625 0
M  V30 1657 H 154.438 3.45492 -2.31534 0
M  V30 1658 H 153.015 3.69536 -0.499722 0
M  V30 1659 N 155.201 0.870884 1.31352 0
M  V30 1660 C 156.111 0.330783 2.32256 0
M  V30 1661 C 157.127 -0.559767 1.6475 0
M  V30 1662 O 158.303 -0.456263 1.96164 0
M  V30 1663 C 155.368 -0.458137 3.4366 0
M  V30 1664 C 154.429 0.460482 4.26823 0
M  V30 1665 C 153.662 -0.290881 5.32907 0
M  V30 1666 O 153.885 -1.51885 5.49806 0
M  V30 1667 O 152.819 0.351732 6.00871 0
M  V30 1668 H 156.645 1.16718 2.80376 0
M  V30 1669 H 154.23 0.634285 1.35267 0
M  V30 1670 H 156.112 -0.905343 4.1156 0
M  V30 1671 H 154.787 -1.27106 2.97701 0
M  V30 1672 H 153.694 0.956207 3.61673 0
M  V30 1673 H 155.027 1.23903 4.7635 0
M  V30 1674 N 156.679 -1.44442 0.630414 0
M  V30 1675 C 157.956 -1.9549 0.0655657 0
M  V30 1676 C 158.336 -1.5724 -1.40851 0
M  V30 1677 O 157.684 -0.846116 -2.12257 0
M  V30 1678 C 157.894 -3.47812 0.287691 0
M  V30 1679 C 159.242 -4.24216 0.180513 0
M  V30 1680 O 160.266 -3.55526 0.219019 0
M  V30 1681 O 159.125 -5.46434 0.0848493 0
M  V30 1682 H 156.219 -0.826688 -0.0227177 0
M  V30 1683 H 158.765 -1.54496 0.702068 0
M  V30 1684 H 157.537 -3.687 1.31056 0
M  V30 1685 H 157.16 -3.95751 -0.382984 0
M  V30 1686 N 158.157 -0.370918 -1.53173 0
M  V30 1687 C 159.405 0.216673 -2.00935 0
M  V30 1688 C 159.726 1.48845 -1.25977 0
M  V30 1689 O 158.996 1.92286 -0.374551 0
M  V30 1690 H 157.576 0.0830565 -0.742368 0
M  V30 1691 H 160.238 -0.49838 -1.8842 0
M  V30 1692 H 159.334 0.439893 -3.08984 0
M  V30 1693 N 159.635 1.57281 -0.100228 0
M  V30 1694 C 161.051 1.57527 0.256416 0
M  V30 1695 C 161.251 1.11173 1.68056 0
M  V30 1696 O 160.307 0.79053 2.39806 0
M  V30 1697 C 161.62 3.00673 0.0401747 0
M  V30 1698 C 163.168 3.12815 0.107528 0
M  V30 1699 C 163.643 4.57929 -0.0807834 0
M  V30 1700 N 165.134 4.63193 -0.0261207 0
M  V30 1701 C 165.869 5.73212 -0.146999 0
M  V30 1702 N 165.365 6.92047 -0.322999 0
M  V30 1703 N 167.158 5.62031 -0.0879044 0
M  V30 1704 H 159.309 1.85718 -1.03065 0
M  V30 1705 H 161.572 0.857446 -0.404339 0
M  V30 1706 H 161.278 3.38804 -0.943649 0
M  V30 1707 H 161.152 3.69042 0.780262 0
M  V30 1708 H 163.539 2.74554 1.08186 0
M  V30 1709 H 163.62 2.47028 -0.664134 0
M  V30 1710 H 163.264 4.96886 -1.05201 0
M  V30 1711 H 163.194 5.21783 0.710635 0
M  V30 1712 H 165.685 3.77748 0.107161 0
M  V30 1713 H 165.998 7.7173 -0.406608 0
M  V30 1714 H 164.343 6.94074 -0.358733 0
M  V30 1715 H 167.534 4.68075 0.048498 0
M  V30 1716 H 167.707 6.47734 -0.185557 0
M  V30 1717 N 161.113 -0.173488 1.56642 0
M  V30 1718 C 162.338 -0.910149 1.86363 0
M  V30 1719 C 162.763 -1.75132 0.686318 0
M  V30 1720 O 162.121 -1.77595 -0.364643 0
M  V30 1721 C 162.169 -1.76447 3.14482 0
M  V30 1722 O 161.273 -2.86584 2.96553 0
M  V30 1723 H 160.614 -0.255086 0.613047 0
M  V30 1724 H 163.144 -0.172283 2.03873 0
M  V30 1725 H 163.154 -2.16483 3.45831 0
M  V30 1726 H 161.829 -1.14658 3.99783 0
M  V30 1727 H 160.406 -2.50146 2.76553 0
M  V30 1728 N 162.591 -1.51276 -0.441967 0
M  V30 1729 C 164.002 -1.56244 -1.02199 0
M  V30 1730 C 164.353 -0.383149 -1.92422 0
M  V30 1731 O 163.478 0.500613 -2.1053 0
M  V30 1732 C 164.073 -2.83162 -1.86024 0
M  V30 1733 C 162.632 -2.90716 -2.39084 0
M  V30 1734 C 161.779 -2.50858 -1.18175 0
M  V30 1735 H 164.73 -1.5712 -0.223416 0
M  V30 1736 H 164.751 -2.66663 -2.71425 0
M  V30 1737 H 164.263 -3.68974 -1.20331 0
M  V30 1738 H 162.364 -2.09323 -3.08244 0
M  V30 1739 H 162.477 -3.94266 -2.72198 0
M  V30 1740 H 160.841 -2.03951 -1.52565 0
M  V30 1741 H 161.624 -3.3901 -0.541001 0
M  V30 1742 N 164.069 0.697108 -1.41344 0
M  V30 1743 C 165.318 1.45279 -1.39918 0
M  V30 1744 C 165.631 1.95597 -0.0109624 0
M  V30 1745 O 166.837 2.71208 0.125919 0
M  V30 1746 C 165.293 2.62695 -2.46007 0
M  V30 1747 C 164.901 2.19169 -3.90729 0
M  V30 1748 C 166.645 3.40336 -2.53715 0
M  V30 1749 C 164.552 3.33535 -4.88373 0
M  V30 1750 H 163.482 0.545692 -0.520323 0
M  V30 1751 H 166.133 0.756929 -1.67161 0
M  V30 1752 H 164.515 3.34541 -2.11892 0
M  V30 1753 H 165.689 1.54623 -4.34083 0
M  V30 1754 H 164.004 1.54525 -3.86666 0
M  V30 1755 H 166.601 4.2547 -3.2385 0
M  V30 1756 H 166.944 3.85418 -1.5735 0
M  V30 1757 H 167.477 2.75546 -2.86913 0
M  V30 1758 H 164.216 2.93468 -5.86137 0
M  V30 1759 H 163.736 3.96936 -4.49668 0
M  V30 1760 H 165.415 3.99335 -5.09059 0
M  V30 1761 N 165.547 1.27147 0.931209 0
M  V30 1762 C 166.772 1.16191 1.71797 0
M  V30 1763 C 167.197 -0.278004 1.86034 0
M  V30 1764 O 166.555 -1.20137 1.35782 0
M  V30 1765 C 166.603 1.84673 3.09723 0
M  V30 1766 O 165.707 1.14231 3.96264 0
M  V30 1767 H 165.048 0.404303 0.526721 0
M  V30 1768 H 167.578 1.68152 1.1656 0
M  V30 1769 H 167.588 1.91893 3.60057 0
M  V30 1770 H 166.263 2.89421 2.98677 0
M  V30 1771 H 164.84 1.15056 3.54706 0
M  V30 1772 N 167.025 -1.13721 1.09112 0
M  V30 1773 C 168.274 -1.84275 0.82009 0
M  V30 1774 C 168.587 -1.84253 -0.656509 0
M  V30 1775 O 169.793 -2.50668 -1.04296 0
M  V30 1776 C 168.249 -3.30825 1.41714 0
M  V30 1777 C 167.857 -3.39244 2.92605 0
M  V30 1778 C 169.601 -4.06443 1.22492 0
M  V30 1779 C 167.508 -4.80047 3.45411 0
M  V30 1780 H 166.438 -0.690387 0.30312 0
M  V30 1781 H 169.089 -1.28146 1.31343 0
M  V30 1782 H 167.471 -3.86737 0.851498 0
M  V30 1783 H 168.645 -2.93344 3.55367 0
M  V30 1784 H 166.96 -2.77088 3.10823 0
M  V30 1785 H 169.557 -5.10387 1.59402 0
M  V30 1786 H 169.9 -4.15972 0.165299 0
M  V30 1787 H 170.433 -3.56852 1.75788 0
M  V30 1788 H 167.172 -4.75709 4.50978 0
M  V30 1789 H 166.692 -5.26455 2.87411 0
M  V30 1790 H 168.371 -5.48957 3.42425 0
M  V30 1791 N 168.503 -0.877838 -1.30888 0
M  V30 1792 C 169.919 -0.570844 -1.49042 0
M  V30 1793 C 170.119 0.893159 -1.80624 0
M  V30 1794 O 169.175 1.67485 -1.88958 0
M  V30 1795 C 170.488 -1.47784 -2.61878 0
M  V30 1796 C 172.036 -1.48071 -2.75761 0
M  V30 1797 C 172.511 -2.37347 -3.91702 0
M  V30 1798 N 174.002 -2.35271 -3.99001 0
M  V30 1799 C 174.737 -3.01063 -4.88004 0
M  V30 1800 N 174.233 -3.76055 -5.81854 0
M  V30 1801 N 176.026 -2.90332 -4.81315 0
M  V30 1802 H 168.177 -1.82502 -1.0866 0
M  V30 1803 H 170.44 -0.780797 -0.537644 0
M  V30 1804 H 170.146 -2.51993 -2.45341 0
M  V30 1805 H 170.02 -1.18215 -3.58197 0
M  V30 1806 H 172.407 -0.446166 -2.91708 0
M  V30 1807 H 172.488 -1.81668 -1.80085 0
M  V30 1808 H 172.132 -3.40883 -3.76512 0
M  V30 1809 H 172.062 -2.01071 -4.86701 0
M  V30 1810 H 174.553 -1.80768 -3.3186 0
M  V30 1811 H 174.866 -4.23366 -6.46514 0
M  V30 1812 H 173.211 -3.80163 -5.81808 0
M  V30 1813 H 176.402 -2.31278 -4.06974 0
M  V30 1814 H 176.575 -3.41885 -5.50471 0
M  V30 1815 N 169.982 1.44106 -0.638065 0
M  V30 1816 C 170.914 2.28976 0.101205 0
M  V30 1817 C 171.927 1.4167 0.802088 0
M  V30 1818 O 173.116 1.65755 0.662375 0
M  V30 1819 C 170.216 3.18217 1.16581 0
M  V30 1820 C 169.389 4.33978 0.546066 0
M  V30 1821 C 168.448 5.04202 1.50554 0
M  V30 1822 O 167.474 5.59986 1.01999 0
M  V30 1823 N 168.676 5.06296 2.8398 0
M  V30 1824 H 171.441 2.93064 -0.627186 0
M  V30 1825 H 169.002 1.54629 -0.479731 0
M  V30 1826 H 170.994 3.62061 1.80815 0
M  V30 1827 H 169.564 2.55833 1.79634 0
M  V30 1828 H 168.784 3.93239 -0.275046 0
M  V30 1829 H 170.072 5.08675 0.112793 0
M  V30 1830 H 169.47 4.62319 3.26002 0
M  V30 1831 H 168.027 5.53907 3.43556 0
M  V30 1832 N 171.46 0.379036 1.52974 0
M  V30 1833 C 172.393 -0.504932 2.22544 0
M  V30 1834 C 173.371 -1.0723 1.22231 0
M  V30 1835 O 174.555 -1.12589 1.51182 0
M  V30 1836 C 171.682 -1.69794 2.93066 0
M  V30 1837 C 170.728 -1.25678 4.07563 0
M  V30 1838 S 171.561 -0.246852 5.34931 0
M  V30 1839 C 172.717 -1.44588 6.08971 0
M  V30 1840 H 172.95 0.0858666 2.97176 0
M  V30 1841 H 170.483 0.163183 1.53535 0
M  V30 1842 H 172.441 -2.38219 3.34308 0
M  V30 1843 H 171.102 -2.26002 2.18133 0
M  V30 1844 H 170.295 -2.14725 4.5597 0
M  V30 1845 H 169.897 -0.651584 3.6828 0
M  V30 1846 H 172.189 -2.37469 6.34519 0
M  V30 1847 H 173.132 -1.00292 7.00962 0
M  V30 1848 H 173.54 -1.65804 5.39601 0
M  V30 1849 N 172.938 -1.57226 0.108567 0
M  V30 1850 C 173.901 -2.13602 -0.831082 0
M  V30 1851 C 174.901 -1.06841 -1.20173 0
M  V30 1852 O 176.091 -1.32666 -1.12895 0
M  V30 1853 C 173.223 -2.66769 -2.12243 0
M  V30 1854 H 174.416 -2.97951 -0.341317 0
M  V30 1855 H 171.969 -1.55667 -0.14057 0
M  V30 1856 H 172.704 -1.85977 -2.65675 0
M  V30 1857 H 172.489 -3.44839 -1.86625 0
M  V30 1858 H 173.979 -3.10332 -2.79435 0
M  V30 1859 N 174.416 0.165178 -1.56732 0
M  V30 1860 C 175.646 0.894919 -1.86212 0
M  V30 1861 C 176.054 1.76066 -0.692627 0
M  V30 1862 O 175.397 1.80387 0.347303 0
M  V30 1863 C 175.459 1.8174 -3.10179 0
M  V30 1864 C 175.123 1.13064 -4.42793 0
M  V30 1865 C 176.12 0.493169 -5.17556 0
M  V30 1866 C 173.805 1.12556 -4.89527 0
M  V30 1867 C 175.799 -0.140209 -6.37246 0
M  V30 1868 C 173.486 0.488366 -6.09145 0
M  V30 1869 C 174.484 -0.143411 -6.82849 0
M  V30 1870 O 174.172 -0.77055 -8.00199 0
M  V30 1871 H 173.904 0.265114 -0.621844 0
M  V30 1872 H 176.458 0.168242 -2.0471 0
M  V30 1873 H 174.688 2.58455 -2.87642 0
M  V30 1874 H 176.377 2.4175 -3.26055 0
M  V30 1875 H 177.143 0.489023 -4.82528 0
M  V30 1876 H 173.022 1.60672 -4.32094 0
M  V30 1877 H 176.566 -0.633932 -6.94714 0
M  V30 1878 H 172.463 0.490116 -6.43637 0
M  V30 1879 H 173.231 -0.670408 -8.1575 0
M  V30 1880 N 175.894 1.51508 0.433938 0
M  V30 1881 C 177.14 1.64588 1.18484 0
M  V30 1882 C 177.473 0.362666 1.90784 0
M  V30 1883 O 176.748 -0.637892 1.83742 0
M  V30 1884 C 177.031 2.85149 2.19913 0
M  V30 1885 C 176.884 4.23456 1.51674 0
M  V30 1886 C 178.203 3.01227 3.20858 0
M  V30 1887 H 175.322 0.598994 0.429389 0
M  V30 1888 H 177.964 1.84002 0.473647 0
M  V30 1889 H 176.114 2.68729 2.80566 0
M  V30 1890 H 177.786 4.51552 0.943322 0
M  V30 1891 H 176.029 4.25998 0.819035 0
M  V30 1892 H 176.7 5.03812 2.2556 0
M  V30 1893 H 179.176 3.16382 2.70263 0
M  V30 1894 H 178.052 3.87141 3.89118 0
M  V30 1895 H 178.313 2.13447 3.8716 0
M  V30 1896 N 177.372 -0.689602 1.41712 0
M  V30 1897 C 178.597 -1.48329 1.44959 0
M  V30 1898 C 179.022 -1.8801 0.0581283 0
M  V30 1899 O 178.38 -1.55026 -0.940035 0
M  V30 1900 C 178.428 -2.71835 2.36935 0
M  V30 1901 O 177.532 -3.69549 1.8305 0
M  V30 1902 H 176.873 -0.446199 0.491734 0
M  V30 1903 H 179.403 -0.847127 1.86239 0
M  V30 1904 H 179.413 -3.20076 2.53013 0
M  V30 1905 H 178.088 -2.42291 3.38035 0
M  V30 1906 H 176.665 -3.2851 1.76452 0
M  V30 1907 N 178.85 -1.27639 -0.924453 0
M  V30 1908 C 180.098 -1.13941 -1.66918 0
M  V30 1909 C 180.419 0.314589 -1.92446 0
M  V30 1910 O 179.689 1.21964 -1.53303 0
M  V30 1911 H 178.269 -0.418678 -0.618642 0
M  V30 1912 H 180.931 -1.60213 -1.10985 0
M  V30 1913 H 180.027 -1.67094 -2.63602 0
M  V30 1914 N 180.328 1.1314 -1.09713 0
M  V30 1915 C 181.258 2.20748 -0.761102 0
M  V30 1916 C 182.239 1.68061 0.262566 0
M  V30 1917 O 183.424 1.93765 0.129977 0
M  V30 1918 C 180.554 3.46812 -0.184054 0
M  V30 1919 C 179.508 4.12606 -1.13757 0
M  V30 1920 C 178.834 5.33031 -0.422083 0
M  V30 1921 C 180.134 4.59603 -2.48118 0
M  V30 1922 H 181.828 2.49113 -1.66082 0
M  V30 1923 H 179.374 1.19734 -0.799987 0
M  V30 1924 H 181.327 4.21353 0.0631215 0
M  V30 1925 H 180.051 3.17851 0.750868 0
M  V30 1926 H 178.71 3.40036 -1.37007 0
M  V30 1927 H 178.358 5.00335 0.517072 0
M  V30 1928 H 178.058 5.77999 -1.05788 0
M  V30 1929 H 179.582 6.10325 -0.183277 0
M  V30 1930 H 180.996 5.25552 -2.29059 0
M  V30 1931 H 179.393 5.15321 -3.07514 0
M  V30 1932 H 180.463 3.73971 -3.08665 0
M  V30 1933 N 181.806 0.884767 1.30421 0
M  V30 1934 C 183.031 0.517288 2.00845 0
M  V30 1935 C 183.456 -0.886779 1.65885 0
M  V30 1936 O 182.814 -1.58768 0.875354 0
M  V30 1937 C 182.862 0.698994 3.5376 0
M  V30 1938 O 181.966 -0.255208 4.1161 0
M  V30 1939 H 181.307 0.203872 0.631927 0
M  V30 1940 H 183.837 1.19225 1.66272 0
M  V30 1941 H 183.847 0.597912 4.03595 0
M  V30 1942 H 182.522 1.72271 3.78544 0
M  V30 1943 H 181.099 -0.10784 3.72744 0
M  V30 1944 N 183.284 -1.43765 0.645699 0
M  V30 1945 C 184.531 -2.01898 0.15604 0
M  V30 1946 C 184.859 -1.50887 -1.22733 0
M  V30 1947 O 184.114 -0.689271 -1.8316 0
M  V30 1948 C 184.413 -3.57238 0.107679 0
M  V30 1949 C 184.079 -4.27564 1.43178 0
M  V30 1950 C 182.741 -4.46492 1.7944 0
M  V30 1951 C 185.093 -4.67454 2.30513 0
M  V30 1952 C 182.421 -5.02573 3.02716 0
M  V30 1953 C 184.773 -5.24901 3.53074 0
M  V30 1954 C 183.437 -5.42046 3.89541 0
M  V30 1955 H 182.707 -0.738797 0.057099 0
M  V30 1956 H 185.354 -1.72341 0.834912 0
M  V30 1957 H 183.659 -3.86293 -0.654618 0
M  V30 1958 H 185.356 -3.99965 -0.287938 0
M  V30 1959 H 181.946 -4.13171 1.13963 0
M  V30 1960 H 186.13 -4.5253 2.0379 0
M  V30 1961 H 181.386 -5.14033 3.31028 0
M  V30 1962 H 185.56 -5.54758 4.20971 0
M  V30 1963 H 183.187 -5.85268 4.85145 0
M  V30 1964 N 184.763 -0.387143 -1.52771 0
M  V30 1965 C 186.011 0.195349 -2.01154 0
M  V30 1966 C 186.332 1.475 -1.27549 0
M  V30 1967 O 185.602 1.91878 -0.394924 0
M  V30 1968 H 184.182 0.075178 -0.743207 0
M  V30 1969 H 186.844 -0.518337 -1.87881 0
M  V30 1970 H 185.94 0.407096 -3.09434 0
M  V30 1971 N 186.241 1.57166 -0.116904 0
M  V30 1972 C 187.49 1.94298 0.541407 0
M  V30 1973 C 187.803 1.00236 1.67964 0
M  V30 1974 O 189.009 1.26826 2.40057 0
M  V30 1975 C 187.465 3.45306 1.01449 0
M  V30 1976 C 187.073 4.47899 -0.0951738 0
M  V30 1977 C 188.817 3.91361 1.6443 0
M  V30 1978 C 186.724 5.90083 0.394491 0
M  V30 1979 H 185.654 0.725308 0.206019 0
M  V30 1980 H 188.305 1.82446 -0.196419 0
M  V30 1981 H 186.687 3.52385 1.80667 0
M  V30 1982 H 187.861 4.52486 -0.871374 0
M  V30 1983 H 186.176 4.11583 -0.631505 0
M  V30 1984 H 188.773 4.95004 2.02176 0
M  V30 1985 H 189.116 3.3122 2.52189 0
M  V30 1986 H 189.649 3.87073 0.917559 0
M  V30 1987 H 186.388 6.53974 -0.447004 0
M  V30 1988 H 185.908 5.88921 1.13722 0
M  V30 1989 H 187.587 6.41307 0.856399 0
M  V30 1990 N 187.719 -0.156864 1.56817 0
M  V30 1991 C 188.968 -0.869504 1.81996 0
M  V30 1992 C 189.281 -1.82777 0.696545 0
M  V30 1993 O 190.487 -2.58384 0.833658 0
M  V30 1994 C 188.943 -1.59679 3.22538 0
M  V30 1995 C 188.551 -0.681431 4.42787 0
M  V30 1996 C 190.295 -2.2968 3.56997 0
M  V30 1997 C 188.202 -1.40978 5.74351 0
M  V30 1998 H 187.132 -0.328438 0.678708 0
M  V30 1999 H 189.783 -0.1223 1.83092 0
M  V30 2000 H 188.165 -2.38927 3.158 0
M  V30 2001 H 189.339 0.0751166 4.60739 0
M  V30 2002 H 187.654 -0.0903431 4.16302 0
M  V30 2003 H 190.251 -2.84794 4.52544 0
M  V30 2004 H 190.594 -3.05707 2.82576 0
M  V30 2005 H 191.127 -1.57361 3.65352 0
M  V30 2006 H 187.866 -0.691561 6.51842 0
M  V30 2007 H 187.386 -2.13929 5.60352 0
M  V30 2008 H 189.065 -1.95337 6.16808 0
M  V30 2009 N 189.197 -1.51736 -0.425897 0
M  V30 2010 C 190.422 -1.69082 -1.20108 0
M  V30 2011 C 190.847 -0.392398 -1.83962 0
M  V30 2012 O 190.205 0.64858 -1.69302 0
M  V30 2013 C 190.253 -2.81604 -2.25237 0
M  V30 2014 O 189.357 -2.46004 -3.30992 0
M  V30 2015 H 188.698 -0.563408 -0.35138 0
M  V30 2016 H 191.228 -1.98358 -0.501512 0
M  V30 2017 H 191.238 -3.06025 -2.69838 0
M  V30 2018 H 189.913 -3.75817 -1.78142 0
M  V30 2019 H 188.49 -2.32195 -2.91787 0
M  V30 2020 N 190.675 0.682077 -1.42076 0
M  V30 2021 C 191.923 1.4393 -1.41876 0
M  V30 2022 C 192.244 1.94971 -0.0335599 0
M  V30 2023 O 191.514 1.72591 0.926773 0
M  V30 2024 H 190.094 0.534085 -0.522267 0
M  V30 2025 H 192.756 0.806427 -1.77434 0
M  V30 2026 H 191.852 2.29588 -2.11414 0
M  V30 2027 N 192.153 1.28127 0.917671 0
M  V30 2028 C 193.399 1.15223 1.66888 0
M  V30 2029 C 193.732 -0.299293 1.9188 0
M  V30 2030 O 193.007 -1.21805 1.51637 0
M  V30 2031 C 193.29 1.94706 3.02922 0
M  V30 2032 C 193.143 3.47898 2.85109 0
M  V30 2033 C 194.462 1.75939 4.03402 0
M  V30 2034 H 191.581 0.419946 0.605652 0
M  V30 2035 H 194.223 1.57398 1.06423 0
M  V30 2036 H 192.373 1.58864 3.54534 0
M  V30 2037 H 194.045 3.93624 2.40537 0
M  V30 2038 H 192.288 3.7373 2.20246 0
M  V30 2039 H 192.959 3.98765 3.81694 0
M  V30 2040 H 195.435 2.07209 3.60837 0
M  V30 2041 H 194.311 2.33931 4.96556 0
M  V30 2042 H 194.572 0.709877 4.36364 0
M  V30 2043 N 193.631 -1.12557 1.10312 0
M  V30 2044 C 194.878 -1.84038 0.844759 0
M  V30 2045 C 195.206 -1.84026 -0.629668 0
M  V30 2046 O 194.461 -1.28026 -1.48013 0
M  V30 2047 C 194.76 -3.31462 1.33669 0
M  V30 2048 C 194.426 -3.51647 2.82232 0
M  V30 2049 C 193.088 -3.56864 3.22802 0
M  V30 2050 C 195.44 -3.58867 3.77974 0
M  V30 2051 C 192.768 -3.66844 4.57867 0
M  V30 2052 C 195.12 -3.70375 5.1284 0
M  V30 2053 C 193.784 -3.73848 5.52986 0
M  V30 2054 H 193.054 -0.673444 0.309119 0
M  V30 2055 H 195.701 -1.32824 1.37949 0
M  V30 2056 H 194.006 -3.85091 0.721949 0
M  V30 2057 H 195.703 -3.85236 1.11329 0
M  V30 2058 H 192.293 -3.48249 2.49842 0
M  V30 2059 H 196.477 -3.54107 3.47738 0
M  V30 2060 H 191.733 -3.67804 4.88396 0
M  V30 2061 H 195.907 -3.74904 5.86873 0
M  V30 2062 H 193.534 -3.81333 6.57639 0
M  V30 2063 N 195.109 -0.891671 -1.2995 0
M  V30 2064 C 196.334 -0.527932 -2.00568 0
M  V30 2065 C 196.759 0.877969 -1.66353 0
M  V30 2066 O 196.117 1.58301 -0.883762 0
M  V30 2067 C 196.165 -0.717745 -3.53385 0
M  V30 2068 O 195.269 0.233376 -4.11739 0
M  V30 2069 H 194.61 -0.20722 -0.630837 0
M  V30 2070 H 197.14 -1.20105 -1.65638 0
M  V30 2071 H 197.15 -0.619307 -4.03272 0
M  V30 2072 H 195.825 -1.74276 -3.77625 0
M  V30 2073 H 194.402 0.0880706 -3.72796 0
M  V30 2074 N 196.587 1.43421 -0.653314 0
M  V30 2075 C 197.833 2.02111 -0.166992 0
M  V30 2076 C 198.166 1.51423 1.21592 0
M  V30 2077 O 197.441 0.707389 1.8118 0
M  V30 2078 C 197.724 3.5966 -0.177948 0
M  V30 2079 C 197.577 4.20579 -1.59478 0
M  V30 2080 C 198.896 4.37413 0.4856 0
M  V30 2081 H 196.015 0.734374 -0.0621557 0
M  V30 2082 H 198.657 1.70717 -0.834016 0
M  V30 2083 H 196.807 3.86537 0.390032 0
M  V30 2084 H 198.479 4.04732 -2.21336 0
M  V30 2085 H 196.722 3.77226 -2.14204 0
M  V30 2086 H 197.393 5.29665 -1.5543 0
M  V30 2087 H 199.869 4.161 0.00234528 0
M  V30 2088 H 198.745 5.47075 0.447207 0
M  V30 2089 H 199.006 4.13672 1.55974 0
M  V30 2090 N 198.065 0.39524 1.52563 0
M  V30 2091 C 199.314 -0.186321 2.00838 0
M  V30 2092 C 199.627 -1.47402 1.28577 0
M  V30 2093 O 200.833 -2.13599 1.67593 0
M  V30 2094 C 199.289 -0.382595 3.57861 0
M  V30 2095 C 198.897 0.892202 4.39026 0
M  V30 2096 C 200.641 -0.9202 4.14406 0
M  V30 2097 C 198.548 0.66388 5.87662 0
M  V30 2098 H 197.478 -0.0734041 0.750418 0
M  V30 2099 H 200.129 0.518552 1.76021 0
M  V30 2100 H 198.511 -1.14946 3.7895 0
M  V30 2101 H 199.685 1.66414 4.29701 0
M  V30 2102 H 198 1.35519 3.9373 0
M  V30 2103 H 200.597 -1.10683 5.23119 0
M  V30 2104 H 200.94 -1.89096 3.70875 0
M  V30 2105 H 201.473 -0.212751 3.97231 0
M  V30 2106 H 198.212 1.6058 6.35527 0
M  V30 2107 H 197.732 -0.0690193 5.9976 0
M  V30 2108 H 199.411 0.300699 6.46301 0
M  V30 2109 N 199.544 -1.57102 0.125237 0
M  V30 2110 C 200.492 -2.16905 -0.839927 0
M  V30 2111 C 201.486 -1.11998 -1.27094 0
M  V30 2112 O 202.692 -1.3029 -1.24195 0
M  V30 2113 H 199.067 -0.694252 -0.288995 0
M  V30 2114 H 201.038 -2.96774 -0.311115 0
M  V30 2115 C 199.787 -2.78795 -2.07771 0
M  V30 2116 H 199.11 -3.59221 -1.755 0
M  V30 2117 H 200.55 -3.2417 -2.73295 0
M  V30 2118 C 199.009 -1.76193 -2.87155 0
M  V30 2119 O 199.539 -1.21909 -3.82755 0
M  V30 2120 N 197.745 -1.45991 -2.51267 0
M  V30 2121 H 197.292 -1.90325 -1.73592 0
M  V30 2122 H 197.25 -0.775844 -3.04677 0
M  V30 2123 N 201.022 0.148545 -1.56898 0
M  V30 2124 C 202.271 0.85984 -1.82454 0
M  V30 2125 C 202.584 1.82406 -0.706229 0
M  V30 2126 O 203.79 2.57938 -0.847349 0
M  V30 2127 C 202.246 1.57967 -3.2338 0
M  V30 2128 C 201.854 0.65794 -4.43142 0
M  V30 2129 C 203.598 2.27784 -3.58211 0
M  V30 2130 C 201.505 1.3793 -5.75091 0
M  V30 2131 H 200.435 0.324834 -0.68044 0
M  V30 2132 H 203.086 0.112588 -1.83154 0
M  V30 2133 H 201.468 2.37249 -3.17063 0
M  V30 2134 H 202.642 -0.0995497 -4.60692 0
M  V30 2135 H 200.957 0.0682643 -4.16344 0
M  V30 2136 H 203.554 2.8239 -4.54048 0
M  V30 2137 H 203.897 3.04204 -2.84193 0
M  V30 2138 H 204.43 1.55421 -3.66182 0
M  V30 2139 H 201.169 0.656982 -6.52199 0
M  V30 2140 H 200.689 2.10954 -5.61479 0
M  V30 2141 H 202.368 1.92063 -6.17835 0
M  V30 2142 N 202.5 1.5196 0.417844 0
M  V30 2143 C 203.43 1.77634 1.51554 0
M  V30 2144 C 204.411 0.626918 1.58126 0
M  V30 2145 O 205.596 0.871632 1.7354 0
M  V30 2146 C 202.726 1.91911 2.8946 0
M  V30 2147 C 201.68 3.07463 2.97743 0
M  V30 2148 C 201.006 3.06951 4.37819 0
M  V30 2149 C 202.306 4.47082 2.70027 0
M  V30 2150 H 204 2.6955 1.3032 0
M  V30 2151 H 201.546 1.29706 0.625492 0
M  V30 2152 H 203.499 2.08455 3.6623 0
M  V30 2153 H 202.223 0.966598 3.11969 0
M  V30 2154 H 200.882 2.90656 2.23416 0
M  V30 2155 H 200.53 2.09438 4.57323 0
M  V30 2156 H 200.23 3.84556 4.44286 0
M  V30 2157 H 201.754 3.25613 5.16535 0
M  V30 2158 H 203.168 4.6414 3.36522 0
M  V30 2159 H 201.565 5.2654 2.87881 0
M  V30 2160 H 202.635 4.55777 1.65514 0
M  V30 2161 N 203.978 -0.674533 1.42435 0
M  V30 2162 C 204.941 -1.76986 1.45632 0
M  V30 2163 C 205.941 -1.5708 0.343871 0
M  V30 2164 O 207.131 -1.63367 0.604709 0
M  V30 2165 C 204.263 -3.15623 1.28822 0
M  V30 2166 H 205.456 -1.75539 2.43158 0
M  V30 2167 H 203.009 -0.884189 1.28887 0
M  V30 2168 H 203.744 -3.22696 0.322193 0
M  V30 2169 H 203.529 -3.31475 2.09444 0
M  V30 2170 H 205.019 -3.95537 1.33942 0
M  V30 2171 N 205.456 -1.28612 -0.910864 0
M  V30 2172 C 206.733 -1.06632 -1.63979 0
M  V30 2173 C 207.113 0.393351 -2.07403 0
M  V30 2174 O 206.461 1.37999 -1.82122 0
M  V30 2175 C 206.671 -2.0436 -2.8291 0
M  V30 2176 C 208.019 -2.34666 -3.5386 0
M  V30 2177 O 209.043 -2.02467 -2.93062 0
M  V30 2178 O 207.902 -2.89631 -4.63439 0
M  V30 2179 H 204.996 -0.407737 -0.7195 0
M  V30 2180 H 207.542 -1.39942 -0.959914 0
M  V30 2181 H 206.314 -3.02727 -2.47936 0
M  V30 2182 H 205.937 -1.71714 -3.58609 0
M  V30 2183 N 206.934 1.1197 -1.10907 0
M  V30 2184 C 207.897 2.16031 -0.765707 0
M  V30 2185 C 208.897 1.59393 0.212235 0
M  V30 2186 O 210.087 1.74196 -0.0115441 0
M  V30 2187 C 207.219 3.40632 -0.135053 0
M  V30 2188 H 208.412 2.47919 -1.68748 0
M  V30 2189 H 205.965 1.27061 -0.910226 0
M  V30 2190 H 206.7 3.14348 0.797218 0
M  V30 2191 H 206.485 3.8302 -0.838937 0
M  V30 2192 H 207.975 4.17505 0.0892469 0
M  V30 2193 N 208.412 0.89855 1.29475 0
M  V30 2194 C 209.342 0.39201 2.30186 0
M  V30 2195 C 210.323 -0.532359 1.61555 0
M  V30 2196 O 211.508 -0.443331 1.89072 0
M  V30 2197 C 208.638 -0.382353 3.45189 0
M  V30 2198 C 207.592 0.451483 4.25612 0
M  V30 2199 C 206.918 -0.450307 5.328 0
M  V30 2200 C 208.218 1.70079 4.93832 0
M  V30 2201 H 209.912 1.23362 2.72804 0
M  V30 2202 H 207.458 0.594638 1.31149 0
M  V30 2203 H 209.411 -0.747451 4.14718 0
M  V30 2204 H 208.135 -1.25774 3.01411 0
M  V30 2205 H 206.794 0.798897 3.57789 0
M  V30 2206 H 206.442 -1.32379 4.85268 0
M  V30 2207 H 206.142 0.103902 5.87508 0
M  V30 2208 H 207.666 -0.811623 6.05182 0
M  V30 2209 H 209.08 1.40549 5.55805 0
M  V30 2210 H 207.477 2.19623 5.58467 0
M  V30 2211 H 208.547 2.43744 4.19186 0
M  V30 2212 N 209.89 -1.43072 0.660911 0
M  V30 2213 C 211.138 -2.01323 0.177094 0
M  V30 2214 C 211.459 -1.5245 -1.2159 0
M  V30 2215 O 210.729 -0.740322 -1.81373 0
M  V30 2216 H 209.309 -0.744382 0.0624804 0
M  V30 2217 H 211.971 -1.75179 0.854305 0
M  V30 2218 H 211.067 -3.11649 0.167641 0
M  V30 2219 N 211.368 -0.403325 -1.52352 0
M  V30 2220 C 212.779 0.0675782 -1.86578 0
M  V30 2221 C 213.13 1.44941 -1.32236 0
M  V30 2222 O 212.255 2.06112 -0.659307 0
M  V30 2223 C 212.85 0.129404 -3.38553 0
M  V30 2224 C 211.409 0.544629 -3.72439 0
M  V30 2225 C 210.556 -0.284551 -2.75836 0
M  V30 2226 H 213.507 -0.620631 -1.46061 0
M  V30 2227 H 213.528 0.94581 -3.68558 0
M  V30 2228 H 213.04 -0.87645 -3.78074 0
M  V30 2229 H 211.141 1.55734 -3.38493 0
M  V30 2230 H 211.254 0.293046 -4.78203 0
M  V30 2231 H 209.618 0.252258 -2.53448 0
M  V30 2232 H 210.401 -1.28865 -3.18196 0
M  V30 2233 N 212.846 1.57033 -0.133567 0
M  V30 2234 C 214.094 1.953 0.519848 0
M  V30 2235 C 214.415 1.01866 1.66278 0
M  V30 2236 O 213.685 0.0776513 1.95746 0
M  V30 2237 H 212.265 0.721091 0.195032 0
M  V30 2238 H 214.927 1.93809 -0.205921 0
M  V30 2239 H 214.023 2.98695 0.904854 0
M  V30 2240 N 214.325 -0.140222 1.56975 0
M  V30 2241 C 215.571 -0.852949 1.83991 0
M  V30 2242 C 215.904 -1.80512 0.716187 0
M  V30 2243 O 215.179 -1.92479 -0.279681 0
M  V30 2244 C 215.462 -1.6215 3.21527 0
M  V30 2245 C 215.315 -0.690363 4.4447 0
M  V30 2246 C 216.634 -2.58247 3.56366 0
M  V30 2247 H 213.753 -0.308634 0.669264 0
M  V30 2248 H 216.395 -0.117898 1.89634 0
M  V30 2249 H 214.545 -2.24812 3.16847 0
M  V30 2250 H 216.217 -0.0742264 4.6124 0
M  V30 2251 H 214.46 -0.000396433 4.338 0
M  V30 2252 H 215.131 -1.2643 5.37326 0
M  V30 2253 H 217.607 -2.05701 3.61699 0
M  V30 2254 H 216.483 -3.09067 4.53617 0
M  V30 2255 H 216.744 -3.39923 2.82674 0
M  V30 2256 N 215.803 -1.52179 -0.40978 0
M  V30 2257 C 217.049 -1.66453 -1.15851 0
M  V30 2258 C 217.382 -0.392972 -1.90182 0
M  V30 2259 O 216.657 0.608579 -1.84734 0
M  V30 2260 C 216.94 -2.88612 -2.15349 0
M  V30 2261 C 216.793 -4.25815 -1.44918 0
M  V30 2262 C 218.112 -3.06294 -3.16026 0
M  V30 2263 H 215.231 -0.60575 -0.419805 0
M  V30 2264 H 217.873 -1.84732 -0.444314 0
M  V30 2265 H 216.023 -2.73158 -2.76255 0
M  V30 2266 H 217.695 -4.52995 -0.871365 0
M  V30 2267 H 215.938 -4.27247 -0.751159 0
M  V30 2268 H 216.609 -5.07337 -2.17516 0
M  V30 2269 H 219.085 -3.20641 -2.65195 0
M  V30 2270 H 217.961 -3.93283 -3.8291 0
M  V30 2271 H 218.222 -2.19579 -3.83715 0
M  V30 2272 N 217.281 0.66697 -1.42791 0
M  V30 2273 C 218.529 1.42417 -1.43394 0
M  V30 2274 C 218.85 1.94925 -0.0542373 0
M  V30 2275 O 218.12 1.73564 0.908415 0
M  V30 2276 H 216.7 0.528515 -0.527902 0
M  V30 2277 H 219.362 0.787562 -1.78279 0
M  V30 2278 H 218.458 2.27333 -2.13837 0
M  V30 2279 N 218.759 1.29093 0.90403 0
M  V30 2280 C 220.008 1.16187 1.64874 0
M  V30 2281 C 220.321 -0.286742 1.93487 0
M  V30 2282 O 221.527 -0.537062 2.66135 0
M  V30 2283 C 219.983 2.03177 2.97064 0
M  V30 2284 C 219.591 3.52836 2.76062 0
M  V30 2285 C 221.335 1.98984 3.74974 0
M  V30 2286 C 219.242 4.31945 4.03952 0
M  V30 2287 H 218.172 0.431246 0.618501 0
M  V30 2288 H 220.823 1.53699 1.00243 0
M  V30 2289 H 219.205 1.5853 3.62883 0
M  V30 2290 H 220.379 4.05507 2.18863 0
M  V30 2291 H 218.694 3.58656 2.11553 0
M  V30 2292 H 221.291 2.55351 4.69787 0
M  V30 2293 H 221.634 0.968815 4.0487 0
M  V30 2294 H 222.167 2.41652 3.15989 0
M  V30 2295 H 218.906 5.34667 3.79225 0
M  V30 2296 H 218.426 3.84045 4.60727 0
M  V30 2297 H 220.105 4.42379 4.72133 0
M  V30 2298 N 220.237 -1.11381 1.11499 0
M  V30 2299 C 221.187 -2.15555 0.74298 0
M  V30 2300 C 222.171 -1.58894 -0.253276 0
M  V30 2301 O 223.363 -1.76897 -0.0602918 0
M  V30 2302 C 220.492 -3.42782 0.188481 0
M  V30 2303 C 219.578 -4.064 1.21244 0
M  V30 2304 N 219.969 -4.44864 2.40685 0
M  V30 2305 C 218.267 -4.3333 1.05552 0
M  V30 2306 C 218.968 -4.94715 3.05994 0
M  V30 2307 N 217.944 -4.90909 2.33472 0
M  V30 2308 H 221.746 -2.43074 1.65203 0
M  V30 2309 H 219.26 -1.28401 0.994329 0
M  V30 2310 H 221.257 -4.16789 -0.0961693 0
M  V30 2311 H 219.917 -3.16727 -0.715149 0
M  V30 2312 H 220.928 -4.36876 2.78136 0
M  V30 2313 H 217.605 -4.1698 0.208372 0
M  V30 2314 H 218.995 -5.34103 4.07656 0
M  V30 2315 N 221.715 -0.905404 -1.28997 0
M  V30 2316 C 222.963 -0.533192 -1.9494 0
M  V30 2317 C 223.284 0.924618 -1.71685 0
M  V30 2318 O 222.554 1.65268 -1.05183 0
M  V30 2319 H 221.134 -0.194194 -0.721317 0
M  V30 2320 H 223.796 -1.15294 -1.57141 0
M  V30 2321 H 222.892 -0.72059 -3.03667 0
M  V30 2322 N 223.193 1.4272 -0.668489 0
M  V30 2323 C 224.47 1.95248 -0.117373 0
M  V30 2324 C 224.85 1.60919 1.36632 0
M  V30 2325 O 224.198 0.902095 2.09939 0
M  V30 2326 C 224.408 3.46927 -0.379806 0
M  V30 2327 C 225.756 4.23588 -0.292923 0
M  V30 2328 O 226.78 3.5482 -0.313204 0
M  V30 2329 O 225.639 5.46017 -0.229697 0
M  V30 2330 H 222.733 0.827 0.00079152 0
M  V30 2331 H 225.279 1.52581 -0.742783 0
M  V30 2332 H 224.051 3.65096 -1.40786 0
M  V30 2333 H 223.674 3.96627 0.277923 0
M  V30 2334 N 224.671 0.411399 1.52136 0
M  V30 2335 C 225.896 -0.165538 2.06738 0
M  V30 2336 C 226.321 -1.379 1.27926 0
M  V30 2337 O 225.679 -1.78628 0.310114 0
M  V30 2338 C 225.727 -0.492124 3.57226 0
M  V30 2339 O 224.831 -1.58276 3.80818 0
M  V30 2340 H 224.172 -0.0132132 0.663869 0
M  V30 2341 H 226.702 0.585253 1.96051 0
M  V30 2342 H 226.712 -0.750104 4.01045 0
M  V30 2343 H 225.387 0.394922 4.14021 0
M  V30 2344 H 223.964 -1.31677 3.48877 0
M  V30 2345 N 226.149 -1.5696 0.141893 0
M  V30 2346 C 227.56 -1.82797 -0.379776 0
M  V30 2347 C 227.911 -1.06033 -1.6508 0
M  V30 2348 O 227.036 -0.304011 -2.14254 0
M  V30 2349 C 227.631 -3.31578 -0.695802 0
M  V30 2350 C 226.19 -3.58014 -1.16201 0
M  V30 2351 C 225.337 -2.76699 -0.182455 0
M  V30 2352 H 228.288 -1.54406 0.366675 0
M  V30 2353 H 228.309 -3.47454 -1.55099 0
M  V30 2354 H 227.821 -3.87421 0.229449 0
M  V30 2355 H 225.922 -3.07553 -2.10338 0
M  V30 2356 H 226.035 -4.66501 -1.09151 0
M  V30 2357 H 224.399 -2.45618 -0.674072 0
M  V30 2358 H 225.182 -3.35311 0.736297 0
M  V30 2359 N 227.627 0.131896 -1.57047 0
M  V30 2360 C 228.857 0.855219 -1.88068 0
M  V30 2361 C 229.265 1.74557 -0.729817 0
M  V30 2362 O 228.608 1.81083 0.308962 0
M  V30 2363 C 228.67 1.75119 -3.13964 0
M  V30 2364 C 228.334 1.03646 -4.45091 0
M  V30 2365 C 229.331 0.383276 -5.18485 0
M  V30 2366 C 227.016 1.02148 -4.91804 0
M  V30 2367 C 229.01 -0.275347 -6.36805 0
M  V30 2368 C 226.697 0.359047 -6.10044 0
M  V30 2369 C 227.695 -0.288222 -6.82392 0
M  V30 2370 O 227.383 -0.94011 -7.98384 0
M  V30 2371 H 227.115 0.251864 -0.627328 0
M  V30 2372 H 229.669 0.124782 -2.05021 0
M  V30 2373 H 227.899 2.52295 -2.9306 0
M  V30 2374 H 229.588 2.3478 -3.31109 0
M  V30 2375 H 230.354 0.386562 -4.83457 0
M  V30 2376 H 226.233 1.5147 -4.35405 0
M  V30 2377 H 229.777 -0.781148 -6.93213 0
M  V30 2378 H 225.674 0.35348 -6.44531 0
M  V30 2379 H 226.442 -0.84329 -8.14144 0
M  V30 2380 N 229.106 1.52395 0.401703 0
M  V30 2381 C 230.336 1.70429 1.1678 0
M  V30 2382 C 230.744 0.416702 1.84554 0
M  V30 2383 O 230.087 -0.617697 1.73003 0
M  V30 2384 C 230.149 2.78919 2.26814 0
M  V30 2385 C 229.813 4.20437 1.79113 0
M  V30 2386 C 230.81 5.04028 1.27482 0
M  V30 2387 C 228.495 4.66704 1.85722 0
M  V30 2388 C 230.489 6.31961 0.830913 0
M  V30 2389 C 228.176 5.94625 1.40942 0
M  V30 2390 C 229.174 6.77082 0.897128 0
M  V30 2391 O 228.862 8.02607 0.455822 0
M  V30 2392 H 228.594 0.574272 0.356634 0
M  V30 2393 H 231.148 1.99767 0.477724 0
M  V30 2394 H 229.378 2.44973 2.99207 0
M  V30 2395 H 231.067 2.8548 2.88541 0
M  V30 2396 H 231.833 4.69471 1.21744 0
M  V30 2397 H 227.712 4.0262 2.24539 0
M  V30 2398 H 231.256 6.96271 0.430368 0
M  V30 2399 H 227.153 6.28688 1.46362 0
M  V30 2400 H 227.921 8.16453 0.578457 0
M  V30 2401 N 230.584 -0.659388 1.43143 0
M  V30 2402 C 231.831 -1.41935 1.44433 0
M  V30 2403 C 232.159 -1.94387 0.0663522 0
M  V30 2404 O 231.414 -1.72314 -0.927706 0
M  V30 2405 C 231.713 -2.62206 2.42864 0
M  V30 2406 C 231.379 -2.28208 3.88886 0
M  V30 2407 C 230.041 -2.18647 4.28657 0
M  V30 2408 C 232.393 -2.00887 4.8093 0
M  V30 2409 C 229.721 -1.79914 5.58433 0
M  V30 2410 C 232.073 -1.63653 6.11065 0
M  V30 2411 C 230.737 -1.52614 6.49819 0
M  V30 2412 H 230.007 -0.519376 0.528517 0
M  V30 2413 H 232.654 -0.750453 1.76183 0
M  V30 2414 H 230.959 -3.34199 2.04495 0
M  V30 2415 H 232.656 -3.2041 2.41119 0
M  V30 2416 H 229.246 -2.36557 3.57406 0
M  V30 2417 H 233.43 -2.07198 4.5098 0
M  V30 2418 H 228.686 -1.69948 5.87305 0
M  V30 2419 H 232.86 -1.41543 6.81864 0
M  V30 2420 H 230.487 -1.22371 7.50286 0
M  V30 2421 N 232.062 -1.29571 -0.897171 0
M  V30 2422 C 232.992 -1.17473 -2.01798 0
M  V30 2423 C 233.973 -0.068323 -1.69963 0
M  V30 2424 O 235.158 -0.248239 -1.92607 0
M  V30 2425 C 232.288 -0.853099 -3.36659 0
M  V30 2426 C 231.242 -1.9161 -3.82713 0
M  V30 2427 C 230.568 -1.44773 -5.14728 0
M  V30 2428 C 231.868 -3.32535 -4.02763 0
M  V30 2429 H 233.562 -2.11237 -2.12177 0
M  V30 2430 H 231.108 -1.01699 -1.01948 0
M  V30 2431 H 233.061 -0.755165 -4.14578 0
M  V30 2432 H 231.785 0.120236 -3.26379 0
M  V30 2433 H 230.444 -2.00346 -3.07013 0
M  V30 2434 H 230.092 -0.462995 -5.00865 0
M  V30 2435 H 229.792 -2.15865 -5.46513 0
M  V30 2436 H 231.316 -1.36334 -5.95185 0
M  V30 2437 H 232.73 -3.26626 -4.71156 0
M  V30 2438 H 231.127 -4.01607 -4.45905 0
M  V30 2439 H 232.197 -3.75326 -3.07016 0
M  V30 2440 N 233.54 1.10788 -1.12088 0
M  V30 2441 C 234.768 1.86461 -0.896651 0
M  V30 2442 C 235.183 1.80492 0.553912 0
M  V30 2443 O 234.54 1.19102 1.38278 0
M  V30 2444 C 234.591 3.35006 -1.35843 0
M  V30 2445 O 234.312 3.40866 -2.75213 0
M  V30 2446 C 235.813 4.27565 -1.1706 0
M  V30 2447 H 233.033 0.589425 -0.320654 0
M  V30 2448 H 235.577 1.40076 -1.48993 0
M  V30 2449 H 233.732 3.7887 -0.808458 0
M  V30 2450 H 234.146 4.33411 -2.9539 0
M  V30 2451 H 235.62 5.30007 -1.54263 0
M  V30 2452 H 236.097 4.3906 -0.110814 0
M  V30 2453 H 236.703 3.89501 -1.70789 0
M  V30 2454 N 235.018 0.912232 1.28515 0
M  V30 2455 C 236.243 0.559774 1.99703 0
M  V30 2456 C 236.668 -0.851393 1.67729 0
M  V30 2457 O 236.026 -1.56875 0.908834 0
M  V30 2458 C 236.074 0.773874 3.52198 0
M  V30 2459 O 235.178 -0.167842 4.12058 0
M  V30 2460 H 234.519 0.21723 0.627461 0
M  V30 2461 H 237.049 1.22725 1.63706 0
M  V30 2462 H 237.059 0.683386 4.02236 0
M  V30 2463 H 235.734 1.80261 3.74805 0
M  V30 2464 H 234.311 -0.0287509 3.72889 0
M  V30 2465 N 236.496 -1.42363 0.676048 0
M  V30 2466 C 237.459 -2.29199 0.00766941 0
M  V30 2467 C 238.459 -1.43389 -0.727745 0
M  V30 2468 O 239.649 -1.64764 -0.56556 0
M  V30 2469 C 236.781 -3.2591 -0.999785 0
M  V30 2470 H 237.974 -2.89794 0.771988 0
M  V30 2471 H 235.527 -1.50024 0.438468 0
M  V30 2472 H 236.262 -2.70256 -1.79255 0
M  V30 2473 H 236.047 -3.89202 -0.475829 0
M  V30 2474 H 237.537 -3.91028 -1.46583 0
M  V30 2475 N 237.974 -0.419461 -1.51915 0
M  V30 2476 C 239.221 0.152939 -2.01922 0
M  V30 2477 C 239.549 1.4426 -1.30458 0
M  V30 2478 O 238.804 1.91514 -0.402593 0
M  V30 2479 C 239.103 0.437067 -3.54717 0
M  V30 2480 C 238.769 -0.764632 -4.44369 0
M  V30 2481 C 237.431 -1.09423 -4.68594 0
M  V30 2482 C 239.783 -1.56713 -4.97082 0
M  V30 2483 C 237.111 -2.22732 -5.42777 0
M  V30 2484 C 239.463 -2.69107 -5.72507 0
M  V30 2485 C 238.127 -3.02541 -5.95 0
M  V30 2486 H 237.397 0.0559644 -0.738884 0
M  V30 2487 H 240.044 -0.562998 -1.83037 0
M  V30 2488 H 238.349 1.23469 -3.71837 0
M  V30 2489 H 240.046 0.893083 -3.90928 0
M  V30 2490 H 236.636 -0.497775 -4.257 0
M  V30 2491 H 240.82 -1.32571 -4.78266 0
M  V30 2492 H 236.076 -2.48971 -5.58411 0
M  V30 2493 H 240.25 -3.31671 -6.12346 0
M  V30 2494 H 237.877 -3.90457 -6.52264 0
M  V30 2495 N 239.452 1.56882 -0.150215 0
M  V30 2496 C 240.382 2.19935 0.784284 0
M  V30 2497 C 241.363 1.14854 1.25469 0
M  V30 2498 O 242.548 1.43209 1.31168 0
M  V30 2499 C 239.678 2.82349 2.02229 0
M  V30 2500 C 238.632 3.93285 1.68853 0
M  V30 2501 C 237.958 4.42649 2.99944 0
M  V30 2502 C 239.258 5.13904 0.932714 0
M  V30 2503 H 240.952 2.9828 0.258781 0
M  V30 2504 H 238.498 1.43473 0.123029 0
M  V30 2505 H 240.451 3.25126 2.68088 0
M  V30 2506 H 239.175 2.0134 2.57157 0
M  V30 2507 H 237.834 3.5113 1.05371 0
M  V30 2508 H 237.482 3.58458 3.52869 0
M  V30 2509 H 237.182 5.17476 2.78374 0
M  V30 2510 H 238.706 4.88099 3.66868 0
M  V30 2511 H 240.12 5.53506 1.49345 0
M  V30 2512 H 238.517 5.94515 0.81684 0
M  V30 2513 H 239.587 4.84842 -0.0749568 0
M  V30 2514 N 240.93 -0.123565 1.57115 0
M  V30 2515 C 242.158 -0.846461 1.88793 0
M  V30 2516 C 242.573 -1.73652 0.740976 0
M  V30 2517 O 241.93 -1.80207 -0.288393 0
M  V30 2518 C 241.981 -1.6837 3.19897 0
M  V30 2519 O 241.702 -0.829477 4.30176 0
M  V30 2520 C 243.203 -2.51214 3.65248 0
M  V30 2521 H 240.423 -0.243573 0.625231 0
M  V30 2522 H 242.967 -0.109324 2.04208 0
M  V30 2523 H 241.122 -2.37364 3.06165 0
M  V30 2524 H 241.536 -1.40651 5.0529 0
M  V30 2525 H 243.01 -3.05497 4.59756 0
M  V30 2526 H 243.487 -3.28359 2.9168 0
M  V30 2527 H 244.093 -1.8747 3.81752 0
M  V30 2528 N 242.408 -1.52605 -0.393616 0
M  V30 2529 C 243.371 -1.76415 -1.46323 0
M  V30 2530 C 244.371 -0.634126 -1.47768 0
M  V30 2531 O 245.561 -0.902142 -1.4902 0
M  V30 2532 C 242.693 -1.8607 -2.85641 0
M  V30 2533 H 243.886 -2.71916 -1.26498 0
M  V30 2534 H 241.439 -1.43257 -0.625073 0
M  V30 2535 H 242.174 -0.925378 -3.10817 0
M  V30 2536 H 241.959 -2.68235 -2.85993 0
M  V30 2537 H 243.449 -2.06179 -3.63153 0
M  V30 2538 N 243.887 0.651787 -1.4349 0
M  V30 2539 C 244.85 1.74647 -1.48429 0
M  V30 2540 C 245.85 1.56513 -0.368817 0
M  V30 2541 O 247.04 1.62385 -0.630623 0
M  V30 2542 C 244.172 3.13533 -1.33827 0
M  V30 2543 H 245.365 1.71649 -2.4592 0
M  V30 2544 H 242.918 0.863573 -1.30277 0
M  V30 2545 H 243.653 3.22142 -0.37349 0
M  V30 2546 H 243.438 3.28101 -2.14691 0
M  V30 2547 H 244.928 3.93356 -1.40218 0
M  V30 2548 N 245.365 1.30045 0.890287 0
M  V30 2549 C 246.614 1.17929 1.63633 0
M  V30 2550 C 246.927 -0.266204 1.9378 0
M  V30 2551 O 248.133 -0.508804 2.6669 0
M  V30 2552 C 246.589 2.06317 2.94892 0
M  V30 2553 C 246.197 3.55745 2.72305 0
M  V30 2554 C 247.941 2.0295 3.72843 0
M  V30 2555 C 245.848 4.36205 3.99348 0
M  V30 2556 H 244.778 0.437782 0.613892 0
M  V30 2557 H 247.429 1.54754 0.986075 0
M  V30 2558 H 245.811 1.6237 3.61182 0
M  V30 2559 H 246.985 4.07805 2.1455 0
M  V30 2560 H 245.3 3.6088 2.07737 0
M  V30 2561 H 247.897 2.60319 4.67053 0
M  V30 2562 H 248.24 1.0117 4.0382 0
M  V30 2563 H 248.773 2.4499 3.13408 0
M  V30 2564 H 245.512 5.38659 3.73533 0
M  V30 2565 H 245.032 3.8891 4.56628 0
M  V30 2566 H 246.711 4.47362 4.67415 0
M  V30 2567 N 246.843 -1.10192 1.12674 0
M  V30 2568 C 248.092 -1.81573 0.8783 0
M  V30 2569 C 248.405 -1.86249 -0.597557 0
M  V30 2570 O 249.611 -2.5386 -0.962681 0
M  V30 2571 C 248.067 -3.26149 1.52167 0
M  V30 2572 C 247.675 -3.29763 3.03249 0
M  V30 2573 C 249.419 -4.0234 1.3536 0
M  V30 2574 C 247.326 -4.68815 3.60508 0
M  V30 2575 H 246.256 -0.680394 0.324931 0
M  V30 2576 H 248.907 -1.23902 1.35353 0
M  V30 2577 H 247.289 -3.83832 0.974104 0
M  V30 2578 H 248.463 -2.8189 3.6452 0
M  V30 2579 H 246.778 -2.67059 3.19481 0
M  V30 2580 H 249.375 -5.05058 1.75559 0
M  V30 2581 H 249.718 -4.15235 0.297554 0
M  V30 2582 H 250.251 -3.51079 1.87052 0
M  V30 2583 H 246.99 -4.61121 4.65884 0
M  V30 2584 H 246.51 -5.17045 3.04014 0
M  V30 2585 H 248.189 -5.37785 3.59717 0
M  V30 2586 N 248.321 -0.919034 -1.28029 0
M  V30 2587 C 249.251 -0.428581 -2.29533 0
M  V30 2588 C 250.232 0.50659 -1.62381 0
M  V30 2589 O 251.417 0.413195 -1.89753 0
M  V30 2590 C 248.547 0.327388 -3.45753 0
M  V30 2591 C 247.501 -0.519137 -4.2484 0
M  V30 2592 C 246.827 0.365486 -5.33449 0
M  V30 2593 C 248.127 -1.77914 -4.91064 0
M  V30 2594 H 249.821 -1.27687 -2.70807 0
M  V30 2595 H 247.367 -0.615428 -1.30186 0
M  V30 2596 H 249.32 0.681378 -4.15855 0
M  V30 2597 H 248.044 1.20963 -3.03374 0
M  V30 2598 H 246.703 -0.855717 -3.56473 0
M  V30 2599 H 246.351 1.24642 -4.87312 0
M  V30 2600 H 246.051 -0.197356 -5.87268 0
M  V30 2601 H 247.575 0.715241 -6.06396 0
M  V30 2602 H 248.989 -1.49374 -5.53498 0
M  V30 2603 H 247.386 -2.2848 -5.54903 0
M  V30 2604 H 248.456 -2.50382 -4.15255 0
M  V30 2605 N 249.799 1.42003 -0.683588 0
M  V30 2606 C 250.729 2.33487 -0.024866 0
M  V30 2607 C 251.71 1.51163 0.779975 0
M  V30 2608 O 252.895 1.79739 0.735362 0
M  V30 2609 C 250.025 3.3487 0.920836 0
M  V30 2610 C 248.979 4.27414 0.223958 0
M  V30 2611 C 248.305 5.19074 1.2832 0
M  V30 2612 C 249.605 5.14445 -0.90242 0
M  V30 2613 H 251.299 2.88819 -0.788921 0
M  V30 2614 H 248.845 1.38873 -0.38083 0
M  V30 2615 H 250.798 3.97787 1.39081 0
M  V30 2616 H 249.522 2.77861 1.71642 0
M  V30 2617 H 248.181 3.65904 -0.225864 0
M  V30 2618 H 247.829 4.58387 2.071 0
M  V30 2619 H 247.529 5.81822 0.821995 0
M  V30 2620 H 249.053 5.84867 1.75392 0
M  V30 2621 H 250.467 5.70998 -0.513272 0
M  V30 2622 H 248.864 5.86072 -1.28997 0
M  V30 2623 H 249.934 4.52322 -1.74737 0
M  V30 2624 N 251.277 0.427512 1.51691 0
M  V30 2625 C 252.227 -0.406604 2.24345 0
M  V30 2626 C 253.211 -0.998276 1.26187 0
M  V30 2627 O 254.403 -0.918045 1.51331 0
M  V30 2628 C 251.532 -1.51266 3.08177 0
M  V30 2629 C 250.618 -0.930868 4.13758 0
M  V30 2630 N 251.009 -0.0773552 5.05741 0
M  V30 2631 C 249.307 -1.19948 4.29568 0
M  V30 2632 C 250.008 0.248344 5.8117 0
M  V30 2633 N 248.984 -0.365535 5.4237 0
M  V30 2634 H 252.786 0.251581 2.92821 0
M  V30 2635 H 250.3 0.239003 1.60632 0
M  V30 2636 H 252.297 -2.123 3.58796 0
M  V30 2637 H 250.957 -2.17328 2.41244 0
M  V30 2638 H 251.968 0.288351 5.17097 0
M  V30 2639 H 248.645 -1.85832 3.73862 0
M  V30 2640 H 250.035 0.942286 6.6526 0
M  V30 2641 N 252.755 -1.56801 0.158532 0
M  V30 2642 C 253.983 -2.00859 -0.496303 0
M  V30 2643 C 254.398 -1.03871 -1.57659 0
M  V30 2644 O 253.755 -0.0375165 -1.82461 0
M  V30 2645 C 253.806 -3.4479 -1.08638 0
M  V30 2646 O 253.527 -4.38072 -0.0492322 0
M  V30 2647 C 255.028 -4.04185 -1.8207 0
M  V30 2648 H 252.248 -0.65864 -0.128199 0
M  V30 2649 H 254.792 -2.02885 0.256506 0
M  V30 2650 H 252.947 -3.43579 -1.78975 0
M  V30 2651 H 253.361 -5.2227 -0.483102 0
M  V30 2652 H 254.835 -5.06857 -2.18633 0
M  V30 2653 H 255.312 -3.45549 -2.71095 0
M  V30 2654 H 255.918 -4.0906 -1.16405 0
M  V30 2655 N 254.233 0.115231 -1.57178 0
M  V30 2656 C 255.48 0.822351 -1.8505 0
M  V30 2657 C 255.808 1.79701 -0.744168 0
M  V30 2658 O 255.063 1.93909 0.26414 0
M  V30 2659 C 255.362 1.60324 -3.19423 0
M  V30 2660 C 255.028 0.772536 -4.44233 0
M  V30 2661 C 253.69 0.543468 -4.78121 0
M  V30 2662 C 256.042 0.193746 -5.2084 0
M  V30 2663 C 253.37 -0.274583 -5.86057 0
M  V30 2664 C 255.722 -0.611517 -6.29637 0
M  V30 2665 C 254.386 -0.850867 -6.62055 0
M  V30 2666 H 253.656 0.30092 -0.677147 0
M  V30 2667 H 256.303 0.0845802 -1.91313 0
M  V30 2668 H 254.608 2.41203 -3.08753 0
M  V30 2669 H 256.305 2.1544 -3.38211 0
M  V30 2670 H 252.895 0.96117 -4.17683 0
M  V30 2671 H 257.079 0.357926 -4.95008 0
M  V30 2672 H 252.335 -0.469206 -6.09597 0
M  V30 2673 H 256.509 -1.06697 -6.88178 0
M  V30 2674 H 254.136 -1.48657 -7.45523 0
M  V30 2675 N 255.711 1.52812 0.385517 0
M  V30 2676 C 256.957 1.69225 1.12847 0
M  V30 2677 C 257.312 0.42864 1.87564 0
M  V30 2678 O 256.605 -0.57779 1.8268 0
M  V30 2679 C 256.799 2.86856 2.13187 0
M  V30 2680 C 256.628 4.24535 1.48325 0
M  V30 2681 C 255.398 4.89701 1.24585 0
M  V30 2682 C 257.596 5.05794 0.931501 0
M  V30 2683 N 255.578 6.11353 0.558644 0
M  V30 2684 C 256.949 6.1888 0.372552 0
M  V30 2685 C 259.004 4.90963 0.828248 0
M  V30 2686 C 257.707 7.18757 -0.279556 0
M  V30 2687 C 259.733 5.91095 0.189956 0
M  V30 2688 C 259.095 7.03489 -0.358207 0
M  V30 2689 H 255.194 0.67268 0.39878 0
M  V30 2690 H 257.778 1.9017 0.417528 0
M  V30 2691 H 255.949 2.67484 2.81614 0
M  V30 2692 H 257.681 2.92188 2.80014 0
M  V30 2693 H 254.436 4.48485 1.52178 0
M  V30 2694 H 254.86 6.76606 0.230983 0
M  V30 2695 H 259.502 4.04274 1.23784 0
M  V30 2696 H 257.22 8.05052 -0.701152 0
M  V30 2697 H 260.806 5.81694 0.111264 0
M  V30 2698 H 259.686 7.79642 -0.844314 0
M  V30 2699 N 257.189 -0.644168 1.43834 0
M  V30 2700 C 258.437 -1.40117 1.45642 0
M  V30 2701 C 258.758 -1.94814 0.0852413 0
M  V30 2702 O 258.028 -1.74988 -0.880688 0
M  V30 2703 H 256.608 -0.52005 0.536243 0
M  V30 2704 H 259.27 -0.7591 1.7951 0
M  V30 2705 H 258.366 -2.23902 2.17427 0
M  V30 2706 N 258.668 -1.30515 -0.883378 0
M  V30 2707 C 259.914 -1.19607 -1.63774 0
M  V30 2708 C 260.247 0.248314 -1.92606 0
M  V30 2709 O 259.522 1.17742 -1.54813 0
M  V30 2710 C 259.805 -2.02669 -2.97653 0
M  V30 2711 C 259.658 -3.55335 -2.75784 0
M  V30 2712 C 260.977 -1.86573 -3.98596 0
M  V30 2713 H 258.096 -0.435856 -0.594305 0
M  V30 2714 H 260.738 -1.60165 -1.02212 0
M  V30 2715 H 258.888 -1.68208 -3.50197 0
M  V30 2716 H 260.56 -3.99863 -2.30016 0
M  V30 2717 H 258.803 -3.79438 -2.1026 0
M  V30 2718 H 259.474 -4.08745 -3.70988 0
M  V30 2719 H 261.95 -2.16703 -3.55217 0
M  V30 2720 H 260.826 -2.47014 -4.90179 0
M  V30 2721 H 261.087 -0.825321 -4.34328 0
M  V30 2722 N 260.146 1.09593 -1.13257 0
M  V30 2723 C 261.392 1.82003 -0.89458 0
M  V30 2724 C 261.725 1.85402 0.577906 0
M  V30 2725 O 261 1.32099 1.42759 0
M  V30 2726 C 261.283 3.28237 -1.48096 0
M  V30 2727 C 261.136 3.3312 -3.02244 0
M  V30 2728 C 262.455 4.24871 -1.14774 0
M  V30 2729 H 259.574 0.66077 -0.326424 0
M  V30 2730 H 262.216 1.28389 -1.40058 0
M  V30 2731 H 260.366 3.74024 -1.05062 0
M  V30 2732 H 262.038 2.95748 -3.54021 0
M  V30 2733 H 260.281 2.72756 -3.37323 0
M  V30 2734 H 260.952 4.3613 -3.38371 0
M  V30 2735 H 263.428 3.87361 -1.51957 0
M  V30 2736 H 262.304 5.25532 -1.58452 0
M  V30 2737 H 262.565 4.42058 -0.0611849 0
M  V30 2738 N 261.624 0.925811 1.2754 0
M  V30 2739 C 262.871 0.565255 1.94451 0
M  V30 2740 C 263.199 -0.89316 1.7278 0
M  V30 2741 O 262.454 -1.65213 1.04895 0
M  V30 2742 C 262.753 0.835296 3.47502 0
M  V30 2743 C 262.419 2.27515 3.89291 0
M  V30 2744 C 261.081 2.66879 4.00411 0
M  V30 2745 C 263.433 3.21158 4.10496 0
M  V30 2746 C 260.761 3.99014 4.30122 0
M  V30 2747 C 263.113 4.52871 4.4169 0
M  V30 2748 C 261.777 4.92072 4.51023 0
M  V30 2749 H 261.047 0.206841 0.711546 0
M  V30 2750 H 263.694 1.16942 1.51647 0
M  V30 2751 H 261.999 0.148442 3.91519 0
M  V30 2752 H 263.696 0.535322 3.97411 0
M  V30 2753 H 260.286 1.95976 3.81171 0
M  V30 2754 H 264.47 2.9195 4.01346 0
M  V30 2755 H 259.726 4.2907 4.35556 0
M  V30 2756 H 263.9 5.25436 4.57045 0
M  V30 2757 H 261.527 5.9449 4.738 0
M  V30 2758 N 263.102 -1.41638 0.69111 0
M  V30 2759 C 264.349 -2.01299 0.220193 0
M  V30 2760 C 264.677 -1.54715 -1.17871 0
M  V30 2761 O 263.932 -0.747193 -1.80874 0
M  V30 2762 C 264.231 -3.56714 0.221277 0
M  V30 2763 C 263.897 -4.22792 1.56709 0
M  V30 2764 C 262.559 -4.40557 1.93554 0
M  V30 2765 C 264.911 -4.59883 2.45268 0
M  V30 2766 C 262.239 -4.92688 3.18552 0
M  V30 2767 C 264.591 -5.13403 3.69595 0
M  V30 2768 C 263.255 -5.29379 4.06589 0
M  V30 2769 H 262.525 -0.736606 0.0805743 0
M  V30 2770 H 265.172 -1.69598 0.889319 0
M  V30 2771 H 263.477 -3.8818 -0.531391 0
M  V30 2772 H 265.174 -4.00678 -0.160547 0
M  V30 2773 H 261.764 -4.09336 1.2705 0
M  V30 2774 H 265.948 -4.45817 2.18084 0
M  V30 2775 H 261.204 -5.03242 3.47214 0
M  V30 2776 H 265.378 -5.41084 4.38407 0
M  V30 2777 H 263.005 -5.69537 5.03519 0
M  V30 2778 N 264.58 -0.43555 -1.51462 0
M  V30 2779 C 265.857 0.191364 -1.94662 0
M  V30 2780 C 266.237 1.60254 -1.37411 0
M  V30 2781 O 265.585 2.2152 -0.560458 0
M  V30 2782 C 265.795 0.17091 -3.48581 0
M  V30 2783 C 267.143 0.377357 -4.2292 0
M  V30 2784 O 268.167 0.249104 -3.55328 0
M  V30 2785 O 267.026 0.63247 -5.42828 0
M  V30 2786 H 264.12 0.130932 -0.816569 0
M  V30 2787 H 266.666 -0.4934 -1.62369 0
M  V30 2788 H 265.438 -0.815738 -3.82703 0
M  V30 2789 H 265.061 0.898659 -3.87311 0
M  V30 2790 N 266.058 1.56714 -0.166846 0
M  V30 2791 C 267.021 2.16539 0.751232 0
M  V30 2792 C 268.021 1.11228 1.16125 0
M  V30 2793 O 269.211 1.36765 1.07894 0
M  V30 2794 C 266.343 2.74462 2.02196 0
M  V30 2795 H 267.536 2.99013 0.230499 0
M  V30 2796 H 265.089 1.56081 0.0826982 0
M  V30 2797 H 265.824 1.95709 2.58589 0
M  V30 2798 H 265.609 3.51527 1.73698 0
M  V30 2799 H 267.099 3.20489 2.67725 0
M  V30 2800 N 267.536 -0.106894 1.57237 0
M  V30 2801 C 268.776 -0.818277 1.87306 0
M  V30 2802 C 269.14 -1.76474 0.756371 0
M  V30 2803 O 270.341 -2.5186 0.939155 0
M  V30 2804 C 268.612 -1.53806 3.22612 0
M  V30 2805 S 270.171 -2.28935 3.74345 0
M  V30 2806 H 266.989 -0.272862 0.656557 0
M  V30 2807 H 269.591 -0.075988 1.95352 0
M  V30 2808 H 268.295 -0.834951 4.01817 0
M  V30 2809 H 267.826 -2.32049 3.17674 0
M  V30 2810 H 269.841 -3.54871 3.46815 0
M  V30 2811 N 269.014 -1.53014 -0.377408 0
M  V30 2812 C 269.924 -1.81557 -1.48574 0
M  V30 2813 C 270.94 -0.703102 -1.59162 0
M  V30 2814 O 272.116 -0.99192 -1.75279 0
M  V30 2815 C 269.181 -1.9889 -2.83978 0
M  V30 2816 C 268.242 -3.22801 -2.83016 0
M  V30 2817 C 267.475 -3.39298 -4.11962 0
M  V30 2818 O 267.698 -2.60345 -5.0752 0
M  V30 2819 O 266.632 -4.32604 -4.18494 0
M  V30 2820 H 270.458 -2.75695 -1.27382 0
M  V30 2821 H 268.043 -1.38248 -0.566373 0
M  V30 2822 H 269.925 -2.11931 -3.6423 0
M  V30 2823 H 268.6 -1.07942 -3.05172 0
M  V30 2824 H 267.507 -3.15193 -2.01505 0
M  V30 2825 H 268.84 -4.13632 -2.66775 0
M  V30 2826 N 270.492 0.636531 -1.44174 0
M  V30 2827 C 271.908 0.954104 -1.27941 0
M  V30 2828 C 272.108 2.0039 -0.211248 0
M  V30 2829 O 271.164 2.49236 0.404695 0
M  V30 2830 C 272.477 1.4225 -2.64925 0
M  V30 2831 C 274.025 1.53827 -2.72592 0
M  V30 2832 C 274.5 2.04053 -4.10032 0
M  V30 2833 N 275.991 2.11331 -4.12182 0
M  V30 2834 C 276.726 2.51352 -5.15374 0
M  V30 2835 N 276.222 2.90549 -6.2893 0
M  V30 2836 N 278.015 2.51438 -5.02728 0
M  V30 2837 H 270.166 -0.0578386 -2.12321 0
M  V30 2838 H 272.429 0.0367406 -0.947288 0
M  V30 2839 H 272.135 0.725466 -3.44136 0
M  V30 2840 H 272.009 2.39451 -2.9145 0
M  V30 2841 H 274.396 2.22628 -1.93702 0
M  V30 2842 H 274.477 0.550154 -2.49814 0
M  V30 2843 H 274.121 1.35848 -4.89395 0
M  V30 2844 H 274.051 3.03726 -4.30184 0
M  V30 2845 H 276.542 1.83745 -3.30222 0
M  V30 2846 H 276.855 3.19884 -7.03487 0
M  V30 2847 H 275.2 2.88313 -6.32377 0
M  V30 2848 H 278.391 2.20203 -4.13072 0
M  V30 2849 H 278.564 2.82304 -5.83274 0
M  V30 2850 N 271.97 1.30982 0.876444 0
M  V30 2851 C 273.386 1.09498 1.16113 0
M  V30 2852 C 273.586 -0.13875 2.01022 0
M  V30 2853 O 272.642 -0.829935 2.38471 0
M  V30 2854 C 273.955 2.36308 1.85954 0
M  V30 2855 C 275.503 2.41856 1.98683 0
M  V30 2856 C 275.978 3.6853 2.71937 0
M  V30 2857 N 277.469 3.69387 2.79477 0
M  V30 2858 C 278.204 4.64096 3.36753 0
M  V30 2859 N 277.7 5.69155 3.95012 0
M  V30 2860 N 279.493 4.51626 3.3465 0
M  V30 2861 H 271.644 2.10118 0.310494 0
M  V30 2862 H 273.907 0.926634 0.200131 0
M  V30 2863 H 273.613 3.26388 1.31011 0
M  V30 2864 H 273.487 2.4561 2.86278 0
M  V30 2865 H 275.874 1.52249 2.52793 0
M  V30 2866 H 275.955 2.36523 0.9742 0
M  V30 2867 H 275.599 4.58499 2.18496 0
M  V30 2868 H 275.529 3.71127 3.73593 0
M  V30 2869 H 278.02 2.93438 2.38123 0
M  V30 2870 H 278.333 6.3751 4.36808 0
M  V30 2871 H 276.678 5.72937 3.93406 0
M  V30 2872 H 279.869 3.68728 2.8837 0
M  V30 2873 H 280.042 5.25614 3.7899 0
M  V30 2874 N 273.449 -1.08991 1.13837 0
M  V30 2875 C 274.865 -1.33312 0.877506 0
M  V30 2876 C 275.065 -1.95587 -0.48456 0
M  V30 2877 O 274.121 -2.20509 -1.23013 0
M  V30 2878 C 275.434 -2.24045 2.0056 0
M  V30 2879 C 276.982 -2.37542 2.03821 0
M  V30 2880 C 277.457 -3.31614 3.15905 0
M  V30 2881 N 278.948 -3.39189 3.15445 0
M  V30 2882 C 279.683 -4.11992 3.98811 0
M  V30 2883 N 279.179 -4.87553 4.92203 0
M  V30 2884 N 280.972 -4.07762 3.86894 0
M  V30 2885 H 273.123 -0.669456 2.01574 0
M  V30 2886 H 275.386 -0.357482 0.878015 0
M  V30 2887 H 275.092 -1.85521 2.98789 0
M  V30 2888 H 274.966 -3.24466 1.92359 0
M  V30 2889 H 277.353 -2.75327 1.06202 0
M  V30 2890 H 277.434 -1.36884 2.16093 0
M  V30 2891 H 277.078 -2.94551 4.13766 0
M  V30 2892 H 277.008 -4.32186 3.0087 0
M  V30 2893 H 279.499 -2.85314 2.47799 0
M  V30 2894 H 279.812 -5.40549 5.52292 0
M  V30 2895 H 278.157 -4.86627 4.96205 0
M  V30 2896 H 281.348 -3.47833 3.13257 0
M  V30 2897 H 281.521 -4.64238 4.52092 0
M  V30 2898 N 274.927 -0.932562 -1.27047 0
M  V30 2899 C 276.157 -0.591173 -1.97961 0
M  V30 2900 C 276.565 0.836219 -1.69717 0
M  V30 2901 O 275.908 1.56801 -0.957036 0
M  V30 2902 C 275.97 -0.743082 -3.51736 0
M  V30 2903 C 275.634 -2.1435 -4.03613 0
M  V30 2904 C 276.631 -3.11815 -4.16014 0
M  V30 2905 C 274.316 -2.46175 -4.37839 0
M  V30 2906 C 276.31 -4.39211 -4.61923 0
M  V30 2907 C 273.997 -3.73806 -4.83438 0
M  V30 2908 C 274.995 -4.70137 -4.95439 0
M  V30 2909 O 274.683 -5.95496 -5.40037 0
M  V30 2910 H 274.415 -0.222375 -0.638377 0
M  V30 2911 H 276.969 -1.25317 -1.62742 0
M  V30 2912 H 275.199 -0.0239739 -3.86693 0
M  V30 2913 H 276.888 -0.40603 -4.03864 0
M  V30 2914 H 277.654 -2.88549 -3.89826 0
M  V30 2915 H 273.533 -1.71936 -4.27737 0
M  V30 2916 H 277.077 -5.14404 -4.71205 0
M  V30 2917 H 272.974 -3.96888 -5.09068 0
M  V30 2918 H 273.742 -5.98554 -5.58279 0
M  V30 2919 N 276.405 1.4127 -0.698611 0
M  V30 2920 C 277.651 2.01979 -0.239972 0
M  V30 2921 C 278.006 1.54353 1.14861 0
M  V30 2922 O 277.299 0.746218 1.76471 0
M  V30 2923 C 277.493 3.56592 -0.240192 0
M  V30 2924 C 277.322 4.19226 -1.62726 0
M  V30 2925 C 276.092 4.53389 -2.23084 0
M  V30 2926 C 278.29 4.45228 -2.57443 0
M  V30 2927 N 276.272 5.01327 -3.54323 0
M  V30 2928 C 277.643 4.94973 -3.73365 0
M  V30 2929 C 279.698 4.27243 -2.55671 0
M  V30 2930 C 278.401 5.28624 -4.878 0
M  V30 2931 C 280.427 4.61985 -3.69221 0
M  V30 2932 C 279.789 5.11904 -4.83873 0
M  V30 2933 H 275.888 0.770561 -0.133269 0
M  V30 2934 H 278.472 1.71767 -0.916748 0
M  V30 2935 H 276.643 3.86271 0.406082 0
M  V30 2936 H 278.375 4.04025 0.23356 0
M  V30 2937 H 275.13 4.39946 -1.75341 0
M  V30 2938 H 275.554 5.29697 -4.21604 0
M  V30 2939 H 280.196 3.87884 -1.68243 0
M  V30 2940 H 277.914 5.66905 -5.75885 0
M  V30 2941 H 281.5 4.49725 -3.69105 0
M  V30 2942 H 280.38 5.38282 -5.70282 0
M  V30 2943 N 277.883 0.443576 1.51229 0
M  V30 2944 C 278.846 -0.353132 2.26463 0
M  V30 2945 C 279.846 -0.944338 1.3015 0
M  V30 2946 O 281.036 -0.817813 1.5381 0
M  V30 2947 C 278.168 -1.50023 3.06114 0
M  V30 2948 H 279.361 0.3063 2.98332 0
M  V30 2949 H 276.914 0.196902 1.55055 0
M  V30 2950 H 277.649 -2.19553 2.38677 0
M  V30 2951 H 277.434 -1.08241 3.76864 0
M  V30 2952 H 278.924 -2.06296 3.63087 0
M  V30 2953 N 279.361 -1.56624 0.175154 0
M  V30 2954 C 280.291 -2.21155 -0.749195 0
M  V30 2955 C 281.272 -1.16836 -1.23626 0
M  V30 2956 O 282.457 -1.45277 -1.28873 0
M  V30 2957 C 279.587 -2.8553 -1.97711 0
M  V30 2958 C 278.541 -3.95921 -1.62575 0
M  V30 2959 C 277.867 -4.47365 -2.92864 0
M  V30 2960 C 279.167 -5.15323 -0.850838 0
M  V30 2961 H 280.861 -2.98653 -0.211295 0
M  V30 2962 H 278.407 -1.43651 -0.100188 0
M  V30 2963 H 280.36 -3.2935 -2.62881 0
M  V30 2964 H 279.084 -2.05406 -2.53921 0
M  V30 2965 H 277.743 -3.52762 -0.997719 0
M  V30 2966 H 277.391 -3.64027 -3.47122 0
M  V30 2967 H 277.091 -5.21839 -2.70106 0
M  V30 2968 H 278.615 -4.93873 -3.59056 0
M  V30 2969 H 280.029 -5.55812 -1.40521 0
M  V30 2970 H 278.426 -5.95739 -0.722154 0
M  V30 2971 H 279.496 -4.84661 0.152082 0
M  V30 2972 N 280.839 0.0985539 -1.57292 0
M  V30 2973 C 282.087 0.801092 -1.85545 0
M  V30 2974 C 282.408 1.79438 -0.763353 0
M  V30 2975 O 281.678 1.94763 0.21073 0
M  V30 2976 H 280.258 0.29884 -0.684619 0
M  V30 2977 H 282.92 0.0810064 -1.94732 0
M  V30 2978 H 282.016 1.3338 -2.82163 0
M  V30 2979 N 282.317 1.53212 0.369288 0
M  V30 2980 C 283.247 1.82365 1.45826 0
M  V30 2981 C 284.228 0.676907 1.56051 0
M  V30 2982 O 285.413 0.926401 1.70679 0
M  V30 2983 C 282.543 2.01023 2.83208 0
M  V30 2984 C 281.497 3.1678 2.8781 0
M  V30 2985 C 280.823 3.20724 4.27832 0
M  V30 2986 C 282.123 4.55447 2.55667 0
M  V30 2987 H 283.817 2.73559 1.21678 0
M  V30 2988 H 281.363 1.3163 0.583911 0
M  V30 2989 H 283.316 2.20001 3.59413 0
M  V30 2990 H 282.04 1.06536 3.08736 0
M  V30 2991 H 280.699 2.97616 2.14056 0
M  V30 2992 H 280.347 2.23882 4.50429 0
M  V30 2993 H 280.047 3.98496 4.31827 0
M  V30 2994 H 281.571 3.41881 5.05915 0
M  V30 2995 H 282.985 4.74611 3.21586 0
M  V30 2996 H 281.382 5.35432 2.70984 0
M  V30 2997 H 282.452 4.60812 1.5093 0
M  V30 2998 N 283.795 -0.628877 1.44509 0
M  V30 2999 C 285.041 -1.39045 1.47629 0
M  V30 3000 C 285.374 -1.93892 0.109343 0
M  V30 3001 O 284.649 -1.7379 -0.87334 0
M  V30 3002 C 284.932 -2.55408 2.53848 0
M  V30 3003 C 284.785 -2.05896 3.99909 0
M  V30 3004 C 286.104 -3.5759 2.56549 0
M  V30 3005 H 283.223 -0.504232 0.537512 0
M  V30 3006 H 285.865 -0.710854 1.76201 0
M  V30 3007 H 284.015 -3.13384 2.29615 0
M  V30 3008 H 285.687 -1.52734 4.35282 0
M  V30 3009 H 283.93 -1.37061 4.11578 0
M  V30 3010 H 284.601 -2.89681 4.69882 0
M  V30 3011 H 287.077 -3.09419 2.78207 0
M  V30 3012 H 285.953 -4.36527 3.32769 0
M  V30 3013 H 286.214 -4.11808 1.60832 0
M  V30 3014 N 285.273 -1.31445 -0.869486 0
M  V30 3015 C 286.519 -1.21337 -1.62496 0
M  V30 3016 C 286.852 0.227872 -1.92858 0
M  V30 3017 O 286.127 1.16094 -1.56053 0
M  V30 3018 C 286.41 -2.05814 -2.95487 0
M  V30 3019 C 286.263 -3.5824 -2.72 0
M  V30 3020 C 287.582 -1.9079 -3.96594 0
M  V30 3021 H 284.701 -0.442135 -0.589649 0
M  V30 3022 H 287.343 -1.6124 -1.00507 0
M  V30 3023 H 285.493 -1.71913 -3.48394 0
M  V30 3024 H 287.165 -4.0228 -2.25762 0
M  V30 3025 H 285.408 -3.81647 -2.06224 0
M  V30 3026 H 286.079 -4.12657 -3.66631 0
M  V30 3027 H 288.555 -2.20459 -3.52898 0
M  V30 3028 H 287.431 -2.52199 -4.87531 0
M  V30 3029 H 287.692 -0.871341 -4.33428 0
M  V30 3030 N 286.751 1.08385 -1.14413 0
M  V30 3031 C 287.999 1.80419 -0.910679 0
M  V30 3032 C 288.32 1.86658 0.564243 0
M  V30 3033 O 287.59 1.35985 1.41014 0
M  V30 3034 H 286.17 0.668204 -0.333934 0
M  V30 3035 H 288.832 1.31037 -1.44275 0
M  V30 3036 H 287.928 2.83238 -1.31082 0
M  V30 3037 N 288.23 0.939286 1.26551 0
M  V30 3038 C 289.455 0.602008 1.98471 0
M  V30 3039 C 289.88 -0.815624 1.69497 0
M  V30 3040 O 289.238 -1.54912 0.941905 0
M  V30 3041 C 289.286 0.848407 3.50477 0
M  V30 3042 O 288.39 -0.0804009 4.12322 0
M  V30 3043 H 287.731 0.23049 0.622712 0
M  V30 3044 H 290.261 1.2617 1.61066 0
M  V30 3045 H 290.271 0.768553 4.00696 0
M  V30 3046 H 288.946 1.88171 3.70897 0
M  V30 3047 H 287.523 0.0503508 3.72866 0
M  V30 3048 N 289.708 -1.40897 0.706093 0
M  V30 3049 C 290.658 -2.27987 0.0240746 0
M  V30 3050 C 291.642 -1.42759 -0.742204 0
M  V30 3051 O 292.834 -1.65936 -0.615966 0
M  V30 3052 C 289.963 -3.31186 -0.903907 0
M  V30 3053 C 289.049 -4.2389 -0.133318 0
M  V30 3054 N 289.44 -4.98113 0.878444 0
M  V30 3055 C 287.738 -4.44485 -0.367269 0
M  V30 3056 C 288.439 -5.6604 1.34064 0
M  V30 3057 N 287.415 -5.39522 0.664565 0
M  V30 3058 H 291.217 -2.82812 0.799658 0
M  V30 3059 H 288.731 -1.53235 0.537845 0
M  V30 3060 H 290.728 -3.92413 -1.40775 0
M  V30 3061 H 289.388 -2.77922 -1.67897 0
M  V30 3062 H 290.399 -5.02364 1.25901 0
M  V30 3063 H 287.076 -4.02213 -1.1194 0
M  V30 3064 H 288.466 -6.35524 2.1808 0
M  V30 3065 N 291.186 -0.45159 -1.50991 0
M  V30 3066 C 292.116 0.342898 -2.30969 0
M  V30 3067 C 293.097 1.00815 -1.37005 0
M  V30 3068 O 294.282 1.00907 -1.65926 0
M  V30 3069 C 291.412 1.43637 -3.16205 0
M  V30 3070 C 290.366 0.893818 -4.18563 0
M  V30 3071 C 289.692 2.08411 -4.92411 0
M  V30 3072 C 290.992 -0.0815568 -5.22236 0
M  V30 3073 H 292.686 -0.324556 -2.97636 0
M  V30 3074 H 290.232 -0.157531 -1.43136 0
M  V30 3075 H 292.185 1.9995 -3.70942 0
M  V30 3076 H 290.909 2.13232 -2.47386 0
M  V30 3077 H 289.568 0.352798 -3.64898 0
M  V30 3078 H 289.216 2.76658 -4.20082 0
M  V30 3079 H 288.916 1.72741 -5.61636 0
M  V30 3080 H 290.44 2.65251 -5.49976 0
M  V30 3081 H 291.854 0.391742 -5.7196 0
M  V30 3082 H 290.251 -0.351551 -5.99069 0
M  V30 3083 H 291.321 -1.01374 -4.74185 0
M  V30 3084 N 292.664 1.56529 -0.183458 0
M  V30 3085 C 293.594 2.21549 0.737456 0
M  V30 3086 C 294.575 1.17489 1.23005 0
M  V30 3087 O 295.76 1.45959 1.281 0
M  V30 3088 C 292.89 2.86575 1.96194 0
M  V30 3089 C 291.844 3.96778 1.60473 0
M  V30 3090 C 291.17 4.48911 2.90487 0
M  V30 3091 C 292.47 5.15767 0.823497 0
M  V30 3092 H 294.164 2.98761 0.195453 0
M  V30 3093 H 291.71 1.43702 0.0925686 0
M  V30 3094 H 293.663 3.30739 2.61131 0
M  V30 3095 H 292.387 2.06749 2.52828 0
M  V30 3096 H 291.046 3.53286 0.978997 0
M  V30 3097 H 290.694 3.65862 3.45186 0
M  V30 3098 H 290.394 5.23265 2.67335 0
M  V30 3099 H 291.918 4.95771 3.56432 0
M  V30 3100 H 293.332 5.56549 1.37571 0
M  V30 3101 H 291.729 5.96114 0.690551 0
M  V30 3102 H 292.799 4.84574 -0.177782 0
M  V30 3103 N 294.142 -0.090211 1.57342 0
M  V30 3104 C 295.37 -0.806224 1.90546 0
M  V30 3105 C 295.785 -1.72041 0.777644 0
M  V30 3106 O 295.142 -1.80778 -0.250103 0
M  V30 3107 C 295.193 -1.61546 3.23396 0
M  V30 3108 O 294.914 -0.738043 4.31839 0
M  V30 3109 C 296.415 -2.4341 3.70495 0
M  V30 3110 H 293.635 -0.230256 0.630257 0
M  V30 3111 H 296.179 -0.0659843 2.04394 0
M  V30 3112 H 294.334 -2.30816 3.11131 0
M  V30 3113 H 294.748 -1.29901 5.08159 0
M  V30 3114 H 296.222 -2.95676 4.66133 0
M  V30 3115 H 296.699 -3.22098 2.98579 0
M  V30 3116 H 297.305 -1.79331 3.85643 0
M  V30 3117 N 295.62 -1.53406 -0.361157 0
M  V30 3118 C 296.845 -1.74024 -1.12829 0
M  V30 3119 C 297.27 -0.470069 -1.82132 0
M  V30 3120 O 296.628 0.57619 -1.719 0
M  V30 3121 C 296.676 -2.90903 -2.13091 0
M  V30 3122 O 295.78 -2.59821 -3.20261 0
M  V30 3123 H 295.121 -0.577804 -0.327168 0
M  V30 3124 H 297.651 -2.00307 -0.41693 0
M  V30 3125 H 297.661 -3.17194 -2.56616 0
M  V30 3126 H 296.336 -3.83034 -1.62042 0
M  V30 3127 H 294.913 -2.44362 -2.81677 0
M  V30 3128 N 297.098 0.621204 -1.44841 0
M  V30 3129 C 298.346 1.37783 -1.47852 0
M  V30 3130 C 298.667 1.94653 -0.116224 0
M  V30 3131 O 297.937 1.76367 0.852737 0
M  V30 3132 H 296.517 0.511453 -0.544449 0
M  V30 3133 H 299.179 0.730446 -1.80694 0
M  V30 3134 H 298.275 2.20414 -2.20961 0
M  V30 3135 N 298.576 1.31904 0.862503 0
M  V30 3136 C 299.506 1.22782 1.98612 0
M  V30 3137 C 300.487 0.113362 1.69722 0
M  V30 3138 O 301.672 0.299218 1.91881 0
M  V30 3139 C 298.802 0.942058 3.34279 0
M  V30 3140 C 297.756 2.0169 3.77499 0
M  V30 3141 C 297.082 1.58369 5.10709 0
M  V30 3142 C 298.382 3.43096 3.93805 0
M  V30 3143 H 300.076 2.16788 2.06502 0
M  V30 3144 H 297.622 1.04366 0.992154 0
M  V30 3145 H 299.575 0.864818 4.1243 0
M  V30 3146 H 298.299 -0.0336603 3.26583 0
M  V30 3147 H 296.958 2.08416 3.01593 0
M  V30 3148 H 296.606 0.595628 4.99461 0
M  V30 3149 H 296.306 2.30279 5.40597 0
M  V30 3150 H 297.83 1.52067 5.91361 0
M  V30 3151 H 299.244 3.39003 4.62331 0
M  V30 3152 H 297.641 4.13288 4.35101 0
M  V30 3153 H 298.711 3.83334 2.96957 0
M  V30 3154 N 300.054 -1.07777 1.14986 0
M  V30 3155 C 301.282 -1.84018 0.945773 0
M  V30 3156 C 301.697 -1.81897 -0.505863 0
M  V30 3157 O 301.054 -1.22726 -1.35072 0
M  V30 3158 C 301.105 -3.31287 1.44677 0
M  V30 3159 O 300.826 -3.33449 2.84154 0
M  V30 3160 C 302.327 -4.24311 1.28355 0
M  V30 3161 H 299.547 -0.580716 0.336169 0
M  V30 3162 H 302.091 -1.36077 1.52654 0
M  V30 3163 H 300.246 -3.76594 0.908625 0
M  V30 3164 H 300.66 -4.25427 3.06777 0
M  V30 3165 H 302.134 -5.2573 1.68261 0
M  V30 3166 H 302.611 -4.38612 0.227184 0
M  V30 3167 H 303.217 -3.84836 1.81056 0
M  V30 3168 N 301.532 -0.945985 -1.26051 0
M  V30 3169 C 302.779 -0.596118 -1.93527 0
M  V30 3170 C 303.107 0.865559 -1.74179 0
M  V30 3171 O 302.362 1.63524 -1.0751 0
M  V30 3172 C 302.661 -0.890475 -3.46129 0
M  V30 3173 C 302.327 -2.3368 -3.85622 0
M  V30 3174 C 300.989 -2.73216 -3.96114 0
M  V30 3175 C 303.341 -3.27648 -4.05334 0
M  V30 3176 C 300.669 -4.05806 -4.2372 0
M  V30 3177 C 303.021 -4.59841 -4.3443 0
M  V30 3178 C 301.685 -4.99185 -4.43137 0
M  V30 3179 H 300.955 -0.218135 -0.708165 0
M  V30 3180 H 303.602 -1.1934 -1.49768 0
M  V30 3181 H 301.907 -0.210711 -3.91233 0
M  V30 3182 H 303.604 -0.598478 -3.96509 0
M  V30 3183 H 300.194 -2.02015 -3.78005 0
M  V30 3184 H 304.378 -2.98298 -3.96651 0
M  V30 3185 H 299.634 -4.35945 -4.28675 0
M  V30 3186 H 303.808 -5.32641 -4.48628 0
M  V30 3187 H 301.435 -6.01952 -4.64282 0
M  V30 3188 N 303.011 1.40521 -0.713556 0
M  V30 3189 C 303.941 2.33381 -0.0743864 0
M  V30 3190 C 304.922 1.52784 0.747735 0
M  V30 3191 O 306.107 1.81258 0.697071 0
M  V30 3192 C 303.237 3.36748 0.849598 0
M  V30 3193 C 302.191 4.27793 0.133247 0
M  V30 3194 C 301.517 5.21679 1.17281 0
M  V30 3195 C 302.817 5.12415 -1.01134 0
M  V30 3196 H 304.511 2.87081 -0.850007 0
M  V30 3197 H 302.057 1.38034 -0.410201 0
M  V30 3198 H 304.01 4.00648 1.30612 0
M  V30 3199 H 302.734 2.81439 1.65709 0
M  V30 3200 H 301.393 3.65342 -0.303426 0
M  V30 3201 H 301.041 4.62677 1.9733 0
M  V30 3202 H 300.741 5.83435 0.698397 0
M  V30 3203 H 302.265 5.88456 1.62947 0
M  V30 3204 H 303.679 5.69781 -0.634274 0
M  V30 3205 H 302.076 5.83203 -1.41399 0
M  V30 3206 H 303.146 4.48514 -1.84292 0
M  V30 3207 N 304.489 0.459591 1.5075 0
M  V30 3208 C 305.437 -0.354678 2.2988 0
M  V30 3209 C 306.431 -1.00086 1.36672 0
M  V30 3210 O 307.637 -0.933277 1.53915 0
M  V30 3211 H 304.012 -0.13321 0.740107 0
M  V30 3212 H 305.983 0.333269 2.96533 0
M  V30 3213 C 304.732 -1.43073 3.169 0
M  V30 3214 H 304.055 -0.942882 3.88523 0
M  V30 3215 H 305.495 -1.97328 3.75284 0
M  V30 3216 C 303.954 -2.42633 2.33732 0
M  V30 3217 O 304.484 -3.47658 2.01238 0
M  V30 3218 N 302.69 -2.14066 1.9653 0
M  V30 3219 H 302.237 -1.28685 2.23155 0
M  V30 3220 H 302.195 -2.80917 1.41185 0
M  V30 3221 N 305.967 -1.56429 0.191757 0
M  V30 3222 C 307.378 -1.83912 -0.321428 0
M  V30 3223 C 307.729 -1.11231 -1.61623 0
M  V30 3224 O 306.854 -0.37202 -2.13178 0
M  V30 3225 C 307.449 -3.33624 -0.589961 0
M  V30 3226 C 306.008 -3.6153 -1.04753 0
M  V30 3227 C 305.155 -2.7714 -0.0943327 0
M  V30 3228 H 308.106 -1.53161 0.415612 0
M  V30 3229 H 308.127 -3.52213 -1.43966 0
M  V30 3230 H 307.639 -3.86495 0.352588 0
M  V30 3231 H 305.74 -3.14089 -2.00447 0
M  V30 3232 H 305.853 -4.69737 -0.942549 0
M  V30 3233 H 304.217 -2.47638 -0.595589 0
M  V30 3234 H 305 -3.32799 0.842601 0
M  V30 3235 N 307.445 0.0818655 -1.57387 0
M  V30 3236 C 308.691 0.778884 -1.87896 0
M  V30 3237 C 309.046 1.75692 -0.784229 0
M  V30 3238 O 308.339 1.90417 0.212567 0
M  V30 3239 C 308.533 1.53513 -3.22752 0
M  V30 3240 C 308.362 0.631838 -4.45239 0
M  V30 3241 C 307.132 0.272571 -5.04564 0
M  V30 3242 C 309.33 -0.0670191 -5.14256 0
M  V30 3243 N 307.312 -0.637498 -6.10581 0
M  V30 3244 C 308.683 -0.834653 -6.14356 0
M  V30 3245 C 310.738 -0.139551 -4.97704 0
M  V30 3246 C 309.441 -1.66806 -6.99691 0
M  V30 3247 C 311.467 -0.959903 -5.83558 0
M  V30 3248 C 310.829 -1.71561 -6.83188 0
M  V30 3249 H 306.928 0.260764 -0.737242 0
M  V30 3250 H 309.512 0.0408227 -1.94657 0
M  V30 3251 H 307.683 2.24398 -3.17018 0
M  V30 3252 H 309.415 2.18038 -3.40942 0
M  V30 3253 H 306.17 0.62319 -4.69482 0
M  V30 3254 H 306.594 -1.08548 -6.68241 0
M  V30 3255 H 311.236 0.430376 -4.20604 0
M  V30 3256 H 308.954 -2.249 -7.76174 0
M  V30 3257 H 312.54 -1.01887 -5.72809 0
M  V30 3258 H 311.42 -2.34017 -7.48469 0
M  V30 3259 N 308.923 1.53595 0.353017 0
M  V30 3260 C 310.153 1.74058 1.11299 0
M  V30 3261 C 310.561 0.475205 1.83135 0
M  V30 3262 O 309.904 -0.562344 1.74881 0
M  V30 3263 C 309.966 2.85994 2.17825 0
M  V30 3264 C 309.63 4.25923 1.65647 0
M  V30 3265 C 310.627 5.07829 1.11383 0
M  V30 3266 C 308.312 4.72377 1.7078 0
M  V30 3267 C 310.306 6.34285 0.629439 0
M  V30 3268 C 307.993 5.98808 1.21953 0
M  V30 3269 C 308.991 6.79594 0.681265 0
M  V30 3270 O 308.679 8.03651 0.200248 0
M  V30 3271 H 308.411 0.585327 0.338183 0
M  V30 3272 H 310.965 2.01186 0.413927 0
M  V30 3273 H 309.195 2.54368 2.91262 0
M  V30 3274 H 310.884 2.94515 2.79313 0
M  V30 3275 H 311.65 4.73107 1.06746 0
M  V30 3276 H 307.529 4.0956 2.11617 0
M  V30 3277 H 311.073 6.97288 0.208636 0
M  V30 3278 H 306.97 6.33026 1.26287 0
M  V30 3279 H 307.738 8.1788 0.318416 0
M  V30 3280 N 310.401 -0.613514 1.45168 0
M  V30 3281 C 311.311 -1.75296 1.55912 0
M  V30 3282 C 312.327 -1.68244 0.443856 0
M  V30 3283 O 313.503 -1.88706 0.70371 0
M  V30 3284 C 310.568 -3.1174 1.5172 0
M  V30 3285 C 309.629 -3.30291 2.74238 0
M  V30 3286 C 308.862 -4.60226 2.70236 0
M  V30 3287 O 309.085 -5.42168 1.77229 0
M  V30 3288 O 308.019 -4.81361 3.61352 0
M  V30 3289 H 311.845 -1.69183 2.52212 0
M  V30 3290 H 309.43 -0.776886 1.27612 0
M  V30 3291 H 311.312 -3.93044 1.51968 0
M  V30 3292 H 309.987 -3.18357 0.585697 0
M  V30 3293 H 308.894 -2.48598 2.79553 0
M  V30 3294 H 310.227 -3.28547 3.66494 0
M  V30 3295 N 311.879 -1.3236 -0.855495 0
M  V30 3296 C 312.842 -1.21164 -1.94556 0
M  V30 3297 C 313.842 -0.134908 -1.60233 0
M  V30 3298 O 315.032 -0.385249 -1.69887 0
M  V30 3299 C 312.164 -0.863192 -3.29791 0
M  V30 3300 H 313.357 -2.18038 -2.05911 0
M  V30 3301 H 310.91 -1.16179 -1.04557 0
M  V30 3302 H 311.645 0.103769 -3.24134 0
M  V30 3303 H 311.43 -1.64166 -3.56078 0
M  V30 3304 H 312.92 -0.809156 -4.09686 0
M  V30 3305 N 313.357 1.07166 -1.15556 0
M  V30 3306 C 314.582 1.84053 -0.955988 0
M  V30 3307 C 315.007 1.81586 0.490739 0
M  V30 3308 O 314.365 1.21018 1.34997 0
M  V30 3309 C 314.413 3.28957 -1.47714 0
M  V30 3310 O 313.517 4.06795 -0.677593 0
M  V30 3311 H 312.858 0.569842 -0.340847 0
M  V30 3312 H 315.388 1.35178 -1.53584 0
M  V30 3313 H 315.398 3.79788 -1.4908 0
M  V30 3314 H 314.073 3.30068 -2.53037 0
M  V30 3315 H 312.65 3.6561 -0.733721 0
M  V30 3316 N 314.835 0.952656 1.25548 0
M  V30 3317 C 315.765 0.489287 2.28316 0
M  V30 3318 C 316.746 -0.463359 1.63667 0
M  V30 3319 O 317.931 -0.36274 1.90782 0
M  V30 3320 C 315.061 -0.235603 3.465 0
M  V30 3321 C 314.015 0.631593 4.23314 0
M  V30 3322 C 313.341 -0.223923 5.34231 0
M  V30 3323 C 314.641 1.90871 4.86174 0
M  V30 3324 H 316.335 1.34822 2.67326 0
M  V30 3325 H 313.881 0.649728 1.28509 0
M  V30 3326 H 315.834 -0.570882 4.17515 0
M  V30 3327 H 314.558 -1.12877 3.06474 0
M  V30 3328 H 313.217 0.949929 3.54079 0
M  V30 3329 H 312.865 -1.11678 4.90446 0
M  V30 3330 H 312.565 0.35299 5.86539 0
M  V30 3331 H 314.089 -0.554214 6.0808 0
M  V30 3332 H 315.503 1.63997 5.49343 0
M  V30 3333 H 313.9 2.43112 5.4865 0
M  V30 3334 H 314.97 2.61304 4.08471 0
M  V30 3335 N 316.313 -1.40141 0.720998 0
M  V30 3336 C 317.243 -2.33339 0.0867621 0
M  V30 3337 C 318.224 -1.53178 -0.739622 0
M  V30 3338 O 319.409 -1.81625 -0.687449 0
M  V30 3339 C 316.539 -3.37194 -0.831728 0
M  V30 3340 C 315.493 -4.27857 -0.110558 0
M  V30 3341 C 314.819 -5.22294 -1.14513 0
M  V30 3342 C 316.119 -5.11872 1.0385 0
M  V30 3343 H 317.813 -2.86626 0.865219 0
M  V30 3344 H 315.359 -1.37814 0.417516 0
M  V30 3345 H 317.312 -4.01335 -1.28485 0
M  V30 3346 H 316.036 -2.82314 -1.64214 0
M  V30 3347 H 314.695 -3.65176 0.322797 0
M  V30 3348 H 314.343 -4.63717 -1.94874 0
M  V30 3349 H 314.043 -5.83797 -0.667446 0
M  V30 3350 H 315.567 -5.89312 -1.59824 0
M  V30 3351 H 316.981 -5.69436 0.664482 0
M  V30 3352 H 315.378 -5.82445 1.4449 0
M  V30 3353 H 316.448 -4.4753 1.86668 0
M  V30 3354 N 317.792 -0.46758 -1.50504 0
M  V30 3355 C 319.203 -0.0116166 -1.86696 0
M  V30 3356 C 319.554 1.39202 -1.38265 0
M  V30 3357 O 318.679 2.0313 -0.746132 0
M  V30 3358 C 319.274 -0.0143044 -3.38797 0
M  V30 3359 C 317.833 0.386175 -3.74414 0
M  V30 3360 C 316.98 -0.401287 -2.74381 0
M  V30 3361 H 319.931 -0.682022 -1.43297 0
M  V30 3362 H 319.952 0.788641 -3.72237 0
M  V30 3363 H 319.464 -1.03602 -3.74016 0
M  V30 3364 H 317.565 1.41237 -3.44794 0
M  V30 3365 H 317.678 0.0899596 -4.79016 0
M  V30 3366 H 316.042 0.144536 -2.5429 0
M  V30 3367 H 316.825 -1.42244 -3.12444 0
M  V30 3368 N 319.27 1.56325 -0.20005 0
M  V30 3369 C 320.519 1.96895 0.437652 0
M  V30 3370 C 320.832 1.08999 1.62415 0
M  V30 3371 O 322.038 1.39372 2.32997 0
M  V30 3372 C 320.494 3.50198 0.830025 0
M  V30 3373 C 320.102 4.46765 -0.332461 0
M  V30 3374 C 321.846 3.99526 1.43453 0
M  V30 3375 C 319.753 5.91344 0.0811468 0
M  V30 3376 H 318.683 0.735209 0.167282 0
M  V30 3377 H 321.334 1.81148 -0.292853 0
M  V30 3378 H 319.716 3.61467 1.61734 0
M  V30 3379 H 320.89 4.47231 -1.11 0
M  V30 3380 H 319.205 4.07657 -0.848789 0
M  V30 3381 H 321.802 5.05025 1.75652 0
M  V30 3382 H 322.145 3.44122 2.34277 0
M  V30 3383 H 322.678 3.91393 0.71109 0
M  V30 3384 H 319.417 6.50685 -0.793033 0
M  V30 3385 H 318.937 5.94121 0.823445 0
M  V30 3386 H 320.616 6.44945 0.515252 0
M  V30 3387 N 320.748 -0.0735177 1.57428 0
M  V30 3388 C 321.978 -0.78483 1.91112 0
M  V30 3389 C 322.386 -1.71729 0.7941 0
M  V30 3390 O 321.729 -1.82105 -0.241542 0
M  V30 3391 C 321.791 -1.63346 3.20247 0
M  V30 3392 C 321.455 -0.870557 4.48632 0
M  V30 3393 C 322.452 -0.19058 5.19551 0
M  V30 3394 C 320.137 -0.838242 4.95256 0
M  V30 3395 C 322.131 0.511503 6.35344 0
M  V30 3396 C 319.818 -0.132386 6.10957 0
M  V30 3397 C 320.816 0.541288 6.80852 0
M  V30 3398 O 320.504 1.23578 7.94345 0
M  V30 3399 H 320.236 -0.228408 0.636244 0
M  V30 3400 H 322.79 -0.0486039 2.05342 0
M  V30 3401 H 321.02 -2.41245 3.02222 0
M  V30 3402 H 322.709 -2.22329 3.39595 0
M  V30 3403 H 323.475 -0.206864 4.84559 0
M  V30 3404 H 319.354 -1.35206 4.40727 0
M  V30 3405 H 322.898 1.03789 6.89836 0
M  V30 3406 H 318.795 -0.114023 6.45399 0
M  V30 3407 H 319.563 1.14487 8.10454 0
M  V30 3408 N 322.226 -1.5378 -0.344866 0
M  V30 3409 C 323.189 -1.80981 -1.40637 0
M  V30 3410 C 324.189 -0.680816 -1.45676 0
M  V30 3411 O 325.379 -0.949095 -1.46075 0
M  V30 3412 C 322.511 -1.95063 -2.79577 0
M  V30 3413 H 323.704 -2.75803 -1.17783 0
M  V30 3414 H 321.257 -1.45173 -0.579181 0
M  V30 3415 H 321.992 -1.02379 -3.07716 0
M  V30 3416 H 321.777 -2.77198 -2.77315 0
M  V30 3417 H 323.267 -2.17629 -3.56409 0
M  V30 3418 N 323.704 0.605807 -1.45491 0
M  V30 3419 C 324.95 1.36679 -1.49823 0
M  V30 3420 C 325.283 1.93693 -0.140175 0
M  V30 3421 O 324.558 1.75158 0.845581 0
M  V30 3422 C 324.841 2.51337 -2.57879 0
M  V30 3423 C 324.694 1.99508 -4.03134 0
M  V30 3424 C 326.013 3.53463 -2.62205 0
M  V30 3425 H 323.132 0.495617 -0.545466 0
M  V30 3426 H 325.774 0.682732 -1.7731 0
M  V30 3427 H 323.924 3.09691 -2.34571 0
M  V30 3428 H 325.596 1.45789 -4.37656 0
M  V30 3429 H 323.839 1.30496 -4.13707 0
M  V30 3430 H 324.51 2.82169 -4.74431 0
M  V30 3431 H 326.986 3.04953 -2.83095 0
M  V30 3432 H 325.862 4.31178 -3.39672 0
M  V30 3433 H 326.123 4.09197 -1.67363 0
M  V30 3434 N 325.182 1.32811 0.848464 0
M  V30 3435 C 326.41 1.26739 1.63538 0
M  V30 3436 C 326.825 -0.163484 1.88091 0
M  V30 3437 O 326.182 -1.10258 1.45429 0
M  V30 3438 C 326.233 2.03013 2.99112 0
M  V30 3439 O 325.954 3.40518 2.75643 0
M  V30 3440 C 327.455 2.04038 3.93552 0
M  V30 3441 H 324.675 0.437024 0.509167 0
M  V30 3442 H 327.219 1.75033 1.05753 0
M  V30 3443 H 325.374 1.58426 3.53525 0
M  V30 3444 H 325.788 3.79635 3.61908 0
M  V30 3445 H 327.262 2.61877 4.85926 0
M  V30 3446 H 327.739 1.0282 4.26995 0
M  V30 3447 H 328.345 2.486 3.45077 0
M  V30 3448 N 326.66 -1.06551 1.16123 0
M  V30 3449 C 327.906 -1.79567 0.94252 0
M  V30 3450 C 328.239 -1.86869 -0.528547 0
M  V30 3451 O 327.514 -1.35838 -1.39206 0
M  V30 3452 C 327.797 -3.24195 1.56747 0
M  V30 3453 C 327.65 -3.24989 3.10969 0
M  V30 3454 C 328.969 -4.21678 1.25998 0
M  V30 3455 H 326.088 -0.651883 0.343828 0
M  V30 3456 H 328.73 -1.2463 1.43413 0
M  V30 3457 H 326.88 -3.71107 1.14942 0
M  V30 3458 H 328.552 -2.86258 3.61737 0
M  V30 3459 H 326.795 -2.63716 3.44436 0
M  V30 3460 H 327.466 -4.27005 3.49815 0
M  V30 3461 H 329.942 -3.83196 1.62174 0
M  V30 3462 H 328.818 -5.21146 1.7233 0
M  V30 3463 H 329.079 -4.4174 0.178367 0
M  V30 3464 N 328.138 -0.959301 -1.25041 0
M  V30 3465 C 329.363 -0.633507 -1.97488 0
M  V30 3466 C 329.788 0.788555 -1.70773 0
M  V30 3467 O 329.146 1.53394 -0.966431 0
M  V30 3468 C 329.194 -0.904057 -3.49083 0
M  V30 3469 O 328.298 0.0147939 -4.12397 0
M  V30 3470 H 327.639 -0.240368 -0.618966 0
M  V30 3471 H 330.169 -1.28717 -1.59038 0
M  V30 3472 H 330.179 -0.832203 -3.99423 0
M  V30 3473 H 328.854 -1.94048 -3.67856 0
M  V30 3474 H 327.431 -0.109664 -3.72739 0
M  V30 3475 N 329.616 1.39756 -0.72842 0
M  V30 3476 C 330.549 2.28176 -0.0330172 0
M  V30 3477 C 331.527 1.44035 0.754501 0
M  V30 3478 O 332.711 1.73434 0.738445 0
M  V30 3479 C 329.838 3.24795 0.960504 0
M  V30 3480 C 328.884 4.25693 0.262264 0
M  V30 3481 S 329.717 5.25714 -1.01906 0
M  V30 3482 C 330.873 6.25894 -0.0279717 0
M  V30 3483 H 331.106 2.86807 -0.78287 0
M  V30 3484 H 328.639 1.45382 -0.519951 0
M  V30 3485 H 330.597 3.80983 1.52846 0
M  V30 3486 H 329.258 2.65196 1.68315 0
M  V30 3487 H 328.451 4.93699 1.01379 0
M  V30 3488 H 328.053 3.7327 -0.233482 0
M  V30 3489 H 330.345 6.72585 0.814621 0
M  V30 3490 H 331.288 7.04876 -0.67499 0
M  V30 3491 H 331.696 5.63466 0.341489 0
M  V30 3492 N 331.094 0.475555 1.50254 0
M  V30 3493 C 332.342 -0.077738 2.0195 0
M  V30 3494 C 332.663 -1.39813 1.35931 0
M  V30 3495 O 331.933 -1.89249 0.506123 0
M  V30 3496 H 330.513 -0.031719 0.746326 0
M  V30 3497 H 333.175 0.626995 1.84539 0
M  V30 3498 H 332.271 -0.225995 3.11281 0
M  V30 3499 N 332.573 -1.56217 0.208337 0
M  V30 3500 C 333.503 -2.22694 -0.702116 0
M  V30 3501 C 334.484 -1.19432 -1.2112 0
M  V30 3502 O 335.669 -1.47978 -1.25762 0
M  V30 3503 C 332.799 -2.8966 -1.9161 0
M  V30 3504 C 331.753 -3.9928 -1.5414 0
M  V30 3505 C 331.079 -4.53476 -2.83308 0
M  V30 3506 C 332.379 -5.17012 -0.741339 0
M  V30 3507 H 334.073 -2.99034 -0.147898 0
M  V30 3508 H 331.619 -1.43831 -0.0696951 0
M  V30 3509 H 333.572 -3.34852 -2.55836 0
M  V30 3510 H 332.296 -2.10746 -2.49507 0
M  V30 3511 H 330.955 -3.54799 -0.922668 0
M  V30 3512 H 330.603 -3.71308 -3.39322 0
M  V30 3513 H 330.303 -5.27451 -2.58976 0
M  V30 3514 H 331.827 -5.01378 -3.485 0
M  V30 3515 H 333.241 -5.58667 -1.28699 0
M  V30 3516 H 331.638 -5.97137 -0.595627 0
M  V30 3517 H 332.708 -4.8423 0.254851 0
M  V30 3518 N 334.051 0.0651679 -1.57465 0
M  V30 3519 C 335.297 0.758912 -1.88712 0
M  V30 3520 C 335.652 1.7485 -0.802819 0
M  V30 3521 O 334.945 1.90632 0.192359 0
M  V30 3522 C 335.139 1.50081 -3.24362 0
M  V30 3523 C 334.968 0.584579 -4.45884 0
M  V30 3524 C 333.738 0.219039 -5.04825 0
M  V30 3525 C 335.936 -0.121559 -5.14156 0
M  V30 3526 N 333.918 -0.702222 -6.09871 0
M  V30 3527 C 335.289 -0.899767 -6.13436 0
M  V30 3528 C 337.344 -0.192331 -4.97528 0
M  V30 3529 C 336.047 -1.74218 -6.97883 0
M  V30 3530 C 338.073 -1.02174 -5.82507 0
M  V30 3531 C 337.435 -1.78798 -6.8133 0
M  V30 3532 H 333.534 0.25293 -0.739967 0
M  V30 3533 H 336.118 0.0201744 -1.9469 0
M  V30 3534 H 334.289 2.21023 -3.1938 0
M  V30 3535 H 336.021 2.14409 -3.43236 0
M  V30 3536 H 332.776 0.57336 -4.70117 0
M  V30 3537 H 333.2 -1.15629 -6.67052 0
M  V30 3538 H 337.842 0.385741 -4.21037 0
M  V30 3539 H 335.56 -2.3312 -7.73745 0
M  V30 3540 H 339.146 -1.07957 -5.71696 0
M  V30 3541 H 338.026 -2.41942 -7.45945 0
M  V30 3542 N 335.529 1.53961 0.336706 0
M  V30 3543 C 336.492 1.81724 1.39675 0
M  V30 3544 C 337.492 0.688532 1.45313 0
M  V30 3545 O 338.682 0.956829 1.45569 0
M  V30 3546 C 335.814 1.96543 2.78538 0
M  V30 3547 H 337.007 2.76424 1.16318 0
M  V30 3548 H 334.56 1.45478 0.571474 0
M  V30 3549 H 335.295 1.0401 3.07168 0
M  V30 3550 H 335.08 2.78665 2.75841 0
M  V30 3551 H 336.57 2.19516 3.5525 0
M  V30 3552 N 337.007 -0.598083 1.45811 0
M  V30 3553 C 338.254 -1.35681 1.50323 0
M  V30 3554 C 338.582 -1.9393 0.148739 0
M  V30 3555 O 337.837 -1.76094 -0.853787 0
M  V30 3556 C 338.136 -2.51669 2.53766 0
M  V30 3557 C 337.802 -2.11508 3.98215 0
M  V30 3558 C 336.464 -2.0027 4.37545 0
M  V30 3559 C 338.816 -1.80308 4.89018 0
M  V30 3560 C 336.144 -1.56067 5.65562 0
M  V30 3561 C 338.496 -1.37589 6.17456 0
M  V30 3562 C 337.16 -1.24916 6.55708 0
M  V30 3563 H 336.43 -0.496492 0.550069 0
M  V30 3564 H 339.077 -0.675052 1.79207 0
M  V30 3565 H 337.382 -3.25225 2.18486 0
M  V30 3566 H 339.079 -3.09895 2.54492 0
M  V30 3567 H 335.669 -2.21185 3.67117 0
M  V30 3568 H 339.853 -1.87884 4.59362 0
M  V30 3569 H 335.109 -1.44886 5.93985 0
M  V30 3570 H 339.283 -1.12495 6.87254 0
M  V30 3571 H 336.91 -0.904386 7.54801 0
M  V30 3572 N 338.485 -1.33259 -0.841409 0
M  V30 3573 C 339.734 -1.23921 -1.59143 0
M  V30 3574 C 340.047 0.1941 -1.94635 0
M  V30 3575 O 341.253 0.409474 -2.68394 0
M  V30 3576 C 339.709 -2.17119 -2.87032 0
M  V30 3577 C 339.317 -3.65606 -2.58914 0
M  V30 3578 C 341.061 -2.16648 -3.65053 0
M  V30 3579 C 338.968 -4.50726 -3.82884 0
M  V30 3580 H 337.898 -0.460264 -0.597221 0
M  V30 3581 H 340.549 -1.58307 -0.927959 0
M  V30 3582 H 338.931 -1.75663 -3.54906 0
M  V30 3583 H 340.105 -4.15487 -1.99267 0
M  V30 3584 H 338.42 -3.68341 -1.942 0
M  V30 3585 H 341.017 -2.77474 -4.57069 0
M  V30 3586 H 341.36 -1.16088 -3.99787 0
M  V30 3587 H 341.893 -2.56453 -3.041 0
M  V30 3588 H 338.632 -5.52151 -3.53283 0
M  V30 3589 H 338.152 -4.0559 -4.41879 0
M  V30 3590 H 339.831 -4.64401 -4.50489 0
M  V30 3591 N 339.963 1.05934 -1.16686 0
M  V30 3592 C 341.191 1.8249 -0.974929 0
M  V30 3593 C 341.606 1.82679 0.476861 0
M  V30 3594 O 340.963 1.2486 1.33103 0
M  V30 3595 C 341.014 3.28943 -1.49929 0
M  V30 3596 O 340.735 3.28886 -2.89423 0
M  V30 3597 C 342.236 4.22215 -1.35089 0
M  V30 3598 H 339.456 0.575295 -0.345365 0
M  V30 3599 H 342 1.33631 -1.548 0
M  V30 3600 H 340.155 3.751 -0.968423 0
M  V30 3601 H 340.569 4.20493 -3.13506 0
M  V30 3602 H 342.043 5.22987 -1.76603 0
M  V30 3603 H 342.52 4.38195 -0.296935 0
M  V30 3604 H 343.126 3.81907 -1.87155 0
M  V30 3605 N 341.441 0.965919 1.2453 0
M  V30 3606 C 342.404 0.499547 2.2369 0
M  V30 3607 C 343.404 -0.40294 1.5567 0
M  V30 3608 O 344.594 -0.19865 1.73064 0
M  V30 3609 C 341.726 -0.276792 3.39774 0
M  V30 3610 H 342.919 1.37613 2.66463 0
M  V30 3611 H 340.472 0.750324 1.37112 0
M  V30 3612 H 341.207 -1.17055 3.02438 0
M  V30 3613 H 340.992 0.370826 3.90343 0
M  V30 3614 H 342.482 -0.592175 4.1338 0
M  V30 3615 N 342.919 -1.39368 0.735821 0
M  V30 3616 C 344.167 -2.00101 0.283562 0
M  V30 3617 C 344.488 -1.5868 -1.13338 0
M  V30 3618 O 343.758 -0.835423 -1.77193 0
M  V30 3619 H 342.338 -0.740024 0.101851 0
M  V30 3620 H 345 -1.70404 0.945962 0
M  V30 3621 H 344.096 -3.10323 0.332604 0
M  V30 3622 N 344.397 -0.483516 -1.5 0
M  V30 3623 C 345.645 0.067027 -2.01989 0
M  V30 3624 C 345.966 1.3909 -1.36671 0
M  V30 3625 O 345.236 1.88978 -0.516152 0
M  V30 3626 H 343.816 0.0277606 -0.746484 0
M  V30 3627 H 346.478 -0.636773 -1.84204 0
M  V30 3628 H 345.574 0.209484 -3.11396 0
M  V30 3629 N 345.875 1.56104 -0.216619 0
M  V30 3630 C 347.1 2.0301 0.424462 0
M  V30 3631 C 347.525 1.0955 1.52907 0
M  V30 3632 O 346.883 0.0827914 1.81111 0
M  V30 3633 C 346.931 3.4819 0.937883 0
M  V30 3634 O 346.035 3.57865 2.04955 0
M  V30 3635 H 345.376 0.656925 0.0966755 0
M  V30 3636 H 347.906 2.01859 -0.33381 0
M  V30 3637 H 347.916 3.88413 1.24897 0
M  V30 3638 H 346.591 4.15699 0.129387 0
M  V30 3639 H 345.168 3.29527 1.74546 0
M  V30 3640 N 347.353 -0.0568162 1.57498 0
M  V30 3641 C 348.283 -1.06593 2.0775 0
M  V30 3642 C 349.264 -1.39448 0.974082 0
M  V30 3643 O 350.449 -1.48815 1.24771 0
M  V30 3644 C 347.579 -2.37509 2.5339 0
M  V30 3645 C 346.533 -2.1897 3.67745 0
M  V30 3646 C 345.859 -3.55402 3.99492 0
M  V30 3647 C 347.159 -1.59859 4.97235 0
M  V30 3648 H 348.853 -0.647706 2.9231 0
M  V30 3649 H 346.399 -0.310116 1.40621 0
M  V30 3650 H 348.352 -3.08409 2.87162 0
M  V30 3651 H 347.076 -2.8134 1.65878 0
M  V30 3652 H 345.735 -1.50508 3.3428 0
M  V30 3653 H 345.383 -3.9683 3.09088 0
M  V30 3654 H 345.083 -3.43831 4.76502 0
M  V30 3655 H 346.607 -4.27708 4.35773 0
M  V30 3656 H 348.021 -2.20642 5.29141 0
M  V30 3657 H 346.418 -1.58942 5.78669 0
M  V30 3658 H 347.488 -0.561506 4.81638 0
M  V30 3659 N 348.832 -1.54138 -0.328536 0
M  V30 3660 C 350.248 -1.44736 -0.672574 0
M  V30 3661 C 350.448 -0.616217 -1.91846 0
M  V30 3662 O 349.504 -0.113067 -2.52247 0
M  V30 3663 C 350.817 -2.884 -0.851217 0
M  V30 3664 C 352.365 -2.98271 -0.948877 0
M  V30 3665 C 352.84 -4.43074 -1.15973 0
M  V30 3666 N 354.331 -4.46665 -1.22658 0
M  V30 3667 C 355.066 -5.55857 -1.40751 0
M  V30 3668 N 354.562 -6.75026 -1.5592 0
M  V30 3669 N 356.355 -5.43495 -1.4342 0
M  V30 3670 H 348.506 -2.06661 0.490421 0
M  V30 3671 H 350.769 -0.934812 0.157579 0
M  V30 3672 H 350.475 -3.51699 -0.00704236 0
M  V30 3673 H 350.349 -3.34225 -1.74853 0
M  V30 3674 H 352.736 -2.35102 -1.78356 0
M  V30 3675 H 352.817 -2.55785 -0.0281435 0
M  V30 3676 H 352.461 -5.06827 -0.329915 0
M  V30 3677 H 352.391 -4.83165 -2.09426 0
M  V30 3678 H 354.882 -3.60797 -1.124 0
M  V30 3679 H 355.195 -7.54004 -1.69404 0
M  V30 3680 H 353.54 -6.77944 -1.53027 0
M  V30 3681 H 356.731 -4.49349 -1.31162 0
M  V30 3682 H 356.904 -6.28649 -1.57178 0
M  V30 3683 N 350.31 0.590341 -1.46126 0
M  V30 3684 C 351.535 1.37991 -1.54833 0
M  V30 3685 C 351.96 1.87163 -0.187506 0
M  V30 3686 O 351.318 1.61133 0.831008 0
M  V30 3687 C 351.366 2.54867 -2.55098 0
M  V30 3688 O 350.47 3.56061 -2.08073 0
M  V30 3689 H 349.811 0.411265 -0.521303 0
M  V30 3690 H 352.341 0.716819 -1.91632 0
M  V30 3691 H 352.351 3.01886 -2.74461 0
M  V30 3692 H 351.026 2.18429 -3.53923 0
M  V30 3693 H 349.603 3.15574 -1.98664 0
M  V30 3694 N 351.788 1.33704 0.83433 0
M  V30 3695 C 353.037 1.24763 1.58484 0
M  V30 3696 C 353.35 -0.183775 1.94735 0
M  V30 3697 O 354.556 -0.395234 2.68608 0
M  V30 3698 C 353.012 2.18638 2.85876 0
M  V30 3699 C 352.62 3.66974 2.56971 0
M  V30 3700 C 354.364 2.18581 3.63899 0
M  V30 3701 C 352.271 4.5275 3.80488 0
M  V30 3702 H 351.201 0.463425 0.594772 0
M  V30 3703 H 353.852 1.58797 0.919551 0
M  V30 3704 H 352.234 1.77542 3.5397 0
M  V30 3705 H 353.408 4.16538 1.9706 0
M  V30 3706 H 351.723 3.69366 1.92244 0
M  V30 3707 H 354.32 2.79894 4.55591 0
M  V30 3708 H 354.663 1.18207 3.99165 0
M  V30 3709 H 355.196 2.58062 3.02735 0
M  V30 3710 H 351.935 5.54017 3.5035 0
M  V30 3711 H 351.455 4.07927 4.39722 0
M  V30 3712 H 353.134 4.66784 4.4802 0
M  V30 3713 N 353.266 -1.05314 1.17247 0
M  V30 3714 C 354.198 -2.13023 0.845812 0
M  V30 3715 C 355.211 -1.62096 -0.151246 0
M  V30 3716 O 356.4 -1.78343 0.0748818 0
M  V30 3717 C 353.5 -3.38047 0.240292 0
M  V30 3718 C 352.673 -4.18255 1.27991 0
M  V30 3719 C 351.732 -5.21625 0.692375 0
M  V30 3720 O 350.758 -5.52619 1.36385 0
M  V30 3721 N 351.96 -5.78201 -0.516178 0
M  V30 3722 H 354.725 -2.41642 1.77283 0
M  V30 3723 H 352.286 -1.21401 1.07115 0
M  V30 3724 H 354.278 -4.04359 -0.16603 0
M  V30 3725 H 352.848 -3.06972 -0.590487 0
M  V30 3726 H 352.068 -3.47451 1.86203 0
M  V30 3727 H 353.356 -4.68643 1.98119 0
M  V30 3728 H 352.754 -5.55301 -1.07969 0
M  V30 3729 H 351.311 -6.4604 -0.86458 0
M  V30 3730 N 354.744 -0.972509 -1.24016 0
M  V30 3731 C 356.16 -0.679827 -1.44397 0
M  V30 3732 C 356.36 0.756716 -1.86751 0
M  V30 3733 O 355.416 1.53007 -2.00861 0
M  V30 3734 C 356.729 -1.66803 -2.50195 0
M  V30 3735 C 358.277 -1.68119 -2.64017 0
M  V30 3736 C 358.752 -2.65748 -3.73017 0
M  V30 3737 N 360.243 -2.64219 -3.8045 0
M  V30 3738 C 360.978 -3.36433 -4.64328 0
M  V30 3739 N 360.474 -4.1818 -5.52356 0
M  V30 3740 N 362.267 -3.25235 -4.58453 0
M  V30 3741 H 354.418 -1.90059 -0.948228 0
M  V30 3742 H 356.681 -0.818527 -0.478245 0
M  V30 3743 H 356.387 -2.69498 -2.25973 0
M  V30 3744 H 356.261 -1.4446 -3.48441 0
M  V30 3745 H 358.648 -0.661319 -2.87594 0
M  V30 3746 H 358.729 -1.94525 -1.66113 0
M  V30 3747 H 358.373 -3.67872 -3.50189 0
M  V30 3748 H 358.303 -2.36619 -4.70446 0
M  V30 3749 H 360.794 -2.04887 -3.17537 0
M  V30 3750 H 361.107 -4.70157 -6.13329 0
M  V30 3751 H 359.452 -4.22273 -5.52006 0
M  V30 3752 H 362.643 -2.60829 -3.88698 0
M  V30 3753 H 362.816 -3.81776 -5.23594 0
M  V30 3754 N 356.222 1.38976 -0.743202 0
M  V30 3755 C 357.447 2.05161 -0.303936 0
M  V30 3756 C 357.872 1.55677 1.05576 0
M  V30 3757 O 357.23 0.704131 1.67068 0
M  V30 3758 C 357.278 3.59138 -0.324373 0
M  V30 3759 O 356.382 4.06668 0.685204 0
M  V30 3760 H 355.723 0.649815 -0.136518 0
M  V30 3761 H 358.253 1.77852 -1.01142 0
M  V30 3762 H 358.263 4.07639 -0.171618 0
M  V30 3763 H 356.938 3.94515 -1.31647 0
M  V30 3764 H 355.515 3.69561 0.497913 0
M  V30 3765 N 357.7 0.491464 1.49741 0
M  V30 3766 C 358.63 -0.28154 2.31796 0
M  V30 3767 C 359.611 -0.971473 1.3963 0
M  V30 3768 O 360.796 -0.964719 1.68543 0
M  V30 3769 C 357.926 -1.35203 3.19902 0
M  V30 3770 C 356.88 -0.782529 4.20786 0
M  V30 3771 C 356.206 -1.95283 4.97764 0
M  V30 3772 C 357.506 0.21999 5.21837 0
M  V30 3773 H 359.2 0.403355 2.96671 0
M  V30 3774 H 356.746 0.195425 1.42668 0
M  V30 3775 H 358.699 -1.90045 3.76113 0
M  V30 3776 H 357.423 -2.06598 2.52953 0
M  V30 3777 H 356.082 -0.255928 3.65706 0
M  V30 3778 H 355.73 -2.65423 4.2727 0
M  V30 3779 H 355.43 -1.57789 5.66018 0
M  V30 3780 H 356.954 -2.50577 5.56816 0
M  V30 3781 H 358.368 -0.23996 5.72798 0
M  V30 3782 H 356.765 0.51026 5.97927 0
M  V30 3783 H 357.835 1.13911 4.7133 0
M  V30 3784 N 359.178 -1.55987 0.224894 0
M  V30 3785 C 360.108 -2.23426 -0.678457 0
M  V30 3786 C 361.089 -1.20709 -1.19847 0
M  V30 3787 O 362.274 -1.49304 -1.24186 0
M  V30 3788 C 359.404 -2.91676 -1.88527 0
M  V30 3789 C 358.358 -4.00893 -1.49896 0
M  V30 3790 C 357.684 -4.56455 -2.78483 0
M  V30 3791 C 358.984 -5.17769 -0.686461 0
M  V30 3792 H 360.678 -2.99175 -0.116173 0
M  V30 3793 H 358.224 -1.43897 -0.054436 0
M  V30 3794 H 360.177 -3.37547 -2.5227 0
M  V30 3795 H 358.901 -2.1338 -2.47258 0
M  V30 3796 H 357.56 -3.55758 -0.884985 0
M  V30 3797 H 357.208 -3.74886 -3.35365 0
M  V30 3798 H 356.908 -5.30169 -2.53368 0
M  V30 3799 H 358.432 -5.05047 -3.43162 0
M  V30 3800 H 359.846 -5.60001 -1.22767 0
M  V30 3801 H 358.243 -5.97735 -0.532259 0
M  V30 3802 H 359.313 -4.83932 0.306196 0
M  V30 3803 N 360.656 0.0484629 -1.57525 0
M  V30 3804 C 361.896 0.748196 -1.90214 0
M  V30 3805 C 362.26 1.73545 -0.821347 0
M  V30 3806 O 363.461 2.48201 -1.03198 0
M  V30 3807 C 361.732 1.41727 -3.28098 0
M  V30 3808 S 363.291 2.14884 -3.82584 0
M  V30 3809 H 360.109 0.248307 -0.666232 0
M  V30 3810 H 362.711 0.00343188 -1.955 0
M  V30 3811 H 361.415 0.685244 -4.04639 0
M  V30 3812 H 360.946 2.20099 -3.26068 0
M  V30 3813 H 362.961 3.41755 -3.59747 0
M  V30 3814 N 362.134 1.5431 0.320358 0
M  V30 3815 C 363.55 1.45091 0.664889 0
M  V30 3816 C 363.75 0.626382 1.91517 0
M  V30 3817 O 362.806 0.126443 2.52183 0
M  V30 3818 C 364.119 2.88848 0.83591 0
M  V30 3819 C 365.667 2.9877 0.933046 0
M  V30 3820 C 366.142 4.43683 1.13621 0
M  V30 3821 N 367.633 4.47309 1.20287 0
M  V30 3822 C 368.368 5.56595 1.37801 0
M  V30 3823 N 367.864 6.75844 1.52338 0
M  V30 3824 N 369.657 5.44248 1.40535 0
M  V30 3825 H 361.808 2.06398 -0.501374 0
M  V30 3826 H 364.071 0.933963 -0.162534 0
M  V30 3827 H 363.777 3.51698 -0.0116092 0
M  V30 3828 H 363.651 3.35148 1.73078 0
M  V30 3829 H 366.038 2.36045 1.77107 0
M  V30 3830 H 366.119 2.55796 0.0145782 0
M  V30 3831 H 365.763 5.06995 0.303032 0
M  V30 3832 H 365.693 4.84269 2.0686 0
M  V30 3833 H 368.184 3.61388 1.10485 0
M  V30 3834 H 368.497 7.54892 1.65403 0
M  V30 3835 H 366.842 6.78746 1.4943 0
M  V30 3836 H 370.033 4.50038 1.28777 0
M  V30 3837 H 370.206 6.29473 1.53842 0
M  V30 3838 N 363.613 -0.582584 1.46437 0
M  V30 3839 C 365.029 -0.905962 1.31394 0
M  V30 3840 C 365.229 -1.99468 0.285476 0
M  V30 3841 O 364.285 -2.50566 -0.311914 0
M  V30 3842 C 365.598 -1.3232 2.70022 0
M  V30 3843 C 367.146 -1.43604 2.78113 0
M  V30 3844 C 367.621 -1.88694 4.17323 0
M  V30 3845 N 369.112 -1.95887 4.19741 0
M  V30 3846 C 369.847 -2.32051 5.24347 0
M  V30 3847 N 369.343 -2.67006 6.39281 0
M  V30 3848 N 371.136 -2.32606 5.11713 0
M  V30 3849 H 363.287 0.1366 2.1196 0
M  V30 3850 H 365.55 -0.00155736 0.947999 0
M  V30 3851 H 365.256 -0.597242 3.46592 0
M  V30 3852 H 365.13 -2.28469 3.00136 0
M  V30 3853 H 367.517 -2.15286 2.01832 0
M  V30 3854 H 367.598 -0.457059 2.51684 0
M  V30 3855 H 367.242 -1.1759 4.941 0
M  V30 3856 H 367.172 -2.8755 4.4116 0
M  V30 3857 H 369.663 -1.71362 3.36814 0
M  V30 3858 H 369.976 -2.93554 7.14875 0
M  V30 3859 H 368.321 -2.64644 6.42642 0
M  V30 3860 H 371.512 -2.04721 4.2096 0
M  V30 3861 H 371.685 -2.60462 5.93349 0
M  V30 3862 N 365.091 -1.34144 -0.827227 0
M  V30 3863 C 366.023 -1.21206 -1.9453 0
M  V30 3864 C 367.036 -0.140176 -1.62195 0
M  V30 3865 O 368.225 -0.391647 -1.7415 0
M  V30 3866 C 365.325 -0.839141 -3.28347 0
M  V30 3867 C 364.498 -2.0051 -3.88734 0
M  V30 3868 C 363.557 -1.61128 -5.00923 0
M  V30 3869 O 362.583 -2.32726 -5.19449 0
M  V30 3870 N 363.785 -0.522958 -5.7814 0
M  V30 3871 H 366.55 -2.17525 -2.06162 0
M  V30 3872 H 364.111 -1.27043 -1.00358 0
M  V30 3873 H 366.103 -0.557556 -4.00841 0
M  V30 3874 H 364.673 0.0337293 -3.12582 0
M  V30 3875 H 363.893 -2.45166 -3.08686 0
M  V30 3876 H 365.181 -2.78498 -4.25812 0
M  V30 3877 H 364.579 0.0723518 -5.65654 0
M  V30 3878 H 363.136 -0.301089 -6.51104 0
M  V30 3879 N 366.569 1.04691 -1.17803 0
M  V30 3880 C 367.479 2.16057 -0.914151 0
M  V30 3881 C 368.495 1.73589 0.119503 0
M  V30 3882 O 369.671 2.01308 -0.0609468 0
M  V30 3883 C 366.736 3.4394 -0.436603 0
M  V30 3884 C 365.797 4.00825 -1.53746 0
M  V30 3885 C 365.03 5.22604 -1.0826 0
M  V30 3886 O 365.253 5.70367 0.0612244 0
M  V30 3887 O 364.187 5.7186 -1.87775 0
M  V30 3888 H 368.013 2.41169 -1.84584 0
M  V30 3889 H 365.598 1.1453 -0.959334 0
M  V30 3890 H 367.48 4.21024 -0.178057 0
M  V30 3891 H 366.155 3.20316 0.466869 0
M  V30 3892 H 365.062 3.25158 -1.84995 0
M  V30 3893 H 366.395 4.28778 -2.41683 0
M  V30 3894 N 368.047 0.979072 1.23499 0
M  V30 3895 C 369.324 0.563674 1.87302 0
M  V30 3896 C 369.704 -0.959199 1.88049 0
M  V30 3897 O 369.052 -1.83535 1.36114 0
M  V30 3898 C 369.262 1.16822 3.28867 0
M  V30 3899 C 370.61 1.26014 4.0547 0
M  V30 3900 O 371.634 1.12158 3.38082 0
M  V30 3901 O 370.493 1.48044 5.26066 0
M  V30 3902 H 367.587 0.189602 0.804972 0
M  V30 3903 H 370.133 1.07407 1.31384 0
M  V30 3904 H 368.905 2.21049 3.22883 0
M  V30 3905 H 368.528 0.642564 3.92373 0
M  V30 3906 N 369.525 -1.3858 0.750561 0
M  V30 3907 C 370.75 -2.04997 0.314812 0
M  V30 3908 C 371.175 -1.56235 -1.04749 0
M  V30 3909 O 370.533 -0.712981 -1.66692 0
M  V30 3910 C 370.581 -3.58961 0.343415 0
M  V30 3911 O 369.685 -4.07025 -0.663628 0
M  V30 3912 H 369.026 -0.649081 0.139962 0
M  V30 3913 H 371.556 -1.77313 1.02084 0
M  V30 3914 H 371.566 -4.07542 0.193233 0
M  V30 3915 H 370.241 -3.93811 1.33738 0
M  V30 3916 H 368.818 -3.6982 -0.478307 0
M  V30 3917 N 371.003 -0.499398 -1.49478 0
M  V30 3918 C 372.419 -0.155261 -1.58843 0
M  V30 3919 C 372.619 1.34008 -1.50479 0
M  V30 3920 O 371.675 2.11589 -1.37791 0
M  V30 3921 C 372.988 -0.730636 -2.91689 0
M  V30 3922 C 374.536 -0.696599 -3.0515 0
M  V30 3923 C 375.011 -1.25001 -4.40612 0
M  V30 3924 N 376.502 -1.21064 -4.47099 0
M  V30 3925 C 377.237 -1.60905 -5.50361 0
M  V30 3926 N 376.733 -2.08331 -6.60735 0
M  V30 3927 N 378.526 -1.52331 -5.41065 0
M  V30 3928 H 370.677 -1.47162 -1.53158 0
M  V30 3929 H 372.94 -0.610309 -0.725415 0
M  V30 3930 H 372.646 -1.77928 -3.03372 0
M  V30 3931 H 372.52 -0.190161 -3.7672 0
M  V30 3932 H 374.907 0.343204 -2.93097 0
M  V30 3933 H 374.988 -1.2742 -2.21806 0
M  V30 3934 H 374.632 -2.28859 -4.53416 0
M  V30 3935 H 374.562 -0.64836 -5.22593 0
M  V30 3936 H 377.053 -0.863128 -3.67911 0
M  V30 3937 H 377.366 -2.36805 -7.35624 0
M  V30 3938 H 375.711 -2.12304 -6.6178 0
M  V30 3939 H 378.902 -1.151 -4.53729 0
M  V30 3940 H 379.075 -1.83704 -6.21415 0
M  V30 3941 N 372.481 1.55866 -0.233164 0
M  V30 3942 C 373.727 1.98897 0.395959 0
M  V30 3943 C 374.06 1.12091 1.58585 0
M  V30 3944 O 373.335 0.181182 1.93654 0
M  V30 3945 C 373.618 3.50658 0.819224 0
M  V30 3946 C 373.471 4.48233 -0.375109 0
M  V30 3947 C 374.79 4.07135 1.67121 0
M  V30 3948 H 371.909 0.723102 0.142451 0
M  V30 3949 H 374.551 1.87082 -0.331725 0
M  V30 3950 H 372.701 3.60857 1.43925 0
M  V30 3951 H 374.373 4.50031 -1.01341 0
M  V30 3952 H 372.616 4.21624 -1.02058 0
M  V30 3953 H 373.287 5.51988 -0.0358328 0
M  V30 3954 H 375.763 3.99952 1.14795 0
M  V30 3955 H 374.639 5.13615 1.93625 0
M  V30 3956 H 374.9 3.54736 2.63846 0
M  V30 3957 N 373.959 -0.0401083 1.57549 0
M  V30 3958 C 374.892 -1.07689 2.01192 0
M  V30 3959 C 375.87 -1.358 0.894273 0
M  V30 3960 O 377.054 -1.48642 1.15921 0
M  V30 3961 C 374.181 -2.41418 2.3756 0
M  V30 3962 C 373.227 -2.29237 3.59656 0
M  V30 3963 S 374.06 -1.65628 5.09242 0
M  V30 3964 C 375.216 -3.0087 5.48843 0
M  V30 3965 H 375.449 -0.705108 2.88817 0
M  V30 3966 H 372.982 -0.249724 1.52367 0
M  V30 3967 H 374.94 -3.18329 2.59186 0
M  V30 3968 H 373.601 -2.75747 1.50407 0
M  V30 3969 H 372.794 -3.27932 3.82722 0
M  V30 3970 H 372.396 -1.60469 3.37825 0
M  V30 3971 H 374.688 -3.97201 5.48851 0
M  V30 3972 H 375.631 -2.82549 6.49286 0
M  V30 3973 H 376.039 -3.02934 4.76331 0
M  V30 3974 N 375.437 -1.54477 -0.31217 0
M  V30 3975 C 376.683 -1.73483 -1.0503 0
M  V30 3976 C 377.016 -0.513125 -1.87298 0
M  V30 3977 O 376.291 0.489864 -1.8823 0
M  V30 3978 C 376.574 -3.01723 -1.96558 0
M  V30 3979 C 376.427 -4.3417 -1.17545 0
M  V30 3980 C 377.746 -3.25772 -2.95907 0
M  V30 3981 H 374.865 -0.631222 -0.380432 0
M  V30 3982 H 377.507 -1.87184 -0.325932 0
M  V30 3983 H 375.657 -2.90174 -2.58324 0
M  V30 3984 H 377.329 -4.5762 -0.581513 0
M  V30 3985 H 375.572 -4.31159 -0.477925 0
M  V30 3986 H 376.243 -5.20143 -1.84811 0
M  V30 3987 H 378.719 -3.36857 -2.44267 0
M  V30 3988 H 377.595 -4.16838 -3.57123 0
M  V30 3989 H 377.856 -2.43537 -3.68974 0
M  V30 3990 N 376.915 0.57481 -1.46744 0
M  V30 3991 C 378.145 1.35659 -1.55821 0
M  V30 3992 C 378.553 1.88129 -0.201036 0
M  V30 3993 O 377.896 1.64723 0.813134 0
M  V30 3994 C 377.958 2.57473 -2.50894 0
M  V30 3995 C 377.622 2.26415 -3.9697 0
M  V30 3996 C 378.619 1.84771 -4.85958 0
M  V30 3997 C 376.304 2.38316 -4.42166 0
M  V30 3998 C 378.298 1.55434 -6.18158 0
M  V30 3999 C 375.985 2.08591 -5.74398 0
M  V30 4000 C 376.983 1.67216 -6.62214 0
M  V30 4001 O 376.671 1.37859 -7.91991 0
M  V30 4002 H 376.403 0.420496 -0.529301 0
M  V30 4003 H 378.957 0.704967 -1.92923 0
M  V30 4004 H 377.187 3.25468 -2.08824 0
M  V30 4005 H 378.876 3.19546 -2.50291 0
M  V30 4006 H 379.642 1.75085 -4.52295 0
M  V30 4007 H 375.521 2.69483 -3.74032 0
M  V30 4008 H 379.065 1.23065 -6.86659 0
M  V30 4009 H 374.962 2.17905 -6.07608 0
M  V30 4010 H 375.73 1.51638 -8.04331 0
M  V30 4011 N 378.394 1.34581 0.820102 0
M  V30 4012 C 379.619 1.30333 1.61332 0
M  V30 4013 C 380.044 -0.119339 1.87721 0
M  V30 4014 O 379.402 -1.08197 1.45475 0
M  V30 4015 C 379.45 2.10258 2.92957 0
M  V30 4016 O 378.554 1.47404 3.85157 0
M  V30 4017 H 377.895 0.447488 0.490561 0
M  V30 4018 H 380.425 1.77425 1.01889 0
M  V30 4019 H 380.435 2.21718 3.42498 0
M  V30 4020 H 379.11 3.13693 2.73074 0
M  V30 4021 H 377.687 1.44703 3.43679 0
M  V30 4022 N 379.872 -1.04064 1.18357 0
M  V30 4023 C 380.835 -2.10243 0.912707 0
M  V30 4024 C 381.835 -1.60477 -0.101928 0
M  V30 4025 O 383.025 -1.73703 0.131517 0
M  V30 4026 C 380.157 -3.38893 0.369387 0
M  V30 4027 H 381.35 -2.35706 1.85426 0
M  V30 4028 H 378.903 -1.20489 0.995594 0
M  V30 4029 H 379.638 -3.19094 -0.578776 0
M  V30 4030 H 379.423 -3.76331 1.1008 0
M  V30 4031 H 380.913 -4.17128 0.198575 0
M  V30 4032 N 381.35 -0.985608 -1.22978 0
M  V30 4033 C 382.28 -0.549649 -2.26939 0
M  V30 4034 C 383.261 0.419803 -1.64838 0
M  V30 4035 O 384.446 0.31203 -1.91677 0
M  V30 4036 C 381.576 0.143652 -3.47003 0
M  V30 4037 C 380.53 -0.743606 -4.21491 0
M  V30 4038 C 379.856 0.0822027 -5.34637 0
M  V30 4039 C 381.156 -2.03694 -4.80943 0
M  V30 4040 H 382.85 -1.41862 -2.63658 0
M  V30 4041 H 380.396 -0.683571 -1.26741 0
M  V30 4042 H 382.349 0.459985 -4.18882 0
M  V30 4043 H 381.073 1.04711 -3.09359 0
M  V30 4044 H 379.732 -1.04347 -3.51436 0
M  V30 4045 H 379.38 0.986359 -4.93234 0
M  V30 4046 H 379.08 -0.508377 -5.85397 0
M  V30 4047 H 380.604 0.392797 -6.09335 0
M  V30 4048 H 382.018 -1.78504 -5.44802 0
M  V30 4049 H 380.415 -2.57573 -5.42011 0
M  V30 4050 H 381.485 -2.72042 -4.01399 0
M  V30 4051 N 382.828 1.3818 -0.7579 0
M  V30 4052 C 384.244 1.5353 -0.435972 0
M  V30 4053 C 384.444 1.71961 1.05032 0
M  V30 4054 O 383.5 1.73307 1.83633 0
M  V30 4055 C 384.813 2.73989 -1.23898 0
M  V30 4056 C 386.361 2.87841 -1.22949 0
M  V30 4057 C 386.836 4.11266 -2.01554 0
M  V30 4058 N 388.327 4.18352 -1.98837 0
M  V30 4059 C 389.062 5.12856 -2.5645 0
M  V30 4060 N 388.558 6.13005 -3.22794 0
M  V30 4061 N 390.351 5.05238 -2.46356 0
M  V30 4062 H 382.502 1.24467 -1.7211 0
M  V30 4063 H 384.765 0.604982 -0.729864 0
M  V30 4064 H 384.471 2.66789 -2.29165 0
M  V30 4065 H 384.345 3.67294 -0.858764 0
M  V30 4066 H 386.732 2.9452 -0.184854 0
M  V30 4067 H 386.813 1.95534 -1.64924 0
M  V30 4068 H 386.457 4.05349 -3.06031 0
M  V30 4069 H 386.387 5.02661 -1.5697 0
M  V30 4070 H 388.878 3.46628 -1.50524 0
M  V30 4071 H 389.191 6.81619 -3.64165 0
M  V30 4072 H 387.536 6.13325 -3.2689 0
M  V30 4073 H 390.727 4.25938 -1.9415 0
M  V30 4074 H 390.9 5.78707 -2.91552 0
M  V30 4075 N 384.306 0.507319 1.49211 0
M  V30 4076 C 385.555 -0.0368315 2.01666 0
M  V30 4077 C 385.868 -1.37459 1.39156 0
M  V30 4078 O 387.074 -2.00579 1.82976 0
M  V30 4079 C 385.53 -0.116089 3.59713 0
M  V30 4080 C 385.138 1.2154 4.31198 0
M  V30 4081 C 386.882 -0.610268 4.2009 0
M  V30 4082 C 384.789 1.09796 5.81119 0
M  V30 4083 H 383.719 -0.0175376 0.753796 0
M  V30 4084 H 386.37 0.647691 1.71689 0
M  V30 4085 H 384.752 -0.8652 3.86433 0
M  V30 4086 H 385.926 1.9783 4.16173 0
M  V30 4087 H 384.241 1.64352 3.82593 0
M  V30 4088 H 386.838 -0.715742 5.29888 0
M  V30 4089 H 387.181 -1.61064 3.8388 0
M  V30 4090 H 387.714 0.0824916 3.97714 0
M  V30 4091 H 384.453 2.0728 6.21864 0
M  V30 4092 H 383.973 0.376058 5.9862 0
M  V30 4093 H 385.652 0.779281 6.4229 0
M  V30 4094 N 385.784 -1.5574 0.241426 0
M  V30 4095 C 387.195 -1.84842 -0.262755 0
M  V30 4096 C 387.546 -1.16317 -1.58003 0
M  V30 4097 O 386.671 -0.439653 -2.11887 0
M  V30 4098 C 387.266 -3.35332 -0.483523 0
M  V30 4099 C 385.825 -3.6468 -0.931977 0
M  V30 4100 C 384.972 -2.77299 -0.0061151 0
M  V30 4101 H 387.923 -1.51761 0.464129 0
M  V30 4102 H 387.944 -3.56615 -1.32688 0
M  V30 4103 H 387.456 -3.85178 0.47537 0
M  V30 4104 H 385.557 -3.20307 -1.90353 0
M  V30 4105 H 385.67 -4.72498 -0.792628 0
M  V30 4106 H 384.034 -2.49408 -0.516503 0
M  V30 4107 H 384.817 -3.2995 0.948052 0
M  V30 4108 N 387.262 0.0317525 -1.57568 0
M  V30 4109 C 388.673 0.578692 -1.77505 0
M  V30 4110 C 389.024 1.75749 -0.872164 0
M  V30 4111 O 388.149 2.16298 -0.0663106 0
M  V30 4112 C 388.744 1.05658 -3.21904 0
M  V30 4113 C 387.303 1.54906 -3.43047 0
M  V30 4114 C 386.45 0.485939 -2.73009 0
M  V30 4115 H 389.401 -0.194475 -1.57504 0
M  V30 4116 H 389.422 1.92404 -3.28269 0
M  V30 4117 H 388.934 0.198422 -3.87592 0
M  V30 4118 H 387.035 2.42915 -2.82529 0
M  V30 4119 H 387.148 1.59841 -4.5165 0
M  V30 4120 H 385.512 0.940354 -2.36705 0
M  V30 4121 H 386.295 -0.362709 -3.41379 0
M  V30 4122 N 388.74 1.54641 0.303973 0
M  V30 4123 C 389.65 1.88439 1.39743 0
M  V30 4124 C 390.666 0.778239 1.55626 0
M  V30 4125 O 391.842 1.07442 1.70347 0
M  V30 4126 C 388.907 2.12212 2.74166 0
M  V30 4127 C 387.968 3.35936 2.67293 0
M  V30 4128 C 387.201 3.58566 3.95305 0
M  V30 4129 O 387.424 2.84263 4.9452 0
M  V30 4130 O 386.358 4.52078 3.97378 0
M  V30 4131 H 390.184 2.81458 1.14083 0
M  V30 4132 H 387.769 1.40793 0.499768 0
M  V30 4133 H 389.651 2.29067 3.53704 0
M  V30 4134 H 388.326 1.22379 2.99675 0
M  V30 4135 H 387.233 3.24448 1.86237 0
M  V30 4136 H 388.566 4.2589 2.46736 0
M  V30 4137 N 390.218 -0.567019 1.47046 0
M  V30 4138 C 391.495 -1.3276 1.43646 0
M  V30 4139 C 391.875 -2.1071 0.128186 0
M  V30 4140 O 391.223 -2.10441 -0.890326 0
M  V30 4141 C 391.433 -2.2404 2.67595 0
M  V30 4142 C 392.781 -2.85372 3.14401 0
M  V30 4143 O 393.805 -2.34346 2.68254 0
M  V30 4144 O 392.664 -3.78091 3.946 0
M  V30 4145 H 389.758 -0.597293 0.571988 0
M  V30 4146 H 392.304 -0.586735 1.59234 0
M  V30 4147 H 391.076 -1.65975 3.54356 0
M  V30 4148 H 390.699 -3.05439 2.54544 0
M  V30 4149 O 391.735 -1.44981 -0.71153 0
M  V30 4150 H 392.426 -1.37671 -1.36258 0
M  V30 END ATOM
M  V30 BEGIN BOND
M  V30 END BOND
M  V30 END CTAB
M  END
$$$$
