drugbank_target|Q96BR1 Serine/threonine-protein kinase Sgk3 (DB12010)
 OpenBabel12092121193D

  0  0  0     0  0            999 V3000
M  V30 BEGIN CTAB
M  V30 COUNTS 8020 8130 0 0 0
M  V30 BEGIN ATOM
M  V30 1 H -0.908 1.98254 -0.117106 0
M  V30 2 N 0 1.576 0 0
M  V30 3 C 0.933 2.03868 1.02534 0
M  V30 4 C 1.911 0.928543 1.3348 0
M  V30 5 O 3.095 1.19667 1.45644 0
M  V30 6 C 0.222 2.43627 2.35294 0
M  V30 7 C -0.732 3.65373 2.2001 0
M  V30 8 S 0.101 5.13292 1.52614 0
M  V30 9 C 1.257 5.56322 2.86805 0
M  V30 10 H 1.49 2.90518 0.631377 0
M  V30 11 H -0.977 1.52953 0.210867 0
M  V30 12 H 0.981 2.67203 3.11629 0
M  V30 13 H -0.358 1.57376 2.7183 0
M  V30 14 H -1.165 3.90944 3.18086 0
M  V30 15 H -1.563 3.418 1.51819 0
M  V30 16 H 0.729 5.58782 3.83104 0
M  V30 17 H 1.672 6.56266 2.65933 0
M  V30 18 H 2.08 4.83886 2.90714 0
M  V30 19 N 1.4781 -0.272755 1.55222 0
M  V30 20 C 2.4101 -1.35946 1.8453 0
M  V30 21 C 3.4231 -1.45525 0.729818 0
M  V30 22 O 4.6121 -1.47337 1.00767 0
M  V30 23 C 1.7121 -2.74069 1.99347 0
M  V30 24 C 0.8851 -2.87079 3.30007 0
M  V30 25 C -0.0559 -4.05879 3.34886 0
M  V30 26 O -1.0299 -3.96626 4.08261 0
M  V30 27 N 0.1721 -5.17857 2.62307 0
M  V30 28 H 2.9371 -1.11149 2.78327 0
M  V30 29 H 0.4981 -0.462869 1.55142 0
M  V30 30 H 2.4901 -3.51838 1.99981 0
M  V30 31 H 1.0601 -2.91688 1.12415 0
M  V30 32 H 0.2801 -1.96193 3.41909 0
M  V30 33 H 1.5681 -2.92701 4.16177 0
M  V30 34 H 0.9661 -5.28261 2.02377 0
M  V30 35 H -0.4769 -5.93855 2.68663 0
M  V30 36 N 2.9562 -1.48159 -0.537278 0
M  V30 37 C 4.3722 -1.34118 -0.865129 0
M  V30 38 C 4.5722 -0.346678 -1.98495 0
M  V30 39 O 3.6282 0.234715 -2.51407 0
M  V30 40 C 4.9412 -2.73963 -1.23954 0
M  V30 41 C 6.4892 -2.82397 -1.34984 0
M  V30 42 C 6.9642 -4.22928 -1.75772 0
M  V30 43 N 8.4552 -4.25566 -1.82887 0
M  V30 44 C 9.1902 -5.31235 -2.15817 0
M  V30 45 N 8.6862 -6.47189 -2.47222 0
M  V30 46 N 10.4792 -5.18624 -2.16761 0
M  V30 47 H 2.6302 -2.1144 0.201715 0
M  V30 48 H 4.8932 -0.947598 0.0275949 0
M  V30 49 H 4.5992 -3.48264 -0.490381 0
M  V30 50 H 4.4732 -3.0702 -2.19132 0
M  V30 51 H 6.8602 -2.08356 -2.08978 0
M  V30 52 H 6.9412 -2.5297 -0.379448 0
M  V30 53 H 6.5852 -4.97482 -1.02341 0
M  V30 54 H 6.5152 -4.49794 -2.73848 0
M  V30 55 H 9.0062 -3.41924 -1.60924 0
M  V30 56 H 9.3192 -7.23564 -2.71433 0
M  V30 57 H 7.6642 -6.50476 -2.44757 0
M  V30 58 H 10.8552 -4.27056 -1.91679 0
M  V30 59 H 11.0282 -6.01078 -2.42093 0
M  V30 60 N 4.4343 0.785586 -1.36625 0
M  V30 61 C 5.7113 1.53198 -1.21613 0
M  V30 62 C 6.0913 2.10187 0.196113 0
M  V30 63 O 5.4393 1.94318 1.20219 0
M  V30 64 C 5.6493 2.62388 -2.30116 0
M  V30 65 C 6.9973 3.30167 -2.66974 0
M  V30 66 O 8.0213 2.72674 -2.29188 0
M  V30 67 O 6.8803 4.34077 -3.32023 0
M  V30 68 H 3.9743 0.677865 -0.473738 0
M  V30 69 H 6.5203 0.823739 -1.48367 0
M  V30 70 H 5.2923 2.18299 -3.24748 0
M  V30 71 H 4.9153 3.40827 -2.0475 0
M  V30 72 N 5.9124 1.20967 1.01018 0
M  V30 73 C 6.8624 0.93182 2.08089 0
M  V30 74 C 7.8464 -0.110898 1.60517 0
M  V30 75 O 9.0384 0.0973392 1.76732 0
M  V30 76 C 6.1674 0.492719 3.39746 0
M  V30 77 C 5.2534 1.56922 3.94 0
M  V30 78 N 5.6444 2.79312 4.21686 0
M  V30 79 C 3.9424 1.43688 4.2222 0
M  V30 80 C 4.6434 3.48797 4.65527 0
M  V30 81 N 3.6194 2.76224 4.68189 0
M  V30 82 H 7.4214 1.86175 2.27412 0
M  V30 83 H 4.9354 1.10463 1.19045 0
M  V30 84 H 6.9324 0.275044 4.15992 0
M  V30 85 H 5.5924 -0.430509 3.21833 0
M  V30 86 H 6.6034 3.15903 4.10397 0
M  V30 87 H 3.2804 0.578548 4.13472 0
M  V30 88 H 4.6704 4.53561 4.95714 0
M  V30 89 N 7.3905 -1.2043 1.01659 0
M  V30 90 C 8.6185 -1.93777 0.725132 0
M  V30 91 C 9.0335 -1.74772 -0.714166 0
M  V30 92 O 8.3905 -1.06169 -1.4844 0
M  V30 93 C 8.4415 -3.45876 1.05129 0
M  V30 94 O 8.1625 -3.6426 2.43406 0
M  V30 95 C 9.6635 -4.36368 0.780891 0
M  V30 96 H 6.8835 -0.615901 0.266284 0
M  V30 97 H 9.4275 -1.52922 1.35776 0
M  V30 98 H 7.5825 -3.8461 0.464065 0
M  V30 99 H 7.9965 -4.58246 2.55169 0
M  V30 100 H 9.4705 -5.41743 1.05918 0
M  V30 101 H 9.9475 -4.38275 -0.284937 0
M  V30 102 H 10.5535 -4.03296 1.35027 0
M  V30 103 N 8.8686 -0.792821 -1.36206 0
M  V30 104 C 9.8016 -0.139422 -2.27774 0
M  V30 105 C 10.7796 0.68649 -1.47398 0
M  V30 106 O 11.9636 0.656738 -1.7669 0
M  V30 107 C 9.0906 0.807947 -3.28922 0
M  V30 108 C 8.1366 0.0633999 -4.26453 0
M  V30 109 S 8.9696 -1.26319 -5.20388 0
M  V30 110 C 10.1256 -0.31991 -6.25082 0
M  V30 111 H 10.3586 -0.915809 -2.82843 0
M  V30 112 H 7.8916 -0.587203 -1.42798 0
M  V30 113 H 9.8496 1.34908 -3.87699 0
M  V30 114 H 8.5106 1.55761 -2.72759 0
M  V30 115 H 7.7036 0.782386 -4.9789 0
M  V30 116 H 7.3056 -0.407352 -3.71775 0
M  V30 117 H 9.5976 0.499985 -6.75653 0
M  V30 118 H 10.5406 -1.00307 -7.00959 0
M  V30 119 H 10.9486 0.0782694 -5.64446 0
M  V30 120 N 10.3467 1.47872 -0.545128 0
M  V30 121 C 11.6237 1.9554 0.0485222 0
M  V30 122 C 12.0037 1.4876 1.49779 0
M  V30 123 O 11.3517 0.720925 2.16829 0
M  V30 124 C 11.5617 3.48898 -0.084417 0
M  V30 125 C 12.9097 4.24547 0.0671239 0
M  V30 126 O 13.9337 3.56198 -0.0113649 0
M  V30 127 O 12.7927 5.45999 0.233882 0
M  V30 128 H 9.8867 0.823957 0.0708773 0
M  V30 129 H 12.4327 1.58327 -0.610798 0
M  V30 130 H 11.2047 3.75714 -1.09337 0
M  V30 131 H 10.8277 3.92845 0.613066 0
M  V30 132 N 11.8248 0.280983 1.55075 0
M  V30 133 C 13.0548 -0.336804 2.03836 0
M  V30 134 C 13.4628 -1.49577 1.15859 0
M  V30 135 O 12.8058 -1.82888 0.172503 0
M  V30 136 C 12.8678 -0.874616 3.48699 0
M  V30 137 C 12.5318 0.156478 4.56732 0
M  V30 138 C 13.5288 0.978032 5.10618 0
M  V30 139 C 11.2138 0.292409 5.01448 0
M  V30 140 C 13.2078 1.92165 6.07743 0
M  V30 141 C 10.8948 1.23949 5.98398 0
M  V30 142 C 11.8928 2.05261 6.51427 0
M  V30 143 O 11.5808 2.98367 7.4648 0
M  V30 144 H 11.3128 -0.0800885 0.671239 0
M  V30 145 H 13.8668 0.412589 2.01213 0
M  V30 146 H 12.0968 -1.67418 3.4858 0
M  V30 147 H 13.7858 -1.40612 3.80766 0
M  V30 148 H 14.5518 0.883782 4.7688 0
M  V30 149 H 10.4308 -0.330498 4.59814 0
M  V30 150 H 13.9748 2.55672 6.49059 0
M  V30 151 H 9.8718 1.33454 6.31554 0
M  V30 152 H 10.6398 2.93116 7.64215 0
M  V30 153 N 13.3029 -1.57598 0.00835791 0
M  V30 154 C 14.2499 -2.08945 -0.980346 0
M  V30 155 C 15.2199 -0.986738 -1.33614 0
M  V30 156 O 16.4049 -1.25968 -1.43306 0
M  V30 157 C 13.5449 -2.60425 -2.26435 0
M  V30 158 C 12.6579 -3.84628 -1.96685 0
M  V30 159 C 11.7929 -4.24579 -3.19228 0
M  V30 160 C 10.8319 -5.41596 -2.85202 0
M  V30 161 N 9.9689 -5.768 -4.00307 0
M  V30 162 H 14.8089 -2.93148 -0.535551 0
M  V30 163 H 12.3459 -1.44912 -0.252776 0
M  V30 164 H 14.3039 -2.88354 -3.01509 0
M  V30 165 H 12.9339 -1.79083 -2.68568 0
M  V30 166 H 11.9859 -3.63556 -1.11942 0
M  V30 167 H 13.2979 -4.69796 -1.67611 0
M  V30 168 H 12.4519 -4.53834 -4.02641 0
M  V30 169 H 11.1909 -3.38137 -3.51447 0
M  V30 170 H 10.1959 -5.12056 -2.00198 0
M  V30 171 H 11.4209 -6.29721 -2.54222 0
M  V30 172 H 9.3669 -4.93316 -4.32407 0
M  V30 173 H 9.2839 -6.5656 -3.74786 0
M  V30 174 H 10.5519 -6.10652 -4.84484 0
M  V30 175 N 14.781 0.264519 -1.55364 0
M  V30 176 C 15.691 1.34902 -1.91934 0
M  V30 177 C 16.707 1.53595 -0.817593 0
M  V30 178 O 17.883 1.67558 -1.11742 0
M  V30 179 C 14.948 2.68676 -2.19121 0
M  V30 180 C 14.009 2.58657 -3.4263 0
M  V30 181 C 13.242 3.86051 -3.68511 0
M  V30 182 O 13.465 4.87126 -2.96757 0
M  V30 183 O 12.399 3.85744 -4.62045 0
M  V30 184 H 16.225 1.06883 -2.8427 0
M  V30 185 H 13.81 0.463775 -1.42019 0
M  V30 186 H 15.692 3.47759 -2.37995 0
M  V30 187 H 14.367 2.96463 -1.29966 0
M  V30 188 H 13.274 1.7792 -3.29082 0
M  V30 189 H 14.607 2.35818 -4.32031 0
M  V30 190 N 16.2591 1.48442 0.529413 0
M  V30 191 C 17.4841 1.60406 1.31471 0
M  V30 192 C 17.9091 0.264738 1.86228 0
M  V30 193 O 17.2671 -0.763668 1.64432 0
M  V30 194 C 17.3151 2.65419 2.44101 0
M  V30 195 O 16.4191 2.22618 3.47153 0
M  V30 196 H 15.7601 0.537863 0.389357 0
M  V30 197 H 18.2901 1.94432 0.636965 0
M  V30 198 H 18.3001 2.86709 2.90279 0
M  V30 199 H 16.9751 3.62652 2.03608 0
M  V30 200 H 15.5521 2.11543 3.0709 0
M  V30 201 N 17.7372 -0.778329 1.37039 0
M  V30 202 C 18.9772 -1.54973 1.33276 0
M  V30 203 C 19.3412 -1.91816 -0.0839376 0
M  V30 204 O 20.5422 -2.6767 -0.246228 0
M  V30 205 C 18.8132 -2.78517 2.23971 0
M  V30 206 S 20.3722 -3.6865 2.37997 0
M  V30 207 H 17.1902 -0.530639 0.473226 0
M  V30 208 H 19.7922 -0.915806 1.72723 0
M  V30 209 H 18.4962 -2.4952 3.25835 0
M  V30 210 H 18.0272 -3.46875 1.85584 0
M  V30 211 H 20.0422 -4.70182 1.58567 0
M  V30 212 N 19.2153 -1.21501 -1.00376 0
M  V30 213 C 20.6263 -1.03146 -1.55621 0
M  V30 214 C 20.9773 0.408375 -1.91903 0
M  V30 215 O 20.1023 1.29177 -1.73616 0
M  V30 216 C 20.6973 -1.86612 -2.82775 0
M  V30 217 C 19.2563 -1.72586 -3.34501 0
M  V30 218 C 18.4033 -1.83747 -2.07683 0
M  V30 219 H 21.3543 -1.35505 -0.826081 0
M  V30 220 H 21.3753 -1.3771 -3.54706 0
M  V30 221 H 20.8873 -2.91399 -2.56336 0
M  V30 222 H 18.9883 -0.704877 -3.65872 0
M  V30 223 H 19.1013 -2.54623 -4.05837 0
M  V30 224 H 17.4653 -1.27069 -2.20739 0
M  V30 225 H 18.2483 -2.90044 -1.83655 0
M  V30 226 N 20.6934 1.19889 -1.02296 0
M  V30 227 C 21.9184 1.9393 -0.735237 0
M  V30 228 C 22.3434 1.74639 0.698782 0
M  V30 229 O 21.7014 1.04481 1.48167 0
M  V30 230 C 21.7494 3.43916 -1.08417 0
M  V30 231 O 20.8534 4.11917 -0.199446 0
M  V30 232 H 20.1944 0.605645 -0.272196 0
M  V30 233 H 22.7244 1.52137 -1.36804 0
M  V30 234 H 22.7344 3.9456 -1.03856 0
M  V30 235 H 21.4094 3.5728 -2.12894 0
M  V30 236 H 19.9864 3.71666 -0.303136 0
M  V30 237 N 22.1715 0.800033 1.35784 0
M  V30 238 C 23.4175 0.377901 1.99248 0
M  V30 239 C 23.7505 -1.05052 1.63333 0
M  V30 240 O 23.0255 -1.72768 0.893385 0
M  V30 241 C 23.3085 0.553922 3.55814 0
M  V30 242 C 23.1615 2.0268 4.01548 0
M  V30 243 C 24.4805 -0.0244802 4.40093 0
M  V30 244 H 21.5995 0.138782 0.723815 0
M  V30 245 H 24.2415 1.00835 1.61035 0
M  V30 246 H 22.3915 0.0172398 3.88496 0
M  V30 247 H 24.0635 2.62536 3.79305 0
M  V30 248 H 22.3065 2.5256 3.52698 0
M  V30 249 H 22.9775 2.10087 5.10458 0
M  V30 250 H 25.4535 0.433775 4.13833 0
M  V30 251 H 24.3295 0.128637 5.48749 0
M  V30 252 H 24.5905 -1.11758 4.27741 0
M  V30 253 N 23.6496 -1.47581 0.552962 0
M  V30 254 C 24.8746 -2.07378 0.0300593 0
M  V30 255 C 25.2996 -1.40355 -1.25229 0
M  V30 256 O 24.6576 -0.477099 -1.7491 0
M  V30 257 C 24.7056 -3.60274 -0.153231 0
M  V30 258 O 23.8096 -3.94041 -1.21678 0
M  V30 259 H 23.1506 -0.662158 0.0494182 0
M  V30 260 H 25.6806 -1.89662 0.767434 0
M  V30 261 H 25.6906 -4.0633 -0.368761 0
M  V30 262 H 24.3656 -4.08455 0.783397 0
M  V30 263 H 22.9426 -3.59735 -0.982079 0
M  V30 264 N 25.1277 -0.289203 -1.54924 0
M  V30 265 C 26.3767 0.324231 -1.99077 0
M  V30 266 C 26.6897 1.5591 -1.18117 0
M  V30 267 O 27.8957 2.24637 -1.52481 0
M  V30 268 C 26.3517 0.628209 -3.54375 0
M  V30 269 C 25.9597 -0.587647 -4.44129 0
M  V30 270 C 27.7037 1.20349 -4.07083 0
M  V30 271 C 25.6107 -0.257475 -5.90839 0
M  V30 272 H 24.5407 0.124924 -0.743579 0
M  V30 273 H 27.1917 -0.396063 -1.79175 0
M  V30 274 H 25.5737 1.40778 -3.70132 0
M  V30 275 H 26.7477 -1.36418 -4.40144 0
M  V30 276 H 25.0627 -1.08074 -4.0213 0
M  V30 277 H 27.6597 1.46456 -5.14252 0
M  V30 278 H 28.0027 2.14195 -3.56968 0
M  V30 279 H 28.5357 0.485889 -3.94821 0
M  V30 280 H 25.2747 -1.16419 -6.45079 0
M  V30 281 H 24.7947 0.482018 -5.9786 0
M  V30 282 H 26.4737 0.145238 -6.46837 0
M  V30 283 N 26.6058 1.57591 -0.0167156 0
M  V30 284 C 28.0168 1.79201 0.523834 0
M  V30 285 C 28.3678 0.925796 1.72984 0
M  V30 286 O 27.4928 0.132792 2.15992 0
M  V30 287 C 28.0878 3.25 0.957091 0
M  V30 288 C 26.6468 3.47648 1.44283 0
M  V30 289 C 25.7938 2.74374 0.401757 0
M  V30 290 H 28.7448 1.56831 -0.242816 0
M  V30 291 H 28.7658 3.34031 1.82219 0
M  V30 292 H 28.2778 3.88019 0.0791415 0
M  V30 293 H 26.3788 2.89866 2.34113 0
M  V30 294 H 26.4918 4.56352 1.45877 0
M  V30 295 H 24.8558 2.39485 0.867121 0
M  V30 296 H 25.6388 3.40102 -0.467513 0
M  V30 297 N 28.0839 -0.256276 1.55502 0
M  V30 298 C 29.3089 -1.00766 1.81276 0
M  V30 299 C 29.7339 -1.78524 0.59252 0
M  V30 300 O 29.0919 -1.75413 -0.45827 0
M  V30 301 C 29.1399 -1.92869 3.04687 0
M  V30 302 O 28.2439 -3.019 2.80945 0
M  V30 303 H 27.5849 -0.287224 0.598664 0
M  V30 304 H 30.1149 -0.280109 2.02674 0
M  V30 305 H 30.1249 -2.34511 3.33869 0
M  V30 306 H 28.7999 -1.35689 3.93143 0
M  V30 307 H 27.3769 -2.64454 2.62904 0
M  V30 308 N 29.562 -1.4872 -0.521534 0
M  V30 309 C 30.787 -1.61101 -1.30618 0
M  V30 310 C 31.212 -0.274611 -1.86085 0
M  V30 311 O 30.57 0.754937 -1.64834 0
M  V30 312 C 30.618 -2.66709 -2.4269 0
M  V30 313 O 29.722 -2.24456 -3.45967 0
M  V30 314 H 29.063 -0.539921 -0.386499 0
M  V30 315 H 31.593 -1.94767 -0.626645 0
M  V30 316 H 31.603 -2.88245 -2.88754 0
M  V30 317 H 30.278 -3.63727 -2.01682 0
M  V30 318 H 28.855 -2.13168 -3.05964 0
M  V30 319 N 31.0401 0.771051 -1.3745 0
M  V30 320 C 32.3171 1.519 -1.23231 0
M  V30 321 C 32.6971 2.10383 0.173809 0
M  V30 322 O 32.0451 1.95583 1.18151 0
M  V30 323 C 32.2551 2.59933 -2.32886 0
M  V30 324 C 33.6031 3.27316 -2.70461 0
M  V30 325 O 34.6271 2.70228 -2.32068 0
M  V30 326 O 33.4861 4.30531 -3.36608 0
M  V30 327 H 30.5801 0.672803 -0.480901 0
M  V30 328 H 33.1261 0.807957 -1.49232 0
M  V30 329 H 31.8981 2.14842 -3.27045 0
M  V30 330 H 31.5211 3.38637 -2.08353 0
M  V30 331 N 32.5182 1.22032 0.997298 0
M  V30 332 C 33.4282 1.00271 2.12092 0
M  V30 333 C 34.4442 -0.047621 1.73935 0
M  V30 334 O 35.6202 0.144136 2.00884 0
M  V30 335 C 32.6852 0.578449 3.4184 0
M  V30 336 C 31.7462 1.70189 3.94125 0
M  V30 337 C 30.9792 1.29778 5.17681 0
M  V30 338 O 31.2022 0.174676 5.70132 0
M  V30 339 O 30.1362 2.11261 5.63607 0
M  V30 340 H 33.9622 1.94398 2.3333 0
M  V30 341 H 31.5472 1.00587 1.10465 0
M  V30 342 H 33.4292 0.351998 4.19927 0
M  V30 343 H 32.1042 -0.334019 3.21972 0
M  V30 344 H 31.0112 1.98282 3.1723 0
M  V30 345 H 32.3442 2.59206 4.18417 0
M  V30 346 N 33.9963 -1.19345 1.0293 0
M  V30 347 C 34.9463 -2.20472 0.58104 0
M  V30 348 C 35.9303 -1.56578 -0.370442 0
M  V30 349 O 37.1223 -1.75963 -0.191344 0
M  V30 350 C 34.2513 -3.43236 -0.066306 0
M  V30 351 C 33.3373 -4.14274 0.907642 0
M  V30 352 N 33.7283 -4.61492 2.07023 0
M  V30 353 C 32.0263 -4.39966 0.731177 0
M  V30 354 C 32.7273 -5.1605 2.68454 0
M  V30 355 N 31.7033 -5.06875 1.96414 0
M  V30 356 H 35.5053 -2.54659 1.46717 0
M  V30 357 H 33.0193 -1.35423 0.896345 0
M  V30 358 H 35.0163 -4.14927 -0.405068 0
M  V30 359 H 33.6763 -3.10549 -0.948118 0
M  V30 360 H 34.6873 -4.56304 2.44963 0
M  V30 361 H 31.3643 -4.17377 -0.101507 0
M  V30 362 H 32.7543 -5.6287 3.66915 0
M  V30 363 N 35.4744 -0.807222 -1.35358 0
M  V30 364 C 36.8904 -0.491038 -1.51858 0
M  V30 365 C 37.0904 0.987648 -1.75635 0
M  V30 366 O 36.1464 1.77265 -1.79815 0
M  V30 367 C 37.4594 -1.33695 -2.69344 0
M  V30 368 C 39.0074 -1.33246 -2.83222 0
M  V30 369 C 39.4824 -2.1625 -4.03733 0
M  V30 370 N 40.9734 -2.1379 -4.10911 0
M  V30 371 C 41.7084 -2.74772 -5.03277 0
M  V30 372 N 41.2044 -3.44684 -6.0097 0
M  V30 373 N 42.9974 -2.6441 -4.96028 0
M  V30 374 H 35.1484 -1.76485 -1.18181 0
M  V30 375 H 37.4114 -0.751199 -0.578276 0
M  V30 376 H 37.1174 -2.38634 -2.58354 0
M  V30 377 H 36.9914 -0.990618 -3.6396 0
M  V30 378 H 39.3784 -0.290911 -2.93663 0
M  V30 379 H 39.4594 -1.71866 -1.89461 0
M  V30 380 H 39.1034 -3.20445 -3.94052 0
M  V30 381 H 39.0334 -1.74989 -4.96675 0
M  V30 382 H 41.5244 -1.62923 -3.40976 0
M  V30 383 H 41.8374 -3.88501 -6.68047 0
M  V30 384 H 40.1824 -3.48788 -6.01142 0
M  V30 385 H 43.3734 -2.0938 -4.18662 0
M  V30 386 H 43.5464 -3.12225 -5.6782 0
M  V30 387 N 36.9525 1.47285 -0.560781 0
M  V30 388 C 37.8625 2.33846 0.187954 0
M  V30 389 C 38.8785 1.48412 0.908293 0
M  V30 390 O 40.0545 1.81332 0.876388 0
M  V30 391 C 37.1195 3.25178 1.2025 0
M  V30 392 C 36.1805 4.26504 0.489208 0
M  V30 393 C 35.4135 5.13472 1.45542 0
M  V30 394 O 35.6365 5.02959 2.6905 0
M  V30 395 O 34.5705 5.93902 0.977963 0
M  V30 396 H 38.3965 2.99177 -0.522177 0
M  V30 397 H 35.9815 1.45903 -0.321364 0
M  V30 398 H 37.8635 3.81584 1.78805 0
M  V30 399 H 36.5385 2.6247 1.89449 0
M  V30 400 H 35.4455 3.73847 -0.137627 0
M  V30 401 H 36.7785 4.91935 -0.161399 0
M  V30 402 N 38.4306 0.297415 1.54768 0
M  V30 403 C 39.3776 -0.580276 2.23386 0
M  V30 404 C 40.3476 -1.13238 1.21517 0
M  V30 405 O 41.5326 -1.17757 1.50126 0
M  V30 406 C 38.6726 -1.74801 2.97555 0
M  V30 407 C 37.7856 -1.22764 4.1419 0
M  V30 408 C 36.9206 -2.35895 4.75949 0
M  V30 409 C 35.9596 -1.80974 5.84735 0
M  V30 410 N 35.0966 -2.87664 6.40464 0
M  V30 411 H 39.9366 0.0114833 2.97998 0
M  V30 412 H 37.4736 0.0174361 1.4709 0
M  V30 413 H 39.4316 -2.43475 3.38786 0
M  V30 414 H 38.0616 -2.31145 2.25326 0
M  V30 415 H 37.1136 -0.433271 3.77924 0
M  V30 416 H 38.4256 -0.785551 4.92575 0
M  V30 417 H 37.5796 -3.12523 5.20014 0
M  V30 418 H 36.3186 -2.83429 3.96887 0
M  V30 419 H 35.3236 -1.02834 5.40097 0
M  V30 420 H 36.5486 -1.34348 6.65678 0
M  V30 421 H 34.4946 -3.34538 5.64287 0
M  V30 422 H 34.4116 -2.4794 7.14186 0
M  V30 423 H 35.6796 -3.642 6.89187 0
M  V30 424 N 39.9087 -1.5758 0.0250728 0
M  V30 425 C 40.8557 -2.09973 -0.958129 0
M  V30 426 C 41.8257 -1.00085 -1.3256 0
M  V30 427 O 43.0107 -1.27481 -1.41962 0
M  V30 428 C 40.1507 -2.62812 -2.2366 0
M  V30 429 C 39.2637 -3.86693 -1.92594 0
M  V30 430 C 38.3987 -4.27941 -3.14707 0
M  V30 431 C 37.4377 -5.44591 -2.79442 0
M  V30 432 N 36.5747 -5.81014 -3.94167 0
M  V30 433 H 41.4147 -2.937 -0.504428 0
M  V30 434 H 38.9517 -1.45172 -0.237392 0
M  V30 435 H 40.9097 -2.91536 -2.98434 0
M  V30 436 H 39.5397 -1.81922 -2.66654 0
M  V30 437 H 38.5917 -3.64723 -1.0808 0
M  V30 438 H 39.9037 -4.71547 -1.62619 0
M  V30 439 H 39.0577 -4.58079 -3.97804 0
M  V30 440 H 37.7967 -3.41845 -3.4784 0
M  V30 441 H 36.8017 -5.1415 -1.94755 0
M  V30 442 H 38.0267 -6.32382 -2.47528 0
M  V30 443 H 35.9727 -4.97874 -4.2715 0
M  V30 444 H 35.8897 -6.60498 -3.67801 0
M  V30 445 H 37.1577 -6.15756 -4.7798 0
M  V30 446 N 41.3868 0.248026 -1.55636 0
M  V30 447 C 42.3338 1.30707 -1.90222 0
M  V30 448 C 43.3038 1.47881 -0.756332 0
M  V30 449 O 44.4888 1.61883 -1.00988 0
M  V30 450 C 41.6288 2.65769 -2.20138 0
M  V30 451 C 40.7418 2.56612 -3.47526 0
M  V30 452 C 39.8768 3.8402 -3.67017 0
M  V30 453 C 38.9158 3.69476 -4.8801 0
M  V30 454 N 38.0528 4.88774 -5.04029 0
M  V30 455 H 42.8928 1.00512 -2.80538 0
M  V30 456 H 40.4298 0.485055 -1.38873 0
M  V30 457 H 42.3878 3.44386 -2.35487 0
M  V30 458 H 41.0178 2.94115 -1.33027 0
M  V30 459 H 40.0698 1.69571 -3.40514 0
M  V30 460 H 41.3818 2.41774 -4.36287 0
M  V30 461 H 40.5358 4.7108 -3.8232 0
M  V30 462 H 39.2748 4.01754 -2.76487 0
M  V30 463 H 38.2798 2.80799 -4.72686 0
M  V30 464 H 39.5048 3.53238 -5.8 0
M  V30 465 H 37.4508 5.0687 -4.16435 0
M  V30 466 H 37.3678 4.76562 -5.86877 0
M  V30 467 H 38.6358 5.77335 -5.23741 0
M  V30 468 N 42.8649 1.48995 0.513639 0
M  V30 469 C 44.2809 1.35478 0.843682 0
M  V30 470 C 44.4809 0.378213 1.97919 0
M  V30 471 O 43.5369 -0.194689 2.51748 0
M  V30 472 C 44.8499 2.75901 1.1958 0
M  V30 473 C 46.3979 2.84509 1.30474 0
M  V30 474 C 46.8729 4.25671 1.69021 0
M  V30 475 N 48.3639 4.28422 1.76094 0
M  V30 476 C 49.0989 5.34601 2.07338 0
M  V30 477 N 48.5949 6.5104 2.36894 0
M  V30 478 N 50.3879 5.22007 2.08483 0
M  V30 479 H 42.5389 2.11092 -0.235328 0
M  V30 480 H 44.8019 0.947039 -0.0426669 0
M  V30 481 H 44.5079 3.49001 0.434913 0
M  V30 482 H 44.3819 3.10467 2.1422 0
M  V30 483 H 46.7689 2.11655 2.05637 0
M  V30 484 H 46.8499 2.53542 0.339155 0
M  V30 485 H 46.4939 4.99048 0.944135 0
M  V30 486 H 46.4239 4.54094 2.66658 0
M  V30 487 H 48.9149 3.44441 1.55464 0
M  V30 488 H 49.2279 7.2779 2.59887 0
M  V30 489 H 47.5729 6.54287 2.34378 0
M  V30 490 H 50.7639 4.30051 1.84861 0
M  V30 491 H 50.9369 6.04854 2.325 0
M  V30 492 N 44.343 -0.763751 1.37857 0
M  V30 493 C 45.59 -1.52257 1.33506 0
M  V30 494 C 45.918 -1.94343 -0.078022 0
M  V30 495 O 45.173 -1.64958 -1.05297 0
M  V30 496 C 45.472 -2.79499 2.22745 0
M  V30 497 C 45.138 -2.56426 3.70886 0
M  V30 498 C 43.8 -2.49842 4.11257 0
M  V30 499 C 46.152 -2.36008 4.64704 0
M  V30 500 C 43.48 -2.20841 5.43549 0
M  V30 501 C 45.832 -2.0853 5.97242 0
M  V30 502 C 44.496 -2.00396 6.36709 0
M  V30 503 H 43.766 -0.557149 0.488534 0
M  V30 504 H 46.413 -0.879073 1.70131 0
M  V30 505 H 44.718 -3.48447 1.79142 0
M  V30 506 H 46.415 -3.37413 2.16688 0
M  V30 507 H 43.005 -2.62416 3.38874 0
M  V30 508 H 47.189 -2.40079 4.34368 0
M  V30 509 H 42.445 -2.13045 5.73081 0
M  V30 510 H 46.619 -1.91732 6.69486 0
M  V30 511 H 44.246 -1.77688 7.39142 0
M  V30 512 N 45.8211 -1.22559 -0.990812 0
M  V30 513 C 47.0491 -1.07779 -1.76611 0
M  V30 514 C 47.4641 0.371513 -1.85109 0
M  V30 515 O 46.8211 1.25737 -1.32274 0
M  V30 516 C 46.8721 -1.68512 -3.19822 0
M  V30 517 O 46.5931 -3.07774 -3.1178 0
M  V30 518 C 48.0941 -1.59035 -4.13791 0
M  V30 519 H 45.3141 -0.377729 -0.554583 0
M  V30 520 H 47.8581 -1.62195 -1.24551 0
M  V30 521 H 46.0131 -1.18154 -3.68942 0
M  V30 522 H 46.4271 -3.37062 -4.01858 0
M  V30 523 H 47.9011 -2.0625 -5.1202 0
M  V30 524 H 48.3781 -0.547273 -4.35777 0
M  V30 525 H 48.9841 -2.08709 -3.70568 0
M  V30 526 N 47.2992 1.18797 -1.03562 0
M  V30 527 C 48.5452 1.8893 -0.737113 0
M  V30 528 C 48.8782 1.79837 0.732956 0
M  V30 529 O 48.1532 1.19525 1.5344 0
M  V30 530 C 48.4362 3.39607 -1.19745 0
M  V30 531 C 48.2892 3.57537 -2.72924 0
M  V30 532 C 49.6082 4.33069 -0.783526 0
M  V30 533 H 46.7272 0.686057 -0.269249 0
M  V30 534 H 49.3692 1.39797 -1.28673 0
M  V30 535 H 47.5192 3.81583 -0.729855 0
M  V30 536 H 49.1912 3.24688 -3.27682 0
M  V30 537 H 47.4342 3.00363 -3.12993 0
M  V30 538 H 48.1052 4.63238 -3.00191 0
M  V30 539 H 50.5812 3.98846 -1.18581 0
M  V30 540 H 49.4572 5.3707 -1.13343 0
M  V30 541 H 49.7182 4.40986 0.313681 0
M  V30 542 N 48.7773 0.814389 1.34928 0
M  V30 543 C 50.0073 0.41054 2.0248 0
M  V30 544 C 50.4153 -0.985625 1.61499 0
M  V30 545 O 49.7583 -1.64781 0.811976 0
M  V30 546 C 49.8203 0.423384 3.56998 0
M  V30 547 C 49.4843 1.77141 4.21272 0
M  V30 548 C 50.4813 2.73093 4.42398 0
M  V30 549 C 48.1663 2.05755 4.58225 0
M  V30 550 C 50.1603 3.95838 4.9959 0
M  V30 551 C 47.8473 3.28762 5.1513 0
M  V30 552 C 48.8453 4.23621 5.35755 0
M  V30 553 O 48.5333 5.44456 5.91458 0
M  V30 554 H 48.2653 0.163997 0.655806 0
M  V30 555 H 50.8193 1.10155 1.73364 0
M  V30 556 H 49.0493 -0.324276 3.85338 0
M  V30 557 H 50.7383 0.0407683 4.0588 0
M  V30 558 H 51.5043 2.5228 4.14222 0
M  V30 559 H 47.3833 1.32727 4.4148 0
M  V30 560 H 50.9273 4.69891 5.15605 0
M  V30 561 H 46.8243 3.49443 5.42734 0
M  V30 562 H 47.5923 5.4586 6.09901 0
M  V30 563 N 50.2554 -1.46986 0.568584 0
M  V30 564 C 51.2024 -2.30153 -0.172707 0
M  V30 565 C 52.1724 -1.39759 -0.897586 0
M  V30 566 O 53.3574 -1.68716 -0.891044 0
M  V30 567 C 50.4974 -3.23952 -1.1895 0
M  V30 568 C 49.6104 -4.29441 -0.469517 0
M  V30 569 C 48.7454 -5.1038 -1.47259 0
M  V30 570 C 47.7844 -6.07632 -0.738225 0
M  V30 571 N 46.9214 -6.8149 -1.68868 0
M  V30 572 H 51.7614 -2.93019 0.542596 0
M  V30 573 H 49.2984 -1.44422 0.279401 0
M  V30 574 H 51.2564 -3.76767 -1.79173 0
M  V30 575 H 49.8864 -2.62926 -1.87269 0
M  V30 576 H 48.9384 -3.79594 0.247467 0
M  V30 577 H 50.2504 -4.98689 0.105241 0
M  V30 578 H 49.4044 -5.67402 -2.14803 0
M  V30 579 H 48.1434 -4.4106 -2.08128 0
M  V30 580 H 47.1484 -5.49778 -0.0489293 0
M  V30 581 H 48.3734 -6.78966 -0.135129 0
M  V30 582 H 46.3194 -6.14891 -2.28573 0
M  V30 583 H 46.2364 -7.46948 -1.16636 0
M  V30 584 H 47.5044 -7.43078 -2.3549 0
M  V30 585 N 51.7335 -0.305618 -1.54608 0
M  V30 586 C 52.9795 0.302746 -2.00528 0
M  V30 587 C 53.3125 1.53184 -1.19367 0
M  V30 588 O 52.5875 1.92598 -0.271321 0
M  V30 589 C 52.8705 0.654756 -3.54097 0
M  V30 590 C 52.7235 -0.583793 -4.45995 0
M  V30 591 C 54.0425 1.47947 -4.14487 0
M  V30 592 H 51.1615 0.108564 -0.72896 0
M  V30 593 H 53.8035 -0.418634 -1.85331 0
M  V30 594 H 51.9535 1.26935 -3.67178 0
M  V30 595 H 53.6255 -1.22224 -4.44814 0
M  V30 596 H 51.8685 -1.21615 -4.16404 0
M  V30 597 H 52.5395 -0.293287 -5.5122 0
M  V30 598 H 55.0155 0.96013 -4.04871 0
M  V30 599 H 53.8915 1.69454 -5.22088 0
M  V30 600 H 54.1525 2.47011 -3.66658 0
M  V30 601 N 53.2116 1.57565 -0.0334293 0
M  V30 602 C 54.1416 2.13511 0.945265 0
M  V30 603 C 55.1226 1.05231 1.33643 0
M  V30 604 O 56.3076 1.33084 1.41429 0
M  V30 605 C 53.4376 2.6657 2.22616 0
M  V30 606 C 52.3916 3.79676 1.97561 0
M  V30 607 C 51.7176 4.1918 3.31952 0
M  V30 608 C 53.0176 5.0557 1.31135 0
M  V30 609 H 54.7116 2.95538 0.479325 0
M  V30 610 H 52.2576 1.42166 0.229115 0
M  V30 611 H 54.2106 3.04344 2.91466 0
M  V30 612 H 52.9346 1.8171 2.71384 0
M  V30 613 H 51.5936 3.42347 1.31127 0
M  V30 614 H 51.2416 3.31296 3.78487 0
M  V30 615 H 50.9416 4.95402 3.15992 0
M  V30 616 H 52.4656 4.59541 4.02063 0
M  V30 617 H 53.8796 5.40903 1.89992 0
M  V30 618 H 52.2766 5.86818 1.25559 0
M  V30 619 H 53.3466 4.84062 0.284894 0
M  V30 620 N 54.6897 -0.239769 1.55765 0
M  V30 621 C 55.9357 -0.968234 1.78194 0
M  V30 622 C 56.2687 -1.84701 0.599938 0
M  V30 623 O 55.5437 -1.9031 -0.401524 0
M  V30 624 C 55.8267 -1.8227 3.10564 0
M  V30 625 C 55.6797 -0.971633 4.3918 0
M  V30 626 C 56.9987 -2.80388 3.39221 0
M  V30 627 H 54.1177 -0.350572 0.648281 0
M  V30 628 H 56.7597 -0.238259 1.885 0
M  V30 629 H 54.9097 -2.44507 3.01908 0
M  V30 630 H 56.5817 -0.367408 4.59835 0
M  V30 631 H 54.8247 -0.276276 4.32919 0
M  V30 632 H 55.4957 -1.60346 5.28198 0
M  V30 633 H 57.9717 -2.28287 3.47885 0
M  V30 634 H 56.8477 -3.3729 4.33044 0
M  V30 635 H 57.1087 -3.57212 2.60484 0
M  V30 636 N 56.1678 -1.49265 -0.50573 0
M  V30 637 C 57.3928 -1.62478 -1.28902 0
M  V30 638 C 57.8178 -0.294332 -1.85783 0
M  V30 639 O 57.1758 0.737412 -1.65626 0
M  V30 640 C 57.2238 -2.69268 -2.39848 0
M  V30 641 O 56.3278 -2.28113 -3.43567 0
M  V30 642 H 55.6688 -0.54399 -0.380751 0
M  V30 643 H 58.1988 -1.95421 -0.605952 0
M  V30 644 H 58.2088 -2.91291 -2.85681 0
M  V30 645 H 56.8838 -3.65846 -1.97812 0
M  V30 646 H 55.4608 -2.16401 -3.03685 0
M  V30 647 N 57.6459 0.756429 -1.3826 0
M  V30 648 C 58.8919 1.51772 -1.34511 0
M  V30 649 C 59.2249 1.94089 0.0656691 0
M  V30 650 O 58.4999 1.65221 1.02626 0
M  V30 651 C 58.7829 2.77226 -2.29821 0
M  V30 652 C 58.6359 2.41065 -3.79747 0
M  V30 653 C 59.9549 3.79236 -2.23312 0
M  V30 654 H 57.0739 0.550578 -0.489931 0
M  V30 655 H 59.7159 0.866607 -1.69086 0
M  V30 656 H 57.8659 3.32784 -2.00467 0
M  V30 657 H 59.5379 1.91303 -4.19763 0
M  V30 658 H 57.7809 1.7356 -3.97567 0
M  V30 659 H 58.4519 3.3081 -4.41892 0
M  V30 660 H 60.9279 3.3321 -2.49219 0
M  V30 661 H 59.8039 4.64714 -2.92116 0
M  V30 662 H 60.0649 4.24615 -1.23102 0
M  V30 663 N 59.124 1.23083 0.984299 0
M  V30 664 C 60.372 1.05848 1.72165 0
M  V30 665 C 60.693 -0.406049 1.90726 0
M  V30 666 O 59.963 -1.29139 1.47309 0
M  V30 667 H 58.543 0.388685 0.637913 0
M  V30 668 H 61.205 1.54736 1.18503 0
M  V30 669 H 60.301 1.54327 2.71274 0
M  V30 670 N 60.6021 -1.18246 1.0419 0
M  V30 671 C 62.0181 -1.40269 0.761366 0
M  V30 672 C 62.2181 -1.90777 -0.648578 0
M  V30 673 O 61.2741 -2.0929 -1.41258 0
M  V30 674 C 62.5871 -2.40237 1.8085 0
M  V30 675 C 64.1351 -2.53961 1.82955 0
M  V30 676 C 64.6101 -3.57194 2.86664 0
M  V30 677 N 66.1011 -3.64702 2.85563 0
M  V30 678 C 66.8361 -4.44309 3.6246 0
M  V30 679 N 66.3321 -5.27514 4.49111 0
M  V30 680 N 68.1251 -4.39084 3.50944 0
M  V30 681 H 60.2761 -0.837882 1.95175 0
M  V30 682 H 62.5391 -0.430608 0.84456 0
M  V30 683 H 62.2451 -2.10176 2.81991 0
M  V30 684 H 62.1191 -3.39601 1.64168 0
M  V30 685 H 64.5061 -2.83338 0.824855 0
M  V30 686 H 64.5871 -1.54706 2.03715 0
M  V30 687 H 64.2311 -3.28558 3.87314 0
M  V30 688 H 64.1611 -4.5613 2.6316 0
M  V30 689 H 66.6521 -3.05289 2.22727 0
M  V30 690 H 66.9651 -5.85411 5.04493 0
M  V30 691 H 65.3101 -5.2693 4.53178 0
M  V30 692 H 68.5011 -3.7313 2.82651 0
M  V30 693 H 68.6741 -5.00883 4.11121 0
M  V30 694 N 62.0802 -0.821533 -1.34494 0
M  V30 695 C 63.3052 -0.420873 -2.03085 0
M  V30 696 C 63.7302 0.964915 -1.61465 0
M  V30 697 O 63.0882 1.62763 -0.798607 0
M  V30 698 C 63.1362 -0.529414 -3.56693 0
M  V30 699 O 62.2402 0.451302 -4.09923 0
M  V30 700 H 61.5812 -0.173489 -0.640935 0
M  V30 701 H 64.1112 -1.11157 -1.71771 0
M  V30 702 H 64.1212 -0.404671 -4.05988 0
M  V30 703 H 62.7962 -1.54014 -3.86332 0
M  V30 704 H 61.3732 0.285558 -3.71805 0
M  V30 705 N 63.5583 1.46682 -0.576371 0
M  V30 706 C 64.4683 2.34032 0.163141 0
M  V30 707 C 65.4843 1.49367 0.892501 0
M  V30 708 O 66.6603 1.82252 0.857106 0
M  V30 709 C 63.7253 3.26435 1.16795 0
M  V30 710 C 62.7863 4.26998 0.443944 0
M  V30 711 C 62.0193 5.14986 1.40088 0
M  V30 712 O 62.2423 5.05785 2.637 0
M  V30 713 O 61.1763 5.94906 0.914917 0
M  V30 714 H 65.0023 2.98607 -0.55388 0
M  V30 715 H 62.5873 1.45554 -0.336821 0
M  V30 716 H 64.4693 3.83459 1.74748 0
M  V30 717 H 63.1443 2.64465 1.86655 0
M  V30 718 H 62.0513 3.7368 -0.177271 0
M  V30 719 H 63.3843 4.91736 -0.213566 0
M  V30 720 N 65.0364 0.313813 1.54444 0
M  V30 721 C 66.2824 -0.284918 2.01395 0
M  V30 722 C 66.6374 -1.50537 1.19818 0
M  V30 723 O 65.9304 -1.89692 0.269748 0
M  V30 724 C 66.1244 -0.680386 3.50864 0
M  V30 725 C 65.9534 0.500198 4.4691 0
M  V30 726 C 64.7234 0.996248 4.95382 0
M  V30 727 C 66.9214 1.34928 4.96285 0
M  V30 728 N 64.9034 2.14226 5.75309 0
M  V30 729 C 66.2744 2.3426 5.7404 0
M  V30 730 C 68.3294 1.37818 4.78446 0
M  V30 731 C 67.0324 3.36272 6.35856 0
M  V30 732 C 69.0584 2.38695 5.4109 0
M  V30 733 C 68.4204 3.36755 6.18688 0
M  V30 734 H 64.5194 -0.0683689 0.779006 0
M  V30 735 H 67.1034 0.44664 1.89508 0
M  V30 736 H 65.2744 -1.38109 3.63016 0
M  V30 737 H 67.0064 -1.25975 3.84594 0
M  V30 738 H 63.7614 0.56912 4.70168 0
M  V30 739 H 64.1854 2.72005 6.19953 0
M  V30 740 H 68.8274 0.633747 4.18023 0
M  V30 741 H 66.5454 4.11627 6.95405 0
M  V30 742 H 70.1314 2.41721 5.29209 0
M  V30 743 H 69.0114 4.13535 6.66302 0
M  V30 744 N 66.5145 -1.57545 0.0417849 0
M  V30 745 C 67.7615 -1.92317 -0.634082 0
M  V30 746 C 68.0895 -0.919334 -1.71402 0
M  V30 747 O 67.3445 0.0698253 -1.95575 0
M  V30 748 C 67.6435 -3.33794 -1.27735 0
M  V30 749 C 67.3095 -4.49716 -0.326543 0
M  V30 750 C 65.9715 -4.81156 -0.0648814 0
M  V30 751 C 68.3235 -5.20182 0.325623 0
M  V30 752 C 65.6515 -5.80414 0.856539 0
M  V30 753 C 68.0035 -6.20424 1.23518 0
M  V30 754 C 66.6675 -6.50298 1.5056 0
M  V30 755 H 65.9375 -0.703736 -0.232027 0
M  V30 756 H 68.5845 -1.91205 0.106259 0
M  V30 757 H 66.8895 -3.31228 -2.09274 0
M  V30 758 H 68.5865 -3.57975 -1.80707 0
M  V30 759 H 65.1765 -4.25176 -0.540665 0
M  V30 760 H 69.3605 -4.96112 0.136546 0
M  V30 761 H 64.6165 -6.019 1.07363 0
M  V30 762 H 68.7905 -6.74141 1.74664 0
M  V30 763 H 66.4175 -7.27025 2.22123 0
M  V30 764 N 67.9926 0.231505 -1.5589 0
M  V30 765 C 69.2386 0.95877 -1.78705 0
M  V30 766 C 69.5716 1.8438 -0.609725 0
M  V30 767 O 68.8466 1.90521 0.391426 0
M  V30 768 C 69.1296 1.8062 -3.11526 0
M  V30 769 C 68.9826 0.948328 -4.39689 0
M  V30 770 C 70.3016 2.78585 -3.40703 0
M  V30 771 H 67.4206 0.347129 -0.650131 0
M  V30 772 H 70.0626 0.228259 -1.88624 0
M  V30 773 H 68.2126 2.42902 -3.03201 0
M  V30 774 H 69.8846 0.343016 -4.60023 0
M  V30 775 H 68.1276 0.253314 -4.3306 0
M  V30 776 H 68.7986 1.57543 -5.29041 0
M  V30 777 H 71.2746 2.26439 -3.49091 0
M  V30 778 H 70.1506 3.34988 -4.34826 0
M  V30 779 H 70.4116 3.55825 -2.62375 0
M  V30 780 N 69.4707 1.49531 0.497807 0
M  V30 781 C 70.7177 1.59179 1.25173 0
M  V30 782 C 71.0457 0.279932 1.92475 0
M  V30 783 O 70.3007 -0.732383 1.81479 0
M  V30 784 C 70.5997 2.70252 2.33878 0
M  V30 785 C 70.2657 4.11644 1.84012 0
M  V30 786 C 68.9277 4.50121 1.70132 0
M  V30 787 C 71.2797 5.00121 1.46725 0
M  V30 788 C 68.6077 5.74845 1.17348 0
M  V30 789 C 70.9597 6.25366 0.95392 0
M  V30 790 C 69.6237 6.6267 0.801538 0
M  V30 791 H 68.8937 0.582478 0.45804 0
M  V30 792 H 71.5407 1.83373 0.551948 0
M  V30 793 H 69.8457 2.40041 3.09657 0
M  V30 794 H 71.5427 2.74925 2.9192 0
M  V30 795 H 68.1327 3.81274 1.95775 0
M  V30 796 H 72.3167 4.71048 1.56294 0
M  V30 797 H 67.5727 6.02444 1.04264 0
M  V30 798 H 71.7467 6.93301 0.656225 0
M  V30 799 H 69.3737 7.59197 0.390351 0
M  V30 800 N 70.9488 -0.749086 1.3866 0
M  V30 801 C 72.3648 -1.05276 1.19955 0
M  V30 802 C 72.5648 -2.01435 0.05134 0
M  V30 803 O 71.6208 -2.45232 -0.60147 0
M  V30 804 C 72.9338 -1.62853 2.52783 0
M  V30 805 C 74.4818 -1.75002 2.59506 0
M  V30 806 C 74.9568 -2.35991 3.92521 0
M  V30 807 N 76.4478 -2.43416 3.94085 0
M  V30 808 C 77.1828 -2.91511 4.9377 0
M  V30 809 N 76.6788 -3.39608 6.03853 0
M  V30 810 N 78.4718 -2.90592 4.81157 0
M  V30 811 H 70.6228 -0.111066 2.12109 0
M  V30 812 H 72.8858 -0.111901 0.941373 0
M  V30 813 H 72.5918 -0.99664 3.37283 0
M  V30 814 H 72.4658 -2.61854 2.715 0
M  V30 815 H 74.8528 -2.37317 1.75398 0
M  V30 816 H 74.9338 -0.74693 2.44652 0
M  V30 817 H 74.5778 -1.74308 4.77053 0
M  V30 818 H 74.5078 -3.3695 4.04688 0
M  V30 819 H 76.9988 -2.09405 3.14576 0
M  V30 820 H 77.3118 -3.74775 6.75843 0
M  V30 821 H 75.6568 -3.37653 6.07466 0
M  V30 822 H 78.8478 -2.52332 3.94267 0
M  V30 823 H 79.0208 -3.27762 5.58996 0
M  V30 824 N 72.4269 -1.23603 -0.977757 0
M  V30 825 C 73.8429 -0.999251 -1.24447 0
M  V30 826 C 74.0429 0.298053 -1.99283 0
M  V30 827 O 73.0989 1.01681 -2.31122 0
M  V30 828 C 74.4119 -2.20784 -2.04144 0
M  V30 829 C 75.9599 -2.25303 -2.17273 0
M  V30 830 C 76.4349 -3.45755 -3.00362 0
M  V30 831 N 77.9259 -3.4601 -3.07947 0
M  V30 832 C 78.6609 -4.35868 -3.72568 0
M  V30 833 N 78.1569 -5.35966 -4.38991 0
M  V30 834 N 79.9499 -4.23605 -3.6948 0
M  V30 835 H 72.1009 -2.06986 -0.476483 0
M  V30 836 H 74.3639 -0.907801 -0.273134 0
M  V30 837 H 74.0699 -3.14945 -1.56533 0
M  V30 838 H 73.9439 -2.22085 -3.04891 0
M  V30 839 H 76.3309 -1.3168 -2.64092 0
M  V30 840 H 76.4119 -2.28033 -1.15907 0
M  V30 841 H 76.0559 -4.39687 -2.5424 0
M  V30 842 H 75.9859 -3.40266 -4.01904 0
M  V30 843 H 78.4769 -2.73588 -2.60688 0
M  V30 844 H 78.7899 -6.00783 -4.86086 0
M  V30 845 H 77.1349 -5.39863 -4.37691 0
M  V30 846 H 80.3259 -3.44647 -3.16759 0
M  V30 847 H 80.4989 -4.93836 -4.1956 0
M  V30 848 N 73.905 1.17692 -1.04816 0
M  V30 849 C 75.135 1.91508 -0.775128 0
M  V30 850 C 75.543 1.76844 0.67253 0
M  V30 851 O 74.886 1.10057 1.47082 0
M  V30 852 C 74.948 3.43167 -1.0713 0
M  V30 853 C 74.612 3.81612 -2.51438 0
M  V30 854 C 75.609 3.84772 -3.49638 0
M  V30 855 C 73.294 4.12687 -2.86348 0
M  V30 856 C 75.288 4.18469 -4.80794 0
M  V30 857 C 72.975 4.46053 -4.17708 0
M  V30 858 C 73.973 4.48921 -5.14741 0
M  V30 859 O 73.661 4.81504 -6.43746 0
M  V30 860 H 73.393 0.614575 -0.281555 0
M  V30 861 H 75.947 1.50206 -1.40098 0
M  V30 862 H 74.177 3.84745 -0.388342 0
M  V30 863 H 75.866 3.98239 -0.784883 0
M  V30 864 H 76.632 3.60893 -3.24008 0
M  V30 865 H 72.511 4.09627 -2.11486 0
M  V30 866 H 76.055 4.20623 -5.56527 0
M  V30 867 H 71.952 4.69393 -4.43103 0
M  V30 868 H 72.72 4.99377 -6.4851 0
M  V30 869 N 75.3831 0.828654 1.34056 0
M  V30 870 C 76.3461 0.259927 2.27721 0
M  V30 871 C 77.3461 -0.565478 1.50529 0
M  V30 872 O 78.5361 -0.38075 1.69988 0
M  V30 873 C 75.6681 -0.634944 3.34935 0
M  V30 874 H 76.8611 1.0863 2.79534 0
M  V30 875 H 74.4141 0.600951 1.44285 0
M  V30 876 H 75.1491 -1.48416 2.88346 0
M  V30 877 H 74.9341 -0.0444999 3.92075 0
M  V30 878 H 76.4241 -1.02648 4.04788 0
M  V30 879 N 76.8612 -1.46375 0.584142 0
M  V30 880 C 77.7712 -2.34115 -0.150728 0
M  V30 881 C 78.7872 -1.49838 -0.884567 0
M  V30 882 O 79.9632 -1.82704 -0.847429 0
M  V30 883 C 77.0282 -3.2705 -1.15062 0
M  V30 884 C 76.0892 -4.27228 -0.421293 0
M  V30 885 C 75.3222 -5.15722 -1.37355 0
M  V30 886 O 75.5452 -5.07176 -2.61014 0
M  V30 887 O 74.4792 -5.95383 -0.883355 0
M  V30 888 H 78.3052 -2.98309 0.569708 0
M  V30 889 H 75.8902 -1.45373 0.344535 0
M  V30 890 H 77.7722 -3.84381 -1.72712 0
M  V30 891 H 76.4472 -2.65451 -1.8525 0
M  V30 892 H 75.3542 -3.7358 0.197085 0
M  V30 893 H 76.6872 -4.91616 0.239641 0
M  V30 894 N 78.3393 -0.321999 -1.54275 0
M  V30 895 C 79.5863 0.281044 -2.0054 0
M  V30 896 C 79.9143 1.52265 -1.21019 0
M  V30 897 O 79.1693 1.93687 -0.279982 0
M  V30 898 C 79.4683 0.661769 -3.5122 0
M  V30 899 C 79.1343 -0.480482 -4.48333 0
M  V30 900 C 77.7963 -0.794005 -4.74604 0
M  V30 901 C 80.1483 -1.24783 -5.06042 0
M  V30 902 C 77.4763 -1.87763 -5.55844 0
M  V30 903 C 79.8283 -2.32153 -5.88462 0
M  V30 904 C 78.4923 -2.64089 -6.13036 0
M  V30 905 H 77.7623 0.102841 -0.733829 0
M  V30 906 H 80.4093 -0.445453 -1.86247 0
M  V30 907 H 78.7143 1.46867 -3.63232 0
M  V30 908 H 80.4113 1.13989 -3.84457 0
M  V30 909 H 77.0013 -0.226039 -4.28004 0
M  V30 910 H 81.1853 -1.01887 -4.85729 0
M  V30 911 H 76.4413 -2.12954 -5.73115 0
M  V30 912 H 80.6153 -2.92057 -6.32199 0
M  V30 913 H 78.2423 -3.48185 -6.75775 0
M  V30 914 N 79.8174 1.5752 -0.0501392 0
M  V30 915 C 81.0944 1.83996 0.663685 0
M  V30 916 C 81.4744 0.938339 1.89099 0
M  V30 917 O 80.8224 -0.00087759 2.285 0
M  V30 918 C 81.0324 3.33702 1.02196 0
M  V30 919 C 82.3804 4.00691 1.40469 0
M  V30 920 O 83.4044 3.38321 1.11433 0
M  V30 921 O 82.2634 5.10658 1.94654 0
M  V30 922 H 79.3574 0.759385 0.32751 0
M  V30 923 H 81.9034 1.69514 -0.0794238 0
M  V30 924 H 80.6754 3.91015 0.149364 0
M  V30 925 H 80.2984 3.53368 1.82255 0
M  V30 926 N 81.2955 -0.223234 1.56011 0
M  V30 927 C 82.2425 -1.27664 1.92277 0
M  V30 928 C 83.2125 -1.46659 0.779763 0
M  V30 929 O 84.3975 -1.60256 1.03551 0
M  V30 930 C 81.5375 -2.62234 2.24338 0
M  V30 931 C 80.6505 -2.51051 3.51564 0
M  V30 932 C 79.7855 -3.78133 3.7308 0
M  V30 933 C 78.8245 -3.61665 4.93827 0
M  V30 934 N 77.9615 -4.80693 5.11741 0
M  V30 935 H 82.8015 -0.960358 2.82101 0
M  V30 936 H 80.3385 -0.462901 1.39627 0
M  V30 937 H 82.2965 -3.40596 2.40936 0
M  V30 938 H 80.9265 -2.91961 1.3769 0
M  V30 939 H 79.9785 -1.64132 3.43169 0
M  V30 940 H 81.2905 -2.34803 4.40079 0
M  V30 941 H 80.4445 -4.64938 3.89766 0
M  V30 942 H 79.1835 -3.97304 2.82844 0
M  V30 943 H 78.1885 -2.73244 4.77093 0
M  V30 944 H 79.4135 -3.43966 5.85546 0
M  V30 945 H 77.3595 -5.00181 4.24446 0
M  V30 946 H 77.2765 -4.67165 5.94384 0
M  V30 947 H 78.5445 -5.6893 5.3286 0
M  V30 948 N 82.7736 -1.49793 -0.48987 0
M  V30 949 C 83.7036 -1.70201 -1.59856 0
M  V30 950 C 84.6846 -0.55076 -1.60937 0
M  V30 951 O 85.8696 -0.787841 -1.77501 0
M  V30 952 C 82.9996 -1.77882 -2.98287 0
M  V30 953 C 81.9536 -2.92907 -3.12073 0
M  V30 954 C 81.2796 -2.85712 -4.51965 0
M  V30 955 C 82.5796 -4.3369 -2.91051 0
M  V30 956 H 84.2736 -2.63025 -1.43032 0
M  V30 957 H 81.8196 -1.26574 -0.686664 0
M  V30 958 H 83.7726 -1.90744 -3.75759 0
M  V30 959 H 82.4966 -0.816653 -3.16225 0
M  V30 960 H 81.1556 -2.79665 -2.37029 0
M  V30 961 H 80.8036 -1.8738 -4.66795 0
M  V30 962 H 80.5036 -3.62921 -4.62128 0
M  V30 963 H 82.0276 -3.00598 -5.31482 0
M  V30 964 H 83.4416 -4.47555 -3.58284 0
M  V30 965 H 81.8386 -5.12205 -3.12675 0
M  V30 966 H 82.9086 -4.47362 -1.87071 0
M  V30 967 N 84.2517 0.741722 -1.39055 0
M  V30 968 C 85.4817 1.52876 -1.3897 0
M  V30 969 C 85.8897 1.8919 0.0193266 0
M  V30 970 O 85.2327 1.54138 0.999356 0
M  V30 971 C 85.2947 2.84929 -2.19216 0
M  V30 972 C 84.9587 2.71086 -3.67915 0
M  V30 973 C 85.9557 2.40084 -4.61146 0
M  V30 974 C 83.6407 2.88168 -4.11418 0
M  V30 975 C 85.6347 2.26335 -5.95862 0
M  V30 976 C 83.3217 2.74037 -5.46211 0
M  V30 977 C 84.3197 2.43166 -6.38247 0
M  V30 978 O 84.0077 2.29115 -7.70559 0
M  V30 979 H 83.7397 0.479252 -0.476753 0
M  V30 980 H 86.2937 0.924751 -1.83405 0
M  V30 981 H 84.5237 3.47564 -1.69518 0
M  V30 982 H 86.2127 3.46509 -2.11392 0
M  V30 983 H 86.9787 2.26545 -4.28838 0
M  V30 984 H 82.8577 3.11191 -3.40119 0
M  V30 985 H 86.4017 2.0216 -6.67665 0
M  V30 986 H 82.2987 2.87153 -5.78112 0
M  V30 987 H 83.0667 2.44237 -7.81211 0
M  V30 988 N 85.7298 1.2412 0.971189 0
M  V30 989 C 86.6778 1.02812 2.08644 0
M  V30 990 C 87.6718 -0.0358403 1.69362 0
M  V30 991 O 88.8778 0.118429 1.7961 0
M  V30 992 H 85.2528 0.315428 0.682649 0
M  V30 993 H 87.2238 1.97397 2.23779 0
M  V30 994 C 85.9728 0.645874 3.41649 0
M  V30 995 H 85.2958 1.45632 3.72332 0
M  V30 996 H 86.7358 0.536366 4.20594 0
M  V30 997 C 85.1948 -0.646713 3.30635 0
M  V30 998 O 85.7248 -1.69338 3.64263 0
M  V30 999 N 83.9308 -0.626115 2.83775 0
M  V30 1000 H 83.4778 0.225988 2.56607 0
M  V30 1001 H 83.4358 -1.49117 2.76788 0
M  V30 1002 N 87.2079 -1.17134 1.05439 0
M  V30 1003 C 88.4359 -1.91372 0.786414 0
M  V30 1004 C 88.8509 -1.76955 -0.658202 0
M  V30 1005 O 88.2079 -1.10838 -1.44987 0
M  V30 1006 C 88.2589 -3.42356 1.1608 0
M  V30 1007 O 87.9799 -3.56332 2.54871 0
M  V30 1008 C 89.4809 -4.33663 0.919322 0
M  V30 1009 H 86.7009 -0.607118 0.285743 0
M  V30 1010 H 89.2449 -1.48525 1.40572 0
M  V30 1011 H 87.3999 -3.82939 0.586191 0
M  V30 1012 H 87.8139 -4.49896 2.69618 0
M  V30 1013 H 89.2879 -5.38099 1.231 0
M  V30 1014 H 89.7649 -4.38959 -0.145359 0
M  V30 1015 H 90.3709 -3.98796 1.47789 0
M  V30 1016 N 88.686 -0.835752 -1.33615 0
M  V30 1017 C 89.616 -0.281739 -2.31794 0
M  V30 1018 C 90.597 0.608833 -1.58831 0
M  V30 1019 O 91.782 0.533035 -1.86741 0
M  V30 1020 C 88.912 0.546612 -3.42971 0
M  V30 1021 C 87.866 -0.247904 -4.27281 0
M  V30 1022 C 87.192 0.704001 -5.30045 0
M  V30 1023 C 88.492 -1.46324 -5.01385 0
M  V30 1024 H 90.186 -1.10206 -2.78379 0
M  V30 1025 H 87.732 -0.531388 -1.33837 0
M  V30 1026 H 89.685 0.944467 -4.1068 0
M  V30 1027 H 88.409 1.40011 -2.95067 0
M  V30 1028 H 87.068 -0.627281 -3.61194 0
M  V30 1029 H 86.716 1.55381 -4.78399 0
M  V30 1030 H 86.416 0.176524 -5.87335 0
M  V30 1031 H 87.94 1.09944 -6.0062 0
M  V30 1032 H 89.354 -1.13871 -5.61877 0
M  V30 1033 H 87.751 -1.92728 -5.6831 0
M  V30 1034 H 88.821 -2.23467 -4.30338 0
M  V30 1035 N 90.1641 1.46063 -0.591896 0
M  V30 1036 C 91.1111 2.30399 0.136069 0
M  V30 1037 C 92.0811 1.41169 0.875238 0
M  V30 1038 O 93.2661 1.70112 0.86409 0
M  V30 1039 C 90.4061 3.25804 1.13781 0
M  V30 1040 C 89.5191 4.30134 0.401137 0
M  V30 1041 C 88.6541 5.12659 1.39121 0
M  V30 1042 C 87.6931 6.0873 0.641462 0
M  V30 1043 N 86.8301 6.8409 1.58004 0
M  V30 1044 H 91.6701 2.92118 -0.589144 0
M  V30 1045 H 89.2071 1.43959 -0.302342 0
M  V30 1046 H 91.1651 3.79569 1.73156 0
M  V30 1047 H 89.7951 2.65872 1.83062 0
M  V30 1048 H 88.8471 3.79152 -0.307826 0
M  V30 1049 H 90.1591 4.98458 -0.184565 0
M  V30 1050 H 89.3131 5.70747 2.05749 0
M  V30 1051 H 88.0521 4.44316 2.01084 0
M  V30 1052 H 87.0571 5.49786 -0.0385419 0
M  V30 1053 H 88.2821 6.79095 0.0270945 0
M  V30 1054 H 86.2281 6.18449 2.18761 0
M  V30 1055 H 86.1451 7.48709 1.04738 0
M  V30 1056 H 87.4131 7.4673 2.23639 0
M  V30 1057 N 91.6422 0.330177 1.54103 0
M  V30 1058 C 92.5892 -0.532762 2.24567 0
M  V30 1059 C 93.5592 -1.10635 1.23892 0
M  V30 1060 O 94.7442 -1.14546 1.5259 0
M  V30 1061 C 91.8842 -1.6845 3.01195 0
M  V30 1062 C 90.9972 -1.13951 4.167 0
M  V30 1063 C 90.1322 -2.25746 4.80845 0
M  V30 1064 C 89.1712 -1.6853 5.88442 0
M  V30 1065 N 88.3082 -2.74014 6.46421 0
M  V30 1066 H 93.1482 0.0746905 2.97906 0
M  V30 1067 H 90.6852 0.048632 1.4702 0
M  V30 1068 H 92.6432 -2.36234 3.43874 0
M  V30 1069 H 91.2732 -2.26314 2.30178 0
M  V30 1070 H 90.3252 -0.35301 3.78758 0
M  V30 1071 H 91.6372 -0.680892 4.94131 0
M  V30 1072 H 90.7912 -3.01422 5.26526 0
M  V30 1073 H 89.5302 -2.74947 4.0281 0
M  V30 1074 H 88.5352 -0.913543 5.42157 0
M  V30 1075 H 89.7602 -1.20198 6.68378 0
M  V30 1076 H 87.7062 -3.22494 5.71256 0
M  V30 1077 H 87.6232 -2.32735 7.19285 0
M  V30 1078 H 88.8912 -3.49499 6.96757 0
M  V30 1079 N 93.1203 -1.57491 0.0584922 0
M  V30 1080 C 94.0523 -2.08916 -0.942694 0
M  V30 1081 C 95.0653 -1.0185 -1.27006 0
M  V30 1082 O 96.2543 -1.29398 -1.22957 0
M  V30 1083 C 93.3543 -2.52341 -2.26224 0
M  V30 1084 C 92.5273 -3.82827 -2.1157 0
M  V30 1085 C 91.5863 -4.12487 -3.26712 0
M  V30 1086 O 90.6123 -4.82295 -3.02292 0
M  V30 1087 N 91.8143 -3.64978 -4.5141 0
M  V30 1088 H 94.5793 -2.95437 -0.503722 0
M  V30 1089 H 92.1403 -1.61397 -0.12757 0
M  V30 1090 H 94.1323 -2.69254 -3.02133 0
M  V30 1091 H 92.7023 -1.7103 -2.61663 0
M  V30 1092 H 91.9223 -3.75425 -1.20208 0
M  V30 1093 H 93.2103 -4.68263 -1.99015 0
M  V30 1094 H 92.6083 -3.08558 -4.7414 0
M  V30 1095 H 91.1653 -3.87115 -5.2439 0
M  V30 1096 N 94.5984 0.214957 -1.56127 0
M  V30 1097 C 95.8454 0.938372 -1.79446 0
M  V30 1098 C 96.1734 1.8407 -0.628378 0
M  V30 1099 O 95.4284 1.91837 0.386925 0
M  V30 1100 C 95.7274 1.80314 -3.0858 0
M  V30 1101 C 95.3934 1.05349 -4.3842 0
M  V30 1102 C 94.0554 0.846435 -4.73697 0
M  V30 1103 C 96.4074 0.524588 -5.18553 0
M  V30 1104 C 93.7354 0.098683 -5.86617 0
M  V30 1105 C 96.0874 -0.209853 -6.32252 0
M  V30 1106 C 94.7514 -0.428102 -6.66126 0
M  V30 1107 H 94.0214 0.343375 -0.656639 0
M  V30 1108 H 96.6684 0.206077 -1.90388 0
M  V30 1109 H 94.9734 2.6035 -2.92789 0
M  V30 1110 H 96.6704 2.36513 -3.23825 0
M  V30 1111 H 93.2604 1.22486 -4.10725 0
M  V30 1112 H 97.4444 0.672008 -4.91729 0
M  V30 1113 H 92.7004 -0.0805753 -6.11347 0
M  V30 1114 H 96.8744 -0.627157 -6.9357 0
M  V30 1115 H 94.5014 -1.00944 -7.53468 0
M  V30 1116 N 96.0765 1.50051 0.48192 0
M  V30 1117 C 97.4875 1.5348 1.06305 0
M  V30 1118 C 97.8385 0.331997 1.93371 0
M  V30 1119 O 96.9635 -0.556256 2.09129 0
M  V30 1120 C 97.5585 2.7813 1.93466 0
M  V30 1121 C 96.1175 2.84275 2.46707 0
M  V30 1122 C 95.2645 2.47637 1.24785 0
M  V30 1123 H 98.2155 1.56472 0.264995 0
M  V30 1124 H 98.2365 2.59372 2.78399 0
M  V30 1125 H 97.7485 3.65654 1.30072 0
M  V30 1126 H 95.8495 2.01077 3.13686 0
M  V30 1127 H 95.9625 3.8691 2.82555 0
M  V30 1128 H 94.3265 1.99835 1.57918 0
M  V30 1129 H 95.1095 3.37457 0.630694 0
M  V30 1130 N 97.5546 -0.734337 1.39446 0
M  V30 1131 C 98.5176 -1.83004 1.37994 0
M  V30 1132 C 99.5176 -1.58397 0.276938 0
M  V30 1133 O 100.708 -1.65785 0.534875 0
M  V30 1134 C 97.8396 -3.20802 1.1532 0
M  V30 1135 H 99.0326 -1.85694 2.35494 0
M  V30 1136 H 96.5856 -0.938059 1.25021 0
M  V30 1137 H 97.3206 -3.23772 0.185036 0
M  V30 1138 H 97.1056 -3.4006 1.95197 0
M  V30 1139 H 98.5956 -4.00862 1.17046 0
M  V30 1140 N 99.0327 -1.24633 -0.964593 0
M  V30 1141 C 99.9657 -0.984662 -2.05863 0
M  V30 1142 C 100.944 0.0826554 -1.6239 0
M  V30 1143 O 102.128 -0.0549296 -1.8842 0
M  V30 1144 C 99.2547 -0.486529 -3.35187 0
M  V30 1145 C 98.3007 -1.54286 -3.97615 0
M  V30 1146 S 99.1337 -3.12513 -4.34851 0
M  V30 1147 C 100.29 -2.6441 -5.67308 0
M  V30 1148 H 100.523 -1.91104 -2.27743 0
M  V30 1149 H 98.0557 -1.08052 -1.10291 0
M  V30 1150 H 100.014 -0.205757 -4.09984 0
M  V30 1151 H 98.6747 0.419186 -3.1129 0
M  V30 1152 H 97.8677 -1.14481 -4.90826 0
M  V30 1153 H 97.4697 -1.7738 -3.2926 0
M  V30 1154 H 99.7617 -2.07416 -6.44969 0
M  V30 1155 H 100.705 -3.56222 -6.11973 0
M  V30 1156 H 101.113 -2.04734 -5.26065 0
M  V30 1157 N 100.511 1.16574 -1.06058 0
M  V30 1158 C 101.474 2.19085 -0.673392 0
M  V30 1159 C 102.474 1.5835 0.279648 0
M  V30 1160 O 103.664 1.74088 0.0623488 0
M  V30 1161 C 100.796 3.40899 0.00954234 0
M  V30 1162 H 101.989 2.54853 -1.58081 0
M  V30 1163 H 99.5418 1.30808 -0.855516 0
M  V30 1164 H 100.277 3.10684 0.929826 0
M  V30 1165 H 100.062 3.86233 -0.67573 0
M  V30 1166 H 101.552 4.1675 0.266245 0
M  V30 1167 N 101.989 0.842826 1.3317 0
M  V30 1168 C 102.919 0.294028 2.31641 0
M  V30 1169 C 103.9 -0.600401 1.59151 0
M  V30 1170 O 105.085 -0.523124 1.87022 0
M  V30 1171 C 102.215 -0.528416 3.43257 0
M  V30 1172 C 101.169 0.27056 4.27144 0
M  V30 1173 C 100.495 -0.675881 5.30411 0
M  V30 1174 C 101.795 1.48981 5.00602 0
M  V30 1175 H 103.489 1.11681 2.77791 0
M  V30 1176 H 101.035 0.538478 1.33553 0
M  V30 1177 H 102.988 -0.922674 4.11175 0
M  V30 1178 H 101.712 -1.38445 2.95805 0
M  V30 1179 H 100.371 0.646427 3.60856 0
M  V30 1180 H 100.019 -1.52842 4.79216 0
M  V30 1181 H 99.7189 -0.145374 5.8742 0
M  V30 1182 H 101.243 -1.06757 6.01195 0
M  V30 1183 H 102.657 1.16849 5.61266 0
M  V30 1184 H 101.054 1.95739 5.6728 0
M  V30 1185 H 102.124 2.25746 4.29147 0
M  V30 1186 N 103.467 -1.45747 0.599634 0
M  V30 1187 C 104.414 -2.30467 -0.123849 0
M  V30 1188 C 105.384 -1.41632 -0.86774 0
M  V30 1189 O 106.569 -1.70568 -0.855056 0
M  V30 1190 C 103.709 -3.26402 -1.12051 0
M  V30 1191 C 102.822 -4.3034 -0.37832 0
M  V30 1192 C 101.957 -5.13389 -1.364 0
M  V30 1193 C 100.996 -6.09061 -0.609171 0
M  V30 1194 N 100.133 -6.84918 -1.54374 0
M  V30 1195 H 104.973 -2.91802 0.604627 0
M  V30 1196 H 102.51 -1.43797 0.309972 0
M  V30 1197 H 104.468 -3.80482 -1.7114 0
M  V30 1198 H 103.098 -2.66839 -1.8165 0
M  V30 1199 H 102.15 -3.78984 0.327929 0
M  V30 1200 H 103.462 -4.98354 0.210997 0
M  V30 1201 H 102.616 -5.7183 -2.02719 0
M  V30 1202 H 101.355 -4.45376 -1.98725 0
M  V30 1203 H 100.36 -5.49758 0.0676979 0
M  V30 1204 H 101.585 -6.79099 0.00891991 0
M  V30 1205 H 99.531 -6.19601 -2.15478 0
M  V30 1206 H 99.448 -7.49254 -1.00766 0
M  V30 1207 H 100.716 -7.47906 -2.19676 0
M  V30 1208 N 104.945 -0.338344 -1.53925 0
M  V30 1209 C 106.194 0.260732 -2.00008 0
M  V30 1210 C 106.507 1.52073 -1.23017 0
M  V30 1211 O 107.713 2.19672 -1.5955 0
M  V30 1212 C 106.169 0.51515 -3.56194 0
M  V30 1213 C 105.777 -0.728645 -4.42035 0
M  V30 1214 C 107.521 1.07337 -4.10706 0
M  V30 1215 C 105.428 -0.445315 -5.89721 0
M  V30 1216 H 104.358 0.101205 -0.747177 0
M  V30 1217 H 107.009 -0.452866 -1.77824 0
M  V30 1218 H 105.391 1.28932 -3.74423 0
M  V30 1219 H 106.565 -1.50352 -4.35581 0
M  V30 1220 H 104.88 -1.20813 -3.98489 0
M  V30 1221 H 107.477 1.30022 -5.18651 0
M  V30 1222 H 107.82 2.0273 -3.63602 0
M  V30 1223 H 108.353 0.360034 -3.96167 0
M  V30 1224 H 105.092 -1.36883 -6.41049 0
M  V30 1225 H 104.612 0.291569 -5.99091 0
M  V30 1226 H 106.291 -0.0606218 -6.46972 0
M  V30 1227 N 106.423 1.57458 -0.0668435 0
M  V30 1228 C 107.834 1.80776 0.466558 0
M  V30 1229 C 108.185 0.980361 1.69951 0
M  V30 1230 O 107.31 0.201441 2.1546 0
M  V30 1231 C 107.905 3.27881 0.85321 0
M  V30 1232 C 106.464 3.52062 1.3315 0
M  V30 1233 C 105.611 2.75513 0.314264 0
M  V30 1234 H 108.562 1.5598 -0.292588 0
M  V30 1235 H 108.583 3.39659 1.715 0
M  V30 1236 H 108.095 3.88075 -0.0443439 0
M  V30 1237 H 106.196 2.97167 2.24772 0
M  V30 1238 H 106.309 4.60762 1.31285 0
M  V30 1239 H 104.673 2.42123 0.790492 0
M  V30 1240 H 105.456 3.38442 -0.575477 0
M  V30 1241 N 107.901 -0.206675 1.56239 0
M  V30 1242 C 108.864 -1.23976 1.92776 0
M  V30 1243 C 109.864 -1.39041 0.807729 0
M  V30 1244 O 111.054 -1.37051 1.0753 0
M  V30 1245 C 108.186 -2.61112 2.19165 0
M  V30 1246 H 109.379 -0.927764 2.85189 0
M  V30 1247 H 106.932 -0.447718 1.4975 0
M  V30 1248 H 107.667 -2.97386 1.29352 0
M  V30 1249 H 107.452 -2.51552 3.00772 0
M  V30 1250 H 108.942 -3.35633 2.48476 0
M  V30 1251 N 109.379 -1.50304 -0.473955 0
M  V30 1252 C 110.326 -1.68959 -1.57231 0
M  V30 1253 C 111.296 -0.530899 -1.57387 0
M  V30 1254 O 112.481 -0.761133 -1.74961 0
M  V30 1255 C 109.621 -1.7871 -2.95223 0
M  V30 1256 C 108.734 -3.06061 -3.04878 0
M  V30 1257 C 107.869 -3.06626 -4.33767 0
M  V30 1258 C 106.908 -4.28443 -4.37154 0
M  V30 1259 N 106.045 -4.26763 -5.5751 0
M  V30 1260 H 110.885 -2.6273 -1.40631 0
M  V30 1261 H 108.422 -1.30241 -0.683789 0
M  V30 1262 H 110.38 -1.82344 -3.75242 0
M  V30 1263 H 109.01 -0.883806 -3.10465 0
M  V30 1264 H 108.062 -3.11911 -2.17751 0
M  V30 1265 H 109.374 -3.96039 -3.0324 0
M  V30 1266 H 108.528 -3.08973 -5.22131 0
M  V30 1267 H 107.267 -2.14473 -4.3801 0
M  V30 1268 H 106.272 -4.2631 -3.47188 0
M  V30 1269 H 107.497 -5.2182 -4.34605 0
M  V30 1270 H 105.443 -3.37462 -5.62544 0
M  V30 1271 H 105.36 -5.10507 -5.57601 0
M  V30 1272 H 106.628 -4.33253 -6.48006 0
M  V30 1273 N 110.857 0.726932 -1.39834 0
M  V30 1274 C 112.273 1.03354 -1.21615 0
M  V30 1275 C 112.473 2.01327 -0.08338 0
M  V30 1276 O 111.529 2.46158 0.56238 0
M  V30 1277 C 112.842 1.58811 -2.55342 0
M  V30 1278 C 114.39 1.70851 -2.62257 0
M  V30 1279 C 114.865 2.29716 -3.96225 0
M  V30 1280 N 116.356 2.37116 -3.97907 0
M  V30 1281 C 117.091 2.83619 -4.98345 0
M  V30 1282 N 116.587 3.29958 -6.09179 0
M  V30 1283 N 118.38 2.82901 -4.8572 0
M  V30 1284 H 110.531 0.0773069 -2.12259 0
M  V30 1285 H 112.794 0.0969102 -0.943034 0
M  V30 1286 H 112.5 0.942855 -3.38826 0
M  V30 1287 H 112.374 2.57502 -2.75632 0
M  V30 1288 H 114.761 2.34497 -1.79152 0
M  V30 1289 H 114.842 0.707913 -2.45809 0
M  V30 1290 H 114.486 1.66696 -4.79765 0
M  V30 1291 H 114.416 3.30469 -4.09997 0
M  V30 1292 H 116.907 2.04374 -3.17868 0
M  V30 1293 H 117.22 3.63976 -6.8172 0
M  V30 1294 H 115.565 3.27946 -6.12761 0
M  V30 1295 H 118.756 2.46027 -3.98231 0
M  V30 1296 H 118.929 3.18827 -5.6414 0
M  V30 1297 N 112.336 1.25143 0.95797 0
M  V30 1298 C 113.585 1.0909 1.69654 0
M  V30 1299 C 113.898 -0.368548 1.92097 0
M  V30 1300 O 115.104 -0.649455 2.63618 0
M  V30 1301 C 113.56 1.90395 3.05414 0
M  V30 1302 C 113.168 3.4081 2.90779 0
M  V30 1303 C 114.912 1.82901 3.83076 0
M  V30 1304 C 112.819 4.14423 4.21909 0
M  V30 1305 H 111.749 0.404625 0.636235 0
M  V30 1306 H 114.4 1.4931 1.06672 0
M  V30 1307 H 112.782 1.42996 3.69281 0
M  V30 1308 H 113.956 3.95859 2.35865 0
M  V30 1309 H 112.271 3.49361 2.26575 0
M  V30 1310 H 114.868 2.35196 4.80195 0
M  V30 1311 H 115.211 0.796224 4.08615 0
M  V30 1312 H 115.744 2.28033 3.25954 0
M  V30 1313 H 112.483 5.18102 4.01561 0
M  V30 1314 H 112.003 3.64159 4.76601 0
M  V30 1315 H 113.682 4.21956 4.90471 0
M  V30 1316 N 113.814 -1.1601 1.06675 0
M  V30 1317 C 115.061 -1.86633 0.785781 0
M  V30 1318 C 115.389 -1.81929 -0.687896 0
M  V30 1319 O 114.644 -1.23253 -1.52011 0
M  V30 1320 C 114.943 -3.35547 1.23057 0
M  V30 1321 C 114.609 -3.60448 2.70902 0
M  V30 1322 C 113.271 -3.66954 3.11285 0
M  V30 1323 C 115.623 -3.7071 3.66365 0
M  V30 1324 C 112.951 -3.81225 4.45965 0
M  V30 1325 C 115.303 -3.86503 5.00797 0
M  V30 1326 C 113.967 -3.91252 5.40813 0
M  V30 1327 H 113.237 -0.682937 0.287538 0
M  V30 1328 H 115.884 -1.37146 1.33654 0
M  V30 1329 H 114.189 -3.87193 0.59907 0
M  V30 1330 H 115.886 -3.88583 0.990163 0
M  V30 1331 H 112.476 -3.56021 2.38636 0
M  V30 1332 H 116.66 -3.64991 3.36296 0
M  V30 1333 H 111.916 -3.83155 4.76447 0
M  V30 1334 H 116.09 -3.93385 5.74649 0
M  V30 1335 H 113.717 -4.02062 6.45174 0
M  V30 1336 N 115.292 -0.849877 -1.32721 0
M  V30 1337 C 116.54 -0.450032 -1.97026 0
M  V30 1338 C 116.861 0.996604 -1.67609 0
M  V30 1339 O 116.131 1.6958 -0.980786 0
M  V30 1340 H 114.711 -0.163426 -0.728904 0
M  V30 1341 H 117.373 -1.08526 -1.6189 0
M  V30 1342 H 116.469 -0.591146 -3.0645 0
M  V30 1343 N 116.77 1.45427 -0.607355 0
M  V30 1344 C 118.047 1.9557 -0.0344566 0
M  V30 1345 C 118.427 1.54979 1.43334 0
M  V30 1346 O 117.775 0.812241 2.13576 0
M  V30 1347 C 117.985 3.48226 -0.232321 0
M  V30 1348 C 119.333 4.2445 -0.113001 0
M  V30 1349 O 120.357 3.55829 -0.162431 0
M  V30 1350 O 119.216 5.465 0.00209442 0
M  V30 1351 H 116.31 0.826222 0.0358667 0
M  V30 1352 H 118.856 1.55594 -0.6774 0
M  V30 1353 H 117.628 3.70739 -1.25174 0
M  V30 1354 H 117.251 3.95092 0.445896 0
M  V30 1355 N 118.248 0.346503 1.53744 0
M  V30 1356 C 119.196 -0.52422 2.26616 0
M  V30 1357 C 120.19 -1.09948 1.28871 0
M  V30 1358 O 121.396 -1.04488 1.46568 0
M  V30 1359 H 117.771 -0.187743 0.728187 0
M  V30 1360 H 119.742 0.11239 2.98188 0
M  V30 1361 C 118.491 -1.66186 3.05414 0
M  V30 1362 H 117.814 -1.22848 3.80458 0
M  V30 1363 H 119.254 -2.24622 3.59612 0
M  V30 1364 C 117.713 -2.59302 2.1509 0
M  V30 1365 O 118.243 -3.61628 1.74895 0
M  V30 1366 N 116.449 -2.28055 1.8011 0
M  V30 1367 H 115.996 -1.44883 2.12994 0
M  V30 1368 H 115.954 -2.90615 1.19958 0
M  V30 1369 N 119.726 -1.57421 0.075193 0
M  V30 1370 C 120.973 -1.93618 -0.593146 0
M  V30 1371 C 121.301 -0.955484 -1.69413 0
M  V30 1372 O 120.556 0.0283251 -1.9568 0
M  V30 1373 C 120.855 -3.36428 -1.20626 0
M  V30 1374 C 120.521 -4.50307 -0.231078 0
M  V30 1375 C 119.183 -4.81186 0.0371936 0
M  V30 1376 C 121.535 -5.19374 0.435888 0
M  V30 1377 C 118.863 -5.78466 0.979461 0
M  V30 1378 C 121.215 -6.17665 1.3665 0
M  V30 1379 C 119.879 -6.46958 1.6432 0
M  V30 1380 H 119.149 -0.708499 -0.217047 0
M  V30 1381 H 121.796 -1.90937 0.146793 0
M  V30 1382 H 120.101 -3.35592 -2.02201 0
M  V30 1383 H 121.798 -3.61727 -1.73073 0
M  V30 1384 H 118.388 -4.26227 -0.450357 0
M  V30 1385 H 122.572 -4.95711 0.241748 0
M  V30 1386 H 117.828 -5.99487 1.20106 0
M  V30 1387 H 122.002 -6.70284 1.88924 0
M  V30 1388 H 119.629 -7.2215 2.37494 0
M  V30 1389 N 121.204 0.198386 -1.56346 0
M  V30 1390 C 122.481 0.944982 -1.71258 0
M  V30 1391 C 122.861 2.0151 -0.629048 0
M  V30 1392 O 122.209 2.25639 0.360473 0
M  V30 1393 C 122.419 1.5344 -3.1346 0
M  V30 1394 C 123.767 2.01778 -3.73591 0
M  V30 1395 O 124.791 1.63288 -3.16568 0
M  V30 1396 O 123.65 2.72594 -4.73661 0
M  V30 1397 H 120.744 0.442939 -0.69838 0
M  V30 1398 H 123.29 0.188342 -1.68652 0
M  V30 1399 H 122.062 0.762869 -3.83792 0
M  V30 1400 H 121.685 2.35596 -3.20282 0
M  V30 1401 N 122.682 1.50554 0.465978 0
M  V30 1402 C 124.093 1.54599 1.04671 0
M  V30 1403 C 124.444 0.352488 1.93008 0
M  V30 1404 O 123.569 -0.534044 2.09707 0
M  V30 1405 C 124.164 2.80166 1.90505 0
M  V30 1406 C 122.723 2.86876 2.43678 0
M  V30 1407 C 121.87 2.48947 1.22151 0
M  V30 1408 H 124.821 1.56744 0.248384 0
M  V30 1409 H 124.842 2.62311 2.75633 0
M  V30 1410 H 124.354 3.67013 1.26186 0
M  V30 1411 H 122.455 2.04393 3.11536 0
M  V30 1412 H 122.568 3.89885 2.78436 0
M  V30 1413 H 120.932 2.01498 1.5579 0
M  V30 1414 H 121.715 3.38107 0.594866 0
M  V30 1415 N 124.16 -0.719506 1.40217 0
M  V30 1416 C 125.437 -1.47221 1.28784 0
M  V30 1417 C 125.817 -2.10883 -0.0956067 0
M  V30 1418 O 125.165 -1.99833 -1.10811 0
M  V30 1419 C 125.375 -2.5111 2.42373 0
M  V30 1420 C 126.723 -3.17053 2.82423 0
M  V30 1421 O 127.747 -2.61429 2.41937 0
M  V30 1422 O 126.606 -4.17742 3.52355 0
M  V30 1423 H 123.7 -0.654491 0.50554 0
M  V30 1424 H 126.246 -0.752014 1.52128 0
M  V30 1425 H 125.018 -2.02556 3.34793 0
M  V30 1426 H 124.641 -3.3067 2.20778 0
M  V30 1427 N 125.638 -1.25649 -0.95132 0
M  V30 1428 C 126.885 -1.10594 -1.69633 0
M  V30 1429 C 127.213 0.352515 -1.91279 0
M  V30 1430 O 126.468 1.27601 -1.4838 0
M  V30 1431 C 126.767 -1.80909 -3.08231 0
M  V30 1432 C 126.433 -3.30825 -3.06375 0
M  V30 1433 C 125.095 -3.71722 -3.05576 0
M  V30 1434 C 127.447 -4.26589 -2.99452 0
M  V30 1435 C 124.775 -5.06788 -2.95606 0
M  V30 1436 C 127.127 -5.61683 -2.91024 0
M  V30 1437 C 125.791 -6.01904 -2.88562 0
M  V30 1438 H 125.061 -0.404691 -0.620731 0
M  V30 1439 H 127.708 -1.55964 -1.11119 0
M  V30 1440 H 126.013 -1.27979 -3.70309 0
M  V30 1441 H 127.71 -1.6671 -3.64704 0
M  V30 1442 H 124.3 -2.98287 -3.07771 0
M  V30 1443 H 128.484 -3.95982 -2.99185 0
M  V30 1444 H 123.74 -5.37126 -2.92071 0
M  V30 1445 H 127.914 -6.35578 -2.84629 0
M  V30 1446 H 125.541 -7.06521 -2.80593 0
M  V30 1447 N 127.117 1.15442 -1.07289 0
M  V30 1448 C 128.366 1.85557 -0.790669 0
M  V30 1449 C 128.679 1.83186 0.685739 0
M  V30 1450 O 129.885 2.48977 1.0827 0
M  V30 1451 C 128.341 3.33038 -1.36433 0
M  V30 1452 C 127.949 3.43856 -2.8717 0
M  V30 1453 C 129.693 4.0834 -1.1601 0
M  V30 1454 C 127.6 4.85482 -3.3773 0
M  V30 1455 H 126.53 0.695122 -0.292098 0
M  V30 1456 H 129.181 1.30219 -1.29287 0
M  V30 1457 H 127.563 3.88043 -0.789864 0
M  V30 1458 H 128.737 2.98961 -3.50655 0
M  V30 1459 H 127.052 2.81998 -3.06376 0
M  V30 1460 H 129.649 5.12859 -1.51262 0
M  V30 1461 H 129.992 4.16182 -0.0991007 0
M  V30 1462 H 130.525 3.59603 -1.70089 0
M  V30 1463 H 127.264 4.82823 -4.43353 0
M  V30 1464 H 126.784 5.30961 -2.78999 0
M  V30 1465 H 128.463 5.54335 -3.33648 0
M  V30 1466 N 128.595 0.856903 1.32268 0
M  V30 1467 C 129.542 0.301172 2.28827 0
M  V30 1468 C 130.512 -0.593104 1.5515 0
M  V30 1469 O 131.697 -0.527537 1.83362 0
M  V30 1470 C 128.837 -0.502523 3.41422 0
M  V30 1471 C 127.95 0.417797 4.29975 0
M  V30 1472 C 127.085 -0.398749 5.29701 0
M  V30 1473 C 126.124 0.518827 6.09897 0
M  V30 1474 N 125.261 -0.260674 7.01616 0
M  V30 1475 H 130.101 1.12983 2.75751 0
M  V30 1476 H 127.638 0.568582 1.35667 0
M  V30 1477 H 129.596 -0.984141 4.05426 0
M  V30 1478 H 128.226 -1.29599 2.95642 0
M  V30 1479 H 127.278 1.01781 3.66531 0
M  V30 1480 H 128.59 1.12191 4.86019 0
M  V30 1481 H 127.744 -0.943435 5.9932 0
M  V30 1482 H 126.483 -1.13622 4.7428 0
M  V30 1483 H 125.488 1.07538 5.39181 0
M  V30 1484 H 126.713 1.25495 6.67404 0
M  V30 1485 H 124.659 -0.981198 6.4862 0
M  V30 1486 H 124.576 0.384364 7.55022 0
M  V30 1487 H 125.844 -0.787014 7.75517 0
M  V30 1488 N 130.073 -1.45103 0.615059 0
M  V30 1489 C 131.005 -2.28786 -0.13762 0
M  V30 1490 C 132.018 -1.40376 -0.824525 0
M  V30 1491 O 133.207 -1.64681 -0.688662 0
M  V30 1492 C 130.307 -3.16322 -1.21628 0
M  V30 1493 C 129.48 -4.33054 -0.615039 0
M  V30 1494 C 128.539 -5.01743 -1.58556 0
M  V30 1495 O 127.565 -5.58293 -1.10895 0
M  V30 1496 N 128.767 -5.01714 -2.91998 0
M  V30 1497 H 131.532 -2.94025 0.580483 0
M  V30 1498 H 129.093 -1.55373 0.45507 0
M  V30 1499 H 131.085 -3.59139 -1.86552 0
M  V30 1500 H 129.655 -2.52943 -1.83681 0
M  V30 1501 H 128.875 -3.93627 0.21245 0
M  V30 1502 H 130.163 -5.08431 -0.193704 0
M  V30 1503 H 129.561 -4.57075 -3.33316 0
M  V30 1504 H 128.118 -5.48371 -3.52325 0
M  V30 1505 N 131.551 -0.354651 -1.53558 0
M  V30 1506 C 132.967 -0.00315426 -1.596 0
M  V30 1507 C 133.167 1.47741 -1.37021 0
M  V30 1508 O 132.223 2.23759 -1.16996 0
M  V30 1509 C 133.536 -0.44929 -2.97325 0
M  V30 1510 C 135.084 -0.402578 -3.104 0
M  V30 1511 C 135.559 -0.824355 -4.5052 0
M  V30 1512 N 137.05 -0.778979 -4.56603 0
M  V30 1513 C 137.785 -1.07715 -5.63192 0
M  V30 1514 N 137.281 -1.44405 -6.77583 0
M  V30 1515 N 139.074 -1.00066 -5.53121 0
M  V30 1516 H 131.225 -1.31893 -1.66487 0
M  V30 1517 H 133.488 -0.538388 -0.780284 0
M  V30 1518 H 133.194 -1.48202 -3.1895 0
M  V30 1519 H 133.068 0.169772 -3.76818 0
M  V30 1520 H 135.455 0.621004 -2.88492 0
M  V30 1521 H 135.536 -1.05699 -2.32941 0
M  V30 1522 H 135.18 -1.846 -4.73165 0
M  V30 1523 H 135.11 -0.147304 -5.26394 0
M  V30 1524 H 137.601 -0.508528 -3.74463 0
M  V30 1525 H 137.914 -1.65612 -7.54846 0
M  V30 1526 H 136.259 -1.4826 -6.79002 0
M  V30 1527 H 139.45 -0.713293 -4.62633 0
M  V30 1528 H 139.623 -1.23638 -6.36096 0
M  V30 1529 N 133.029 1.57378 -0.0835403 0
M  V30 1530 C 134.445 1.57246 0.273109 0
M  V30 1531 C 134.645 1.09385 1.69225 0
M  V30 1532 O 133.701 0.765051 2.40631 0
M  V30 1533 C 135.014 3.00614 0.0720628 0
M  V30 1534 C 136.562 3.12684 0.1407 0
M  V30 1535 C 137.037 4.57989 -0.0322094 0
M  V30 1536 N 138.528 4.63194 0.0230085 0
M  V30 1537 C 139.263 5.73335 -0.0861941 0
M  V30 1538 N 138.759 6.9235 -0.24958 0
M  V30 1539 N 140.552 5.62093 -0.0282886 0
M  V30 1540 H 132.703 1.86801 -1.0109 0
M  V30 1541 H 134.966 0.861687 -0.395222 0
M  V30 1542 H 134.672 3.39786 -0.907662 0
M  V30 1543 H 134.546 3.68193 0.81936 0
M  V30 1544 H 136.933 2.73391 1.11092 0
M  V30 1545 H 137.014 2.47719 -0.637896 0
M  V30 1546 H 136.658 4.97973 -0.999247 0
M  V30 1547 H 136.588 5.21 0.765937 0
M  V30 1548 H 139.079 3.77613 0.14722 0
M  V30 1549 H 139.392 7.72117 -0.324733 0
M  V30 1550 H 137.737 6.94415 -0.285097 0
M  V30 1551 H 140.928 4.67997 0.0981408 0
M  V30 1552 H 141.101 6.47895 -0.116845 0
M  V30 1553 N 134.507 -0.190092 1.56449 0
M  V30 1554 C 135.47 -1.21925 1.9408 0
M  V30 1555 C 136.47 -1.38176 0.822431 0
M  V30 1556 O 137.66 -1.35903 1.08977 0
M  V30 1557 C 134.792 -2.58773 2.21922 0
M  V30 1558 H 135.985 -0.897464 2.86157 0
M  V30 1559 H 133.538 -0.43181 1.50217 0
M  V30 1560 H 134.273 -2.95998 1.32499 0
M  V30 1561 H 134.058 -2.48348 3.03424 0
M  V30 1562 H 135.548 -3.32978 2.52022 0
M  V30 1563 N 135.985 -1.50799 -0.457987 0
M  V30 1564 C 137.233 -1.62121 -1.2067 0
M  V30 1565 C 137.554 -0.329793 -1.92191 0
M  V30 1566 O 136.824 0.653409 -1.84682 0
M  V30 1567 H 135.404 -0.597441 -0.448411 0
M  V30 1568 H 138.066 -1.87637 -0.527096 0
M  V30 1569 H 137.162 -2.43882 -1.94751 0
M  V30 1570 N 137.463 0.71206 -1.40597 0
M  V30 1571 C 138.393 1.83889 -1.43899 0
M  V30 1572 C 139.374 1.67442 -0.299504 0
M  V30 1573 O 140.559 1.87421 -0.508624 0
M  V30 1574 C 137.689 3.21877 -1.30431 0
M  V30 1575 C 136.643 3.53002 -2.42019 0
M  V30 1576 C 135.969 4.90172 -2.13626 0
M  V30 1577 C 137.269 3.53643 -3.84362 0
M  V30 1578 H 138.963 1.81383 -2.38203 0
M  V30 1579 H 136.509 0.871237 -1.14654 0
M  V30 1580 H 138.462 4.00404 -1.31357 0
M  V30 1581 H 137.186 3.24968 -0.326049 0
M  V30 1582 H 135.845 2.76818 -2.40349 0
M  V30 1583 H 135.493 4.89869 -1.14182 0
M  V30 1584 H 135.193 5.11962 -2.88389 0
M  V30 1585 H 136.717 5.71028 -2.1624 0
M  V30 1586 H 138.131 4.22203 -3.87837 0
M  V30 1587 H 136.528 3.86961 -4.58673 0
M  V30 1588 H 137.598 2.52954 -4.13693 0
M  V30 1589 N 138.941 1.26152 0.944643 0
M  V30 1590 C 139.889 1.07215 2.06417 0
M  V30 1591 C 140.883 9.2007e-05 1.694 0
M  V30 1592 O 142.089 0.1565 1.79318 0
M  V30 1593 H 138.464 0.329837 0.675805 0
M  V30 1594 H 140.435 2.02099 2.19541 0
M  V30 1595 C 139.184 0.718197 3.40202 0
M  V30 1596 H 138.507 1.53497 3.69159 0
M  V30 1597 H 139.947 0.625459 4.19361 0
M  V30 1598 C 138.406 -0.576435 3.31932 0
M  V30 1599 O 138.936 -1.61574 3.67773 0
M  V30 1600 N 137.142 -0.565781 2.85039 0
M  V30 1601 H 136.689 0.280367 2.5607 0
M  V30 1602 H 136.647 -1.43213 2.79888 0
M  V30 1603 N 140.419 -1.14872 1.07899 0
M  V30 1604 C 141.329 -2.2341 0.715915 0
M  V30 1605 C 142.345 -1.71808 -0.275306 0
M  V30 1606 O 143.521 -2.01039 -0.120545 0
M  V30 1607 C 140.586 -3.46474 0.125168 0
M  V30 1608 C 139.647 -4.13039 1.17034 0
M  V30 1609 C 138.88 -5.30229 0.607688 0
M  V30 1610 O 139.103 -5.675 -0.574497 0
M  V30 1611 O 138.037 -5.86444 1.35526 0
M  V30 1612 H 141.863 -2.56808 1.62121 0
M  V30 1613 H 139.448 -1.22702 0.852322 0
M  V30 1614 H 141.33 -4.20917 -0.201729 0
M  V30 1615 H 140.005 -3.14811 -0.753364 0
M  V30 1616 H 138.912 -3.40493 1.54968 0
M  V30 1617 H 140.245 -4.48796 2.02097 0
M  V30 1618 N 141.898 -0.863906 -1.31812 0
M  V30 1619 C 143.145 -0.471836 -1.96926 0
M  V30 1620 C 143.473 0.974578 -1.68322 0
M  V30 1621 O 142.728 1.7003 -0.968933 0
M  V30 1622 C 143.027 -0.668547 -3.51091 0
M  V30 1623 C 142.693 -2.08683 -3.99703 0
M  V30 1624 C 141.355 -2.47471 -4.12688 0
M  V30 1625 C 143.707 -3.01207 -4.25351 0
M  V30 1626 C 141.035 -3.78037 -4.4867 0
M  V30 1627 C 143.387 -4.31282 -4.62794 0
M  V30 1628 C 142.051 -4.69992 -4.73987 0
M  V30 1629 H 141.321 -0.172657 -0.720604 0
M  V30 1630 H 143.968 -1.09573 -1.57054 0
M  V30 1631 H 142.273 0.0385252 -3.91781 0
M  V30 1632 H 143.97 -0.345102 -3.99512 0
M  V30 1633 H 140.56 -1.77566 -3.90087 0
M  V30 1634 H 144.744 -2.72469 -4.14819 0
M  V30 1635 H 140 -4.078 -4.55532 0
M  V30 1636 H 144.174 -5.03031 -4.81594 0
M  V30 1637 H 141.801 -5.71207 -5.01624 0
M  V30 1638 N 143.376 1.44774 -0.622745 0
M  V30 1639 C 144.625 2.01334 -0.121397 0
M  V30 1640 C 144.938 1.49505 1.26125 0
M  V30 1641 O 146.144 1.98139 1.85616 0
M  V30 1642 C 144.6 3.59516 -0.166298 0
M  V30 1643 C 144.208 4.20342 -1.54974 0
M  V30 1644 C 145.952 4.23582 0.279021 0
M  V30 1645 C 143.859 5.70721 -1.55021 0
M  V30 1646 H 142.789 0.752851 -0.0416172 0
M  V30 1647 H 145.44 1.66083 -0.780309 0
M  V30 1648 H 143.822 3.92027 0.559557 0
M  V30 1649 H 144.996 3.99381 -2.29851 0
M  V30 1650 H 143.311 3.68529 -1.93843 0
M  V30 1651 H 145.908 5.33868 0.298083 0
M  V30 1652 H 146.251 3.95327 1.30471 0
M  V30 1653 H 146.784 3.95843 -0.394063 0
M  V30 1654 H 143.523 6.03698 -2.55399 0
M  V30 1655 H 143.043 5.93829 -0.844245 0
M  V30 1656 H 144.722 6.34203 -1.28047 0
M  V30 1657 N 144.854 0.36279 1.53368 0
M  V30 1658 C 145.786 -0.519668 2.23231 0
M  V30 1659 C 146.799 -1.04844 1.24546 0
M  V30 1660 O 147.988 -0.955296 1.50786 0
M  V30 1661 C 145.088 -1.72995 2.9142 0
M  V30 1662 C 144.261 -1.33316 4.16588 0
M  V30 1663 C 143.32 -2.40521 4.68013 0
M  V30 1664 O 142.346 -2.03027 5.3176 0
M  V30 1665 N 143.548 -3.72065 4.45587 0
M  V30 1666 H 146.313 0.078751 2.99597 0
M  V30 1667 H 143.874 0.187833 1.60807 0
M  V30 1668 H 145.866 -2.44184 3.22733 0
M  V30 1669 H 144.436 -2.2353 2.18525 0
M  V30 1670 H 143.656 -0.451236 3.91609 0
M  V30 1671 H 144.944 -1.04432 4.97967 0
M  V30 1672 H 144.342 -4.05304 3.94646 0
M  V30 1673 H 142.899 -4.39366 4.81457 0
M  V30 1674 N 146.332 -1.57332 0.0918853 0
M  V30 1675 C 147.28 -2.15075 -0.885747 0
M  V30 1676 C 148.274 -1.09277 -1.29441 0
M  V30 1677 O 149.48 -1.27627 -1.26931 0
M  V30 1678 H 145.855 -0.687966 -0.303656 0
M  V30 1679 H 147.826 -2.96047 -0.373995 0
M  V30 1680 C 146.575 -2.74325 -2.13638 0
M  V30 1681 H 145.898 -3.55418 -1.8308 0
M  V30 1682 H 147.338 -3.183 -2.80109 0
M  V30 1683 C 145.797 -1.70062 -2.90827 0
M  V30 1684 O 146.327 -1.13763 -3.85254 0
M  V30 1685 N 144.533 -1.40628 -2.54307 0
M  V30 1686 H 144.08 -1.866 -1.7759 0
M  V30 1687 H 144.038 -0.711043 -3.06254 0
M  V30 1688 N 147.81 0.181792 -1.56548 0
M  V30 1689 C 148.74 1.22765 -1.98623 0
M  V30 1690 C 149.721 1.46747 -0.860189 0
M  V30 1691 O 150.906 1.58259 -1.12551 0
M  V30 1692 C 148.036 2.56894 -2.33715 0
M  V30 1693 C 146.99 2.475 -3.49182 0
M  V30 1694 C 146.316 3.86023 -3.69986 0
M  V30 1695 C 147.616 1.98866 -4.82959 0
M  V30 1696 H 149.31 0.877942 -2.86239 0
M  V30 1697 H 146.856 0.42088 -1.37712 0
M  V30 1698 H 148.809 3.30253 -2.61746 0
M  V30 1699 H 147.533 2.93632 -1.42997 0
M  V30 1700 H 146.192 1.76596 -3.21262 0
M  V30 1701 H 145.84 4.20136 -2.76576 0
M  V30 1702 H 145.54 3.80609 -4.47672 0
M  V30 1703 H 147.064 4.60984 -4.00407 0
M  V30 1704 H 148.478 2.61992 -5.09934 0
M  V30 1705 H 146.875 2.04424 -5.64208 0
M  V30 1706 H 147.945 0.942465 -4.75653 0
M  V30 1707 N 149.288 1.51039 0.449983 0
M  V30 1708 C 150.534 1.63322 1.20223 0
M  V30 1709 C 150.867 0.34241 1.91158 0
M  V30 1710 O 150.142 -0.657344 1.83055 0
M  V30 1711 C 150.425 2.82801 2.22925 0
M  V30 1712 C 150.278 4.21823 1.56157 0
M  V30 1713 C 151.597 2.97807 3.24035 0
M  V30 1714 H 148.716 0.594407 0.435718 0
M  V30 1715 H 151.358 1.83489 0.493136 0
M  V30 1716 H 149.508 2.65738 2.834 0
M  V30 1717 H 151.18 4.50526 0.991162 0
M  V30 1718 H 149.423 4.25105 0.864172 0
M  V30 1719 H 150.094 5.01391 2.30891 0
M  V30 1720 H 152.57 3.13497 2.73603 0
M  V30 1721 H 151.446 3.82992 3.93202 0
M  V30 1722 H 151.707 2.09328 3.89402 0
M  V30 1723 N 150.766 -0.704594 1.40972 0
M  V30 1724 C 152.182 -1.01406 1.23244 0
M  V30 1725 C 152.382 -2.01169 0.115399 0
M  V30 1726 O 151.438 -2.47021 -0.523147 0
M  V30 1727 C 152.751 -1.54728 2.57836 0
M  V30 1728 C 154.299 -1.66658 2.64942 0
M  V30 1729 C 154.774 -2.23383 3.9983 0
M  V30 1730 N 156.265 -2.30756 4.01629 0
M  V30 1731 C 157 -2.75655 5.02794 0
M  V30 1732 N 156.496 -3.20225 6.14352 0
M  V30 1733 N 158.289 -2.75138 4.90159 0
M  V30 1734 H 150.44 -0.0435285 2.12355 0
M  V30 1735 H 152.703 -0.0818951 0.944456 0
M  V30 1736 H 152.409 -0.888832 3.40283 0
M  V30 1737 H 152.283 -2.53084 2.79693 0
M  V30 1738 H 154.67 -2.31617 1.8286 0
M  V30 1739 H 154.751 -0.668717 2.46904 0
M  V30 1740 H 154.395 -1.59043 4.82357 0
M  V30 1741 H 154.325 -3.23904 4.15203 0
M  V30 1742 H 156.816 -1.99291 3.21079 0
M  V30 1743 H 157.129 -3.53084 6.87424 0
M  V30 1744 H 155.474 -3.18156 6.17901 0
M  V30 1745 H 158.665 -2.39661 4.02095 0
M  V30 1746 H 158.838 -3.09812 5.6914 0
M  V30 1747 N 152.244 -1.26651 -0.937939 0
M  V30 1748 C 153.474 -1.15006 -1.71631 0
M  V30 1749 C 153.882 0.297026 -1.86854 0
M  V30 1750 O 153.225 1.21493 -1.37786 0
M  V30 1751 C 153.287 -1.74984 -3.14039 0
M  V30 1752 C 152.951 -3.24103 -3.2219 0
M  V30 1753 C 153.948 -4.20877 -3.05219 0
M  V30 1754 C 151.633 -3.64625 -3.45476 0
M  V30 1755 C 153.627 -5.56151 -3.11408 0
M  V30 1756 C 151.314 -5.00032 -3.513 0
M  V30 1757 C 152.312 -5.95604 -3.34282 0
M  V30 1758 O 152 -7.28545 -3.3982 0
M  V30 1759 H 151.732 -0.401183 -0.544085 0
M  V30 1760 H 154.286 -1.67832 -1.18413 0
M  V30 1761 H 152.516 -1.16624 -3.68695 0
M  V30 1762 H 154.205 -1.58199 -3.73802 0
M  V30 1763 H 154.971 -3.90908 -2.87081 0
M  V30 1764 H 150.85 -2.90718 -3.57777 0
M  V30 1765 H 154.394 -6.30727 -2.98043 0
M  V30 1766 H 150.291 -5.29659 -3.68959 0
M  V30 1767 H 151.059 -7.3686 -3.56343 0
M  V30 1768 N 153.722 1.14298 -1.08507 0
M  V30 1769 C 155.133 1.66926 -0.836227 0
M  V30 1770 C 155.484 1.85576 0.63686 0
M  V30 1771 O 154.609 1.56767 1.49175 0
M  V30 1772 C 155.204 3.03219 -1.51142 0
M  V30 1773 C 153.763 3.52876 -1.30979 0
M  V30 1774 C 152.91 2.2833 -1.57356 0
M  V30 1775 H 155.861 0.983491 -1.24552 0
M  V30 1776 H 155.882 3.68726 -0.939211 0
M  V30 1777 H 155.394 2.89612 -2.58353 0
M  V30 1778 H 153.495 3.71703 -0.258429 0
M  V30 1779 H 153.608 4.33586 -2.03814 0
M  V30 1780 H 151.972 2.34454 -0.995164 0
M  V30 1781 H 152.755 2.17298 -2.65775 0
M  V30 1782 N 155.201 0.870884 1.31352 0
M  V30 1783 C 156.111 0.330783 2.32256 0
M  V30 1784 C 157.127 -0.559767 1.6475 0
M  V30 1785 O 158.303 -0.456263 1.96164 0
M  V30 1786 C 155.368 -0.458137 3.4366 0
M  V30 1787 C 154.429 0.460482 4.26823 0
M  V30 1788 C 153.662 -0.290881 5.32907 0
M  V30 1789 O 153.885 -1.51885 5.49806 0
M  V30 1790 O 152.819 0.351732 6.00871 0
M  V30 1791 H 156.645 1.16718 2.80376 0
M  V30 1792 H 154.23 0.634285 1.35267 0
M  V30 1793 H 156.112 -0.905343 4.1156 0
M  V30 1794 H 154.787 -1.27106 2.97701 0
M  V30 1795 H 153.694 0.956207 3.61673 0
M  V30 1796 H 155.027 1.23903 4.7635 0
M  V30 1797 N 156.679 -1.44442 0.630414 0
M  V30 1798 C 157.609 -2.33418 -0.0618083 0
M  V30 1799 C 158.59 -1.48165 -0.835541 0
M  V30 1800 O 159.775 -1.76886 -0.801564 0
M  V30 1801 C 156.905 -3.31222 -1.04449 0
M  V30 1802 C 155.859 -4.26288 -0.382436 0
M  V30 1803 C 155.185 -5.13954 -1.47497 0
M  V30 1804 C 156.485 -5.1744 0.710865 0
M  V30 1805 H 158.179 -2.91548 0.681184 0
M  V30 1806 H 155.725 -1.40191 0.329026 0
M  V30 1807 H 157.678 -3.92351 -1.53748 0
M  V30 1808 H 156.402 -2.71299 -1.81836 0
M  V30 1809 H 155.061 -3.6649 0.0899054 0
M  V30 1810 H 154.709 -4.50385 -2.2397 0
M  V30 1811 H 154.409 -5.7837 -1.03737 0
M  V30 1812 H 155.933 -5.77955 -1.96979 0
M  V30 1813 H 157.347 -5.72509 0.300996 0
M  V30 1814 H 155.744 -5.90455 1.07156 0
M  V30 1815 H 156.814 -4.58496 1.57829 0
M  V30 1816 N 158.157 -0.370918 -1.53173 0
M  V30 1817 C 159.387 0.217389 -2.05453 0
M  V30 1818 C 159.795 1.42568 -1.24382 0
M  V30 1819 O 159.138 1.81571 -0.278839 0
M  V30 1820 C 159.2 0.669827 -3.53205 0
M  V30 1821 C 158.864 -0.4225 -4.55043 0
M  V30 1822 C 159.861 -1.27407 -5.04047 0
M  V30 1823 C 157.546 -0.58427 -4.9889 0
M  V30 1824 C 159.54 -2.27271 -5.95505 0
M  V30 1825 C 157.227 -1.58627 -5.90153 0
M  V30 1826 C 158.225 -2.42892 -6.38351 0
M  V30 1827 O 157.913 -3.41382 -7.27814 0
M  V30 1828 H 157.645 0.0408171 -0.674767 0
M  V30 1829 H 160.199 -0.5292 -1.98466 0
M  V30 1830 H 158.429 1.4681 -3.57748 0
M  V30 1831 H 160.118 1.18173 -3.88317 0
M  V30 1832 H 160.884 -1.16031 -4.70916 0
M  V30 1833 H 156.763 0.061851 -4.60959 0
M  V30 1834 H 160.307 -2.93079 -6.33049 0
M  V30 1835 H 156.204 -1.70048 -6.22699 0
M  V30 1836 H 156.972 -3.37173 -7.45826 0
M  V30 1837 N 159.635 1.57281 -0.100228 0
M  V30 1838 C 160.583 2.15542 0.874328 0
M  V30 1839 C 161.577 1.09962 1.28859 0
M  V30 1840 O 162.783 1.28298 1.26252 0
M  V30 1841 H 159.158 0.689567 0.300003 0
M  V30 1842 H 161.129 2.96241 0.35829 0
M  V30 1843 C 159.878 2.75454 2.1218 0
M  V30 1844 H 159.201 3.56384 1.81193 0
M  V30 1845 H 160.641 3.19781 2.78417 0
M  V30 1846 C 159.1 1.71602 2.89921 0
M  V30 1847 O 159.63 1.15804 3.84646 0
M  V30 1848 N 157.836 1.41975 2.53558 0
M  V30 1849 H 157.383 1.87539 1.76598 0
M  V30 1850 H 157.341 0.727274 3.05873 0
M  V30 1851 N 161.113 -0.173488 1.56642 0
M  V30 1852 C 162.063 -1.21941 1.92651 0
M  V30 1853 C 163.047 -1.39912 0.794577 0
M  V30 1854 O 164.239 -1.41919 1.05773 0
M  V30 1855 C 161.368 -2.55935 2.28806 0
M  V30 1856 C 160.454 -2.41667 3.48508 0
M  V30 1857 N 160.845 -1.9711 4.65813 0
M  V30 1858 C 159.143 -2.72499 3.53072 0
M  V30 1859 C 159.844 -1.95253 5.47952 0
M  V30 1860 N 158.82 -2.37575 4.88937 0
M  V30 1861 H 162.622 -0.866581 2.80834 0
M  V30 1862 H 160.136 -0.381776 1.57849 0
M  V30 1863 H 162.133 -3.31511 2.52797 0
M  V30 1864 H 160.793 -2.92022 1.41961 0
M  V30 1865 H 161.804 -1.67481 4.90072 0
M  V30 1866 H 158.481 -3.12639 2.767 0
M  V30 1867 H 159.871 -1.6252 6.51948 0
M  V30 1868 N 162.591 -1.51276 -0.441967 0
M  V30 1869 C 164.002 -1.56244 -1.02199 0
M  V30 1870 C 164.353 -0.383149 -1.92422 0
M  V30 1871 O 163.478 0.500613 -2.1053 0
M  V30 1872 C 164.073 -2.83162 -1.86024 0
M  V30 1873 C 162.632 -2.90716 -2.39084 0
M  V30 1874 C 161.779 -2.50858 -1.18175 0
M  V30 1875 H 164.73 -1.5712 -0.223416 0
M  V30 1876 H 164.751 -2.66663 -2.71425 0
M  V30 1877 H 164.263 -3.68974 -1.20331 0
M  V30 1878 H 162.364 -2.09323 -3.08244 0
M  V30 1879 H 162.477 -3.94266 -2.72198 0
M  V30 1880 H 160.841 -2.03951 -1.52565 0
M  V30 1881 H 161.624 -3.3901 -0.541001 0
M  V30 1882 N 164.069 0.697108 -1.41344 0
M  V30 1883 C 165.346 1.45154 -1.31109 0
M  V30 1884 C 165.726 2.11009 0.0620449 0
M  V30 1885 O 165.074 2.01571 1.07618 0
M  V30 1886 C 165.284 2.47223 -2.46337 0
M  V30 1887 C 166.632 3.1252 -2.87431 0
M  V30 1888 O 167.656 2.57547 -2.46065 0
M  V30 1889 O 166.515 4.12083 -3.58957 0
M  V30 1890 H 163.609 0.646365 -0.515889 0
M  V30 1891 H 166.155 0.727716 -1.53305 0
M  V30 1892 H 164.927 1.97204 -3.37974 0
M  V30 1893 H 164.55 3.27116 -2.2601 0
M  V30 1894 N 165.547 1.27147 0.931209 0
M  V30 1895 C 166.793 1.13446 1.68101 0
M  V30 1896 C 167.126 -0.319628 1.91552 0
M  V30 1897 O 166.401 -1.23407 1.50336 0
M  V30 1898 C 166.684 1.91482 3.0497 0
M  V30 1899 C 166.537 3.44855 2.88782 0
M  V30 1900 C 167.856 1.71651 4.05246 0
M  V30 1901 H 164.975 0.413498 0.610072 0
M  V30 1902 H 167.617 1.56261 1.08086 0
M  V30 1903 H 165.767 1.55095 3.56199 0
M  V30 1904 H 167.439 3.9105 2.44698 0
M  V30 1905 H 165.682 3.71373 2.24198 0
M  V30 1906 H 166.353 3.94694 3.85902 0
M  V30 1907 H 168.829 2.0337 3.63015 0
M  V30 1908 H 167.705 2.28651 4.99009 0
M  V30 1909 H 167.966 0.663555 4.37092 0
M  V30 1910 N 167.025 -1.13721 1.09112 0
M  V30 1911 C 168.441 -1.36914 0.820174 0
M  V30 1912 C 168.641 -1.93356 -0.567079 0
M  V30 1913 O 167.697 -2.15093 -1.32255 0
M  V30 1914 C 169.01 -2.3235 1.90877 0
M  V30 1915 C 170.558 -2.45973 1.93562 0
M  V30 1916 C 171.033 -3.44714 3.01556 0
M  V30 1917 N 172.524 -3.52263 3.00775 0
M  V30 1918 C 173.259 -4.28536 3.80978 0
M  V30 1919 N 172.755 -5.07991 4.71081 0
M  V30 1920 N 174.548 -4.23804 3.69251 0
M  V30 1921 H 166.699 -0.754348 1.98553 0
M  V30 1922 H 168.962 -0.3944 0.862063 0
M  V30 1923 H 168.668 -1.98027 2.90651 0
M  V30 1924 H 168.542 -3.32332 1.78424 0
M  V30 1925 H 170.929 -2.79584 0.944286 0
M  V30 1926 H 171.01 -1.45926 2.10093 0
M  V30 1927 H 170.654 -3.11835 4.00901 0
M  V30 1928 H 170.584 -4.44558 2.82269 0
M  V30 1929 H 173.075 -2.95567 2.35475 0
M  V30 1930 H 173.388 -5.63487 5.28869 0
M  V30 1931 H 171.733 -5.07235 4.75119 0
M  V30 1932 H 174.924 -3.60806 2.98222 0
M  V30 1933 H 175.097 -4.82995 4.31995 0
M  V30 1934 N 168.503 -0.877838 -1.30888 0
M  V30 1935 C 169.466 -0.344265 -2.266 0
M  V30 1936 C 170.466 0.50922 -1.52524 0
M  V30 1937 O 171.656 0.317398 -1.71284 0
M  V30 1938 C 168.788 0.510198 -3.37061 0
M  V30 1939 H 169.981 -1.1893 -2.7531 0
M  V30 1940 H 167.534 -0.654088 -1.41956 0
M  V30 1941 H 168.269 1.37612 -2.93655 0
M  V30 1942 H 168.054 -0.101047 -3.9197 0
M  V30 1943 H 169.544 0.875537 -4.08319 0
M  V30 1944 N 169.982 1.44106 -0.638065 0
M  V30 1945 C 171.229 2.01978 -0.14533 0
M  V30 1946 C 171.557 1.50234 1.23532 0
M  V30 1947 O 170.812 0.679548 1.83523 0
M  V30 1948 C 171.111 3.5729 -0.0887327 0
M  V30 1949 C 170.777 4.28317 -1.40909 0
M  V30 1950 C 169.439 4.47437 -1.77069 0
M  V30 1951 C 171.791 4.6867 -2.28031 0
M  V30 1952 C 169.119 5.04171 -3.00047 0
M  V30 1953 C 171.471 5.26766 -3.50286 0
M  V30 1954 C 170.135 5.44104 -3.86661 0
M  V30 1955 H 169.405 0.739089 -0.0531801 0
M  V30 1956 H 172.052 1.72781 -0.825761 0
M  V30 1957 H 170.357 3.8594 0.675095 0
M  V30 1958 H 172.054 3.99807 0.309145 0
M  V30 1959 H 168.644 4.1377 -1.1177 0
M  V30 1960 H 172.828 4.53604 -2.01388 0
M  V30 1961 H 168.084 5.15782 -3.28298 0
M  V30 1962 H 172.258 5.56983 -4.18023 0
M  V30 1963 H 169.885 5.87832 -4.82034 0
M  V30 1964 N 171.46 0.379036 1.52974 0
M  V30 1965 C 172.39 -0.452706 2.29069 0
M  V30 1966 C 173.371 -1.07237 1.32039 0
M  V30 1967 O 174.556 -1.08708 1.60923 0
M  V30 1968 C 171.686 -1.5856 3.08992 0
M  V30 1969 C 170.64 -1.0925 4.13822 0
M  V30 1970 C 169.966 -2.31668 4.81907 0
M  V30 1971 C 171.266 -0.167702 5.22031 0
M  V30 1972 H 172.96 0.182181 2.98845 0
M  V30 1973 H 170.506 0.0890592 1.43724 0
M  V30 1974 H 172.459 -2.1742 3.6098 0
M  V30 1975 H 171.183 -2.24792 2.36931 0
M  V30 1976 H 169.842 -0.526494 3.628 0
M  V30 1977 H 169.49 -2.96386 4.06404 0
M  V30 1978 H 169.19 -1.9934 5.52754 0
M  V30 1979 H 170.714 -2.91189 5.36695 0
M  V30 1980 H 172.128 -0.664186 5.6944 0
M  V30 1981 H 170.525 0.0653265 6.00064 0
M  V30 1982 H 171.595 0.786347 4.78482 0
M  V30 1983 N 172.938 -1.57226 0.108567 0
M  V30 1984 C 173.87 -2.11809 -0.875752 0
M  V30 1985 C 174.883 -1.05839 -1.23701 0
M  V30 1986 O 176.072 -1.33245 -1.18778 0
M  V30 1987 C 173.172 -2.59411 -2.18081 0
M  V30 1988 C 172.345 -3.89364 -1.99284 0
M  V30 1989 C 171.404 -4.22672 -3.13424 0
M  V30 1990 O 170.43 -4.91668 -2.86795 0
M  V30 1991 N 171.632 -3.79154 -4.3957 0
M  V30 1992 H 174.397 -2.9689 -0.409477 0
M  V30 1993 H 171.958 -1.61721 -0.076158 0
M  V30 1994 H 173.95 -2.7873 -2.93414 0
M  V30 1995 H 172.52 -1.79268 -2.5609 0
M  V30 1996 H 171.74 -3.79059 -1.08203 0
M  V30 1997 H 173.028 -4.74358 -1.84017 0
M  V30 1998 H 172.426 -3.23486 -4.64083 0
M  V30 1999 H 170.983 -4.03602 -5.11809 0
M  V30 2000 N 174.416 0.165178 -1.56732 0
M  V30 2001 C 175.349 1.23336 -1.91998 0
M  V30 2002 C 176.327 1.42476 -0.783531 0
M  V30 2003 O 177.511 1.57384 -1.03743 0
M  V30 2004 C 174.638 2.59533 -2.17625 0
M  V30 2005 C 173.684 2.57093 -3.40302 0
M  V30 2006 S 174.517 2.05571 -4.9447 0
M  V30 2007 C 175.673 3.43532 -5.23198 0
M  V30 2008 H 175.906 0.932387 -2.82301 0
M  V30 2009 H 173.439 0.370013 -1.49901 0
M  V30 2010 H 175.397 3.37918 -2.3307 0
M  V30 2011 H 174.058 2.86827 -1.28019 0
M  V30 2012 H 173.251 3.57308 -3.55453 0
M  V30 2013 H 172.853 1.86806 -3.24005 0
M  V30 2014 H 175.145 4.39559 -5.15552 0
M  V30 2015 H 176.088 3.33251 -6.2478 0
M  V30 2016 H 176.496 3.39828 -4.50752 0
M  V30 2017 N 175.894 1.51508 0.433938 0
M  V30 2018 C 177.171 1.54888 1.19453 0
M  V30 2019 C 177.551 0.315154 2.08734 0
M  V30 2020 O 176.899 -0.699558 2.17528 0
M  V30 2021 C 177.109 2.86467 1.99342 0
M  V30 2022 C 178.457 3.38545 2.56267 0
M  V30 2023 O 179.481 2.88041 2.0955 0
M  V30 2024 O 178.34 4.26675 3.41483 0
M  V30 2025 H 175.434 0.622863 0.544032 0
M  V30 2026 H 177.98 1.63823 0.442732 0
M  V30 2027 H 176.752 3.67718 1.33788 0
M  V30 2028 H 176.375 2.8071 2.8158 0
M  V30 2029 N 177.372 -0.689602 1.41712 0
M  V30 2030 C 178.597 -1.48329 1.44959 0
M  V30 2031 C 179.022 -1.8801 0.0581283 0
M  V30 2032 O 178.38 -1.55026 -0.940035 0
M  V30 2033 C 178.428 -2.71835 2.36935 0
M  V30 2034 O 177.532 -3.69549 1.8305 0
M  V30 2035 H 176.873 -0.446199 0.491734 0
M  V30 2036 H 179.403 -0.847127 1.86239 0
M  V30 2037 H 179.413 -3.20076 2.53013 0
M  V30 2038 H 178.088 -2.42291 3.38035 0
M  V30 2039 H 176.665 -3.2851 1.76452 0
M  V30 2040 N 178.85 -1.27639 -0.924453 0
M  V30 2041 C 180.261 -1.12834 -1.48746 0
M  V30 2042 C 180.612 0.285505 -1.94112 0
M  V30 2043 O 179.737 1.17874 -1.81479 0
M  V30 2044 C 180.332 -2.04217 -2.70334 0
M  V30 2045 C 178.891 -1.93509 -3.22848 0
M  V30 2046 C 178.038 -1.96583 -1.95577 0
M  V30 2047 H 180.989 -1.40484 -0.738233 0
M  V30 2048 H 181.01 -1.59989 -3.4523 0
M  V30 2049 H 180.522 -3.07111 -2.37285 0
M  V30 2050 H 178.623 -0.936131 -3.60649 0
M  V30 2051 H 178.736 -2.79917 -3.88823 0
M  V30 2052 H 177.1 -1.4085 -2.12211 0
M  V30 2053 H 177.883 -3.01137 -1.64837 0
M  V30 2054 N 180.328 1.1314 -1.09713 0
M  V30 2055 C 181.275 2.18642 -0.739196 0
M  V30 2056 C 182.245 1.63706 0.280978 0
M  V30 2057 O 183.43 1.90111 0.161946 0
M  V30 2058 C 180.57 3.44685 -0.169102 0
M  V30 2059 C 179.683 4.13711 -1.24367 0
M  V30 2060 C 178.818 5.27379 -0.636019 0
M  V30 2061 C 177.857 5.88259 -1.69169 0
M  V30 2062 N 176.994 6.93352 -1.10485 0
M  V30 2063 H 181.834 2.48607 -1.64312 0
M  V30 2064 H 179.371 1.22066 -0.820875 0
M  V30 2065 H 181.329 4.16815 0.179256 0
M  V30 2066 H 179.959 3.15161 0.698079 0
M  V30 2067 H 179.011 3.39835 -1.70927 0
M  V30 2068 H 180.323 4.55037 -2.04311 0
M  V30 2069 H 179.477 6.06238 -0.236677 0
M  V30 2070 H 178.216 4.8731 0.194928 0
M  V30 2071 H 177.221 5.08092 -2.10055 0
M  V30 2072 H 178.446 6.30399 -2.52536 0
M  V30 2073 H 176.392 6.55335 -0.295234 0
M  V30 2074 H 176.309 7.33236 -1.84121 0
M  V30 2075 H 177.577 7.76057 -0.73181 0
M  V30 2076 N 181.806 0.884767 1.30421 0
M  V30 2077 C 182.756 0.322846 2.25703 0
M  V30 2078 C 183.74 -0.548582 1.51259 0
M  V30 2079 O 184.932 -0.39304 1.72581 0
M  V30 2080 C 182.061 -0.461787 3.4018 0
M  V30 2081 C 181.147 0.423717 4.21978 0
M  V30 2082 N 181.538 1.52408 4.82292 0
M  V30 2083 C 179.836 0.218795 4.45463 0
M  V30 2084 C 180.537 2.07136 5.43571 0
M  V30 2085 N 179.513 1.36635 5.26148 0
M  V30 2086 H 183.315 1.16363 2.69883 0
M  V30 2087 H 180.829 0.73415 1.44859 0
M  V30 2088 H 182.826 -0.880985 4.07485 0
M  V30 2089 H 181.486 -1.30001 2.9754 0
M  V30 2090 H 182.497 1.90693 4.81515 0
M  V30 2091 H 179.174 -0.582275 4.1342 0
M  V30 2092 H 180.564 2.99538 6.01437 0
M  V30 2093 N 183.284 -1.43765 0.645699 0
M  V30 2094 C 184.216 -2.29027 -0.0890605 0
M  V30 2095 C 185.229 -1.42093 -0.794563 0
M  V30 2096 O 186.418 -1.66104 -0.653575 0
M  V30 2097 C 183.518 -3.18831 -1.14891 0
M  V30 2098 C 182.691 -4.34261 -0.523043 0
M  V30 2099 C 181.75 -5.04994 -1.47878 0
M  V30 2100 O 180.776 -5.6052 -0.990277 0
M  V30 2101 N 181.978 -5.07795 -2.81291 0
M  V30 2102 H 184.743 -2.92727 0.64272 0
M  V30 2103 H 182.304 -1.54373 0.487924 0
M  V30 2104 H 184.296 -3.63015 -1.78892 0
M  V30 2105 H 182.866 -2.56782 -1.78275 0
M  V30 2106 H 182.086 -3.93088 0.295896 0
M  V30 2107 H 183.374 -5.08728 -0.0858147 0
M  V30 2108 H 182.772 -4.64042 -3.23546 0
M  V30 2109 H 181.329 -5.55721 -3.40614 0
M  V30 2110 N 184.763 -0.387143 -1.52771 0
M  V30 2111 C 185.988 0.198407 -2.06449 0
M  V30 2112 C 186.413 1.39918 -1.25716 0
M  V30 2113 O 185.771 1.79099 -0.281657 0
M  V30 2114 C 185.819 0.548893 -3.56398 0
M  V30 2115 O 184.923 1.64315 -3.78252 0
M  V30 2116 H 184.264 0.0237731 -0.663574 0
M  V30 2117 H 186.794 -0.553989 -1.96957 0
M  V30 2118 H 186.804 0.813812 -3.99801 0
M  V30 2119 H 185.479 -0.329005 -4.14597 0
M  V30 2120 H 184.056 1.37211 -3.46738 0
M  V30 2121 N 186.241 1.57166 -0.116904 0
M  V30 2122 C 187.518 1.86645 0.585049 0
M  V30 2123 C 187.898 1.0177 1.84949 0
M  V30 2124 O 187.246 0.0960379 2.28298 0
M  V30 2125 C 187.456 3.37736 0.879507 0
M  V30 2126 C 188.804 4.06289 1.23348 0
M  V30 2127 O 189.828 3.42743 0.969836 0
M  V30 2128 O 188.687 5.18455 1.7282 0
M  V30 2129 H 185.781 0.772593 0.295007 0
M  V30 2130 H 188.327 1.69025 -0.151249 0
M  V30 2131 H 187.099 3.91296 -0.0166136 0
M  V30 2132 H 186.722 3.6078 1.67103 0
M  V30 2133 N 187.719 -0.156864 1.56817 0
M  V30 2134 C 189.13 -0.717916 1.72345 0
M  V30 2135 C 189.481 -1.82124 0.729747 0
M  V30 2136 O 188.606 -2.16141 -0.105781 0
M  V30 2137 C 189.201 -1.30904 3.12489 0
M  V30 2138 C 187.76 -1.81676 3.29653 0
M  V30 2139 C 186.907 -0.701349 2.68284 0
M  V30 2140 H 189.858 0.0686989 1.58551 0
M  V30 2141 H 189.879 -2.17882 3.11942 0
M  V30 2142 H 189.391 -0.505796 3.8479 0
M  V30 2143 H 187.492 -2.64598 2.62333 0
M  V30 2144 H 187.605 -1.95226 4.3752 0
M  V30 2145 H 185.969 -1.12548 2.28484 0
M  V30 2146 H 186.752 0.0902846 3.43181 0
M  V30 2147 N 189.197 -1.51736 -0.425897 0
M  V30 2148 C 190.422 -1.69082 -1.20108 0
M  V30 2149 C 190.847 -0.392398 -1.83962 0
M  V30 2150 O 190.205 0.64858 -1.69302 0
M  V30 2151 C 190.253 -2.81604 -2.25237 0
M  V30 2152 O 189.357 -2.46004 -3.30992 0
M  V30 2153 H 188.698 -0.563408 -0.35138 0
M  V30 2154 H 191.228 -1.98358 -0.501512 0
M  V30 2155 H 191.238 -3.06025 -2.69838 0
M  V30 2156 H 189.913 -3.75817 -1.78142 0
M  V30 2157 H 188.49 -2.32195 -2.91787 0
M  V30 2158 N 190.675 0.682077 -1.42076 0
M  V30 2159 C 191.585 1.82535 -1.47371 0
M  V30 2160 C 192.601 1.7017 -0.363079 0
M  V30 2161 O 193.777 1.91848 -0.612875 0
M  V30 2162 C 190.842 3.18624 -1.36674 0
M  V30 2163 C 189.903 3.42999 -2.58167 0
M  V30 2164 C 189.136 4.72595 -2.4797 0
M  V30 2165 O 189.359 5.50006 -1.5116 0
M  V30 2166 O 188.293 4.98054 -3.37974 0
M  V30 2167 H 192.119 1.81023 -2.43853 0
M  V30 2168 H 189.704 0.836887 -1.2376 0
M  V30 2169 H 191.586 3.99847 -1.33043 0
M  V30 2170 H 190.261 3.20789 -0.433138 0
M  V30 2171 H 189.168 2.61653 -2.67373 0
M  V30 2172 H 190.501 3.45659 -3.50401 0
M  V30 2173 N 192.153 1.28127 0.917671 0
M  V30 2174 C 193.43 1.05761 1.64542 0
M  V30 2175 C 193.81 -0.404344 2.07191 0
M  V30 2176 O 193.158 -1.38963 1.81388 0
M  V30 2177 C 193.368 2.02857 2.83989 0
M  V30 2178 C 194.716 2.32786 3.551 0
M  V30 2179 O 195.74 2.0091 2.94132 0
M  V30 2180 O 194.599 2.87169 4.64969 0
M  V30 2181 H 191.693 0.403916 0.721652 0
M  V30 2182 H 194.239 1.39431 0.967322 0
M  V30 2183 H 193.011 3.01407 2.49538 0
M  V30 2184 H 192.634 1.69809 3.59514 0
M  V30 2185 N 193.631 -1.12557 1.10312 0
M  V30 2186 C 194.541 -2.21841 0.763142 0
M  V30 2187 C 195.557 -1.72354 -0.238801 0
M  V30 2188 O 196.733 -2.01249 -0.0778746 0
M  V30 2189 C 193.798 -3.46131 0.198632 0
M  V30 2190 C 192.859 -4.10464 1.25769 0
M  V30 2191 C 192.092 -5.28821 0.72002 0
M  V30 2192 O 192.315 -5.6859 -0.453993 0
M  V30 2193 O 191.249 -5.83437 1.47935 0
M  V30 2194 H 195.075 -2.53312 1.67532 0
M  V30 2195 H 192.66 -1.20867 0.878157 0
M  V30 2196 H 194.542 -4.2125 -0.112401 0
M  V30 2197 H 193.217 -3.16338 -0.686419 0
M  V30 2198 H 192.124 -3.3713 1.62156 0
M  V30 2199 H 193.457 -4.44408 2.11571 0
M  V30 2200 N 195.109 -0.891671 -1.2995 0
M  V30 2201 C 196.386 -0.433307 -1.9074 0
M  V30 2202 C 196.766 1.08646 -1.80995 0
M  V30 2203 O 196.114 1.92476 -1.23147 0
M  V30 2204 C 196.324 -0.938895 -3.36134 0
M  V30 2205 C 197.672 -0.977829 -4.13187 0
M  V30 2206 O 198.696 -0.886015 -3.45005 0
M  V30 2207 O 197.555 -1.11453 -5.35015 0
M  V30 2208 H 194.649 -0.133699 -0.816121 0
M  V30 2209 H 197.195 -0.981011 -1.38471 0
M  V30 2210 H 195.967 -1.98281 -3.37343 0
M  V30 2211 H 195.59 -0.37074 -3.95868 0
M  V30 2212 N 196.587 1.43421 -0.653314 0
M  V30 2213 C 197.497 2.34568 0.0388565 0
M  V30 2214 C 198.513 1.53888 0.81207 0
M  V30 2215 O 199.689 1.86539 0.759294 0
M  V30 2216 C 196.754 3.32167 0.993269 0
M  V30 2217 C 195.815 4.28751 0.216977 0
M  V30 2218 C 195.048 5.21688 1.12593 0
M  V30 2219 O 195.271 5.19052 2.36519 0
M  V30 2220 O 194.205 5.98919 0.598284 0
M  V30 2221 H 198.031 2.95251 -0.711386 0
M  V30 2222 H 195.616 1.43564 -0.413502 0
M  V30 2223 H 197.498 3.92183 1.54176 0
M  V30 2224 H 196.173 2.73987 1.72374 0
M  V30 2225 H 195.08 3.72215 -0.375101 0
M  V30 2226 H 196.413 4.89913 -0.473924 0
M  V30 2227 N 198.065 0.39524 1.52563 0
M  V30 2228 C 199.481 0.0454682 1.59535 0
M  V30 2229 C 199.681 -1.44056 1.4089 0
M  V30 2230 O 198.737 -2.20579 1.22888 0
M  V30 2231 C 200.05 0.527963 2.96029 0
M  V30 2232 C 201.598 0.484733 3.09224 0
M  V30 2233 C 202.073 0.943512 4.48176 0
M  V30 2234 N 203.564 0.899765 4.54377 0
M  V30 2235 C 204.299 1.22609 5.60138 0
M  V30 2236 N 203.795 1.62319 6.73516 0
M  V30 2237 N 205.588 1.14696 5.50274 0
M  V30 2238 H 197.739 1.36261 1.62931 0
M  V30 2239 H 200.002 0.558887 0.765735 0
M  V30 2240 H 199.708 1.56607 3.14908 0
M  V30 2241 H 199.582 -0.0698056 3.77135 0
M  V30 2242 H 201.969 -0.544298 2.90037 0
M  V30 2243 H 202.05 1.11838 2.30056 0
M  V30 2244 H 201.694 1.9708 4.68104 0
M  V30 2245 H 201.624 0.286817 5.25818 0
M  V30 2246 H 204.115 0.607632 3.72983 0
M  V30 2247 H 204.428 1.85567 7.5019 0
M  V30 2248 H 202.773 1.66211 6.74833 0
M  V30 2249 H 205.964 0.835701 4.6058 0
M  V30 2250 H 206.137 1.40459 6.32594 0
M  V30 2251 N 199.544 -1.57102 0.125237 0
M  V30 2252 C 200.769 -2.0019 -0.542101 0
M  V30 2253 C 201.194 -1.00449 -1.59034 0
M  V30 2254 O 200.552 0.0229423 -1.81285 0
M  V30 2255 C 200.6 -3.42129 -1.13929 0
M  V30 2256 O 199.704 -3.45307 -2.2547 0
M  V30 2257 H 199.045 -0.650171 -0.134812 0
M  V30 2258 H 201.575 -2.03461 0.215553 0
M  V30 2259 H 201.585 -3.80471 -1.4733 0
M  V30 2260 H 200.26 -4.14237 -0.371531 0
M  V30 2261 H 198.837 -3.1879 -1.93462 0
M  V30 2262 N 201.022 0.148545 -1.56898 0
M  V30 2263 C 202.247 0.880385 -1.87787 0
M  V30 2264 C 202.672 1.74018 -0.714093 0
M  V30 2265 O 202.03 1.78153 0.336343 0
M  V30 2266 C 202.078 1.71422 -3.17249 0
M  V30 2267 O 201.182 2.8183 -3.01074 0
M  V30 2268 H 200.523 0.245301 -0.617028 0
M  V30 2269 H 203.053 0.139826 -2.04122 0
M  V30 2270 H 203.063 2.10954 -3.49231 0
M  V30 2271 H 201.738 1.08284 -4.01556 0
M  V30 2272 H 200.315 2.45715 -2.80497 0
M  V30 2273 N 202.5 1.5196 0.417844 0
M  V30 2274 C 203.432 1.70895 1.52733 0
M  V30 2275 C 204.445 0.589405 1.51756 0
M  V30 2276 O 205.634 0.864312 1.56179 0
M  V30 2277 C 202.734 1.72627 2.91639 0
M  V30 2278 C 201.907 3.01479 3.16905 0
M  V30 2279 C 200.966 2.95139 4.35637 0
M  V30 2280 O 199.992 3.69059 4.3334 0
M  V30 2281 N 201.194 2.12328 5.40275 0
M  V30 2282 H 203.959 2.66612 1.36888 0
M  V30 2283 H 201.52 1.50089 0.607037 0
M  V30 2284 H 203.512 1.65928 3.6912 0
M  V30 2285 H 202.082 0.844216 3.00985 0
M  V30 2286 H 201.302 3.21895 2.27546 0
M  V30 2287 H 202.59 3.86736 3.30625 0
M  V30 2288 H 201.988 1.51685 5.44985 0
M  V30 2289 H 200.545 2.11494 6.16534 0
M  V30 2290 N 203.978 -0.674533 1.42435 0
M  V30 2291 C 204.925 -1.78807 1.45934 0
M  V30 2292 C 205.895 -1.63157 0.311271 0
M  V30 2293 O 207.08 -1.83707 0.515383 0
M  V30 2294 C 204.22 -3.16839 1.36773 0
M  V30 2295 C 203.333 -3.43774 2.61617 0
M  V30 2296 C 202.468 -4.71536 2.44597 0
M  V30 2297 C 201.507 -4.91505 3.64814 0
M  V30 2298 N 200.644 -6.10508 3.46734 0
M  V30 2299 H 205.484 -1.75151 2.41093 0
M  V30 2300 H 203.021 -0.85504 1.19697 0
M  V30 2301 H 204.979 -3.96606 1.29459 0
M  V30 2302 H 203.609 -3.19619 0.452089 0
M  V30 2303 H 202.661 -2.58259 2.79297 0
M  V30 2304 H 203.973 -3.54423 3.50978 0
M  V30 2305 H 203.127 -5.59393 2.3487 0
M  V30 2306 H 201.866 -4.6317 1.52726 0
M  V30 2307 H 200.871 -4.0209 3.74972 0
M  V30 2308 H 202.096 -5.01716 4.57665 0
M  V30 2309 H 200.042 -6.03315 2.5758 0
M  V30 2310 H 199.959 -6.2202 4.29682 0
M  V30 2311 H 201.227 -7.01044 3.40819 0
M  V30 2312 N 205.456 -1.28612 -0.910864 0
M  V30 2313 C 206.386 -1.15326 -2.03032 0
M  V30 2314 C 207.367 -0.0502924 -1.70026 0
M  V30 2315 O 208.552 -0.227797 -1.92859 0
M  V30 2316 C 205.682 -0.817343 -3.37545 0
M  V30 2317 C 204.636 -1.8754 -3.84724 0
M  V30 2318 C 203.962 -1.39305 -5.16235 0
M  V30 2319 C 205.262 -3.28244 -4.06267 0
M  V30 2320 H 206.956 -2.08975 -2.14406 0
M  V30 2321 H 204.502 -1.00612 -1.03021 0
M  V30 2322 H 206.455 -0.711151 -4.15356 0
M  V30 2323 H 205.179 0.154846 -3.26233 0
M  V30 2324 H 203.838 -1.97079 -3.09121 0
M  V30 2325 H 203.486 -0.409846 -5.01328 0
M  V30 2326 H 203.186 -2.10057 -5.48771 0
M  V30 2327 H 204.71 -1.30014 -5.96598 0
M  V30 2328 H 206.124 -3.21611 -4.74594 0
M  V30 2329 H 204.521 -3.96855 -4.5014 0
M  V30 2330 H 205.591 -3.72048 -3.10979 0
M  V30 2331 N 206.934 1.1197 -1.10907 0
M  V30 2332 C 207.884 2.15946 -0.731538 0
M  V30 2333 C 208.868 1.58758 0.261699 0
M  V30 2334 O 210.06 1.76863 0.0696722 0
M  V30 2335 C 207.189 3.42877 -0.170299 0
M  V30 2336 C 206.275 4.07037 -1.19087 0
M  V30 2337 N 206.666 4.46135 -2.38322 0
M  V30 2338 C 204.964 4.33884 -1.03252 0
M  V30 2339 C 205.665 4.96331 -3.03366 0
M  V30 2340 N 204.641 4.9214 -2.30865 0
M  V30 2341 H 208.443 2.43947 -1.63912 0
M  V30 2342 H 205.957 1.28927 -0.987505 0
M  V30 2343 H 207.954 4.16732 0.118271 0
M  V30 2344 H 206.614 3.16343 0.731935 0
M  V30 2345 H 207.625 4.38345 -2.75815 0
M  V30 2346 H 204.302 4.17084 -0.186256 0
M  V30 2347 H 205.692 5.36257 -4.04818 0
M  V30 2348 N 208.412 0.89855 1.29475 0
M  V30 2349 C 209.637 0.538561 2.00285 0
M  V30 2350 C 210.062 -0.869135 1.66816 0
M  V30 2351 O 209.42 -1.57831 0.892145 0
M  V30 2352 C 209.468 0.736475 3.52999 0
M  V30 2353 O 208.572 -0.211537 4.11857 0
M  V30 2354 H 207.913 0.210563 0.62973 0
M  V30 2355 H 210.443 1.20982 1.64998 0
M  V30 2356 H 210.453 0.640685 4.02938 0
M  V30 2357 H 209.128 1.76276 3.76696 0
M  V30 2358 H 207.705 -0.0682991 3.72837 0
M  V30 2359 N 209.89 -1.43072 0.660911 0
M  V30 2360 C 211.118 -2.06067 0.185422 0
M  V30 2361 C 211.533 -1.49582 -1.15198 0
M  V30 2362 O 210.89 -0.630134 -1.71276 0
M  V30 2363 C 210.941 -3.61371 0.0966523 0
M  V30 2364 O 210.662 -4.15758 1.38119 0
M  V30 2365 C 212.163 -4.41455 -0.403996 0
M  V30 2366 H 209.383 -0.664459 0.0934604 0
M  V30 2367 H 211.927 -1.83447 0.90373 0
M  V30 2368 H 210.082 -3.8315 -0.572259 0
M  V30 2369 H 210.496 -5.09499 1.24542 0
M  V30 2370 H 211.97 -5.50437 -0.415045 0
M  V30 2371 H 212.447 -4.15036 -1.43674 0
M  V30 2372 H 213.053 -4.24663 0.232691 0
M  V30 2373 N 211.368 -0.403325 -1.52352 0
M  V30 2374 C 212.593 0.176499 -2.06648 0
M  V30 2375 C 213.018 1.38577 -1.27193 0
M  V30 2376 O 212.376 1.7879 -0.300637 0
M  V30 2377 C 212.424 0.511061 -3.5696 0
M  V30 2378 O 211.528 1.60294 -3.79973 0
M  V30 2379 H 210.869 0.0167337 -0.663789 0
M  V30 2380 H 213.399 -0.574848 -1.96359 0
M  V30 2381 H 213.409 0.771362 -4.00642 0
M  V30 2382 H 212.084 -0.37296 -4.14224 0
M  V30 2383 H 210.661 1.33526 -3.48174 0
M  V30 2384 N 212.846 1.57033 -0.133567 0
M  V30 2385 C 213.778 2.13176 0.841944 0
M  V30 2386 C 214.791 1.07794 1.22001 0
M  V30 2387 O 215.98 1.35117 1.16643 0
M  V30 2388 C 213.08 2.62847 2.13926 0
M  V30 2389 C 212.253 3.92486 1.93064 0
M  V30 2390 C 211.312 4.27605 3.0666 0
M  V30 2391 O 210.338 4.96168 2.78937 0
M  V30 2392 N 211.54 3.861 4.33483 0
M  V30 2393 H 214.305 2.97503 0.362192 0
M  V30 2394 H 211.866 1.61821 0.05042 0
M  V30 2395 H 213.858 2.83363 2.88942 0
M  V30 2396 H 212.428 1.83319 2.53205 0
M  V30 2397 H 211.648 3.80732 1.02159 0
M  V30 2398 H 212.936 4.77225 1.76447 0
M  V30 2399 H 212.334 3.30828 4.58878 0
M  V30 2400 H 210.891 4.11694 5.05323 0
M  V30 2401 N 214.325 -0.140222 1.56975 0
M  V30 2402 C 215.273 -1.19207 1.99731 0
M  V30 2403 C 216.267 -1.44089 0.890777 0
M  V30 2404 O 217.473 -1.44301 1.07597 0
M  V30 2405 H 213.848 -0.40142 0.635898 0
M  V30 2406 H 215.819 -0.804813 2.87342 0
M  V30 2407 C 214.568 -2.51617 2.39967 0
M  V30 2408 H 213.891 -2.33303 3.24669 0
M  V30 2409 H 215.331 -3.23827 2.73701 0
M  V30 2410 C 213.79 -3.12654 1.25496 0
M  V30 2411 O 214.32 -3.97786 0.559371 0
M  V30 2412 N 212.526 -2.72206 1.01746 0
M  V30 2413 H 212.073 -2.03074 1.58489 0
M  V30 2414 H 212.031 -3.13377 0.253461 0
M  V30 2415 N 215.803 -1.52179 -0.40978 0
M  V30 2416 C 217.052 -1.65434 -1.15388 0
M  V30 2417 C 217.365 -0.390056 -1.91671 0
M  V30 2418 O 218.571 -0.402399 -2.68501 0
M  V30 2419 C 217.027 -2.92279 -2.10003 0
M  V30 2420 C 216.635 -4.25813 -1.39239 0
M  V30 2421 C 218.379 -3.14897 -2.84675 0
M  V30 2422 C 216.286 -5.43782 -2.32498 0
M  V30 2423 H 215.216 -0.616267 -0.434432 0
M  V30 2424 H 217.867 -1.78666 -0.418401 0
M  V30 2425 H 216.249 -2.72744 -2.871 0
M  V30 2426 H 217.423 -4.55828 -0.675099 0
M  V30 2427 H 215.738 -4.09292 -0.766097 0
M  V30 2428 H 218.335 -4.0021 -3.54593 0
M  V30 2429 H 218.678 -2.29103 -3.47588 0
M  V30 2430 H 219.211 -3.34901 -2.14677 0
M  V30 2431 H 215.95 -6.3192 -1.74233 0
M  V30 2432 H 215.47 -5.18106 -3.02201 0
M  V30 2433 H 217.149 -5.76834 -2.93038 0
M  V30 2434 N 217.281 0.66697 -1.42791 0
M  V30 2435 C 218.229 1.80157 -1.47127 0
M  V30 2436 C 219.223 1.65825 -0.346199 0
M  V30 2437 O 220.429 1.72338 -0.519572 0
M  V30 2438 H 216.804 0.594158 -0.460956 0
M  V30 2439 H 218.775 1.73619 -2.42692 0
M  V30 2440 C 217.524 3.18351 -1.39813 0
M  V30 2441 H 216.847 3.3001 -2.25684 0
M  V30 2442 H 218.287 3.97736 -1.46908 0
M  V30 2443 C 216.746 3.36707 -0.11391 0
M  V30 2444 O 217.276 3.93027 0.830241 0
M  V30 2445 N 215.482 2.90586 -0.0285295 0
M  V30 2446 H 215.029 2.4494 -0.79764 0
M  V30 2447 H 214.987 3.03245 0.830063 0
M  V30 2448 N 218.759 1.29093 0.90403 0
M  V30 2449 C 219.689 1.16401 2.02418 0
M  V30 2450 C 220.67 0.0593085 1.69997 0
M  V30 2451 O 221.855 0.238021 1.92736 0
M  V30 2452 C 218.985 0.835233 3.37107 0
M  V30 2453 C 217.939 1.89578 3.83724 0
M  V30 2454 C 217.265 1.42041 5.15489 0
M  V30 2455 C 218.565 3.30394 4.04521 0
M  V30 2456 H 220.259 2.10109 2.13295 0
M  V30 2457 H 217.805 1.01157 1.02486 0
M  V30 2458 H 219.758 0.733169 4.14973 0
M  V30 2459 H 218.482 -0.137543 3.2631 0
M  V30 2460 H 217.141 1.98715 3.08071 0
M  V30 2461 H 216.789 0.436426 5.01103 0
M  V30 2462 H 216.489 2.12964 5.4765 0
M  V30 2463 H 218.013 1.33176 5.959 0
M  V30 2464 H 219.427 3.24123 4.72882 0
M  V30 2465 H 217.824 3.99237 4.48029 0
M  V30 2466 H 218.894 3.73692 3.09002 0
M  V30 2467 N 220.237 -1.11381 1.11499 0
M  V30 2468 C 221.485 -1.8277 0.862524 0
M  V30 2469 C 221.806 -1.85097 -0.613534 0
M  V30 2470 O 221.076 -1.32198 -1.4457 0
M  V30 2471 H 219.656 -0.676823 0.316101 0
M  V30 2472 H 222.318 -1.34816 1.4075 0
M  V30 2473 H 221.414 -2.86614 1.23527 0
M  V30 2474 N 221.715 -0.905404 -1.28997 0
M  V30 2475 C 223.126 -0.581953 -1.77398 0
M  V30 2476 C 223.477 0.902552 -1.74208 0
M  V30 2477 O 222.602 1.70584 -1.33154 0
M  V30 2478 C 223.197 -1.04961 -3.22131 0
M  V30 2479 C 221.756 -0.777229 -3.68288 0
M  V30 2480 C 220.903 -1.22109 -2.48967 0
M  V30 2481 H 223.854 -1.08754 -1.15578 0
M  V30 2482 H 223.875 -0.387387 -3.78523 0
M  V30 2483 H 223.387 -2.13008 -3.24421 0
M  V30 2484 H 221.488 0.290383 -3.71467 0
M  V30 2485 H 221.601 -1.37911 -4.58822 0
M  V30 2486 H 219.965 -0.639971 -2.46529 0
M  V30 2487 H 220.748 -2.30972 -2.53982 0
M  V30 2488 N 223.193 1.4272 -0.668489 0
M  V30 2489 C 224.418 2.06484 -0.194758 0
M  V30 2490 C 224.843 1.49862 1.13679 0
M  V30 2491 O 224.201 0.614582 1.70565 0
M  V30 2492 C 224.249 3.60353 -0.133546 0
M  V30 2493 O 223.353 4.02464 0.899806 0
M  V30 2494 H 222.694 0.656137 -0.10188 0
M  V30 2495 H 225.224 1.82964 -0.915722 0
M  V30 2496 H 225.234 4.07976 0.0447041 0
M  V30 2497 H 223.909 4.00938 -1.1055 0
M  V30 2498 H 222.486 3.66402 0.693109 0
M  V30 2499 N 224.671 0.411399 1.52136 0
M  V30 2500 C 225.919 -0.163322 2.01439 0
M  V30 2501 C 226.24 -1.45453 1.29879 0
M  V30 2502 O 225.51 -1.91225 0.4254 0
M  V30 2503 H 224.09 -0.0633447 0.744309 0
M  V30 2504 H 226.752 0.548161 1.87033 0
M  V30 2505 H 225.848 -0.357817 3.10042 0
M  V30 2506 N 226.149 -1.5696 0.141893 0
M  V30 2507 C 227.097 -2.17784 -0.816874 0
M  V30 2508 C 228.091 -1.1334 -1.25899 0
M  V30 2509 O 229.297 -1.316 -1.22806 0
M  V30 2510 H 225.672 -0.697278 -0.281615 0
M  V30 2511 H 227.643 -2.97087 -0.279621 0
M  V30 2512 C 226.392 -2.80983 -2.04802 0
M  V30 2513 H 225.715 -3.61062 -1.7168 0
M  V30 2514 H 227.155 -3.2705 -2.69841 0
M  V30 2515 C 225.614 -1.79228 -2.8527 0
M  V30 2516 O 226.144 -1.25962 -3.8144 0
M  V30 2517 N 224.35 -1.48647 -2.49704 0
M  V30 2518 H 223.897 -1.92155 -1.71564 0
M  V30 2519 H 223.855 -0.808115 -3.03837 0
M  V30 2520 N 227.627 0.131896 -1.57047 0
M  V30 2521 C 229.038 0.690407 -1.73465 0
M  V30 2522 C 229.389 1.8094 -0.758629 0
M  V30 2523 O 228.514 2.16282 0.0713813 0
M  V30 2524 C 229.109 1.25916 -3.14532 0
M  V30 2525 C 227.668 1.76409 -3.32501 0
M  V30 2526 C 226.815 0.658579 -2.69366 0
M  V30 2527 H 229.766 -0.0939144 -1.58422 0
M  V30 2528 H 229.787 2.12892 -3.15369 0
M  V30 2529 H 229.299 0.444515 -3.85546 0
M  V30 2530 H 227.4 2.60391 -2.66509 0
M  V30 2531 H 227.513 1.88241 -4.4057 0
M  V30 2532 H 225.877 1.08899 -2.30246 0
M  V30 2533 H 226.66 -0.14487 -3.42994 0
M  V30 2534 N 229.106 1.52395 0.401703 0
M  V30 2535 C 230.056 1.72649 1.48917 0
M  V30 2536 C 231.04 0.580436 1.50066 0
M  V30 2537 O 232.232 0.83779 1.55917 0
M  V30 2538 C 229.361 1.88729 2.86769 0
M  V30 2539 C 228.447 3.09228 2.90239 0
M  V30 2540 N 228.838 4.31805 2.63396 0
M  V30 2541 C 227.136 3.09214 3.21408 0
M  V30 2542 C 227.837 5.13326 2.73625 0
M  V30 2543 N 226.813 4.48735 3.06819 0
M  V30 2544 H 230.615 2.65058 1.26971 0
M  V30 2545 H 228.129 1.50528 0.609504 0
M  V30 2546 H 230.126 2.01358 3.65049 0
M  V30 2547 H 228.786 0.975252 3.09708 0
M  V30 2548 H 229.797 4.60154 2.37653 0
M  V30 2549 H 226.474 2.27774 3.49893 0
M  V30 2550 H 227.864 6.21003 2.56524 0
M  V30 2551 N 230.584 -0.659388 1.43143 0
M  V30 2552 C 231.547 -1.75432 1.47501 0
M  V30 2553 C 232.547 -1.56707 0.360512 0
M  V30 2554 O 233.737 -1.62717 0.622002 0
M  V30 2555 C 230.869 -3.14239 1.32162 0
M  V30 2556 H 232.062 -1.7295 2.45006 0
M  V30 2557 H 229.615 -0.870469 1.29817 0
M  V30 2558 H 230.35 -3.22336 0.356401 0
M  V30 2559 H 230.135 -3.29235 2.12948 0
M  V30 2560 H 231.625 -3.94094 1.3813 0
M  V30 2561 N 232.062 -1.29571 -0.897171 0
M  V30 2562 C 233.009 -1.14916 -2.00158 0
M  V30 2563 C 233.979 -0.0418149 -1.66047 0
M  V30 2564 O 235.164 -0.209793 -1.89643 0
M  V30 2565 C 232.304 -0.834307 -3.34863 0
M  V30 2566 C 231.417 -2.02234 -3.8174 0
M  V30 2567 C 230.552 -1.64664 -5.05034 0
M  V30 2568 C 229.591 -2.80033 -5.44286 0
M  V30 2569 N 228.728 -2.42843 -6.58765 0
M  V30 2570 H 233.568 -2.09403 -2.12025 0
M  V30 2571 H 231.105 -1.042 -1.0383 0
M  V30 2572 H 233.063 -0.632436 -4.12379 0
M  V30 2573 H 231.693 0.0736656 -3.22716 0
M  V30 2574 H 230.745 -2.33583 -3.00238 0
M  V30 2575 H 232.057 -2.88673 -4.06779 0
M  V30 2576 H 231.211 -1.4078 -5.9014 0
M  V30 2577 H 229.95 -0.753766 -4.8184 0
M  V30 2578 H 228.955 -3.04596 -4.57713 0
M  V30 2579 H 230.18 -3.69989 -5.6946 0
M  V30 2580 H 228.126 -1.56046 -6.3717 0
M  V30 2581 H 228.043 -3.22815 -6.83613 0
M  V30 2582 H 229.311 -2.22285 -7.47134 0
M  V30 2583 N 233.54 1.10788 -1.12088 0
M  V30 2584 C 234.951 1.64181 -0.88891 0
M  V30 2585 C 235.302 1.87508 0.577498 0
M  V30 2586 O 234.427 1.61434 1.44112 0
M  V30 2587 C 235.022 2.98257 -1.60712 0
M  V30 2588 C 233.581 3.4853 -1.42139 0
M  V30 2589 C 232.728 2.23208 -1.6454 0
M  V30 2590 H 235.679 0.943368 -1.27618 0
M  V30 2591 H 235.7 3.65552 -1.05604 0
M  V30 2592 H 235.212 2.81246 -2.67436 0
M  V30 2593 H 233.313 3.70692 -0.376552 0
M  V30 2594 H 233.426 4.26882 -2.17505 0
M  V30 2595 H 231.79 2.31169 -1.06925 0
M  V30 2596 H 232.573 2.08733 -2.72554 0
M  V30 2597 N 235.018 0.912232 1.28515 0
M  V30 2598 C 236.246 0.560416 1.99166 0
M  V30 2599 C 236.661 -0.857927 1.68182 0
M  V30 2600 O 236.018 -1.56805 0.933733 0
M  V30 2601 C 236.069 0.758142 3.53461 0
M  V30 2602 O 235.79 2.12067 3.83352 0
M  V30 2603 C 237.291 0.412954 4.41372 0
M  V30 2604 H 234.511 0.213805 0.636026 0
M  V30 2605 H 237.055 1.22502 1.63749 0
M  V30 2606 H 235.21 0.140556 3.87145 0
M  V30 2607 H 235.624 2.15923 4.77993 0
M  V30 2608 H 237.098 0.60208 5.48707 0
M  V30 2609 H 237.575 -0.65073 4.34353 0
M  V30 2610 H 238.181 1.00802 4.13182 0
M  V30 2611 N 236.496 -1.42363 0.676048 0
M  V30 2612 C 237.773 -1.95183 0.127726 0
M  V30 2613 C 238.153 -1.61641 -1.35777 0
M  V30 2614 O 237.501 -0.913216 -2.09458 0
M  V30 2615 C 237.711 -3.46721 0.398199 0
M  V30 2616 C 239.059 -4.23427 0.315383 0
M  V30 2617 O 240.083 -3.54649 0.332016 0
M  V30 2618 O 238.942 -5.45888 0.25865 0
M  V30 2619 H 236.036 -0.826992 0.00359427 0
M  V30 2620 H 238.582 -1.52184 0.750864 0
M  V30 2621 H 237.354 -3.64344 1.4272 0
M  V30 2622 H 236.977 -3.96769 -0.256885 0
M  V30 2623 N 237.974 -0.419461 -1.51915 0
M  V30 2624 C 239.221 0.152939 -2.01922 0
M  V30 2625 C 239.549 1.4426 -1.30458 0
M  V30 2626 O 238.804 1.91514 -0.402593 0
M  V30 2627 C 239.103 0.437067 -3.54717 0
M  V30 2628 C 238.769 -0.764632 -4.44369 0
M  V30 2629 C 237.431 -1.09423 -4.68594 0
M  V30 2630 C 239.783 -1.56713 -4.97082 0
M  V30 2631 C 237.111 -2.22732 -5.42777 0
M  V30 2632 C 239.463 -2.69107 -5.72507 0
M  V30 2633 C 238.127 -3.02541 -5.95 0
M  V30 2634 H 237.397 0.0559644 -0.738884 0
M  V30 2635 H 240.044 -0.562998 -1.83037 0
M  V30 2636 H 238.349 1.23469 -3.71837 0
M  V30 2637 H 240.046 0.893083 -3.90928 0
M  V30 2638 H 236.636 -0.497775 -4.257 0
M  V30 2639 H 240.82 -1.32571 -4.78266 0
M  V30 2640 H 236.076 -2.48971 -5.58411 0
M  V30 2641 H 240.25 -3.31671 -6.12346 0
M  V30 2642 H 237.877 -3.90457 -6.52264 0
M  V30 2643 N 239.452 1.56882 -0.150215 0
M  V30 2644 C 240.729 1.87844 0.545327 0
M  V30 2645 C 241.109 1.0567 1.82749 0
M  V30 2646 O 240.457 0.144442 2.28043 0
M  V30 2647 C 240.667 3.39526 0.80767 0
M  V30 2648 C 242.015 4.08814 1.14703 0
M  V30 2649 O 243.039 3.44723 0.896917 0
M  V30 2650 O 241.898 5.22004 1.61784 0
M  V30 2651 H 238.992 0.778677 0.278553 0
M  V30 2652 H 241.538 1.68666 -0.187068 0
M  V30 2653 H 240.31 3.91173 -0.0996096 0
M  V30 2654 H 239.933 3.64243 1.59413 0
M  V30 2655 N 240.93 -0.123565 1.57115 0
M  V30 2656 C 242.177 -0.832153 1.84612 0
M  V30 2657 C 242.505 -1.80093 0.734627 0
M  V30 2658 O 241.76 -1.93766 -0.27442 0
M  V30 2659 C 242.059 -1.62016 3.18568 0
M  V30 2660 C 241.725 -0.796084 4.43817 0
M  V30 2661 C 240.387 -0.568816 4.77826 0
M  V30 2662 C 242.739 -0.221364 5.2073 0
M  V30 2663 C 240.067 0.243499 5.86194 0
M  V30 2664 C 242.419 0.578117 6.29953 0
M  V30 2665 C 241.083 0.815744 6.62497 0
M  V30 2666 H 240.353 -0.304507 0.675542 0
M  V30 2667 H 243 -0.0947248 1.91266 0
M  V30 2668 H 241.305 -2.42837 3.0747 0
M  V30 2669 H 243.002 -2.17231 3.37064 0
M  V30 2670 H 239.592 -0.983307 4.17168 0
M  V30 2671 H 243.776 -0.384173 4.94811 0
M  V30 2672 H 239.032 0.436871 6.09837 0
M  V30 2673 H 243.206 1.03046 6.88734 0
M  V30 2674 H 240.833 1.44701 7.46301 0
M  V30 2675 N 242.408 -1.52605 -0.393616 0
M  V30 2676 C 243.338 -1.80022 -1.48709 0
M  V30 2677 C 244.319 -0.651995 -1.57108 0
M  V30 2678 O 245.504 -0.89913 -1.72132 0
M  V30 2679 C 242.634 -1.96492 -2.86371 0
M  V30 2680 C 241.588 -3.12161 -2.92813 0
M  V30 2681 C 240.914 -3.13877 -4.3288 0
M  V30 2682 C 242.214 -4.51322 -2.6288 0
M  V30 2683 H 243.908 -2.71589 -1.26015 0
M  V30 2684 H 241.454 -1.30684 -0.604778 0
M  V30 2685 H 243.407 -2.14255 -3.62867 0
M  V30 2686 H 242.131 -1.01611 -3.10391 0
M  V30 2687 H 240.79 -2.94173 -2.18764 0
M  V30 2688 H 240.438 -2.16687 -4.53933 0
M  V30 2689 H 240.138 -3.91576 -4.38112 0
M  V30 2690 H 241.662 -3.33789 -5.1129 0
M  V30 2691 H 243.076 -4.69435 -3.29096 0
M  V30 2692 H 241.473 -5.31053 -2.79468 0
M  V30 2693 H 242.543 -4.58353 -1.58242 0
M  V30 2694 N 243.887 0.651787 -1.4349 0
M  V30 2695 C 244.834 1.76462 -1.4876 0
M  V30 2696 C 245.804 1.62641 -0.337189 0
M  V30 2697 O 246.989 1.82864 -0.544544 0
M  V30 2698 C 244.129 3.14623 -1.41796 0
M  V30 2699 C 243.242 3.39568 -2.67053 0
M  V30 2700 C 242.377 4.67585 -2.52068 0
M  V30 2701 C 241.416 4.85639 -3.72587 0
M  V30 2702 N 240.553 6.04915 -3.56402 0
M  V30 2703 H 245.393 1.71293 -2.43849 0
M  V30 2704 H 242.93 0.835889 -1.21043 0
M  V30 2705 H 244.888 3.94496 -1.35753 0
M  V30 2706 H 243.518 3.18859 -0.50288 0
M  V30 2707 H 242.57 2.53783 -2.8337 0
M  V30 2708 H 243.882 3.48795 -3.56572 0
M  V30 2709 H 243.036 5.55586 -2.4374 0
M  V30 2710 H 241.775 4.60681 -1.60075 0
M  V30 2711 H 240.78 3.96073 -3.81321 0
M  V30 2712 H 242.005 4.94372 -4.65589 0
M  V30 2713 H 239.951 5.9914 -2.67146 0
M  V30 2714 H 239.868 6.15106 -4.39524 0
M  V30 2715 H 241.136 6.95533 -3.51929 0
M  V30 2716 N 245.365 1.30045 0.890287 0
M  V30 2717 C 246.611 1.18737 1.64406 0
M  V30 2718 C 246.944 -0.258525 1.92472 0
M  V30 2719 O 246.219 -1.18562 1.54186 0
M  V30 2720 C 246.502 2.01087 2.98724 0
M  V30 2721 C 246.355 3.53867 2.77665 0
M  V30 2722 C 247.674 1.84457 3.9958 0
M  V30 2723 H 244.793 0.432698 0.596608 0
M  V30 2724 H 247.435 1.5962 1.0306 0
M  V30 2725 H 245.585 1.66349 3.51084 0
M  V30 2726 H 247.257 3.98637 2.32133 0
M  V30 2727 H 245.5 3.78318 2.12269 0
M  V30 2728 H 246.171 4.06772 3.7315 0
M  V30 2729 H 248.647 2.14817 3.56361 0
M  V30 2730 H 247.523 2.44411 4.91482 0
M  V30 2731 H 247.784 0.802276 4.3476 0
M  V30 2732 N 246.843 -1.10192 1.12674 0
M  V30 2733 C 248.092 -1.81573 0.8783 0
M  V30 2734 C 248.405 -1.86249 -0.597557 0
M  V30 2735 O 249.611 -2.5386 -0.962681 0
M  V30 2736 C 248.067 -3.26149 1.52167 0
M  V30 2737 C 247.675 -3.29763 3.03249 0
M  V30 2738 C 249.419 -4.0234 1.3536 0
M  V30 2739 C 247.326 -4.68815 3.60508 0
M  V30 2740 H 246.256 -0.680394 0.324931 0
M  V30 2741 H 248.907 -1.23902 1.35353 0
M  V30 2742 H 247.289 -3.83832 0.974104 0
M  V30 2743 H 248.463 -2.8189 3.6452 0
M  V30 2744 H 246.778 -2.67059 3.19481 0
M  V30 2745 H 249.375 -5.05058 1.75559 0
M  V30 2746 H 249.718 -4.15235 0.297554 0
M  V30 2747 H 250.251 -3.51079 1.87052 0
M  V30 2748 H 246.99 -4.61121 4.65884 0
M  V30 2749 H 246.51 -5.17045 3.04014 0
M  V30 2750 H 248.189 -5.37785 3.59717 0
M  V30 2751 N 248.321 -0.919034 -1.28029 0
M  V30 2752 C 249.569 -0.553838 -1.94363 0
M  V30 2753 C 249.89 0.906357 -1.72656 0
M  V30 2754 O 249.16 1.64143 -1.0693 0
M  V30 2755 H 247.74 -0.201834 -0.719216 0
M  V30 2756 H 250.402 -1.16954 -1.55909 0
M  V30 2757 H 249.498 -0.752758 -3.02886 0
M  V30 2758 N 249.799 1.42003 -0.683588 0
M  V30 2759 C 250.746 2.30798 -0.0107309 0
M  V30 2760 C 251.716 1.4645 0.783688 0
M  V30 2761 O 252.901 1.75263 0.754156 0
M  V30 2762 C 250.041 3.3238 0.928306 0
M  V30 2763 C 249.154 4.31814 0.126776 0
M  V30 2764 C 248.289 5.20468 1.06236 0
M  V30 2765 C 247.328 6.11577 0.253035 0
M  V30 2766 N 246.465 6.92754 1.14179 0
M  V30 2767 H 251.305 2.8778 -0.773727 0
M  V30 2768 H 248.842 1.41745 -0.393283 0
M  V30 2769 H 250.8 3.89813 1.48666 0
M  V30 2770 H 249.43 2.76976 1.65783 0
M  V30 2771 H 248.482 3.76427 -0.54833 0
M  V30 2772 H 249.794 4.96276 -0.501192 0
M  V30 2773 H 248.948 5.82677 1.69035 0
M  V30 2774 H 247.687 4.56204 1.7242 0
M  V30 2775 H 246.692 5.48428 -0.388108 0
M  V30 2776 H 247.917 6.77892 -0.404839 0
M  V30 2777 H 245.863 6.3111 1.78987 0
M  V30 2778 H 245.78 7.53855 0.569111 0
M  V30 2779 H 247.048 7.59441 1.75697 0
M  V30 2780 N 251.277 0.427512 1.51691 0
M  V30 2781 C 252.525 -0.141948 2.01601 0
M  V30 2782 C 252.846 -1.44067 1.31414 0
M  V30 2783 O 252.116 -1.90763 0.445658 0
M  V30 2784 H 250.696 -0.0554468 0.744939 0
M  V30 2785 H 253.358 0.567968 1.86441 0
M  V30 2786 H 252.454 -0.324913 3.10404 0
M  V30 2787 N 252.755 -1.56801 0.158532 0
M  V30 2788 C 253.98 -2.01295 -0.499516 0
M  V30 2789 C 254.405 -1.03799 -1.56867 0
M  V30 2790 O 253.763 -0.0155162 -1.81293 0
M  V30 2791 C 253.811 -3.44469 -1.06647 0
M  V30 2792 O 252.915 -3.50012 -2.18095 0
M  V30 2793 H 252.256 -0.652884 -0.12099 0
M  V30 2794 H 254.786 -2.02958 0.258661 0
M  V30 2795 H 254.796 -3.8351 -1.39227 0
M  V30 2796 H 253.471 -4.14932 -0.283581 0
M  V30 2797 H 252.048 -3.22822 -1.86656 0
M  V30 2798 N 254.233 0.115231 -1.57178 0
M  V30 2799 C 255.48 0.822351 -1.8505 0
M  V30 2800 C 255.808 1.79701 -0.744168 0
M  V30 2801 O 255.063 1.93909 0.26414 0
M  V30 2802 C 255.362 1.60324 -3.19423 0
M  V30 2803 C 255.028 0.772536 -4.44233 0
M  V30 2804 C 253.69 0.543468 -4.78121 0
M  V30 2805 C 256.042 0.193746 -5.2084 0
M  V30 2806 C 253.37 -0.274583 -5.86057 0
M  V30 2807 C 255.722 -0.611517 -6.29637 0
M  V30 2808 C 254.386 -0.850867 -6.62055 0
M  V30 2809 H 253.656 0.30092 -0.677147 0
M  V30 2810 H 256.303 0.0845802 -1.91313 0
M  V30 2811 H 254.608 2.41203 -3.08753 0
M  V30 2812 H 256.305 2.1544 -3.38211 0
M  V30 2813 H 252.895 0.96117 -4.17683 0
M  V30 2814 H 257.079 0.357926 -4.95008 0
M  V30 2815 H 252.335 -0.469206 -6.09597 0
M  V30 2816 H 256.509 -1.06697 -6.88178 0
M  V30 2817 H 254.136 -1.48657 -7.45523 0
M  V30 2818 N 255.711 1.52812 0.385517 0
M  V30 2819 C 256.959 1.67694 1.12797 0
M  V30 2820 C 257.28 0.421115 1.90399 0
M  V30 2821 O 256.55 -0.564551 1.87589 0
M  V30 2822 H 255.13 0.618155 0.419396 0
M  V30 2823 H 257.792 1.89938 0.436972 0
M  V30 2824 H 256.888 2.52896 1.82894 0
M  V30 2825 N 257.189 -0.644168 1.43834 0
M  V30 2826 C 258.136 -1.75671 1.49694 0
M  V30 2827 C 259.106 -1.6246 0.345809 0
M  V30 2828 O 260.291 -1.82573 0.554234 0
M  V30 2829 C 257.431 -3.13867 1.43463 0
M  V30 2830 C 256.544 -3.38147 2.6885 0
M  V30 2831 C 255.679 -4.66241 2.54544 0
M  V30 2832 C 254.718 -4.83657 3.75157 0
M  V30 2833 N 253.855 -6.03016 3.59605 0
M  V30 2834 H 258.695 -1.69998 2.44754 0
M  V30 2835 H 256.232 -0.829458 1.21484 0
M  V30 2836 H 258.19 -3.9377 1.37843 0
M  V30 2837 H 256.82 -3.18588 0.519783 0
M  V30 2838 H 255.872 -2.52276 2.84712 0
M  V30 2839 H 257.184 -3.46899 3.58417 0
M  V30 2840 H 256.338 -5.54285 2.46683 0
M  V30 2841 H 255.077 -4.59826 1.62516 0
M  V30 2842 H 254.082 -3.94046 3.83416 0
M  V30 2843 H 255.307 -4.91896 4.68204 0
M  V30 2844 H 253.253 -5.97715 2.7032 0
M  V30 2845 H 253.17 -6.12766 4.42779 0
M  V30 2846 H 254.438 -6.93657 3.55613 0
M  V30 2847 N 258.668 -1.30515 -0.883378 0
M  V30 2848 C 259.914 -1.19607 -1.63774 0
M  V30 2849 C 260.247 0.248314 -1.92606 0
M  V30 2850 O 259.522 1.17742 -1.54813 0
M  V30 2851 C 259.805 -2.02669 -2.97653 0
M  V30 2852 C 259.658 -3.55335 -2.75784 0
M  V30 2853 C 260.977 -1.86573 -3.98596 0
M  V30 2854 H 258.096 -0.435856 -0.594305 0
M  V30 2855 H 260.738 -1.60165 -1.02212 0
M  V30 2856 H 258.888 -1.68208 -3.50197 0
M  V30 2857 H 260.56 -3.99863 -2.30016 0
M  V30 2858 H 258.803 -3.79438 -2.1026 0
M  V30 2859 H 259.474 -4.08745 -3.70988 0
M  V30 2860 H 261.95 -2.16703 -3.55217 0
M  V30 2861 H 260.826 -2.47014 -4.90179 0
M  V30 2862 H 261.087 -0.825321 -4.34328 0
M  V30 2863 N 260.146 1.09593 -1.13257 0
M  V30 2864 C 261.076 2.18214 -0.830946 0
M  V30 2865 C 262.057 1.68812 0.208966 0
M  V30 2866 O 263.242 1.9408 0.0682666 0
M  V30 2867 C 260.372 3.46051 -0.294296 0
M  V30 2868 C 259.326 4.08778 -1.26826 0
M  V30 2869 C 258.652 5.31419 -0.591449 0
M  V30 2870 C 259.952 4.51476 -2.62615 0
M  V30 2871 H 261.646 2.43703 -1.73923 0
M  V30 2872 H 259.192 1.17128 -0.837675 0
M  V30 2873 H 261.145 4.2134 -0.0709606 0
M  V30 2874 H 259.869 3.20079 0.649366 0
M  V30 2875 H 258.528 3.35505 -1.47756 0
M  V30 2876 H 258.176 5.01727 0.357633 0
M  V30 2877 H 257.876 5.74341 -1.24123 0
M  V30 2878 H 259.4 6.09433 -0.377355 0
M  V30 2879 H 260.814 5.17999 -2.45663 0
M  V30 2880 H 259.211 5.05277 -3.23752 0
M  V30 2881 H 260.281 3.63962 -3.20406 0
M  V30 2882 N 261.624 0.925811 1.2754 0
M  V30 2883 C 262.554 0.440748 2.29303 0
M  V30 2884 C 263.535 -0.497971 1.62648 0
M  V30 2885 O 264.72 -0.403126 1.8997 0
M  V30 2886 C 261.85 -0.309048 3.45922 0
M  V30 2887 C 260.804 0.54166 4.24559 0
M  V30 2888 C 260.13 -0.337191 5.33636 0
M  V30 2889 C 261.43 1.80516 4.90114 0
M  V30 2890 H 263.124 1.29121 2.70126 0
M  V30 2891 H 260.67 0.622323 1.29858 0
M  V30 2892 H 262.623 -0.659315 4.1621 0
M  V30 2893 H 261.347 -1.19352 3.04011 0
M  V30 2894 H 260.006 0.874609 3.56014 0
M  V30 2895 H 259.654 -1.22056 4.87966 0
M  V30 2896 H 259.354 0.228497 5.87156 0
M  V30 2897 H 260.878 -0.683072 6.06767 0
M  V30 2898 H 262.292 1.52307 5.52698 0
M  V30 2899 H 260.689 2.3142 5.53683 0
M  V30 2900 H 261.759 2.52581 4.13921 0
M  V30 2901 N 263.102 -1.41638 0.69111 0
M  V30 2902 C 264.065 -2.29178 0.0319786 0
M  V30 2903 C 265.065 -1.44153 -0.712496 0
M  V30 2904 O 266.255 -1.65354 -0.548053 0
M  V30 2905 C 263.387 -3.26952 -0.965161 0
M  V30 2906 H 264.58 -2.88959 0.802681 0
M  V30 2907 H 262.133 -1.4955 0.454356 0
M  V30 2908 H 262.868 -2.72142 -1.76378 0
M  V30 2909 H 262.653 -3.89685 -0.434522 0
M  V30 2910 H 264.143 -3.92561 -1.42428 0
M  V30 2911 N 264.58 -0.43555 -1.51462 0
M  V30 2912 C 265.527 0.376797 -2.27703 0
M  V30 2913 C 266.497 1.01838 -1.31219 0
M  V30 2914 O 267.682 1.03762 -1.60119 0
M  V30 2915 C 264.822 1.47301 -3.12084 0
M  V30 2916 C 263.935 0.849744 -4.2356 0
M  V30 2917 C 263.07 1.92086 -4.95254 0
M  V30 2918 C 262.109 1.27593 -5.98654 0
M  V30 2919 N 261.246 2.28833 -6.63762 0
M  V30 2920 H 266.086 -0.279734 -2.96684 0
M  V30 2921 H 263.623 -0.149795 -1.46335 0
M  V30 2922 H 265.581 2.11984 -3.59331 0
M  V30 2923 H 264.211 2.0992 -2.45221 0
M  V30 2924 H 263.263 0.0912529 -3.80291 0
M  V30 2925 H 264.575 0.338878 -4.97648 0
M  V30 2926 H 263.729 2.64435 -5.46039 0
M  V30 2927 H 262.468 2.46545 -4.20793 0
M  V30 2928 H 261.473 0.537893 -5.47162 0
M  V30 2929 H 262.698 0.738693 -6.7507 0
M  V30 2930 H 260.644 2.82375 -5.92115 0
M  V30 2931 H 260.561 1.82632 -7.33608 0
M  V30 2932 H 261.829 3.00671 -7.19178 0
M  V30 2933 N 266.058 1.56714 -0.166846 0
M  V30 2934 C 267.474 1.58473 0.189372 0
M  V30 2935 C 267.674 1.18201 1.63189 0
M  V30 2936 O 266.73 0.891528 2.36237 0
M  V30 2937 C 268.043 3.00573 -0.0873872 0
M  V30 2938 C 269.591 3.1299 -0.0252443 0
M  V30 2939 C 270.066 4.57174 -0.274934 0
M  V30 2940 N 271.557 4.62665 -0.222553 0
M  V30 2941 C 272.292 5.72072 -0.389985 0
M  V30 2942 N 271.788 6.90054 -0.616229 0
M  V30 2943 N 273.581 5.61153 -0.326202 0
M  V30 2944 H 265.732 1.8118 -1.10849 0
M  V30 2945 H 267.995 0.839525 -0.440342 0
M  V30 2946 H 267.701 3.34497 -1.0865 0
M  V30 2947 H 267.575 3.72019 0.623037 0
M  V30 2948 H 269.962 2.78895 0.96444 0
M  V30 2949 H 270.043 2.43989 -0.768309 0
M  V30 2950 H 269.687 4.91976 -1.26181 0
M  V30 2951 H 269.617 5.24328 0.48869 0
M  V30 2952 H 272.108 3.77863 -0.0531512 0
M  V30 2953 H 272.421 7.69311 -0.733559 0
M  V30 2954 H 270.766 6.91927 -0.652791 0
M  V30 2955 H 273.957 4.67859 -0.150072 0
M  V30 2956 H 274.13 6.46364 -0.460116 0
M  V30 2957 N 267.536 -0.106894 1.57237 0
M  V30 2958 C 268.483 -1.13049 2.01217 0
M  V30 2959 C 269.453 -1.40471 0.886403 0
M  V30 2960 O 270.638 -1.52133 1.15153 0
M  V30 2961 C 267.778 -2.4487 2.43172 0
M  V30 2962 C 266.891 -2.24281 3.69218 0
M  V30 2963 C 266.026 -3.49417 4.00101 0
M  V30 2964 C 265.065 -3.24038 5.19294 0
M  V30 2965 N 264.202 -4.41409 5.45988 0
M  V30 2966 H 269.042 -0.748456 2.88448 0
M  V30 2967 H 266.579 -0.358054 1.42676 0
M  V30 2968 H 268.537 -3.21786 2.65537 0
M  V30 2969 H 267.167 -2.80944 1.58967 0
M  V30 2970 H 266.219 -1.38224 3.54398 0
M  V30 2971 H 267.531 -2.01512 4.56283 0
M  V30 2972 H 266.685 -4.34746 4.2318 0
M  V30 2973 H 265.424 -3.75229 3.11535 0
M  V30 2974 H 264.429 -2.37102 4.96047 0
M  V30 2975 H 265.654 -2.99584 6.09447 0
M  V30 2976 H 263.6 -4.67319 4.60379 0
M  V30 2977 H 263.517 -4.21788 6.274 0
M  V30 2978 H 264.785 -5.27836 5.73593 0
M  V30 2979 N 269.014 -1.53014 -0.377408 0
M  V30 2980 C 269.944 -1.81589 -1.46791 0
M  V30 2981 C 270.925 -0.668622 -1.56408 0
M  V30 2982 O 272.11 -0.917337 -1.71168 0
M  V30 2983 C 269.24 -1.99519 -2.8427 0
M  V30 2984 C 268.194 -3.15249 -2.89486 0
M  V30 2985 C 267.52 -3.18451 -4.29527 0
M  V30 2986 C 268.82 -4.54084 -2.58079 0
M  V30 2987 H 270.514 -2.7291 -1.23127 0
M  V30 2988 H 268.06 -1.31319 -0.590883 0
M  V30 2989 H 270.013 -2.18092 -3.60575 0
M  V30 2990 H 268.737 -1.04897 -3.09296 0
M  V30 2991 H 267.396 -2.96477 -2.15631 0
M  V30 2992 H 267.044 -2.2149 -4.5161 0
M  V30 2993 H 266.744 -3.962 -4.33934 0
M  V30 2994 H 268.268 -3.39193 -5.07721 0
M  V30 2995 H 269.682 -4.72899 -3.24098 0
M  V30 2996 H 268.079 -5.33987 -2.7382 0
M  V30 2997 H 269.149 -4.60006 -1.53372 0
M  V30 2998 N 270.492 0.636531 -1.44174 0
M  V30 2999 C 271.769 1.39463 -1.37148 0
M  V30 3000 C 272.149 2.11082 -0.027507 0
M  V30 3001 O 271.497 2.05954 0.989716 0
M  V30 3002 C 271.707 2.36552 -2.56601 0
M  V30 3003 C 273.055 3.00048 -3.00427 0
M  V30 3004 O 274.079 2.46878 -2.56767 0
M  V30 3005 O 272.938 3.96488 -3.76111 0
M  V30 3006 H 270.032 0.623903 -0.542839 0
M  V30 3007 H 272.578 0.662039 -1.56253 0
M  V30 3008 H 271.35 1.82692 -3.46034 0
M  V30 3009 H 270.973 3.17236 -2.39681 0
M  V30 3010 N 271.97 1.30982 0.876444 0
M  V30 3011 C 273.218 1.20058 1.62575 0
M  V30 3012 C 273.539 -0.242947 1.93481 0
M  V30 3013 O 272.809 -1.1619 1.57724 0
M  V30 3014 H 271.389 0.44135 0.602677 0
M  V30 3015 H 274.051 1.64222 1.04962 0
M  V30 3016 H 273.147 1.76762 2.57219 0
M  V30 3017 N 273.449 -1.08991 1.13837 0
M  V30 3018 C 274.396 -2.15748 0.819835 0
M  V30 3019 C 275.366 -1.64636 -0.220026 0
M  V30 3020 O 276.551 -1.90582 -0.0912757 0
M  V30 3021 C 273.691 -3.4382 0.296913 0
M  V30 3022 C 272.804 -4.0881 1.39636 0
M  V30 3023 C 271.939 -5.24655 0.831314 0
M  V30 3024 C 270.978 -5.81575 1.90886 0
M  V30 3025 N 270.115 -6.88774 1.36142 0
M  V30 3026 H 274.955 -2.42338 1.73426 0
M  V30 3027 H 272.492 -1.18935 0.865613 0
M  V30 3028 H 274.45 -4.17193 -0.0244339 0
M  V30 3029 H 273.08 -3.17535 -0.580628 0
M  V30 3030 H 272.132 -3.33258 1.83422 0
M  V30 3031 H 273.444 -4.47141 2.21058 0
M  V30 3032 H 272.598 -6.04942 0.461515 0
M  V30 3033 H 271.337 -4.87698 -0.013932 0
M  V30 3034 H 270.342 -4.99946 2.28767 0
M  V30 3035 H 271.567 -6.20592 2.75758 0
M  V30 3036 H 269.513 -6.53788 0.538254 0
M  V30 3037 H 269.43 -7.25898 2.11208 0
M  V30 3038 H 270.698 -7.72806 1.01933 0
M  V30 3039 N 274.927 -0.932562 -1.27047 0
M  V30 3040 C 276.174 -0.575559 -1.94148 0
M  V30 3041 C 276.502 0.883984 -1.73251 0
M  V30 3042 O 275.757 1.64655 -1.0577 0
M  V30 3043 C 276.056 -0.853713 -3.47054 0
M  V30 3044 C 275.722 -2.29577 -3.88079 0
M  V30 3045 C 274.384 -2.68999 -3.9899 0
M  V30 3046 C 276.736 -3.23331 -4.08787 0
M  V30 3047 C 274.064 -4.01289 -4.28 0
M  V30 3048 C 276.416 -4.55207 -4.39282 0
M  V30 3049 C 275.08 -4.94457 -4.48407 0
M  V30 3050 H 274.35 -0.210612 -0.710439 0
M  V30 3051 H 276.997 -1.17744 -1.51025 0
M  V30 3052 H 275.302 -0.169204 -3.91434 0
M  V30 3053 H 276.999 -0.55639 -3.97121 0
M  V30 3054 H 273.589 -1.97994 -3.80127 0
M  V30 3055 H 277.773 -2.94074 -3.99793 0
M  V30 3056 H 273.029 -4.31374 -4.33275 0
M  V30 3057 H 277.203 -5.27852 -4.54252 0
M  V30 3058 H 274.83 -5.96994 -4.7064 0
M  V30 3059 N 276.405 1.4127 -0.698611 0
M  V30 3060 C 277.635 2.05205 -0.239644 0
M  V30 3061 C 278.043 1.52684 1.11733 0
M  V30 3062 O 277.386 0.671222 1.70998 0
M  V30 3063 C 277.448 3.59289 -0.123126 0
M  V30 3064 C 277.112 4.34619 -1.41263 0
M  V30 3065 C 278.109 4.63701 -2.35111 0
M  V30 3066 C 275.794 4.73837 -1.66684 0
M  V30 3067 C 277.788 5.30966 -3.52639 0
M  V30 3068 C 275.475 5.40837 -2.84498 0
M  V30 3069 C 276.473 5.69329 -3.77298 0
M  V30 3070 O 276.161 6.34949 -4.93047 0
M  V30 3071 H 275.893 0.66723 -0.108537 0
M  V30 3072 H 278.447 1.81974 -0.952602 0
M  V30 3073 H 276.677 3.81272 0.645628 0
M  V30 3074 H 278.366 4.04797 0.299056 0
M  V30 3075 H 279.132 4.33882 -2.16729 0
M  V30 3076 H 275.011 4.51039 -0.953135 0
M  V30 3077 H 278.555 5.53121 -4.25091 0
M  V30 3078 H 274.452 5.70075 -3.02795 0
M  V30 3079 H 275.22 6.53445 -4.92902 0
M  V30 3080 N 277.883 0.443576 1.51229 0
M  V30 3081 C 278.846 -0.353132 2.26463 0
M  V30 3082 C 279.846 -0.944338 1.3015 0
M  V30 3083 O 281.036 -0.817813 1.5381 0
M  V30 3084 C 278.168 -1.50023 3.06114 0
M  V30 3085 H 279.361 0.3063 2.98332 0
M  V30 3086 H 276.914 0.196902 1.55055 0
M  V30 3087 H 277.649 -2.19553 2.38677 0
M  V30 3088 H 277.434 -1.08241 3.76864 0
M  V30 3089 H 278.924 -2.06296 3.63087 0
M  V30 3090 N 279.361 -1.56624 0.175154 0
M  V30 3091 C 280.607 -1.9729 -0.469506 0
M  V30 3092 C 280.94 -1.06128 -1.62636 0
M  V30 3093 O 280.215 -0.109183 -1.94193 0
M  V30 3094 C 280.498 -3.47375 -0.948804 0
M  V30 3095 C 280.351 -4.49317 0.208491 0
M  V30 3096 C 281.67 -4.00652 -1.82116 0
M  V30 3097 H 278.789 -0.717317 -0.16919 0
M  V30 3098 H 281.431 -1.88184 0.262062 0
M  V30 3099 H 279.581 -3.55267 -1.57219 0
M  V30 3100 H 281.253 -4.53482 0.845682 0
M  V30 3101 H 279.496 -4.25121 0.863395 0
M  V30 3102 H 280.167 -5.51741 -0.169059 0
M  V30 3103 H 282.643 -3.95416 -1.2956 0
M  V30 3104 H 281.519 -5.06075 -2.12554 0
M  V30 3105 H 281.78 -3.44699 -2.7683 0
M  V30 3106 N 280.839 0.0985539 -1.57292 0
M  V30 3107 C 281.786 1.11981 -2.01814 0
M  V30 3108 C 282.756 1.39999 -0.89384 0
M  V30 3109 O 283.941 1.5152 -1.15958 0
M  V30 3110 C 281.081 2.43577 -2.44467 0
M  V30 3111 C 280.194 2.2232 -3.70402 0
M  V30 3112 C 279.329 3.4729 -4.01949 0
M  V30 3113 C 278.368 3.2128 -5.21005 0
M  V30 3114 N 277.505 4.38507 -5.48321 0
M  V30 3115 H 282.345 0.733149 -2.88841 0
M  V30 3116 H 279.882 0.350482 -1.42864 0
M  V30 3117 H 281.84 3.20373 -2.6724 0
M  V30 3118 H 280.47 2.80097 -1.60455 0
M  V30 3119 H 279.522 1.36343 -3.55126 0
M  V30 3120 H 280.834 1.99089 -4.57345 0
M  V30 3121 H 279.988 4.32495 -4.25479 0
M  V30 3122 H 278.727 3.73572 -3.13521 0
M  V30 3123 H 277.732 2.34468 -4.97298 0
M  V30 3124 H 278.957 2.96348 -6.11028 0
M  V30 3125 H 276.903 4.64871 -4.62851 0
M  V30 3126 H 276.82 4.18455 -6.29628 0
M  V30 3127 H 278.088 5.24787 -5.76385 0
M  V30 3128 N 282.317 1.53212 0.369288 0
M  V30 3129 C 283.563 1.69466 1.11397 0
M  V30 3130 C 283.896 0.443257 1.89074 0
M  V30 3131 O 283.171 -0.559386 1.86282 0
M  V30 3132 C 283.454 2.9422 2.07621 0
M  V30 3133 C 283.307 4.29508 1.33577 0
M  V30 3134 C 284.626 3.14565 3.07794 0
M  V30 3135 H 281.745 0.616667 0.403597 0
M  V30 3136 H 284.387 1.85845 0.395179 0
M  V30 3137 H 282.537 2.80387 2.68916 0
M  V30 3138 H 284.209 4.55147 0.750955 0
M  V30 3139 H 282.452 4.29088 0.637618 0
M  V30 3140 H 283.123 5.12926 2.03989 0
M  V30 3141 H 285.599 3.2756 2.56601 0
M  V30 3142 H 284.475 4.03297 3.72348 0
M  V30 3143 H 284.736 2.29675 3.77759 0
M  V30 3144 N 283.795 -0.628877 1.44509 0
M  V30 3145 C 284.725 -1.75187 1.54376 0
M  V30 3146 C 285.706 -1.65411 0.396618 0
M  V30 3147 O 286.891 -1.84137 0.617031 0
M  V30 3148 C 284.021 -3.13725 1.48976 0
M  V30 3149 C 282.975 -3.38291 2.62189 0
M  V30 3150 C 282.301 -4.76883 2.41841 0
M  V30 3151 C 283.601 -3.30632 4.04326 0
M  V30 3152 H 285.295 -1.67187 2.48373 0
M  V30 3153 H 282.841 -0.802909 1.19538 0
M  V30 3154 H 284.794 -3.92064 1.54478 0
M  V30 3155 H 283.518 -3.22515 0.514961 0
M  V30 3156 H 282.177 -2.62334 2.56079 0
M  V30 3157 H 281.825 -4.82378 1.42548 0
M  V30 3158 H 281.525 -4.94278 3.17747 0
M  V30 3159 H 283.049 -5.57449 2.49165 0
M  V30 3160 H 284.463 -3.98873 4.11793 0
M  V30 3161 H 282.86 -3.59561 4.80454 0
M  V30 3162 H 283.93 -2.28404 4.27738 0
M  V30 3163 N 285.273 -1.31445 -0.869486 0
M  V30 3164 C 286.205 -1.14955 -1.98287 0
M  V30 3165 C 287.218 -0.0885037 -1.62559 0
M  V30 3166 O 288.407 -0.336044 -1.75308 0
M  V30 3167 C 285.507 -0.734255 -3.3085 0
M  V30 3168 C 284.68 -1.88042 -3.94917 0
M  V30 3169 C 283.739 -1.4511 -5.05796 0
M  V30 3170 O 282.765 -2.16082 -5.2659 0
M  V30 3171 N 283.967 -0.338763 -5.79511 0
M  V30 3172 H 286.732 -2.10856 -2.12979 0
M  V30 3173 H 284.293 -1.23786 -1.04349 0
M  V30 3174 H 286.285 -0.42975 -4.02412 0
M  V30 3175 H 284.855 0.133158 -3.12316 0
M  V30 3176 H 284.075 -2.35222 -3.1633 0
M  V30 3177 H 285.363 -2.6481 -4.34457 0
M  V30 3178 H 284.761 0.252274 -5.65137 0
M  V30 3179 H 283.318 -0.0937925 -6.51733 0
M  V30 3180 N 286.751 1.08385 -1.14413 0
M  V30 3181 C 287.698 2.15311 -0.831265 0
M  V30 3182 C 288.668 1.64751 0.211292 0
M  V30 3183 O 289.853 1.90627 0.0811674 0
M  V30 3184 C 286.993 3.43658 -0.315143 0
M  V30 3185 C 286.106 4.08064 -1.41802 0
M  V30 3186 C 285.241 5.24207 -0.859126 0
M  V30 3187 C 284.28 5.80554 -1.93967 0
M  V30 3188 N 283.417 6.88042 -1.39793 0
M  V30 3189 H 288.257 2.41415 -1.74708 0
M  V30 3190 H 285.794 1.18474 -0.871909 0
M  V30 3191 H 287.752 4.172 0.00230884 0
M  V30 3192 H 286.382 3.17839 0.56378 0
M  V30 3193 H 285.434 3.3228 -1.85187 0
M  V30 3194 H 286.746 4.45962 -2.23427 0
M  V30 3195 H 285.9 6.04689 -0.49359 0
M  V30 3196 H 284.639 4.87699 -0.011932 0
M  V30 3197 H 283.644 4.98725 -2.31415 0
M  V30 3198 H 284.869 6.19121 -2.79046 0
M  V30 3199 H 282.815 6.53493 -0.572919 0
M  V30 3200 H 282.732 7.24767 -2.15054 0
M  V30 3201 H 284 7.72255 -1.0603 0
M  V30 3202 N 288.23 0.939286 1.26551 0
M  V30 3203 C 289.177 0.446088 2.26448 0
M  V30 3204 C 290.147 -0.493234 1.58608 0
M  V30 3205 O 291.332 -0.409857 1.86346 0
M  V30 3206 C 288.472 -0.284375 3.43926 0
M  V30 3207 C 287.585 0.690399 4.26448 0
M  V30 3208 C 286.72 -0.0610712 5.31165 0
M  V30 3209 C 285.759 0.905649 6.05363 0
M  V30 3210 N 284.896 0.186055 7.01853 0
M  V30 3211 H 289.736 1.30291 2.68008 0
M  V30 3212 H 287.273 0.65371 1.31776 0
M  V30 3213 H 289.231 -0.724313 4.10864 0
M  V30 3214 H 287.861 -1.10535 3.03285 0
M  V30 3215 H 286.913 1.24885 3.59316 0
M  V30 3216 H 288.225 1.42873 4.779 0
M  V30 3217 H 287.379 -0.56038 6.04106 0
M  V30 3218 H 286.118 -0.832297 4.80546 0
M  V30 3219 H 285.123 1.4161 5.3125 0
M  V30 3220 H 286.348 1.67685 6.58072 0
M  V30 3221 H 284.294 -0.566714 6.53548 0
M  V30 3222 H 284.211 0.863752 7.51049 0
M  V30 3223 H 285.479 -0.292221 7.78952 0
M  V30 3224 N 289.708 -1.40897 0.706093 0
M  V30 3225 C 290.957 -2.00284 0.238574 0
M  V30 3226 C 291.27 -1.56604 -1.17194 0
M  V30 3227 O 292.476 -2.08624 -1.73748 0
M  V30 3228 C 290.932 -3.57934 0.375623 0
M  V30 3229 C 290.54 -4.10591 1.79217 0
M  V30 3230 C 292.284 -4.24488 -0.0315857 0
M  V30 3231 C 290.191 -5.60712 1.88032 0
M  V30 3232 H 289.121 -0.749144 0.0854398 0
M  V30 3233 H 291.772 -1.61251 0.875813 0
M  V30 3234 H 290.154 -3.94622 -0.330042 0
M  V30 3235 H 291.328 -3.85301 2.52745 0
M  V30 3236 H 289.643 -3.56601 2.15 0
M  V30 3237 H 292.24 -5.34698 0.0136842 0
M  V30 3238 H 292.583 -4.02261 -1.072 0
M  V30 3239 H 293.116 -3.92873 0.624181 0
M  V30 3240 H 289.855 -5.87781 2.90161 0
M  V30 3241 H 289.375 -5.87896 1.18903 0
M  V30 3242 H 291.054 -6.25658 1.64805 0
M  V30 3243 N 291.186 -0.45159 -1.50991 0
M  V30 3244 C 292.432 0.110237 -2.025 0
M  V30 3245 C 292.765 1.41109 -1.33424 0
M  V30 3246 O 292.04 1.89135 -0.453659 0
M  V30 3247 C 292.323 0.314271 -3.58726 0
M  V30 3248 C 292.176 -1.00623 -4.38401 0
M  V30 3249 C 293.495 1.07767 -4.26702 0
M  V30 3250 H 290.614 0.0385897 -0.735989 0
M  V30 3251 H 293.256 -0.593374 -1.80497 0
M  V30 3252 H 291.406 0.913601 -3.77605 0
M  V30 3253 H 293.078 -1.64064 -4.31139 0
M  V30 3254 H 291.321 -1.6075 -4.02917 0
M  V30 3255 H 291.992 -0.817341 -5.45915 0
M  V30 3256 H 294.468 0.56986 -4.12179 0
M  V30 3257 H 293.344 1.18921 -5.35863 0
M  V30 3258 H 293.605 2.10939 -3.88532 0
M  V30 3259 N 292.664 1.56529 -0.183458 0
M  V30 3260 C 293.594 2.21549 0.737456 0
M  V30 3261 C 294.575 1.17489 1.23005 0
M  V30 3262 O 295.76 1.45959 1.281 0
M  V30 3263 C 292.89 2.86575 1.96194 0
M  V30 3264 C 291.844 3.96778 1.60473 0
M  V30 3265 C 291.17 4.48911 2.90487 0
M  V30 3266 C 292.47 5.15767 0.823497 0
M  V30 3267 H 294.164 2.98761 0.195453 0
M  V30 3268 H 291.71 1.43702 0.0925686 0
M  V30 3269 H 293.663 3.30739 2.61131 0
M  V30 3270 H 292.387 2.06749 2.52828 0
M  V30 3271 H 291.046 3.53286 0.978997 0
M  V30 3272 H 290.694 3.65862 3.45186 0
M  V30 3273 H 290.394 5.23265 2.67335 0
M  V30 3274 H 291.918 4.95771 3.56432 0
M  V30 3275 H 293.332 5.56549 1.37571 0
M  V30 3276 H 291.729 5.96114 0.690551 0
M  V30 3277 H 292.799 4.84574 -0.177782 0
M  V30 3278 N 294.142 -0.090211 1.57342 0
M  V30 3279 C 295.09 -1.12792 2.03422 0
M  V30 3280 C 296.084 -1.41182 0.936166 0
M  V30 3281 O 297.29 -1.40805 1.12133 0
M  V30 3282 H 293.665 -0.380986 0.648347 0
M  V30 3283 H 295.636 -0.71299 2.89757 0
M  V30 3284 C 294.385 -2.43855 2.47851 0
M  V30 3285 H 293.708 -2.22855 3.31927 0
M  V30 3286 H 295.148 -3.14955 2.83865 0
M  V30 3287 C 293.607 -3.08503 1.3538 0
M  V30 3288 O 294.137 -3.95805 0.685641 0
M  V30 3289 N 292.343 -2.68831 1.10355 0
M  V30 3290 H 291.89 -1.97929 1.64869 0
M  V30 3291 H 291.848 -3.12412 0.353031 0
M  V30 3292 N 295.62 -1.53406 -0.361157 0
M  V30 3293 C 297.036 -1.43277 -0.703124 0
M  V30 3294 C 297.236 -0.575384 -1.9311 0
M  V30 3295 O 296.292 -0.0595362 -2.5243 0
M  V30 3296 C 297.605 -2.8653 -0.9122 0
M  V30 3297 C 299.153 -2.96191 -1.01193 0
M  V30 3298 C 299.628 -4.40514 -1.25345 0
M  V30 3299 N 301.119 -4.43962 -1.32105 0
M  V30 3300 C 301.854 -5.52746 -1.5251 0
M  V30 3301 N 301.35 -6.71567 -1.70203 0
M  V30 3302 N 303.143 -5.40331 -1.54916 0
M  V30 3303 H 295.294 -2.07654 0.446475 0
M  V30 3304 H 297.557 -0.937944 0.137715 0
M  V30 3305 H 297.263 -3.51605 -0.0816414 0
M  V30 3306 H 297.137 -3.30441 -1.81903 0
M  V30 3307 H 299.524 -2.31266 -1.83303 0
M  V30 3308 H 299.605 -2.55667 -0.0823929 0
M  V30 3309 H 299.249 -5.06014 -0.437346 0
M  V30 3310 H 299.179 -4.78614 -2.19627 0
M  V30 3311 H 301.67 -3.58332 -1.20028 0
M  V30 3312 H 301.983 -7.50241 -1.85359 0
M  V30 3313 H 300.328 -6.74545 -1.67373 0
M  V30 3314 H 303.519 -4.46465 -1.40663 0
M  V30 3315 H 303.692 -6.25173 -1.70477 0
M  V30 3316 N 297.098 0.621204 -1.44841 0
M  V30 3317 C 298.045 1.73267 -1.5247 0
M  V30 3318 C 299.015 1.6189 -0.371611 0
M  V30 3319 O 300.2 1.81668 -0.58321 0
M  V30 3320 C 297.34 3.11545 -1.48438 0
M  V30 3321 C 296.453 3.33827 -2.74196 0
M  V30 3322 C 295.588 4.62133 -2.61929 0
M  V30 3323 C 294.627 4.77627 -3.82804 0
M  V30 3324 N 293.764 5.97219 -3.69153 0
M  V30 3325 H 298.604 1.66082 -2.47428 0
M  V30 3326 H 296.141 0.810026 -1.22788 0
M  V30 3327 H 298.099 3.91528 -1.4409 0
M  V30 3328 H 296.729 3.1772 -0.570402 0
M  V30 3329 H 295.781 2.47715 -2.88689 0
M  V30 3330 H 297.093 3.41153 -3.6389 0
M  V30 3331 H 296.247 5.50291 -2.5547 0
M  V30 3332 H 294.986 4.57182 -1.69811 0
M  V30 3333 H 293.991 3.87896 -3.89637 0
M  V30 3334 H 295.216 4.84385 -4.75971 0
M  V30 3335 H 293.162 5.93339 -2.79794 0
M  V30 3336 H 293.079 6.05644 -4.52472 0
M  V30 3337 H 294.347 6.87912 -3.66603 0
M  V30 3338 N 298.576 1.31904 0.862503 0
M  V30 3339 C 299.486 1.22161 2.00285 0
M  V30 3340 C 300.502 0.136785 1.73462 0
M  V30 3341 O 301.678 0.355994 1.98229 0
M  V30 3342 C 298.743 0.937093 3.33796 0
M  V30 3343 C 297.804 2.10957 3.73893 0
M  V30 3344 C 297.037 1.83853 5.01033 0
M  V30 3345 O 297.26 0.777274 5.65079 0
M  V30 3346 O 296.194 2.69741 5.38074 0
M  V30 3347 H 300.02 2.18008 2.11439 0
M  V30 3348 H 297.605 1.11716 0.991957 0
M  V30 3349 H 299.487 0.794583 4.13841 0
M  V30 3350 H 298.162 0.00871894 3.23699 0
M  V30 3351 H 297.069 2.30752 2.94456 0
M  V30 3352 H 298.402 3.02046 3.88625 0
M  V30 3353 N 300.054 -1.07777 1.14986 0
M  V30 3354 C 300.986 -2.14769 0.800436 0
M  V30 3355 C 301.999 -1.61739 -0.185595 0
M  V30 3356 O 303.188 -1.78462 0.0370358 0
M  V30 3357 C 300.288 -3.38481 0.168533 0
M  V30 3358 C 299.461 -4.20876 1.1909 0
M  V30 3359 C 298.52 -5.22976 0.581575 0
M  V30 3360 O 297.546 -5.55388 1.24633 0
M  V30 3361 N 298.748 -5.76976 -0.638706 0
M  V30 3362 H 301.513 -2.45348 1.72118 0
M  V30 3363 H 299.074 -1.23645 1.04515 0
M  V30 3364 H 301.066 -4.03916 -0.251764 0
M  V30 3365 H 299.636 -3.05651 -0.655467 0
M  V30 3366 H 298.856 -3.51322 1.78791 0
M  V30 3367 H 300.144 -4.7274 1.88133 0
M  V30 3368 H 299.542 -5.52886 -1.19723 0
M  V30 3369 H 298.099 -6.44061 -1.00142 0
M  V30 3370 N 301.532 -0.945985 -1.26051 0
M  V30 3371 C 302.479 -0.45809 -2.26208 0
M  V30 3372 C 303.449 0.484816 -1.58867 0
M  V30 3373 O 304.634 0.399969 -1.86561 0
M  V30 3374 C 301.774 0.266131 -3.44072 0
M  V30 3375 C 300.887 -0.713005 -4.26075 0
M  V30 3376 C 300.022 0.0329013 -5.3119 0
M  V30 3377 C 299.061 -0.93774 -6.04874 0
M  V30 3378 N 298.198 -0.223274 -7.01745 0
M  V30 3379 H 303.038 -1.3171 -2.67313 0
M  V30 3380 H 300.575 -0.66069 -1.31428 0
M  V30 3381 H 302.533 0.702514 -4.11243 0
M  V30 3382 H 301.163 1.08925 -3.03867 0
M  V30 3383 H 300.215 -1.26789 -3.58648 0
M  V30 3384 H 301.527 -1.45406 -4.77136 0
M  V30 3385 H 300.681 0.528335 -6.04395 0
M  V30 3386 H 299.42 0.806801 -4.8098 0
M  V30 3387 H 298.425 -1.44425 -5.30492 0
M  V30 3388 H 299.65 -1.71172 -6.57173 0
M  V30 3389 H 297.596 0.532046 -6.53839 0
M  V30 3390 H 297.513 -0.90357 -7.50581 0
M  V30 3391 H 298.781 0.250907 -7.79096 0
M  V30 3392 N 303.011 1.40521 -0.713556 0
M  V30 3393 C 303.961 2.27971 -0.036165 0
M  V30 3394 C 304.945 1.43151 0.734623 0
M  V30 3395 O 306.137 1.66261 0.607158 0
M  V30 3396 C 303.266 3.31661 0.886331 0
M  V30 3397 C 302.352 4.23955 0.110836 0
M  V30 3398 N 302.743 4.97641 -0.904847 0
M  V30 3399 C 301.041 4.44674 0.343692 0
M  V30 3400 C 301.742 5.65322 -1.37064 0
M  V30 3401 N 300.718 5.39162 -0.693168 0
M  V30 3402 H 304.52 2.82384 -0.814645 0
M  V30 3403 H 302.034 1.52948 -0.545963 0
M  V30 3404 H 304.031 3.93154 1.38692 0
M  V30 3405 H 302.691 2.78808 1.66421 0
M  V30 3406 H 303.702 5.01689 -1.28563 0
M  V30 3407 H 300.379 4.02801 1.09805 0
M  V30 3408 H 301.769 6.34359 -2.21447 0
M  V30 3409 N 304.489 0.459591 1.5075 0
M  V30 3410 C 305.738 -0.100971 2.01447 0
M  V30 3411 C 306.051 -1.41816 1.34713 0
M  V30 3412 O 307.257 -2.06299 1.76502 0
M  V30 3413 C 305.713 -0.23047 3.59161 0
M  V30 3414 C 305.321 1.0776 4.34847 0
M  V30 3415 C 307.065 -0.743608 4.17936 0
M  V30 3416 C 304.972 0.91253 5.84317 0
M  V30 3417 H 303.902 -0.0415102 0.752856 0
M  V30 3418 H 306.553 0.592742 1.73663 0
M  V30 3419 H 304.935 -0.987703 3.83485 0
M  V30 3420 H 306.109 1.8449 4.22256 0
M  V30 3421 H 304.424 1.52097 3.87628 0
M  V30 3422 H 307.021 -0.883959 5.27343 0
M  V30 3423 H 307.364 -1.73196 3.78562 0
M  V30 3424 H 307.897 -0.04408 3.97776 0
M  V30 3425 H 304.636 1.87391 6.28144 0
M  V30 3426 H 304.156 0.185422 5.99513 0
M  V30 3427 H 305.835 0.574547 6.44444 0
M  V30 3428 N 305.967 -1.56429 0.191757 0
M  V30 3429 C 306.9 -2.14829 -0.76967 0
M  V30 3430 C 307.878 -1.08405 -1.2119 0
M  V30 3431 O 309.062 -1.36498 -1.30002 0
M  V30 3432 C 306.189 -2.70446 -2.03903 0
M  V30 3433 C 305.235 -3.89428 -1.7392 0
M  V30 3434 S 306.068 -5.28048 -0.890265 0
M  V30 3435 C 307.224 -5.87085 -2.16984 0
M  V30 3436 H 307.457 -2.96042 -0.273204 0
M  V30 3437 H 304.99 -1.54383 -0.0231975 0
M  V30 3438 H 306.948 -3.03134 -2.76803 0
M  V30 3439 H 305.609 -1.89281 -2.50662 0
M  V30 3440 H 304.802 -4.26742 -2.68155 0
M  V30 3441 H 304.404 -3.57732 -1.09103 0
M  V30 3442 H 306.696 -6.01244 -3.12269 0
M  V30 3443 H 307.639 -6.83747 -1.84108 0
M  V30 3444 H 308.047 -5.15663 -2.29678 0
M  V30 3445 N 307.445 0.0818655 -1.57387 0
M  V30 3446 C 308.408 1.08265 -2.02018 0
M  V30 3447 C 309.408 1.32183 -0.915664 0
M  V30 3448 O 310.598 1.28073 -1.18081 0
M  V30 3449 C 307.73 2.42871 -2.39221 0
M  V30 3450 H 308.923 0.698204 -2.91659 0
M  V30 3451 H 306.476 0.327303 -1.52835 0
M  V30 3452 H 307.211 2.86167 -1.52575 0
M  V30 3453 H 306.996 2.26855 -3.19811 0
M  V30 3454 H 308.486 3.14826 -2.74362 0
M  V30 3455 N 308.923 1.53595 0.353017 0
M  V30 3456 C 309.833 1.83897 1.45667 0
M  V30 3457 C 310.849 0.728334 1.58023 0
M  V30 3458 O 312.025 1.01968 1.73679 0
M  V30 3459 C 309.09 2.03383 2.80778 0
M  V30 3460 C 308.151 3.27262 2.77845 0
M  V30 3461 C 307.384 3.45809 4.06512 0
M  V30 3462 O 307.607 2.68387 5.03314 0
M  V30 3463 O 306.541 4.39207 4.11559 0
M  V30 3464 H 310.367 2.77686 1.2298 0
M  V30 3465 H 307.952 1.39132 0.544308 0
M  V30 3466 H 309.834 2.17698 3.60812 0
M  V30 3467 H 308.509 1.12783 3.03417 0
M  V30 3468 H 307.416 3.18359 1.96465 0
M  V30 3469 H 308.749 4.17824 2.60161 0
M  V30 3470 N 310.401 -0.613514 1.45168 0
M  V30 3471 C 311.817 -0.933629 1.29443 0
M  V30 3472 C 312.017 -2.00028 0.243101 0
M  V30 3473 O 311.073 -2.49848 -0.364992 0
M  V30 3474 C 312.386 -1.38018 2.67155 0
M  V30 3475 C 313.934 -1.49471 2.75004 0
M  V30 3476 C 314.409 -1.97503 4.13227 0
M  V30 3477 N 315.9 -2.04746 4.15491 0
M  V30 3478 C 316.635 -2.43121 5.19307 0
M  V30 3479 N 316.131 -2.80506 6.33473 0
M  V30 3480 N 317.924 -2.43408 5.06664 0
M  V30 3481 H 310.075 0.0916097 2.12202 0
M  V30 3482 H 312.338 -0.0216655 0.947752 0
M  V30 3483 H 312.044 -0.670625 3.45247 0
M  V30 3484 H 311.918 -2.34784 2.95222 0
M  V30 3485 H 314.305 -2.19519 1.9722 0
M  V30 3486 H 314.386 -0.510342 2.50657 0
M  V30 3487 H 314.03 -1.28045 4.91495 0
M  V30 3488 H 313.96 -2.96843 4.34962 0
M  V30 3489 H 316.451 -1.78468 3.33103 0
M  V30 3490 H 316.764 -3.08652 7.08487 0
M  V30 3491 H 315.109 -2.78216 6.36884 0
M  V30 3492 H 318.3 -2.13604 4.16523 0
M  V30 3493 H 318.473 -2.72989 5.87691 0
M  V30 3494 N 311.879 -1.3236 -0.855495 0
M  V30 3495 C 312.827 -1.2118 -1.9854 0
M  V30 3496 C 313.821 -0.116788 -1.68997 0
M  V30 3497 O 315.027 -0.279657 -1.77814 0
M  V30 3498 H 311.402 -0.375608 -0.651477 0
M  V30 3499 H 313.373 -2.16743 -2.05098 0
M  V30 3500 C 312.122 -0.950849 -3.34446 0
M  V30 3501 H 311.445 -1.78563 -3.57708 0
M  V30 3502 H 312.885 -0.912863 -4.14057 0
M  V30 3503 C 311.344 0.346404 -3.35114 0
M  V30 3504 O 311.874 1.35855 -3.7803 0
M  V30 3505 N 310.08 0.36808 -2.88259 0
M  V30 3506 H 309.627 -0.456102 -2.5353 0
M  V30 3507 H 309.585 1.23591 -2.89089 0
M  V30 3508 N 313.357 1.07166 -1.15556 0
M  V30 3509 C 314.603 1.80065 -0.932984 0
M  V30 3510 C 314.936 1.86586 0.53845 0
M  V30 3511 O 314.211 1.35098 1.39924 0
M  V30 3512 C 314.494 3.25022 -1.55025 0
M  V30 3513 C 314.347 3.26634 -3.09242 0
M  V30 3514 C 315.666 4.22341 -1.2376 0
M  V30 3515 H 312.785 0.653697 -0.340366 0
M  V30 3516 H 315.427 1.25389 -1.4275 0
M  V30 3517 H 313.577 3.71712 -1.12972 0
M  V30 3518 H 315.249 2.88173 -3.60214 0
M  V30 3519 H 313.492 2.65539 -3.43033 0
M  V30 3520 H 314.163 4.28854 -3.47546 0
M  V30 3521 H 316.639 3.8405 -1.60139 0
M  V30 3522 H 315.515 5.22053 -1.69564 0
M  V30 3523 H 315.776 4.41828 -0.154938 0
M  V30 3524 N 314.835 0.952656 1.25548 0
M  V30 3525 C 315.765 0.489287 2.28316 0
M  V30 3526 C 316.746 -0.463359 1.63667 0
M  V30 3527 O 317.931 -0.36274 1.90782 0
M  V30 3528 C 315.061 -0.235603 3.465 0
M  V30 3529 C 314.015 0.631593 4.23314 0
M  V30 3530 C 313.341 -0.223923 5.34231 0
M  V30 3531 C 314.641 1.90871 4.86174 0
M  V30 3532 H 316.335 1.34822 2.67326 0
M  V30 3533 H 313.881 0.649728 1.28509 0
M  V30 3534 H 315.834 -0.570882 4.17515 0
M  V30 3535 H 314.558 -1.12877 3.06474 0
M  V30 3536 H 313.217 0.949929 3.54079 0
M  V30 3537 H 312.865 -1.11678 4.90446 0
M  V30 3538 H 312.565 0.35299 5.86539 0
M  V30 3539 H 314.089 -0.554214 6.0808 0
M  V30 3540 H 315.503 1.63997 5.49343 0
M  V30 3541 H 313.9 2.43112 5.4865 0
M  V30 3542 H 314.97 2.61304 4.08471 0
M  V30 3543 N 316.313 -1.40141 0.720998 0
M  V30 3544 C 317.243 -2.33339 0.0867621 0
M  V30 3545 C 318.224 -1.53178 -0.739622 0
M  V30 3546 O 319.409 -1.81625 -0.687449 0
M  V30 3547 C 316.539 -3.37194 -0.831728 0
M  V30 3548 C 315.493 -4.27857 -0.110558 0
M  V30 3549 C 314.819 -5.22294 -1.14513 0
M  V30 3550 C 316.119 -5.11872 1.0385 0
M  V30 3551 H 317.813 -2.86626 0.865219 0
M  V30 3552 H 315.359 -1.37814 0.417516 0
M  V30 3553 H 317.312 -4.01335 -1.28485 0
M  V30 3554 H 316.036 -2.82314 -1.64214 0
M  V30 3555 H 314.695 -3.65176 0.322797 0
M  V30 3556 H 314.343 -4.63717 -1.94874 0
M  V30 3557 H 314.043 -5.83797 -0.667446 0
M  V30 3558 H 315.567 -5.89312 -1.59824 0
M  V30 3559 H 316.981 -5.69436 0.664482 0
M  V30 3560 H 315.378 -5.82445 1.4449 0
M  V30 3561 H 316.448 -4.4753 1.86668 0
M  V30 3562 N 317.792 -0.46758 -1.50504 0
M  V30 3563 C 318.739 0.328413 -2.28452 0
M  V30 3564 C 319.709 0.990313 -1.33349 0
M  V30 3565 O 320.894 1.00343 -1.62284 0
M  V30 3566 C 318.034 1.40648 -3.15138 0
M  V30 3567 C 317.147 0.759709 -4.25267 0
M  V30 3568 C 316.282 1.81537 -4.99217 0
M  V30 3569 C 315.321 1.14866 -6.01226 0
M  V30 3570 N 314.458 2.14702 -6.68467 0
M  V30 3571 H 319.298 -0.342603 -2.96024 0
M  V30 3572 H 316.835 -0.180801 -1.45985 0
M  V30 3573 H 318.793 2.04315 -3.63746 0
M  V30 3574 H 317.423 2.04671 -2.49619 0
M  V30 3575 H 316.475 0.0105671 -3.80399 0
M  V30 3576 H 317.787 0.233243 -4.98254 0
M  V30 3577 H 316.941 2.52793 -5.51526 0
M  V30 3578 H 315.68 2.37564 -4.25928 0
M  V30 3579 H 314.685 0.42171 -5.4818 0
M  V30 3580 H 315.91 0.595334 -6.76485 0
M  V30 3581 H 313.856 2.69752 -5.97972 0
M  V30 3582 H 313.773 1.6703 -7.37317 0
M  V30 3583 H 315.041 2.85348 -7.25394 0
M  V30 3584 N 319.27 1.56325 -0.20005 0
M  V30 3585 C 320.218 2.20666 0.735482 0
M  V30 3586 C 321.212 1.17934 1.21605 0
M  V30 3587 O 322.418 1.36068 1.17837 0
M  V30 3588 H 318.793 0.70725 0.255542 0
M  V30 3589 H 320.764 2.9792 0.169166 0
M  V30 3590 C 319.513 2.88391 1.94232 0
M  V30 3591 H 318.836 3.67185 1.58161 0
M  V30 3592 H 320.276 3.3684 2.57517 0
M  V30 3593 C 318.735 1.89692 2.78421 0
M  V30 3594 O 319.265 1.40032 3.76502 0
M  V30 3595 N 317.471 1.57813 2.44015 0
M  V30 3596 H 317.018 1.9839 1.64314 0
M  V30 3597 H 316.976 0.920325 3.00628 0
M  V30 3598 N 320.748 -0.0735177 1.57428 0
M  V30 3599 C 321.994 -0.774145 1.87443 0
M  V30 3600 C 322.327 -1.77311 0.792103 0
M  V30 3601 O 321.602 -1.93492 -0.197793 0
M  V30 3602 C 321.885 -1.48367 3.28115 0
M  V30 3603 C 321.738 -0.501227 4.46999 0
M  V30 3604 C 323.057 -2.429 3.66998 0
M  V30 3605 H 320.176 -0.279971 0.681752 0
M  V30 3606 H 322.818 -0.0373616 1.89963 0
M  V30 3607 H 320.968 -2.11171 3.26097 0
M  V30 3608 H 322.64 0.121468 4.6114 0
M  V30 3609 H 320.883 0.183593 4.33411 0
M  V30 3610 H 321.554 -1.03526 5.42205 0
M  V30 3611 H 324.03 -1.90175 3.70098 0
M  V30 3612 H 322.906 -2.89549 4.66318 0
M  V30 3613 H 323.167 -3.27628 2.96837 0
M  V30 3614 N 322.226 -1.5378 -0.344866 0
M  V30 3615 C 323.173 -1.81676 -1.42346 0
M  V30 3616 C 324.143 -0.662376 -1.52321 0
M  V30 3617 O 325.328 -0.906675 -1.67881 0
M  V30 3618 C 322.468 -2.03087 -2.79015 0
M  V30 3619 C 321.581 -3.30799 -2.77842 0
M  V30 3620 C 320.716 -3.42285 -4.0622 0
M  V30 3621 C 319.755 -4.6395 -3.9927 0
M  V30 3622 N 318.892 -4.72477 -5.19336 0
M  V30 3623 H 323.732 -2.73703 -1.17858 0
M  V30 3624 H 321.269 -1.35568 -0.570949 0
M  V30 3625 H 323.227 -2.1349 -3.58438 0
M  V30 3626 H 321.857 -1.14375 -3.01858 0
M  V30 3627 H 320.909 -3.29244 -1.90533 0
M  V30 3628 H 322.221 -4.20314 -2.68584 0
M  V30 3629 H 321.375 -3.52113 -4.94066 0
M  V30 3630 H 320.114 -2.50823 -4.18258 0
M  V30 3631 H 319.119 -4.54201 -3.09809 0
M  V30 3632 H 320.344 -5.56775 -3.88817 0
M  V30 3633 H 318.29 -3.83924 -5.3192 0
M  V30 3634 H 318.207 -5.55927 -5.12329 0
M  V30 3635 H 319.475 -4.86613 -6.08957 0
M  V30 3636 N 323.704 0.605807 -1.45491 0
M  V30 3637 C 324.654 1.71074 -1.50724 0
M  V30 3638 C 325.638 1.5658 -0.37033 0
M  V30 3639 O 326.83 1.65887 -0.617299 0
M  V30 3640 C 323.959 3.0983 -1.47852 0
M  V30 3641 C 323.045 3.29704 -2.66751 0
M  V30 3642 N 323.436 3.19831 -3.91844 0
M  V30 3643 C 321.734 3.60579 -2.62486 0
M  V30 3644 C 322.435 3.41083 -4.71208 0
M  V30 3645 N 321.411 3.65157 -4.02693 0
M  V30 3646 H 325.213 1.61937 -2.45263 0
M  V30 3647 H 322.727 0.80912 -1.40808 0
M  V30 3648 H 324.724 3.89101 -1.49686 0
M  V30 3649 H 323.384 3.20115 -0.543714 0
M  V30 3650 H 324.395 2.98194 -4.23439 0
M  V30 3651 H 321.072 3.7769 -1.77922 0
M  V30 3652 H 322.462 3.38828 -5.80211 0
M  V30 3653 N 325.182 1.32811 0.848464 0
M  V30 3654 C 326.593 1.21315 1.41914 0
M  V30 3655 C 326.944 -0.171847 1.95446 0
M  V30 3656 O 326.069 -1.07093 1.88043 0
M  V30 3657 C 326.664 2.19631 2.57968 0
M  V30 3658 C 325.223 2.12003 3.11017 0
M  V30 3659 C 324.37 2.07651 1.83783 0
M  V30 3660 H 327.321 1.44549 0.655071 0
M  V30 3661 H 327.342 1.79845 3.35315 0
M  V30 3662 H 326.854 3.20423 2.18976 0
M  V30 3663 H 324.955 1.14481 3.54577 0
M  V30 3664 H 325.068 3.02111 3.71841 0
M  V30 3665 H 323.432 1.52983 2.03638 0
M  V30 3666 H 324.215 3.10235 1.47 0
M  V30 3667 N 326.66 -1.06551 1.16123 0
M  V30 3668 C 327.907 -1.79302 0.941126 0
M  V30 3669 C 328.235 -1.87105 -0.531235 0
M  V30 3670 O 327.49 -1.35692 -1.41018 0
M  V30 3671 C 327.789 -3.23911 1.51052 0
M  V30 3672 C 327.455 -3.36193 3.00475 0
M  V30 3673 C 326.117 -3.39252 3.41265 0
M  V30 3674 C 328.469 -3.38326 3.96465 0
M  V30 3675 C 325.797 -3.42057 4.76669 0
M  V30 3676 C 328.149 -3.4267 5.31752 0
M  V30 3677 C 326.813 -3.4401 5.72026 0
M  V30 3678 H 326.083 -0.656111 0.344382 0
M  V30 3679 H 328.73 -1.25325 1.44796 0
M  V30 3680 H 327.035 -3.80723 0.925063 0
M  V30 3681 H 328.732 -3.78793 1.31593 0
M  V30 3682 H 325.322 -3.34516 2.6795 0
M  V30 3683 H 329.506 -3.35176 3.6602 0
M  V30 3684 H 324.762 -3.41398 5.07206 0
M  V30 3685 H 328.936 -3.43268 6.05921 0
M  V30 3686 H 326.563 -3.45937 6.76928 0
M  V30 3687 N 328.138 -0.959301 -1.25041 0
M  V30 3688 C 329.068 -0.501388 -2.28053 0
M  V30 3689 C 330.049 0.454673 -1.63911 0
M  V30 3690 O 331.234 0.352618 -1.90972 0
M  V30 3691 C 328.364 0.217224 -3.4662 0
M  V30 3692 C 327.318 -0.654034 -4.22973 0
M  V30 3693 C 326.644 0.195589 -5.34342 0
M  V30 3694 C 327.944 -1.93447 -4.85155 0
M  V30 3695 H 329.638 -1.36238 -2.66608 0
M  V30 3696 H 327.184 -0.656534 -1.28163 0
M  V30 3697 H 329.137 0.548732 -4.17812 0
M  V30 3698 H 327.861 1.1125 -3.07068 0
M  V30 3699 H 326.52 -0.968693 -3.5357 0
M  V30 3700 H 326.168 1.09076 -4.91031 0
M  V30 3701 H 325.868 -0.384091 -5.86343 0
M  V30 3702 H 327.392 0.521958 -6.08365 0
M  V30 3703 H 328.806 -1.66908 -5.48466 0
M  V30 3704 H 327.203 -2.46018 -5.47353 0
M  V30 3705 H 328.273 -2.63466 -4.07079 0
M  V30 3706 N 329.616 1.39756 -0.72842 0
M  V30 3707 C 330.862 2.00942 -0.273892 0
M  V30 3708 C 331.195 1.57656 1.13394 0
M  V30 3709 O 330.47 0.802434 1.77176 0
M  V30 3710 C 330.753 3.58211 -0.368346 0
M  V30 3711 C 330.606 4.11534 -1.81548 0
M  V30 3712 C 331.925 4.39372 0.253054 0
M  V30 3713 H 329.044 0.730047 -0.100996 0
M  V30 3714 H 331.686 1.66056 -0.923337 0
M  V30 3715 H 329.836 3.88061 0.184588 0
M  V30 3716 H 331.508 3.92431 -2.42478 0
M  V30 3717 H 329.751 3.65341 -2.33898 0
M  V30 3718 H 330.422 5.20682 -1.83288 0
M  V30 3719 H 332.898 4.15527 -0.218224 0
M  V30 3720 H 331.774 5.48677 0.156585 0
M  V30 3721 H 332.035 4.21358 1.33826 0
M  V30 3722 N 331.094 0.475555 1.50254 0
M  V30 3723 C 332.342 -0.077738 2.0195 0
M  V30 3724 C 332.663 -1.39813 1.35931 0
M  V30 3725 O 331.933 -1.89249 0.506123 0
M  V30 3726 H 330.513 -0.031719 0.746326 0
M  V30 3727 H 333.175 0.626995 1.84539 0
M  V30 3728 H 332.271 -0.225995 3.11281 0
M  V30 3729 N 332.573 -1.56217 0.208337 0
M  V30 3730 C 333.503 -2.22694 -0.702116 0
M  V30 3731 C 334.484 -1.19432 -1.2112 0
M  V30 3732 O 335.669 -1.47978 -1.25762 0
M  V30 3733 C 332.799 -2.8966 -1.9161 0
M  V30 3734 C 331.753 -3.9928 -1.5414 0
M  V30 3735 C 331.079 -4.53476 -2.83308 0
M  V30 3736 C 332.379 -5.17012 -0.741339 0
M  V30 3737 H 334.073 -2.99034 -0.147898 0
M  V30 3738 H 331.619 -1.43831 -0.0696951 0
M  V30 3739 H 333.572 -3.34852 -2.55836 0
M  V30 3740 H 332.296 -2.10746 -2.49507 0
M  V30 3741 H 330.955 -3.54799 -0.922668 0
M  V30 3742 H 330.603 -3.71308 -3.39322 0
M  V30 3743 H 330.303 -5.27451 -2.58976 0
M  V30 3744 H 331.827 -5.01378 -3.485 0
M  V30 3745 H 333.241 -5.58667 -1.28699 0
M  V30 3746 H 331.638 -5.97137 -0.595627 0
M  V30 3747 H 332.708 -4.8423 0.254851 0
M  V30 3748 N 334.051 0.0651679 -1.57465 0
M  V30 3749 C 335.001 1.0838 -2.00594 0
M  V30 3750 C 335.985 1.34106 -0.889071 0
M  V30 3751 O 337.177 1.34295 -1.15299 0
M  V30 3752 C 334.306 2.39565 -2.45894 0
M  V30 3753 C 333.392 2.17085 -3.64328 0
M  V30 3754 N 333.783 1.64553 -4.78285 0
M  V30 3755 C 332.081 2.4753 -3.71006 0
M  V30 3756 C 332.782 1.57042 -5.60101 0
M  V30 3757 N 331.758 2.03328 -5.04141 0
M  V30 3758 H 335.56 0.671062 -2.86136 0
M  V30 3759 H 333.074 0.27213 -1.60104 0
M  V30 3760 H 335.071 3.13308 -2.75034 0
M  V30 3761 H 333.731 2.81549 -1.61741 0
M  V30 3762 H 334.742 1.33323 -5.00445 0
M  V30 3763 H 331.419 2.92835 -2.9758 0
M  V30 3764 H 332.809 1.17223 -6.61595 0
M  V30 3765 N 335.529 1.53961 0.336706 0
M  V30 3766 C 336.759 1.75229 1.09446 0
M  V30 3767 C 337.167 0.494602 1.82621 0
M  V30 3768 O 336.51 -0.543764 1.75468 0
M  V30 3769 C 336.572 2.88288 2.1478 0
M  V30 3770 C 336.236 4.27656 1.6112 0
M  V30 3771 C 337.233 5.08981 1.0599 0
M  V30 3772 C 334.918 4.74161 1.6576 0
M  V30 3773 C 336.912 6.34916 0.562129 0
M  V30 3774 C 334.599 6.00067 1.15595 0
M  V30 3775 C 335.597 6.80278 0.609147 0
M  V30 3776 O 335.285 8.03818 0.114999 0
M  V30 3777 H 335.017 0.588881 0.331956 0
M  V30 3778 H 337.571 2.01614 0.392566 0
M  V30 3779 H 335.801 2.57443 2.88548 0
M  V30 3780 H 337.49 2.97461 2.76174 0
M  V30 3781 H 338.256 4.74213 1.01722 0
M  V30 3782 H 334.135 4.11781 2.07261 0
M  V30 3783 H 337.679 6.9747 0.134668 0
M  V30 3784 H 333.576 6.3433 1.19566 0
M  V30 3785 H 334.344 8.18172 0.231651 0
M  V30 3786 N 337.007 -0.598083 1.45811 0
M  V30 3787 C 338.232 -1.3881 1.54099 0
M  V30 3788 C 338.657 -1.8726 0.177578 0
M  V30 3789 O 338.015 -1.6069 -0.839541 0
M  V30 3790 C 338.063 -2.56217 2.53743 0
M  V30 3791 O 337.167 -3.5716 2.06182 0
M  V30 3792 H 336.508 -0.414024 0.519115 0
M  V30 3793 H 339.038 -0.726971 1.91249 0
M  V30 3794 H 339.048 -3.03337 2.72856 0
M  V30 3795 H 337.723 -2.20303 3.5276 0
M  V30 3796 H 336.3 -3.16624 1.96987 0
M  V30 3797 N 338.485 -1.33259 -0.841409 0
M  V30 3798 C 339.732 -1.24572 -1.5965 0
M  V30 3799 C 340.06 0.189137 -1.93578 0
M  V30 3800 O 339.315 1.14566 -1.5866 0
M  V30 3801 C 339.614 -2.06381 -2.9179 0
M  V30 3802 C 339.28 -3.556 -2.77235 0
M  V30 3803 C 337.942 -3.96282 -2.72973 0
M  V30 3804 C 340.294 -4.50433 -2.62221 0
M  V30 3805 C 337.622 -5.30017 -2.51592 0
M  V30 3806 C 339.974 -5.84327 -2.42374 0
M  V30 3807 C 338.638 -6.24194 -2.36512 0
M  V30 3808 H 337.908 -0.455842 -0.5842 0
M  V30 3809 H 340.555 -1.6482 -0.975016 0
M  V30 3810 H 338.86 -1.58903 -3.5813 0
M  V30 3811 H 340.557 -1.97019 -3.49263 0
M  V30 3812 H 337.147 -3.23298 -2.81384 0
M  V30 3813 H 341.331 -4.19914 -2.64549 0
M  V30 3814 H 336.587 -5.59947 -2.45499 0
M  V30 3815 H 340.761 -6.57414 -2.29739 0
M  V30 3816 H 338.388 -7.27759 -2.19706 0
M  V30 3817 N 339.963 1.05934 -1.16686 0
M  V30 3818 C 340.895 2.13468 -0.834503 0
M  V30 3819 C 341.908 1.62013 0.15984 0
M  V30 3820 O 343.097 1.7838 -0.0654228 0
M  V30 3821 C 340.197 3.3817 -0.222361 0
M  V30 3822 C 339.37 4.18928 -1.25771 0
M  V30 3823 C 338.429 5.21985 -0.664703 0
M  V30 3824 O 337.455 5.53334 -1.33453 0
M  V30 3825 N 338.657 5.77919 0.546834 0
M  V30 3826 H 341.422 2.42578 -1.75999 0
M  V30 3827 H 338.983 1.21967 -1.06469 0
M  V30 3828 H 340.975 4.04266 0.187472 0
M  V30 3829 H 339.545 3.06655 0.606758 0
M  V30 3830 H 338.765 3.48433 -1.84358 0
M  V30 3831 H 340.053 4.69687 -1.95631 0
M  V30 3832 H 339.451 5.54721 1.10912 0
M  V30 3833 H 338.008 6.45573 0.898829 0
M  V30 3834 N 341.441 0.965919 1.2453 0
M  V30 3835 C 342.669 0.644385 1.96609 0
M  V30 3836 C 343.084 -0.785823 1.71669 0
M  V30 3837 O 342.441 -1.52703 0.999399 0
M  V30 3838 C 342.492 0.907375 3.49927 0
M  V30 3839 O 342.213 2.28136 3.74013 0
M  V30 3840 C 343.714 0.599784 4.39224 0
M  V30 3841 H 340.934 0.240588 0.626385 0
M  V30 3842 H 343.478 1.29337 1.58405 0
M  V30 3843 H 341.633 0.304631 3.862 0
M  V30 3844 H 342.047 2.36002 4.68405 0
M  V30 3845 H 343.521 0.834263 5.45659 0
M  V30 3846 H 343.998 -0.465921 4.36722 0
M  V30 3847 H 344.604 1.18235 4.08535 0
M  V30 3848 N 342.919 -1.39368 0.735821 0
M  V30 3849 C 344.147 -2.04795 0.294393 0
M  V30 3850 C 344.562 -1.55478 -1.07107 0
M  V30 3851 O 343.919 -0.720038 -1.67695 0
M  V30 3852 C 343.97 -3.6035 0.288071 0
M  V30 3853 O 343.691 -4.07852 1.59963 0
M  V30 3854 C 345.192 -4.42976 -0.169422 0
M  V30 3855 H 342.412 -0.658571 0.128551 0
M  V30 3856 H 344.956 -1.78399 0.999701 0
M  V30 3857 H 343.111 -3.85645 -0.368355 0
M  V30 3858 H 343.525 -5.02181 1.51375 0
M  V30 3859 H 344.999 -5.51864 -0.122687 0
M  V30 3860 H 345.476 -4.22068 -1.21472 0
M  V30 3861 H 346.082 -4.22832 0.457469 0
M  V30 3862 N 344.397 -0.483516 -1.5 0
M  V30 3863 C 345.307 0.309172 -2.32554 0
M  V30 3864 C 346.323 0.984159 -1.43493 0
M  V30 3865 O 347.499 0.969399 -1.76535 0
M  V30 3866 C 344.564 1.36979 -3.18493 0
M  V30 3867 C 343.625 0.710095 -4.23387 0
M  V30 3868 C 342.858 1.72018 -5.05218 0
M  V30 3869 O 343.081 2.94813 -4.88305 0
M  V30 3870 O 342.015 1.28515 -5.8802 0
M  V30 3871 H 345.841 -0.366064 -3.01486 0
M  V30 3872 H 343.426 -0.24514 -1.47375 0
M  V30 3873 H 345.308 1.98385 -3.71781 0
M  V30 3874 H 343.983 2.02828 -2.52275 0
M  V30 3875 H 342.89 0.0567539 -3.74057 0
M  V30 3876 H 344.223 0.0943557 -4.9211 0
M  V30 3877 N 345.875 1.56104 -0.216619 0
M  V30 3878 C 346.822 2.2007 0.695531 0
M  V30 3879 C 347.792 1.15471 1.19397 0
M  V30 3880 O 348.977 1.43807 1.25396 0
M  V30 3881 C 346.117 2.88073 1.90021 0
M  V30 3882 C 345.23 4.07253 1.44113 0
M  V30 3883 C 344.365 4.63052 2.603 0
M  V30 3884 C 343.404 5.74545 2.11103 0
M  V30 3885 N 342.541 6.24656 3.20545 0
M  V30 3886 H 347.381 2.97655 0.143327 0
M  V30 3887 H 344.918 1.46982 0.0589934 0
M  V30 3888 H 346.876 3.25681 2.60745 0
M  V30 3889 H 345.506 2.13015 2.42538 0
M  V30 3890 H 344.558 3.75164 0.628999 0
M  V30 3891 H 345.87 4.8783 1.04036 0
M  V30 3892 H 345.024 5.03078 3.39113 0
M  V30 3893 H 343.763 3.81628 3.03663 0
M  V30 3894 H 342.768 5.34027 1.3075 0
M  V30 3895 H 343.993 6.57801 1.68746 0
M  V30 3896 H 341.939 5.46148 3.63399 0
M  V30 3897 H 341.856 7.00343 2.84704 0
M  V30 3898 H 343.124 6.69338 3.99508 0
M  V30 3899 N 347.353 -0.0568162 1.57498 0
M  V30 3900 C 348.283 -1.06593 2.0775 0
M  V30 3901 C 349.264 -1.39448 0.974082 0
M  V30 3902 O 350.449 -1.48815 1.24771 0
M  V30 3903 C 347.579 -2.37509 2.5339 0
M  V30 3904 C 346.533 -2.1897 3.67745 0
M  V30 3905 C 345.859 -3.55402 3.99492 0
M  V30 3906 C 347.159 -1.59859 4.97235 0
M  V30 3907 H 348.853 -0.647706 2.9231 0
M  V30 3908 H 346.399 -0.310116 1.40621 0
M  V30 3909 H 348.352 -3.08409 2.87162 0
M  V30 3910 H 347.076 -2.8134 1.65878 0
M  V30 3911 H 345.735 -1.50508 3.3428 0
M  V30 3912 H 345.383 -3.9683 3.09088 0
M  V30 3913 H 345.083 -3.43831 4.76502 0
M  V30 3914 H 346.607 -4.27708 4.35773 0
M  V30 3915 H 348.021 -2.20642 5.29141 0
M  V30 3916 H 346.418 -1.58942 5.78669 0
M  V30 3917 H 347.488 -0.561506 4.81638 0
M  V30 3918 N 348.832 -1.54138 -0.328536 0
M  V30 3919 C 350.062 -1.75807 -1.08516 0
M  V30 3920 C 350.47 -0.50428 -1.82356 0
M  V30 3921 O 349.813 0.534451 -1.75754 0
M  V30 3922 C 349.875 -2.89423 -2.13248 0
M  V30 3923 C 349.539 -4.28504 -1.5885 0
M  V30 3924 C 350.536 -5.09536 -1.03289 0
M  V30 3925 C 348.221 -4.75034 -1.63243 0
M  V30 3926 C 350.215 -6.35206 -0.52845 0
M  V30 3927 C 347.902 -6.00672 -1.12411 0
M  V30 3928 C 348.9 -6.80592 -0.573062 0
M  V30 3929 O 348.588 -8.03867 -0.0723692 0
M  V30 3930 H 348.32 -0.590633 -0.328829 0
M  V30 3931 H 350.874 -2.01819 -0.381868 0
M  V30 3932 H 349.104 -2.5897 -2.87178 0
M  V30 3933 H 350.793 -2.98921 -2.74592 0
M  V30 3934 H 351.559 -4.74745 -0.99206 0
M  V30 3935 H 347.438 -4.12875 -2.05074 0
M  V30 3936 H 350.982 -6.97532 -0.0976774 0
M  V30 3937 H 346.879 -6.34955 -1.162 0
M  V30 3938 H 347.647 -8.18283 -0.188258 0
M  V30 3939 N 350.31 0.590341 -1.46126 0
M  V30 3940 C 351.557 1.34882 -1.5104 0
M  V30 3941 C 351.885 1.93849 -0.159021 0
M  V30 3942 O 351.14 1.76544 0.844436 0
M  V30 3943 C 351.439 2.5032 -2.55097 0
M  V30 3944 C 351.105 2.09394 -3.99331 0
M  V30 3945 C 349.767 1.97947 -4.38601 0
M  V30 3946 C 352.119 1.77712 -4.89967 0
M  V30 3947 C 349.447 1.53065 -5.66381 0
M  V30 3948 C 351.799 1.34312 -6.18177 0
M  V30 3949 C 350.463 1.21436 -6.56361 0
M  V30 3950 H 349.733 0.493568 -0.552695 0
M  V30 3951 H 352.38 0.665539 -1.79563 0
M  V30 3952 H 350.685 3.24062 -2.20207 0
M  V30 3953 H 352.382 3.08541 -2.56132 0
M  V30 3954 H 348.972 2.19235 -3.68285 0
M  V30 3955 H 353.156 1.85445 -4.60352 0
M  V30 3956 H 348.412 1.41733 -5.94745 0
M  V30 3957 H 352.586 1.08849 -6.87841 0
M  V30 3958 H 350.213 0.864345 -7.5527 0
M  V30 3959 N 351.788 1.33704 0.83433 0
M  V30 3960 C 353.034 1.25603 1.59222 0
M  V30 3961 C 353.367 -0.176659 1.93395 0
M  V30 3962 O 352.642 -1.11915 1.59076 0
M  V30 3963 C 352.925 2.13576 2.89926 0
M  V30 3964 C 352.778 3.65326 2.62406 0
M  V30 3965 C 354.097 2.01238 3.91397 0
M  V30 3966 H 351.216 0.457613 0.577719 0
M  V30 3967 H 353.858 1.63848 0.961972 0
M  V30 3968 H 352.008 1.8109 3.43713 0
M  V30 3969 H 353.68 4.08124 2.15017 0
M  V30 3970 H 351.923 3.8698 1.96033 0
M  V30 3971 H 352.594 4.22232 3.55562 0
M  V30 3972 H 355.07 2.29738 3.46929 0
M  V30 3973 H 353.946 2.65036 4.80673 0
M  V30 3974 H 354.207 0.985951 4.30966 0
M  V30 3975 N 353.266 -1.05314 1.17247 0
M  V30 3976 C 354.196 -2.1498 0.911362 0
M  V30 3977 C 355.177 -1.69471 -0.146169 0
M  V30 3978 O 356.362 -1.942 0.003812 0
M  V30 3979 C 353.492 -3.4472 0.422528 0
M  V30 3980 C 352.446 -4.03789 1.4191 0
M  V30 3981 C 351.772 -5.28858 0.788274 0
M  V30 3982 C 353.072 -4.41418 2.7919 0
M  V30 3983 H 354.766 -2.3708 1.82848 0
M  V30 3984 H 352.312 -1.13938 0.880569 0
M  V30 3985 H 354.265 -4.20787 0.227289 0
M  V30 3986 H 352.989 -3.22269 -0.530123 0
M  V30 3987 H 351.648 -3.2979 1.60106 0
M  V30 3988 H 351.296 -5.02709 -0.171173 0
M  V30 3989 H 350.996 -5.69338 1.45353 0
M  V30 3990 H 352.52 -6.07612 0.603282 0
M  V30 3991 H 353.934 -5.08524 2.64719 0
M  V30 3992 H 352.331 -4.92913 3.42282 0
M  V30 3993 H 353.401 -3.51819 3.33693 0
M  V30 3994 N 354.744 -0.972509 -1.24016 0
M  V30 3995 C 356.021 -0.553733 -1.87598 0
M  V30 3996 C 356.401 0.969158 -1.87538 0
M  V30 3997 O 355.749 1.84255 -1.35139 0
M  V30 3998 C 355.959 -1.15076 -3.29482 0
M  V30 3999 C 357.307 -1.23862 -4.06132 0
M  V30 4000 O 358.331 -1.10363 -3.38672 0
M  V30 4001 O 357.19 -1.45252 -5.26844 0
M  V30 4002 H 354.284 -0.185331 -0.805966 0
M  V30 4003 H 356.83 -1.06709 -1.31952 0
M  V30 4004 H 355.602 -2.19333 -3.2405 0
M  V30 4005 H 355.225 -0.621746 -3.92709 0
M  V30 4006 N 356.222 1.38976 -0.743202 0
M  V30 4007 C 357.469 2.00343 -0.294752 0
M  V30 4008 C 357.797 1.58983 1.12047 0
M  V30 4009 O 357.052 0.813809 1.77977 0
M  V30 4010 C 357.351 3.55647 -0.353517 0
M  V30 4011 C 357.017 4.16685 -1.72292 0
M  V30 4012 C 355.679 4.3307 -2.09771 0
M  V30 4013 C 358.031 4.50464 -2.62168 0
M  V30 4014 C 355.359 4.80526 -3.36618 0
M  V30 4015 C 357.711 4.99332 -3.88395 0
M  V30 4016 C 356.375 5.13924 -4.25956 0
M  V30 4017 H 355.645 0.733108 -0.107857 0
M  V30 4018 H 358.292 1.6618 -0.951651 0
M  V30 4019 H 356.597 3.89884 0.386954 0
M  V30 4020 H 358.294 4.00998 0.0117269 0
M  V30 4021 H 354.884 4.04339 -1.42155 0
M  V30 4022 H 359.068 4.37416 -2.3448 0
M  V30 4023 H 354.324 4.90008 -3.65653 0
M  V30 4024 H 358.498 5.2444 -4.58187 0
M  V30 4025 H 356.125 5.50457 -5.2431 0
M  V30 4026 N 357.7 0.491464 1.49741 0
M  V30 4027 C 358.946 -0.0565092 2.02721 0
M  V30 4028 C 359.279 -1.37522 1.37118 0
M  V30 4029 O 358.554 -1.87866 0.503645 0
M  V30 4030 C 358.837 -0.219051 3.59433 0
M  V30 4031 C 358.69 1.12211 4.35579 0
M  V30 4032 C 360.009 -0.964157 4.29409 0
M  V30 4033 H 357.128 -0.0190627 0.736753 0
M  V30 4034 H 359.77 0.641021 1.7886 0
M  V30 4035 H 357.92 -0.813165 3.79895 0
M  V30 4036 H 359.592 1.75437 4.26637 0
M  V30 4037 H 357.835 1.71377 3.98513 0
M  V30 4038 H 358.506 0.961794 5.43556 0
M  V30 4039 H 360.982 -0.460378 4.13545 0
M  V30 4040 H 359.858 -1.04671 5.38828 0
M  V30 4041 H 360.119 -2.00563 3.93988 0
M  V30 4042 N 359.178 -1.55987 0.224894 0
M  V30 4043 C 360.126 -2.21808 -0.700283 0
M  V30 4044 C 361.12 -1.19854 -1.19714 0
M  V30 4045 O 362.326 -1.37925 -1.15658 0
M  V30 4046 H 358.701 -0.711226 -0.244258 0
M  V30 4047 H 360.672 -2.98152 -0.121749 0
M  V30 4048 C 359.421 -2.91444 -1.8962 0
M  V30 4049 H 358.744 -3.69655 -1.52299 0
M  V30 4050 H 360.184 -3.40894 -2.52125 0
M  V30 4051 C 358.643 -1.94098 -2.75368 0
M  V30 4052 O 359.173 -1.46004 -3.74227 0
M  V30 4053 N 357.379 -1.61675 -2.41474 0
M  V30 4054 H 356.926 -2.00979 -1.61137 0
M  V30 4055 H 356.884 -0.968036 -2.99126 0
M  V30 4056 N 360.656 0.0484629 -1.57525 0
M  V30 4057 C 361.904 0.741657 -1.88 0
M  V30 4058 C 362.225 1.76918 -0.820054 0
M  V30 4059 O 361.495 1.95335 0.148661 0
M  V30 4060 H 360.075 0.276908 -0.69378 0
M  V30 4061 H 362.737 0.019013 -1.94891 0
M  V30 4062 H 361.833 1.24336 -2.86264 0
M  V30 4063 N 362.134 1.5431 0.320358 0
M  V30 4064 C 363.382 1.72327 1.05583 0
M  V30 4065 C 363.703 0.50149 1.88441 0
M  V30 4066 O 362.973 -0.48448 1.89815 0
M  V30 4067 H 361.553 0.635387 0.3928 0
M  V30 4068 H 364.215 1.91621 0.356019 0
M  V30 4069 H 363.311 2.60426 1.72003 0
M  V30 4070 N 363.613 -0.582584 1.46437 0
M  V30 4071 C 364.523 -1.71949 1.59595 0
M  V30 4072 C 365.539 -1.67264 0.479443 0
M  V30 4073 O 366.715 -1.87171 0.743579 0
M  V30 4074 C 363.78 -3.08452 1.58298 0
M  V30 4075 C 362.841 -3.244 2.81182 0
M  V30 4076 C 362.074 -4.54391 2.79937 0
M  V30 4077 O 362.297 -5.38287 1.8869 0
M  V30 4078 O 361.231 -4.73588 3.71481 0
M  V30 4079 H 365.057 -1.63795 2.55744 0
M  V30 4080 H 362.642 -0.749643 1.29231 0
M  V30 4081 H 364.524 -3.89732 1.60271 0
M  V30 4082 H 363.199 -3.17043 0.653094 0
M  V30 4083 H 362.106 -2.42613 2.84763 0
M  V30 4084 H 363.439 -3.20699 3.7338 0
M  V30 4085 N 365.091 -1.34144 -0.827227 0
M  V30 4086 C 366.021 -1.28005 -1.95287 0
M  V30 4087 C 367.002 -0.158321 -1.69362 0
M  V30 4088 O 368.187 -0.349987 -1.9102 0
M  V30 4089 C 365.317 -1.03036 -3.31664 0
M  V30 4090 C 364.271 -2.11628 -3.72019 0
M  V30 4091 C 363.597 -1.71854 -5.0633 0
M  V30 4092 C 364.897 -3.53417 -3.8457 0
M  V30 4093 H 366.591 -2.22187 -2.00682 0
M  V30 4094 H 364.137 -1.0696 -0.964135 0
M  V30 4095 H 366.09 -0.973863 -4.09993 0
M  V30 4096 H 364.814 -0.0529391 -3.26557 0
M  V30 4097 H 363.473 -2.16339 -2.95961 0
M  V30 4098 H 363.121 -0.727841 -4.97706 0
M  V30 4099 H 362.821 -2.44531 -5.34302 0
M  V30 4100 H 364.345 -1.67692 -5.87122 0
M  V30 4101 H 365.759 -3.51142 -4.5318 0
M  V30 4102 H 364.156 -4.24679 -4.2399 0
M  V30 4103 H 365.226 -3.91072 -2.86689 0
M  V30 4104 N 366.569 1.04691 -1.17803 0
M  V30 4105 C 367.816 1.77782 -0.969532 0
M  V30 4106 C 368.144 1.87926 0.501401 0
M  V30 4107 O 367.399 1.37918 1.38842 0
M  V30 4108 C 367.698 3.21467 -1.56186 0
M  V30 4109 C 367.364 3.3137 -3.05786 0
M  V30 4110 C 366.026 3.3378 -3.46619 0
M  V30 4111 C 368.378 3.31976 -4.01797 0
M  V30 4112 C 365.706 3.34431 -4.82051 0
M  V30 4113 C 368.058 3.34167 -5.37136 0
M  V30 4114 C 366.722 3.34866 -5.77426 0
M  V30 4115 H 365.992 0.650549 -0.354777 0
M  V30 4116 H 368.639 1.23006 -1.46772 0
M  V30 4117 H 366.944 3.79203 -0.985515 0
M  V30 4118 H 368.641 3.76652 -1.37602 0
M  V30 4119 H 365.231 3.3021 -2.73238 0
M  V30 4120 H 369.415 3.29311 -3.71306 0
M  V30 4121 H 364.671 3.33285 -5.12573 0
M  V30 4122 H 368.845 3.33585 -6.11305 0
M  V30 4123 H 366.472 3.35124 -6.82346 0
M  V30 4124 N 368.047 0.979072 1.23499 0
M  V30 4125 C 369.294 0.647219 1.91878 0
M  V30 4126 C 369.622 -0.819074 1.76413 0
M  V30 4127 O 368.877 -1.60616 1.11808 0
M  V30 4128 C 369.176 0.981932 3.43646 0
M  V30 4129 C 368.842 2.43822 3.79291 0
M  V30 4130 C 367.504 2.83622 3.88731 0
M  V30 4131 C 369.856 3.3828 3.96505 0
M  V30 4132 C 367.184 4.16897 4.12812 0
M  V30 4133 C 369.536 4.71197 4.22085 0
M  V30 4134 C 368.2 5.10758 4.29747 0
M  V30 4135 H 367.47 0.236834 0.702133 0
M  V30 4136 H 370.117 1.23268 1.46551 0
M  V30 4137 H 368.422 0.314365 3.90537 0
M  V30 4138 H 370.119 0.703395 3.94783 0
M  V30 4139 H 366.709 2.11966 3.72516 0
M  V30 4140 H 370.893 3.0871 3.88603 0
M  V30 4141 H 366.149 4.47157 4.16966 0
M  V30 4142 H 370.323 5.44348 4.34348 0
M  V30 4143 H 367.95 6.1405 4.48159 0
M  V30 4144 N 369.525 -1.3858 0.750561 0
M  V30 4145 C 370.475 -2.27795 0.0965949 0
M  V30 4146 C 371.459 -1.45048 -0.696411 0
M  V30 4147 O 372.651 -1.67812 -0.562863 0
M  V30 4148 C 369.78 -3.33894 -0.798085 0
M  V30 4149 C 368.866 -4.241 0.0016067 0
M  V30 4150 N 369.257 -4.95067 1.03647 0
M  V30 4151 C 367.555 -4.45429 -0.225674 0
M  V30 4152 C 368.256 -5.61489 1.52004 0
M  V30 4153 N 367.232 -5.37135 0.835874 0
M  V30 4154 H 371.034 -2.80125 0.889228 0
M  V30 4155 H 368.548 -1.51446 0.586323 0
M  V30 4156 H 370.545 -3.96693 -1.28219 0
M  V30 4157 H 369.205 -2.83123 -1.5897 0
M  V30 4158 H 370.216 -4.98104 1.41819 0
M  V30 4159 H 366.893 -4.05571 -0.990872 0
M  V30 4160 H 368.283 -6.28264 2.38188 0
M  V30 4161 N 371.003 -0.499398 -1.49478 0
M  V30 4162 C 371.933 0.269244 -2.31943 0
M  V30 4163 C 372.914 0.964054 -1.40143 0
M  V30 4164 O 374.099 0.955767 -1.69052 0
M  V30 4165 C 371.229 1.33504 -3.20615 0
M  V30 4166 C 370.183 0.760202 -4.21195 0
M  V30 4167 C 369.509 1.9264 -4.98792 0
M  V30 4168 C 370.809 -0.247661 -5.21712 0
M  V30 4169 H 372.503 -0.419082 -2.96452 0
M  V30 4170 H 370.049 -0.202988 -1.42562 0
M  V30 4171 H 372.002 1.88048 -3.77115 0
M  V30 4172 H 370.726 2.05253 -2.54045 0
M  V30 4173 H 369.385 0.23653 -3.65836 0
M  V30 4174 H 369.033 2.63154 -4.28671 0
M  V30 4175 H 368.733 1.54785 -5.66847 0
M  V30 4176 H 370.257 2.4762 -5.58137 0
M  V30 4177 H 371.671 0.209579 -5.72917 0
M  V30 4178 H 370.068 -0.541962 -5.97648 0
M  V30 4179 H 371.138 -1.16409 -4.7072 0
M  V30 4180 N 372.481 1.55866 -0.233164 0
M  V30 4181 C 373.413 2.18099 0.704668 0
M  V30 4182 C 374.426 1.15334 1.14899 0
M  V30 4183 O 375.615 1.42262 1.07814 0
M  V30 4184 C 372.715 2.7592 1.96777 0
M  V30 4185 C 371.888 4.03969 1.67713 0
M  V30 4186 C 370.947 4.46242 2.78845 0
M  V30 4187 O 369.973 5.12903 2.46818 0
M  V30 4188 N 371.175 4.12886 4.08051 0
M  V30 4189 H 373.94 2.99205 0.172258 0
M  V30 4190 H 371.501 1.61815 -0.0525945 0
M  V30 4191 H 373.493 3.01165 2.70337 0
M  V30 4192 H 372.063 1.99051 2.41034 0
M  V30 4193 H 371.283 3.86459 0.777391 0
M  V30 4194 H 372.571 4.8748 1.4574 0
M  V30 4195 H 371.969 3.59342 4.3691 0
M  V30 4196 H 370.526 4.42997 4.78118 0
M  V30 4197 N 373.959 -0.0401083 1.57549 0
M  V30 4198 C 375.375 -0.395556 1.54621 0
M  V30 4199 C 375.575 -1.77281 0.957799 0
M  V30 4200 O 374.631 -2.45888 0.574031 0
M  V30 4201 C 375.944 -0.307535 2.99123 0
M  V30 4202 C 377.492 -0.385425 3.10618 0
M  V30 4203 C 377.967 -0.326973 4.56831 0
M  V30 4204 N 379.458 -0.386102 4.61588 0
M  V30 4205 C 380.193 -0.363591 5.72246 0
M  V30 4206 N 379.689 -0.29402 6.92176 0
M  V30 4207 N 381.482 -0.412503 5.60584 0
M  V30 4208 H 373.633 0.861325 1.94152 0
M  V30 4209 H 375.896 0.326445 0.890021 0
M  V30 4210 H 375.602 0.638461 3.45856 0
M  V30 4211 H 375.476 -1.10552 3.60636 0
M  V30 4212 H 377.863 -1.32185 2.63839 0
M  V30 4213 H 377.944 0.44171 2.51957 0
M  V30 4214 H 377.588 0.605738 5.04275 0
M  V30 4215 H 377.518 -1.17207 5.13391 0
M  V30 4216 H 380.009 -0.442832 3.75296 0
M  V30 4217 H 380.322 -0.28164 7.72287 0
M  V30 4218 H 378.667 -0.260232 6.94513 0
M  V30 4219 H 381.858 -0.464769 4.65787 0
M  V30 4220 H 382.031 -0.391492 6.46816 0
M  V30 4221 N 375.437 -1.54477 -0.31217 0
M  V30 4222 C 376.347 -1.87695 -1.4074 0
M  V30 4223 C 377.363 -0.769975 -1.56036 0
M  V30 4224 O 378.539 -1.06537 -1.70915 0
M  V30 4225 C 375.604 -2.10755 -2.75287 0
M  V30 4226 C 374.665 -3.34514 -2.69071 0
M  V30 4227 C 373.898 -3.56465 -3.97201 0
M  V30 4228 O 374.121 -2.81637 -4.96021 0
M  V30 4229 O 373.055 -4.49964 -3.9977 0
M  V30 4230 H 376.881 -2.80849 -1.15574 0
M  V30 4231 H 374.466 -1.40526 -0.507228 0
M  V30 4232 H 376.348 -2.27188 -3.54913 0
M  V30 4233 H 375.023 -1.20788 -3.0032 0
M  V30 4234 H 373.93 -3.23456 -1.87955 0
M  V30 4235 H 375.263 -4.24575 -2.48992 0
M  V30 4236 N 376.915 0.57481 -1.46744 0
M  V30 4237 C 378.331 0.898981 -1.31873 0
M  V30 4238 C 378.531 1.99313 -0.29605 0
M  V30 4239 O 377.587 2.50728 0.298621 0
M  V30 4240 C 378.9 1.30886 -2.7072 0
M  V30 4241 C 380.448 1.42127 -2.78871 0
M  V30 4242 C 380.923 1.86478 -4.18318 0
M  V30 4243 N 382.414 1.93658 -4.20774 0
M  V30 4244 C 383.149 2.29267 -5.2557 0
M  V30 4245 N 382.645 2.63612 -6.40688 0
M  V30 4246 N 384.438 2.29889 -5.1294 0
M  V30 4247 H 376.589 -0.147839 -2.11885 0
M  V30 4248 H 378.852 -0.00347013 -0.947994 0
M  V30 4249 H 378.558 0.578853 -3.46904 0
M  V30 4250 H 378.432 2.26874 -3.01343 0
M  V30 4251 H 380.819 2.14213 -2.0297 0
M  V30 4252 H 380.9 0.443705 -2.51922 0
M  V30 4253 H 380.544 1.14968 -4.94717 0
M  V30 4254 H 380.474 2.85207 -4.42679 0
M  V30 4255 H 382.965 1.69574 -3.37718 0
M  V30 4256 H 383.278 2.89759 -7.16421 0
M  V30 4257 H 381.623 2.61232 -6.44036 0
M  V30 4258 H 384.814 2.02485 -4.22039 0
M  V30 4259 H 384.987 2.57312 -5.94722 0
M  V30 4260 N 378.394 1.34581 0.820102 0
M  V30 4261 C 379.619 1.30333 1.61332 0
M  V30 4262 C 380.044 -0.119339 1.87721 0
M  V30 4263 O 379.402 -1.08197 1.45475 0
M  V30 4264 C 379.45 2.10258 2.92957 0
M  V30 4265 O 378.554 1.47404 3.85157 0
M  V30 4266 H 377.895 0.447488 0.490561 0
M  V30 4267 H 380.425 1.77425 1.01889 0
M  V30 4268 H 380.435 2.21718 3.42498 0
M  V30 4269 H 379.11 3.13693 2.73074 0
M  V30 4270 H 377.687 1.44703 3.43679 0
M  V30 4271 N 379.872 -1.04064 1.18357 0
M  V30 4272 C 381.119 -1.77265 0.978947 0
M  V30 4273 C 381.447 -1.88189 -0.491428 0
M  V30 4274 O 380.702 -1.38653 -1.38108 0
M  V30 4275 C 381.001 -3.20634 1.57888 0
M  V30 4276 C 380.667 -3.29743 3.07539 0
M  V30 4277 C 379.329 -3.31937 3.48384 0
M  V30 4278 C 381.681 -3.29841 4.03552 0
M  V30 4279 C 379.009 -3.3187 4.83818 0
M  V30 4280 C 381.361 -3.31313 5.38901 0
M  V30 4281 C 380.025 -3.31799 5.79194 0
M  V30 4282 H 379.295 -0.648659 0.358222 0
M  V30 4283 H 381.942 -1.22225 1.47422 0
M  V30 4284 H 380.247 -3.78675 1.00561 0
M  V30 4285 H 381.944 -3.75917 1.39598 0
M  V30 4286 H 378.534 -3.28757 2.74986 0
M  V30 4287 H 382.718 -3.27337 3.73047 0
M  V30 4288 H 377.974 -3.30562 5.14333 0
M  V30 4289 H 382.148 -3.30338 6.13066 0
M  V30 4290 H 379.775 -3.315 6.84114 0
M  V30 4291 N 381.35 -0.985608 -1.22978 0
M  V30 4292 C 382.761 -0.693593 -1.73338 0
M  V30 4293 C 383.112 0.789935 -1.79595 0
M  V30 4294 O 382.237 1.61771 -1.43733 0
M  V30 4295 C 382.832 -1.25235 -3.14804 0
M  V30 4296 C 381.391 -1.00987 -3.626 0
M  V30 4297 C 380.538 -1.37695 -2.40698 0
M  V30 4298 H 383.489 -1.15884 -1.08428 0
M  V30 4299 H 383.51 -0.627329 -3.75293 0
M  V30 4300 H 383.022 -2.33209 -3.10218 0
M  V30 4301 H 381.123 0.0535565 -3.72562 0
M  V30 4302 H 381.236 -1.66812 -4.49122 0
M  V30 4303 H 379.6 -0.795459 -2.4196 0
M  V30 4304 H 380.383 -2.46657 -2.38779 0
M  V30 4305 N 382.828 1.3818 -0.7579 0
M  V30 4306 C 383.738 2.3421 -0.135247 0
M  V30 4307 C 384.754 1.59487 0.695683 0
M  V30 4308 O 385.93 1.91657 0.618832 0
M  V30 4309 C 382.995 3.3862 0.744139 0
M  V30 4310 C 382.056 4.2918 -0.101658 0
M  V30 4311 C 381.289 5.28603 0.735851 0
M  V30 4312 O 381.512 5.35166 1.97366 0
M  V30 4313 O 380.446 6.01707 0.152372 0
M  V30 4314 H 384.272 2.8916 -0.928436 0
M  V30 4315 H 381.857 1.40101 -0.518855 0
M  V30 4316 H 383.739 4.02539 1.2466 0
M  V30 4317 H 382.414 2.86019 1.51575 0
M  V30 4318 H 381.321 3.68407 -0.650167 0
M  V30 4319 H 382.654 4.85048 -0.836024 0
M  V30 4320 N 384.306 0.507319 1.49211 0
M  V30 4321 C 385.256 -0.287112 2.26185 0
M  V30 4322 C 386.24 -0.929983 1.31302 0
M  V30 4323 O 387.432 -0.836538 1.55984 0
M  V30 4324 C 384.561 -1.34718 3.15763 0
M  V30 4325 C 383.647 -0.710235 4.18111 0
M  V30 4326 N 384.038 0.190836 5.0544 0
M  V30 4327 C 382.336 -0.97009 4.35322 0
M  V30 4328 C 383.037 0.55606 5.79036 0
M  V30 4329 N 382.013 -0.0775232 5.43545 0
M  V30 4330 H 385.815 0.406445 2.91076 0
M  V30 4331 H 383.329 0.323814 1.59139 0
M  V30 4332 H 385.326 -1.92982 3.69545 0
M  V30 4333 H 383.986 -2.04235 2.52424 0
M  V30 4334 H 384.997 0.562047 5.14841 0
M  V30 4335 H 381.674 -1.65753 3.83187 0
M  V30 4336 H 383.064 1.2936 6.5933 0
M  V30 4337 N 385.784 -1.5574 0.241426 0
M  V30 4338 C 387.2 -1.59196 -0.113548 0
M  V30 4339 C 387.4 -1.25852 -1.57364 0
M  V30 4340 O 386.456 -1.00322 -2.31715 0
M  V30 4341 C 387.769 -2.99814 0.230695 0
M  V30 4342 C 389.317 -3.12513 0.174547 0
M  V30 4343 C 389.792 -4.55342 0.492744 0
M  V30 4344 N 391.283 -4.61076 0.443043 0
M  V30 4345 C 392.018 -5.6956 0.662484 0
M  V30 4346 N 391.514 -6.86328 0.944761 0
M  V30 4347 N 393.307 -5.58957 0.593564 0
M  V30 4348 H 385.458 -1.75685 1.19368 0
M  V30 4349 H 387.721 -0.81756 0.479896 0
M  V30 4350 H 387.427 -3.28932 1.24485 0
M  V30 4351 H 387.301 -3.74568 -0.444833 0
M  V30 4352 H 389.688 -2.83179 -0.830277 0
M  V30 4353 H 389.769 -2.40045 0.883845 0
M  V30 4354 H 389.413 -4.85396 1.4951 0
M  V30 4355 H 389.343 -5.26062 -0.23797 0
M  V30 4356 H 391.834 -3.77179 0.233374 0
M  V30 4357 H 392.147 -7.64935 1.09977 0
M  V30 4358 H 390.492 -6.88025 0.982175 0
M  V30 4359 H 393.683 -4.66611 0.373123 0
M  V30 4360 H 393.856 -6.43433 0.767981 0
M  V30 4361 N 387.262 0.0317525 -1.57568 0
M  V30 4362 C 388.225 1.01783 -2.0536 0
M  V30 4363 C 389.225 1.29203 -0.957253 0
M  V30 4364 O 390.415 1.24251 -1.22095 0
M  V30 4365 C 387.547 2.35137 -2.46827 0
M  V30 4366 H 388.74 0.605062 -2.93733 0
M  V30 4367 H 386.293 0.278514 -1.53799 0
M  V30 4368 H 387.028 2.81168 -1.61602 0
M  V30 4369 H 386.813 2.16566 -3.26866 0
M  V30 4370 H 388.303 3.05938 -2.84239 0
M  V30 4371 N 388.74 1.54641 0.303973 0
M  V30 4372 C 390.156 1.45788 0.649463 0
M  V30 4373 C 390.356 0.64666 1.90842 0
M  V30 4374 O 389.412 0.153183 2.52035 0
M  V30 4375 C 390.725 2.89718 0.805227 0
M  V30 4376 C 392.273 2.99742 0.901305 0
M  V30 4377 C 392.748 4.44863 1.08909 0
M  V30 4378 N 394.239 4.48559 1.15536 0
M  V30 4379 C 394.974 5.58026 1.3189 0
M  V30 4380 N 394.47 6.77422 1.45161 0
M  V30 4381 N 396.263 5.45708 1.34755 0
M  V30 4382 H 388.414 2.05854 -0.523237 0
M  V30 4383 H 390.677 0.932186 -0.172431 0
M  V30 4384 H 390.383 3.51666 -0.0489108 0
M  V30 4385 H 390.257 3.36964 1.69513 0
M  V30 4386 H 392.644 2.3791 1.74593 0
M  V30 4387 H 392.725 2.55797 -0.0125531 0
M  V30 4388 H 392.369 5.07288 0.249241 0
M  V30 4389 H 392.299 4.86436 2.01713 0
M  V30 4390 H 394.79 3.6254 1.06646 0
M  V30 4391 H 395.103 7.56604 1.57387 0
M  V30 4392 H 393.448 6.80292 1.42223 0
M  V30 4393 H 396.639 4.51378 1.23996 0
M  V30 4394 H 396.812 6.3107 1.47157 0
M  V30 4395 N 390.218 -0.567019 1.47046 0
M  V30 4396 C 391.465 -1.32462 1.53167 0
M  V30 4397 C 391.793 -1.93571 0.189841 0
M  V30 4398 O 391.048 -1.77865 -0.816243 0
M  V30 4399 C 391.347 -2.4623 2.59047 0
M  V30 4400 C 391.013 -2.03014 4.02612 0
M  V30 4401 C 389.675 -1.90944 4.41694 0
M  V30 4402 C 392.027 -1.69895 4.92732 0
M  V30 4403 C 389.355 -1.44035 5.68745 0
M  V30 4404 C 391.707 -1.2446 6.20236 0
M  V30 4405 C 390.371 -1.10979 6.5821 0
M  V30 4406 H 389.641 -0.484713 0.560477 0
M  V30 4407 H 392.288 -0.636888 1.80599 0
M  V30 4408 H 390.593 -3.20517 2.25335 0
M  V30 4409 H 392.29 -3.04427 2.61008 0
M  V30 4410 H 388.88 -2.13348 3.71726 0
M  V30 4411 H 393.064 -1.78098 4.63244 0
M  V30 4412 H 388.32 -1.32254 5.96925 0
M  V30 4413 H 392.494 -0.978924 6.89485 0
M  V30 4414 H 390.121 -0.744078 7.5655 0
M  V30 4415 N 391.696 -1.35014 -0.812953 0
M  V30 4416 C 392.926 -1.30841 -1.59888 0
M  V30 4417 C 393.334 0.117576 -1.88834 0
M  V30 4418 O 392.677 1.07807 -1.48739 0
M  V30 4419 C 392.739 -2.0412 -2.95931 0
M  V30 4420 C 392.403 -3.53336 -2.89832 0
M  V30 4421 C 393.4 -4.48052 -2.63714 0
M  V30 4422 C 391.085 -3.95894 -3.0915 0
M  V30 4423 C 393.079 -5.833 -2.56982 0
M  V30 4424 C 390.766 -5.31239 -3.0204 0
M  V30 4425 C 391.764 -6.24754 -2.75991 0
M  V30 4426 O 391.452 -7.57617 -2.68833 0
M  V30 4427 H 391.184 -0.451215 -0.50337 0
M  V30 4428 H 393.738 -1.78354 -1.01877 0
M  V30 4429 H 391.968 -1.51235 -3.559 0
M  V30 4430 H 393.657 -1.93107 -3.57022 0
M  V30 4431 H 394.423 -4.16492 -2.48515 0
M  V30 4432 H 390.302 -3.23495 -3.28438 0
M  V30 4433 H 393.846 -6.56263 -2.36569 0
M  V30 4434 H 389.743 -5.62415 -3.16796 0
M  V30 4435 H 390.511 -7.67469 -2.84487 0
M  V30 4436 N 393.175 1.03435 -1.18907 0
M  V30 4437 C 394.138 2.09756 -0.923844 0
M  V30 4438 C 395.138 1.60528 0.093416 0
M  V30 4439 O 396.328 1.73631 -0.140727 0
M  V30 4440 C 393.46 3.38692 -0.387354 0
M  V30 4441 H 394.653 2.34719 -1.86674 0
M  V30 4442 H 392.206 1.19959 -1.00197 0
M  V30 4443 H 392.941 3.19396 0.561845 0
M  V30 4444 H 392.726 3.75742 -1.12074 0
M  V30 4445 H 394.216 4.17016 -0.220694 0
M  V30 4446 N 394.653 0.992116 1.22453 0
M  V30 4447 C 395.616 0.546883 2.2258 0
M  V30 4448 C 396.616 -0.369829 1.56489 0
M  V30 4449 O 397.806 -0.161896 1.73446 0
M  V30 4450 C 394.938 -0.204659 3.40285 0
M  V30 4451 H 396.131 1.43234 2.63484 0
M  V30 4452 H 393.684 0.779239 1.3549 0
M  V30 4453 H 394.419 -1.10614 3.04853 0
M  V30 4454 H 394.204 0.45354 3.89468 0
M  V30 4455 H 395.694 -0.504358 4.14543 0
M  V30 4456 N 396.131 -1.37776 0.765217 0
M  V30 4457 C 397.041 -2.34135 0.147666 0
M  V30 4458 C 398.057 -1.59854 -0.687215 0
M  V30 4459 O 399.233 -1.91983 -0.608659 0
M  V30 4460 C 396.298 -3.3901 -0.72617 0
M  V30 4461 C 395.359 -4.2912 0.124417 0
M  V30 4462 C 394.592 -5.28986 -0.707807 0
M  V30 4463 O 394.815 -5.36205 -1.94525 0
M  V30 4464 O 393.749 -6.01779 -0.12046 0
M  V30 4465 H 397.575 -2.88664 0.943758 0
M  V30 4466 H 395.16 -1.39824 0.526277 0
M  V30 4467 H 397.042 -4.03195 -1.22524 0
M  V30 4468 H 395.717 -2.86819 -1.50056 0
M  V30 4469 H 394.624 -3.68057 0.669696 0
M  V30 4470 H 395.957 -4.84598 0.861736 0
M  V30 4471 N 397.609 -0.515225 -1.4894 0
M  V30 4472 C 398.858 0.0261361 -2.01683 0
M  V30 4473 C 399.171 1.36719 -1.39883 0
M  V30 4474 O 400.377 1.99606 -1.84037 0
M  V30 4475 C 398.833 0.0970111 -3.59769 0
M  V30 4476 C 398.441 -1.23825 -4.30548 0
M  V30 4477 C 400.185 0.587981 -4.20408 0
M  V30 4478 C 398.092 -1.12877 -5.80528 0
M  V30 4479 H 397.022 0.0135398 -0.753878 0
M  V30 4480 H 399.673 -0.656787 -1.71343 0
M  V30 4481 H 398.055 0.844694 -3.86886 0
M  V30 4482 H 399.229 -2.00034 -4.15118 0
M  V30 4483 H 397.544 -1.66379 -3.81716 0
M  V30 4484 H 400.141 0.68763 -5.3026 0
M  V30 4485 H 400.484 1.59026 -3.84729 0
M  V30 4486 H 401.017 -0.103582 -3.97665 0
M  V30 4487 H 397.756 -2.10575 -6.20756 0
M  V30 4488 H 397.276 -0.407799 -5.98412 0
M  V30 4489 H 398.955 -0.813332 -6.41868 0
M  V30 4490 N 399.087 1.5561 -0.249682 0
M  V30 4491 C 400.05 2.20217 0.635394 0
M  V30 4492 C 401.05 1.17227 1.10066 0
M  V30 4493 O 402.24 1.42292 1.00492 0
M  V30 4494 C 399.372 2.84794 1.87363 0
M  V30 4495 H 400.565 2.99814 0.0716752 0
M  V30 4496 H 398.118 1.563 -0.000153234 0
M  V30 4497 H 398.853 2.09142 2.47851 0
M  V30 4498 H 398.638 3.60241 1.5482 0
M  V30 4499 H 400.128 3.3423 2.5036 0
M  V30 4500 N 400.565 -0.0233959 1.57583 0
M  V30 4501 C 401.79 -0.728376 1.94189 0
M  V30 4502 C 402.215 -1.67793 0.850119 0
M  V30 4503 O 401.573 -1.80262 -0.19371 0
M  V30 4504 C 401.621 -1.45669 3.29868 0
M  V30 4505 O 400.725 -2.57013 3.22518 0
M  V30 4506 H 400.066 -0.195493 0.63457 0
M  V30 4507 H 402.596 0.0228214 2.04587 0
M  V30 4508 H 402.606 -1.82535 3.6489 0
M  V30 4509 H 401.281 -0.760314 4.08891 0
M  V30 4510 H 399.858 -2.22648 2.99136 0
M  V30 4511 N 402.043 -1.548 -0.295768 0
M  V30 4512 C 403.006 -1.85363 -1.34808 0
M  V30 4513 C 404.006 -0.726817 -1.43436 0
M  V30 4514 O 405.196 -0.995088 -1.42981 0
M  V30 4515 C 402.328 -2.03859 -2.73229 0
M  V30 4516 H 403.521 -2.7941 -1.08949 0
M  V30 4517 H 401.074 -1.46942 -0.532702 0
M  V30 4518 H 401.809 -1.12117 -3.04303 0
M  V30 4519 H 401.594 -2.8588 -2.68356 0
M  V30 4520 H 403.084 -2.28857 -3.49305 0
M  V30 4521 N 403.521 0.559213 -1.47345 0
M  V30 4522 C 404.451 1.67622 -1.62558 0
M  V30 4523 C 405.432 1.63331 -0.475087 0
M  V30 4524 O 406.617 1.80983 -0.704182 0
M  V30 4525 C 403.747 3.0626 -1.63774 0
M  V30 4526 C 402.701 3.25397 -2.7803 0
M  V30 4527 C 402.027 4.64801 -2.64318 0
M  V30 4528 C 403.327 3.10965 -4.19641 0
M  V30 4529 H 405.021 1.55146 -2.56067 0
M  V30 4530 H 402.567 0.744961 -1.23233 0
M  V30 4531 H 404.52 3.84247 -1.73008 0
M  V30 4532 H 403.244 3.1969 -0.66825 0
M  V30 4533 H 401.903 2.49817 -2.68304 0
M  V30 4534 H 401.551 4.75028 -1.65401 0
M  V30 4535 H 401.251 4.78555 -3.40968 0
M  V30 4536 H 402.775 5.44926 -2.75478 0
M  V30 4537 H 404.189 3.78772 -4.30354 0
M  V30 4538 H 402.586 3.36229 -4.97062 0
M  V30 4539 H 403.656 2.07736 -4.38148 0
M  V30 4540 N 404.999 1.35443 0.805782 0
M  V30 4541 C 406.247 1.28507 1.55982 0
M  V30 4542 C 406.568 -0.140046 1.94496 0
M  V30 4543 O 405.838 -1.07666 1.63661 0
M  V30 4544 H 404.418 0.472676 0.578434 0
M  V30 4545 H 407.08 1.69555 0.961098 0
M  V30 4546 H 406.176 1.90148 2.47488 0
M  V30 4547 N 406.477 -1.02803 1.19454 0
M  V30 4548 C 407.707 -1.79581 1.02149 0
M  V30 4549 C 408.115 -1.84182 -0.432851 0
M  V30 4550 O 407.458 -1.28534 -1.31243 0
M  V30 4551 C 407.52 -3.25993 1.51554 0
M  V30 4552 C 407.184 -3.45025 2.99678 0
M  V30 4553 C 408.181 -3.35175 3.97434 0
M  V30 4554 C 405.866 -3.71212 3.38389 0
M  V30 4555 C 407.86 -3.51238 5.31893 0
M  V30 4556 C 405.547 -3.8692 4.73008 0
M  V30 4557 C 406.545 -3.76936 5.69569 0
M  V30 4558 O 406.233 -3.92179 7.01748 0
M  V30 4559 H 405.965 -0.571962 0.360327 0
M  V30 4560 H 408.519 -1.30367 1.58725 0
M  V30 4561 H 406.749 -3.76235 0.893543 0
M  V30 4562 H 408.438 -3.84368 1.30444 0
M  V30 4563 H 409.204 -3.14895 3.68872 0
M  V30 4564 H 405.083 -3.78075 2.6378 0
M  V30 4565 H 408.627 -3.43362 6.07247 0
M  V30 4566 H 404.524 -4.06699 5.01265 0
M  V30 4567 H 405.292 -4.09265 7.08833 0
M  V30 4568 N 407.956 -0.998596 -1.21925 0
M  V30 4569 C 408.886 -0.573688 -2.26343 0
M  V30 4570 C 409.867 0.402296 -1.65274 0
M  V30 4571 O 411.052 0.291683 -1.91997 0
M  V30 4572 C 408.182 0.106839 -3.47136 0
M  V30 4573 C 407.136 -0.788269 -4.20678 0
M  V30 4574 C 406.462 0.0254927 -5.34694 0
M  V30 4575 C 407.762 -2.08784 -4.78755 0
M  V30 4576 H 409.456 -1.44651 -2.62138 0
M  V30 4577 H 407.002 -0.696975 -1.26009 0
M  V30 4578 H 408.955 0.415531 -4.19346 0
M  V30 4579 H 407.679 1.01424 -3.10452 0
M  V30 4580 H 406.338 -1.08069 -3.50309 0
M  V30 4581 H 405.986 0.933989 -4.94253 0
M  V30 4582 H 405.686 -0.570437 -5.84825 0
M  V30 4583 H 407.21 0.328147 -6.09718 0
M  V30 4584 H 408.624 -1.84272 -5.42878 0
M  V30 4585 H 407.021 -2.63307 -5.39249 0
M  V30 4586 H 408.091 -2.76284 -3.98491 0
M  V30 4587 N 409.434 1.37368 -0.772513 0
M  V30 4588 C 410.384 2.27613 -0.132823 0
M  V30 4589 C 411.368 1.46138 0.673247 0
M  V30 4590 O 412.56 1.68686 0.536095 0
M  V30 4591 C 409.689 3.35122 0.744864 0
M  V30 4592 C 408.775 4.24044 -0.0690771 0
M  V30 4593 N 409.166 4.93355 -1.1151 0
M  V30 4594 C 407.464 4.45731 0.154782 0
M  V30 4595 C 408.165 5.59 -1.60917 0
M  V30 4596 N 407.141 5.35737 -0.921222 0
M  V30 4597 H 410.943 2.78675 -0.933681 0
M  V30 4598 H 408.457 1.50494 -0.610342 0
M  V30 4599 H 410.454 3.98683 1.21892 0
M  V30 4600 H 409.114 2.85616 1.54446 0
M  V30 4601 H 410.125 4.95785 -1.49726 0
M  V30 4602 H 406.802 4.07096 0.926224 0
M  V30 4603 H 408.192 6.24395 -2.48153 0
M  V30 4604 N 410.912 0.523116 1.48665 0
M  V30 4605 C 412.137 -0.0117284 2.07397 0
M  V30 4606 C 412.562 -1.28031 1.37803 0
M  V30 4607 O 411.92 -1.75836 0.441762 0
M  V30 4608 C 411.968 -0.225786 3.59892 0
M  V30 4609 O 411.072 -1.29592 3.91509 0
M  V30 4610 H 410.413 0.0360673 0.66302 0
M  V30 4611 H 412.943 0.729066 1.9117 0
M  V30 4612 H 412.953 -0.450552 4.05505 0
M  V30 4613 H 411.628 0.700944 4.09951 0
M  V30 4614 H 410.205 -1.05436 3.57684 0
M  V30 4615 N 412.39 -1.55475 0.257931 0
M  V30 4616 C 413.639 -1.98383 -0.364275 0
M  V30 4617 C 413.952 -1.14952 -1.58258 0
M  V30 4618 O 415.158 -1.47924 -2.27664 0
M  V30 4619 C 413.614 -3.53037 -0.699479 0
M  V30 4620 C 413.222 -4.45223 0.498046 0
M  V30 4621 C 414.966 -4.04575 -1.28526 0
M  V30 4622 C 412.873 -5.91238 0.138383 0
M  V30 4623 H 411.803 -0.740911 -0.13988 0
M  V30 4624 H 414.454 -1.79936 0.359883 0
M  V30 4625 H 412.836 -3.6722 -1.48207 0
M  V30 4626 H 414.01 -4.42803 1.27522 0
M  V30 4627 H 412.325 -4.04226 0.999503 0
M  V30 4628 H 414.922 -5.11196 -1.56788 0
M  V30 4629 H 415.265 -3.5258 -2.21344 0
M  V30 4630 H 415.798 -3.93762 -0.565337 0
M  V30 4631 H 412.537 -6.47294 1.03398 0
M  V30 4632 H 412.057 -5.96768 -0.602374 0
M  V30 4633 H 413.736 -6.46413 -0.27553 0
M  V30 4634 N 413.868 0.0150385 -1.57593 0
M  V30 4635 C 414.815 1.01126 -2.07466 0
M  V30 4636 C 415.785 1.35064 -0.966794 0
M  V30 4637 O 416.97 1.4516 -1.23827 0
M  V30 4638 C 414.11 2.30276 -2.57035 0
M  V30 4639 C 413.223 2.02373 -3.81666 0
M  V30 4640 C 412.358 3.25496 -4.19793 0
M  V30 4641 C 411.397 2.93211 -5.37303 0
M  V30 4642 N 410.534 4.08826 -5.70794 0
M  V30 4643 H 415.374 0.57901 -2.92321 0
M  V30 4644 H 412.911 0.27426 -1.44521 0
M  V30 4645 H 414.869 3.05757 -2.83846 0
M  V30 4646 H 413.499 2.71197 -1.75077 0
M  V30 4647 H 412.551 1.17327 -3.61854 0
M  V30 4648 H 413.863 1.74567 -4.67256 0
M  V30 4649 H 413.017 4.09333 -4.47807 0
M  V30 4650 H 411.756 3.56428 -3.32882 0
M  V30 4651 H 410.761 2.07777 -5.09027 0
M  V30 4652 H 411.986 2.63542 -6.25877 0
M  V30 4653 H 409.932 4.39682 -4.86842 0
M  V30 4654 H 409.849 3.84491 -6.50924 0
M  V30 4655 H 411.117 4.93496 -6.03392 0
M  V30 4656 N 415.346 1.54954 0.287554 0
M  V30 4657 C 416.595 1.74081 1.01877 0
M  V30 4658 C 416.908 0.541135 1.87966 0
M  V30 4659 O 418.114 0.614491 2.64455 0
M  V30 4660 C 416.57 3.08042 1.86113 0
M  V30 4661 C 416.178 4.35531 1.04961 0
M  V30 4662 C 417.922 3.36523 2.58752 0
M  V30 4663 C 415.829 5.60538 1.88551 0
M  V30 4664 H 414.759 0.64884 0.384087 0
M  V30 4665 H 417.41 1.81426 0.275101 0
M  V30 4666 H 415.792 2.94696 2.64519 0
M  V30 4667 H 416.966 4.59751 0.31074 0
M  V30 4668 H 415.281 4.14085 0.43843 0
M  V30 4669 H 417.878 4.27122 3.21668 0
M  V30 4670 H 418.221 2.56 3.28283 0
M  V30 4671 H 418.754 3.50901 1.87386 0
M  V30 4672 H 415.493 6.43767 1.23466 0
M  V30 4673 H 415.013 5.40483 2.60074 0
M  V30 4674 H 416.692 5.98297 2.46273 0
M  V30 4675 N 416.824 -0.551391 1.4764 0
M  V30 4676 C 418.07 -1.31024 1.54792 0
M  V30 4677 C 418.403 -1.9304 0.211967 0
M  V30 4678 O 417.678 -1.78175 -0.77999 0
M  V30 4679 C 417.961 -2.41593 2.67029 0
M  V30 4680 C 417.814 -1.84408 4.10261 0
M  V30 4681 C 419.133 -3.43488 2.75143 0
M  V30 4682 H 416.252 -0.475031 0.563485 0
M  V30 4683 H 418.894 -0.616454 1.79722 0
M  V30 4684 H 417.044 -3.00772 2.45904 0
M  V30 4685 H 418.716 -1.29445 4.42766 0
M  V30 4686 H 416.959 -1.15051 4.18265 0
M  V30 4687 H 417.63 -2.64367 4.84576 0
M  V30 4688 H 420.106 -2.94236 2.94218 0
M  V30 4689 H 418.982 -4.18274 3.55441 0
M  V30 4690 H 419.243 -4.02703 1.82435 0
M  V30 4691 N 418.302 -1.35869 -0.798587 0
M  V30 4692 C 419.532 -1.32529 -1.58491 0
M  V30 4693 C 419.94 0.0975405 -1.88948 0
M  V30 4694 O 419.283 1.06224 -1.49874 0
M  V30 4695 C 419.345 -2.07247 -2.9375 0
M  V30 4696 C 419.009 -3.56391 -2.86068 0
M  V30 4697 C 420.006 -4.50824 -2.58947 0
M  V30 4698 C 417.691 -3.9915 -3.04933 0
M  V30 4699 C 419.685 -5.85993 -2.5078 0
M  V30 4700 C 417.372 -5.34413 -2.96389 0
M  V30 4701 C 418.37 -6.27646 -2.69349 0
M  V30 4702 O 418.058 -7.60426 -2.60782 0
M  V30 4703 H 417.79 -0.456529 -0.498556 0
M  V30 4704 H 420.344 -1.79425 -0.999799 0
M  V30 4705 H 418.574 -1.55001 -3.54276 0
M  V30 4706 H 420.263 -1.96883 -3.54954 0
M  V30 4707 H 421.029 -4.19104 -2.44084 0
M  V30 4708 H 416.908 -3.26961 -3.24989 0
M  V30 4709 H 420.452 -6.58735 -2.29595 0
M  V30 4710 H 416.349 -5.65743 -3.10813 0
M  V30 4711 H 417.117 -7.70444 -2.76331 0
M  V30 4712 N 419.78 1.02168 -1.19998 0
M  V30 4713 C 421.196 1.27969 -0.953737 0
M  V30 4714 C 421.396 1.98079 0.369703 0
M  V30 4715 O 420.452 2.27306 1.09947 0
M  V30 4716 C 421.765 2.11971 -2.13281 0
M  V30 4717 C 423.313 2.25255 -2.17323 0
M  V30 4718 C 423.788 3.12632 -3.34702 0
M  V30 4719 N 425.279 3.2022 -3.34684 0
M  V30 4720 C 426.014 3.88039 -4.22153 0
M  V30 4721 N 425.51 4.58027 -5.19791 0
M  V30 4722 N 427.303 3.84511 -4.10009 0
M  V30 4723 H 419.454 0.550794 -2.05134 0
M  V30 4724 H 421.717 0.305683 -0.897364 0
M  V30 4725 H 421.423 1.67785 -3.09097 0
M  V30 4726 H 421.297 3.12699 -2.10949 0
M  V30 4727 H 423.684 2.68667 -1.22073 0
M  V30 4728 H 423.765 1.24053 -2.23706 0
M  V30 4729 H 423.409 2.69926 -4.30235 0
M  V30 4730 H 423.339 4.13909 -3.25556 0
M  V30 4731 H 425.83 2.70382 -2.64012 0
M  V30 4732 H 426.143 5.07429 -5.82868 0
M  V30 4733 H 424.488 4.56869 -5.23733 0
M  V30 4734 H 427.679 3.28978 -3.33003 0
M  V30 4735 H 427.852 4.3709 -4.78389 0
M  V30 4736 N 421.258 1.00505 1.21394 0
M  V30 4737 C 422.535 0.603277 1.86064 0
M  V30 4738 C 422.915 -0.919095 1.90042 0
M  V30 4739 O 422.263 -1.80607 1.39977 0
M  V30 4740 C 422.473 1.23772 3.26315 0
M  V30 4741 C 423.821 1.34586 4.02705 0
M  V30 4742 O 424.845 1.19304 3.35626 0
M  V30 4743 O 423.704 1.59169 5.22807 0
M  V30 4744 H 420.798 0.206634 0.800769 0
M  V30 4745 H 423.344 1.1017 1.29076 0
M  V30 4746 H 422.116 2.27848 3.18121 0
M  V30 4747 H 421.739 0.725648 3.90922 0
M  V30 4748 N 422.737 -1.36956 0.779787 0
M  V30 4749 C 423.667 -2.32761 0.185651 0
M  V30 4750 C 424.648 -1.56177 -0.673989 0
M  V30 4751 O 425.833 -1.84378 -0.609797 0
M  V30 4752 C 422.963 -3.40418 -0.687964 0
M  V30 4753 C 421.917 -4.27941 0.0710102 0
M  V30 4754 C 421.243 -5.26681 -0.922573 0
M  V30 4755 C 422.543 -5.07006 1.25467 0
M  V30 4756 H 424.237 -2.82698 0.986008 0
M  V30 4757 H 421.783 -1.3592 0.475592 0
M  V30 4758 H 423.736 -4.06423 -1.11348 0
M  V30 4759 H 422.46 -2.89025 -1.52093 0
M  V30 4760 H 421.119 -3.63478 0.47739 0
M  V30 4761 H 420.767 -4.71565 -1.7503 0
M  V30 4762 H 420.467 -5.86103 -0.419237 0
M  V30 4763 H 421.991 -5.9556 -1.34686 0
M  V30 4764 H 423.405 -5.66105 0.905401 0
M  V30 4765 H 421.802 -5.75793 1.69063 0
M  V30 4766 H 422.872 -4.3921 2.05481 0
M  V30 4767 N 424.215 -0.530993 -1.48385 0
M  V30 4768 C 425.162 0.231223 -2.29639 0
M  V30 4769 C 426.132 0.932864 -1.37429 0
M  V30 4770 O 427.317 0.933692 -1.66394 0
M  V30 4771 C 424.457 1.27155 -3.2082 0
M  V30 4772 C 423.57 0.578655 -4.28107 0
M  V30 4773 C 422.705 1.602 -5.06467 0
M  V30 4774 C 421.744 0.892625 -6.05556 0
M  V30 4775 N 420.881 1.86157 -6.76971 0
M  V30 4776 H 425.721 -0.467848 -2.94305 0
M  V30 4777 H 423.258 -0.242556 -1.45086 0
M  V30 4778 H 425.216 1.88703 -3.72085 0
M  V30 4779 H 423.846 1.939 -2.58075 0
M  V30 4780 H 422.898 -0.150782 -3.80101 0
M  V30 4781 H 424.21 0.0217065 -4.98795 0
M  V30 4782 H 423.364 2.29173 -5.61751 0
M  V30 4783 H 422.103 2.19285 -4.35621 0
M  V30 4784 H 421.108 0.188829 -5.49476 0
M  V30 4785 H 422.333 0.307878 -6.78402 0
M  V30 4786 H 420.279 2.44147 -6.08875 0
M  V30 4787 H 420.196 1.35608 -7.43738 0
M  V30 4788 H 421.464 2.54325 -7.36844 0
M  V30 4789 N 425.693 1.55336 -0.266172 0
M  V30 4790 C 427.104 1.85236 0.233315 0
M  V30 4791 C 427.455 1.18816 1.56132 0
M  V30 4792 O 426.58 0.473307 2.11161 0
M  V30 4793 C 427.175 3.36059 0.430113 0
M  V30 4794 C 425.734 3.66116 0.873842 0
M  V30 4795 C 424.881 2.77274 -0.0380016 0
M  V30 4796 H 427.832 1.51004 -0.488214 0
M  V30 4797 H 427.853 3.58681 1.26998 0
M  V30 4798 H 427.365 3.84373 -0.536588 0
M  V30 4799 H 425.466 3.23295 1.85233 0
M  V30 4800 H 425.579 4.73699 0.717358 0
M  V30 4801 H 423.943 2.50198 0.476759 0
M  V30 4802 H 424.726 3.284 -1.00042 0
M  V30 4803 N 427.171 -0.0066808 1.57599 0
M  V30 4804 C 428.081 -1.01671 2.11424 0
M  V30 4805 C 429.097 -1.38143 1.05795 0
M  V30 4806 O 430.273 -1.47011 1.37658 0
M  V30 4807 C 427.338 -2.29192 2.60139 0
M  V30 4808 C 426.399 -1.99094 3.80342 0
M  V30 4809 C 425.632 -3.20535 4.26724 0
M  V30 4810 O 425.855 -4.3199 3.72479 0
M  V30 4811 O 424.789 -3.04924 5.18946 0
M  V30 4812 H 428.615 -0.589181 2.9793 0
M  V30 4813 H 426.2 -0.225091 1.47695 0
M  V30 4814 H 428.082 -3.0412 2.917 0
M  V30 4815 H 426.757 -2.71195 1.76733 0
M  V30 4816 H 425.664 -1.21663 3.53764 0
M  V30 4817 H 426.997 -1.61931 4.648 0
M  V30 4818 N 428.649 -1.55105 -0.279332 0
M  V30 4819 C 429.597 -1.88333 -1.36505 0
M  V30 4820 C 430.591 -0.759043 -1.51443 0
M  V30 4821 O 431.797 -0.943312 -1.53302 0
M  V30 4822 H 428.172 -0.59766 -0.456406 0
M  V30 4823 H 430.143 -2.79041 -1.05728 0
M  V30 4824 C 428.892 -2.16628 -2.7197 0
M  V30 4825 H 428.215 -3.02624 -2.61264 0
M  V30 4826 H 429.655 -2.43803 -3.46895 0
M  V30 4827 C 428.114 -0.971807 -3.22579 0
M  V30 4828 O 428.644 -0.203228 -4.01186 0
M  V30 4829 N 426.85 -0.771238 -2.80179 0
M  V30 4830 H 426.397 -1.39792 -2.1637 0
M  V30 4831 H 426.355 0.0263667 -3.14389 0
M  V30 4832 N 430.127 0.543554 -1.4793 0
M  V30 4833 C 431.376 1.29649 -1.54512 0
M  V30 4834 C 431.689 1.94382 -0.217973 0
M  V30 4835 O 432.895 2.71017 -0.161908 0
M  V30 4836 C 431.351 2.35175 -2.72435 0
M  V30 4837 C 430.959 1.76572 -4.11736 0
M  V30 4838 C 432.703 3.11564 -2.8832 0
M  V30 4839 C 430.61 2.79958 -5.20939 0
M  V30 4840 H 429.54 0.487541 -0.57517 0
M  V30 4841 H 432.191 0.575708 -1.74235 0
M  V30 4842 H 430.573 3.10229 -2.46118 0
M  V30 4843 H 431.747 1.07799 -4.48013 0
M  V30 4844 H 430.062 1.12722 -4.00852 0
M  V30 4845 H 432.659 3.88794 -3.67074 0
M  V30 4846 H 433.002 3.66594 -1.97268 0
M  V30 4847 H 433.535 2.43623 -3.14472 0
M  V30 4848 H 430.274 2.29766 -6.13912 0
M  V30 4849 H 429.794 3.47101 -4.89164 0
M  V30 4850 H 431.473 3.43198 -5.48474 0
M  V30 4851 N 431.605 1.3629 0.791371 0
M  V30 4852 C 432.535 1.33137 1.91825 0
M  V30 4853 C 433.516 0.203168 1.68882 0
M  V30 4854 O 434.701 0.400509 1.90025 0
M  V30 4855 C 431.831 1.11793 3.28816 0
M  V30 4856 C 430.785 2.21417 3.66277 0
M  V30 4857 C 430.111 1.85218 5.01596 0
M  V30 4858 C 431.411 3.63489 3.75064 0
M  V30 4859 H 433.105 2.2743 1.9472 0
M  V30 4860 H 430.651 1.09479 0.935437 0
M  V30 4861 H 432.604 1.08222 4.07266 0
M  V30 4862 H 431.328 0.139501 3.26302 0
M  V30 4863 H 429.987 2.2411 2.90121 0
M  V30 4864 H 429.635 0.859544 4.95602 0
M  V30 4865 H 429.335 2.58611 5.27631 0
M  V30 4866 H 430.859 1.832 5.82469 0
M  V30 4867 H 432.273 3.63034 4.43711 0
M  V30 4868 H 430.67 4.35771 4.12582 0
M  V30 4869 H 431.74 3.98536 2.76219 0
M  V30 4870 N 433.083 -1.0153 1.20538 0
M  V30 4871 C 434.013 -2.11972 0.979295 0
M  V30 4872 C 434.994 -1.6985 -0.0921787 0
M  V30 4873 O 436.179 -1.94089 0.0655932 0
M  V30 4874 C 433.309 -3.43201 0.531984 0
M  V30 4875 C 432.263 -3.9907 1.54685 0
M  V30 4876 C 431.589 -5.26082 0.956127 0
M  V30 4877 C 432.889 -4.32313 2.93092 0
M  V30 4878 H 434.583 -2.31143 1.90298 0
M  V30 4879 H 432.129 -1.11079 0.916372 0
M  V30 4880 H 434.082 -4.1985 0.361044 0
M  V30 4881 H 432.806 -3.23792 -0.427327 0
M  V30 4882 H 431.465 -3.2453 1.70517 0
M  V30 4883 H 431.113 -5.02999 -0.0111538 0
M  V30 4884 H 430.813 -5.64426 1.63393 0
M  V30 4885 H 432.337 -6.05386 0.796284 0
M  V30 4886 H 433.751 -4.99845 2.80763 0
M  V30 4887 H 432.148 -4.81774 3.57791 0
M  V30 4888 H 433.218 -3.41025 3.44717 0
M  V30 4889 N 434.561 -1.01147 -1.20859 0
M  V30 4890 C 435.838 -0.613136 -1.85742 0
M  V30 4891 C 436.218 0.909004 -1.90526 0
M  V30 4892 O 435.566 1.79862 -1.40932 0
M  V30 4893 C 435.776 -1.255 -3.25654 0
M  V30 4894 C 437.124 -1.3672 -4.01986 0
M  V30 4895 O 438.148 -1.21082 -3.34989 0
M  V30 4896 O 437.007 -1.6194 -5.21956 0
M  V30 4897 H 434.101 -0.210878 -0.799662 0
M  V30 4898 H 436.647 -1.10853 -1.2849 0
M  V30 4899 H 435.419 -2.29532 -3.16908 0
M  V30 4900 H 435.042 -0.746369 -3.90532 0
M  V30 4901 N 436.039 1.36541 -0.78704 0
M  V30 4902 C 437.264 2.0409 -0.369053 0
M  V30 4903 C 437.689 1.58957 1.00569 0
M  V30 4904 O 437.047 0.756926 1.64743 0
M  V30 4905 C 437.095 3.57924 -0.438466 0
M  V30 4906 O 436.199 4.08642 0.555479 0
M  V30 4907 H 435.54 0.645142 -0.157122 0
M  V30 4908 H 438.07 1.74545 -1.06749 0
M  V30 4909 H 438.08 4.06887 -0.301218 0
M  V30 4910 H 436.755 3.90127 -1.44132 0
M  V30 4911 H 435.332 3.70958 0.380088 0
M  V30 4912 N 437.518 0.538854 1.48102 0
M  V30 4913 C 438.764 0.00801365 2.02798 0
M  V30 4914 C 439.097 -1.3309 1.41424 0
M  V30 4915 O 438.372 -1.86169 0.563158 0
M  V30 4916 C 438.655 -0.104589 3.59948 0
M  V30 4917 C 438.508 1.26012 4.31788 0
M  V30 4918 C 439.827 -0.827055 4.32259 0
M  V30 4919 H 436.946 0.00438624 0.736987 0
M  V30 4920 H 439.588 0.6976 1.7673 0
M  V30 4921 H 437.738 -0.691893 3.82289 0
M  V30 4922 H 439.41 1.88922 4.2084 0
M  V30 4923 H 437.653 1.83968 3.92859 0
M  V30 4924 H 438.324 1.13424 5.40221 0
M  V30 4925 H 440.8 -0.328578 4.14801 0
M  V30 4926 H 439.676 -0.87476 5.41885 0
M  V30 4927 H 439.937 -1.87927 4.0017 0
M  V30 4928 N 438.996 -1.55193 0.274407 0
M  V30 4929 C 440.244 -1.99187 -0.341902 0
M  V30 4930 C 440.565 -1.16422 -1.56431 0
M  V30 4931 O 439.835 -0.253573 -1.94252 0
M  V30 4932 H 438.415 -0.735721 -0.129317 0
M  V30 4933 H 441.077 -1.91168 0.379578 0
M  V30 4934 H 440.173 -3.05629 -0.632253 0
M  V30 4935 N 440.474 -0.00167713 -1.576 0
M  V30 4936 C 441.424 0.997744 -2.0501 0
M  V30 4937 C 442.408 1.30214 -0.94515 0
M  V30 4938 O 443.6 1.29284 -1.20891 0
M  V30 4939 C 440.729 2.2892 -2.55833 0
M  V30 4940 C 439.815 2.01437 -3.73208 0
M  V30 4941 N 440.206 1.44119 -4.84833 0
M  V30 4942 C 438.504 2.31571 -3.8117 0
M  V30 4943 C 439.205 1.33145 -5.66257 0
M  V30 4944 N 438.181 1.81763 -5.12312 0
M  V30 4945 H 441.983 0.549098 -2.88725 0
M  V30 4946 H 439.497 0.20398 -1.61114 0
M  V30 4947 H 441.494 3.01361 -2.88075 0
M  V30 4948 H 440.154 2.74436 -1.73537 0
M  V30 4949 H 441.165 1.11978 -5.0565 0
M  V30 4950 H 437.842 2.7995 -3.09732 0
M  V30 4951 H 439.232 0.890567 -6.65972 0
M  V30 4952 N 441.952 1.55251 0.271103 0
M  V30 4953 C 443.198 1.76207 1.00394 0
M  V30 4954 C 443.531 0.562604 1.85872 0
M  V30 4955 O 442.806 -0.439785 1.89463 0
M  V30 4956 C 443.089 3.06828 1.8849 0
M  V30 4957 C 442.942 4.37134 1.05992 0
M  V30 4958 C 444.261 3.33503 2.87165 0
M  V30 4959 H 441.38 0.641086 0.363562 0
M  V30 4960 H 444.022 1.87982 0.276189 0
M  V30 4961 H 442.172 2.96921 2.5054 0
M  V30 4962 H 443.844 4.59001 0.459978 0
M  V30 4963 H 442.087 4.32275 0.363443 0
M  V30 4964 H 442.758 5.2486 1.70955 0
M  V30 4965 H 445.234 3.43215 2.3525 0
M  V30 4966 H 444.11 4.2616 3.45946 0
M  V30 4967 H 444.371 2.53235 3.62387 0
M  V30 4968 N 443.43 -0.535701 1.48216 0
M  V30 4969 C 444.676 -1.29375 1.56173 0
M  V30 4970 C 445.009 -1.92804 0.232429 0
M  V30 4971 O 444.284 -1.78992 -0.761048 0
M  V30 4972 C 444.567 -2.38747 2.69577 0
M  V30 4973 C 444.42 -1.80046 4.12193 0
M  V30 4974 C 445.739 -3.40551 2.78771 0
M  V30 4975 H 442.858 -0.469027 0.568491 0
M  V30 4976 H 445.5 -0.597358 1.80365 0
M  V30 4977 H 443.65 -2.98147 2.4908 0
M  V30 4978 H 445.322 -1.24742 4.44114 0
M  V30 4979 H 443.565 -1.10609 4.19462 0
M  V30 4980 H 444.236 -2.59212 4.87353 0
M  V30 4981 H 446.712 -2.91099 2.97322 0
M  V30 4982 H 445.588 -4.1448 3.59857 0
M  V30 4983 H 445.849 -4.00746 1.86696 0
M  V30 4984 N 444.908 -1.36708 -0.784132 0
M  V30 4985 C 445.838 -1.34153 -1.91116 0
M  V30 4986 C 446.819 -0.212121 -1.68772 0
M  V30 4987 O 448.004 -0.410581 -1.8981 0
M  V30 4988 C 445.134 -1.13535 -3.28218 0
M  V30 4989 C 444.088 -2.23356 -3.65097 0
M  V30 4990 C 443.414 -1.87875 -5.00607 0
M  V30 4991 C 444.714 -3.65473 -3.73131 0
M  V30 4992 H 446.408 -2.28459 -1.93512 0
M  V30 4993 H 443.954 -1.09973 -0.929618 0
M  V30 4994 H 445.907 -1.10381 -4.06687 0
M  V30 4995 H 444.631 -0.156804 -3.26223 0
M  V30 4996 H 443.29 -2.25645 -2.88929 0
M  V30 4997 H 442.938 -0.885814 -4.95139 0
M  V30 4998 H 442.638 -2.61406 -5.26252 0
M  V30 4999 H 444.162 -1.86286 -5.81489 0
M  V30 5000 H 445.576 -3.65382 -4.41779 0
M  V30 5001 H 443.973 -4.37953 -4.10265 0
M  V30 5002 H 445.043 -3.99995 -2.74102 0
M  V30 5003 N 446.386 1.0089 -1.21074 0
M  V30 5004 C 447.614 1.78191 -1.05145 0
M  V30 5005 C 448.029 1.84537 0.398952 0
M  V30 5006 O 447.386 1.30393 1.27687 0
M  V30 5007 C 447.437 3.22288 -1.63746 0
M  V30 5008 O 447.158 3.16315 -3.03111 0
M  V30 5009 C 448.659 4.16106 -1.52875 0
M  V30 5010 H 445.879 0.560129 -0.369454 0
M  V30 5011 H 448.423 1.26945 -1.60328 0
M  V30 5012 H 446.578 3.70655 -1.12664 0
M  V30 5013 H 446.992 4.06817 -3.31059 0
M  V30 5014 H 448.466 5.15026 -1.98626 0
M  V30 5015 H 448.943 4.36541 -0.482521 0
M  V30 5016 H 449.549 3.73625 -2.03185 0
M  V30 5017 N 447.864 1.01787 1.20321 0
M  V30 5018 C 449.141 0.622978 1.85414 0
M  V30 5019 C 449.521 -0.898887 1.91006 0
M  V30 5020 O 448.869 -1.79112 1.41884 0
M  V30 5021 C 449.079 1.27226 3.24984 0
M  V30 5022 C 450.427 1.3885 4.01255 0
M  V30 5023 O 451.451 1.22857 3.34342 0
M  V30 5024 O 450.31 1.64705 5.2109 0
M  V30 5025 H 447.404 0.215116 0.798533 0
M  V30 5026 H 449.95 1.11533 1.27901 0
M  V30 5027 H 448.722 2.31209 3.15687 0
M  V30 5028 H 448.345 0.767069 3.90131 0
M  V30 5029 N 449.342 -1.36122 0.79427 0
M  V30 5030 C 450.589 -1.99111 0.368905 0
M  V30 5031 C 450.917 -1.63032 -1.0607 0
M  V30 5032 O 450.172 -0.879303 -1.74833 0
M  V30 5033 C 450.471 -3.5409 0.48527 0
M  V30 5034 C 450.137 -4.10003 1.87638 0
M  V30 5035 C 448.799 -4.24986 2.257 0
M  V30 5036 C 451.151 -4.40423 2.78706 0
M  V30 5037 C 448.479 -4.67701 3.54221 0
M  V30 5038 C 450.831 -4.84573 4.0666 0
M  V30 5039 C 449.495 -4.97761 4.44737 0
M  V30 5040 H 448.765 -0.7286 0.134992 0
M  V30 5041 H 451.412 -1.62534 1.01267 0
M  V30 5042 H 449.717 -3.91052 -0.241984 0
M  V30 5043 H 451.414 -4.00766 0.137109 0
M  V30 5044 H 448.004 -3.98784 1.57064 0
M  V30 5045 H 452.188 -4.28412 2.50553 0
M  V30 5046 H 447.444 -4.761 3.83587 0
M  V30 5047 H 451.618 -5.07074 4.77336 0
M  V30 5048 H 449.245 -5.30618 5.44379 0
M  V30 5049 N 450.82 -0.546701 -1.47814 0
M  V30 5050 C 452.068 -0.0187037 -2.02091 0
M  V30 5051 C 452.389 1.33168 -1.42447 0
M  V30 5052 O 451.659 1.86619 -0.595839 0
M  V30 5053 H 450.239 -0.00392531 -0.74699 0
M  V30 5054 H 452.901 -0.714327 -1.81338 0
M  V30 5055 H 451.997 0.0772219 -3.12004 0
M  V30 5056 N 452.299 1.55045 -0.282633 0
M  V30 5057 C 453.229 2.2579 0.595066 0
M  V30 5058 C 454.21 1.25074 1.15284 0
M  V30 5059 O 455.395 1.5381 1.18559 0
M  V30 5060 C 452.525 2.98472 1.77572 0
M  V30 5061 C 451.479 4.0618 1.34914 0
M  V30 5062 C 450.805 4.66477 2.6135 0
M  V30 5063 C 452.105 5.1996 0.493821 0
M  V30 5064 H 453.799 2.994 0.00505653 0
M  V30 5065 H 451.345 1.44 0.000992001 0
M  V30 5066 H 453.298 3.46677 2.39568 0
M  V30 5067 H 452.022 2.2241 2.39168 0
M  V30 5068 H 450.681 3.58797 0.752338 0
M  V30 5069 H 450.329 3.87074 3.2122 0
M  V30 5070 H 450.029 5.39207 2.33516 0
M  V30 5071 H 451.553 5.17435 3.24181 0
M  V30 5072 H 452.967 5.64172 1.01898 0
M  V30 5073 H 451.364 5.99299 0.310047 0
M  V30 5074 H 452.434 4.82462 -0.485593 0
M  V30 5075 N 453.777 0.010035 1.57597 0
M  V30 5076 C 455.017 -0.677084 1.9286 0
M  V30 5077 C 455.381 -1.70377 0.885192 0
M  V30 5078 O 456.582 -2.44199 1.12339 0
M  V30 5079 C 454.853 -1.29452 3.33132 0
M  V30 5080 S 456.412 -2.00537 3.90295 0
M  V30 5081 H 453.23 -0.223409 0.674989 0
M  V30 5082 H 455.832 0.0691289 1.95378 0
M  V30 5083 H 454.536 -0.534593 4.06903 0
M  V30 5084 H 454.067 -2.07845 3.34012 0
M  V30 5085 H 456.082 -3.28168 3.72183 0
M  V30 5086 N 455.255 -1.55392 -0.262866 0
M  V30 5087 C 456.202 -1.88966 -1.32516 0
M  V30 5088 C 457.172 -0.742187 -1.48596 0
M  V30 5089 O 458.357 -0.99439 -1.62839 0
M  V30 5090 C 455.497 -2.17592 -2.67858 0
M  V30 5091 C 454.61 -3.45061 -2.59917 0
M  V30 5092 C 453.745 -3.63336 -3.87505 0
M  V30 5093 C 452.784 -4.84462 -3.74116 0
M  V30 5094 N 451.921 -4.99342 -4.93561 0
M  V30 5095 H 456.761 -2.79566 -1.03184 0
M  V30 5096 H 454.298 -1.38404 -0.498285 0
M  V30 5097 H 456.256 -2.3219 -3.46617 0
M  V30 5098 H 454.886 -1.30215 -2.95371 0
M  V30 5099 H 453.938 -3.38881 -1.72812 0
M  V30 5100 H 455.25 -4.3396 -2.45926 0
M  V30 5101 H 454.404 -3.77807 -4.74707 0
M  V30 5102 H 453.143 -2.72641 -4.04374 0
M  V30 5103 H 452.148 -4.69985 -2.85297 0
M  V30 5104 H 453.373 -5.76603 -3.58757 0
M  V30 5105 H 451.319 -4.1158 -5.10821 0
M  V30 5106 H 451.236 -5.82303 -4.82141 0
M  V30 5107 H 452.504 -5.18208 -5.82306 0
M  V30 5108 N 456.733 0.527833 -1.48498 0
M  V30 5109 C 457.643 1.65907 -1.65867 0
M  V30 5110 C 458.659 1.6537 -0.541192 0
M  V30 5111 O 459.835 1.84282 -0.812534 0
M  V30 5112 C 456.9 3.02364 -1.69637 0
M  V30 5113 C 455.961 3.1374 -2.93028 0
M  V30 5114 C 455.194 4.43688 -2.96609 0
M  V30 5115 O 455.417 5.30913 -2.08538 0
M  V30 5116 O 454.351 4.59475 -3.88802 0
M  V30 5117 H 458.177 1.5419 -2.61647 0
M  V30 5118 H 455.762 0.701163 -1.31924 0
M  V30 5119 H 457.644 3.83515 -1.74625 0
M  V30 5120 H 456.319 3.14401 -0.770312 0
M  V30 5121 H 455.226 2.31877 -2.93571 0
M  V30 5122 H 456.559 3.06621 -3.85026 0
M  V30 5123 N 458.211 1.37122 0.776871 0
M  V30 5124 C 459.459 1.31787 1.53221 0
M  V30 5125 C 459.78 -0.0987589 1.9475 0
M  V30 5126 O 459.05 -1.0417 1.65908 0
M  V30 5127 H 457.63 0.484839 0.568278 0
M  V30 5128 H 460.292 1.71556 0.924917 0
M  V30 5129 H 459.388 1.95355 2.43398 0
M  V30 5130 N 459.689 -1.00246 1.21608 0
M  V30 5131 C 460.938 -1.73476 1.02902 0
M  V30 5132 C 461.251 -1.90643 -0.437561 0
M  V30 5133 O 462.457 -2.61105 -0.74407 0
M  V30 5134 C 460.913 -3.12079 1.79261 0
M  V30 5135 C 460.521 -3.02877 3.30106 0
M  V30 5136 C 462.265 -3.89421 1.68972 0
M  V30 5137 C 460.172 -4.36575 3.98944 0
M  V30 5138 H 459.102 -0.650408 0.381425 0
M  V30 5139 H 461.753 -1.11985 1.45367 0
M  V30 5140 H 460.135 -3.74196 1.2959 0
M  V30 5141 H 461.309 -2.49983 3.87098 0
M  V30 5142 H 459.624 -2.39022 3.40965 0
M  V30 5143 H 462.221 -4.88362 2.17731 0
M  V30 5144 H 462.564 -4.1122 0.648397 0
M  V30 5145 H 463.097 -3.33963 2.16133 0
M  V30 5146 H 459.836 -4.19978 5.03288 0
M  V30 5147 H 459.356 -4.8942 3.4674 0
M  V30 5148 H 461.035 -5.05364 4.04 0
M  V30 5149 N 461.167 -1.02423 -1.1978 0
M  V30 5150 C 462.13 -0.605703 -2.21052 0
M  V30 5151 C 463.13 0.328209 -1.57415 0
M  V30 5152 O 464.32 0.115853 -1.73814 0
M  V30 5153 C 461.452 0.114366 -3.40708 0
M  V30 5154 H 462.645 -1.5017 -2.59594 0
M  V30 5155 H 460.198 -0.814888 -1.33376 0
M  V30 5156 H 460.933 1.02492 -3.07678 0
M  V30 5157 H 460.718 -0.556641 -3.88129 0
M  V30 5158 H 462.208 0.394272 -4.15735 0
M  V30 5159 N 462.645 1.35699 -0.801477 0
M  V30 5160 C 463.894 1.98165 -0.375979 0
M  V30 5161 C 464.207 1.64306 1.06127 0
M  V30 5162 O 465.413 2.20097 1.58964 0
M  V30 5163 C 463.869 3.54497 -0.621305 0
M  V30 5164 C 463.477 3.9727 -2.07076 0
M  V30 5165 C 465.221 4.23697 -0.26091 0
M  V30 5166 C 463.128 5.46427 -2.26211 0
M  V30 5167 H 462.058 0.741478 -0.136844 0
M  V30 5168 H 464.709 1.54834 -0.984814 0
M  V30 5169 H 463.091 3.95958 0.0574112 0
M  V30 5170 H 464.265 3.66974 -2.78687 0
M  V30 5171 H 462.58 3.40943 -2.39054 0
M  V30 5172 H 465.177 5.33334 -0.381994 0
M  V30 5173 H 465.52 4.0869 0.792344 0
M  V30 5174 H 466.053 3.87639 -0.893339 0
M  V30 5175 H 462.792 5.66396 -3.29963 0
M  V30 5176 H 462.312 5.78309 -1.59119 0
M  V30 5177 H 463.991 6.12819 -2.07513 0
M  V30 5178 N 464.123 0.554532 1.47522 0
M  V30 5179 C 465.348 0.0322661 2.07375 0
M  V30 5180 C 465.773 -1.25079 1.40488 0
M  V30 5181 O 465.131 -1.74859 0.47896 0
M  V30 5182 C 465.179 -0.149397 3.6029 0
M  V30 5183 O 464.283 -1.21259 3.9417 0
M  V30 5184 H 463.624 0.0501228 0.662106 0
M  V30 5185 H 466.154 0.769452 1.8958 0
M  V30 5186 H 466.164 -0.364437 4.06369 0
M  V30 5187 H 464.839 0.787743 4.08372 0
M  V30 5188 H 463.416 -0.97825 3.5984 0
M  V30 5189 N 465.601 -1.54893 0.290851 0
M  V30 5190 C 466.878 -1.91991 -0.373989 0
M  V30 5191 C 467.258 -1.21694 -1.72493 0
M  V30 5192 O 466.606 -0.34917 -2.25816 0
M  V30 5193 C 466.816 -3.45419 -0.498703 0
M  V30 5194 C 468.164 -4.1748 -0.774298 0
M  V30 5195 O 469.188 -3.51398 -0.582908 0
M  V30 5196 O 468.047 -5.3445 -1.14129 0
M  V30 5197 H 465.141 -0.800593 -0.207315 0
M  V30 5198 H 467.687 -1.66297 0.338164 0
M  V30 5199 H 466.459 -3.88688 0.451392 0
M  V30 5200 H 466.082 -3.77117 -1.25972 0
M  V30 5201 N 467.08 -0.0183926 -1.57589 0
M  V30 5202 C 468.308 0.673046 -1.95647 0
M  V30 5203 C 468.723 1.66275 -0.894312 0
M  V30 5204 O 468.08 1.82072 0.124975 0
M  V30 5205 C 468.131 1.38884 -3.33756 0
M  V30 5206 O 467.852 0.438806 -4.35897 0
M  V30 5207 C 469.353 2.1731 -3.86383 0
M  V30 5208 H 466.573 0.186292 -0.644621 0
M  V30 5209 H 469.117 -0.0749748 -2.04363 0
M  V30 5210 H 467.272 2.08835 -3.26293 0
M  V30 5211 H 467.686 0.945869 -5.15901 0
M  V30 5212 H 469.16 2.62863 -4.85394 0
M  V30 5213 H 469.637 3.00764 -3.20059 0
M  V30 5214 H 470.243 1.52339 -3.97081 0
M  V30 5215 N 468.558 1.5553 0.254621 0
M  V30 5216 C 469.786 1.81046 1.00149 0
M  V30 5217 C 470.201 0.593047 1.79244 0
M  V30 5218 O 469.558 -0.438196 1.77161 0
M  V30 5219 C 469.609 3.04684 1.94551 0
M  V30 5220 O 469.33 4.21725 1.18658 0
M  V30 5221 C 470.831 3.42943 2.80901 0
M  V30 5222 H 468.051 0.602653 0.295044 0
M  V30 5223 H 470.595 2.02576 0.279842 0
M  V30 5224 H 468.75 2.85226 2.62154 0
M  V30 5225 H 469.164 4.91746 1.82445 0
M  V30 5226 H 470.638 4.32576 3.42902 0
M  V30 5227 H 471.115 2.63176 3.51617 0
M  V30 5228 H 471.721 3.64724 2.18762 0
M  V30 5229 N 470.036 -0.519951 1.48776 0
M  V30 5230 C 471.264 -1.29971 1.60982 0
M  V30 5231 C 471.679 -1.86803 0.273885 0
M  V30 5232 O 471.036 -1.66904 -0.738193 0
M  V30 5233 C 471.087 -2.44346 2.66415 0
M  V30 5234 O 470.808 -1.89855 3.94825 0
M  V30 5235 C 472.309 -3.36014 2.89153 0
M  V30 5236 H 469.529 -0.394891 0.542496 0
M  V30 5237 H 472.073 -0.626214 1.94676 0
M  V30 5238 H 470.228 -3.07562 2.35552 0
M  V30 5239 H 470.642 -2.64798 4.5275 0
M  V30 5240 H 472.116 -4.12593 3.66703 0
M  V30 5241 H 472.593 -3.91859 1.98351 0
M  V30 5242 H 473.199 -2.78582 3.21359 0
M  V30 5243 N 471.514 -1.37532 -0.769588 0
M  V30 5244 C 472.742 -1.36059 -1.55871 0
M  V30 5245 C 473.157 0.053544 -1.88724 0
M  V30 5246 O 472.514 1.01591 -1.5161 0
M  V30 5247 C 472.565 -2.20107 -2.86767 0
M  V30 5248 O 472.286 -3.56009 -2.55321 0
M  V30 5249 C 473.787 -2.26636 -3.80987 0
M  V30 5250 H 471.007 -0.465967 -0.482821 0
M  V30 5251 H 473.551 -1.80901 -0.953686 0
M  V30 5252 H 471.706 -1.78768 -3.43687 0
M  V30 5253 H 472.12 -4.0009 -3.39158 0
M  V30 5254 H 473.594 -2.89763 -4.69831 0
M  V30 5255 H 474.071 -1.2754 -4.20274 0
M  V30 5256 H 474.677 -2.68296 -3.29996 0
M  V30 5257 N 472.992 0.995999 -1.22138 0
M  V30 5258 C 474.239 1.7351 -1.04406 0
M  V30 5259 C 474.567 1.89884 0.421244 0
M  V30 5260 O 473.822 1.43683 1.32867 0
M  V30 5261 C 474.121 3.14553 -1.6968 0
M  V30 5262 C 473.787 3.18102 -3.19565 0
M  V30 5263 C 472.449 3.18778 -3.60464 0
M  V30 5264 C 474.801 3.14636 -4.15516 0
M  V30 5265 C 472.129 3.13684 -4.95801 0
M  V30 5266 C 474.481 3.11084 -5.50826 0
M  V30 5267 C 473.145 3.10074 -5.91109 0
M  V30 5268 H 472.415 0.634916 -0.38205 0
M  V30 5269 H 475.062 1.1667 -1.51857 0
M  V30 5270 H 473.367 3.74682 -1.14546 0
M  V30 5271 H 475.064 3.70477 -1.53454 0
M  V30 5272 H 471.654 3.18324 -2.86998 0
M  V30 5273 H 475.838 3.13266 -3.84939 0
M  V30 5274 H 471.094 3.11245 -5.26247 0
M  V30 5275 H 475.268 3.07357 -6.24904 0
M  V30 5276 H 472.895 3.05882 -6.95946 0
M  V30 5277 N 474.47 1.03057 1.19235 0
M  V30 5278 C 475.71 0.736757 1.9066 0
M  V30 5279 C 476.074 -0.721521 1.77927 0
M  V30 5280 O 477.275 -1.12849 2.43964 0
M  V30 5281 C 475.546 1.17755 3.37444 0
M  V30 5282 S 477.105 1.00783 4.27069 0
M  V30 5283 H 473.923 0.268174 0.658486 0
M  V30 5284 H 476.525 1.32076 1.4414 0
M  V30 5285 H 475.229 2.23448 3.44237 0
M  V30 5286 H 474.76 0.586912 3.88997 0
M  V30 5287 H 476.775 -0.0806356 4.96134 0
M  V30 5288 N 475.948 -1.35272 0.808662 0
M  V30 5289 C 477.196 -1.98316 0.389233 0
M  V30 5290 C 477.517 -1.64465 -1.04767 0
M  V30 5291 O 476.787 -0.928175 -1.72516 0
M  V30 5292 H 475.367 -0.733585 0.140935 0
M  V30 5293 H 478.029 -1.6515 1.03496 0
M  V30 5294 H 477.125 -3.08123 0.496631 0
M  V30 5295 N 477.426 -0.562348 -1.47226 0
M  V30 5296 C 478.654 -0.0452275 -2.06851 0
M  V30 5297 C 479.069 1.25078 -1.41424 0
M  V30 5298 O 478.426 1.75156 -0.512513 0
M  V30 5299 C 478.477 0.148674 -3.61194 0
M  V30 5300 O 478.198 -1.09602 -4.24169 0
M  V30 5301 C 479.699 0.702488 -4.37699 0
M  V30 5302 H 476.919 -0.0481775 -0.669268 0
M  V30 5303 H 479.463 -0.777223 -1.89155 0
M  V30 5304 H 477.618 0.830817 -3.78386 0
M  V30 5305 H 478.032 -0.896982 -5.16773 0
M  V30 5306 H 479.506 0.78743 -5.46355 0
M  V30 5307 H 479.983 1.71493 -4.04335 0
M  V30 5308 H 480.589 0.0558772 -4.25263 0
M  V30 5309 N 478.904 1.54736 -0.299062 0
M  V30 5310 C 480.315 1.8569 0.193971 0
M  V30 5311 C 480.666 1.22101 1.53577 0
M  V30 5312 O 479.791 0.51799 2.10109 0
M  V30 5313 C 480.386 3.36895 0.358733 0
M  V30 5314 C 478.945 3.67887 0.795986 0
M  V30 5315 C 478.092 2.77131 -0.096807 0
M  V30 5316 H 481.043 1.49934 -0.520134 0
M  V30 5317 H 481.064 3.61294 1.19361 0
M  V30 5318 H 480.576 3.83148 -0.617998 0
M  V30 5319 H 478.677 3.27151 1.78334 0
M  V30 5320 H 478.79 4.75114 0.616718 0
M  V30 5321 H 477.154 2.51153 0.423581 0
M  V30 5322 H 477.937 3.26204 -1.06986 0
M  V30 5323 N 480.382 0.0267497 1.57577 0
M  V30 5324 C 481.292 -0.971633 2.13533 0
M  V30 5325 C 482.308 -1.35868 1.08701 0
M  V30 5326 O 483.484 -1.44058 1.40746 0
M  V30 5327 C 480.549 -2.23622 2.64941 0
M  V30 5328 C 479.61 -1.90982 3.8448 0
M  V30 5329 C 478.843 -3.11411 4.33427 0
M  V30 5330 O 479.066 -4.23992 3.81558 0
M  V30 5331 O 478 -2.93848 5.25297 0
M  V30 5332 H 481.826 -0.525853 2.99113 0
M  V30 5333 H 479.411 -0.193712 1.48139 0
M  V30 5334 H 481.293 -2.97864 2.98086 0
M  V30 5335 H 479.968 -2.67386 1.82446 0
M  V30 5336 H 478.875 -1.14132 3.56265 0
M  V30 5337 H 480.208 -1.52036 4.6813 0
M  V30 5338 N 481.861 -1.55662 -0.24637 0
M  V30 5339 C 483.091 -1.81312 -0.990438 0
M  V30 5340 C 483.499 -0.600234 -1.79426 0
M  V30 5341 O 482.842 0.440537 -1.78339 0
M  V30 5342 C 482.904 -3.0032 -1.97607 0
M  V30 5343 C 482.568 -4.36322 -1.35912 0
M  V30 5344 C 483.565 -5.14295 -0.761348 0
M  V30 5345 C 481.25 -4.83019 -1.37833 0
M  V30 5346 C 483.244 -6.37114 -0.190998 0
M  V30 5347 C 480.931 -6.05786 -0.804128 0
M  V30 5348 C 481.929 -6.82672 -0.211489 0
M  V30 5349 O 481.617 -8.03121 0.353845 0
M  V30 5350 H 481.349 -0.607233 -0.297058 0
M  V30 5351 H 483.903 -2.0356 -0.274351 0
M  V30 5352 H 482.133 -2.73829 -2.73047 0
M  V30 5353 H 483.822 -3.13057 -2.58361 0
M  V30 5354 H 484.588 -4.79337 -0.739013 0
M  V30 5355 H 480.467 -4.23165 -1.829 0
M  V30 5356 H 484.011 -6.97069 0.272206 0
M  V30 5357 H 479.908 -6.40222 -0.823792 0
M  V30 5358 H 480.676 -8.18131 0.245761 0
M  V30 5359 N 483.339 0.512053 -1.4905 0
M  V30 5360 C 484.269 1.62365 -1.67809 0
M  V30 5361 C 485.25 1.61737 -0.526809 0
M  V30 5362 O 486.435 1.78651 -0.761404 0
M  V30 5363 C 483.565 3.00895 -1.73435 0
M  V30 5364 C 482.519 3.16387 -2.88242 0
M  V30 5365 C 481.845 4.56157 -2.78971 0
M  V30 5366 C 483.145 2.97457 -4.29321 0
M  V30 5367 H 484.839 1.46921 -2.60873 0
M  V30 5368 H 482.385 0.705379 -1.2554 0
M  V30 5369 H 484.338 3.78549 -1.85145 0
M  V30 5370 H 483.062 3.17403 -0.769619 0
M  V30 5371 H 481.721 2.41155 -2.76116 0
M  V30 5372 H 481.369 4.69525 -1.8043 0
M  V30 5373 H 481.069 4.67465 -3.5602 0
M  V30 5374 H 482.593 5.35886 -2.92675 0
M  V30 5375 H 484.007 3.64888 -4.42187 0
M  V30 5376 H 482.404 3.20245 -5.07507 0
M  V30 5377 H 483.474 1.93692 -4.44535 0
M  V30 5378 N 484.817 1.37938 0.762283 0
M  V30 5379 C 485.78 1.34279 1.85747 0
M  V30 5380 C 486.78 0.244969 1.58923 0
M  V30 5381 O 487.97 0.501365 1.66829 0
M  V30 5382 C 485.102 1.08833 3.23061 0
M  V30 5383 H 486.295 2.31705 1.90401 0
M  V30 5384 H 483.848 1.23105 0.963057 0
M  V30 5385 H 484.583 0.119767 3.24079 0
M  V30 5386 H 484.368 1.88306 3.43923 0
M  V30 5387 H 485.858 1.08946 4.03138 0
M  V30 5388 N 486.295 -0.989507 1.22664 0
M  V30 5389 C 487.706 -1.54406 1.04955 0
M  V30 5390 C 488.057 -1.92366 -0.385951 0
M  V30 5391 O 487.182 -1.75111 -1.27142 0
M  V30 5392 C 487.777 -2.80578 1.89899 0
M  V30 5393 C 486.336 -3.32464 1.76478 0
M  V30 5394 C 485.483 -2.05524 1.86159 0
M  V30 5395 H 488.434 -0.810211 1.3646 0
M  V30 5396 H 488.455 -3.53075 1.4184 0
M  V30 5397 H 487.967 -2.52918 2.94371 0
M  V30 5398 H 486.068 -3.65024 0.747528 0
M  V30 5399 H 486.181 -4.02838 2.59342 0
M  V30 5400 H 484.545 -2.19241 1.29636 0
M  V30 5401 H 485.328 -1.80258 2.92168 0
M  V30 5402 N 487.773 -1.03688 -1.18687 0
M  V30 5403 C 488.683 -0.634908 -2.25845 0
M  V30 5404 C 489.699 0.337065 -1.70704 0
M  V30 5405 O 490.875 0.192943 -2.00474 0
M  V30 5406 C 487.94 -0.000180054 -3.467 0
M  V30 5407 C 487.001 -1.02067 -4.1699 0
M  V30 5408 C 486.234 -0.41614 -5.32075 0
M  V30 5409 O 486.457 0.778712 -5.65059 0
M  V30 5410 O 485.391 -1.14296 -5.90948 0
M  V30 5411 H 489.217 -1.52757 -2.62486 0
M  V30 5412 H 486.802 -0.807533 -1.25695 0
M  V30 5413 H 488.684 0.353342 -4.19916 0
M  V30 5414 H 487.359 0.866367 -3.11891 0
M  V30 5415 H 486.266 -1.42592 -3.45859 0
M  V30 5416 H 487.599 -1.85786 -4.5579 0
M  V30 5417 N 489.251 1.34841 -0.815825 0
M  V30 5418 C 490.497 1.98793 -0.401129 0
M  V30 5419 C 490.83 1.64548 1.03139 0
M  V30 5420 O 490.105 0.913487 1.71714 0
M  V30 5421 C 490.388 3.55143 -0.595409 0
M  V30 5422 C 490.241 3.99155 -2.07352 0
M  V30 5423 C 491.56 4.40092 -0.0268823 0
M  V30 5424 H 488.679 0.722146 -0.14722 0
M  V30 5425 H 491.321 1.59847 -1.02707 0
M  V30 5426 H 489.471 3.8845 -0.0625779 0
M  V30 5427 H 491.143 3.76216 -2.66945 0
M  V30 5428 H 489.386 3.49726 -2.56659 0
M  V30 5429 H 490.057 5.07971 -2.1603 0
M  V30 5430 H 492.533 4.13298 -0.482042 0
M  V30 5431 H 491.409 5.48562 -0.19267 0
M  V30 5432 H 491.67 4.29016 1.06759 0
M  V30 5433 N 490.729 0.570148 1.46925 0
M  V30 5434 C 491.978 0.0487352 2.01641 0
M  V30 5435 C 492.291 -1.31433 1.44861 0
M  V30 5436 O 493.497 -1.92638 1.91318 0
M  V30 5437 C 491.953 0.0365817 3.59881 0
M  V30 5438 C 491.561 1.39719 4.25655 0
M  V30 5439 C 493.305 -0.431545 4.22301 0
M  V30 5440 C 491.212 1.34345 5.75939 0
M  V30 5441 H 490.142 0.0144492 0.753862 0
M  V30 5442 H 492.793 0.719928 1.68788 0
M  V30 5443 H 491.175 -0.700522 3.89755 0
M  V30 5444 H 492.349 2.15303 4.07408 0
M  V30 5445 H 490.664 1.80431 3.75278 0
M  V30 5446 H 493.261 -0.490354 5.32447 0
M  V30 5447 H 493.604 -1.44638 3.90366 0
M  V30 5448 H 494.137 0.251102 3.97007 0
M  V30 5449 H 490.876 2.33469 6.12513 0
M  V30 5450 H 490.396 0.629615 5.96486 0
M  V30 5451 H 492.075 1.051 6.38407 0
M  V30 5452 N 492.207 -1.54576 0.307264 0
M  V30 5453 C 493.623 -1.59534 -0.0459251 0
M  V30 5454 C 493.823 -1.32414 -1.51884 0
M  V30 5455 O 492.879 -1.1006 -2.27251 0
M  V30 5456 C 494.192 -2.98566 0.357649 0
M  V30 5457 C 495.74 -3.11491 0.306937 0
M  V30 5458 C 496.215 -4.52842 0.685427 0
M  V30 5459 N 497.706 -4.58782 0.638203 0
M  V30 5460 C 498.441 -5.66238 0.903458 0
M  V30 5461 N 497.937 -6.81703 1.23501 0
M  V30 5462 N 499.73 -5.55937 0.830102 0
M  V30 5463 H 491.881 -1.70464 1.26712 0
M  V30 5464 H 494.144 -0.79647 0.514139 0
M  V30 5465 H 493.85 -3.23356 1.38325 0
M  V30 5466 H 493.724 -3.76117 -0.285565 0
M  V30 5467 H 496.111 -2.86446 -0.709424 0
M  V30 5468 H 496.192 -2.36081 0.984861 0
M  V30 5469 H 495.836 -4.78618 1.69963 0
M  V30 5470 H 495.766 -5.26598 -0.0146346 0
M  V30 5471 H 498.257 -3.75849 0.393138 0
M  V30 5472 H 498.57 -7.59582 1.42322 0
M  V30 5473 H 496.915 -6.8324 1.27311 0
M  V30 5474 H 500.106 -4.64608 0.570693 0
M  V30 5475 H 500.279 -6.39597 1.04019 0
M  V30 5476 N 493.685 -0.035106 -1.57561 0
M  V30 5477 C 494.632 0.94474 -2.10578 0
M  V30 5478 C 495.602 1.3192 -1.00927 0
M  V30 5479 O 496.787 1.41147 -1.28382 0
M  V30 5480 C 493.927 2.21982 -2.64231 0
M  V30 5481 C 493.04 1.90128 -3.87911 0
M  V30 5482 C 492.175 3.11975 -4.29936 0
M  V30 5483 C 491.214 2.75968 -5.46359 0
M  V30 5484 N 490.351 3.90459 -5.83512 0
M  V30 5485 H 495.191 0.485717 -2.94015 0
M  V30 5486 H 492.728 0.228143 -1.4532 0
M  V30 5487 H 494.686 2.96572 -2.9343 0
M  V30 5488 H 493.316 2.6549 -1.83616 0
M  V30 5489 H 492.368 1.05755 -3.65404 0
M  V30 5490 H 493.68 1.59613 -4.72573 0
M  V30 5491 H 492.834 3.9488 -4.60603 0
M  V30 5492 H 491.573 3.45657 -3.44053 0
M  V30 5493 H 490.578 1.91478 -5.1538 0
M  V30 5494 H 491.803 2.43497 -6.33945 0
M  V30 5495 H 489.749 4.23971 -5.00584 0
M  V30 5496 H 489.666 3.63588 -6.62827 0
M  V30 5497 H 490.934 4.7405 -6.18787 0
M  V30 5498 N 495.163 1.55791 0.238111 0
M  V30 5499 C 496.095 1.87513 1.31802 0
M  V30 5500 C 497.108 0.762053 1.43863 0
M  V30 5501 O 498.297 1.04024 1.45056 0
M  V30 5502 C 495.397 2.05402 2.69561 0
M  V30 5503 C 494.57 3.3632 2.79656 0
M  V30 5504 C 493.629 3.43844 3.98319 0
M  V30 5505 O 492.655 4.16994 3.87433 0
M  V30 5506 N 493.857 2.73777 5.11885 0
M  V30 5507 H 496.622 2.80734 1.04922 0
M  V30 5508 H 494.183 1.56135 0.428196 0
M  V30 5509 H 496.175 2.07769 3.47296 0
M  V30 5510 H 494.745 1.18884 2.89111 0
M  V30 5511 H 493.965 3.46195 1.88528 0
M  V30 5512 H 495.253 4.22594 2.83358 0
M  V30 5513 H 494.651 2.14094 5.23622 0
M  V30 5514 H 493.208 2.81825 5.87723 0
M  V30 5515 N 496.642 -0.504142 1.49319 0
M  V30 5516 C 498.053 -1.08572 1.51885 0
M  V30 5517 C 498.404 -1.93842 0.303255 0
M  V30 5518 O 497.529 -2.0828 -0.58724 0
M  V30 5519 C 498.124 -1.97574 2.75227 0
M  V30 5520 C 496.683 -2.509 2.80581 0
M  V30 5521 C 495.83 -1.28447 2.45757 0
M  V30 5522 H 498.781 -0.288194 1.56061 0
M  V30 5523 H 498.802 -2.82219 2.55211 0
M  V30 5524 H 498.314 -1.35486 3.63683 0
M  V30 5525 H 496.415 -3.16636 1.96398 0
M  V30 5526 H 496.528 -2.88268 3.82673 0
M  V30 5527 H 494.892 -1.60868 1.97468 0
M  V30 5528 H 495.675 -0.68072 3.36483 0
M  V30 5529 N 498.12 -1.38341 -0.754957 0
M  V30 5530 C 499.35 -1.37504 -1.54195 0
M  V30 5531 C 499.758 0.0373787 -1.89163 0
M  V30 5532 O 499.101 1.01402 -1.53178 0
M  V30 5533 C 499.163 -2.16488 -2.87008 0
M  V30 5534 C 498.827 -3.65311 -2.74585 0
M  V30 5535 C 499.824 -4.58834 -2.44474 0
M  V30 5536 C 497.509 -4.08649 -2.9208 0
M  V30 5537 C 499.503 -5.93675 -2.32011 0
M  V30 5538 C 497.19 -5.43571 -2.79237 0
M  V30 5539 C 498.188 -6.35898 -2.49245 0
M  V30 5540 O 497.876 -7.68338 -2.36458 0
M  V30 5541 H 497.608 -0.472159 -0.483779 0
M  V30 5542 H 500.162 -1.82515 -0.94221 0
M  V30 5543 H 498.392 -1.66194 -3.49166 0
M  V30 5544 H 500.081 -2.08076 -3.4851 0
M  V30 5545 H 500.847 -4.26657 -2.30627 0
M  V30 5546 H 496.726 -3.37134 -3.14422 0
M  V30 5547 H 500.27 -6.65706 -2.08522 0
M  V30 5548 H 496.167 -5.75345 -2.92657 0
M  V30 5549 H 496.935 -7.78845 -2.5168 0
M  V30 5550 N 499.598 0.982988 -1.23187 0
M  V30 5551 C 500.875 1.69814 -0.970707 0
M  V30 5552 C 501.255 2.04811 0.511424 0
M  V30 5553 O 500.603 1.73924 1.48198 0
M  V30 5554 C 500.813 2.94143 -1.87831 0
M  V30 5555 C 502.161 3.66712 -2.14026 0
M  V30 5556 O 503.185 3.04171 -1.8536 0
M  V30 5557 O 502.044 4.79258 -2.62629 0
M  V30 5558 H 499.138 0.741659 -0.365884 0
M  V30 5559 H 501.684 1.03844 -1.34218 0
M  V30 5560 H 500.456 2.64858 -2.88038 0
M  V30 5561 H 500.079 3.6785 -1.50905 0
M  V30 5562 N 501.076 1.04316 1.18135 0
M  V30 5563 C 502.024 0.630175 2.23901 0
M  V30 5564 C 503.018 -0.344254 1.65865 0
M  V30 5565 O 504.224 -0.211273 1.78756 0
M  V30 5566 H 500.599 0.185578 0.728742 0
M  V30 5567 H 502.57 1.53253 2.56039 0
M  V30 5568 C 501.319 0.011666 3.47698 0
M  V30 5569 H 500.642 0.752526 3.92654 0
M  V30 5570 H 502.082 -0.240046 4.2332 0
M  V30 5571 C 500.541 -1.23913 3.13285 0
M  V30 5572 O 501.071 -2.32959 3.27251 0
M  V30 5573 N 499.277 -1.13338 2.67587 0
M  V30 5574 H 498.824 -0.246006 2.56423 0
M  V30 5575 H 498.782 -1.97116 2.44934 0
M  V30 5576 N 502.554 -1.34406 0.822964 0
M  V30 5577 C 503.782 -2.02508 0.424039 0
M  V30 5578 C 504.197 -1.61975 -0.970022 0
M  V30 5579 O 503.554 -0.825228 -1.62777 0
M  V30 5580 C 503.605 -3.57789 0.516657 0
M  V30 5581 O 503.326 -3.96853 1.85577 0
M  V30 5582 C 504.827 -4.43157 0.112637 0
M  V30 5583 H 502.047 -0.649063 0.170173 0
M  V30 5584 H 504.591 -1.7168 1.11113 0
M  V30 5585 H 502.746 -3.87207 -0.122353 0
M  V30 5586 H 503.16 -4.91538 1.83005 0
M  V30 5587 H 504.634 -5.51527 0.228526 0
M  V30 5588 H 505.111 -4.28939 -0.943837 0
M  V30 5589 H 505.717 -4.19067 0.725449 0
M  V30 5590 N 504.032 -0.577932 -1.46621 0
M  V30 5591 C 505.278 -0.0617793 -2.02706 0
M  V30 5592 C 505.611 1.29294 -1.44903 0
M  V30 5593 O 504.886 1.8461 -0.61232 0
M  V30 5594 C 505.169 0.00911824 -3.60099 0
M  V30 5595 C 505.022 -1.37416 -4.28295 0
M  V30 5596 C 506.341 0.712159 -4.343 0
M  V30 5597 H 503.46 -0.0239246 -0.736612 0
M  V30 5598 H 506.102 -0.744211 -1.74818 0
M  V30 5599 H 504.252 0.590292 -3.83989 0
M  V30 5600 H 505.924 -2.00013 -4.15683 0
M  V30 5601 H 504.167 -1.94319 -3.87843 0
M  V30 5602 H 504.838 -1.27707 -5.37024 0
M  V30 5603 H 507.314 0.218486 -4.15526 0
M  V30 5604 H 506.19 0.730782 -5.44014 0
M  V30 5605 H 506.451 1.77251 -4.05012 0
M  V30 5606 N 505.51 1.54411 -0.315457 0
M  V30 5607 C 506.787 1.92562 0.343398 0
M  V30 5608 C 507.167 1.24423 1.70535 0
M  V30 5609 O 506.515 0.385051 2.25232 0
M  V30 5610 C 506.725 3.46168 0.443687 0
M  V30 5611 C 508.073 4.18659 0.707783 0
M  V30 5612 O 509.097 3.52281 0.52693 0
M  V30 5613 O 507.956 5.36198 1.05612 0
M  V30 5614 H 505.05 0.80379 0.194552 0
M  V30 5615 H 507.596 1.65738 -0.364577 0
M  V30 5616 H 506.368 3.8792 -0.513172 0
M  V30 5617 H 505.991 3.79073 1.19956 0
M  V30 5618 N 506.988 0.0434614 1.5754 0
M  V30 5619 C 508.234 -0.627109 1.93491 0
M  V30 5620 C 508.589 -1.68904 0.921362 0
M  V30 5621 O 507.882 -1.91504 -0.0605799 0
M  V30 5622 C 508.076 -1.2738 3.3393 0
M  V30 5623 C 507.905 -0.27603 4.48852 0
M  V30 5624 C 506.675 0.129244 5.05135 0
M  V30 5625 C 508.873 0.475462 5.12098 0
M  V30 5626 N 506.855 1.12068 6.03584 0
M  V30 5627 C 508.226 1.32021 6.05781 0
M  V30 5628 C 510.281 0.534611 4.95022 0
M  V30 5629 C 508.984 2.2188 6.84223 0
M  V30 5630 C 511.01 1.42059 5.74085 0
M  V30 5631 C 510.372 2.25309 6.67394 0
M  V30 5632 H 506.471 -0.201354 0.755633 0
M  V30 5633 H 509.055 0.113991 1.94366 0
M  V30 5634 H 507.226 -1.98496 3.33847 0
M  V30 5635 H 508.958 -1.90255 3.57191 0
M  V30 5636 H 505.713 -0.248145 4.72949 0
M  V30 5637 H 506.137 1.61306 6.57502 0
M  V30 5638 H 510.779 -0.0947817 4.22694 0
M  V30 5639 H 508.497 2.85868 7.55847 0
M  V30 5640 H 512.083 1.47083 5.62901 0
M  V30 5641 H 510.963 2.92754 7.27506 0
M  V30 5642 N 508.466 -1.55915 -0.229846 0
M  V30 5643 C 509.712 -1.79718 -0.952517 0
M  V30 5644 C 510.067 -0.61514 -1.82301 0
M  V30 5645 O 509.36 0.391098 -1.87566 0
M  V30 5646 C 509.554 -3.06845 -1.8325 0
M  V30 5647 C 509.383 -4.37302 -1.04868 0
M  V30 5648 C 508.153 -4.99749 -0.746932 0
M  V30 5649 C 510.351 -5.12599 -0.417989 0
M  V30 5650 N 508.333 -6.13871 0.0591596 0
M  V30 5651 C 509.704 -6.19488 0.251879 0
M  V30 5652 C 511.759 -4.96804 -0.33018 0
M  V30 5653 C 510.462 -7.12299 1.00115 0
M  V30 5654 C 512.488 -5.90007 0.4056 0
M  V30 5655 C 511.85 -6.96317 1.06404 0
M  V30 5656 H 507.949 -0.709382 -0.329091 0
M  V30 5657 H 510.533 -1.93406 -0.224114 0
M  V30 5658 H 508.704 -2.94456 -2.53279 0
M  V30 5659 H 510.436 -3.18874 -2.49202 0
M  V30 5660 H 507.191 -4.61518 -1.06292 0
M  V30 5661 H 507.615 -6.75497 0.450798 0
M  V30 5662 H 512.257 -4.14675 -0.824898 0
M  V30 5663 H 509.975 -7.93916 1.50741 0
M  V30 5664 H 513.561 -5.79862 0.474436 0
M  V30 5665 H 512.441 -7.67194 1.62429 0
M  V30 5666 N 509.944 0.496216 -1.49584 0
M  V30 5667 C 511.184 1.26015 -1.60933 0
M  V30 5668 C 511.548 1.89772 -0.291646 0
M  V30 5669 O 512.749 2.67334 -0.280357 0
M  V30 5670 C 511.02 2.29506 -2.73974 0
M  V30 5671 S 512.579 3.15175 -3.05303 0
M  V30 5672 H 509.397 0.428194 -0.567601 0
M  V30 5673 H 511.999 0.561484 -1.87263 0
M  V30 5674 H 510.703 1.81205 -3.68229 0
M  V30 5675 H 510.234 3.04036 -2.49651 0
M  V30 5676 H 512.249 4.30244 -2.47193 0
M  V30 5677 N 511.423 1.38739 0.74761 0
M  V30 5678 C 512.353 1.39173 1.87492 0
M  V30 5679 C 513.334 0.256794 1.6815 0
M  V30 5680 O 514.519 0.460762 1.88655 0
M  V30 5681 C 511.649 1.22197 3.25093 0
M  V30 5682 C 510.603 2.32957 3.59047 0
M  V30 5683 C 509.929 2.01082 4.95449 0
M  V30 5684 C 511.229 3.75237 3.6331 0
M  V30 5685 H 512.923 2.3351 1.87386 0
M  V30 5686 H 510.469 1.12399 0.900134 0
M  V30 5687 H 512.422 1.21124 4.03617 0
M  V30 5688 H 511.146 0.243241 3.25693 0
M  V30 5689 H 509.805 2.33226 2.82845 0
M  V30 5690 H 509.453 1.01678 4.92616 0
M  V30 5691 H 509.153 2.75267 5.19136 0
M  V30 5692 H 510.677 2.01638 5.76346 0
M  V30 5693 H 512.091 3.76966 4.31937 0
M  V30 5694 H 510.488 4.48677 3.98509 0
M  V30 5695 H 511.558 4.07122 2.634 0
M  V30 5696 N 512.901 -0.976442 1.23707 0
M  V30 5697 C 514.149 -1.71487 1.06942 0
M  V30 5698 C 514.47 -1.9098 -0.393897 0
M  V30 5699 O 513.74 -1.48128 -1.28198 0
M  V30 5700 H 512.32 -0.635425 0.392739 0
M  V30 5701 H 514.982 -1.17515 1.55487 0
M  V30 5702 H 514.078 -2.70286 1.56051 0
M  V30 5703 N 514.379 -1.04941 -1.1758 0
M  V30 5704 C 515.342 -0.652456 -2.19717 0
M  V30 5705 C 516.342 0.294745 -1.58076 0
M  V30 5706 O 517.532 0.0789579 -1.74021 0
M  V30 5707 C 514.664 0.0420712 -3.40874 0
M  V30 5708 H 515.857 -1.55642 -2.5635 0
M  V30 5709 H 513.41 -0.842995 -1.31618 0
M  V30 5710 H 514.145 0.95943 -3.09783 0
M  V30 5711 H 513.93 -0.638844 -3.86861 0
M  V30 5712 H 515.42 0.306 -4.16477 0
M  V30 5713 N 515.857 1.33968 -0.830081 0
M  V30 5714 C 517.103 1.98357 -0.422191 0
M  V30 5715 C 517.436 1.65633 1.01387 0
M  V30 5716 O 516.711 0.931648 1.70735 0
M  V30 5717 C 516.994 3.54492 -0.633043 0
M  V30 5718 C 516.847 3.96934 -2.11574 0
M  V30 5719 C 518.166 4.40039 -0.0735584 0
M  V30 5720 H 515.285 0.720544 -0.154871 0
M  V30 5721 H 517.927 1.58749 -1.04397 0
M  V30 5722 H 516.077 3.88361 -0.103775 0
M  V30 5723 H 517.749 3.73363 -2.7092 0
M  V30 5724 H 515.992 3.46984 -2.60354 0
M  V30 5725 H 516.663 5.05651 -2.21406 0
M  V30 5726 H 519.139 4.12764 -0.52585 0
M  V30 5727 H 518.015 5.48327 -0.250841 0
M  V30 5728 H 518.276 4.30124 1.02202 0
M  V30 5729 N 517.335 0.585699 1.46312 0
M  V30 5730 C 518.265 -0.133556 2.33118 0
M  V30 5731 C 519.246 -0.880707 1.45525 0
M  V30 5732 O 520.431 -0.855579 1.74337 0
M  V30 5733 C 517.561 -1.14585 3.27853 0
M  V30 5734 C 516.515 -0.513341 4.2491 0
M  V30 5735 C 515.841 -1.63231 5.09175 0
M  V30 5736 C 517.141 0.551413 5.19381 0
M  V30 5737 H 518.835 0.59121 2.93505 0
M  V30 5738 H 516.381 0.285761 1.41136 0
M  V30 5739 H 518.334 -1.65741 3.87438 0
M  V30 5740 H 517.058 -1.90093 2.65579 0
M  V30 5741 H 515.717 -0.0228349 3.66593 0
M  V30 5742 H 515.365 -2.37713 4.43285 0
M  V30 5743 H 515.065 -1.21473 5.74907 0
M  V30 5744 H 516.589 -2.14658 5.71624 0
M  V30 5745 H 518.003 0.124804 5.73164 0
M  V30 5746 H 516.4 0.889486 5.93471 0
M  V30 5747 H 517.47 1.43655 4.63132 0
M  V30 5748 N 518.813 -1.54241 0.323641 0
M  V30 5749 C 520.043 -2.04687 -0.280464 0
M  V30 5750 C 520.451 -1.19939 -1.46326 0
M  V30 5751 O 519.794 -0.222872 -1.82343 0
M  V30 5752 C 519.856 -3.50978 -0.778123 0
M  V30 5753 C 519.52 -4.56127 0.282371 0
M  V30 5754 C 520.517 -5.07726 1.11847 0
M  V30 5755 C 518.202 -5.00451 0.430582 0
M  V30 5756 C 520.196 -6.02212 2.08851 0
M  V30 5757 C 517.883 -5.94752 1.40404 0
M  V30 5758 C 518.881 -6.45519 2.23147 0
M  V30 5759 O 518.569 -7.37968 3.1884 0
M  V30 5760 H 518.301 -0.673192 -0.0615473 0
M  V30 5761 H 520.855 -1.99999 0.467921 0
M  V30 5762 H 519.085 -3.53064 -1.57742 0
M  V30 5763 H 520.774 -3.84499 -1.30058 0
M  V30 5764 H 521.54 -4.74261 1.01496 0
M  V30 5765 H 517.419 -4.6055 -0.203569 0
M  V30 5766 H 520.963 -6.41761 2.73474 0
M  V30 5767 H 516.86 -6.27633 1.5082 0
M  V30 5768 H 517.628 -7.55841 3.14079 0
M  V30 5769 N 520.291 -0.0518155 -1.57515 0
M  V30 5770 C 521.201 0.937539 -2.15052 0
M  V30 5771 C 522.217 1.34121 -1.10849 0
M  V30 5772 O 523.393 1.418 -1.4302 0
M  V30 5773 C 520.458 2.19379 -2.68466 0
M  V30 5774 C 519.519 1.84841 -3.87469 0
M  V30 5775 C 518.752 3.04477 -4.38326 0
M  V30 5776 O 518.975 4.17868 -3.88256 0
M  V30 5777 O 517.909 2.85453 -5.29906 0
M  V30 5778 H 521.735 0.478201 -2.99912 0
M  V30 5779 H 519.32 0.17012 -1.48428 0
M  V30 5780 H 521.202 2.93084 -3.02787 0
M  V30 5781 H 519.877 2.64449 -1.86677 0
M  V30 5782 H 518.784 1.08449 -3.58036 0
M  V30 5783 H 520.117 1.44569 -4.7049 0
M  V30 5784 N 521.769 1.56035 0.221574 0
M  V30 5785 C 522.702 1.87427 1.30178 0
M  V30 5786 C 523.68 0.731658 1.45209 0
M  V30 5787 O 524.864 0.980016 1.61022 0
M  V30 5788 C 521.991 2.08127 2.67209 0
M  V30 5789 C 521.037 3.30813 2.69194 0
M  V30 5790 S 521.87 4.86738 2.23263 0
M  V30 5791 C 523.026 5.10474 3.62171 0
M  V30 5792 H 523.259 2.78756 1.03355 0
M  V30 5793 H 520.792 1.48469 0.423813 0
M  V30 5794 H 522.75 2.20736 3.46101 0
M  V30 5795 H 521.411 1.17595 2.91256 0
M  V30 5796 H 520.604 3.42341 3.6989 0
M  V30 5797 H 520.206 3.1706 1.98366 0
M  V30 5798 H 522.498 4.9937 4.5786 0
M  V30 5799 H 523.441 6.12359 3.55558 0
M  V30 5800 H 523.849 4.38208 3.55857 0
M  V30 5801 N 523.247 -0.488276 1.49845 0
M  V30 5802 C 524.177 -1.59675 1.70371 0
M  V30 5803 C 525.158 -1.60878 0.552473 0
M  V30 5804 O 526.343 -1.77417 0.78973 0
M  V30 5805 C 523.473 -2.98098 1.782 0
M  V30 5806 C 522.427 -3.11761 2.93239 0
M  V30 5807 C 521.753 -4.51661 2.86193 0
M  V30 5808 C 523.053 -2.90589 4.33999 0
M  V30 5809 H 524.747 -1.42752 2.63177 0
M  V30 5810 H 522.293 -0.685317 1.26647 0
M  V30 5811 H 524.246 -3.75555 1.91144 0
M  V30 5812 H 522.97 -3.16138 0.820018 0
M  V30 5813 H 521.629 -2.36732 2.79917 0
M  V30 5814 H 521.277 -4.66595 1.87877 0
M  V30 5815 H 520.977 -4.61742 3.63412 0
M  V30 5816 H 522.501 -5.31162 3.01163 0
M  V30 5817 H 523.915 -3.57807 4.47936 0
M  V30 5818 H 522.312 -3.1213 5.12538 0
M  V30 5819 H 523.382 -1.86595 4.4756 0
M  V30 5820 N 524.725 -1.39134 -0.740242 0
M  V30 5821 C 525.955 -1.39132 -1.52728 0
M  V30 5822 C 526.363 0.0173133 -1.89192 0
M  V30 5823 O 525.706 0.997715 -1.54244 0
M  V30 5824 C 525.768 -2.1952 -2.84695 0
M  V30 5825 C 525.432 -3.68203 -2.70695 0
M  V30 5826 C 526.429 -4.61401 -2.39593 0
M  V30 5827 C 524.114 -4.11724 -2.8773 0
M  V30 5828 C 526.108 -5.96102 -2.25701 0
M  V30 5829 C 523.795 -5.46503 -2.73456 0
M  V30 5830 C 524.793 -6.38506 -2.42486 0
M  V30 5831 O 524.481 -7.70803 -2.28295 0
M  V30 5832 H 524.213 -0.477263 -0.478744 0
M  V30 5833 H 526.767 -1.83504 -0.922799 0
M  V30 5834 H 524.997 -1.69888 -3.47383 0
M  V30 5835 H 526.686 -2.1176 -3.46284 0
M  V30 5836 H 527.452 -4.29079 -2.26088 0
M  V30 5837 H 523.331 -3.4045 -3.10829 0
M  V30 5838 H 526.875 -6.6788 -2.0145 0
M  V30 5839 H 522.772 -5.78417 -2.86538 0
M  V30 5840 H 523.54 -7.8147 -2.43405 0
M  V30 5841 N 526.204 0.969867 -1.24223 0
M  V30 5842 C 527.452 1.70918 -1.0785 0
M  V30 5843 C 527.773 1.91186 0.383763 0
M  V30 5844 O 527.043 1.48806 1.27411 0
M  V30 5845 H 525.623 0.633334 -0.396103 0
M  V30 5846 H 528.285 1.16689 -1.56108 0
M  V30 5847 H 527.381 2.69455 -1.57482 0
M  V30 5848 N 527.682 1.05563 1.17022 0
M  V30 5849 C 528.612 0.681026 2.23348 0
M  V30 5850 C 529.593 -0.322983 1.67005 0
M  V30 5851 O 530.778 -0.199746 1.9317 0
M  V30 5852 C 527.908 0.0589053 3.4725 0
M  V30 5853 C 526.862 0.988082 4.16438 0
M  V30 5854 C 526.188 0.229646 5.34207 0
M  V30 5855 C 527.488 2.31388 4.68249 0
M  V30 5856 H 529.182 1.56993 2.54938 0
M  V30 5857 H 526.728 0.756302 1.2254 0
M  V30 5858 H 528.681 -0.214982 4.20851 0
M  V30 5859 H 527.405 -0.864968 3.14938 0
M  V30 5860 H 526.064 1.24659 3.44754 0
M  V30 5861 H 525.712 -0.697111 4.98146 0
M  V30 5862 H 525.412 0.848815 5.81437 0
M  V30 5863 H 526.936 -0.0368694 6.10589 0
M  V30 5864 H 528.35 2.09964 5.33468 0
M  V30 5865 H 526.747 2.88736 5.26072 0
M  V30 5866 H 527.817 2.94982 3.84855 0
M  V30 5867 N 529.16 -1.33526 0.837174 0
M  V30 5868 C 530.571 -1.80182 0.489017 0
M  V30 5869 C 530.922 -1.69285 -0.991826 0
M  V30 5870 O 530.047 -1.24113 -1.77271 0
M  V30 5871 C 530.642 -3.27149 0.880866 0
M  V30 5872 C 529.201 -3.71828 0.584872 0
M  V30 5873 C 528.348 -2.54974 1.09011 0
M  V30 5874 H 531.299 -1.21071 1.02603 0
M  V30 5875 H 531.32 -3.80024 0.190239 0
M  V30 5876 H 530.832 -3.35048 1.95869 0
M  V30 5877 H 528.933 -3.69457 -0.48295 0
M  V30 5878 H 529.046 -4.65366 1.13892 0
M  V30 5879 H 527.41 -2.4952 0.511047 0
M  V30 5880 H 528.193 -2.65637 2.17467 0
M  V30 5881 N 530.638 -0.59345 -1.46 0
M  V30 5882 C 532.049 -0.169801 -1.85926 0
M  V30 5883 C 532.4 1.26984 -1.49565 0
M  V30 5884 O 531.525 1.96076 -0.915602 0
M  V30 5885 C 532.12 -0.301385 -3.37457 0
M  V30 5886 C 530.679 0.0674684 -3.7634 0
M  V30 5887 C 529.826 -0.632383 -2.69993 0
M  V30 5888 H 532.777 -0.801014 -1.37002 0
M  V30 5889 H 532.798 0.470331 -3.77582 0
M  V30 5890 H 532.31 -1.34927 -3.63891 0
M  V30 5891 H 530.411 1.11507 -3.55523 0
M  V30 5892 H 530.524 -0.316332 -4.78055 0
M  V30 5893 H 528.888 -0.0714961 -2.546 0
M  V30 5894 H 529.671 -1.68212 -2.99265 0
M  V30 5895 N 532.116 1.54067 -0.331816 0
M  V30 5896 C 533.363 2.00715 0.268269 0
M  V30 5897 C 533.691 1.21986 1.51491 0
M  V30 5898 O 532.946 0.292309 1.93505 0
M  V30 5899 C 533.245 3.51634 0.639392 0
M  V30 5900 C 532.911 4.48018 -0.509019 0
M  V30 5901 C 531.573 4.74089 -0.824209 0
M  V30 5902 C 533.925 5.05237 -1.28003 0
M  V30 5903 C 531.253 5.54637 -1.91298 0
M  V30 5904 C 533.605 5.86972 -2.35895 0
M  V30 5905 C 532.269 6.11342 -2.67987 0
M  V30 5906 H 531.539 0.734469 0.0981667 0
M  V30 5907 H 534.186 1.8596 -0.457304 0
M  V30 5908 H 532.491 3.6416 1.44551 0
M  V30 5909 H 534.188 3.85175 1.11539 0
M  V30 5910 H 530.778 4.27851 -0.253287 0
M  V30 5911 H 534.962 4.8507 -1.04978 0
M  V30 5912 H 530.218 5.71747 -2.16599 0
M  V30 5913 H 534.392 6.30327 -2.96076 0
M  V30 5914 H 532.019 6.73544 -3.5248 0
M  V30 5915 N 533.594 0.0601682 1.57485 0
M  V30 5916 C 534.824 -0.620037 1.97076 0
M  V30 5917 C 535.232 -1.64381 0.936784 0
M  V30 5918 O 534.575 -1.83497 -0.0863377 0
M  V30 5919 C 534.637 -1.35617 3.32939 0
M  V30 5920 C 534.301 -0.487208 4.54396 0
M  V30 5921 C 535.298 0.250428 5.19297 0
M  V30 5922 C 532.983 -0.415494 5.00579 0
M  V30 5923 C 534.977 1.04812 6.28723 0
M  V30 5924 C 532.664 0.385879 6.0988 0
M  V30 5925 C 533.662 1.11637 6.73815 0
M  V30 5926 O 533.35 1.90454 7.81014 0
M  V30 5927 H 533.082 -0.173664 0.653312 0
M  V30 5928 H 535.636 0.1256 2.05016 0
M  V30 5929 H 533.866 -2.14763 3.2158 0
M  V30 5930 H 535.555 -1.92749 3.57215 0
M  V30 5931 H 536.321 0.204546 4.84568 0
M  V30 5932 H 532.2 -0.973679 4.506 0
M  V30 5933 H 535.744 1.6188 6.78558 0
M  V30 5934 H 531.641 0.433366 6.44044 0
M  V30 5935 H 532.409 1.82762 7.97835 0
M  V30 5936 N 535.072 -1.5615 -0.213296 0
M  V30 5937 C 536.312 -1.81325 -0.943435 0
M  V30 5938 C 536.676 -0.634934 -1.81198 0
M  V30 5939 O 537.877 -0.766166 -2.5765 0
M  V30 5940 C 536.148 -3.11437 -1.75334 0
M  V30 5941 S 537.707 -3.57955 -2.53799 0
M  V30 5942 H 534.525 -0.636538 -0.316766 0
M  V30 5943 H 537.127 -1.94387 -0.208313 0
M  V30 5944 H 535.831 -3.95228 -1.10556 0
M  V30 5945 H 535.362 -3.01204 -2.53061 0
M  V30 5946 H 537.377 -3.21947 -3.77577 0
M  V30 5947 N 536.55 0.480323 -1.50102 0
M  V30 5948 C 537.966 0.813295 -1.37323 0
M  V30 5949 C 538.166 1.97027 -0.422206 0
M  V30 5950 O 537.222 2.5212 0.138563 0
M  V30 5951 C 538.535 1.13404 -2.78496 0
M  V30 5952 C 540.083 1.24104 -2.87345 0
M  V30 5953 C 540.558 1.59497 -4.29331 0
M  V30 5954 N 542.049 1.66507 -4.32238 0
M  V30 5955 C 542.784 1.95378 -5.39087 0
M  V30 5956 N 542.28 2.22333 -6.56155 0
M  V30 5957 N 544.073 1.96803 -5.26522 0
M  V30 5958 H 536.224 -0.282291 -2.10516 0
M  V30 5959 H 538.487 -0.063752 -0.945854 0
M  V30 5960 H 538.193 0.357064 -3.49883 0
M  V30 5961 H 538.067 2.07251 -3.15162 0
M  V30 5962 H 540.454 2.00871 -2.16183 0
M  V30 5963 H 540.535 0.282593 -2.54234 0
M  V30 5964 H 540.179 0.832736 -5.01027 0
M  V30 5965 H 540.109 2.56477 -4.59921 0
M  V30 5966 H 542.6 1.47753 -3.47818 0
M  V30 5967 H 542.913 2.43611 -7.33399 0
M  V30 5968 H 541.258 2.19745 -6.59346 0
M  V30 5969 H 544.449 1.75235 -4.34062 0
M  V30 5970 H 544.622 2.18969 -6.09883 0
M  V30 5971 N 538.028 1.39524 0.732853 0
M  V30 5972 C 539.305 1.27373 1.48444 0
M  V30 5973 C 539.685 -0.115725 2.10783 0
M  V30 5974 O 539.033 -1.12713 1.98766 0
M  V30 5975 C 539.243 2.39966 2.53412 0
M  V30 5976 C 540.591 2.79384 3.19733 0
M  V30 5977 O 541.615 2.39431 2.63725 0
M  V30 5978 O 540.474 3.48353 4.21085 0
M  V30 5979 H 537.568 0.499272 0.659285 0
M  V30 5980 H 540.114 1.51403 0.766496 0
M  V30 5981 H 538.886 3.32845 2.05742 0
M  V30 5982 H 538.509 2.17612 3.32762 0
M  V30 5983 N 539.506 -0.963266 1.24736 0
M  V30 5984 C 540.752 -1.70933 1.09131 0
M  V30 5985 C 541.085 -1.90676 -0.368273 0
M  V30 5986 O 540.36 -1.47147 -1.27193 0
M  V30 5987 C 540.643 -3.09744 1.83658 0
M  V30 5988 C 540.496 -2.97465 3.37394 0
M  V30 5989 C 541.815 -4.09483 1.61282 0
M  V30 5990 H 538.934 -0.620398 0.397838 0
M  V30 5991 H 541.576 -1.12028 1.53459 0
M  V30 5992 H 539.726 -3.60031 1.4598 0
M  V30 5993 H 541.398 -2.54571 3.84696 0
M  V30 5994 H 539.641 -2.33576 3.65547 0
M  V30 5995 H 540.312 -3.95822 3.84745 0
M  V30 5996 H 542.788 -3.68073 1.94066 0
M  V30 5997 H 541.664 -5.04666 2.15878 0
M  V30 5998 H 541.925 -4.38639 0.552102 0
M  V30 5999 N 540.985 -1.06182 -1.16461 0
M  V30 6000 C 541.948 -0.675723 -2.19013 0
M  V30 6001 C 542.948 0.277963 -1.58379 0
M  V30 6002 O 544.138 0.0604962 -1.74095 0
M  V30 6003 C 541.27 0.00591459 -3.40899 0
M  V30 6004 H 542.463 -1.58353 -2.54685 0
M  V30 6005 H 540.016 -0.856908 -1.30716 0
M  V30 6006 H 540.751 0.92652 -3.10783 0
M  V30 6007 H 540.536 -0.67984 -3.86161 0
M  V30 6008 H 542.026 0.26181 -4.16778 0
M  V30 6009 N 542.463 1.3308 -0.844243 0
M  V30 6010 C 543.373 2.32876 -0.283922 0
M  V30 6011 C 544.389 1.63589 0.592846 0
M  V30 6012 O 545.565 1.95205 0.495693 0
M  V30 6013 C 542.63 3.42667 0.527283 0
M  V30 6014 C 541.691 4.27664 -0.374394 0
M  V30 6015 C 540.924 5.32212 0.39819 0
M  V30 6016 O 541.147 5.46635 1.62932 0
M  V30 6017 O 540.081 6.01458 -0.2306 0
M  V30 6018 H 543.907 2.82671 -1.11045 0
M  V30 6019 H 541.492 1.36518 -0.606903 0
M  V30 6020 H 543.374 4.09652 0.988078 0
M  V30 6021 H 542.049 2.95079 1.33078 0
M  V30 6022 H 540.956 3.63526 -0.883144 0
M  V30 6023 H 542.289 4.78749 -1.1428 0
M  V30 6024 N 543.941 0.601185 1.45683 0
M  V30 6025 C 544.874 -0.17013 2.27565 0
M  V30 6026 C 545.852 -0.879661 1.36751 0
M  V30 6027 O 547.036 -0.889827 1.66176 0
M  V30 6028 C 544.163 -1.24568 3.14961 0
M  V30 6029 C 543.209 -0.639978 4.21671 0
M  V30 6030 S 544.042 0.547275 5.32696 0
M  V30 6031 C 545.198 -0.529019 6.2366 0
M  V30 6032 H 545.431 0.524583 2.92635 0
M  V30 6033 H 542.964 0.388537 1.49431 0
M  V30 6034 H 544.922 -1.86138 3.65873 0
M  V30 6035 H 543.583 -1.91243 2.49169 0
M  V30 6036 H 542.776 -1.44903 4.8272 0
M  V30 6037 H 542.378 -0.0995558 3.73867 0
M  V30 6038 H 544.67 -1.40981 6.62669 0
M  V30 6039 H 545.613 0.0451599 7.08086 0
M  V30 6040 H 546.021 -0.84147 5.58193 0
M  V30 6041 N 545.419 -1.53889 0.339982 0
M  V30 6042 C 546.649 -2.04973 -0.258738 0
M  V30 6043 C 547.057 -1.21485 -1.45045 0
M  V30 6044 O 546.4 -0.2422 -1.82096 0
M  V30 6045 C 546.462 -3.51783 -0.740853 0
M  V30 6046 C 546.126 -4.55802 0.330734 0
M  V30 6047 C 547.123 -5.06512 1.17226 0
M  V30 6048 C 544.808 -4.99966 0.483637 0
M  V30 6049 C 546.802 -5.99963 2.15227 0
M  V30 6050 C 544.489 -5.93229 1.46704 0
M  V30 6051 C 545.487 -6.43115 2.29981 0
M  V30 6052 O 545.175 -7.34545 3.26649 0
M  V30 6053 H 544.907 -0.673807 -0.0544037 0
M  V30 6054 H 547.461 -1.99492 0.489107 0
M  V30 6055 H 545.691 -3.54717 -1.53988 0
M  V30 6056 H 547.38 -3.85857 -1.25973 0
M  V30 6057 H 548.146 -4.73158 1.0652 0
M  V30 6058 H 544.025 -4.6074 -0.15471 0
M  V30 6059 H 547.569 -6.38825 2.80265 0
M  V30 6060 H 543.466 -6.25998 1.57468 0
M  V30 6061 H 544.234 -7.52468 3.22078 0
M  V30 6062 N 546.897 -0.0685191 -1.57451 0
M  V30 6063 C 548.174 0.642167 -1.84758 0
M  V30 6064 C 548.554 1.87991 -0.960344 0
M  V30 6065 O 547.902 2.28485 -0.0257894 0
M  V30 6066 C 548.112 0.982946 -3.34872 0
M  V30 6067 C 549.46 1.35784 -4.02303 0
M  V30 6068 O 550.484 1.07477 -3.39598 0
M  V30 6069 O 549.343 1.88681 -5.12895 0
M  V30 6070 H 546.437 0.318625 -0.763156 0
M  V30 6071 H 548.983 -0.0992015 -1.6941 0
M  V30 6072 H 547.755 0.10372 -3.91163 0
M  V30 6073 H 547.378 1.78119 -3.55471 0
M  V30 6074 N 548.375 1.56261 0.205012 0
M  V30 6075 C 549.323 1.94631 1.27364 0
M  V30 6076 C 550.317 0.830434 1.47649 0
M  V30 6077 O 551.523 1.01538 1.48627 0
M  V30 6078 H 547.898 0.618755 0.427371 0
M  V30 6079 H 549.869 2.83768 0.922941 0
M  V30 6080 C 548.618 2.29358 2.61324 0
M  V30 6081 H 547.941 3.14744 2.46528 0
M  V30 6082 H 549.381 2.60076 3.34868 0
M  V30 6083 C 547.84 1.12461 3.17575 0
M  V30 6084 O 548.37 0.394407 3.99759 0
M  V30 6085 N 546.576 0.904036 2.7618 0
M  V30 6086 H 546.123 1.49956 2.09454 0
M  V30 6087 H 546.081 0.123662 3.14157 0
M  V30 6088 N 549.853 -0.472356 1.50355 0
M  V30 6089 C 551.102 -1.2213 1.60522 0
M  V30 6090 C 551.415 -1.9312 0.310466 0
M  V30 6091 O 552.621 -2.69936 0.291029 0
M  V30 6092 C 551.077 -2.21909 2.83345 0
M  V30 6093 C 550.685 -1.56727 4.19691 0
M  V30 6094 C 552.429 -2.97453 3.02856 0
M  V30 6095 C 550.336 -2.54785 5.33703 0
M  V30 6096 H 549.266 -0.459543 0.597776 0
M  V30 6097 H 551.917 -0.491922 1.76783 0
M  V30 6098 H 550.299 -2.98133 2.60639 0
M  V30 6099 H 551.473 -0.863007 4.52646 0
M  V30 6100 H 549.788 -0.934685 4.05774 0
M  V30 6101 H 552.385 -3.70838 3.85205 0
M  V30 6102 H 552.728 -3.56764 2.14534 0
M  V30 6103 H 553.261 -2.28342 3.25737 0
M  V30 6104 H 550 -2.00214 6.24175 0
M  V30 6105 H 549.52 -3.23367 5.05167 0
M  V30 6106 H 551.199 -3.16639 5.64224 0
M  V30 6107 N 551.331 -1.39911 -0.725443 0
M  V30 6108 C 552.261 -1.42138 -1.85254 0
M  V30 6109 C 553.242 -0.283513 -1.67721 0
M  V30 6110 O 554.427 -0.490717 -1.87898 0
M  V30 6111 C 551.557 -1.27354 -3.23107 0
M  V30 6112 C 550.511 -2.3864 -3.55296 0
M  V30 6113 C 549.837 -2.08939 -4.92188 0
M  V30 6114 C 551.137 -3.8097 -3.57295 0
M  V30 6115 H 552.831 -2.36461 -1.83648 0
M  V30 6116 H 550.377 -1.13817 -0.882138 0
M  V30 6117 H 552.33 -1.2753 -4.01639 0
M  V30 6118 H 551.054 -0.295025 -3.25265 0
M  V30 6119 H 549.713 -2.37696 -2.79099 0
M  V30 6120 H 549.361 -1.09502 -4.90936 0
M  V30 6121 H 549.061 -2.83491 -5.14691 0
M  V30 6122 H 550.585 -2.10781 -5.73065 0
M  V30 6123 H 551.999 -3.8379 -4.25885 0
M  V30 6124 H 550.396 -4.5496 -3.9132 0
M  V30 6125 H 551.466 -4.11261 -2.5689 0
M  V30 6126 N 552.809 0.956637 -1.25245 0
M  V30 6127 C 553.759 2.03841 -1.02141 0
M  V30 6128 C 554.743 1.60848 0.0410058 0
M  V30 6129 O 555.935 1.76142 -0.174084 0
M  V30 6130 C 553.064 3.37282 -0.639963 0
M  V30 6131 C 552.15 3.86805 -1.73903 0
M  V30 6132 N 552.541 4.09143 -2.97381 0
M  V30 6133 C 550.839 4.15574 -1.61909 0
M  V30 6134 C 551.54 4.49923 -3.68707 0
M  V30 6135 N 550.516 4.55737 -2.96318 0
M  V30 6136 H 554.318 2.19102 -1.95886 0
M  V30 6137 H 551.832 1.1413 -1.15534 0
M  V30 6138 H 553.829 4.14403 -0.455643 0
M  V30 6139 H 552.489 3.23401 0.29018 0
M  V30 6140 H 553.5 3.96275 -3.33447 0
M  V30 6141 H 550.177 4.10566 -0.757764 0
M  V30 6142 H 551.567 4.75526 -4.74684 0
M  V30 6143 N 554.287 1.06798 1.15896 0
M  V30 6144 C 555.234 0.683314 2.20453 0
M  V30 6145 C 556.204 -0.32255 1.62938 0
M  V30 6146 O 557.389 -0.210276 1.89638 0
M  V30 6147 C 554.529 0.0813266 3.45004 0
M  V30 6148 C 553.642 1.13799 4.16742 0
M  V30 6149 C 552.777 0.501598 5.28826 0
M  V30 6150 C 551.816 1.54144 5.92373 0
M  V30 6151 N 550.953 0.928038 6.9594 0
M  V30 6152 H 555.793 1.57932 2.52708 0
M  V30 6153 H 553.33 0.789544 1.24115 0
M  V30 6154 H 555.288 -0.285274 4.16224 0
M  V30 6155 H 553.918 -0.77806 3.13283 0
M  V30 6156 H 552.97 1.62223 3.44075 0
M  V30 6157 H 554.282 1.92664 4.60089 0
M  V30 6158 H 553.436 0.0823162 6.06644 0
M  V30 6159 H 552.175 -0.318883 4.86656 0
M  V30 6160 H 551.18 1.97056 5.13273 0
M  V30 6161 H 552.405 2.3641 6.36621 0
M  V30 6162 H 550.351 0.12836 6.55874 0
M  V30 6163 H 550.268 1.65401 7.37685 0
M  V30 6164 H 551.536 0.534071 7.77668 0
M  V30 6165 N 555.766 -1.3263 0.851289 0
M  V30 6166 C 557.177 -1.79653 0.5081 0
M  V30 6167 C 557.528 -1.70327 -0.973815 0
M  V30 6168 O 556.653 -1.25986 -1.75944 0
M  V30 6169 C 557.248 -3.26196 0.915515 0
M  V30 6170 C 555.807 -3.71187 0.624277 0
M  V30 6171 C 554.954 -2.53804 1.11709 0
M  V30 6172 H 557.905 -1.19976 1.03882 0
M  V30 6173 H 557.926 -3.79801 0.230535 0
M  V30 6174 H 557.438 -3.32952 1.99411 0
M  V30 6175 H 555.539 -3.69948 -0.443737 0
M  V30 6176 H 555.652 -4.64132 1.18821 0
M  V30 6177 H 554.016 -2.48964 0.537484 0
M  V30 6178 H 554.799 -2.63315 2.20272 0
M  V30 6179 N 557.244 -0.608902 -1.45362 0
M  V30 6180 C 558.174 0.0964526 -2.33301 0
M  V30 6181 C 559.155 0.857444 -1.46908 0
M  V30 6182 O 560.34 0.827735 -1.75676 0
M  V30 6183 C 557.47 1.09354 -3.29635 0
M  V30 6184 C 556.424 0.445676 -4.25673 0
M  V30 6185 C 555.75 1.5511 -5.11708 0
M  V30 6186 C 557.05 -0.633972 -5.18438 0
M  V30 6187 H 558.744 -0.637829 -2.92527 0
M  V30 6188 H 556.29 -0.308178 -1.40664 0
M  V30 6189 H 558.243 1.59556 -3.90025 0
M  V30 6190 H 556.967 1.85843 -2.6857 0
M  V30 6191 H 555.626 -0.0354897 -3.66583 0
M  V30 6192 H 555.274 2.30631 -4.4701 0
M  V30 6193 H 554.974 1.12311 -5.76767 0
M  V30 6194 H 556.498 2.05537 -5.74967 0
M  V30 6195 H 557.912 -0.215974 -5.72893 0
M  V30 6196 H 556.309 -0.983789 -5.91981 0
M  V30 6197 H 557.379 -1.51005 -4.60788 0
M  V30 6198 N 558.722 1.53707 -0.348139 0
M  V30 6199 C 559.947 2.05877 0.250883 0
M  V30 6200 C 560.372 1.22115 1.43072 0
M  V30 6201 O 559.73 0.235986 1.79758 0
M  V30 6202 C 559.778 3.54886 0.639416 0
M  V30 6203 O 558.882 3.73948 1.73888 0
M  V30 6204 H 558.223 0.662754 0.040653 0
M  V30 6205 H 560.753 1.98303 -0.503685 0
M  V30 6206 H 560.763 3.97601 0.915295 0
M  V30 6207 H 559.438 4.153 -0.223386 0
M  V30 6208 H 558.015 3.43134 1.45991 0
M  V30 6209 N 560.2 0.0768682 1.57412 0
M  V30 6210 C 561.13 -0.886026 2.16037 0
M  V30 6211 C 562.111 -1.30691 1.08876 0
M  V30 6212 O 563.296 -1.37705 1.36934 0
M  V30 6213 C 560.426 -2.1518 2.72608 0
M  V30 6214 C 559.38 -1.87015 3.8498 0
M  V30 6215 C 558.706 -3.20266 4.28175 0
M  V30 6216 C 560.006 -1.17143 5.08994 0
M  V30 6217 H 561.7 -0.397642 2.96748 0
M  V30 6218 H 559.246 -0.189823 1.42743 0
M  V30 6219 H 561.199 -2.82962 3.12266 0
M  V30 6220 H 559.923 -2.66269 1.89125 0
M  V30 6221 H 558.582 -1.21636 3.45833 0
M  V30 6222 H 558.23 -3.69207 3.41607 0
M  V30 6223 H 557.93 -3.0221 5.03927 0
M  V30 6224 H 559.454 -3.89237 4.70454 0
M  V30 6225 H 560.868 -1.75003 5.45937 0
M  V30 6226 H 559.265 -1.09328 5.90057 0
M  V30 6227 H 560.335 -0.151295 4.84664 0
M  V30 6228 N 561.678 -1.56367 -0.196722 0
M  V30 6229 C 563.094 -1.49916 -0.54749 0
M  V30 6230 C 563.294 -0.77659 -1.85934 0
M  V30 6231 O 562.35 -0.32644 -2.50381 0
M  V30 6232 C 563.663 -2.94577 -0.603734 0
M  V30 6233 C 565.211 -3.05239 -0.692677 0
M  V30 6234 C 565.686 -4.51308 -0.780046 0
M  V30 6235 N 567.177 -4.55453 -0.843616 0
M  V30 6236 C 567.912 -5.65786 -0.931358 0
M  V30 6237 N 567.408 -6.85812 -0.981503 0
M  V30 6238 N 569.201 -5.53695 -0.968421 0
M  V30 6239 H 561.352 -2.01761 0.663803 0
M  V30 6240 H 563.615 -0.918094 0.236238 0
M  V30 6241 H 563.321 -3.50494 0.29105 0
M  V30 6242 H 563.195 -3.47841 -1.45898 0
M  V30 6243 H 565.582 -2.49372 -1.57789 0
M  V30 6244 H 565.663 -2.55103 0.188736 0
M  V30 6245 H 565.307 -5.078 0.100811 0
M  V30 6246 H 565.237 -4.99176 -1.67724 0
M  V30 6247 H 567.728 -3.69025 -0.814176 0
M  V30 6248 H 568.041 -7.65648 -1.04892 0
M  V30 6249 H 566.386 -6.88474 -0.950208 0
M  V30 6250 H 569.577 -4.58848 -0.926072 0
M  V30 6251 H 569.75 -6.39708 -1.03334 0
M  V30 6252 N 563.156 0.464375 -1.50603 0
M  V30 6253 C 564.567 1.04507 -1.5471 0
M  V30 6254 C 564.918 1.9297 -0.354542 0
M  V30 6255 O 564.043 2.09763 0.531812 0
M  V30 6256 C 564.638 1.90207 -2.80369 0
M  V30 6257 C 563.197 2.43373 -2.87135 0
M  V30 6258 C 562.344 1.21886 -2.49076 0
M  V30 6259 H 565.295 0.246716 -1.56771 0
M  V30 6260 H 565.316 2.75353 -2.62604 0
M  V30 6261 H 564.828 1.25796 -3.67147 0
M  V30 6262 H 562.929 3.11318 -2.04724 0
M  V30 6263 H 563.042 2.7802 -3.90181 0
M  V30 6264 H 561.406 1.55575 -2.01664 0
M  V30 6265 H 562.189 0.591268 -3.3817 0
M  V30 6266 N 564.634 1.40294 0.718013 0
M  V30 6267 C 565.882 1.38167 1.47494 0
M  V30 6268 C 566.203 -0.01607 1.94993 0
M  V30 6269 O 565.473 -0.970396 1.70177 0
M  V30 6270 H 564.053 0.508505 0.547203 0
M  V30 6271 H 566.715 1.75324 0.851322 0
M  V30 6272 H 565.811 2.05503 2.34894 0
M  V30 6273 N 566.112 -0.949982 1.2575 0
M  V30 6274 C 567.358 -1.69766 1.10938 0
M  V30 6275 C 567.691 -1.91056 -0.348028 0
M  V30 6276 O 566.966 -1.48488 -1.25625 0
M  V30 6277 C 567.249 -3.07779 1.86933 0
M  V30 6278 C 567.102 -2.9387 3.4053 0
M  V30 6279 C 568.421 -4.07749 1.65616 0
M  V30 6280 H 565.54 -0.616144 0.404396 0
M  V30 6281 H 568.182 -1.10394 1.54639 0
M  V30 6282 H 566.332 -3.58462 1.4979 0
M  V30 6283 H 568.004 -2.50476 3.87375 0
M  V30 6284 H 566.247 -2.29686 3.68004 0
M  V30 6285 H 566.918 -3.91719 3.88922 0
M  V30 6286 H 569.394 -3.65994 1.97959 0
M  V30 6287 H 568.27 -5.02348 2.21218 0
M  V30 6288 H 568.531 -4.38029 0.598595 0
M  V30 6289 N 567.59 -1.07411 -1.15328 0
M  V30 6290 C 568.815 -0.818856 -1.90551 0
M  V30 6291 C 569.24 0.622194 -1.77512 0
M  V30 6292 O 568.598 1.43484 -1.10824 0
M  V30 6293 C 568.646 -1.23267 -3.38877 0
M  V30 6294 O 567.75 -0.378345 -4.10661 0
M  V30 6295 H 567.091 -0.29827 -0.593238 0
M  V30 6296 H 569.621 -1.43289 -1.46046 0
M  V30 6297 H 569.631 -1.20912 -3.89672 0
M  V30 6298 H 568.306 -2.28226 -3.47686 0
M  V30 6299 H 566.883 -0.464437 -3.69996 0
M  V30 6300 N 569.068 1.32177 -0.85831 0
M  V30 6301 C 569.998 2.31282 -0.321041 0
M  V30 6302 C 570.979 1.59841 0.581786 0
M  V30 6303 O 572.164 1.87619 0.501262 0
M  V30 6304 C 569.294 3.4385 0.48832 0
M  V30 6305 C 568.248 4.26799 -0.320391 0
M  V30 6306 C 567.574 5.31164 0.613934 0
M  V30 6307 C 568.874 4.98829 -1.54813 0
M  V30 6308 H 570.568 2.76469 -1.14915 0
M  V30 6309 H 568.114 1.32916 -0.554028 0
M  V30 6310 H 570.067 4.12224 0.874626 0
M  V30 6311 H 568.791 2.97401 1.34983 0
M  V30 6312 H 567.45 3.60077 -0.688497 0
M  V30 6313 H 567.098 4.80967 1.47239 0
M  V30 6314 H 566.798 5.8755 0.0768097 0
M  V30 6315 H 568.322 6.024 0.997336 0
M  V30 6316 H 569.736 5.59864 -1.23392 0
M  V30 6317 H 568.133 5.64957 -2.02346 0
M  V30 6318 H 569.203 4.26483 -2.30739 0
M  V30 6319 N 570.547 0.616602 1.45037 0
M  V30 6320 C 571.775 0.121968 2.0654 0
M  V30 6321 C 572.19 -1.19743 1.45969 0
M  V30 6322 O 571.547 -1.73133 0.577168 0
M  V30 6323 C 571.598 -0.0145171 3.61497 0
M  V30 6324 O 571.319 1.25269 4.19809 0
M  V30 6325 C 572.82 -0.539555 4.40004 0
M  V30 6326 H 570.04 0.0729837 0.667019 0
M  V30 6327 H 572.584 0.846891 1.8614 0
M  V30 6328 H 570.739 -0.689809 3.81209 0
M  V30 6329 H 571.153 1.08816 5.13088 0
M  V30 6330 H 572.627 -0.584112 5.48901 0
M  V30 6331 H 573.104 -1.56368 4.10421 0
M  V30 6332 H 573.71 0.101995 4.25178 0
M  V30 6333 N 572.025 -1.5352 0.356285 0
M  V30 6334 C 572.988 -2.24071 -0.482182 0
M  V30 6335 C 573.988 -1.24531 -1.01729 0
M  V30 6336 O 575.178 -1.48876 -0.904513 0
M  V30 6337 C 572.31 -2.97025 -1.67299 0
M  V30 6338 H 573.503 -2.99596 0.135031 0
M  V30 6339 H 571.056 -1.55928 0.107825 0
M  V30 6340 H 571.791 -2.25719 -2.32855 0
M  V30 6341 H 571.576 -3.7005 -1.29636 0
M  V30 6342 H 573.066 -3.50683 -2.26741 0
M  V30 6343 N 573.503 -0.0852151 -1.57369 0
M  V30 6344 C 574.749 0.575588 -1.95086 0
M  V30 6345 C 575.104 1.66402 -0.96582 0
M  V30 6346 O 574.397 1.91598 0.00978463 0
M  V30 6347 C 574.591 1.18482 -3.3719 0
M  V30 6348 C 574.42 0.156928 -4.49426 0
M  V30 6349 C 573.19 -0.263126 -5.04614 0
M  V30 6350 C 575.388 -0.611068 -5.10657 0
M  V30 6351 N 573.37 -1.28032 -6.00401 0
M  V30 6352 C 574.741 -1.48036 -6.02068 0
M  V30 6353 C 576.796 -0.665669 -4.9343 0
M  V30 6354 C 575.499 -2.39943 -6.781 0
M  V30 6355 C 577.525 -1.5723 -5.70116 0
M  V30 6356 C 576.887 -2.42924 -6.61186 0
M  V30 6357 H 572.986 0.181249 -0.760705 0
M  V30 6358 H 575.57 -0.165484 -1.93995 0
M  V30 6359 H 573.741 1.89575 -3.38992 0
M  V30 6360 H 575.473 1.80718 -3.62109 0
M  V30 6361 H 572.228 0.122664 -4.73441 0
M  V30 6362 H 572.652 -1.78682 -6.52994 0
M  V30 6363 H 577.294 -0.0173214 -4.22796 0
M  V30 6364 H 575.012 -3.05807 -7.48002 0
M  V30 6365 H 578.598 -1.61956 -5.58804 0
M  V30 6366 H 577.478 -3.1194 -7.19488 0
M  V30 6367 N 574.981 1.5647 0.188427 0
M  V30 6368 C 576.206 1.85486 0.927891 0
M  V30 6369 C 576.631 0.669575 1.75779 0
M  V30 6370 O 575.989 -0.381573 1.77239 0
M  V30 6371 C 576.037 3.12784 1.7944 0
M  V30 6372 O 575.141 2.93805 2.894 0
M  V30 6373 H 574.482 0.610585 0.260925 0
M  V30 6374 H 577.012 2.037 0.191729 0
M  V30 6375 H 577.022 3.43749 2.19774 0
M  V30 6376 H 575.697 3.98671 1.18468 0
M  V30 6377 H 574.274 2.74153 2.52774 0
M  V30 6378 N 576.459 -0.456382 1.50847 0
M  V30 6379 C 577.708 -1.2042 1.61808 0
M  V30 6380 C 578.021 -1.9278 0.330932 0
M  V30 6381 O 579.227 -2.69612 0.319643 0
M  V30 6382 C 577.683 -2.18891 2.85683 0
M  V30 6383 C 577.291 -1.52267 4.2133 0
M  V30 6384 C 579.035 -2.94224 3.05994 0
M  V30 6385 C 576.942 -2.4911 5.36375 0
M  V30 6386 H 575.872 -0.453177 0.602616 0
M  V30 6387 H 578.523 -0.473144 1.77295 0
M  V30 6388 H 576.905 -2.95351 2.63787 0
M  V30 6389 H 578.079 -0.814949 4.53536 0
M  V30 6390 H 576.394 -0.891594 4.06743 0
M  V30 6391 H 578.991 -3.66732 3.89117 0
M  V30 6392 H 579.334 -3.54469 2.18306 0
M  V30 6393 H 579.867 -2.24874 3.28141 0
M  V30 6394 H 576.606 -1.93582 6.26264 0
M  V30 6395 H 576.126 -3.17991 5.08569 0
M  V30 6396 H 577.805 -3.10637 5.67551 0
M  V30 6397 N 577.937 -1.40673 -0.710563 0
M  V30 6398 C 578.867 -1.44095 -1.83736 0
M  V30 6399 C 579.848 -0.301286 -1.67411 0
M  V30 6400 O 581.033 -0.510618 -1.87367 0
M  V30 6401 C 578.163 -1.30773 -3.21738 0
M  V30 6402 C 577.117 -2.42395 -3.52745 0
M  V30 6403 C 576.443 -2.14147 -4.89944 0
M  V30 6404 C 577.743 -3.84738 -3.53234 0
M  V30 6405 H 579.437 -2.38396 -1.81129 0
M  V30 6406 H 576.983 -1.14746 -0.870017 0
M  V30 6407 H 578.936 -1.31783 -4.00264 0
M  V30 6408 H 577.66 -0.329507 -3.24934 0
M  V30 6409 H 576.319 -2.40643 -2.76562 0
M  V30 6410 H 575.967 -1.14703 -4.89747 0
M  V30 6411 H 575.667 -2.88934 -5.11655 0
M  V30 6412 H 577.191 -2.16848 -5.70797 0
M  V30 6413 H 578.605 -3.88286 -4.2179 0
M  V30 6414 H 577.002 -4.59085 -3.86473 0
M  V30 6415 H 578.072 -4.13962 -2.52514 0
M  V30 6416 N 579.415 0.9433 -1.26252 0
M  V30 6417 C 580.325 2.07532 -1.09397 0
M  V30 6418 C 581.341 1.73977 -0.0280449 0
M  V30 6419 O 582.517 2.00067 -0.231337 0
M  V30 6420 C 579.582 3.39002 -0.726523 0
M  V30 6421 C 578.643 3.86353 -1.87163 0
M  V30 6422 C 577.876 5.11549 -1.52162 0
M  V30 6423 O 578.099 5.68834 -0.422385 0
M  V30 6424 O 577.033 5.53889 -2.35565 0
M  V30 6425 H 580.859 2.24658 -2.04359 0
M  V30 6426 H 578.444 1.05988 -1.05295 0
M  V30 6427 H 580.326 4.18 -0.534236 0
M  V30 6428 H 579.001 3.2312 0.193721 0
M  V30 6429 H 577.908 3.0831 -2.11886 0
M  V30 6430 H 579.241 4.06752 -2.77152 0
M  V30 6431 N 580.893 1.08022 1.14757 0
M  V30 6432 C 581.803 0.718292 2.23333 0
M  V30 6433 C 582.819 -0.273477 1.71837 0
M  V30 6434 O 583.995 -0.118406 2.01052 0
M  V30 6435 C 581.06 0.128855 3.4646 0
M  V30 6436 C 580.121 1.17473 4.12915 0
M  V30 6437 C 579.354 0.61333 5.30164 0
M  V30 6438 O 579.577 -0.568458 5.6756 0
M  V30 6439 O 578.511 1.3615 5.86299 0
M  V30 6440 H 582.337 1.62394 2.56636 0
M  V30 6441 H 579.922 0.853628 1.22611 0
M  V30 6442 H 581.804 -0.197249 4.20938 0
M  V30 6443 H 580.479 -0.750014 3.14891 0
M  V30 6444 H 579.386 1.5533 3.40328 0
M  V30 6445 H 580.719 2.02574 4.48581 0
M  V30 6446 N 582.371 -1.3172 0.865308 0
M  V30 6447 C 583.301 -2.31109 0.333302 0
M  V30 6448 C 584.282 -1.60148 -0.573301 0
M  V30 6449 O 585.467 -1.87882 -0.491305 0
M  V30 6450 C 582.597 -3.44104 -0.470078 0
M  V30 6451 C 581.551 -4.26623 0.343021 0
M  V30 6452 C 580.877 -5.31482 -0.585756 0
M  V30 6453 C 582.177 -4.98001 1.57456 0
M  V30 6454 H 583.871 -2.75855 1.1638 0
M  V30 6455 H 581.417 -1.3262 0.561069 0
M  V30 6456 H 583.37 -4.12682 -0.852752 0
M  V30 6457 H 582.094 -2.98112 -1.33404 0
M  V30 6458 H 580.753 -3.59707 0.707583 0
M  V30 6459 H 580.401 -4.81741 -1.44686 0
M  V30 6460 H 580.101 -5.87582 -0.0456494 0
M  V30 6461 H 581.625 -6.0292 -0.965375 0
M  V30 6462 H 583.039 -5.59201 1.26359 0
M  V30 6463 H 581.436 -5.63876 2.05339 0
M  V30 6464 H 582.506 -4.25253 2.32997 0
M  V30 6465 N 583.85 -0.624285 -1.44708 0
M  V30 6466 C 584.779 0.0717025 -2.3339 0
M  V30 6467 C 585.76 0.841814 -1.47809 0
M  V30 6468 O 586.946 0.809056 -1.76544 0
M  V30 6469 C 584.076 1.05852 -3.30776 0
M  V30 6470 C 583.029 0.400503 -4.26122 0
M  V30 6471 C 582.356 1.49674 -5.13324 0
M  V30 6472 C 583.656 -0.688924 -5.17737 0
M  V30 6473 H 585.35 -0.668819 -2.91834 0
M  V30 6474 H 582.896 -0.32308 -1.40329 0
M  V30 6475 H 584.849 1.5541 -3.91696 0
M  V30 6476 H 583.572 1.82984 -2.70526 0
M  V30 6477 H 582.231 -0.0743687 -3.66525 0
M  V30 6478 H 581.88 2.25877 -4.49431 0
M  V30 6479 H 581.58 1.06188 -5.77926 0
M  V30 6480 H 583.104 1.99427 -5.77115 0
M  V30 6481 H 584.518 -0.276724 -5.72632 0
M  V30 6482 H 582.915 -1.04652 -5.90904 0
M  V30 6483 H 583.985 -1.55884 -4.5916 0
M  V30 6484 N 585.328 1.53329 -0.364422 0
M  V30 6485 C 586.238 2.29414 0.490552 0
M  V30 6486 C 587.254 1.35335 1.09363 0
M  V30 6487 O 588.43 1.68391 1.10483 0
M  V30 6488 C 585.495 3.06772 1.61529 0
M  V30 6489 C 584.556 4.16516 1.03986 0
M  V30 6490 C 583.789 4.90176 2.111 0
M  V30 6491 O 584.012 4.63687 3.32191 0
M  V30 6492 O 582.946 5.76134 1.74222 0
M  V30 6493 H 586.772 3.03428 -0.12856 0
M  V30 6494 H 584.357 1.48843 -0.128837 0
M  V30 6495 H 586.239 3.55082 2.26924 0
M  V30 6496 H 584.914 2.35596 2.21983 0
M  V30 6497 H 583.821 3.7246 0.349856 0
M  V30 6498 H 585.154 4.89855 0.4799 0
M  V30 6499 N 586.806 0.0935595 1.57322 0
M  V30 6500 C 587.753 -0.865935 2.1394 0
M  V30 6501 C 588.723 -1.28083 1.05754 0
M  V30 6502 O 589.908 -1.36285 1.33533 0
M  V30 6503 C 587.048 -2.12023 2.72287 0
M  V30 6504 C 586.161 -1.756 3.94701 0
M  V30 6505 C 585.296 -2.95804 4.41218 0
M  V30 6506 C 584.335 -2.555 5.56225 0
M  V30 6507 N 583.472 -3.68534 5.97601 0
M  V30 6508 H 588.312 -0.376261 2.95615 0
M  V30 6509 H 585.849 -0.174052 1.46067 0
M  V30 6510 H 587.807 -2.85477 3.04235 0
M  V30 6511 H 586.437 -2.58492 1.93343 0
M  V30 6512 H 585.489 -0.921208 3.69077 0
M  V30 6513 H 586.801 -1.41964 4.78171 0
M  V30 6514 H 585.955 -3.77513 4.74941 0
M  V30 6515 H 584.694 -3.32649 3.56645 0
M  V30 6516 H 583.699 -1.72218 5.22131 0
M  V30 6517 H 584.924 -2.19801 6.42545 0
M  V30 6518 H 582.87 -4.051 5.15974 0
M  V30 6519 H 582.787 -3.38737 6.75865 0
M  V30 6520 H 584.055 -4.50757 6.35955 0
M  V30 6521 N 588.284 -1.56567 -0.180126 0
M  V30 6522 C 589.561 -1.7235 -0.924931 0
M  V30 6523 C 589.941 -0.652523 -2.00762 0
M  V30 6524 O 589.289 0.334115 -2.26044 0
M  V30 6525 C 589.499 -3.1523 -1.49771 0
M  V30 6526 C 590.847 -3.75921 -1.97405 0
M  V30 6527 O 591.871 -3.18452 -1.59583 0
M  V30 6528 O 590.73 -4.7681 -2.67048 0
M  V30 6529 H 587.824 -0.703502 -0.434758 0
M  V30 6530 H 590.37 -1.6886 -0.168647 0
M  V30 6531 H 589.142 -3.84656 -0.718027 0
M  V30 6532 H 588.765 -3.23009 -2.31842 0
M  V30 6533 N 589.762 0.448376 -1.51087 0
M  V30 6534 C 591.178 0.783984 -1.39017 0
M  V30 6535 C 591.378 1.96087 -0.463904 0
M  V30 6536 O 590.434 2.52357 0.0850534 0
M  V30 6537 C 591.747 1.07471 -2.80839 0
M  V30 6538 C 593.295 1.17981 -2.89913 0
M  V30 6539 C 593.77 1.50354 -4.32617 0
M  V30 6540 N 595.261 1.57301 -4.35673 0
M  V30 6541 C 595.996 1.839 -5.4311 0
M  V30 6542 N 595.492 2.08365 -6.60724 0
M  V30 6543 N 597.285 1.8559 -5.30578 0
M  V30 6544 H 589.436 -0.326881 -2.0987 0
M  V30 6545 H 591.699 -0.0838006 -0.944289 0
M  V30 6546 H 591.405 0.282768 -3.50561 0
M  V30 6547 H 591.279 2.00519 -3.19487 0
M  V30 6548 H 593.666 1.9624 -2.20395 0
M  V30 6549 H 593.747 0.228603 -2.54776 0
M  V30 6550 H 593.391 0.726273 -5.0268 0
M  V30 6551 H 593.321 2.46663 -4.65258 0
M  V30 6552 H 595.812 1.40342 -3.50874 0
M  V30 6553 H 596.125 2.27999 -7.38401 0
M  V30 6554 H 594.47 2.0571 -6.63859 0
M  V30 6555 H 597.661 1.65989 -4.37682 0
M  V30 6556 H 597.834 2.05983 -6.1439 0
M  V30 6557 N 591.24 1.41047 0.703093 0
M  V30 6558 C 592.172 1.38228 1.82827 0
M  V30 6559 C 593.185 0.285637 1.60275 0
M  V30 6560 O 594.374 0.54685 1.69917 0
M  V30 6561 C 591.474 1.13136 3.19458 0
M  V30 6562 C 590.647 2.34695 3.69103 0
M  V30 6563 C 589.706 2.05574 4.84382 0
M  V30 6564 O 588.732 2.78549 4.96386 0
M  V30 6565 N 589.934 1.04135 5.71083 0
M  V30 6566 H 592.699 2.35203 1.85741 0
M  V30 6567 H 590.26 1.35562 0.885125 0
M  V30 6568 H 592.252 0.916183 3.94193 0
M  V30 6569 H 590.822 0.247836 3.11616 0
M  V30 6570 H 590.042 2.71963 2.85359 0
M  V30 6571 H 591.33 3.15705 3.99009 0
M  V30 6572 H 590.728 0.43722 5.64008 0
M  V30 6573 H 589.285 0.886078 6.45749 0
M  V30 6574 N 592.718 -0.936591 1.26751 0
M  V30 6575 C 593.666 -2.0573 1.08527 0
M  V30 6576 C 594.66 -1.69397 0.0108784 0
M  V30 6577 O 595.866 -1.79215 0.167915 0
M  V30 6578 H 592.241 -0.673691 0.334133 0
M  V30 6579 H 594.212 -2.1825 2.03493 0
M  V30 6580 C 592.961 -3.39738 0.739845 0
M  V30 6581 H 592.284 -3.68174 1.55845 0
M  V30 6582 H 593.724 -4.18955 0.652149 0
M  V30 6583 C 592.183 -3.32292 -0.555288 0
M  V30 6584 O 592.713 -3.68794 -1.59229 0
M  V30 6585 N 590.919 -2.85394 -0.54762 0
M  V30 6586 H 590.466 -2.55886 0.296667 0
M  V30 6587 H 590.424 -2.80795 -1.41427 0
M  V30 6588 N 594.196 -1.08629 -1.14182 0
M  V30 6589 C 595.612 -0.814363 -1.3726 0
M  V30 6590 C 595.812 0.575271 -1.93114 0
M  V30 6591 O 594.868 1.33165 -2.1453 0
M  V30 6592 C 596.181 -1.8989 -2.33157 0
M  V30 6593 C 597.729 -1.92518 -2.46791 0
M  V30 6594 C 598.204 -3.00092 -3.45989 0
M  V30 6595 N 599.695 -2.99279 -3.53534 0
M  V30 6596 C 600.43 -3.79158 -4.30147 0
M  V30 6597 N 599.926 -4.68923 -5.09983 0
M  V30 6598 N 601.719 -3.67451 -4.25366 0
M  V30 6599 H 593.87 -1.98232 -0.762758 0
M  V30 6600 H 596.133 -0.860383 -0.398051 0
M  V30 6601 H 595.839 -2.89809 -1.99257 0
M  V30 6602 H 595.713 -1.77013 -3.33086 0
M  V30 6603 H 598.1 -0.932425 -2.79982 0
M  V30 6604 H 598.181 -2.09473 -1.46816 0
M  V30 6605 H 597.825 -3.99575 -3.13532 0
M  V30 6606 H 597.755 -2.80382 -4.45751 0
M  V30 6607 H 600.246 -2.3422 -2.96563 0
M  V30 6608 H 600.559 -5.26475 -5.65724 0
M  V30 6609 H 598.904 -4.72964 -5.09244 0
M  V30 6610 H 602.095 -2.9669 -3.62067 0
M  V30 6611 H 602.268 -4.29944 -4.84822 0
M  V30 6612 N 595.674 1.31259 -0.872281 0
M  V30 6613 C 596.604 2.30929 -0.345554 0
M  V30 6614 C 597.585 1.60449 0.5648 0
M  V30 6615 O 598.77 1.8814 0.481335 0
M  V30 6616 C 595.9 3.44348 0.451823 0
M  V30 6617 C 594.854 4.26435 -0.365641 0
M  V30 6618 C 594.18 5.31785 0.557562 0
M  V30 6619 C 595.48 4.97159 -1.60095 0
M  V30 6620 H 597.174 2.75234 -1.17841 0
M  V30 6621 H 594.72 1.3232 -0.568094 0
M  V30 6622 H 596.673 4.13128 0.830854 0
M  V30 6623 H 595.397 2.98816 1.31821 0
M  V30 6624 H 594.056 3.59326 -0.726649 0
M  V30 6625 H 593.704 4.82502 1.4213 0
M  V30 6626 H 593.404 5.87598 0.0144878 0
M  V30 6627 H 594.928 6.03424 0.933387 0
M  V30 6628 H 596.342 5.58523 -1.29323 0
M  V30 6629 H 594.739 5.62779 -2.08327 0
M  V30 6630 H 595.809 4.24012 -2.35249 0
M  V30 6631 N 597.152 0.631951 1.44375 0
M  V30 6632 C 598.4 0.136497 2.01639 0
M  V30 6633 C 598.721 -1.24637 1.49969 0
M  V30 6634 O 597.991 -1.82827 0.70363 0
M  V30 6635 H 596.571 0.0474703 0.74549 0
M  V30 6636 H 599.233 0.818837 1.76865 0
M  V30 6637 H 598.329 0.104817 3.11924 0
M  V30 6638 N 598.631 -1.53133 0.372548 0
M  V30 6639 C 599.594 -2.24569 -0.458389 0
M  V30 6640 C 600.594 -1.25603 -1.00402 0
M  V30 6641 O 601.784 -1.49827 -0.888672 0
M  V30 6642 C 598.916 -2.98783 -1.6414 0
M  V30 6643 H 600.109 -2.99436 0.166799 0
M  V30 6644 H 597.662 -1.55805 0.124357 0
M  V30 6645 H 598.397 -2.28176 -2.30448 0
M  V30 6646 H 598.182 -3.71404 -1.25704 0
M  V30 6647 H 599.672 -3.53068 -2.23008 0
M  V30 6648 N 600.109 -0.101901 -1.5727 0
M  V30 6649 C 601.056 0.854577 -2.14396 0
M  V30 6650 C 602.026 1.27521 -1.06432 0
M  V30 6651 O 603.211 1.35575 -1.34253 0
M  V30 6652 C 600.351 2.10576 -2.73408 0
M  V30 6653 C 599.464 1.73504 -3.95626 0
M  V30 6654 C 598.599 2.9346 -4.42781 0
M  V30 6655 C 597.638 2.52547 -5.57572 0
M  V30 6656 N 596.775 3.65359 -5.99547 0
M  V30 6657 H 601.615 0.360578 -2.9581 0
M  V30 6658 H 599.152 0.166303 -1.46157 0
M  V30 6659 H 601.11 2.83859 -3.05745 0
M  V30 6660 H 599.74 2.57463 -1.94711 0
M  V30 6661 H 598.792 0.901622 -3.6956 0
M  V30 6662 H 600.104 1.39426 -4.78917 0
M  V30 6663 H 599.258 3.74988 -4.76937 0
M  V30 6664 H 597.997 3.30753 -3.58404 0
M  V30 6665 H 597.002 1.69446 -5.23037 0
M  V30 6666 H 598.227 2.1639 -6.43702 0
M  V30 6667 H 596.173 4.02358 -5.18116 0
M  V30 6668 H 596.09 3.35148 -6.77652 0
M  V30 6669 H 597.358 4.47378 -6.38336 0
M  V30 6670 N 601.587 1.56661 0.17182 0
M  V30 6671 C 602.497 1.99604 1.2327 0
M  V30 6672 C 603.513 0.907333 1.4847 0
M  V30 6673 O 604.689 1.21492 1.60629 0
M  V30 6674 C 601.754 2.34685 2.55194 0
M  V30 6675 C 600.815 3.57381 2.3786 0
M  V30 6676 C 600.048 3.90779 3.63494 0
M  V30 6677 O 600.271 3.25152 4.6865 0
M  V30 6678 O 599.205 4.84129 3.57634 0
M  V30 6679 H 603.031 2.90114 0.898192 0
M  V30 6680 H 600.616 1.44522 0.378647 0
M  V30 6681 H 602.498 2.5822 3.33017 0
M  V30 6682 H 601.173 1.47336 2.88225 0
M  V30 6683 H 600.08 3.39064 1.5807 0
M  V30 6684 H 601.413 4.45268 2.09754 0
M  V30 6685 N 603.065 -0.440357 1.51323 0
M  V30 6686 C 604.342 -1.20109 1.5438 0
M  V30 6687 C 604.722 -2.08866 0.306303 0
M  V30 6688 O 604.07 -2.1723 -0.708773 0
M  V30 6689 C 604.28 -2.00555 2.8562 0
M  V30 6690 C 605.628 -2.577 3.37455 0
M  V30 6691 O 606.652 -2.10769 2.8715 0
M  V30 6692 O 605.511 -3.43289 4.25224 0
M  V30 6693 H 602.605 -0.546668 0.620551 0
M  V30 6694 H 605.151 -0.449672 1.63634 0
M  V30 6695 H 603.923 -1.35346 3.67147 0
M  V30 6696 H 603.546 -2.82768 2.79514 0
M  V30 6697 N 604.543 -1.41418 -0.695603 0
M  V30 6698 C 605.79 -1.40774 -1.45564 0
M  V30 6699 C 606.118 -0.0168604 -1.94493 0
M  V30 6700 O 605.373 0.971259 -1.69897 0
M  V30 6701 C 605.672 -2.36112 -2.68302 0
M  V30 6702 C 605.338 -3.82952 -2.38031 0
M  V30 6703 C 604 -4.22954 -2.29486 0
M  V30 6704 C 606.352 -4.75662 -2.13061 0
M  V30 6705 C 603.68 -5.53674 -1.94067 0
M  V30 6706 C 606.032 -6.06702 -1.79151 0
M  V30 6707 C 604.696 -6.45725 -1.69102 0
M  V30 6708 H 603.966 -0.515128 -0.532658 0
M  V30 6709 H 606.613 -1.74216 -0.795047 0
M  V30 6710 H 604.918 -1.95924 -3.39295 0
M  V30 6711 H 606.615 -2.32887 -3.26442 0
M  V30 6712 H 603.205 -3.5127 -2.45576 0
M  V30 6713 H 607.389 -4.45561 -2.18608 0
M  V30 6714 H 602.645 -5.8279 -1.8484 0
M  V30 6715 H 606.819 -6.78041 -1.5885 0
M  V30 6716 H 604.446 -7.46929 -1.41426 0
M  V30 6717 N 606.021 0.929856 -1.27246 0
M  V30 6718 C 606.951 2.04722 -1.12299 0
M  V30 6719 C 607.932 1.70082 -0.0250464 0
M  V30 6720 O 609.117 1.93176 -0.199141 0
M  V30 6721 C 606.247 3.38721 -0.767145 0
M  V30 6722 C 605.201 3.87466 -1.81808 0
M  V30 6723 C 604.527 5.18246 -1.31626 0
M  V30 6724 C 605.827 4.11095 -3.22177 0
M  V30 6725 H 607.521 2.17485 -2.05769 0
M  V30 6726 H 605.067 1.04503 -0.990715 0
M  V30 6727 H 607.02 4.16366 -0.649413 0
M  V30 6728 H 605.744 3.25967 0.203259 0
M  V30 6729 H 604.403 3.12012 -1.92468 0
M  V30 6730 H 604.051 5.01881 -0.335378 0
M  V30 6731 H 603.751 5.51829 -2.01887 0
M  V30 6732 H 605.275 5.98462 -1.21143 0
M  V30 6733 H 606.689 4.79316 -3.1453 0
M  V30 6734 H 605.086 4.55982 -3.90129 0
M  V30 6735 H 606.156 3.16468 -3.67391 0
M  V30 6736 N 607.499 1.09233 1.13605 0
M  V30 6737 C 608.409 0.741939 2.22559 0
M  V30 6738 C 609.425 -0.255236 1.72118 0
M  V30 6739 O 610.601 -0.0970747 2.01166 0
M  V30 6740 C 607.666 0.165595 3.46304 0
M  V30 6741 C 606.727 1.21846 4.11645 0
M  V30 6742 C 605.96 0.669526 5.29484 0
M  V30 6743 O 606.183 -0.508228 5.68131 0
M  V30 6744 O 605.117 1.42361 5.84822 0
M  V30 6745 H 608.943 1.65107 2.54899 0
M  V30 6746 H 606.528 0.866584 1.21699 0
M  V30 6747 H 608.41 -0.152592 4.21124 0
M  V30 6748 H 607.085 -0.716573 3.15669 0
M  V30 6749 H 605.992 1.58931 3.38662 0
M  V30 6750 H 607.325 2.07321 4.46407 0
M  V30 6751 N 608.977 -1.30795 0.87923 0
M  V30 6752 C 610.226 -1.95636 0.490875 0
M  V30 6753 C 610.539 -1.70214 -0.963674 0
M  V30 6754 O 611.745 -2.28991 -1.45861 0
M  V30 6755 C 610.201 -3.50271 0.826929 0
M  V30 6756 C 609.809 -3.84521 2.29886 0
M  V30 6757 C 611.553 -4.21456 0.507494 0
M  V30 6758 C 609.46 -5.32309 2.57685 0
M  V30 6759 H 608.39 -0.732238 0.179841 0
M  V30 6760 H 611.041 -1.48829 1.07341 0
M  V30 6761 H 609.423 -3.9562 0.173542 0
M  V30 6762 H 610.597 -3.50102 2.99609 0
M  V30 6763 H 608.912 -3.26425 2.58526 0
M  V30 6764 H 611.509 -5.30199 0.692293 0
M  V30 6765 H 611.852 -4.12614 -0.552718 0
M  V30 6766 H 612.385 -3.81772 1.11782 0
M  V30 6767 H 609.124 -5.46195 3.62424 0
M  V30 6768 H 608.644 -5.68048 1.92566 0
M  V30 6769 H 610.323 -5.99678 2.42889 0
M  V30 6770 N 610.455 -0.639598 -1.44038 0
M  V30 6771 C 611.387 0.0987684 -2.28987 0
M  V30 6772 C 612.4 0.80058 -1.41755 0
M  V30 6773 O 613.589 0.660611 -1.65826 0
M  V30 6774 C 610.689 1.16242 -3.18341 0
M  V30 6775 C 609.862 0.541447 -4.34036 0
M  V30 6776 C 608.921 1.50017 -5.04362 0
M  V30 6777 O 607.947 1.01403 -5.60095 0
M  V30 6778 N 609.149 2.83441 -5.06598 0
M  V30 6779 H 611.914 -0.630305 -2.92997 0
M  V30 6780 H 609.475 -0.481376 -1.54578 0
M  V30 6781 H 611.467 1.80429 -3.62253 0
M  V30 6782 H 610.037 1.79362 -2.56024 0
M  V30 6783 H 609.257 -0.27923 -3.9321 0
M  V30 6784 H 610.545 0.107379 -5.08687 0
M  V30 6785 H 609.943 3.2551 -4.62666 0
M  V30 6786 H 608.5 3.42966 -5.54272 0
M  V30 6787 N 611.933 1.52934 -0.380664 0
M  V30 6788 C 612.881 2.27727 0.47361 0
M  V30 6789 C 613.875 1.31288 1.0705 0
M  V30 6790 O 615.081 1.4886 1.01197 0
M  V30 6791 H 611.456 0.732189 0.171475 0
M  V30 6792 H 613.427 2.97864 -0.178785 0
M  V30 6793 C 612.176 3.0904 1.59341 0
M  V30 6794 H 611.499 3.831 1.14343 0
M  V30 6795 H 612.939 3.64527 2.16555 0
M  V30 6796 C 611.398 2.20813 2.54447 0
M  V30 6797 O 611.928 1.82907 3.57642 0
M  V30 6798 N 610.134 1.85145 2.23986 0
M  V30 6799 H 609.681 2.16169 1.40103 0
M  V30 6800 H 609.639 1.26402 2.87871 0
M  V30 6801 N 613.412 0.11024 1.57214 0
M  V30 6802 C 614.362 -0.854147 2.11396 0
M  V30 6803 C 615.346 -1.23394 1.03261 0
M  V30 6804 O 616.538 -1.20649 1.2951 0
M  V30 6805 C 613.667 -2.10752 2.70995 0
M  V30 6806 C 612.753 -1.75249 3.86198 0
M  V30 6807 N 613.144 -1.10377 4.9361 0
M  V30 6808 C 611.442 -2.04763 3.96217 0
M  V30 6809 C 612.143 -0.938199 5.74084 0
M  V30 6810 N 611.119 -1.46039 5.23616 0
M  V30 6811 H 614.921 -0.348897 2.91822 0
M  V30 6812 H 612.435 -0.0925071 1.62136 0
M  V30 6813 H 614.432 -2.80801 3.0815 0
M  V30 6814 H 613.092 -2.61829 1.9203 0
M  V30 6815 H 614.103 -0.768785 5.12162 0
M  V30 6816 H 610.78 -2.57948 3.28282 0
M  V30 6817 H 612.17 -0.429678 6.70525 0
M  V30 6818 N 614.89 -1.56749 -0.16351 0
M  V30 6819 C 616.301 -1.72039 -0.725216 0
M  V30 6820 C 616.652 -0.72202 -1.82432 0
M  V30 6821 O 615.777 0.114942 -2.16095 0
M  V30 6822 C 616.372 -3.11932 -1.32227 0
M  V30 6823 C 614.931 -3.28879 -1.83072 0
M  V30 6824 C 614.078 -2.67984 -0.712716 0
M  V30 6825 H 617.029 -1.58579 0.0619772 0
M  V30 6826 H 617.05 -3.11015 -2.19202 0
M  V30 6827 H 616.562 -3.84572 -0.522103 0
M  V30 6828 H 614.663 -2.61209 -2.65708 0
M  V30 6829 H 614.776 -4.36688 -1.97079 0
M  V30 6830 H 613.14 -2.28005 -1.13515 0
M  V30 6831 H 613.923 -3.43216 0.0757361 0
M  V30 6832 N 616.368 0.432326 -1.51554 0
M  V30 6833 C 617.615 1.18134 -1.64471 0
M  V30 6834 C 617.943 1.91076 -0.363349 0
M  V30 6835 O 617.198 1.84492 0.65279 0
M  V30 6836 C 617.497 2.21907 -2.80164 0
M  V30 6837 C 617.163 1.65941 -4.19255 0
M  V30 6838 C 615.825 1.50401 -4.57092 0
M  V30 6839 C 618.177 1.24843 -5.06027 0
M  V30 6840 C 615.505 0.922443 -5.79403 0
M  V30 6841 C 617.857 0.68113 -6.28922 0
M  V30 6842 C 616.521 0.512673 -6.65528 0
M  V30 6843 H 615.791 0.432283 -0.601841 0
M  V30 6844 H 618.438 0.471701 -1.856 0
M  V30 6845 H 616.743 2.98928 -2.53277 0
M  V30 6846 H 618.44 2.79691 -2.87357 0
M  V30 6847 H 615.03 1.79014 -3.89425 0
M  V30 6848 H 619.214 1.35667 -4.77397 0
M  V30 6849 H 614.47 0.779733 -6.06408 0
M  V30 6850 H 618.644 0.35418 -6.95499 0
M  V30 6851 H 616.271 0.0599084 -7.60176 0
M  V30 6852 N 617.846 1.41785 0.688094 0
M  V30 6853 C 619.093 1.41544 1.44816 0
M  V30 6854 C 619.421 0.0271746 1.94481 0
M  V30 6855 O 618.676 -0.962235 1.7041 0
M  V30 6856 C 618.975 2.37532 2.67046 0
M  V30 6857 C 618.641 3.84209 2.35996 0
M  V30 6858 C 617.303 4.24165 2.27239 0
M  V30 6859 C 619.655 4.76785 2.10536 0
M  V30 6860 C 616.983 5.54695 1.91128 0
M  V30 6861 C 619.335 6.07644 1.75931 0
M  V30 6862 C 617.999 6.46613 1.65675 0
M  V30 6863 H 617.269 0.517945 0.529919 0
M  V30 6864 H 619.916 1.74635 0.785797 0
M  V30 6865 H 618.221 1.9772 3.38251 0
M  V30 6866 H 619.918 2.34615 3.25203 0
M  V30 6867 H 616.508 3.52567 2.4371 0
M  V30 6868 H 620.692 4.46714 2.16242 0
M  V30 6869 H 615.948 5.83762 1.81746 0
M  V30 6870 H 620.122 6.78874 1.55252 0
M  V30 6871 H 617.749 7.47668 1.37463 0
M  V30 6872 N 619.324 -0.923095 1.27737 0
M  V30 6873 C 620.234 -2.05765 1.12685 0
M  V30 6874 C 621.25 -1.73911 0.0557197 0
M  V30 6875 O 622.426 -1.99674 0.263137 0
M  V30 6876 C 619.491 -3.37804 0.780363 0
M  V30 6877 C 618.552 -3.83326 1.93286 0
M  V30 6878 C 617.785 -5.09064 1.60281 0
M  V30 6879 O 618.008 -5.6809 0.512828 0
M  V30 6880 O 616.942 -5.50071 2.44347 0
M  V30 6881 H 620.768 -2.21378 2.07907 0
M  V30 6882 H 618.353 -1.04299 1.06968 0
M  V30 6883 H 620.235 -4.17097 0.600668 0
M  V30 6884 H 618.91 -3.23387 -0.142291 0
M  V30 6885 H 617.817 -3.049 2.16764 0
M  V30 6886 H 619.15 -4.02292 2.83588 0
M  V30 6887 N 620.802 -1.09834 -1.13024 0
M  V30 6888 C 622.027 -0.85909 -1.88771 0
M  V30 6889 C 622.452 0.584402 -1.78791 0
M  V30 6890 O 621.81 1.41101 -1.13842 0
M  V30 6891 C 621.858 -1.30427 -3.36186 0
M  V30 6892 O 620.962 -0.465368 -4.09766 0
M  V30 6893 H 620.303 -0.310786 -0.586778 0
M  V30 6894 H 622.833 -1.46355 -1.42973 0
M  V30 6895 H 622.843 -1.2915 -3.8702 0
M  V30 6896 H 621.518 -2.3555 -3.42767 0
M  V30 6897 H 620.095 -0.542814 -3.68928 0
M  V30 6898 N 622.28 1.30327 -0.886154 0
M  V30 6899 C 623.21 2.30549 -0.370028 0
M  V30 6900 C 624.191 1.61039 0.547751 0
M  V30 6901 O 625.376 1.8864 0.461353 0
M  V30 6902 C 622.506 3.44808 0.415275 0
M  V30 6903 C 621.46 4.26024 -0.41085 0
M  V30 6904 C 620.786 5.32347 0.501128 0
M  V30 6905 C 622.086 4.95433 -1.65359 0
M  V30 6906 H 623.78 2.73969 -1.20754 0
M  V30 6907 H 621.326 1.3171 -0.582097 0
M  V30 6908 H 623.279 4.13986 0.78699 0
M  V30 6909 H 622.003 3.00197 1.28644 0
M  V30 6910 H 620.662 3.58535 -0.764719 0
M  V30 6911 H 620.31 4.83982 1.37004 0
M  V30 6912 H 620.01 5.87581 -0.0478356 0
M  V30 6913 H 621.534 6.0438 0.869333 0
M  V30 6914 H 622.948 5.5712 -1.35239 0
M  V30 6915 H 621.345 5.60537 -2.14284 0
M  V30 6916 H 622.415 4.21493 -2.39733 0
M  V30 6917 N 623.758 0.647228 1.43697 0
M  V30 6918 C 624.983 0.164083 2.0675 0
M  V30 6919 C 625.408 -1.15892 1.48158 0
M  V30 6920 O 624.766 -1.71459 0.589194 0
M  V30 6921 C 624.814 0.0800368 3.60511 0
M  V30 6922 O 623.918 -0.959453 4.01084 0
M  V30 6923 H 623.259 0.0921288 0.657578 0
M  V30 6924 H 625.789 0.88846 1.84303 0
M  V30 6925 H 625.799 -0.105263 4.07864 0
M  V30 6926 H 624.474 1.04586 4.02535 0
M  V30 6927 H 623.051 -0.747425 3.65333 0
M  V30 6928 N 625.236 -1.5273 0.388769 0
M  V30 6929 C 626.482 -2.02545 -0.186351 0
M  V30 6930 C 626.837 -1.27017 -1.44514 0
M  V30 6931 O 626.13 -0.361948 -1.8815 0
M  V30 6932 C 626.324 -3.53765 -0.508445 0
M  V30 6933 C 626.153 -4.43938 0.71758 0
M  V30 6934 C 624.923 -4.89933 1.23668 0
M  V30 6935 C 627.121 -4.89113 1.58974 0
M  V30 6936 N 625.103 -5.64176 2.42031 0
M  V30 6937 C 626.474 -5.61931 2.61979 0
M  V30 6938 C 628.529 -4.71155 1.60989 0
M  V30 6939 C 627.232 -6.18698 3.66886 0
M  V30 6940 C 629.258 -5.28804 2.64803 0
M  V30 6941 C 628.62 -6.01527 3.6653 0
M  V30 6942 H 624.719 -0.781413 -0.0302921 0
M  V30 6943 H 627.303 -1.87104 0.538539 0
M  V30 6944 H 625.474 -3.6932 -1.20239 0
M  V30 6945 H 627.206 -3.9028 -1.07067 0
M  V30 6946 H 623.961 -4.66833 0.797763 0
M  V30 6947 H 624.385 -6.05949 3.01919 0
M  V30 6948 H 629.027 -4.14435 0.836881 0
M  V30 6949 H 626.745 -6.74501 4.45055 0
M  V30 6950 H 630.331 -5.1679 2.67245 0
M  V30 6951 H 629.211 -6.45339 4.45542 0
M  V30 6952 N 626.714 -0.118576 -1.57153 0
M  V30 6953 C 627.677 0.817464 -2.14127 0
M  V30 6954 C 628.677 1.1949 -1.07604 0
M  V30 6955 O 629.867 1.12048 -1.33382 0
M  V30 6956 C 626.999 2.10541 -2.68115 0
M  V30 6957 H 628.192 0.322339 -2.98163 0
M  V30 6958 H 625.745 0.130655 -1.55753 0
M  V30 6959 H 626.48 2.64485 -1.87665 0
M  V30 6960 H 626.265 1.84425 -3.4602 0
M  V30 6961 H 627.755 2.77453 -3.12105 0
M  V30 6962 N 628.193 1.56834 0.155195 0
M  V30 6963 C 629.47 1.73799 0.897395 0
M  V30 6964 C 629.85 0.684379 1.99698 0
M  V30 6965 O 629.198 -0.298111 2.26547 0
M  V30 6966 C 629.408 3.17572 1.44737 0
M  V30 6967 C 630.756 3.79014 1.91399 0
M  V30 6968 O 631.78 3.20951 1.54496 0
M  V30 6969 O 630.639 4.80998 2.59429 0
M  V30 6970 H 627.733 0.710329 0.423511 0
M  V30 6971 H 630.279 1.69107 0.141761 0
M  V30 6972 H 629.051 3.85749 0.656741 0
M  V30 6973 H 628.674 3.26657 2.26674 0
M  V30 6974 N 629.671 -0.424282 1.51781 0
M  V30 6975 C 630.601 -1.52305 1.7699 0
M  V30 6976 C 631.582 -1.5839 0.620209 0
M  V30 6977 O 632.767 -1.73908 0.864268 0
M  V30 6978 C 629.897 -2.90271 1.90683 0
M  V30 6979 C 628.851 -2.99043 3.06198 0
M  V30 6980 C 628.177 -4.39116 3.05092 0
M  V30 6981 C 629.477 -2.7192 4.45934 0
M  V30 6982 H 631.171 -1.31461 2.68995 0
M  V30 6983 H 628.717 -0.630985 1.29439 0
M  V30 6984 H 630.67 -3.6711 2.06901 0
M  V30 6985 H 629.394 -3.12376 0.953365 0
M  V30 6986 H 628.053 -2.24646 2.89706 0
M  V30 6987 H 627.701 -4.58207 2.07498 0
M  V30 6988 H 627.401 -4.45912 3.82669 0
M  V30 6989 H 628.925 -5.17911 3.2342 0
M  V30 6990 H 630.339 -3.38487 4.62709 0
M  V30 6991 H 628.736 -2.90111 5.25315 0
M  V30 6992 H 629.806 -1.67445 4.55072 0
M  V30 6993 N 631.149 -1.42148 -0.680565 0
M  V30 6994 C 632.395 -1.42521 -1.44277 0
M  V30 6995 C 632.728 -0.0393718 -1.9416 0
M  V30 6996 O 632.003 0.935425 -1.70529 0
M  V30 6997 C 632.286 -2.44475 -2.64394 0
M  V30 6998 C 632.139 -3.92226 -2.20179 0
M  V30 6999 C 633.458 -2.43491 -3.66606 0
M  V30 7000 H 630.577 -0.518985 -0.523282 0
M  V30 7001 H 633.219 -1.73524 -0.773914 0
M  V30 7002 H 631.369 -2.18168 -3.21458 0
M  V30 7003 H 633.041 -4.29493 -1.68327 0
M  V30 7004 H 631.284 -4.0637 -1.5181 0
M  V30 7005 H 631.955 -4.59133 -3.06433 0
M  V30 7006 H 634.431 -2.66872 -3.19247 0
M  V30 7007 H 633.307 -3.16816 -4.4824 0
M  V30 7008 H 633.568 -1.45881 -4.17338 0
M  V30 7009 N 632.627 0.916307 -1.28225 0
M  V30 7010 C 633.559 2.02303 -1.07732 0
M  V30 7011 C 634.572 1.62773 -0.0298421 0
M  V30 7012 O 635.761 1.76406 -0.272626 0
M  V30 7013 C 632.861 3.33282 -0.614504 0
M  V30 7014 C 632.034 4.01439 -1.73682 0
M  V30 7015 C 631.093 5.10698 -1.26781 0
M  V30 7016 O 630.119 5.34038 -1.96958 0
M  V30 7017 N 631.321 5.80355 -0.129624 0
M  V30 7018 H 634.086 2.20442 -2.03041 0
M  V30 7019 H 631.647 1.08744 -1.19943 0
M  V30 7020 H 633.639 4.03699 -0.284397 0
M  V30 7021 H 632.209 3.11633 0.245664 0
M  V30 7022 H 631.429 3.24604 -2.23665 0
M  V30 7023 H 632.717 4.43721 -2.48976 0
M  V30 7024 H 632.115 5.6386 0.455847 0
M  V30 7025 H 630.672 6.51647 0.141224 0
M  V30 7026 N 634.105 1.10431 1.1244 0
M  V30 7027 C 635.052 0.753103 2.18167 0
M  V30 7028 C 636.022 -0.270549 1.63882 0
M  V30 7029 O 637.207 -0.149837 1.90211 0
M  V30 7030 C 634.347 0.191046 3.44571 0
M  V30 7031 C 633.46 1.26999 4.12911 0
M  V30 7032 C 632.595 0.669586 5.26963 0
M  V30 7033 C 631.634 1.72912 5.87169 0
M  V30 7034 N 630.771 1.14898 6.92635 0
M  V30 7035 H 635.611 1.65892 2.47556 0
M  V30 7036 H 633.148 0.828631 1.21541 0
M  V30 7037 H 635.106 -0.152712 4.1692 0
M  V30 7038 H 633.736 -0.677997 3.15599 0
M  V30 7039 H 632.788 1.73087 3.3874 0
M  V30 7040 H 634.1 2.07204 4.53727 0
M  V30 7041 H 633.254 0.275274 6.06075 0
M  V30 7042 H 631.993 -0.163895 4.87425 0
M  V30 7043 H 630.998 2.13286 5.06744 0
M  V30 7044 H 632.223 2.56544 6.28778 0
M  V30 7045 H 630.169 0.336956 6.55134 0
M  V30 7046 H 630.086 1.88786 7.32049 0
M  V30 7047 H 631.354 0.78121 7.75576 0
M  V30 7048 N 635.583 -1.29855 0.893053 0
M  V30 7049 C 636.53 -2.27909 0.364161 0
M  V30 7050 C 637.5 -1.56726 -0.550093 0
M  V30 7051 O 638.685 -1.84747 -0.47677 0
M  V30 7052 C 635.825 -3.42678 -0.408178 0
M  V30 7053 C 634.938 -4.28659 0.536212 0
M  V30 7054 C 634.073 -5.30599 -0.252521 0
M  V30 7055 C 633.112 -6.08234 0.686822 0
M  V30 7056 N 632.249 -7.02068 -0.0670902 0
M  V30 7057 H 637.089 -2.72531 1.20544 0
M  V30 7058 H 634.626 -1.34047 0.605779 0
M  V30 7059 H 636.584 -4.07986 -0.871962 0
M  V30 7060 H 635.214 -2.99103 -1.21397 0
M  V30 7061 H 634.266 -3.63584 1.1185 0
M  V30 7062 H 635.578 -4.8274 1.25552 0
M  V30 7063 H 634.732 -6.01694 -0.777801 0
M  V30 7064 H 633.471 -4.77233 -1.005 0
M  V30 7065 H 632.476 -5.3601 1.22366 0
M  V30 7066 H 633.701 -6.63689 1.43852 0
M  V30 7067 H 631.647 -6.5108 -0.801955 0
M  V30 7068 H 631.564 -7.53675 0.59243 0
M  V30 7069 H 632.832 -7.77392 -0.572851 0
M  V30 7070 N 637.061 -0.65484 -1.43351 0
M  V30 7071 C 638.31 -0.166215 -2.01014 0
M  V30 7072 C 638.623 1.22764 -1.52278 0
M  V30 7073 O 639.829 1.81156 -2.02224 0
M  V30 7074 C 638.285 -0.246341 -3.59056 0
M  V30 7075 C 637.893 -1.64299 -4.16785 0
M  V30 7076 C 639.637 0.184597 -4.24098 0
M  V30 7077 C 637.544 -1.67695 -5.67126 0
M  V30 7078 H 636.474 -0.0583769 -0.751737 0
M  V30 7079 H 639.125 -0.817111 -1.64303 0
M  V30 7080 H 637.507 0.472092 -3.93176 0
M  V30 7081 H 638.681 -2.3869 -3.94162 0
M  V30 7082 H 636.996 -2.02004 -3.6412 0
M  V30 7083 H 639.593 0.179088 -5.344 0
M  V30 7084 H 639.936 1.21632 -3.98135 0
M  V30 7085 H 640.469 -0.482141 -3.94867 0
M  V30 7086 H 637.208 -2.68783 -5.9786 0
M  V30 7087 H 636.728 -0.976313 -5.91801 0
M  V30 7088 H 638.407 -1.42142 -6.31193 0
M  V30 7089 N 638.539 1.52521 -0.396863 0
M  V30 7090 C 639.95 1.86547 0.0754868 0
M  V30 7091 C 640.301 1.31621 1.45501 0
M  V30 7092 O 639.426 0.650563 2.0639 0
M  V30 7093 C 640.021 3.38495 0.143754 0
M  V30 7094 C 638.58 3.72205 0.560413 0
M  V30 7095 C 637.727 2.75954 -0.272856 0
M  V30 7096 H 640.678 1.46323 -0.614434 0
M  V30 7097 H 640.699 3.68153 0.961425 0
M  V30 7098 H 640.211 3.78442 -0.860415 0
M  V30 7099 H 638.312 3.3783 1.57167 0
M  V30 7100 H 638.425 4.78074 0.313314 0
M  V30 7101 H 636.789 2.53339 0.263 0
M  V30 7102 H 637.572 3.1874 -1.27515 0
M  V30 7103 N 640.017 0.126909 1.57088 0
M  V30 7104 C 641.428 -0.397201 1.82426 0
M  V30 7105 C 641.779 -1.66084 1.04453 0
M  V30 7106 O 640.904 -2.14534 0.283552 0
M  V30 7107 C 641.499 -0.727411 3.30899 0
M  V30 7108 C 640.058 -1.19612 3.56889 0
M  V30 7109 C 639.205 -0.20885 2.76512 0
M  V30 7110 H 642.156 0.351924 1.54749 0
M  V30 7111 H 642.177 -1.58407 3.45959 0
M  V30 7112 H 641.689 0.19247 3.87622 0
M  V30 7113 H 639.79 -2.13263 3.05532 0
M  V30 7114 H 639.903 -1.13598 4.65438 0
M  V30 7115 H 638.267 -0.697479 2.44964 0
M  V30 7116 H 639.05 0.704267 3.35998 0
M  V30 7117 N 641.495 -1.56914 -0.146875 0
M  V30 7118 C 642.906 -1.72799 -0.706928 0
M  V30 7119 C 643.257 -0.741329 -1.81656 0
M  V30 7120 O 642.382 0.0920162 -2.16204 0
M  V30 7121 C 642.977 -3.13317 -1.28911 0
M  V30 7122 C 641.536 -3.30803 -1.79573 0
M  V30 7123 C 640.683 -2.68725 -0.684252 0
M  V30 7124 H 643.634 -1.58504 0.0787931 0
M  V30 7125 H 643.655 -3.13323 -2.15891 0
M  V30 7126 H 643.167 -3.85104 -0.481284 0
M  V30 7127 H 641.268 -2.64012 -2.62923 0
M  V30 7128 H 641.381 -4.38754 -1.92436 0
M  V30 7129 H 639.745 -2.29196 -1.11091 0
M  V30 7130 H 640.528 -3.43117 0.112134 0
M  V30 7131 N 642.974 0.416227 -1.52004 0
M  V30 7132 C 644.221 1.16383 -1.65714 0
M  V30 7133 C 644.549 1.9068 -0.383594 0
M  V30 7134 O 643.804 1.85174 0.633185 0
M  V30 7135 C 644.103 2.18923 -2.82502 0
M  V30 7136 C 643.769 1.61485 -4.20991 0
M  V30 7137 C 642.431 1.45545 -4.58661 0
M  V30 7138 C 644.783 1.19468 -5.07323 0
M  V30 7139 C 642.111 0.860937 -5.80349 0
M  V30 7140 C 644.463 0.614386 -6.29609 0
M  V30 7141 C 643.127 0.442056 -6.66035 0
M  V30 7142 H 642.397 0.425875 -0.606392 0
M  V30 7143 H 645.044 0.45199 -1.8609 0
M  V30 7144 H 643.349 2.96225 -2.56433 0
M  V30 7145 H 645.046 2.76628 -2.90307 0
M  V30 7146 H 641.636 1.74873 -3.91302 0
M  V30 7147 H 645.82 1.30596 -4.78809 0
M  V30 7148 H 641.076 0.715372 -6.072 0
M  V30 7149 H 645.25 0.280393 -6.95835 0
M  V30 7150 H 642.877 -0.0207218 -7.60197 0
M  V30 7151 N 644.452 1.42507 0.673017 0
M  V30 7152 C 645.4 1.46362 1.80779 0
M  V30 7153 C 646.394 0.339166 1.6597 0
M  V30 7154 O 647.6 0.512262 1.72557 0
M  V30 7155 H 643.975 0.458433 0.596107 0
M  V30 7156 H 645.946 2.41953 1.74646 0
M  V30 7157 C 644.695 1.38462 3.18941 0
M  V30 7158 H 644.018 2.24283 3.30964 0
M  V30 7159 H 645.458 1.45221 3.98355 0
M  V30 7160 C 643.917 0.0996354 3.36753 0
M  V30 7161 O 644.447 -0.846894 3.92671 0
M  V30 7162 N 642.653 0.016211 2.90595 0
M  V30 7163 H 642.2 0.78725 2.45276 0
M  V30 7164 H 642.158 -0.84291 3.0289 0
M  V30 7165 N 645.93 -0.909495 1.28709 0
M  V30 7166 C 647.341 -1.47419 1.14563 0
M  V30 7167 C 647.692 -1.94432 -0.262832 0
M  V30 7168 O 646.817 -1.82842 -1.15748 0
M  V30 7169 C 647.412 -2.67933 2.07358 0
M  V30 7170 C 645.971 -3.20568 1.97264 0
M  V30 7171 C 645.118 -1.93269 1.98852 0
M  V30 7172 H 648.069 -0.721787 1.41336 0
M  V30 7173 H 648.09 -3.43339 1.64007 0
M  V30 7174 H 647.602 -2.33685 3.09859 0
M  V30 7175 H 645.703 -3.59531 0.978157 0
M  V30 7176 H 645.816 -3.85529 2.84436 0
M  V30 7177 H 644.18 -2.10553 1.43317 0
M  V30 7178 H 644.963 -1.61312 3.0304 0
M  V30 7179 N 647.408 -1.11026 -1.11852 0
M  V30 7180 C 648.356 -0.759643 -2.19846 0
M  V30 7181 C 649.35 0.246964 -1.6759 0
M  V30 7182 O 650.556 0.106693 -1.79684 0
M  V30 7183 H 646.931 -0.22775 -0.716683 0
M  V30 7184 H 648.902 -1.6792 -2.46669 0
M  V30 7185 C 647.651 -0.214364 -3.47039 0
M  V30 7186 H 646.974 -0.980175 -3.87599 0
M  V30 7187 H 648.414 -0.00717047 -4.23999 0
M  V30 7188 C 646.873 1.05436 -3.19976 0
M  V30 7189 O 647.403 2.13483 -3.40276 0
M  V30 7190 N 645.609 0.975436 -2.7374 0
M  V30 7191 H 645.156 0.0960853 -2.57421 0
M  V30 7192 H 645.114 1.82501 -2.5601 0
M  V30 7193 N 648.886 1.2938 -0.899927 0
M  V30 7194 C 650.132 1.9584 -0.526742 0
M  V30 7195 C 650.465 1.70774 0.924651 0
M  V30 7196 O 649.74 1.02084 1.65557 0
M  V30 7197 C 650.023 3.50638 -0.820062 0
M  V30 7198 C 649.876 3.85161 -2.32317 0
M  V30 7199 C 651.195 4.3903 -0.30671 0
M  V30 7200 H 648.314 0.711322 -0.192848 0
M  V30 7201 H 650.956 1.52992 -1.12665 0
M  V30 7202 H 649.106 3.87265 -0.309491 0
M  V30 7203 H 650.778 3.58477 -2.9033 0
M  V30 7204 H 649.021 3.32696 -2.78381 0
M  V30 7205 H 649.692 4.93204 -2.47898 0
M  V30 7206 H 652.168 4.09396 -0.743908 0
M  V30 7207 H 651.044 5.46226 -0.541144 0
M  V30 7208 H 651.305 4.34937 0.792588 0
M  V30 7209 N 650.364 0.662433 1.43002 0
M  V30 7210 C 651.327 -0.0142016 2.29196 0
M  V30 7211 C 652.327 -0.741394 1.42688 0
M  V30 7212 O 653.517 -0.581257 1.64216 0
M  V30 7213 C 650.649 -1.03084 3.24941 0
M  V30 7214 H 651.842 0.7443 2.90517 0
M  V30 7215 H 649.395 0.424133 1.50435 0
M  V30 7216 H 650.13 -1.81826 2.68533 0
M  V30 7217 H 649.915 -0.512946 3.8873 0
M  V30 7218 H 651.405 -1.50308 3.89612 0
M  V30 7219 N 651.842 -1.52309 0.404946 0
M  V30 7220 C 653.09 -2.01368 -0.17186 0
M  V30 7221 C 653.411 -1.29261 -1.46002 0
M  V30 7222 O 652.681 -0.41729 -1.91404 0
M  V30 7223 H 651.261 -0.744034 -0.0664993 0
M  V30 7224 H 653.923 -1.87263 0.540228 0
M  V30 7225 H 653.019 -3.09888 -0.370957 0
M  V30 7226 N 653.32 -0.135238 -1.57019 0
M  V30 7227 C 654.731 0.387521 -1.82634 0
M  V30 7228 C 655.082 1.65528 -1.05332 0
M  V30 7229 O 654.207 2.14381 -0.294926 0
M  V30 7230 C 654.802 0.709852 -3.3128 0
M  V30 7231 C 653.361 1.17718 -3.57518 0
M  V30 7232 C 652.508 0.194183 -2.76619 0
M  V30 7233 H 655.459 -0.360126 -1.5456 0
M  V30 7234 H 655.48 1.5657 -3.46794 0
M  V30 7235 H 654.992 -0.213024 -3.87515 0
M  V30 7236 H 653.093 2.1164 -3.06658 0
M  V30 7237 H 653.206 1.11128 -4.66034 0
M  V30 7238 H 651.57 0.684478 -2.4533 0
M  V30 7239 H 652.353 -0.722076 -3.3562 0
M  V30 7240 N 654.798 1.5699 0.138552 0
M  V30 7241 C 656.075 1.74741 0.87891 0
M  V30 7242 C 656.455 0.705522 1.98961 0
M  V30 7243 O 655.803 -0.274066 2.2685 0
M  V30 7244 C 656.013 3.1909 1.4136 0
M  V30 7245 C 657.361 3.81023 1.87368 0
M  V30 7246 O 658.385 3.22571 1.51084 0
M  V30 7247 O 657.244 4.83722 2.54312 0
M  V30 7248 H 654.338 0.714781 0.415953 0
M  V30 7249 H 656.884 1.69248 0.123817 0
M  V30 7250 H 655.656 3.86424 0.61579 0
M  V30 7251 H 655.279 3.29043 2.23196 0
M  V30 7252 N 656.276 -0.40816 1.52223 0
M  V30 7253 C 657.553 -1.16807 1.56893 0
M  V30 7254 C 657.933 -2.08169 0.350537 0
M  V30 7255 O 657.281 -2.18684 -0.662536 0
M  V30 7256 C 657.491 -1.94451 2.8981 0
M  V30 7257 C 658.839 -2.50484 3.42845 0
M  V30 7258 O 659.863 -2.0463 2.91556 0
M  V30 7259 O 658.722 -3.34192 4.3241 0
M  V30 7260 H 655.816 -0.533382 0.632007 0
M  V30 7261 H 658.362 -0.414862 1.64551 0
M  V30 7262 H 657.134 -1.27527 3.69936 0
M  V30 7263 H 656.757 -2.76775 2.85449 0
M  V30 7264 N 657.755 -1.42862 -0.66545 0
M  V30 7265 C 659.004 -1.43119 -1.42126 0
M  V30 7266 C 659.317 -0.0545297 -1.95524 0
M  V30 7267 O 660.523 0.0654747 -2.71421 0
M  V30 7268 C 658.979 -2.51797 -2.5715 0
M  V30 7269 C 658.587 -3.95514 -2.10411 0
M  V30 7270 C 660.331 -2.61233 -3.346 0
M  V30 7271 C 658.238 -4.95682 -3.22573 0
M  V30 7272 H 657.168 -0.532349 -0.533966 0
M  V30 7273 H 659.819 -1.68806 -0.719506 0
M  V30 7274 H 658.201 -2.19292 -3.29738 0
M  V30 7275 H 659.375 -4.3742 -1.44915 0
M  V30 7276 H 657.69 -3.90012 -1.45874 0
M  V30 7277 H 660.287 -3.33248 -4.18151 0
M  V30 7278 H 660.63 -1.65896 -3.81817 0
M  V30 7279 H 661.163 -2.9298 -2.69087 0
M  V30 7280 H 657.902 -5.92529 -2.80338 0
M  V30 7281 H 657.422 -4.58399 -3.86821 0
M  V30 7282 H 659.101 -5.17828 -3.87896 0
M  V30 7283 N 659.233 0.902656 -1.29189 0
M  V30 7284 C 660.649 1.18296 -1.07137 0
M  V30 7285 C 660.849 2.00701 0.179223 0
M  V30 7286 O 659.905 2.3675 0.877812 0
M  V30 7287 C 661.218 1.90677 -2.32514 0
M  V30 7288 C 662.766 2.03515 -2.37804 0
M  V30 7289 C 663.241 2.79307 -3.62976 0
M  V30 7290 N 664.732 2.86862 -3.63681 0
M  V30 7291 C 665.467 3.46035 -4.57217 0
M  V30 7292 N 664.963 4.06399 -5.61081 0
M  V30 7293 N 666.756 3.43681 -4.44792 0
M  V30 7294 H 658.907 0.352765 -2.0945 0
M  V30 7295 H 661.17 0.21876 -0.922414 0
M  V30 7296 H 660.876 1.3756 -3.23682 0
M  V30 7297 H 660.75 2.91169 -2.39793 0
M  V30 7298 H 663.137 2.55809 -1.47125 0
M  V30 7299 H 663.218 1.02166 -2.34512 0
M  V30 7300 H 662.862 2.2769 -4.54004 0
M  V30 7301 H 662.792 3.80995 -3.63525 0
M  V30 7302 H 665.283 2.43987 -2.88581 0
M  V30 7303 H 665.596 4.49564 -6.2858 0
M  V30 7304 H 663.941 4.0487 -5.64894 0
M  V30 7305 H 667.132 2.9574 -3.62843 0
M  V30 7306 H 667.305 3.89503 -5.17872 0
M  V30 7307 N 660.711 1.11618 1.11262 0
M  V30 7308 C 661.659 0.771291 2.1944 0
M  V30 7309 C 662.653 -0.238073 1.67719 0
M  V30 7310 O 663.859 -0.0971628 1.79738 0
M  V30 7311 H 660.234 0.231548 0.715465 0
M  V30 7312 H 662.205 1.69226 2.45775 0
M  V30 7313 C 660.954 0.232765 3.4692 0
M  V30 7314 H 660.277 1.00072 3.87073 0
M  V30 7315 H 661.717 0.0296561 4.2399 0
M  V30 7316 C 660.176 -1.03738 3.20531 0
M  V30 7317 O 660.706 -2.11675 3.41404 0
M  V30 7318 N 658.912 -0.960906 2.74253 0
M  V30 7319 H 658.459 -0.0824323 2.57468 0
M  V30 7320 H 658.417 -1.8114 2.56974 0
M  V30 7321 N 662.189 -1.289 0.906776 0
M  V30 7322 C 663.436 -1.95269 0.536326 0
M  V30 7323 C 663.764 -1.71435 -0.918711 0
M  V30 7324 O 663.019 -1.02431 -1.66752 0
M  V30 7325 C 663.318 -3.48704 0.783617 0
M  V30 7326 C 662.984 -3.92626 2.21711 0
M  V30 7327 C 661.646 -4.04329 2.60906 0
M  V30 7328 C 663.998 -4.15218 3.15029 0
M  V30 7329 C 661.326 -4.35998 3.92584 0
M  V30 7330 C 663.678 -4.48365 4.46264 0
M  V30 7331 C 662.342 -4.58278 4.85322 0
M  V30 7332 H 661.612 -0.714538 0.196256 0
M  V30 7333 H 664.259 -1.53366 1.14678 0
M  V30 7334 H 662.564 -3.91696 0.0903048 0
M  V30 7335 H 664.261 -3.98162 0.476267 0
M  V30 7336 H 660.851 -3.84038 1.90296 0
M  V30 7337 H 665.035 -4.05636 2.8596 0
M  V30 7338 H 660.291 -4.41878 4.22557 0
M  V30 7339 H 664.465 -4.64795 5.18593 0
M  V30 7340 H 662.092 -4.82573 5.87391 0
M  V30 7341 N 663.667 -0.670007 -1.42649 0
M  V30 7342 C 664.944 -0.119451 -1.95235 0
M  V30 7343 C 665.324 1.36461 -1.61064 0
M  V30 7344 O 664.672 2.09843 -0.904329 0
M  V30 7345 C 664.882 -0.383498 -3.46887 0
M  V30 7346 C 666.23 -0.297431 -4.23557 0
M  V30 7347 O 667.254 -0.31698 -3.54787 0
M  V30 7348 O 666.113 -0.235507 -5.45992 0
M  V30 7349 H 663.207 -8.85474e-05 -0.827 0
M  V30 7350 H 665.753 -0.744406 -1.52501 0
M  V30 7351 H 664.525 -1.41174 -3.64946 0
M  V30 7352 H 664.148 0.273702 -3.96657 0
M  V30 7353 N 665.145 1.52092 -0.413018 0
M  V30 7354 C 666.373 2.06274 0.160881 0
M  V30 7355 C 666.788 1.28273 1.38533 0
M  V30 7356 O 666.145 0.33563 1.79387 0
M  V30 7357 C 666.196 3.57921 0.507443 0
M  V30 7358 O 665.917 4.32971 -0.668388 0
M  V30 7359 C 667.418 4.28533 1.13465 0
M  V30 7360 H 664.638 0.67074 0.0186759 0
M  V30 7361 H 667.182 1.95951 -0.585092 0
M  V30 7362 H 665.337 3.68238 1.20331 0
M  V30 7363 H 665.751 5.23135 -0.378169 0
M  V30 7364 H 667.225 5.35804 1.32732 0
M  V30 7365 H 667.702 3.85258 2.10886 0
M  V30 7366 H 668.308 4.22595 0.478876 0
M  V30 7367 N 666.623 0.143563 1.56945 0
M  V30 7368 C 667.586 -0.783295 2.154 0
M  V30 7369 C 668.586 -1.17763 1.09492 0
M  V30 7370 O 669.776 -1.09912 1.35148 0
M  V30 7371 C 666.908 -2.06248 2.7143 0
M  V30 7372 H 668.101 -0.274863 2.98638 0
M  V30 7373 H 665.654 -0.105859 1.55941 0
M  V30 7374 H 666.389 -2.61466 1.91849 0
M  V30 7375 H 666.174 -1.78897 3.4891 0
M  V30 7376 H 667.664 -2.72453 3.16479 0
M  V30 7377 N 668.101 -1.57061 -0.130224 0
M  V30 7378 C 669.348 -1.84257 -0.839972 0
M  V30 7379 C 669.676 -0.726986 -1.80403 0
M  V30 7380 O 668.931 0.282632 -1.93648 0
M  V30 7381 C 669.23 -3.17878 -1.63365 0
M  V30 7382 C 668.896 -4.43475 -0.814891 0
M  V30 7383 C 667.558 -4.77581 -0.589066 0
M  V30 7384 C 669.91 -5.20631 -0.243437 0
M  V30 7385 C 667.238 -5.86292 0.218648 0
M  V30 7386 C 669.59 -6.30192 0.551408 0
M  V30 7387 C 668.254 -6.62837 0.787653 0
M  V30 7388 H 667.524 -0.674245 -0.307367 0
M  V30 7389 H 670.171 -1.91224 -0.102832 0
M  V30 7390 H 668.476 -3.06437 -2.44138 0
M  V30 7391 H 670.173 -3.3614 -2.18658 0
M  V30 7392 H 666.763 -4.16747 -1.00098 0
M  V30 7393 H 670.947 -4.94644 -0.405145 0
M  V30 7394 H 666.203 -6.10017 0.411016 0
M  V30 7395 H 670.377 -6.89165 1.00126 0
M  V30 7396 H 668.004 -7.46908 1.41537 0
M  V30 7397 N 669.579 0.400081 -1.52437 0
M  V30 7398 C 670.807 1.16768 -1.70801 0
M  V30 7399 C 671.222 1.84036 -0.421462 0
M  V30 7400 O 670.579 1.72242 0.603228 0
M  V30 7401 C 670.63 2.22403 -2.8499 0
M  V30 7402 O 670.351 1.57879 -4.08663 0
M  V30 7403 C 671.852 3.11974 -3.1494 0
M  V30 7404 H 669.072 0.350533 -0.57216 0
M  V30 7405 H 671.616 0.469534 -1.99037 0
M  V30 7406 H 669.771 2.87871 -2.59247 0
M  V30 7407 H 670.185 2.27982 -4.7236 0
M  V30 7408 H 671.659 3.82148 -3.9833 0
M  V30 7409 H 672.136 3.74858 -2.28863 0
M  V30 7410 H 672.742 2.52165 -3.42481 0
M  V30 7411 N 671.057 1.43213 0.657864 0
M  V30 7412 C 671.967 1.50448 1.80007 0
M  V30 7413 C 672.983 0.39191 1.69529 0
M  V30 7414 O 674.159 0.645349 1.90781 0
M  V30 7415 C 671.224 1.42062 3.16258 0
M  V30 7416 C 670.285 2.63951 3.38568 0
M  V30 7417 C 669.518 2.55956 4.68318 0
M  V30 7418 O 669.741 1.60473 5.47361 0
M  V30 7419 O 668.675 3.46378 4.92245 0
M  V30 7420 H 672.501 2.4689 1.76858 0
M  V30 7421 H 670.086 1.25163 0.81576 0
M  V30 7422 H 671.968 1.3981 3.97531 0
M  V30 7423 H 670.643 0.487524 3.20008 0
M  V30 7424 H 669.55 2.71776 2.57077 0
M  V30 7425 H 670.883 3.56217 3.39662 0
M  V30 7426 N 672.536 -0.895792 1.29666 0
M  V30 7427 C 673.446 -2.03329 1.17024 0
M  V30 7428 C 674.462 -1.73753 0.0925962 0
M  V30 7429 O 675.638 -1.99071 0.305431 0
M  V30 7430 C 672.703 -3.36072 0.851841 0
M  V30 7431 C 671.764 -3.7914 2.01373 0
M  V30 7432 C 670.997 -5.05549 1.71043 0
M  V30 7433 O 671.22 -5.66874 0.633213 0
M  V30 7434 O 670.154 -5.44764 2.5596 0
M  V30 7435 H 673.98 -2.16918 2.12556 0
M  V30 7436 H 671.565 -1.02007 1.09156 0
M  V30 7437 H 673.447 -4.15729 0.689006 0
M  V30 7438 H 672.122 -3.23616 -0.0736634 0
M  V30 7439 H 671.029 -3.00233 2.23183 0
M  V30 7440 H 672.362 -3.96186 2.92058 0
M  V30 7441 N 674.014 -1.12206 -1.10668 0
M  V30 7442 C 675.242 -0.898635 -1.86366 0
M  V30 7443 C 675.657 0.551991 -1.80551 0
M  V30 7444 O 675.014 1.38152 -1.19249 0
M  V30 7445 C 675.065 -1.36199 -3.34861 0
M  V30 7446 O 674.786 -2.75576 -3.40573 0
M  V30 7447 C 676.287 -1.17515 -4.2744 0
M  V30 7448 H 673.507 -0.321281 -0.589084 0
M  V30 7449 H 676.051 -1.49142 -1.39918 0
M  V30 7450 H 674.206 -0.81249 -3.78784 0
M  V30 7451 H 674.62 -2.95851 -4.33096 0
M  V30 7452 H 676.094 -1.54827 -5.29842 0
M  V30 7453 H 676.571 -0.115486 -4.39048 0
M  V30 7454 H 677.177 -1.71203 -3.89319 0
M  V30 7455 N 675.492 1.28418 -0.913599 0
M  V30 7456 C 676.738 1.9527 -0.547484 0
M  V30 7457 C 677.071 1.71745 0.906486 0
M  V30 7458 O 676.346 1.03834 1.64465 0
M  V30 7459 C 676.629 3.49748 -0.857205 0
M  V30 7460 C 676.482 3.82675 -2.3639 0
M  V30 7461 C 677.801 4.3868 -0.353258 0
M  V30 7462 H 674.92 0.709236 -0.200381 0
M  V30 7463 H 677.562 1.51789 -1.14281 0
M  V30 7464 H 675.712 3.86915 -0.350548 0
M  V30 7465 H 677.384 3.55378 -2.94116 0
M  V30 7466 H 675.627 3.29724 -2.81894 0
M  V30 7467 H 676.298 4.90547 -2.53115 0
M  V30 7468 H 678.774 4.08584 -0.787288 0
M  V30 7469 H 677.65 5.45621 -0.599049 0
M  V30 7470 H 677.911 4.35753 0.746413 0
M  V30 7471 N 676.97 0.677563 1.42291 0
M  V30 7472 C 678.381 0.277912 1.8462 0
M  V30 7473 C 678.732 -1.18048 1.56714 0
M  V30 7474 O 677.857 -1.90404 1.02836 0
M  V30 7475 C 678.452 0.497619 3.35126 0
M  V30 7476 C 677.011 0.152063 3.76093 0
M  V30 7477 C 676.158 0.78872 2.65847 0
M  V30 7478 H 679.109 0.879527 1.32098 0
M  V30 7479 H 679.13 -0.24939 3.79682 0
M  V30 7480 H 678.642 1.55913 3.55405 0
M  V30 7481 H 676.743 -0.905896 3.6142 0
M  V30 7482 H 676.856 0.594514 4.75397 0
M  V30 7483 H 675.22 0.219813 2.5375 0
M  V30 7484 H 676.003 1.85374 2.88949 0
M  V30 7485 N 678.448 -1.51871 0.421078 0
M  V30 7486 C 679.678 -2.06057 -0.149723 0
M  V30 7487 C 680.086 -1.29002 -1.38402 0
M  V30 7488 O 679.429 -0.338385 -1.80556 0
M  V30 7489 C 679.491 -3.55216 -0.553339 0
M  V30 7490 C 679.155 -4.53408 0.571879 0
M  V30 7491 C 680.152 -4.99586 1.4391 0
M  V30 7492 C 677.837 -4.967 0.747979 0
M  V30 7493 C 679.831 -5.87711 2.46727 0
M  V30 7494 C 677.518 -5.84619 1.77944 0
M  V30 7495 C 678.516 -6.30021 2.63748 0
M  V30 7496 O 678.204 -7.16197 3.65126 0
M  V30 7497 H 677.936 -0.675744 -0.0186102 0
M  V30 7498 H 680.49 -1.96618 0.594166 0
M  V30 7499 H 678.72 -3.62381 -1.34969 0
M  V30 7500 H 680.409 -3.91992 -1.05342 0
M  V30 7501 H 681.175 -4.66846 1.31451 0
M  V30 7502 H 677.054 -4.60913 0.0897357 0
M  V30 7503 H 680.598 -6.2307 3.13734 0
M  V30 7504 H 676.495 -6.16771 1.90429 0
M  V30 7505 H 677.263 -7.34337 3.61512 0
M  V30 7506 N 679.926 -0.151884 -1.56866 0
M  V30 7507 C 681.151 0.508044 -2.01081 0
M  V30 7508 C 681.576 1.57306 -1.03134 0
M  V30 7509 O 680.934 1.81298 -0.0078309 0
M  V30 7510 C 680.982 1.08106 -3.44014 0
M  V30 7511 O 680.086 2.19577 -3.49084 0
M  V30 7512 H 679.427 0.123757 -0.652365 0
M  V30 7513 H 681.957 -0.250055 -2.03066 0
M  V30 7514 H 681.967 1.40851 -3.82916 0
M  V30 7515 H 680.642 0.301168 -4.14808 0
M  V30 7516 H 679.219 1.88023 -3.22027 0
M  V30 7517 N 681.404 1.57128 0.121893 0
M  V30 7518 C 682.65 1.84974 0.831418 0
M  V30 7519 C 682.983 0.737204 1.79663 0
M  V30 7520 O 682.258 -0.257199 1.92792 0
M  V30 7521 C 682.541 3.23397 1.58386 0
M  V30 7522 C 682.394 4.45246 0.638445 0
M  V30 7523 C 683.713 3.59355 2.54071 0
M  V30 7524 H 680.832 0.67282 0.300803 0
M  V30 7525 H 683.474 1.89759 0.0957587 0
M  V30 7526 H 681.624 3.19449 2.21098 0
M  V30 7527 H 683.296 4.61295 0.0203925 0
M  V30 7528 H 681.539 4.33771 -0.05023 0
M  V30 7529 H 682.21 5.38765 1.20151 0
M  V30 7530 H 684.686 3.64075 2.01465 0
M  V30 7531 H 683.562 4.57193 3.03752 0
M  V30 7532 H 683.823 2.86622 3.36601 0
M  V30 7533 N 682.882 -0.391992 1.52647 0
M  V30 7534 C 684.122 -1.1463 1.69232 0
M  V30 7535 C 684.486 -1.87312 0.421684 0
M  V30 7536 O 685.687 -2.64768 0.463852 0
M  V30 7537 C 683.958 -2.10088 2.89133 0
M  V30 7538 S 685.517 -2.93395 3.2629 0
M  V30 7539 H 682.335 -0.388076 0.59575 0
M  V30 7540 H 684.937 -0.431149 1.90687 0
M  V30 7541 H 683.641 -1.55408 3.79837 0
M  V30 7542 H 683.172 -2.86116 2.70003 0
M  V30 7543 H 685.187 -4.12193 2.76244 0
M  V30 7544 N 684.36 -1.4356 -0.65026 0
M  V30 7545 C 685.606 -1.45549 -1.41221 0
M  V30 7546 C 685.939 -0.0805472 -1.94033 0
M  V30 7547 O 685.214 0.899043 -1.72475 0
M  V30 7548 C 685.497 -2.50028 -2.59148 0
M  V30 7549 C 685.35 -3.96808 -2.1181 0
M  V30 7550 C 686.669 -2.51212 -3.61359 0
M  V30 7551 H 683.788 -0.529967 -0.512156 0
M  V30 7552 H 686.43 -1.75127 -0.736933 0
M  V30 7553 H 684.58 -2.24937 -3.16758 0
M  V30 7554 H 686.252 -4.32966 -1.59178 0
M  V30 7555 H 684.495 -4.09498 -1.43156 0
M  V30 7556 H 685.166 -4.6553 -2.96625 0
M  V30 7557 H 687.642 -2.73583 -3.13515 0
M  V30 7558 H 686.518 -3.26252 -4.41419 0
M  V30 7559 H 686.779 -1.54701 -4.1415 0
M  V30 7560 N 685.838 0.888903 -1.30139 0
M  V30 7561 C 687.063 1.67884 -1.21777 0
M  V30 7562 C 687.488 1.86848 0.216689 0
M  V30 7563 O 686.846 1.39659 1.15608 0
M  V30 7564 C 686.894 3.03483 -1.94757 0
M  V30 7565 O 685.998 3.92294 -1.27198 0
M  V30 7566 H 685.339 0.513144 -0.421402 0
M  V30 7567 H 687.869 1.10968 -1.71893 0
M  V30 7568 H 687.879 3.53553 -2.03627 0
M  V30 7569 H 686.554 2.89 -2.99085 0
M  V30 7570 H 685.131 3.50732 -1.26655 0
M  V30 7571 N 687.317 1.12792 1.10072 0
M  V30 7572 C 688.542 0.908838 1.86427 0
M  V30 7573 C 688.967 -0.536793 1.80278 0
M  V30 7574 O 688.325 -1.38033 1.17543 0
M  V30 7575 C 688.373 1.39295 3.3261 0
M  V30 7576 O 687.477 0.573846 4.08388 0
M  V30 7577 H 686.818 0.326234 0.578331 0
M  V30 7578 H 689.348 1.50094 1.39043 0
M  V30 7579 H 689.358 1.39366 3.83459 0
M  V30 7580 H 688.033 2.44555 3.36401 0
M  V30 7581 H 686.61 0.640438 3.67359 0
M  V30 7582 N 688.795 -1.27931 0.920396 0
M  V30 7583 C 690.072 -1.89728 0.475687 0
M  V30 7584 C 690.452 -1.8337 -1.04588 0
M  V30 7585 O 689.8 -1.27404 -1.89685 0
M  V30 7586 C 690.01 -3.33959 1.01354 0
M  V30 7587 C 691.358 -4.10907 1.06963 0
M  V30 7588 O 692.382 -3.42945 0.962646 0
M  V30 7589 O 691.241 -5.32399 1.23343 0
M  V30 7590 H 688.335 -0.81294 0.151845 0
M  V30 7591 H 690.881 -1.36252 1.01161 0
M  V30 7592 H 689.653 -3.32843 2.05746 0
M  V30 7593 H 689.276 -3.94944 0.458829 0
M  V30 7594 N 690.273 -0.685099 -1.4193 0
M  V30 7595 C 691.503 -0.220052 -2.05425 0
M  V30 7596 C 691.911 1.13185 -1.51611 0
M  V30 7597 O 691.254 1.71631 -0.654875 0
M  V30 7598 C 691.316 -0.0888364 -3.5939 0
M  V30 7599 C 690.98 -1.37109 -4.35947 0
M  V30 7600 C 691.977 -2.30675 -4.65924 0
M  V30 7601 C 689.662 -1.62155 -4.75406 0
M  V30 7602 C 691.656 -3.47556 -5.34306 0
M  V30 7603 C 689.343 -2.79324 -5.43527 0
M  V30 7604 C 690.341 -3.71848 -5.72903 0
M  V30 7605 O 690.029 -4.86966 -6.39624 0
M  V30 7606 H 689.761 -0.102165 -0.668235 0
M  V30 7607 H 692.315 -0.935194 -1.82875 0
M  V30 7608 H 690.545 0.681981 -3.80639 0
M  V30 7609 H 692.234 0.337669 -4.04493 0
M  V30 7610 H 693 -2.12579 -4.3593 0
M  V30 7611 H 688.879 -0.910053 -4.51928 0
M  V30 7612 H 692.423 -4.19794 -5.57153 0
M  V30 7613 H 688.32 -2.97342 -5.72938 0
M  V30 7614 H 689.088 -4.86644 -6.58118 0
M  V30 7615 N 691.751 1.51645 -0.429126 0
M  V30 7616 C 692.976 2.06917 0.141399 0
M  V30 7617 C 693.401 1.29527 1.36398 0
M  V30 7618 O 692.759 0.33094 1.78254 0
M  V30 7619 C 692.807 3.57776 0.4504 0
M  V30 7620 O 691.911 3.82639 1.53821 0
M  V30 7621 H 691.252 0.663978 0.0054647 0
M  V30 7622 H 693.782 1.95355 -0.608093 0
M  V30 7623 H 693.792 4.01894 0.703249 0
M  V30 7624 H 692.467 4.13532 -0.443213 0
M  V30 7625 H 691.044 3.5039 1.27597 0
M  V30 7626 N 693.229 0.160201 1.56784 0
M  V30 7627 C 694.478 -0.487619 1.95717 0
M  V30 7628 C 694.791 -1.65136 1.0483 0
M  V30 7629 O 695.997 -2.36468 1.33398 0
M  V30 7630 C 694.453 -0.91888 3.47972 0
M  V30 7631 C 694.061 0.218655 4.47466 0
M  V30 7632 C 695.805 -1.53575 3.95746 0
M  V30 7633 C 693.712 -0.231614 5.90946 0
M  V30 7634 H 692.642 -0.185939 0.730714 0
M  V30 7635 H 695.293 0.246657 1.81835 0
M  V30 7636 H 693.675 -1.70881 3.57234 0
M  V30 7637 H 694.849 0.995825 4.49911 0
M  V30 7638 H 693.164 0.744767 4.09685 0
M  V30 7639 H 695.761 -1.88448 5.00391 0
M  V30 7640 H 696.104 -2.42959 3.38048 0
M  V30 7641 H 696.637 -0.810467 3.89456 0
M  V30 7642 H 693.376 0.62718 6.52493 0
M  V30 7643 H 692.896 -0.974379 5.91833 0
M  V30 7644 H 694.575 -0.67922 6.43425 0
M  V30 7645 N 694.707 -1.5719 -0.113559 0
M  V30 7646 C 695.953 -1.85412 -0.821597 0
M  V30 7647 C 696.286 -0.746722 -1.7927 0
M  V30 7648 O 695.561 0.246971 -1.92926 0
M  V30 7649 C 695.844 -3.24233 -1.56669 0
M  V30 7650 C 695.697 -4.45578 -0.614823 0
M  V30 7651 C 697.016 -3.60697 -2.52161 0
M  V30 7652 H 694.135 -0.674406 -0.29723 0
M  V30 7653 H 696.777 -1.89807 -0.085694 0
M  V30 7654 H 694.927 -3.20617 -2.19401 0
M  V30 7655 H 696.599 -4.613 0.00407137 0
M  V30 7656 H 694.842 -4.33738 0.0732332 0
M  V30 7657 H 695.513 -5.39395 -1.17292 0
M  V30 7658 H 697.989 -3.65139 -1.99532 0
M  V30 7659 H 696.865 -4.58798 -3.01323 0
M  V30 7660 H 697.126 -2.88403 -3.35076 0
M  V30 7661 N 696.185 0.383891 -1.52853 0
M  V30 7662 C 697.133 1.48965 -1.7864 0
M  V30 7663 C 698.127 1.56242 -0.654577 0
M  V30 7664 O 699.333 1.59347 -0.83716 0
M  V30 7665 H 695.708 0.495892 -0.565328 0
M  V30 7666 H 697.679 1.24411 -2.71228 0
M  V30 7667 C 696.428 2.86036 -1.97683 0
M  V30 7668 H 695.751 2.81188 -2.84206 0
M  V30 7669 H 697.191 3.62632 -2.19713 0
M  V30 7670 C 695.65 3.28428 -0.750776 0
M  V30 7671 O 696.18 4.0164 0.0693491 0
M  V30 7672 N 694.386 2.84765 -0.579427 0
M  V30 7673 H 693.933 2.25353 -1.24795 0
M  V30 7674 H 693.891 3.13486 0.239544 0
M  V30 7675 N 697.663 1.43903 0.642637 0
M  V30 7676 C 698.626 1.49538 1.73698 0
M  V30 7677 C 699.626 0.378776 1.56275 0
M  V30 7678 O 700.816 0.64095 1.6198 0
M  V30 7679 C 697.948 1.35821 3.12675 0
M  V30 7680 H 699.141 2.47008 1.70079 0
M  V30 7681 H 696.694 1.30824 0.85526 0
M  V30 7682 H 697.429 0.393994 3.21898 0
M  V30 7683 H 697.214 2.16776 3.26727 0
M  V30 7684 H 698.704 1.4272 3.92455 0
M  V30 7685 N 699.141 -0.881989 1.30609 0
M  V30 7686 C 700.366 -1.67236 1.22665 0
M  V30 7687 C 700.791 -1.8696 -0.206777 0
M  V30 7688 O 700.149 -1.4027 -1.14865 0
M  V30 7689 C 700.197 -3.02446 1.96363 0
M  V30 7690 O 699.301 -3.91614 1.29276 0
M  V30 7691 H 698.642 -0.510902 0.424117 0
M  V30 7692 H 701.172 -1.10055 1.72479 0
M  V30 7693 H 701.182 -3.52468 2.055 0
M  V30 7694 H 699.857 -2.8741 3.00613 0
M  V30 7695 H 698.434 -3.50055 1.28514 0
M  V30 7696 N 700.619 -1.13374 -1.09472 0
M  V30 7697 C 701.865 -0.896516 -1.81908 0
M  V30 7698 C 702.198 0.575933 -1.85463 0
M  V30 7699 O 701.473 1.42618 -1.32251 0
M  V30 7700 C 701.756 -1.48445 -3.28079 0
M  V30 7701 C 701.609 -3.02598 -3.32798 0
M  V30 7702 C 702.928 -1.15226 -4.24748 0
M  V30 7703 H 700.047 -0.327127 -0.660422 0
M  V30 7704 H 702.689 -1.40195 -1.2824 0
M  V30 7705 H 700.839 -1.0546 -3.73912 0
M  V30 7706 H 702.511 -3.54335 -2.95372 0
M  V30 7707 H 700.754 -3.37613 -2.72397 0
M  V30 7708 H 701.425 -3.38835 -4.3577 0
M  V30 7709 H 703.901 -1.52369 -3.87199 0
M  V30 7710 H 702.777 -1.59012 -5.25363 0
M  V30 7711 H 703.038 -0.0658891 -4.42051 0
M  V30 7712 N 702.098 1.27442 -0.927168 0
M  V30 7713 C 703.028 2.29256 -0.443188 0
M  V30 7714 C 704.009 1.62701 0.49624 0
M  V30 7715 O 705.194 1.90013 0.401105 0
M  V30 7716 C 702.324 3.45955 0.305366 0
M  V30 7717 C 701.278 4.24501 -0.546178 0
M  V30 7718 C 700.604 5.33671 0.331512 0
M  V30 7719 C 701.904 4.89921 -1.81037 0
M  V30 7720 H 703.598 2.69988 -1.29409 0
M  V30 7721 H 701.144 1.29792 -0.623705 0
M  V30 7722 H 703.097 4.1628 0.654885 0
M  V30 7723 H 701.821 3.04138 1.19029 0
M  V30 7724 H 700.48 3.55921 -0.878398 0
M  V30 7725 H 700.128 4.88096 1.21537 0
M  V30 7726 H 699.828 5.87131 -0.234746 0
M  V30 7727 H 701.352 6.0684 0.676614 0
M  V30 7728 H 702.766 5.52536 -1.52895 0
M  V30 7729 H 701.163 5.53436 -2.32009 0
M  V30 7730 H 702.233 4.13652 -2.53021 0
M  V30 7731 N 703.576 0.692616 1.41565 0
M  V30 7732 C 704.486 0.0258451 2.34586 0
M  V30 7733 C 705.502 -0.769324 1.56069 0
M  V30 7734 O 706.678 -0.707563 1.88562 0
M  V30 7735 C 703.743 -0.901289 3.3478 0
M  V30 7736 C 702.804 -0.0986579 4.29187 0
M  V30 7737 C 702.037 -0.981634 5.24595 0
M  V30 7738 O 702.26 -2.22115 5.25377 0
M  V30 7739 O 701.194 -0.432892 6.00341 0
M  V30 7740 H 705.02 0.792537 2.93177 0
M  V30 7741 H 702.605 0.452935 1.42369 0
M  V30 7742 H 704.487 -1.43302 3.96286 0
M  V30 7743 H 703.162 -1.64752 2.78637 0
M  V30 7744 H 702.069 0.477604 3.71039 0
M  V30 7745 H 703.402 0.608848 4.8842 0
M  V30 7746 N 705.054 -1.51416 0.437162 0
M  V30 7747 C 706.017 -2.26312 -0.362729 0
M  V30 7748 C 707.017 -1.29748 -0.949847 0
M  V30 7749 O 708.207 -1.53462 -0.824325 0
M  V30 7750 C 705.339 -3.05475 -1.5132 0
M  V30 7751 H 706.532 -2.98459 0.29365 0
M  V30 7752 H 704.085 -1.55137 0.190327 0
M  V30 7753 H 704.82 -2.37744 -2.20563 0
M  V30 7754 H 704.605 -3.76401 -1.09838 0
M  V30 7755 H 706.095 -3.62209 -2.07833 0
M  V30 7756 N 706.532 -0.168513 -1.56696 0
M  V30 7757 C 707.809 0.523367 -1.88468 0
M  V30 7758 C 708.189 1.81503 -1.07796 0
M  V30 7759 O 707.537 2.27859 -0.171045 0
M  V30 7760 C 707.747 0.767991 -3.40445 0
M  V30 7761 C 709.095 1.09924 -4.10124 0
M  V30 7762 O 710.119 0.856625 -3.45746 0
M  V30 7763 O 708.978 1.55681 -5.23856 0
M  V30 7764 H 706.072 0.269447 -0.781874 0
M  V30 7765 H 708.618 -0.206739 -1.68436 0
M  V30 7766 H 707.39 -0.145254 -3.9103 0
M  V30 7767 H 707.013 1.55151 -3.66079 0
M  V30 7768 N 708.01 1.57248 0.105221 0
M  V30 7769 C 709.287 1.76566 0.841647 0
M  V30 7770 C 709.667 0.747566 1.9742 0
M  V30 7771 O 709.015 -0.225886 2.27381 0
M  V30 7772 C 709.225 3.22016 1.3456 0
M  V30 7773 C 710.573 3.84911 1.79244 0
M  V30 7774 O 711.597 3.25703 1.44207 0
M  V30 7775 O 710.456 4.89008 2.43995 0
M  V30 7776 H 707.55 0.723443 0.400698 0
M  V30 7777 H 710.096 1.69472 0.0878893 0
M  V30 7778 H 708.868 3.87644 0.533685 0
M  V30 7779 H 708.491 3.33703 2.16167 0
M  V30 7780 N 709.488 -0.375779 1.53054 0
M  V30 7781 C 710.451 -1.44254 1.7811 0
M  V30 7782 C 711.451 -1.47018 0.651328 0
M  V30 7783 O 712.641 -1.47957 0.919472 0
M  V30 7784 C 709.773 -2.8345 1.89391 0
M  V30 7785 H 710.966 -1.23316 2.73374 0
M  V30 7786 H 708.519 -0.608312 1.43977 0
M  V30 7787 H 709.254 -3.09716 0.961589 0
M  V30 7788 H 709.039 -2.82844 2.71555 0
M  V30 7789 H 710.529 -3.60722 2.10404 0
M  V30 7790 N 710.966 -1.44241 -0.634997 0
M  V30 7791 C 712.213 -1.46821 -1.39463 0
M  V30 7792 C 712.541 -0.0993362 -1.94246 0
M  V30 7793 O 711.796 0.898325 -1.73864 0
M  V30 7794 C 712.095 -2.47279 -2.58046 0
M  V30 7795 C 711.761 -3.92703 -2.21574 0
M  V30 7796 C 710.423 -4.32306 -2.1134 0
M  V30 7797 C 712.775 -4.84271 -1.92695 0
M  V30 7798 C 710.103 -5.61407 -1.70409 0
M  V30 7799 C 712.455 -6.13755 -1.53258 0
M  V30 7800 C 711.119 -6.52316 -1.41562 0
M  V30 7801 H 710.389 -0.537256 -0.51033 0
M  V30 7802 H 713.036 -1.77431 -0.720441 0
M  V30 7803 H 711.341 -2.10138 -3.3068 0
M  V30 7804 H 713.038 -2.46523 -3.16271 0
M  V30 7805 H 709.628 -3.61369 -2.30456 0
M  V30 7806 H 713.812 -4.54432 -1.99513 0
M  V30 7807 H 709.068 -5.90105 -1.59955 0
M  V30 7808 H 713.242 -6.84168 -1.29949 0
M  V30 7809 H 710.869 -7.52255 -1.09619 0
M  V30 7810 N 712.444 0.87505 -1.31075 0
M  V30 7811 C 713.69 1.63009 -1.20647 0
M  V30 7812 C 714.023 1.9276 0.236045 0
M  V30 7813 O 713.298 1.55559 1.16754 0
M  V30 7814 C 713.581 2.96357 -2.0456 0
M  V30 7815 C 713.434 2.73516 -3.57084 0
M  V30 7816 C 714.753 3.974 -1.89107 0
M  V30 7817 H 711.872 0.591518 -0.439631 0
M  V30 7818 H 714.514 1.0119 -1.60812 0
M  V30 7819 H 712.664 3.49119 -1.70435 0
M  V30 7820 H 714.336 2.27465 -4.01319 0
M  V30 7821 H 712.579 2.0784 -3.80769 0
M  V30 7822 H 713.25 3.68377 -4.11099 0
M  V30 7823 H 715.726 3.5383 -2.18961 0
M  V30 7824 H 714.602 4.88596 -2.5013 0
M  V30 7825 H 714.863 4.33794 -0.85296 0
M  V30 7826 N 713.922 1.13953 1.08869 0
M  V30 7827 C 715.17 0.903023 1.80803 0
M  V30 7828 C 715.491 -0.572151 1.86417 0
M  V30 7829 O 714.761 -1.41589 1.35386 0
M  V30 7830 H 713.341 0.331099 0.669614 0
M  V30 7831 H 716.003 1.43719 1.31647 0
M  V30 7832 H 715.099 1.29881 2.83791 0
M  V30 7833 N 715.4 -1.26948 0.933913 0
M  V30 7834 C 716.647 -1.94087 0.577625 0
M  V30 7835 C 716.975 -1.73345 -0.88214 0
M  V30 7836 O 716.23 -1.05945 -1.64542 0
M  V30 7837 C 716.529 -3.46963 0.857406 0
M  V30 7838 C 716.195 -3.87834 2.2999 0
M  V30 7839 C 714.857 -3.98704 2.69423 0
M  V30 7840 C 717.209 -4.08442 3.23766 0
M  V30 7841 C 714.537 -4.27573 4.01744 0
M  V30 7842 C 716.889 -4.38798 4.55675 0
M  V30 7843 C 715.553 -4.47881 4.94934 0
M  V30 7844 H 714.823 -0.710215 0.211368 0
M  V30 7845 H 717.47 -1.50899 1.17905 0
M  V30 7846 H 715.775 -3.91416 0.173369 0
M  V30 7847 H 717.472 -3.97062 0.560615 0
M  V30 7848 H 714.062 -3.79916 1.98399 0
M  V30 7849 H 718.246 -3.99479 2.94499 0
M  V30 7850 H 713.502 -4.32815 4.31834 0
M  V30 7851 H 717.676 -4.5369 5.28335 0
M  V30 7852 H 715.303 -4.70005 5.97495 0
M  V30 7853 N 716.879 -0.700114 -1.41195 0
M  V30 7854 C 718.104 -0.240704 -2.05998 0
M  V30 7855 C 718.529 1.10313 -1.52357 0
M  V30 7856 O 717.887 1.69154 -0.652424 0
M  V30 7857 C 717.935 -0.213783 -3.59966 0
M  V30 7858 O 717.039 0.809933 -4.04368 0
M  V30 7859 H 716.38 -0.116471 -0.653705 0
M  V30 7860 H 718.91 -0.956251 -1.80878 0
M  V30 7861 H 718.92 -0.0461852 -4.07974 0
M  V30 7862 H 717.595 -1.19454 -3.98376 0
M  V30 7863 H 716.172 0.611319 -3.67855 0
M  V30 7864 N 718.357 1.51182 -0.445186 0
M  V30 7865 C 719.587 2.06269 0.116922 0
M  V30 7866 C 719.995 1.31188 1.36332 0
M  V30 7867 O 719.338 0.367067 1.79995 0
M  V30 7868 C 719.4 3.56051 0.496757 0
M  V30 7869 C 719.064 4.52441 -0.64394 0
M  V30 7870 C 720.061 4.97233 -1.5184 0
M  V30 7871 C 717.746 4.95447 -0.826905 0
M  V30 7872 C 719.74 5.83712 -2.56046 0
M  V30 7873 C 717.427 5.81714 -1.87222 0
M  V30 7874 C 718.425 6.25745 -2.73738 0
M  V30 7875 O 718.113 7.10298 -3.76474 0
M  V30 7876 H 717.845 0.675954 0.00785733 0
M  V30 7877 H 720.399 1.95648 -0.625371 0
M  V30 7878 H 718.629 3.64483 1.29187 0
M  V30 7879 H 720.318 3.93618 0.990928 0
M  V30 7880 H 721.084 4.64696 -1.38862 0
M  V30 7881 H 716.963 4.60712 -0.163052 0
M  V30 7882 H 720.507 6.18 -3.23607 0
M  V30 7883 H 716.404 6.13664 -2.00218 0
M  V30 7884 H 717.172 7.28493 -3.73149 0
M  V30 7885 N 719.835 0.176821 1.56605 0
M  V30 7886 C 720.798 -0.737429 2.17013 0
M  V30 7887 C 721.798 -1.15414 1.11965 0
M  V30 7888 O 722.988 -1.0702 1.37449 0
M  V30 7889 C 720.12 -2.00445 2.75744 0
M  V30 7890 H 721.313 -0.211455 2.99154 0
M  V30 7891 H 718.866 -0.0727582 1.56131 0
M  V30 7892 H 719.601 -2.57338 1.97352 0
M  V30 7893 H 719.386 -1.71456 3.52626 0
M  V30 7894 H 720.876 -2.65679 3.22187 0
M  V30 7895 N 721.313 -1.57302 -0.09688 0
M  V30 7896 C 722.724 -1.7496 -0.651595 0
M  V30 7897 C 723.075 -0.798746 -1.79205 0
M  V30 7898 O 722.2 0.0231858 -2.16388 0
M  V30 7899 C 722.795 -3.17259 -1.18878 0
M  V30 7900 C 721.354 -3.36348 -1.68958 0
M  V30 7901 C 720.501 -2.70766 -0.598413 0
M  V30 7902 H 723.452 -1.58173 0.12918 0
M  V30 7903 H 723.473 -3.20033 -2.05814 0
M  V30 7904 H 722.985 -3.8644 -0.358523 0
M  V30 7905 H 721.086 -2.72243 -2.5439 0
M  V30 7906 H 721.199 -4.44654 -1.7838 0
M  V30 7907 H 719.563 -2.32615 -1.03743 0
M  V30 7908 H 720.346 -3.42586 0.221238 0
M  V30 7909 N 722.791 0.367657 -1.53252 0
M  V30 7910 C 724.202 0.944563 -1.61043 0
M  V30 7911 C 724.553 1.90325 -0.476546 0
M  V30 7912 O 723.678 2.12721 0.397333 0
M  V30 7913 C 724.273 1.71992 -2.91898 0
M  V30 7914 C 722.832 2.2462 -3.02031 0
M  V30 7915 C 721.979 1.05799 -2.56324 0
M  V30 7916 H 724.93 0.146516 -1.58022 0
M  V30 7917 H 724.951 2.58095 -2.79584 0
M  V30 7918 H 724.463 1.02192 -3.74404 0
M  V30 7919 H 722.564 2.97668 -2.24108 0
M  V30 7920 H 722.677 2.52644 -4.07073 0
M  V30 7921 H 721.041 1.42435 -2.1115 0
M  V30 7922 H 721.824 0.375008 -3.41246 0
M  V30 7923 N 724.269 1.44576 0.627338 0
M  V30 7924 C 725.494 1.51271 1.41887 0
M  V30 7925 C 725.919 0.139814 1.8758 0
M  V30 7926 O 725.277 -0.871746 1.58966 0
M  V30 7927 C 725.325 2.48529 2.61277 0
M  V30 7928 O 724.429 1.98944 3.61241 0
M  V30 7929 H 723.77 0.510668 0.424399 0
M  V30 7930 H 726.3 1.89746 0.765356 0
M  V30 7931 H 726.31 2.66689 3.08773 0
M  V30 7932 H 724.985 3.48249 2.27366 0
M  V30 7933 H 723.562 1.90568 3.20528 0
M  V30 7934 N 725.747 -0.868086 1.31537 0
M  V30 7935 C 726.657 -2.00801 1.21311 0
M  V30 7936 C 727.673 -1.73518 0.129431 0
M  V30 7937 O 728.849 -1.98378 0.347588 0
M  V30 7938 C 725.914 -3.3419 0.922935 0
M  V30 7939 C 724.975 -3.74783 2.0937 0
M  V30 7940 C 724.208 -5.01807 1.81728 0
M  V30 7941 O 724.431 -5.65404 0.753313 0
M  V30 7942 O 723.365 -5.39213 2.67457 0
M  V30 7943 H 727.191 -2.12361 2.17109 0
M  V30 7944 H 724.776 -0.996684 1.11295 0
M  V30 7945 H 726.658 -4.14174 0.777033 0
M  V30 7946 H 725.333 -3.237 -0.00500301 0
M  V30 7947 H 724.24 -2.95432 2.29501 0
M  V30 7948 H 725.573 -3.89902 3.00396 0
M  V30 7949 N 727.225 -1.14528 -1.08264 0
M  V30 7950 C 728.502 -0.825185 -1.77342 0
M  V30 7951 C 728.882 0.681037 -1.99813 0
M  V30 7952 O 728.23 1.62234 -1.60912 0
M  V30 7953 C 728.44 -1.62556 -3.08831 0
M  V30 7954 C 729.788 -1.82585 -3.83338 0
M  V30 7955 O 730.812 -1.59254 -3.18617 0
M  V30 7956 O 729.671 -2.21598 -4.99556 0
M  V30 7957 H 726.765 -0.302531 -0.769678 0
M  V30 7958 H 729.311 -1.25056 -1.14713 0
M  V30 7959 H 728.083 -2.64862 -2.88035 0
M  V30 7960 H 727.706 -1.1959 -3.79189 0
M  V30 7961 N 728.703 1.26451 -0.940633 0
M  V30 7962 C 729.633 2.28773 -0.467479 0
M  V30 7963 C 730.614 1.63218 0.478955 0
M  V30 7964 O 731.799 1.90427 0.380929 0
M  V30 7965 C 728.929 3.46259 0.268656 0
M  V30 7966 C 727.883 4.23898 -0.591171 0
M  V30 7967 C 727.209 5.33993 0.274891 0
M  V30 7968 C 728.509 4.87974 -1.86223 0
M  V30 7969 H 730.203 2.68601 -1.32265 0
M  V30 7970 H 727.749 1.29123 -0.637436 0
M  V30 7971 H 729.702 4.16951 0.610696 0
M  V30 7972 H 728.426 3.05383 1.15796 0
M  V30 7973 H 727.085 3.54969 -0.916098 0
M  V30 7974 H 726.733 4.89358 1.16353 0
M  V30 7975 H 726.433 5.86849 -0.297006 0
M  V30 7976 H 727.957 6.07523 0.612213 0
M  V30 7977 H 729.371 5.50883 -1.58747 0
M  V30 7978 H 727.768 5.50945 -2.37866 0
M  V30 7979 H 728.838 4.10945 -2.57394 0
M  V30 7980 N 730.181 0.707592 1.40822 0
M  V30 7981 C 731.428 0.243671 2.01029 0
M  V30 7982 C 731.756 -1.16057 1.5608 0
M  V30 7983 O 731.011 -1.7999 0.768251 0
M  V30 7984 C 731.31 0.262892 3.56432 0
M  V30 7985 C 730.976 1.61632 4.20935 0
M  V30 7986 C 729.638 1.98682 4.38268 0
M  V30 7987 C 731.99 2.50619 4.5699 0
M  V30 7988 C 729.318 3.2428 4.88937 0
M  V30 7989 C 731.67 3.75562 5.09054 0
M  V30 7990 C 730.334 4.12739 5.24598 0
M  V30 7991 H 729.604 0.0891654 0.735616 0
M  V30 7992 H 732.251 0.909051 1.68548 0
M  V30 7993 H 730.556 -0.486052 3.88773 0
M  V30 7994 H 732.253 -0.113775 4.00839 0
M  V30 7995 H 728.843 1.31818 4.07826 0
M  V30 7996 H 733.027 2.23272 4.43242 0
M  V30 7997 H 728.283 3.53064 4.99155 0
M  V30 7998 H 732.457 4.44692 5.35931 0
M  V30 7999 H 730.084 5.10132 5.63622 0
M  V30 8000 N 731.66 -1.50943 0.453197 0
M  V30 8001 C 732.59 -2.31005 -0.34044 0
M  V30 8002 C 733.571 -1.37112 -1.00669 0
M  V30 8003 O 734.756 -1.66033 -1.0073 0
M  V30 8004 C 731.886 -3.16358 -1.433 0
M  V30 8005 C 730.84 -4.18658 -0.889363 0
M  V30 8006 C 730.166 -4.92633 -2.07887 0
M  V30 8007 C 731.466 -5.22227 0.0871142 0
M  V30 8008 H 733.16 -2.97601 0.327723 0
M  V30 8009 H 730.706 -1.43119 0.159054 0
M  V30 8010 H 732.659 -3.71155 -1.99555 0
M  V30 8011 H 731.383 -2.47613 -2.12968 0
M  V30 8012 H 730.042 -3.64936 -0.348915 0
M  V30 8013 H 729.69 -4.20376 -2.76211 0
M  V30 8014 H 729.39 -5.61819 -1.72143 0
M  V30 8015 H 730.914 -5.50258 -2.64666 0
M  V30 8016 H 732.328 -5.72001 -0.385656 0
M  V30 8017 H 730.725 -5.99032 0.357926 0
M  V30 8018 H 731.795 -4.74077 1.01879 0
M  V30 8019 O 733.177 -0.326351 -1.58168 0
M  V30 8020 H 733.868 0.23289 -1.92295 0
M  V30 END ATOM
M  V30 BEGIN BOND
M  V30 END BOND
M  V30 END CTAB
M  END
$$$$
