drugbank_target|Q96C36 Pyrroline-5-carboxylate reductase 2 (DB00157; DB00172)
 OpenBabel12092119383D

  0  0  0     0  0            999 V3000
M  V30 BEGIN CTAB
M  V30 COUNTS 4800 4834 0 0 0
M  V30 BEGIN ATOM
M  V30 1 H -0.908 1.98254 -0.117106 0
M  V30 2 N 0 1.576 0 0
M  V30 3 C 0.933 2.03868 1.02534 0
M  V30 4 C 1.911 0.928543 1.3348 0
M  V30 5 O 3.095 1.19667 1.45644 0
M  V30 6 C 0.222 2.43627 2.35294 0
M  V30 7 C -0.732 3.65373 2.2001 0
M  V30 8 S 0.101 5.13292 1.52614 0
M  V30 9 C 1.257 5.56322 2.86805 0
M  V30 10 H 1.49 2.90518 0.631377 0
M  V30 11 H -0.977 1.52953 0.210867 0
M  V30 12 H 0.981 2.67203 3.11629 0
M  V30 13 H -0.358 1.57376 2.7183 0
M  V30 14 H -1.165 3.90944 3.18086 0
M  V30 15 H -1.563 3.418 1.51819 0
M  V30 16 H 0.729 5.58782 3.83104 0
M  V30 17 H 1.672 6.56266 2.65933 0
M  V30 18 H 2.08 4.83886 2.90714 0
M  V30 19 N 1.4781 -0.272755 1.55222 0
M  V30 20 C 2.7031 -1.02683 1.80197 0
M  V30 21 C 3.1281 -1.79142 0.573551 0
M  V30 22 O 2.4861 -1.74917 -0.476849 0
M  V30 23 C 2.5341 -1.9609 3.02624 0
M  V30 24 O 1.6381 -3.04863 2.77727 0
M  V30 25 H 0.9791 -0.293557 0.595584 0
M  V30 26 H 3.5091 -0.30159 2.02365 0
M  V30 27 H 3.5191 -2.38039 3.31363 0
M  V30 28 H 2.1941 -1.39851 3.91682 0
M  V30 29 H 0.7711 -2.67228 2.60084 0
M  V30 30 N 2.9562 -1.48159 -0.537278 0
M  V30 31 C 4.2022 -1.56035 -1.29541 0
M  V30 32 C 4.5352 -0.230377 -1.92829 0
M  V30 33 O 3.8102 0.762952 -1.78911 0
M  V30 34 C 4.0932 -2.69323 -2.39034 0
M  V30 35 C 3.9462 -4.12002 -1.80485 0
M  V30 36 C 5.2652 -2.78408 -3.40847 0
M  V30 37 H 2.3842 -0.567992 -0.469632 0
M  V30 38 H 5.0262 -1.80302 -0.599277 0
M  V30 39 H 3.1762 -2.48763 -2.98412 0
M  V30 40 H 4.8482 -4.43981 -1.25215 0
M  V30 41 H 3.0912 -4.19344 -1.11055 0
M  V30 42 H 3.7622 -4.87077 -2.59731 0
M  V30 43 H 6.2382 -2.97012 -2.91416 0
M  V30 44 H 5.1142 -3.59416 -4.14863 0
M  V30 45 H 5.3752 -1.86269 -4.00944 0
M  V30 46 N 4.4343 0.785586 -1.36625 0
M  V30 47 C 5.6823 1.54057 -1.30808 0
M  V30 48 C 6.0033 1.94683 0.111157 0
M  V30 49 O 5.2733 1.65241 1.05224 0
M  V30 50 H 3.8533 0.571354 -0.481211 0
M  V30 51 H 6.5153 0.935821 -1.70963 0
M  V30 52 H 5.6113 2.44637 -1.93801 0
M  V30 53 N 5.9124 1.20967 1.01018 0
M  V30 54 C 7.1594 1.02374 1.74716 0
M  V30 55 C 7.4874 -0.443375 1.89379 0
M  V30 56 O 6.7424 -1.34535 1.42123 0
M  V30 57 C 7.0414 1.65997 3.16512 0
M  V30 58 C 6.7074 3.15831 3.2181 0
M  V30 59 C 5.3694 3.56719 3.22963 0
M  V30 60 C 7.7214 4.11816 3.19464 0
M  V30 61 C 5.0494 4.92107 3.19449 0
M  V30 62 C 7.4014 5.47158 3.17491 0
M  V30 63 C 6.0654 5.87451 3.16951 0
M  V30 64 H 5.3354 0.374614 0.639332 0
M  V30 65 H 7.9824 1.50485 1.18434 0
M  V30 66 H 6.2874 1.10166 3.75993 0
M  V30 67 H 7.9844 1.49119 3.72242 0
M  V30 68 H 4.5744 2.83263 3.21652 0
M  V30 69 H 8.7584 3.81257 3.17737 0
M  V30 70 H 4.0144 5.22579 3.17366 0
M  V30 71 H 8.1884 6.21274 3.14629 0
M  V30 72 H 5.8154 6.92329 3.13983 0
M  V30 73 N 7.3905 -1.2043 1.01659 0
M  V30 74 C 8.6395 -1.89118 0.701237 0
M  V30 75 C 8.9525 -1.79705 -0.772358 0
M  V30 76 O 10.1585 -2.43528 -1.20026 0
M  V30 77 C 8.6145 -3.39168 1.20388 0
M  V30 78 C 8.2225 -3.57166 2.70438 0
M  V30 79 C 9.9665 -4.1341 0.963953 0
M  V30 80 C 7.8735 -5.01042 3.14183 0
M  V30 81 H 6.8035 -0.708267 0.2586 0
M  V30 82 H 9.4545 -1.36239 1.22927 0
M  V30 83 H 7.8365 -3.91369 0.603824 0
M  V30 84 H 9.0105 -3.15351 3.35992 0
M  V30 85 H 7.3255 -2.96294 2.92572 0
M  V30 86 H 9.9225 -5.19491 1.26621 0
M  V30 87 H 10.2655 -4.16181 -0.099578 0
M  V30 88 H 10.7985 -3.67309 1.52738 0
M  V30 89 H 7.5375 -5.03426 4.19812 0
M  V30 90 H 7.0575 -5.43668 2.53348 0
M  V30 91 H 8.7365 -5.69623 3.0682 0
M  V30 92 N 8.8686 -0.792821 -1.36206 0
M  V30 93 C 10.1166 -0.366062 -1.98757 0
M  V30 94 C 10.4376 1.0668 -1.63231 0
M  V30 95 O 9.7076 1.73587 -0.907978 0
M  V30 96 H 8.2876 -0.132364 -0.735179 0
M  V30 97 H 10.9496 -1.01562 -1.66347 0
M  V30 98 H 10.0456 -0.460638 -3.08682 0
M  V30 99 N 10.3467 1.47872 -0.545128 0
M  V30 100 C 11.3097 2.28337 0.198717 0
M  V30 101 C 12.3097 1.36255 0.853888 0
M  V30 102 O 13.4997 1.59003 0.711606 0
M  V30 103 C 10.6317 3.15585 1.28915 0
M  V30 104 H 11.8247 2.95567 -0.507941 0
M  V30 105 H 9.3777 1.53362 -0.301616 0
M  V30 106 H 10.1127 2.53019 2.02859 0
M  V30 107 H 9.8977 3.83337 0.824309 0
M  V30 108 H 11.3877 3.76243 1.81194 0
M  V30 109 N 11.8248 0.280983 1.55075 0
M  V30 110 C 13.0728 -0.333455 1.9933 0
M  V30 111 C 13.3938 -1.55937 1.17085 0
M  V30 112 O 12.6638 -1.94143 0.261805 0
M  V30 113 H 11.2438 -0.126197 0.736263 0
M  V30 114 H 13.9058 0.387678 1.91005 0
M  V30 115 H 13.0018 -0.619292 3.05894 0
M  V30 116 N 13.3029 -1.57598 0.00835791 0
M  V30 117 C 14.2349 -2.05811 -1.00868 0
M  V30 118 C 15.2479 -0.977579 -1.30182 0
M  V30 119 O 16.4369 -1.25421 -1.27011 0
M  V30 120 C 13.5369 -2.45016 -2.34137 0
M  V30 121 C 12.7099 -3.75903 -2.23643 0
M  V30 122 C 11.7689 -4.01884 -3.3967 0
M  V30 123 O 10.7949 -4.72433 -3.17483 0
M  V30 124 N 11.9969 -3.50432 -4.62793 0
M  V30 125 H 14.7619 -2.93684 -0.597458 0
M  V30 126 H 12.3229 -1.60909 -0.178852 0
M  V30 127 H 14.3149 -2.59506 -3.10546 0
M  V30 128 H 12.8849 -1.62618 -2.66972 0
M  V30 129 H 12.1049 -3.7141 -1.32091 0
M  V30 130 H 13.3929 -4.61695 -2.13812 0
M  V30 131 H 12.7909 -2.93317 -4.83716 0
M  V30 132 H 11.3479 -3.70236 -5.3644 0
M  V30 133 N 14.781 0.264519 -1.55364 0
M  V30 134 C 15.711 1.33121 -1.91836 0
M  V30 135 C 16.692 1.51101 -0.781192 0
M  V30 136 O 17.877 1.64003 -1.04003 0
M  V30 137 C 15.007 2.68921 -2.19769 0
M  V30 138 C 13.961 2.65661 -3.35571 0
M  V30 139 C 13.287 4.05093 -3.49004 0
M  V30 140 C 14.587 2.24187 -4.71739 0
M  V30 141 H 16.281 1.02844 -2.81182 0
M  V30 142 H 13.827 0.493286 -1.35287 0
M  V30 143 H 15.78 3.43663 -2.43872 0
M  V30 144 H 14.504 3.00799 -1.27231 0
M  V30 145 H 13.163 1.93377 -3.1145 0
M  V30 146 H 12.811 4.34206 -2.53917 0
M  V30 147 H 12.511 4.03804 -4.26868 0
M  V30 148 H 14.035 4.81561 -3.75408 0
M  V30 149 H 15.449 2.88654 -4.9533 0
M  V30 150 H 13.846 2.34044 -5.52579 0
M  V30 151 H 14.916 1.19327 -4.69988 0
M  V30 152 N 16.2591 1.48442 0.529413 0
M  V30 153 C 17.2221 1.62524 1.61612 0
M  V30 154 C 18.2221 0.498509 1.52877 0
M  V30 155 O 19.4121 0.76431 1.56537 0
M  V30 156 C 16.5441 1.59597 3.01233 0
M  V30 157 H 17.7371 2.59423 1.50465 0
M  V30 158 H 15.2901 1.37047 0.751514 0
M  V30 159 H 16.0251 0.641781 3.17886 0
M  V30 160 H 15.8101 2.41397 3.08982 0
M  V30 161 H 17.3001 1.72646 3.80241 0
M  V30 162 N 17.7372 -0.778329 1.37039 0
M  V30 163 C 18.9672 -1.56507 1.34868 0
M  V30 164 C 19.3752 -1.89072 -0.0694802 0
M  V30 165 O 18.7182 -1.51434 -1.03987 0
M  V30 166 C 18.7802 -2.90641 2.11585 0
M  V30 167 C 18.4442 -2.80746 3.60598 0
M  V30 168 C 19.4412 -2.52226 4.54618 0
M  V30 169 C 17.1262 -2.98974 4.03633 0
M  V30 170 C 19.1202 -2.42054 5.89651 0
M  V30 171 C 16.8072 -2.88423 5.38754 0
M  V30 172 C 17.8052 -2.60002 6.31576 0
M  V30 173 O 17.4932 -2.49465 7.64214 0
M  V30 174 H 17.2252 -0.491723 0.463879 0
M  V30 175 H 19.7792 -0.973053 1.80889 0
M  V30 176 H 18.0092 -3.51936 1.60243 0
M  V30 177 H 19.6982 -3.51992 2.0213 0
M  V30 178 H 20.4642 -2.37835 4.22681 0
M  V30 179 H 16.3432 -3.20099 3.31749 0
M  V30 180 H 19.8872 -2.19791 6.62071 0
M  V30 181 H 15.7842 -3.0238 5.70295 0
M  V30 182 H 16.5522 -2.64864 7.74461 0
M  V30 183 N 19.2153 -1.21501 -1.00376 0
M  V30 184 C 20.1783 -0.976927 -2.07337 0
M  V30 185 C 21.1783 0.0525322 -1.60714 0
M  V30 186 O 22.3683 -0.184869 -1.73216 0
M  V30 187 C 19.5003 -0.473423 -3.37597 0
M  V30 188 H 20.6933 -1.92587 -2.29892 0
M  V30 189 H 18.2463 -1.03217 -1.17371 0
M  V30 190 H 18.9813 0.480379 -3.20722 0
M  V30 191 H 18.7663 -1.216 -3.72768 0
M  V30 192 H 20.2563 -0.32675 -4.1632 0
M  V30 193 N 20.6934 1.19889 -1.02296 0
M  V30 194 C 21.6234 2.25141 -0.619174 0
M  V30 195 C 22.6044 1.66051 0.368915 0
M  V30 196 O 23.7894 1.92546 0.252941 0
M  V30 197 C 20.9194 3.4728 0.0368783 0
M  V30 198 C 19.8734 4.19005 -0.872865 0
M  V30 199 C 19.1994 5.34637 -0.0822402 0
M  V30 200 C 20.4994 4.74452 -2.18387 0
M  V30 201 H 22.1934 2.59171 -1.49903 0
M  V30 202 H 19.7394 1.24579 -0.722222 0
M  V30 203 H 21.6924 4.20098 0.330958 0
M  V30 204 H 20.4164 3.12433 0.95149 0
M  V30 205 H 19.0754 3.48061 -1.15105 0
M  V30 206 H 18.7234 4.96034 0.83422 0
M  V30 207 H 18.4234 5.83557 -0.688149 0
M  V30 208 H 19.9474 6.10255 0.205238 0
M  V30 209 H 21.3614 5.39055 -1.95172 0
M  V30 210 H 19.7584 5.33834 -2.74119 0
M  V30 211 H 20.8284 3.92844 -2.84257 0
M  V30 212 N 22.1715 0.800033 1.35784 0
M  V30 213 C 23.1345 0.211565 2.28221 0
M  V30 214 C 24.1345 -0.59728 1.49296 0
M  V30 215 O 25.3245 -0.416721 1.69142 0
M  V30 216 C 22.4565 -0.705846 3.33513 0
M  V30 217 H 23.6495 1.02677 2.81776 0
M  V30 218 H 21.2025 0.570211 1.45528 0
M  V30 219 H 21.9375 -1.54498 2.85133 0
M  V30 220 H 21.7225 -0.127655 3.91892 0
M  V30 221 H 23.2125 -1.11211 4.02519 0
M  V30 222 N 23.6496 -1.47581 0.552962 0
M  V30 223 C 25.0656 -1.5818 0.212424 0
M  V30 224 C 25.2656 -1.55213 -1.28496 0
M  V30 225 O 24.3216 -1.45329 -2.06484 0
M  V30 226 C 25.6346 -2.88865 0.835318 0
M  V30 227 C 27.1826 -3.0244 0.806156 0
M  V30 228 C 27.6576 -4.35819 1.40804 0
M  V30 229 N 29.1486 -4.42444 1.37103 0
M  V30 230 C 29.8836 -5.44202 1.80641 0
M  V30 231 N 29.3796 -6.52795 2.32015 0
M  V30 232 N 31.1726 -5.35222 1.71738 0
M  V30 233 H 23.3236 -1.47753 1.52587 0
M  V30 234 H 25.5866 -0.702941 0.636064 0
M  V30 235 H 25.2926 -2.9676 1.88749 0
M  V30 236 H 25.1666 -3.7579 0.325848 0
M  V30 237 H 27.5536 -2.94144 -0.237317 0
M  V30 238 H 27.6346 -2.17068 1.35334 0
M  V30 239 H 27.2786 -4.44871 2.45056 0
M  V30 240 H 27.2086 -5.19916 0.836338 0
M  V30 241 H 29.6996 -3.6456 0.995202 0
M  V30 242 H 30.0126 -7.26609 2.63171 0
M  V30 243 H 28.3576 -6.53696 2.36023 0
M  V30 244 H 31.5486 -4.49284 1.31382 0
M  V30 245 H 31.7216 -6.14389 2.05987 0
M  V30 246 N 25.1277 -0.289203 -1.54924 0
M  V30 247 C 26.3757 0.322879 -1.99504 0
M  V30 248 C 26.6967 1.55313 -1.1791 0
M  V30 249 O 25.9667 1.94001 -0.272097 0
M  V30 250 H 24.5467 0.122291 -0.736922 0
M  V30 251 H 27.2087 -0.397802 -1.90797 0
M  V30 252 H 26.3047 0.603061 -3.06218 0
M  V30 253 N 26.6058 1.57591 -0.0167156 0
M  V30 254 C 27.8528 1.91283 0.664597 0
M  V30 255 C 28.1808 0.891949 1.72842 0
M  V30 256 O 27.4358 -0.100931 1.9544 0
M  V30 257 C 27.7348 3.3172 1.33029 0
M  V30 258 C 27.4008 4.4914 0.398047 0
M  V30 259 C 26.0628 4.80992 0.141421 0
M  V30 260 C 28.4148 5.20634 -0.242825 0
M  V30 261 C 25.7428 5.81703 -0.764092 0
M  V30 262 C 28.0948 6.22311 -1.13632 0
M  V30 263 C 26.7588 6.52611 -1.40196 0
M  V30 264 H 26.0288 0.699956 0.243193 0
M  V30 265 H 28.6758 1.9135 -0.0758267 0
M  V30 266 H 26.9808 3.27856 2.14517 0
M  V30 267 H 28.6778 3.55055 1.86379 0
M  V30 268 H 25.2678 4.24262 0.608238 0
M  V30 269 H 29.4518 4.96267 -0.0576019 0
M  V30 270 H 24.7078 6.03532 -0.977732 0
M  V30 271 H 28.8818 6.76834 -1.63917 0
M  V30 272 H 26.5088 7.30467 -2.10529 0
M  V30 273 N 28.0839 -0.256276 1.55502 0
M  V30 274 C 29.3119 -1.00342 1.8094 0
M  V30 275 C 29.7269 -1.79307 0.59114 0
M  V30 276 O 29.0839 -1.77114 -0.440081 0
M  V30 277 C 29.1349 -1.94875 3.04476 0
M  V30 278 O 28.8559 -1.19107 4.21598 0
M  V30 279 C 30.3569 -2.81266 3.42644 0
M  V30 280 H 27.5769 -0.295685 0.602338 0
M  V30 281 H 30.1209 -0.281998 2.02546 0
M  V30 282 H 28.2759 -2.62457 2.84947 0
M  V30 283 H 28.6899 -1.82969 4.91551 0
M  V30 284 H 30.1639 -3.43362 4.32211 0
M  V30 285 H 30.6409 -3.51897 2.62802 0
M  V30 286 H 31.2469 -2.1915 3.64491 0
M  V30 287 N 29.562 -1.4872 -0.521534 0
M  V30 288 C 30.525 -1.63379 -1.60748 0
M  V30 289 C 31.525 -0.50661 -1.52611 0
M  V30 290 O 32.715 -0.772601 -1.5613 0
M  V30 291 C 29.847 -1.61192 -3.00383 0
M  V30 292 H 31.04 -2.60217 -1.49087 0
M  V30 293 H 28.593 -1.37444 -0.744235 0
M  V30 294 H 29.328 -0.65863 -3.17541 0
M  V30 295 H 29.113 -2.43032 -3.07698 0
M  V30 296 H 30.603 -1.7466 -3.7932 0
M  V30 297 N 31.0401 0.771051 -1.3745 0
M  V30 298 C 32.0031 1.86598 -1.33093 0
M  V30 299 C 33.0031 1.59076 -0.234845 0
M  V30 300 O 34.1931 1.67145 -0.490732 0
M  V30 301 C 31.3251 3.23747 -1.06773 0
M  V30 302 H 32.5181 1.91873 -2.30488 0
M  V30 303 H 30.0711 0.970876 -1.2249 0
M  V30 304 H 30.8061 3.24148 -0.099129 0
M  V30 305 H 30.5911 3.45115 -1.86112 0
M  V30 306 H 32.0811 4.03824 -1.06377 0
M  V30 307 N 32.5182 1.22032 0.997298 0
M  V30 308 C 33.7662 1.04016 1.73278 0
M  V30 309 C 34.0872 -0.426255 1.90284 0
M  V30 310 O 33.3572 -1.30694 1.45931 0
M  V30 311 H 31.9372 0.381897 0.642 0
M  V30 312 H 34.5992 1.5347 1.20137 0
M  V30 313 H 33.6952 1.51441 2.72896 0
M  V30 314 N 33.9963 -1.19345 1.0293 0
M  V30 315 C 35.2453 -1.88363 0.721256 0
M  V30 316 C 35.5583 -1.80514 -0.753254 0
M  V30 317 O 36.7643 -2.44788 -1.17436 0
M  V30 318 C 35.2203 -3.37872 1.23978 0
M  V30 319 C 34.8283 -3.54278 2.74211 0
M  V30 320 C 36.5723 -4.12365 1.00775 0
M  V30 321 C 34.4793 -4.97682 3.19479 0
M  V30 322 H 33.4093 -0.705484 0.266098 0
M  V30 323 H 36.0603 -1.34928 1.24365 0
M  V30 324 H 34.4423 -3.90707 0.6453 0
M  V30 325 H 35.6163 -3.11769 3.39318 0
M  V30 326 H 33.9313 -2.93174 2.95699 0
M  V30 327 H 36.5283 -5.18119 1.32123 0
M  V30 328 H 36.8713 -4.16263 -0.0554308 0
M  V30 329 H 37.4043 -3.65668 1.56625 0
M  V30 330 H 34.1433 -4.98945 4.25128 0
M  V30 331 H 33.6633 -5.4095 2.591 0
M  V30 332 H 35.3423 -5.66337 3.12845 0
M  V30 333 N 35.4744 -0.807222 -1.35358 0
M  V30 334 C 36.4044 -0.232509 -2.3234 0
M  V30 335 C 37.3854 0.642386 -1.57504 0
M  V30 336 O 38.5704 0.572526 -1.85569 0
M  V30 337 C 35.7004 0.619238 -3.41735 0
M  V30 338 C 34.6544 -0.157215 -4.27711 0
M  V30 339 C 33.9804 0.816273 -5.28433 0
M  V30 340 C 35.2804 -1.35656 -5.04376 0
M  V30 341 H 36.9744 -1.04276 -2.80654 0
M  V30 342 H 34.5204 -0.50288 -1.34934 0
M  V30 343 H 36.4734 1.03137 -4.08584 0
M  V30 344 H 35.1974 1.46239 -2.92031 0
M  V30 345 H 33.8564 -0.550525 -3.62443 0
M  V30 346 H 33.5044 1.65494 -4.74996 0
M  V30 347 H 33.2044 0.301067 -5.86828 0
M  V30 348 H 34.7284 1.22659 -5.98153 0
M  V30 349 H 36.1424 -1.01927 -5.64166 0
M  V30 350 H 34.5394 -1.8063 -5.7227 0
M  V30 351 H 35.6094 -2.14288 -4.34981 0
M  V30 352 N 36.9525 1.47285 -0.560781 0
M  V30 353 C 38.1775 2.07359 -0.0410566 0
M  V30 354 C 38.6025 1.41017 1.24483 0
M  V30 355 O 37.9605 0.486368 1.74654 0
M  V30 356 C 38.0085 3.6035 0.134123 0
M  V30 357 O 37.1125 3.94681 1.19587 0
M  V30 358 H 36.4535 0.661887 -0.0529291 0
M  V30 359 H 38.9835 1.89252 -0.777482 0
M  V30 360 H 38.9935 4.0652 0.347207 0
M  V30 361 H 37.6685 4.08034 -0.805047 0
M  V30 362 H 36.2455 3.60251 0.962987 0
M  V30 363 N 38.4306 0.297415 1.54768 0
M  V30 364 C 39.3936 -0.567375 2.22066 0
M  V30 365 C 40.3936 -1.06409 1.20556 0
M  V30 366 O 41.5836 -0.960691 1.45315 0
M  V30 367 C 38.7156 -1.78517 2.90421 0
M  V30 368 H 39.9086 0.0205534 2.99893 0
M  V30 369 H 37.4616 0.0482163 1.56226 0
M  V30 370 H 38.1966 -2.41303 2.16664 0
M  V30 371 H 37.9816 -1.43669 3.64831 0
M  V30 372 H 39.4716 -2.39964 3.41771 0
M  V30 373 N 39.9087 -1.5758 0.0250728 0
M  V30 374 C 40.8587 -2.06468 -0.967201 0
M  V30 375 C 41.8427 -0.964376 -1.28797 0
M  V30 376 O 43.0347 -1.22797 -1.27475 0
M  V30 377 C 40.1637 -2.59203 -2.25097 0
M  V30 378 C 39.2497 -3.76157 -1.95874 0
M  V30 379 N 39.6407 -4.86919 -1.36905 0
M  V30 380 C 37.9387 -3.84566 -2.25887 0
M  V30 381 C 38.6397 -5.68172 -1.24724 0
M  V30 382 N 37.6157 -5.14953 -1.74138 0
M  V30 383 H 41.4177 -2.89508 -0.506176 0
M  V30 384 H 38.9317 -1.61399 -0.18004 0
M  V30 385 H 40.9287 -2.92517 -2.97052 0
M  V30 386 H 39.5887 -1.77592 -2.71829 0
M  V30 387 H 40.5997 -5.07256 -1.04459 0
M  V30 388 H 37.2767 -3.13854 -2.75321 0
M  V30 389 H 38.6667 -6.67221 -0.791605 0
M  V30 390 N 41.3868 0.248026 -1.55636 0
M  V30 391 C 42.3338 1.30707 -1.90222 0
M  V30 392 C 43.3038 1.47881 -0.756332 0
M  V30 393 O 44.4888 1.61883 -1.00988 0
M  V30 394 C 41.6288 2.65769 -2.20138 0
M  V30 395 C 40.7418 2.56612 -3.47526 0
M  V30 396 C 39.8768 3.8402 -3.67017 0
M  V30 397 C 38.9158 3.69476 -4.8801 0
M  V30 398 N 38.0528 4.88774 -5.04029 0
M  V30 399 H 42.8928 1.00512 -2.80538 0
M  V30 400 H 40.4298 0.485055 -1.38873 0
M  V30 401 H 42.3878 3.44386 -2.35487 0
M  V30 402 H 41.0178 2.94115 -1.33027 0
M  V30 403 H 40.0698 1.69571 -3.40514 0
M  V30 404 H 41.3818 2.41774 -4.36287 0
M  V30 405 H 40.5358 4.7108 -3.8232 0
M  V30 406 H 39.2748 4.01754 -2.76487 0
M  V30 407 H 38.2798 2.80799 -4.72686 0
M  V30 408 H 39.5048 3.53238 -5.8 0
M  V30 409 H 37.4508 5.0687 -4.16435 0
M  V30 410 H 37.3678 4.76562 -5.86877 0
M  V30 411 H 38.6358 5.77335 -5.23741 0
M  V30 412 N 42.8649 1.48995 0.513639 0
M  V30 413 C 44.1139 1.57093 1.2651 0
M  V30 414 C 44.4269 0.257091 1.93903 0
M  V30 415 O 45.6329 0.216478 2.70636 0
M  V30 416 C 44.0889 2.77118 2.29638 0
M  V30 417 C 43.6969 4.15209 1.68241 0
M  V30 418 C 45.4409 2.94538 3.05692 0
M  V30 419 C 43.3479 5.26474 2.69406 0
M  V30 420 H 42.2779 0.584876 0.475854 0
M  V30 421 H 44.9289 1.7536 0.540487 0
M  V30 422 H 43.3109 2.52319 3.05207 0
M  V30 423 H 44.4849 4.50094 0.987505 0
M  V30 424 H 42.7999 4.03042 1.04623 0
M  V30 425 H 45.3969 3.74832 3.8132 0
M  V30 426 H 45.7399 2.04614 3.62545 0
M  V30 427 H 46.2729 3.19316 2.37238 0
M  V30 428 H 43.0119 6.18417 2.17351 0
M  V30 429 H 42.5319 4.96058 3.37175 0
M  V30 430 H 44.2109 5.55277 3.32078 0
M  V30 431 N 44.343 -0.763751 1.37857 0
M  V30 432 C 45.592 -1.51789 1.32827 0
M  V30 433 C 45.905 -1.95426 -0.0823719 0
M  V30 434 O 47.111 -2.70298 -0.255172 0
M  V30 435 C 45.567 -2.74133 2.33193 0
M  V30 436 C 45.175 -2.37562 3.79827 0
M  V30 437 C 46.919 -3.52054 2.37188 0
M  V30 438 C 44.826 -3.56456 4.71904 0
M  V30 439 H 43.756 -0.569896 0.493695 0
M  V30 440 H 46.407 -0.835822 1.63359 0
M  V30 441 H 44.789 -3.4427 1.9569 0
M  V30 442 H 45.963 -1.75157 4.26212 0
M  V30 443 H 44.278 -1.72798 3.78853 0
M  V30 444 H 46.875 -4.40437 3.03182 0
M  V30 445 H 47.218 -3.92486 1.38782 0
M  V30 446 H 47.751 -2.88921 2.7344 0
M  V30 447 H 44.49 -3.21099 5.71468 0
M  V30 448 H 44.01 -4.17938 4.30218 0
M  V30 449 H 45.689 -4.23168 4.89426 0
M  V30 450 N 45.8211 -1.22559 -0.990812 0
M  V30 451 C 46.7841 -0.998863 -2.0629 0
M  V30 452 C 47.7841 0.0354834 -1.60761 0
M  V30 453 O 48.9741 -0.203231 -1.7301 0
M  V30 454 C 46.1061 -0.509203 -3.37076 0
M  V30 455 H 47.2991 -1.95014 -2.27837 0
M  V30 456 H 44.8521 -1.04456 -1.16269 0
M  V30 457 H 45.5871 0.446335 -3.21214 0
M  V30 458 H 45.3721 -1.25547 -3.71457 0
M  V30 459 H 46.8621 -0.370888 -4.1595 0
M  V30 460 N 47.2992 1.18797 -1.03562 0
M  V30 461 C 48.5242 1.9314 -0.755764 0
M  V30 462 C 48.9492 1.7537 0.68022 0
M  V30 463 O 48.3072 1.06046 1.47051 0
M  V30 464 C 48.3552 3.42747 -1.12058 0
M  V30 465 O 47.4592 4.11683 -0.243124 0
M  V30 466 H 46.8002 0.602724 -0.278604 0
M  V30 467 H 49.3302 1.50678 -1.3841 0
M  V30 468 H 49.3402 3.93437 -1.08035 0
M  V30 469 H 48.0152 3.55002 -2.16672 0
M  V30 470 H 46.5922 3.71323 -0.342539 0
M  V30 471 N 48.7773 0.814389 1.34928 0
M  V30 472 C 50.0023 0.410097 2.03305 0
M  V30 473 C 50.4273 -0.973464 1.60951 0
M  V30 474 O 49.7853 -1.63185 0.789964 0
M  V30 475 C 49.8333 0.51049 3.56968 0
M  V30 476 O 48.9373 -0.473035 4.09678 0
M  V30 477 H 48.2783 0.170088 0.641846 0
M  V30 478 H 50.8083 1.10244 1.72358 0
M  V30 479 H 50.8183 0.383135 4.06197 0
M  V30 480 H 49.4933 1.51963 3.87144 0
M  V30 481 H 48.0703 -0.305272 3.71648 0
M  V30 482 N 50.2554 -1.46986 0.568584 0
M  V30 483 C 51.6664 -1.86188 0.138219 0
M  V30 484 C 52.0174 -1.47388 -1.29504 0
M  V30 485 O 51.1424 -0.88219 -1.97602 0
M  V30 486 C 51.7374 -3.3792 0.244065 0
M  V30 487 C 50.2964 -3.76171 -0.131335 0
M  V30 488 C 49.4434 -2.71027 0.586465 0
M  V30 489 H 52.3944 -1.38342 0.777645 0
M  V30 490 H 52.4154 -3.76729 -0.534351 0
M  V30 491 H 51.9274 -3.66128 1.28731 0
M  V30 492 H 50.0284 -3.5358 -1.17526 0
M  V30 493 H 50.1414 -4.78523 0.235146 0
M  V30 494 H 48.5054 -2.54684 0.0282722 0
M  V30 495 H 49.2884 -3.02077 1.63109 0
M  V30 496 N 51.7335 -0.305618 -1.54608 0
M  V30 497 C 52.6435 0.57778 -2.27374 0
M  V30 498 C 53.6595 1.14451 -1.31061 0
M  V30 499 O 54.8355 1.16831 -1.6405 0
M  V30 500 C 51.9005 1.73123 -3.00382 0
M  V30 501 C 50.9615 1.19812 -4.12242 0
M  V30 502 C 50.1945 2.2966 -4.81759 0
M  V30 503 O 50.4175 3.49651 -4.50666 0
M  V30 504 O 49.3515 1.96091 -5.69062 0
M  V30 505 H 53.1775 -0.012624 -3.03697 0
M  V30 506 H 50.7625 -0.0719184 -1.49227 0
M  V30 507 H 52.6445 2.40315 -3.4616 0
M  V30 508 H 51.3195 2.30815 -2.26949 0
M  V30 509 H 50.2265 0.491798 -3.70853 0
M  V30 510 H 51.5595 0.666566 -4.87666 0
M  V30 511 N 53.2116 1.57565 -0.0334293 0
M  V30 512 C 54.1446 2.05997 0.981866 0
M  V30 513 C 55.1226 0.956647 1.3148 0
M  V30 514 O 56.3066 1.22729 1.43073 0
M  V30 515 C 53.4336 2.48564 2.30074 0
M  V30 516 C 52.4796 3.69958 2.12211 0
M  V30 517 S 53.3126 5.16414 1.41692 0
M  V30 518 C 54.4686 5.6228 2.7494 0
M  V30 519 H 54.7016 2.91792 0.569612 0
M  V30 520 H 52.2346 1.53366 0.178376 0
M  V30 521 H 54.1926 2.73753 3.05892 0
M  V30 522 H 52.8536 1.63106 2.68431 0
M  V30 523 H 52.0466 3.97603 3.09722 0
M  V30 524 H 51.6486 3.44943 1.44535 0
M  V30 525 H 53.9406 5.66783 3.71165 0
M  V30 526 H 54.8836 6.61759 2.51953 0
M  V30 527 H 55.2916 4.89944 2.80384 0
M  V30 528 N 54.6897 -0.239769 1.55765 0
M  V30 529 C 55.6377 -1.31668 1.91745 0
M  V30 530 C 56.6317 -1.49462 0.797338 0
M  V30 531 O 57.8377 -1.50852 0.982021 0
M  V30 532 H 54.2127 -0.441048 0.609082 0
M  V30 533 H 56.1837 -0.985923 2.81642 0
M  V30 534 C 54.9327 -2.66368 2.2348 0
M  V30 535 H 54.2557 -2.53478 3.09175 0
M  V30 536 H 55.6957 -3.40578 2.52553 0
M  V30 537 C 54.1547 -3.20002 1.05359 0
M  V30 538 O 54.6847 -4.00538 0.305261 0
M  V30 539 N 52.8907 -2.78126 0.842292 0
M  V30 540 H 52.4377 -2.12742 1.45253 0
M  V30 541 H 52.3957 -3.14354 0.053652 0
M  V30 542 N 56.1678 -1.49265 -0.50573 0
M  V30 543 C 57.0978 -1.68495 -1.61653 0
M  V30 544 C 58.0788 -0.53366 -1.61512 0
M  V30 545 O 59.2638 -0.76897 -1.78327 0
M  V30 546 C 56.3938 -1.74709 -3.00157 0
M  V30 547 C 55.3478 -2.89581 -3.15162 0
M  V30 548 C 54.6738 -2.80903 -4.5497 0
M  V30 549 C 55.9738 -4.30578 -2.95634 0
M  V30 550 H 57.6678 -2.61493 -1.45814 0
M  V30 551 H 55.2138 -1.25838 -0.70005 0
M  V30 552 H 57.1668 -1.86748 -3.77761 0
M  V30 553 H 55.8908 -0.783067 -3.17074 0
M  V30 554 H 54.5498 -2.77136 -2.39982 0
M  V30 555 H 54.1978 -1.82419 -4.68756 0
M  V30 556 H 53.8978 -3.57999 -4.65951 0
M  V30 557 H 55.4218 -2.94944 -5.34641 0
M  V30 558 H 56.8358 -4.4373 -3.63011 0
M  V30 559 H 55.2328 -5.0886 -3.18091 0
M  V30 560 H 56.3028 -4.45352 -1.91806 0
M  V30 561 N 57.6459 0.756429 -1.3826 0
M  V30 562 C 59.0569 1.33359 -1.30661 0
M  V30 563 C 59.4079 1.96161 0.0388875 0
M  V30 564 O 58.5329 1.94874 0.940918 0
M  V30 565 C 59.1279 2.42477 -2.36622 0
M  V30 566 C 57.6869 2.95922 -2.3261 0
M  V30 567 C 56.8339 1.69275 -2.19639 0
M  V30 568 H 59.7849 0.55552 -1.4866 0
M  V30 569 H 59.8059 3.22345 -2.02174 0
M  V30 570 H 59.3179 1.96739 -3.34538 0
M  V30 571 H 57.4189 3.45996 -1.38267 0
M  V30 572 H 57.5319 3.50494 -3.26636 0
M  V30 573 H 55.8959 1.92793 -1.66442 0
M  V30 574 H 56.6789 1.25619 -3.19491 0
M  V30 575 N 59.124 1.23083 0.984299 0
M  V30 576 C 60.352 1.08714 1.76037 0
M  V30 577 C 60.767 -0.361691 1.85303 0
M  V30 578 O 60.124 -1.25034 1.32939 0
M  V30 579 C 60.175 1.70206 3.18923 0
M  V30 580 O 59.896 3.09423 3.10144 0
M  V30 581 C 61.397 1.61227 4.12941 0
M  V30 582 H 58.617 0.380664 0.552572 0
M  V30 583 H 61.161 1.62853 1.23689 0
M  V30 584 H 59.316 1.20109 3.6831 0
M  V30 585 H 59.73 3.39188 4.00065 0
M  V30 586 H 61.204 2.08962 5.10919 0
M  V30 587 H 61.681 0.570375 4.35481 0
M  V30 588 H 62.287 2.10671 3.69456 0
M  V30 589 N 60.6021 -1.18246 1.0419 0
M  V30 590 C 61.8481 -1.88536 0.747122 0
M  V30 591 C 62.1811 -1.80223 -0.723409 0
M  V30 592 O 61.4561 -1.20337 -1.52804 0
M  V30 593 C 61.7391 -3.38968 1.21544 0
M  V30 594 C 61.5921 -3.56084 2.74816 0
M  V30 595 C 62.9111 -4.32648 0.806482 0
M  V30 596 H 60.0301 -0.684619 0.272883 0
M  V30 597 H 62.6721 -1.39113 1.29413 0
M  V30 598 H 60.8221 -3.8119 0.750081 0
M  V30 599 H 62.4941 -3.22946 3.29399 0
M  V30 600 H 60.7371 -2.98699 3.14582 0
M  V30 601 H 61.4081 -4.61639 3.02644 0
M  V30 602 H 63.8841 -3.98211 1.20695 0
M  V30 603 H 62.7601 -5.36462 1.1619 0
M  V30 604 H 63.0211 -4.41146 -0.29029 0
M  V30 605 N 62.0802 -0.821533 -1.34494 0
M  V30 606 C 63.3052 -0.420873 -2.03085 0
M  V30 607 C 63.7302 0.964915 -1.61465 0
M  V30 608 O 63.0882 1.62763 -0.798607 0
M  V30 609 C 63.1362 -0.529414 -3.56693 0
M  V30 610 O 62.2402 0.451302 -4.09923 0
M  V30 611 H 61.5812 -0.173489 -0.640935 0
M  V30 612 H 64.1112 -1.11157 -1.71771 0
M  V30 613 H 64.1212 -0.404671 -4.05988 0
M  V30 614 H 62.7962 -1.54014 -3.86332 0
M  V30 615 H 61.3732 0.285558 -3.71805 0
M  V30 616 N 63.5583 1.46682 -0.576371 0
M  V30 617 C 64.5213 2.28707 0.150239 0
M  V30 618 C 65.5213 1.38035 0.824794 0
M  V30 619 O 66.7113 1.60476 0.677719 0
M  V30 620 C 63.8433 3.18248 1.22192 0
M  V30 621 H 65.0363 2.94423 -0.570521 0
M  V30 622 H 62.5893 1.52688 -0.334078 0
M  V30 623 H 63.3243 2.57265 1.97447 0
M  V30 624 H 63.1093 3.85 0.742812 0
M  V30 625 H 64.5993 3.80001 1.73172 0
M  V30 626 N 65.0364 0.313813 1.54444 0
M  V30 627 C 65.9664 -0.549454 2.26943 0
M  V30 628 C 66.9474 -1.12741 1.27372 0
M  V30 629 O 68.1324 -1.15436 1.56167 0
M  V30 630 C 65.2624 -1.71523 3.01989 0
M  V30 631 C 64.2164 -1.26703 4.08816 0
M  V30 632 C 63.5424 -2.51898 4.71647 0
M  V30 633 C 64.8424 -0.388962 5.2085 0
M  V30 634 H 66.5364 0.0552661 2.99349 0
M  V30 635 H 64.0824 0.0280207 1.43973 0
M  V30 636 H 66.0354 -2.32535 3.51433 0
M  V30 637 H 64.7594 -2.34639 2.27183 0
M  V30 638 H 63.4184 -0.679896 3.6024 0
M  V30 639 H 63.0664 -3.13356 3.93468 0
M  V30 640 H 62.7664 -2.22605 5.43802 0
M  V30 641 H 64.2904 -3.1369 5.23861 0
M  V30 642 H 65.7044 -0.905107 5.6611 0
M  V30 643 H 64.1014 -0.18924 5.99802 0
M  V30 644 H 65.1714 0.582699 4.81386 0
M  V30 645 N 66.5145 -1.57545 0.0417849 0
M  V30 646 C 67.9305 -1.56467 -0.314704 0
M  V30 647 C 68.1305 -1.04859 -1.72066 0
M  V30 648 O 67.1865 -0.700983 -2.42575 0
M  V30 649 C 68.4995 -3.00317 -0.15174 0
M  V30 650 C 70.0475 -3.12201 -0.223553 0
M  V30 651 C 70.5225 -4.57913 -0.0892295 0
M  V30 652 N 72.0135 -4.6297 -0.145808 0
M  V30 653 C 72.7485 -5.73362 -0.0658459 0
M  V30 654 N 72.2445 -6.92769 0.0659282 0
M  V30 655 N 74.0375 -5.6197 -0.12075 0
M  V30 656 H 66.1885 -1.89416 0.961014 0
M  V30 657 H 68.4515 -0.871862 0.372237 0
M  V30 658 H 68.1575 -3.42073 0.817254 0
M  V30 659 H 68.0315 -3.65892 -0.916692 0
M  V30 660 H 70.4185 -2.70349 -1.18301 0
M  V30 661 H 70.4995 -2.49323 0.571994 0
M  V30 662 H 70.1435 -5.00448 0.866867 0
M  V30 663 H 70.0735 -5.18786 -0.903802 0
M  V30 664 H 72.5645 -3.7709 -0.247286 0
M  V30 665 H 72.8775 -7.72707 0.119905 0
M  V30 666 H 71.2225 -6.94927 0.100885 0
M  V30 667 H 74.4135 -4.67572 -0.222187 0
M  V30 668 H 74.5865 -6.47977 -0.0549735 0
M  V30 669 N 67.9926 0.231505 -1.5589 0
M  V30 670 C 68.9396 1.28682 -1.91598 0
M  V30 671 C 69.9096 1.47071 -0.771974 0
M  V30 672 O 71.0946 1.60802 -1.027 0
M  V30 673 C 68.2346 2.6342 -2.22944 0
M  V30 674 C 67.3476 2.52912 -3.50228 0
M  V30 675 C 66.4826 3.80106 -3.7107 0
M  V30 676 C 65.5216 3.64279 -4.91902 0
M  V30 677 N 64.6586 4.834 -5.09184 0
M  V30 678 H 69.4986 0.975305 -2.81588 0
M  V30 679 H 67.0356 0.470299 -1.39379 0
M  V30 680 H 68.9936 3.41869 -2.39126 0
M  V30 681 H 67.6236 2.92687 -1.36139 0
M  V30 682 H 66.6756 1.6595 -3.42294 0
M  V30 683 H 67.9876 2.37133 -4.38827 0
M  V30 684 H 67.1416 4.66999 -3.87295 0
M  V30 685 H 65.8806 3.98799 -2.80733 0
M  V30 686 H 64.8856 2.7577 -4.75637 0
M  V30 687 H 66.1106 3.47067 -5.83714 0
M  V30 688 H 64.0566 5.02425 -4.21788 0
M  V30 689 H 63.9736 4.70311 -5.91898 0
M  V30 690 H 65.2416 5.71747 -5.29835 0
M  V30 691 N 69.4707 1.49531 0.497807 0
M  V30 692 C 70.4037 1.61043 1.6168 0
M  V30 693 C 71.3817 0.459386 1.55976 0
M  V30 694 O 72.5657 0.675358 1.75986 0
M  V30 695 C 69.6927 1.56833 3.00202 0
M  V30 696 C 68.7387 2.77173 3.24156 0
M  V30 697 S 69.5717 4.38808 3.06933 0
M  V30 698 C 70.7277 4.37248 4.47845 0
M  V30 699 H 70.9607 2.55702 1.51671 0
M  V30 700 H 68.4937 1.38462 0.683201 0
M  V30 701 H 70.4517 1.55089 3.80076 0
M  V30 702 H 69.1127 0.634561 3.07623 0
M  V30 703 H 68.3057 2.70456 4.25288 0
M  V30 704 H 67.9077 2.76346 2.5201 0
M  V30 705 H 70.1997 4.09164 5.39992 0
M  V30 706 H 71.1427 5.38668 4.59612 0
M  V30 707 H 71.5507 3.67286 4.28674 0
M  V30 708 N 70.9488 -0.749086 1.3866 0
M  V30 709 C 72.1968 -1.50535 1.34847 0
M  V30 710 C 72.5178 -1.94909 -0.0595016 0
M  V30 711 O 71.7878 -1.67973 -1.00806 0
M  V30 712 H 70.3678 -0.558395 0.49619 0
M  V30 713 H 73.0298 -0.890165 1.73384 0
M  V30 714 H 72.1258 -2.39413 2.00219 0
M  V30 715 N 72.4269 -1.23603 -0.977757 0
M  V30 716 C 73.6729 -1.07129 -1.72195 0
M  V30 717 C 74.0059 0.390501 -1.90233 0
M  V30 718 O 73.2809 1.28902 -1.45653 0
M  V30 719 C 73.5639 -1.80031 -3.11867 0
M  V30 720 C 73.4169 -3.33899 -3.01383 0
M  V30 721 C 74.7359 -1.56492 -4.11337 0
M  V30 722 H 71.8549 -0.390571 -0.624999 0
M  V30 723 H 74.4969 -1.52142 -1.13811 0
M  V30 724 H 72.6469 -1.41768 -3.6171 0
M  V30 725 H 74.3189 -3.81699 -2.59043 0
M  V30 726 H 72.5619 -3.62796 -2.37827 0
M  V30 727 H 73.2329 -3.801 -4.00285 0
M  V30 728 H 75.7089 -1.89757 -3.70313 0
M  V30 729 H 74.5849 -2.09973 -5.07151 0
M  V30 730 H 74.8459 -0.500874 -4.39254 0
M  V30 731 N 73.905 1.17692 -1.04816 0
M  V30 732 C 74.853 2.23632 -0.63966 0
M  V30 733 C 75.847 1.6601 0.337219 0
M  V30 734 O 77.053 1.78844 0.203693 0
M  V30 735 H 73.428 0.727949 -0.188665 0
M  V30 736 H 75.399 2.55387 -1.54337 0
M  V30 737 C 74.148 3.4769 -0.0264051 0
M  V30 738 H 73.471 3.92331 -0.769164 0
M  V30 739 H 74.911 4.23418 0.222098 0
M  V30 740 C 73.37 3.13807 1.22584 0
M  V30 741 O 73.9 3.28236 2.31569 0
M  V30 742 N 72.106 2.68065 1.12202 0
M  V30 743 H 71.653 2.56525 0.235133 0
M  V30 744 H 71.611 2.45767 1.96076 0
M  V30 745 N 75.3831 0.828654 1.34056 0
M  V30 746 C 76.3131 0.269443 2.3194 0
M  V30 747 C 77.2941 -0.617247 1.58506 0
M  V30 748 O 78.4791 -0.542931 1.86456 0
M  V30 749 C 75.6091 -0.564793 3.42677 0
M  V30 750 C 74.5631 0.225241 4.27407 0
M  V30 751 C 73.8891 -0.7321 5.29664 0
M  V30 752 C 75.1891 1.43663 5.02154 0
M  V30 753 H 76.8831 1.08728 2.7896 0
M  V30 754 H 74.4291 0.524283 1.34117 0
M  V30 755 H 76.3821 -0.966233 4.10173 0
M  V30 756 H 75.1061 -1.41574 2.9432 0
M  V30 757 H 73.7651 0.608117 3.61521 0
M  V30 758 H 73.4131 -1.57916 4.77568 0
M  V30 759 H 73.1131 -0.20767 5.87233 0
M  V30 760 H 74.6371 -1.13128 6.00029 0
M  V30 761 H 76.0511 1.1089 5.62473 0
M  V30 762 H 74.4481 1.89711 5.69324 0
M  V30 763 H 75.5181 2.21181 4.31517 0
M  V30 764 N 76.8612 -1.46375 0.584142 0
M  V30 765 C 78.0892 -2.06761 0.0759296 0
M  V30 766 C 78.5042 -1.43266 -1.22965 0
M  V30 767 O 77.8612 -0.538458 -1.74376 0
M  V30 768 C 77.9122 -3.61375 -0.0950384 0
M  V30 769 O 77.6332 -4.22495 1.15887 0
M  V30 770 C 79.1342 -4.38693 -0.637434 0
M  V30 771 H 76.3542 -0.668479 0.0581075 0
M  V30 772 H 78.8982 -1.8798 0.805218 0
M  V30 773 H 77.0532 -3.79578 -0.774554 0
M  V30 774 H 77.4672 -5.15385 0.973598 0
M  V30 775 H 78.9412 -5.47464 -0.706237 0
M  V30 776 H 79.4182 -4.06836 -1.65472 0
M  V30 777 H 80.0242 -4.25299 0.00725967 0
M  V30 778 N 78.3393 -0.321999 -1.54275 0
M  V30 779 C 79.7553 0.0306999 -1.5957 0
M  V30 780 C 79.9553 1.50614 -1.33857 0
M  V30 781 O 79.0113 2.2619 -1.12223 0
M  V30 782 C 80.3243 -0.386122 -2.98211 0
M  V30 783 C 81.8723 -0.336647 -3.11184 0
M  V30 784 C 82.3473 -0.728607 -4.52167 0
M  V30 785 N 83.8383 -0.681952 -4.58152 0
M  V30 786 C 84.5733 -0.957449 -5.6535 0
M  V30 787 N 84.0693 -1.3 -6.80494 0
M  V30 788 N 85.8623 -0.883113 -5.55119 0
M  V30 789 H 78.0133 -1.28332 -1.69247 0
M  V30 790 H 80.2763 -0.521716 -0.791528 0
M  V30 791 H 79.9823 -1.41404 -3.22022 0
M  V30 792 H 79.8563 0.249662 -3.76373 0
M  V30 793 H 82.2433 0.682058 -2.8711 0
M  V30 794 H 82.3243 -1.00734 -2.3513 0
M  V30 795 H 81.9683 -1.74522 -4.76974 0
M  V30 796 H 81.8983 -0.0356152 -5.26588 0
M  V30 797 H 84.3893 -0.428985 -3.75457 0
M  V30 798 H 84.7023 -1.49563 -7.58189 0
M  V30 799 H 83.0473 -1.33824 -6.81994 0
M  V30 800 H 86.2383 -0.615001 -4.64042 0
M  V30 801 H 86.4113 -1.10118 -6.38575 0
M  V30 802 N 79.8174 1.5752 -0.0501392 0
M  V30 803 C 81.0424 1.97376 0.636997 0
M  V30 804 C 81.4674 0.927466 1.63645 0
M  V30 805 O 80.8254 -0.10941 1.8097 0
M  V30 806 C 80.8734 3.36304 1.30123 0
M  V30 807 O 79.9774 3.34156 2.41689 0
M  V30 808 H 79.3184 0.642998 0.165679 0
M  V30 809 H 81.8484 2.04258 -0.118233 0
M  V30 810 H 81.8584 3.73008 1.65315 0
M  V30 811 H 80.5334 4.11993 0.568746 0
M  V30 812 H 79.1104 3.09196 2.08451 0
M  V30 813 N 81.2955 -0.223234 1.56011 0
M  V30 814 C 82.2435 -1.29627 1.93131 0
M  V30 815 C 83.2375 -1.48608 0.813146 0
M  V30 816 O 84.4435 -1.49802 0.997966 0
M  V30 817 H 80.8185 -0.434563 0.613726 0
M  V30 818 H 82.7895 -0.955995 2.82672 0
M  V30 819 C 81.5385 -2.63983 2.26292 0
M  V30 820 H 80.8615 -2.50185 3.11846 0
M  V30 821 H 82.3015 -3.3788 2.56151 0
M  V30 822 C 80.7605 -3.18866 1.08747 0
M  V30 823 O 81.2905 -4.00192 0.347727 0
M  V30 824 N 79.4965 -2.77217 0.871743 0
M  V30 825 H 79.0435 -2.1119 1.47501 0
M  V30 826 H 79.0015 -3.1428 0.0869905 0
M  V30 827 N 82.7736 -1.49793 -0.48987 0
M  V30 828 C 83.7206 -1.67281 -1.59014 0
M  V30 829 C 84.6906 -0.514177 -1.57941 0
M  V30 830 O 85.8756 -0.742533 -1.75759 0
M  V30 831 C 83.0156 -1.75569 -2.97102 0
M  V30 832 C 82.1286 -3.0281 -3.08107 0
M  V30 833 C 81.2636 -3.02008 -4.36995 0
M  V30 834 C 80.3026 -4.23782 -4.41673 0
M  V30 835 N 79.4396 -4.20826 -5.62005 0
M  V30 836 H 84.2796 -2.61224 -1.43409 0
M  V30 837 H 81.8166 -1.29508 -0.697565 0
M  V30 838 H 83.7746 -1.78354 -3.77155 0
M  V30 839 H 82.4046 -0.850827 -3.11385 0
M  V30 840 H 81.4566 -3.09584 -2.21047 0
M  V30 841 H 82.7686 -3.92801 -3.07423 0
M  V30 842 H 81.9226 -3.03418 -5.25378 0
M  V30 843 H 80.6616 -2.09815 -4.4026 0
M  V30 844 H 79.6666 -4.22604 -3.5169 0
M  V30 845 H 80.8916 -5.17181 -4.40115 0
M  V30 846 H 78.8376 -3.31476 -5.66091 0
M  V30 847 H 78.7546 -5.04564 -5.62984 0
M  V30 848 H 80.0226 -4.26355 -6.52565 0
M  V30 849 N 84.2517 0.741722 -1.39055 0
M  V30 850 C 85.1617 1.88621 -1.39496 0
M  V30 851 C 86.1777 1.71557 -0.290578 0
M  V30 852 O 87.3537 1.94275 -0.530954 0
M  V30 853 C 84.4187 3.24134 -1.23037 0
M  V30 854 C 83.4797 3.5364 -2.43387 0
M  V30 855 C 82.7127 4.82687 -2.27703 0
M  V30 856 O 82.9357 5.55922 -1.27696 0
M  V30 857 O 81.8697 5.1194 -3.16545 0
M  V30 858 H 85.6957 1.91203 -2.35956 0
M  V30 859 H 83.2807 0.888625 -1.20099 0
M  V30 860 H 85.1627 4.0513 -1.15964 0
M  V30 861 H 83.8377 3.22337 -0.296691 0
M  V30 862 H 82.7447 2.72758 -2.56035 0
M  V30 863 H 84.0777 3.60209 -3.35425 0
M  V30 864 N 85.7298 1.2412 0.971189 0
M  V30 865 C 86.9578 1.10575 1.74874 0
M  V30 866 C 87.3728 -0.342017 1.85676 0
M  V30 867 O 86.7298 -1.23617 1.34258 0
M  V30 868 C 86.7808 1.73579 3.171 0
M  V30 869 O 86.5018 3.12695 3.06844 0
M  V30 870 C 88.0028 1.65598 4.11208 0
M  V30 871 H 85.2228 0.386504 0.548503 0
M  V30 872 H 87.7668 1.64156 1.21955 0
M  V30 873 H 85.9218 1.24009 3.67016 0
M  V30 874 H 86.3358 3.43412 3.96445 0
M  V30 875 H 87.8098 2.1437 5.08674 0
M  V30 876 H 88.2868 0.616532 4.34851 0
M  V30 877 H 88.8928 2.14578 3.67201 0
M  V30 878 N 87.2079 -1.17134 1.05439 0
M  V30 879 C 88.4539 -1.87733 0.767077 0
M  V30 880 C 88.7869 -1.8098 -0.704253 0
M  V30 881 O 88.0619 -1.21951 -1.5152 0
M  V30 882 C 88.3449 -3.37659 1.25133 0
M  V30 883 C 88.1979 -3.53149 2.78578 0
M  V30 884 C 89.5169 -4.31768 0.852324 0
M  V30 885 H 86.6359 -0.681687 0.280129 0
M  V30 886 H 89.2779 -1.37732 1.30881 0
M  V30 887 H 87.4279 -3.80373 0.790469 0
M  V30 888 H 89.0999 -3.19434 3.32806 0
M  V30 889 H 87.3429 -2.95345 3.17732 0
M  V30 890 H 88.0139 -4.58403 3.07523 0
M  V30 891 H 90.4899 -3.96909 1.24911 0
M  V30 892 H 89.3659 -5.35199 1.21873 0
M  V30 893 H 89.6269 -4.41429 -0.243485 0
M  V30 894 N 88.686 -0.835752 -1.33615 0
M  V30 895 C 89.633 -0.26473 -2.29277 0
M  V30 896 C 90.603 0.617712 -1.54187 0
M  V30 897 O 91.788 0.556641 -1.825 0
M  V30 898 C 88.928 0.556777 -3.40579 0
M  V30 899 C 88.041 -0.349339 -4.30585 0
M  V30 900 C 87.176 0.482969 -5.29 0
M  V30 901 C 86.215 -0.421732 -6.10645 0
M  V30 902 N 85.352 0.372262 -7.01112 0
M  V30 903 H 90.192 -1.08582 -2.77514 0
M  V30 904 H 87.729 -0.546927 -1.36554 0
M  V30 905 H 89.687 1.04852 -4.03809 0
M  V30 906 H 88.317 1.34286 -2.93542 0
M  V30 907 H 87.369 -0.959372 -3.68104 0
M  V30 908 H 88.681 -1.04445 -4.87742 0
M  V30 909 H 87.835 1.03866 -5.97743 0
M  V30 910 H 86.574 1.21153 -4.72412 0
M  V30 911 H 85.579 -0.989464 -5.40823 0
M  V30 912 H 86.804 -1.14861 -6.69316 0
M  V30 913 H 84.75 1.08426 -6.46977 0
M  V30 914 H 84.667 -0.264198 -7.55538 0
M  V30 915 H 85.935 0.910293 -7.74167 0
M  V30 916 N 90.1641 1.46063 -0.591896 0
M  V30 917 C 91.1141 2.27458 0.157172 0
M  V30 918 C 92.0981 1.3641 0.853301 0
M  V30 919 O 93.2901 1.60517 0.74588 0
M  V30 920 C 90.4191 3.22956 1.16423 0
M  V30 921 C 89.5051 4.2149 0.469742 0
M  V30 922 N 89.8961 5.03519 -0.479839 0
M  V30 923 C 88.1941 4.40161 0.719319 0
M  V30 924 C 88.8951 5.74904 -0.886591 0
M  V30 925 N 87.8711 5.43097 -0.233731 0
M  V30 926 H 91.6731 2.88272 -0.572392 0
M  V30 927 H 89.1871 1.57024 -0.414375 0
M  V30 928 H 91.1841 3.79986 1.71513 0
M  V30 929 H 89.8441 2.63701 1.89451 0
M  V30 930 H 90.8551 5.1078 -0.855823 0
M  V30 931 H 87.5321 3.92046 1.43548 0
M  V30 932 H 88.9221 6.50844 -1.66888 0
M  V30 933 N 91.6422 0.330177 1.54103 0
M  V30 934 C 92.8672 -0.274893 2.0557 0
M  V30 935 C 93.2922 -1.44487 1.20437 0
M  V30 936 O 92.6502 -1.80021 0.214991 0
M  V30 937 C 92.6982 -0.68079 3.54115 0
M  V30 938 O 91.8022 -1.7824 3.71893 0
M  V30 939 H 91.1432 -0.0483849 0.662235 0
M  V30 940 H 93.6732 0.480508 1.98878 0
M  V30 941 H 93.6832 -0.961635 3.96505 0
M  V30 942 H 92.3582 0.174903 4.15532 0
M  V30 943 H 90.9352 -1.49985 3.41407 0
M  V30 944 N 93.1203 -1.57491 0.0584922 0
M  V30 945 C 94.3973 -1.84346 -0.653918 0
M  V30 946 C 94.7773 -0.948355 -1.88599 0
M  V30 947 O 94.1253 -0.0112403 -2.28497 0
M  V30 948 C 94.3353 -3.34239 -1.00425 0
M  V30 949 C 95.6833 -4.01431 -1.38342 0
M  V30 950 O 96.7073 -3.38907 -1.09637 0
M  V30 951 O 95.5663 -5.11683 -1.91943 0
M  V30 952 H 92.6603 -0.761112 -0.323478 0
M  V30 953 H 95.2063 -1.6947 0.0884125 0
M  V30 954 H 93.9783 -3.91089 -0.128625 0
M  V30 955 H 93.6013 -3.54329 -1.80378 0
M  V30 956 N 94.5984 0.214957 -1.56127 0
M  V30 957 C 95.8444 0.939762 -1.79712 0
M  V30 958 C 96.1774 1.83723 -0.629247 0
M  V30 959 O 95.4524 1.90925 0.371197 0
M  V30 960 C 95.7354 1.77306 -3.13424 0
M  V30 961 C 95.5884 0.90164 -4.40671 0
M  V30 962 C 96.9074 2.74956 -3.43638 0
M  V30 963 H 94.0264 0.340214 -0.653776 0
M  V30 964 H 96.6684 0.20824 -1.88855 0
M  V30 965 H 94.8184 2.39673 -3.0576 0
M  V30 966 H 96.4904 0.294206 -4.60361 0
M  V30 967 H 94.7334 0.207368 -4.33304 0
M  V30 968 H 95.4044 1.51923 -5.30682 0
M  V30 969 H 97.8804 2.22724 -3.51473 0
M  V30 970 H 96.7564 3.30358 -4.38355 0
M  V30 971 H 97.0174 3.53023 -2.66134 0
M  V30 972 N 96.0765 1.50051 0.48192 0
M  V30 973 C 97.0065 1.71046 1.58951 0
M  V30 974 C 97.9875 0.559288 1.60642 0
M  V30 975 O 99.1725 0.797243 1.77081 0
M  V30 976 C 96.3025 1.79462 2.97339 0
M  V30 977 C 95.2565 2.94558 3.10515 0
M  V30 978 C 94.5825 2.88105 4.50444 0
M  V30 979 C 95.8825 4.35227 2.88747 0
M  V30 980 H 97.5765 2.6378 1.41635 0
M  V30 981 H 95.1225 1.26936 0.679942 0
M  V30 982 H 97.0755 1.92734 3.74742 0
M  V30 983 H 95.7995 0.833412 3.15788 0
M  V30 984 H 94.4585 2.80918 2.35543 0
M  V30 985 H 94.1065 1.89853 4.65795 0
M  V30 986 H 93.8065 3.65366 4.60197 0
M  V30 987 H 95.3305 3.03412 5.29881 0
M  V30 988 H 96.7445 4.49449 3.55905 0
M  V30 989 H 95.1415 5.13856 3.09955 0
M  V30 990 H 96.2115 4.48347 1.84696 0
M  V30 991 N 97.5546 -0.734337 1.39446 0
M  V30 992 C 98.8016 -1.49391 1.36706 0
M  V30 993 C 99.1296 -1.94465 -0.0367813 0
M  V30 994 O 98.3846 -1.67154 -1.01774 0
M  V30 995 C 98.6836 -2.74711 2.28623 0
M  V30 996 C 98.3496 -2.48501 3.76242 0
M  V30 997 C 97.0116 -2.41062 4.16464 0
M  V30 998 C 99.3636 -2.26098 4.69606 0
M  V30 999 C 96.6916 -2.09262 5.48112 0
M  V30 1000 C 99.0436 -1.95814 6.01531 0
M  V30 1001 C 97.7076 -1.86845 6.40816 0
M  V30 1002 H 96.9776 -0.546661 0.500243 0
M  V30 1003 H 99.6246 -0.842788 1.71957 0
M  V30 1004 H 97.9296 -3.44569 1.86492 0
M  V30 1005 H 99.6266 -3.32741 2.23796 0
M  V30 1006 H 96.2166 -2.55169 3.44364 0
M  V30 1007 H 100.401 -2.30812 4.39363 0
M  V30 1008 H 95.6566 -2.00841 5.77471 0
M  V30 1009 H 99.8306 -1.77488 6.73403 0
M  V30 1010 H 97.4576 -1.6197 7.42745 0
M  V30 1011 N 99.0327 -1.24633 -0.964593 0
M  V30 1012 C 99.9627 -1.06611 -2.07741 0
M  V30 1013 C 100.944 0.0218666 -1.70086 0
M  V30 1014 O 102.129 -0.145793 -1.93652 0
M  V30 1015 C 99.2587 -0.673444 -3.40708 0
M  V30 1016 C 98.2127 -1.71054 -3.92332 0
M  V30 1017 C 97.5387 -1.17285 -5.21678 0
M  V30 1018 C 98.8387 -3.10718 -4.19824 0
M  V30 1019 H 100.533 -1.99693 -2.23076 0
M  V30 1020 H 98.0787 -0.96152 -1.07195 0
M  V30 1021 H 100.032 -0.534345 -4.17998 0
M  V30 1022 H 98.7557 0.293073 -3.25282 0
M  V30 1023 H 97.4147 -1.83791 -3.17201 0
M  V30 1024 H 97.0627 -0.196847 -5.02615 0
M  V30 1025 H 96.7627 -1.86592 -5.57187 0
M  V30 1026 H 98.2867 -1.04593 -6.01575 0
M  V30 1027 H 99.7007 -3.01192 -4.87808 0
M  V30 1028 H 98.0977 -3.77406 -4.66567 0
M  V30 1029 H 99.1677 -3.58524 -3.26479 0
M  V30 1030 N 100.511 1.16574 -1.06058 0
M  V30 1031 C 101.474 2.19085 -0.673392 0
M  V30 1032 C 102.474 1.5835 0.279648 0
M  V30 1033 O 103.664 1.74088 0.0623488 0
M  V30 1034 C 100.796 3.40899 0.00954234 0
M  V30 1035 H 101.989 2.54853 -1.58081 0
M  V30 1036 H 99.5418 1.30808 -0.855516 0
M  V30 1037 H 100.277 3.10684 0.929826 0
M  V30 1038 H 100.062 3.86233 -0.67573 0
M  V30 1039 H 101.552 4.1675 0.266245 0
M  V30 1040 N 101.989 0.842826 1.3317 0
M  V30 1041 C 103.235 0.441099 1.97945 0
M  V30 1042 C 103.568 -0.998024 1.66593 0
M  V30 1043 O 102.843 -1.69839 0.947898 0
M  V30 1044 C 103.126 0.666841 3.53872 0
M  V30 1045 C 102.979 2.15352 3.94897 0
M  V30 1046 C 104.298 0.115544 4.39948 0
M  V30 1047 H 101.417 0.161739 0.719034 0
M  V30 1048 H 104.059 1.05907 1.57746 0
M  V30 1049 H 102.209 0.140828 3.88245 0
M  V30 1050 H 103.881 2.7447 3.70761 0
M  V30 1051 H 102.124 2.63653 3.44484 0
M  V30 1052 H 102.795 2.26221 5.03516 0
M  V30 1053 H 105.271 0.565213 4.12243 0
M  V30 1054 H 104.147 0.303152 5.48062 0
M  V30 1055 H 104.408 -0.980935 4.3108 0
M  V30 1056 N 103.467 -1.45747 0.599634 0
M  V30 1057 C 104.414 -2.30467 -0.123849 0
M  V30 1058 C 105.384 -1.41632 -0.86774 0
M  V30 1059 O 106.569 -1.70568 -0.855056 0
M  V30 1060 C 103.709 -3.26402 -1.12051 0
M  V30 1061 C 102.822 -4.3034 -0.37832 0
M  V30 1062 C 101.957 -5.13389 -1.364 0
M  V30 1063 C 100.996 -6.09061 -0.609171 0
M  V30 1064 N 100.133 -6.84918 -1.54374 0
M  V30 1065 H 104.973 -2.91802 0.604627 0
M  V30 1066 H 102.51 -1.43797 0.309972 0
M  V30 1067 H 104.468 -3.80482 -1.7114 0
M  V30 1068 H 103.098 -2.66839 -1.8165 0
M  V30 1069 H 102.15 -3.78984 0.327929 0
M  V30 1070 H 103.462 -4.98354 0.210997 0
M  V30 1071 H 102.616 -5.7183 -2.02719 0
M  V30 1072 H 101.355 -4.45376 -1.98725 0
M  V30 1073 H 100.36 -5.49758 0.0676979 0
M  V30 1074 H 101.585 -6.79099 0.00891991 0
M  V30 1075 H 99.531 -6.19601 -2.15478 0
M  V30 1076 H 99.448 -7.49254 -1.00766 0
M  V30 1077 H 100.716 -7.47906 -2.19676 0
M  V30 1078 N 104.945 -0.338344 -1.53925 0
M  V30 1079 C 106.356 0.146651 -1.86123 0
M  V30 1080 C 106.707 1.5042 -1.2597 0
M  V30 1081 O 105.832 2.08723 -0.571294 0
M  V30 1082 C 106.427 0.272879 -3.37699 0
M  V30 1083 C 104.986 0.702103 -3.69794 0
M  V30 1084 C 104.133 -0.167304 -2.76795 0
M  V30 1085 H 107.084 -0.558123 -1.48562 0
M  V30 1086 H 107.105 1.10128 -3.64214 0
M  V30 1087 H 106.617 -0.715307 -3.81451 0
M  V30 1088 H 104.718 1.6995 -3.31584 0
M  V30 1089 H 104.831 0.495604 -4.7653 0
M  V30 1090 H 103.195 0.359527 -2.5215 0
M  V30 1091 H 103.978 -1.15253 -3.23375 0
M  V30 1092 N 106.423 1.57458 -0.0668435 0
M  V30 1093 C 107.373 2.0896 0.912119 0
M  V30 1094 C 108.357 0.998186 1.26195 0
M  V30 1095 O 109.549 1.26133 1.24175 0
M  V30 1096 C 106.678 2.6508 2.18145 0
M  V30 1097 C 105.764 3.81218 1.85832 0
M  V30 1098 N 106.155 4.90378 1.23948 0
M  V30 1099 C 104.453 3.9042 2.15612 0
M  V30 1100 C 105.154 5.71279 1.09616 0
M  V30 1101 N 104.13 5.19389 1.60423 0
M  V30 1102 H 107.932 2.90749 0.42924 0
M  V30 1103 H 105.446 1.6182 0.137184 0
M  V30 1104 H 107.443 3.0029 2.89192 0
M  V30 1105 H 106.103 1.84736 2.67025 0
M  V30 1106 H 107.114 5.09847 0.909731 0
M  V30 1107 H 103.791 3.21043 2.66903 0
M  V30 1108 H 105.181 6.69085 0.614425 0
M  V30 1109 N 107.901 -0.206675 1.56239 0
M  V30 1110 C 109.15 -0.926964 1.79138 0
M  V30 1111 C 109.463 -1.84901 0.638043 0
M  V30 1112 O 110.669 -2.60906 0.751033 0
M  V30 1113 C 109.125 -1.6986 3.17294 0
M  V30 1114 C 108.733 -0.821956 4.40395 0
M  V30 1115 C 110.477 -2.40922 3.4951 0
M  V30 1116 C 108.384 -1.59179 5.69575 0
M  V30 1117 H 107.314 -0.349864 0.667915 0
M  V30 1118 H 109.965 -0.180487 1.8261 0
M  V30 1119 H 108.347 -2.48853 3.08039 0
M  V30 1120 H 109.521 -0.0715019 4.60745 0
M  V30 1121 H 107.836 -0.222741 4.15804 0
M  V30 1122 H 110.433 -2.99047 4.43255 0
M  V30 1123 H 110.776 -3.14542 2.72707 0
M  V30 1124 H 111.309 -1.68905 3.60161 0
M  V30 1125 H 108.048 -0.898589 6.49312 0
M  V30 1126 H 107.568 -2.31648 5.53262 0
M  V30 1127 H 109.247 -2.14862 6.10281 0
M  V30 1128 N 109.379 -1.50304 -0.473955 0
M  V30 1129 C 110.628 -1.60392 -1.22301 0
M  V30 1130 C 110.941 -0.308411 -1.93153 0
M  V30 1131 O 112.147 -0.288156 -2.69966 0
M  V30 1132 C 110.603 -2.83109 -2.2221 0
M  V30 1133 C 110.211 -4.19524 -1.57173 0
M  V30 1134 C 111.955 -3.0254 -2.97775 0
M  V30 1135 C 109.862 -5.33431 -2.55353 0
M  V30 1136 H 108.792 -0.597286 -0.460179 0
M  V30 1137 H 111.443 -1.76731 -0.493803 0
M  V30 1138 H 109.825 -2.60322 -2.9841 0
M  V30 1139 H 110.999 -4.52554 -0.867824 0
M  V30 1140 H 109.314 -4.05674 -0.939002 0
M  V30 1141 H 111.911 -3.84811 -3.71248 0
M  V30 1142 H 112.254 -2.14154 -3.56992 0
M  V30 1143 H 112.787 -3.25494 -2.28688 0
M  V30 1144 H 109.526 -6.23962 -2.00878 0
M  V30 1145 H 109.046 -5.04823 -3.23904 0
M  V30 1146 H 110.725 -5.63887 -3.17239 0
M  V30 1147 N 110.857 0.726932 -1.39834 0
M  V30 1148 C 112.268 1.30558 -1.3346 0
M  V30 1149 C 112.619 1.962 -0.00273003 0
M  V30 1150 O 111.744 1.96826 0.899371 0
M  V30 1151 C 112.339 2.37404 -2.41713 0
M  V30 1152 C 110.898 2.90921 -2.38835 0
M  V30 1153 C 110.045 1.64578 -2.2318 0
M  V30 1154 H 112.996 0.523862 -1.49804 0
M  V30 1155 H 113.017 3.17984 -2.08966 0
M  V30 1156 H 112.529 1.89599 -3.38635 0
M  V30 1157 H 110.63 3.42985 -1.45575 0
M  V30 1158 H 110.743 3.43487 -3.33997 0
M  V30 1159 H 109.107 1.89219 -1.70494 0
M  V30 1160 H 109.89 1.18814 -3.22084 0
M  V30 1161 N 112.336 1.25143 0.95797 0
M  V30 1162 C 113.583 1.09692 1.70217 0
M  V30 1163 C 113.911 -0.362654 1.91089 0
M  V30 1164 O 113.166 -1.28386 1.47701 0
M  V30 1165 C 113.465 1.79272 3.09187 0
M  V30 1166 C 113.131 3.29196 3.08125 0
M  V30 1167 C 111.793 3.70096 3.07543 0
M  V30 1168 C 114.145 4.24995 3.0171 0
M  V30 1169 C 111.473 5.05213 2.9829 0
M  V30 1170 C 113.825 5.60132 2.93999 0
M  V30 1171 C 112.489 6.00365 2.9175 0
M  V30 1172 H 111.759 0.401393 0.622868 0
M  V30 1173 H 114.406 1.55372 1.11945 0
M  V30 1174 H 112.711 1.26014 3.70982 0
M  V30 1175 H 114.408 1.64773 3.65583 0
M  V30 1176 H 110.998 2.96651 3.09348 0
M  V30 1177 H 115.182 3.9439 3.01281 0
M  V30 1178 H 110.438 5.35569 2.94916 0
M  V30 1179 H 114.612 6.3406 2.87996 0
M  V30 1180 H 112.239 7.05023 2.84336 0
M  V30 1181 N 113.814 -1.1601 1.06675 0
M  V30 1182 C 115.063 -1.85973 0.780818 0
M  V30 1183 C 115.376 -1.82819 -0.695444 0
M  V30 1184 O 116.582 -2.484 -1.09589 0
M  V30 1185 C 115.038 -3.33757 1.34665 0
M  V30 1186 C 114.646 -3.45374 2.85343 0
M  V30 1187 C 116.39 -4.0895 1.13843 0
M  V30 1188 C 114.297 -4.87266 3.35151 0
M  V30 1189 H 113.227 -0.696661 0.288407 0
M  V30 1190 H 115.878 -1.30903 1.28595 0
M  V30 1191 H 114.26 -3.88456 0.769274 0
M  V30 1192 H 115.434 -3.00816 3.49065 0
M  V30 1193 H 113.749 -2.83619 3.04876 0
M  V30 1194 H 116.346 -5.13654 1.4854 0
M  V30 1195 H 116.689 -4.16229 0.0770282 0
M  V30 1196 H 117.222 -3.605 1.68179 0
M  V30 1197 H 113.961 -4.85168 4.40786 0
M  V30 1198 H 113.481 -5.32433 2.76179 0
M  V30 1199 H 115.16 -5.56097 3.30704 0
M  V30 1200 N 115.292 -0.849877 -1.32721 0
M  V30 1201 C 116.222 -0.306308 -2.31482 0
M  V30 1202 C 117.203 0.591952 -1.59468 0
M  V30 1203 O 118.388 0.513199 -1.87296 0
M  V30 1204 C 115.518 0.510204 -3.43532 0
M  V30 1205 C 114.472 -0.293209 -4.26994 0
M  V30 1206 C 113.798 0.647743 -5.30762 0
M  V30 1207 C 115.098 -1.51634 -4.99804 0
M  V30 1208 H 116.792 -1.13153 -2.77195 0
M  V30 1209 H 114.338 -0.545553 -1.33266 0
M  V30 1210 H 116.291 0.900856 -4.11658 0
M  V30 1211 H 115.015 1.36874 -2.96535 0
M  V30 1212 H 113.674 -0.665555 -3.60508 0
M  V30 1213 H 113.322 1.50299 -4.8002 0
M  V30 1214 H 113.022 0.11422 -5.87489 0
M  V30 1215 H 114.546 1.03567 -6.01753 0
M  V30 1216 H 115.96 -1.19824 -5.60638 0
M  V30 1217 H 114.357 -1.98745 -5.66234 0
M  V30 1218 H 115.427 -2.28018 -4.27943 0
M  V30 1219 N 116.77 1.45427 -0.607355 0
M  V30 1220 C 118.047 1.9557 -0.0344566 0
M  V30 1221 C 118.427 1.54979 1.43334 0
M  V30 1222 O 117.775 0.812241 2.13576 0
M  V30 1223 C 117.985 3.48226 -0.232321 0
M  V30 1224 C 119.333 4.2445 -0.113001 0
M  V30 1225 O 120.357 3.55829 -0.162431 0
M  V30 1226 O 119.216 5.465 0.00209442 0
M  V30 1227 H 116.31 0.826222 0.0358667 0
M  V30 1228 H 118.856 1.55594 -0.6774 0
M  V30 1229 H 117.628 3.70739 -1.25174 0
M  V30 1230 H 117.251 3.95092 0.445896 0
M  V30 1231 N 118.248 0.346503 1.53744 0
M  V30 1232 C 119.158 -0.517293 2.28826 0
M  V30 1233 C 120.174 -1.10935 1.3405 0
M  V30 1234 O 121.35 -1.1244 1.6709 0
M  V30 1235 C 118.415 -1.65098 3.04866 0
M  V30 1236 C 117.476 -1.0884 4.15274 0
M  V30 1237 C 116.709 -2.16806 4.87679 0
M  V30 1238 O 116.932 -3.3758 4.59778 0
M  V30 1239 O 115.866 -1.80934 5.74061 0
M  V30 1240 H 119.692 0.0931396 3.03557 0
M  V30 1241 H 117.277 0.111458 1.48984 0
M  V30 1242 H 119.159 -2.31053 3.5241 0
M  V30 1243 H 117.834 -2.24717 2.32989 0
M  V30 1244 H 116.741 -0.3933 3.72027 0
M  V30 1245 H 118.074 -0.537036 4.89261 0
M  V30 1246 N 119.726 -1.57421 0.075193 0
M  V30 1247 C 120.975 -1.92794 -0.592731 0
M  V30 1248 C 121.288 -0.957478 -1.70563 0
M  V30 1249 O 122.494 -1.20417 -2.43335 0
M  V30 1250 C 120.95 -3.42495 -1.10569 0
M  V30 1251 C 120.558 -4.47994 -0.0236121 0
M  V30 1252 C 122.302 -3.86864 -1.74748 0
M  V30 1253 C 120.209 -5.88829 -0.550803 0
M  V30 1254 H 119.139 -0.719591 -0.225177 0
M  V30 1255 H 121.79 -1.82902 0.147978 0
M  V30 1256 H 120.172 -3.47471 -1.89947 0
M  V30 1257 H 121.346 -4.54637 0.751099 0
M  V30 1258 H 119.661 -4.13113 0.522159 0
M  V30 1259 H 122.258 -4.8947 -2.15229 0
M  V30 1260 H 122.601 -3.24417 -2.60882 0
M  V30 1261 H 123.134 -3.84504 -1.01986 0
M  V30 1262 H 119.873 -6.54929 0.273457 0
M  V30 1263 H 119.393 -5.85698 -1.29296 0
M  V30 1264 H 121.072 -6.38811 -1.02613 0
M  V30 1265 N 121.204 0.198386 -1.56346 0
M  V30 1266 C 122.452 0.91747 -1.80075 0
M  V30 1267 C 122.773 1.83929 -0.647692 0
M  V30 1268 O 122.043 1.93029 0.334166 0
M  V30 1269 H 120.623 0.341774 -0.664228 0
M  V30 1270 H 123.285 0.204684 -1.93822 0
M  V30 1271 H 122.381 1.51055 -2.7311 0
M  V30 1272 N 122.682 1.50554 0.465978 0
M  V30 1273 C 123.645 1.69233 1.54574 0
M  V30 1274 C 124.645 0.562901 1.50626 0
M  V30 1275 O 125.835 0.830016 1.53155 0
M  V30 1276 C 122.967 1.7223 2.94193 0
M  V30 1277 H 124.16 2.65571 1.39327 0
M  V30 1278 H 121.713 1.40111 0.692711 0
M  V30 1279 H 122.448 0.77603 3.14878 0
M  V30 1280 H 122.233 2.54285 2.98466 0
M  V30 1281 H 123.723 1.88618 3.72576 0
M  V30 1282 N 124.16 -0.719506 1.40217 0
M  V30 1283 C 125.437 -1.47221 1.28784 0
M  V30 1284 C 125.817 -2.10883 -0.0956067 0
M  V30 1285 O 125.165 -1.99833 -1.10811 0
M  V30 1286 C 125.375 -2.5111 2.42373 0
M  V30 1287 C 126.723 -3.17053 2.82423 0
M  V30 1288 O 127.747 -2.61429 2.41937 0
M  V30 1289 O 126.606 -4.17742 3.52355 0
M  V30 1290 H 123.7 -0.654491 0.50554 0
M  V30 1291 H 126.246 -0.752014 1.52128 0
M  V30 1292 H 125.018 -2.02556 3.34793 0
M  V30 1293 H 124.641 -3.3067 2.20778 0
M  V30 1294 N 125.638 -1.25649 -0.95132 0
M  V30 1295 C 126.884 -1.10757 -1.69884 0
M  V30 1296 C 127.217 0.350061 -1.91019 0
M  V30 1297 O 126.492 1.25783 -1.48354 0
M  V30 1298 C 126.775 -1.86606 -3.07978 0
M  V30 1299 C 126.628 -3.40217 -2.94232 0
M  V30 1300 C 127.947 -1.65182 -4.07925 0
M  V30 1301 H 125.066 -0.40374 -0.616574 0
M  V30 1302 H 127.708 -1.54521 -1.10558 0
M  V30 1303 H 125.858 -1.49409 -3.58621 0
M  V30 1304 H 127.53 -3.87108 -2.50889 0
M  V30 1305 H 125.773 -3.67759 -2.30078 0
M  V30 1306 H 126.444 -3.88505 -3.92133 0
M  V30 1307 H 128.92 -1.9757 -3.66204 0
M  V30 1308 H 127.796 -2.20683 -5.02583 0
M  V30 1309 H 128.057 -0.593933 -4.38092 0
M  V30 1310 N 127.117 1.15442 -1.07289 0
M  V30 1311 C 128.049 2.19773 -0.650585 0
M  V30 1312 C 129.062 1.60076 0.296572 0
M  V30 1313 O 130.251 1.78293 0.0859905 0
M  V30 1314 C 127.351 3.38838 0.0650398 0
M  V30 1315 C 126.524 4.2808 -0.898141 0
M  V30 1316 C 125.583 5.2574 -0.219926 0
M  V30 1317 O 124.609 5.62654 -0.860773 0
M  V30 1318 N 125.811 5.71205 1.03466 0
M  V30 1319 H 128.576 2.56622 -1.54808 0
M  V30 1320 H 126.137 1.30551 -0.957494 0
M  V30 1321 H 128.129 4.01222 0.529415 0
M  V30 1322 H 126.699 3.00409 0.864466 0
M  V30 1323 H 125.919 3.62804 -1.54165 0
M  V30 1324 H 127.207 4.84577 -1.5512 0
M  V30 1325 H 126.605 5.43325 1.57526 0
M  V30 1326 H 125.162 6.35633 1.44272 0
M  V30 1327 N 128.595 0.856903 1.32268 0
M  V30 1328 C 129.558 0.308171 2.27119 0
M  V30 1329 C 130.558 -0.533421 1.51695 0
M  V30 1330 O 131.748 -0.344607 1.70757 0
M  V30 1331 C 128.88 -0.563757 3.36206 0
M  V30 1332 H 130.073 1.14535 2.77167 0
M  V30 1333 H 127.626 0.631421 1.42978 0
M  V30 1334 H 128.361 -1.42266 2.91429 0
M  V30 1335 H 128.146 0.0386749 3.92081 0
M  V30 1336 H 129.636 -0.940386 4.06874 0
M  V30 1337 N 130.073 -1.45103 0.615059 0
M  V30 1338 C 131.489 -1.57137 0.279322 0
M  V30 1339 C 131.689 -1.60523 -1.21797 0
M  V30 1340 O 130.745 -1.53956 -2.00134 0
M  V30 1341 C 132.058 -2.85062 0.957083 0
M  V30 1342 C 133.606 -2.98749 0.933706 0
M  V30 1343 C 134.081 -4.29455 1.59162 0
M  V30 1344 N 135.572 -4.36231 1.55746 0
M  V30 1345 C 136.307 -5.36051 2.0356 0
M  V30 1346 N 135.803 -6.42367 2.59494 0
M  V30 1347 N 137.596 -5.27456 1.94284 0
M  V30 1348 H 129.747 -1.41148 1.58717 0
M  V30 1349 H 132.01 -0.675331 0.665306 0
M  V30 1350 H 131.716 -2.88488 2.01166 0
M  V30 1351 H 131.59 -3.7407 0.48494 0
M  V30 1352 H 133.977 -2.94886 -0.112347 0
M  V30 1353 H 134.058 -2.11132 1.44419 0
M  V30 1354 H 133.702 -4.34077 2.63704 0
M  V30 1355 H 133.632 -5.15901 1.0561 0
M  V30 1356 H 136.123 -3.60011 1.14893 0
M  V30 1357 H 136.436 -7.14793 2.93752 0
M  V30 1358 H 134.781 -6.43097 2.63537 0
M  V30 1359 H 137.972 -4.43308 1.5032 0
M  V30 1360 H 138.145 -6.05099 2.3186 0
M  V30 1361 N 131.551 -0.354651 -1.53558 0
M  V30 1362 C 132.501 0.513179 -2.2215 0
M  V30 1363 C 133.485 1.05734 -1.21281 0
M  V30 1364 O 134.677 0.989202 -1.46778 0
M  V30 1365 C 131.806 1.65798 -3.00609 0
M  V30 1366 C 130.892 1.12722 -4.08845 0
M  V30 1367 N 131.283 0.318563 -5.04796 0
M  V30 1368 C 129.581 1.40307 -4.23356 0
M  V30 1369 C 130.282 0.0292224 -5.81693 0
M  V30 1370 N 129.258 0.623891 -5.40008 0
M  V30 1371 H 133.06 -0.111586 -2.93688 0
M  V30 1372 H 130.574 -0.162091 -1.61589 0
M  V30 1373 H 132.571 2.29176 -3.48258 0
M  V30 1374 H 131.231 2.28591 -2.306 0
M  V30 1375 H 132.242 -0.0413091 -5.17884 0
M  V30 1376 H 128.919 2.03458 -3.6457 0
M  V30 1377 H 130.309 -0.623808 -6.68998 0
M  V30 1378 N 133.029 1.57378 -0.0835403 0
M  V30 1379 C 134.278 1.93106 0.582498 0
M  V30 1380 C 134.591 0.96651 1.70053 0
M  V30 1381 O 135.797 1.21705 2.42693 0
M  V30 1382 C 134.253 3.43076 1.08751 0
M  V30 1383 C 133.861 4.48 -0.000146404 0
M  V30 1384 C 135.605 3.87785 1.72694 0
M  V30 1385 C 133.512 5.89113 0.519568 0
M  V30 1386 H 132.442 0.720775 0.221358 0
M  V30 1387 H 135.093 1.82821 -0.157675 0
M  V30 1388 H 133.475 3.48474 1.88101 0
M  V30 1389 H 134.649 4.54233 -0.775199 0
M  V30 1390 H 132.964 4.1283 -0.54406 0
M  V30 1391 H 135.561 4.90604 2.1263 0
M  V30 1392 H 135.904 3.25796 2.59158 0
M  V30 1393 H 136.437 3.8504 0.999457 0
M  V30 1394 H 133.176 6.54775 -0.308186 0
M  V30 1395 H 132.696 5.86376 1.26188 0
M  V30 1396 H 134.375 6.39346 0.992237 0
M  V30 1397 N 134.507 -0.190092 1.56449 0
M  V30 1398 C 135.753 -0.911052 1.81184 0
M  V30 1399 C 136.086 -1.82699 0.658396 0
M  V30 1400 O 135.361 -1.91491 -0.340775 0
M  V30 1401 C 135.644 -1.72297 3.16205 0
M  V30 1402 C 135.497 -0.831419 4.42049 0
M  V30 1403 C 136.816 -2.69454 3.47969 0
M  V30 1404 H 133.935 -0.32977 0.659106 0
M  V30 1405 H 136.577 -0.178169 1.89163 0
M  V30 1406 H 134.727 -2.34778 3.09534 0
M  V30 1407 H 136.399 -0.220929 4.60771 0
M  V30 1408 H 134.642 -0.138406 4.33579 0
M  V30 1409 H 135.313 -1.43461 5.33032 0
M  V30 1410 H 137.789 -2.17104 3.54972 0
M  V30 1411 H 136.665 -3.23342 4.43555 0
M  V30 1412 H 136.926 -3.48744 2.71717 0
M  V30 1413 N 135.985 -1.50799 -0.457987 0
M  V30 1414 C 137.231 -1.62683 -1.21088 0
M  V30 1415 C 137.564 -0.332268 -1.91336 0
M  V30 1416 O 136.839 0.667043 -1.82704 0
M  V30 1417 C 137.122 -2.81615 -2.24422 0
M  V30 1418 C 136.975 -4.20989 -1.58392 0
M  V30 1419 C 138.294 -2.96085 -3.2561 0
M  V30 1420 H 135.413 -0.592087 -0.438864 0
M  V30 1421 H 138.055 -1.83225 -0.50286 0
M  V30 1422 H 136.205 -2.64231 -2.84806 0
M  V30 1423 H 137.877 -4.49994 -1.01504 0
M  V30 1424 H 136.12 -4.24641 -0.886704 0
M  V30 1425 H 136.791 -5.0016 -2.33547 0
M  V30 1426 H 139.267 -3.12042 -2.75262 0
M  V30 1427 H 138.143 -3.80902 -3.95228 0
M  V30 1428 H 138.404 -2.0726 -3.90507 0
M  V30 1429 N 137.463 0.71206 -1.40597 0
M  V30 1430 C 138.688 1.50617 -1.42581 0
M  V30 1431 C 139.113 1.88079 -0.0282102 0
M  V30 1432 O 138.471 1.53511 0.964579 0
M  V30 1433 C 138.519 2.7557 -2.3258 0
M  V30 1434 O 137.623 3.72414 -1.77148 0
M  V30 1435 H 136.964 0.453966 -0.484573 0
M  V30 1436 H 139.494 0.876649 -1.84868 0
M  V30 1437 H 139.504 3.2406 -2.47889 0
M  V30 1438 H 138.179 2.47639 -3.34138 0
M  V30 1439 H 136.756 3.31276 -1.71204 0
M  V30 1440 N 138.941 1.26152 0.944643 0
M  V30 1441 C 140.181 1.12708 1.70517 0
M  V30 1442 C 140.545 -0.324727 1.89234 0
M  V30 1443 O 141.746 -0.581211 2.62441 0
M  V30 1444 C 140.017 1.8713 3.04495 0
M  V30 1445 S 141.576 1.89698 3.95677 0
M  V30 1446 H 138.394 0.402665 0.585988 0
M  V30 1447 H 140.996 1.59821 1.12594 0
M  V30 1448 H 139.7 2.91833 2.88551 0
M  V30 1449 H 139.231 1.40444 3.67477 0
M  V30 1450 H 141.246 0.981198 4.86402 0
M  V30 1451 N 140.419 -1.14872 1.07899 0
M  V30 1452 C 141.382 -2.17986 0.708161 0
M  V30 1453 C 142.382 -1.58775 -0.25442 0
M  V30 1454 O 143.572 -1.74166 -0.034645 0
M  V30 1455 C 140.704 -3.40871 0.0446929 0
M  V30 1456 H 141.897 -2.52306 1.62116 0
M  V30 1457 H 139.45 -1.2943 0.876218 0
M  V30 1458 H 140.185 -3.12124 -0.880281 0
M  V30 1459 H 139.97 -3.8511 0.737091 0
M  V30 1460 H 141.46 -4.17121 -0.19991 0
M  V30 1461 N 141.898 -0.863906 -1.31812 0
M  V30 1462 C 142.861 -0.320212 -2.26952 0
M  V30 1463 C 143.861 0.525369 -1.51975 0
M  V30 1464 O 145.051 0.335547 -1.70938 0
M  V30 1465 C 142.183 0.545919 -3.365 0
M  V30 1466 H 143.376 -1.16004 -2.76556 0
M  V30 1467 H 140.929 -0.638995 -1.42641 0
M  V30 1468 H 141.664 1.40718 -2.92179 0
M  V30 1469 H 141.449 -0.0594674 -3.92055 0
M  V30 1470 H 142.939 0.918796 -4.07367 0
M  V30 1471 N 143.376 1.44774 -0.622745 0
M  V30 1472 C 144.624 2.01721 -0.123655 0
M  V30 1473 C 144.945 1.49172 1.25589 0
M  V30 1474 O 144.215 0.691974 1.83272 0
M  V30 1475 H 142.795 0.745777 -0.0427225 0
M  V30 1476 H 145.457 1.77382 -0.807559 0
M  V30 1477 H 144.553 3.11984 -0.0849534 0
M  V30 1478 N 144.854 0.36279 1.53368 0
M  V30 1479 C 146.1 -0.228113 2.01513 0
M  V30 1480 C 146.433 -1.48648 1.2497 0
M  V30 1481 O 145.708 -1.91459 0.342616 0
M  V30 1482 C 145.991 -0.522884 3.56284 0
M  V30 1483 C 145.844 0.74892 4.43521 0
M  V30 1484 C 147.163 -1.32461 4.19693 0
M  V30 1485 H 144.282 -0.0814343 0.732487 0
M  V30 1486 H 146.924 0.48713 1.83649 0
M  V30 1487 H 145.074 -1.1322 3.71636 0
M  V30 1488 H 146.746 1.38648 4.39971 0
M  V30 1489 H 144.989 1.36986 4.11603 0
M  V30 1490 H 145.66 0.497667 5.49752 0
M  V30 1491 H 148.136 -0.809203 4.08156 0
M  V30 1492 H 147.012 -1.49961 5.28018 0
M  V30 1493 H 147.273 -2.33232 3.75573 0
M  V30 1494 N 146.332 -1.57332 0.0918853 0
M  V30 1495 C 147.56 -1.98574 -0.581048 0
M  V30 1496 C 147.975 -0.970903 -1.61923 0
M  V30 1497 O 147.332 0.0399054 -1.82456 0
M  V30 1498 C 147.383 -3.39872 -1.23164 0
M  V30 1499 O 147.104 -4.37469 -0.234989 0
M  V30 1500 C 148.605 -3.96099 -1.99049 0
M  V30 1501 H 145.825 -0.65261 -0.156018 0
M  V30 1502 H 148.369 -2.0379 0.170225 0
M  V30 1503 H 146.524 -3.35679 -1.93386 0
M  V30 1504 H 146.938 -5.19751 -0.70418 0
M  V30 1505 H 148.412 -4.97127 -2.39934 0
M  V30 1506 H 148.889 -3.3374 -2.85507 0
M  V30 1507 H 149.495 -4.03755 -1.3365 0
M  V30 1508 N 147.81 0.181792 -1.56548 0
M  V30 1509 C 149.059 0.898348 -1.8059 0
M  V30 1510 C 149.372 1.83862 -0.667379 0
M  V30 1511 O 150.578 2.59678 -0.792446 0
M  V30 1512 C 149.034 1.64791 -3.19956 0
M  V30 1513 C 148.642 0.751789 -4.41647 0
M  V30 1514 C 150.386 2.35331 -3.53298 0
M  V30 1515 C 148.293 1.50098 -5.72035 0
M  V30 1516 H 147.223 0.339194 -0.673397 0
M  V30 1517 H 149.874 0.151413 -1.82874 0
M  V30 1518 H 148.256 2.43921 -3.11959 0
M  V30 1519 H 149.43 -0.0018076 -4.608 0
M  V30 1520 H 147.745 0.156562 -4.16106 0
M  V30 1521 H 150.342 2.91958 -4.47956 0
M  V30 1522 H 150.685 3.10164 -2.77676 0
M  V30 1523 H 151.218 1.63154 -3.62803 0
M  V30 1524 H 147.957 0.795175 -6.50659 0
M  V30 1525 H 147.477 2.22817 -5.56878 0
M  V30 1526 H 149.156 2.05125 -6.13622 0
M  V30 1527 N 149.288 1.51039 0.449983 0
M  V30 1528 C 150.513 1.6715 1.22783 0
M  V30 1529 C 150.938 0.363081 1.84563 0
M  V30 1530 O 150.296 -0.675433 1.68249 0
M  V30 1531 C 150.344 2.77985 2.29689 0
M  V30 1532 O 149.448 2.40707 3.34864 0
M  V30 1533 H 148.789 0.557746 0.360299 0
M  V30 1534 H 151.319 1.97535 0.533005 0
M  V30 1535 H 151.329 3.01693 2.74673 0
M  V30 1536 H 150.004 3.72935 1.84098 0
M  V30 1537 H 148.581 2.27523 2.95445 0
M  V30 1538 N 150.766 -0.704594 1.40972 0
M  V30 1539 C 151.991 -1.49858 1.43378 0
M  V30 1540 C 152.416 -1.88061 0.038184 0
M  V30 1541 O 151.774 -1.5402 -0.956425 0
M  V30 1542 C 151.822 -2.74333 2.34038 0
M  V30 1543 O 150.926 -3.7147 1.7912 0
M  V30 1544 H 150.267 -0.45139 0.486974 0
M  V30 1545 H 152.797 -0.866832 1.8533 0
M  V30 1546 H 152.807 -3.22741 2.49604 0
M  V30 1547 H 151.482 -2.45863 3.35446 0
M  V30 1548 H 150.059 -3.30363 1.72958 0
M  V30 1549 N 152.244 -1.26651 -0.937939 0
M  V30 1550 C 153.49 -1.12553 -1.687 0
M  V30 1551 C 153.823 0.329782 -1.91379 0
M  V30 1552 O 153.098 1.24202 -1.4968 0
M  V30 1553 C 153.381 -1.89862 -3.05981 0
M  V30 1554 C 153.234 -3.43318 -2.90607 0
M  V30 1555 C 154.553 -1.69499 -4.0615 0
M  V30 1556 H 151.672 -0.410257 -0.612257 0
M  V30 1557 H 154.314 -1.55685 -1.08913 0
M  V30 1558 H 152.464 -1.53204 -3.57017 0
M  V30 1559 H 154.136 -3.89747 -2.46769 0
M  V30 1560 H 152.379 -3.70179 -2.26164 0
M  V30 1561 H 153.05 -3.92642 -3.8799 0
M  V30 1562 H 155.526 -2.01442 -3.64088 0
M  V30 1563 H 154.402 -2.26002 -5.00214 0
M  V30 1564 H 154.663 -0.640365 -4.37438 0
M  V30 1565 N 153.722 1.14298 -1.08507 0
M  V30 1566 C 154.632 2.23027 -0.727753 0
M  V30 1567 C 155.648 1.71952 0.26619 0
M  V30 1568 O 156.824 2.011 0.109882 0
M  V30 1569 C 153.889 3.46403 -0.143541 0
M  V30 1570 C 152.95 4.12413 -1.19223 0
M  V30 1571 C 152.183 5.29899 -0.635798 0
M  V30 1572 O 152.406 5.67796 0.544393 0
M  V30 1573 O 151.34 5.85717 -1.38634 0
M  V30 1574 H 155.166 2.55945 -1.63481 0
M  V30 1575 H 152.751 1.22248 -0.858817 0
M  V30 1576 H 154.633 4.21018 0.179404 0
M  V30 1577 H 153.308 3.15206 0.736659 0
M  V30 1578 H 152.215 3.39667 -1.56772 0
M  V30 1579 H 153.548 4.47718 -2.04474 0
M  V30 1580 N 155.201 0.870884 1.31352 0
M  V30 1581 C 156.148 0.325425 2.28494 0
M  V30 1582 C 157.118 -0.576615 1.5577 0
M  V30 1583 O 158.303 -0.508059 1.83911 0
M  V30 1584 C 155.443 -0.466283 3.41935 0
M  V30 1585 C 154.556 0.463378 4.29508 0
M  V30 1586 C 153.691 -0.342544 5.30094 0
M  V30 1587 C 152.73 0.583486 6.09313 0
M  V30 1588 N 151.867 -0.186244 7.01853 0
M  V30 1589 H 156.707 1.15901 2.74538 0
M  V30 1590 H 154.244 0.58294 1.35056 0
M  V30 1591 H 156.202 -0.941085 4.06447 0
M  V30 1592 H 154.832 -1.26456 2.97 0
M  V30 1593 H 153.884 1.05663 3.65431 0
M  V30 1594 H 155.196 1.1734 4.84802 0
M  V30 1595 H 154.35 -0.879816 6.00287 0
M  V30 1596 H 153.089 -1.08585 4.75458 0
M  V30 1597 H 152.094 1.13251 5.3801 0
M  V30 1598 H 153.319 1.32566 6.66035 0
M  V30 1599 H 151.265 -0.912348 6.49625 0
M  V30 1600 H 151.182 0.464422 7.54572 0
M  V30 1601 H 152.45 -0.704716 7.76308 0
M  V30 1602 N 156.679 -1.44442 0.630414 0
M  V30 1603 C 157.626 -2.30678 -0.0749355 0
M  V30 1604 C 158.596 -1.4344 -0.837502 0
M  V30 1605 O 159.781 -1.72343 -0.818684 0
M  V30 1606 C 156.921 -3.28706 -1.05103 0
M  V30 1607 C 156.034 -4.31046 -0.286954 0
M  V30 1608 C 155.169 -5.16167 -1.2548 0
M  V30 1609 C 154.208 -6.10216 -0.479843 0
M  V30 1610 N 153.345 -6.88039 -1.39811 0
M  V30 1611 H 158.185 -2.90454 0.666386 0
M  V30 1612 H 155.722 -1.43107 0.340404 0
M  V30 1613 H 157.68 -3.84027 -1.63031 0
M  V30 1614 H 156.31 -2.70632 -1.75949 0
M  V30 1615 H 155.362 -3.78203 0.408243 0
M  V30 1616 H 156.674 -4.97794 0.316657 0
M  V30 1617 H 155.828 -5.76002 -1.90544 0
M  V30 1618 H 154.567 -4.49491 -1.89233 0
M  V30 1619 H 153.572 -5.49491 0.184295 0
M  V30 1620 H 154.797 -6.78928 0.152965 0
M  V30 1621 H 152.743 -6.24032 -2.02287 0
M  V30 1622 H 152.66 -7.51223 -0.848508 0
M  V30 1623 H 153.928 -7.52397 -2.03762 0
M  V30 1624 N 158.157 -0.370918 -1.53173 0
M  V30 1625 C 159.087 0.464847 -2.28826 0
M  V30 1626 C 160.068 1.07936 -1.31468 0
M  V30 1627 O 161.253 1.0956 -1.60344 0
M  V30 1628 C 158.383 1.60196 -3.08147 0
M  V30 1629 C 157.337 1.11443 -4.13237 0
M  V30 1630 C 156.663 2.3422 -4.80672 0
M  V30 1631 C 157.963 0.195384 -5.21934 0
M  V30 1632 H 159.657 -0.166329 -2.98938 0
M  V30 1633 H 157.203 -0.0814359 -1.4377 0
M  V30 1634 H 159.156 2.19332 -3.59822 0
M  V30 1635 H 157.88 2.26045 -2.35735 0
M  V30 1636 H 156.539 0.545727 -3.62515 0
M  V30 1637 H 156.187 2.98537 -4.04827 0
M  V30 1638 H 155.887 2.02269 -5.51689 0
M  V30 1639 H 157.411 2.94032 -5.35143 0
M  V30 1640 H 158.825 0.694375 -5.69079 0
M  V30 1641 H 157.222 -0.0335027 -6.00091 0
M  V30 1642 H 158.292 -0.760961 -4.78892 0
M  V30 1643 N 159.635 1.57281 -0.100228 0
M  V30 1644 C 160.568 2.09976 0.893612 0
M  V30 1645 C 161.546 1.01155 1.27304 0
M  V30 1646 O 162.73 1.28687 1.37739 0
M  V30 1647 C 159.857 2.58098 2.19324 0
M  V30 1648 C 158.903 3.78626 1.96328 0
M  V30 1649 S 159.736 5.21959 1.19662 0
M  V30 1650 C 160.892 5.73435 2.50844 0
M  V30 1651 H 161.125 2.93946 0.44534 0
M  V30 1652 H 158.658 1.53985 0.113167 0
M  V30 1653 H 160.616 2.8648 2.94005 0
M  V30 1654 H 159.277 1.74344 2.61272 0
M  V30 1655 H 158.47 4.10382 2.92579 0
M  V30 1656 H 158.072 3.50763 1.29775 0
M  V30 1657 H 160.364 5.82015 3.46792 0
M  V30 1658 H 161.307 6.7185 2.23659 0
M  V30 1659 H 161.715 5.01395 2.59352 0
M  V30 1660 N 161.113 -0.173488 1.56642 0
M  V30 1661 C 162.076 -1.19859 1.95362 0
M  V30 1662 C 163.076 -1.37296 0.83704 0
M  V30 1663 O 164.266 -1.34739 1.10413 0
M  V30 1664 C 161.398 -2.56405 2.24654 0
M  V30 1665 H 162.591 -0.867062 2.87092 0
M  V30 1666 H 160.144 -0.415853 1.50666 0
M  V30 1667 H 160.879 -2.94576 1.35631 0
M  V30 1668 H 160.664 -2.45115 3.06041 0
M  V30 1669 H 162.154 -3.30287 2.5554 0
M  V30 1670 N 162.591 -1.51276 -0.441967 0
M  V30 1671 C 163.838 -1.63715 -1.19179 0
M  V30 1672 C 164.166 -0.351175 -1.91303 0
M  V30 1673 O 163.421 0.664524 -1.84072 0
M  V30 1674 C 163.72 -2.78746 -2.23686 0
M  V30 1675 C 163.386 -4.18189 -1.68607 0
M  V30 1676 C 162.048 -4.56125 -1.53308 0
M  V30 1677 C 164.4 -5.05222 -1.28062 0
M  V30 1678 C 161.728 -5.78804 -0.959317 0
M  V30 1679 C 164.08 -6.28476 -0.721162 0
M  V30 1680 C 162.744 -6.65188 -0.55504 0
M  V30 1681 H 162.014 -0.599076 -0.436106 0
M  V30 1682 H 164.661 -1.85296 -0.48351 0
M  V30 1683 H 162.966 -2.51369 -3.00535 0
M  V30 1684 H 164.663 -2.8557 -2.81515 0
M  V30 1685 H 161.253 -3.88277 -1.8149 0
M  V30 1686 H 165.437 -4.76524 -1.38704 0
M  V30 1687 H 160.693 -6.05899 -0.81833 0
M  V30 1688 H 164.867 -6.95259 -0.398458 0
M  V30 1689 H 162.494 -7.60123 -0.108311 0
M  V30 1690 N 164.069 0.697108 -1.41344 0
M  V30 1691 C 165.001 1.8224 -1.39001 0
M  V30 1692 C 166.014 1.60152 -0.292428 0
M  V30 1693 O 167.203 1.69684 -0.554048 0
M  V30 1694 C 164.303 3.18976 -1.14489 0
M  V30 1695 C 163.476 3.68105 -2.36258 0
M  V30 1696 C 162.535 4.83506 -2.07625 0
M  V30 1697 O 161.561 4.95201 -2.8065 0
M  V30 1698 N 162.763 5.70637 -1.06555 0
M  V30 1699 H 165.528 1.84742 -2.35988 0
M  V30 1700 H 163.089 0.87937 -1.35936 0
M  V30 1701 H 165.081 3.93801 -0.932885 0
M  V30 1702 H 163.651 3.11508 -0.261043 0
M  V30 1703 H 162.871 2.84204 -2.7317 0
M  V30 1704 H 164.159 3.97667 -3.17393 0
M  V30 1705 H 163.557 5.63817 -0.461125 0
M  V30 1706 H 162.114 6.45368 -0.913444 0
M  V30 1707 N 165.547 1.27147 0.931209 0
M  V30 1708 C 166.958 1.12044 1.49342 0
M  V30 1709 C 167.309 -0.295795 1.93957 0
M  V30 1710 O 166.434 -1.18835 1.80852 0
M  V30 1711 C 167.029 2.02781 2.71414 0
M  V30 1712 C 165.588 1.91794 3.2387 0
M  V30 1713 C 164.735 1.95543 1.96617 0
M  V30 1714 H 167.686 1.40091 0.745672 0
M  V30 1715 H 167.707 1.58156 3.46074 0
M  V30 1716 H 167.219 3.05848 2.38911 0
M  V30 1717 H 165.32 0.916992 3.6114 0
M  V30 1718 H 165.433 2.77852 3.90302 0
M  V30 1719 H 163.797 1.39722 2.12955 0
M  V30 1720 H 164.58 3.00259 1.66432 0
M  V30 1721 N 167.025 -1.13721 1.09112 0
M  V30 1722 C 167.988 -2.17222 0.731241 0
M  V30 1723 C 168.988 -1.59035 -0.237566 0
M  V30 1724 O 170.178 -1.74192 -0.0161704 0
M  V30 1725 C 167.31 -3.40804 0.0808443 0
M  V30 1726 H 168.503 -2.50573 1.64783 0
M  V30 1727 H 166.056 -1.28493 0.889897 0
M  V30 1728 H 166.791 -3.1304 -0.847127 0
M  V30 1729 H 166.576 -3.84306 0.777896 0
M  V30 1730 H 168.066 -4.1731 -0.155657 0
M  V30 1731 N 168.503 -0.877838 -1.30888 0
M  V30 1732 C 169.914 -0.544193 -1.78593 0
M  V30 1733 C 170.265 0.939301 -1.72254 0
M  V30 1734 O 169.39 1.7337 -1.29505 0
M  V30 1735 C 169.985 -0.98105 -3.24285 0
M  V30 1736 C 168.544 -0.698935 -3.69854 0
M  V30 1737 C 167.691 -1.168 -2.51502 0
M  V30 1738 H 170.642 -1.06278 -1.17859 0
M  V30 1739 H 170.663 -0.307009 -3.79259 0
M  V30 1740 H 170.175 -2.06079 -3.28866 0
M  V30 1741 H 168.276 0.369112 -3.70767 0
M  V30 1742 H 168.389 -1.28148 -4.61644 0
M  V30 1743 H 166.753 -0.587535 -2.47831 0
M  V30 1744 H 167.536 -2.25533 -2.58824 0
M  V30 1745 N 169.982 1.44106 -0.638065 0
M  V30 1746 C 170.929 2.30715 0.062701 0
M  V30 1747 C 171.899 1.43882 0.829883 0
M  V30 1748 O 173.084 1.72775 0.809532 0
M  V30 1749 C 170.224 3.29258 1.03358 0
M  V30 1750 C 169.337 4.31192 0.26409 0
M  V30 1751 C 168.472 5.16825 1.22741 0
M  V30 1752 C 167.511 6.10462 0.447475 0
M  V30 1753 N 166.648 6.8877 1.36161 0
M  V30 1754 H 171.488 2.90096 -0.681781 0
M  V30 1755 H 169.025 1.42925 -0.347988 0
M  V30 1756 H 170.983 3.84886 1.60992 0
M  V30 1757 H 169.613 2.71562 1.74511 0
M  V30 1758 H 168.665 3.77981 -0.428295 0
M  V30 1759 H 169.977 4.97619 -0.343052 0
M  V30 1760 H 169.131 5.77004 1.87487 0
M  V30 1761 H 167.87 4.50488 1.86847 0
M  V30 1762 H 166.875 5.49386 -0.213433 0
M  V30 1763 H 168.1 6.78837 -0.188968 0
M  V30 1764 H 166.046 6.25096 1.98975 0
M  V30 1765 H 165.963 7.51663 0.808656 0
M  V30 1766 H 167.231 7.53467 1.99769 0
M  V30 1767 N 171.46 0.379036 1.52974 0
M  V30 1768 C 172.706 -0.206727 2.01744 0
M  V30 1769 C 173.039 -1.47314 1.26539 0
M  V30 1770 O 172.314 -1.91084 0.362903 0
M  V30 1771 C 172.597 -0.485066 3.56818 0
M  V30 1772 C 172.45 0.795919 4.42702 0
M  V30 1773 C 173.769 -1.28003 4.21074 0
M  V30 1774 H 170.888 -0.0736607 0.73331 0
M  V30 1775 H 173.53 0.506581 1.83122 0
M  V30 1776 H 171.68 -1.09272 3.72816 0
M  V30 1777 H 173.352 1.43307 4.38476 0
M  V30 1778 H 171.595 1.41344 4.10127 0
M  V30 1779 H 172.266 0.555947 5.49193 0
M  V30 1780 H 174.742 -0.765867 4.08991 0
M  V30 1781 H 173.618 -1.44352 5.29579 0
M  V30 1782 H 173.879 -2.29236 3.78026 0
M  V30 1783 N 172.938 -1.57226 0.108567 0
M  V30 1784 C 174.187 -1.94008 -0.551703 0
M  V30 1785 C 174.5 -0.993442 -1.68494 0
M  V30 1786 O 175.706 -1.25551 -2.40726 0
M  V30 1787 C 174.162 -3.44763 -1.03279 0
M  V30 1788 C 173.77 -4.47943 0.0714193 0
M  V30 1789 C 175.514 -3.90483 -1.66503 0
M  V30 1790 C 173.421 -5.89865 -0.425779 0
M  V30 1791 H 172.351 -0.724206 -0.209863 0
M  V30 1792 H 175.002 -1.82547 0.186741 0
M  V30 1793 H 173.384 -3.51422 -1.82533 0
M  V30 1794 H 174.558 -4.52942 0.847365 0
M  V30 1795 H 172.873 -4.11913 0.609669 0
M  V30 1796 H 175.47 -4.93925 -2.04798 0
M  V30 1797 H 175.813 -3.29877 -2.53942 0
M  V30 1798 H 176.346 -3.86581 -0.938074 0
M  V30 1799 H 173.085 -6.54202 0.412316 0
M  V30 1800 H 172.605 -5.88309 -1.16843 0
M  V30 1801 H 174.284 -6.40844 -0.890397 0
M  V30 1802 N 174.416 0.165178 -1.56732 0
M  V30 1803 C 175.832 0.517174 -1.50988 0
M  V30 1804 C 176.032 1.84331 -0.813894 0
M  V30 1805 O 175.088 2.49672 -0.37682 0
M  V30 1806 C 176.401 0.544261 -2.95733 0
M  V30 1807 C 177.949 0.631039 -3.06573 0
M  V30 1808 C 178.424 0.68896 -4.52788 0
M  V30 1809 N 179.915 0.751683 -4.5706 0
M  V30 1810 C 180.65 0.817177 -5.67547 0
M  V30 1811 N 180.146 0.843129 -6.8765 0
M  V30 1812 N 181.939 0.856668 -5.55534 0
M  V30 1813 H 174.09 -0.704318 -2.00382 0
M  V30 1814 H 176.353 -0.254687 -0.913148 0
M  V30 1815 H 176.059 -0.361607 -3.49836 0
M  V30 1816 H 175.933 1.3886 -3.5071 0
M  V30 1817 H 178.32 1.52733 -2.52501 0
M  V30 1818 H 178.401 -0.240095 -2.54671 0
M  V30 1819 H 178.045 -0.2031 -5.07494 0
M  V30 1820 H 177.975 1.57633 -5.02454 0
M  V30 1821 H 180.466 0.739661 -3.70591 0
M  V30 1822 H 180.779 0.894448 -7.67606 0
M  V30 1823 H 179.124 0.811304 -6.90248 0
M  V30 1824 H 182.315 0.833437 -4.60621 0
M  V30 1825 H 182.488 0.904247 -6.4166 0
M  V30 1826 N 175.894 1.51508 0.433938 0
M  V30 1827 C 177.134 1.66006 1.19253 0
M  V30 1828 C 177.498 0.369868 1.88404 0
M  V30 1829 O 178.699 0.39066 2.65946 0
M  V30 1830 C 176.97 2.83229 2.17981 0
M  V30 1831 S 178.529 3.18075 3.02281 0
M  V30 1832 H 175.347 0.584821 0.404358 0
M  V30 1833 H 177.949 1.89425 0.48357 0
M  V30 1834 H 176.653 3.75407 1.65824 0
M  V30 1835 H 176.184 2.6201 2.93453 0
M  V30 1836 H 178.199 2.64772 4.19655 0
M  V30 1837 N 177.372 -0.689602 1.41712 0
M  V30 1838 C 178.305 -1.81403 1.3845 0
M  V30 1839 C 179.283 -1.60653 0.250874 0
M  V30 1840 O 180.467 -1.83323 0.43874 0
M  V30 1841 C 177.594 -3.18176 1.1611 0
M  V30 1842 C 176.64 -3.57705 2.3227 0
M  V30 1843 S 177.473 -3.61827 3.94767 0
M  V30 1844 C 178.629 -5.01318 3.74742 0
M  V30 1845 H 178.862 -1.83893 2.33603 0
M  V30 1846 H 176.395 -0.858878 1.28307 0
M  V30 1847 H 178.353 -3.97132 1.03907 0
M  V30 1848 H 177.014 -3.13288 0.225668 0
M  V30 1849 H 176.207 -4.57082 2.12349 0
M  V30 1850 H 175.809 -2.86073 2.40911 0
M  V30 1851 H 178.101 -5.88986 3.34817 0
M  V30 1852 H 179.044 -5.26283 4.73743 0
M  V30 1853 H 179.452 -4.73138 3.07898 0
M  V30 1854 N 178.85 -1.27639 -0.924453 0
M  V30 1855 C 180.078 -1.16989 -1.70649 0
M  V30 1856 C 180.493 0.272869 -1.86818 0
M  V30 1857 O 179.85 1.18549 -1.38753 0
M  V30 1858 C 179.901 -1.85229 -3.10439 0
M  V30 1859 O 179.622 -3.23868 -2.95028 0
M  V30 1860 C 181.123 -1.80746 -4.04779 0
M  V30 1861 H 178.343 -0.406595 -0.53378 0
M  V30 1862 H 180.887 -1.68569 -1.15778 0
M  V30 1863 H 179.042 -1.37545 -3.6216 0
M  V30 1864 H 179.456 -3.57889 -3.83426 0
M  V30 1865 H 180.93 -2.33101 -5.00368 0
M  V30 1866 H 181.407 -0.777499 -4.32263 0
M  V30 1867 H 182.013 -2.28059 -3.58984 0
M  V30 1868 N 180.328 1.1314 -1.09713 0
M  V30 1869 C 181.276 2.20717 -0.733934 0
M  V30 1870 C 182.27 1.6729 0.266506 0
M  V30 1871 O 183.476 1.79547 0.127656 0
M  V30 1872 H 179.851 0.719292 -0.21937 0
M  V30 1873 H 181.822 2.48611 -1.6503 0
M  V30 1874 C 180.571 3.47265 -0.173849 0
M  V30 1875 H 179.894 3.88716 -0.934873 0
M  V30 1876 H 181.334 4.23979 0.0423126 0
M  V30 1877 C 179.793 3.18724 1.09164 0
M  V30 1878 O 180.323 3.37762 2.17439 0
M  V30 1879 N 178.529 2.72583 1.00732 0
M  V30 1880 H 178.076 2.57291 0.126121 0
M  V30 1881 H 178.034 2.53862 1.85476 0
M  V30 1882 N 181.806 0.884767 1.30421 0
M  V30 1883 C 183.034 0.518044 2.0031 0
M  V30 1884 C 183.449 -0.893408 1.66324 0
M  V30 1885 O 182.806 -1.5875 0.900262 0
M  V30 1886 C 182.857 0.682997 3.54989 0
M  V30 1887 O 182.578 2.03888 3.87764 0
M  V30 1888 C 184.079 0.31924 4.42149 0
M  V30 1889 H 181.299 0.200265 0.640418 0
M  V30 1890 H 183.843 1.19001 1.6631 0
M  V30 1891 H 181.998 0.0584052 3.87356 0
M  V30 1892 H 182.412 2.05735 4.82466 0
M  V30 1893 H 183.886 0.485555 5.4986 0
M  V30 1894 H 184.363 -0.742717 4.32875 0
M  V30 1895 H 184.969 0.920147 4.15227 0
M  V30 1896 N 183.284 -1.43765 0.645699 0
M  V30 1897 C 184.695 -1.85193 0.236719 0
M  V30 1898 C 185.046 -1.54045 -1.21509 0
M  V30 1899 O 184.171 -0.985694 -1.92647 0
M  V30 1900 C 184.766 -3.36151 0.422845 0
M  V30 1901 C 183.325 -3.76338 0.0682492 0
M  V30 1902 C 182.472 -2.67538 0.729306 0
M  V30 1903 H 185.423 -1.34025 0.849883 0
M  V30 1904 H 185.444 -3.79032 -0.333904 0
M  V30 1905 H 184.956 -3.5879 1.47958 0
M  V30 1906 H 183.057 -3.59312 -0.986179 0
M  V30 1907 H 183.17 -4.76603 0.488469 0
M  V30 1908 H 181.534 -2.54176 0.163235 0
M  V30 1909 H 182.317 -2.93006 1.78892 0
M  V30 1910 N 184.763 -0.387143 -1.52771 0
M  V30 1911 C 186.009 0.196025 -2.0185 0
M  V30 1912 C 186.342 1.46641 -1.27319 0
M  V30 1913 O 185.617 1.90889 -0.373032 0
M  V30 1914 C 185.9 0.466136 -3.5707 0
M  V30 1915 C 185.753 -0.819385 -4.42274 0
M  V30 1916 C 187.072 1.25768 -4.21747 0
M  V30 1917 H 184.191 0.0697708 -0.73369 0
M  V30 1918 H 186.833 -0.516286 -1.82851 0
M  V30 1919 H 184.983 1.07293 -3.7339 0
M  V30 1920 H 186.655 -1.4563 -4.37709 0
M  V30 1921 H 184.898 -1.43517 -4.09372 0
M  V30 1922 H 185.569 -0.585065 -5.48891 0
M  V30 1923 H 188.045 0.744167 -4.09391 0
M  V30 1924 H 186.921 1.41541 -5.30337 0
M  V30 1925 H 187.182 2.27228 -3.79236 0
M  V30 1926 N 186.241 1.57166 -0.116904 0
M  V30 1927 C 187.487 1.95412 0.542405 0
M  V30 1928 C 187.82 1.00019 1.66463 0
M  V30 1929 O 187.095 0.0370346 1.94465 0
M  V30 1930 C 187.378 3.43615 1.07708 0
M  V30 1931 C 187.231 4.49781 -0.0415868 0
M  V30 1932 C 188.55 3.93616 1.96861 0
M  V30 1933 H 185.669 0.710543 0.195696 0
M  V30 1934 H 188.311 1.89027 -0.192038 0
M  V30 1935 H 186.461 3.49187 1.70296 0
M  V30 1936 H 188.133 4.56308 -0.676793 0
M  V30 1937 H 186.376 4.28033 -0.705019 0
M  V30 1938 H 187.047 5.50733 0.373717 0
M  V30 1939 H 189.523 3.90335 1.44146 0
M  V30 1940 H 188.399 4.97838 2.3119 0
M  V30 1941 H 188.66 3.34188 2.89432 0
M  V30 1942 N 187.719 -0.156864 1.56817 0
M  V30 1943 C 188.965 -0.872416 1.83076 0
M  V30 1944 C 189.298 -1.81261 0.697001 0
M  V30 1945 O 188.573 -1.92171 -0.30008 0
M  V30 1946 C 188.856 -1.65551 3.19789 0
M  V30 1947 C 188.709 -0.737467 4.43713 0
M  V30 1948 C 190.028 -2.62012 3.53606 0
M  V30 1949 H 187.147 -0.315715 0.665953 0
M  V30 1950 H 189.789 -0.138004 1.89498 0
M  V30 1951 H 187.939 -2.28159 3.14445 0
M  V30 1952 H 189.611 -0.123143 4.61136 0
M  V30 1953 H 187.854 -0.0464067 4.33775 0
M  V30 1954 H 188.525 -1.32122 5.35955 0
M  V30 1955 H 191.001 -2.09525 3.59497 0
M  V30 1956 H 189.877 -3.13861 4.50314 0
M  V30 1957 H 190.138 -3.42902 2.79053 0
M  V30 1958 N 189.197 -1.51736 -0.425897 0
M  V30 1959 C 190.129 -1.70083 -1.53638 0
M  V30 1960 C 191.142 -0.581349 -1.52066 0
M  V30 1961 O 192.331 -0.856017 -1.56635 0
M  V30 1962 C 189.431 -1.71078 -2.9255 0
M  V30 1963 C 188.604 -2.99795 -3.185 0
M  V30 1964 C 187.663 -2.92825 -4.37196 0
M  V30 1965 O 186.689 -3.66756 -4.35291 0
M  V30 1966 N 187.891 -2.0946 -5.41393 0
M  V30 1967 H 190.656 -2.65882 -1.383 0
M  V30 1968 H 188.217 -1.49765 -0.614988 0
M  V30 1969 H 190.209 -1.63969 -3.69995 0
M  V30 1970 H 188.779 -0.828242 -3.01428 0
M  V30 1971 H 187.999 -3.20684 -2.2925 0
M  V30 1972 H 189.287 -3.84977 -3.32671 0
M  V30 1973 H 188.685 -1.48792 -5.45781 0
M  V30 1974 H 187.242 -2.08221 -6.17647 0
M  V30 1975 N 190.675 0.682077 -1.42076 0
M  V30 1976 C 191.585 1.82535 -1.47371 0
M  V30 1977 C 192.601 1.7017 -0.363079 0
M  V30 1978 O 193.777 1.91848 -0.612875 0
M  V30 1979 C 190.842 3.18624 -1.36674 0
M  V30 1980 C 189.903 3.42999 -2.58167 0
M  V30 1981 C 189.136 4.72595 -2.4797 0
M  V30 1982 O 189.359 5.50006 -1.5116 0
M  V30 1983 O 188.293 4.98054 -3.37974 0
M  V30 1984 H 192.119 1.81023 -2.43853 0
M  V30 1985 H 189.704 0.836887 -1.2376 0
M  V30 1986 H 191.586 3.99847 -1.33043 0
M  V30 1987 H 190.261 3.20789 -0.433138 0
M  V30 1988 H 189.168 2.61653 -2.67373 0
M  V30 1989 H 190.501 3.45659 -3.50401 0
M  V30 1990 N 192.153 1.28127 0.917671 0
M  V30 1991 C 193.401 1.14825 1.66312 0
M  V30 1992 C 193.722 -0.304379 1.9261 0
M  V30 1993 O 192.992 -1.21149 1.53947 0
M  V30 1994 H 191.572 0.421953 0.616413 0
M  V30 1995 H 194.234 1.608 1.10134 0
M  V30 1996 H 193.33 1.68489 2.62712 0
M  V30 1997 N 193.631 -1.12557 1.10312 0
M  V30 1998 C 194.594 -2.16434 0.75424 0
M  V30 1999 C 195.594 -1.59278 -0.220685 0
M  V30 2000 O 196.784 -1.742 0.00230591 0
M  V30 2001 C 193.916 -3.40699 0.116987 0
M  V30 2002 H 195.109 -2.48811 1.67431 0
M  V30 2003 H 192.662 -1.27542 0.903475 0
M  V30 2004 H 193.397 -3.13921 -0.813877 0
M  V30 2005 H 193.182 -3.83459 0.818613 0
M  V30 2006 H 194.672 -4.17451 -0.111387 0
M  V30 2007 N 195.109 -0.891671 -1.2995 0
M  V30 2008 C 196.337 -0.52866 -2.00032 0
M  V30 2009 C 196.752 0.884574 -1.66795 0
M  V30 2010 O 196.109 1.5827 -0.908669 0
M  V30 2011 C 196.16 -0.701814 -3.54622 0
M  V30 2012 O 195.881 -2.05942 -3.86678 0
M  V30 2013 C 197.382 -0.342683 -4.41973 0
M  V30 2014 H 194.602 -0.203659 -0.639347 0
M  V30 2015 H 197.146 -1.19881 -1.65677 0
M  V30 2016 H 195.301 -0.0789468 -3.8732 0
M  V30 2017 H 195.715 -2.08291 -4.81368 0
M  V30 2018 H 197.189 -0.514709 -5.49595 0
M  V30 2019 H 197.666 0.71975 -4.33262 0
M  V30 2020 H 198.272 -0.942154 -4.14733 0
M  V30 2021 N 196.587 1.43421 -0.653314 0
M  V30 2022 C 197.833 2.02111 -0.166992 0
M  V30 2023 C 198.166 1.51423 1.21592 0
M  V30 2024 O 197.441 0.707389 1.8118 0
M  V30 2025 C 197.724 3.5966 -0.177948 0
M  V30 2026 C 197.577 4.20579 -1.59478 0
M  V30 2027 C 198.896 4.37413 0.4856 0
M  V30 2028 H 196.015 0.734374 -0.0621557 0
M  V30 2029 H 198.657 1.70717 -0.834016 0
M  V30 2030 H 196.807 3.86537 0.390032 0
M  V30 2031 H 198.479 4.04732 -2.21336 0
M  V30 2032 H 196.722 3.77226 -2.14204 0
M  V30 2033 H 197.393 5.29665 -1.5543 0
M  V30 2034 H 199.869 4.161 0.00234528 0
M  V30 2035 H 198.745 5.47075 0.447207 0
M  V30 2036 H 199.006 4.13672 1.55974 0
M  V30 2037 N 198.065 0.39524 1.52563 0
M  V30 2038 C 199.295 -0.184675 2.05773 0
M  V30 2039 C 199.703 -1.40571 1.26635 0
M  V30 2040 O 199.046 -1.81105 0.30769 0
M  V30 2041 C 199.108 -0.613551 3.54226 0
M  V30 2042 C 198.772 0.49484 4.54313 0
M  V30 2043 C 199.769 1.3541 5.01956 0
M  V30 2044 C 197.454 0.663565 4.97898 0
M  V30 2045 C 199.448 2.36716 5.91814 0
M  V30 2046 C 197.135 1.67996 5.87555 0
M  V30 2047 C 198.133 2.53017 6.34406 0
M  V30 2048 O 197.821 3.52917 7.22291 0
M  V30 2049 H 197.553 -0.030077 0.675331 0
M  V30 2050 H 200.107 0.560708 1.97599 0
M  V30 2051 H 198.337 -1.411 3.60038 0
M  V30 2052 H 200.026 -1.11981 3.90148 0
M  V30 2053 H 200.792 1.23509 4.6901 0
M  V30 2054 H 196.671 0.0114913 4.60999 0
M  V30 2055 H 200.215 3.03113 6.28306 0
M  V30 2056 H 196.112 1.79933 6.19915 0
M  V30 2057 H 196.88 3.48996 7.40367 0
M  V30 2058 N 199.544 -1.57102 0.125237 0
M  V30 2059 C 200.507 -2.14471 -0.80838 0
M  V30 2060 C 201.507 -1.0811 -1.19033 0
M  V30 2061 O 202.697 -1.33856 -1.11482 0
M  V30 2062 C 199.829 -2.69005 -2.09402 0
M  V30 2063 H 201.022 -2.98297 -0.309696 0
M  V30 2064 H 198.575 -1.55807 -0.124051 0
M  V30 2065 H 199.31 -1.88785 -2.63687 0
M  V30 2066 H 199.095 -3.46799 -1.82957 0
M  V30 2067 H 200.585 -3.13278 -2.76128 0
M  V30 2068 N 201.022 0.148545 -1.56898 0
M  V30 2069 C 202.25 0.876389 -1.87422 0
M  V30 2070 C 202.665 1.74809 -0.713256 0
M  V30 2071 O 202.022 1.79725 0.317025 0
M  V30 2072 C 202.073 1.73438 -3.17178 0
M  V30 2073 O 201.794 0.897809 -4.28802 0
M  V30 2074 C 203.295 2.56993 -3.61205 0
M  V30 2075 H 200.515 0.253489 -0.621277 0
M  V30 2076 H 203.059 0.141798 -2.04008 0
M  V30 2077 H 201.214 2.42205 -3.0235 0
M  V30 2078 H 201.628 1.48672 -5.02988 0
M  V30 2079 H 203.102 3.12773 -4.54838 0
M  V30 2080 H 203.579 3.32958 -2.86419 0
M  V30 2081 H 204.185 1.9352 -3.78722 0
M  V30 2082 N 202.5 1.5196 0.417844 0
M  V30 2083 C 203.748 1.65263 1.16329 0
M  V30 2084 C 204.069 0.380634 1.91249 0
M  V30 2085 O 203.339 -0.604214 1.86349 0
M  V30 2086 H 201.919 0.60912 0.432414 0
M  V30 2087 H 204.581 1.88969 0.477162 0
M  V30 2088 H 203.677 2.4896 1.88217 0
M  V30 2089 N 203.978 -0.674533 1.42435 0
M  V30 2090 C 205.206 -1.46283 1.46317 0
M  V30 2091 C 205.621 -1.88653 0.0745836 0
M  V30 2092 O 204.978 -1.58151 -0.91074 0
M  V30 2093 C 205.029 -2.71178 2.3905 0
M  V30 2094 O 204.75 -2.30586 3.72507 0
M  V30 2095 C 206.251 -3.64738 2.51955 0
M  V30 2096 H 203.471 -0.450104 0.497642 0
M  V30 2097 H 206.015 -0.828792 1.86953 0
M  V30 2098 H 204.17 -3.3077 2.01667 0
M  V30 2099 H 204.584 -3.11241 4.22172 0
M  V30 2100 H 206.058 -4.49096 3.20962 0
M  V30 2101 H 206.535 -4.10656 1.55752 0
M  V30 2102 H 207.141 -3.11038 2.90061 0
M  V30 2103 N 205.456 -1.28612 -0.910864 0
M  V30 2104 C 206.406 -1.09423 -2.00026 0
M  V30 2105 C 207.39 -0.0170079 -1.60891 0
M  V30 2106 O 208.582 -0.237472 -1.754 0
M  V30 2107 C 205.711 -0.76114 -3.34756 0
M  V30 2108 C 204.797 -1.87735 -3.80285 0
M  V30 2109 N 205.188 -3.11938 -3.98156 0
M  V30 2110 C 203.486 -1.76786 -4.09467 0
M  V30 2111 C 204.187 -3.84687 -4.36338 0
M  V30 2112 N 203.163 -3.12555 -4.44759 0
M  V30 2113 H 206.965 -2.03658 -2.11898 0
M  V30 2114 H 204.479 -1.19573 -1.09891 0
M  V30 2115 H 206.476 -0.604743 -4.12491 0
M  V30 2116 H 205.136 0.173403 -3.24237 0
M  V30 2117 H 206.147 -3.47516 -3.83996 0
M  V30 2118 H 202.824 -0.905284 -4.07567 0
M  V30 2119 H 204.214 -4.91518 -4.58104 0
M  V30 2120 N 206.934 1.1197 -1.10907 0
M  V30 2121 C 207.897 2.16031 -0.765707 0
M  V30 2122 C 208.897 1.59393 0.212235 0
M  V30 2123 O 210.087 1.74196 -0.0115441 0
M  V30 2124 C 207.219 3.40632 -0.135053 0
M  V30 2125 H 208.412 2.47919 -1.68748 0
M  V30 2126 H 205.965 1.27061 -0.910226 0
M  V30 2127 H 206.7 3.14348 0.797218 0
M  V30 2128 H 206.485 3.8302 -0.838937 0
M  V30 2129 H 207.975 4.17505 0.0892469 0
M  V30 2130 N 208.412 0.89855 1.29475 0
M  V30 2131 C 209.342 0.39201 2.30186 0
M  V30 2132 C 210.323 -0.532359 1.61555 0
M  V30 2133 O 211.508 -0.443331 1.89072 0
M  V30 2134 C 208.638 -0.382353 3.45189 0
M  V30 2135 C 207.592 0.451483 4.25612 0
M  V30 2136 C 206.918 -0.450307 5.328 0
M  V30 2137 C 208.218 1.70079 4.93832 0
M  V30 2138 H 209.912 1.23362 2.72804 0
M  V30 2139 H 207.458 0.594638 1.31149 0
M  V30 2140 H 209.411 -0.747451 4.14718 0
M  V30 2141 H 208.135 -1.25774 3.01411 0
M  V30 2142 H 206.794 0.798897 3.57789 0
M  V30 2143 H 206.442 -1.32379 4.85268 0
M  V30 2144 H 206.142 0.103902 5.87508 0
M  V30 2145 H 207.666 -0.811623 6.05182 0
M  V30 2146 H 209.08 1.40549 5.55805 0
M  V30 2147 H 207.477 2.19623 5.58467 0
M  V30 2148 H 208.547 2.43744 4.19186 0
M  V30 2149 N 209.89 -1.43072 0.660911 0
M  V30 2150 C 211.136 -2.0202 0.177708 0
M  V30 2151 C 211.469 -1.52066 -1.20787 0
M  V30 2152 O 210.744 -0.716987 -1.80802 0
M  V30 2153 C 211.027 -3.59561 0.197019 0
M  V30 2154 C 210.88 -4.19727 1.61706 0
M  V30 2155 C 212.199 -4.37664 -0.462396 0
M  V30 2156 H 209.318 -0.734034 0.0660494 0
M  V30 2157 H 211.96 -1.70272 0.843058 0
M  V30 2158 H 210.11 -3.86739 -0.369527 0
M  V30 2159 H 211.782 -4.03553 2.23479 0
M  V30 2160 H 210.025 -3.76084 2.16201 0
M  V30 2161 H 210.696 -5.28834 1.58237 0
M  V30 2162 H 213.172 -4.16095 0.0197215 0
M  V30 2163 H 212.048 -5.47305 -0.418188 0
M  V30 2164 H 212.309 -4.14493 -1.53778 0
M  V30 2165 N 211.368 -0.403325 -1.52352 0
M  V30 2166 C 212.278 0.432009 -2.30588 0
M  V30 2167 C 213.294 1.05884 -1.38075 0
M  V30 2168 O 214.47 1.06161 -1.71148 0
M  V30 2169 C 211.535 1.53669 -3.10784 0
M  V30 2170 C 210.596 0.933525 -4.19027 0
M  V30 2171 C 209.829 1.98557 -4.9539 0
M  V30 2172 O 210.052 3.20283 -4.71991 0
M  V30 2173 O 208.986 1.59504 -5.80381 0
M  V30 2174 H 212.812 -0.205739 -3.03002 0
M  V30 2175 H 210.397 -0.166675 -1.48467 0
M  V30 2176 H 212.279 2.17814 -3.60742 0
M  V30 2177 H 210.954 2.15915 -2.41169 0
M  V30 2178 H 209.861 0.254954 -3.7323 0
M  V30 2179 H 211.194 0.35508 -4.90918 0
M  V30 2180 N 212.846 1.57033 -0.133567 0
M  V30 2181 C 214.123 1.87256 0.56522 0
M  V30 2182 C 214.503 1.03726 1.83859 0
M  V30 2183 O 213.851 0.120247 2.28183 0
M  V30 2184 C 214.061 3.3865 0.843636 0
M  V30 2185 C 215.409 4.07574 1.19032 0
M  V30 2186 O 216.433 3.43752 0.933429 0
M  V30 2187 O 215.292 5.20259 1.67312 0
M  V30 2188 H 212.386 0.775678 0.286796 0
M  V30 2189 H 214.932 1.68855 -0.169168 0
M  V30 2190 H 213.704 3.91257 -0.0581149 0
M  V30 2191 H 213.327 3.62532 1.63268 0
M  V30 2192 N 214.325 -0.140222 1.56975 0
M  V30 2193 C 215.573 -0.850005 1.83356 0
M  V30 2194 C 215.894 -1.81399 0.71551 0
M  V30 2195 O 215.164 -1.94136 -0.262294 0
M  V30 2196 H 213.744 -0.316886 0.676456 0
M  V30 2197 H 216.406 -0.132608 1.94448 0
M  V30 2198 H 215.502 -1.40814 2.78528 0
M  V30 2199 N 215.803 -1.52179 -0.40978 0
M  V30 2200 C 216.735 -1.71703 -1.51825 0
M  V30 2201 C 217.748 -0.597445 -1.51441 0
M  V30 2202 O 218.937 -0.872582 -1.55719 0
M  V30 2203 C 216.037 -1.74171 -2.90719 0
M  V30 2204 C 215.21 -3.03156 -3.15302 0
M  V30 2205 C 214.269 -2.97445 -4.34065 0
M  V30 2206 O 213.295 -3.71352 -4.31377 0
M  V30 2207 N 214.497 -2.15191 -5.39141 0
M  V30 2208 H 217.262 -2.67334 -1.35472 0
M  V30 2209 H 214.823 -1.50409 -0.599069 0
M  V30 2210 H 216.815 -1.67884 -3.68235 0
M  V30 2211 H 215.385 -0.860166 -3.00533 0
M  V30 2212 H 214.605 -3.23097 -2.25836 0
M  V30 2213 H 215.893 -3.88484 -3.28569 0
M  V30 2214 H 215.291 -1.54573 -5.44173 0
M  V30 2215 H 213.848 -2.1476 -6.15403 0
M  V30 2216 N 217.281 0.66697 -1.42791 0
M  V30 2217 C 218.211 1.79218 -1.49677 0
M  V30 2218 C 219.192 1.66405 -0.352623 0
M  V30 2219 O 220.377 1.85708 -0.567993 0
M  V30 2220 C 217.507 3.17565 -1.40605 0
M  V30 2221 C 216.461 3.45124 -2.53127 0
M  V30 2222 C 215.787 4.83127 -2.29112 0
M  V30 2223 C 217.087 3.41236 -3.95418 0
M  V30 2224 H 218.781 1.73713 -2.43853 0
M  V30 2225 H 216.327 0.83432 -1.17367 0
M  V30 2226 H 218.28 3.96022 -1.44029 0
M  V30 2227 H 217.004 3.23767 -0.429271 0
M  V30 2228 H 215.663 2.69031 -2.49034 0
M  V30 2229 H 215.311 4.85988 -1.29709 0
M  V30 2230 H 215.011 5.02528 -3.04531 0
M  V30 2231 H 216.535 5.63859 -2.34297 0
M  V30 2232 H 217.949 4.09651 -4.01073 0
M  V30 2233 H 216.346 3.72173 -4.70752 0
M  V30 2234 H 217.416 2.39665 -4.21532 0
M  V30 2235 N 218.759 1.29093 0.90403 0
M  V30 2236 C 219.689 1.16401 2.02418 0
M  V30 2237 C 220.67 0.0593085 1.69997 0
M  V30 2238 O 221.855 0.238021 1.92736 0
M  V30 2239 C 218.985 0.835233 3.37107 0
M  V30 2240 C 217.939 1.89578 3.83724 0
M  V30 2241 C 217.265 1.42041 5.15489 0
M  V30 2242 C 218.565 3.30394 4.04521 0
M  V30 2243 H 220.259 2.10109 2.13295 0
M  V30 2244 H 217.805 1.01157 1.02486 0
M  V30 2245 H 219.758 0.733169 4.14973 0
M  V30 2246 H 218.482 -0.137543 3.2631 0
M  V30 2247 H 217.141 1.98715 3.08071 0
M  V30 2248 H 216.789 0.436426 5.01103 0
M  V30 2249 H 216.489 2.12964 5.4765 0
M  V30 2250 H 218.013 1.33176 5.959 0
M  V30 2251 H 219.427 3.24123 4.72882 0
M  V30 2252 H 217.824 3.99237 4.48029 0
M  V30 2253 H 218.894 3.73692 3.09002 0
M  V30 2254 N 220.237 -1.11381 1.11499 0
M  V30 2255 C 221.147 -2.21019 0.786628 0
M  V30 2256 C 222.163 -1.72597 -0.220507 0
M  V30 2257 O 223.339 -2.01321 -0.0565251 0
M  V30 2258 C 220.404 -3.459 0.235333 0
M  V30 2259 C 219.465 -4.09107 1.30115 0
M  V30 2260 C 218.698 -5.28027 0.776068 0
M  V30 2261 O 218.921 -5.6904 -0.393661 0
M  V30 2262 O 217.855 -5.81835 1.54114 0
M  V30 2263 H 221.681 -2.51521 1.70209 0
M  V30 2264 H 219.266 -1.19928 0.890928 0
M  V30 2265 H 221.148 -4.21346 -0.067715 0
M  V30 2266 H 219.823 -3.17049 -0.652828 0
M  V30 2267 H 218.73 -3.35391 1.65722 0
M  V30 2268 H 220.063 -4.42139 2.16273 0
M  V30 2269 N 221.715 -0.905404 -1.28997 0
M  V30 2270 C 222.647 -0.344748 -2.26592 0
M  V30 2271 C 223.66 0.512135 -1.54535 0
M  V30 2272 O 224.849 0.328368 -1.75454 0
M  V30 2273 C 221.949 0.526587 -3.34784 0
M  V30 2274 C 221.122 -0.305871 -4.36329 0
M  V30 2275 C 220.181 0.499209 -5.23827 0
M  V30 2276 O 219.207 -0.0853004 -5.69136 0
M  V30 2277 N 220.409 1.80408 -5.51755 0
M  V30 2278 H 223.174 -1.18359 -2.75338 0
M  V30 2279 H 220.735 -0.770481 -1.42391 0
M  V30 2280 H 222.727 1.07171 -3.90252 0
M  V30 2281 H 221.297 1.26613 -2.85811 0
M  V30 2282 H 220.517 -1.0324 -3.80441 0
M  V30 2283 H 221.805 -0.875773 -5.01206 0
M  V30 2284 H 221.203 2.3016 -5.16762 0
M  V30 2285 H 219.76 2.29621 -6.10014 0
M  V30 2286 N 223.193 1.4272 -0.668489 0
M  V30 2287 C 224.123 2.335 -0.000100175 0
M  V30 2288 C 225.104 1.50328 0.795964 0
M  V30 2289 O 226.289 1.78949 0.754385 0
M  V30 2290 C 223.419 3.33874 0.956302 0
M  V30 2291 C 222.373 4.27152 0.269278 0
M  V30 2292 C 221.699 5.17684 1.33818 0
M  V30 2293 C 222.999 5.15373 -0.847805 0
M  V30 2294 H 224.693 2.89639 -0.758244 0
M  V30 2295 H 222.239 1.39269 -0.366079 0
M  V30 2296 H 224.192 3.9629 1.43292 0
M  V30 2297 H 222.916 2.76025 1.74579 0
M  V30 2298 H 221.575 3.66123 -0.187042 0
M  V30 2299 H 221.223 4.56165 2.1195 0
M  V30 2300 H 220.923 5.80918 0.883659 0
M  V30 2301 H 222.447 5.82974 1.81586 0
M  V30 2302 H 223.861 5.7151 -0.452681 0
M  V30 2303 H 222.258 5.87407 -1.22773 0
M  V30 2304 H 223.328 4.5415 -1.69929 0
M  V30 2305 N 224.671 0.411399 1.52136 0
M  V30 2306 C 225.604 -0.457614 2.23565 0
M  V30 2307 C 226.582 -1.04613 1.24478 0
M  V30 2308 O 227.766 -1.09356 1.53536 0
M  V30 2309 C 224.893 -1.6354 2.96602 0
M  V30 2310 C 223.939 -1.17005 4.10137 0
M  V30 2311 S 224.772 -0.13333 5.35334 0
M  V30 2312 C 225.928 -1.31638 6.119 0
M  V30 2313 H 226.161 0.148883 2.96927 0
M  V30 2314 H 223.694 0.195713 1.53155 0
M  V30 2315 H 225.652 -2.31074 3.39286 0
M  V30 2316 H 224.313 -2.21324 2.22878 0
M  V30 2317 H 223.506 -2.05005 4.60422 0
M  V30 2318 H 223.108 -0.573319 3.6958 0
M  V30 2319 H 225.4 -2.23957 6.39413 0
M  V30 2320 H 226.343 -0.854014 7.02931 0
M  V30 2321 H 226.751 -1.54321 5.42997 0
M  V30 2322 N 226.149 -1.5696 0.141893 0
M  V30 2323 C 227.374 -2.00754 -0.520838 0
M  V30 2324 C 227.799 -1.0213 -1.57959 0
M  V30 2325 O 227.157 0.00371324 -1.813 0
M  V30 2326 C 227.205 -3.43318 -1.10294 0
M  V30 2327 O 226.309 -3.47679 -2.21795 0
M  V30 2328 H 225.65 -0.651564 -0.127908 0
M  V30 2329 H 228.18 -2.03221 0.23712 0
M  V30 2330 H 228.19 -3.82012 -1.43287 0
M  V30 2331 H 226.865 -4.14608 -0.327574 0
M  V30 2332 H 225.442 -3.20824 -1.9007 0
M  V30 2333 N 227.627 0.131896 -1.57047 0
M  V30 2334 C 228.852 0.860418 -1.8871 0
M  V30 2335 C 229.277 1.73251 -0.73251 0
M  V30 2336 O 228.635 1.785 0.317429 0
M  V30 2337 C 228.683 1.68047 -3.19049 0
M  V30 2338 O 227.787 2.7862 -3.04047 0
M  V30 2339 H 227.128 0.238743 -0.619595 0
M  V30 2340 H 229.658 0.118169 -2.04258 0
M  V30 2341 H 229.668 2.07238 -3.51449 0
M  V30 2342 H 228.343 1.04018 -4.02682 0
M  V30 2343 H 226.92 2.42726 -2.83088 0
M  V30 2344 N 229.106 1.52395 0.401703 0
M  V30 2345 C 230.352 1.67065 1.14966 0
M  V30 2346 C 230.685 0.403052 1.89971 0
M  V30 2347 O 229.96 -0.598774 1.85054 0
M  V30 2348 C 230.243 2.8975 2.13815 0
M  V30 2349 C 230.096 4.26578 1.42658 0
M  V30 2350 C 231.415 3.07965 3.14397 0
M  V30 2351 H 228.534 0.607968 0.416587 0
M  V30 2352 H 231.176 1.84965 0.434511 0
M  V30 2353 H 229.326 2.74619 2.74803 0
M  V30 2354 H 230.998 4.53451 0.847329 0
M  V30 2355 H 229.241 4.27639 0.72849 0
M  V30 2356 H 229.912 5.08483 2.14823 0
M  V30 2357 H 232.388 3.22043 2.63491 0
M  V30 2358 H 231.264 3.95308 3.80819 0
M  V30 2359 H 231.525 2.21611 3.82545 0
M  V30 2360 N 230.584 -0.659388 1.43143 0
M  V30 2361 C 231.832 -1.41654 1.44147 0
M  V30 2362 C 232.153 -1.94893 0.0645739 0
M  V30 2363 O 231.423 -1.74044 -0.899198 0
M  V30 2364 H 230.003 -0.525708 0.530697 0
M  V30 2365 H 232.665 -0.778097 1.78694 0
M  V30 2366 H 231.761 -2.26195 2.1504 0
M  V30 2367 N 232.062 -1.29571 -0.897171 0
M  V30 2368 C 233.309 -1.17689 -1.6479 0
M  V30 2369 C 233.637 0.27107 -1.92602 0
M  V30 2370 O 232.892 1.21193 -1.53658 0
M  V30 2371 C 233.191 -1.9382 -3.00281 0
M  V30 2372 C 232.857 -3.43522 -2.92068 0
M  V30 2373 C 231.519 -3.84348 -2.89535 0
M  V30 2374 C 233.871 -4.38906 -2.81089 0
M  V30 2375 C 231.199 -5.18869 -2.73846 0
M  V30 2376 C 233.551 -5.73521 -2.66939 0
M  V30 2377 C 232.215 -6.13601 -2.62774 0
M  V30 2378 H 231.485 -0.430654 -0.603008 0
M  V30 2379 H 234.132 -1.60536 -1.04404 0
M  V30 2380 H 232.437 -1.4357 -3.64547 0
M  V30 2381 H 234.134 -1.82028 -3.57305 0
M  V30 2382 H 230.724 -3.11072 -2.94842 0
M  V30 2383 H 234.908 -4.08315 -2.82121 0
M  V30 2384 H 230.164 -5.4903 -2.69027 0
M  V30 2385 H 234.338 -6.47078 -2.57416 0
M  V30 2386 H 231.965 -7.17786 -2.50375 0
M  V30 2387 N 233.54 1.10788 -1.12088 0
M  V30 2388 C 234.78 1.84297 -0.883974 0
M  V30 2389 C 235.144 1.83036 0.579797 0
M  V30 2390 O 236.345 2.52061 0.933734 0
M  V30 2391 C 234.616 3.27173 -1.43849 0
M  V30 2392 S 236.175 4.17853 -1.33957 0
M  V30 2393 H 232.993 0.635433 -0.318977 0
M  V30 2394 H 235.595 1.33341 -1.4297 0
M  V30 2395 H 234.299 3.25658 -2.49749 0
M  V30 2396 H 233.83 3.83198 -0.890096 0
M  V30 2397 H 235.845 4.95239 -0.308603 0
M  V30 2398 N 235.018 0.912232 1.28515 0
M  V30 2399 C 236.246 0.560416 1.99166 0
M  V30 2400 C 236.661 -0.857927 1.68182 0
M  V30 2401 O 236.018 -1.56805 0.933733 0
M  V30 2402 C 236.069 0.758142 3.53461 0
M  V30 2403 O 235.79 2.12067 3.83352 0
M  V30 2404 C 237.291 0.412954 4.41372 0
M  V30 2405 H 234.511 0.213805 0.636026 0
M  V30 2406 H 237.055 1.22502 1.63749 0
M  V30 2407 H 235.21 0.140556 3.87145 0
M  V30 2408 H 235.624 2.15923 4.77993 0
M  V30 2409 H 237.098 0.60208 5.48707 0
M  V30 2410 H 237.575 -0.65073 4.34353 0
M  V30 2411 H 238.181 1.00802 4.13182 0
M  V30 2412 N 236.496 -1.42363 0.676048 0
M  V30 2413 C 237.406 -2.346 -0.00153389 0
M  V30 2414 C 238.422 -1.5516 -0.787485 0
M  V30 2415 O 239.598 -1.87723 -0.729521 0
M  V30 2416 C 236.663 -3.33705 -0.940298 0
M  V30 2417 C 235.724 -4.29042 -0.148739 0
M  V30 2418 C 234.957 -5.23413 -1.04279 0
M  V30 2419 O 235.18 -5.22749 -2.28232 0
M  V30 2420 O 234.114 -5.99795 -0.502925 0
M  V30 2421 H 237.94 -2.94082 0.758268 0
M  V30 2422 H 235.525 -1.42888 0.436289 0
M  V30 2423 H 237.407 -3.94586 -1.47917 0
M  V30 2424 H 236.082 -2.76695 -1.67993 0
M  V30 2425 H 234.989 -3.71571 0.43427 0
M  V30 2426 H 236.322 -4.89097 0.551805 0
M  V30 2427 N 237.974 -0.419461 -1.51915 0
M  V30 2428 C 239.22 0.153166 -2.02221 0
M  V30 2429 C 239.553 1.43907 -1.30401 0
M  V30 2430 O 238.828 1.90055 -0.413438 0
M  V30 2431 C 239.111 0.390291 -3.57979 0
M  V30 2432 C 238.964 -0.913014 -4.40436 0
M  V30 2433 C 240.283 1.16794 -4.2432 0
M  V30 2434 H 237.402 0.0541924 -0.735005 0
M  V30 2435 H 240.044 -0.554955 -1.81715 0
M  V30 2436 H 238.194 0.993491 -3.75582 0
M  V30 2437 H 239.866 -1.54882 -4.34522 0
M  V30 2438 H 238.109 -1.52168 -4.06236 0
M  V30 2439 H 238.78 -0.701361 -5.47526 0
M  V30 2440 H 241.256 0.657161 -4.10878 0
M  V30 2441 H 240.132 1.3026 -5.3322 0
M  V30 2442 H 240.393 2.19132 -3.83971 0
M  V30 2443 N 239.452 1.56882 -0.150215 0
M  V30 2444 C 240.362 2.20494 0.801222 0
M  V30 2445 C 241.378 1.19019 1.26927 0
M  V30 2446 O 242.554 1.51607 1.32579 0
M  V30 2447 C 239.619 2.81659 2.02161 0
M  V30 2448 C 238.68 3.9827 1.60249 0
M  V30 2449 C 237.913 4.56508 2.7647 0
M  V30 2450 O 238.136 4.13627 3.92771 0
M  V30 2451 O 237.07 5.46719 2.51757 0
M  V30 2452 H 240.896 3.02315 0.289717 0
M  V30 2453 H 238.481 1.49202 0.0769684 0
M  V30 2454 H 240.363 3.20522 2.73576 0
M  V30 2455 H 239.038 2.02849 2.52258 0
M  V30 2456 H 237.945 3.64117 0.858477 0
M  V30 2457 H 239.278 4.78609 1.14864 0
M  V30 2458 N 240.93 -0.123565 1.57115 0
M  V30 2459 C 241.84 -1.17074 2.033 0
M  V30 2460 C 242.856 -1.4561 0.952559 0
M  V30 2461 O 244.032 -1.56817 1.26374 0
M  V30 2462 C 241.097 -2.47857 2.42421 0
M  V30 2463 C 240.158 -2.26758 3.64526 0
M  V30 2464 C 239.391 -3.51305 4.01771 0
M  V30 2465 O 239.614 -4.5843 3.39409 0
M  V30 2466 O 238.548 -3.42578 4.94898 0
M  V30 2467 H 242.374 -0.808555 2.92739 0
M  V30 2468 H 239.959 -0.334027 1.45618 0
M  V30 2469 H 241.841 -3.2492 2.68338 0
M  V30 2470 H 240.516 -2.83558 1.5613 0
M  V30 2471 H 239.423 -1.47569 3.43765 0
M  V30 2472 H 240.756 -1.95963 4.51508 0
M  V30 2473 N 242.408 -1.52605 -0.393616 0
M  V30 2474 C 243.685 -1.58001 -1.15304 0
M  V30 2475 C 244.065 -0.370385 -2.07825 0
M  V30 2476 O 243.413 0.641638 -2.19306 0
M  V30 2477 C 243.623 -2.91652 -1.91677 0
M  V30 2478 C 244.971 -3.4522 -2.47201 0
M  V30 2479 O 245.995 -2.93495 -2.01839 0
M  V30 2480 O 244.854 -4.35579 -3.3005 0
M  V30 2481 H 241.948 -0.637068 -0.527327 0
M  V30 2482 H 244.494 -1.64939 -0.399141 0
M  V30 2483 H 243.266 -3.71136 -1.23992 0
M  V30 2484 H 242.889 -2.88077 -2.74039 0
M  V30 2485 N 243.887 0.651787 -1.4349 0
M  V30 2486 C 244.817 1.77621 -1.51569 0
M  V30 2487 C 245.798 1.66022 -0.370253 0
M  V30 2488 O 246.983 1.85095 -0.587658 0
M  V30 2489 C 244.113 3.16056 -1.43966 0
M  V30 2490 C 243.067 3.4242 -2.56774 0
M  V30 2491 C 242.393 4.8067 -2.34223 0
M  V30 2492 C 243.693 3.37023 -3.99015 0
M  V30 2493 H 245.387 1.71117 -2.45681 0
M  V30 2494 H 242.933 0.821825 -1.18246 0
M  V30 2495 H 244.886 3.94472 -1.48221 0
M  V30 2496 H 243.61 3.23293 -0.463586 0
M  V30 2497 H 242.269 2.66375 -2.51873 0
M  V30 2498 H 241.917 4.84585 -1.34856 0
M  V30 2499 H 241.617 4.9927 -3.09844 0
M  V30 2500 H 243.141 5.61342 -2.40265 0
M  V30 2501 H 244.555 4.05374 -4.05395 0
M  V30 2502 H 242.952 3.67159 -4.74673 0
M  V30 2503 H 244.022 2.3518 -4.2405 0
M  V30 2504 N 245.365 1.30045 0.890287 0
M  V30 2505 C 246.614 1.17929 1.63633 0
M  V30 2506 C 246.927 -0.266204 1.9378 0
M  V30 2507 O 248.133 -0.508804 2.6669 0
M  V30 2508 C 246.589 2.06317 2.94892 0
M  V30 2509 C 246.197 3.55745 2.72305 0
M  V30 2510 C 247.941 2.0295 3.72843 0
M  V30 2511 C 245.848 4.36205 3.99348 0
M  V30 2512 H 244.778 0.437782 0.613892 0
M  V30 2513 H 247.429 1.54754 0.986075 0
M  V30 2514 H 245.811 1.6237 3.61182 0
M  V30 2515 H 246.985 4.07805 2.1455 0
M  V30 2516 H 245.3 3.6088 2.07737 0
M  V30 2517 H 247.897 2.60319 4.67053 0
M  V30 2518 H 248.24 1.0117 4.0382 0
M  V30 2519 H 248.773 2.4499 3.13408 0
M  V30 2520 H 245.512 5.38659 3.73533 0
M  V30 2521 H 245.032 3.8891 4.56628 0
M  V30 2522 H 246.711 4.47362 4.67415 0
M  V30 2523 N 246.843 -1.10192 1.12674 0
M  V30 2524 C 248.12 -1.78717 0.794965 0
M  V30 2525 C 248.5 -1.98628 -0.714853 0
M  V30 2526 O 247.848 -1.58135 -1.64941 0
M  V30 2527 C 248.058 -3.11546 1.5729 0
M  V30 2528 C 249.406 -3.86382 1.76052 0
M  V30 2529 O 250.43 -3.21274 1.53823 0
M  V30 2530 O 249.289 -5.03246 2.13087 0
M  V30 2531 H 246.383 -0.774702 0.289423 0
M  V30 2532 H 248.929 -1.16819 1.23091 0
M  V30 2533 H 247.701 -2.92489 2.59935 0
M  V30 2534 H 247.324 -3.81164 1.13137 0
M  V30 2535 N 248.321 -0.919034 -1.28029 0
M  V30 2536 C 249.284 -0.416182 -2.2539 0
M  V30 2537 C 250.284 0.460438 -1.54067 0
M  V30 2538 O 251.474 0.262744 -1.72207 0
M  V30 2539 C 248.606 0.402707 -3.38513 0
M  V30 2540 H 249.799 -1.27629 -2.71387 0
M  V30 2541 H 247.352 -0.698919 -1.39803 0
M  V30 2542 H 248.087 1.282 -2.97885 0
M  V30 2543 H 247.872 -0.225698 -3.9145 0
M  V30 2544 H 249.362 0.745191 -4.10897 0
M  V30 2545 N 249.799 1.42003 -0.683588 0
M  V30 2546 C 251.045 2.01712 -0.209825 0
M  V30 2547 C 251.378 1.53968 1.18353 0
M  V30 2548 O 250.653 0.745661 1.79639 0
M  V30 2549 C 250.936 3.59202 -0.254197 0
M  V30 2550 C 250.789 4.17102 -1.68363 0
M  V30 2551 C 252.108 4.38344 0.392709 0
M  V30 2552 H 249.227 0.732891 -0.0777189 0
M  V30 2553 H 251.869 1.68909 -0.87004 0
M  V30 2554 H 250.019 3.87278 0.307954 0
M  V30 2555 H 251.691 3.99946 -2.29871 0
M  V30 2556 H 249.934 3.72597 -2.22157 0
M  V30 2557 H 250.605 5.26249 -1.6663 0
M  V30 2558 H 253.081 4.16011 -0.0859162 0
M  V30 2559 H 251.957 5.47901 0.331063 0
M  V30 2560 H 252.218 4.16887 1.47164 0
M  V30 2561 N 251.277 0.427512 1.51691 0
M  V30 2562 C 252.505 -0.141191 2.06418 0
M  V30 2563 C 252.92 -1.37303 1.29589 0
M  V30 2564 O 252.277 -1.79059 0.352732 0
M  V30 2565 C 252.328 -0.473266 3.58389 0
M  V30 2566 O 252.049 0.709673 4.32314 0
M  V30 2567 C 253.55 -1.09371 4.29596 0
M  V30 2568 H 250.77 -0.0122747 0.670888 0
M  V30 2569 H 253.314 0.603764 1.95384 0
M  V30 2570 H 251.469 -1.16812 3.69369 0
M  V30 2571 H 251.883 0.42807 5.2275 0
M  V30 2572 H 253.357 -1.27613 5.37046 0
M  V30 2573 H 253.834 -2.072 3.87253 0
M  V30 2574 H 254.44 -0.43853 4.23033 0
M  V30 2575 N 252.755 -1.56801 0.158532 0
M  V30 2576 C 254.003 -1.96102 -0.488712 0
M  V30 2577 C 254.324 -1.04498 -1.64636 0
M  V30 2578 O 253.594 -0.108783 -1.95598 0
M  V30 2579 H 252.174 -0.724102 -0.183535 0
M  V30 2580 H 254.836 -1.93457 0.236728 0
M  V30 2581 H 253.932 -3.00097 -0.857219 0
M  V30 2582 N 254.233 0.115231 -1.57178 0
M  V30 2583 C 255.163 1.1423 -2.03651 0
M  V30 2584 C 256.144 1.42967 -0.921655 0
M  V30 2585 O 257.329 1.53343 -1.19162 0
M  V30 2586 C 254.459 2.4675 -2.44401 0
M  V30 2587 C 253.413 2.32467 -3.59365 0
M  V30 2588 C 252.739 3.69984 -3.86026 0
M  V30 2589 C 254.039 1.78203 -4.90959 0
M  V30 2590 H 255.733 0.755749 -2.89705 0
M  V30 2591 H 253.279 0.362093 -1.39373 0
M  V30 2592 H 255.232 3.18854 -2.75517 0
M  V30 2593 H 253.956 2.87302 -1.55322 0
M  V30 2594 H 252.615 1.62811 -3.28463 0
M  V30 2595 H 252.263 4.08028 -2.94147 0
M  V30 2596 H 251.963 3.61279 -4.63412 0
M  V30 2597 H 253.487 4.43587 -4.19599 0
M  V30 2598 H 254.901 2.40128 -5.20587 0
M  V30 2599 H 253.298 1.8031 -5.72371 0
M  V30 2600 H 254.368 0.739876 -4.79222 0
M  V30 2601 N 255.711 1.52812 0.385517 0
M  V30 2602 C 256.936 1.72207 1.15583 0
M  V30 2603 C 257.361 0.441034 1.82857 0
M  V30 2604 O 256.719 -0.603465 1.70962 0
M  V30 2605 C 256.767 2.87476 2.17692 0
M  V30 2606 O 255.871 2.54693 3.24354 0
M  V30 2607 H 255.212 0.572526 0.336319 0
M  V30 2608 H 257.742 1.99618 0.448744 0
M  V30 2609 H 257.752 3.13072 2.6163 0
M  V30 2610 H 256.427 3.80408 1.68115 0
M  V30 2611 H 255.004 2.3985 2.85529 0
M  V30 2612 N 257.189 -0.644168 1.43834 0
M  V30 2613 C 258.437 -1.40117 1.45642 0
M  V30 2614 C 258.758 -1.94814 0.0852413 0
M  V30 2615 O 258.028 -1.74988 -0.880688 0
M  V30 2616 H 256.608 -0.52005 0.536243 0
M  V30 2617 H 259.27 -0.7591 1.7951 0
M  V30 2618 H 258.366 -2.23902 2.17427 0
M  V30 2619 N 258.668 -1.30515 -0.883378 0
M  V30 2620 C 259.893 -1.22487 -1.67367 0
M  V30 2621 C 260.318 0.208767 -1.86938 0
M  V30 2622 O 259.676 1.15015 -1.40148 0
M  V30 2623 C 259.724 -1.96041 -3.02655 0
M  V30 2624 O 258.828 -1.28859 -3.91751 0
M  V30 2625 H 258.169 -0.423573 -0.511353 0
M  V30 2626 H 260.699 -1.72362 -1.10239 0
M  V30 2627 H 260.709 -2.05124 -3.52687 0
M  V30 2628 H 259.384 -3.00307 -2.8773 0
M  V30 2629 H 257.961 -1.28141 -3.50192 0
M  V30 2630 N 260.146 1.09593 -1.13257 0
M  V30 2631 C 261.394 1.81375 -0.891492 0
M  V30 2632 C 261.715 1.86049 0.584009 0
M  V30 2633 O 260.985 1.34481 1.42449 0
M  V30 2634 H 259.565 0.671708 -0.326828 0
M  V30 2635 H 262.227 1.3256 -1.42877 0
M  V30 2636 H 261.323 2.84612 -1.28071 0
M  V30 2637 N 261.624 0.925811 1.2754 0
M  V30 2638 C 263.035 0.610102 1.7645 0
M  V30 2639 C 263.386 -0.874723 1.75622 0
M  V30 2640 O 262.511 -1.68444 1.35851 0
M  V30 2641 C 263.106 1.10073 3.20421 0
M  V30 2642 C 261.665 0.835723 3.67005 0
M  V30 2643 C 260.812 1.26054 2.46993 0
M  V30 2644 H 263.763 1.10579 1.13833 0
M  V30 2645 H 263.784 0.447557 3.77859 0
M  V30 2646 H 263.296 2.18143 3.20991 0
M  V30 2647 H 261.397 -0.231249 3.71882 0
M  V30 2648 H 261.51 1.45193 4.56569 0
M  V30 2649 H 259.874 0.679111 2.45479 0
M  V30 2650 H 260.657 2.34984 2.50275 0
M  V30 2651 N 263.102 -1.41638 0.69111 0
M  V30 2652 C 264.065 -2.29178 0.0319786 0
M  V30 2653 C 265.065 -1.44153 -0.712496 0
M  V30 2654 O 266.255 -1.65354 -0.548053 0
M  V30 2655 C 263.387 -3.26952 -0.965161 0
M  V30 2656 H 264.58 -2.88959 0.802681 0
M  V30 2657 H 262.133 -1.4955 0.454356 0
M  V30 2658 H 262.868 -2.72142 -1.76378 0
M  V30 2659 H 262.653 -3.89685 -0.434522 0
M  V30 2660 H 264.143 -3.92561 -1.42428 0
M  V30 2661 N 264.58 -0.43555 -1.51462 0
M  V30 2662 C 265.81 0.130053 -2.0619 0
M  V30 2663 C 266.218 1.37164 -1.30317 0
M  V30 2664 O 265.561 1.80225 -0.355598 0
M  V30 2665 C 265.623 0.519418 -3.55728 0
M  V30 2666 C 265.287 -0.615119 -4.52841 0
M  V30 2667 C 266.284 -1.48671 -4.9819 0
M  V30 2668 C 263.969 -0.795341 -4.95963 0
M  V30 2669 C 265.963 -2.52324 -5.8533 0
M  V30 2670 C 263.65 -1.83514 -5.82894 0
M  V30 2671 C 264.648 -2.69748 -6.27475 0
M  V30 2672 O 264.336 -3.71944 -7.1268 0
M  V30 2673 H 264.068 0.0121612 -0.675891 0
M  V30 2674 H 266.622 -0.6129 -1.96043 0
M  V30 2675 H 264.852 1.31505 -3.63653 0
M  V30 2676 H 266.541 1.01597 -3.92979 0
M  V30 2677 H 267.307 -1.359 -4.65571 0
M  V30 2678 H 263.186 -0.133713 -4.60806 0
M  V30 2679 H 266.73 -3.19665 -6.20048 0
M  V30 2680 H 262.627 -1.96306 -6.14926 0
M  V30 2681 H 263.395 -3.68503 -7.30854 0
M  V30 2682 N 266.058 1.56714 -0.166846 0
M  V30 2683 C 267.021 2.16539 0.751232 0
M  V30 2684 C 268.021 1.11228 1.16125 0
M  V30 2685 O 269.211 1.36765 1.07894 0
M  V30 2686 C 266.343 2.74462 2.02196 0
M  V30 2687 H 267.536 2.99013 0.230499 0
M  V30 2688 H 265.089 1.56081 0.0826982 0
M  V30 2689 H 265.824 1.95709 2.58589 0
M  V30 2690 H 265.609 3.51527 1.73698 0
M  V30 2691 H 267.099 3.20489 2.67725 0
M  V30 2692 N 267.536 -0.106894 1.57237 0
M  V30 2693 C 268.783 -0.812526 1.85484 0
M  V30 2694 C 269.111 -1.79304 0.753687 0
M  V30 2695 O 268.366 -1.94047 -0.253853 0
M  V30 2696 C 268.665 -1.58628 3.20268 0
M  V30 2697 C 268.331 -0.748967 4.44636 0
M  V30 2698 C 266.993 -0.518104 4.78403 0
M  V30 2699 C 269.345 -0.166122 5.20935 0
M  V30 2700 C 266.673 0.305659 5.85903 0
M  V30 2701 C 269.025 0.644899 6.29304 0
M  V30 2702 C 267.689 0.885965 6.61594 0
M  V30 2703 H 266.959 -0.297324 0.678734 0
M  V30 2704 H 269.606 -0.0744332 1.91355 0
M  V30 2705 H 267.911 -2.39562 3.10028 0
M  V30 2706 H 269.608 -2.13643 3.39349 0
M  V30 2707 H 266.198 -0.939006 4.18187 0
M  V30 2708 H 270.382 -0.33167 4.95191 0
M  V30 2709 H 265.638 0.501528 6.0934 0
M  V30 2710 H 269.812 1.10345 6.87602 0
M  V30 2711 H 267.439 1.52609 7.44725 0
M  V30 2712 N 269.014 -1.53014 -0.377408 0
M  V30 2713 C 269.947 -1.73382 -1.48371 0
M  V30 2714 C 270.925 -0.581879 -1.51832 0
M  V30 2715 O 272.109 -0.81307 -1.70063 0
M  V30 2716 C 269.236 -1.80192 -2.8679 0
M  V30 2717 C 268.282 -3.02056 -3.01105 0
M  V30 2718 S 269.115 -4.61811 -2.71093 0
M  V30 2719 C 270.271 -4.71453 -4.11683 0
M  V30 2720 H 270.504 -2.66946 -1.30872 0
M  V30 2721 H 268.037 -1.43453 -0.571012 0
M  V30 2722 H 269.995 -1.84802 -3.6655 0
M  V30 2723 H 268.656 -0.877008 -3.01608 0
M  V30 2724 H 267.849 -3.03396 -4.02451 0
M  V30 2725 H 267.451 -2.95498 -2.29253 0
M  V30 2726 H 269.743 -4.50781 -5.0577 0
M  V30 2727 H 270.686 -5.73487 -4.15353 0
M  V30 2728 H 271.094 -4.00189 -3.98132 0
M  V30 2729 N 270.492 0.636531 -1.44174 0
M  V30 2730 C 271.455 1.73063 -1.50273 0
M  V30 2731 C 272.455 1.56113 -0.385397 0
M  V30 2732 O 273.645 1.61707 -0.64781 0
M  V30 2733 C 270.777 3.12096 -1.37145 0
M  V30 2734 H 271.97 1.69031 -2.47727 0
M  V30 2735 H 269.523 0.849706 -1.31186 0
M  V30 2736 H 270.258 3.21728 -0.407636 0
M  V30 2737 H 270.043 3.25805 -2.18159 0
M  V30 2738 H 271.533 3.91846 -1.44382 0
M  V30 2739 N 271.97 1.30982 0.876444 0
M  V30 2740 C 272.9 1.20668 1.99903 0
M  V30 2741 C 273.881 0.095354 1.69833 0
M  V30 2742 O 275.066 0.27885 1.92188 0
M  V30 2743 C 272.196 0.90655 3.3526 0
M  V30 2744 C 271.15 1.97675 3.79617 0
M  V30 2745 C 270.476 1.52943 5.1236 0
M  V30 2746 C 271.776 3.389 3.97422 0
M  V30 2747 H 273.47 2.14586 2.0879 0
M  V30 2748 H 271.016 1.03308 1.00317 0
M  V30 2749 H 272.969 0.821025 4.13324 0
M  V30 2750 H 271.693 -0.0682969 3.26529 0
M  V30 2751 H 270.352 2.05205 3.03787 0
M  V30 2752 H 270 0.54262 5.00065 0
M  V30 2753 H 269.7 2.24532 5.43009 0
M  V30 2754 H 271.224 1.45786 5.92941 0
M  V30 2755 H 272.638 3.34081 4.659 0
M  V30 2756 H 271.035 4.0865 4.3946 0
M  V30 2757 H 272.105 3.80163 3.01006 0
M  V30 2758 N 273.449 -1.08991 1.13837 0
M  V30 2759 C 274.726 -1.77863 0.813876 0
M  V30 2760 C 275.106 -1.99375 -0.693746 0
M  V30 2761 O 274.454 -1.59875 -1.63255 0
M  V30 2762 C 274.664 -3.0986 1.60586 0
M  V30 2763 C 276.012 -3.84493 1.8014 0
M  V30 2764 O 277.036 -3.19624 1.57222 0
M  V30 2765 O 275.895 -5.00957 2.18413 0
M  V30 2766 H 272.989 -0.771589 0.297624 0
M  V30 2767 H 275.535 -1.15507 1.24323 0
M  V30 2768 H 274.307 -2.89715 2.63022 0
M  V30 2769 H 273.93 -3.79942 1.17173 0
M  V30 2770 N 274.927 -0.932562 -1.27047 0
M  V30 2771 C 275.89 -0.440064 -2.24936 0
M  V30 2772 C 276.89 0.444071 -1.54547 0
M  V30 2773 O 278.08 0.244465 -1.72476 0
M  V30 2774 C 275.212 0.36678 -3.38921 0
M  V30 2775 H 276.405 -1.305 -2.70018 0
M  V30 2776 H 273.958 -0.713707 -1.39054 0
M  V30 2777 H 274.693 1.25033 -2.99228 0
M  V30 2778 H 274.478 -0.267204 -3.91188 0
M  V30 2779 H 275.968 0.701567 -4.11665 0
M  V30 2780 N 276.405 1.4127 -0.698611 0
M  V30 2781 C 277.335 2.33447 -0.049629 0
M  V30 2782 C 278.316 1.51982 0.763898 0
M  V30 2783 O 279.501 1.80509 0.716257 0
M  V30 2784 C 276.631 3.35828 0.885267 0
M  V30 2785 C 275.585 4.27627 0.178613 0
M  V30 2786 C 274.911 5.20406 1.22807 0
M  V30 2787 C 276.211 5.13459 -0.956933 0
M  V30 2788 H 277.905 2.87966 -0.81951 0
M  V30 2789 H 275.451 1.38461 -0.395538 0
M  V30 2790 H 277.404 3.9924 1.34854 0
M  V30 2791 H 276.128 2.79666 1.68685 0
M  V30 2792 H 274.787 3.65643 -0.26466 0
M  V30 2793 H 274.435 4.60558 2.02226 0
M  V30 2794 H 274.135 5.82661 0.760239 0
M  V30 2795 H 275.659 5.86695 1.69179 0
M  V30 2796 H 277.073 5.70421 -0.573805 0
M  V30 2797 H 275.47 5.8467 -1.35205 0
M  V30 2798 H 276.54 4.50443 -1.79524 0
M  V30 2799 N 277.883 0.443576 1.51229 0
M  V30 2800 C 278.846 -0.353132 2.26463 0
M  V30 2801 C 279.846 -0.944338 1.3015 0
M  V30 2802 O 281.036 -0.817813 1.5381 0
M  V30 2803 C 278.168 -1.50023 3.06114 0
M  V30 2804 H 279.361 0.3063 2.98332 0
M  V30 2805 H 276.914 0.196902 1.55055 0
M  V30 2806 H 277.649 -2.19553 2.38677 0
M  V30 2807 H 277.434 -1.08241 3.76864 0
M  V30 2808 H 278.924 -2.06296 3.63087 0
M  V30 2809 N 279.361 -1.56624 0.175154 0
M  V30 2810 C 280.638 -1.88688 -0.515373 0
M  V30 2811 C 281.018 -1.08564 -1.81044 0
M  V30 2812 O 280.366 -0.180703 -2.27784 0
M  V30 2813 C 280.576 -3.40768 -0.753552 0
M  V30 2814 C 281.924 -4.10587 -1.08184 0
M  V30 2815 O 282.948 -3.46106 -0.841961 0
M  V30 2816 O 281.807 -5.24512 -1.53459 0
M  V30 2817 H 278.901 -0.78301 -0.26613 0
M  V30 2818 H 281.447 -1.68347 0.213877 0
M  V30 2819 H 280.219 -3.90965 0.161829 0
M  V30 2820 H 279.842 -3.66733 -1.53598 0
M  V30 2821 N 280.839 0.0985539 -1.57292 0
M  V30 2822 C 282.087 0.801092 -1.85545 0
M  V30 2823 C 282.408 1.79438 -0.763353 0
M  V30 2824 O 281.678 1.94763 0.21073 0
M  V30 2825 H 280.258 0.29884 -0.684619 0
M  V30 2826 H 282.92 0.0810064 -1.94732 0
M  V30 2827 H 282.016 1.3338 -2.82163 0
M  V30 2828 N 282.317 1.53212 0.369288 0
M  V30 2829 C 283.565 1.68881 1.11012 0
M  V30 2830 C 283.886 0.441285 1.89941 0
M  V30 2831 O 283.156 -0.544623 1.88177 0
M  V30 2832 H 281.736 0.622569 0.412816 0
M  V30 2833 H 284.398 1.90391 0.416802 0
M  V30 2834 H 283.494 2.54822 1.80201 0
M  V30 2835 N 283.795 -0.628877 1.44509 0
M  V30 2836 C 285.041 -1.39045 1.47629 0
M  V30 2837 C 285.374 -1.93892 0.109343 0
M  V30 2838 O 284.649 -1.7379 -0.87334 0
M  V30 2839 C 284.932 -2.55408 2.53848 0
M  V30 2840 C 284.785 -2.05896 3.99909 0
M  V30 2841 C 286.104 -3.5759 2.56549 0
M  V30 2842 H 283.223 -0.504232 0.537512 0
M  V30 2843 H 285.865 -0.710854 1.76201 0
M  V30 2844 H 284.015 -3.13384 2.29615 0
M  V30 2845 H 285.687 -1.52734 4.35282 0
M  V30 2846 H 283.93 -1.37061 4.11578 0
M  V30 2847 H 284.601 -2.89681 4.69882 0
M  V30 2848 H 287.077 -3.09419 2.78207 0
M  V30 2849 H 285.953 -4.36527 3.32769 0
M  V30 2850 H 286.214 -4.11808 1.60832 0
M  V30 2851 N 285.273 -1.31445 -0.869486 0
M  V30 2852 C 286.22 -1.19135 -1.97675 0
M  V30 2853 C 287.19 -0.0770266 -1.65921 0
M  V30 2854 O 288.375 -0.249972 -1.89155 0
M  V30 2855 C 285.515 -0.905149 -3.33018 0
M  V30 2856 C 284.628 -2.10285 -3.77365 0
M  V30 2857 C 283.763 -1.75339 -5.01427 0
M  V30 2858 C 282.802 -2.91515 -5.38224 0
M  V30 2859 N 281.939 -2.56762 -6.53466 0
M  V30 2860 H 286.779 -2.13853 -2.07535 0
M  V30 2861 H 284.316 -1.06379 -1.01597 0
M  V30 2862 H 286.274 -0.719765 -4.10944 0
M  V30 2863 H 284.904 0.00519624 -3.228 0
M  V30 2864 H 283.956 -2.39899 -2.95216 0
M  V30 2865 H 285.268 -2.97237 -4.00564 0
M  V30 2866 H 284.422 -1.53266 -5.87022 0
M  V30 2867 H 283.161 -0.855801 -4.80133 0
M  V30 2868 H 282.166 -3.14237 -4.51149 0
M  V30 2869 H 283.391 -3.81985 -5.61484 0
M  V30 2870 H 281.337 -1.69526 -6.33717 0
M  V30 2871 H 281.254 -3.37243 -6.76612 0
M  V30 2872 H 282.522 -2.38083 -7.42251 0
M  V30 2873 N 286.751 1.08385 -1.14413 0
M  V30 2874 C 287.684 2.14642 -0.774871 0
M  V30 2875 C 288.662 1.60761 0.243876 0
M  V30 2876 O 289.846 1.88031 0.132883 0
M  V30 2877 C 286.973 3.38366 -0.150491 0
M  V30 2878 C 286.019 4.10997 -1.13945 0
M  V30 2879 S 286.852 4.63797 -2.67679 0
M  V30 2880 C 288.008 5.90808 -2.06631 0
M  V30 2881 H 288.241 2.45633 -1.67487 0
M  V30 2882 H 285.774 1.20498 -0.96538 0
M  V30 2883 H 287.732 4.09996 0.203334 0
M  V30 2884 H 286.393 3.05572 0.72694 0
M  V30 2885 H 285.586 4.99783 -0.65059 0
M  V30 2886 H 285.188 3.4528 -1.43727 0
M  V30 2887 H 287.48 6.62411 -1.4219 0
M  V30 2888 H 288.423 6.4439 -2.93542 0
M  V30 2889 H 288.831 5.4383 -1.51357 0
M  V30 2890 N 288.23 0.939286 1.26551 0
M  V30 2891 C 289.478 0.58469 1.93457 0
M  V30 2892 C 289.799 -0.878774 1.74076 0
M  V30 2893 O 289.069 -1.62421 1.09528 0
M  V30 2894 H 287.649 0.21325 0.715914 0
M  V30 2895 H 290.311 1.1942 1.54029 0
M  V30 2896 H 289.407 0.800849 3.0165 0
M  V30 2897 N 289.708 -1.40897 0.706093 0
M  V30 2898 C 290.638 -2.33418 0.0620085 0
M  V30 2899 C 291.619 -1.52385 -0.755827 0
M  V30 2900 O 292.804 -1.80886 -0.706674 0
M  V30 2901 C 289.934 -3.36293 -0.867445 0
M  V30 2902 C 288.888 -4.27716 -0.155932 0
M  V30 2903 C 288.214 -5.2105 -1.20046 0
M  V30 2904 C 289.514 -5.12944 0.984149 0
M  V30 2905 H 291.208 -2.87527 0.83477 0
M  V30 2906 H 288.754 -1.38249 0.402875 0
M  V30 2907 H 290.707 -3.99949 -1.32735 0
M  V30 2908 H 289.431 -2.80556 -1.67199 0
M  V30 2909 H 288.09 -3.65498 0.284047 0
M  V30 2910 H 287.738 -4.61624 -1.99781 0
M  V30 2911 H 287.438 -5.83056 -0.729328 0
M  V30 2912 H 288.962 -5.87584 -1.66066 0
M  V30 2913 H 290.376 -5.70109 0.604048 0
M  V30 2914 H 288.773 -5.83945 1.38304 0
M  V30 2915 H 289.843 -4.49485 1.81911 0
M  V30 2916 N 291.186 -0.45159 -1.50991 0
M  V30 2917 C 292.597 0.00818571 -1.86698 0
M  V30 2918 C 292.948 1.40661 -1.3678 0
M  V30 2919 O 292.073 2.0391 -0.724546 0
M  V30 2920 C 292.668 0.0216303 -3.38793 0
M  V30 2921 C 291.227 0.425865 -3.73983 0
M  V30 2922 C 290.374 -0.372163 -2.74791 0
M  V30 2923 H 293.325 -0.666785 -1.44013 0
M  V30 2924 H 293.346 0.828078 -3.7138 0
M  V30 2925 H 292.858 -0.996288 -3.75094 0
M  V30 2926 H 290.959 1.44886 -3.43277 0
M  V30 2927 H 291.072 0.140761 -4.78893 0
M  V30 2928 H 289.436 0.171498 -2.54122 0
M  V30 2929 H 290.219 -1.38922 -3.13935 0
M  V30 2930 N 292.664 1.56529 -0.183458 0
M  V30 2931 C 294.08 1.58664 0.172554 0
M  V30 2932 C 294.28 1.19925 1.61926 0
M  V30 2933 O 293.336 0.916534 2.35278 0
M  V30 2934 C 294.649 3.00463 -0.119262 0
M  V30 2935 C 296.197 3.12945 -0.0584396 0
M  V30 2936 C 296.672 4.56857 -0.323408 0
M  V30 2937 N 298.163 4.62403 -0.271612 0
M  V30 2938 C 298.898 5.71626 -0.450639 0
M  V30 2939 N 298.394 6.89362 -0.689384 0
M  V30 2940 N 300.187 5.60775 -0.385701 0
M  V30 2941 H 292.338 1.79994 -1.12765 0
M  V30 2942 H 294.601 0.834808 -0.449222 0
M  V30 2943 H 294.307 3.33326 -1.12192 0
M  V30 2944 H 294.181 3.72659 0.583544 0
M  V30 2945 H 296.568 2.79902 0.934805 0
M  V30 2946 H 296.649 2.4316 -0.794144 0
M  V30 2947 H 296.293 4.9061 -1.31392 0
M  V30 2948 H 296.223 5.24816 0.43305 0
M  V30 2949 H 298.714 3.77785 -0.0932256 0
M  V30 2950 H 299.027 7.68489 -0.815113 0
M  V30 2951 H 297.372 6.91196 -0.726142 0
M  V30 2952 H 300.563 4.67674 -0.199687 0
M  V30 2953 H 300.736 6.4584 -0.528646 0
M  V30 2954 N 294.142 -0.090211 1.57342 0
M  V30 2955 C 295.558 -0.444547 1.53284 0
M  V30 2956 C 295.758 -1.80238 0.900914 0
M  V30 2957 O 294.814 -2.4759 0.495513 0
M  V30 2958 C 296.127 -0.402543 2.97993 0
M  V30 2959 C 297.675 -0.48405 3.09234 0
M  V30 2960 C 298.15 -0.472144 4.5556 0
M  V30 2961 N 299.641 -0.532757 4.60126 0
M  V30 2962 C 300.376 -0.545462 5.708 0
M  V30 2963 N 299.872 -0.514082 6.9089 0
M  V30 2964 N 301.665 -0.59064 5.58988 0
M  V30 2965 H 293.816 0.799121 1.96794 0
M  V30 2966 H 296.079 0.297965 0.899956 0
M  V30 2967 H 295.785 0.528106 3.47712 0
M  V30 2968 H 295.659 -1.21969 3.56936 0
M  V30 2969 H 298.046 -1.40512 2.595 0
M  V30 2970 H 298.127 0.361328 2.53235 0
M  V30 2971 H 297.771 0.445 5.05947 0
M  V30 2972 H 297.701 -1.3348 5.09402 0
M  V30 2973 H 300.192 -0.562006 3.73698 0
M  V30 2974 H 300.505 -0.527195 7.71 0
M  V30 2975 H 298.85 -0.481054 6.93333 0
M  V30 2976 H 302.041 -0.61272 4.64073 0
M  V30 2977 H 302.214 -0.597073 6.45243 0
M  V30 2978 N 295.62 -1.53406 -0.361157 0
M  V30 2979 C 296.55 -1.83136 -1.44857 0
M  V30 2980 C 297.531 -0.685174 -1.5569 0
M  V30 2981 O 298.716 -0.93544 -1.70186 0
M  V30 2982 C 295.846 -2.02522 -2.82138 0
M  V30 2983 C 294.8 -3.18302 -2.86126 0
M  V30 2984 C 294.126 -3.22989 -4.26125 0
M  V30 2985 C 295.426 -4.56796 -2.53248 0
M  V30 2986 H 297.12 -2.74201 -1.20226 0
M  V30 2987 H 294.666 -1.31938 -0.576922 0
M  V30 2988 H 296.619 -2.21904 -3.58241 0
M  V30 2989 H 295.343 -1.08172 -3.08166 0
M  V30 2990 H 294.002 -2.98747 -2.12475 0
M  V30 2991 H 293.65 -2.26267 -4.49235 0
M  V30 2992 H 293.35 -4.00781 -4.29708 0
M  V30 2993 H 294.874 -3.44559 -5.04094 0
M  V30 2994 H 296.288 -4.7631 -3.19064 0
M  V30 2995 H 294.685 -5.36862 -2.68141 0
M  V30 2996 H 295.755 -4.61606 -1.48484 0
M  V30 2997 N 297.098 0.621204 -1.44841 0
M  V30 2998 C 298.061 1.71459 -1.521 0
M  V30 2999 C 299.061 1.55696 -0.401933 0
M  V30 3000 O 300.251 1.61011 -0.664925 0
M  V30 3001 C 297.383 3.10624 -1.40447 0
M  V30 3002 H 298.576 1.66394 -2.49506 0
M  V30 3003 H 296.129 0.835745 -1.3208 0
M  V30 3004 H 296.864 3.21277 -0.441737 0
M  V30 3005 H 296.649 3.23473 -2.21602 0
M  V30 3006 H 298.139 3.90293 -1.4853 0
M  V30 3007 N 298.576 1.31904 0.862503 0
M  V30 3008 C 299.825 1.21373 1.61094 0
M  V30 3009 C 300.138 -0.22504 1.94301 0
M  V30 3010 O 301.344 -0.452121 2.67709 0
M  V30 3011 C 299.8 2.12525 2.9045 0
M  V30 3012 C 299.408 3.61441 2.64697 0
M  V30 3013 C 301.152 2.10813 3.68454 0
M  V30 3014 C 299.059 4.44578 3.90006 0
M  V30 3015 H 297.989 0.450705 0.604468 0
M  V30 3016 H 300.64 1.56811 0.953027 0
M  V30 3017 H 299.022 1.69994 3.57656 0
M  V30 3018 H 300.196 4.12264 2.05851 0
M  V30 3019 H 298.511 3.65205 2.00036 0
M  V30 3020 H 301.108 2.70167 4.61426 0
M  V30 3021 H 301.451 1.09713 4.01583 0
M  V30 3022 H 301.984 2.51583 3.08141 0
M  V30 3023 H 298.723 5.46461 3.62023 0
M  V30 3024 H 298.243 3.98508 4.48276 0
M  V30 3025 H 299.922 4.57176 4.5782 0
M  V30 3026 N 300.054 -1.07777 1.14986 0
M  V30 3027 C 300.986 -2.14769 0.800436 0
M  V30 3028 C 301.999 -1.61739 -0.185595 0
M  V30 3029 O 303.188 -1.78462 0.0370358 0
M  V30 3030 C 300.288 -3.38481 0.168533 0
M  V30 3031 C 299.461 -4.20876 1.1909 0
M  V30 3032 C 298.52 -5.22976 0.581575 0
M  V30 3033 O 297.546 -5.55388 1.24633 0
M  V30 3034 N 298.748 -5.76976 -0.638706 0
M  V30 3035 H 301.513 -2.45348 1.72118 0
M  V30 3036 H 299.074 -1.23645 1.04515 0
M  V30 3037 H 301.066 -4.03916 -0.251764 0
M  V30 3038 H 299.636 -3.05651 -0.655467 0
M  V30 3039 H 298.856 -3.51322 1.78791 0
M  V30 3040 H 300.144 -4.7274 1.88133 0
M  V30 3041 H 299.542 -5.52886 -1.19723 0
M  V30 3042 H 298.099 -6.44061 -1.00142 0
M  V30 3043 N 301.532 -0.945985 -1.26051 0
M  V30 3044 C 302.462 -0.477172 -2.28572 0
M  V30 3045 C 303.443 0.472032 -1.63419 0
M  V30 3046 O 304.628 0.372853 -1.90587 0
M  V30 3047 C 301.758 0.253975 -3.4637 0
M  V30 3048 C 300.712 -0.609135 -4.23643 0
M  V30 3049 C 300.038 0.252252 -5.34105 0
M  V30 3050 C 301.338 -1.8829 -4.8718 0
M  V30 3051 H 303.032 -1.33402 -2.68038 0
M  V30 3052 H 300.578 -0.642904 -1.28852 0
M  V30 3053 H 302.531 0.593016 -4.17207 0
M  V30 3054 H 301.255 1.145 -3.05871 0
M  V30 3055 H 299.914 -0.931138 -3.54578 0
M  V30 3056 H 299.562 1.14278 -4.89846 0
M  V30 3057 H 299.262 -0.32188 -5.86718 0
M  V30 3058 H 300.786 0.586454 -6.07777 0
M  V30 3059 H 302.2 -1.61081 -5.50205 0
M  V30 3060 H 300.597 -2.40199 -5.49931 0
M  V30 3061 H 301.667 -2.59134 -4.09851 0
M  V30 3062 N 303.011 1.40521 -0.713556 0
M  V30 3063 C 304.259 2.00527 -0.251692 0
M  V30 3064 C 304.58 1.56857 1.15848 0
M  V30 3065 O 303.85 0.807127 1.785 0
M  V30 3066 H 302.43 0.741551 -0.0900646 0
M  V30 3067 H 305.092 1.71887 -0.918733 0
M  V30 3068 H 304.188 3.10813 -0.283192 0
M  V30 3069 N 304.489 0.459591 1.5075 0
M  V30 3070 C 305.452 -0.329093 2.26825 0
M  V30 3071 C 306.452 -0.930481 1.31144 0
M  V30 3072 O 307.642 -0.801453 1.54669 0
M  V30 3073 C 304.774 -1.46768 3.07688 0
M  V30 3074 H 305.967 0.337924 2.9799 0
M  V30 3075 H 303.52 0.213336 1.54837 0
M  V30 3076 H 304.255 -2.17009 2.40993 0
M  V30 3077 H 304.04 -1.04238 3.77991 0
M  V30 3078 H 305.53 -2.02433 3.65254 0
M  V30 3079 N 305.967 -1.56429 0.191757 0
M  V30 3080 C 306.899 -2.16154 -0.762245 0
M  V30 3081 C 307.912 -1.12247 -1.17917 0
M  V30 3082 O 309.101 -1.39353 -1.11548 0
M  V30 3083 C 306.201 -2.70606 -2.04024 0
M  V30 3084 C 305.374 -3.99381 -1.78364 0
M  V30 3085 C 304.433 -4.38692 -2.90578 0
M  V30 3086 O 303.459 -5.06179 -2.6033 0
M  V30 3087 N 304.661 -4.01922 -4.18854 0
M  V30 3088 H 307.426 -2.98643 -0.251526 0
M  V30 3089 H 304.987 -1.61897 0.00967373 0
M  V30 3090 H 306.979 -2.93891 -2.78227 0
M  V30 3091 H 305.549 -1.9259 -2.46227 0
M  V30 3092 H 304.769 -3.84262 -0.879581 0
M  V30 3093 H 306.057 -4.83445 -1.58614 0
M  V30 3094 H 305.455 -3.47631 -4.46283 0
M  V30 3095 H 304.012 -4.30165 -4.89695 0
M  V30 3096 N 307.445 0.0818655 -1.57387 0
M  V30 3097 C 308.408 1.08265 -2.02018 0
M  V30 3098 C 309.408 1.32183 -0.915664 0
M  V30 3099 O 310.598 1.28073 -1.18081 0
M  V30 3100 C 307.73 2.42871 -2.39221 0
M  V30 3101 H 308.923 0.698204 -2.91659 0
M  V30 3102 H 306.476 0.327303 -1.52835 0
M  V30 3103 H 307.211 2.86167 -1.52575 0
M  V30 3104 H 306.996 2.26855 -3.19811 0
M  V30 3105 H 308.486 3.14826 -2.74362 0
M  V30 3106 N 308.923 1.53595 0.353017 0
M  V30 3107 C 309.853 1.83902 1.43883 0
M  V30 3108 C 310.834 0.693421 1.55324 0
M  V30 3109 O 312.019 0.944452 1.69687 0
M  V30 3110 C 309.149 2.04016 2.8106 0
M  V30 3111 C 308.103 3.19814 2.84434 0
M  V30 3112 C 307.429 3.25244 4.24406 0
M  V30 3113 C 308.729 4.58133 2.50822 0
M  V30 3114 H 310.423 2.74835 1.1877 0
M  V30 3115 H 307.969 1.32242 0.569917 0
M  V30 3116 H 309.922 2.238 3.57059 0
M  V30 3117 H 308.646 1.09804 3.07588 0
M  V30 3118 H 307.305 2.9987 2.10887 0
M  V30 3119 H 306.953 2.28646 4.48029 0
M  V30 3120 H 306.653 4.03054 4.27576 0
M  V30 3121 H 308.177 3.47228 5.0226 0
M  V30 3122 H 309.591 4.77995 3.16534 0
M  V30 3123 H 307.988 5.38276 2.6529 0
M  V30 3124 H 309.058 4.62387 1.46034 0
M  V30 3125 N 310.401 -0.613514 1.45168 0
M  V30 3126 C 311.331 -1.7354 1.56225 0
M  V30 3127 C 312.312 -1.64981 0.41414 0
M  V30 3128 O 313.497 -1.83472 0.636526 0
M  V30 3129 C 310.627 -3.12128 1.52295 0
M  V30 3130 C 309.581 -3.35491 2.65762 0
M  V30 3131 C 308.907 -4.74291 2.46885 0
M  V30 3132 C 310.207 -3.26325 4.0781 0
M  V30 3133 H 311.901 -1.64543 2.50132 0
M  V30 3134 H 309.447 -0.790185 1.20383 0
M  V30 3135 H 311.4 -3.90404 1.58628 0
M  V30 3136 H 310.124 -3.2195 0.549139 0
M  V30 3137 H 308.783 -2.59603 2.58847 0
M  V30 3138 H 308.431 -4.80839 1.47657 0
M  V30 3139 H 308.131 -4.9088 3.22972 0
M  V30 3140 H 309.655 -5.54775 2.55063 0
M  V30 3141 H 311.069 -3.94483 4.16 0
M  V30 3142 H 309.466 -3.54445 4.8424 0
M  V30 3143 H 310.536 -2.23855 4.30136 0
M  V30 3144 N 311.879 -1.3236 -0.855495 0
M  V30 3145 C 313.127 -1.22629 -1.60644 0
M  V30 3146 C 313.448 0.212136 -1.93843 0
M  V30 3147 O 312.718 1.13666 -1.59552 0
M  V30 3148 H 311.298 -0.450882 -0.595579 0
M  V30 3149 H 313.96 -1.65871 -1.02337 0
M  V30 3150 H 313.056 -1.80832 -2.54374 0
M  V30 3151 N 313.357 1.07166 -1.15556 0
M  V30 3152 C 314.32 2.12589 -0.856644 0
M  V30 3153 C 315.32 1.6015 0.14444 0
M  V30 3154 O 316.51 1.7399 -0.0854163 0
M  V30 3155 C 313.642 3.39753 -0.279405 0
M  V30 3156 H 314.835 2.40539 -1.79112 0
M  V30 3157 H 312.388 1.23086 -0.963298 0
M  V30 3158 H 313.123 3.17447 0.663174 0
M  V30 3159 H 312.908 3.79117 -1.00063 0
M  V30 3160 H 314.398 4.17507 -0.0879113 0
M  V30 3161 N 314.835 0.952656 1.25548 0
M  V30 3162 C 315.798 0.475794 2.24207 0
M  V30 3163 C 316.798 -0.419428 1.55234 0
M  V30 3164 O 317.988 -0.216994 1.72843 0
M  V30 3165 C 315.12 -0.312814 3.39462 0
M  V30 3166 H 316.313 1.34779 2.67908 0
M  V30 3167 H 313.866 0.735739 1.37901 0
M  V30 3168 H 314.601 -1.20257 3.01179 0
M  V30 3169 H 314.386 0.329404 3.90714 0
M  V30 3170 H 315.876 -0.635986 4.12729 0
M  V30 3171 N 316.313 -1.40141 0.720998 0
M  V30 3172 C 317.26 -2.30688 0.071919 0
M  V30 3173 C 318.23 -1.48476 -0.744584 0
M  V30 3174 O 319.415 -1.77201 -0.707423 0
M  V30 3175 C 316.555 -3.34724 -0.839855 0
M  V30 3176 C 315.668 -4.31998 -0.0122438 0
M  V30 3177 C 314.803 -5.23102 -0.923995 0
M  V30 3178 C 313.842 -6.12033 -0.0907969 0
M  V30 3179 N 312.979 -6.95537 -0.957718 0
M  V30 3180 H 317.819 -2.85628 0.849755 0
M  V30 3181 H 315.356 -1.40653 0.430726 0
M  V30 3182 H 317.314 -3.93618 -1.38279 0
M  V30 3183 H 315.944 -2.81274 -1.58381 0
M  V30 3184 H 314.996 -3.74841 0.64794 0
M  V30 3185 H 316.308 -4.94772 0.632595 0
M  V30 3186 H 315.462 -5.86953 -1.53527 0
M  V30 3187 H 314.201 -4.60615 -1.60264 0
M  V30 3188 H 313.206 -5.47207 0.533377 0
M  V30 3189 H 314.431 -6.76581 0.584428 0
M  V30 3190 H 312.377 -6.35633 -1.62192 0
M  V30 3191 H 312.294 -7.55099 -0.36904 0
M  V30 3192 H 313.562 -7.63832 -1.555 0
M  V30 3193 N 317.792 -0.46758 -1.50504 0
M  V30 3194 C 318.725 0.374324 -2.25109 0
M  V30 3195 C 319.703 0.99921 -1.28275 0
M  V30 3196 O 320.887 1.03583 -1.57489 0
M  V30 3197 C 318.014 1.52419 -3.02467 0
M  V30 3198 C 317.06 1.01702 -4.14197 0
M  V30 3199 S 317.893 -0.0654477 -5.3546 0
M  V30 3200 C 319.049 1.08837 -6.16365 0
M  V30 3201 H 319.282 -0.258983 -2.9617 0
M  V30 3202 H 316.815 -0.252421 -1.52323 0
M  V30 3203 H 318.773 2.18322 -3.47628 0
M  V30 3204 H 317.434 2.129 -2.30938 0
M  V30 3205 H 316.627 1.87776 -4.67714 0
M  V30 3206 H 316.229 0.435757 -3.71453 0
M  V30 3207 H 318.521 2.00071 -6.47285 0
M  V30 3208 H 319.464 0.592538 -7.05616 0
M  V30 3209 H 319.872 1.34061 -5.4835 0
M  V30 3210 N 319.27 1.56325 -0.20005 0
M  V30 3211 C 320.2 2.22318 0.713916 0
M  V30 3212 C 321.181 1.18788 1.21752 0
M  V30 3213 O 322.366 1.47309 1.26545 0
M  V30 3214 C 319.496 2.88639 1.93144 0
M  V30 3215 C 318.45 3.98457 1.56255 0
M  V30 3216 C 317.776 4.51967 2.85709 0
M  V30 3217 C 319.076 5.16612 0.768747 0
M  V30 3218 H 320.77 2.98952 0.163755 0
M  V30 3219 H 318.316 1.43792 0.0773219 0
M  V30 3220 H 320.269 3.33491 2.57608 0
M  V30 3221 H 318.993 2.09419 2.50621 0
M  V30 3222 H 317.652 3.54305 0.941471 0
M  V30 3223 H 317.3 3.69503 3.41287 0
M  V30 3224 H 317 5.26071 2.6177 0
M  V30 3225 H 318.524 4.99523 3.51154 0
M  V30 3226 H 319.938 5.57977 1.3166 0
M  V30 3227 H 318.335 5.96812 0.627286 0
M  V30 3228 H 319.405 4.84358 -0.229168 0
M  V30 3229 N 320.748 -0.0735177 1.57428 0
M  V30 3230 C 321.678 -1.0879 2.06608 0
M  V30 3231 C 322.659 -1.40473 0.959237 0
M  V30 3232 O 323.844 -1.5013 1.23185 0
M  V30 3233 C 320.974 -2.40183 2.50857 0
M  V30 3234 C 319.928 -2.22858 3.65402 0
M  V30 3235 C 319.254 -3.59619 3.957 0
M  V30 3236 C 320.554 -1.65123 4.95511 0
M  V30 3237 H 322.248 -0.678673 2.91607 0
M  V30 3238 H 319.794 -0.325013 1.40284 0
M  V30 3239 H 321.747 -3.11437 2.83874 0
M  V30 3240 H 320.471 -2.83083 1.62885 0
M  V30 3241 H 319.13 -1.54045 3.32664 0
M  V30 3242 H 318.778 -4.00086 3.04861 0
M  V30 3243 H 318.478 -3.48866 4.72828 0
M  V30 3244 H 320.002 -4.32306 4.31212 0
M  V30 3245 H 321.416 -2.26241 5.26771 0
M  V30 3246 H 319.813 -1.65071 5.7695 0
M  V30 3247 H 320.883 -0.612559 4.81015 0
M  V30 3248 N 322.226 -1.5378 -0.344866 0
M  V30 3249 C 323.503 -1.61589 -1.10219 0
M  V30 3250 C 323.883 -0.436316 -2.06542 0
M  V30 3251 O 323.231 0.571543 -2.21237 0
M  V30 3252 C 323.441 -2.97602 -1.82301 0
M  V30 3253 C 324.789 -3.5291 -2.36093 0
M  V30 3254 O 325.813 -2.99768 -1.924 0
M  V30 3255 O 324.672 -4.45859 -3.16026 0
M  V30 3256 H 321.766 -0.653522 -0.506792 0
M  V30 3257 H 324.312 -1.66126 -0.346465 0
M  V30 3258 H 323.084 -3.74893 -1.12121 0
M  V30 3259 H 322.707 -2.9665 -2.64735 0
M  V30 3260 N 323.704 0.605807 -1.45491 0
M  V30 3261 C 324.929 1.39625 -1.53361 0
M  V30 3262 C 325.354 1.87351 -0.167645 0
M  V30 3263 O 324.712 1.60243 0.848051 0
M  V30 3264 C 324.76 2.57559 -2.5238 0
M  V30 3265 O 323.864 3.58248 -2.04285 0
M  V30 3266 H 323.205 0.416771 -0.516912 0
M  V30 3267 H 325.735 0.737103 -1.90861 0
M  V30 3268 H 325.745 3.0478 -2.71244 0
M  V30 3269 H 324.42 2.22171 -3.51586 0
M  V30 3270 H 322.997 3.17664 -1.95305 0
M  V30 3271 N 325.182 1.32811 0.848464 0
M  V30 3272 C 326.092 1.24278 1.98978 0
M  V30 3273 C 327.108 0.155176 1.73307 0
M  V30 3274 O 328.284 0.376999 1.9784 0
M  V30 3275 C 325.349 0.972444 3.32783 0
M  V30 3276 C 324.41 2.14911 3.71634 0
M  V30 3277 C 323.643 1.89157 4.99054 0
M  V30 3278 O 323.866 0.837165 5.64223 0
M  V30 3279 O 322.8 2.75433 5.35183 0
M  V30 3280 H 326.626 2.20238 2.09115 0
M  V30 3281 H 324.211 1.12762 0.980052 0
M  V30 3282 H 326.093 0.838432 4.12975 0
M  V30 3283 H 324.768 0.043051 3.23671 0
M  V30 3284 H 323.675 2.33862 2.91992 0
M  V30 3285 H 325.008 3.06151 3.85399 0
M  V30 3286 N 326.66 -1.06551 1.16123 0
M  V30 3287 C 327.592 -2.13908 0.823171 0
M  V30 3288 C 328.605 -1.61926 -0.16843 0
M  V30 3289 O 329.794 -1.78412 0.055962 0
M  V30 3290 C 326.894 -3.38283 0.204424 0
M  V30 3291 C 326.067 -4.19589 1.23548 0
M  V30 3292 C 325.126 -5.2233 0.637011 0
M  V30 3293 O 324.152 -5.54034 1.30516 0
M  V30 3294 N 325.354 -5.77621 -0.577474 0
M  V30 3295 H 328.119 -2.43508 1.74711 0
M  V30 3296 H 325.68 -1.2253 1.05821 0
M  V30 3297 H 327.672 -4.0416 -0.208909 0
M  V30 3298 H 326.242 -3.06329 -0.623012 0
M  V30 3299 H 325.462 -3.49406 1.82507 0
M  V30 3300 H 326.75 -4.70718 1.93137 0
M  V30 3301 H 326.148 -5.54125 -1.13853 0
M  V30 3302 H 324.705 -6.45087 -0.933053 0
M  V30 3303 N 328.138 -0.959301 -1.25041 0
M  V30 3304 C 329.088 -0.453888 -2.23436 0
M  V30 3305 C 330.072 0.459461 -1.542 0
M  V30 3306 O 331.264 0.291752 -1.74579 0
M  V30 3307 C 328.393 0.262667 -3.42294 0
M  V30 3308 C 327.479 -0.669022 -4.1879 0
M  V30 3309 N 327.87 -1.80267 -4.72586 0
M  V30 3310 C 326.168 -0.47814 -4.4343 0
M  V30 3311 C 326.869 -2.38475 -5.3057 0
M  V30 3312 N 325.845 -1.67078 -5.17287 0
M  V30 3313 H 329.647 -1.319 -2.6264 0
M  V30 3314 H 327.161 -0.817358 -1.40332 0
M  V30 3315 H 329.158 0.641911 -4.11929 0
M  V30 3316 H 327.818 1.12432 -3.04613 0
M  V30 3317 H 328.829 -2.18442 -4.69578 0
M  V30 3318 H 325.506 0.340249 -4.16111 0
M  V30 3319 H 326.896 -3.34094 -5.8295 0
M  V30 3320 N 329.616 1.39756 -0.72842 0
M  V30 3321 C 331.027 1.83498 -0.344289 0
M  V30 3322 C 331.378 1.60868 1.12321 0
M  V30 3323 O 330.503 1.09634 1.86573 0
M  V30 3324 C 331.098 3.33114 -0.618112 0
M  V30 3325 C 329.657 3.753 -0.287549 0
M  V30 3326 C 328.804 2.62831 -0.884048 0
M  V30 3327 H 331.755 1.28842 -0.926578 0
M  V30 3328 H 331.776 3.80334 0.112349 0
M  V30 3329 H 331.288 3.49553 -1.68625 0
M  V30 3330 H 329.389 3.64451 0.775012 0
M  V30 3331 H 329.502 4.72945 -0.765512 0
M  V30 3332 H 327.866 2.52792 -0.311149 0
M  V30 3333 H 328.649 2.82078 -1.95671 0
M  V30 3334 N 331.094 0.475555 1.50254 0
M  V30 3335 C 332.334 -0.0765802 2.04256 0
M  V30 3336 C 332.698 -1.36587 1.34937 0
M  V30 3337 O 333.899 -2.00066 1.79519 0
M  V30 3338 C 332.17 -0.251668 3.56513 0
M  V30 3339 S 333.729 -0.761716 4.32138 0
M  V30 3340 H 330.547 -0.0138456 0.710865 0
M  V30 3341 H 333.149 0.643714 1.84598 0
M  V30 3342 H 331.853 0.692404 4.04517 0
M  V30 3343 H 331.384 -0.997946 3.80532 0
M  V30 3344 H 333.399 -2.03451 4.52573 0
M  V30 3345 N 332.573 -1.56217 0.208337 0
M  V30 3346 C 333.505 -2.1695 -0.739276 0
M  V30 3347 C 334.518 -1.13492 -1.1672 0
M  V30 3348 O 335.707 -1.40529 -1.10063 0
M  V30 3349 C 332.807 -2.72755 -2.01142 0
M  V30 3350 C 331.98 -4.0125 -1.74118 0
M  V30 3351 C 331.039 -4.41749 -2.85909 0
M  V30 3352 O 330.065 -5.08912 -2.54946 0
M  V30 3353 N 331.267 -4.06342 -4.14568 0
M  V30 3354 H 334.032 -2.98893 -0.219837 0
M  V30 3355 H 331.593 -1.61878 0.0268445 0
M  V30 3356 H 333.585 -2.96826 -2.75094 0
M  V30 3357 H 332.155 -1.95191 -2.4417 0
M  V30 3358 H 331.375 -3.85173 -0.838775 0
M  V30 3359 H 332.663 -4.851 -1.53477 0
M  V30 3360 H 332.061 -3.52345 -4.42571 0
M  V30 3361 H 330.618 -4.35335 -4.85105 0
M  V30 3362 N 334.051 0.0651679 -1.57465 0
M  V30 3363 C 334.981 1.07693 -2.07182 0
M  V30 3364 C 335.962 1.39962 -0.966673 0
M  V30 3365 O 337.147 1.49475 -1.2398 0
M  V30 3366 C 334.277 2.3885 -2.52127 0
M  V30 3367 C 333.231 2.20917 -3.66579 0
M  V30 3368 C 332.557 3.57515 -3.97601 0
M  V30 3369 C 333.857 1.62493 -4.9638 0
M  V30 3370 H 335.551 0.663199 -2.91962 0
M  V30 3371 H 333.097 0.317569 -1.40455 0
M  V30 3372 H 335.05 3.09928 -2.85522 0
M  V30 3373 H 333.774 2.82215 -1.64384 0
M  V30 3374 H 332.433 1.52279 -3.33477 0
M  V30 3375 H 332.081 3.98463 -3.06979 0
M  V30 3376 H 331.781 3.46353 -4.74672 0
M  V30 3377 H 333.305 4.30013 -4.33499 0
M  V30 3378 H 334.719 2.23445 -5.27963 0
M  V30 3379 H 333.116 1.62009 -5.77818 0
M  V30 3380 H 334.186 0.587041 -4.81333 0
M  V30 3381 N 335.529 1.53961 0.336706 0
M  V30 3382 C 336.476 1.82428 1.41381 0
M  V30 3383 C 337.446 0.670444 1.51968 0
M  V30 3384 O 338.631 0.915565 1.67398 0
M  V30 3385 C 335.771 2.04564 2.77934 0
M  V30 3386 C 334.884 3.32267 2.76084 0
M  V30 3387 C 334.019 3.44434 4.04399 0
M  V30 3388 C 333.058 4.66061 3.96804 0
M  V30 3389 N 332.195 4.75224 5.16823 0
M  V30 3390 H 337.035 2.74324 1.16405 0
M  V30 3391 H 334.572 1.35869 0.563752 0
M  V30 3392 H 336.53 2.15388 3.57301 0
M  V30 3393 H 335.16 1.15974 3.01247 0
M  V30 3394 H 334.212 3.3025 1.88784 0
M  V30 3395 H 335.524 4.21733 2.66351 0
M  V30 3396 H 334.678 3.54728 4.92192 0
M  V30 3397 H 333.417 2.53037 4.16921 0
M  V30 3398 H 332.422 4.55838 3.07396 0
M  V30 3399 H 333.647 5.58829 3.85858 0
M  V30 3400 H 331.593 3.86739 5.29876 0
M  V30 3401 H 331.51 5.58636 5.09374 0
M  V30 3402 H 332.778 4.89835 6.06367 0
M  V30 3403 N 337.007 -0.598083 1.45811 0
M  V30 3404 C 338.284 -1.35777 1.40797 0
M  V30 3405 C 338.664 -2.10935 0.083462 0
M  V30 3406 O 338.012 -2.08505 -0.934763 0
M  V30 3407 C 338.222 -2.29666 2.62783 0
M  V30 3408 C 339.57 -2.91977 3.08277 0
M  V30 3409 O 340.594 -2.39984 2.63223 0
M  V30 3410 O 339.453 -3.86376 3.86491 0
M  V30 3411 H 336.547 -0.609291 0.55919 0
M  V30 3412 H 339.093 -0.620379 1.57954 0
M  V30 3413 H 337.865 -1.73454 3.50756 0
M  V30 3414 H 337.488 -3.1077 2.48008 0
M  V30 3415 N 338.485 -1.33259 -0.841409 0
M  V30 3416 C 339.433 -1.23279 -1.97244 0
M  V30 3417 C 340.427 -0.134706 -1.68864 0
M  V30 3418 O 341.633 -0.298501 -1.77508 0
M  V30 3419 H 338.008 -0.382497 -0.647457 0
M  V30 3420 H 339.979 -2.18906 -2.02787 0
M  V30 3421 C 338.728 -0.986268 -3.33419 0
M  V30 3422 H 338.051 -1.82347 -3.55794 0
M  V30 3423 H 339.491 -0.956728 -4.13065 0
M  V30 3424 C 337.95 0.310842 -3.35463 0
M  V30 3425 O 338.48 1.31838 -3.79449 0
M  V30 3426 N 336.686 0.337485 -2.88634 0
M  V30 3427 H 336.233 -0.482967 -2.53032 0
M  V30 3428 H 336.191 1.20518 -2.90384 0
M  V30 3429 N 339.963 1.05934 -1.16686 0
M  V30 3430 C 341.209 1.79065 -0.95203 0
M  V30 3431 C 341.542 1.87147 0.518629 0
M  V30 3432 O 340.817 1.36574 1.38484 0
M  V30 3433 C 341.1 3.23359 -1.58464 0
M  V30 3434 C 340.953 3.23336 -3.12689 0
M  V30 3435 C 342.272 4.21004 -1.28232 0
M  V30 3436 H 339.391 0.65005 -0.34728 0
M  V30 3437 H 342.033 1.23868 -1.44072 0
M  V30 3438 H 340.183 3.70493 -1.16908 0
M  V30 3439 H 341.855 2.84336 -3.6325 0
M  V30 3440 H 340.098 2.61886 -3.4583 0
M  V30 3441 H 340.769 4.25144 -3.52075 0
M  V30 3442 H 343.245 3.8233 -1.64203 0
M  V30 3443 H 342.121 5.20225 -1.75092 0
M  V30 3444 H 342.382 4.41639 -0.201791 0
M  V30 3445 N 341.441 0.965919 1.2453 0
M  V30 3446 C 342.681 0.634656 1.94297 0
M  V30 3447 C 343.045 -0.814822 1.73852 0
M  V30 3448 O 344.246 -1.25622 2.3764 0
M  V30 3449 C 342.517 0.99702 3.43212 0
M  V30 3450 S 344.076 0.780038 4.31811 0
M  V30 3451 H 340.894 0.232893 0.671775 0
M  V30 3452 H 343.496 1.24249 1.50938 0
M  V30 3453 H 342.2 2.04886 3.55598 0
M  V30 3454 H 341.731 0.379888 3.91562 0
M  V30 3455 H 343.746 -0.343512 4.9501 0
M  V30 3456 N 342.919 -1.39368 0.735821 0
M  V30 3457 C 344.144 -2.05319 0.293052 0
M  V30 3458 C 344.569 -1.55115 -1.064 0
M  V30 3459 O 343.927 -0.695261 -1.67439 0
M  V30 3460 C 343.975 -3.59305 0.305323 0
M  V30 3461 O 343.079 -4.06299 -0.706761 0
M  V30 3462 H 342.42 -0.650529 0.13307 0
M  V30 3463 H 344.95 -1.78386 1.00197 0
M  V30 3464 H 344.96 -4.07724 0.149997 0
M  V30 3465 H 343.635 -3.95207 1.29553 0
M  V30 3466 H 342.212 -3.69292 -0.517504 0
M  V30 3467 N 344.397 -0.483516 -1.5 0
M  V30 3468 C 345.808 -0.0314176 -1.86674 0
M  V30 3469 C 346.159 1.37728 -1.39733 0
M  V30 3470 O 345.284 2.02327 -0.767635 0
M  V30 3471 C 345.879 -0.0502376 -3.38763 0
M  V30 3472 C 344.438 0.346442 -3.74802 0
M  V30 3473 C 343.585 -0.430366 -2.7394 0
M  V30 3474 H 346.536 -0.697182 -1.42566 0
M  V30 3475 H 346.557 0.749116 -3.73053 0
M  V30 3476 H 346.069 -1.07563 -3.72897 0
M  V30 3477 H 344.17 1.37572 -3.46273 0
M  V30 3478 H 344.283 0.0391486 -4.79084 0
M  V30 3479 H 342.647 0.117557 -2.54429 0
M  V30 3480 H 343.43 -1.4555 -3.10918 0
M  V30 3481 N 345.875 1.56104 -0.216619 0
M  V30 3482 C 347.123 1.97781 0.415593 0
M  V30 3483 C 347.444 1.10536 1.60645 0
M  V30 3484 O 346.714 0.181303 1.95059 0
M  V30 3485 H 345.294 0.730415 0.156534 0
M  V30 3486 H 347.956 1.92445 -0.308366 0
M  V30 3487 H 347.052 3.03072 0.74525 0
M  V30 3488 N 347.353 -0.0568162 1.57498 0
M  V30 3489 C 348.601 -0.751617 1.87604 0
M  V30 3490 C 348.922 -1.77351 0.81066 0
M  V30 3491 O 348.192 -1.95254 -0.159018 0
M  V30 3492 H 346.772 -0.280583 0.692302 0
M  V30 3493 H 349.434 -0.0293483 1.94878 0
M  V30 3494 H 348.53 -1.25852 2.856 0
M  V30 3495 N 348.832 -1.54138 -0.328536 0
M  V30 3496 C 349.795 -1.82462 -1.38709 0
M  V30 3497 C 350.795 -0.696229 -1.44946 0
M  V30 3498 O 351.985 -0.964535 -1.4506 0
M  V30 3499 C 349.117 -1.98018 -2.77492 0
M  V30 3500 H 350.31 -2.77037 -1.14851 0
M  V30 3501 H 347.863 -1.45779 -0.563751 0
M  V30 3502 H 348.598 -1.05637 -3.06613 0
M  V30 3503 H 348.383 -2.80124 -2.74359 0
M  V30 3504 H 349.873 -2.21396 -3.54081 0
M  V30 3505 N 350.31 0.590341 -1.46126 0
M  V30 3506 C 351.538 1.37504 -1.54597 0
M  V30 3507 C 351.953 1.87897 -0.184447 0
M  V30 3508 O 351.31 1.63192 0.816984 0
M  V30 3509 C 351.361 2.56779 -2.54454 0
M  V30 3510 O 351.082 2.08476 -3.85317 0
M  V30 3511 C 352.583 3.49427 -2.72792 0
M  V30 3512 H 349.803 0.420325 -0.523037 0
M  V30 3513 H 352.347 0.718383 -1.91467 0
M  V30 3514 H 350.502 3.1845 -2.20609 0
M  V30 3515 H 350.916 2.86097 -4.396 0
M  V30 3516 H 352.39 4.29619 -3.466 0
M  V30 3517 H 352.867 4.00876 -1.79429 0
M  V30 3518 H 353.473 2.93598 -3.07702 0
M  V30 3519 N 351.788 1.33704 0.83433 0
M  V30 3520 C 353.037 1.24763 1.58484 0
M  V30 3521 C 353.35 -0.183775 1.94735 0
M  V30 3522 O 354.556 -0.395234 2.68608 0
M  V30 3523 C 353.012 2.18638 2.85876 0
M  V30 3524 C 352.62 3.66974 2.56971 0
M  V30 3525 C 354.364 2.18581 3.63899 0
M  V30 3526 C 352.271 4.5275 3.80488 0
M  V30 3527 H 351.201 0.463425 0.594772 0
M  V30 3528 H 353.852 1.58797 0.919551 0
M  V30 3529 H 352.234 1.77542 3.5397 0
M  V30 3530 H 353.408 4.16538 1.9706 0
M  V30 3531 H 351.723 3.69366 1.92244 0
M  V30 3532 H 354.32 2.79894 4.55591 0
M  V30 3533 H 354.663 1.18207 3.99165 0
M  V30 3534 H 355.196 2.58062 3.02735 0
M  V30 3535 H 351.935 5.54017 3.5035 0
M  V30 3536 H 351.455 4.07927 4.39722 0
M  V30 3537 H 353.134 4.66784 4.4802 0
M  V30 3538 N 353.266 -1.05314 1.17247 0
M  V30 3539 C 354.216 -2.11313 0.856196 0
M  V30 3540 C 355.2 -1.60013 -0.168694 0
M  V30 3541 O 356.392 -1.76968 0.0335624 0
M  V30 3542 C 353.521 -3.41301 0.369917 0
M  V30 3543 C 352.607 -3.99401 1.42616 0
M  V30 3544 N 352.998 -4.31481 2.63928 0
M  V30 3545 C 351.296 -4.27126 1.28373 0
M  V30 3546 C 351.997 -4.77799 3.31787 0
M  V30 3547 N 350.973 -4.77843 2.59166 0
M  V30 3548 H 354.775 -2.33976 1.77856 0
M  V30 3549 H 352.289 -1.2295 1.06099 0
M  V30 3550 H 354.286 -4.16713 0.124897 0
M  V30 3551 H 352.946 -3.20072 -0.546253 0
M  V30 3552 H 353.957 -4.21519 3.00902 0
M  V30 3553 H 350.634 -4.15289 0.429111 0
M  V30 3554 H 352.024 -5.11743 4.35395 0
M  V30 3555 N 354.744 -0.972509 -1.24016 0
M  V30 3556 C 355.707 -0.511403 -2.23422 0
M  V30 3557 C 356.707 0.394679 -1.55881 0
M  V30 3558 O 357.897 0.189469 -1.73167 0
M  V30 3559 C 355.029 0.258769 -3.39916 0
M  V30 3560 H 356.222 -1.39024 -2.6573 0
M  V30 3561 H 353.775 -0.757585 -1.36713 0
M  V30 3562 H 354.51 1.1545 -3.03054 0
M  V30 3563 H 354.295 -0.391522 -3.9014 0
M  V30 3564 H 355.785 0.570244 -4.13688 0
M  V30 3565 N 356.222 1.38976 -0.743202 0
M  V30 3566 C 357.152 2.33171 -0.123873 0
M  V30 3567 C 358.133 1.54336 0.71516 0
M  V30 3568 O 359.318 1.82696 0.658467 0
M  V30 3569 C 356.448 3.38474 0.777978 0
M  V30 3570 C 355.402 4.27979 0.0424758 0
M  V30 3571 C 354.728 5.2405 1.06189 0
M  V30 3572 C 356.028 5.10155 -1.1198 0
M  V30 3573 H 357.722 2.85213 -0.910709 0
M  V30 3574 H 355.268 1.37133 -0.439388 0
M  V30 3575 H 357.221 4.03328 1.22084 0
M  V30 3576 H 355.945 2.84891 1.59702 0
M  V30 3577 H 354.604 3.64616 -0.380853 0
M  V30 3578 H 354.252 4.66758 1.87472 0
M  V30 3579 H 353.952 5.84785 0.574485 0
M  V30 3580 H 355.476 5.9178 1.50428 0
M  V30 3581 H 356.89 5.68307 -0.75499 0
M  V30 3582 H 355.287 5.80073 -1.53738 0
M  V30 3583 H 356.357 4.44504 -1.93764 0
M  V30 3584 N 357.7 0.491464 1.49741 0
M  V30 3585 C 358.65 -0.311086 2.25868 0
M  V30 3586 C 359.634 -0.943857 1.30308 0
M  V30 3587 O 360.826 -0.853035 1.55088 0
M  V30 3588 C 357.955 -1.38059 3.14316 0
M  V30 3589 C 357.041 -0.754541 4.17334 0
M  V30 3590 N 357.432 0.137216 5.05614 0
M  V30 3591 C 355.73 -1.01621 4.34269 0
M  V30 3592 C 356.431 0.494614 5.79593 0
M  V30 3593 N 355.407 -0.135169 5.43432 0
M  V30 3594 H 359.209 0.37555 2.91491 0
M  V30 3595 H 356.723 0.306917 1.59473 0
M  V30 3596 H 358.72 -1.96891 3.67477 0
M  V30 3597 H 357.38 -2.06901 2.50244 0
M  V30 3598 H 358.391 0.50741 5.15408 0
M  V30 3599 H 355.068 -1.69808 3.81407 0
M  V30 3600 H 356.458 1.2236 6.60665 0
M  V30 3601 N 359.178 -1.55987 0.224894 0
M  V30 3602 C 360.425 -1.9839 -0.4059 0
M  V30 3603 C 360.753 -1.11261 -1.59535 0
M  V30 3604 O 360.008 -0.158314 -1.95059 0
M  V30 3605 C 360.307 -3.46394 -0.880106 0
M  V30 3606 C 359.973 -4.5046 0.19918 0
M  V30 3607 C 358.635 -4.7864 0.495661 0
M  V30 3608 C 360.987 -5.12855 0.928939 0
M  V30 3609 C 358.315 -5.66497 1.52636 0
M  V30 3610 C 360.667 -6.01828 1.949 0
M  V30 3611 C 359.331 -6.28351 2.25236 0
M  V30 3612 H 358.601 -0.725961 -0.148529 0
M  V30 3613 H 361.248 -1.88668 0.328113 0
M  V30 3614 H 359.553 -3.53337 -1.69294 0
M  V30 3615 H 361.25 -3.76577 -1.37808 0
M  V30 3616 H 357.84 -4.28579 -0.0420526 0
M  V30 3617 H 362.024 -4.9115 0.713129 0
M  V30 3618 H 357.28 -5.8531 1.76698 0
M  V30 3619 H 361.454 -6.49225 2.51951 0
M  V30 3620 H 359.081 -6.96226 3.05244 0
M  V30 3621 N 360.656 0.0484629 -1.57525 0
M  V30 3622 C 361.586 1.0549 -2.08313 0
M  V30 3623 C 362.567 1.38929 -0.981463 0
M  V30 3624 O 363.752 1.48151 -1.25558 0
M  V30 3625 C 360.882 2.36162 -2.54646 0
M  V30 3626 C 359.836 2.17016 -3.68901 0
M  V30 3627 C 359.162 3.53278 -4.01371 0
M  V30 3628 C 360.462 1.57219 -4.98076 0
M  V30 3629 H 362.156 0.632195 -2.92649 0
M  V30 3630 H 359.702 0.302654 -1.40784 0
M  V30 3631 H 361.655 3.06882 -2.88793 0
M  V30 3632 H 360.379 2.80456 -1.67368 0
M  V30 3633 H 359.038 1.48733 -3.35073 0
M  V30 3634 H 358.686 3.95185 -3.11188 0
M  V30 3635 H 358.386 3.41299 -4.78318 0
M  V30 3636 H 359.91 4.25391 -4.38035 0
M  V30 3637 H 361.324 2.17832 -5.30304 0
M  V30 3638 H 359.721 1.55871 -5.79503 0
M  V30 3639 H 360.791 0.535956 -4.81929 0
M  V30 3640 N 362.134 1.5431 0.320358 0
M  V30 3641 C 363.044 1.86946 1.41734 0
M  V30 3642 C 364.06 0.761689 1.56443 0
M  V30 3643 O 365.236 1.05629 1.71477 0
M  V30 3644 C 362.301 2.09293 2.76401 0
M  V30 3645 C 361.362 3.33082 2.70841 0
M  V30 3646 C 360.595 3.54353 3.99086 0
M  V30 3647 O 360.818 2.79002 4.97508 0
M  V30 3648 O 359.752 4.47838 4.0215 0
M  V30 3649 H 363.578 2.80232 1.17062 0
M  V30 3650 H 361.163 1.40255 0.514673 0
M  V30 3651 H 363.045 2.25303 3.56113 0
M  V30 3652 H 361.72 1.19194 3.00956 0
M  V30 3653 H 360.627 3.22454 1.89668 0
M  V30 3654 H 361.96 4.23249 2.5124 0
M  V30 3655 N 363.613 -0.582584 1.46437 0
M  V30 3656 C 364.838 -1.37168 1.55563 0
M  V30 3657 C 365.263 -1.87061 0.19743 0
M  V30 3658 O 364.621 -1.61572 -0.822451 0
M  V30 3659 C 364.669 -2.53511 2.56446 0
M  V30 3660 O 363.773 -3.54953 2.09958 0
M  V30 3661 H 363.114 -0.408494 0.523477 0
M  V30 3662 H 365.644 -0.706646 1.9201 0
M  V30 3663 H 365.654 -3.00426 2.76058 0
M  V30 3664 H 364.329 -2.16549 3.55076 0
M  V30 3665 H 362.906 -3.14516 2.00334 0
M  V30 3666 N 365.091 -1.34144 -0.827227 0
M  V30 3667 C 366.339 -1.26009 -1.58007 0
M  V30 3668 C 366.66 0.170971 -1.94249 0
M  V30 3669 O 365.93 1.10256 -1.61927 0
M  V30 3670 H 364.51 -0.463414 -0.585881 0
M  V30 3671 H 367.172 -1.68005 -0.987951 0
M  V30 3672 H 366.268 -1.86187 -2.50481 0
M  V30 3673 N 366.569 1.04691 -1.17803 0
M  V30 3674 C 367.817 1.7743 -0.967617 0
M  V30 3675 C 368.138 1.88359 0.504574 0
M  V30 3676 O 367.408 1.40402 1.36617 0
M  V30 3677 H 365.988 0.657242 -0.355024 0
M  V30 3678 H 368.65 1.2638 -1.48371 0
M  V30 3679 H 367.746 2.78924 -1.40027 0
M  V30 3680 N 368.047 0.979072 1.23499 0
M  V30 3681 C 369.294 0.647219 1.91878 0
M  V30 3682 C 369.622 -0.819074 1.76413 0
M  V30 3683 O 368.877 -1.60616 1.11808 0
M  V30 3684 C 369.176 0.981932 3.43646 0
M  V30 3685 C 368.842 2.43822 3.79291 0
M  V30 3686 C 367.504 2.83622 3.88731 0
M  V30 3687 C 369.856 3.3828 3.96505 0
M  V30 3688 C 367.184 4.16897 4.12812 0
M  V30 3689 C 369.536 4.71197 4.22085 0
M  V30 3690 C 368.2 5.10758 4.29747 0
M  V30 3691 H 367.47 0.236834 0.702133 0
M  V30 3692 H 370.117 1.23268 1.46551 0
M  V30 3693 H 368.422 0.314365 3.90537 0
M  V30 3694 H 370.119 0.703395 3.94783 0
M  V30 3695 H 366.709 2.11966 3.72516 0
M  V30 3696 H 370.893 3.0871 3.88603 0
M  V30 3697 H 366.149 4.47157 4.16966 0
M  V30 3698 H 370.323 5.44348 4.34348 0
M  V30 3699 H 367.95 6.1405 4.48159 0
M  V30 3700 N 369.525 -1.3858 0.750561 0
M  V30 3701 C 370.941 -1.53759 0.427824 0
M  V30 3702 C 371.141 -1.71401 -1.05943 0
M  V30 3703 O 370.197 -1.72331 -1.84549 0
M  V30 3704 C 371.51 -2.74642 1.22443 0
M  V30 3705 C 373.058 -2.88489 1.2142 0
M  V30 3706 C 373.533 -4.12329 1.9937 0
M  V30 3707 N 375.024 -4.194 1.96616 0
M  V30 3708 C 375.759 -5.14209 2.53727 0
M  V30 3709 N 375.255 -6.14709 3.19539 0
M  V30 3710 N 377.048 -5.06537 2.43673 0
M  V30 3711 H 369.199 -1.25377 1.71447 0
M  V30 3712 H 371.462 -0.608844 0.726645 0
M  V30 3713 H 371.168 -2.68 2.27747 0
M  V30 3714 H 371.042 -3.67745 0.839273 0
M  V30 3715 H 373.429 -2.94614 0.169232 0
M  V30 3716 H 373.51 -1.96406 1.63885 0
M  V30 3717 H 373.154 -4.06966 3.03877 0
M  V30 3718 H 373.084 -5.03486 1.54302 0
M  V30 3719 H 375.575 -3.47421 1.48684 0
M  V30 3720 H 375.888 -6.8354 3.60545 0
M  V30 3721 H 374.233 -6.1505 3.23633 0
M  V30 3722 H 377.424 -4.26962 1.91889 0
M  V30 3723 H 377.597 -5.80245 2.88479 0
M  V30 3724 N 371.003 -0.499398 -1.49478 0
M  V30 3725 C 372.228 0.044722 -2.07352 0
M  V30 3726 C 372.653 1.30207 -1.35749 0
M  V30 3727 O 372.011 1.76516 -0.413732 0
M  V30 3728 C 372.059 0.283013 -3.59488 0
M  V30 3729 O 371.163 1.35804 -3.89398 0
M  V30 3730 H 370.504 -0.0255147 -0.66351 0
M  V30 3731 H 373.034 -0.698561 -1.92305 0
M  V30 3732 H 373.044 0.515007 -4.04737 0
M  V30 3733 H 371.719 -0.635636 -4.11014 0
M  V30 3734 H 370.296 1.11113 -3.55961 0
M  V30 3735 N 372.481 1.55866 -0.233164 0
M  V30 3736 C 373.411 2.23783 0.666599 0
M  V30 3737 C 374.392 1.21343 1.19205 0
M  V30 3738 O 375.577 1.4996 1.23392 0
M  V30 3739 C 372.707 2.92671 1.86978 0
M  V30 3740 C 371.661 4.01682 1.47768 0
M  V30 3741 C 370.987 4.57926 2.76058 0
M  V30 3742 C 372.287 5.18126 0.658993 0
M  V30 3743 H 373.981 2.99232 0.100306 0
M  V30 3744 H 371.527 1.43924 0.046804 0
M  V30 3745 H 373.48 3.3888 2.50476 0
M  V30 3746 H 372.204 2.14688 2.46123 0
M  V30 3747 H 370.863 3.56222 0.866106 0
M  V30 3748 H 370.511 3.76659 3.33372 0
M  V30 3749 H 370.211 5.31505 2.50552 0
M  V30 3750 H 371.735 5.06859 3.40479 0
M  V30 3751 H 373.149 5.60644 1.19795 0
M  V30 3752 H 371.546 5.98009 0.500552 0
M  V30 3753 H 372.616 4.83763 -0.331856 0
M  V30 3754 N 373.959 -0.0401083 1.57549 0
M  V30 3755 C 374.889 -1.04384 2.08869 0
M  V30 3756 C 375.87 -1.38407 0.988817 0
M  V30 3757 O 377.055 -1.47483 1.26342 0
M  V30 3758 C 374.185 -2.34808 2.55895 0
M  V30 3759 C 373.139 -2.15057 3.70047 0
M  V30 3760 C 372.465 -3.51145 4.03239 0
M  V30 3761 C 373.765 -1.54576 4.98902 0
M  V30 3762 H 375.459 -0.616666 2.92981 0
M  V30 3763 H 373.005 -0.295184 1.40942 0
M  V30 3764 H 374.958 -3.05346 2.90417 0
M  V30 3765 H 373.682 -2.79565 1.68853 0
M  V30 3766 H 372.341 -1.46954 3.35857 0
M  V30 3767 H 371.989 -3.93529 3.13279 0
M  V30 3768 H 371.689 -3.38758 4.80122 0
M  V30 3769 H 373.213 -4.23062 4.40285 0
M  V30 3770 H 374.627 -2.15017 5.31451 0
M  V30 3771 H 373.024 -1.52796 5.80322 0
M  V30 3772 H 374.094 -0.51039 4.82206 0
M  V30 3773 N 375.437 -1.54477 -0.31217 0
M  V30 3774 C 376.686 -1.72438 -1.04633 0
M  V30 3775 C 376.999 -0.511163 -1.88803 0
M  V30 3776 O 378.205 -0.572341 -2.65399 0
M  V30 3777 C 376.661 -3.05043 -1.9099 0
M  V30 3778 C 376.269 -4.33806 -1.11877 0
M  V30 3779 C 378.013 -3.32364 -2.64073 0
M  V30 3780 C 375.92 -5.57467 -1.97445 0
M  V30 3781 H 374.85 -0.642647 -0.394361 0
M  V30 3782 H 377.501 -1.80966 -0.303929 0
M  V30 3783 H 375.883 -2.90451 -2.69173 0
M  V30 3784 H 377.057 -4.59199 -0.383843 0
M  V30 3785 H 375.372 -4.13336 -0.504252 0
M  V30 3786 H 377.969 -4.21951 -3.28423 0
M  V30 3787 H 378.312 -2.50745 -3.32314 0
M  V30 3788 H 378.845 -3.47875 -1.92944 0
M  V30 3789 H 375.584 -6.41722 -1.33692 0
M  V30 3790 H 375.104 -5.36277 -2.6864 0
M  V30 3791 H 376.783 -5.94303 -2.5576 0
M  V30 3792 N 376.915 0.57481 -1.46744 0
M  V30 3793 C 377.863 1.70435 -1.58286 0
M  V30 3794 C 378.857 1.63287 -0.450956 0
M  V30 3795 O 380.063 1.68685 -0.628121 0
M  V30 3796 H 376.438 0.56364 -0.497809 0
M  V30 3797 H 378.409 1.57833 -2.53242 0
M  V30 3798 C 377.158 3.08815 -1.59776 0
M  V30 3799 H 376.481 3.1499 -2.46214 0
M  V30 3800 H 377.921 3.87588 -1.71905 0
M  V30 3801 C 376.38 3.35301 -0.327812 0
M  V30 3802 O 376.91 3.97511 0.57861 0
M  V30 3803 N 375.116 2.89816 -0.213274 0
M  V30 3804 H 374.663 2.39371 -0.951798 0
M  V30 3805 H 374.621 3.0791 0.63553 0
M  V30 3806 N 378.394 1.34581 0.820102 0
M  V30 3807 C 379.357 1.2628 1.91275 0
M  V30 3808 C 380.357 0.177344 1.59819 0
M  V30 3809 O 381.547 0.430156 1.68806 0
M  V30 3810 C 378.679 0.950327 3.27386 0
M  V30 3811 H 379.872 2.23421 2.00057 0
M  V30 3812 H 377.425 1.1891 1.0144 0
M  V30 3813 H 378.16 -0.0177938 3.24295 0
M  V30 3814 H 377.945 1.73549 3.51601 0
M  V30 3815 H 379.435 0.917492 4.07396 0
M  V30 3816 N 379.872 -1.04064 1.18357 0
M  V30 3817 C 381.118 -1.77528 0.980397 0
M  V30 3818 C 381.451 -1.87948 -0.48879 0
M  V30 3819 O 380.726 -1.3876 -1.36293 0
M  V30 3820 C 381.009 -3.20797 1.63588 0
M  V30 3821 C 380.862 -3.1832 3.17793 0
M  V30 3822 C 382.181 -4.18911 1.34914 0
M  V30 3823 H 379.3 -0.644443 0.357578 0
M  V30 3824 H 381.942 -1.2156 1.46024 0
M  V30 3825 H 380.092 -3.68586 1.22788 0
M  V30 3826 H 381.764 -2.78521 3.67728 0
M  V30 3827 H 380.007 -2.56351 3.49952 0
M  V30 3828 H 380.678 -4.19489 3.58794 0
M  V30 3829 H 383.154 -3.7967 1.70265 0
M  V30 3830 H 382.03 -5.17374 1.83346 0
M  V30 3831 H 382.291 -4.41262 0.272027 0
M  V30 3832 N 381.35 -0.985608 -1.22978 0
M  V30 3833 C 382.26 -0.538548 -2.28335 0
M  V30 3834 C 383.276 0.409163 -1.69121 0
M  V30 3835 O 384.452 0.277797 -1.99475 0
M  V30 3836 C 381.517 0.146867 -3.46389 0
M  V30 3837 C 380.578 -0.842896 -4.20944 0
M  V30 3838 C 379.811 -0.190095 -5.33361 0
M  V30 3839 O 380.034 1.01767 -5.61248 0
M  V30 3840 O 378.968 -0.891289 -5.95264 0
M  V30 3841 H 382.794 -1.41487 -2.68729 0
M  V30 3842 H 380.379 -0.753495 -1.29007 0
M  V30 3843 H 382.261 0.531125 -4.1804 0
M  V30 3844 H 380.936 0.997871 -3.07935 0
M  V30 3845 H 379.843 -1.27795 -3.51595 0
M  V30 3846 H 381.176 -1.66287 -4.6326 0
M  V30 3847 N 382.828 1.3818 -0.7579 0
M  V30 3848 C 383.791 2.28764 -0.141286 0
M  V30 3849 C 384.791 1.47388 0.642907 0
M  V30 3850 O 385.981 1.67781 0.468536 0
M  V30 3851 C 383.113 3.31184 0.808069 0
M  V30 3852 H 384.306 2.848 -0.939633 0
M  V30 3853 H 381.859 1.47212 -0.525191 0
M  V30 3854 H 382.594 2.80247 1.63193 0
M  V30 3855 H 382.379 3.91314 0.248104 0
M  V30 3856 H 383.869 3.98909 1.23536 0
M  V30 3857 N 384.306 0.507319 1.49211 0
M  V30 3858 C 385.531 -0.033725 2.07373 0
M  V30 3859 C 385.956 -1.29485 1.36437 0
M  V30 3860 O 385.314 -1.76294 0.423087 0
M  V30 3861 C 385.362 -0.263945 3.59633 0
M  V30 3862 O 384.466 -1.33737 3.90113 0
M  V30 3863 H 383.807 0.0290331 0.663365 0
M  V30 3864 H 386.337 0.708749 1.91932 0
M  V30 3865 H 386.347 -0.493536 4.05004 0
M  V30 3866 H 385.022 0.657424 4.10671 0
M  V30 3867 H 383.599 -1.09224 3.56545 0
M  V30 3868 N 385.784 -1.5574 0.241426 0
M  V30 3869 C 387.024 -2.00714 -0.38644 0
M  V30 3870 C 387.388 -1.12586 -1.55526 0
M  V30 3871 O 388.589 -1.46992 -2.25048 0
M  V30 3872 C 386.86 -3.48534 -0.791128 0
M  V30 3873 S 388.419 -4.15519 -1.41029 0
M  V30 3874 H 385.237 -0.700484 -0.121834 0
M  V30 3875 H 387.839 -1.92243 0.355377 0
M  V30 3876 H 386.543 -4.10342 0.0689225 0
M  V30 3877 H 386.074 -3.6092 -1.56526 0
M  V30 3878 H 388.089 -4.16352 -2.69936 0
M  V30 3879 N 387.262 0.0317525 -1.57568 0
M  V30 3880 C 388.511 0.722131 -1.8833 0
M  V30 3881 C 388.824 1.76664 -0.839587 0
M  V30 3882 O 390.03 2.50942 -1.03635 0
M  V30 3883 C 388.486 1.33544 -3.34207 0
M  V30 3884 C 388.094 0.327415 -4.46802 0
M  V30 3885 C 389.838 2.00585 -3.7412 0
M  V30 3886 C 387.745 0.948915 -5.83738 0
M  V30 3887 H 386.675 0.273466 -0.702661 0
M  V30 3888 H 389.326 -0.0235811 -1.83485 0
M  V30 3889 H 387.708 2.13077 -3.33788 0
M  V30 3890 H 388.882 -0.441006 -4.58685 0
M  V30 3891 H 387.197 -0.240758 -4.15703 0
M  V30 3892 H 389.794 2.47932 -4.73744 0
M  V30 3893 H 390.137 2.82285 -3.05975 0
M  V30 3894 H 390.67 1.27831 -3.76702 0
M  V30 3895 H 387.409 0.171387 -6.55276 0
M  V30 3896 H 386.929 1.68724 -5.7558 0
M  V30 3897 H 388.608 1.45705 -6.3038 0
M  V30 3898 N 388.74 1.54641 0.303973 0
M  V30 3899 C 390.156 1.45788 0.649463 0
M  V30 3900 C 390.356 0.64666 1.90842 0
M  V30 3901 O 389.412 0.153183 2.52035 0
M  V30 3902 C 390.725 2.89718 0.805227 0
M  V30 3903 C 392.273 2.99742 0.901305 0
M  V30 3904 C 392.748 4.44863 1.08909 0
M  V30 3905 N 394.239 4.48559 1.15536 0
M  V30 3906 C 394.974 5.58026 1.3189 0
M  V30 3907 N 394.47 6.77422 1.45161 0
M  V30 3908 N 396.263 5.45708 1.34755 0
M  V30 3909 H 388.414 2.05854 -0.523237 0
M  V30 3910 H 390.677 0.932186 -0.172431 0
M  V30 3911 H 390.383 3.51666 -0.0489108 0
M  V30 3912 H 390.257 3.36964 1.69513 0
M  V30 3913 H 392.644 2.3791 1.74593 0
M  V30 3914 H 392.725 2.55797 -0.0125531 0
M  V30 3915 H 392.369 5.07288 0.249241 0
M  V30 3916 H 392.299 4.86436 2.01713 0
M  V30 3917 H 394.79 3.6254 1.06646 0
M  V30 3918 H 395.103 7.56604 1.57387 0
M  V30 3919 H 393.448 6.80292 1.42223 0
M  V30 3920 H 396.639 4.51378 1.23996 0
M  V30 3921 H 396.812 6.3107 1.47157 0
M  V30 3922 N 390.218 -0.567019 1.47046 0
M  V30 3923 C 391.446 -1.35027 1.56765 0
M  V30 3924 C 391.861 -1.8758 0.214316 0
M  V30 3925 O 391.218 -1.64471 -0.790919 0
M  V30 3926 C 391.269 -2.52698 2.58507 0
M  V30 3927 O 390.99 -2.0232 3.88585 0
M  V30 3928 C 392.491 -3.45043 2.78316 0
M  V30 3929 H 389.711 -0.41195 0.529658 0
M  V30 3930 H 392.255 -0.687832 1.92585 0
M  V30 3931 H 390.41 -3.149 2.25648 0
M  V30 3932 H 390.824 -2.79068 4.44096 0
M  V30 3933 H 392.298 -4.2405 3.53391 0
M  V30 3934 H 392.775 -3.97971 1.85784 0
M  V30 3935 H 393.381 -2.88665 3.12334 0
M  V30 3936 N 391.696 -1.35014 -0.812953 0
M  V30 3937 C 393.112 -1.14914 -1.10757 0
M  V30 3938 C 393.312 0.0426818 -2.01455 0
M  V30 3939 O 392.368 0.715212 -2.42159 0
M  V30 3940 C 393.681 -2.44911 -1.74468 0
M  V30 3941 C 395.229 -2.5106 -1.86917 0
M  V30 3942 C 395.704 -3.81085 -2.54044 0
M  V30 3943 N 397.195 -3.82301 -2.61535 0
M  V30 3944 C 397.93 -4.79634 -3.14227 0
M  V30 3945 N 397.426 -5.87353 -3.67407 0
M  V30 3946 N 399.219 -4.67078 -3.12721 0
M  V30 3947 H 391.37 -2.1136 -0.20989 0
M  V30 3948 H 393.633 -0.935128 -0.155692 0
M  V30 3949 H 393.339 -3.32267 -1.15289 0
M  V30 3950 H 393.213 -2.58989 -2.74234 0
M  V30 3951 H 395.6 -1.64137 -2.45241 0
M  V30 3952 H 395.681 -2.40901 -0.860242 0
M  V30 3953 H 395.325 -4.68402 -1.96372 0
M  V30 3954 H 395.255 -3.88529 -3.55461 0
M  V30 3955 H 397.746 -3.04465 -2.23851 0
M  V30 3956 H 398.059 -6.57624 -4.05894 0
M  V30 3957 H 396.404 -5.91054 -3.65623 0
M  V30 3958 H 399.595 -3.82067 -2.70449 0
M  V30 3959 H 399.768 -5.43098 -3.53481 0
M  V30 3960 N 393.175 1.03435 -1.18907 0
M  V30 3961 C 394.085 2.15075 -0.937015 0
M  V30 3962 C 395.101 1.73706 0.101085 0
M  V30 3963 O 396.277 2.01232 -0.0822948 0
M  V30 3964 C 393.342 3.43458 -0.473057 0
M  V30 3965 C 392.403 3.99172 -1.57989 0
M  V30 3966 C 391.636 5.21427 -1.13797 0
M  V30 3967 O 391.859 5.704 0.000725941 0
M  V30 3968 O 390.793 5.69837 -1.9383 0
M  V30 3969 H 394.619 2.39198 -1.87131 0
M  V30 3970 H 392.204 1.13506 -0.971427 0
M  V30 3971 H 394.086 4.20811 -0.222702 0
M  V30 3972 H 392.761 3.20793 0.432869 0
M  V30 3973 H 391.668 3.23178 -1.88433 0
M  V30 3974 H 393.001 4.2619 -2.46217 0
M  V30 3975 N 394.653 0.992116 1.22453 0
M  V30 3976 C 395.583 0.561677 2.26644 0
M  V30 3977 C 396.564 -0.411055 1.65059 0
M  V30 3978 O 397.749 -0.301861 1.9184 0
M  V30 3979 C 394.879 -0.125247 3.47074 0
M  V30 3980 C 393.833 0.765948 4.21091 0
M  V30 3981 C 393.159 -0.0538484 5.34673 0
M  V30 3982 C 394.459 2.06242 4.79856 0
M  V30 3983 H 396.153 1.43259 2.62902 0
M  V30 3984 H 393.699 0.690283 1.26377 0
M  V30 3985 H 395.652 -0.437764 4.1912 0
M  V30 3986 H 394.376 -1.03069 3.0991 0
M  V30 3987 H 393.035 1.0621 3.50878 0
M  V30 3988 H 392.683 -0.960188 4.9375 0
M  V30 3989 H 392.383 0.539415 5.85119 0
M  V30 3990 H 393.907 -0.360477 6.09535 0
M  V30 3991 H 395.321 1.8139 5.43848 0
M  V30 3992 H 393.718 2.60444 5.40638 0
M  V30 3993 H 394.788 2.74167 3.99951 0
M  V30 3994 N 396.131 -1.37776 0.765217 0
M  V30 3995 C 397.063 -2.28958 0.105361 0
M  V30 3996 C 398.076 -1.48316 -0.67128 0
M  V30 3997 O 399.265 -1.71046 -0.51045 0
M  V30 3998 C 396.365 -3.27421 -0.874569 0
M  V30 3999 C 395.538 -4.37132 -0.153123 0
M  V30 4000 C 394.597 -5.1571 -1.04547 0
M  V30 4001 O 393.623 -5.66896 -0.511672 0
M  V30 4002 N 394.825 -5.29808 -2.37243 0
M  V30 4003 H 397.59 -2.86227 0.888495 0
M  V30 4004 H 395.151 -1.49682 0.617 0
M  V30 4005 H 397.143 -3.7687 -1.47483 0
M  V30 4006 H 395.713 -2.70967 -1.55871 0
M  V30 4007 H 394.933 -3.89166 0.627975 0
M  V30 4008 H 396.221 -5.07625 0.345643 0
M  V30 4009 H 395.619 -4.89793 -2.83054 0
M  V30 4010 H 394.176 -5.82589 -2.9229 0
M  V30 4011 N 397.609 -0.515225 -1.4894 0
M  V30 4012 C 398.834 0.022727 -2.07388 0
M  V30 4013 C 399.259 1.2876 -1.37122 0
M  V30 4014 O 398.617 1.76067 -0.432431 0
M  V30 4015 C 398.665 0.244869 -3.59768 0
M  V30 4016 O 397.769 1.31667 -3.90817 0
M  V30 4017 H 397.11 -0.0325506 -0.663202 0
M  V30 4018 H 399.64 -0.718918 -1.91553 0
M  V30 4019 H 399.65 0.47205 -4.0526 0
M  V30 4020 H 398.325 -0.679194 -4.10317 0
M  V30 4021 H 396.902 1.07331 -3.5712 0
M  V30 4022 N 399.087 1.5561 -0.249682 0
M  V30 4023 C 400.02 2.17537 0.689408 0
M  V30 4024 C 400.998 1.12829 1.17083 0
M  V30 4025 O 402.182 1.41229 1.24846 0
M  V30 4026 C 399.309 2.77828 1.93725 0
M  V30 4027 C 398.355 3.95615 1.59346 0
M  V30 4028 S 399.188 5.30988 0.69367 0
M  V30 4029 C 400.344 5.94734 1.95046 0
M  V30 4030 H 400.577 2.96852 0.163142 0
M  V30 4031 H 398.11 1.54362 -0.0341166 0
M  V30 4032 H 400.068 3.13199 2.65361 0
M  V30 4033 H 398.729 1.98454 2.43465 0
M  V30 4034 H 397.922 4.364 2.52132 0
M  V30 4035 H 397.524 3.61535 0.957512 0
M  V30 4036 H 399.816 6.12419 2.89739 0
M  V30 4037 H 400.759 6.90109 1.58604 0
M  V30 4038 H 401.167 5.23832 2.10381 0
M  V30 4039 N 400.565 -0.0233959 1.57583 0
M  V30 4040 C 401.528 -1.00693 2.05897 0
M  V30 4041 C 402.528 -1.28693 0.964092 0
M  V30 4042 O 403.718 -1.23602 1.22753 0
M  V30 4043 C 400.85 -2.33825 2.4807 0
M  V30 4044 H 402.043 -0.589476 2.9405 0
M  V30 4045 H 399.596 -0.270354 1.53944 0
M  V30 4046 H 400.331 -2.80307 1.6309 0
M  V30 4047 H 400.116 -2.1483 3.2801 0
M  V30 4048 H 401.606 -3.04426 2.85857 0
M  V30 4049 N 402.043 -1.548 -0.295768 0
M  V30 4050 C 403.32 -1.65014 -1.05023 0
M  V30 4051 C 403.7 -0.501805 -2.05049 0
M  V30 4052 O 403.048 0.500869 -2.22943 0
M  V30 4053 C 403.258 -3.03252 -1.72741 0
M  V30 4054 C 404.606 -3.60242 -2.24746 0
M  V30 4055 O 405.63 -3.05737 -1.82765 0
M  V30 4056 O 404.489 -4.55687 -3.01681 0
M  V30 4057 H 401.583 -0.669314 -0.485744 0
M  V30 4058 H 404.129 -1.67144 -0.293438 0
M  V30 4059 H 402.901 -3.7827 -1.00138 0
M  V30 4060 H 402.524 -3.04922 -2.55163 0
M  V30 4061 N 403.521 0.559213 -1.47345 0
M  V30 4062 C 404.453 1.68161 -1.55738 0
M  V30 4063 C 405.466 1.56636 -0.443744 0
M  V30 4064 O 406.655 1.6363 -0.713258 0
M  V30 4065 C 403.755 3.06611 -1.4437 0
M  V30 4066 C 402.928 3.4391 -2.70268 0
M  V30 4067 C 401.987 4.61515 -2.52765 0
M  V30 4068 O 401.013 4.66197 -3.26572 0
M  V30 4069 N 402.215 5.57883 -1.6046 0
M  V30 4070 H 404.98 1.61408 -2.52522 0
M  V30 4071 H 402.541 0.7458 -1.43699 0
M  V30 4072 H 404.533 3.83117 -1.30398 0
M  V30 4073 H 403.103 3.07602 -0.556766 0
M  V30 4074 H 402.323 2.56873 -2.99015 0
M  V30 4075 H 403.611 3.65605 -3.53851 0
M  V30 4076 H 403.009 5.56855 -0.996422 0
M  V30 4077 H 401.566 6.33723 -1.52441 0
M  V30 4078 N 404.999 1.35443 0.805782 0
M  V30 4079 C 405.909 1.30546 1.94923 0
M  V30 4080 C 406.925 0.210233 1.72725 0
M  V30 4081 O 408.101 0.43975 1.9654 0
M  V30 4082 C 405.166 1.07782 3.29521 0
M  V30 4083 C 404.227 2.26625 3.64609 0
M  V30 4084 C 403.46 2.04938 4.92784 0
M  V30 4085 O 403.683 1.01624 5.61274 0
M  V30 4086 O 402.617 2.9232 5.26149 0
M  V30 4087 H 406.443 2.26779 2.02002 0
M  V30 4088 H 404.028 1.15823 0.943682 0
M  V30 4089 H 405.91 0.969392 4.10098 0
M  V30 4090 H 404.585 0.146003 3.23371 0
M  V30 4091 H 403.492 2.43033 2.84404 0
M  V30 4092 H 404.825 3.18257 3.75464 0
M  V30 4093 N 406.477 -1.02803 1.19454 0
M  V30 4094 C 407.424 -2.11099 0.933046 0
M  V30 4095 C 408.394 -1.65571 -0.132447 0
M  V30 4096 O 409.579 -1.90797 0.00987576 0
M  V30 4097 C 406.719 -3.41763 0.478747 0
M  V30 4098 C 405.832 -4.00833 1.6111 0
M  V30 4099 C 404.967 -5.19511 1.10825 0
M  V30 4100 C 404.006 -5.70639 2.21445 0
M  V30 4101 N 403.143 -6.80589 1.72461 0
M  V30 4102 H 407.983 -2.32804 1.86028 0
M  V30 4103 H 405.52 -1.14179 0.927441 0
M  V30 4104 H 407.478 -4.16736 0.196745 0
M  V30 4105 H 406.108 -3.20166 -0.411493 0
M  V30 4106 H 405.16 -3.23066 2.00829 0
M  V30 4107 H 406.472 -4.34794 2.4445 0
M  V30 4108 H 405.626 -6.01645 0.781533 0
M  V30 4109 H 404.365 -4.87086 0.244606 0
M  V30 4110 H 403.37 -4.87116 2.54947 0
M  V30 4111 H 404.595 -6.05102 3.08267 0
M  V30 4112 H 402.541 -6.50016 0.884056 0
M  V30 4113 H 402.458 -7.13681 2.49389 0
M  V30 4114 H 403.726 -7.66317 1.42755 0
M  V30 4115 N 407.956 -0.998596 -1.21925 0
M  V30 4116 C 409.205 -0.673085 -1.90138 0
M  V30 4117 C 409.518 0.79895 -1.78539 0
M  V30 4118 O 410.724 1.23628 -2.4172 0
M  V30 4119 C 409.18 -1.15339 -3.40918 0
M  V30 4120 C 408.788 -2.65106 -3.61141 0
M  V30 4121 C 410.532 -0.902476 -4.14796 0
M  V30 4122 C 408.439 -3.0671 -5.05651 0
M  V30 4123 H 407.369 -0.248057 -0.712028 0
M  V30 4124 H 410.02 -1.20891 -1.38049 0
M  V30 4125 H 408.402 -0.545658 -3.92223 0
M  V30 4126 H 409.576 -3.31274 -3.20304 0
M  V30 4127 H 407.891 -2.88142 -3.00605 0
M  V30 4128 H 410.488 -1.18895 -5.21314 0
M  V30 4129 H 410.831 0.161349 -4.15987 0
M  V30 4130 H 411.364 -1.47269 -3.69536 0
M  V30 4131 H 408.103 -4.12292 -5.09603 0
M  V30 4132 H 407.623 -2.45249 -5.47369 0
M  V30 4133 H 409.302 -2.9833 -5.74115 0
M  V30 4134 N 409.434 1.37368 -0.772513 0
M  V30 4135 C 410.659 2.0447 -0.347386 0
M  V30 4136 C 411.084 1.57882 1.0225 0
M  V30 4137 O 410.442 0.73941 1.65537 0
M  V30 4138 C 410.49 3.58369 -0.400479 0
M  V30 4139 O 409.594 4.0803 0.598789 0
M  V30 4140 H 408.935 0.646773 -0.15027 0
M  V30 4141 H 411.465 1.75667 -1.04892 0
M  V30 4142 H 411.475 4.07183 -0.258045 0
M  V30 4143 H 410.15 3.91633 -1.39986 0
M  V30 4144 H 408.727 3.70534 0.419411 0
M  V30 4145 N 410.912 0.523116 1.48665 0
M  V30 4146 C 412.323 0.0808997 1.86525 0
M  V30 4147 C 412.674 -1.33975 1.43336 0
M  V30 4148 O 411.799 -2.00221 0.821009 0
M  V30 4149 C 412.394 0.140037 3.3851 0
M  V30 4150 C 410.953 -0.246948 3.75589 0
M  V30 4151 C 410.1 0.502845 2.72703 0
M  V30 4152 H 413.051 0.734736 1.40667 0
M  V30 4153 H 413.072 -0.649945 3.74908 0
M  V30 4154 H 412.584 1.17412 3.69914 0
M  V30 4155 H 410.685 -1.28343 3.49798 0
M  V30 4156 H 410.798 0.0878859 4.79019 0
M  V30 4157 H 409.162 -0.0500581 2.54651 0
M  V30 4158 H 409.945 1.53743 3.0695 0
M  V30 4159 N 412.39 -1.55475 0.257931 0
M  V30 4160 C 413.353 -2.20551 -0.623706 0
M  V30 4161 C 414.353 -1.17809 -1.09443 0
M  V30 4162 O 415.543 -1.42823 -0.997362 0
M  V30 4163 C 412.675 -2.85784 -1.8585 0
M  V30 4164 H 413.868 -2.99848 -0.0557743 0
M  V30 4165 H 411.421 -1.56298 0.0084422 0
M  V30 4166 H 412.156 -2.10453 -2.46739 0
M  V30 4167 H 411.941 -3.61057 -1.52907 0
M  V30 4168 H 413.431 -3.35553 -2.48584 0
M  V30 4169 N 413.868 0.0150385 -1.57593 0
M  V30 4170 C 414.831 0.995996 -2.06428 0
M  V30 4171 C 415.831 1.2818 -0.970903 0
M  V30 4172 O 417.021 1.22949 -1.23406 0
M  V30 4173 C 414.153 2.32506 -2.49307 0
M  V30 4174 H 415.346 0.573873 -2.94358 0
M  V30 4175 H 412.899 0.262186 -1.54085 0
M  V30 4176 H 413.634 2.79438 -1.64575 0
M  V30 4177 H 413.419 2.13087 -3.29145 0
M  V30 4178 H 414.909 3.02906 -2.87468 0
M  V30 4179 N 415.346 1.54954 0.287554 0
M  V30 4180 C 416.276 1.89839 1.35954 0
M  V30 4181 C 417.257 0.758675 1.52244 0
M  V30 4182 O 418.442 1.01557 1.65529 0
M  V30 4183 C 415.572 2.15753 2.72154 0
M  V30 4184 C 414.526 3.3159 2.70614 0
M  V30 4185 C 413.852 3.42952 4.10229 0
M  V30 4186 C 415.152 4.68359 2.31165 0
M  V30 4187 H 416.846 2.79625 1.07007 0
M  V30 4188 H 414.392 1.3454 0.513316 0
M  V30 4189 H 416.345 2.38743 3.47246 0
M  V30 4190 H 415.069 1.22752 3.02654 0
M  V30 4191 H 413.728 3.08545 1.97979 0
M  V30 4192 H 413.376 2.47443 4.37928 0
M  V30 4193 H 413.076 4.20826 4.10097 0
M  V30 4194 H 414.6 3.68218 4.87081 0
M  V30 4195 H 416.014 4.9099 2.95976 0
M  V30 4196 H 414.411 5.49044 2.42221 0
M  V30 4197 H 415.481 4.68165 1.26291 0
M  V30 4198 N 416.824 -0.551391 1.4764 0
M  V30 4199 C 417.771 -1.65796 1.60563 0
M  V30 4200 C 418.741 -1.59932 0.448428 0
M  V30 4201 O 419.926 -1.78679 0.669222 0
M  V30 4202 C 417.066 -3.04108 1.63133 0
M  V30 4203 C 416.179 -3.20365 2.89811 0
M  V30 4204 C 415.314 -4.49109 2.8368 0
M  V30 4205 C 414.353 -4.58819 4.05156 0
M  V30 4206 N 413.49 -5.78926 3.97227 0
M  V30 4207 H 418.33 -1.54088 2.5507 0
M  V30 4208 H 415.867 -0.75052 1.26513 0
M  V30 4209 H 417.825 -3.84207 1.62606 0
M  V30 4210 H 416.455 -3.14637 0.721341 0
M  V30 4211 H 415.507 -2.33659 3.00179 0
M  V30 4212 H 416.819 -3.23402 3.79753 0
M  V30 4213 H 415.973 -5.37475 2.81434 0
M  V30 4214 H 414.712 -4.4856 1.91431 0
M  V30 4215 H 413.717 -3.68864 4.077 0
M  V30 4216 H 414.942 -4.61124 4.98539 0
M  V30 4217 H 412.888 -5.79314 3.07785 0
M  V30 4218 H 412.805 -5.83367 4.80853 0
M  V30 4219 H 414.073 -6.69637 3.99007 0
M  V30 4220 N 418.302 -1.35869 -0.798587 0
M  V30 4221 C 419.249 -1.29446 -1.91082 0
M  V30 4222 C 420.219 -0.16487 -1.6528 0
M  V30 4223 O 421.404 -0.349888 -1.87564 0
M  V30 4224 C 418.544 -1.0804 -3.27752 0
M  V30 4225 C 417.657 -2.29993 -3.65687 0
M  V30 4226 C 416.792 -2.01673 -4.91428 0
M  V30 4227 C 415.831 -3.19636 -5.22015 0
M  V30 4228 N 414.968 -2.91039 -6.38937 0
M  V30 4229 H 419.808 -2.24553 -1.95907 0
M  V30 4230 H 417.345 -1.11615 -0.958148 0
M  V30 4231 H 419.303 -0.936586 -4.06551 0
M  V30 4232 H 417.933 -0.16592 -3.22373 0
M  V30 4233 H 416.985 -2.55211 -2.82085 0
M  V30 4234 H 418.297 -3.18052 -3.84245 0
M  V30 4235 H 417.451 -1.84168 -5.78072 0
M  V30 4236 H 416.19 -1.10911 -4.74921 0
M  V30 4237 H 415.195 -3.37709 -4.33858 0
M  V30 4238 H 416.42 -4.11211 -5.40447 0
M  V30 4239 H 414.366 -2.0288 -6.2384 0
M  V30 4240 H 414.283 -3.72635 -6.57784 0
M  V30 4241 H 415.551 -2.77093 -7.28587 0
M  V30 4242 N 419.78 1.02168 -1.19998 0
M  V30 4243 C 421.008 1.79296 -1.03249 0
M  V30 4244 C 421.423 1.84103 0.418502 0
M  V30 4245 O 420.78 1.29031 1.29063 0
M  V30 4246 C 420.831 3.24007 -1.60319 0
M  V30 4247 O 420.552 3.19512 -2.99739 0
M  V30 4248 C 422.053 4.17704 -1.48453 0
M  V30 4249 H 419.273 0.564016 -0.363493 0
M  V30 4250 H 421.817 1.28639 -1.58973 0
M  V30 4251 H 419.972 3.7183 -1.08727 0
M  V30 4252 H 420.386 4.10306 -3.26725 0
M  V30 4253 H 421.86 5.17104 -1.93153 0
M  V30 4254 H 422.337 4.37029 -0.436193 0
M  V30 4255 H 422.943 3.7576 -1.99211 0
M  V30 4256 N 421.258 1.00505 1.21394 0
M  V30 4257 C 422.188 0.585684 2.26035 0
M  V30 4258 C 423.169 -0.393525 1.65485 0
M  V30 4259 O 424.354 -0.281497 1.92149 0
M  V30 4260 C 421.484 -0.0884283 3.47187 0
M  V30 4261 C 420.438 0.810567 4.20254 0
M  V30 4262 C 419.764 0.00286382 5.347 0
M  V30 4263 C 421.064 2.1132 4.77641 0
M  V30 4264 H 422.758 1.46039 2.61368 0
M  V30 4265 H 420.304 0.703648 1.25638 0
M  V30 4266 H 422.257 -0.393286 4.19561 0
M  V30 4267 H 420.981 -0.997766 3.10986 0
M  V30 4268 H 419.64 1.09925 3.49731 0
M  V30 4269 H 419.288 -0.907765 4.94741 0
M  V30 4270 H 418.988 0.601444 5.84514 0
M  V30 4271 H 420.512 -0.295808 6.09883 0
M  V30 4272 H 421.926 1.87148 5.41893 0
M  V30 4273 H 420.323 2.66164 5.37845 0
M  V30 4274 H 421.393 2.78393 3.9702 0
M  V30 4275 N 422.737 -1.36956 0.779787 0
M  V30 4276 C 423.667 -2.32761 0.185651 0
M  V30 4277 C 424.648 -1.56177 -0.673989 0
M  V30 4278 O 425.833 -1.84378 -0.609797 0
M  V30 4279 C 422.963 -3.40418 -0.687964 0
M  V30 4280 C 421.917 -4.27941 0.0710102 0
M  V30 4281 C 421.243 -5.26681 -0.922573 0
M  V30 4282 C 422.543 -5.07006 1.25467 0
M  V30 4283 H 424.237 -2.82698 0.986008 0
M  V30 4284 H 421.783 -1.3592 0.475592 0
M  V30 4285 H 423.736 -4.06423 -1.11348 0
M  V30 4286 H 422.46 -2.89025 -1.52093 0
M  V30 4287 H 421.119 -3.63478 0.47739 0
M  V30 4288 H 420.767 -4.71565 -1.7503 0
M  V30 4289 H 420.467 -5.86103 -0.419237 0
M  V30 4290 H 421.991 -5.9556 -1.34686 0
M  V30 4291 H 423.405 -5.66105 0.905401 0
M  V30 4292 H 421.802 -5.75793 1.69063 0
M  V30 4293 H 422.872 -4.3921 2.05481 0
M  V30 4294 N 424.215 -0.530993 -1.48385 0
M  V30 4295 C 425.492 0.0671788 -1.95485 0
M  V30 4296 C 425.872 1.51191 -1.47324 0
M  V30 4297 O 425.22 2.17507 -0.700202 0
M  V30 4298 C 425.43 -0.0511206 -3.48963 0
M  V30 4299 C 426.778 0.107632 -4.24464 0
M  V30 4300 O 427.802 0.0226248 -3.56193 0
M  V30 4301 O 426.661 0.285972 -5.45751 0
M  V30 4302 H 423.755 0.0787365 -0.823243 0
M  V30 4303 H 426.301 -0.595662 -1.58902 0
M  V30 4304 H 425.073 -1.05747 -3.7674 0
M  V30 4305 H 424.696 0.650525 -3.92242 0
M  V30 4306 N 425.693 1.55336 -0.266172 0
M  V30 4307 C 427.109 1.59356 0.0882065 0
M  V30 4308 C 427.309 1.2834 1.55342 0
M  V30 4309 O 426.365 1.03996 2.30089 0
M  V30 4310 C 427.678 2.99409 -0.278364 0
M  V30 4311 C 429.226 3.12196 -0.224243 0
M  V30 4312 C 429.701 4.545 -0.565123 0
M  V30 4313 N 431.192 4.60313 -0.51634 0
M  V30 4314 C 431.927 5.68434 -0.753013 0
M  V30 4315 N 431.423 6.84738 -1.05383 0
M  V30 4316 N 433.216 5.57942 -0.682414 0
M  V30 4317 H 425.367 1.73764 -1.22147 0
M  V30 4318 H 427.63 0.809822 -0.492841 0
M  V30 4319 H 427.336 3.2691 -1.29703 0
M  V30 4320 H 427.21 3.75228 0.385186 0
M  V30 4321 H 429.597 2.84464 0.78512 0
M  V30 4322 H 429.678 2.38609 -0.921922 0
M  V30 4323 H 429.322 4.82956 -1.57213 0
M  V30 4324 H 429.252 5.26374 0.154248 0
M  V30 4325 H 431.743 3.7676 -0.29335 0
M  V30 4326 H 432.056 7.63088 -1.22133 0
M  V30 4327 H 430.401 6.86375 -1.09151 0
M  V30 4328 H 433.592 4.65958 -0.44731 0
M  V30 4329 H 433.765 6.4213 -0.870248 0
M  V30 4330 N 427.171 -0.0066808 1.57599 0
M  V30 4331 C 428.417 -0.693947 1.90558 0
M  V30 4332 C 428.75 -1.73792 0.866594 0
M  V30 4333 O 428.025 -1.94156 -0.115548 0
M  V30 4334 C 428.308 -1.34317 3.34112 0
M  V30 4335 C 428.161 -0.311189 4.48722 0
M  V30 4336 C 429.48 -2.27116 3.7697 0
M  V30 4337 H 426.599 -0.250803 0.693013 0
M  V30 4338 H 429.241 0.043242 1.89951 0
M  V30 4339 H 427.391 -1.9715 3.3476 0
M  V30 4340 H 429.063 0.316944 4.6021 0
M  V30 4341 H 427.306 0.367253 4.32243 0
M  V30 4342 H 427.977 -0.804366 5.46108 0
M  V30 4343 H 430.453 -1.74306 3.77831 0
M  V30 4344 H 429.329 -2.69511 4.78179 0
M  V30 4345 H 429.59 -3.14743 3.10466 0
M  V30 4346 N 428.649 -1.55105 -0.279332 0
M  V30 4347 C 429.596 -1.8755 -1.34513 0
M  V30 4348 C 430.566 -0.726384 -1.49375 0
M  V30 4349 O 431.751 -0.977063 -1.63884 0
M  V30 4350 C 428.891 -2.14738 -2.70151 0
M  V30 4351 C 428.004 -3.42285 -2.63562 0
M  V30 4352 C 427.139 -3.59206 -3.91337 0
M  V30 4353 C 426.178 -4.80467 -3.79233 0
M  V30 4354 N 425.315 -4.94079 -4.98829 0
M  V30 4355 H 430.155 -2.78456 -1.06143 0
M  V30 4356 H 427.692 -1.37867 -0.512936 0
M  V30 4357 H 429.65 -2.28501 -3.49061 0
M  V30 4358 H 428.28 -1.27075 -2.96735 0
M  V30 4359 H 427.332 -3.37029 -1.76397 0
M  V30 4360 H 428.644 -4.31328 -2.50515 0
M  V30 4361 H 427.798 -3.72751 -4.78687 0
M  V30 4362 H 426.537 -2.68337 -4.07243 0
M  V30 4363 H 425.542 -4.66932 -2.90266 0
M  V30 4364 H 426.767 -5.72765 -3.64852 0
M  V30 4365 H 424.713 -4.06139 -5.15158 0
M  V30 4366 H 424.63 -5.77156 -4.8829 0
M  V30 4367 H 425.898 -5.12003 -5.8777 0
M  V30 4368 N 430.127 0.543554 -1.4793 0
M  V30 4369 C 431.057 1.65888 -1.64327 0
M  V30 4370 C 432.038 1.62818 -0.492383 0
M  V30 4371 O 433.223 1.80226 -0.723338 0
M  V30 4372 C 430.353 3.04506 -1.67013 0
M  V30 4373 C 429.307 3.2243 -2.81466 0
M  V30 4374 C 428.633 4.61972 -2.69233 0
M  V30 4375 C 429.933 3.06496 -4.22915 0
M  V30 4376 H 431.627 1.52421 -2.57698 0
M  V30 4377 H 429.173 0.731849 -1.24016 0
M  V30 4378 H 431.126 3.82391 -1.77074 0
M  V30 4379 H 429.85 3.18964 -0.70212 0
M  V30 4380 H 428.509 2.46957 -2.70938 0
M  V30 4381 H 428.157 4.73247 -1.7043 0
M  V30 4382 H 427.857 4.74911 -3.46025 0
M  V30 4383 H 429.381 5.41974 -2.81242 0
M  V30 4384 H 430.795 3.74186 -4.34348 0
M  V30 4385 H 429.192 3.30938 -5.006 0
M  V30 4386 H 430.262 2.03077 -4.40327 0
M  V30 4387 N 431.605 1.3629 0.791371 0
M  V30 4388 C 432.515 1.32606 1.93527 0
M  V30 4389 C 433.531 0.228541 1.72493 0
M  V30 4390 O 434.707 0.460571 1.96063 0
M  V30 4391 C 431.772 1.11271 3.28359 0
M  V30 4392 C 430.833 2.3048 3.62185 0
M  V30 4393 C 430.066 2.10154 4.90583 0
M  V30 4394 O 430.289 1.07572 5.60165 0
M  V30 4395 O 429.223 2.97884 5.23019 0
M  V30 4396 H 433.049 2.28909 1.99585 0
M  V30 4397 H 430.634 1.16818 0.931344 0
M  V30 4398 H 432.516 1.01283 4.09047 0
M  V30 4399 H 431.191 0.180292 3.23198 0
M  V30 4400 H 430.098 2.46036 2.81811 0
M  V30 4401 H 431.431 3.22221 3.72068 0
M  V30 4402 N 433.083 -1.0153 1.20538 0
M  V30 4403 C 434.308 -1.79283 1.04271 0
M  V30 4404 C 434.733 -1.8372 -0.403544 0
M  V30 4405 O 434.091 -1.27321 -1.2907 0
M  V30 4406 C 434.139 -3.21535 1.63241 0
M  V30 4407 O 433.243 -4.03099 0.870908 0
M  V30 4408 H 432.584 -0.55293 0.367647 0
M  V30 4409 H 435.114 -1.27696 1.59859 0
M  V30 4410 H 435.124 -3.72243 1.6703 0
M  V30 4411 H 433.799 -3.1762 2.68497 0
M  V30 4412 H 432.376 -3.61693 0.907323 0
M  V30 4413 N 434.561 -1.01147 -1.20859 0
M  V30 4414 C 435.972 -0.730205 -1.71828 0
M  V30 4415 C 436.323 0.751662 -1.8123 0
M  V30 4416 O 435.448 1.58686 -1.47132 0
M  V30 4417 C 436.043 -1.31885 -3.12077 0
M  V30 4418 C 434.602 -1.08656 -3.60376 0
M  V30 4419 C 433.749 -1.42769 -2.37723 0
M  V30 4420 H 436.7 -1.18158 -1.05945 0
M  V30 4421 H 436.721 -0.706793 -3.73878 0
M  V30 4422 H 436.233 -2.39737 -3.05201 0
M  V30 4423 H 434.334 -0.0254814 -3.72591 0
M  V30 4424 H 434.447 -1.76301 -4.45483 0
M  V30 4425 H 432.811 -0.846603 -2.40218 0
M  V30 4426 H 433.594 -2.51666 -2.33493 0
M  V30 4427 N 436.039 1.36541 -0.78704 0
M  V30 4428 C 437.267 2.03561 -0.370199 0
M  V30 4429 C 437.682 1.59347 1.01263 0
M  V30 4430 O 437.039 0.781781 1.64907 0
M  V30 4431 C 437.09 3.59033 -0.421614 0
M  V30 4432 O 436.811 4.01634 -1.7499 0
M  V30 4433 C 438.312 4.433 0.00489763 0
M  V30 4434 H 435.532 0.653346 -0.152904 0
M  V30 4435 H 438.076 1.74566 -1.06522 0
M  V30 4436 H 436.231 3.86746 0.224971 0
M  V30 4437 H 436.645 4.96217 -1.69909 0
M  V30 4438 H 438.119 5.51939 -0.0822184 0
M  V30 4439 H 438.596 4.26285 1.05723 0
M  V30 4440 H 439.202 4.20843 -0.614085 0
M  V30 4441 N 437.518 0.538854 1.48102 0
M  V30 4442 C 438.764 0.00801365 2.02798 0
M  V30 4443 C 439.097 -1.3309 1.41424 0
M  V30 4444 O 438.372 -1.86169 0.563158 0
M  V30 4445 C 438.655 -0.104589 3.59948 0
M  V30 4446 C 438.508 1.26012 4.31788 0
M  V30 4447 C 439.827 -0.827055 4.32259 0
M  V30 4448 H 436.946 0.00438624 0.736987 0
M  V30 4449 H 439.588 0.6976 1.7673 0
M  V30 4450 H 437.738 -0.691893 3.82289 0
M  V30 4451 H 439.41 1.88922 4.2084 0
M  V30 4452 H 437.653 1.83968 3.92859 0
M  V30 4453 H 438.324 1.13424 5.40221 0
M  V30 4454 H 440.8 -0.328578 4.14801 0
M  V30 4455 H 439.676 -0.87476 5.41885 0
M  V30 4456 H 439.937 -1.87927 4.0017 0
M  V30 4457 N 438.996 -1.55193 0.274407 0
M  V30 4458 C 440.221 -2.04446 -0.348824 0
M  V30 4459 C 440.646 -1.15149 -1.48735 0
M  V30 4460 O 440.004 -0.149952 -1.80679 0
M  V30 4461 C 440.052 -3.51431 -0.808009 0
M  V30 4462 O 439.156 -3.65225 -1.91531 0
M  V30 4463 H 438.497 -0.66006 -0.0722276 0
M  V30 4464 H 441.027 -2.00481 0.408498 0
M  V30 4465 H 441.037 -3.92781 -1.10395 0
M  V30 4466 H 439.712 -4.15892 0.0249865 0
M  V30 4467 H 438.289 -3.35778 -1.62196 0
M  V30 4468 N 440.474 -0.00167713 -1.576 0
M  V30 4469 C 441.702 0.693759 -1.94922 0
M  V30 4470 C 442.117 1.67215 -0.876626 0
M  V30 4471 O 441.474 1.81929 0.144279 0
M  V30 4472 C 441.525 1.42416 -3.32265 0
M  V30 4473 O 441.246 0.485014 -4.35407 0
M  V30 4474 C 442.747 2.21395 -3.84056 0
M  V30 4475 H 439.967 0.193118 -0.642609 0
M  V30 4476 H 442.511 -0.0532952 -2.04431 0
M  V30 4477 H 440.666 2.12284 -3.24059 0
M  V30 4478 H 441.08 1.00053 -5.14868 0
M  V30 4479 H 442.554 2.67996 -4.82578 0
M  V30 4480 H 443.031 3.04142 -3.16851 0
M  V30 4481 H 443.637 1.56542 -3.95443 0
M  V30 4482 N 441.952 1.55251 0.271103 0
M  V30 4483 C 442.882 1.9127 1.33933 0
M  V30 4484 C 443.863 0.77478 1.5143 0
M  V30 4485 O 445.048 1.03307 1.64442 0
M  V30 4486 C 442.178 2.18627 2.69851 0
M  V30 4487 C 441.132 3.34442 2.67081 0
M  V30 4488 C 440.458 3.47284 4.06569 0
M  V30 4489 C 441.758 4.70784 2.26185 0
M  V30 4490 H 443.452 2.80744 1.04035 0
M  V30 4491 H 440.998 1.35077 0.499017 0
M  V30 4492 H 442.951 2.42413 3.44694 0
M  V30 4493 H 441.675 1.25955 3.01335 0
M  V30 4494 H 440.334 3.10627 1.94695 0
M  V30 4495 H 439.982 2.52074 4.35279 0
M  V30 4496 H 439.682 4.25152 4.0561 0
M  V30 4497 H 441.206 3.73363 4.83148 0
M  V30 4498 H 442.62 4.94102 2.90751 0
M  V30 4499 H 441.017 5.51582 2.36384 0
M  V30 4500 H 442.087 4.69478 1.21319 0
M  V30 4501 N 443.43 -0.535701 1.48216 0
M  V30 4502 C 444.658 -1.31671 1.59594 0
M  V30 4503 C 445.073 -1.87083 0.254056 0
M  V30 4504 O 444.43 -1.66112 -0.755854 0
M  V30 4505 C 444.481 -2.47158 2.63809 0
M  V30 4506 O 444.202 -1.94032 3.92789 0
M  V30 4507 C 445.703 -3.39062 2.85573 0
M  V30 4508 H 442.923 -0.400623 0.538277 0
M  V30 4509 H 445.467 -0.646827 1.94001 0
M  V30 4510 H 443.622 -3.10043 2.32276 0
M  V30 4511 H 444.036 -2.69585 4.49916 0
M  V30 4512 H 445.51 -4.16459 3.62306 0
M  V30 4513 H 445.987 -3.93941 1.94184 0
M  V30 4514 H 446.593 -2.81975 3.18387 0
M  V30 4515 N 444.908 -1.36708 -0.784132 0
M  V30 4516 C 446.319 -1.27947 -1.35965 0
M  V30 4517 C 446.67 0.0784013 -1.96043 0
M  V30 4518 O 445.795 0.979989 -1.92938 0
M  V30 4519 C 446.39 -2.31689 -2.47195 0
M  V30 4520 C 444.949 -2.26601 -3.00548 0
M  V30 4521 C 444.096 -2.16184 -1.73666 0
M  V30 4522 H 447.047 -1.4751 -0.585358 0
M  V30 4523 H 447.068 -1.95638 -3.26352 0
M  V30 4524 H 446.58 -3.30506 -2.03439 0
M  V30 4525 H 444.681 -1.31268 -3.48711 0
M  V30 4526 H 444.794 -3.19508 -3.57004 0
M  V30 4527 H 443.158 -1.62524 -1.96107 0
M  V30 4528 H 443.941 -3.16896 -1.32031 0
M  V30 4529 N 446.386 1.0089 -1.21074 0
M  V30 4530 C 447.611 1.78727 -1.05221 0
M  V30 4531 C 448.036 1.83932 0.393795 0
M  V30 4532 O 447.394 1.28004 1.28393 0
M  V30 4533 C 447.442 3.20665 -1.64944 0
M  V30 4534 O 446.546 4.02632 -0.892273 0
M  V30 4535 H 445.887 0.550973 -0.370574 0
M  V30 4536 H 448.417 1.26847 -1.60534 0
M  V30 4537 H 448.427 3.71352 -1.69002 0
M  V30 4538 H 447.102 3.16191 -2.70177 0
M  V30 4539 H 445.679 3.61207 -0.926492 0
M  V30 4540 N 447.864 1.01787 1.20321 0
M  V30 4541 C 449.089 0.727009 1.9424 0
M  V30 4542 C 449.514 -0.706179 1.74341 0
M  V30 4543 O 448.872 -1.48609 1.03852 0
M  V30 4544 C 448.92 1.06958 3.44372 0
M  V30 4545 O 448.024 0.181983 4.11998 0
M  V30 4546 H 447.365 0.269626 0.606793 0
M  V30 4547 H 449.895 1.36158 1.52716 0
M  V30 4548 H 449.905 1.02182 3.94997 0
M  V30 4549 H 448.58 2.11378 3.58179 0
M  V30 4550 H 447.157 0.287378 3.71791 0
M  V30 4551 N 449.342 -1.36122 0.79427 0
M  V30 4552 C 450.753 -1.81646 0.431446 0
M  V30 4553 C 451.104 -1.66043 -1.04518 0
M  V30 4554 O 450.229 -1.1841 -1.8113 0
M  V30 4555 C 450.824 -3.29785 0.776341 0
M  V30 4556 C 449.383 -3.73501 0.466282 0
M  V30 4557 C 448.53 -2.58313 1.00844 0
M  V30 4558 H 451.481 -1.24274 0.986995 0
M  V30 4559 H 451.502 -3.80437 0.0692413 0
M  V30 4560 H 451.014 -3.4111 1.8511 0
M  V30 4561 H 449.115 -3.67733 -0.600245 0
M  V30 4562 H 449.228 -4.68754 0.990288 0
M  V30 4563 H 447.592 -2.5102 0.431406 0
M  V30 4564 H 448.375 -2.72421 2.08906 0
M  V30 4565 N 450.82 -0.546701 -1.47814 0
M  V30 4566 C 452.068 -0.0187037 -2.02091 0
M  V30 4567 C 452.389 1.33168 -1.42447 0
M  V30 4568 O 451.659 1.86619 -0.595839 0
M  V30 4569 H 450.239 -0.00392531 -0.74699 0
M  V30 4570 H 452.901 -0.714327 -1.81338 0
M  V30 4571 H 451.997 0.0772219 -3.12004 0
M  V30 4572 N 452.299 1.55045 -0.282633 0
M  V30 4573 C 453.246 2.22822 0.601566 0
M  V30 4574 C 454.216 1.20431 1.14392 0
M  V30 4575 O 455.401 1.48996 1.19184 0
M  V30 4576 C 452.541 2.95873 1.77632 0
M  V30 4577 C 451.654 4.12999 1.26711 0
M  V30 4578 C 450.789 4.73676 2.40426 0
M  V30 4579 C 449.828 5.82981 1.86545 0
M  V30 4580 N 448.965 6.3769 2.93762 0
M  V30 4581 H 453.805 2.97995 0.0169528 0
M  V30 4582 H 451.342 1.471 -0.00339964 0
M  V30 4583 H 453.3 3.36447 2.46697 0
M  V30 4584 H 451.93 2.2311 2.33285 0
M  V30 4585 H 450.982 3.77494 0.469314 0
M  V30 4586 H 452.294 4.91803 0.832518 0
M  V30 4587 H 451.448 5.17008 3.17471 0
M  V30 4588 H 450.187 3.94164 2.87203 0
M  V30 4589 H 449.192 5.39092 1.07983 0
M  V30 4590 H 450.417 6.64366 1.40694 0
M  V30 4591 H 448.363 5.61069 3.39908 0
M  V30 4592 H 448.28 7.11788 2.54744 0
M  V30 4593 H 449.548 6.8568 3.7076 0
M  V30 4594 N 453.777 0.010035 1.57597 0
M  V30 4595 C 454.707 -0.976857 2.12084 0
M  V30 4596 C 455.688 -1.35191 1.03235 0
M  V30 4597 O 456.873 -1.43389 1.3097 0
M  V30 4598 C 454.003 -2.26548 2.63236 0
M  V30 4599 C 452.957 -2.03175 3.76701 0
M  V30 4600 C 452.283 -3.38138 4.14206 0
M  V30 4601 C 453.583 -1.38625 5.03568 0
M  V30 4602 H 455.277 -0.523145 2.94794 0
M  V30 4603 H 452.823 -0.250195 1.4181 0
M  V30 4604 H 454.776 -2.95952 2.99984 0
M  V30 4605 H 453.5 -2.74051 1.77661 0
M  V30 4606 H 452.159 -1.36195 3.40362 0
M  V30 4607 H 451.807 -3.83363 3.25641 0
M  V30 4608 H 451.507 -3.23312 4.90656 0
M  V30 4609 H 453.031 -4.08841 4.53521 0
M  V30 4610 H 454.445 -1.98 5.38023 0
M  V30 4611 H 452.842 -1.34256 5.84889 0
M  V30 4612 H 453.912 -0.356722 4.83586 0
M  V30 4613 N 455.255 -1.55392 -0.262866 0
M  V30 4614 C 456.185 -1.91978 -1.32917 0
M  V30 4615 C 457.166 -0.7828 -1.51017 0
M  V30 4616 O 458.351 -1.04178 -1.63892 0
M  V30 4617 C 455.481 -2.20055 -2.68687 0
M  V30 4618 C 454.435 -3.35854 -2.65304 0
M  V30 4619 C 453.761 -3.49435 -4.04721 0
M  V30 4620 C 455.061 -4.71977 -2.23685 0
M  V30 4621 H 456.755 -2.81292 -1.02544 0
M  V30 4622 H 454.301 -1.3534 -0.491846 0
M  V30 4623 H 456.254 -2.44237 -3.43404 0
M  V30 4624 H 454.978 -1.27551 -3.00663 0
M  V30 4625 H 453.637 -3.11655 -1.93045 0
M  V30 4626 H 453.285 -2.54379 -4.33936 0
M  V30 4627 H 452.985 -4.27297 -4.0335 0
M  V30 4628 H 454.509 -3.7592 -4.81161 0
M  V30 4629 H 455.923 -4.95637 -2.88127 0
M  V30 4630 H 454.32 -5.52828 -2.33456 0
M  V30 4631 H 455.39 -4.70115 -1.18827 0
M  V30 4632 N 456.733 0.527833 -1.48498 0
M  V30 4633 C 457.961 1.30823 -1.6029 0
M  V30 4634 C 458.376 1.86945 -0.263974 0
M  V30 4635 O 457.733 1.6651 0.747034 0
M  V30 4636 C 457.784 2.45756 -2.65116 0
M  V30 4637 O 457.505 1.91946 -3.93813 0
M  V30 4638 C 459.006 3.37543 -2.87367 0
M  V30 4639 H 456.226 0.397763 -0.540394 0
M  V30 4640 H 458.77 0.636529 -1.94341 0
M  V30 4641 H 456.925 3.08806 -2.33917 0
M  V30 4642 H 457.339 2.67195 -4.51339 0
M  V30 4643 H 458.813 4.14532 -3.6451 0
M  V30 4644 H 459.29 3.92905 -1.9627 0
M  V30 4645 H 459.896 2.80283 -3.19878 0
M  V30 4646 N 458.211 1.37122 0.776871 0
M  V30 4647 C 459.627 1.1781 1.07671 0
M  V30 4648 C 459.827 0.0107454 2.01497 0
M  V30 4649 O 458.883 -0.650756 2.4397 0
M  V30 4650 C 460.196 2.49451 1.67913 0
M  V30 4651 C 461.744 2.55927 1.80195 0
M  V30 4652 C 462.219 3.87686 2.43851 0
M  V30 4653 N 463.71 3.891 2.51307 0
M  V30 4654 C 464.445 4.87797 3.014 0
M  V30 4655 N 463.941 5.96888 3.51705 0
M  V30 4656 N 465.734 4.75205 3.00227 0
M  V30 4657 H 457.885 2.11843 0.153778 0
M  V30 4658 H 460.148 0.938927 0.130844 0
M  V30 4659 H 459.854 3.35207 1.06439 0
M  V30 4660 H 459.728 2.66169 2.67271 0
M  V30 4661 H 462.115 1.70582 2.40803 0
M  V30 4662 H 462.196 2.43097 0.796069 0
M  V30 4663 H 461.84 4.73444 1.83884 0
M  V30 4664 H 461.77 3.97817 3.45035 0
M  V30 4665 H 464.261 3.10293 2.157 0
M  V30 4666 H 464.574 6.68155 3.88316 0
M  V30 4667 H 462.919 6.0054 3.49824 0
M  V30 4668 H 466.11 3.89103 2.60224 0
M  V30 4669 H 466.283 5.52279 3.38957 0
M  V30 4670 N 459.689 -1.00246 1.21608 0
M  V30 4671 C 460.914 -1.78167 1.06167 0
M  V30 4672 C 461.339 -1.84138 -0.384035 0
M  V30 4673 O 460.697 -1.28683 -1.27712 0
M  V30 4674 C 460.745 -3.19786 1.66642 0
M  V30 4675 O 459.849 -4.02153 0.913613 0
M  V30 4676 H 459.19 -0.549 0.37349 0
M  V30 4677 H 461.72 -1.25994 1.61204 0
M  V30 4678 H 461.73 -3.70451 1.70969 0
M  V30 4679 H 460.405 -3.14754 2.7185 0
M  V30 4680 H 458.982 -3.60711 0.945635 0
M  V30 4681 N 461.167 -1.02423 -1.1978 0
M  V30 4682 C 462.097 -0.62157 -2.25075 0
M  V30 4683 C 463.078 0.367148 -1.6609 0
M  V30 4684 O 464.263 0.250892 -1.92573 0
M  V30 4685 C 461.393 0.0331826 -3.47284 0
M  V30 4686 C 460.347 -0.877323 -4.18912 0
M  V30 4687 C 459.673 -0.0879296 -5.34628 0
M  V30 4688 C 460.973 -2.18892 -4.74219 0
M  V30 4689 H 462.667 -1.50179 -2.59011 0
M  V30 4690 H 460.213 -0.723547 -1.24502 0
M  V30 4691 H 462.166 0.326488 -4.20133 0
M  V30 4692 H 460.89 0.948164 -3.12534 0
M  V30 4693 H 459.549 -1.15475 -3.47938 0
M  V30 4694 H 459.197 0.828941 -4.96123 0
M  V30 4695 H 458.897 -0.694359 -5.83483 0
M  V30 4696 H 460.421 0.198743 -6.10276 0
M  V30 4697 H 461.835 -1.95746 -5.38847 0
M  V30 4698 H 460.232 -2.74686 -5.33542 0
M  V30 4699 H 461.302 -2.84674 -3.92541 0
M  V30 4700 N 462.645 1.35699 -0.801477 0
M  V30 4701 C 463.608 2.28199 -0.213994 0
M  V30 4702 C 464.608 1.49359 0.595691 0
M  V30 4703 O 465.798 1.69186 0.414921 0
M  V30 4704 C 462.93 3.33587 0.702297 0
M  V30 4705 H 464.123 2.81666 -1.02976 0
M  V30 4706 H 461.676 1.45467 -0.571759 0
M  V30 4707 H 462.411 2.85297 1.54195 0
M  V30 4708 H 462.196 3.91906 0.123484 0
M  V30 4709 H 463.686 4.02638 1.10783 0
M  V30 4710 N 464.123 0.554532 1.47522 0
M  V30 4711 C 465.053 -0.182974 2.32782 0
M  V30 4712 C 466.034 -0.911377 1.43624 0
M  V30 4713 O 467.219 -0.892366 1.72483 0
M  V30 4714 C 464.349 -1.21513 3.25349 0
M  V30 4715 C 463.303 -0.603355 4.23726 0
M  V30 4716 C 462.629 -1.73995 5.05598 0
M  V30 4717 C 463.929 0.441121 5.20434 0
M  V30 4718 H 465.623 0.52882 2.94693 0
M  V30 4719 H 463.169 0.255759 1.41711 0
M  V30 4720 H 465.122 -1.73922 3.83835 0
M  V30 4721 H 463.846 -1.95683 2.61487 0
M  V30 4722 H 462.505 -0.10059 3.66462 0
M  V30 4723 H 462.153 -2.47063 4.38143 0
M  V30 4724 H 461.853 -1.3364 5.72201 0
M  V30 4725 H 463.377 -2.26735 5.66942 0
M  V30 4726 H 464.791 0.00319931 5.733 0
M  V30 4727 H 463.188 0.763402 5.95224 0
M  V30 4728 H 464.258 1.33799 4.66075 0
M  V30 4729 N 465.601 -1.54893 0.290851 0
M  V30 4730 C 466.849 -1.99538 -0.320756 0
M  V30 4731 C 467.17 -1.18075 -1.55188 0
M  V30 4732 O 466.44 -0.274162 -1.93972 0
M  V30 4733 H 465.02 -0.737052 -0.121507 0
M  V30 4734 H 467.682 -1.90755 0.399832 0
M  V30 4735 H 466.778 -3.06282 -0.599802 0
M  V30 4736 N 467.08 -0.0183926 -1.57589 0
M  V30 4737 C 468.328 0.661253 -1.90976 0
M  V30 4738 C 468.649 1.73281 -0.894353 0
M  V30 4739 O 467.919 1.9579 0.0656788 0
M  V30 4740 H 466.499 0.247233 -0.704901 0
M  V30 4741 H 469.161 -0.0636639 -1.94796 0
M  V30 4742 H 468.257 1.12083 -2.9128 0
M  V30 4743 N 468.558 1.5553 0.254621 0
M  V30 4744 C 469.505 1.89666 1.31512 0
M  V30 4745 C 470.475 0.750057 1.482 0
M  V30 4746 O 471.66 1.00301 1.62309 0
M  V30 4747 C 468.8 2.19009 2.667 0
M  V30 4748 C 467.913 3.46435 2.58083 0
M  V30 4749 C 467.048 3.65386 3.85573 0
M  V30 4750 C 466.087 4.8644 3.71541 0
M  V30 4751 N 465.224 5.01952 4.90906 0
M  V30 4752 H 470.064 2.80109 1.017 0
M  V30 4753 H 467.601 1.38666 0.490938 0
M  V30 4754 H 469.559 2.34025 3.45381 0
M  V30 4755 H 468.189 1.31779 2.94676 0
M  V30 4756 H 467.241 3.39792 1.71013 0
M  V30 4757 H 468.553 4.35258 2.43622 0
M  V30 4758 H 467.707 3.80319 4.72697 0
M  V30 4759 H 466.446 2.74781 4.02922 0
M  V30 4760 H 465.451 4.71491 2.82801 0
M  V30 4761 H 466.676 5.78497 3.55694 0
M  V30 4762 H 464.622 4.14283 5.08631 0
M  V30 4763 H 464.539 5.84851 4.79046 0
M  V30 4764 H 465.807 5.21289 5.7955 0
M  V30 4765 N 470.036 -0.519951 1.48776 0
M  V30 4766 C 470.983 -1.62352 1.64044 0
M  V30 4767 C 471.953 -1.58945 0.482251 0
M  V30 4768 O 473.138 -1.77219 0.706971 0
M  V30 4769 C 470.278 -3.00579 1.69547 0
M  V30 4770 C 469.391 -3.14145 2.96541 0
M  V30 4771 C 468.526 -4.42991 2.93142 0
M  V30 4772 C 467.565 -4.50122 4.14797 0
M  V30 4773 N 466.702 -5.7037 4.09418 0
M  V30 4774 H 471.542 -1.48643 2.58281 0
M  V30 4775 H 469.079 -0.723516 1.28077 0
M  V30 4776 H 471.037 -3.80671 1.70719 0
M  V30 4777 H 469.667 -3.13036 0.787918 0
M  V30 4778 H 468.719 -2.27239 3.05068 0
M  V30 4779 H 470.031 -3.15275 3.86527 0
M  V30 4780 H 469.185 -5.31385 2.92772 0
M  V30 4781 H 467.924 -4.44398 2.00902 0
M  V30 4782 H 466.929 -3.60133 4.15433 0
M  V30 4783 H 468.154 -4.50445 5.08208 0
M  V30 4784 H 466.1 -5.72655 3.20004 0
M  V30 4785 H 466.017 -5.73036 4.93119 0
M  V30 4786 H 467.285 -6.61023 4.13121 0
M  V30 4787 N 471.514 -1.37532 -0.769588 0
M  V30 4788 C 472.791 -1.23392 -1.51768 0
M  V30 4789 C 473.171 0.17157 -2.10402 0
M  V30 4790 O 472.519 1.17943 -1.95708 0
M  V30 4791 C 472.729 -2.33163 -2.59685 0
M  V30 4792 C 474.077 -2.70809 -3.27028 0
M  V30 4793 O 475.101 -2.32355 -2.69981 0
M  V30 4794 O 473.96 -3.37066 -4.30173 0
M  V30 4795 H 471.054 -0.481617 -0.67229 0
M  V30 4796 H 473.6 -1.49318 -0.806368 0
M  V30 4797 H 472.372 -3.27273 -2.14494 0
M  V30 4798 H 471.995 -2.08713 -3.38415 0
M  V30 4799 O 473.031 0.909716 -1.33441 0
M  V30 4800 H 473.722 1.54385 -1.16983 0
M  V30 END ATOM
M  V30 BEGIN BOND
M  V30 END BOND
M  V30 END CTAB
M  END
$$$$
