drugbank_target|Q96CD2 Phosphopantothenoylcysteine decarboxylase (DB03247; DB03738)
 OpenBabel12092120273D

  0  0  0     0  0            999 V3000
M  V30 BEGIN CTAB
M  V30 COUNTS 3174 3210 0 0 0
M  V30 BEGIN ATOM
M  V30 1 H -0.908 1.98254 -0.117106 0
M  V30 2 N 0 1.576 0 0
M  V30 3 C 0.933 2.03868 1.02534 0
M  V30 4 C 1.911 0.928543 1.3348 0
M  V30 5 O 3.095 1.19667 1.45644 0
M  V30 6 C 0.222 2.43627 2.35294 0
M  V30 7 C -0.732 3.65373 2.2001 0
M  V30 8 S 0.101 5.13292 1.52614 0
M  V30 9 C 1.257 5.56322 2.86805 0
M  V30 10 H 1.49 2.90518 0.631377 0
M  V30 11 H -0.977 1.52953 0.210867 0
M  V30 12 H 0.981 2.67203 3.11629 0
M  V30 13 H -0.358 1.57376 2.7183 0
M  V30 14 H -1.165 3.90944 3.18086 0
M  V30 15 H -1.563 3.418 1.51819 0
M  V30 16 H 0.729 5.58782 3.83104 0
M  V30 17 H 1.672 6.56266 2.65933 0
M  V30 18 H 2.08 4.83886 2.90714 0
M  V30 19 N 1.4781 -0.272755 1.55222 0
M  V30 20 C 2.3881 -1.35918 1.91216 0
M  V30 21 C 3.4041 -1.54026 0.809436 0
M  V30 22 O 4.5801 -1.68148 1.10852 0
M  V30 23 C 1.6451 -2.69834 2.17693 0
M  V30 24 C 0.7061 -2.6047 3.41253 0
M  V30 25 C -0.0609 -3.88 3.66458 0
M  V30 26 O 0.1621 -4.88693 2.94169 0
M  V30 27 O -0.9039 -3.88189 4.59992 0
M  V30 28 H 2.9221 -1.0839 2.83699 0
M  V30 29 H 0.5071 -0.471301 1.41771 0
M  V30 30 H 2.3891 -3.49017 2.36147 0
M  V30 31 H 1.0641 -2.97148 1.28392 0
M  V30 32 H -0.0289 -1.79663 3.28134 0
M  V30 33 H 1.3041 -2.38106 4.30774 0
M  V30 34 N 2.9562 -1.48159 -0.537278 0
M  V30 35 C 4.3672 -1.49429 -1.11928 0
M  V30 36 C 4.7182 -0.26 -1.9447 0
M  V30 37 O 3.8432 0.633489 -2.0692 0
M  V30 38 C 4.4382 -2.70758 -2.03656 0
M  V30 39 C 2.9972 -2.74923 -2.57088 0
M  V30 40 C 2.1442 -2.42835 -1.3389 0
M  V30 41 H 5.0952 -1.55381 -0.322886 0
M  V30 42 H 5.1162 -2.48861 -2.87834 0
M  V30 43 H 4.6282 -3.60575 -1.43553 0
M  V30 44 H 2.7292 -1.89296 -3.20933 0
M  V30 45 H 2.8422 -3.76157 -2.9672 0
M  V30 46 H 1.2062 -1.93836 -1.65226 0
M  V30 47 H 1.9892 -3.34884 -0.755504 0
M  V30 48 N 4.4343 0.785586 -1.36625 0
M  V30 49 C 5.3813 1.89838 -1.31264 0
M  V30 50 C 6.3513 1.65115 -0.180633 0
M  V30 51 O 7.5363 1.87222 -0.36777 0
M  V30 52 C 4.6763 3.26706 -1.11163 0
M  V30 53 C 3.7893 3.63476 -2.33472 0
M  V30 54 C 2.9243 4.89481 -2.06353 0
M  V30 55 C 1.9633 5.18941 -3.24602 0
M  V30 56 N 1.1003 6.36131 -2.97123 0
M  V30 57 H 5.9403 1.93756 -2.26413 0
M  V30 58 H 3.4773 0.947454 -1.12524 0
M  V30 59 H 5.4353 4.05639 -0.975337 0
M  V30 60 H 4.0653 3.222 -0.196674 0
M  V30 61 H 3.1173 2.79636 -2.57891 0
M  V30 62 H 4.4293 3.81193 -3.21704 0
M  V30 63 H 3.5833 5.76288 -1.89675 0
M  V30 64 H 2.3223 4.73841 -1.15437 0
M  V30 65 H 1.3273 4.30615 -3.41834 0
M  V30 66 H 2.5523 5.36498 -4.16349 0
M  V30 67 H 0.4983 6.21875 -2.08823 0
M  V30 68 H 0.4153 6.54198 -3.78894 0
M  V30 69 H 1.6833 7.2591 -2.84033 0
M  V30 70 N 5.9124 1.20967 1.01018 0
M  V30 71 C 6.8754 0.965918 2.07853 0
M  V30 72 C 7.8754 -0.0610545 1.60684 0
M  V30 73 O 9.0654 0.175681 1.73312 0
M  V30 74 C 6.1974 0.455513 3.37843 0
M  V30 75 H 7.3904 1.91365 2.3091 0
M  V30 76 H 4.9434 1.02594 1.17916 0
M  V30 77 H 5.6784 -0.497381 3.20463 0
M  V30 78 H 5.4634 1.19622 3.73407 0
M  V30 79 H 6.9534 0.304667 4.16487 0
M  V30 80 N 7.3905 -1.2043 1.01659 0
M  V30 81 C 8.6155 -1.94318 0.724942 0
M  V30 82 C 9.0405 -1.74266 -0.708034 0
M  V30 83 O 8.3985 -1.03694 -1.48719 0
M  V30 84 C 8.4465 -3.44486 1.06591 0
M  V30 85 O 7.5505 -4.12017 0.177599 0
M  V30 86 H 6.8915 -0.60708 0.26898 0
M  V30 87 H 9.4215 -1.52861 1.35995 0
M  V30 88 H 9.4315 -3.95106 1.01762 0
M  V30 89 H 8.1065 -3.58404 2.10997 0
M  V30 90 H 6.6835 -3.71821 0.283421 0
M  V30 91 N 8.8686 -0.792821 -1.36206 0
M  V30 92 C 10.1086 -0.372238 -2.00982 0
M  V30 93 C 10.4726 1.03749 -1.61555 0
M  V30 94 O 11.6736 1.55934 -2.18948 0
M  V30 95 C 9.9446 -0.534566 -3.5338 0
M  V30 96 S 11.5036 -0.202365 -4.38333 0
M  V30 97 H 8.3216 -0.142044 -0.696667 0
M  V30 98 H 10.9236 -1.03206 -1.66039 0
M  V30 99 H 9.6276 -1.5608 -3.79562 0
M  V30 100 H 9.1586 0.141065 -3.93147 0
M  V30 101 H 11.1736 0.994869 -4.86124 0
M  V30 102 N 10.3467 1.47872 -0.545128 0
M  V30 103 C 11.7577 1.86384 -0.108581 0
M  V30 104 C 12.1087 1.45309 1.31832 0
M  V30 105 O 11.2337 0.850641 1.9898 0
M  V30 106 C 11.8287 3.38265 -0.190274 0
M  V30 107 C 10.3877 3.75914 0.191164 0
M  V30 108 C 9.5347 2.71926 -0.543273 0
M  V30 109 H 12.4857 1.39561 -0.755537 0
M  V30 110 H 12.5067 3.75831 0.594217 0
M  V30 111 H 12.0187 3.6813 -1.2289 0
M  V30 112 H 10.1197 3.51665 1.23136 0
M  V30 113 H 10.2327 4.78836 -0.158987 0
M  V30 114 H 8.5967 2.54697 0.0122495 0
M  V30 115 H 9.3797 3.04634 -1.58282 0
M  V30 116 N 11.8248 0.280983 1.55075 0
M  V30 117 C 12.7878 -0.590896 2.21452 0
M  V30 118 C 13.7878 -1.07682 1.19421 0
M  V30 119 O 14.9778 -0.97605 1.44288 0
M  V30 120 C 12.1098 -1.81587 2.88511 0
M  V30 121 H 13.3028 -0.0112554 2.99898 0
M  V30 122 H 10.8558 0.0316438 1.56268 0
M  V30 123 H 11.5908 -2.43587 2.14093 0
M  V30 124 H 11.3758 -1.4753 3.63287 0
M  V30 125 H 12.8658 -2.43575 3.39206 0
M  V30 126 N 13.3029 -1.57598 0.00835791 0
M  V30 127 C 14.2659 -2.07884 -0.965242 0
M  V30 128 C 15.2659 -0.989825 -1.26725 0
M  V30 129 O 16.4559 -1.25218 -1.21104 0
M  V30 130 C 13.5879 -2.52731 -2.28779 0
M  V30 131 H 14.7809 -2.95178 -0.530112 0
M  V30 132 H 12.3339 -1.54458 -0.239283 0
M  V30 133 H 13.0689 -1.68705 -2.76964 0
M  V30 134 H 12.8539 -3.32272 -2.08177 0
M  V30 135 H 14.3439 -2.91933 -2.98605 0
M  V30 136 N 14.781 0.264519 -1.55364 0
M  V30 137 C 15.744 1.31046 -1.88042 0
M  V30 138 C 16.744 1.41943 -0.755569 0
M  V30 139 O 17.934 1.40947 -1.02369 0
M  V30 140 C 15.066 2.69067 -2.09323 0
M  V30 141 H 16.259 1.03297 -2.81549 0
M  V30 142 H 13.812 0.502989 -1.47986 0
M  V30 143 H 14.547 3.01982 -1.18226 0
M  V30 144 H 14.332 2.62542 -2.91229 0
M  V30 145 H 15.822 3.44623 -2.35848 0
M  V30 146 N 16.2591 1.48442 0.529413 0
M  V30 147 C 17.6701 1.5002 1.11134 0
M  V30 148 C 18.0211 0.27031 1.94329 0
M  V30 149 O 17.1461 -0.622507 2.07253 0
M  V30 150 C 17.7411 2.71834 2.02217 0
M  V30 151 C 16.3001 2.76283 2.55627 0
M  V30 152 C 15.4471 2.43542 1.326 0
M  V30 153 H 18.3981 1.5555 0.314641 0
M  V30 154 H 18.4191 2.50384 2.8651 0
M  V30 155 H 17.9311 3.61331 1.41639 0
M  V30 156 H 16.0321 1.90995 3.19924 0
M  V30 157 H 16.1451 3.77725 2.94721 0
M  V30 158 H 14.5091 1.94709 1.64196 0
M  V30 159 H 15.2921 3.3528 0.737734 0
M  V30 160 N 17.7372 -0.778329 1.37039 0
M  V30 161 C 18.6672 -1.90546 1.34962 0
M  V30 162 C 19.6482 -1.68681 0.219274 0
M  V30 163 O 20.8332 -1.89634 0.418624 0
M  V30 164 C 17.9632 -3.27734 1.14925 0
M  V30 165 C 16.9172 -3.64147 2.24902 0
M  V30 166 C 16.2432 -4.99806 1.89996 0
M  V30 167 C 17.5432 -3.71579 3.67051 0
M  V30 168 H 19.2372 -1.92541 2.29277 0
M  V30 169 H 16.7832 -0.924948 1.10366 0
M  V30 170 H 18.7362 -4.06215 1.12104 0
M  V30 171 H 17.4602 -3.26154 0.170631 0
M  V30 172 H 16.1192 -2.8797 2.26868 0
M  V30 173 H 15.7672 -4.94759 0.906796 0
M  V30 174 H 15.4672 -5.25139 2.63634 0
M  V30 175 H 16.9912 -5.80694 1.88749 0
M  V30 176 H 18.4052 -4.40227 3.67251 0
M  V30 177 H 16.8022 -4.08405 4.39688 0
M  V30 178 H 17.8722 -2.72404 4.01154 0
M  V30 179 N 19.2153 -1.21501 -1.00376 0
M  V30 180 C 20.1483 -0.918669 -2.08892 0
M  V30 181 C 21.1263 0.134277 -1.62045 0
M  V30 182 O 22.3103 0.00504255 -1.88499 0
M  V30 183 C 19.4373 -0.379645 -3.36566 0
M  V30 184 C 18.4833 -1.41559 -4.02323 0
M  V30 185 S 19.3163 -2.98521 -4.44574 0
M  V30 186 C 20.4723 -2.46228 -5.75433 0
M  V30 187 H 20.7053 -1.83761 -2.33707 0
M  V30 188 H 18.2383 -1.04489 -1.13673 0
M  V30 189 H 20.1963 -0.0752195 -4.10431 0
M  V30 190 H 18.8573 0.518008 -3.09799 0
M  V30 191 H 18.0503 -0.988076 -4.9422 0
M  V30 192 H 17.6523 -1.66815 -3.34737 0
M  V30 193 H 19.9443 -1.86791 -6.51241 0
M  V30 194 H 20.8873 -3.36572 -6.22997 0
M  V30 195 H 21.2953 -1.87894 -5.32312 0
M  V30 196 N 20.6934 1.19889 -1.02296 0
M  V30 197 C 21.6034 2.26571 -0.608508 0
M  V30 198 C 22.6194 1.70299 0.356964 0
M  V30 199 O 23.7954 2.00235 0.216326 0
M  V30 200 C 20.8604 3.46677 0.0402814 0
M  V30 201 C 19.9214 4.18153 -0.97194 0
M  V30 202 C 19.1544 5.32525 -0.354016 0
M  V30 203 O 19.3774 5.64112 0.844604 0
M  V30 204 O 18.3114 5.92242 -1.07391 0
M  V30 205 H 22.1374 2.64251 -1.49684 0
M  V30 206 H 19.7224 1.26629 -0.792809 0
M  V30 207 H 21.6044 4.19475 0.402324 0
M  V30 208 H 20.2794 3.10858 0.902707 0
M  V30 209 H 19.1864 3.47499 -1.38546 0
M  V30 210 H 20.5194 4.57927 -1.80454 0
M  V30 211 N 22.1715 0.800033 1.35784 0
M  V30 212 C 23.5875 0.482977 1.52117 0
M  V30 213 C 23.7875 -0.996948 1.75109 0
M  V30 214 O 22.8435 -1.78216 1.78872 0
M  V30 215 C 24.1565 1.32264 2.70049 0
M  V30 216 C 25.7045 1.31742 2.83924 0
M  V30 217 C 26.1795 2.14106 4.04874 0
M  V30 218 N 27.6705 2.11607 4.12039 0
M  V30 219 C 28.4055 2.72099 5.04727 0
M  V30 220 N 27.9015 3.41492 6.02789 0
M  V30 221 N 29.6945 2.61776 4.97423 0
M  V30 222 H 21.8455 1.75856 1.19115 0
M  V30 223 H 24.1085 0.748122 0.582252 0
M  V30 224 H 23.8145 2.37261 2.59616 0
M  V30 225 H 23.6885 0.971303 3.6448 0
M  V30 226 H 26.0755 0.275333 2.93813 0
M  V30 227 H 26.1565 1.70859 1.9037 0
M  V30 228 H 25.8005 3.18351 3.95746 0
M  V30 229 H 25.7305 1.72353 4.97596 0
M  V30 230 H 28.2215 1.61112 3.41835 0
M  V30 231 H 28.5345 3.84953 6.70098 0
M  V30 232 H 26.8795 3.45596 6.02983 0
M  V30 233 H 30.0705 2.07157 4.19766 0
M  V30 234 H 30.2435 3.0921 5.69468 0
M  V30 235 N 23.6496 -1.47581 0.552962 0
M  V30 236 C 24.5966 -2.29957 -0.197108 0
M  V30 237 C 25.5666 -1.38799 -0.912359 0
M  V30 238 O 26.7516 -1.67761 -0.908888 0
M  V30 239 C 23.8916 -3.22672 -1.22379 0
M  V30 240 C 23.0046 -4.28919 -0.515038 0
M  V30 241 C 22.1396 -5.0879 -1.52664 0
M  V30 242 C 21.1786 -6.06815 -0.802631 0
M  V30 243 N 20.3156 -6.7966 -1.76086 0
M  V30 244 H 25.1556 -2.93578 0.511486 0
M  V30 245 H 22.6926 -1.4471 0.264067 0
M  V30 246 H 24.6506 -3.74845 -1.83159 0
M  V30 247 H 23.2806 -2.60925 -1.90047 0
M  V30 248 H 22.3326 -3.79835 0.207192 0
M  V30 249 H 23.6446 -4.98773 0.0523425 0
M  V30 250 H 22.7986 -5.65091 -2.20809 0
M  V30 251 H 21.5376 -4.38828 -2.12794 0
M  V30 252 H 20.5426 -5.49695 -0.107238 0
M  V30 253 H 21.7676 -6.78784 -0.207135 0
M  V30 254 H 19.7136 -6.12432 -2.35081 0
M  V30 255 H 19.6306 -7.45669 -1.24552 0
M  V30 256 H 20.8986 -7.40538 -2.43359 0
M  V30 257 N 25.1277 -0.289203 -1.54924 0
M  V30 258 C 26.3747 0.323519 -1.99899 0
M  V30 259 C 26.7027 1.54797 -1.17762 0
M  V30 260 O 25.9577 1.94237 -0.238835 0
M  V30 261 C 26.2567 0.736119 -3.49737 0
M  V30 262 C 25.9227 -0.385276 -4.49251 0
M  V30 263 C 24.5847 -0.693156 -4.76181 0
M  V30 264 C 26.9367 -1.14021 -5.08575 0
M  V30 265 C 24.2647 -1.7593 -5.59701 0
M  V30 266 C 26.6167 -2.19619 -5.93254 0
M  V30 267 C 25.2807 -2.51026 -6.185 0
M  V30 268 H 24.5507 0.118384 -0.731482 0
M  V30 269 H 27.1977 -0.405847 -1.8715 0
M  V30 270 H 25.5027 1.54539 -3.60035 0
M  V30 271 H 27.1997 1.22118 -3.81953 0
M  V30 272 H 23.7897 -0.135202 -4.28387 0
M  V30 273 H 27.9737 -0.915611 -4.87781 0
M  V30 274 H 23.2297 -2.0075 -5.77503 0
M  V30 275 H 27.4037 -2.78581 -6.38252 0
M  V30 276 H 25.0307 -3.33772 -6.83008 0
M  V30 277 N 26.6058 1.57591 -0.0167156 0
M  V30 278 C 27.5558 2.05953 0.978137 0
M  V30 279 C 28.5398 0.957532 1.29306 0
M  V30 280 O 29.7318 1.22119 1.28125 0
M  V30 281 C 26.8608 2.58006 2.26468 0
M  V30 282 C 25.9468 3.75113 1.97867 0
M  V30 283 N 26.3378 4.86187 1.39486 0
M  V30 284 C 24.6358 3.83363 2.27924 0
M  V30 285 C 25.3368 5.67502 1.27735 0
M  V30 286 N 24.3128 5.14023 1.76866 0
M  V30 287 H 28.1148 2.89236 0.521522 0
M  V30 288 H 25.6288 1.61301 0.188596 0
M  V30 289 H 27.6258 2.90937 2.98599 0
M  V30 290 H 26.2858 1.76148 2.72767 0
M  V30 291 H 27.2968 5.06695 1.07147 0
M  V30 292 H 23.9738 3.1239 2.76982 0
M  V30 293 H 25.3638 6.66791 0.826978 0
M  V30 294 N 28.0839 -0.256276 1.55502 0
M  V30 295 C 29.3299 -0.987079 1.77157 0
M  V30 296 C 29.6629 -1.85327 0.580315 0
M  V30 297 O 28.9379 -1.89874 -0.421686 0
M  V30 298 C 29.2209 -1.85553 3.08613 0
M  V30 299 C 29.0739 -1.01816 4.38125 0
M  V30 300 C 30.3929 -2.8397 3.36228 0
M  V30 301 H 27.5119 -0.357428 0.644526 0
M  V30 302 H 30.1539 -0.258239 1.88237 0
M  V30 303 H 28.3039 -2.47695 2.99298 0
M  V30 304 H 29.9759 -0.416159 4.59419 0
M  V30 305 H 28.2189 -0.322178 4.32602 0
M  V30 306 H 28.8899 -1.65939 5.26468 0
M  V30 307 H 31.3659 -2.31964 3.45445 0
M  V30 308 H 30.2419 -3.41864 4.29442 0
M  V30 309 H 30.5029 -3.59955 2.56681 0
M  V30 310 N 29.562 -1.4872 -0.521534 0
M  V30 311 C 30.492 -1.66771 -1.63431 0
M  V30 312 C 31.473 -0.516499 -1.62069 0
M  V30 313 O 32.658 -0.750013 -1.79132 0
M  V30 314 C 29.788 -1.71515 -3.01993 0
M  V30 315 C 28.742 -2.86222 -3.18216 0
M  V30 316 C 28.068 -2.76061 -4.57924 0
M  V30 317 C 29.368 -4.27419 -3.00184 0
M  V30 318 H 31.062 -2.59932 -1.48579 0
M  V30 319 H 28.608 -1.25089 -0.713358 0
M  V30 320 H 30.561 -1.82731 -3.7972 0
M  V30 321 H 29.285 -0.749393 -3.17886 0
M  V30 322 H 27.944 -2.74575 -2.42908 0
M  V30 323 H 27.592 -1.77437 -4.70665 0
M  V30 324 H 27.292 -3.53037 -4.69722 0
M  V30 325 H 28.816 -2.89256 -5.37739 0
M  V30 326 H 30.23 -4.39855 -3.67697 0
M  V30 327 H 28.627 -5.05458 -3.2347 0
M  V30 328 H 29.697 -4.43293 -1.96518 0
M  V30 329 N 31.0401 0.771051 -1.3745 0
M  V30 330 C 32.2861 1.5319 -1.32894 0
M  V30 331 C 32.6191 1.94008 0.0862511 0
M  V30 332 O 31.8941 1.64124 1.04373 0
M  V30 333 C 32.1771 2.79648 -2.26868 0
M  V30 334 C 32.0301 2.45079 -3.77169 0
M  V30 335 C 33.3491 3.81583 -2.19277 0
M  V30 336 H 30.4681 0.555744 -0.484064 0
M  V30 337 H 33.1101 0.884492 -1.68157 0
M  V30 338 H 31.2601 3.34891 -1.96926 0
M  V30 339 H 32.9321 1.95745 -4.1771 0
M  V30 340 H 31.1751 1.77767 -3.95704 0
M  V30 341 H 31.8461 3.35478 -4.38359 0
M  V30 342 H 34.3221 3.35835 -2.45671 0
M  V30 343 H 33.1981 4.67787 -2.87171 0
M  V30 344 H 33.4591 4.25897 -1.18592 0
M  V30 345 N 32.5182 1.22032 0.997298 0
M  V30 346 C 33.7662 1.04016 1.73278 0
M  V30 347 C 34.0872 -0.426255 1.90284 0
M  V30 348 O 33.3572 -1.30694 1.45931 0
M  V30 349 H 31.9372 0.381897 0.642 0
M  V30 350 H 34.5992 1.5347 1.20137 0
M  V30 351 H 33.6952 1.51441 2.72896 0
M  V30 352 N 33.9963 -1.19345 1.0293 0
M  V30 353 C 35.2423 -1.89318 0.727083 0
M  V30 354 C 35.5753 -1.79446 -0.742483 0
M  V30 355 O 34.8503 -1.1871 -1.54072 0
M  V30 356 C 35.1333 -3.40238 1.17942 0
M  V30 357 C 34.9863 -3.58979 2.71024 0
M  V30 358 C 36.3053 -4.33479 0.760548 0
M  V30 359 H 33.4243 -0.687475 0.265606 0
M  V30 360 H 36.0663 -1.40477 1.2793 0
M  V30 361 H 34.2163 -3.81964 0.709608 0
M  V30 362 H 35.8883 -3.26421 3.25955 0
M  V30 363 H 34.1313 -3.02018 3.11396 0
M  V30 364 H 34.8023 -4.64823 2.9773 0
M  V30 365 H 37.2783 -3.99469 1.16464 0
M  V30 366 H 36.1543 -5.37664 1.10493 0
M  V30 367 H 36.4153 -4.40813 -0.337063 0
M  V30 368 N 35.4744 -0.807222 -1.35358 0
M  V30 369 C 36.7024 -0.400377 -2.02989 0
M  V30 370 C 37.1174 0.988859 -1.60832 0
M  V30 371 O 36.4744 1.63729 -0.806175 0
M  V30 372 C 36.5254 -0.474867 -3.58368 0
M  V30 373 O 36.2464 -1.80933 -3.98992 0
M  V30 374 C 37.7474 -0.0609112 -4.43258 0
M  V30 375 H 34.9674 -0.162587 -0.651004 0
M  V30 376 H 37.5114 -1.09102 -1.72965 0
M  V30 377 H 35.6664 0.167534 -3.87038 0
M  V30 378 H 36.0804 -1.77256 -4.9364 0
M  V30 379 H 37.5544 -0.164145 -5.51756 0
M  V30 380 H 38.0314 0.993831 -4.27808 0
M  V30 381 H 38.6374 -0.676492 -4.19885 0
M  V30 382 N 36.9525 1.47285 -0.560781 0
M  V30 383 C 38.2005 2.02064 -0.0379868 0
M  V30 384 C 38.5215 1.43711 1.31803 0
M  V30 385 O 37.7915 0.61362 1.86042 0
M  V30 386 H 36.3715 0.746918 -0.0110531 0
M  V30 387 H 39.0335 1.80648 -0.731598 0
M  V30 388 H 38.1295 3.12064 0.0474463 0
M  V30 389 N 38.4306 0.297415 1.54768 0
M  V30 390 C 39.6556 -0.318435 2.04941 0
M  V30 391 C 40.0806 -1.4701 1.17345 0
M  V30 392 O 39.4386 -1.80436 0.176758 0
M  V30 393 C 39.4866 -0.755749 3.52592 0
M  V30 394 O 38.5906 -1.86088 3.68028 0
M  V30 395 H 37.9316 -0.062421 0.661059 0
M  V30 396 H 40.4616 0.438215 1.99852 0
M  V30 397 H 40.4716 -1.04552 3.94376 0
M  V30 398 H 39.1466 0.0867233 4.1581 0
M  V30 399 H 37.7236 -1.57193 3.38149 0
M  V30 400 N 39.9087 -1.5758 0.0250728 0
M  V30 401 C 41.1547 -1.91917 -0.655413 0
M  V30 402 C 41.4877 -0.901433 -1.72011 0
M  V30 403 O 40.7627 0.0764069 -1.9435 0
M  V30 404 C 41.0457 -3.36751 -1.27558 0
M  V30 405 C 40.8987 -4.49258 -0.220719 0
M  V30 406 C 42.2177 -3.81469 -2.19475 0
M  V30 407 H 39.3367 -0.697925 -0.23679 0
M  V30 408 H 41.9787 -1.89825 0.0815036 0
M  V30 409 H 40.1287 -3.38664 -1.90365 0
M  V30 410 H 41.8007 -4.59478 0.409601 0
M  V30 411 H 40.0437 -4.31415 0.454264 0
M  V30 412 H 40.7147 -5.47618 -0.694175 0
M  V30 413 H 43.1907 -3.81266 -1.66659 0
M  V30 414 H 42.0667 -4.83512 -2.59822 0
M  V30 415 H 42.3277 -3.16744 -3.08424 0
M  V30 416 N 41.3868 0.248026 -1.55636 0
M  V30 417 C 42.3498 1.29044 -1.89421 0
M  V30 418 C 43.3498 1.41134 -0.770581 0
M  V30 419 O 44.5398 1.39854 -1.03858 0
M  V30 420 C 41.6718 2.66831 -2.12165 0
M  V30 421 H 42.8648 1.00305 -2.82629 0
M  V30 422 H 40.4178 0.487265 -1.48511 0
M  V30 423 H 41.1528 3.00711 -1.21422 0
M  V30 424 H 40.9378 2.59438 -2.93997 0
M  V30 425 H 42.4278 3.42103 -2.3949 0
M  V30 426 N 42.8649 1.48995 0.513639 0
M  V30 427 C 43.8279 1.64229 1.59879 0
M  V30 428 C 44.8279 0.514696 1.5234 0
M  V30 429 O 46.0179 0.78087 1.55718 0
M  V30 430 C 43.1499 1.62783 2.99524 0
M  V30 431 H 44.3429 2.61004 1.47705 0
M  V30 432 H 41.8959 1.37837 0.736936 0
M  V30 433 H 42.6309 0.675461 3.17188 0
M  V30 434 H 42.4159 2.4466 3.06404 0
M  V30 435 H 43.9059 1.76669 3.78388 0
M  V30 436 N 44.343 -0.763751 1.37857 0
M  V30 437 C 45.273 -1.89103 1.36975 0
M  V30 438 C 46.254 -1.68439 0.237152 0
M  V30 439 O 47.439 -1.8918 0.438713 0
M  V30 440 C 44.569 -3.26496 1.18395 0
M  V30 441 C 43.523 -3.61741 2.28751 0
M  V30 442 C 42.849 -4.97762 1.95286 0
M  V30 443 C 44.149 -3.67665 3.70972 0
M  V30 444 H 45.843 -1.90099 2.31307 0
M  V30 445 H 43.389 -0.91319 1.11341 0
M  V30 446 H 45.342 -4.05003 1.16406 0
M  V30 447 H 44.066 -3.25955 0.205215 0
M  V30 448 H 42.725 -2.85547 2.29909 0
M  V30 449 H 42.373 -4.93769 0.959221 0
M  V30 450 H 42.073 -5.22313 2.69189 0
M  V30 451 H 43.597 -5.7866 1.94898 0
M  V30 452 H 45.011 -4.36307 3.719 0
M  V30 453 H 43.408 -4.03718 4.43995 0
M  V30 454 H 44.478 -2.68134 4.0402 0
M  V30 455 N 45.8211 -1.22559 -0.990812 0
M  V30 456 C 46.7681 -0.997519 -2.0813 0
M  V30 457 C 47.7381 0.0814702 -1.659 0
M  V30 458 O 48.9231 -0.0685424 -1.90677 0
M  V30 459 C 46.0631 -0.583615 -3.40129 0
M  V30 460 C 45.1761 -1.7336 -3.9569 0
M  V30 461 C 44.3111 -1.26748 -5.15857 0
M  V30 462 C 43.3501 -2.38888 -5.63559 0
M  V30 463 N 42.4871 -1.93308 -6.74964 0
M  V30 464 H 47.3271 -1.93099 -2.26973 0
M  V30 465 H 44.8641 -0.962114 -1.11273 0
M  V30 466 H 46.8221 -0.324801 -4.15934 0
M  V30 467 H 45.4521 0.312845 -3.2128 0
M  V30 468 H 44.5041 -2.10669 -3.16738 0
M  V30 469 H 45.8161 -2.57704 -4.27071 0
M  V30 470 H 44.9701 -0.966173 -5.98957 0
M  V30 471 H 43.7091 -0.394272 -4.86104 0
M  V30 472 H 42.7141 -2.69805 -4.79046 0
M  V30 473 H 43.9391 -3.26728 -5.95336 0
M  V30 474 H 41.8851 -1.08352 -6.4699 0
M  V30 475 H 41.8021 -2.71217 -7.05675 0
M  V30 476 H 43.0701 -1.66252 -7.61564 0
M  V30 477 N 47.2992 1.18797 -1.03562 0
M  V30 478 C 48.2292 2.24472 -0.643019 0
M  V30 479 C 49.2102 1.66433 0.351283 0
M  V30 480 O 50.3952 1.92803 0.232505 0
M  V30 481 C 47.5252 3.473 4.24935e-05 0
M  V30 482 C 46.4792 4.18055 -0.917257 0
M  V30 483 C 45.8052 5.34519 -0.138941 0
M  V30 484 C 47.1052 4.72109 -2.23407 0
M  V30 485 H 48.7992 2.57566 -1.52643 0
M  V30 486 H 46.3452 1.23806 -0.735394 0
M  V30 487 H 48.2982 4.20426 0.286383 0
M  V30 488 H 47.0222 3.13424 0.918299 0
M  V30 489 H 45.6812 3.46821 -1.1879 0
M  V30 490 H 45.3292 4.96891 0.781562 0
M  V30 491 H 45.0292 5.82794 -0.750005 0
M  V30 492 H 46.5532 6.10438 0.1405 0
M  V30 493 H 47.9672 5.36955 -2.00879 0
M  V30 494 H 46.3642 5.30897 -2.79765 0
M  V30 495 H 47.4342 3.89807 -2.88407 0
M  V30 496 N 48.7773 0.814389 1.34928 0
M  V30 497 C 50.1883 0.458364 1.80986 0
M  V30 498 C 50.5393 -1.02042 1.67577 0
M  V30 499 O 49.6643 -1.79352 1.21086 0
M  V30 500 C 50.2593 0.825212 3.28597 0
M  V30 501 C 48.8183 0.521677 3.72767 0
M  V30 502 C 47.9653 1.04668 2.56788 0
M  V30 503 H 50.9163 1.00533 1.22795 0
M  V30 504 H 50.9373 0.12571 3.80292 0
M  V30 505 H 50.4493 1.90154 3.38324 0
M  V30 506 H 48.5503 -0.545589 3.68584 0
M  V30 507 H 48.6633 1.05977 4.67232 0
M  V30 508 H 47.0273 0.468622 2.50352 0
M  V30 509 H 47.8103 2.12927 2.6929 0
M  V30 510 N 50.2554 -1.46986 0.568584 0
M  V30 511 C 51.1854 -2.32946 -0.160753 0
M  V30 512 C 52.1664 -1.44487 -0.897631 0
M  V30 513 O 53.3514 -1.73327 -0.875867 0
M  V30 514 C 50.4814 -3.26494 -1.18403 0
M  V30 515 C 49.4354 -4.24282 -0.562895 0
M  V30 516 C 48.7614 -5.07236 -1.69163 0
M  V30 517 C 50.0614 -5.19989 0.490761 0
M  V30 518 H 51.7554 -2.94175 0.556916 0
M  V30 519 H 49.3014 -1.4146 0.26927 0
M  V30 520 H 51.2544 -3.85477 -1.70251 0
M  V30 521 H 49.9784 -2.63343 -1.93179 0
M  V30 522 H 48.6374 -3.66541 -0.0656164 0
M  V30 523 H 48.2854 -4.4048 -2.42871 0
M  V30 524 H 47.9854 -5.7345 -1.28174 0
M  V30 525 H 49.5094 -5.6908 -2.21314 0
M  V30 526 H 50.9234 -5.73271 0.0579047 0
M  V30 527 H 49.3204 -5.94469 0.820165 0
M  V30 528 H 50.3904 -4.64777 1.3824 0
M  V30 529 N 51.7335 -0.305618 -1.54608 0
M  V30 530 C 52.6635 0.561482 -2.26649 0
M  V30 531 C 53.6445 1.13415 -1.26772 0
M  V30 532 O 54.8295 1.16262 -1.55553 0
M  V30 533 C 51.9595 1.73122 -3.01075 0
M  V30 534 C 50.9135 1.2887 -4.08138 0
M  V30 535 C 50.2395 2.54396 -4.70305 0
M  V30 536 C 51.5395 0.416578 -5.20636 0
M  V30 537 H 53.2335 -0.0393902 -2.99374 0
M  V30 538 H 50.7795 -0.020385 -1.43986 0
M  V30 539 H 52.7325 2.34396 -3.50195 0
M  V30 540 H 51.4565 2.3584 -2.25936 0
M  V30 541 H 50.1155 0.698991 -3.59875 0
M  V30 542 H 49.7635 3.15439 -3.918 0
M  V30 543 H 49.4635 2.25486 -5.42614 0
M  V30 544 H 50.9875 3.16464 -5.2219 0
M  V30 545 H 52.4015 0.935116 -5.65622 0
M  V30 546 H 50.7985 0.221046 -5.99693 0
M  V30 547 H 51.8685 -0.557162 -4.81688 0
M  V30 548 N 53.2116 1.57565 -0.0334293 0
M  V30 549 C 54.4576 1.92262 0.645226 0
M  V30 550 C 54.7906 0.910543 1.71531 0
M  V30 551 O 54.0656 -0.066099 1.94388 0
M  V30 552 C 54.3486 3.37422 1.2577 0
M  V30 553 C 54.2016 4.49369 0.196891 0
M  V30 554 C 55.5206 3.82628 2.17449 0
M  V30 555 H 52.6396 0.699171 0.233085 0
M  V30 556 H 55.2816 1.89779 -0.0915694 0
M  V30 557 H 53.4316 3.39669 1.88566 0
M  V30 558 H 55.1036 4.59254 -0.433962 0
M  V30 559 H 53.3466 4.31168 -0.477137 0
M  V30 560 H 54.0176 5.47978 0.665124 0
M  V30 561 H 56.4936 3.82145 1.64634 0
M  V30 562 H 55.3696 4.84883 2.57254 0
M  V30 563 H 55.6306 3.18376 3.0674 0
M  V30 564 N 54.6897 -0.239769 1.55765 0
M  V30 565 C 55.9147 -0.988373 1.82335 0
M  V30 566 C 56.3397 -1.77886 0.611421 0
M  V30 567 O 55.6977 -1.75889 -0.439639 0
M  V30 568 C 55.7457 -1.89627 3.06715 0
M  V30 569 O 54.8497 -2.98904 2.84131 0
M  V30 570 H 54.1907 -0.280858 0.601677 0
M  V30 571 H 56.7207 -0.258597 2.02959 0
M  V30 572 H 56.7307 -2.30957 3.36338 0
M  V30 573 H 55.4057 -1.31511 3.9456 0
M  V30 574 H 53.9827 -2.61651 2.65694 0
M  V30 575 N 56.1678 -1.49265 -0.50573 0
M  V30 576 C 57.1148 -1.65585 -1.6078 0
M  V30 577 C 58.0848 -0.497396 -1.58478 0
M  V30 578 O 59.2698 -0.72385 -1.76536 0
M  V30 579 C 56.4098 -1.72408 -2.98948 0
M  V30 580 C 55.5228 -2.99525 -3.11301 0
M  V30 581 C 54.6578 -2.97356 -4.40174 0
M  V30 582 C 53.6968 -4.19074 -4.46143 0
M  V30 583 N 52.8338 -4.14841 -5.66437 0
M  V30 584 H 57.6738 -2.59688 -1.46172 0
M  V30 585 H 55.2108 -1.28761 -0.711261 0
M  V30 586 H 57.1688 -1.74344 -3.79025 0
M  V30 587 H 55.7988 -0.817753 -3.1227 0
M  V30 588 H 54.8508 -3.07222 -2.24318 0
M  V30 589 H 56.1628 -3.89518 -3.11572 0
M  V30 590 H 55.3168 -2.97829 -5.28567 0
M  V30 591 H 54.0558 -2.05133 -4.42461 0
M  V30 592 H 53.0608 -4.1885 -3.56153 0
M  V30 593 H 54.2858 -5.12483 -4.45575 0
M  V30 594 H 52.2318 -3.25453 -5.69575 0
M  V30 595 H 52.1488 -4.98564 -5.68304 0
M  V30 596 H 53.4168 -4.1941 -6.57051 0
M  V30 597 N 57.6459 0.756429 -1.3826 0
M  V30 598 C 58.5759 1.88374 -1.37976 0
M  V30 599 C 59.5569 1.68311 -0.246082 0
M  V30 600 O 60.7419 1.88944 -0.44874 0
M  V30 601 C 57.8719 3.25864 -1.20125 0
M  V30 602 C 56.8259 3.60523 -2.30666 0
M  V30 603 C 56.1519 4.9672 -1.97923 0
M  V30 604 C 57.4519 3.65692 -3.72916 0
M  V30 605 H 59.1459 1.88869 -2.32312 0
M  V30 606 H 56.6919 0.907272 -1.11824 0
M  V30 607 H 58.6449 4.0438 -1.18552 0
M  V30 608 H 57.3689 3.25841 -0.222498 0
M  V30 609 H 56.0279 2.84324 -2.3142 0
M  V30 610 H 55.6759 4.93253 -0.985393 0
M  V30 611 H 55.3759 5.20878 -2.71955 0
M  V30 612 H 56.8999 5.77618 -1.97964 0
M  V30 613 H 58.3139 4.34328 -3.74208 0
M  V30 614 H 56.7109 4.01358 -4.4613 0
M  V30 615 H 57.7809 2.65987 -4.05436 0
M  V30 616 N 59.124 1.23083 0.984299 0
M  V30 617 C 60.054 1.03292 2.09411 0
M  V30 618 C 61.035 -0.048923 1.7003 0
M  V30 619 O 62.22 0.114967 1.93859 0
M  V30 620 C 59.35 0.619155 3.41736 0
M  V30 621 C 58.304 1.64791 3.95004 0
M  V30 622 C 57.63 1.0897 5.23478 0
M  V30 623 C 58.93 3.03999 4.24714 0
M  V30 624 H 60.624 1.96119 2.26225 0
M  V30 625 H 58.17 0.944344 1.08711 0
M  V30 626 H 60.123 0.467777 4.18796 0
M  V30 627 H 58.847 -0.344786 3.24775 0
M  V30 628 H 57.506 1.78721 3.20085 0
M  V30 629 H 57.154 0.11686 5.02864 0
M  V30 630 H 56.854 1.77704 5.60085 0
M  V30 631 H 58.378 0.950093 6.03163 0
M  V30 632 H 59.792 2.93393 4.92538 0
M  V30 633 H 58.189 3.69936 4.72512 0
M  V30 634 H 59.259 3.53285 3.32142 0
M  V30 635 N 60.6021 -1.18246 1.0419 0
M  V30 636 C 61.8791 -1.84121 0.660208 0
M  V30 637 C 62.2591 -1.92778 -0.860221 0
M  V30 638 O 61.6071 -1.45464 -1.76217 0
M  V30 639 C 61.8171 -3.22355 1.33747 0
M  V30 640 C 63.1651 -3.98376 1.46906 0
M  V30 641 O 64.1891 -3.31799 1.29568 0
M  V30 642 O 63.0481 -5.17665 1.75171 0
M  V30 643 H 60.1421 -0.794036 0.231161 0
M  V30 644 H 62.6881 -1.25628 1.14087 0
M  V30 645 H 61.4601 -3.10964 2.37522 0
M  V30 646 H 61.0831 -3.88506 0.845515 0
M  V30 647 N 62.0802 -0.821533 -1.34494 0
M  V30 648 C 63.3292 -0.405355 -1.97585 0
M  V30 649 C 63.6422 1.03677 -1.65863 0
M  V30 650 O 64.8482 1.55679 -2.22433 0
M  V30 651 C 63.3042 -0.673861 -3.53535 0
M  V30 652 C 62.9122 -2.12951 -3.94152 0
M  V30 653 C 64.6562 -0.32378 -4.23263 0
M  V30 654 C 62.5632 -2.34298 -5.43009 0
M  V30 655 H 61.4932 -0.147836 -0.739365 0
M  V30 656 H 64.1442 -1.00769 -1.53355 0
M  V30 657 H 62.5262 -0.00137554 -3.96 0
M  V30 658 H 63.7002 -2.84104 -3.62797 0
M  V30 659 H 62.0152 -2.44089 -3.37356 0
M  V30 660 H 64.6122 -0.461126 -5.32708 0
M  V30 661 H 64.9552 0.731586 -4.09821 0
M  V30 662 H 65.4882 -0.950786 -3.8627 0
M  V30 663 H 62.2272 -3.38335 -5.61435 0
M  V30 664 H 61.7472 -1.67687 -5.75883 0
M  V30 665 H 63.4262 -2.16588 -6.09671 0
M  V30 666 N 63.5583 1.46682 -0.576371 0
M  V30 667 C 64.9693 1.86112 -0.148091 0
M  V30 668 C 65.3203 1.48073 1.2872 0
M  V30 669 O 64.4453 0.892656 1.97131 0
M  V30 670 C 65.0403 3.37786 -0.261982 0
M  V30 671 C 63.5993 3.76235 0.111384 0
M  V30 672 C 62.7463 2.70713 -0.60083 0
M  V30 673 H 65.6973 1.37927 -0.78497 0
M  V30 674 H 65.7183 3.77007 0.514364 0
M  V30 675 H 65.2303 3.6544 -1.30671 0
M  V30 676 H 63.3313 3.54198 1.15649 0
M  V30 677 H 63.4443 4.78391 -0.26052 0
M  V30 678 H 61.8083 2.54666 -0.0417783 0
M  V30 679 H 62.5913 3.01208 -1.64708 0
M  V30 680 N 65.0364 0.313813 1.54444 0
M  V30 681 C 66.2844 -0.291099 1.99993 0
M  V30 682 C 66.6054 -1.53418 1.20366 0
M  V30 683 O 65.8754 -1.93544 0.302927 0
M  V30 684 H 64.4554 -0.110552 0.738774 0
M  V30 685 H 67.1174 0.428106 1.9014 0
M  V30 686 H 66.2134 -0.554268 3.07139 0
M  V30 687 N 66.5145 -1.57545 0.0417849 0
M  V30 688 C 67.4445 -2.14009 -0.933929 0
M  V30 689 C 68.4255 -1.05938 -1.33083 0
M  V30 690 O 69.6105 -1.33833 -1.40721 0
M  V30 691 C 66.7405 -2.67747 -2.21199 0
M  V30 692 C 65.6945 -3.80718 -1.95544 0
M  V30 693 C 65.0205 -4.20935 -3.29724 0
M  V30 694 C 66.3205 -5.06258 -1.28452 0
M  V30 695 H 68.0145 -2.95788 -0.463645 0
M  V30 696 H 65.5605 -1.42285 -0.221573 0
M  V30 697 H 67.5135 -3.05886 -2.89848 0
M  V30 698 H 66.2375 -1.83147 -2.70416 0
M  V30 699 H 64.8965 -3.43037 -1.2931 0
M  V30 700 H 64.5445 -3.33298 -3.76724 0
M  V30 701 H 64.2445 -4.9707 -3.13361 0
M  V30 702 H 65.7685 -4.61666 -3.9962 0
M  V30 703 H 67.1825 -5.41903 -1.8712 0
M  V30 704 H 65.5795 -5.87475 -1.22445 0
M  V30 705 H 66.6495 -4.84207 -0.259219 0
M  V30 706 N 67.9926 0.231505 -1.5589 0
M  V30 707 C 68.9026 1.308 -1.94752 0
M  V30 708 C 69.9186 1.51826 -0.849989 0
M  V30 709 O 71.0946 1.6515 -1.15271 0
M  V30 710 C 68.1596 2.63968 -2.24771 0
M  V30 711 C 67.2206 2.51331 -3.48039 0
M  V30 712 C 66.4536 3.78148 -3.76616 0
M  V30 713 O 66.6766 4.80722 -3.07022 0
M  V30 714 O 65.6106 3.75857 -4.70123 0
M  V30 715 H 69.4366 1.0083 -2.86474 0
M  V30 716 H 67.0216 0.433547 -1.42971 0
M  V30 717 H 68.9036 3.42633 -2.45318 0
M  V30 718 H 67.5786 2.9364 -1.36225 0
M  V30 719 H 66.4856 1.709 -3.32782 0
M  V30 720 H 67.8186 2.26601 -4.36936 0
M  V30 721 N 69.4707 1.49531 0.497807 0
M  V30 722 C 70.7167 1.59415 1.25358 0
M  V30 723 C 71.0497 0.281422 1.9215 0
M  V30 724 O 70.3247 -0.715249 1.80871 0
M  V30 725 C 70.6077 2.75566 2.3181 0
M  V30 726 C 70.4607 4.16642 1.69498 0
M  V30 727 C 71.7797 2.87347 3.33346 0
M  V30 728 H 68.8987 0.580244 0.454408 0
M  V30 729 H 71.5407 1.81827 0.551262 0
M  V30 730 H 69.6907 2.56587 2.91711 0
M  V30 731 H 71.3627 4.47145 1.13399 0
M  V30 732 H 69.6057 4.22141 0.998978 0
M  V30 733 H 70.2767 4.93792 2.46725 0
M  V30 734 H 72.7527 3.04634 2.83438 0
M  V30 735 H 71.6287 3.70289 4.05188 0
M  V30 736 H 71.8897 1.96834 3.95865 0
M  V30 737 N 70.9488 -0.749086 1.3866 0
M  V30 738 C 71.9118 -1.84457 1.36045 0
M  V30 739 C 72.9118 -1.58682 0.260122 0
M  V30 740 O 74.1018 -1.66343 0.517261 0
M  V30 741 C 71.2338 -3.22008 1.11911 0
M  V30 742 H 72.4268 -1.88182 2.33512 0
M  V30 743 H 69.9798 -0.951266 1.24019 0
M  V30 744 H 70.7148 -3.2395 0.150686 0
M  V30 745 H 70.4998 -3.42111 1.91579 0
M  V30 746 H 71.9898 -4.0208 1.12788 0
M  V30 747 N 72.4269 -1.23603 -0.977757 0
M  V30 748 C 73.6729 -1.07129 -1.72195 0
M  V30 749 C 74.0059 0.390501 -1.90233 0
M  V30 750 O 73.2809 1.28902 -1.45653 0
M  V30 751 C 73.5639 -1.80031 -3.11867 0
M  V30 752 C 73.4169 -3.33899 -3.01383 0
M  V30 753 C 74.7359 -1.56492 -4.11337 0
M  V30 754 H 71.8549 -0.390571 -0.624999 0
M  V30 755 H 74.4969 -1.52142 -1.13811 0
M  V30 756 H 72.6469 -1.41768 -3.6171 0
M  V30 757 H 74.3189 -3.81699 -2.59043 0
M  V30 758 H 72.5619 -3.62796 -2.37827 0
M  V30 759 H 73.2329 -3.801 -4.00285 0
M  V30 760 H 75.7089 -1.89757 -3.70313 0
M  V30 761 H 74.5849 -2.09973 -5.07151 0
M  V30 762 H 74.8459 -0.500874 -4.39254 0
M  V30 763 N 73.905 1.17692 -1.04816 0
M  V30 764 C 75.151 1.88137 -0.75711 0
M  V30 765 C 75.484 1.80604 0.713841 0
M  V30 766 O 74.759 1.21146 1.52164 0
M  V30 767 C 75.042 3.38318 -1.2334 0
M  V30 768 C 74.895 3.54622 -2.76701 0
M  V30 769 C 76.214 4.32214 -0.829415 0
M  V30 770 H 73.333 0.683163 -0.27651 0
M  V30 771 H 75.975 1.38424 -1.30149 0
M  V30 772 H 74.125 3.80787 -0.770286 0
M  V30 773 H 75.797 3.21194 -3.31107 0
M  V30 774 H 74.04 2.97026 -3.16161 0
M  V30 775 H 74.711 4.60028 -3.05088 0
M  V30 776 H 77.187 3.97565 -1.22805 0
M  V30 777 H 76.063 5.35838 -1.19033 0
M  V30 778 H 76.324 4.41294 0.266891 0
M  V30 779 N 75.3831 0.828654 1.34056 0
M  V30 780 C 76.6111 0.43262 2.02326 0
M  V30 781 C 77.0261 -0.963147 1.62385 0
M  V30 782 O 76.3831 -1.62425 0.832121 0
M  V30 783 C 76.4341 0.53182 3.57567 0
M  V30 784 O 76.1551 1.87258 3.96063 0
M  V30 785 C 77.6561 0.131422 4.43105 0
M  V30 786 H 74.8761 0.172923 0.648335 0
M  V30 787 H 77.4201 1.1184 1.71208 0
M  V30 788 H 75.5751 -0.105938 3.87255 0
M  V30 789 H 75.9891 1.85087 4.90758 0
M  V30 790 H 77.4631 0.251904 5.51425 0
M  V30 791 H 77.9401 -0.925645 4.29335 0
M  V30 792 H 78.5461 0.743207 4.18756 0
M  V30 793 N 76.8612 -1.46375 0.584142 0
M  V30 794 C 78.0892 -2.06761 0.0759296 0
M  V30 795 C 78.5042 -1.43266 -1.22965 0
M  V30 796 O 77.8612 -0.538458 -1.74376 0
M  V30 797 C 77.9122 -3.61375 -0.0950384 0
M  V30 798 O 77.6332 -4.22495 1.15887 0
M  V30 799 C 79.1342 -4.38693 -0.637434 0
M  V30 800 H 76.3542 -0.668479 0.0581075 0
M  V30 801 H 78.8982 -1.8798 0.805218 0
M  V30 802 H 77.0532 -3.79578 -0.774554 0
M  V30 803 H 77.4672 -5.15385 0.973598 0
M  V30 804 H 78.9412 -5.47464 -0.706237 0
M  V30 805 H 79.4182 -4.06836 -1.65472 0
M  V30 806 H 80.0242 -4.25299 0.00725967 0
M  V30 807 N 78.3393 -0.321999 -1.54275 0
M  V30 808 C 79.2493 0.553631 -2.27974 0
M  V30 809 C 80.2653 1.13054 -1.32268 0
M  V30 810 O 81.4413 1.15084 -1.6528 0
M  V30 811 C 78.5063 1.69927 -3.02201 0
M  V30 812 C 77.5673 1.15433 -4.1349 0
M  V30 813 C 76.8003 2.24537 -4.84168 0
M  V30 814 O 77.0233 3.44852 -4.5435 0
M  V30 815 O 75.9573 1.90044 -5.7111 0
M  V30 816 H 79.7833 -0.0448345 -3.03667 0
M  V30 817 H 77.3683 -0.0877418 -1.49142 0
M  V30 818 H 79.2503 2.3663 -3.48689 0
M  V30 819 H 77.9253 2.28395 -2.29385 0
M  V30 820 H 76.8323 0.452436 -3.71354 0
M  V30 821 H 78.1653 0.614805 -4.88345 0
M  V30 822 N 79.8174 1.5752 -0.0501392 0
M  V30 823 C 81.2334 1.56631 0.306402 0
M  V30 824 C 81.4334 1.0577 1.71508 0
M  V30 825 O 80.4894 0.713837 2.422 0
M  V30 826 C 81.8024 3.00393 0.135811 0
M  V30 827 C 83.3504 3.12315 0.206993 0
M  V30 828 C 83.8254 4.57954 0.064944 0
M  V30 829 N 85.3164 4.63041 0.121254 0
M  V30 830 C 86.0514 5.73389 0.0354381 0
M  V30 831 N 85.5474 6.92724 -0.102666 0
M  V30 832 N 87.3404 5.62026 0.090946 0
M  V30 833 H 79.4914 1.88903 -0.971046 0
M  V30 834 H 81.7544 0.869876 -0.376855 0
M  V30 835 H 81.4604 3.41635 -0.835384 0
M  V30 836 H 81.3344 3.66373 0.897275 0
M  V30 837 H 83.7214 2.70973 1.16866 0
M  V30 838 H 83.8024 2.49016 -0.585208 0
M  V30 839 H 83.4464 4.99981 -0.893394 0
M  V30 840 H 83.3764 5.19258 0.876277 0
M  V30 841 H 85.8674 3.77216 0.227284 0
M  V30 842 H 86.1804 7.72633 -0.160882 0
M  V30 843 H 84.5254 6.94864 -0.137737 0
M  V30 844 H 87.7164 4.67684 0.197388 0
M  V30 845 H 87.8894 6.47997 0.0206089 0
M  V30 846 N 81.2955 -0.223234 1.56011 0
M  V30 847 C 82.2585 -1.26014 1.9145 0
M  V30 848 C 83.2585 -1.3989 0.792937 0
M  V30 849 O 84.4485 -1.38184 1.0607 0
M  V30 850 C 81.5805 -2.63422 2.16383 0
M  V30 851 H 82.7735 -0.95796 2.84189 0
M  V30 852 H 80.3265 -0.463576 1.49267 0
M  V30 853 H 81.0615 -2.98741 1.2619 0
M  V30 854 H 80.8465 -2.54728 2.98088 0
M  V30 855 H 82.3365 -3.38249 2.44903 0
M  V30 856 N 82.7736 -1.49793 -0.48987 0
M  V30 857 C 83.7206 -1.67281 -1.59014 0
M  V30 858 C 84.6906 -0.514177 -1.57941 0
M  V30 859 O 85.8756 -0.742533 -1.75759 0
M  V30 860 C 83.0156 -1.75569 -2.97102 0
M  V30 861 C 82.1286 -3.0281 -3.08107 0
M  V30 862 C 81.2636 -3.02008 -4.36995 0
M  V30 863 C 80.3026 -4.23782 -4.41673 0
M  V30 864 N 79.4396 -4.20826 -5.62005 0
M  V30 865 H 84.2796 -2.61224 -1.43409 0
M  V30 866 H 81.8166 -1.29508 -0.697565 0
M  V30 867 H 83.7746 -1.78354 -3.77155 0
M  V30 868 H 82.4046 -0.850827 -3.11385 0
M  V30 869 H 81.4566 -3.09584 -2.21047 0
M  V30 870 H 82.7686 -3.92801 -3.07423 0
M  V30 871 H 81.9226 -3.03418 -5.25378 0
M  V30 872 H 80.6616 -2.09815 -4.4026 0
M  V30 873 H 79.6666 -4.22604 -3.5169 0
M  V30 874 H 80.8916 -5.17181 -4.40115 0
M  V30 875 H 78.8376 -3.31476 -5.66091 0
M  V30 876 H 78.7546 -5.04564 -5.62984 0
M  V30 877 H 80.0226 -4.26355 -6.52565 0
M  V30 878 N 84.2517 0.741722 -1.39055 0
M  V30 879 C 85.2017 1.84661 -1.33732 0
M  V30 880 C 86.1857 1.59397 -0.219401 0
M  V30 881 O 87.3777 1.71015 -0.456375 0
M  V30 882 C 84.5067 3.22512 -1.17647 0
M  V30 883 C 83.5927 3.53628 -2.34112 0
M  V30 884 N 83.9837 3.55723 -3.59576 0
M  V30 885 C 82.2817 3.83956 -2.26923 0
M  V30 886 C 82.9827 3.84443 -4.36553 0
M  V30 887 N 81.9587 4.01877 -3.66055 0
M  V30 888 H 85.7607 1.84576 -2.28711 0
M  V30 889 H 83.2747 0.939647 -1.32455 0
M  V30 890 H 85.2717 4.01597 -1.11917 0
M  V30 891 H 83.9317 3.2384 -0.236124 0
M  V30 892 H 84.9427 3.37196 -3.93089 0
M  V30 893 H 81.6197 3.92929 -1.41113 0
M  V30 894 H 83.0097 3.92588 -5.45274 0
M  V30 895 N 85.7298 1.2412 0.971189 0
M  V30 896 C 86.9768 1.07881 1.71371 0
M  V30 897 C 87.3048 -0.382901 1.90694 0
M  V30 898 O 86.5598 -1.29945 1.46331 0
M  V30 899 C 86.8588 1.75983 3.11071 0
M  V30 900 C 86.5248 3.25909 3.11599 0
M  V30 901 C 85.1868 3.66813 3.11451 0
M  V30 902 C 87.5388 4.21771 3.062 0
M  V30 903 C 84.8668 5.02021 3.03631 0
M  V30 904 C 87.2188 5.56982 2.99923 0
M  V30 905 C 85.8828 5.97237 2.98102 0
M  V30 906 H 85.1528 0.394764 0.62709 0
M  V30 907 H 87.7998 1.54176 1.13587 0
M  V30 908 H 86.1048 1.22072 3.72298 0
M  V30 909 H 87.8018 1.60887 3.6731 0
M  V30 910 H 84.3918 2.93353 3.12477 0
M  V30 911 H 88.5758 3.91172 3.05447 0
M  V30 912 H 83.8318 5.32411 3.0058 0
M  V30 913 H 88.0058 6.30969 2.94704 0
M  V30 914 H 85.6328 7.01967 2.91798 0
M  V30 915 N 87.2079 -1.17134 1.05439 0
M  V30 916 C 88.4379 -1.91094 0.785274 0
M  V30 917 C 88.8459 -1.77198 -0.663142 0
M  V30 918 O 88.1889 -1.10835 -1.46497 0
M  V30 919 C 88.2509 -3.42594 1.08949 0
M  V30 920 C 87.9149 -3.80274 2.53458 0
M  V30 921 C 88.9119 -3.82912 3.51673 0
M  V30 922 C 86.5969 -4.11162 2.88532 0
M  V30 923 C 88.5909 -4.15913 4.83006 0
M  V30 924 C 86.2779 -4.43831 4.20068 0
M  V30 925 C 87.2759 -4.46185 5.17115 0
M  V30 926 O 86.9639 -4.78083 6.46291 0
M  V30 927 H 86.6959 -0.613073 0.284811 0
M  V30 928 H 89.2499 -1.49461 1.40893 0
M  V30 929 H 87.4799 -3.84534 0.408741 0
M  V30 930 H 89.1689 -3.97817 0.805991 0
M  V30 931 H 89.9349 -3.5917 3.25917 0
M  V30 932 H 85.8139 -4.085 2.13656 0
M  V30 933 H 89.3579 -4.17665 5.5875 0
M  V30 934 H 85.2549 -4.67037 4.45586 0
M  V30 935 H 86.0229 -4.9593 6.51149 0
M  V30 936 N 88.686 -0.835752 -1.33615 0
M  V30 937 C 89.911 -0.442389 -2.02627 0
M  V30 938 C 90.336 0.947735 -1.62479 0
M  V30 939 O 89.694 1.61907 -0.815826 0
M  V30 940 C 89.742 -0.567216 -3.56111 0
M  V30 941 O 88.846 0.407799 -4.10379 0
M  V30 942 H 88.187 -0.180278 -0.639059 0
M  V30 943 H 90.717 -1.12972 -1.70583 0
M  V30 944 H 90.727 -0.447708 -4.05536 0
M  V30 945 H 89.402 -1.58103 -3.84677 0
M  V30 946 H 87.979 0.246107 -3.72087 0
M  V30 947 N 90.1641 1.46063 -0.591896 0
M  V30 948 C 91.5751 1.85944 -0.167822 0
M  V30 949 C 91.9261 1.49429 1.27143 0
M  V30 950 O 91.0511 0.913515 1.96173 0
M  V30 951 C 91.6461 3.37489 -0.297794 0
M  V30 952 C 90.2051 3.76332 0.0714732 0
M  V30 953 C 89.3521 2.7006 -0.629509 0
M  V30 954 H 92.3031 1.37087 -0.799555 0
M  V30 955 H 92.3241 3.77532 0.474349 0
M  V30 956 H 91.8361 3.64034 -1.3454 0
M  V30 957 H 89.9371 3.55405 1.11886 0
M  V30 958 H 90.0501 4.78088 -0.311245 0
M  V30 959 H 88.4141 2.54607 -0.0687867 0
M  V30 960 H 89.1971 2.99444 -1.67894 0
M  V30 961 N 91.6422 0.330177 1.54103 0
M  V30 962 C 92.5742 -0.566902 2.22079 0
M  V30 963 C 93.5872 -1.07462 1.22294 0
M  V30 964 O 94.7762 -0.987065 1.48726 0
M  V30 965 C 91.8762 -1.79138 2.87685 0
M  V30 966 C 91.0492 -1.42123 4.13666 0
M  V30 967 C 90.1082 -2.50394 4.62806 0
M  V30 968 O 89.1342 -2.14261 5.27334 0
M  V30 969 N 90.3362 -3.81433 4.37595 0
M  V30 970 H 93.1012 0.0151844 2.99696 0
M  V30 971 H 90.6622 0.153681 1.61169 0
M  V30 972 H 92.6542 -2.50975 3.1748 0
M  V30 973 H 91.2242 -2.28115 2.13734 0
M  V30 974 H 90.4442 -0.534201 3.90564 0
M  V30 975 H 91.7322 -1.14971 4.9564 0
M  V30 976 H 91.1302 -4.13584 3.8596 0
M  V30 977 H 89.6872 -4.4948 4.72029 0
M  V30 978 N 93.1203 -1.57491 0.0584922 0
M  V30 979 C 94.3973 -1.84346 -0.653918 0
M  V30 980 C 94.7773 -0.948355 -1.88599 0
M  V30 981 O 94.1253 -0.0112403 -2.28497 0
M  V30 982 C 94.3353 -3.34239 -1.00425 0
M  V30 983 C 95.6833 -4.01431 -1.38342 0
M  V30 984 O 96.7073 -3.38907 -1.09637 0
M  V30 985 O 95.5663 -5.11683 -1.91943 0
M  V30 986 H 92.6603 -0.761112 -0.323478 0
M  V30 987 H 95.2063 -1.6947 0.0884125 0
M  V30 988 H 93.9783 -3.91089 -0.128625 0
M  V30 989 H 93.6013 -3.54329 -1.80378 0
M  V30 990 N 94.5984 0.214957 -1.56127 0
M  V30 991 C 95.8474 0.936451 -1.78643 0
M  V30 992 C 96.1604 1.85237 -0.628229 0
M  V30 993 O 97.3664 2.613 -0.737186 0
M  V30 994 C 95.8224 1.7154 -3.16389 0
M  V30 995 C 95.4304 0.845299 -4.39953 0
M  V30 996 C 97.1744 2.42772 -3.48227 0
M  V30 997 C 95.0814 1.62198 -5.68723 0
M  V30 998 H 94.0114 0.353401 -0.666051 0
M  V30 999 H 96.6624 0.190169 -1.82512 0
M  V30 1000 H 95.0444 2.50484 -3.06715 0
M  V30 1001 H 96.2184 0.0959353 -4.607 0
M  V30 1002 H 94.5334 0.244789 -4.1568 0
M  V30 1003 H 97.1304 3.01394 -4.41663 0
M  V30 1004 H 97.4734 3.15984 -2.71035 0
M  V30 1005 H 98.0064 1.70813 -3.5926 0
M  V30 1006 H 94.7454 0.933011 -6.48826 0
M  V30 1007 H 94.2654 2.34579 -5.52026 0
M  V30 1008 H 95.9444 2.18095 -6.09133 0
M  V30 1009 N 96.0765 1.50051 0.48192 0
M  V30 1010 C 97.4875 1.5348 1.06305 0
M  V30 1011 C 97.8385 0.331997 1.93371 0
M  V30 1012 O 96.9635 -0.556256 2.09129 0
M  V30 1013 C 97.5585 2.7813 1.93466 0
M  V30 1014 C 96.1175 2.84275 2.46707 0
M  V30 1015 C 95.2645 2.47637 1.24785 0
M  V30 1016 H 98.2155 1.56472 0.264995 0
M  V30 1017 H 98.2365 2.59372 2.78399 0
M  V30 1018 H 97.7485 3.65654 1.30072 0
M  V30 1019 H 95.8495 2.01077 3.13686 0
M  V30 1020 H 95.9625 3.8691 2.82555 0
M  V30 1021 H 94.3265 1.99835 1.57918 0
M  V30 1022 H 95.1095 3.37457 0.630694 0
M  V30 1023 N 97.5546 -0.734337 1.39446 0
M  V30 1024 C 98.8006 -1.49613 1.36908 0
M  V30 1025 C 99.1336 -1.94169 -0.0347829 0
M  V30 1026 O 98.4086 -1.66833 -0.999847 0
M  V30 1027 C 98.6916 -2.73534 2.34203 0
M  V30 1028 C 98.5446 -2.34993 3.83534 0
M  V30 1029 C 99.8636 -3.75635 2.29317 0
M  V30 1030 H 96.9826 -0.542714 0.498629 0
M  V30 1031 H 99.6246 -0.839597 1.70443 0
M  V30 1032 H 97.7746 -3.29553 2.05736 0
M  V30 1033 H 99.4466 -1.84601 4.22753 0
M  V30 1034 H 97.6896 -1.67213 4.00278 0
M  V30 1035 H 98.3606 -3.23738 4.47099 0
M  V30 1036 H 100.837 -3.29203 2.54489 0
M  V30 1037 H 99.7126 -4.60008 2.99472 0
M  V30 1038 H 99.9736 -4.22603 1.29842 0
M  V30 1039 N 99.0327 -1.24633 -0.964593 0
M  V30 1040 C 100.261 -1.11501 -1.74285 0
M  V30 1041 C 100.676 0.332165 -1.85855 0
M  V30 1042 O 100.033 1.22903 -1.34911 0
M  V30 1043 C 100.084 -1.75258 -3.16175 0
M  V30 1044 O 99.8047 -3.14318 -3.05182 0
M  V30 1045 C 101.306 -1.67776 -4.10324 0
M  V30 1046 H 98.5257 -0.389407 -0.546446 0
M  V30 1047 H 101.07 -1.64801 -1.21083 0
M  V30 1048 H 99.2247 -1.25954 -3.66353 0
M  V30 1049 H 99.6387 -3.4551 -3.94618 0
M  V30 1050 H 101.113 -2.17064 -5.0753 0
M  V30 1051 H 101.59 -0.639584 -4.34518 0
M  V30 1052 H 102.196 -2.16522 -3.66058 0
M  V30 1053 N 100.511 1.16574 -1.06058 0
M  V30 1054 C 101.441 2.23057 -0.690488 0
M  V30 1055 C 102.422 1.67141 0.315901 0
M  V30 1056 O 103.607 1.93253 0.191556 0
M  V30 1057 C 100.737 3.47222 -0.073625 0
M  V30 1058 C 99.6908 4.16016 -1.00573 0
M  V30 1059 C 99.0168 5.34104 -0.252289 0
M  V30 1060 C 100.317 4.67264 -2.33371 0
M  V30 1061 H 102.011 2.54271 -1.58072 0
M  V30 1062 H 99.5568 1.22218 -0.76149 0
M  V30 1063 H 101.51 4.20939 0.19714 0
M  V30 1064 H 100.234 3.15302 0.85161 0
M  V30 1065 H 98.8928 3.44223 -1.2612 0
M  V30 1066 H 98.5408 4.98437 0.675988 0
M  V30 1067 H 98.2408 5.81072 -0.873455 0
M  V30 1068 H 99.7648 6.10599 0.0109857 0
M  V30 1069 H 101.179 5.32573 -2.12223 0
M  V30 1070 H 99.5758 5.24843 -2.90963 0
M  V30 1071 H 100.646 3.83602 -2.96611 0
M  V30 1072 N 101.989 0.842826 1.3317 0
M  V30 1073 C 103.219 0.453397 2.01564 0
M  V30 1074 C 103.627 -0.951147 1.63554 0
M  V30 1075 O 102.97 -1.63021 0.846746 0
M  V30 1076 C 103.032 0.499013 3.5602 0
M  V30 1077 C 102.696 1.86037 4.1742 0
M  V30 1078 C 103.693 2.82416 4.36506 0
M  V30 1079 C 101.378 2.15428 4.53757 0
M  V30 1080 C 103.372 4.06346 4.91082 0
M  V30 1081 C 101.059 3.39615 5.0804 0
M  V30 1082 C 102.057 4.3489 5.26649 0
M  V30 1083 O 101.745 5.5688 5.79776 0
M  V30 1084 H 101.477 0.177871 0.652179 0
M  V30 1085 H 104.031 1.13808 1.70988 0
M  V30 1086 H 102.261 -0.242467 3.85939 0
M  V30 1087 H 103.95 0.126852 4.05702 0
M  V30 1088 H 104.716 2.6101 4.08777 0
M  V30 1089 H 100.595 1.42061 4.38565 0
M  V30 1090 H 104.139 4.80722 5.05522 0
M  V30 1091 H 100.036 3.60876 5.352 0
M  V30 1092 H 100.804 5.58674 5.98185 0
M  V30 1093 N 103.467 -1.45747 0.599634 0
M  V30 1094 C 104.692 -2.07178 0.0960198 0
M  V30 1095 C 105.117 -1.44268 -1.207 0
M  V30 1096 O 104.475 -0.532503 -1.73303 0
M  V30 1097 C 104.523 -3.60579 -0.0385348 0
M  V30 1098 O 103.627 -3.97713 -1.0908 0
M  V30 1099 H 102.968 -0.660251 0.0704593 0
M  V30 1100 H 105.498 -1.87124 0.827385 0
M  V30 1101 H 105.508 -4.07298 -0.239304 0
M  V30 1102 H 104.183 -4.05756 0.912947 0
M  V30 1103 H 102.76 -3.62678 -0.867135 0
M  V30 1104 N 104.945 -0.338344 -1.53925 0
M  V30 1105 C 106.222 0.314774 -1.93051 0
M  V30 1106 C 106.602 1.68669 -1.26941 0
M  V30 1107 O 105.95 2.24636 -0.418445 0
M  V30 1108 C 106.16 0.392249 -3.46789 0
M  V30 1109 C 107.508 0.645554 -4.19664 0
M  V30 1110 O 108.532 0.474575 -3.53024 0
M  V30 1111 O 107.391 0.976408 -5.37707 0
M  V30 1112 H 104.485 0.182598 -0.80659 0
M  V30 1113 H 107.031 -0.389141 -1.65178 0
M  V30 1114 H 105.803 -0.570702 -3.87116 0
M  V30 1115 H 105.426 1.14316 -3.80812 0
M  V30 1116 N 106.423 1.57458 -0.0668435 0
M  V30 1117 C 107.386 2.11323 0.887422 0
M  V30 1118 C 108.386 1.03618 1.22964 0
M  V30 1119 O 109.576 1.29626 1.16373 0
M  V30 1120 C 106.708 2.61048 2.19242 0
M  V30 1121 H 107.901 2.96942 0.420194 0
M  V30 1122 H 105.454 1.55239 0.181793 0
M  V30 1123 H 106.189 1.78868 2.70512 0
M  V30 1124 H 105.974 3.39769 1.95702 0
M  V30 1125 H 107.464 3.02814 2.87565 0
M  V30 1126 N 107.901 -0.206675 1.56239 0
M  V30 1127 C 109.178 -0.954051 1.70755 0
M  V30 1128 C 109.558 -2.01841 0.618353 0
M  V30 1129 O 108.906 -2.25444 -0.372434 0
M  V30 1130 C 109.116 -1.551 3.12642 0
M  V30 1131 C 110.464 -2.03757 3.72516 0
M  V30 1132 O 111.488 -1.64965 3.15698 0
M  V30 1133 O 110.347 -2.75103 4.72208 0
M  V30 1134 H 107.441 -0.446636 0.696021 0
M  V30 1135 H 109.987 -0.197283 1.68549 0
M  V30 1136 H 108.759 -0.783212 3.83382 0
M  V30 1137 H 108.382 -2.37291 3.19028 0
M  V30 1138 N 109.379 -1.50304 -0.473955 0
M  V30 1139 C 110.289 -1.7174 -1.5982 0
M  V30 1140 C 111.305 -0.600457 -1.63311 0
M  V30 1141 O 112.481 -0.878441 -1.81233 0
M  V30 1142 C 109.546 -1.80427 -2.96052 0
M  V30 1143 C 108.607 -3.04148 -3.02972 0
M  V30 1144 C 107.84 -3.12411 -4.32706 0
M  V30 1145 O 108.063 -2.27542 -5.23049 0
M  V30 1146 O 106.997 -4.05113 -4.45159 0
M  V30 1147 H 110.823 -2.67035 -1.44657 0
M  V30 1148 H 108.408 -1.34366 -0.653148 0
M  V30 1149 H 110.29 -1.88338 -3.7697 0
M  V30 1150 H 108.965 -0.883156 -3.11419 0
M  V30 1151 H 107.872 -3.0174 -2.21142 0
M  V30 1152 H 109.205 -3.95829 -2.92541 0
M  V30 1153 N 110.857 0.726932 -1.39834 0
M  V30 1154 C 112.103 1.48771 -1.38704 0
M  V30 1155 C 112.458 1.92394 0.0146387 0
M  V30 1156 O 111.751 1.64474 0.982797 0
M  V30 1157 C 111.945 2.73495 -2.30077 0
M  V30 1158 C 111.774 2.42068 -3.78989 0
M  V30 1159 C 110.544 2.33966 -4.4787 0
M  V30 1160 C 112.742 2.0708 -4.70768 0
M  V30 1161 N 110.724 1.95095 -5.82075 0
M  V30 1162 C 112.095 1.78719 -5.93683 0
M  V30 1163 C 114.15 1.93618 -4.58712 0
M  V30 1164 C 112.853 1.3825 -7.05889 0
M  V30 1165 C 114.879 1.54553 -5.70848 0
M  V30 1166 C 114.241 1.27082 -6.92842 0
M  V30 1167 H 110.34 0.542919 -0.562817 0
M  V30 1168 H 112.924 0.84408 -1.75452 0
M  V30 1169 H 111.095 3.35625 -1.95474 0
M  V30 1170 H 112.827 3.39755 -2.19883 0
M  V30 1171 H 109.582 2.51331 -4.0141 0
M  V30 1172 H 110.006 1.7823 -6.53118 0
M  V30 1173 H 114.648 2.13522 -3.64922 0
M  V30 1174 H 112.366 1.17088 -7.99572 0
M  V30 1175 H 115.952 1.44731 -5.6351 0
M  V30 1176 H 114.832 0.973069 -7.78139 0
M  V30 1177 N 112.336 1.25143 0.95797 0
M  V30 1178 C 113.246 1.06968 2.08794 0
M  V30 1179 C 114.262 0.00773911 1.73998 0
M  V30 1180 O 115.438 0.207972 2.00323 0
M  V30 1181 C 112.503 0.68691 3.39827 0
M  V30 1182 C 111.564 1.82641 3.88511 0
M  V30 1183 C 110.797 1.46181 5.1329 0
M  V30 1184 O 111.02 0.355971 5.69288 0
M  V30 1185 O 109.954 2.29085 5.566 0
M  V30 1186 H 113.78 2.01723 2.27027 0
M  V30 1187 H 111.365 1.04051 1.07209 0
M  V30 1188 H 113.247 0.485417 4.18595 0
M  V30 1189 H 111.922 -0.231417 3.22872 0
M  V30 1190 H 110.829 2.08274 3.10762 0
M  V30 1191 H 112.162 2.72386 4.09959 0
M  V30 1192 N 113.814 -1.1601 1.06675 0
M  V30 1193 C 115.063 -1.85973 0.780818 0
M  V30 1194 C 115.376 -1.82819 -0.695444 0
M  V30 1195 O 116.582 -2.484 -1.09589 0
M  V30 1196 C 115.038 -3.33757 1.34665 0
M  V30 1197 C 114.646 -3.45374 2.85343 0
M  V30 1198 C 116.39 -4.0895 1.13843 0
M  V30 1199 C 114.297 -4.87266 3.35151 0
M  V30 1200 H 113.227 -0.696661 0.288407 0
M  V30 1201 H 115.878 -1.30903 1.28595 0
M  V30 1202 H 114.26 -3.88456 0.769274 0
M  V30 1203 H 115.434 -3.00816 3.49065 0
M  V30 1204 H 113.749 -2.83619 3.04876 0
M  V30 1205 H 116.346 -5.13654 1.4854 0
M  V30 1206 H 116.689 -4.16229 0.0770282 0
M  V30 1207 H 117.222 -3.605 1.68179 0
M  V30 1208 H 113.961 -4.85168 4.40786 0
M  V30 1209 H 113.481 -5.32433 2.76179 0
M  V30 1210 H 115.16 -5.56097 3.30704 0
M  V30 1211 N 115.292 -0.849877 -1.32721 0
M  V30 1212 C 116.538 -0.460855 -1.9811 0
M  V30 1213 C 116.893 0.971716 -1.66059 0
M  V30 1214 O 116.186 1.67184 -0.935944 0
M  V30 1215 C 116.38 -0.631272 -3.51781 0
M  V30 1216 C 116.209 -2.07886 -3.98765 0
M  V30 1217 C 114.979 -2.71637 -4.26077 0
M  V30 1218 C 117.177 -3.04889 -4.14182 0
M  V30 1219 N 115.159 -4.07356 -4.59276 0
M  V30 1220 C 116.53 -4.25583 -4.50865 0
M  V30 1221 C 118.585 -3.01148 -3.96503 0
M  V30 1222 C 117.288 -5.43027 -4.71714 0
M  V30 1223 C 119.314 -4.17832 -4.18533 0
M  V30 1224 C 118.676 -5.37284 -4.55528 0
M  V30 1225 H 114.775 -0.217283 -0.751207 0
M  V30 1226 H 117.359 -1.10026 -1.60631 0
M  V30 1227 H 115.53 -0.0215966 -3.88394 0
M  V30 1228 H 117.262 -0.212614 -4.04141 0
M  V30 1229 H 114.017 -2.22705 -4.17971 0
M  V30 1230 H 114.441 -4.77351 -4.80068 0
M  V30 1231 H 119.083 -2.0992 -3.67006 0
M  V30 1232 H 116.801 -6.34791 -5.00066 0
M  V30 1233 H 120.387 -4.16368 -4.06361 0
M  V30 1234 H 119.267 -6.26071 -4.72234 0
M  V30 1235 N 116.77 1.45427 -0.607355 0
M  V30 1236 C 117.717 2.3053 0.111625 0
M  V30 1237 C 118.687 1.4209 0.860216 0
M  V30 1238 O 119.872 1.71019 0.845998 0
M  V30 1239 C 117.012 3.26992 1.10319 0
M  V30 1240 C 116.125 4.30535 0.355493 0
M  V30 1241 C 115.26 5.14105 1.33676 0
M  V30 1242 C 114.299 6.09376 0.576862 0
M  V30 1243 N 113.436 6.85727 1.5074 0
M  V30 1244 H 118.276 2.91477 -0.620093 0
M  V30 1245 H 115.813 1.43631 -0.317594 0
M  V30 1246 H 117.771 3.81385 1.6912 0
M  V30 1247 H 116.401 2.67799 1.80232 0
M  V30 1248 H 115.453 3.78805 -0.348023 0
M  V30 1249 H 116.765 4.98235 -0.237423 0
M  V30 1250 H 115.919 5.72897 1.99684 0
M  V30 1251 H 114.658 4.46423 1.9636 0
M  V30 1252 H 113.663 5.49715 -0.0968519 0
M  V30 1253 H 114.888 6.79085 -0.0449341 0
M  V30 1254 H 112.834 6.20735 2.12189 0
M  V30 1255 H 112.751 7.49778 0.967913 0
M  V30 1256 H 114.019 7.4906 2.15706 0
M  V30 1257 N 118.248 0.346503 1.53744 0
M  V30 1258 C 119.473 -0.253074 2.0585 0
M  V30 1259 C 119.898 -1.43202 1.21962 0
M  V30 1260 O 119.256 -1.79783 0.234073 0
M  V30 1261 C 119.304 -0.643193 3.54817 0
M  V30 1262 O 118.408 -1.74286 3.73762 0
M  V30 1263 H 117.749 -0.0413583 0.662711 0
M  V30 1264 H 120.279 0.501574 1.98357 0
M  V30 1265 H 120.289 -0.919526 3.97503 0
M  V30 1266 H 118.964 0.218966 4.15323 0
M  V30 1267 H 117.541 -1.46356 3.42979 0
M  V30 1268 N 119.726 -1.57421 0.075193 0
M  V30 1269 C 121.142 -1.57099 -0.281444 0
M  V30 1270 C 121.342 -1.08486 -1.69803 0
M  V30 1271 O 120.398 -0.752279 -2.41033 0
M  V30 1272 C 121.711 -3.00571 -0.0880041 0
M  V30 1273 C 123.259 -3.12605 -0.157281 0
M  V30 1274 C 123.734 -4.57999 0.0079207 0
M  V30 1275 N 125.225 -4.63176 -0.0475725 0
M  V30 1276 C 125.96 -5.73373 0.0557876 0
M  V30 1277 N 125.456 -6.92473 0.21286 0
M  V30 1278 N 127.249 -5.621 -0.00152098 0
M  V30 1279 H 119.4 -1.87335 1.00098 0
M  V30 1280 H 121.663 -0.86377 0.390646 0
M  V30 1281 H 121.369 -3.40262 0.889629 0
M  V30 1282 H 121.243 -3.67754 -0.838875 0
M  V30 1283 H 123.63 -2.72798 -1.1254 0
M  V30 1284 H 123.711 -2.48053 0.62475 0
M  V30 1285 H 123.355 -4.98496 0.972824 0
M  V30 1286 H 123.285 -5.20586 -0.793556 0
M  V30 1287 H 125.776 -3.7753 -0.167244 0
M  V30 1288 H 126.089 -7.72279 0.283781 0
M  V30 1289 H 124.434 -6.94556 0.248267 0
M  V30 1290 H 127.625 -4.67938 -0.122958 0
M  V30 1291 H 127.798 -6.47948 0.0824844 0
M  V30 1292 N 121.204 0.198386 -1.56346 0
M  V30 1293 C 122.429 0.939682 -1.84891 0
M  V30 1294 C 122.854 1.76202 -0.658369 0
M  V30 1295 O 122.212 1.76993 0.392851 0
M  V30 1296 C 122.26 1.81428 -3.11635 0
M  V30 1297 O 121.364 2.91265 -2.91956 0
M  V30 1298 H 120.705 0.264807 -0.608912 0
M  V30 1299 H 123.235 0.204695 -2.03573 0
M  V30 1300 H 123.245 2.21958 -3.42343 0
M  V30 1301 H 121.92 1.21004 -3.97908 0
M  V30 1302 H 120.497 2.54514 -2.72538 0
M  V30 1303 N 122.682 1.50554 0.465978 0
M  V30 1304 C 123.959 1.5232 1.22712 0
M  V30 1305 C 124.339 0.270807 2.09356 0
M  V30 1306 O 123.687 -0.745541 2.15995 0
M  V30 1307 C 123.897 2.82175 2.05374 0
M  V30 1308 C 125.245 3.33033 2.6339 0
M  V30 1309 O 126.269 2.83531 2.15612 0
M  V30 1310 O 125.128 4.19336 3.50456 0
M  V30 1311 H 122.222 0.611183 0.557122 0
M  V30 1312 H 124.768 1.62847 0.477381 0
M  V30 1313 H 123.54 3.64797 1.41558 0
M  V30 1314 H 123.163 2.74675 2.87471 0
M  V30 1315 N 124.16 -0.719506 1.40217 0
M  V30 1316 C 125.571 -1.29848 1.34151 0
M  V30 1317 C 125.922 -1.96196 0.0131349 0
M  V30 1318 O 125.047 -1.973 -0.88892 0
M  V30 1319 C 125.642 -2.36118 2.42968 0
M  V30 1320 C 124.201 -2.8965 2.40374 0
M  V30 1321 C 123.348 -1.63393 2.24049 0
M  V30 1322 H 126.299 -0.51591 1.5008 0
M  V30 1323 H 126.32 -3.16871 2.10649 0
M  V30 1324 H 125.832 -1.878 3.39636 0
M  V30 1325 H 123.933 -3.42208 1.47392 0
M  V30 1326 H 124.046 -3.4171 3.35814 0
M  V30 1327 H 122.41 -1.88312 1.71495 0
M  V30 1328 H 123.193 -1.17104 3.2271 0
M  V30 1329 N 125.638 -1.25649 -0.95132 0
M  V30 1330 C 126.884 -1.10757 -1.69884 0
M  V30 1331 C 127.217 0.350061 -1.91019 0
M  V30 1332 O 126.492 1.25783 -1.48354 0
M  V30 1333 C 126.775 -1.86606 -3.07978 0
M  V30 1334 C 126.628 -3.40217 -2.94232 0
M  V30 1335 C 127.947 -1.65182 -4.07925 0
M  V30 1336 H 125.066 -0.40374 -0.616574 0
M  V30 1337 H 127.708 -1.54521 -1.10558 0
M  V30 1338 H 125.858 -1.49409 -3.58621 0
M  V30 1339 H 127.53 -3.87108 -2.50889 0
M  V30 1340 H 125.773 -3.67759 -2.30078 0
M  V30 1341 H 126.444 -3.88505 -3.92133 0
M  V30 1342 H 128.92 -1.9757 -3.66204 0
M  V30 1343 H 127.796 -2.20683 -5.02583 0
M  V30 1344 H 128.057 -0.593933 -4.38092 0
M  V30 1345 N 127.117 1.15442 -1.07289 0
M  V30 1346 C 128.047 2.22312 -0.714107 0
M  V30 1347 C 129.028 1.67467 0.298155 0
M  V30 1348 O 130.213 1.93445 0.171048 0
M  V30 1349 C 127.343 3.47124 -0.110448 0
M  V30 1350 C 126.297 4.14926 -1.04979 0
M  V30 1351 C 125.623 5.33807 -0.308924 0
M  V30 1352 C 126.923 4.64762 -2.38314 0
M  V30 1353 H 128.617 2.5258 -1.6076 0
M  V30 1354 H 126.163 1.21404 -0.77441 0
M  V30 1355 H 128.116 4.21124 0.152482 0
M  V30 1356 H 126.84 3.16187 0.81812 0
M  V30 1357 H 125.499 3.42866 -1.29764 0
M  V30 1358 H 125.147 4.99126 0.623084 0
M  V30 1359 H 124.847 5.80113 -0.935036 0
M  V30 1360 H 126.371 6.10576 -0.0537771 0
M  V30 1361 H 127.785 5.30292 -2.1786 0
M  V30 1362 H 126.182 5.21728 -2.96514 0
M  V30 1363 H 127.252 3.80434 -3.00663 0
M  V30 1364 N 128.595 0.856903 1.32268 0
M  V30 1365 C 129.545 0.274899 2.26337 0
M  V30 1366 C 130.529 -0.580543 1.50062 0
M  V30 1367 O 131.721 -0.429559 1.71708 0
M  V30 1368 C 128.85 -0.533841 3.39124 0
M  V30 1369 C 127.936 0.334114 4.22782 0
M  V30 1370 N 128.327 1.42143 4.85416 0
M  V30 1371 C 126.625 0.124256 4.45827 0
M  V30 1372 C 127.326 1.95559 5.47843 0
M  V30 1373 N 126.302 1.25444 5.28928 0
M  V30 1374 H 130.104 1.10612 2.72291 0
M  V30 1375 H 127.618 0.703258 1.46383 0
M  V30 1376 H 129.615 -0.96722 4.05525 0
M  V30 1377 H 128.275 -1.36283 2.94715 0
M  V30 1378 H 129.286 1.80436 4.85451 0
M  V30 1379 H 125.963 -0.669837 4.12092 0
M  V30 1380 H 127.353 2.86714 6.07655 0
M  V30 1381 N 130.073 -1.45103 0.615059 0
M  V30 1382 C 131.322 -2.01396 0.110718 0
M  V30 1383 C 131.635 -1.48834 -1.26916 0
M  V30 1384 O 132.841 -1.97152 -1.86664 0
M  V30 1385 C 131.297 -3.59599 0.14723 0
M  V30 1386 C 130.905 -4.21158 1.52743 0
M  V30 1387 C 132.649 -4.23428 -0.30148 0
M  V30 1388 C 130.556 -5.71535 1.51992 0
M  V30 1389 H 129.486 -0.753061 0.0376241 0
M  V30 1390 H 132.137 -1.66494 0.77149 0
M  V30 1391 H 130.519 -3.91724 -0.580339 0
M  V30 1392 H 131.693 -4.00594 2.2773 0
M  V30 1393 H 130.008 -3.69552 1.91886 0
M  V30 1394 H 132.605 -5.33703 -0.326392 0
M  V30 1395 H 132.948 -3.94629 -1.32565 0
M  V30 1396 H 133.481 -3.96047 0.373065 0
M  V30 1397 H 130.22 -6.05044 2.52193 0
M  V30 1398 H 129.74 -5.94268 0.81274 0
M  V30 1399 H 131.419 -6.34873 1.24681 0
M  V30 1400 N 131.551 -0.354651 -1.53558 0
M  V30 1401 C 132.828 0.294281 -1.93374 0
M  V30 1402 C 133.208 1.67313 -1.28723 0
M  V30 1403 O 132.556 2.24179 -0.442247 0
M  V30 1404 C 132.766 0.355445 -3.47185 0
M  V30 1405 C 134.114 0.601007 -4.20325 0
M  V30 1406 O 135.138 0.437106 -3.53508 0
M  V30 1407 O 133.997 0.919322 -5.38712 0
M  V30 1408 H 131.091 0.174033 -0.808481 0
M  V30 1409 H 133.637 -0.406638 -1.64756 0
M  V30 1410 H 132.409 -0.611729 -3.86489 0
M  V30 1411 H 132.032 1.1027 -3.82003 0
M  V30 1412 N 133.029 1.57378 -0.0835403 0
M  V30 1413 C 133.959 2.1641 0.87686 0
M  V30 1414 C 134.94 1.09429 1.30228 0
M  V30 1415 O 136.125 1.37516 1.37124 0
M  V30 1416 C 133.255 2.73517 2.14022 0
M  V30 1417 C 132.209 3.85769 1.85381 0
M  V30 1418 C 131.535 4.29529 3.18448 0
M  V30 1419 C 132.835 5.09486 1.14984 0
M  V30 1420 H 134.529 2.96914 0.385059 0
M  V30 1421 H 132.075 1.42823 0.18377 0
M  V30 1422 H 134.028 3.13463 2.81636 0
M  V30 1423 H 132.752 1.90252 2.65465 0
M  V30 1424 H 131.411 3.46345 1.20169 0
M  V30 1425 H 131.059 3.43169 3.67755 0
M  V30 1426 H 130.759 5.05204 3.00071 0
M  V30 1427 H 132.283 4.72099 3.8724 0
M  V30 1428 H 133.697 5.46674 1.72687 0
M  V30 1429 H 132.094 5.90515 1.06826 0
M  V30 1430 H 133.164 4.84724 0.130749 0
M  V30 1431 N 134.507 -0.190092 1.56449 0
M  V30 1432 C 135.923 -0.54113 1.50146 0
M  V30 1433 C 136.123 -1.85603 0.784465 0
M  V30 1434 O 135.179 -2.5024 0.337051 0
M  V30 1435 C 136.492 -0.591241 2.9483 0
M  V30 1436 C 138.04 -0.679732 3.0553 0
M  V30 1437 C 138.515 -0.760908 4.51635 0
M  V30 1438 N 140.006 -0.824302 4.55806 0
M  V30 1439 C 140.741 -0.907365 5.66175 0
M  V30 1440 N 140.237 -0.952422 6.86222 0
M  V30 1441 N 142.03 -0.94494 5.541 0
M  V30 1442 H 134.181 0.67235 2.01478 0
M  V30 1443 H 136.444 0.240127 0.917084 0
M  V30 1444 H 136.15 0.305905 3.50367 0
M  V30 1445 H 136.024 -1.44422 3.48457 0
M  V30 1446 H 138.411 -1.56731 2.50039 0
M  V30 1447 H 138.492 0.199549 2.5502 0
M  V30 1448 H 138.136 0.122336 5.07753 0
M  V30 1449 H 138.066 -1.65606 4.99882 0
M  V30 1450 H 140.557 -0.798526 3.69367 0
M  V30 1451 H 140.87 -1.01645 7.66086 0
M  V30 1452 H 139.215 -0.921014 6.8887 0
M  V30 1453 H 142.406 -0.906612 4.59236 0
M  V30 1454 H 142.579 -1.00622 6.4014 0
M  V30 1455 N 135.985 -1.50799 -0.457987 0
M  V30 1456 C 137.401 -1.38515 -0.792819 0
M  V30 1457 C 137.601 -0.451409 -1.96379 0
M  V30 1458 O 136.657 0.10112 -2.52297 0
M  V30 1459 C 137.97 -2.80149 -1.09258 0
M  V30 1460 C 139.518 -2.89156 -1.19825 0
M  V30 1461 C 139.993 -4.31651 -1.53106 0
M  V30 1462 N 141.484 -4.34662 -1.60072 0
M  V30 1463 C 142.219 -5.41928 -1.87354 0
M  V30 1464 N 141.715 -6.59384 -2.12568 0
M  V30 1465 N 143.508 -5.29385 -1.88965 0
M  V30 1466 H 135.659 -2.10073 0.313511 0
M  V30 1467 H 137.922 -0.944803 0.0777862 0
M  V30 1468 H 137.628 -3.50374 -0.305084 0
M  V30 1469 H 137.502 -3.18204 -2.02549 0
M  V30 1470 H 139.889 -2.19141 -1.97639 0
M  V30 1471 H 139.97 -2.54626 -0.244821 0
M  V30 1472 H 139.614 -5.02208 -0.758266 0
M  V30 1473 H 139.544 -4.63678 -2.49621 0
M  V30 1474 H 142.035 -3.49973 -1.42573 0
M  V30 1475 H 142.348 -7.36934 -2.32696 0
M  V30 1476 H 140.693 -6.62535 -2.09933 0
M  V30 1477 H 143.884 -4.36616 -1.68772 0
M  V30 1478 H 144.057 -6.13066 -2.09891 0
M  V30 1479 N 137.463 0.71206 -1.40597 0
M  V30 1480 C 138.709 1.47292 -1.40274 0
M  V30 1481 C 139.064 1.92399 -0.00576812 0
M  V30 1482 O 138.357 1.65507 0.965297 0
M  V30 1483 C 138.551 2.71039 -2.32965 0
M  V30 1484 C 138.38 2.38035 -3.81536 0
M  V30 1485 C 137.15 2.29203 -4.50327 0
M  V30 1486 C 139.348 2.02076 -4.72938 0
M  V30 1487 N 137.33 1.88911 -5.84111 0
M  V30 1488 C 138.701 1.72412 -5.95545 0
M  V30 1489 C 140.756 1.88742 -4.60739 0
M  V30 1490 C 139.459 1.30756 -7.07316 0
M  V30 1491 C 141.485 1.4849 -5.72455 0
M  V30 1492 C 140.847 1.19726 -6.94151 0
M  V30 1493 H 136.946 0.536919 -0.568544 0
M  V30 1494 H 139.53 0.825424 -1.76337 0
M  V30 1495 H 137.701 3.33533 -1.99023 0
M  V30 1496 H 139.433 3.37404 -2.23474 0
M  V30 1497 H 136.188 2.47059 -4.04053 0
M  V30 1498 H 136.612 1.71293 -6.54972 0
M  V30 1499 H 141.254 2.0964 -3.67166 0
M  V30 1500 H 138.972 1.08601 -8.00769 0
M  V30 1501 H 142.558 1.38747 -5.65014 0
M  V30 1502 H 141.438 0.890482 -7.79128 0
M  V30 1503 N 138.941 1.26152 0.944643 0
M  V30 1504 C 139.904 1.07474 2.0244 0
M  V30 1505 C 140.904 0.0242064 1.60782 0
M  V30 1506 O 142.094 0.267302 1.72137 0
M  V30 1507 C 139.226 0.633956 3.34953 0
M  V30 1508 H 140.419 2.03336 2.20442 0
M  V30 1509 H 137.972 1.087 1.12312 0
M  V30 1510 H 138.707 -0.326811 3.22649 0
M  V30 1511 H 138.492 1.39247 3.66542 0
M  V30 1512 H 139.982 0.52501 4.14287 0
M  V30 1513 N 140.419 -1.14872 1.07899 0
M  V30 1514 C 141.696 -1.81928 0.71845 0
M  V30 1515 C 142.076 -1.95417 -0.798455 0
M  V30 1516 O 141.424 -1.50997 -1.715 0
M  V30 1517 C 141.634 -3.17937 1.43935 0
M  V30 1518 C 142.982 -3.93501 1.59506 0
M  V30 1519 O 144.006 -3.27509 1.40058 0
M  V30 1520 O 142.865 -5.1183 1.91551 0
M  V30 1521 H 139.959 -0.78628 0.256305 0
M  V30 1522 H 142.505 -1.21934 1.18026 0
M  V30 1523 H 141.277 -3.0325 2.47295 0
M  V30 1524 H 140.9 -3.85619 0.968687 0
M  V30 1525 N 141.898 -0.863906 -1.31812 0
M  V30 1526 C 142.828 -0.330843 -2.31144 0
M  V30 1527 C 143.809 0.575005 -1.60087 0
M  V30 1528 O 144.994 0.493304 -1.8783 0
M  V30 1529 C 142.124 0.47374 -3.44054 0
M  V30 1530 C 141.078 -0.338481 -4.26659 0
M  V30 1531 C 140.404 0.591412 -5.31419 0
M  V30 1532 C 141.704 -1.56926 -4.98168 0
M  V30 1533 H 143.398 -1.16086 -2.75979 0
M  V30 1534 H 140.944 -0.559657 -1.32679 0
M  V30 1535 H 142.897 0.857143 -4.12591 0
M  V30 1536 H 141.621 1.33721 -2.9797 0
M  V30 1537 H 140.28 -0.703754 -3.59782 0
M  V30 1538 H 139.928 1.45199 -4.81587 0
M  V30 1539 H 139.628 0.0519022 -5.87577 0
M  V30 1540 H 141.152 0.97179 -6.02817 0
M  V30 1541 H 142.566 -1.25764 -5.59336 0
M  V30 1542 H 140.963 -2.04739 -5.64094 0
M  V30 1543 H 142.033 -2.32544 -4.25501 0
M  V30 1544 N 143.376 1.44774 -0.622745 0
M  V30 1545 C 144.306 2.33382 0.0741861 0
M  V30 1546 C 145.287 1.47719 0.843387 0
M  V30 1547 O 146.472 1.76458 0.810934 0
M  V30 1548 C 143.602 3.30663 1.06204 0
M  V30 1549 C 142.556 4.26079 0.405037 0
M  V30 1550 C 141.882 5.13165 1.5022 0
M  V30 1551 C 143.182 5.1781 -0.683414 0
M  V30 1552 H 144.876 2.91905 -0.665713 0
M  V30 1553 H 142.422 1.40363 -0.321587 0
M  V30 1554 H 144.375 3.9153 1.55827 0
M  V30 1555 H 143.099 2.70331 1.83272 0
M  V30 1556 H 141.758 3.66532 -0.0704683 0
M  V30 1557 H 141.406 4.49191 2.26355 0
M  V30 1558 H 141.106 5.77812 1.06803 0
M  V30 1559 H 142.63 5.76902 2.00041 0
M  V30 1560 H 144.044 5.72661 -0.270631 0
M  V30 1561 H 142.441 5.91015 -1.04023 0
M  V30 1562 H 143.511 4.59326 -1.55395 0
M  V30 1563 N 144.854 0.36279 1.53368 0
M  V30 1564 C 145.784 -0.476976 2.28576 0
M  V30 1565 C 146.765 -1.08631 1.30894 0
M  V30 1566 O 147.95 -1.10409 1.59761 0
M  V30 1567 C 145.08 -1.61828 3.07293 0
M  V30 1568 C 144.034 -1.13633 4.1264 0
M  V30 1569 C 143.36 -2.36766 4.79423 0
M  V30 1570 C 144.66 -0.223061 5.21823 0
M  V30 1571 H 146.354 0.150474 2.99022 0
M  V30 1572 H 143.9 0.0738103 1.43811 0
M  V30 1573 H 145.853 -2.21237 3.58653 0
M  V30 1574 H 144.577 -2.27292 2.34533 0
M  V30 1575 H 143.236 -0.564945 3.62221 0
M  V30 1576 H 142.884 -3.0068 4.03238 0
M  V30 1577 H 142.584 -2.05192 5.50609 0
M  V30 1578 H 144.108 -2.96865 5.33576 0
M  V30 1579 H 145.522 -0.724545 5.68703 0
M  V30 1580 H 143.919 0.001678 6.001 0
M  V30 1581 H 144.989 0.735553 4.79289 0
M  V30 1582 N 146.332 -1.57332 0.0918853 0
M  V30 1583 C 147.578 -1.94524 -0.573425 0
M  V30 1584 C 147.911 -0.973578 -1.68033 0
M  V30 1585 O 147.186 -0.00609226 -1.94499 0
M  V30 1586 C 147.469 -3.41858 -1.13161 0
M  V30 1587 C 147.322 -4.4979 -0.0299747 0
M  V30 1588 C 148.641 -3.90435 -2.03098 0
M  V30 1589 H 145.76 -0.70734 -0.206975 0
M  V30 1590 H 148.402 -1.89309 0.161942 0
M  V30 1591 H 146.552 -3.46433 -1.7583 0
M  V30 1592 H 148.224 -4.57327 0.604112 0
M  V30 1593 H 146.467 -4.291 0.636833 0
M  V30 1594 H 147.138 -5.50069 -0.461287 0
M  V30 1595 H 149.614 -3.87992 -1.50338 0
M  V30 1596 H 148.49 -4.94097 -2.39081 0
M  V30 1597 H 148.751 -3.29541 -2.94712 0
M  V30 1598 N 147.81 0.181792 -1.56548 0
M  V30 1599 C 148.773 1.20894 -1.94724 0
M  V30 1600 C 149.773 1.37738 -0.829747 0
M  V30 1601 O 150.963 1.35323 -1.09697 0
M  V30 1602 C 148.095 2.57593 -2.23291 0
M  V30 1603 H 149.288 0.882275 -2.86629 0
M  V30 1604 H 146.841 0.423838 -1.50444 0
M  V30 1605 H 147.576 2.95291 -1.34067 0
M  V30 1606 H 147.361 2.46735 -3.04736 0
M  V30 1607 H 148.851 3.31637 -2.53785 0
M  V30 1608 N 149.288 1.51039 0.449983 0
M  V30 1609 C 150.699 1.557 1.03026 0
M  V30 1610 C 151.05 0.372939 1.92623 0
M  V30 1611 O 150.175 -0.511771 2.10261 0
M  V30 1612 C 150.77 2.82171 1.87523 0
M  V30 1613 C 149.329 2.89444 2.40622 0
M  V30 1614 C 148.476 2.50228 1.19504 0
M  V30 1615 H 151.427 1.56999 0.231745 0
M  V30 1616 H 151.448 2.65219 2.72835 0
M  V30 1617 H 150.96 3.68331 1.22286 0
M  V30 1618 H 149.061 2.07685 3.0935 0
M  V30 1619 H 149.174 3.92816 2.74285 0
M  V30 1620 H 147.538 2.03139 1.53644 0
M  V30 1621 H 148.321 3.38719 0.558972 0
M  V30 1622 N 150.766 -0.704594 1.40972 0
M  V30 1623 C 151.696 -1.83124 1.44872 0
M  V30 1624 C 152.677 -1.67281 0.30838 0
M  V30 1625 O 153.862 -1.87149 0.518556 0
M  V30 1626 C 150.992 -3.21181 1.32136 0
M  V30 1627 C 149.946 -3.51714 2.43888 0
M  V30 1628 C 149.272 -4.89032 2.16222 0
M  V30 1629 C 150.572 -3.516 3.86232 0
M  V30 1630 H 152.266 -1.80117 2.39161 0
M  V30 1631 H 149.812 -0.865145 1.15114 0
M  V30 1632 H 151.765 -3.99702 1.33479 0
M  V30 1633 H 150.489 -3.24791 0.343279 0
M  V30 1634 H 149.148 -2.75539 2.41813 0
M  V30 1635 H 148.796 -4.89256 1.16778 0
M  V30 1636 H 148.496 -5.10426 2.911 0
M  V30 1637 H 150.02 -5.69873 2.19265 0
M  V30 1638 H 151.434 -4.2014 3.9007 0
M  V30 1639 H 149.831 -3.84523 4.60719 0
M  V30 1640 H 150.901 -2.50757 4.15029 0
M  V30 1641 N 152.244 -1.26651 -0.937939 0
M  V30 1642 C 153.521 -1.0313 -1.66204 0
M  V30 1643 C 153.901 0.437256 -2.06522 0
M  V30 1644 O 153.249 1.41831 -1.79154 0
M  V30 1645 C 153.459 -1.98314 -2.87181 0
M  V30 1646 C 154.807 -2.27107 -3.58758 0
M  V30 1647 O 155.831 -1.96205 -2.97291 0
M  V30 1648 O 154.69 -2.79736 -4.69479 0
M  V30 1649 H 151.784 -0.392384 -0.727986 0
M  V30 1650 H 154.33 -1.37874 -0.989382 0
M  V30 1651 H 153.102 -2.97399 -2.54302 0
M  V30 1652 H 152.725 -1.64068 -3.6217 0
M  V30 1653 N 153.722 1.14298 -1.08507 0
M  V30 1654 C 154.685 2.17607 -0.719711 0
M  V30 1655 C 155.685 1.58907 0.245997 0
M  V30 1656 O 156.875 1.74181 0.0254081 0
M  V30 1657 C 154.007 3.40842 -0.0627695 0
M  V30 1658 H 155.2 2.51443 -1.63452 0
M  V30 1659 H 152.753 1.28963 -0.88307 0
M  V30 1660 H 153.488 3.12587 0.863716 0
M  V30 1661 H 153.273 3.84713 -0.757504 0
M  V30 1662 H 154.763 4.17221 0.177786 0
M  V30 1663 N 155.201 0.870884 1.31352 0
M  V30 1664 C 156.149 0.316445 2.30437 0
M  V30 1665 C 157.143 -0.568965 1.59559 0
M  V30 1666 O 158.349 -0.454964 1.74155 0
M  V30 1667 H 154.724 0.0836521 0.747333 0
M  V30 1668 H 156.695 1.16606 2.74673 0
M  V30 1669 C 155.444 -0.46635 3.44558 0
M  V30 1670 H 154.767 0.205687 3.99271 0
M  V30 1671 H 156.207 -0.819614 4.16003 0
M  V30 1672 C 154.666 -1.65797 2.9328 0
M  V30 1673 O 155.196 -2.75728 2.92125 0
M  V30 1674 N 153.402 -1.49041 2.4947 0
M  V30 1675 H 152.949 -0.59612 2.50608 0
M  V30 1676 H 152.907 -2.28911 2.15516 0
M  V30 1677 N 156.679 -1.44442 0.630414 0
M  V30 1678 C 157.907 -2.06414 0.141671 0
M  V30 1679 C 158.322 -1.47105 -1.18345 0
M  V30 1680 O 157.679 -0.593662 -1.72574 0
M  V30 1681 C 157.73 -3.61494 0.0199784 0
M  V30 1682 O 157.451 -4.18594 1.29269 0
M  V30 1683 C 158.952 -4.40499 -0.497544 0
M  V30 1684 H 156.172 -0.666292 0.0793452 0
M  V30 1685 H 158.716 -1.85323 0.864614 0
M  V30 1686 H 156.871 -3.8185 -0.653402 0
M  V30 1687 H 157.285 -5.12026 1.13707 0
M  V30 1688 H 158.759 -5.49433 -0.531708 0
M  V30 1689 H 159.236 -4.11895 -1.52445 0
M  V30 1690 H 159.842 -4.25061 0.142562 0
M  V30 1691 N 158.157 -0.370918 -1.53173 0
M  V30 1692 C 159.087 0.464847 -2.28826 0
M  V30 1693 C 160.068 1.07936 -1.31468 0
M  V30 1694 O 161.253 1.0956 -1.60344 0
M  V30 1695 C 158.383 1.60196 -3.08147 0
M  V30 1696 C 157.337 1.11443 -4.13237 0
M  V30 1697 C 156.663 2.3422 -4.80672 0
M  V30 1698 C 157.963 0.195384 -5.21934 0
M  V30 1699 H 159.657 -0.166329 -2.98938 0
M  V30 1700 H 157.203 -0.0814359 -1.4377 0
M  V30 1701 H 159.156 2.19332 -3.59822 0
M  V30 1702 H 157.88 2.26045 -2.35735 0
M  V30 1703 H 156.539 0.545727 -3.62515 0
M  V30 1704 H 156.187 2.98537 -4.04827 0
M  V30 1705 H 155.887 2.02269 -5.51689 0
M  V30 1706 H 157.411 2.94032 -5.35143 0
M  V30 1707 H 158.825 0.694375 -5.69079 0
M  V30 1708 H 157.222 -0.0335027 -6.00091 0
M  V30 1709 H 158.292 -0.760961 -4.78892 0
M  V30 1710 N 159.635 1.57281 -0.100228 0
M  V30 1711 C 160.883 1.94153 0.561157 0
M  V30 1712 C 161.204 0.983157 1.68401 0
M  V30 1713 O 160.474 0.0361132 1.95867 0
M  V30 1714 H 159.054 0.716791 0.210283 0
M  V30 1715 H 161.716 1.94202 -0.164765 0
M  V30 1716 H 160.812 2.96709 0.968008 0
M  V30 1717 N 161.113 -0.173488 1.56642 0
M  V30 1718 C 162.06 -1.21482 1.96242 0
M  V30 1719 C 163.03 -1.44104 0.826027 0
M  V30 1720 O 164.215 -1.5688 1.08597 0
M  V30 1721 C 161.355 -2.54964 2.32567 0
M  V30 1722 C 160.468 -2.39739 3.59373 0
M  V30 1723 C 159.603 -3.66072 3.84921 0
M  V30 1724 C 158.642 -3.45771 5.05083 0
M  V30 1725 N 157.779 -4.64169 5.26775 0
M  V30 1726 H 162.619 -0.870123 2.85014 0
M  V30 1727 H 160.156 -0.418245 1.41029 0
M  V30 1728 H 162.114 -3.32758 2.5165 0
M  V30 1729 H 160.744 -2.87433 1.46908 0
M  V30 1730 H 159.796 -1.53131 3.48217 0
M  V30 1731 H 161.108 -2.20683 4.47326 0
M  V30 1732 H 160.262 -4.52303 4.0436 0
M  V30 1733 H 159.001 -3.88105 2.9534 0
M  V30 1734 H 158.006 -2.57927 4.85545 0
M  V30 1735 H 159.231 -3.25163 5.96193 0
M  V30 1736 H 157.177 -4.86425 4.40144 0
M  V30 1737 H 157.094 -4.48019 6.08946 0
M  V30 1738 H 158.362 -5.51689 5.5069 0
M  V30 1739 N 162.591 -1.51276 -0.441967 0
M  V30 1740 C 163.837 -1.63958 -1.19355 0
M  V30 1741 C 164.17 -0.352543 -1.90973 0
M  V30 1742 O 163.445 0.647627 -1.83401 0
M  V30 1743 C 163.728 -2.83979 -2.21422 0
M  V30 1744 C 163.581 -4.22646 -1.53918 0
M  V30 1745 C 164.9 -2.99521 -3.22451 0
M  V30 1746 H 162.019 -0.596709 -0.432559 0
M  V30 1747 H 164.661 -1.83748 -0.483398 0
M  V30 1748 H 162.811 -2.67237 -2.81987 0
M  V30 1749 H 164.483 -4.51045 -0.967256 0
M  V30 1750 H 162.726 -4.25558 -0.841615 0
M  V30 1751 H 163.397 -5.02609 -2.28229 0
M  V30 1752 H 165.873 -3.14944 -2.71937 0
M  V30 1753 H 164.749 -3.85072 -3.91166 0
M  V30 1754 H 165.01 -2.11391 -3.88287 0
M  V30 1755 N 164.069 0.697108 -1.41344 0
M  V30 1756 C 165.032 1.79281 -1.42797 0
M  V30 1757 C 166.032 1.57607 -0.318837 0
M  V30 1758 O 167.222 1.64309 -0.578642 0
M  V30 1759 C 164.354 3.17632 -1.23785 0
M  V30 1760 H 165.547 1.79385 -2.40335 0
M  V30 1761 H 163.1 0.904582 -1.27464 0
M  V30 1762 H 163.835 3.23167 -0.270814 0
M  V30 1763 H 163.62 3.34765 -2.04144 0
M  V30 1764 H 165.11 3.97617 -1.27633 0
M  V30 1765 N 165.547 1.27147 0.931209 0
M  V30 1766 C 166.772 1.16191 1.71797 0
M  V30 1767 C 167.197 -0.278004 1.86034 0
M  V30 1768 O 166.555 -1.20137 1.35782 0
M  V30 1769 C 166.603 1.84673 3.09723 0
M  V30 1770 O 165.707 1.14231 3.96264 0
M  V30 1771 H 165.048 0.404303 0.526721 0
M  V30 1772 H 167.578 1.68152 1.1656 0
M  V30 1773 H 167.588 1.91893 3.60057 0
M  V30 1774 H 166.263 2.89421 2.98677 0
M  V30 1775 H 164.84 1.15056 3.54706 0
M  V30 1776 N 167.025 -1.13721 1.09112 0
M  V30 1777 C 168.273 -1.84559 0.823562 0
M  V30 1778 C 168.594 -1.83754 -0.652658 0
M  V30 1779 O 167.864 -1.29102 -1.47342 0
M  V30 1780 H 166.444 -0.683376 0.301673 0
M  V30 1781 H 169.106 -1.37771 1.37859 0
M  V30 1782 H 168.202 -2.8917 1.17419 0
M  V30 1783 N 168.503 -0.877838 -1.30888 0
M  V30 1784 C 169.752 -0.488793 -1.95688 0
M  V30 1785 C 170.065 0.965485 -1.70111 0
M  V30 1786 O 171.271 1.46104 -2.28836 0
M  V30 1787 C 169.727 -0.823201 -3.50359 0
M  V30 1788 C 169.335 -2.29477 -3.84765 0
M  V30 1789 C 171.079 -0.503009 -4.21509 0
M  V30 1790 C 168.986 -2.57118 -5.32583 0
M  V30 1791 H 167.916 -0.179062 -0.732429 0
M  V30 1792 H 170.567 -1.07183 -1.48943 0
M  V30 1793 H 168.949 -0.169331 -3.95638 0
M  V30 1794 H 170.123 -2.99236 -3.5042 0
M  V30 1795 H 168.438 -2.58178 -3.267 0
M  V30 1796 H 171.035 -0.68665 -5.30273 0
M  V30 1797 H 171.378 0.557109 -4.12555 0
M  V30 1798 H 171.911 -1.11376 -3.8189 0
M  V30 1799 H 168.65 -3.61843 -5.4658 0
M  V30 1800 H 168.17 -1.91961 -5.68253 0
M  V30 1801 H 169.849 -2.42251 -5.99936 0
M  V30 1802 N 169.982 1.44106 -0.638065 0
M  V30 1803 C 171.222 2.03858 -0.148733 0
M  V30 1804 C 171.586 1.49153 1.20903 0
M  V30 1805 O 172.787 2.00452 1.79088 0
M  V30 1806 C 171.058 3.57117 -0.142314 0
M  V30 1807 S 172.617 4.37897 0.281385 0
M  V30 1808 H 169.435 0.708069 -0.0644912 0
M  V30 1809 H 172.037 1.7639 -0.843009 0
M  V30 1810 H 170.741 3.94436 -1.13349 0
M  V30 1811 H 170.272 3.89205 0.572988 0
M  V30 1812 H 172.287 4.72218 1.52395 0
M  V30 1813 N 171.46 0.379036 1.52974 0
M  V30 1814 C 172.737 -0.263479 1.93817 0
M  V30 1815 C 173.117 -1.65244 1.31368 0
M  V30 1816 O 172.465 -2.23448 0.477856 0
M  V30 1817 C 172.675 -0.300166 3.47707 0
M  V30 1818 C 174.023 -0.534061 4.21228 0
M  V30 1819 O 175.047 -0.38081 3.54159 0
M  V30 1820 O 173.906 -0.833501 5.40106 0
M  V30 1821 H 171 -0.161149 0.811147 0
M  V30 1822 H 173.546 0.432798 1.64088 0
M  V30 1823 H 172.318 0.673138 3.85467 0
M  V30 1824 H 171.941 -1.04179 3.83709 0
M  V30 1825 N 172.938 -1.57226 0.108567 0
M  V30 1826 C 173.886 -2.16002 -0.862885 0
M  V30 1827 C 174.88 -1.10644 -1.28274 0
M  V30 1828 O 176.086 -1.28966 -1.2557 0
M  V30 1829 H 172.461 -0.691148 -0.296342 0
M  V30 1830 H 174.432 -2.96427 -0.342575 0
M  V30 1831 C 173.181 -2.76576 -2.10716 0
M  V30 1832 H 172.504 -3.5734 -1.793 0
M  V30 1833 H 173.944 -3.21253 -2.76717 0
M  V30 1834 C 172.403 -1.73137 -2.89007 0
M  V30 1835 O 172.933 -1.17842 -3.84026 0
M  V30 1836 N 171.139 -1.43317 -2.52801 0
M  V30 1837 H 170.686 -1.88473 -1.75601 0
M  V30 1838 H 170.644 -0.743485 -3.05483 0
M  V30 1839 N 174.416 0.165178 -1.56732 0
M  V30 1840 C 175.346 1.20651 -1.99914 0
M  V30 1841 C 176.327 1.45827 -0.875705 0
M  V30 1842 O 177.512 1.57057 -1.14223 0
M  V30 1843 C 174.642 2.54401 -2.36427 0
M  V30 1844 C 173.596 2.43782 -3.51787 0
M  V30 1845 C 172.922 3.82078 -3.7406 0
M  V30 1846 C 174.222 1.93732 -4.85041 0
M  V30 1847 H 175.916 0.847534 -2.87154 0
M  V30 1848 H 173.462 0.40625 -1.38151 0
M  V30 1849 H 175.415 3.27458 -2.65234 0
M  V30 1850 H 174.139 2.92098 -1.46103 0
M  V30 1851 H 172.798 1.73178 -3.23117 0
M  V30 1852 H 172.446 4.17179 -2.81017 0
M  V30 1853 H 172.146 3.7584 -4.51684 0
M  V30 1854 H 173.67 4.56712 -4.05274 0
M  V30 1855 H 175.084 2.56569 -5.12684 0
M  V30 1856 H 173.481 1.98428 -5.66345 0
M  V30 1857 H 174.551 0.891962 -4.76626 0
M  V30 1858 N 175.894 1.51508 0.433938 0
M  V30 1859 C 176.824 1.76016 1.53429 0
M  V30 1860 C 177.805 0.610112 1.58782 0
M  V30 1861 O 178.99 0.853177 1.74455 0
M  V30 1862 C 176.12 1.88831 2.9148 0
M  V30 1863 C 175.074 3.04288 3.00987 0
M  V30 1864 C 174.4 3.0229 4.4105 0
M  V30 1865 C 175.7 4.44193 2.74754 0
M  V30 1866 H 177.394 2.68152 1.33171 0
M  V30 1867 H 174.94 1.29035 0.639214 0
M  V30 1868 H 176.893 2.04559 3.6842 0
M  V30 1869 H 175.617 0.933455 3.12976 0
M  V30 1870 H 174.276 2.8827 2.26486 0
M  V30 1871 H 173.924 2.04576 4.59519 0
M  V30 1872 H 173.624 3.79822 4.4834 0
M  V30 1873 H 175.148 3.20116 5.1996 0
M  V30 1874 H 176.562 4.60544 3.41426 0
M  V30 1875 H 174.959 5.23457 2.9345 0
M  V30 1876 H 176.029 4.53996 1.70339 0
M  V30 1877 N 177.372 -0.689602 1.41712 0
M  V30 1878 C 178.6 -1.47827 1.44758 0
M  V30 1879 C 179.015 -1.88721 0.0545703 0
M  V30 1880 O 178.372 -1.57176 -0.927463 0
M  V30 1881 C 178.423 -2.73698 2.3616 0
M  V30 1882 O 178.144 -2.34524 3.7004 0
M  V30 1883 C 179.645 -3.67389 2.48072 0
M  V30 1884 H 176.865 -0.455357 0.49284 0
M  V30 1885 H 179.409 -0.848574 1.86063 0
M  V30 1886 H 177.564 -3.32891 1.98148 0
M  V30 1887 H 177.978 -3.15701 4.18847 0
M  V30 1888 H 179.452 -4.52475 3.16181 0
M  V30 1889 H 179.929 -4.12284 1.51388 0
M  V30 1890 H 180.535 -3.14097 2.86746 0
M  V30 1891 N 178.85 -1.27639 -0.924453 0
M  V30 1892 C 180.09 -1.15407 -1.68703 0
M  V30 1893 C 180.454 0.294581 -1.89727 0
M  V30 1894 O 181.655 0.539385 -2.63333 0
M  V30 1895 C 179.926 -1.9195 -3.0148 0
M  V30 1896 S 181.485 -1.95969 -3.92609 0
M  V30 1897 H 178.303 -0.411937 -0.579507 0
M  V30 1898 H 180.905 -1.61592 -1.10038 0
M  V30 1899 H 179.609 -2.96387 -2.83871 0
M  V30 1900 H 179.14 -1.46272 -3.65196 0
M  V30 1901 H 181.155 -1.05846 -4.84779 0
M  V30 1902 N 180.328 1.1314 -1.09713 0
M  V30 1903 C 181.574 1.84757 -0.836224 0
M  V30 1904 C 181.907 1.8347 0.636598 0
M  V30 1905 O 181.182 1.27491 1.46889 0
M  V30 1906 C 181.465 3.32782 -1.37578 0
M  V30 1907 C 181.318 3.42567 -2.91493 0
M  V30 1908 C 182.637 4.28307 -1.01198 0
M  V30 1909 H 179.756 0.67082 -0.305236 0
M  V30 1910 H 182.398 1.3278 -1.35903 0
M  V30 1911 H 180.548 3.77177 -0.931097 0
M  V30 1912 H 182.22 3.06862 -3.44432 0
M  V30 1913 H 180.463 2.83349 -3.28475 0
M  V30 1914 H 181.134 4.46674 -3.24324 0
M  V30 1915 H 183.61 3.91999 -1.39556 0
M  V30 1916 H 182.486 5.30307 -1.41653 0
M  V30 1917 H 182.747 4.42029 0.0794833 0
M  V30 1918 N 181.806 0.884767 1.30421 0
M  V30 1919 C 182.739 0.295999 2.26272 0
M  V30 1920 C 183.717 -0.58332 1.51777 0
M  V30 1921 O 184.901 -0.53346 1.80794 0
M  V30 1922 C 182.028 -0.57944 3.33707 0
M  V30 1923 C 181.074 0.230525 4.25877 0
M  V30 1924 S 181.907 1.61867 5.1045 0
M  V30 1925 C 183.063 0.749756 6.21393 0
M  V30 1926 H 183.296 1.10848 2.75862 0
M  V30 1927 H 180.829 0.684178 1.38414 0
M  V30 1928 H 182.787 -1.07879 3.96071 0
M  V30 1929 H 181.448 -1.36601 2.82841 0
M  V30 1930 H 180.641 -0.437542 5.02097 0
M  V30 1931 H 180.243 0.662493 3.68086 0
M  V30 1932 H 182.535 -0.0333547 6.77492 0
M  V30 1933 H 183.478 1.48356 6.92384 0
M  V30 1934 H 183.886 0.310751 5.63644 0
M  V30 1935 N 183.284 -1.43765 0.645699 0
M  V30 1936 C 184.7 -1.56509 0.312591 0
M  V30 1937 C 184.9 -1.6307 -1.18365 0
M  V30 1938 O 183.956 -1.58167 -1.96824 0
M  V30 1939 C 185.269 -2.82968 1.01733 0
M  V30 1940 C 186.817 -2.96701 0.996865 0
M  V30 1941 C 187.292 -4.25982 1.68236 0
M  V30 1942 N 188.783 -4.32829 1.64964 0
M  V30 1943 C 189.518 -5.31613 2.14885 0
M  V30 1944 N 189.014 -6.36718 2.73061 0
M  V30 1945 N 190.807 -5.23217 2.05428 0
M  V30 1946 H 182.958 -1.3775 1.61675 0
M  V30 1947 H 185.221 -0.661067 0.679481 0
M  V30 1948 H 184.927 -2.84156 2.0724 0
M  V30 1949 H 184.801 -3.72957 0.564177 0
M  V30 1950 H 187.188 -2.95058 -0.0497719 0
M  V30 1951 H 187.269 -2.08022 1.48865 0
M  V30 1952 H 186.913 -4.28386 2.72852 0
M  V30 1953 H 186.843 -5.13545 1.16529 0
M  V30 1954 H 189.334 -3.57493 1.22503 0
M  V30 1955 H 189.647 -7.08401 3.08848 0
M  V30 1956 H 187.992 -6.37362 2.77118 0
M  V30 1957 H 191.183 -4.40019 1.59689 0
M  V30 1958 H 191.356 -6.00045 2.44643 0
M  V30 1959 N 184.763 -0.387143 -1.52771 0
M  V30 1960 C 185.726 0.436939 -2.24997 0
M  V30 1961 C 186.726 0.991991 -1.26555 0
M  V30 1962 O 187.916 0.874335 -1.50669 0
M  V30 1963 C 185.048 1.61281 -3.00335 0
M  V30 1964 H 186.241 -0.195365 -2.99263 0
M  V30 1965 H 183.794 -0.139218 -1.55679 0
M  V30 1966 H 184.529 2.2826 -2.30364 0
M  V30 1967 H 184.314 1.22154 -3.72587 0
M  V30 1968 H 185.804 2.19629 -3.5518 0
M  V30 1969 N 186.241 1.57166 -0.116904 0
M  V30 1970 C 187.487 1.96206 0.536166 0
M  V30 1971 C 187.842 0.99915 1.64422 0
M  V30 1972 O 187.135 0.0288195 1.91578 0
M  V30 1973 C 187.329 3.39508 1.11664 0
M  V30 1974 C 187.158 4.49651 0.0663474 0
M  V30 1975 C 185.928 5.03982 -0.36474 0
M  V30 1976 C 188.126 5.09322 -0.713829 0
M  V30 1977 N 186.108 5.97699 -1.40102 0
M  V30 1978 C 187.479 5.98963 -1.60136 0
M  V30 1979 C 189.534 4.91989 -0.764948 0
M  V30 1980 C 188.237 6.73128 -2.53556 0
M  V30 1981 C 190.263 5.66833 -1.68685 0
M  V30 1982 C 189.625 6.56158 -2.56196 0
M  V30 1983 H 185.724 0.764203 0.165886 0
M  V30 1984 H 188.308 1.93623 -0.204535 0
M  V30 1985 H 186.479 3.42743 1.82707 0
M  V30 1986 H 188.211 3.65677 1.73386 0
M  V30 1987 H 184.966 4.73592 0.027252 0
M  V30 1988 H 185.39 6.49262 -1.91802 0
M  V30 1989 H 190.032 4.22676 -0.102501 0
M  V30 1990 H 187.75 7.41689 -3.20816 0
M  V30 1991 H 191.336 5.55427 -1.73181 0
M  V30 1992 H 190.216 7.13057 -3.26372 0
M  V30 1993 N 187.719 -0.156864 1.56817 0
M  V30 1994 C 188.996 -0.899244 1.73704 0
M  V30 1995 C 189.376 -1.99771 0.682254 0
M  V30 1996 O 188.724 -2.26515 -0.300522 0
M  V30 1997 C 188.934 -1.45075 3.17418 0
M  V30 1998 C 190.282 -1.91802 3.7881 0
M  V30 1999 O 191.306 -1.54838 3.20786 0
M  V30 2000 O 190.165 -2.5994 4.80722 0
M  V30 2001 H 187.259 -0.424267 0.709878 0
M  V30 2002 H 189.805 -0.143561 1.69092 0
M  V30 2003 H 188.577 -0.660846 3.85679 0
M  V30 2004 H 188.2 -2.27021 3.26416 0
M  V30 2005 N 189.197 -1.51736 -0.425897 0
M  V30 2006 C 190.613 -1.40166 -0.76326 0
M  V30 2007 C 190.813 -0.492962 -1.95377 0
M  V30 2008 O 189.869 0.0475815 -2.52455 0
M  V30 2009 C 191.182 -2.82403 -1.03291 0
M  V30 2010 C 192.73 -2.91632 -1.13665 0
M  V30 2011 C 193.205 -4.34801 -1.43916 0
M  V30 2012 N 194.696 -4.3796 -1.50816 0
M  V30 2013 C 195.431 -5.4578 -1.75817 0
M  V30 2014 N 194.927 -6.63744 -1.98534 0
M  V30 2015 N 196.72 -5.33274 -1.77694 0
M  V30 2016 H 188.871 -2.09361 0.358 0
M  V30 2017 H 191.134 -0.942941 0.0978094 0
M  V30 2018 H 190.84 -3.50943 -0.230696 0
M  V30 2019 H 190.714 -3.22428 -1.95754 0
M  V30 2020 H 193.101 -2.23284 -1.92947 0
M  V30 2021 H 193.182 -2.55088 -0.190756 0
M  V30 2022 H 192.826 -5.03703 -0.65157 0
M  V30 2023 H 192.756 -4.68868 -2.39729 0
M  V30 2024 H 195.247 -3.52919 -1.35118 0
M  V30 2025 H 195.56 -7.41704 -2.17013 0
M  V30 2026 H 193.905 -6.66839 -1.95832 0
M  V30 2027 H 197.096 -4.40098 -1.59473 0
M  V30 2028 H 197.269 -6.1738 -1.9684 0
M  V30 2029 N 190.675 0.682077 -1.42076 0
M  V30 2030 C 191.9 1.47558 -1.45744 0
M  V30 2031 C 192.325 1.87977 -0.0680981 0
M  V30 2032 O 191.683 1.55522 0.9318 0
M  V30 2033 C 191.731 2.70575 -2.38373 0
M  V30 2034 O 190.835 3.68573 -1.85007 0
M  V30 2035 H 190.176 0.443585 -0.494093 0
M  V30 2036 H 192.706 0.837238 -1.86686 0
M  V30 2037 H 192.716 3.18729 -2.54707 0
M  V30 2038 H 191.391 2.40495 -3.39315 0
M  V30 2039 H 189.968 3.2757 -1.78192 0
M  V30 2040 N 192.153 1.28127 0.917671 0
M  V30 2041 C 193.1 1.11717 2.0196 0
M  V30 2042 C 194.07 0.0153929 1.66093 0
M  V30 2043 O 195.255 0.179596 1.89953 0
M  V30 2044 C 192.395 0.780927 3.36148 0
M  V30 2045 C 191.508 1.96135 3.84909 0
M  V30 2046 C 190.643 1.56609 5.0759 0
M  V30 2047 C 189.682 2.71339 5.48673 0
M  V30 2048 N 188.819 2.32332 6.62545 0
M  V30 2049 H 193.659 2.06003 2.15329 0
M  V30 2050 H 191.196 1.02535 1.05475 0
M  V30 2051 H 193.154 0.56675 4.13333 0
M  V30 2052 H 191.784 -0.124998 3.22558 0
M  V30 2053 H 190.836 2.28777 3.03916 0
M  V30 2054 H 192.148 2.82165 4.1132 0
M  V30 2055 H 191.302 1.31374 5.92305 0
M  V30 2056 H 190.041 0.677014 4.82978 0
M  V30 2057 H 189.046 2.97276 4.62501 0
M  V30 2058 H 190.271 3.60882 5.75274 0
M  V30 2059 H 188.217 1.45889 6.39572 0
M  V30 2060 H 188.134 3.11899 6.88662 0
M  V30 2061 H 189.402 2.10371 7.50576 0
M  V30 2062 N 193.631 -1.12557 1.10312 0
M  V30 2063 C 195.042 -1.65574 0.862678 0
M  V30 2064 C 195.393 -1.86566 -0.607256 0
M  V30 2065 O 194.518 -1.59121 -1.46662 0
M  V30 2066 C 195.113 -3.00776 1.55947 0
M  V30 2067 C 193.672 -3.50748 1.36576 0
M  V30 2068 C 192.819 -2.25797 1.60968 0
M  V30 2069 H 195.77 -0.963552 1.26101 0
M  V30 2070 H 195.791 -3.67185 0.997753 0
M  V30 2071 H 195.303 -2.85465 2.62928 0
M  V30 2072 H 193.404 -3.71245 0.317531 0
M  V30 2073 H 193.517 -4.30289 2.10686 0
M  V30 2074 H 191.881 -2.32841 1.03234 0
M  V30 2075 H 192.664 -2.13043 2.69198 0
M  V30 2076 N 195.109 -0.891671 -1.2995 0
M  V30 2077 C 196.039 -0.379797 -2.30391 0
M  V30 2078 C 197.02 0.540919 -1.6127 0
M  V30 2079 O 198.205 0.453352 -1.88834 0
M  V30 2080 C 195.335 0.400654 -3.44981 0
M  V30 2081 C 194.289 -0.428905 -4.25846 0
M  V30 2082 C 193.615 0.478557 -5.32554 0
M  V30 2083 C 194.915 -1.67458 -4.94727 0
M  V30 2084 H 196.609 -1.21914 -2.73454 0
M  V30 2085 H 194.155 -0.587675 -1.31462 0
M  V30 2086 H 196.108 0.769434 -4.14316 0
M  V30 2087 H 194.832 1.27371 -3.0074 0
M  V30 2088 H 193.491 -0.779911 -3.58208 0
M  V30 2089 H 193.139 1.34951 -4.84559 0
M  V30 2090 H 192.839 -0.0727433 -5.87555 0
M  V30 2091 H 194.363 0.843705 -6.04743 0
M  V30 2092 H 195.777 -1.376 -5.56542 0
M  V30 2093 H 194.174 -2.16659 -5.59624 0
M  V30 2094 H 195.244 -2.41518 -4.20473 0
M  V30 2095 N 196.587 1.43421 -0.653314 0
M  V30 2096 C 197.517 2.33487 0.0246656 0
M  V30 2097 C 198.498 1.49475 0.811863 0
M  V30 2098 O 199.683 1.78139 0.773322 0
M  V30 2099 C 196.813 3.32841 0.99166 0
M  V30 2100 C 195.767 4.26842 0.314568 0
M  V30 2101 C 195.093 5.16236 1.39302 0
M  V30 2102 C 196.393 5.16243 -0.793095 0
M  V30 2103 H 198.087 2.90427 -0.727481 0
M  V30 2104 H 195.633 1.39649 -0.351287 0
M  V30 2105 H 197.586 3.94747 1.47487 0
M  V30 2106 H 196.31 2.74158 1.77497 0
M  V30 2107 H 194.969 3.663 -0.148199 0
M  V30 2108 H 194.617 4.53891 2.16776 0
M  V30 2109 H 194.317 5.79948 0.945223 0
M  V30 2110 H 195.841 5.81015 1.87759 0
M  V30 2111 H 197.255 5.71958 -0.392039 0
M  V30 2112 H 195.652 5.88676 -1.16536 0
M  V30 2113 H 196.722 4.55927 -1.65103 0
M  V30 2114 N 198.065 0.39524 1.52563 0
M  V30 2115 C 199.312 -0.185044 2.01653 0
M  V30 2116 C 199.64 -1.46317 1.28146 0
M  V30 2117 O 198.895 -1.9213 0.372074 0
M  V30 2118 C 199.194 -0.493444 3.53977 0
M  V30 2119 C 198.86 0.69384 4.4553 0
M  V30 2120 C 197.522 1.01954 4.70275 0
M  V30 2121 C 199.874 1.48785 4.99512 0
M  V30 2122 C 197.202 2.14069 5.46252 0
M  V30 2123 C 199.554 2.59965 5.76716 0
M  V30 2124 C 198.218 2.93037 5.99738 0
M  V30 2125 H 197.488 -0.0677123 0.7379 0
M  V30 2126 H 200.135 0.533807 1.8391 0
M  V30 2127 H 198.44 -1.29369 3.69825 0
M  V30 2128 H 200.137 -0.955163 3.89458 0
M  V30 2129 H 196.727 0.429987 4.26438 0
M  V30 2130 H 200.911 1.24946 4.80315 0
M  V30 2131 H 196.167 2.40056 5.62302 0
M  V30 2132 H 200.341 3.21887 6.17545 0
M  V30 2133 H 197.968 3.8003 6.58393 0
M  V30 2134 N 199.544 -1.57102 0.125237 0
M  V30 2135 C 200.784 -1.97294 -0.534259 0
M  V30 2136 C 201.148 -1.0074 -1.63449 0
M  V30 2137 O 202.349 -1.29893 -2.35332 0
M  V30 2138 C 200.62 -3.41705 -1.04748 0
M  V30 2139 S 202.179 -4.03913 -1.71463 0
M  V30 2140 H 198.997 -0.689517 -0.173458 0
M  V30 2141 H 201.599 -1.94349 0.211797 0
M  V30 2142 H 200.303 -4.09723 -0.235649 0
M  V30 2143 H 199.834 -3.48315 -1.82867 0
M  V30 2144 H 201.849 -3.95182 -3.00077 0
M  V30 2145 N 201.022 0.148545 -1.56898 0
M  V30 2146 C 202.433 0.708766 -1.72723 0
M  V30 2147 C 202.784 1.81734 -0.739395 0
M  V30 2148 O 201.909 2.16194 0.0943169 0
M  V30 2149 C 202.504 1.29245 -3.13179 0
M  V30 2150 C 201.063 1.79925 -3.30611 0
M  V30 2151 C 200.21 0.687111 -2.68652 0
M  V30 2152 H 203.161 -0.0771063 -1.58513 0
M  V30 2153 H 203.182 2.16224 -3.13093 0
M  V30 2154 H 202.694 0.485382 -3.85053 0
M  V30 2155 H 200.795 2.63203 -2.63732 0
M  V30 2156 H 200.908 1.92903 -4.38549 0
M  V30 2157 H 199.272 1.11335 -2.29078 0
M  V30 2158 H 200.055 -0.108483 -3.43129 0
M  V30 2159 N 202.5 1.5196 0.417844 0
M  V30 2160 C 203.463 1.74065 1.49111 0
M  V30 2161 C 204.463 0.610537 1.48758 0
M  V30 2162 O 205.653 0.87832 1.50437 0
M  V30 2163 C 202.785 1.81502 2.88565 0
M  V30 2164 H 203.978 2.69869 1.30807 0
M  V30 2165 H 201.531 1.42244 0.647785 0
M  V30 2166 H 202.266 0.875813 3.1225 0
M  V30 2167 H 202.051 2.63651 2.90225 0
M  V30 2168 H 203.541 2.00376 3.66387 0
M  V30 2169 N 203.978 -0.674533 1.42435 0
M  V30 2170 C 204.911 -1.79924 1.40366 0
M  V30 2171 C 205.889 -1.60378 0.267899 0
M  V30 2172 O 207.073 -1.82847 0.458159 0
M  V30 2173 C 204.2 -3.16927 1.19478 0
M  V30 2174 C 203.246 -3.55221 2.36051 0
M  V30 2175 S 204.079 -3.5762 3.98583 0
M  V30 2176 C 205.235 -4.97315 3.80038 0
M  V30 2177 H 205.468 -1.81405 2.35541 0
M  V30 2178 H 203.001 -0.845221 1.29211 0
M  V30 2179 H 204.959 -3.96007 1.08114 0
M  V30 2180 H 203.62 -3.13031 0.258883 0
M  V30 2181 H 202.813 -4.54804 2.17185 0
M  V30 2182 H 202.415 -2.83502 2.43932 0
M  V30 2183 H 204.707 -5.85401 3.41045 0
M  V30 2184 H 205.65 -5.21228 4.79298 0
M  V30 2185 H 206.058 -4.69845 3.12899 0
M  V30 2186 N 205.456 -1.28612 -0.910864 0
M  V30 2187 C 206.404 -1.1265 -2.03501 0
M  V30 2188 C 207.398 -0.0450054 -1.6934 0
M  V30 2189 O 208.604 -0.203988 -1.7884 0
M  V30 2190 H 204.979 -0.347639 -0.666822 0
M  V30 2191 H 206.95 -2.07849 -2.14106 0
M  V30 2192 C 205.699 -0.808143 -3.38178 0
M  V30 2193 H 205.022 -1.63231 -3.6496 0
M  V30 2194 H 206.462 -0.736426 -4.17556 0
M  V30 2195 C 204.921 0.488226 -3.33344 0
M  V30 2196 O 205.451 1.51766 -3.71927 0
M  V30 2197 N 203.657 0.490009 -2.86439 0
M  V30 2198 H 203.204 -0.348161 -2.55236 0
M  V30 2199 H 203.162 1.35741 -2.83587 0
M  V30 2200 N 206.934 1.1197 -1.10907 0
M  V30 2201 C 208.162 1.87402 -0.876824 0
M  V30 2202 C 208.577 1.79894 0.573025 0
M  V30 2203 O 207.934 1.17629 1.39534 0
M  V30 2204 C 207.985 3.36428 -1.32282 0
M  V30 2205 O 207.706 3.43765 -2.71582 0
M  V30 2206 C 209.207 4.28783 -1.12518 0
M  V30 2207 H 206.427 0.592793 -0.314384 0
M  V30 2208 H 208.971 1.41649 -1.47499 0
M  V30 2209 H 207.126 3.79706 -0.768229 0
M  V30 2210 H 207.54 4.3652 -2.90776 0
M  V30 2211 H 209.014 5.31613 -1.48633 0
M  V30 2212 H 209.491 4.39153 -0.0642394 0
M  V30 2213 H 210.097 3.91291 -1.66648 0
M  V30 2214 N 208.412 0.89855 1.29475 0
M  V30 2215 C 209.375 0.380272 2.26023 0
M  V30 2216 C 210.375 -0.484891 1.53315 0
M  V30 2217 O 211.565 -0.290108 1.71767 0
M  V30 2218 C 208.697 -0.45651 3.3783 0
M  V30 2219 H 209.89 1.23295 2.73383 0
M  V30 2220 H 207.443 0.676589 1.40897 0
M  V30 2221 H 208.178 -1.32922 2.95808 0
M  V30 2222 H 207.963 0.163393 3.91759 0
M  V30 2223 H 209.453 -0.810466 4.0966 0
M  V30 2224 N 209.89 -1.43072 0.660911 0
M  V30 2225 C 210.823 -2.28074 -0.0758862 0
M  V30 2226 C 211.801 -1.40271 -0.822362 0
M  V30 2227 O 212.985 -1.69713 -0.820352 0
M  V30 2228 C 210.112 -3.19843 -1.11437 0
M  V30 2229 C 209.158 -4.23957 -0.465069 0
M  V30 2230 S 209.991 -5.29978 0.767078 0
M  V30 2231 C 211.147 -6.25314 -0.270682 0
M  V30 2232 H 211.38 -2.90216 0.645139 0
M  V30 2233 H 208.913 -1.47697 0.449995 0
M  V30 2234 H 210.871 -3.73257 -1.70849 0
M  V30 2235 H 209.532 -2.56863 -1.80776 0
M  V30 2236 H 208.725 -4.88299 -1.24819 0
M  V30 2237 H 208.327 -3.73959 0.0551242 0
M  V30 2238 H 210.619 -6.67932 -1.13459 0
M  V30 2239 H 211.562 -7.07293 0.337916 0
M  V30 2240 H 211.97 -5.61195 -0.609937 0
M  V30 2241 N 211.368 -0.403325 -1.52352 0
M  V30 2242 C 212.614 0.167015 -2.02713 0
M  V30 2243 C 212.969 1.43296 -1.28391 0
M  V30 2244 O 212.262 1.87796 -0.379885 0
M  V30 2245 C 212.456 0.474665 -3.54234 0
M  V30 2246 C 212.285 -0.759909 -4.43233 0
M  V30 2247 C 211.055 -1.28338 -4.88731 0
M  V30 2248 C 213.253 -1.63634 -4.87574 0
M  V30 2249 N 211.235 -2.47404 -5.6184 0
M  V30 2250 C 212.606 -2.67329 -5.59406 0
M  V30 2251 C 214.661 -1.65478 -4.69597 0
M  V30 2252 C 213.364 -3.72773 -6.15169 0
M  V30 2253 C 215.39 -2.69837 -5.26253 0
M  V30 2254 C 214.752 -3.72253 -5.98002 0
M  V30 2255 H 210.851 0.0228343 -0.781667 0
M  V30 2256 H 213.435 -0.556368 -1.86581 0
M  V30 2257 H 211.606 1.16709 -3.7045 0
M  V30 2258 H 213.338 1.03338 -3.91284 0
M  V30 2259 H 210.093 -0.842273 -4.6605 0
M  V30 2260 H 210.517 -3.07688 -6.0304 0
M  V30 2261 H 215.159 -0.876389 -4.13617 0
M  V30 2262 H 212.877 -4.51471 -6.70223 0
M  V30 2263 H 216.463 -2.72164 -5.14216 0
M  V30 2264 H 215.343 -4.51679 -6.41058 0
M  V30 2265 N 212.846 1.57033 -0.133567 0
M  V30 2266 C 213.756 2.19632 0.824564 0
M  V30 2267 C 214.772 1.17666 1.28182 0
M  V30 2268 O 215.948 1.50193 1.3418 0
M  V30 2269 C 213.013 2.79499 2.05137 0
M  V30 2270 C 212.074 3.96548 1.64464 0
M  V30 2271 C 211.307 4.5355 2.81297 0
M  V30 2272 O 211.53 4.09438 3.97136 0
M  V30 2273 O 210.464 5.44018 2.57542 0
M  V30 2274 H 214.29 3.01991 0.321766 0
M  V30 2275 H 211.875 1.49112 0.0927889 0
M  V30 2276 H 213.757 3.17602 2.7696 0
M  V30 2277 H 212.432 2.00162 2.54395 0
M  V30 2278 H 211.339 3.63186 0.897048 0
M  V30 2279 H 212.672 4.77364 1.19934 0
M  V30 2280 N 214.325 -0.140222 1.56975 0
M  V30 2281 C 215.275 -1.17827 1.95194 0
M  V30 2282 C 216.259 -1.38195 0.824075 0
M  V30 2283 O 217.451 -1.39643 1.0876 0
M  V30 2284 C 214.58 -2.51024 2.34184 0
M  V30 2285 C 213.666 -2.3422 3.53556 0
M  V30 2286 N 214.057 -1.87185 4.69889 0
M  V30 2287 C 212.355 -2.64949 3.58773 0
M  V30 2288 C 213.056 -1.83586 5.5197 0
M  V30 2289 N 212.032 -2.2715 4.93866 0
M  V30 2290 H 215.834 -0.806817 2.82609 0
M  V30 2291 H 213.348 -0.348208 1.58623 0
M  V30 2292 H 215.345 -3.26074 2.59772 0
M  V30 2293 H 214.005 -2.88945 1.48124 0
M  V30 2294 H 215.016 -1.57048 4.93514 0
M  V30 2295 H 211.693 -3.067 2.8327 0
M  V30 2296 H 213.083 -1.48655 6.55249 0
M  V30 2297 N 215.803 -1.52179 -0.40978 0
M  V30 2298 C 217.214 -1.58377 -0.988615 0
M  V30 2299 C 217.565 -0.423879 -1.91566 0
M  V30 2300 O 216.69 0.455844 -2.11544 0
M  V30 2301 C 217.285 -2.87044 -1.79976 0
M  V30 2302 C 215.844 -2.95722 -2.32863 0
M  V30 2303 C 214.991 -2.53309 -1.12828 0
M  V30 2304 H 217.942 -1.57558 -0.190039 0
M  V30 2305 H 217.963 -2.7236 -2.65707 0
M  V30 2306 H 217.475 -3.71444 -1.12478 0
M  V30 2307 H 215.576 -2.15814 -3.03735 0
M  V30 2308 H 215.689 -3.99951 -2.63773 0
M  V30 2309 H 214.053 -2.07142 -1.48204 0
M  V30 2310 H 214.836 -3.40082 -0.46897 0
M  V30 2311 N 217.281 0.66697 -1.42791 0
M  V30 2312 C 218.53 1.42278 -1.42968 0
M  V30 2313 C 218.843 1.9553 -0.0524489 0
M  V30 2314 O 220.049 2.71414 0.068363 0
M  V30 2315 C 218.505 2.57418 -2.51524 0
M  V30 2316 C 218.113 2.10832 -3.9529 0
M  V30 2317 C 219.857 3.34878 -2.60877 0
M  V30 2318 C 217.764 3.23101 -4.95338 0
M  V30 2319 H 216.694 0.534533 -0.531781 0
M  V30 2320 H 219.345 0.721302 -1.68729 0
M  V30 2321 H 217.727 3.29971 -2.18941 0
M  V30 2322 H 218.901 1.4538 -4.37266 0
M  V30 2323 H 217.216 1.46289 -3.89857 0
M  V30 2324 H 219.813 4.18505 -3.32802 0
M  V30 2325 H 220.156 3.81993 -1.6549 0
M  V30 2326 H 220.689 2.69398 -2.92693 0
M  V30 2327 H 217.428 2.80969 -5.9223 0
M  V30 2328 H 216.948 3.87309 -4.57987 0
M  V30 2329 H 218.627 3.88447 -5.17415 0
M  V30 2330 N 218.759 1.29093 0.90403 0
M  V30 2331 C 219.987 1.19689 1.68766 0
M  V30 2332 C 220.402 -0.243113 1.87228 0
M  V30 2333 O 219.759 -1.16326 1.40621 0
M  V30 2334 C 219.81 1.90144 3.07453 0
M  V30 2335 O 219.531 3.2852 2.89838 0
M  V30 2336 C 221.032 1.87162 4.01852 0
M  V30 2337 H 218.252 0.415035 0.527244 0
M  V30 2338 H 220.796 1.7039 1.13082 0
M  V30 2339 H 218.951 1.43289 3.59926 0
M  V30 2340 H 219.365 3.63944 3.77684 0
M  V30 2341 H 220.839 2.41032 4.96596 0
M  V30 2342 H 221.316 0.84617 4.30972 0
M  V30 2343 H 221.922 2.33741 3.5531 0
M  V30 2344 N 220.237 -1.11381 1.11499 0
M  V30 2345 C 221.2 -2.15622 0.777153 0
M  V30 2346 C 222.2 -1.59504 -0.203779 0
M  V30 2347 O 223.39 -1.74188 0.020782 0
M  V30 2348 C 220.522 -3.40556 0.153116 0
M  V30 2349 H 221.715 -2.47021 1.70061 0
M  V30 2350 H 219.268 -1.26577 0.916952 0
M  V30 2351 H 220.003 -3.14767 -0.780536 0
M  V30 2352 H 219.788 -3.8257 0.859238 0
M  V30 2353 H 221.278 -4.17546 -0.0671044 0
M  V30 2354 N 221.715 -0.905404 -1.28997 0
M  V30 2355 C 222.647 -0.344748 -2.26592 0
M  V30 2356 C 223.66 0.512135 -1.54535 0
M  V30 2357 O 224.849 0.328368 -1.75454 0
M  V30 2358 C 221.949 0.526587 -3.34784 0
M  V30 2359 C 221.122 -0.305871 -4.36329 0
M  V30 2360 C 220.181 0.499209 -5.23827 0
M  V30 2361 O 219.207 -0.0853004 -5.69136 0
M  V30 2362 N 220.409 1.80408 -5.51755 0
M  V30 2363 H 223.174 -1.18359 -2.75338 0
M  V30 2364 H 220.735 -0.770481 -1.42391 0
M  V30 2365 H 222.727 1.07171 -3.90252 0
M  V30 2366 H 221.297 1.26613 -2.85811 0
M  V30 2367 H 220.517 -1.0324 -3.80441 0
M  V30 2368 H 221.805 -0.875773 -5.01206 0
M  V30 2369 H 221.203 2.3016 -5.16762 0
M  V30 2370 H 219.76 2.29621 -6.10014 0
M  V30 2371 N 223.193 1.4272 -0.668489 0
M  V30 2372 C 224.125 2.2914 0.052613 0
M  V30 2373 C 225.138 1.43339 0.771857 0
M  V30 2374 O 226.327 1.67123 0.627067 0
M  V30 2375 C 223.427 3.20618 1.09804 0
M  V30 2376 C 222.6 4.35039 0.45389 0
M  V30 2377 C 221.659 5.07282 1.39825 0
M  V30 2378 O 220.685 5.62024 0.900978 0
M  V30 2379 N 221.887 5.12206 2.73176 0
M  V30 2380 H 224.652 2.91668 -0.689209 0
M  V30 2381 H 222.213 1.53577 -0.512422 0
M  V30 2382 H 224.205 3.65815 1.73094 0
M  V30 2383 H 222.775 2.59585 1.74167 0
M  V30 2384 H 221.995 3.92567 -0.358396 0
M  V30 2385 H 223.283 5.088 0.00486972 0
M  V30 2386 H 222.681 4.6913 3.16122 0
M  V30 2387 H 221.238 5.61069 3.31729 0
M  V30 2388 N 224.671 0.411399 1.52136 0
M  V30 2389 C 225.917 -0.163888 2.02137 0
M  V30 2390 C 226.25 -1.44597 1.29636 0
M  V30 2391 O 225.525 -1.90272 0.403353 0
M  V30 2392 C 225.808 -0.40927 3.57767 0
M  V30 2393 C 225.661 0.889643 4.40914 0
M  V30 2394 C 226.98 -1.19042 4.23694 0
M  V30 2395 H 224.099 -0.0580896 0.734707 0
M  V30 2396 H 226.741 0.54531 1.82007 0
M  V30 2397 H 224.891 -1.0134 3.7505 0
M  V30 2398 H 226.563 1.52575 4.35337 0
M  V30 2399 H 224.806 1.50011 4.07037 0
M  V30 2400 H 225.477 0.672314 5.4789 0
M  V30 2401 H 227.953 -0.678942 4.10524 0
M  V30 2402 H 226.829 -1.33086 5.32522 0
M  V30 2403 H 227.09 -2.21166 3.82803 0
M  V30 2404 N 226.149 -1.5696 0.141893 0
M  V30 2405 C 227.426 -1.87553 -0.555281 0
M  V30 2406 C 227.806 -1.04699 -1.83306 0
M  V30 2407 O 227.154 -0.132346 -2.28116 0
M  V30 2408 C 227.364 -3.39093 -0.825664 0
M  V30 2409 C 228.712 -4.08199 -1.16869 0
M  V30 2410 O 229.736 -3.44242 -0.915185 0
M  V30 2411 O 228.595 -5.21139 -1.6455 0
M  V30 2412 H 225.689 -0.777188 -0.282679 0
M  V30 2413 H 228.235 -1.68763 0.17812 0
M  V30 2414 H 227.007 -3.91221 0.0788633 0
M  V30 2415 H 226.63 -3.63393 -1.61343 0
M  V30 2416 N 227.627 0.131896 -1.57047 0
M  V30 2417 C 228.559 1.1878 -1.9602 0
M  V30 2418 C 229.572 1.38363 -0.857875 0
M  V30 2419 O 230.761 1.37666 -1.13623 0
M  V30 2420 C 227.861 2.55008 -2.23213 0
M  V30 2421 C 227.034 2.56201 -3.54513 0
M  V30 2422 C 226.093 3.7408 -3.70069 0
M  V30 2423 O 225.119 3.58258 -4.42312 0
M  V30 2424 N 226.321 4.92137 -3.07866 0
M  V30 2425 H 229.086 0.85639 -2.87204 0
M  V30 2426 H 226.647 0.321309 -1.5868 0
M  V30 2427 H 228.639 3.32404 -2.30846 0
M  V30 2428 H 227.209 2.80382 -1.3822 0
M  V30 2429 H 226.429 1.64613 -3.58185 0
M  V30 2430 H 227.717 2.54043 -4.4084 0
M  V30 2431 H 227.115 5.07895 -2.49116 0
M  V30 2432 H 225.672 5.67254 -3.21039 0
M  V30 2433 N 229.106 1.52395 0.401703 0
M  V30 2434 C 230.036 1.79231 1.49661 0
M  V30 2435 C 231.017 0.643654 1.57452 0
M  V30 2436 O 232.202 0.889989 1.72606 0
M  V30 2437 C 229.332 1.94971 2.87409 0
M  V30 2438 C 228.286 3.10604 2.94465 0
M  V30 2439 C 227.612 3.11577 4.34538 0
M  V30 2440 C 228.912 4.49921 2.6527 0
M  V30 2441 H 230.606 2.70917 1.27454 0
M  V30 2442 H 228.152 1.30362 0.6117 0
M  V30 2443 H 230.105 2.12328 3.63999 0
M  V30 2444 H 228.829 0.999632 3.10926 0
M  V30 2445 H 227.488 2.93009 2.20321 0
M  V30 2446 H 227.136 2.14277 4.55076 0
M  V30 2447 H 226.836 3.89247 4.40183 0
M  V30 2448 H 228.36 3.31073 5.13053 0
M  V30 2449 H 229.774 4.67683 3.31581 0
M  V30 2450 H 228.171 5.29564 2.82281 0
M  V30 2451 H 229.241 4.57507 1.60671 0
M  V30 2452 N 230.584 -0.659388 1.43143 0
M  V30 2453 C 231.531 -1.77249 1.47822 0
M  V30 2454 C 232.501 -1.62818 0.328558 0
M  V30 2455 O 233.686 -1.83151 0.534838 0
M  V30 2456 C 230.826 -3.15371 1.40126 0
M  V30 2457 C 229.939 -3.4098 2.65249 0
M  V30 2458 C 229.074 -4.68915 2.49584 0
M  V30 2459 C 228.113 -4.87608 3.70006 0
M  V30 2460 N 227.25 -6.06796 3.53189 0
M  V30 2461 H 232.09 -1.72584 2.42938 0
M  V30 2462 H 229.627 -0.842297 1.20598 0
M  V30 2463 H 231.585 -3.9521 1.33659 0
M  V30 2464 H 230.215 -3.19121 0.485964 0
M  V30 2465 H 229.267 -2.55282 2.8202 0
M  V30 2466 H 230.579 -3.50681 3.54717 0
M  V30 2467 H 229.733 -5.56871 2.4079 0
M  V30 2468 H 228.472 -4.61524 1.5763 0
M  V30 2469 H 227.477 -3.9809 3.79215 0
M  V30 2470 H 228.702 -4.96834 4.62961 0
M  V30 2471 H 226.648 -6.00549 2.63965 0
M  V30 2472 H 226.565 -6.17428 4.36255 0
M  V30 2473 H 227.833 -6.9739 3.48236 0
M  V30 2474 N 232.062 -1.29571 -0.897171 0
M  V30 2475 C 233.025 -1.14913 -1.98312 0
M  V30 2476 C 234.025 -0.0838629 -1.60581 0
M  V30 2477 O 235.215 -0.331006 -1.71026 0
M  V30 2478 C 232.347 -0.757835 -3.3237 0
M  V30 2479 H 233.54 -2.11377 -2.12743 0
M  V30 2480 H 231.093 -1.12793 -1.08201 0
M  V30 2481 H 231.828 0.206837 -3.2364 0
M  V30 2482 H 231.613 -1.52755 -3.61121 0
M  V30 2483 H 233.103 -0.678408 -4.12053 0
M  V30 2484 N 233.54 1.10788 -1.12088 0
M  V30 2485 C 234.787 1.82671 -0.873931 0
M  V30 2486 C 235.115 1.85004 0.600311 0
M  V30 2487 O 234.37 1.30365 1.45957 0
M  V30 2488 C 234.669 3.29294 -1.38926 0
M  V30 2489 C 234.335 3.47113 -2.87791 0
M  V30 2490 C 232.997 3.51684 -3.28439 0
M  V30 2491 C 235.349 3.52808 -3.83635 0
M  V30 2492 C 232.677 3.59513 -4.63646 0
M  V30 2493 C 235.029 3.62169 -5.18668 0
M  V30 2494 C 233.693 3.65003 -5.58864 0
M  V30 2495 H 232.963 0.668441 -0.319794 0
M  V30 2496 H 235.61 1.30613 -1.40045 0
M  V30 2497 H 233.915 3.83894 -0.783122 0
M  V30 2498 H 235.612 3.83416 -1.17443 0
M  V30 2499 H 232.202 3.4423 -2.5535 0
M  V30 2500 H 236.386 3.4853 -3.53328 0
M  V30 2501 H 231.642 3.59987 -4.94185 0
M  V30 2502 H 235.816 3.6552 -5.92763 0
M  V30 2503 H 233.443 3.70822 -6.63623 0
M  V30 2504 N 235.018 0.912232 1.28515 0
M  V30 2505 C 236.266 0.543523 1.94654 0
M  V30 2506 C 236.587 -0.9155 1.72173 0
M  V30 2507 O 235.857 -1.64708 1.06058 0
M  V30 2508 H 234.437 0.198017 0.720277 0
M  V30 2509 H 237.099 1.16126 1.56527 0
M  V30 2510 H 236.195 0.736684 3.03281 0
M  V30 2511 N 236.496 -1.42363 0.676048 0
M  V30 2512 C 237.726 -2.05561 0.206967 0
M  V30 2513 C 238.134 -1.50887 -1.14148 0
M  V30 2514 O 237.477 -0.643933 -1.72044 0
M  V30 2515 C 237.539 -3.5944 0.0659508 0
M  V30 2516 C 237.203 -4.36812 1.34331 0
M  V30 2517 C 238.2 -4.67383 2.27704 0
M  V30 2518 C 235.885 -4.76429 1.59125 0
M  V30 2519 C 237.879 -5.36509 3.44147 0
M  V30 2520 C 235.566 -5.45294 2.75857 0
M  V30 2521 C 236.564 -5.75259 3.68193 0
M  V30 2522 O 236.252 -6.42712 4.82883 0
M  V30 2523 H 235.984 -0.668872 0.0979084 0
M  V30 2524 H 238.538 -1.83467 0.923531 0
M  V30 2525 H 236.768 -3.80197 -0.706204 0
M  V30 2526 H 238.457 -4.0427 -0.363418 0
M  V30 2527 H 239.223 -4.37275 2.09799 0
M  V30 2528 H 235.102 -4.52498 0.881258 0
M  V30 2529 H 238.646 -5.59814 4.16238 0
M  V30 2530 H 234.543 -5.7482 2.93688 0
M  V30 2531 H 235.311 -6.61204 4.82444 0
M  V30 2532 N 237.974 -0.419461 -1.51915 0
M  V30 2533 C 239.22 0.153166 -2.02221 0
M  V30 2534 C 239.553 1.43907 -1.30401 0
M  V30 2535 O 238.828 1.90055 -0.413438 0
M  V30 2536 C 239.111 0.390291 -3.57979 0
M  V30 2537 C 238.964 -0.913014 -4.40436 0
M  V30 2538 C 240.283 1.16794 -4.2432 0
M  V30 2539 H 237.402 0.0541924 -0.735005 0
M  V30 2540 H 240.044 -0.554955 -1.81715 0
M  V30 2541 H 238.194 0.993491 -3.75582 0
M  V30 2542 H 239.866 -1.54882 -4.34522 0
M  V30 2543 H 238.109 -1.52168 -4.06236 0
M  V30 2544 H 238.78 -0.701361 -5.47526 0
M  V30 2545 H 241.256 0.657161 -4.10878 0
M  V30 2546 H 240.132 1.3026 -5.3322 0
M  V30 2547 H 240.393 2.19132 -3.83971 0
M  V30 2548 N 239.452 1.56882 -0.150215 0
M  V30 2549 C 240.362 2.20494 0.801222 0
M  V30 2550 C 241.378 1.19019 1.26927 0
M  V30 2551 O 242.554 1.51607 1.32579 0
M  V30 2552 C 239.619 2.81659 2.02161 0
M  V30 2553 C 238.68 3.9827 1.60249 0
M  V30 2554 C 237.913 4.56508 2.7647 0
M  V30 2555 O 238.136 4.13627 3.92771 0
M  V30 2556 O 237.07 5.46719 2.51757 0
M  V30 2557 H 240.896 3.02315 0.289717 0
M  V30 2558 H 238.481 1.49202 0.0769684 0
M  V30 2559 H 240.363 3.20522 2.73576 0
M  V30 2560 H 239.038 2.02849 2.52258 0
M  V30 2561 H 237.945 3.64117 0.858477 0
M  V30 2562 H 239.278 4.78609 1.14864 0
M  V30 2563 N 240.93 -0.123565 1.57115 0
M  V30 2564 C 242.179 -0.830704 1.83799 0
M  V30 2565 C 242.492 -1.81259 0.735158 0
M  V30 2566 O 243.698 -2.56558 0.888278 0
M  V30 2567 C 242.154 -1.52802 3.25852 0
M  V30 2568 C 241.762 -0.587356 4.44133 0
M  V30 2569 C 243.506 -2.22056 3.61789 0
M  V30 2570 C 241.413 -1.28764 5.77212 0
M  V30 2571 H 240.343 -0.313967 0.685522 0
M  V30 2572 H 242.994 -0.0834359 1.8331 0
M  V30 2573 H 241.376 -2.32175 3.20797 0
M  V30 2574 H 242.55 0.172829 4.60476 0
M  V30 2575 H 240.865 -0.00201892 4.164 0
M  V30 2576 H 243.462 -2.75131 4.58483 0
M  V30 2577 H 243.805 -2.99644 2.88997 0
M  V30 2578 H 244.338 -1.49576 3.68608 0
M  V30 2579 H 241.077 -0.55314 6.53162 0
M  V30 2580 H 240.597 -2.01995 5.64764 0
M  V30 2581 H 242.276 -1.8221 6.20813 0
M  V30 2582 N 242.408 -1.52605 -0.393616 0
M  V30 2583 C 243.819 -1.59417 -0.971761 0
M  V30 2584 C 244.17 -0.444173 -1.91106 0
M  V30 2585 O 243.295 0.433382 -2.12016 0
M  V30 2586 C 243.89 -2.88936 -1.76921 0
M  V30 2587 C 242.449 -2.98175 -2.29714 0
M  V30 2588 C 241.596 -2.54491 -1.10135 0
M  V30 2589 H 244.547 -1.57751 -0.173317 0
M  V30 2590 H 244.568 -2.75163 -2.62804 0
M  V30 2591 H 244.08 -3.72616 -1.08532 0
M  V30 2592 H 242.181 -2.19024 -3.01429 0
M  V30 2593 H 242.294 -4.02726 -2.59517 0
M  V30 2594 H 240.658 -2.08702 -1.45999 0
M  V30 2595 H 241.441 -3.4056 -0.432874 0
M  V30 2596 N 243.887 0.651787 -1.4349 0
M  V30 2597 C 245.127 1.42345 -1.46688 0
M  V30 2598 C 245.491 1.91793 -0.0891023 0
M  V30 2599 O 246.692 2.688 0.00423594 0
M  V30 2600 C 244.963 2.57221 -2.48137 0
M  V30 2601 S 246.522 3.45725 -2.70221 0
M  V30 2602 H 243.34 0.485878 -0.51908 0
M  V30 2603 H 245.942 0.756578 -1.80267 0
M  V30 2604 H 244.646 2.1917 -3.46976 0
M  V30 2605 H 244.177 3.28757 -2.16061 0
M  V30 2606 H 246.192 4.53996 -2.00255 0
M  V30 2607 N 245.365 1.30045 0.890287 0
M  V30 2608 C 246.611 1.18737 1.64406 0
M  V30 2609 C 246.944 -0.258525 1.92472 0
M  V30 2610 O 246.219 -1.18562 1.54186 0
M  V30 2611 C 246.502 2.01087 2.98724 0
M  V30 2612 C 246.355 3.53867 2.77665 0
M  V30 2613 C 247.674 1.84457 3.9958 0
M  V30 2614 H 244.793 0.432698 0.596608 0
M  V30 2615 H 247.435 1.5962 1.0306 0
M  V30 2616 H 245.585 1.66349 3.51084 0
M  V30 2617 H 247.257 3.98637 2.32133 0
M  V30 2618 H 245.5 3.78318 2.12269 0
M  V30 2619 H 246.171 4.06772 3.7315 0
M  V30 2620 H 248.647 2.14817 3.56361 0
M  V30 2621 H 247.523 2.44411 4.91482 0
M  V30 2622 H 247.784 0.802276 4.3476 0
M  V30 2623 N 246.843 -1.10192 1.12674 0
M  V30 2624 C 247.806 -2.14786 0.799979 0
M  V30 2625 C 248.806 -1.59711 -0.18685 0
M  V30 2626 O 249.996 -1.74156 0.0392558 0
M  V30 2627 C 247.128 -3.40374 0.189228 0
M  V30 2628 H 248.321 -2.45203 1.72671 0
M  V30 2629 H 245.874 -1.25597 0.930326 0
M  V30 2630 H 246.609 -3.15577 -0.747107 0
M  V30 2631 H 246.394 -3.81637 0.899766 0
M  V30 2632 H 247.884 -4.17594 -0.0228143 0
M  V30 2633 N 248.321 -0.919034 -1.28029 0
M  V30 2634 C 249.268 -0.410005 -2.27129 0
M  V30 2635 C 250.238 0.518405 -1.57803 0
M  V30 2636 O 251.423 0.439451 -1.8567 0
M  V30 2637 C 248.563 0.339054 -3.4343 0
M  V30 2638 C 247.676 -0.622468 -4.27492 0
M  V30 2639 C 246.811 0.145567 -5.31001 0
M  V30 2640 C 245.85 -0.809226 -6.06727 0
M  V30 2641 N 244.987 -0.0743728 -7.02061 0
M  V30 2642 H 249.827 -1.26011 -2.70047 0
M  V30 2643 H 247.364 -0.632663 -1.328 0
M  V30 2644 H 249.322 0.789586 -4.0966 0
M  V30 2645 H 247.952 1.15346 -3.01488 0
M  V30 2646 H 247.004 -1.19153 -3.61257 0
M  V30 2647 H 248.316 -1.35252 -4.80113 0
M  V30 2648 H 247.47 0.656417 -6.03139 0
M  V30 2649 H 246.209 0.908643 -4.79161 0
M  V30 2650 H 245.214 -1.3314 -5.33436 0
M  V30 2651 H 246.439 -1.57194 -6.60656 0
M  V30 2652 H 244.385 0.670616 -6.52563 0
M  V30 2653 H 244.302 -0.744157 -7.52329 0
M  V30 2654 H 245.57 0.416109 -7.78389 0
M  V30 2655 N 249.799 1.42003 -0.683588 0
M  V30 2656 C 250.746 2.30798 -0.0107309 0
M  V30 2657 C 251.716 1.4645 0.783688 0
M  V30 2658 O 252.901 1.75263 0.754156 0
M  V30 2659 C 250.041 3.3238 0.928306 0
M  V30 2660 C 249.154 4.31814 0.126776 0
M  V30 2661 C 248.289 5.20468 1.06236 0
M  V30 2662 C 247.328 6.11577 0.253035 0
M  V30 2663 N 246.465 6.92754 1.14179 0
M  V30 2664 H 251.305 2.8778 -0.773727 0
M  V30 2665 H 248.842 1.41745 -0.393283 0
M  V30 2666 H 250.8 3.89813 1.48666 0
M  V30 2667 H 249.43 2.76976 1.65783 0
M  V30 2668 H 248.482 3.76427 -0.54833 0
M  V30 2669 H 249.794 4.96276 -0.501192 0
M  V30 2670 H 248.948 5.82677 1.69035 0
M  V30 2671 H 247.687 4.56204 1.7242 0
M  V30 2672 H 246.692 5.48428 -0.388108 0
M  V30 2673 H 247.917 6.77892 -0.404839 0
M  V30 2674 H 245.863 6.3111 1.78987 0
M  V30 2675 H 245.78 7.53855 0.569111 0
M  V30 2676 H 247.048 7.59441 1.75697 0
M  V30 2677 N 251.277 0.427512 1.51691 0
M  V30 2678 C 252.207 -0.3796 2.30394 0
M  V30 2679 C 253.188 -1.02982 1.35384 0
M  V30 2680 O 254.373 -1.03534 1.643 0
M  V30 2681 C 251.503 -1.48649 3.1388 0
M  V30 2682 C 250.457 -0.960294 4.17088 0
M  V30 2683 C 249.783 -2.16219 4.89033 0
M  V30 2684 C 251.083 -0.00153679 5.223 0
M  V30 2685 H 252.777 0.277164 2.98114 0
M  V30 2686 H 250.323 0.134739 1.43368 0
M  V30 2687 H 252.276 -2.05826 3.67714 0
M  V30 2688 H 251 -2.1714 2.43962 0
M  V30 2689 H 249.659 -0.410806 3.64291 0
M  V30 2690 H 249.307 -2.83307 4.15628 0
M  V30 2691 H 249.007 -1.81654 5.58816 0
M  V30 2692 H 250.531 -2.73968 5.45687 0
M  V30 2693 H 251.945 -0.482687 5.71264 0
M  V30 2694 H 250.342 0.256199 5.99553 0
M  V30 2695 H 251.412 0.938174 4.75738 0
M  V30 2696 N 252.755 -1.56801 0.158532 0
M  V30 2697 C 254.001 -1.96781 -0.490405 0
M  V30 2698 C 254.334 -1.04397 -1.63753 0
M  V30 2699 O 253.609 -0.0885805 -1.94298 0
M  V30 2700 C 253.892 -3.4635 -0.985594 0
M  V30 2701 C 253.745 -4.49512 0.160824 0
M  V30 2702 C 255.064 -3.98697 -1.86355 0
M  V30 2703 H 252.183 -0.715482 -0.176788 0
M  V30 2704 H 254.825 -1.88451 0.242088 0
M  V30 2705 H 252.975 -3.53579 -1.60978 0
M  V30 2706 H 254.647 -4.54353 0.797537 0
M  V30 2707 H 252.89 -4.26013 0.818256 0
M  V30 2708 H 253.561 -5.51531 -0.227569 0
M  V30 2709 H 256.037 -3.94019 -1.33746 0
M  V30 2710 H 254.913 -5.03792 -2.17909 0
M  V30 2711 H 255.174 -3.41744 -2.8047 0
M  V30 2712 N 254.233 0.115231 -1.57178 0
M  V30 2713 C 255.473 0.828199 -1.8687 0
M  V30 2714 C 255.837 1.76873 -0.747002 0
M  V30 2715 O 257.038 2.52354 -0.925785 0
M  V30 2716 C 255.309 1.55515 -3.21792 0
M  V30 2717 S 256.868 2.30917 -3.73125 0
M  V30 2718 H 253.686 0.27634 -0.655101 0
M  V30 2719 H 256.288 0.0863469 -1.95309 0
M  V30 2720 H 254.992 0.856248 -4.01368 0
M  V30 2721 H 254.523 2.3373 -3.16439 0
M  V30 2722 H 256.538 3.56705 -3.44929 0
M  V30 2723 N 255.711 1.52812 0.385517 0
M  V30 2724 C 256.959 1.67694 1.12797 0
M  V30 2725 C 257.28 0.421115 1.90399 0
M  V30 2726 O 256.55 -0.564551 1.87589 0
M  V30 2727 H 255.13 0.618155 0.419396 0
M  V30 2728 H 257.792 1.89938 0.436972 0
M  V30 2729 H 256.888 2.52896 1.82894 0
M  V30 2730 N 257.189 -0.644168 1.43834 0
M  V30 2731 C 258.466 -1.40188 1.36406 0
M  V30 2732 C 258.846 -2.11094 0.0163124 0
M  V30 2733 O 258.194 -2.05426 -1.00062 0
M  V30 2734 C 258.404 -2.3791 2.55343 0
M  V30 2735 C 259.752 -3.01637 2.98832 0
M  V30 2736 O 260.776 -2.48237 2.55455 0
M  V30 2737 O 259.635 -3.98477 3.74003 0
M  V30 2738 H 256.729 -0.626773 0.539523 0
M  V30 2739 H 259.275 -0.670317 1.559 0
M  V30 2740 H 258.047 -1.84525 3.4506 0
M  V30 2741 H 257.67 -3.18503 2.37995 0
M  V30 2742 N 258.668 -1.30515 -0.883378 0
M  V30 2743 C 259.578 -1.18959 -2.02203 0
M  V30 2744 C 260.594 -0.109172 -1.73657 0
M  V30 2745 O 261.77 -0.324413 -1.9877 0
M  V30 2746 C 258.835 -0.883871 -3.35244 0
M  V30 2747 C 257.896 -2.04982 -3.77201 0
M  V30 2748 C 257.129 -1.75859 -5.03894 0
M  V30 2749 O 257.352 -0.687276 -5.66244 0
M  V30 2750 O 256.286 -2.61146 -5.42297 0
M  V30 2751 H 260.112 -2.14616 -2.1488 0
M  V30 2752 H 257.697 -1.10124 -1.0096 0
M  V30 2753 H 259.579 -0.728644 -4.15053 0
M  V30 2754 H 258.254 0.0427798 -3.23672 0
M  V30 2755 H 257.161 -2.26038 -2.9809 0
M  V30 2756 H 258.494 -2.95825 -3.93381 0
M  V30 2757 N 260.146 1.09593 -1.13257 0
M  V30 2758 C 261.394 1.81375 -0.891492 0
M  V30 2759 C 261.715 1.86049 0.584009 0
M  V30 2760 O 260.985 1.34481 1.42449 0
M  V30 2761 H 259.565 0.671708 -0.326828 0
M  V30 2762 H 262.227 1.3256 -1.42877 0
M  V30 2763 H 261.323 2.84612 -1.28071 0
M  V30 2764 N 261.624 0.925811 1.2754 0
M  V30 2765 C 262.554 0.440748 2.29303 0
M  V30 2766 C 263.535 -0.497971 1.62648 0
M  V30 2767 O 264.72 -0.403126 1.8997 0
M  V30 2768 C 261.85 -0.309048 3.45922 0
M  V30 2769 C 260.804 0.54166 4.24559 0
M  V30 2770 C 260.13 -0.337191 5.33636 0
M  V30 2771 C 261.43 1.80516 4.90114 0
M  V30 2772 H 263.124 1.29121 2.70126 0
M  V30 2773 H 260.67 0.622323 1.29858 0
M  V30 2774 H 262.623 -0.659315 4.1621 0
M  V30 2775 H 261.347 -1.19352 3.04011 0
M  V30 2776 H 260.006 0.874609 3.56014 0
M  V30 2777 H 259.654 -1.22056 4.87966 0
M  V30 2778 H 259.354 0.228497 5.87156 0
M  V30 2779 H 260.878 -0.683072 6.06767 0
M  V30 2780 H 262.292 1.52307 5.52698 0
M  V30 2781 H 260.689 2.3142 5.53683 0
M  V30 2782 H 261.759 2.52581 4.13921 0
M  V30 2783 N 263.102 -1.41638 0.69111 0
M  V30 2784 C 264.35 -2.00902 0.219758 0
M  V30 2785 C 264.671 -1.54994 -1.18329 0
M  V30 2786 O 263.941 -0.778628 -1.79762 0
M  V30 2787 H 262.521 -0.74289 0.0782558 0
M  V30 2788 H 265.183 -1.73327 0.891271 0
M  V30 2789 H 264.279 -3.11224 0.233708 0
M  V30 2790 N 264.58 -0.43555 -1.51462 0
M  V30 2791 C 265.543 0.365137 -2.26273 0
M  V30 2792 C 266.543 0.951227 -1.29647 0
M  V30 2793 O 267.733 0.825958 -1.53374 0
M  V30 2794 C 264.865 1.51645 -3.05314 0
M  V30 2795 H 266.058 -0.290474 -2.9849 0
M  V30 2796 H 263.611 -0.188676 -1.55157 0
M  V30 2797 H 264.346 2.20816 -2.3751 0
M  V30 2798 H 264.131 1.10238 -3.76284 0
M  V30 2799 H 265.621 2.08218 -3.61987 0
M  V30 2800 N 266.058 1.56714 -0.166846 0
M  V30 2801 C 266.991 2.13577 0.80375 0
M  V30 2802 C 267.969 1.06464 1.22899 0
M  V30 2803 O 269.153 1.34413 1.32157 0
M  V30 2804 C 266.28 2.67168 2.0818 0
M  V30 2805 C 265.326 3.86612 1.80093 0
M  V30 2806 S 266.159 5.26565 0.97416 0
M  V30 2807 C 267.315 5.83558 2.26297 0
M  V30 2808 H 267.548 2.9557 0.320267 0
M  V30 2809 H 265.081 1.54326 0.0477555 0
M  V30 2810 H 267.039 2.98692 2.8159 0
M  V30 2811 H 265.7 1.85269 2.53642 0
M  V30 2812 H 264.893 4.22422 2.7491 0
M  V30 2813 H 264.495 3.55951 1.14781 0
M  V30 2814 H 266.787 5.962 3.21795 0
M  V30 2815 H 267.73 6.80731 1.94962 0
M  V30 2816 H 268.138 5.11944 2.37853 0
M  V30 2817 N 267.536 -0.106894 1.57237 0
M  V30 2818 C 268.499 -1.11466 2.0027 0
M  V30 2819 C 269.499 -1.33623 0.894519 0
M  V30 2820 O 270.689 -1.29935 1.16028 0
M  V30 2821 C 267.821 -2.46646 2.35327 0
M  V30 2822 H 269.014 -0.744516 2.90512 0
M  V30 2823 H 266.567 -0.351576 1.52295 0
M  V30 2824 H 267.302 -2.88558 1.48003 0
M  V30 2825 H 267.087 -2.31915 3.16161 0
M  V30 2826 H 268.577 -3.19151 2.69318 0
M  V30 2827 N 269.014 -1.53014 -0.377408 0
M  V30 2828 C 269.924 -1.81557 -1.48574 0
M  V30 2829 C 270.94 -0.703102 -1.59162 0
M  V30 2830 O 272.116 -0.99192 -1.75279 0
M  V30 2831 C 269.181 -1.9889 -2.83978 0
M  V30 2832 C 268.242 -3.22801 -2.83016 0
M  V30 2833 C 267.475 -3.39298 -4.11962 0
M  V30 2834 O 267.698 -2.60345 -5.0752 0
M  V30 2835 O 266.632 -4.32604 -4.18494 0
M  V30 2836 H 270.458 -2.75695 -1.27382 0
M  V30 2837 H 268.043 -1.38248 -0.566373 0
M  V30 2838 H 269.925 -2.11931 -3.6423 0
M  V30 2839 H 268.6 -1.07942 -3.05172 0
M  V30 2840 H 267.507 -3.15193 -2.01505 0
M  V30 2841 H 268.84 -4.13632 -2.66775 0
M  V30 2842 N 270.492 0.636531 -1.44174 0
M  V30 2843 C 271.738 1.39826 -1.4689 0
M  V30 2844 C 272.071 1.93947 -0.0990585 0
M  V30 2845 O 271.346 1.73325 0.882544 0
M  V30 2846 C 271.629 2.56751 -2.5249 0
M  V30 2847 C 271.482 2.08014 -3.98811 0
M  V30 2848 C 272.801 3.58946 -2.54649 0
M  V30 2849 H 269.92 0.507075 -0.53483 0
M  V30 2850 H 272.562 0.720188 -1.75822 0
M  V30 2851 H 270.712 3.14597 -2.2795 0
M  V30 2852 H 272.384 1.5504 -4.34466 0
M  V30 2853 H 270.627 1.39242 -4.10846 0
M  V30 2854 H 271.298 2.92169 -4.68339 0
M  V30 2855 H 273.774 3.1089 -2.76563 0
M  V30 2856 H 272.65 4.38286 -3.3045 0
M  V30 2857 H 272.911 4.12655 -1.58646 0
M  V30 2858 N 271.97 1.30982 0.876444 0
M  V30 2859 C 273.218 1.20058 1.62575 0
M  V30 2860 C 273.539 -0.242947 1.93481 0
M  V30 2861 O 272.809 -1.1619 1.57724 0
M  V30 2862 H 271.389 0.44135 0.602677 0
M  V30 2863 H 274.051 1.64222 1.04962 0
M  V30 2864 H 273.147 1.76762 2.57219 0
M  V30 2865 N 273.449 -1.08991 1.13837 0
M  V30 2866 C 274.677 -1.85011 0.926202 0
M  V30 2867 C 275.092 -1.8135 -0.525127 0
M  V30 2868 O 274.449 -1.21287 -1.36366 0
M  V30 2869 C 274.5 -3.32802 1.41155 0
M  V30 2870 O 274.221 -3.36444 2.80601 0
M  V30 2871 C 275.722 -4.25649 1.23847 0
M  V30 2872 H 272.942 -0.584249 0.32999 0
M  V30 2873 H 275.486 -1.37688 1.51202 0
M  V30 2874 H 273.641 -3.77536 0.868631 0
M  V30 2875 H 274.055 -4.28657 3.02248 0
M  V30 2876 H 275.529 -5.27485 1.62675 0
M  V30 2877 H 276.006 -4.38828 0.18065 0
M  V30 2878 H 276.612 -3.86735 1.76964 0
M  V30 2879 N 274.927 -0.932562 -1.27047 0
M  V30 2880 C 276.176 -0.571351 -1.93439 0
M  V30 2881 C 276.489 0.892467 -1.74053 0
M  V30 2882 O 277.695 1.36267 -2.34826 0
M  V30 2883 C 276.151 -0.97106 -3.46552 0
M  V30 2884 C 275.759 -2.4559 -3.74686 0
M  V30 2885 C 277.503 -0.681333 -4.18997 0
M  V30 2886 C 275.41 -2.79475 -5.21198 0
M  V30 2887 H 274.34 -0.209966 -0.724176 0
M  V30 2888 H 276.991 -1.13403 -1.44263 0
M  V30 2889 H 275.373 -0.336983 -3.94564 0
M  V30 2890 H 276.547 -3.13829 -3.37414 0
M  V30 2891 H 274.862 -2.71802 -3.15456 0
M  V30 2892 H 277.459 -0.910939 -5.26883 0
M  V30 2893 H 277.802 0.381628 -4.14547 0
M  V30 2894 H 278.335 -1.27473 -3.76823 0
M  V30 2895 H 275.074 -3.847 -5.30741 0
M  V30 2896 H 274.594 -2.1589 -5.596 0
M  V30 2897 H 276.273 -2.67478 -5.89122 0
M  V30 2898 N 276.405 1.4127 -0.698611 0
M  V30 2899 C 277.651 2.01478 -0.231207 0
M  V30 2900 C 277.984 1.55215 1.16713 0
M  V30 2901 O 277.259 0.764672 1.78838 0
M  V30 2902 C 277.542 3.58912 -0.292281 0
M  V30 2903 C 277.395 4.15293 -1.72778 0
M  V30 2904 C 278.714 4.38736 0.346194 0
M  V30 2905 H 275.833 0.732025 -0.0854878 0
M  V30 2906 H 278.475 1.67977 -0.887906 0
M  V30 2907 H 276.625 3.87582 0.26686 0
M  V30 2908 H 278.297 3.97486 -2.341 0
M  V30 2909 H 276.54 3.7022 -2.26096 0
M  V30 2910 H 277.211 5.24452 -1.72202 0
M  V30 2911 H 279.687 4.15897 -0.130035 0
M  V30 2912 H 278.563 5.48221 0.272932 0
M  V30 2913 H 278.824 4.18425 1.42734 0
M  V30 2914 N 277.883 0.443576 1.51229 0
M  V30 2915 C 279.16 -0.181038 1.9476 0
M  V30 2916 C 279.54 -1.59523 1.38259 0
M  V30 2917 O 278.888 -2.2122 0.572198 0
M  V30 2918 C 279.098 -0.152422 3.48667 0
M  V30 2919 C 280.446 -0.354923 4.23114 0
M  V30 2920 O 281.47 -0.230257 3.55455 0
M  V30 2921 O 280.329 -0.603674 5.43156 0
M  V30 2922 H 277.423 -0.1266 0.817252 0
M  V30 2923 H 279.969 0.502004 1.62105 0
M  V30 2924 H 278.741 0.836022 3.82265 0
M  V30 2925 H 278.364 -0.878107 3.87782 0
M  V30 2926 N 279.361 -1.56624 0.175154 0
M  V30 2927 C 280.308 -2.18149 -0.753634 0
M  V30 2928 C 281.278 -1.12265 -1.22417 0
M  V30 2929 O 282.463 -1.40432 -1.29165 0
M  V30 2930 C 279.603 -2.82933 -1.97592 0
M  V30 2931 C 278.716 -4.03289 -1.5486 0
M  V30 2932 C 277.851 -4.55988 -2.72485 0
M  V30 2933 C 276.89 -5.68746 -2.26262 0
M  V30 2934 N 276.027 -6.15938 -3.36994 0
M  V30 2935 H 280.867 -2.9717 -0.222195 0
M  V30 2936 H 278.404 -1.46774 -0.0979422 0
M  V30 2937 H 280.362 -3.18653 -2.69288 0
M  V30 2938 H 278.992 -2.06509 -2.481 0
M  V30 2939 H 278.044 -3.73364 -0.728246 0
M  V30 2940 H 279.356 -4.849 -1.16933 0
M  V30 2941 H 278.51 -4.9391 -3.52332 0
M  V30 2942 H 277.249 -3.73443 -3.13674 0
M  V30 2943 H 276.254 -5.30372 -1.44863 0
M  V30 2944 H 277.479 -6.53095 -1.86127 0
M  V30 2945 H 275.425 -5.36321 -3.77751 0
M  V30 2946 H 275.342 -6.92548 -3.03172 0
M  V30 2947 H 276.61 -6.58511 -4.17114 0
M  V30 2948 N 280.839 0.0985539 -1.57292 0
M  V30 2949 C 282.085 0.803867 -1.86188 0
M  V30 2950 C 282.418 1.78549 -0.763794 0
M  V30 2951 O 281.693 1.93153 0.22855 0
M  V30 2952 C 281.976 1.53568 -3.25713 0
M  V30 2953 C 281.829 0.572277 -4.46145 0
M  V30 2954 C 283.148 2.48708 -3.63087 0
M  V30 2955 H 280.267 0.290781 -0.677211 0
M  V30 2956 H 282.909 0.0675783 -1.8988 0
M  V30 2957 H 281.059 2.16332 -3.22696 0
M  V30 2958 H 282.731 -0.0480894 -4.61275 0
M  V30 2959 H 280.974 -0.114618 -4.33649 0
M  V30 2960 H 281.645 1.12139 -5.40489 0
M  V30 2961 H 284.121 1.96039 -3.67026 0
M  V30 2962 H 282.997 2.96932 -4.61652 0
M  V30 2963 H 283.258 3.32309 -2.91588 0
M  V30 2964 N 282.317 1.53212 0.369288 0
M  V30 2965 C 283.264 1.79388 1.45219 0
M  V30 2966 C 284.234 0.638059 1.53356 0
M  V30 2967 O 285.419 0.879852 1.69302 0
M  V30 2968 C 282.559 1.98623 2.82211 0
M  V30 2969 C 281.672 3.26337 2.8307 0
M  V30 2970 C 280.807 3.35779 4.11614 0
M  V30 2971 C 279.846 4.5754 4.06601 0
M  V30 2972 N 278.983 4.64155 5.26787 0
M  V30 2973 H 283.823 2.71794 1.22198 0
M  V30 2974 H 281.36 1.34642 0.592444 0
M  V30 2975 H 283.318 2.07761 3.61789 0
M  V30 2976 H 281.948 1.09558 3.03639 0
M  V30 2977 H 281 3.26171 1.95747 0
M  V30 2978 H 282.312 4.15988 2.75237 0
M  V30 2979 H 281.466 3.44208 4.99606 0
M  V30 2980 H 280.205 2.44137 4.22195 0
M  V30 2981 H 279.21 4.49215 3.16996 0
M  V30 2982 H 280.435 5.50519 3.97625 0
M  V30 2983 H 278.381 3.75413 5.3796 0
M  V30 2984 H 278.298 5.47706 5.21109 0
M  V30 2985 H 279.566 4.76863 6.16621 0
M  V30 2986 N 283.795 -0.628877 1.44509 0
M  V30 2987 C 284.705 -1.7694 1.54044 0
M  V30 2988 C 285.721 -1.68705 0.425987 0
M  V30 2989 O 286.897 -1.89442 0.683656 0
M  V30 2990 C 283.962 -3.13332 1.48405 0
M  V30 2991 C 283.023 -3.33181 2.70719 0
M  V30 2992 C 282.256 -4.63067 2.6534 0
M  V30 2993 O 282.479 -5.44017 1.71469 0
M  V30 2994 O 281.413 -4.85167 3.56226 0
M  V30 2995 H 285.239 -1.71848 2.50403 0
M  V30 2996 H 282.824 -0.790378 1.26781 0
M  V30 2997 H 284.706 -3.94634 1.47791 0
M  V30 2998 H 283.381 -3.1896 0.551898 0
M  V30 2999 H 282.288 -2.51549 2.769 0
M  V30 3000 H 283.621 -3.32416 3.62988 0
M  V30 3001 N 285.273 -1.31445 -0.869486 0
M  V30 3002 C 286.519 -1.21337 -1.62496 0
M  V30 3003 C 286.852 0.227872 -1.92858 0
M  V30 3004 O 286.127 1.16094 -1.56053 0
M  V30 3005 C 286.41 -2.05814 -2.95487 0
M  V30 3006 C 286.263 -3.5824 -2.72 0
M  V30 3007 C 287.582 -1.9079 -3.96594 0
M  V30 3008 H 284.701 -0.442135 -0.589649 0
M  V30 3009 H 287.343 -1.6124 -1.00507 0
M  V30 3010 H 285.493 -1.71913 -3.48394 0
M  V30 3011 H 287.165 -4.0228 -2.25762 0
M  V30 3012 H 285.408 -3.81647 -2.06224 0
M  V30 3013 H 286.079 -4.12657 -3.66631 0
M  V30 3014 H 288.555 -2.20459 -3.52898 0
M  V30 3015 H 287.431 -2.52199 -4.87531 0
M  V30 3016 H 287.692 -0.871341 -4.33428 0
M  V30 3017 N 286.751 1.08385 -1.14413 0
M  V30 3018 C 287.681 2.17321 -0.854044 0
M  V30 3019 C 288.662 1.69024 0.191049 0
M  V30 3020 O 289.847 1.94141 0.0476779 0
M  V30 3021 C 286.977 3.45719 -0.330983 0
M  V30 3022 C 285.931 4.07409 -1.31155 0
M  V30 3023 C 285.257 5.30762 -0.64778 0
M  V30 3024 C 286.557 4.48665 -2.67388 0
M  V30 3025 H 288.251 2.41845 -1.76498 0
M  V30 3026 H 285.797 1.16233 -0.850051 0
M  V30 3027 H 287.75 4.21241 -0.115645 0
M  V30 3028 H 286.474 3.2075 0.615381 0
M  V30 3029 H 285.133 3.33919 -1.51306 0
M  V30 3030 H 284.781 5.02078 0.304398 0
M  V30 3031 H 284.481 5.72992 -1.30207 0
M  V30 3032 H 286.005 6.08998 -0.441972 0
M  V30 3033 H 287.419 5.15364 -2.51143 0
M  V30 3034 H 285.816 5.01814 -3.29093 0
M  V30 3035 H 286.886 3.60543 -3.24248 0
M  V30 3036 N 288.23 0.939286 1.26551 0
M  V30 3037 C 289.477 0.585847 1.9384 0
M  V30 3038 C 289.805 -0.874784 1.73718 0
M  V30 3039 O 289.06 -1.64092 1.06642 0
M  V30 3040 C 289.359 0.872106 3.46596 0
M  V30 3041 C 289.025 2.31632 3.86856 0
M  V30 3042 C 287.687 2.71111 3.97558 0
M  V30 3043 C 290.039 3.25494 4.07066 0
M  V30 3044 C 287.367 4.03553 4.25866 0
M  V30 3045 C 289.719 4.57531 4.36862 0
M  V30 3046 C 288.383 4.96828 4.45778 0
M  V30 3047 H 287.653 0.214377 0.709312 0
M  V30 3048 H 290.3 1.18544 1.50398 0
M  V30 3049 H 288.605 0.18996 3.91339 0
M  V30 3050 H 290.302 0.577442 3.96821 0
M  V30 3051 H 286.892 2.00008 3.79071 0
M  V30 3052 H 291.076 2.9619 3.98227 0
M  V30 3053 H 286.332 4.33665 4.30981 0
M  V30 3054 H 290.506 5.30254 4.51446 0
M  V30 3055 H 288.133 5.99482 4.67468 0
M  V30 3056 N 289.708 -1.40897 0.706093 0
M  V30 3057 C 290.64 -2.29199 0.00815776 0
M  V30 3058 C 291.653 -1.45336 -0.733582 0
M  V30 3059 O 292.842 -1.68727 -0.582537 0
M  V30 3060 C 289.942 -3.23417 -1.01265 0
M  V30 3061 C 289.115 -4.36089 -0.338387 0
M  V30 3062 C 288.174 -5.10811 -1.26326 0
M  V30 3063 O 287.2 -5.64215 -0.751651 0
M  V30 3064 N 288.402 -5.19269 -2.595 0
M  V30 3065 H 291.167 -2.89738 0.766297 0
M  V30 3066 H 288.728 -1.52164 0.55296 0
M  V30 3067 H 290.72 -3.70276 -1.63334 0
M  V30 3068 H 289.29 -2.64112 -1.67223 0
M  V30 3069 H 288.51 -3.91479 0.462352 0
M  V30 3070 H 289.798 -5.08634 0.130031 0
M  V30 3071 H 289.196 -4.77347 -3.03573 0
M  V30 3072 H 287.753 -5.69667 -3.16737 0
M  V30 3073 N 291.186 -0.45159 -1.50991 0
M  V30 3074 C 292.136 0.370861 -2.24964 0
M  V30 3075 C 293.12 0.978074 -1.2776 0
M  V30 3076 O 294.312 0.893854 -1.52772 0
M  V30 3077 C 291.441 1.46344 -3.10545 0
M  V30 3078 C 290.527 0.864924 -4.15187 0
M  V30 3079 N 290.918 -0.00311354 -5.058 0
M  V30 3080 C 289.216 1.13099 -4.31422 0
M  V30 3081 C 289.917 -0.340772 -5.80701 0
M  V30 3082 N 288.893 0.279203 -5.42883 0
M  V30 3083 H 292.695 -0.298134 -2.92384 0
M  V30 3084 H 290.209 -0.264528 -1.60231 0
M  V30 3085 H 292.206 2.06565 -3.62128 0
M  V30 3086 H 290.866 2.13463 -2.4467 0
M  V30 3087 H 291.877 -0.37058 -5.16572 0
M  V30 3088 H 288.554 1.79861 -3.76771 0
M  V30 3089 H 289.944 -1.048 -6.63677 0
M  V30 3090 N 292.664 1.56529 -0.183458 0
M  V30 3091 C 293.889 2.02064 0.467428 0
M  V30 3092 C 294.314 1.06282 1.55196 0
M  V30 3093 O 293.672 0.0443565 1.81246 0
M  V30 3094 C 293.72 3.46122 1.01153 0
M  V30 3095 O 292.824 3.53437 2.12499 0
M  V30 3096 H 292.165 0.654726 0.110588 0
M  V30 3097 H 294.695 2.02521 -0.290917 0
M  V30 3098 H 294.705 3.85676 1.33108 0
M  V30 3099 H 293.38 4.15331 0.217533 0
M  V30 3100 H 291.957 3.2575 1.81497 0
M  V30 3101 N 294.142 -0.090211 1.57342 0
M  V30 3102 C 295.39 -0.791241 1.85967 0
M  V30 3103 C 295.711 -1.7903 0.772859 0
M  V30 3104 O 294.981 -1.94872 -0.200398 0
M  V30 3105 H 293.561 -0.295205 0.686195 0
M  V30 3106 H 296.223 -0.0706782 1.94772 0
M  V30 3107 H 295.319 -1.31882 2.82867 0
M  V30 3108 N 295.62 -1.53406 -0.361157 0
M  V30 3109 C 296.867 -1.69802 -1.10333 0
M  V30 3110 C 297.195 -0.452087 -1.89173 0
M  V30 3111 O 296.45 0.566017 -1.87336 0
M  V30 3112 C 296.749 -2.90211 -2.08596 0
M  V30 3113 C 296.415 -4.26539 -1.46203 0
M  V30 3114 C 295.077 -4.6361 -1.28915 0
M  V30 3115 C 297.429 -5.113 -1.01101 0
M  V30 3116 C 294.757 -5.83075 -0.651157 0
M  V30 3117 C 297.109 -6.31415 -0.387007 0
M  V30 3118 C 295.773 -6.67195 -0.201657 0
M  V30 3119 H 295.043 -0.621351 -0.403737 0
M  V30 3120 H 297.69 -1.87598 -0.384609 0
M  V30 3121 H 295.995 -2.66946 -2.86788 0
M  V30 3122 H 297.692 -3.00091 -2.65982 0
M  V30 3123 H 294.282 -3.97352 -1.60653 0
M  V30 3124 H 298.466 -4.83206 -1.13249 0
M  V30 3125 H 293.722 -6.09385 -0.496006 0
M  V30 3126 H 297.896 -6.96394 -0.0293563 0
M  V30 3127 H 295.523 -7.59628 0.294766 0
M  V30 3128 N 297.098 0.621204 -1.44841 0
M  V30 3129 C 298.03 1.74615 -1.48466 0
M  V30 3130 C 299.043 1.58377 -0.37691 0
M  V30 3131 O 300.232 1.66508 -0.643215 0
M  V30 3132 C 297.332 3.12459 -1.31236 0
M  V30 3133 C 296.505 3.55064 -2.55438 0
M  V30 3134 C 295.564 4.71821 -2.32963 0
M  V30 3135 O 294.59 4.79628 -3.06505 0
M  V30 3136 N 295.792 5.64186 -1.36654 0
M  V30 3137 H 298.557 1.71973 -2.45449 0
M  V30 3138 H 296.118 0.806077 -1.40407 0
M  V30 3139 H 298.11 3.88302 -1.14032 0
M  V30 3140 H 296.68 3.09686 -0.4258 0
M  V30 3141 H 295.9 2.69324 -2.87851 0
M  V30 3142 H 297.188 3.80284 -3.38026 0
M  V30 3143 H 296.586 5.6058 -0.759344 0
M  V30 3144 H 295.143 6.39618 -1.25425 0
M  V30 3145 N 298.576 1.31904 0.862503 0
M  V30 3146 C 299.508 1.16005 1.97675 0
M  V30 3147 C 300.521 0.0971234 1.6251 0
M  V30 3148 O 301.71 0.345337 1.75128 0
M  V30 3149 C 298.81 0.751791 3.30456 0
M  V30 3150 C 297.983 1.90133 3.93914 0
M  V30 3151 C 297.042 1.4779 5.05019 0
M  V30 3152 O 296.068 2.18872 5.25437 0
M  V30 3153 N 297.27 0.369491 5.79323 0
M  V30 3154 H 300.035 2.11982 2.11857 0
M  V30 3155 H 297.596 1.24337 1.03691 0
M  V30 3156 H 299.588 0.451084 4.02178 0
M  V30 3157 H 298.158 -0.116593 3.12382 0
M  V30 3158 H 297.378 2.36896 3.15078 0
M  V30 3159 H 298.666 2.67111 4.33047 0
M  V30 3160 H 298.064 -0.222299 5.65263 0
M  V30 3161 H 296.621 0.128354 6.51674 0
M  V30 3162 N 300.054 -1.07777 1.14986 0
M  V30 3163 C 301.279 -1.84558 0.946213 0
M  V30 3164 C 301.704 -1.81323 -0.500362 0
M  V30 3165 O 301.062 -1.20301 -1.35637 0
M  V30 3166 C 301.11 -3.29736 1.45968 0
M  V30 3167 O 300.214 -4.07149 0.65601 0
M  V30 3168 H 299.555 -0.571641 0.33782 0
M  V30 3169 H 302.085 -1.35991 1.52865 0
M  V30 3170 H 302.095 -3.80574 1.47063 0
M  V30 3171 H 300.77 -3.31406 2.51283 0
M  V30 3172 H 299.347 -3.65994 0.714322 0
M  V30 3173 O 301.571 -1.07645 -1.20395 0
M  V30 3174 H 302.262 -0.764187 -1.77988 0
M  V30 END ATOM
M  V30 BEGIN BOND
M  V30 END BOND
M  V30 END CTAB
M  END
$$$$
