drugbank_target|Q96DB2 Histone deacetylase 11 (DB05015; DB06603)
 OpenBabel12092121043D

  0  0  0     0  0            999 V3000
M  V30 BEGIN CTAB
M  V30 COUNTS 5550 5612 0 0 0
M  V30 BEGIN ATOM
M  V30 1 H -0.908 1.98254 -0.117106 0
M  V30 2 N 0 1.576 0 0
M  V30 3 C 0.933 2.03868 1.02534 0
M  V30 4 C 1.911 0.928543 1.3348 0
M  V30 5 O 3.095 1.19667 1.45644 0
M  V30 6 C 0.222 2.43627 2.35294 0
M  V30 7 C -0.732 3.65373 2.2001 0
M  V30 8 S 0.101 5.13292 1.52614 0
M  V30 9 C 1.257 5.56322 2.86805 0
M  V30 10 H 1.49 2.90518 0.631377 0
M  V30 11 H -0.977 1.52953 0.210867 0
M  V30 12 H 0.981 2.67203 3.11629 0
M  V30 13 H -0.358 1.57376 2.7183 0
M  V30 14 H -1.165 3.90944 3.18086 0
M  V30 15 H -1.563 3.418 1.51819 0
M  V30 16 H 0.729 5.58782 3.83104 0
M  V30 17 H 1.672 6.56266 2.65933 0
M  V30 18 H 2.08 4.83886 2.90714 0
M  V30 19 N 1.4781 -0.272755 1.55222 0
M  V30 20 C 2.4081 -1.34136 1.91127 0
M  V30 21 C 3.3891 -1.51513 0.773168 0
M  V30 22 O 4.5741 -1.64552 1.03132 0
M  V30 23 C 1.7041 -2.70083 2.1834 0
M  V30 24 C 0.6581 -2.67437 3.34158 0
M  V30 25 C -0.0159 -4.06938 3.46851 0
M  V30 26 C 1.2841 -2.26686 4.70543 0
M  V30 27 H 2.9781 -1.04333 2.80633 0
M  V30 28 H 0.5241 -0.500454 1.35024 0
M  V30 29 H 2.4771 -3.44952 2.42046 0
M  V30 30 H 1.2011 -3.01469 1.25634 0
M  V30 31 H -0.1399 -1.95026 3.1042 0
M  V30 32 H -0.4919 -4.35547 2.51611 0
M  V30 33 H -0.7919 -4.06062 4.2472 0
M  V30 34 H 0.7321 -4.83545 3.72849 0
M  V30 35 H 2.1461 -2.91277 4.93792 0
M  V30 36 H 0.5431 -2.36971 5.5133 0
M  V30 37 H 1.6131 -1.21818 4.69349 0
M  V30 38 N 2.9562 -1.48159 -0.537278 0
M  V30 39 C 3.9062 -1.5854 -1.63857 0
M  V30 40 C 4.8902 -0.442969 -1.54682 0
M  V30 41 O 6.0822 -0.69401 -1.62827 0
M  V30 42 C 3.2112 -1.62144 -3.02596 0
M  V30 43 C 2.2972 -2.81841 -3.16901 0
M  V30 44 N 2.6882 -4.06337 -3.01204 0
M  V30 45 C 0.9862 -2.79021 -3.47942 0
M  V30 46 C 1.6872 -4.86606 -3.18731 0
M  V30 47 N 0.6632 -4.19288 -3.45974 0
M  V30 48 H 4.4652 -2.5255 -1.50319 0
M  V30 49 H 1.9792 -1.4443 -0.742555 0
M  V30 50 H 3.9762 -1.67674 -3.81695 0
M  V30 51 H 2.6362 -0.69245 -3.17231 0
M  V30 52 H 3.6472 -4.36888 -2.78117 0
M  V30 53 H 0.3242 -1.95347 -3.6898 0
M  V30 54 H 1.7142 -5.95385 -3.11394 0
M  V30 55 N 4.4343 0.785586 -1.36625 0
M  V30 56 C 5.6623 1.57448 -1.3423 0
M  V30 57 C 6.0773 1.88649 0.0755653 0
M  V30 58 O 5.4343 1.50414 1.03354 0
M  V30 59 C 5.4853 2.89316 -2.16745 0
M  V30 60 O 5.2063 2.59459 -3.53005 0
M  V30 61 C 6.7073 3.83606 -2.22174 0
M  V30 62 H 3.9273 0.488226 -0.4603 0
M  V30 63 H 6.4713 0.974733 -1.79775 0
M  V30 64 H 4.6263 3.4575 -1.74745 0
M  V30 65 H 5.0403 3.43804 -3.96105 0
M  V30 66 H 6.5143 4.73181 -2.8426 0
M  V30 67 H 6.9913 4.21734 -1.22627 0
M  V30 68 H 7.5973 3.33104 -2.64427 0
M  V30 69 N 5.9124 1.20967 1.01018 0
M  V30 70 C 7.1404 1.04956 1.78303 0
M  V30 71 C 7.5554 -0.400915 1.84494 0
M  V30 72 O 6.9124 -1.27826 1.30257 0
M  V30 73 C 6.9634 1.63403 3.22462 0
M  V30 74 O 6.6844 3.02775 3.16637 0
M  V30 75 C 8.1854 1.52432 4.16268 0
M  V30 76 H 5.4054 0.368858 0.560522 0
M  V30 77 H 7.9494 1.60193 1.27116 0
M  V30 78 H 6.1044 1.1227 3.70775 0
M  V30 79 H 6.5184 3.30626 4.07169 0
M  V30 80 H 7.9924 1.98078 5.15237 0
M  V30 81 H 8.4694 0.477875 4.36592 0
M  V30 82 H 9.0754 2.02787 3.73841 0
M  V30 83 N 7.3905 -1.2043 1.01659 0
M  V30 84 C 8.3225 -2.22626 0.544988 0
M  V30 85 C 9.3355 -1.58479 -0.372609 0
M  V30 86 O 10.5245 -1.77679 -0.170958 0
M  V30 87 C 7.6245 -3.38141 -0.22663 0
M  V30 88 C 6.7975 -4.31877 0.692876 0
M  V30 89 C 5.8565 -5.26191 -0.0311616 0
M  V30 90 O 4.8825 -5.6612 0.591343 0
M  V30 91 N 6.0845 -5.65618 -1.30601 0
M  V30 92 H 8.8495 -2.63716 1.42388 0
M  V30 93 H 6.4105 -1.34971 0.894116 0
M  V30 94 H 8.4025 -3.98239 -0.72024 0
M  V30 95 H 6.9725 -2.95943 -1.00681 0
M  V30 96 H 6.1925 -3.69746 1.36679 0
M  V30 97 H 7.4805 -4.91426 1.31824 0
M  V30 98 H 6.8785 -5.3519 -1.83269 0
M  V30 99 H 5.4355 -6.28025 -1.74435 0
M  V30 100 N 8.8686 -0.792821 -1.36206 0
M  V30 101 C 9.7986 -0.207853 -2.32573 0
M  V30 102 C 10.7796 0.659055 -1.56813 0
M  V30 103 O 11.9646 0.592176 -1.84951 0
M  V30 104 C 9.0946 0.655449 -3.41059 0
M  V30 105 C 8.0486 -0.111842 -4.27854 0
M  V30 106 C 7.3746 0.872274 -5.27537 0
M  V30 107 C 8.6746 -1.30299 -5.05786 0
M  V30 108 H 10.3686 -1.01294 -2.81744 0
M  V30 109 H 7.9146 -0.48854 -1.3546 0
M  V30 110 H 9.8676 1.07464 -4.07467 0
M  V30 111 H 8.5916 1.49328 -2.90463 0
M  V30 112 H 7.2506 -0.512053 -3.63006 0
M  V30 113 H 6.8986 1.70523 -4.73214 0
M  V30 114 H 6.5986 0.363291 -5.86476 0
M  V30 115 H 8.1226 1.28996 -5.96818 0
M  V30 116 H 9.5366 -0.959379 -5.65216 0
M  V30 117 H 7.9336 -1.7455 -5.74154 0
M  V30 118 H 9.0036 -2.09663 -4.37229 0
M  V30 119 N 10.3467 1.47872 -0.545128 0
M  V30 120 C 11.5767 2.06589 -0.0210534 0
M  V30 121 C 11.9847 1.39997 1.27269 0
M  V30 122 O 11.3277 0.486421 1.77143 0
M  V30 123 C 11.3897 3.58574 0.257933 0
M  V30 124 C 11.0537 4.47132 -0.944573 0
M  V30 125 C 12.0507 4.85986 -1.84699 0
M  V30 126 C 9.7357 4.88821 -1.15584 0
M  V30 127 C 11.7297 5.65314 -2.94446 0
M  V30 128 C 9.4167 5.67916 -2.25642 0
M  V30 129 C 10.4147 6.06073 -3.14905 0
M  V30 130 O 10.1027 6.83578 -4.23057 0
M  V30 131 H 9.8347 0.674971 -0.0372899 0
M  V30 132 H 12.3887 1.91037 -0.754599 0
M  V30 133 H 10.6187 3.72295 1.04564 0
M  V30 134 H 12.3077 3.99356 0.72592 0
M  V30 135 H 13.0737 4.54388 -1.69577 0
M  V30 136 H 8.9527 4.58595 -0.470279 0
M  V30 137 H 12.4967 5.95016 -3.64145 0
M  V30 138 H 8.3937 5.98927 -2.40742 0
M  V30 139 H 9.1617 7.01954 -4.20954 0
M  V30 140 N 11.8248 0.280983 1.55075 0
M  V30 141 C 12.7568 -0.637268 2.20163 0
M  V30 142 C 13.7698 -1.11298 1.18813 0
M  V30 143 O 14.9588 -1.03388 1.4551 0
M  V30 144 C 12.0588 -1.88199 2.81841 0
M  V30 145 C 11.2318 -1.55211 4.08936 0
M  V30 146 C 10.2908 -2.64991 4.54606 0
M  V30 147 O 9.3168 -2.30929 5.2025 0
M  V30 148 N 10.5188 -3.95161 4.25238 0
M  V30 149 H 13.2838 -0.0801694 2.99593 0
M  V30 150 H 10.8448 0.102329 1.61576 0
M  V30 151 H 12.8368 -2.60948 3.09335 0
M  V30 152 H 11.4068 -2.34799 2.06369 0
M  V30 153 H 10.6268 -0.658185 3.88666 0
M  V30 154 H 11.9148 -1.30681 4.91732 0
M  V30 155 H 11.3128 -4.25653 3.72607 0
M  V30 156 H 9.8698 -4.6427 4.5749 0
M  V30 157 N 13.3029 -1.57598 0.00835791 0
M  V30 158 C 14.2529 -2.05431 -0.989045 0
M  V30 159 C 15.2369 -0.950662 -1.29812 0
M  V30 160 O 16.4289 -1.21438 -1.28771 0
M  V30 161 C 13.5579 -2.56801 -2.27833 0
M  V30 162 C 12.6439 -3.74058 -1.99853 0
M  V30 163 N 13.0349 -4.8544 -1.42062 0
M  V30 164 C 11.3329 -3.82148 -2.29953 0
M  V30 165 C 12.0339 -5.66817 -1.30743 0
M  V30 166 N 11.0099 -5.13077 -1.7959 0
M  V30 167 H 14.8119 -2.88955 -0.536853 0
M  V30 168 H 12.3259 -1.61199 -0.197148 0
M  V30 169 H 14.3229 -2.89349 -3.00137 0
M  V30 170 H 12.9829 -1.74699 -2.73698 0
M  V30 171 H 13.9939 -5.0612 -1.09833 0
M  V30 172 H 10.6709 -3.10916 -2.78635 0
M  V30 173 H 12.0609 -6.66343 -0.862328 0
M  V30 174 N 14.781 0.264519 -1.55364 0
M  V30 175 C 16.027 0.99646 -1.76631 0
M  V30 176 C 16.36 1.85632 -0.570478 0
M  V30 177 O 15.635 1.89647 0.43175 0
M  V30 178 C 15.918 1.87187 -3.07625 0
M  V30 179 C 15.771 1.04138 -4.37579 0
M  V30 180 C 17.09 2.85749 -3.34717 0
M  V30 181 H 14.209 0.360841 -0.642622 0
M  V30 182 H 16.851 0.268218 -1.88097 0
M  V30 183 H 15.001 2.49279 -2.9798 0
M  V30 184 H 16.673 0.440517 -4.59192 0
M  V30 185 H 14.916 0.345115 -4.32425 0
M  V30 186 H 15.587 1.68729 -5.2558 0
M  V30 187 H 18.063 2.33793 -3.4421 0
M  V30 188 H 16.939 3.44136 -4.27623 0
M  V30 189 H 17.2 3.61311 -2.54768 0
M  V30 190 N 16.2591 1.48442 0.529413 0
M  V30 191 C 17.6701 1.5002 1.11134 0
M  V30 192 C 18.0211 0.27031 1.94329 0
M  V30 193 O 17.1461 -0.622507 2.07253 0
M  V30 194 C 17.7411 2.71834 2.02217 0
M  V30 195 C 16.3001 2.76283 2.55627 0
M  V30 196 C 15.4471 2.43542 1.326 0
M  V30 197 H 18.3981 1.5555 0.314641 0
M  V30 198 H 18.4191 2.50384 2.8651 0
M  V30 199 H 17.9311 3.61331 1.41639 0
M  V30 200 H 16.0321 1.90995 3.19924 0
M  V30 201 H 16.1451 3.77725 2.94721 0
M  V30 202 H 14.5091 1.94709 1.64196 0
M  V30 203 H 15.2921 3.3528 0.737734 0
M  V30 204 N 17.7372 -0.778329 1.37039 0
M  V30 205 C 18.6472 -1.92253 1.34446 0
M  V30 206 C 19.6632 -1.72267 0.244991 0
M  V30 207 O 20.8392 -1.95615 0.479258 0
M  V30 208 C 17.9042 -3.27282 1.144 0
M  V30 209 C 16.9652 -3.59969 2.33925 0
M  V30 210 C 16.1982 -4.88555 2.14825 0
M  V30 211 O 16.4212 -5.59113 1.12912 0
M  V30 212 O 15.3552 -5.20153 3.02861 0
M  V30 213 H 19.1812 -1.97392 2.30803 0
M  V30 214 H 16.7662 -0.920154 1.17701 0
M  V30 215 H 18.6482 -4.08062 1.05182 0
M  V30 216 H 17.3232 -3.23011 0.211124 0
M  V30 217 H 16.2302 -2.7945 2.48714 0
M  V30 218 H 17.5632 -3.68976 3.25757 0
M  V30 219 N 19.2153 -1.21501 -1.00376 0
M  V30 220 C 20.4433 -1.059 -1.77744 0
M  V30 221 C 20.8583 0.391125 -1.84704 0
M  V30 222 O 20.2153 1.27133 -1.30933 0
M  V30 223 C 20.2663 -1.65111 -3.21591 0
M  V30 224 O 19.9873 -3.0445 -3.15027 0
M  V30 225 C 21.4883 -1.54637 -4.15454 0
M  V30 226 H 18.7083 -0.371825 -0.558558 0
M  V30 227 H 21.2523 -1.60865 -1.26264 0
M  V30 228 H 19.4073 -1.14235 -3.70175 0
M  V30 229 H 19.8213 -3.3278 -4.0541 0
M  V30 230 H 21.2953 -2.00808 -5.14179 0
M  V30 231 H 21.7723 -0.501022 -4.36333 0
M  V30 232 H 22.3783 -2.04767 -3.72761 0
M  V30 233 N 20.6934 1.19889 -1.02296 0
M  V30 234 C 22.1094 1.41462 -0.738954 0
M  V30 235 C 22.3094 1.89721 0.678846 0
M  V30 236 O 21.3654 2.07016 1.4457 0
M  V30 237 C 22.6784 2.43083 -1.77005 0
M  V30 238 C 24.2264 2.5684 -1.78892 0
M  V30 239 C 24.7014 3.61709 -2.80945 0
M  V30 240 N 26.1924 3.69199 -2.79725 0
M  V30 241 C 26.9274 4.50019 -3.55345 0
M  V30 242 N 26.4234 5.34592 -4.40662 0
M  V30 243 N 28.2164 4.44612 -3.43914 0
M  V30 244 H 20.3674 0.868827 -1.93817 0
M  V30 245 H 22.6304 0.44399 -0.837602 0
M  V30 246 H 22.3364 2.14636 -2.78612 0
M  V30 247 H 22.2104 3.4217 -1.58744 0
M  V30 248 H 24.5974 2.84614 -0.779674 0
M  V30 249 H 24.6784 1.57927 -2.01228 0
M  V30 250 H 24.3224 3.34678 -3.82038 0
M  V30 251 H 24.2524 4.60259 -2.5587 0
M  V30 252 H 26.7434 3.08794 -2.17842 0
M  V30 253 H 27.0564 5.93363 -4.95116 0
M  V30 254 H 25.4014 5.34073 -4.44737 0
M  V30 255 H 28.5924 3.7758 -2.76679 0
M  V30 256 H 28.7654 5.0736 -4.031 0
M  V30 257 N 22.1715 0.800033 1.35784 0
M  V30 258 C 23.4175 0.38701 1.99684 0
M  V30 259 C 23.7725 -1.03268 1.62338 0
M  V30 260 O 23.0655 -1.70543 0.87325 0
M  V30 261 C 23.2595 0.500276 3.53881 0
M  V30 262 C 23.0885 1.92942 4.06206 0
M  V30 263 C 21.8585 2.55637 4.35865 0
M  V30 264 C 24.0565 2.89307 4.25213 0
M  V30 265 N 22.0385 3.9003 4.74078 0
M  V30 266 C 23.4095 4.08556 4.66349 0
M  V30 267 C 25.4645 2.86225 4.07406 0
M  V30 268 C 24.1675 5.25146 4.91543 0
M  V30 269 C 26.1935 4.02011 4.33752 0
M  V30 270 C 25.5555 5.20007 4.75155 0
M  V30 271 H 21.6545 0.189252 0.758754 0
M  V30 272 H 24.2385 1.03988 1.64604 0
M  V30 273 H 22.4095 -0.122568 3.88207 0
M  V30 274 H 24.1415 0.0624733 4.04652 0
M  V30 275 H 20.8965 2.07039 4.25948 0
M  V30 276 H 21.3205 4.59205 4.97454 0
M  V30 277 H 25.9625 1.96154 3.74544 0
M  V30 278 H 23.6805 6.15794 5.23281 0
M  V30 279 H 27.2665 4.00999 4.21534 0
M  V30 280 H 26.1465 6.08113 4.95145 0
M  V30 281 N 23.6496 -1.47581 0.552962 0
M  V30 282 C 25.0606 -1.86324 0.118463 0
M  V30 283 C 25.4116 -1.46006 -1.3106 0
M  V30 284 O 24.5366 -0.861182 -1.98526 0
M  V30 285 C 25.1316 -3.3816 0.20821 0
M  V30 286 C 23.6906 -3.7601 -0.171226 0
M  V30 287 C 22.8376 -2.71634 0.557686 0
M  V30 288 H 25.7886 -1.39159 0.762928 0
M  V30 289 H 25.8096 -3.76141 -0.574278 0
M  V30 290 H 25.3216 -3.67473 1.24841 0
M  V30 291 H 23.4226 -3.52313 -1.21269 0
M  V30 292 H 23.5356 -4.78745 0.184379 0
M  V30 293 H 21.8996 -2.547 0.00125792 0
M  V30 294 H 22.6826 -3.0379 1.59896 0
M  V30 295 N 25.1277 -0.289203 -1.54924 0
M  V30 296 C 26.3767 0.324231 -1.99077 0
M  V30 297 C 26.6897 1.5591 -1.18117 0
M  V30 298 O 27.8957 2.24637 -1.52481 0
M  V30 299 C 26.3517 0.628209 -3.54375 0
M  V30 300 C 25.9597 -0.587647 -4.44129 0
M  V30 301 C 27.7037 1.20349 -4.07083 0
M  V30 302 C 25.6107 -0.257475 -5.90839 0
M  V30 303 H 24.5407 0.124924 -0.743579 0
M  V30 304 H 27.1917 -0.396063 -1.79175 0
M  V30 305 H 25.5737 1.40778 -3.70132 0
M  V30 306 H 26.7477 -1.36418 -4.40144 0
M  V30 307 H 25.0627 -1.08074 -4.0213 0
M  V30 308 H 27.6597 1.46456 -5.14252 0
M  V30 309 H 28.0027 2.14195 -3.56968 0
M  V30 310 H 28.5357 0.485889 -3.94821 0
M  V30 311 H 25.2747 -1.16419 -6.45079 0
M  V30 312 H 24.7947 0.482018 -5.9786 0
M  V30 313 H 26.4737 0.145238 -6.46837 0
M  V30 314 N 26.6058 1.57591 -0.0167156 0
M  V30 315 C 27.8518 1.91567 0.665582 0
M  V30 316 C 28.1848 0.892298 1.72487 0
M  V30 317 O 27.4598 -0.0867127 1.94307 0
M  V30 318 C 27.7428 3.36069 1.29342 0
M  V30 319 C 27.5958 4.49135 0.244541 0
M  V30 320 C 28.9148 3.803 2.21495 0
M  V30 321 H 26.0338 0.69666 0.240488 0
M  V30 322 H 28.6758 1.89866 -0.0714356 0
M  V30 323 H 26.8258 3.3765 1.92158 0
M  V30 324 H 28.4978 4.59689 -0.385228 0
M  V30 325 H 26.7408 4.3165 -0.431379 0
M  V30 326 H 27.4118 5.47242 0.723207 0
M  V30 327 H 29.8878 3.80377 1.68678 0
M  V30 328 H 28.7638 4.82127 2.62382 0
M  V30 329 H 29.0248 3.15104 3.101 0
M  V30 330 N 28.0839 -0.256276 1.55502 0
M  V30 331 C 29.3139 -1.00196 1.80677 0
M  V30 332 C 29.7219 -1.79805 0.588797 0
M  V30 333 O 29.0649 -1.78055 -0.451883 0
M  V30 334 C 29.1269 -1.99515 2.99055 0
M  V30 335 C 28.7909 -1.38688 4.35448 0
M  V30 336 C 29.7879 -0.794079 5.138 0
M  V30 337 C 27.4729 -1.40906 4.82132 0
M  V30 338 C 29.4669 -0.231562 6.36979 0
M  V30 339 C 27.1539 -0.842684 6.05262 0
M  V30 340 C 28.1519 -0.254953 6.82524 0
M  V30 341 O 27.8399 0.3027 8.0333 0
M  V30 342 H 27.5719 -0.300919 0.60533 0
M  V30 343 H 30.1259 -0.287307 2.03381 0
M  V30 344 H 28.3559 -2.74785 2.72084 0
M  V30 345 H 30.0449 -2.60349 3.11405 0
M  V30 346 H 30.8109 -0.769519 4.78856 0
M  V30 347 H 26.6899 -1.85591 4.21992 0
M  V30 348 H 30.2339 0.227816 6.97228 0
M  V30 349 H 26.1309 -0.86454 6.39684 0
M  V30 350 H 26.8989 0.193662 8.18271 0
M  V30 351 N 29.562 -1.4872 -0.521534 0
M  V30 352 C 30.787 -1.61101 -1.30618 0
M  V30 353 C 31.212 -0.274611 -1.86085 0
M  V30 354 O 30.57 0.754937 -1.64834 0
M  V30 355 C 30.618 -2.66709 -2.4269 0
M  V30 356 O 29.722 -2.24456 -3.45967 0
M  V30 357 H 29.063 -0.539921 -0.386499 0
M  V30 358 H 31.593 -1.94767 -0.626645 0
M  V30 359 H 31.603 -2.88245 -2.88754 0
M  V30 360 H 30.278 -3.63727 -2.01682 0
M  V30 361 H 28.855 -2.13168 -3.05964 0
M  V30 362 N 31.0401 0.771051 -1.3745 0
M  V30 363 C 32.4511 1.34737 -1.29239 0
M  V30 364 C 32.8021 1.96109 0.0596908 0
M  V30 365 O 31.9271 1.93865 0.961534 0
M  V30 366 C 32.5221 2.44973 -2.34037 0
M  V30 367 C 31.0811 2.98372 -2.29458 0
M  V30 368 C 30.2281 1.71595 -2.17831 0
M  V30 369 H 33.1791 0.571256 -1.48062 0
M  V30 370 H 33.2001 3.24471 -1.98744 0
M  V30 371 H 32.7121 2.00276 -3.32432 0
M  V30 372 H 30.8131 3.47443 -1.34589 0
M  V30 373 H 30.9261 3.53939 -3.229 0
M  V30 374 H 29.2901 1.94547 -1.64388 0
M  V30 375 H 30.0731 1.29001 -3.18141 0
M  V30 376 N 32.5182 1.22032 0.997298 0
M  V30 377 C 33.9342 0.979326 1.26021 0
M  V30 378 C 34.1342 -0.32972 1.98784 0
M  V30 379 O 33.1902 -1.05345 2.29475 0
M  V30 380 C 34.5032 2.17509 2.07631 0
M  V30 381 C 36.0512 2.21817 2.2083 0
M  V30 382 C 36.5262 3.40933 3.05825 0
M  V30 383 N 38.0172 3.41067 3.13412 0
M  V30 384 C 38.7522 4.29885 3.79455 0
M  V30 385 N 38.2482 5.28914 4.47462 0
M  V30 386 N 40.0412 4.17673 3.76173 0
M  V30 387 H 32.1922 2.06202 0.509352 0
M  V30 388 H 34.4552 0.90334 0.287541 0
M  V30 389 H 34.1612 3.12415 1.61524 0
M  V30 390 H 34.0352 2.17206 3.08385 0
M  V30 391 H 36.4222 1.27462 2.66153 0
M  V30 392 H 36.5032 2.2616 1.1952 0
M  V30 393 H 36.1472 4.35586 2.61203 0
M  V30 394 H 36.0772 3.33829 4.07266 0
M  V30 395 H 38.5682 2.69406 2.65007 0
M  V30 396 H 38.8812 5.92973 4.95583 0
M  V30 397 H 37.2262 5.32831 4.46224 0
M  V30 398 H 40.4172 3.39564 3.22202 0
M  V30 399 H 40.5902 4.87098 4.27363 0
M  V30 400 N 33.9963 -1.19345 1.0293 0
M  V30 401 C 35.2263 -1.92717 0.744563 0
M  V30 402 C 35.6343 -1.75751 -0.700579 0
M  V30 403 O 34.9773 -1.07703 -1.48815 0
M  V30 404 C 35.0393 -3.44828 1.01657 0
M  V30 405 C 34.7033 -3.85564 2.45335 0
M  V30 406 C 35.7003 -3.90286 3.43472 0
M  V30 407 C 33.3853 -4.1719 2.79746 0
M  V30 408 C 35.3793 -4.26065 4.74075 0
M  V30 409 C 33.0663 -4.52642 4.10559 0
M  V30 410 C 34.0643 -4.57054 5.07534 0
M  V30 411 O 33.7523 -4.91685 6.36004 0
M  V30 412 H 33.4843 -0.618977 0.271742 0
M  V30 413 H 36.0383 -1.52415 1.37691 0
M  V30 414 H 34.2683 -3.85314 0.327084 0
M  V30 415 H 35.9573 -3.99437 0.721427 0
M  V30 416 H 36.7233 -3.66002 3.18225 0
M  V30 417 H 32.6023 -4.1294 2.04943 0
M  V30 418 H 36.1463 -4.29423 5.49765 0
M  V30 419 H 32.0433 -4.76383 4.35579 0
M  V30 420 H 32.8113 -5.09631 6.40483 0
M  V30 421 N 35.4744 -0.807222 -1.35358 0
M  V30 422 C 36.4224 -0.20614 -2.31685 0
M  V30 423 C 37.4164 0.644445 -1.56663 0
M  V30 424 O 38.6224 0.537538 -1.71786 0
M  V30 425 H 34.9974 -0.0479006 -0.750473 0
M  V30 426 H 36.9684 -1.03369 -2.79924 0
M  V30 427 C 35.7174 0.630212 -3.41941 0
M  V30 428 H 35.0404 -0.0149558 -3.99797 0
M  V30 429 H 36.4804 1.01716 -4.11619 0
M  V30 430 C 34.9394 1.79601 -2.85035 0
M  V30 431 O 35.4694 2.89351 -2.78637 0
M  V30 432 N 33.6754 1.60774 -2.42074 0
M  V30 433 H 33.2224 0.715009 -2.47478 0
M  V30 434 H 33.1804 2.38933 -2.04349 0
M  V30 435 N 36.9525 1.47285 -0.560781 0
M  V30 436 C 38.2015 2.01668 -0.035895 0
M  V30 437 C 38.5145 1.44021 1.32353 0
M  V30 438 O 39.7205 1.90088 1.93853 0
M  V30 439 C 38.1765 3.59897 -0.0136659 0
M  V30 440 C 37.7845 4.26536 -1.37006 0
M  V30 441 C 39.5285 4.22017 0.458425 0
M  V30 442 C 37.4355 5.76782 -1.30675 0
M  V30 443 H 36.3655 0.753938 -0.00964879 0
M  V30 444 H 39.0165 1.69243 -0.709166 0
M  V30 445 H 37.3985 3.89301 0.725325 0
M  V30 446 H 38.5725 4.0877 -2.12705 0
M  V30 447 H 36.8875 3.76419 -1.78038 0
M  V30 448 H 39.4845 5.32124 0.524247 0
M  V30 449 H 39.8275 3.89437 1.4712 0
M  V30 450 H 40.3605 3.97159 -0.225818 0
M  V30 451 H 37.0995 6.13988 -2.29564 0
M  V30 452 H 36.6195 5.96875 -0.591622 0
M  V30 453 H 38.2985 6.39063 -1.01033 0
M  V30 454 N 38.4306 0.297415 1.54768 0
M  V30 455 C 39.6586 -0.315623 2.04478 0
M  V30 456 C 40.0736 -1.47792 1.17486 0
M  V30 457 O 39.4306 -1.81404 0.19971 0
M  V30 458 C 39.4816 -0.7753 3.53088 0
M  V30 459 O 39.2026 0.340732 4.36773 0
M  V30 460 C 40.7036 -1.45386 4.18781 0
M  V30 461 H 37.9236 -0.0690887 0.667434 0
M  V30 462 H 40.4676 0.436003 1.99798 0
M  V30 463 H 38.6226 -1.47696 3.58141 0
M  V30 464 H 39.0366 -0.0165035 5.24497 0
M  V30 465 H 40.5106 -1.72669 5.24299 0
M  V30 466 H 40.9876 -2.39275 3.68299 0
M  V30 467 H 41.5936 -0.795475 4.17795 0
M  V30 468 N 39.9087 -1.5758 0.0250728 0
M  V30 469 C 41.1557 -1.91633 -0.654444 0
M  V30 470 C 41.4837 -0.901103 -1.72367 0
M  V30 471 O 40.7387 0.0905647 -1.9549 0
M  V30 472 C 41.0377 -3.32421 -1.31268 0
M  V30 473 C 40.7037 -4.49344 -0.374223 0
M  V30 474 C 39.3657 -4.8106 -0.115911 0
M  V30 475 C 41.7177 -5.20498 0.270432 0
M  V30 476 C 39.0457 -5.8129 0.79493 0
M  V30 477 C 41.3977 -6.21699 1.1693 0
M  V30 478 C 40.0617 -6.51859 1.43655 0
M  V30 479 H 39.3317 -0.701236 -0.239478 0
M  V30 480 H 41.9787 -1.91307 0.0859734 0
M  V30 481 H 40.2837 -3.28989 -2.12775 0
M  V30 482 H 41.9807 -3.56038 -1.84494 0
M  V30 483 H 38.5707 -4.24579 -0.58573 0
M  V30 484 H 42.7547 -4.96229 0.0839194 0
M  V30 485 H 38.0107 -6.03005 1.00973 0
M  V30 486 H 42.1847 -6.75955 1.67504 0
M  V30 487 H 39.8117 -7.2934 2.144 0
M  V30 488 N 41.3868 0.248026 -1.55636 0
M  V30 489 C 42.3198 1.3334 -1.85191 0
M  V30 490 C 43.2978 1.46429 -0.706906 0
M  V30 491 O 44.4818 1.62662 -0.952544 0
M  V30 492 C 41.6088 2.70703 -2.03562 0
M  V30 493 C 40.6548 2.7477 -3.26196 0
M  V30 494 S 41.4878 2.31493 -4.82878 0
M  V30 495 C 42.6438 3.70783 -5.04253 0
M  V30 496 H 42.8768 1.08072 -2.76962 0
M  V30 497 H 40.4098 0.448952 -1.47729 0
M  V30 498 H 42.3678 3.49798 -2.1483 0
M  V30 499 H 41.0288 2.9321 -1.12635 0
M  V30 500 H 40.2218 3.75648 -3.36013 0
M  V30 501 H 39.8238 2.03719 -3.13647 0
M  V30 502 H 42.1158 4.6627 -4.91527 0
M  V30 503 H 43.0588 3.65901 -6.06236 0
M  V30 504 H 43.4668 3.63244 -4.32105 0
M  V30 505 N 42.8649 1.48995 0.513639 0
M  V30 506 C 44.1129 1.57531 1.26604 0
M  V30 507 C 44.4339 0.258236 1.93283 0
M  V30 508 O 43.7039 -0.721502 1.8213 0
M  V30 509 H 42.2839 0.580387 0.470276 0
M  V30 510 H 44.9459 1.85552 0.596373 0
M  V30 511 H 44.0419 2.36486 2.03669 0
M  V30 512 N 44.343 -0.763751 1.37857 0
M  V30 513 C 45.273 -1.89103 1.36975 0
M  V30 514 C 46.254 -1.68439 0.237152 0
M  V30 515 O 47.439 -1.8918 0.438713 0
M  V30 516 C 44.569 -3.26496 1.18395 0
M  V30 517 C 43.523 -3.61741 2.28751 0
M  V30 518 C 42.849 -4.97762 1.95286 0
M  V30 519 C 44.149 -3.67665 3.70972 0
M  V30 520 H 45.843 -1.90099 2.31307 0
M  V30 521 H 43.389 -0.91319 1.11341 0
M  V30 522 H 45.342 -4.05003 1.16406 0
M  V30 523 H 44.066 -3.25955 0.205215 0
M  V30 524 H 42.725 -2.85547 2.29909 0
M  V30 525 H 42.373 -4.93769 0.959221 0
M  V30 526 H 42.073 -5.22313 2.69189 0
M  V30 527 H 43.597 -5.7866 1.94898 0
M  V30 528 H 45.011 -4.36307 3.719 0
M  V30 529 H 43.408 -4.03718 4.43995 0
M  V30 530 H 44.478 -2.68134 4.0402 0
M  V30 531 N 45.8211 -1.22559 -0.990812 0
M  V30 532 C 46.7311 -1.01394 -2.11557 0
M  V30 533 C 47.7471 0.0383962 -1.73958 0
M  V30 534 O 48.9231 -0.154787 -2.00804 0
M  V30 535 C 45.9881 -0.596569 -3.41529 0
M  V30 536 C 45.0491 -1.72276 -3.93217 0
M  V30 537 C 44.2821 -1.32521 -5.16985 0
M  V30 538 O 44.5051 -0.204909 -5.70032 0
M  V30 539 O 43.4391 -2.14247 -5.62478 0
M  V30 540 H 47.2651 -1.95633 -2.32296 0
M  V30 541 H 44.8501 -1.01172 -1.0993 0
M  V30 542 H 46.7321 -0.374263 -4.19735 0
M  V30 543 H 45.4071 0.316939 -3.22145 0
M  V30 544 H 44.3141 -1.99961 -3.16174 0
M  V30 545 H 45.6471 -2.61421 -4.17037 0
M  V30 546 N 47.2992 1.18797 -1.03562 0
M  V30 547 C 48.2462 2.22253 -0.622259 0
M  V30 548 C 49.2162 1.61987 0.36736 0
M  V30 549 O 50.4012 1.88986 0.262492 0
M  V30 550 C 47.5412 3.45097 0.0138462 0
M  V30 551 C 46.6542 4.19722 -1.02263 0
M  V30 552 C 45.7892 5.30009 -0.355573 0
M  V30 553 C 44.8282 5.96399 -1.37749 0
M  V30 554 N 43.9652 6.98234 -0.735766 0
M  V30 555 H 48.8052 2.56968 -1.50903 0
M  V30 556 H 46.3422 1.26245 -0.755017 0
M  V30 557 H 48.3002 4.15279 0.399948 0
M  V30 558 H 46.9302 3.11018 0.864158 0
M  V30 559 H 45.9822 3.48418 -1.52673 0
M  V30 560 H 47.2942 4.65227 -1.79903 0
M  V30 561 H 46.4482 6.0664 0.0850095 0
M  V30 562 H 45.1872 4.85592 0.452967 0
M  V30 563 H 44.1922 5.18512 -1.82826 0
M  V30 564 H 45.4172 6.42899 -2.18764 0
M  V30 565 H 43.3632 6.55979 0.0525597 0
M  V30 566 H 43.2802 7.41965 -1.44995 0
M  V30 567 H 44.5482 7.78845 -0.31941 0
M  V30 568 N 48.7773 0.814389 1.34928 0
M  V30 569 C 49.7073 0.244827 2.32213 0
M  V30 570 C 50.6883 -0.634024 1.57842 0
M  V30 571 O 51.8733 -0.562676 1.8587 0
M  V30 572 C 49.0033 -0.601106 3.42058 0
M  V30 573 C 47.9573 0.179896 4.27622 0
M  V30 574 C 47.2833 -0.788237 5.28858 0
M  V30 575 C 48.5833 1.38329 5.03649 0
M  V30 576 H 50.2773 1.05763 2.80097 0
M  V30 577 H 47.8233 0.510029 1.34665 0
M  V30 578 H 49.7763 -1.00968 4.09125 0
M  V30 579 H 48.5003 -1.44688 2.92802 0
M  V30 580 H 47.1593 0.569739 3.62146 0
M  V30 581 H 46.8073 -1.62973 4.75866 0
M  V30 582 H 46.5073 -0.269942 5.8698 0
M  V30 583 H 48.0313 -1.19485 5.98795 0
M  V30 584 H 49.4453 1.04918 5.63618 0
M  V30 585 H 47.8423 1.83662 5.71304 0
M  V30 586 H 48.9123 2.16592 4.33839 0
M  V30 587 N 50.2554 -1.46986 0.568584 0
M  V30 588 C 51.2054 -2.27179 -0.193339 0
M  V30 589 C 52.1894 -1.35035 -0.874895 0
M  V30 590 O 53.3814 -1.5931 -0.771322 0
M  V30 591 C 50.5104 -3.21063 -1.21546 0
M  V30 592 C 49.5964 -4.2069 -0.536738 0
M  V30 593 N 49.9874 -5.04218 0.399673 0
M  V30 594 C 48.2854 -4.38961 -0.789254 0
M  V30 595 C 48.9864 -5.76242 0.795017 0
M  V30 596 N 47.9624 -5.434 0.1473 0
M  V30 597 H 51.7644 -2.89146 0.526458 0
M  V30 598 H 49.2784 -1.57664 0.389342 0
M  V30 599 H 51.2754 -3.77209 -1.77536 0
M  V30 600 H 49.9354 -2.60654 -1.93623 0
M  V30 601 H 50.9464 -5.12077 0.774454 0
M  V30 602 H 47.6234 -3.89713 -1.49767 0
M  V30 603 H 49.0134 -6.53417 1.56513 0
M  V30 604 N 51.7335 -0.305618 -1.54608 0
M  V30 605 C 53.1445 0.186098 -1.8577 0
M  V30 606 C 53.4955 1.53058 -1.22751 0
M  V30 607 O 52.6205 2.09888 -0.526893 0
M  V30 608 C 53.2155 0.344449 -3.37044 0
M  V30 609 C 51.7745 0.780384 -3.68221 0
M  V30 610 C 50.9215 -0.108554 -2.77087 0
M  V30 611 H 53.8725 -0.526485 -1.49712 0
M  V30 612 H 53.8935 1.17828 -3.61796 0
M  V30 613 H 53.4055 -0.634235 -3.82883 0
M  V30 614 H 51.5065 1.76945 -3.27904 0
M  V30 615 H 51.6195 0.596572 -4.75371 0
M  V30 616 H 49.9835 0.412931 -2.5133 0
M  V30 617 H 50.7665 -1.08368 -3.25747 0
M  V30 618 N 53.2116 1.57565 -0.0334293 0
M  V30 619 C 54.4586 1.91978 0.644272 0
M  V30 620 C 54.7866 0.910231 1.71887 0
M  V30 621 O 54.0416 -0.0801961 1.95536 0
M  V30 622 C 54.3406 3.33112 1.29504 0
M  V30 623 C 54.0066 4.49537 0.350388 0
M  V30 624 C 52.6686 4.81115 0.0903974 0
M  V30 625 C 55.0206 5.20347 -0.298032 0
M  V30 626 C 52.3486 5.8086 -0.825746 0
M  V30 627 C 54.7006 6.2107 -1.20226 0
M  V30 628 C 53.3646 6.51088 -1.4711 0
M  V30 629 H 52.6346 0.702496 0.235756 0
M  V30 630 H 55.2816 1.91259 -0.0961176 0
M  V30 631 H 53.5866 3.30113 2.11028 0
M  V30 632 H 55.2836 3.57011 1.82603 0
M  V30 633 H 51.8736 4.24883 0.563205 0
M  V30 634 H 56.0576 4.96178 -0.110234 0
M  V30 635 H 51.3136 6.02461 -1.04169 0
M  V30 636 H 55.4876 6.75057 -1.71086 0
M  V30 637 H 53.1146 7.28193 -2.18264 0
M  V30 638 N 54.6897 -0.239769 1.55765 0
M  V30 639 C 55.9667 -0.990056 1.68693 0
M  V30 640 C 56.3467 -2.03107 0.5754 0
M  V30 641 O 55.6947 -2.24604 -0.42017 0
M  V30 642 C 55.9047 -1.61696 3.09282 0
M  V30 643 C 57.2527 -2.11613 3.6811 0
M  V30 644 O 58.2767 -1.71624 3.12127 0
M  V30 645 O 57.1357 -2.85057 4.66267 0
M  V30 646 H 54.2297 -0.461299 0.686391 0
M  V30 647 H 56.7757 -0.232991 1.68093 0
M  V30 648 H 55.5477 -0.864357 3.81634 0
M  V30 649 H 55.1707 -2.44005 3.13923 0
M  V30 650 N 56.1678 -1.49265 -0.50573 0
M  V30 651 C 57.1308 -1.65075 -1.59006 0
M  V30 652 C 58.1308 -0.522768 -1.52065 0
M  V30 653 O 59.3208 -0.789117 -1.55302 0
M  V30 654 C 56.4528 -1.64369 -2.98656 0
M  V30 655 H 57.6458 -2.61784 -1.46319 0
M  V30 656 H 55.1988 -1.38226 -0.729616 0
M  V30 657 H 55.9338 -0.692272 -3.16825 0
M  V30 658 H 55.7188 -2.46282 -3.05103 0
M  V30 659 H 57.2088 -1.78674 -3.77446 0
M  V30 660 N 57.6459 0.756429 -1.3826 0
M  V30 661 C 58.8939 1.51248 -1.34047 0
M  V30 662 C 59.2149 1.94875 0.0698372 0
M  V30 663 O 58.4849 1.67436 1.01696 0
M  V30 664 H 57.0649 0.561018 -0.493222 0
M  V30 665 H 59.7269 0.899347 -1.7291 0
M  V30 666 H 58.8229 2.40472 -1.98947 0
M  V30 667 N 59.124 1.23083 0.984299 0
M  V30 668 C 60.071 1.00854 2.07598 0
M  V30 669 C 61.041 -0.0726709 1.65941 0
M  V30 670 O 62.226 0.0786535 1.90638 0
M  V30 671 C 59.366 0.601645 3.39815 0
M  V30 672 C 58.479 1.75456 3.94765 0
M  V30 673 C 57.614 1.29482 5.15177 0
M  V30 674 C 56.653 2.41873 5.62284 0
M  V30 675 N 55.79 1.96885 6.73929 0
M  V30 676 H 60.63 1.943 2.25946 0
M  V30 677 H 58.167 0.968001 1.10762 0
M  V30 678 H 60.125 0.346854 4.15756 0
M  V30 679 H 58.755 -0.295803 3.21442 0
M  V30 680 H 57.807 2.12346 3.15616 0
M  V30 681 H 59.119 2.59965 4.25699 0
M  V30 682 H 58.273 0.997923 5.98437 0
M  V30 683 H 57.012 0.420046 4.85888 0
M  V30 684 H 56.017 2.72342 4.77608 0
M  V30 685 H 57.242 3.29881 5.93595 0
M  V30 686 H 55.188 1.11782 6.46406 0
M  V30 687 H 55.105 2.74956 7.04227 0
M  V30 688 H 56.373 1.70289 7.60672 0
M  V30 689 N 60.6021 -1.18246 1.0419 0
M  V30 690 C 61.8481 -1.88793 0.75689 0
M  V30 691 C 62.2031 -1.78909 -0.707767 0
M  V30 692 O 61.4961 -1.1794 -1.50999 0
M  V30 693 C 61.6901 -3.38082 1.15911 0
M  V30 694 C 61.5191 -3.62496 2.66133 0
M  V30 695 C 60.2891 -3.7979 3.33298 0
M  V30 696 C 62.4871 -3.62976 3.64353 0
M  V30 697 N 60.4691 -3.91955 4.72487 0
M  V30 698 C 61.8401 -3.80869 4.89222 0
M  V30 699 C 63.8951 -3.46071 3.57965 0
M  V30 700 C 62.5981 -3.83608 6.08471 0
M  V30 701 C 64.6241 -3.50093 4.76643 0
M  V30 702 C 63.9861 -3.68484 6.00332 0
M  V30 703 H 60.0851 -0.709406 0.32904 0
M  V30 704 H 62.6691 -1.42022 1.33183 0
M  V30 705 H 60.8401 -3.83544 0.612238 0
M  V30 706 H 62.5721 -3.96202 0.824989 0
M  V30 707 H 59.3271 -3.79224 2.83701 0
M  V30 708 H 59.7511 -4.01857 5.44831 0
M  V30 709 H 64.3931 -3.30797 2.63311 0
M  V30 710 H 62.1111 -3.97669 7.0348 0
M  V30 711 H 65.6971 -3.38285 4.73344 0
M  V30 712 H 64.5771 -3.71488 6.90627 0
M  V30 713 N 62.0802 -0.821533 -1.34494 0
M  V30 714 C 63.3282 -0.408139 -1.97936 0
M  V30 715 C 63.6492 1.03193 -1.65457 0
M  V30 716 O 62.9192 1.71622 -0.944595 0
M  V30 717 H 61.4992 -0.147928 -0.732206 0
M  V30 718 H 64.1612 -1.05067 -1.64155 0
M  V30 719 H 63.2572 -0.52601 -3.07635 0
M  V30 720 N 63.5583 1.46682 -0.576371 0
M  V30 721 C 64.5053 2.30241 0.160499 0
M  V30 722 C 65.4753 1.40233 0.890162 0
M  V30 723 O 66.6603 1.69186 0.882084 0
M  V30 724 C 63.8003 3.24578 1.1723 0
M  V30 725 C 62.9133 4.29684 0.446736 0
M  V30 726 C 62.0483 5.11154 1.44551 0
M  V30 727 C 61.0873 6.08015 0.70599 0
M  V30 728 N 60.2243 6.82376 1.65251 0
M  V30 729 H 65.0643 2.92727 -0.558127 0
M  V30 730 H 62.6013 1.44272 -0.287056 0
M  V30 731 H 64.5593 3.77711 1.77172 0
M  V30 732 H 63.1893 2.63916 1.85872 0
M  V30 733 H 62.2413 3.79458 -0.267594 0
M  V30 734 H 63.5533 4.98626 -0.131686 0
M  V30 735 H 62.7073 5.68533 2.11791 0
M  V30 736 H 61.4463 4.42158 2.05786 0
M  V30 737 H 60.4513 5.49796 0.0197725 0
M  V30 738 H 61.6763 6.79028 0.09912 0
M  V30 739 H 59.6223 6.16094 2.25308 0
M  V30 740 H 59.5393 7.47556 1.12673 0
M  V30 741 H 60.8073 7.44316 2.31546 0
M  V30 742 N 65.0364 0.313813 1.54444 0
M  V30 743 C 66.2824 -0.292108 2.00685 0
M  V30 744 C 66.6154 -1.52548 1.20177 0
M  V30 745 O 65.8904 -1.92452 0.281531 0
M  V30 746 C 66.1734 -0.635968 3.5444 0
M  V30 747 C 66.0264 0.607437 4.4568 0
M  V30 748 C 67.3454 -1.45747 4.15266 0
M  V30 749 H 64.4644 -0.104697 0.729526 0
M  V30 750 H 67.1064 0.428457 1.85106 0
M  V30 751 H 65.2564 -1.24986 3.67846 0
M  V30 752 H 66.9284 1.24581 4.44159 0
M  V30 753 H 65.1714 1.23822 4.15753 0
M  V30 754 H 65.8424 0.322515 5.51057 0
M  V30 755 H 68.3184 -0.938645 4.05375 0
M  V30 756 H 67.1944 -1.66683 5.2298 0
M  V30 757 H 67.4554 -2.45063 3.67963 0
M  V30 758 N 66.5145 -1.57545 0.0417849 0
M  V30 759 C 67.7635 -1.91494 -0.633492 0
M  V30 760 C 68.0765 -0.921084 -1.72556 0
M  V30 761 O 69.2825 -1.15228 -2.45835 0
M  V30 762 C 67.7385 -3.40072 -1.17808 0
M  V30 763 C 67.3465 -4.47843 -0.118633 0
M  V30 764 C 69.0905 -3.8307 -1.82915 0
M  V30 765 C 66.9975 -5.87529 -0.675578 0
M  V30 766 H 65.9275 -0.714653 -0.24039 0
M  V30 767 H 68.5785 -1.83175 0.109148 0
M  V30 768 H 66.9605 -3.43364 -1.97274 0
M  V30 769 H 68.1345 -4.56128 0.654494 0
M  V30 770 H 66.4495 -4.14128 0.434414 0
M  V30 771 H 69.0465 -4.84794 -2.25563 0
M  V30 772 H 69.3895 -3.1881 -2.67705 0
M  V30 773 H 69.9225 -3.82255 -1.10119 0
M  V30 774 H 66.6615 -6.55362 0.134475 0
M  V30 775 H 66.1815 -5.82824 -1.4169 0
M  V30 776 H 67.8605 -6.36491 -1.1614 0
M  V30 777 N 67.9926 0.231505 -1.5589 0
M  V30 778 C 68.9406 1.30649 -1.92441 0
M  V30 779 C 69.9346 1.49037 -0.805254 0
M  V30 780 O 71.1406 1.50329 -0.990007 0
M  V30 781 H 67.5156 0.437812 -0.611412 0
M  V30 782 H 69.4866 0.970973 -2.82161 0
M  V30 783 C 68.2356 2.65179 -2.24889 0
M  V30 784 H 67.5586 2.51835 -3.10514 0
M  V30 785 H 68.9986 3.39234 -2.54355 0
M  V30 786 C 67.4576 3.19439 -1.07054 0
M  V30 787 O 67.9876 4.00371 -0.326499 0
M  V30 788 N 66.1936 2.77675 -0.85703 0
M  V30 789 H 65.7406 2.11969 -1.46379 0
M  V30 790 H 65.6986 3.14321 -0.0703223 0
M  V30 791 N 69.4707 1.49531 0.497807 0
M  V30 792 C 70.7177 1.59179 1.25173 0
M  V30 793 C 71.0457 0.279932 1.92475 0
M  V30 794 O 70.3007 -0.732383 1.81479 0
M  V30 795 C 70.5997 2.70252 2.33878 0
M  V30 796 C 70.2657 4.11644 1.84012 0
M  V30 797 C 68.9277 4.50121 1.70132 0
M  V30 798 C 71.2797 5.00121 1.46725 0
M  V30 799 C 68.6077 5.74845 1.17348 0
M  V30 800 C 70.9597 6.25366 0.95392 0
M  V30 801 C 69.6237 6.6267 0.801538 0
M  V30 802 H 68.8937 0.582478 0.45804 0
M  V30 803 H 71.5407 1.83373 0.551948 0
M  V30 804 H 69.8457 2.40041 3.09657 0
M  V30 805 H 71.5427 2.74925 2.9192 0
M  V30 806 H 68.1327 3.81274 1.95775 0
M  V30 807 H 72.3167 4.71048 1.56294 0
M  V30 808 H 67.5727 6.02444 1.04264 0
M  V30 809 H 71.7467 6.93301 0.656225 0
M  V30 810 H 69.3737 7.59197 0.390351 0
M  V30 811 N 70.9488 -0.749086 1.3866 0
M  V30 812 C 71.8788 -1.8764 1.38973 0
M  V30 813 C 72.8598 -1.68178 0.255004 0
M  V30 814 O 74.0448 -1.88704 0.458754 0
M  V30 815 C 71.1748 -3.25222 1.21851 0
M  V30 816 C 70.1288 -3.59295 2.32575 0
M  V30 817 C 69.4548 -4.95663 2.00555 0
M  V30 818 C 70.7548 -3.63709 3.7485 0
M  V30 819 H 72.4488 -1.87635 2.3331 0
M  V30 820 H 69.9948 -0.901329 1.12303 0
M  V30 821 H 71.9478 -4.03746 1.20695 0
M  V30 822 H 70.6718 -3.25719 0.239775 0
M  V30 823 H 69.3308 -2.83093 2.32925 0
M  V30 824 H 68.9788 -4.92724 1.01154 0
M  V30 825 H 68.6788 -5.19429 2.74714 0
M  V30 826 H 70.2028 -5.7656 2.01024 0
M  V30 827 H 71.6168 -4.32338 3.76506 0
M  V30 828 H 70.0138 -3.98986 4.48252 0
M  V30 829 H 71.0838 -2.63834 4.06841 0
M  V30 830 N 72.4269 -1.23603 -0.977757 0
M  V30 831 C 73.3739 -1.01954 -2.07061 0
M  V30 832 C 74.3439 0.0638697 -1.65977 0
M  V30 833 O 75.5289 -0.0887624 -1.90593 0
M  V30 834 C 72.6689 -0.619658 -3.39491 0
M  V30 835 C 71.7819 -1.77547 -3.93829 0
M  V30 836 C 70.9169 -1.32212 -5.14484 0
M  V30 837 C 69.9559 -2.44852 -5.60994 0
M  V30 838 N 69.0929 -2.00456 -6.72876 0
M  V30 839 H 73.9329 -1.95495 -2.24913 0
M  V30 840 H 71.4699 -0.973861 -1.10247 0
M  V30 841 H 73.4279 -0.368898 -4.15566 0
M  V30 842 H 72.0579 0.278752 -3.21594 0
M  V30 843 H 71.1099 -2.14016 -3.14486 0
M  V30 844 H 72.4219 -2.62219 -4.24314 0
M  V30 845 H 71.5759 -1.02965 -5.97899 0
M  V30 846 H 70.3149 -0.445808 -4.85658 0
M  V30 847 H 69.3199 -2.74871 -4.76157 0
M  V30 848 H 70.5449 -3.33024 -5.91837 0
M  V30 849 H 68.4909 -1.15208 -6.45804 0
M  V30 850 H 68.4079 -2.78687 -7.02759 0
M  V30 851 H 69.6759 -1.7432 -7.59758 0
M  V30 852 N 73.905 1.17692 -1.04816 0
M  V30 853 C 74.815 2.25229 -0.65643 0
M  V30 854 C 75.831 1.71018 0.320761 0
M  V30 855 O 77.007 2.00649 0.173805 0
M  V30 856 C 74.072 3.46684 -0.0332629 0
M  V30 857 C 73.133 4.15997 -1.06042 0
M  V30 858 C 72.366 5.31654 -0.466893 0
M  V30 859 O 72.589 5.65777 0.724758 0
M  V30 860 O 71.523 5.89831 -1.1993 0
M  V30 861 H 75.349 2.61016 -1.55255 0
M  V30 862 H 72.934 1.24919 -0.81949 0
M  V30 863 H 74.816 4.20234 0.313256 0
M  V30 864 H 73.491 3.12703 0.836566 0
M  V30 865 H 72.398 3.44482 -1.45886 0
M  V30 866 H 73.731 4.53996 -1.90127 0
M  V30 867 N 75.3831 0.828654 1.34056 0
M  V30 868 C 76.2931 0.256725 2.33191 0
M  V30 869 C 77.3091 -0.611898 1.62886 0
M  V30 870 O 78.4851 -0.51844 1.94613 0
M  V30 871 C 75.5501 -0.567238 3.42028 0
M  V30 872 C 74.6111 0.324458 4.28072 0
M  V30 873 C 73.8441 -0.460274 5.31712 0
M  V30 874 O 74.0671 -1.693 5.44696 0
M  V30 875 O 73.0011 0.160391 6.01686 0
M  V30 876 H 76.8271 1.07739 2.83947 0
M  V30 877 H 74.4121 0.59093 1.37217 0
M  V30 878 H 76.2941 -1.03582 4.08471 0
M  V30 879 H 74.9691 -1.36513 2.93506 0
M  V30 880 H 73.8761 0.840659 3.64532 0
M  V30 881 H 75.2091 1.08685 4.8005 0
M  V30 882 N 76.8612 -1.46375 0.584142 0
M  V30 883 C 77.8082 -2.30323 -0.148286 0
M  V30 884 C 78.7782 -1.40703 -0.882713 0
M  V30 885 O 79.9632 -1.69651 -0.873099 0
M  V30 886 C 77.1032 -3.25196 -1.15507 0
M  V30 887 C 76.2162 -4.29915 -0.423943 0
M  V30 888 C 75.3512 -5.11914 -1.41838 0
M  V30 889 C 74.3902 -6.08381 -0.673736 0
M  V30 890 N 73.5272 -6.83242 -1.6163 0
M  V30 891 H 78.3672 -2.92427 0.573644 0
M  V30 892 H 75.9042 -1.44118 0.294703 0
M  V30 893 H 77.8622 -3.78646 -1.75166 0
M  V30 894 H 76.4922 -2.64898 -1.8447 0
M  V30 895 H 75.5442 -3.7931 0.287714 0
M  V30 896 H 76.8562 -4.98549 0.158128 0
M  V30 897 H 76.0102 -5.69648 -2.08773 0
M  V30 898 H 74.7492 -4.43243 -2.03438 0
M  V30 899 H 73.7542 -5.49799 0.00938483 0
M  V30 900 H 74.9792 -6.79071 -0.0631082 0
M  V30 901 H 72.9252 -6.1728 -2.22038 0
M  V30 902 H 72.8422 -7.48144 -1.08707 0
M  V30 903 H 74.1102 -7.45534 -2.27596 0
M  V30 904 N 78.3393 -0.321999 -1.54275 0
M  V30 905 C 79.2693 0.537411 -2.27231 0
M  V30 906 C 80.2503 1.12064 -1.27968 0
M  V30 907 O 81.4353 1.14606 -1.56777 0
M  V30 908 C 78.5653 1.69919 -3.02894 0
M  V30 909 C 77.5193 1.24534 -4.09482 0
M  V30 910 C 76.8453 2.49394 -4.72977 0
M  V30 911 C 78.1453 0.361335 -5.21049 0
M  V30 912 H 79.8393 -0.0711406 -2.99315 0
M  V30 913 H 77.3853 -0.0356555 -1.43956 0
M  V30 914 H 79.3383 2.30668 -3.52662 0
M  V30 915 H 78.0623 2.33431 -2.28424 0
M  V30 916 H 76.7213 0.660782 -3.60596 0
M  V30 917 H 76.3693 3.11265 -3.95124 0
M  V30 918 H 76.0693 2.19718 -5.44975 0
M  V30 919 H 77.5933 3.10908 -5.25517 0
M  V30 920 H 79.0073 0.875072 -5.66582 0
M  V30 921 H 77.4043 0.157428 -5.99893 0
M  V30 922 H 78.4743 -0.60822 -4.8107 0
M  V30 923 N 79.8174 1.5752 -0.0501392 0
M  V30 924 C 80.7474 2.14502 0.922566 0
M  V30 925 C 81.7284 1.06642 1.3252 0
M  V30 926 O 82.9134 1.34577 1.4001 0
M  V30 927 C 80.0434 2.68916 2.19776 0
M  V30 928 C 78.9974 3.8175 1.93523 0
M  V30 929 C 78.3234 4.22677 3.27487 0
M  V30 930 C 79.6234 5.06932 1.25765 0
M  V30 931 H 81.3174 2.9603 0.447952 0
M  V30 932 H 78.8634 1.42401 0.214024 0
M  V30 933 H 80.8164 3.07419 2.88222 0
M  V30 934 H 79.5404 1.84578 2.69441 0
M  V30 935 H 78.1994 3.43718 1.27489 0
M  V30 936 H 77.8474 3.35291 3.74952 0
M  V30 937 H 77.5474 4.98725 3.1072 0
M  V30 938 H 79.0714 4.63779 3.97166 0
M  V30 939 H 80.4854 5.42888 1.84244 0
M  V30 940 H 78.8824 5.88116 1.19328 0
M  V30 941 H 79.9524 4.84337 0.233536 0
M  V30 942 N 81.2955 -0.223234 1.56011 0
M  V30 943 C 82.5205 -0.968978 1.83373 0
M  V30 944 C 82.9455 -1.77227 0.630254 0
M  V30 945 O 82.3035 -1.76345 -0.420959 0
M  V30 946 C 82.3515 -1.86363 3.08709 0
M  V30 947 O 81.4555 -2.95873 2.87285 0
M  V30 948 H 80.7965 -0.274461 0.604622 0
M  V30 949 H 83.3265 -0.237056 2.03222 0
M  V30 950 H 83.3365 -2.27376 3.38768 0
M  V30 951 H 82.0115 -1.27319 3.95933 0
M  V30 952 H 80.5885 -2.58818 2.68454 0
M  V30 953 N 82.7736 -1.49793 -0.48987 0
M  V30 954 C 84.0506 -1.50348 -1.25119 0
M  V30 955 C 84.4306 -0.237466 -2.0976 0
M  V30 956 O 83.7786 0.77981 -2.14782 0
M  V30 957 C 83.9886 -2.78872 -2.09837 0
M  V30 958 C 85.3366 -3.288 -2.68655 0
M  V30 959 O 86.3606 -2.80065 -2.20096 0
M  V30 960 O 85.2196 -4.13707 -3.57083 0
M  V30 961 H 82.3136 -0.602242 -0.566775 0
M  V30 962 H 84.8596 -1.62067 -0.503229 0
M  V30 963 H 83.6316 -3.62499 -1.47343 0
M  V30 964 H 83.2546 -2.70066 -2.91805 0
M  V30 965 N 84.2517 0.741722 -1.39055 0
M  V30 966 C 85.4767 1.53607 -1.39354 0
M  V30 967 C 85.9017 1.88096 0.0116905 0
M  V30 968 O 85.2597 1.5143 0.996924 0
M  V30 969 C 85.3077 2.80441 -2.26682 0
M  V30 970 O 84.4117 3.76088 -1.69208 0
M  V30 971 H 83.7527 0.464142 -0.474835 0
M  V30 972 H 86.2827 0.915665 -1.82967 0
M  V30 973 H 86.2927 3.29246 -2.40959 0
M  V30 974 H 84.9677 2.5467 -3.2881 0
M  V30 975 H 83.5447 3.34833 -1.64138 0
M  V30 976 N 85.7298 1.2412 0.971189 0
M  V30 977 C 86.6628 0.97373 2.06382 0
M  V30 978 C 87.6408 -0.0912662 1.62344 0
M  V30 979 O 88.8248 0.0449365 1.88446 0
M  V30 980 C 85.9518 0.468746 3.35441 0
M  V30 981 C 84.9978 1.52176 3.98428 0
M  V30 982 S 85.8308 3.10203 4.36503 0
M  V30 983 C 86.9868 2.61398 5.68702 0
M  V30 984 H 87.2198 1.89893 2.28753 0
M  V30 985 H 84.7528 1.07466 1.10862 0
M  V30 986 H 86.7108 0.184012 4.10087 0
M  V30 987 H 85.3718 -0.435688 3.11064 0
M  V30 988 H 84.5648 1.11876 4.91426 0
M  V30 989 H 84.1668 1.75632 3.30196 0
M  V30 990 H 86.4588 2.03992 6.4606 0
M  V30 991 H 87.4018 3.52972 6.13854 0
M  V30 992 H 87.8098 2.01941 5.27143 0
M  V30 993 N 87.2079 -1.17134 1.05439 0
M  V30 994 C 88.1379 -2.2342 0.678649 0
M  V30 995 C 89.1189 -1.66971 -0.32476 0
M  V30 996 O 90.3039 -1.93149 -0.201802 0
M  V30 997 C 87.4339 -3.47256 0.0552099 0
M  V30 998 C 86.3879 -4.16543 0.98365 0
M  V30 999 C 85.7139 -5.34231 0.223961 0
M  V30 1000 C 87.0139 -4.68495 2.3089 0
M  V30 1001 H 88.7079 -2.55105 1.56722 0
M  V30 1002 H 86.2539 -1.2262 0.754998 0
M  V30 1003 H 88.2069 -4.20828 -0.21946 0
M  V30 1004 H 86.9309 -3.14846 -0.868319 0
M  V30 1005 H 85.5899 -3.44887 1.24293 0
M  V30 1006 H 85.2379 -4.98071 -0.702412 0
M  V30 1007 H 84.9379 -5.81527 0.842627 0
M  V30 1008 H 86.4619 -6.10585 -0.0433671 0
M  V30 1009 H 87.8759 -5.33691 2.09396 0
M  V30 1010 H 86.2729 -5.26379 2.88176 0
M  V30 1011 H 87.3429 -3.85169 2.94572 0
M  V30 1012 N 88.686 -0.835752 -1.33615 0
M  V30 1013 C 89.932 -0.430596 -1.98176 0
M  V30 1014 C 90.265 1.00684 -1.66061 0
M  V30 1015 O 89.54 1.70339 -0.938877 0
M  V30 1016 C 89.823 -0.648065 -3.5422 0
M  V30 1017 C 89.676 -2.13255 -3.96033 0
M  V30 1018 C 90.995 -0.0922113 -4.40003 0
M  V30 1019 H 88.114 -0.157924 -0.719881 0
M  V30 1020 H 90.756 -1.05069 -1.58305 0
M  V30 1021 H 88.906 -0.120237 -3.88314 0
M  V30 1022 H 90.578 -2.725 -3.72211 0
M  V30 1023 H 88.821 -2.61823 -3.45878 0
M  V30 1024 H 89.492 -2.23547 -5.04708 0
M  V30 1025 H 91.968 -0.543343 -4.12537 0
M  V30 1026 H 90.844 -0.274083 -5.48215 0
M  V30 1027 H 91.105 1.00378 -4.30554 0
M  V30 1028 N 90.1641 1.46063 -0.591896 0
M  V30 1029 C 91.0741 2.34192 0.13831 0
M  V30 1030 C 92.0901 1.50305 0.876608 0
M  V30 1031 O 93.2661 1.8315 0.837728 0
M  V30 1032 C 90.3311 3.27656 1.13326 0
M  V30 1033 C 89.3921 4.27445 0.39863 0
M  V30 1034 C 88.6251 5.16443 1.34618 0
M  V30 1035 O 88.8481 5.08553 2.58321 0
M  V30 1036 O 87.7821 5.95843 0.851768 0
M  V30 1037 H 91.6081 2.98002 -0.58552 0
M  V30 1038 H 89.1931 1.45188 -0.352239 0
M  V30 1039 H 91.0751 3.85291 1.70671 0
M  V30 1040 H 89.7501 2.6643 1.83839 0
M  V30 1041 H 88.6571 3.73471 -0.216895 0
M  V30 1042 H 89.9901 4.91482 -0.265709 0
M  V30 1043 N 91.6422 0.330177 1.54103 0
M  V30 1044 C 92.6052 -0.520144 2.2322 0
M  V30 1045 C 93.6052 -1.03828 1.22786 0
M  V30 1046 O 94.7952 -0.929652 1.4732 0
M  V30 1047 C 91.9272 -1.72317 2.94142 0
M  V30 1048 H 93.1202 0.0841605 2.99782 0
M  V30 1049 H 90.6732 0.0813433 1.56088 0
M  V30 1050 H 91.4082 -2.36653 2.21734 0
M  V30 1051 H 91.1932 -1.35898 3.67796 0
M  V30 1052 H 92.6832 -2.3266 3.46784 0
M  V30 1053 N 93.1203 -1.57491 0.0584922 0
M  V30 1054 C 94.5363 -1.56792 -0.298091 0
M  V30 1055 C 94.7363 -1.06679 -1.70944 0
M  V30 1056 O 93.7923 -0.726672 -2.41818 0
M  V30 1057 C 95.1053 -3.00461 -0.119879 0
M  V30 1058 C 96.6533 -3.1242 -0.190428 0
M  V30 1059 C 97.1283 -4.57982 -0.0406567 0
M  V30 1060 N 98.6193 -4.63099 -0.0966958 0
M  V30 1061 C 99.3543 -5.734 -0.00502943 0
M  V30 1062 N 98.8503 -6.9266 0.139402 0
M  V30 1063 N 100.643 -5.62067 -0.0611391 0
M  V30 1064 H 92.7943 -1.88386 0.98105 0
M  V30 1065 H 95.0573 -0.867865 0.381463 0
M  V30 1066 H 94.7633 -3.41187 0.85349 0
M  V30 1067 H 94.6373 -3.66843 -0.877833 0
M  V30 1068 H 97.0243 -2.71589 -1.15427 0
M  V30 1069 H 97.1053 -2.48702 0.598405 0
M  V30 1070 H 96.7493 -4.995 0.919897 0
M  V30 1071 H 96.6793 -5.19715 -0.848727 0
M  V30 1072 H 99.1703 -3.77331 -0.207277 0
M  V30 1073 H 99.4833 -7.72536 0.201855 0
M  V30 1074 H 97.8283 -6.94781 0.174586 0
M  V30 1075 H 101.019 -4.67782 -0.172583 0
M  V30 1076 H 101.192 -6.47999 0.0137562 0
M  V30 1077 N 94.5984 0.214957 -1.56127 0
M  V30 1078 C 95.5084 1.28727 -1.96129 0
M  V30 1079 C 96.5244 1.50916 -0.866044 0
M  V30 1080 O 97.7004 1.63918 -1.17016 0
M  V30 1081 C 94.7654 2.61569 -2.27558 0
M  V30 1082 C 93.8264 2.47625 -3.50685 0
M  V30 1083 C 93.0594 3.74132 -3.80606 0
M  V30 1084 O 93.2824 4.77438 -3.12104 0
M  V30 1085 O 92.2164 3.70849 -4.74083 0
M  V30 1086 H 96.0424 0.977855 -2.87527 0
M  V30 1087 H 93.6274 0.418358 -1.43423 0
M  V30 1088 H 95.5094 3.40012 -2.48938 0
M  V30 1089 H 94.1844 2.92178 -1.39332 0
M  V30 1090 H 93.0914 1.67361 -3.34576 0
M  V30 1091 H 94.4244 2.21954 -4.39315 0
M  V30 1092 N 96.0765 1.50051 0.48192 0
M  V30 1093 C 97.0395 1.67584 1.5636 0
M  V30 1094 C 98.0395 0.546894 1.51214 0
M  V30 1095 O 99.2295 0.813725 1.54026 0
M  V30 1096 C 96.3615 1.691 2.96003 0
M  V30 1097 H 97.5545 2.64078 1.42136 0
M  V30 1098 H 95.1075 1.39369 0.707533 0
M  V30 1099 H 95.8425 0.742589 3.15684 0
M  V30 1100 H 95.6275 2.51105 3.01146 0
M  V30 1101 H 97.1175 1.84656 3.74556 0
M  V30 1102 N 97.5546 -0.734337 1.39446 0
M  V30 1103 C 98.7796 -1.52866 1.40167 0
M  V30 1104 C 99.2046 -1.881 -0.00171513 0
M  V30 1105 O 98.5626 -1.51957 -0.988879 0
M  V30 1106 C 98.6106 -2.79235 2.28167 0
M  V30 1107 O 97.7146 -3.75185 1.71201 0
M  V30 1108 H 97.0556 -0.461618 0.477289 0
M  V30 1109 H 99.5856 -0.905949 1.8345 0
M  V30 1110 H 99.5956 -3.27963 2.42702 0
M  V30 1111 H 98.2706 -2.52923 3.30156 0
M  V30 1112 H 96.8476 -3.33958 1.65912 0
M  V30 1113 N 99.0327 -1.24633 -0.964593 0
M  V30 1114 C 99.9427 -1.05859 -2.09359 0
M  V30 1115 C 100.959 0.00148855 -1.74 0
M  V30 1116 O 102.135 -0.197346 -2.00431 0
M  V30 1117 C 99.1997 -0.668879 -3.40187 0
M  V30 1118 C 98.2607 -1.80578 -3.89474 0
M  V30 1119 C 97.4937 -1.43457 -5.14058 0
M  V30 1120 O 97.7167 -0.325775 -5.69469 0
M  V30 1121 O 96.6507 -2.2613 -5.57807 0
M  V30 1122 H 100.477 -2.00516 -2.28094 0
M  V30 1123 H 98.0617 -1.03481 -1.0776 0
M  V30 1124 H 99.9437 -0.463211 -4.18846 0
M  V30 1125 H 98.6187 0.248536 -3.22744 0
M  V30 1126 H 97.5257 -2.06623 -3.11862 0
M  V30 1127 H 98.8587 -2.70208 -4.11398 0
M  V30 1128 N 100.511 1.16574 -1.06058 0
M  V30 1129 C 101.421 2.2452 -0.680282 0
M  V30 1130 C 102.437 1.71348 0.302604 0
M  V30 1131 O 103.613 2.00822 0.152513 0
M  V30 1132 C 100.678 3.46629 -0.0700315 0
M  V30 1133 C 99.7388 4.14849 -1.10448 0
M  V30 1134 C 98.9718 5.31129 -0.523256 0
M  V30 1135 O 99.1948 5.66514 0.664709 0
M  V30 1136 O 98.1288 5.88526 -1.26179 0
M  V30 1137 H 101.955 2.59355 -1.58015 0
M  V30 1138 H 99.5398 1.24043 -0.832694 0
M  V30 1139 H 101.422 4.20543 0.268667 0
M  V30 1140 H 100.097 3.13573 0.803353 0
M  V30 1141 H 99.0038 3.42916 -1.49532 0
M  V30 1142 H 100.337 4.51954 -1.94931 0
M  V30 1143 N 101.989 0.842826 1.3317 0
M  V30 1144 C 103.266 0.362216 1.92217 0
M  V30 1145 C 103.646 -1.15289 1.76838 0
M  V30 1146 O 102.994 -1.96914 1.15919 0
M  V30 1147 C 103.204 0.813495 3.39387 0
M  V30 1148 C 104.552 0.823804 4.16532 0
M  V30 1149 O 105.576 0.757358 3.48055 0
M  V30 1150 O 104.435 0.915193 5.38782 0
M  V30 1151 H 101.529 0.103317 0.820521 0
M  V30 1152 H 104.075 0.928942 1.42017 0
M  V30 1153 H 102.847 1.85624 3.4447 0
M  V30 1154 H 102.47 0.223561 3.96971 0
M  V30 1155 N 103.467 -1.45747 0.599634 0
M  V30 1156 C 104.397 -2.33235 -0.111306 0
M  V30 1157 C 105.378 -1.46359 -0.866781 0
M  V30 1158 O 106.563 -1.75146 -0.838904 0
M  V30 1159 C 103.693 -3.28932 -1.11451 0
M  V30 1160 C 102.647 -4.25381 -0.472772 0
M  V30 1161 C 101.973 -5.1071 -1.58365 0
M  V30 1162 C 103.273 -5.18831 0.600948 0
M  V30 1163 H 104.967 -2.92927 0.61919 0
M  V30 1164 H 102.513 -1.40857 0.299215 0
M  V30 1165 H 104.466 -3.89002 -1.62036 0
M  V30 1166 H 103.19 -2.67381 -1.8755 0
M  V30 1167 H 101.849 -3.66598 0.0121472 0
M  V30 1168 H 101.497 -4.45533 -2.33473 0
M  V30 1169 H 101.197 -5.7604 -1.15982 0
M  V30 1170 H 102.721 -5.73647 -2.09194 0
M  V30 1171 H 104.135 -5.73019 0.179491 0
M  V30 1172 H 102.532 -5.92595 0.946076 0
M  V30 1173 H 103.602 -4.6174 1.48068 0
M  V30 1174 N 104.945 -0.338344 -1.53925 0
M  V30 1175 C 105.875 0.51328 -2.27789 0
M  V30 1176 C 106.856 1.107 -1.29149 0
M  V30 1177 O 108.041 1.12937 -1.57984 0
M  V30 1178 C 105.171 1.66697 -3.04679 0
M  V30 1179 C 104.125 1.20183 -4.1078 0
M  V30 1180 C 103.451 2.44363 -4.75595 0
M  V30 1181 C 104.751 0.30605 -5.21403 0
M  V30 1182 H 106.445 -0.102883 -2.99223 0
M  V30 1183 H 103.991 -0.0509219 -1.4391 0
M  V30 1184 H 105.944 2.26915 -3.55088 0
M  V30 1185 H 104.668 2.30995 -2.30887 0
M  V30 1186 H 103.327 0.622499 -3.61276 0
M  V30 1187 H 102.975 3.07057 -3.98403 0
M  V30 1188 H 102.675 2.13925 -5.47275 0
M  V30 1189 H 104.199 3.05317 -5.28786 0
M  V30 1190 H 105.613 0.814929 -5.67478 0
M  V30 1191 H 104.01 0.0937929 -6.00027 0
M  V30 1192 H 105.08 -0.65921 -4.80398 0
M  V30 1193 N 106.423 1.57458 -0.0668435 0
M  V30 1194 C 107.669 1.93587 0.6043 0
M  V30 1195 C 108.002 0.946722 1.69561 0
M  V30 1196 O 107.277 -0.0248516 1.94484 0
M  V30 1197 C 107.56 3.40014 1.18585 0
M  V30 1198 C 107.413 4.49685 0.101529 0
M  V30 1199 C 108.732 3.87154 2.09284 0
M  V30 1200 H 105.851 0.703958 0.218202 0
M  V30 1201 H 108.493 1.89542 -0.131804 0
M  V30 1202 H 106.643 3.43592 1.81319 0
M  V30 1203 H 108.315 4.5823 -0.531279 0
M  V30 1204 H 106.558 4.30059 -0.568487 0
M  V30 1205 H 107.229 5.49266 0.54874 0
M  V30 1206 H 109.705 3.85551 1.56491 0
M  V30 1207 H 108.581 4.90231 2.46911 0
M  V30 1208 H 108.842 3.2481 2.99918 0
M  V30 1209 N 107.901 -0.206675 1.56239 0
M  V30 1210 C 109.147 -0.930218 1.80208 0
M  V30 1211 C 109.48 -1.83387 0.638981 0
M  V30 1212 O 108.755 -1.91119 -0.361066 0
M  V30 1213 C 109.038 -1.75641 3.1436 0
M  V30 1214 C 108.891 -0.878257 4.41142 0
M  V30 1215 C 110.21 -2.73129 3.45092 0
M  V30 1216 H 107.329 -0.336742 0.655571 0
M  V30 1217 H 109.971 -0.198222 1.88963 0
M  V30 1218 H 108.121 -2.38048 3.07027 0
M  V30 1219 H 109.793 -0.269787 4.6051 0
M  V30 1220 H 108.036 -0.184385 4.33408 0
M  V30 1221 H 108.707 -1.49106 5.3148 0
M  V30 1222 H 111.183 -2.20856 3.52649 0
M  V30 1223 H 110.059 -3.28028 4.40101 0
M  V30 1224 H 110.32 -3.51606 2.68003 0
M  V30 1225 N 109.379 -1.50304 -0.473955 0
M  V30 1226 C 110.329 -1.65347 -1.56985 0
M  V30 1227 C 111.313 -0.508176 -1.52664 0
M  V30 1228 O 112.505 -0.762446 -1.59737 0
M  V30 1229 C 109.634 -1.74832 -2.95447 0
M  V30 1230 C 108.72 -2.95028 -3.04662 0
M  V30 1231 N 109.111 -4.18747 -2.83698 0
M  V30 1232 C 107.409 -2.93527 -3.35795 0
M  V30 1233 C 108.11 -4.99687 -2.97805 0
M  V30 1234 N 107.086 -4.33585 -3.2788 0
M  V30 1235 H 110.888 -2.58698 -1.39472 0
M  V30 1236 H 108.402 -1.47449 -0.680629 0
M  V30 1237 H 110.399 -1.83712 -3.7424 0
M  V30 1238 H 109.059 -0.826376 -3.14008 0
M  V30 1239 H 110.07 -4.48291 -2.59337 0
M  V30 1240 H 106.747 -2.10821 -3.60362 0
M  V30 1241 H 108.137 -6.08057 -2.85861 0
M  V30 1242 N 110.857 0.726932 -1.39834 0
M  V30 1243 C 112.085 1.51613 -1.40787 0
M  V30 1244 C 112.5 1.88799 -0.00451505 0
M  V30 1245 O 111.857 1.54662 0.968809 0
M  V30 1246 C 111.908 2.79863 -2.28821 0
M  V30 1247 O 111.629 2.44253 -3.63692 0
M  V30 1248 C 113.13 3.73837 -2.38245 0
M  V30 1249 H 110.35 0.468264 -0.480593 0
M  V30 1250 H 112.894 0.897607 -1.83748 0
M  V30 1251 H 111.049 3.38027 -1.89252 0
M  V30 1252 H 111.463 3.26695 -4.1033 0
M  V30 1253 H 112.937 4.60699 -3.04073 0
M  V30 1254 H 113.414 4.16153 -1.40403 0
M  V30 1255 H 114.02 3.21589 -2.78317 0
M  V30 1256 N 112.336 1.25143 0.95797 0
M  V30 1257 C 113.752 1.01892 1.22842 0
M  V30 1258 C 113.952 -0.266311 1.99732 0
M  V30 1259 O 113.008 -0.979913 2.3271 0
M  V30 1260 C 114.321 2.24004 2.00606 0
M  V30 1261 C 115.869 2.28731 2.13662 0
M  V30 1262 C 116.344 3.5049 2.94823 0
M  V30 1263 N 117.835 3.50866 3.02403 0
M  V30 1264 C 118.57 4.4174 3.65586 0
M  V30 1265 N 118.066 5.42882 4.30408 0
M  V30 1266 N 119.859 4.29429 3.62694 0
M  V30 1267 H 112.01 2.07718 0.443493 0
M  V30 1268 H 114.273 0.912031 0.258657 0
M  V30 1269 H 113.979 3.17395 1.51503 0
M  V30 1270 H 113.853 2.26907 3.01319 0
M  V30 1271 H 116.24 1.35865 2.61963 0
M  V30 1272 H 116.321 2.29848 1.12265 0
M  V30 1273 H 115.965 4.43676 2.47213 0
M  V30 1274 H 115.895 3.46617 3.96439 0
M  V30 1275 H 118.386 2.777 2.56302 0
M  V30 1276 H 118.699 6.0844 4.76467 0
M  V30 1277 H 117.044 5.46758 4.29047 0
M  V30 1278 H 120.235 3.49643 3.11236 0
M  V30 1279 H 120.408 5.00448 4.1165 0
M  V30 1280 N 113.814 -1.1601 1.06675 0
M  V30 1281 C 115.23 -1.38622 0.790948 0
M  V30 1282 C 115.43 -1.92109 -0.607965 0
M  V30 1283 O 114.486 -2.12239 -1.36787 0
M  V30 1284 C 115.799 -2.36347 1.85905 0
M  V30 1285 C 117.347 -2.50023 1.88301 0
M  V30 1286 C 117.822 -3.51033 2.94176 0
M  V30 1287 N 119.313 -3.58563 2.93235 0
M  V30 1288 C 120.048 -4.36521 3.71803 0
M  V30 1289 N 119.544 -5.17869 4.602 0
M  V30 1290 N 121.337 -4.31541 3.60178 0
M  V30 1291 H 113.488 -0.796294 1.96908 0
M  V30 1292 H 115.751 -0.412597 0.853503 0
M  V30 1293 H 115.457 -2.04147 2.86386 0
M  V30 1294 H 115.331 -3.36042 1.71334 0
M  V30 1295 H 117.718 -2.81524 0.884769 0
M  V30 1296 H 117.799 -1.5035 2.06951 0
M  V30 1297 H 117.443 -3.20268 3.94196 0
M  V30 1298 H 117.373 -4.50445 2.72776 0
M  V30 1299 H 119.864 -3.00496 2.29152 0
M  V30 1300 H 120.177 -5.74578 5.16797 0
M  V30 1301 H 118.522 -5.17199 4.64253 0
M  V30 1302 H 121.713 -3.67051 2.90502 0
M  V30 1303 H 121.886 -4.9205 4.21653 0
M  V30 1304 N 115.292 -0.849877 -1.32721 0
M  V30 1305 C 116.522 -0.46408 -2.0132 0
M  V30 1306 C 116.93 0.94246 -1.64056 0
M  V30 1307 O 116.273 1.6257 -0.855379 0
M  V30 1308 C 116.335 -0.517887 -3.5575 0
M  V30 1309 C 115.999 -1.88248 -4.16427 0
M  V30 1310 C 116.996 -2.84726 -4.35002 0
M  V30 1311 C 114.681 -2.17832 -4.52609 0
M  V30 1312 C 116.675 -4.08945 -4.8892 0
M  V30 1313 C 114.362 -3.42304 -5.06232 0
M  V30 1314 C 115.36 -4.37677 -5.24335 0
M  V30 1315 O 115.048 -5.59946 -5.76815 0
M  V30 1316 H 114.78 -0.181327 -0.651227 0
M  V30 1317 H 117.334 -1.14713 -1.70382 0
M  V30 1318 H 115.564 0.221997 -3.86062 0
M  V30 1319 H 117.253 -0.148366 -4.05629 0
M  V30 1320 H 118.019 -2.63174 -4.07388 0
M  V30 1321 H 113.898 -1.44385 -4.37806 0
M  V30 1322 H 117.442 -4.83396 -5.02966 0
M  V30 1323 H 113.339 -3.63709 -5.33278 0
M  V30 1324 H 114.107 -5.61838 -5.95214 0
M  V30 1325 N 116.77 1.45427 -0.607355 0
M  V30 1326 C 117.7 2.3329 0.0989352 0
M  V30 1327 C 118.681 1.46816 0.859007 0
M  V30 1328 O 119.866 1.75588 0.829604 0
M  V30 1329 C 116.996 3.29518 1.09705 0
M  V30 1330 C 115.95 4.25626 0.450206 0
M  V30 1331 C 115.276 5.11542 1.55655 0
M  V30 1332 C 116.576 5.18505 -0.628455 0
M  V30 1333 H 118.27 2.92595 -0.634716 0
M  V30 1334 H 115.816 1.40696 -0.306681 0
M  V30 1335 H 117.769 3.89855 1.59971 0
M  V30 1336 H 116.493 2.68372 1.86129 0
M  V30 1337 H 115.152 3.66586 -0.0315886 0
M  V30 1338 H 114.8 4.46765 2.31107 0
M  V30 1339 H 114.5 5.76647 1.12925 0
M  V30 1340 H 116.024 5.74748 2.06148 0
M  V30 1341 H 117.438 5.72916 -0.209877 0
M  V30 1342 H 115.835 5.92085 -0.977489 0
M  V30 1343 H 116.905 4.60948 -1.50514 0
M  V30 1344 N 118.248 0.346503 1.53744 0
M  V30 1345 C 119.196 -0.52422 2.26616 0
M  V30 1346 C 120.19 -1.09948 1.28871 0
M  V30 1347 O 121.396 -1.04488 1.46568 0
M  V30 1348 H 117.771 -0.187743 0.728187 0
M  V30 1349 H 119.742 0.11239 2.98188 0
M  V30 1350 C 118.491 -1.66186 3.05414 0
M  V30 1351 H 117.814 -1.22848 3.80458 0
M  V30 1352 H 119.254 -2.24622 3.59612 0
M  V30 1353 C 117.713 -2.59302 2.1509 0
M  V30 1354 O 118.243 -3.61628 1.74895 0
M  V30 1355 N 116.449 -2.28055 1.8011 0
M  V30 1356 H 115.996 -1.44883 2.12994 0
M  V30 1357 H 115.954 -2.90615 1.19958 0
M  V30 1358 N 119.726 -1.57421 0.075193 0
M  V30 1359 C 120.636 -2.1642 -0.905511 0
M  V30 1360 C 121.652 -1.12828 -1.32461 0
M  V30 1361 O 122.828 -1.45109 -1.39661 0
M  V30 1362 C 119.893 -2.71693 -2.15369 0
M  V30 1363 C 118.954 -3.90171 -1.79068 0
M  V30 1364 C 118.187 -4.42798 -2.97936 0
M  V30 1365 O 118.41 -3.94416 -4.12058 0
M  V30 1366 O 117.344 -5.34085 -2.77555 0
M  V30 1367 H 121.17 -3.00588 -0.433626 0
M  V30 1368 H 118.755 -1.48664 -0.148067 0
M  V30 1369 H 120.637 -3.07104 -2.88557 0
M  V30 1370 H 119.312 -1.90582 -2.61649 0
M  V30 1371 H 118.219 -3.59606 -1.03122 0
M  V30 1372 H 119.552 -4.72584 -1.37569 0
M  V30 1373 N 121.204 0.198386 -1.56346 0
M  V30 1374 C 122.134 1.24865 -1.9731 0
M  V30 1375 C 123.115 1.47651 -0.844576 0
M  V30 1376 O 124.3 1.59444 -1.10866 0
M  V30 1377 C 121.43 2.59358 -2.30977 0
M  V30 1378 C 120.384 2.5119 -3.46537 0
M  V30 1379 C 119.71 3.89926 -3.65871 0
M  V30 1380 C 121.01 2.03977 -4.80823 0
M  V30 1381 H 122.704 0.908252 -2.85291 0
M  V30 1382 H 120.25 0.435462 -1.37258 0
M  V30 1383 H 122.203 3.33011 -2.58228 0
M  V30 1384 H 120.927 2.95132 -1.39874 0
M  V30 1385 H 119.586 1.79993 -3.19371 0
M  V30 1386 H 119.234 4.23046 -2.72105 0
M  V30 1387 H 118.934 3.85336 -4.4361 0
M  V30 1388 H 120.458 4.65205 -3.95495 0
M  V30 1389 H 121.872 2.67386 -5.07127 0
M  V30 1390 H 120.269 2.10397 -5.62008 0
M  V30 1391 H 121.339 0.992861 -4.74626 0
M  V30 1392 N 122.682 1.50554 0.465978 0
M  V30 1393 C 123.629 1.6979 1.56333 0
M  V30 1394 C 124.599 0.539239 1.57103 0
M  V30 1395 O 125.784 0.770401 1.74555 0
M  V30 1396 C 122.924 1.80273 2.94271 0
M  V30 1397 C 122.037 3.07674 3.0325 0
M  V30 1398 C 121.172 3.08922 4.32135 0
M  V30 1399 C 120.211 4.30755 4.34875 0
M  V30 1400 N 119.348 4.29714 5.55239 0
M  V30 1401 H 124.188 2.63472 1.39235 0
M  V30 1402 H 121.725 1.30602 0.676873 0
M  V30 1403 H 123.683 1.84332 3.74269 0
M  V30 1404 H 122.313 0.900258 3.09992 0
M  V30 1405 H 121.365 3.13062 2.16094 0
M  V30 1406 H 122.677 3.97642 3.01135 0
M  V30 1407 H 121.831 3.11738 5.20485 0
M  V30 1408 H 120.57 2.16792 4.36866 0
M  V30 1409 H 119.575 4.28146 3.44922 0
M  V30 1410 H 120.8 5.24117 4.31831 0
M  V30 1411 H 118.746 3.4044 5.60746 0
M  V30 1412 H 118.663 5.13456 5.54886 0
M  V30 1413 H 119.931 4.36683 6.457 0
M  V30 1414 N 124.16 -0.719506 1.40217 0
M  V30 1415 C 125.406 -1.48034 1.39491 0
M  V30 1416 C 125.761 -1.92399 -0.00443536 0
M  V30 1417 O 125.054 -1.64993 -0.974061 0
M  V30 1418 C 125.248 -2.72271 2.31524 0
M  V30 1419 C 125.077 -2.40055 3.80268 0
M  V30 1420 C 123.847 -2.31588 4.49105 0
M  V30 1421 C 126.045 -2.04581 4.71859 0
M  V30 1422 N 124.027 -1.92006 5.83101 0
M  V30 1423 C 125.398 -1.75568 5.94623 0
M  V30 1424 C 127.453 -1.91183 4.59732 0
M  V30 1425 C 126.156 -1.34505 7.06612 0
M  V30 1426 C 128.182 -1.51524 5.71659 0
M  V30 1427 C 127.544 -1.23406 6.93506 0
M  V30 1428 H 123.643 -0.539927 0.565688 0
M  V30 1429 H 126.227 -0.834764 1.75897 0
M  V30 1430 H 124.398 -3.34584 1.97251 0
M  V30 1431 H 126.13 -3.38584 2.21682 0
M  V30 1432 H 122.885 -2.49199 4.02737 0
M  V30 1433 H 123.309 -1.74764 6.54054 0
M  V30 1434 H 127.951 -2.11584 3.66049 0
M  V30 1435 H 125.669 -1.12846 8.00182 0
M  V30 1436 H 129.255 -1.41741 5.6427 0
M  V30 1437 H 128.135 -0.931788 7.78645 0
M  V30 1438 N 125.638 -1.25649 -0.95132 0
M  V30 1439 C 126.863 -1.13443 -1.73624 0
M  V30 1440 C 127.288 0.307565 -1.85568 0
M  V30 1441 O 126.646 1.22282 -1.33854 0
M  V30 1442 C 126.694 -1.79723 -3.12621 0
M  V30 1443 O 125.798 -1.07912 -3.98031 0
M  V30 1444 H 125.139 -0.395872 -0.533086 0
M  V30 1445 H 127.669 -1.66276 -1.1922 0
M  V30 1446 H 127.679 -1.86141 -3.63064 0
M  V30 1447 H 126.354 -2.84633 -3.03244 0
M  V30 1448 H 124.931 -1.09398 -3.56492 0
M  V30 1449 N 127.117 1.15442 -1.07289 0
M  V30 1450 C 128.364 1.86213 -0.795668 0
M  V30 1451 C 128.692 1.82291 0.678238 0
M  V30 1452 O 127.947 1.24057 1.51355 0
M  V30 1453 C 128.246 3.3489 -1.24834 0
M  V30 1454 C 127.912 3.59007 -2.72809 0
M  V30 1455 C 126.574 3.65298 -3.13227 0
M  V30 1456 C 128.926 3.68762 -3.68326 0
M  V30 1457 C 126.254 3.78854 -4.4798 0
M  V30 1458 C 128.606 3.83842 -5.0284 0
M  V30 1459 C 127.27 3.88378 -5.4288 0
M  V30 1460 H 126.54 0.681403 -0.291155 0
M  V30 1461 H 129.187 1.36435 -1.34379 0
M  V30 1462 H 127.492 3.8687 -0.619595 0
M  V30 1463 H 129.189 3.88052 -1.01076 0
M  V30 1464 H 125.779 3.5475 -2.40521 0
M  V30 1465 H 129.963 3.63202 -3.38227 0
M  V30 1466 H 125.219 3.80623 -4.78472 0
M  V30 1467 H 129.393 3.90332 -5.76727 0
M  V30 1468 H 127.02 3.98635 -6.47298 0
M  V30 1469 N 128.595 0.856903 1.32268 0
M  V30 1470 C 129.558 0.308171 2.27119 0
M  V30 1471 C 130.558 -0.533421 1.51695 0
M  V30 1472 O 131.748 -0.344607 1.70757 0
M  V30 1473 C 128.88 -0.563757 3.36206 0
M  V30 1474 H 130.073 1.14535 2.77167 0
M  V30 1475 H 127.626 0.631421 1.42978 0
M  V30 1476 H 128.361 -1.42266 2.91429 0
M  V30 1477 H 128.146 0.0386749 3.92081 0
M  V30 1478 H 129.636 -0.940386 4.06874 0
M  V30 1479 N 130.073 -1.45103 0.615059 0
M  V30 1480 C 131.319 -2.02483 0.113347 0
M  V30 1481 C 131.652 -1.48146 -1.25564 0
M  V30 1482 O 130.927 -0.659104 -1.82992 0
M  V30 1483 C 131.21 -3.60005 0.0825278 0
M  V30 1484 C 131.063 -4.2466 1.48271 0
M  V30 1485 C 132.382 -4.35972 -0.601401 0
M  V30 1486 H 129.501 -0.735764 0.0426632 0
M  V30 1487 H 132.143 -1.72868 0.788461 0
M  V30 1488 H 130.293 -3.85367 -0.492378 0
M  V30 1489 H 131.965 -4.10458 2.10527 0
M  V30 1490 H 130.208 -3.82772 2.04127 0
M  V30 1491 H 130.879 -5.336 1.41332 0
M  V30 1492 H 133.355 -4.15947 -0.112666 0
M  V30 1493 H 132.231 -5.45697 -0.592097 0
M  V30 1494 H 132.492 -4.09391 -1.66887 0
M  V30 1495 N 131.551 -0.354651 -1.53558 0
M  V30 1496 C 132.514 0.484566 -2.24019 0
M  V30 1497 C 133.514 1.01861 -1.24422 0
M  V30 1498 O 134.704 0.906097 -1.4878 0
M  V30 1499 C 131.836 1.67615 -2.96847 0
M  V30 1500 H 133.029 -0.131843 -2.9961 0
M  V30 1501 H 130.582 -0.106165 -1.55939 0
M  V30 1502 H 131.317 2.33095 -2.25471 0
M  V30 1503 H 131.102 1.30029 -3.69912 0
M  V30 1504 H 132.592 2.27114 -3.50441 0
M  V30 1505 N 133.029 1.57378 -0.0835403 0
M  V30 1506 C 134.257 1.98263 0.59157 0
M  V30 1507 C 134.672 0.962302 1.62435 0
M  V30 1508 O 134.029 -0.049581 1.82433 0
M  V30 1509 C 134.08 3.39214 1.24965 0
M  V30 1510 O 133.801 4.37339 0.258186 0
M  V30 1511 C 135.302 3.95038 2.01147 0
M  V30 1512 H 132.522 0.651773 0.159477 0
M  V30 1513 H 135.066 2.03878 -0.159415 0
M  V30 1514 H 133.221 3.34649 1.95164 0
M  V30 1515 H 133.635 5.19371 0.731734 0
M  V30 1516 H 135.109 4.95848 2.42567 0
M  V30 1517 H 135.586 3.32222 2.87272 0
M  V30 1518 H 136.192 4.0304 1.35789 0
M  V30 1519 N 134.507 -0.190092 1.56449 0
M  V30 1520 C 135.756 -0.907912 1.80111 0
M  V30 1521 C 136.069 -1.84214 0.657619 0
M  V30 1522 O 137.275 -2.60094 0.778663 0
M  V30 1523 C 135.731 -1.66485 3.19078 0
M  V30 1524 C 135.339 -0.7752 4.41242 0
M  V30 1525 C 137.083 -2.37201 3.52045 0
M  V30 1526 C 134.99 -1.53129 5.71231 0
M  V30 1527 H 133.92 -0.34276 0.671589 0
M  V30 1528 H 136.571 -0.161109 1.82791 0
M  V30 1529 H 134.953 -2.45572 3.10661 0
M  V30 1530 H 136.127 -0.0226298 4.60794 0
M  V30 1531 H 134.442 -0.178627 4.16017 0
M  V30 1532 H 137.039 -2.94329 4.46402 0
M  V30 1533 H 137.382 -3.11632 2.76028 0
M  V30 1534 H 137.915 -1.65075 3.61932 0
M  V30 1535 H 134.654 -0.82967 6.50228 0
M  V30 1536 H 134.174 -2.25767 5.55688 0
M  V30 1537 H 135.853 -2.08377 6.12526 0
M  V30 1538 N 135.985 -1.50799 -0.457987 0
M  V30 1539 C 137.213 -1.66218 -1.23203 0
M  V30 1540 C 137.628 -0.350894 -1.85511 0
M  V30 1541 O 136.985 0.668546 -1.69814 0
M  V30 1542 C 137.036 -2.76291 -2.33121 0
M  V30 1543 O 136.757 -4.02338 -1.73366 0
M  V30 1544 C 138.258 -3.028 -3.2377 0
M  V30 1545 H 135.478 -0.558361 -0.372121 0
M  V30 1546 H 138.022 -1.97099 -0.545179 0
M  V30 1547 H 136.177 -2.48068 -2.97558 0
M  V30 1548 H 136.591 -4.63312 -2.4585 0
M  V30 1549 H 138.065 -3.8345 -3.97077 0
M  V30 1550 H 138.542 -2.14385 -3.83322 0
M  V30 1551 H 139.148 -3.32604 -2.65056 0
M  V30 1552 N 137.463 0.71206 -1.40597 0
M  V30 1553 C 138.373 1.8562 -1.43466 0
M  V30 1554 C 139.389 1.70902 -0.326902 0
M  V30 1555 O 140.565 1.93105 -0.572043 0
M  V30 1556 C 137.63 3.21451 -1.29884 0
M  V30 1557 C 136.691 3.48398 -2.50833 0
M  V30 1558 C 135.924 4.77749 -2.3789 0
M  V30 1559 O 136.147 5.53089 -1.39459 0
M  V30 1560 O 135.081 5.05111 -3.27333 0
M  V30 1561 H 138.907 1.86155 -2.39958 0
M  V30 1562 H 136.492 0.86295 -1.21957 0
M  V30 1563 H 138.374 4.02579 -1.24531 0
M  V30 1564 H 137.049 3.21636 -0.364997 0
M  V30 1565 H 135.956 2.67265 -2.61763 0
M  V30 1566 H 137.289 3.53014 -3.4299 0
M  V30 1567 N 138.941 1.26152 0.944643 0
M  V30 1568 C 140.19 1.10883 1.68487 0
M  V30 1569 C 140.503 -0.348153 1.92477 0
M  V30 1570 O 141.709 -0.621459 2.64292 0
M  V30 1571 C 140.165 1.93624 3.03377 0
M  V30 1572 C 139.773 3.43875 2.87148 0
M  V30 1573 C 141.517 1.86954 3.81115 0
M  V30 1574 C 139.424 4.18875 4.1749 0
M  V30 1575 H 138.354 0.41135 0.631907 0
M  V30 1576 H 141.005 1.50433 1.05082 0
M  V30 1577 H 139.387 1.46904 3.67743 0
M  V30 1578 H 140.561 3.98338 2.31653 0
M  V30 1579 H 138.876 3.51744 2.22856 0
M  V30 1580 H 141.473 2.40275 4.77673 0
M  V30 1581 H 141.816 0.839518 4.07747 0
M  V30 1582 H 142.349 2.31477 3.23517 0
M  V30 1583 H 139.088 5.22332 3.96043 0
M  V30 1584 H 138.608 3.69193 4.72712 0
M  V30 1585 H 140.287 4.27134 4.85968 0
M  V30 1586 N 140.419 -1.14872 1.07899 0
M  V30 1587 C 141.83 -1.67367 0.827363 0
M  V30 1588 C 142.181 -1.85236 -0.646693 0
M  V30 1589 O 141.306 -1.55974 -1.50004 0
M  V30 1590 C 141.901 -3.04016 1.49532 0
M  V30 1591 C 140.46 -3.53566 1.29106 0
M  V30 1592 C 139.607 -2.29161 1.56143 0
M  V30 1593 H 142.558 -0.990083 1.24028 0
M  V30 1594 H 142.579 -3.69219 0.919643 0
M  V30 1595 H 142.091 -2.90978 2.56814 0
M  V30 1596 H 140.192 -3.71835 0.238713 0
M  V30 1597 H 140.305 -4.34661 2.01511 0
M  V30 1598 H 138.669 -2.34978 0.982717 0
M  V30 1599 H 139.452 -2.18705 2.64619 0
M  V30 1600 N 141.898 -0.863906 -1.31812 0
M  V30 1601 C 143.309 -0.52522 -1.7916 0
M  V30 1602 C 143.66 0.957518 -1.71248 0
M  V30 1603 O 142.785 1.74734 -1.27659 0
M  V30 1604 C 143.38 -0.9466 -3.25307 0
M  V30 1605 C 141.939 -0.659668 -3.70574 0
M  V30 1606 C 141.086 -1.14126 -2.52726 0
M  V30 1607 H 144.037 -1.05022 -1.1898 0
M  V30 1608 H 144.058 -0.266766 -3.79564 0
M  V30 1609 H 143.57 -2.02579 -3.31034 0
M  V30 1610 H 141.671 0.408416 -3.70355 0
M  V30 1611 H 141.784 -1.23245 -4.62977 0
M  V30 1612 H 140.148 -0.561216 -2.4844 0
M  V30 1613 H 140.931 -2.22775 -2.61201 0
M  V30 1614 N 143.376 1.44774 -0.622745 0
M  V30 1615 C 144.622 2.0242 -0.124083 0
M  V30 1616 C 144.955 1.4881 1.24777 0
M  V30 1617 O 144.23 0.668799 1.8264 0
M  V30 1618 C 144.513 3.59957 -0.101619 0
M  V30 1619 C 144.366 4.23867 -1.50521 0
M  V30 1620 C 145.685 4.36284 0.578272 0
M  V30 1621 H 142.804 0.735528 -0.0465645 0
M  V30 1622 H 145.446 1.72447 -0.797617 0
M  V30 1623 H 143.596 3.85623 0.471934 0
M  V30 1624 H 145.268 4.09336 -2.12701 0
M  V30 1625 H 143.511 3.81684 -2.06154 0
M  V30 1626 H 144.182 5.32843 -1.4416 0
M  V30 1627 H 146.658 4.16001 0.0906057 0
M  V30 1628 H 145.534 5.46004 0.563149 0
M  V30 1629 H 145.795 4.10271 1.64713 0
M  V30 1630 N 144.854 0.36279 1.53368 0
M  V30 1631 C 146.103 -0.22888 2.00397 0
M  V30 1632 C 146.416 -1.50096 1.25421 0
M  V30 1633 O 147.622 -2.17106 1.63025 0
M  V30 1634 C 146.078 -0.458417 3.56969 0
M  V30 1635 C 145.686 0.798877 4.4082 0
M  V30 1636 C 147.43 -1.00789 4.12361 0
M  V30 1637 C 145.337 0.539078 5.88938 0
M  V30 1638 H 144.267 -0.089305 0.748693 0
M  V30 1639 H 146.918 0.481099 1.77081 0
M  V30 1640 H 145.3 -1.22959 3.76427 0
M  V30 1641 H 146.474 1.57262 4.33134 0
M  V30 1642 H 144.789 1.27137 3.96516 0
M  V30 1643 H 147.386 -1.21754 5.20653 0
M  V30 1644 H 147.729 -1.9692 3.66781 0
M  V30 1645 H 148.262 -0.296961 3.9669 0
M  V30 1646 H 145.001 1.47064 6.3879 0
M  V30 1647 H 144.521 -0.196222 5.99479 0
M  V30 1648 H 146.2 0.163542 6.46793 0
M  V30 1649 N 146.332 -1.57332 0.0918853 0
M  V30 1650 C 147.579 -1.94236 -0.572577 0
M  V30 1651 C 147.907 -0.973398 -1.6839 0
M  V30 1652 O 147.162 0.00756912 -1.95699 0
M  V30 1653 C 147.461 -3.37689 -1.17051 0
M  V30 1654 C 147.127 -4.50527 -0.183304 0
M  V30 1655 C 145.789 -4.81119 0.0882276 0
M  V30 1656 C 148.141 -5.18883 0.49095 0
M  V30 1657 C 145.469 -5.77395 1.04076 0
M  V30 1658 C 147.821 -6.1618 1.43193 0
M  V30 1659 C 146.485 -6.45179 1.71173 0
M  V30 1660 H 145.755 -0.710762 -0.209521 0
M  V30 1661 H 148.402 -1.9077 0.167036 0
M  V30 1662 H 146.707 -3.37718 -1.9863 0
M  V30 1663 H 148.404 -3.63543 -1.69227 0
M  V30 1664 H 144.994 -4.26681 -0.405124 0
M  V30 1665 H 149.178 -4.95427 0.294312 0
M  V30 1666 H 144.434 -5.98179 1.26457 0
M  V30 1667 H 148.608 -6.68243 1.96023 0
M  V30 1668 H 146.235 -7.1959 2.4514 0
M  V30 1669 N 147.81 0.181792 -1.56548 0
M  V30 1670 C 148.74 1.22765 -1.98623 0
M  V30 1671 C 149.721 1.46747 -0.860189 0
M  V30 1672 O 150.906 1.58259 -1.12551 0
M  V30 1673 C 148.036 2.56894 -2.33715 0
M  V30 1674 C 146.99 2.475 -3.49182 0
M  V30 1675 C 146.316 3.86023 -3.69986 0
M  V30 1676 C 147.616 1.98866 -4.82959 0
M  V30 1677 H 149.31 0.877942 -2.86239 0
M  V30 1678 H 146.856 0.42088 -1.37712 0
M  V30 1679 H 148.809 3.30253 -2.61746 0
M  V30 1680 H 147.533 2.93632 -1.42997 0
M  V30 1681 H 146.192 1.76596 -3.21262 0
M  V30 1682 H 145.84 4.20136 -2.76576 0
M  V30 1683 H 145.54 3.80609 -4.47672 0
M  V30 1684 H 147.064 4.60984 -4.00407 0
M  V30 1685 H 148.478 2.61992 -5.09934 0
M  V30 1686 H 146.875 2.04424 -5.64208 0
M  V30 1687 H 147.945 0.942465 -4.75653 0
M  V30 1688 N 149.288 1.51039 0.449983 0
M  V30 1689 C 150.699 1.557 1.03026 0
M  V30 1690 C 151.05 0.372939 1.92623 0
M  V30 1691 O 150.175 -0.511771 2.10261 0
M  V30 1692 C 150.77 2.82171 1.87523 0
M  V30 1693 C 149.329 2.89444 2.40622 0
M  V30 1694 C 148.476 2.50228 1.19504 0
M  V30 1695 H 151.427 1.56999 0.231745 0
M  V30 1696 H 151.448 2.65219 2.72835 0
M  V30 1697 H 150.96 3.68331 1.22286 0
M  V30 1698 H 149.061 2.07685 3.0935 0
M  V30 1699 H 149.174 3.92816 2.74285 0
M  V30 1700 H 147.538 2.03139 1.53644 0
M  V30 1701 H 148.321 3.38719 0.558972 0
M  V30 1702 N 150.766 -0.704594 1.40972 0
M  V30 1703 C 151.714 -1.83994 1.42299 0
M  V30 1704 C 152.708 -1.66684 0.302111 0
M  V30 1705 O 153.914 -1.73655 0.473697 0
M  V30 1706 H 150.289 -0.606171 0.44504 0
M  V30 1707 H 152.26 -1.79992 2.38003 0
M  V30 1708 C 151.009 -3.21946 1.31323 0
M  V30 1709 H 150.332 -3.35878 2.16855 0
M  V30 1710 H 151.772 -4.01491 1.36311 0
M  V30 1711 C 150.231 -3.36891 0.0245977 0
M  V30 1712 O 150.761 -3.90687 -0.934153 0
M  V30 1713 N 148.967 -2.90559 -0.0485243 0
M  V30 1714 H 148.514 -2.46968 0.732419 0
M  V30 1715 H 148.472 -3.00937 -0.910171 0
M  V30 1716 N 152.244 -1.26651 -0.937939 0
M  V30 1717 C 153.491 -1.12387 -1.6845 0
M  V30 1718 C 153.819 0.332208 -1.91642 0
M  V30 1719 O 153.074 1.2602 -1.49725 0
M  V30 1720 C 153.373 -1.84168 -3.06295 0
M  V30 1721 C 153.039 -3.34056 -3.02849 0
M  V30 1722 C 151.701 -3.74942 -3.01616 0
M  V30 1723 C 154.053 -4.29741 -2.9491 0
M  V30 1724 C 151.381 -5.09894 -2.90215 0
M  V30 1725 C 153.733 -5.64738 -2.8505 0
M  V30 1726 C 152.397 -6.0493 -2.82162 0
M  V30 1727 H 151.667 -0.411252 -0.616403 0
M  V30 1728 H 154.314 -1.57134 -1.09459 0
M  V30 1729 H 152.619 -1.319 -3.6893 0
M  V30 1730 H 154.316 -1.70569 -3.62915 0
M  V30 1731 H 150.906 -3.01534 -3.0459 0
M  V30 1732 H 155.09 -3.99133 -2.94969 0
M  V30 1733 H 150.346 -5.40194 -2.86358 0
M  V30 1734 H 154.52 -6.38561 -2.77872 0
M  V30 1735 H 152.147 -7.09457 -2.73084 0
M  V30 1736 N 153.722 1.14298 -1.08507 0
M  V30 1737 C 154.652 2.21542 -0.737646 0
M  V30 1738 C 155.633 1.67773 0.280377 0
M  V30 1739 O 156.818 1.93616 0.150521 0
M  V30 1740 C 153.948 3.46988 -0.147259 0
M  V30 1741 C 152.902 4.13789 -1.09374 0
M  V30 1742 C 152.228 5.33449 -0.365524 0
M  V30 1743 C 153.528 4.62208 -2.4323 0
M  V30 1744 H 155.222 2.5086 -1.6343 0
M  V30 1745 H 152.768 1.20576 -0.787243 0
M  V30 1746 H 154.721 4.21262 0.107808 0
M  V30 1747 H 153.445 3.17037 0.784538 0
M  V30 1748 H 152.104 3.4147 -1.33393 0
M  V30 1749 H 151.752 4.99759 0.57011 0
M  V30 1750 H 151.452 5.79088 -0.996512 0
M  V30 1751 H 152.976 6.10485 -0.118534 0
M  V30 1752 H 154.39 5.27952 -2.23472 0
M  V30 1753 H 152.787 5.18553 -3.02031 0
M  V30 1754 H 153.857 3.77224 -3.04681 0
M  V30 1755 N 155.201 0.870884 1.31352 0
M  V30 1756 C 156.447 0.482987 1.96965 0
M  V30 1757 C 156.78 -0.962462 1.68672 0
M  V30 1758 O 156.055 -1.6779 0.98371 0
M  V30 1759 C 156.338 0.741752 3.52378 0
M  V30 1760 C 156.191 2.2368 3.9024 0
M  V30 1761 C 157.51 0.208838 4.39604 0
M  V30 1762 H 154.629 0.176955 0.715441 0
M  V30 1763 H 157.271 1.09229 1.55464 0
M  V30 1764 H 155.421 0.223149 3.87859 0
M  V30 1765 H 157.093 2.82273 3.64856 0
M  V30 1766 H 155.336 2.70901 3.38814 0
M  V30 1767 H 156.007 2.3685 4.98604 0
M  V30 1768 H 158.483 0.652529 4.10952 0
M  V30 1769 H 157.359 0.419336 5.47296 0
M  V30 1770 H 157.62 -0.889275 4.33064 0
M  V30 1771 N 156.679 -1.44442 0.630414 0
M  V30 1772 C 157.611 -2.2892 -0.113347 0
M  V30 1773 C 158.624 -1.41243 -0.80959 0
M  V30 1774 O 159.813 -1.65402 -0.671156 0
M  V30 1775 C 156.913 -3.17594 -1.18266 0
M  V30 1776 C 156.086 -4.33682 -0.569073 0
M  V30 1777 C 155.145 -5.03397 -1.53226 0
M  V30 1778 O 154.171 -5.59438 -1.04967 0
M  V30 1779 N 155.373 -5.04783 -2.86661 0
M  V30 1780 H 158.138 -2.93392 0.611636 0
M  V30 1781 H 155.699 -1.54881 0.471523 0
M  V30 1782 H 157.691 -3.61097 -1.82732 0
M  V30 1783 H 156.261 -2.54876 -1.80988 0
M  V30 1784 H 155.481 -3.9338 0.254187 0
M  V30 1785 H 156.769 -5.08608 -0.139767 0
M  V30 1786 H 156.167 -4.60584 -3.28449 0
M  V30 1787 H 154.724 -5.52077 -3.46489 0
M  V30 1788 N 158.157 -0.370918 -1.53173 0
M  V30 1789 C 159.573 -0.0200818 -1.59587 0
M  V30 1790 C 159.773 1.46279 -1.38581 0
M  V30 1791 O 158.829 2.22506 -1.19363 0
M  V30 1792 C 160.142 -0.4808 -2.96831 0
M  V30 1793 C 161.69 -0.435477 -3.09956 0
M  V30 1794 C 162.165 -0.872092 -4.4962 0
M  V30 1795 N 163.656 -0.827364 -4.55751 0
M  V30 1796 C 164.391 -1.13683 -5.62018 0
M  V30 1797 N 163.887 -1.51584 -6.76014 0
M  V30 1798 N 165.68 -1.05927 -5.52029 0
M  V30 1799 H 157.831 -1.33652 -1.65079 0
M  V30 1800 H 160.094 -0.546634 -0.774529 0
M  V30 1801 H 159.8 -1.51577 -3.1736 0
M  V30 1802 H 159.674 0.129796 -3.76977 0
M  V30 1803 H 162.061 0.590371 -2.89134 0
M  V30 1804 H 162.142 -1.08164 -2.31806 0
M  V30 1805 H 161.786 -1.89608 -4.71181 0
M  V30 1806 H 161.716 -0.203127 -5.26208 0
M  V30 1807 H 164.207 -0.548216 -3.73902 0
M  V30 1808 H 164.52 -1.73609 -7.53047 0
M  V30 1809 H 162.865 -1.55454 -6.77391 0
M  V30 1810 H 166.056 -0.762321 -4.61851 0
M  V30 1811 H 166.229 -1.30378 -6.34749 0
M  V30 1812 N 159.635 1.57281 -0.100228 0
M  V30 1813 C 160.582 2.14305 0.856858 0
M  V30 1814 C 161.552 1.06296 1.27634 0
M  V30 1815 O 162.737 1.34109 1.35718 0
M  V30 1816 C 159.877 2.73184 2.10866 0
M  V30 1817 C 158.99 3.95442 1.73925 0
M  V30 1818 C 158.125 4.42468 2.93931 0
M  V30 1819 C 157.164 5.57303 2.5314 0
M  V30 1820 N 156.301 5.99158 3.65997 0
M  V30 1821 H 161.141 2.95772 0.363726 0
M  V30 1822 H 158.678 1.46139 0.167858 0
M  V30 1823 H 160.636 3.05442 2.84185 0
M  V30 1824 H 159.266 1.94437 2.57671 0
M  V30 1825 H 158.318 3.69464 0.905554 0
M  V30 1826 H 159.63 4.78769 1.39935 0
M  V30 1827 H 158.784 4.76537 3.75496 0
M  V30 1828 H 157.523 3.58052 3.31134 0
M  V30 1829 H 156.528 5.22857 1.70003 0
M  V30 1830 H 157.753 6.43471 2.17075 0
M  V30 1831 H 155.699 5.17687 4.02909 0
M  V30 1832 H 155.616 6.77295 3.35869 0
M  V30 1833 H 156.884 6.3786 4.48057 0
M  V30 1834 N 161.113 -0.173488 1.56642 0
M  V30 1835 C 162.359 -0.891784 1.8214 0
M  V30 1836 C 162.692 -1.8199 0.677736 0
M  V30 1837 O 161.967 -1.91842 -0.320446 0
M  V30 1838 C 162.25 -1.68933 3.18015 0
M  V30 1839 C 162.103 -0.784487 4.42906 0
M  V30 1840 C 163.422 -2.65748 3.50808 0
M  V30 1841 H 160.541 -0.322761 0.662567 0
M  V30 1842 H 163.183 -0.158095 1.89341 0
M  V30 1843 H 161.333 -2.31482 3.12007 0
M  V30 1844 H 163.005 -0.172046 4.60979 0
M  V30 1845 H 161.248 -0.0924117 4.33702 0
M  V30 1846 H 161.919 -1.37799 5.34524 0
M  V30 1847 H 164.395 -2.13327 3.57255 0
M  V30 1848 H 163.271 -3.18619 4.4696 0
M  V30 1849 H 163.532 -3.45842 2.75401 0
M  V30 1850 N 162.591 -1.51276 -0.441967 0
M  V30 1851 C 163.521 -1.752 -1.54361 0
M  V30 1852 C 164.502 -0.601682 -1.59103 0
M  V30 1853 O 165.687 -0.843913 -1.74905 0
M  V30 1854 C 162.817 -1.87282 -2.92477 0
M  V30 1855 C 161.771 -3.02687 -3.02596 0
M  V30 1856 C 161.097 -2.99947 -4.42647 0
M  V30 1857 C 162.397 -4.4273 -2.77106 0
M  V30 1858 H 164.091 -2.67442 -1.34592 0
M  V30 1859 H 161.637 -1.28694 -0.646048 0
M  V30 1860 H 163.59 -2.02602 -3.695 0
M  V30 1861 H 162.314 -0.916844 -3.13467 0
M  V30 1862 H 160.973 -2.87065 -2.28012 0
M  V30 1863 H 160.621 -2.02136 -4.60597 0
M  V30 1864 H 160.321 -3.77439 -4.50348 0
M  V30 1865 H 161.845 -3.17354 -5.2165 0
M  V30 1866 H 163.259 -4.58727 -3.43864 0
M  V30 1867 H 161.656 -5.21893 -2.96222 0
M  V30 1868 H 162.726 -4.53087 -1.72744 0
M  V30 1869 N 164.069 0.697108 -1.41344 0
M  V30 1870 C 165.485 1.00751 -1.2378 0
M  V30 1871 C 165.685 2.01105 -0.126066 0
M  V30 1872 O 164.741 2.47295 0.51004 0
M  V30 1873 C 166.054 1.53359 -2.58653 0
M  V30 1874 C 167.602 1.6525 -2.65822 0
M  V30 1875 C 168.077 2.2126 -4.01009 0
M  V30 1876 N 169.568 2.28622 -4.02847 0
M  V30 1877 C 170.303 2.72984 -5.04249 0
M  V30 1878 N 169.799 3.16962 -6.16041 0
M  V30 1879 N 171.592 2.72534 -4.91611 0
M  V30 1880 H 163.743 0.0322662 -2.12375 0
M  V30 1881 H 166.006 0.0768853 -0.944877 0
M  V30 1882 H 165.712 0.870773 -3.4075 0
M  V30 1883 H 165.586 2.51597 -2.81032 0
M  V30 1884 H 167.973 2.30644 -1.84086 0
M  V30 1885 H 168.054 0.655614 -2.47256 0
M  V30 1886 H 167.698 1.56482 -4.83193 0
M  V30 1887 H 167.628 3.21698 -4.16915 0
M  V30 1888 H 170.119 1.97585 -3.22131 0
M  V30 1889 H 170.432 3.49434 -6.89287 0
M  V30 1890 H 168.777 3.14875 -6.1958 0
M  V30 1891 H 171.968 2.37525 -4.0336 0
M  V30 1892 H 172.141 3.06789 -5.70775 0
M  V30 1893 N 165.547 1.27147 0.931209 0
M  V30 1894 C 166.958 1.12044 1.49342 0
M  V30 1895 C 167.309 -0.295795 1.93957 0
M  V30 1896 O 166.434 -1.18835 1.80852 0
M  V30 1897 C 167.029 2.02781 2.71414 0
M  V30 1898 C 165.588 1.91794 3.2387 0
M  V30 1899 C 164.735 1.95543 1.96617 0
M  V30 1900 H 167.686 1.40091 0.745672 0
M  V30 1901 H 167.707 1.58156 3.46074 0
M  V30 1902 H 167.219 3.05848 2.38911 0
M  V30 1903 H 165.32 0.916992 3.6114 0
M  V30 1904 H 165.433 2.77852 3.90302 0
M  V30 1905 H 163.797 1.39722 2.12955 0
M  V30 1906 H 164.58 3.00259 1.66432 0
M  V30 1907 N 167.025 -1.13721 1.09112 0
M  V30 1908 C 167.955 -2.21148 0.749385 0
M  V30 1909 C 168.936 -1.6792 -0.271475 0
M  V30 1910 O 170.121 -1.93693 -0.140251 0
M  V30 1911 C 167.251 -3.46905 0.165659 0
M  V30 1912 C 166.205 -4.13203 1.11567 0
M  V30 1913 C 165.531 -5.33248 0.393809 0
M  V30 1914 C 166.831 -4.60912 2.45678 0
M  V30 1915 H 168.525 -2.4999 1.64758 0
M  V30 1916 H 166.071 -1.20156 0.793626 0
M  V30 1917 H 168.024 -4.21313 -0.085466 0
M  V30 1918 H 166.748 -3.17449 -0.767714 0
M  V30 1919 H 165.407 -3.40758 1.35202 0
M  V30 1920 H 165.055 -5.00054 -0.543599 0
M  V30 1921 H 164.755 -5.78552 1.02721 0
M  V30 1922 H 166.279 -6.10413 0.150908 0
M  V30 1923 H 167.693 -5.26759 2.26269 0
M  V30 1924 H 166.09 -5.16944 3.04776 0
M  V30 1925 H 167.16 -3.75603 3.06677 0
M  V30 1926 N 168.503 -0.877838 -1.30888 0
M  V30 1927 C 169.919 -0.570844 -1.49042 0
M  V30 1928 C 170.119 0.893159 -1.80624 0
M  V30 1929 O 169.175 1.67485 -1.88958 0
M  V30 1930 C 170.488 -1.47784 -2.61878 0
M  V30 1931 C 172.036 -1.48071 -2.75761 0
M  V30 1932 C 172.511 -2.37347 -3.91702 0
M  V30 1933 N 174.002 -2.35271 -3.99001 0
M  V30 1934 C 174.737 -3.01063 -4.88004 0
M  V30 1935 N 174.233 -3.76055 -5.81854 0
M  V30 1936 N 176.026 -2.90332 -4.81315 0
M  V30 1937 H 168.177 -1.82502 -1.0866 0
M  V30 1938 H 170.44 -0.780797 -0.537644 0
M  V30 1939 H 170.146 -2.51993 -2.45341 0
M  V30 1940 H 170.02 -1.18215 -3.58197 0
M  V30 1941 H 172.407 -0.446166 -2.91708 0
M  V30 1942 H 172.488 -1.81668 -1.80085 0
M  V30 1943 H 172.132 -3.40883 -3.76512 0
M  V30 1944 H 172.062 -2.01071 -4.86701 0
M  V30 1945 H 174.553 -1.80768 -3.3186 0
M  V30 1946 H 174.866 -4.23366 -6.46514 0
M  V30 1947 H 173.211 -3.80163 -5.81808 0
M  V30 1948 H 176.402 -2.31278 -4.06974 0
M  V30 1949 H 176.575 -3.41885 -5.50471 0
M  V30 1950 N 169.982 1.44106 -0.638065 0
M  V30 1951 C 171.21 2.06336 -0.152615 0
M  V30 1952 C 171.625 1.47731 1.17563 0
M  V30 1953 O 170.982 0.602806 1.72257 0
M  V30 1954 C 171.033 3.61479 -0.0391491 0
M  V30 1955 O 170.754 4.17903 -1.31487 0
M  V30 1956 C 172.255 4.40757 0.474176 0
M  V30 1957 H 169.475 0.665862 -0.0828776 0
M  V30 1958 H 172.019 1.84862 -0.87443 0
M  V30 1959 H 170.174 3.82191 0.633142 0
M  V30 1960 H 170.588 5.11416 -1.16421 0
M  V30 1961 H 172.062 5.49707 0.502562 0
M  V30 1962 H 172.539 4.12697 1.50258 0
M  V30 1963 H 173.145 4.24979 -0.165102 0
M  V30 1964 N 171.46 0.379036 1.52974 0
M  V30 1965 C 172.392 -0.495963 2.2377 0
M  V30 1966 C 173.405 -1.03517 1.25651 0
M  V30 1967 O 174.594 -0.939249 1.51791 0
M  V30 1968 C 171.694 -1.69894 2.93239 0
M  V30 1969 C 170.867 -1.2889 4.17979 0
M  V30 1970 C 169.926 -2.35543 4.70538 0
M  V30 1971 O 168.952 -1.97375 5.33883 0
M  V30 1972 N 170.154 -3.67318 4.49508 0
M  V30 1973 H 172.919 0.110523 2.99496 0
M  V30 1974 H 170.48 0.204878 1.60598 0
M  V30 1975 H 172.472 -2.40747 3.25304 0
M  V30 1976 H 171.042 -2.212 2.20883 0
M  V30 1977 H 170.262 -0.409676 3.92065 0
M  V30 1978 H 171.55 -0.991443 4.99047 0
M  V30 1979 H 170.948 -4.01095 3.98923 0
M  V30 1980 H 169.505 -4.34235 4.8609 0
M  V30 1981 N 172.938 -1.57226 0.108567 0
M  V30 1982 C 174.166 -1.99179 -0.559954 0
M  V30 1983 C 174.581 -0.988022 -1.60884 0
M  V30 1984 O 173.938 0.0205512 -1.82488 0
M  V30 1985 C 173.989 -3.41159 -1.19552 0
M  V30 1986 O 173.71 -4.37694 -0.188577 0
M  V30 1987 C 175.211 -3.98188 -1.94837 0
M  V30 1988 H 172.431 -0.654228 -0.149088 0
M  V30 1989 H 174.975 -2.03598 0.19183 0
M  V30 1990 H 173.13 -3.37711 -1.89815 0
M  V30 1991 H 173.544 -5.20469 -0.649014 0
M  V30 1992 H 175.018 -4.99644 -2.34648 0
M  V30 1993 H 175.495 -3.3675 -2.81951 0
M  V30 1994 H 176.101 -4.0515 -1.2936 0
M  V30 1995 N 174.416 0.165178 -1.56732 0
M  V30 1996 C 175.664 0.879068 -1.8198 0
M  V30 1997 C 175.985 1.82514 -0.686561 0
M  V30 1998 O 175.255 1.93694 0.293146 0
M  V30 1999 H 173.835 0.327608 -0.671329 0
M  V30 2000 H 176.497 0.163526 -1.94213 0
M  V30 2001 H 175.593 1.45228 -2.76252 0
M  V30 2002 N 175.894 1.51508 0.433938 0
M  V30 2003 C 177.142 1.6402 1.18075 0
M  V30 2004 C 177.463 0.360328 1.91642 0
M  V30 2005 O 176.733 -0.623945 1.85698 0
M  V30 2006 H 175.313 0.6045 0.43885 0
M  V30 2007 H 177.975 1.88452 0.497178 0
M  V30 2008 H 177.071 2.46949 1.90847 0
M  V30 2009 N 177.372 -0.689602 1.41712 0
M  V30 2010 C 178.6 -1.47827 1.44758 0
M  V30 2011 C 179.015 -1.88721 0.0545703 0
M  V30 2012 O 178.372 -1.57176 -0.927463 0
M  V30 2013 C 178.423 -2.73698 2.3616 0
M  V30 2014 O 178.144 -2.34524 3.7004 0
M  V30 2015 C 179.645 -3.67389 2.48072 0
M  V30 2016 H 176.865 -0.455357 0.49284 0
M  V30 2017 H 179.409 -0.848574 1.86063 0
M  V30 2018 H 177.564 -3.32891 1.98148 0
M  V30 2019 H 177.978 -3.15701 4.18847 0
M  V30 2020 H 179.452 -4.52475 3.16181 0
M  V30 2021 H 179.929 -4.12284 1.51388 0
M  V30 2022 H 180.535 -3.14097 2.86746 0
M  V30 2023 N 178.85 -1.27639 -0.924453 0
M  V30 2024 C 180.099 -1.13549 -1.66702 0
M  V30 2025 C 180.412 0.317487 -1.93006 0
M  V30 2026 O 181.618 0.579333 -2.65247 0
M  V30 2027 C 180.074 -1.98426 -3.00259 0
M  V30 2028 C 179.682 -3.484 -2.81641 0
M  V30 2029 C 181.426 -1.92993 -3.78092 0
M  V30 2030 C 179.333 -4.25464 -4.10773 0
M  V30 2031 H 178.263 -0.421351 -0.625283 0
M  V30 2032 H 180.914 -1.52085 -1.02676 0
M  V30 2033 H 179.296 -1.52736 -3.6536 0
M  V30 2034 H 180.47 -4.01973 -2.25287 0
M  V30 2035 H 178.785 -3.55245 -2.17232 0
M  V30 2036 H 181.382 -2.47844 -4.7379 0
M  V30 2037 H 181.725 -0.904281 -4.0636 0
M  V30 2038 H 182.258 -2.36595 -3.19793 0
M  V30 2039 H 178.997 -5.28566 -3.87683 0
M  V30 2040 H 178.517 -3.76667 -4.66779 0
M  V30 2041 H 180.196 -4.34812 -4.79111 0
M  V30 2042 N 180.328 1.1314 -1.09713 0
M  V30 2043 C 181.261 2.17735 -0.683137 0
M  V30 2044 C 182.239 1.59582 0.311841 0
M  V30 2045 O 183.423 1.87298 0.212514 0
M  V30 2046 C 180.55 3.38699 -0.00684324 0
M  V30 2047 C 179.596 4.1546 -0.964102 0
M  V30 2048 S 180.429 4.74733 -2.47767 0
M  V30 2049 C 181.585 5.9904 -1.81387 0
M  V30 2050 H 181.818 2.52515 -1.56918 0
M  V30 2051 H 179.351 1.24484 -0.913404 0
M  V30 2052 H 181.309 4.08765 0.377044 0
M  V30 2053 H 179.97 3.02214 0.85589 0
M  V30 2054 H 179.163 5.02093 -0.43803 0
M  V30 2055 H 178.765 3.51066 -1.28953 0
M  V30 2056 H 181.057 6.67846 -1.13967 0
M  V30 2057 H 182 6.56261 -2.65947 0
M  V30 2058 H 182.408 5.4976 -1.28155 0
M  V30 2059 N 181.806 0.884767 1.30421 0
M  V30 2060 C 182.769 0.356277 2.26414 0
M  V30 2061 C 183.769 -0.501124 1.52792 0
M  V30 2062 O 184.959 -0.30831 1.7145 0
M  V30 2063 C 182.091 -0.492316 3.37326 0
M  V30 2064 H 183.284 1.20389 2.74675 0
M  V30 2065 H 180.837 0.661607 1.41607 0
M  V30 2066 H 181.572 -1.36052 2.94381 0
M  V30 2067 H 181.357 0.121832 3.91911 0
M  V30 2068 H 182.847 -0.853871 4.08777 0
M  V30 2069 N 183.284 -1.43765 0.645699 0
M  V30 2070 C 184.532 -2.01499 0.155731 0
M  V30 2071 C 184.853 -1.51151 -1.232 0
M  V30 2072 O 184.123 -0.721044 -1.82148 0
M  V30 2073 H 182.703 -0.745003 0.0545817 0
M  V30 2074 H 185.365 -1.76075 0.835677 0
M  V30 2075 H 184.461 -3.1181 0.134577 0
M  V30 2076 N 184.763 -0.387143 -1.52771 0
M  V30 2077 C 185.71 0.449048 -2.26389 0
M  V30 2078 C 186.68 1.05961 -1.27912 0
M  V30 2079 O 187.865 1.08804 -1.56737 0
M  V30 2080 C 185.005 1.57155 -3.0724 0
M  V30 2081 C 184.118 0.984066 -4.20643 0
M  V30 2082 C 183.253 2.07745 -4.88892 0
M  V30 2083 C 182.292 1.46574 -5.94292 0
M  V30 2084 N 181.429 2.49834 -6.56146 0
M  V30 2085 H 186.269 -0.185205 -2.97424 0
M  V30 2086 H 183.806 -0.103164 -1.46738 0
M  V30 2087 H 185.764 2.23309 -3.52405 0
M  V30 2088 H 184.394 2.17615 -2.38419 0
M  V30 2089 H 183.446 0.212193 -3.79808 0
M  V30 2090 H 184.758 0.497029 -4.96318 0
M  V30 2091 H 183.912 2.81673 -5.3735 0
M  V30 2092 H 182.651 2.59807 -4.12737 0
M  V30 2093 H 181.656 0.711696 -5.45174 0
M  V30 2094 H 182.881 0.953088 -6.72379 0
M  V30 2095 H 180.827 3.0107 -5.82832 0
M  V30 2096 H 180.744 2.05879 -7.27427 0
M  V30 2097 H 182.012 3.23399 -7.09249 0
M  V30 2098 N 186.241 1.57166 -0.116904 0
M  V30 2099 C 187.171 2.18222 0.830759 0
M  V30 2100 C 188.152 1.12167 1.27877 0
M  V30 2101 O 189.337 1.40394 1.34176 0
M  V30 2102 C 186.467 2.77996 2.08172 0
M  V30 2103 C 185.421 3.89614 1.77157 0
M  V30 2104 C 184.747 4.36187 3.09265 0
M  V30 2105 C 186.047 5.1181 1.04151 0
M  V30 2106 H 187.741 2.97664 0.321992 0
M  V30 2107 H 185.287 1.4318 0.153434 0
M  V30 2108 H 187.24 3.19366 2.74924 0
M  V30 2109 H 185.964 1.9584 2.6137 0
M  V30 2110 H 184.623 3.48816 1.12796 0
M  V30 2111 H 184.271 3.50893 3.60393 0
M  V30 2112 H 183.971 5.11455 2.89288 0
M  V30 2113 H 185.495 4.80207 3.77139 0
M  V30 2114 H 186.909 5.50214 1.61052 0
M  V30 2115 H 185.306 5.92648 0.942762 0
M  V30 2116 H 186.376 4.84892 0.0279022 0
M  V30 2117 N 187.719 -0.156864 1.56817 0
M  V30 2118 C 188.682 -1.17781 1.96622 0
M  V30 2119 C 189.682 -1.36401 0.851555 0
M  V30 2120 O 190.872 -1.33561 1.11836 0
M  V30 2121 C 188.004 -2.54008 2.27361 0
M  V30 2122 H 189.197 -0.836564 2.87996 0
M  V30 2123 H 186.75 -0.39985 1.51099 0
M  V30 2124 H 187.485 -2.9312 1.38748 0
M  V30 2125 H 187.27 -2.41856 3.08623 0
M  V30 2126 H 188.76 -3.27558 2.59029 0
M  V30 2127 N 189.197 -1.51736 -0.425897 0
M  V30 2128 C 190.443 -1.65214 -1.1761 0
M  V30 2129 C 190.776 -0.372778 -1.90589 0
M  V30 2130 O 190.051 0.628139 -1.84078 0
M  V30 2131 C 190.334 -2.86312 -2.18398 0
M  V30 2132 C 190.187 -4.24254 -1.49426 0
M  V30 2133 C 191.506 -3.02925 -3.19256 0
M  V30 2134 H 188.625 -0.601263 -0.426206 0
M  V30 2135 H 191.267 -1.8425 -0.463882 0
M  V30 2136 H 189.417 -2.70213 -2.79137 0
M  V30 2137 H 191.089 -4.52046 -0.919362 0
M  V30 2138 H 189.332 -4.26426 -0.796432 0
M  V30 2139 H 190.003 -5.05001 -2.22885 0
M  V30 2140 H 192.479 -3.1781 -2.68581 0
M  V30 2141 H 191.355 -3.89199 -3.8706 0
M  V30 2142 H 191.616 -2.15497 -3.86023 0
M  V30 2143 N 190.675 0.682077 -1.42076 0
M  V30 2144 C 191.585 1.82535 -1.47371 0
M  V30 2145 C 192.601 1.7017 -0.363079 0
M  V30 2146 O 193.777 1.91848 -0.612875 0
M  V30 2147 C 190.842 3.18624 -1.36674 0
M  V30 2148 C 189.903 3.42999 -2.58167 0
M  V30 2149 C 189.136 4.72595 -2.4797 0
M  V30 2150 O 189.359 5.50006 -1.5116 0
M  V30 2151 O 188.293 4.98054 -3.37974 0
M  V30 2152 H 192.119 1.81023 -2.43853 0
M  V30 2153 H 189.704 0.836887 -1.2376 0
M  V30 2154 H 191.586 3.99847 -1.33043 0
M  V30 2155 H 190.261 3.20789 -0.433138 0
M  V30 2156 H 189.168 2.61653 -2.67373 0
M  V30 2157 H 190.501 3.45659 -3.50401 0
M  V30 2158 N 192.153 1.28127 0.917671 0
M  V30 2159 C 193.569 1.05749 1.19538 0
M  V30 2160 C 193.769 -0.202633 2.00479 0
M  V30 2161 O 192.825 -0.905382 2.3571 0
M  V30 2162 C 194.138 2.30273 1.93378 0
M  V30 2163 C 195.686 2.35412 2.06277 0
M  V30 2164 C 196.161 3.59692 2.83524 0
M  V30 2165 N 197.652 3.60309 2.91087 0
M  V30 2166 C 198.387 4.53147 3.51348 0
M  V30 2167 N 197.883 5.563 4.12919 0
M  V30 2168 N 199.676 4.40751 3.48849 0
M  V30 2169 H 191.827 2.09024 0.377184 0
M  V30 2170 H 194.09 0.919798 0.22951 0
M  V30 2171 H 193.796 3.22055 1.41328 0
M  V30 2172 H 193.67 2.36378 2.93947 0
M  V30 2173 H 196.057 1.4413 2.57508 0
M  V30 2174 H 196.138 2.33304 1.04895 0
M  V30 2175 H 195.782 4.51316 2.32973 0
M  V30 2176 H 195.712 3.59054 3.85211 0
M  V30 2177 H 198.203 2.85714 2.47338 0
M  V30 2178 H 198.516 6.2329 4.56869 0
M  V30 2179 H 196.861 5.60131 4.11435 0
M  V30 2180 H 200.052 3.59367 2.99955 0
M  V30 2181 H 200.225 5.13291 3.9552 0
M  V30 2182 N 193.631 -1.12557 1.10312 0
M  V30 2183 C 194.879 -1.83675 0.843091 0
M  V30 2184 C 195.2 -1.84435 -0.633131 0
M  V30 2185 O 194.47 -1.30657 -1.45964 0
M  V30 2186 H 193.05 -0.680138 0.308904 0
M  V30 2187 H 195.712 -1.36301 1.39313 0
M  V30 2188 H 194.808 -2.87908 1.2048 0
M  V30 2189 N 195.109 -0.891671 -1.2995 0
M  V30 2190 C 196.355 -0.523649 -1.96544 0
M  V30 2191 C 196.71 0.918394 -1.69066 0
M  V30 2192 O 196.003 1.64122 -0.988659 0
M  V30 2193 C 196.197 -0.742868 -3.49594 0
M  V30 2194 C 196.026 -2.20467 -3.9195 0
M  V30 2195 C 194.796 -2.85055 -4.17219 0
M  V30 2196 C 196.994 -3.17912 -4.04273 0
M  V30 2197 N 194.976 -4.21762 -4.46083 0
M  V30 2198 C 196.347 -4.39712 -4.37097 0
M  V30 2199 C 198.402 -3.1361 -3.86721 0
M  V30 2200 C 197.105 -5.5776 -4.54199 0
M  V30 2201 C 199.131 -4.30936 -4.05028 0
M  V30 2202 C 198.493 -5.51504 -4.38204 0
M  V30 2203 H 194.592 -0.241072 -0.743914 0
M  V30 2204 H 197.176 -1.15081 -1.5705 0
M  V30 2205 H 195.347 -0.14515 -3.88129 0
M  V30 2206 H 197.079 -0.341081 -4.0326 0
M  V30 2207 H 193.834 -2.35889 -4.10674 0
M  V30 2208 H 194.258 -4.92382 -4.64638 0
M  V30 2209 H 198.9 -2.21489 -3.60142 0
M  V30 2210 H 196.618 -6.50379 -4.79618 0
M  V30 2211 H 200.204 -4.29085 -3.92909 0
M  V30 2212 H 199.084 -6.40778 -4.52077 0
M  V30 2213 N 196.587 1.43421 -0.653314 0
M  V30 2214 C 197.55 2.29182 0.0287951 0
M  V30 2215 C 198.55 1.42213 0.750465 0
M  V30 2216 O 199.74 1.63843 0.591701 0
M  V30 2217 C 196.872 3.24278 1.05151 0
M  V30 2218 H 198.065 2.90985 -0.725786 0
M  V30 2219 H 195.618 1.50702 -0.414545 0
M  V30 2220 H 196.353 2.6737 1.83532 0
M  V30 2221 H 196.138 3.88396 0.537687 0
M  V30 2222 H 197.628 3.88647 1.52786 0
M  V30 2223 N 198.065 0.39524 1.52563 0
M  V30 2224 C 199.314 -0.186321 2.00838 0
M  V30 2225 C 199.627 -1.47402 1.28577 0
M  V30 2226 O 200.833 -2.13599 1.67593 0
M  V30 2227 C 199.289 -0.382595 3.57861 0
M  V30 2228 C 198.897 0.892202 4.39026 0
M  V30 2229 C 200.641 -0.9202 4.14406 0
M  V30 2230 C 198.548 0.66388 5.87662 0
M  V30 2231 H 197.478 -0.0734041 0.750418 0
M  V30 2232 H 200.129 0.518552 1.76021 0
M  V30 2233 H 198.511 -1.14946 3.7895 0
M  V30 2234 H 199.685 1.66414 4.29701 0
M  V30 2235 H 198 1.35519 3.9373 0
M  V30 2236 H 200.597 -1.10683 5.23119 0
M  V30 2237 H 200.94 -1.89096 3.70875 0
M  V30 2238 H 201.473 -0.212751 3.97231 0
M  V30 2239 H 198.212 1.6058 6.35527 0
M  V30 2240 H 197.732 -0.0690193 5.9976 0
M  V30 2241 H 199.411 0.300699 6.46301 0
M  V30 2242 N 199.544 -1.57102 0.125237 0
M  V30 2243 C 200.492 -2.16905 -0.839927 0
M  V30 2244 C 201.486 -1.11998 -1.27094 0
M  V30 2245 O 202.692 -1.3029 -1.24195 0
M  V30 2246 H 199.067 -0.694252 -0.288995 0
M  V30 2247 H 201.038 -2.96774 -0.311115 0
M  V30 2248 C 199.787 -2.78795 -2.07771 0
M  V30 2249 H 199.11 -3.59221 -1.755 0
M  V30 2250 H 200.55 -3.2417 -2.73295 0
M  V30 2251 C 199.009 -1.76193 -2.87155 0
M  V30 2252 O 199.539 -1.21909 -3.82755 0
M  V30 2253 N 197.745 -1.45991 -2.51267 0
M  V30 2254 H 197.292 -1.90325 -1.73592 0
M  V30 2255 H 197.25 -0.775844 -3.04677 0
M  V30 2256 N 201.022 0.148545 -1.56898 0
M  V30 2257 C 202.268 0.862694 -1.83536 0
M  V30 2258 C 202.601 1.80889 -0.706604 0
M  V30 2259 O 201.876 1.92328 0.289885 0
M  V30 2260 C 202.159 1.63853 -3.20662 0
M  V30 2261 C 202.012 0.713925 -4.44098 0
M  V30 2262 C 203.331 2.60133 -3.54991 0
M  V30 2263 H 200.45 0.312179 -0.667618 0
M  V30 2264 H 203.092 0.127953 -1.89569 0
M  V30 2265 H 201.242 2.26489 -3.1565 0
M  V30 2266 H 202.914 0.098686 -4.61194 0
M  V30 2267 H 201.157 0.0234019 -4.33794 0
M  V30 2268 H 201.828 1.29278 -5.36648 0
M  V30 2269 H 204.304 2.07616 -3.60603 0
M  V30 2270 H 203.18 3.11468 -4.51972 0
M  V30 2271 H 203.441 3.41417 -2.80868 0
M  V30 2272 N 202.5 1.5196 0.417844 0
M  V30 2273 C 203.748 1.65263 1.16329 0
M  V30 2274 C 204.069 0.380634 1.91249 0
M  V30 2275 O 203.339 -0.604214 1.86349 0
M  V30 2276 H 201.919 0.60912 0.432414 0
M  V30 2277 H 204.581 1.88969 0.477162 0
M  V30 2278 H 203.677 2.4896 1.88217 0
M  V30 2279 N 203.978 -0.674533 1.42435 0
M  V30 2280 C 205.226 -1.43175 1.42637 0
M  V30 2281 C 205.547 -1.94951 0.0438992 0
M  V30 2282 O 204.817 -1.7308 -0.917607 0
M  V30 2283 H 203.397 -0.531307 0.525092 0
M  V30 2284 H 206.059 -0.797006 1.77859 0
M  V30 2285 H 205.155 -2.28463 2.12629 0
M  V30 2286 N 205.456 -1.28612 -0.910864 0
M  V30 2287 C 206.704 -1.15705 -1.65701 0
M  V30 2288 C 207.025 0.29416 -1.92769 0
M  V30 2289 O 206.295 1.20331 -1.54588 0
M  V30 2290 H 204.875 -0.425216 -0.614167 0
M  V30 2291 H 207.537 -1.61381 -1.0928 0
M  V30 2292 H 206.633 -1.6988 -2.61815 0
M  V30 2293 N 206.934 1.1197 -1.10907 0
M  V30 2294 C 208.181 1.83588 -0.854507 0
M  V30 2295 C 208.509 1.84357 0.6199 0
M  V30 2296 O 207.764 1.28809 1.47332 0
M  V30 2297 C 208.063 3.30749 -1.35425 0
M  V30 2298 C 207.729 3.50146 -2.84093 0
M  V30 2299 C 206.391 3.55148 -3.2469 0
M  V30 2300 C 208.743 3.56857 -3.79872 0
M  V30 2301 C 206.071 3.6441 -4.59806 0
M  V30 2302 C 208.423 3.6765 -5.14797 0
M  V30 2303 C 207.087 3.7091 -5.54961 0
M  V30 2304 H 206.357 0.671795 -0.312686 0
M  V30 2305 H 209.004 1.32091 -1.38652 0
M  V30 2306 H 207.309 3.84703 -0.742361 0
M  V30 2307 H 209.006 3.8464 -1.1337 0
M  V30 2308 H 205.596 3.46919 -2.51685 0
M  V30 2309 H 209.78 3.52258 -3.49611 0
M  V30 2310 H 205.036 3.65208 -4.9034 0
M  V30 2311 H 209.21 3.71786 -5.88853 0
M  V30 2312 H 206.837 3.7784 -6.59652 0
M  V30 2313 N 208.412 0.89855 1.29475 0
M  V30 2314 C 209.362 0.346767 2.25348 0
M  V30 2315 C 210.346 -0.532509 1.51833 0
M  V30 2316 O 211.538 -0.374714 1.72988 0
M  V30 2317 C 208.667 -0.425681 3.40651 0
M  V30 2318 C 207.753 0.46845 4.21505 0
M  V30 2319 N 208.144 1.57514 4.80648 0
M  V30 2320 C 206.442 0.26603 4.45206 0
M  V30 2321 C 207.143 2.12889 5.41344 0
M  V30 2322 N 206.119 1.42208 5.24669 0
M  V30 2323 H 209.921 1.19219 2.68634 0
M  V30 2324 H 207.435 0.749473 1.44072 0
M  V30 2325 H 209.432 -0.837716 4.08397 0
M  V30 2326 H 208.092 -1.26838 2.98902 0
M  V30 2327 H 209.103 1.95789 4.79465 0
M  V30 2328 H 205.78 -0.538394 4.14014 0
M  V30 2329 H 207.17 3.05901 5.98226 0
M  V30 2330 N 209.89 -1.43072 0.660911 0
M  V30 2331 C 210.84 -2.27948 -0.04847 0
M  V30 2332 C 211.824 -1.40325 -0.787246 0
M  V30 2333 O 213.016 -1.63893 -0.668446 0
M  V30 2334 C 210.145 -3.28143 -1.00881 0
M  V30 2335 C 209.231 -4.23252 -0.268108 0
M  V30 2336 N 209.622 -5.00656 0.719528 0
M  V30 2337 C 207.92 -4.43092 -0.508493 0
M  V30 2338 C 208.621 -5.70019 1.15988 0
M  V30 2339 N 207.597 -5.41364 0.492584 0
M  V30 2340 H 211.399 -2.85213 0.709279 0
M  V30 2341 H 208.913 -1.54869 0.488822 0
M  V30 2342 H 210.91 -3.87736 -1.53188 0
M  V30 2343 H 209.57 -2.7244 -1.76654 0
M  V30 2344 H 210.581 -5.06115 1.09855 0
M  V30 2345 H 207.258 -3.98449 -1.24679 0
M  V30 2346 H 208.648 -6.4214 1.97751 0
M  V30 2347 N 211.368 -0.403325 -1.52352 0
M  V30 2348 C 212.608 0.173946 -2.03659 0
M  V30 2349 C 212.972 1.42869 -1.28267 0
M  V30 2350 O 214.173 2.08403 -1.69769 0
M  V30 2351 C 212.444 0.421478 -3.54906 0
M  V30 2352 S 214.003 0.967027 -4.28012 0
M  V30 2353 H 210.821 0.0477461 -0.709395 0
M  V30 2354 H 213.423 -0.554906 -1.87459 0
M  V30 2355 H 212.127 -0.498616 -4.0736 0
M  V30 2356 H 211.658 1.17837 -3.75337 0
M  V30 2357 H 213.673 2.24812 -4.4235 0
M  V30 2358 N 212.846 1.57033 -0.133567 0
M  V30 2359 C 214.071 2.00475 0.531477 0
M  V30 2360 C 214.496 1.01291 1.58499 0
M  V30 2361 O 213.854 -0.0133279 1.81295 0
M  V30 2362 C 213.902 3.42729 1.12113 0
M  V30 2363 O 213.006 3.46498 2.23636 0
M  V30 2364 H 212.347 0.650876 0.131362 0
M  V30 2365 H 214.877 2.03344 -0.22634 0
M  V30 2366 H 214.887 3.81246 1.4531 0
M  V30 2367 H 213.562 4.14428 0.349557 0
M  V30 2368 H 212.139 3.19811 1.91769 0
M  V30 2369 N 214.325 -0.140222 1.56975 0
M  V30 2370 C 215.55 -0.870414 1.88251 0
M  V30 2371 C 215.975 -1.73637 0.723312 0
M  V30 2372 O 215.333 -1.78329 -0.32689 0
M  V30 2373 C 215.381 -1.69737 3.18154 0
M  V30 2374 O 214.485 -2.80229 3.02565 0
M  V30 2375 H 213.826 -0.242025 0.61832 0
M  V30 2376 H 216.356 -0.128999 2.04193 0
M  V30 2377 H 216.366 -2.09099 3.50345 0
M  V30 2378 H 215.041 -1.06152 4.02125 0
M  V30 2379 H 213.618 -2.44224 2.81796 0
M  V30 2380 N 215.803 -1.52179 -0.40978 0
M  V30 2381 C 217.08 -1.56769 -1.16974 0
M  V30 2382 C 217.46 -0.348322 -2.08206 0
M  V30 2383 O 216.808 0.664862 -2.18613 0
M  V30 2384 C 217.018 -2.89603 -1.9476 0
M  V30 2385 C 218.366 -3.42579 -2.50849 0
M  V30 2386 O 219.39 -2.91338 -2.04941 0
M  V30 2387 O 218.249 -4.32054 -3.34652 0
M  V30 2388 H 215.343 -0.631439 -0.534054 0
M  V30 2389 H 217.889 -1.64507 -0.416613 0
M  V30 2390 H 216.661 -3.698 -1.27921 0
M  V30 2391 H 216.284 -2.85155 -2.77079 0
M  V30 2392 N 217.281 0.66697 -1.42791 0
M  V30 2393 C 218.697 0.981027 -1.25889 0
M  V30 2394 C 218.897 2.00793 -0.168695 0
M  V30 2395 O 217.953 2.48321 0.45747 0
M  V30 2396 C 219.266 1.47838 -2.61848 0
M  V30 2397 C 220.814 1.59575 -2.69267 0
M  V30 2398 C 221.289 2.12704 -4.05612 0
M  V30 2399 N 222.78 2.20026 -4.07606 0
M  V30 2400 C 223.515 2.62227 -5.09926 0
M  V30 2401 N 223.011 3.03824 -6.22626 0
M  V30 2402 N 224.804 2.62045 -4.97281 0
M  V30 2403 H 216.955 -0.0127891 -2.12396 0
M  V30 2404 H 219.218 0.0568258 -0.946295 0
M  V30 2405 H 218.924 0.798299 -3.4252 0
M  V30 2406 H 218.798 2.45579 -2.86305 0
M  V30 2407 H 221.185 2.26687 -1.88936 0
M  V30 2408 H 221.266 0.60302 -2.48591 0
M  V30 2409 H 220.91 1.46198 -4.86404 0
M  V30 2410 H 220.84 3.12782 -4.23645 0
M  V30 2411 H 223.331 1.90708 -3.2625 0
M  V30 2412 H 223.644 3.34734 -6.96544 0
M  V30 2413 H 221.989 3.01662 -6.26119 0
M  V30 2414 H 225.18 2.28916 -4.08308 0
M  V30 2415 H 225.353 2.94613 -5.77154 0
M  V30 2416 N 218.759 1.29093 0.90403 0
M  V30 2417 C 220.007 1.16583 1.65085 0
M  V30 2418 C 220.328 -0.283933 1.92922 0
M  V30 2419 O 219.598 -1.19509 1.55224 0
M  V30 2420 H 218.178 0.428467 0.611903 0
M  V30 2421 H 220.84 1.61959 1.08422 0
M  V30 2422 H 219.936 1.71266 2.6091 0
M  V30 2423 N 220.237 -1.11381 1.11499 0
M  V30 2424 C 221.485 -1.8277 0.862524 0
M  V30 2425 C 221.806 -1.85097 -0.613534 0
M  V30 2426 O 221.076 -1.32198 -1.4457 0
M  V30 2427 H 219.656 -0.676823 0.316101 0
M  V30 2428 H 222.318 -1.34816 1.4075 0
M  V30 2429 H 221.414 -2.86614 1.23527 0
M  V30 2430 N 221.715 -0.905404 -1.28997 0
M  V30 2431 C 222.963 -0.533192 -1.9494 0
M  V30 2432 C 223.284 0.924618 -1.71685 0
M  V30 2433 O 222.554 1.65268 -1.05183 0
M  V30 2434 H 221.134 -0.194194 -0.721317 0
M  V30 2435 H 223.796 -1.15294 -1.57141 0
M  V30 2436 H 222.892 -0.72059 -3.03667 0
M  V30 2437 N 223.193 1.4272 -0.668489 0
M  V30 2438 C 224.44 2.01624 -0.18814 0
M  V30 2439 C 224.768 1.5282 1.20317 0
M  V30 2440 O 224.023 0.718323 1.8204 0
M  V30 2441 C 224.322 3.57021 -0.164499 0
M  V30 2442 C 223.988 4.25232 -1.49962 0
M  V30 2443 C 222.65 4.4358 -1.8652 0
M  V30 2444 C 225.002 4.63727 -2.37921 0
M  V30 2445 C 222.33 4.97694 -3.10674 0
M  V30 2446 C 224.682 5.19218 -3.6138 0
M  V30 2447 C 223.346 5.3578 -3.98115 0
M  V30 2448 H 222.616 0.737795 -0.0688454 0
M  V30 2449 H 225.263 1.70991 -0.862225 0
M  V30 2450 H 223.568 3.87285 0.593079 0
M  V30 2451 H 225.265 4.00372 0.224271 0
M  V30 2452 H 221.855 4.11306 -1.20522 0
M  V30 2453 H 226.039 4.4923 -2.10964 0
M  V30 2454 H 221.295 5.08702 -3.39164 0
M  V30 2455 H 225.469 5.4799 -4.29743 0
M  V30 2456 H 223.096 5.77475 -4.94395 0
M  V30 2457 N 224.671 0.411399 1.52136 0
M  V30 2458 C 225.911 -0.163143 2.03748 0
M  V30 2459 C 226.275 -1.42187 1.29022 0
M  V30 2460 O 227.476 -2.075 1.70872 0
M  V30 2461 C 225.747 -0.402651 3.55125 0
M  V30 2462 S 227.306 -0.944315 4.28519 0
M  V30 2463 H 224.124 -0.0439833 0.709638 0
M  V30 2464 H 226.726 0.56484 1.87163 0
M  V30 2465 H 225.43 0.520212 4.0709 0
M  V30 2466 H 224.961 -1.15844 3.75957 0
M  V30 2467 H 226.976 -2.22463 4.43536 0
M  V30 2468 N 226.149 -1.5696 0.141893 0
M  V30 2469 C 227.112 -2.15316 -0.785587 0
M  V30 2470 C 228.112 -1.09366 -1.1788 0
M  V30 2471 O 229.302 -1.35031 -1.10056 0
M  V30 2472 C 226.434 -2.71211 -2.06537 0
M  V30 2473 H 227.627 -2.98608 -0.278041 0
M  V30 2474 H 225.18 -1.5593 -0.107519 0
M  V30 2475 H 225.915 -1.91571 -2.6167 0
M  V30 2476 H 225.7 -3.4872 -1.79268 0
M  V30 2477 H 227.19 -3.16189 -2.72789 0
M  V30 2478 N 227.627 0.131896 -1.57047 0
M  V30 2479 C 228.857 0.855219 -1.88068 0
M  V30 2480 C 229.265 1.74557 -0.729817 0
M  V30 2481 O 228.608 1.81083 0.308962 0
M  V30 2482 C 228.67 1.75119 -3.13964 0
M  V30 2483 C 228.334 1.03646 -4.45091 0
M  V30 2484 C 229.331 0.383276 -5.18485 0
M  V30 2485 C 227.016 1.02148 -4.91804 0
M  V30 2486 C 229.01 -0.275347 -6.36805 0
M  V30 2487 C 226.697 0.359047 -6.10044 0
M  V30 2488 C 227.695 -0.288222 -6.82392 0
M  V30 2489 O 227.383 -0.94011 -7.98384 0
M  V30 2490 H 227.115 0.251864 -0.627328 0
M  V30 2491 H 229.669 0.124782 -2.05021 0
M  V30 2492 H 227.899 2.52295 -2.9306 0
M  V30 2493 H 229.588 2.3478 -3.31109 0
M  V30 2494 H 230.354 0.386562 -4.83457 0
M  V30 2495 H 226.233 1.5147 -4.35405 0
M  V30 2496 H 229.777 -0.781148 -6.93213 0
M  V30 2497 H 225.674 0.35348 -6.44531 0
M  V30 2498 H 226.442 -0.84329 -8.14144 0
M  V30 2499 N 229.106 1.52395 0.401703 0
M  V30 2500 C 230.069 1.75636 1.47257 0
M  V30 2501 C 231.069 0.62628 1.48103 0
M  V30 2502 O 232.259 0.894227 1.49497 0
M  V30 2503 C 229.391 1.84553 2.86624 0
M  V30 2504 H 230.584 2.71241 1.27938 0
M  V30 2505 H 228.137 1.42923 0.632662 0
M  V30 2506 H 228.872 0.908882 3.11303 0
M  V30 2507 H 228.657 2.66715 2.87412 0
M  V30 2508 H 230.147 2.04251 3.64241 0
M  V30 2509 N 230.584 -0.659388 1.43143 0
M  V30 2510 C 231.861 -1.41627 1.34912 0
M  V30 2511 C 232.241 -2.11099 -0.00607785 0
M  V30 2512 O 231.589 -2.04353 -1.02236 0
M  V30 2513 C 231.799 -2.40604 2.52805 0
M  V30 2514 C 233.147 -3.04789 2.95616 0
M  V30 2515 O 234.171 -2.50932 2.52807 0
M  V30 2516 O 233.03 -4.02421 3.69756 0
M  V30 2517 H 230.124 -0.63246 0.532844 0
M  V30 2518 H 232.67 -0.686814 1.5518 0
M  V30 2519 H 231.442 -1.88174 3.43083 0
M  V30 2520 H 231.065 -3.21009 2.34604 0
M  V30 2521 N 232.062 -1.29571 -0.897171 0
M  V30 2522 C 233.311 -1.1706 -1.64256 0
M  V30 2523 C 233.624 0.276476 -1.93636 0
M  V30 2524 O 234.83 0.52294 -2.66416 0
M  V30 2525 C 233.286 -2.0475 -2.95982 0
M  V30 2526 C 232.894 -3.54295 -2.74187 0
M  V30 2527 C 234.638 -2.0097 -3.73914 0
M  V30 2528 C 232.545 -4.34081 -4.01656 0
M  V30 2529 H 231.475 -0.43452 -0.616205 0
M  V30 2530 H 234.126 -1.54229 -0.994268 0
M  V30 2531 H 232.508 -1.60452 -3.62038 0
M  V30 2532 H 233.682 -4.06662 -2.1671 0
M  V30 2533 H 231.997 -3.59773 -2.09648 0
M  V30 2534 H 234.594 -2.57838 -4.68427 0
M  V30 2535 H 234.937 -0.990273 -4.0435 0
M  V30 2536 H 235.47 -2.43325 -3.14703 0
M  V30 2537 H 232.209 -5.36671 -3.76384 0
M  V30 2538 H 231.729 -3.86483 -4.58684 0
M  V30 2539 H 233.408 -4.44877 -4.69781 0
M  V30 2540 N 233.54 1.10788 -1.12088 0
M  V30 2541 C 234.768 1.86461 -0.896651 0
M  V30 2542 C 235.183 1.80492 0.553912 0
M  V30 2543 O 234.54 1.19102 1.38278 0
M  V30 2544 C 234.591 3.35006 -1.35843 0
M  V30 2545 O 234.312 3.40866 -2.75213 0
M  V30 2546 C 235.813 4.27565 -1.1706 0
M  V30 2547 H 233.033 0.589425 -0.320654 0
M  V30 2548 H 235.577 1.40076 -1.48993 0
M  V30 2549 H 233.732 3.7887 -0.808458 0
M  V30 2550 H 234.146 4.33411 -2.9539 0
M  V30 2551 H 235.62 5.30007 -1.54263 0
M  V30 2552 H 236.097 4.3906 -0.110814 0
M  V30 2553 H 236.703 3.89501 -1.70789 0
M  V30 2554 N 235.018 0.912232 1.28515 0
M  V30 2555 C 235.948 0.416403 2.29757 0
M  V30 2556 C 236.929 -0.515194 1.6211 0
M  V30 2557 O 238.114 -0.423253 1.89532 0
M  V30 2558 C 235.244 -0.34572 3.45575 0
M  V30 2559 C 234.198 0.496599 4.25109 0
M  V30 2560 C 233.524 -0.393771 5.33248 0
M  V30 2561 C 234.824 1.75307 4.92001 0
M  V30 2562 H 236.518 1.26249 2.7148 0
M  V30 2563 H 234.064 0.608515 1.30511 0
M  V30 2564 H 236.017 -0.703422 4.15488 0
M  V30 2565 H 234.741 -1.2257 3.02728 0
M  V30 2566 H 233.4 0.8368 3.56922 0
M  V30 2567 H 233.048 -1.27225 4.86644 0
M  V30 2568 H 232.748 0.166209 5.87365 0
M  V30 2569 H 234.272 -0.747389 6.06009 0
M  V30 2570 H 235.686 1.46437 5.54283 0
M  V30 2571 H 234.083 2.25534 5.56106 0
M  V30 2572 H 235.153 2.48176 4.16577 0
M  V30 2573 N 236.496 -1.42363 0.676048 0
M  V30 2574 C 237.459 -2.29199 0.00766941 0
M  V30 2575 C 238.459 -1.43389 -0.727745 0
M  V30 2576 O 239.649 -1.64764 -0.56556 0
M  V30 2577 C 236.781 -3.2591 -0.999785 0
M  V30 2578 H 237.974 -2.89794 0.771988 0
M  V30 2579 H 235.527 -1.50024 0.438468 0
M  V30 2580 H 236.262 -2.70256 -1.79255 0
M  V30 2581 H 236.047 -3.89202 -0.475829 0
M  V30 2582 H 237.537 -3.91028 -1.46583 0
M  V30 2583 N 237.974 -0.419461 -1.51915 0
M  V30 2584 C 239.223 0.154346 -2.01109 0
M  V30 2585 C 239.536 1.45338 -1.30905 0
M  V30 2586 O 240.742 2.10906 -1.7097 0
M  V30 2587 C 239.198 0.325615 -3.58424 0
M  V30 2588 C 238.806 -0.961934 -4.37551 0
M  V30 2589 C 240.55 0.854155 -4.15818 0
M  V30 2590 C 238.457 -0.757287 -5.86531 0
M  V30 2591 H 237.387 0.0614563 -0.751491 0
M  V30 2592 H 240.038 -0.54649 -1.75173 0
M  V30 2593 H 238.42 1.08903 -3.80731 0
M  V30 2594 H 239.594 -1.7323 -4.26999 0
M  V30 2595 H 237.909 -1.41766 -3.91524 0
M  V30 2596 H 240.506 1.02346 -5.24814 0
M  V30 2597 H 240.849 1.83172 -3.73837 0
M  V30 2598 H 241.382 0.149528 -3.97519 0
M  V30 2599 H 238.121 -1.70671 -6.32892 0
M  V30 2600 H 237.641 -0.0264061 -5.99794 0
M  V30 2601 H 239.32 -0.403482 -6.45741 0
M  V30 2602 N 239.452 1.56882 -0.150215 0
M  V30 2603 C 240.399 2.16922 0.788244 0
M  V30 2604 C 241.369 1.10303 1.24187 0
M  V30 2605 O 242.554 1.38359 1.31383 0
M  V30 2606 C 239.694 2.79754 2.02068 0
M  V30 2607 C 238.807 4.00775 1.61257 0
M  V30 2608 C 237.942 4.51595 2.79705 0
M  V30 2609 C 236.981 5.65074 2.35282 0
M  V30 2610 N 236.118 6.10499 3.4675 0
M  V30 2611 H 240.958 2.96779 0.269444 0
M  V30 2612 H 238.495 1.46599 0.12128 0
M  V30 2613 H 240.453 3.14329 2.74323 0
M  V30 2614 H 239.083 2.02536 2.51354 0
M  V30 2615 H 238.135 3.72158 0.787553 0
M  V30 2616 H 239.447 4.82978 1.24633 0
M  V30 2617 H 238.601 4.88242 3.60145 0
M  V30 2618 H 237.34 3.68406 3.19576 0
M  V30 2619 H 236.345 5.28 1.53283 0
M  V30 2620 H 237.57 6.50052 1.96493 0
M  V30 2621 H 235.516 5.30243 3.86236 0
M  V30 2622 H 235.433 6.87637 3.14152 0
M  V30 2623 H 236.701 6.51791 4.27537 0
M  V30 2624 N 240.93 -0.123565 1.57115 0
M  V30 2625 C 242.177 -0.832153 1.84612 0
M  V30 2626 C 242.505 -1.80093 0.734627 0
M  V30 2627 O 241.76 -1.93766 -0.27442 0
M  V30 2628 C 242.059 -1.62016 3.18568 0
M  V30 2629 C 241.725 -0.796084 4.43817 0
M  V30 2630 C 240.387 -0.568816 4.77826 0
M  V30 2631 C 242.739 -0.221364 5.2073 0
M  V30 2632 C 240.067 0.243499 5.86194 0
M  V30 2633 C 242.419 0.578117 6.29953 0
M  V30 2634 C 241.083 0.815744 6.62497 0
M  V30 2635 H 240.353 -0.304507 0.675542 0
M  V30 2636 H 243 -0.0947248 1.91266 0
M  V30 2637 H 241.305 -2.42837 3.0747 0
M  V30 2638 H 243.002 -2.17231 3.37064 0
M  V30 2639 H 239.592 -0.983307 4.17168 0
M  V30 2640 H 243.776 -0.384173 4.94811 0
M  V30 2641 H 239.032 0.436871 6.09837 0
M  V30 2642 H 243.206 1.03046 6.88734 0
M  V30 2643 H 240.833 1.44701 7.46301 0
M  V30 2644 N 242.408 -1.52605 -0.393616 0
M  V30 2645 C 243.338 -1.80022 -1.48709 0
M  V30 2646 C 244.319 -0.651995 -1.57108 0
M  V30 2647 O 245.504 -0.89913 -1.72132 0
M  V30 2648 C 242.634 -1.96492 -2.86371 0
M  V30 2649 C 241.588 -3.12161 -2.92813 0
M  V30 2650 C 240.914 -3.13877 -4.3288 0
M  V30 2651 C 242.214 -4.51322 -2.6288 0
M  V30 2652 H 243.908 -2.71589 -1.26015 0
M  V30 2653 H 241.454 -1.30684 -0.604778 0
M  V30 2654 H 243.407 -2.14255 -3.62867 0
M  V30 2655 H 242.131 -1.01611 -3.10391 0
M  V30 2656 H 240.79 -2.94173 -2.18764 0
M  V30 2657 H 240.438 -2.16687 -4.53933 0
M  V30 2658 H 240.138 -3.91576 -4.38112 0
M  V30 2659 H 241.662 -3.33789 -5.1129 0
M  V30 2660 H 243.076 -4.69435 -3.29096 0
M  V30 2661 H 241.473 -5.31053 -2.79468 0
M  V30 2662 H 242.543 -4.58353 -1.58242 0
M  V30 2663 N 243.887 0.651787 -1.4349 0
M  V30 2664 C 245.134 1.41167 -1.45183 0
M  V30 2665 C 245.462 1.94349 -0.0766601 0
M  V30 2666 O 244.717 1.72804 0.918555 0
M  V30 2667 C 245.016 2.60914 -2.44251 0
M  V30 2668 C 244.682 2.26142 -3.9009 0
M  V30 2669 C 243.344 2.16371 -4.2981 0
M  V30 2670 C 245.696 1.98334 -4.81989 0
M  V30 2671 C 243.024 1.7695 -5.5938 0
M  V30 2672 C 245.376 1.6041 -6.11924 0
M  V30 2673 C 244.04 1.49166 -6.5062 0
M  V30 2674 H 243.31 0.516566 -0.531263 0
M  V30 2675 H 245.957 0.741099 -1.76579 0
M  V30 2676 H 244.262 3.3311 -2.06265 0
M  V30 2677 H 245.959 3.19127 -2.42815 0
M  V30 2678 H 242.549 2.34658 -3.58655 0
M  V30 2679 H 246.733 2.04803 -4.52072 0
M  V30 2680 H 241.989 1.66831 -5.88198 0
M  V30 2681 H 246.163 1.37925 -6.82605 0
M  V30 2682 H 243.79 1.1839 -7.50925 0
M  V30 2683 N 245.365 1.30045 0.890287 0
M  V30 2684 C 246.275 1.17885 2.02831 0
M  V30 2685 C 247.291 0.0999609 1.73713 0
M  V30 2686 O 248.467 0.313867 1.98939 0
M  V30 2687 C 245.532 0.866079 3.35708 0
M  V30 2688 C 244.593 2.02979 3.78283 0
M  V30 2689 C 243.826 1.73184 5.0482 0
M  V30 2690 O 244.049 0.657237 5.66601 0
M  V30 2691 O 242.983 2.58267 5.43674 0
M  V30 2692 H 246.809 2.13474 2.16015 0
M  V30 2693 H 244.394 1.09587 1.01543 0
M  V30 2694 H 246.276 0.706623 4.15433 0
M  V30 2695 H 244.951 -0.0599443 3.23644 0
M  V30 2696 H 243.858 2.24454 2.99285 0
M  V30 2697 H 245.191 2.93734 3.94944 0
M  V30 2698 N 246.843 -1.10192 1.12674 0
M  V30 2699 C 248.259 -1.34235 0.863317 0
M  V30 2700 C 248.459 -1.95062 -0.505277 0
M  V30 2701 O 247.515 -2.19192 -1.25345 0
M  V30 2702 C 248.828 -2.2616 1.98172 0
M  V30 2703 C 250.376 -2.3969 2.0129 0
M  V30 2704 C 250.851 -3.34946 3.1237 0
M  V30 2705 N 252.342 -3.42515 3.11829 0
M  V30 2706 C 253.077 -4.16199 3.94419 0
M  V30 2707 N 252.573 -4.92747 4.87004 0
M  V30 2708 N 254.366 -4.11843 3.82547 0
M  V30 2709 H 246.517 -0.690798 2.00853 0
M  V30 2710 H 248.78 -0.366774 0.874174 0
M  V30 2711 H 248.486 -1.8868 2.96804 0
M  V30 2712 H 248.36 -3.26488 1.88906 0
M  V30 2713 H 250.747 -2.76438 1.03276 0
M  V30 2714 H 250.828 -1.39169 2.14629 0
M  V30 2715 H 250.472 -2.98923 4.10619 0
M  V30 2716 H 250.402 -4.35353 2.96269 0
M  V30 2717 H 252.893 -2.87926 2.44759 0
M  V30 2718 H 253.206 -5.46376 5.46528 0
M  V30 2719 H 251.551 -4.91862 4.91016 0
M  V30 2720 H 254.742 -3.51136 3.0955 0
M  V30 2721 H 254.915 -4.69007 4.47142 0
M  V30 2722 N 248.321 -0.919034 -1.28029 0
M  V30 2723 C 249.567 -0.555757 -1.95036 0
M  V30 2724 C 249.9 0.899198 -1.72128 0
M  V30 2725 O 249.175 1.64023 -1.04531 0
M  V30 2726 C 249.458 -0.872024 -3.49382 0
M  V30 2727 C 249.311 -2.3801 -3.81669 0
M  V30 2728 C 250.63 -0.37185 -4.38526 0
M  V30 2729 H 247.749 -0.203386 -0.708381 0
M  V30 2730 H 250.391 -1.14924 -1.51303 0
M  V30 2731 H 248.541 -0.366946 -3.86763 0
M  V30 2732 H 250.213 -2.9562 -3.54128 0
M  V30 2733 H 248.456 -2.83289 -3.28526 0
M  V30 2734 H 249.127 -2.55192 -4.8947 0
M  V30 2735 H 251.603 -0.804602 -4.08247 0
M  V30 2736 H 250.479 -0.622173 -5.45362 0
M  V30 2737 H 250.74 0.727934 -4.36066 0
M  V30 2738 N 249.799 1.42003 -0.683588 0
M  V30 2739 C 250.709 2.34597 -0.0109075 0
M  V30 2740 C 251.725 1.55576 0.779245 0
M  V30 2741 O 252.901 1.88107 0.719555 0
M  V30 2742 C 249.966 3.34199 0.922588 0
M  V30 2743 C 249.027 4.29115 0.125984 0
M  V30 2744 C 248.26 5.23959 1.01502 0
M  V30 2745 O 248.483 5.23952 2.25456 0
M  V30 2746 O 247.417 6.00053 0.47111 0
M  V30 2747 H 251.243 2.93675 -0.773853 0
M  V30 2748 H 248.828 1.42654 -0.443861 0
M  V30 2749 H 250.71 3.95365 1.45823 0
M  V30 2750 H 249.385 2.77582 1.66523 0
M  V30 2751 H 248.292 3.71335 -0.453969 0
M  V30 2752 H 249.625 4.88798 -0.577736 0
M  V30 2753 N 251.277 0.427512 1.51691 0
M  V30 2754 C 252.525 -0.141948 2.01601 0
M  V30 2755 C 252.846 -1.44067 1.31414 0
M  V30 2756 O 252.116 -1.90763 0.445658 0
M  V30 2757 H 250.696 -0.0554468 0.744939 0
M  V30 2758 H 253.358 0.567968 1.86441 0
M  V30 2759 H 252.454 -0.324913 3.10404 0
M  V30 2760 N 252.755 -1.56801 0.158532 0
M  V30 2761 C 254.004 -1.95665 -0.489702 0
M  V30 2762 C 254.317 -1.04654 -1.65248 0
M  V30 2763 O 255.523 -1.33146 -2.3661 0
M  V30 2764 C 253.979 -3.47874 -0.922582 0
M  V30 2765 C 253.587 -4.47489 0.213893 0
M  V30 2766 C 255.331 -3.95583 -1.53996 0
M  V30 2767 C 253.238 -5.90921 -0.237903 0
M  V30 2768 H 252.168 -0.730516 -0.186716 0
M  V30 2769 H 254.819 -1.81861 0.244722 0
M  V30 2770 H 253.201 -3.57051 -1.71261 0
M  V30 2771 H 254.375 -4.50017 0.991036 0
M  V30 2772 H 252.69 -4.09764 0.740407 0
M  V30 2773 H 255.287 -5.0019 -1.8898 0
M  V30 2774 H 255.63 -3.37789 -2.43319 0
M  V30 2775 H 256.163 -3.8937 -0.814611 0
M  V30 2776 H 252.902 -6.52559 0.620236 0
M  V30 2777 H 252.422 -5.91729 -0.980676 0
M  V30 2778 H 254.101 -6.43352 -0.686067 0
M  V30 2779 N 254.233 0.115231 -1.57178 0
M  V30 2780 C 255.458 0.840354 -1.89612 0
M  V30 2781 C 255.883 1.72464 -0.750845 0
M  V30 2782 O 255.241 1.78826 0.298478 0
M  V30 2783 C 255.289 1.64654 -3.20814 0
M  V30 2784 O 254.393 2.7538 -3.06985 0
M  V30 2785 H 253.734 0.232158 -0.622092 0
M  V30 2786 H 256.264 0.0964977 -2.04372 0
M  V30 2787 H 256.274 2.03499 -3.53627 0
M  V30 2788 H 254.949 0.997416 -4.03763 0
M  V30 2789 H 253.526 2.3971 -2.85646 0
M  V30 2790 N 255.711 1.52812 0.385517 0
M  V30 2791 C 257.127 1.4214 0.725829 0
M  V30 2792 C 257.327 0.544589 1.94001 0
M  V30 2793 O 256.383 0.0193693 2.52493 0
M  V30 2794 C 257.696 2.85042 0.957668 0
M  V30 2795 C 259.244 2.94543 1.05892 0
M  V30 2796 C 259.719 4.38464 1.32337 0
M  V30 2797 N 261.21 4.41804 1.39151 0
M  V30 2798 C 261.945 5.5025 1.61285 0
M  V30 2799 N 261.441 6.68775 1.80866 0
M  V30 2800 N 263.234 5.37798 1.63492 0
M  V30 2801 H 255.385 2.08338 -0.413383 0
M  V30 2802 H 257.648 0.940016 -0.122775 0
M  V30 2803 H 257.354 3.51431 0.137568 0
M  V30 2804 H 257.228 3.27505 1.87137 0
M  V30 2805 H 259.615 2.28321 1.86959 0
M  V30 2806 H 259.696 2.55504 0.123057 0
M  V30 2807 H 259.34 5.05254 0.517793 0
M  V30 2808 H 259.27 4.75059 2.27214 0
M  V30 2809 H 261.761 3.56377 1.25713 0
M  V30 2810 H 262.074 7.47197 1.97271 0
M  V30 2811 H 260.419 6.71797 1.78083 0
M  V30 2812 H 263.61 4.44171 1.47749 0
M  V30 2813 H 263.783 6.22382 1.80402 0
M  V30 2814 N 257.189 -0.644168 1.43834 0
M  V30 2815 C 258.152 -1.73857 1.49353 0
M  V30 2816 C 259.152 -1.56315 0.377112 0
M  V30 2817 O 260.342 -1.62048 0.639226 0
M  V30 2818 C 257.474 -3.12819 1.35488 0
M  V30 2819 H 258.667 -1.70342 2.46827 0
M  V30 2820 H 256.22 -0.856652 1.30733 0
M  V30 2821 H 256.955 -3.2194 0.390569 0
M  V30 2822 H 256.74 -3.26958 2.16428 0
M  V30 2823 H 258.23 -3.92606 1.42302 0
M  V30 2824 N 258.668 -1.30515 -0.883378 0
M  V30 2825 C 259.896 -1.22359 -1.66841 0
M  V30 2826 C 260.311 0.213296 -1.87591 0
M  V30 2827 O 259.668 1.14075 -1.42454 0
M  V30 2828 C 259.719 -1.95011 -3.04389 0
M  V30 2829 O 259.44 -3.3309 -2.84575 0
M  V30 2830 C 260.941 -1.93532 -3.98824 0
M  V30 2831 H 258.161 -0.423371 -0.520575 0
M  V30 2832 H 260.705 -1.72167 -1.10357 0
M  V30 2833 H 258.86 -1.48997 -3.57601 0
M  V30 2834 H 259.274 -3.69907 -3.71846 0
M  V30 2835 H 260.748 -2.48902 -4.92699 0
M  V30 2836 H 261.225 -0.914627 -4.29571 0
M  V30 2837 H 261.831 -2.39364 -3.51547 0
M  V30 2838 N 260.146 1.09593 -1.13257 0
M  V30 2839 C 261.395 1.81105 -0.887917 0
M  V30 2840 C 261.708 1.86563 0.587672 0
M  V30 2841 O 262.914 2.54367 0.949204 0
M  V30 2842 C 261.37 3.25338 -1.53895 0
M  V30 2843 C 260.978 3.28151 -3.04994 0
M  V30 2844 C 262.722 4.01617 -1.37492 0
M  V30 2845 C 260.629 4.66897 -3.6299 0
M  V30 2846 H 259.559 0.678661 -0.328534 0
M  V30 2847 H 262.21 1.23183 -1.36008 0
M  V30 2848 H 260.592 3.8331 -0.994446 0
M  V30 2849 H 261.766 2.79953 -3.66009 0
M  V30 2850 H 260.081 2.65361 -3.20893 0
M  V30 2851 H 262.678 5.04119 -1.78235 0
M  V30 2852 H 263.021 4.15072 -0.31957 0
M  V30 2853 H 263.554 3.50082 -1.88912 0
M  V30 2854 H 260.293 4.58643 -4.68323 0
M  V30 2855 H 259.813 5.15426 -3.06752 0
M  V30 2856 H 261.492 5.3587 -3.62563 0
M  V30 2857 N 261.624 0.925811 1.2754 0
M  V30 2858 C 262.873 0.561084 1.93739 0
M  V30 2859 C 263.186 -0.901685 1.73577 0
M  V30 2860 O 264.392 -1.37511 2.34101 0
M  V30 2861 C 262.848 0.952668 3.47062 0
M  V30 2862 C 262.456 2.43599 3.75983 0
M  V30 2863 C 264.2 0.659103 4.19352 0
M  V30 2864 C 262.107 2.76707 5.22673 0
M  V30 2865 H 261.037 0.206122 0.725279 0
M  V30 2866 H 263.688 1.12637 1.44863 0
M  V30 2867 H 262.07 0.316053 3.94737 0
M  V30 2868 H 263.244 3.12035 3.39073 0
M  V30 2869 H 261.559 2.70125 3.16893 0
M  V30 2870 H 264.156 0.882985 5.27359 0
M  V30 2871 H 264.499 -0.403607 4.14339 0
M  V30 2872 H 265.032 1.25473 3.77494 0
M  V30 2873 H 261.771 3.8188 5.32774 0
M  V30 2874 H 261.291 2.12919 5.60737 0
M  V30 2875 H 262.97 2.6435 5.90532 0
M  V30 2876 N 263.102 -1.41638 0.69111 0
M  V30 2877 C 264.379 -1.95036 0.148421 0
M  V30 2878 C 264.759 -1.63072 -1.34055 0
M  V30 2879 O 264.107 -0.93538 -2.08478 0
M  V30 2880 C 264.317 -3.46279 0.434951 0
M  V30 2881 C 265.665 -4.23069 0.360275 0
M  V30 2882 O 266.689 -3.54277 0.369613 0
M  V30 2883 O 265.548 -5.45583 0.316534 0
M  V30 2884 H 262.642 -0.826908 0.0123654 0
M  V30 2885 H 265.188 -1.5138 0.766963 0
M  V30 2886 H 263.96 -3.6281 1.46576 0
M  V30 2887 H 263.583 -3.97019 -0.214787 0
M  V30 2888 N 264.58 -0.43555 -1.51462 0
M  V30 2889 C 265.51 0.367376 -2.30592 0
M  V30 2890 C 266.491 1.02263 -1.35928 0
M  V30 2891 O 267.676 1.02661 -1.64847 0
M  V30 2892 C 264.806 1.46983 -3.14664 0
M  V30 2893 C 263.76 0.938161 -4.17591 0
M  V30 2894 C 263.086 2.13622 -4.90173 0
M  V30 2895 C 264.386 -0.0261621 -5.22293 0
M  V30 2896 H 266.08 -0.292969 -2.97963 0
M  V30 2897 H 263.626 -0.14234 -1.43295 0
M  V30 2898 H 265.579 2.03873 -3.688 0
M  V30 2899 H 264.303 2.15843 -2.4511 0
M  V30 2900 H 262.962 0.391481 -3.64504 0
M  V30 2901 H 262.61 2.81098 -4.17124 0
M  V30 2902 H 262.31 1.78688 -5.59772 0
M  V30 2903 H 263.834 2.7107 -5.47132 0
M  V30 2904 H 265.248 0.452384 -5.71512 0
M  V30 2905 H 263.645 -0.287992 -5.99409 0
M  V30 2906 H 264.715 -0.963391 -4.75233 0
M  V30 2907 N 266.058 1.56714 -0.166846 0
M  V30 2908 C 267.335 1.88412 0.525373 0
M  V30 2909 C 267.715 1.07602 1.81618 0
M  V30 2910 O 267.063 0.168621 2.27877 0
M  V30 2911 C 267.273 3.40363 0.771613 0
M  V30 2912 C 268.621 4.10007 1.1036 0
M  V30 2913 O 269.645 3.45655 0.860304 0
M  V30 2914 O 268.504 5.2369 1.56239 0
M  V30 2915 H 265.598 0.781587 0.270278 0
M  V30 2916 H 268.144 1.68458 -0.204946 0
M  V30 2917 H 266.916 3.91046 -0.141093 0
M  V30 2918 H 266.539 3.65914 1.55541 0
M  V30 2919 N 267.536 -0.106894 1.57237 0
M  V30 2920 C 268.499 -1.11466 2.0027 0
M  V30 2921 C 269.499 -1.33623 0.894519 0
M  V30 2922 O 270.689 -1.29935 1.16028 0
M  V30 2923 C 267.821 -2.46646 2.35327 0
M  V30 2924 H 269.014 -0.744516 2.90512 0
M  V30 2925 H 266.567 -0.351576 1.52295 0
M  V30 2926 H 267.302 -2.88558 1.48003 0
M  V30 2927 H 267.087 -2.31915 3.16161 0
M  V30 2928 H 268.577 -3.19151 2.69318 0
M  V30 2929 N 269.014 -1.53014 -0.377408 0
M  V30 2930 C 269.964 -1.74996 -1.46152 0
M  V30 2931 C 270.948 -0.604236 -1.49123 0
M  V30 2932 O 272.14 -0.862489 -1.54564 0
M  V30 2933 C 269.269 -1.93267 -2.8373 0
M  V30 2934 C 268.355 -3.13807 -2.85283 0
M  V30 2935 N 268.746 -4.35941 -2.56493 0
M  V30 2936 C 267.044 -3.14288 -3.16448 0
M  V30 2937 C 267.745 -5.17615 -2.65424 0
M  V30 2938 N 266.721 -4.53559 -2.99641 0
M  V30 2939 H 270.523 -2.67044 -1.22738 0
M  V30 2940 H 268.037 -1.51479 -0.585479 0
M  V30 2941 H 270.034 -2.0714 -3.61799 0
M  V30 2942 H 268.694 -1.0244 -3.08117 0
M  V30 2943 H 269.705 -4.63876 -2.30302 0
M  V30 2944 H 266.382 -2.33312 -3.46225 0
M  V30 2945 H 267.772 -6.25006 -2.46612 0
M  V30 2946 N 270.492 0.636531 -1.44174 0
M  V30 2947 C 271.424 1.7618 -1.46606 0
M  V30 2948 C 272.437 1.58768 -0.360091 0
M  V30 2949 O 273.626 1.67181 -0.625518 0
M  V30 2950 C 270.726 3.13833 -1.27915 0
M  V30 2951 C 269.899 3.57753 -2.51658 0
M  V30 2952 C 268.958 4.74265 -2.27945 0
M  V30 2953 O 267.984 4.82852 -3.01401 0
M  V30 2954 N 269.186 5.65604 -1.30662 0
M  V30 2955 H 271.951 1.74567 -2.43612 0
M  V30 2956 H 269.512 0.820924 -1.39544 0
M  V30 2957 H 271.504 3.8949 -1.09907 0
M  V30 2958 H 270.074 3.10121 -0.39293 0
M  V30 2959 H 269.294 2.72362 -2.84978 0
M  V30 2960 H 270.582 3.83847 -3.33974 0
M  V30 2961 H 269.98 5.61354 -0.699844 0
M  V30 2962 H 268.537 6.40913 -1.18634 0
M  V30 2963 N 271.97 1.30982 0.876444 0
M  V30 2964 C 273.218 1.20058 1.62575 0
M  V30 2965 C 273.539 -0.242947 1.93481 0
M  V30 2966 O 272.809 -1.1619 1.57724 0
M  V30 2967 H 271.389 0.44135 0.602677 0
M  V30 2968 H 274.051 1.64222 1.04962 0
M  V30 2969 H 273.147 1.76762 2.57219 0
M  V30 2970 N 273.449 -1.08991 1.13837 0
M  V30 2971 C 274.397 -2.17841 0.815347 0
M  V30 2972 C 275.391 -1.68164 -0.204233 0
M  V30 2973 O 276.597 -1.79897 -0.0609304 0
M  V30 2974 H 272.972 -0.710654 0.245915 0
M  V30 2975 H 274.943 -2.42315 1.74143 0
M  V30 2976 C 273.692 -3.46381 0.302614 0
M  V30 2977 H 273.015 -3.84979 1.0785 0
M  V30 2978 H 274.455 -4.23844 0.115074 0
M  V30 2979 C 272.914 -3.22556 -0.972591 0
M  V30 2980 O 273.444 -3.45599 -2.04754 0
M  V30 2981 N 271.65 -2.76134 -0.905455 0
M  V30 2982 H 271.197 -2.57582 -0.0305421 0
M  V30 2983 H 271.155 -2.60571 -1.75926 0
M  V30 2984 N 274.927 -0.932562 -1.27047 0
M  V30 2985 C 276.175 -0.574422 -1.93765 0
M  V30 2986 C 276.496 0.887993 -1.73608 0
M  V30 2987 O 275.766 1.62999 -1.08665 0
M  V30 2988 H 274.346 -0.209451 -0.717035 0
M  V30 2989 H 277.008 -1.18601 -1.5466 0
M  V30 2990 H 276.104 -0.784841 -3.02071 0
M  V30 2991 N 276.405 1.4127 -0.698611 0
M  V30 2992 C 277.355 2.27997 -0.0119836 0
M  V30 2993 C 278.339 1.42363 0.749765 0
M  V30 2994 O 279.531 1.65607 0.624758 0
M  V30 2995 C 276.66 3.30702 0.921458 0
M  V30 2996 C 275.746 4.23814 0.155796 0
M  V30 2997 N 276.137 4.98572 -0.852015 0
M  V30 2998 C 274.435 4.44284 0.390836 0
M  V30 2999 C 275.136 5.66744 -1.3106 0
M  V30 3000 N 274.112 5.39867 -0.635944 0
M  V30 3001 H 277.914 2.83232 -0.784649 0
M  V30 3002 H 275.428 1.53518 -0.529711 0
M  V30 3003 H 277.425 3.91661 1.42854 0
M  V30 3004 H 276.085 2.77028 1.69369 0
M  V30 3005 H 277.096 5.03024 -1.23235 0
M  V30 3006 H 273.773 4.01614 1.14071 0
M  V30 3007 H 275.163 6.36672 -2.14707 0
M  V30 3008 N 277.883 0.443576 1.51229 0
M  V30 3009 C 278.793 -0.370721 2.31652 0
M  V30 3010 C 279.809 -1.02186 1.40833 0
M  V30 3011 O 280.985 -1.01586 1.73903 0
M  V30 3012 C 278.05 -1.45376 3.14749 0
M  V30 3013 C 277.111 -0.822099 4.21355 0
M  V30 3014 C 276.344 -1.85353 5.0048 0
M  V30 3015 O 276.567 -3.07656 4.80316 0
M  V30 3016 O 275.501 -1.4406 5.84406 0
M  V30 3017 H 279.327 0.286002 3.0235 0
M  V30 3018 H 276.912 0.20598 1.47973 0
M  V30 3019 H 278.794 -2.08173 3.66391 0
M  V30 3020 H 277.469 -2.09445 2.46809 0
M  V30 3021 H 276.376 -0.155909 3.73775 0
M  V30 3022 H 277.709 -0.224797 4.91686 0
M  V30 3023 N 279.361 -1.56624 0.175154 0
M  V30 3024 C 280.777 -1.58571 -0.180966 0
M  V30 3025 C 280.977 -1.19065 -1.6256 0
M  V30 3026 O 280.033 -0.904044 -2.35761 0
M  V30 3027 C 281.346 -3.00522 0.103326 0
M  V30 3028 C 282.894 -3.12972 0.0418426 0
M  V30 3029 C 283.369 -4.57022 0.299175 0
M  V30 3030 N 284.86 -4.62541 0.247086 0
M  V30 3031 C 285.595 -5.71857 0.420318 0
M  V30 3032 N 285.091 -6.89717 0.652816 0
M  V30 3033 N 286.884 -5.60972 0.355957 0
M  V30 3034 H 279.035 -1.80589 1.11809 0
M  V30 3035 H 281.298 -0.837178 0.444788 0
M  V30 3036 H 281.004 -3.33916 1.10422 0
M  V30 3037 H 280.878 -3.72344 -0.603299 0
M  V30 3038 H 283.265 -2.79403 -0.949636 0
M  V30 3039 H 283.346 -2.43578 0.781238 0
M  V30 3040 H 282.99 -4.913 1.28788 0
M  V30 3041 H 282.92 -5.24579 -0.460876 0
M  V30 3042 H 285.411 -3.77829 0.0731895 0
M  V30 3043 H 285.724 -7.68911 0.774347 0
M  V30 3044 H 284.069 -6.91572 0.689476 0
M  V30 3045 H 287.26 -4.67773 0.174882 0
M  V30 3046 H 287.433 -6.46111 0.494388 0
M  V30 3047 N 280.839 0.0985539 -1.57292 0
M  V30 3048 C 282.116 0.834155 -1.76921 0
M  V30 3049 C 282.496 1.97101 -0.755928 0
M  V30 3050 O 281.844 2.27474 0.216245 0
M  V30 3051 C 282.054 1.33194 -3.22584 0
M  V30 3052 C 283.402 1.77611 -3.85668 0
M  V30 3053 O 284.426 1.42825 -3.26312 0
M  V30 3054 O 283.285 2.4192 -4.90038 0
M  V30 3055 H 280.379 0.397628 -0.725135 0
M  V30 3056 H 282.925 0.0807044 -1.69508 0
M  V30 3057 H 281.697 0.517248 -3.87866 0
M  V30 3058 H 281.32 2.1475 -3.34616 0
M  V30 3059 N 282.317 1.53212 0.369288 0
M  V30 3060 C 283.564 1.69215 1.11232 0
M  V30 3061 C 283.892 0.442048 1.8941 0
M  V30 3062 O 283.147 -0.575944 1.87033 0
M  V30 3063 C 283.446 2.89101 2.10132 0
M  V30 3064 C 283.112 4.25758 1.48463 0
M  V30 3065 C 281.774 4.6292 1.31372 0
M  V30 3066 C 284.126 5.10757 1.03811 0
M  V30 3067 C 281.454 5.82722 0.68207 0
M  V30 3068 C 283.806 6.31201 0.420487 0
M  V30 3069 C 282.47 6.67079 0.237038 0
M  V30 3070 H 281.74 0.619201 0.407027 0
M  V30 3071 H 284.387 1.87391 0.394552 0
M  V30 3072 H 282.692 2.65421 2.88199 0
M  V30 3073 H 284.389 2.98676 2.6757 0
M  V30 3074 H 280.979 3.96494 1.62758 0
M  V30 3075 H 285.163 4.82599 1.1581 0
M  V30 3076 H 280.419 6.09113 0.528316 0
M  V30 3077 H 284.593 6.96368 0.0662874 0
M  V30 3078 H 282.22 7.59774 -0.254477 0
M  V30 3079 N 283.795 -0.628877 1.44509 0
M  V30 3080 C 284.728 -1.75367 1.46019 0
M  V30 3081 C 285.706 -1.59444 0.318787 0
M  V30 3082 O 286.89 -1.81297 0.516099 0
M  V30 3083 C 284.017 -3.12965 1.29501 0
M  V30 3084 C 283.063 -3.47532 2.47233 0
M  V30 3085 S 283.896 -3.44758 4.09758 0
M  V30 3086 C 285.052 -4.84973 3.95667 0
M  V30 3087 H 285.285 -1.7382 2.41193 0
M  V30 3088 H 282.818 -0.803686 1.31834 0
M  V30 3089 H 284.776 -3.92367 1.20658 0
M  V30 3090 H 283.437 -3.12049 0.358341 0
M  V30 3091 H 282.63 -4.47664 2.31544 0
M  V30 3092 H 282.232 -2.75598 2.52828 0
M  V30 3093 H 284.524 -5.74255 3.59496 0
M  V30 3094 H 285.467 -5.05716 4.95638 0
M  V30 3095 H 285.875 -4.59653 3.27688 0
M  V30 3096 N 285.273 -1.31445 -0.869486 0
M  V30 3097 C 286.55 -1.11795 -1.60503 0
M  V30 3098 C 286.93 0.327168 -2.08549 0
M  V30 3099 O 286.278 1.32135 -1.8642 0
M  V30 3100 C 286.488 -2.13258 -2.76265 0
M  V30 3101 C 287.836 -2.45805 -3.46215 0
M  V30 3102 O 288.86 -2.11688 -2.86473 0
M  V30 3103 O 287.719 -3.04228 -4.5399 0
M  V30 3104 H 284.813 -0.430421 -0.706163 0
M  V30 3105 H 287.359 -1.42925 -0.914907 0
M  V30 3106 H 286.131 -3.10461 -2.3818 0
M  V30 3107 H 285.754 -1.83035 -3.52964 0
M  V30 3108 N 286.751 1.08385 -1.14413 0
M  V30 3109 C 288.028 1.77429 -0.823297 0
M  V30 3110 C 288.408 1.9974 0.683163 0
M  V30 3111 O 287.756 1.60739 1.62405 0
M  V30 3112 C 287.966 3.09004 -1.62227 0
M  V30 3113 C 289.314 3.83532 -1.82177 0
M  V30 3114 O 290.338 3.18786 -1.58915 0
M  V30 3115 O 289.197 4.99792 -2.21067 0
M  V30 3116 H 286.291 0.769999 -0.301712 0
M  V30 3117 H 288.837 1.14846 -1.24934 0
M  V30 3118 H 287.609 2.88316 -2.64555 0
M  V30 3119 H 287.232 3.79316 -1.19187 0
M  V30 3120 N 288.23 0.939286 1.26551 0
M  V30 3121 C 289.177 0.446088 2.26448 0
M  V30 3122 C 290.147 -0.493234 1.58608 0
M  V30 3123 O 291.332 -0.409857 1.86346 0
M  V30 3124 C 288.472 -0.284375 3.43926 0
M  V30 3125 C 287.585 0.690399 4.26448 0
M  V30 3126 C 286.72 -0.0610712 5.31165 0
M  V30 3127 C 285.759 0.905649 6.05363 0
M  V30 3128 N 284.896 0.186055 7.01853 0
M  V30 3129 H 289.736 1.30291 2.68008 0
M  V30 3130 H 287.273 0.65371 1.31776 0
M  V30 3131 H 289.231 -0.724313 4.10864 0
M  V30 3132 H 287.861 -1.10535 3.03285 0
M  V30 3133 H 286.913 1.24885 3.59316 0
M  V30 3134 H 288.225 1.42873 4.779 0
M  V30 3135 H 287.379 -0.56038 6.04106 0
M  V30 3136 H 286.118 -0.832297 4.80546 0
M  V30 3137 H 285.123 1.4161 5.3125 0
M  V30 3138 H 286.348 1.67685 6.58072 0
M  V30 3139 H 284.294 -0.566714 6.53548 0
M  V30 3140 H 284.211 0.863752 7.51049 0
M  V30 3141 H 285.479 -0.292221 7.78952 0
M  V30 3142 N 289.708 -1.40897 0.706093 0
M  V30 3143 C 291.124 -1.55042 0.37869 0
M  V30 3144 C 291.324 -1.67944 -1.11342 0
M  V30 3145 O 290.38 -1.66372 -1.89938 0
M  V30 3146 C 291.693 -2.78398 1.13643 0
M  V30 3147 C 293.241 -2.92206 1.12181 0
M  V30 3148 C 293.716 -4.18463 1.86152 0
M  V30 3149 N 295.207 -4.25443 1.83173 0
M  V30 3150 C 295.942 -5.2202 2.37239 0
M  V30 3151 N 295.438 -6.24563 2.99821 0
M  V30 3152 N 297.231 -5.14033 2.27435 0
M  V30 3153 H 289.382 -1.30769 1.67372 0
M  V30 3154 H 291.645 -0.631653 0.706907 0
M  V30 3155 H 291.351 -2.7511 2.19106 0
M  V30 3156 H 291.225 -3.70228 0.721853 0
M  V30 3157 H 293.612 -2.95004 0.0754171 0
M  V30 3158 H 293.693 -2.01521 1.57554 0
M  V30 3159 H 293.337 -4.16427 2.90776 0
M  V30 3160 H 293.267 -5.08141 1.38206 0
M  V30 3161 H 295.758 -3.51976 1.37556 0
M  V30 3162 H 296.071 -6.94665 3.38616 0
M  V30 3163 H 294.416 -6.25035 3.03902 0
M  V30 3164 H 297.607 -4.3285 1.78208 0
M  V30 3165 H 297.78 -5.89129 2.69873 0
M  V30 3166 N 291.186 -0.45159 -1.50991 0
M  V30 3167 C 292.432 0.110237 -2.025 0
M  V30 3168 C 292.765 1.41109 -1.33424 0
M  V30 3169 O 292.04 1.89135 -0.453659 0
M  V30 3170 C 292.323 0.314271 -3.58726 0
M  V30 3171 C 292.176 -1.00623 -4.38401 0
M  V30 3172 C 293.495 1.07767 -4.26702 0
M  V30 3173 H 290.614 0.0385897 -0.735989 0
M  V30 3174 H 293.256 -0.593374 -1.80497 0
M  V30 3175 H 291.406 0.913601 -3.77605 0
M  V30 3176 H 293.078 -1.64064 -4.31139 0
M  V30 3177 H 291.321 -1.6075 -4.02917 0
M  V30 3178 H 291.992 -0.817341 -5.45915 0
M  V30 3179 H 294.468 0.56986 -4.12179 0
M  V30 3180 H 293.344 1.18921 -5.35863 0
M  V30 3181 H 293.605 2.10939 -3.88532 0
M  V30 3182 N 292.664 1.56529 -0.183458 0
M  V30 3183 C 293.894 2.01331 0.463612 0
M  V30 3184 C 294.302 1.06278 1.5653 0
M  V30 3185 O 293.645 0.0577976 1.83609 0
M  V30 3186 C 293.707 3.42547 1.09096 0
M  V30 3187 C 293.371 4.56817 0.129442 0
M  V30 3188 C 294.368 5.15734 -0.656807 0
M  V30 3189 C 292.053 5.02295 0.02174 0
M  V30 3190 C 294.047 6.1857 -1.53784 0
M  V30 3191 C 291.734 6.04978 -0.862864 0
M  V30 3192 C 292.732 6.62988 -1.64123 0
M  V30 3193 O 292.42 7.63677 -2.51103 0
M  V30 3194 H 292.152 0.664917 0.121907 0
M  V30 3195 H 294.706 2.034 -0.285954 0
M  V30 3196 H 292.936 3.37428 1.88889 0
M  V30 3197 H 294.625 3.71228 1.64148 0
M  V30 3198 H 295.391 4.81473 -0.583839 0
M  V30 3199 H 291.27 4.56847 0.617392 0
M  V30 3200 H 294.814 6.63777 -2.14583 0
M  V30 3201 H 290.711 6.38663 -0.93699 0
M  V30 3202 H 291.479 7.81049 -2.44753 0
M  V30 3203 N 294.142 -0.090211 1.57342 0
M  V30 3204 C 295.391 -0.791531 1.8552 0
M  V30 3205 C 295.704 -1.79659 0.773441 0
M  V30 3206 O 296.91 -2.54616 0.942497 0
M  V30 3207 C 295.366 -1.45856 3.2902 0
M  V30 3208 C 294.974 -0.493017 4.45279 0
M  V30 3209 C 296.718 -2.14332 3.66418 0
M  V30 3210 C 294.625 -1.16491 5.79814 0
M  V30 3211 H 293.555 -0.299356 0.692027 0
M  V30 3212 H 296.206 -0.0445343 1.83446 0
M  V30 3213 H 294.588 -2.25318 3.2565 0
M  V30 3214 H 295.762 0.270464 4.60006 0
M  V30 3215 H 294.077 0.0863061 4.16311 0
M  V30 3216 H 296.674 -2.65344 4.64216 0
M  V30 3217 H 297.017 -2.93447 2.95287 0
M  V30 3218 H 297.55 -1.41724 3.71698 0
M  V30 3219 H 294.289 -0.41447 6.54188 0
M  V30 3220 H 293.809 -1.8997 5.68921 0
M  V30 3221 H 295.488 -1.69001 6.24538 0
M  V30 3222 N 295.62 -1.53406 -0.361157 0
M  V30 3223 C 296.553 -1.74946 -1.46524 0
M  V30 3224 C 297.531 -0.59795 -1.51206 0
M  V30 3225 O 298.715 -0.831062 -1.69191 0
M  V30 3226 C 295.842 -1.83224 -2.84863 0
M  V30 3227 C 294.888 -3.05233 -2.97885 0
M  V30 3228 S 295.721 -4.6466 -2.66179 0
M  V30 3229 C 296.877 -4.75793 -4.06659 0
M  V30 3230 H 297.11 -2.68319 -1.28033 0
M  V30 3231 H 294.643 -1.44051 -0.555764 0
M  V30 3232 H 296.601 -1.88679 -3.64569 0
M  V30 3233 H 295.262 -0.908948 -3.00661 0
M  V30 3234 H 294.455 -3.07648 -3.9921 0
M  V30 3235 H 294.057 -2.97913 -2.26106 0
M  V30 3236 H 296.349 -4.5612 -5.0096 0
M  V30 3237 H 297.292 -5.7786 -4.09247 0
M  V30 3238 H 297.7 -4.04389 -3.93865 0
M  V30 3239 N 297.098 0.621204 -1.44841 0
M  V30 3240 C 298.375 1.38 -1.38619 0
M  V30 3241 C 298.755 2.11041 -0.0498935 0
M  V30 3242 O 298.103 2.06992 0.967816 0
M  V30 3243 C 298.313 2.33817 -2.59096 0
M  V30 3244 C 299.661 2.96844 -3.03593 0
M  V30 3245 O 300.685 2.44141 -2.59371 0
M  V30 3246 O 299.544 3.92476 -3.80296 0
M  V30 3247 H 296.638 0.61811 -0.549426 0
M  V30 3248 H 299.184 0.645429 -1.56947 0
M  V30 3249 H 297.956 1.79012 -3.47952 0
M  V30 3250 H 297.579 3.14676 -2.43032 0
M  V30 3251 N 298.576 1.31904 0.862503 0
M  V30 3252 C 299.822 1.22197 1.61851 0
M  V30 3253 C 300.155 -0.217641 1.92977 0
M  V30 3254 O 299.43 -1.15264 1.56666 0
M  V30 3255 C 299.713 2.07378 2.94391 0
M  V30 3256 C 299.566 3.59678 2.70096 0
M  V30 3257 C 300.885 1.92891 3.95577 0
M  V30 3258 H 298.004 0.445255 0.587296 0
M  V30 3259 H 300.646 1.6177 0.99651 0
M  V30 3260 H 298.796 1.73758 3.47477 0
M  V30 3261 H 300.468 4.03472 2.23625 0
M  V30 3262 H 298.711 3.82735 2.04197 0
M  V30 3263 H 299.382 4.14595 3.64438 0
M  V30 3264 H 301.858 2.22327 3.51724 0
M  V30 3265 H 300.734 2.54781 4.86187 0
M  V30 3266 H 300.995 0.894315 4.3296 0
M  V30 3267 N 300.054 -1.07777 1.14986 0
M  V30 3268 C 301.284 -1.83752 0.944402 0
M  V30 3269 C 301.692 -1.8218 -0.51058 0
M  V30 3270 O 301.035 -1.22852 -1.36576 0
M  V30 3271 C 301.097 -3.32128 1.37592 0
M  V30 3272 C 300.761 -3.57425 2.84775 0
M  V30 3273 C 301.758 -3.5173 3.8286 0
M  V30 3274 C 299.443 -3.8523 3.2234 0
M  V30 3275 C 301.437 -3.73482 5.16517 0
M  V30 3276 C 299.124 -4.06634 4.56171 0
M  V30 3277 C 300.122 -4.00754 5.53069 0
M  V30 3278 O 299.81 -4.2159 6.84483 0
M  V30 3279 H 299.542 -0.58673 0.335744 0
M  V30 3280 H 302.096 -1.36982 1.53052 0
M  V30 3281 H 300.326 -3.79686 0.733165 0
M  V30 3282 H 302.015 -3.89555 1.14024 0
M  V30 3283 H 302.781 -3.30256 3.55184 0
M  V30 3284 H 298.66 -3.88923 2.47508 0
M  V30 3285 H 302.204 -3.68808 5.92137 0
M  V30 3286 H 298.101 -4.27593 4.83564 0
M  V30 3287 H 298.869 -4.38961 6.90837 0
M  V30 3288 N 301.532 -0.945985 -1.26051 0
M  V30 3289 C 302.48 -0.450259 -2.282 0
M  V30 3290 C 303.474 0.47497 -1.62605 0
M  V30 3291 O 304.68 0.352653 -1.76512 0
M  V30 3292 H 301.055 -0.127081 -0.741184 0
M  V30 3293 H 303.026 -1.32422 -2.67408 0
M  V30 3294 C 301.775 0.26467 -3.46691 0
M  V30 3295 H 301.098 -0.438123 -3.97392 0
M  V30 3296 H 302.538 0.575678 -4.20074 0
M  V30 3297 C 300.997 1.48416 -3.02447 0
M  V30 3298 O 301.527 2.58227 -3.07704 0
M  V30 3299 N 299.733 1.34243 -2.57735 0
M  V30 3300 H 299.28 0.448994 -2.53657 0
M  V30 3301 H 299.238 2.15957 -2.28495 0
M  V30 3302 N 303.011 1.40521 -0.713556 0
M  V30 3303 C 304.427 1.54839 -0.386907 0
M  V30 3304 C 304.627 1.68532 1.1045 0
M  V30 3305 O 303.683 1.67377 1.89053 0
M  V30 3306 C 304.996 2.77792 -1.15118 0
M  V30 3307 C 306.544 2.91607 -1.13729 0
M  V30 3308 C 307.019 4.1747 -1.88368 0
M  V30 3309 N 308.51 4.24466 -1.85427 0
M  V30 3310 C 309.245 5.20755 -2.40004 0
M  V30 3311 N 308.741 6.22965 -3.03129 0
M  V30 3312 N 310.534 5.1282 -2.30158 0
M  V30 3313 H 302.685 1.29879 -1.68063 0
M  V30 3314 H 304.948 0.627896 -0.710247 0
M  V30 3315 H 304.654 2.73944 -2.20561 0
M  V30 3316 H 304.528 3.6984 -0.741477 0
M  V30 3317 H 306.915 2.94959 -0.0910608 0
M  V30 3318 H 306.996 2.00682 -1.5862 0
M  V30 3319 H 306.64 4.1488 -2.9298 0
M  V30 3320 H 306.57 5.074 -1.40898 0
M  V30 3321 H 309.061 3.51241 -1.3942 0
M  V30 3322 H 309.374 6.92859 -3.42295 0
M  V30 3323 H 307.719 6.23415 -3.07212 0
M  V30 3324 H 310.91 4.31899 -1.80501 0
M  V30 3325 H 311.083 5.87689 -2.72993 0
M  V30 3326 N 304.489 0.459591 1.5075 0
M  V30 3327 C 305.439 -0.358926 2.25157 0
M  V30 3328 C 306.423 -0.971285 1.28276 0
M  V30 3329 O 307.615 -0.885739 1.53244 0
M  V30 3330 C 304.744 -1.44695 3.11317 0
M  V30 3331 C 303.83 -0.842894 4.15639 0
M  V30 3332 N 304.221 0.0299373 5.05791 0
M  V30 3333 C 302.519 -1.10809 4.32015 0
M  V30 3334 C 303.22 0.371563 5.80512 0
M  V30 3335 N 302.196 -0.250409 5.43023 0
M  V30 3336 H 305.998 0.313636 2.92222 0
M  V30 3337 H 303.512 0.273021 1.60089 0
M  V30 3338 H 305.509 -2.04641 3.63218 0
M  V30 3339 H 304.169 -2.12162 2.45799 0
M  V30 3340 H 305.18 0.39797 5.16369 0
M  V30 3341 H 301.857 -1.7786 3.77719 0
M  V30 3342 H 303.247 1.08319 6.63111 0
M  V30 3343 N 305.967 -1.56429 0.191757 0
M  V30 3344 C 307.216 -1.9666 -0.448088 0
M  V30 3345 C 307.529 -1.08136 -1.62991 0
M  V30 3346 O 308.735 -1.38135 -2.33733 0
M  V30 3347 C 307.191 -3.49753 -0.848585 0
M  V30 3348 C 306.799 -4.46935 0.308764 0
M  V30 3349 C 308.543 -3.9876 -1.4557 0
M  V30 3350 C 306.45 -5.91293 -0.112506 0
M  V30 3351 H 305.38 -0.734312 -0.171179 0
M  V30 3352 H 308.031 -1.81301 0.283242 0
M  V30 3353 H 306.413 -3.60604 -1.63649 0
M  V30 3354 H 307.587 -4.47813 1.08627 0
M  V30 3355 H 305.902 -4.08102 0.827158 0
M  V30 3356 H 308.499 -5.04086 -1.78328 0
M  V30 3357 H 308.842 -3.42875 -2.36099 0
M  V30 3358 H 309.375 -3.9101 -0.731836 0
M  V30 3359 H 306.114 -6.51097 0.758514 0
M  V30 3360 H 305.634 -5.93676 -0.854941 0
M  V30 3361 H 307.313 -6.44663 -0.549448 0
M  V30 3362 N 307.445 0.0818655 -1.57387 0
M  V30 3363 C 308.675 0.794954 -1.90694 0
M  V30 3364 C 309.083 1.72147 -0.784982 0
M  V30 3365 O 308.426 1.81974 0.251196 0
M  V30 3366 C 308.488 1.65042 -3.19376 0
M  V30 3367 C 308.152 0.894337 -4.48164 0
M  V30 3368 C 309.149 0.21813 -5.19442 0
M  V30 3369 C 306.834 0.864495 -4.94805 0
M  V30 3370 C 308.828 -0.477802 -6.35607 0
M  V30 3371 C 306.515 0.164785 -6.10878 0
M  V30 3372 C 307.513 -0.505173 -6.81129 0
M  V30 3373 O 307.201 -1.19363 -7.94989 0
M  V30 3374 H 306.933 0.231779 -0.635023 0
M  V30 3375 H 309.487 0.059493 -2.05314 0
M  V30 3376 H 307.717 2.42844 -3.00938 0
M  V30 3377 H 309.406 2.24127 -3.38411 0
M  V30 3378 H 310.172 0.232558 -4.84442 0
M  V30 3379 H 306.051 1.37542 -4.40004 0
M  V30 3380 H 309.595 -1.00129 -6.90377 0
M  V30 3381 H 305.492 0.148249 -6.4533 0
M  V30 3382 H 306.26 -1.10188 -8.11049 0
M  V30 3383 N 308.923 1.53595 0.353017 0
M  V30 3384 C 310.334 1.61937 0.929153 0
M  V30 3385 C 310.685 0.494686 1.89861 0
M  V30 3386 O 309.81 -0.377017 2.1309 0
M  V30 3387 C 310.405 2.93526 1.69199 0
M  V30 3388 C 308.964 3.04161 2.21727 0
M  V30 3389 C 308.111 2.57322 1.03348 0
M  V30 3390 H 311.062 1.58155 0.131431 0
M  V30 3391 H 311.083 2.82034 2.55416 0
M  V30 3392 H 310.595 3.75362 0.986144 0
M  V30 3393 H 308.696 2.26938 2.95516 0
M  V30 3394 H 308.809 4.09465 2.48748 0
M  V30 3395 H 307.173 2.12499 1.40414 0
M  V30 3396 H 307.956 3.41588 0.342428 0
M  V30 3397 N 310.401 -0.613514 1.45168 0
M  V30 3398 C 311.649 -1.36997 1.48581 0
M  V30 3399 C 311.97 -1.94589 0.126545 0
M  V30 3400 O 311.24 -1.76816 -0.843372 0
M  V30 3401 H 309.82 -0.508558 0.547154 0
M  V30 3402 H 312.482 -0.720853 1.81079 0
M  V30 3403 H 311.578 -2.1924 2.22127 0
M  V30 3404 N 311.879 -1.3236 -0.855495 0
M  V30 3405 C 313.156 -1.13491 -1.59309 0
M  V30 3406 C 313.536 0.30503 -2.08885 0
M  V30 3407 O 312.884 1.30151 -1.87811 0
M  V30 3408 C 313.094 -2.16176 -2.73987 0
M  V30 3409 C 314.442 -2.49463 -3.43589 0
M  V30 3410 O 315.466 -2.14715 -2.84211 0
M  V30 3411 O 314.325 -3.09027 -4.50738 0
M  V30 3412 H 311.419 -0.437887 -0.701559 0
M  V30 3413 H 313.965 -1.43887 -0.899696 0
M  V30 3414 H 312.737 -3.1297 -2.34873 0
M  V30 3415 H 312.36 -1.86769 -3.51003 0
M  V30 3416 N 313.357 1.07166 -1.15556 0
M  V30 3417 C 314.773 1.31899 -0.898603 0
M  V30 3418 C 314.973 1.96333 0.453383 0
M  V30 3419 O 314.029 2.22438 1.19489 0
M  V30 3420 C 315.342 2.20826 -2.04099 0
M  V30 3421 C 316.89 2.34269 -2.07574 0
M  V30 3422 C 317.365 3.26546 -3.21141 0
M  V30 3423 N 318.856 3.34127 -3.20801 0
M  V30 3424 C 319.591 4.05595 -4.05315 0
M  V30 3425 N 319.087 4.79661 -4.99897 0
M  V30 3426 N 320.88 4.01555 -3.93332 0
M  V30 3427 H 313.031 0.637302 -2.02613 0
M  V30 3428 H 315.294 0.343468 -0.883591 0
M  V30 3429 H 315 1.80744 -3.01703 0
M  V30 3430 H 314.874 3.21364 -1.97496 0
M  V30 3431 H 317.261 2.73603 -1.10568 0
M  V30 3432 H 317.342 1.33429 -2.18244 0
M  V30 3433 H 316.986 2.87931 -4.184 0
M  V30 3434 H 316.916 4.27345 -3.07708 0
M  V30 3435 H 319.407 2.81336 -2.52306 0
M  V30 3436 H 319.72 5.31694 -5.60822 0
M  V30 3437 H 318.065 4.78671 -5.03884 0
M  V30 3438 H 321.256 3.42806 -3.18751 0
M  V30 3439 H 321.429 4.56987 -4.5942 0
M  V30 3440 N 314.835 0.952656 1.25548 0
M  V30 3441 C 316.082 0.606373 1.93208 0
M  V30 3442 C 316.41 -0.85631 1.74636 0
M  V30 3443 O 315.665 -1.62951 1.08376 0
M  V30 3444 C 315.964 0.908818 3.45652 0
M  V30 3445 C 315.63 2.35722 3.84378 0
M  V30 3446 C 314.292 2.75312 3.9466 0
M  V30 3447 C 316.644 3.29793 4.03591 0
M  V30 3448 C 313.972 4.08047 4.21562 0
M  V30 3449 C 316.324 4.62138 4.31985 0
M  V30 3450 C 314.988 5.01528 4.40484 0
M  V30 3451 H 314.258 0.221888 0.706998 0
M  V30 3452 H 316.905 1.20132 1.49133 0
M  V30 3453 H 315.21 0.231456 3.91116 0
M  V30 3454 H 316.907 0.619498 3.96186 0
M  V30 3455 H 313.497 2.04017 3.76928 0
M  V30 3456 H 317.681 3.00397 3.95064 0
M  V30 3457 H 312.937 4.38212 4.26357 0
M  V30 3458 H 317.111 5.35012 4.45797 0
M  V30 3459 H 314.738 6.04406 4.61083 0
M  V30 3460 N 316.313 -1.40141 0.720998 0
M  V30 3461 C 317.276 -2.29058 0.0805834 0
M  V30 3462 C 318.276 -1.45632 -0.681758 0
M  V30 3463 O 319.466 -1.6648 -0.512856 0
M  V30 3464 C 316.598 -3.28925 -0.895593 0
M  V30 3465 H 317.791 -2.87191 0.863793 0
M  V30 3466 H 315.344 -1.48553 0.485975 0
M  V30 3467 H 316.079 -2.75822 -1.70566 0
M  V30 3468 H 315.864 -3.90519 -0.351766 0
M  V30 3469 H 317.354 -3.95494 -1.34069 0
M  V30 3470 N 317.792 -0.46758 -1.50504 0
M  V30 3471 C 318.739 0.328413 -2.28452 0
M  V30 3472 C 319.709 0.990313 -1.33349 0
M  V30 3473 O 320.894 1.00343 -1.62284 0
M  V30 3474 C 318.034 1.40648 -3.15138 0
M  V30 3475 C 317.147 0.759709 -4.25267 0
M  V30 3476 C 316.282 1.81537 -4.99217 0
M  V30 3477 C 315.321 1.14866 -6.01226 0
M  V30 3478 N 314.458 2.14702 -6.68467 0
M  V30 3479 H 319.298 -0.342603 -2.96024 0
M  V30 3480 H 316.835 -0.180801 -1.45985 0
M  V30 3481 H 318.793 2.04315 -3.63746 0
M  V30 3482 H 317.423 2.04671 -2.49619 0
M  V30 3483 H 316.475 0.0105671 -3.80399 0
M  V30 3484 H 317.787 0.233243 -4.98254 0
M  V30 3485 H 316.941 2.52793 -5.51526 0
M  V30 3486 H 315.68 2.37564 -4.25928 0
M  V30 3487 H 314.685 0.42171 -5.4818 0
M  V30 3488 H 315.91 0.595334 -6.76485 0
M  V30 3489 H 313.856 2.69752 -5.97972 0
M  V30 3490 H 313.773 1.6703 -7.37317 0
M  V30 3491 H 315.041 2.85348 -7.25394 0
M  V30 3492 N 319.27 1.56325 -0.20005 0
M  V30 3493 C 320.202 2.16555 0.750771 0
M  V30 3494 C 321.215 1.12871 1.1732 0
M  V30 3495 O 322.404 1.39943 1.10807 0
M  V30 3496 C 319.504 2.71684 2.02586 0
M  V30 3497 C 318.677 4.00321 1.76244 0
M  V30 3498 C 317.736 4.40227 2.88248 0
M  V30 3499 O 316.762 5.07552 2.57642 0
M  V30 3500 N 317.964 4.04138 4.16717 0
M  V30 3501 H 320.729 2.98772 0.235685 0
M  V30 3502 H 318.29 1.6189 -0.0182594 0
M  V30 3503 H 320.282 2.95363 2.76664 0
M  V30 3504 H 318.852 1.93893 2.45202 0
M  V30 3505 H 318.072 3.84723 0.85919 0
M  V30 3506 H 319.36 4.84279 1.56048 0
M  V30 3507 H 318.758 3.49993 4.44434 0
M  V30 3508 H 317.315 4.32756 4.87407 0
M  V30 3509 N 320.748 -0.0735177 1.57428 0
M  V30 3510 C 321.711 -1.07192 2.02589 0
M  V30 3511 C 322.711 -1.31695 0.922661 0
M  V30 3512 O 323.901 -1.27445 1.18758 0
M  V30 3513 C 321.033 -2.41599 2.40506 0
M  V30 3514 H 322.226 -0.682727 2.92025 0
M  V30 3515 H 319.779 -0.319193 1.53006 0
M  V30 3516 H 320.514 -2.85354 1.5409 0
M  V30 3517 H 320.299 -2.25156 3.21009 0
M  V30 3518 H 321.789 -3.13367 2.76027 0
M  V30 3519 N 322.226 -1.5378 -0.344866 0
M  V30 3520 C 323.475 -1.7018 -1.08267 0
M  V30 3521 C 323.788 -0.471 -1.89845 0
M  V30 3522 O 324.994 -0.515917 -2.66553 0
M  V30 3523 C 323.45 -3.00923 -1.97417 0
M  V30 3524 C 323.058 -4.31335 -1.21053 0
M  V30 3525 C 324.802 -3.26688 -2.71063 0
M  V30 3526 C 322.709 -5.53153 -2.09225 0
M  V30 3527 H 321.639 -0.634138 -0.407903 0
M  V30 3528 H 324.29 -1.8028 -0.342246 0
M  V30 3529 H 322.672 -2.84676 -2.75274 0
M  V30 3530 H 323.846 -4.58281 -0.481159 0
M  V30 3531 H 322.161 -4.12173 -0.591813 0
M  V30 3532 H 324.758 -4.1489 -3.37299 0
M  V30 3533 H 325.101 -2.43639 -3.37558 0
M  V30 3534 H 325.634 -3.43705 -2.0028 0
M  V30 3535 H 322.373 -6.38741 -1.47274 0
M  V30 3536 H 321.893 -5.30458 -2.79955 0
M  V30 3537 H 323.572 -5.88744 -2.68308 0
M  V30 3538 N 323.704 0.605807 -1.45491 0
M  V30 3539 C 325.12 0.926751 -1.29936 0
M  V30 3540 C 325.32 1.99896 -0.253706 0
M  V30 3541 O 324.376 2.50038 0.351737 0
M  V30 3542 C 325.689 1.36599 -2.67883 0
M  V30 3543 C 327.237 1.4801 -2.75793 0
M  V30 3544 C 327.712 1.95309 -4.14268 0
M  V30 3545 N 329.203 2.0254 -4.16571 0
M  V30 3546 C 329.938 2.40363 -5.20589 0
M  V30 3547 N 329.434 2.77143 -6.34952 0
M  V30 3548 N 331.227 2.40718 -5.07948 0
M  V30 3549 H 323.378 -0.102862 -2.12151 0
M  V30 3550 H 325.641 0.016639 -0.947854 0
M  V30 3551 H 325.347 0.652306 -3.45598 0
M  V30 3552 H 325.221 2.33215 -2.96463 0
M  V30 3553 H 327.608 2.1847 -1.98381 0
M  V30 3554 H 327.689 0.497041 -2.50925 0
M  V30 3555 H 327.333 1.25436 -4.92167 0
M  V30 3556 H 327.263 2.94532 -4.3653 0
M  V30 3557 H 329.754 1.76699 -3.34045 0
M  V30 3558 H 330.067 3.0489 -7.10114 0
M  V30 3559 H 328.412 2.74834 -6.3835 0
M  V30 3560 H 331.603 2.11392 -4.1765 0
M  V30 3561 H 331.776 2.69869 -5.89131 0
M  V30 3562 N 325.182 1.32811 0.848464 0
M  V30 3563 C 326.598 1.11937 1.13764 0
M  V30 3564 C 326.798 -0.0960789 2.01271 0
M  V30 3565 O 325.854 -0.779165 2.40178 0
M  V30 3566 C 327.167 2.402 1.809 0
M  V30 3567 C 328.715 2.46016 1.93508 0
M  V30 3568 C 329.19 3.74215 2.64059 0
M  V30 3569 N 330.681 3.75232 2.71579 0
M  V30 3570 C 331.416 4.71134 3.26833 0
M  V30 3571 N 330.912 5.77406 3.8285 0
M  V30 3572 N 332.705 4.58623 3.24995 0
M  V30 3573 H 324.856 2.1073 0.265855 0
M  V30 3574 H 327.119 0.930671 0.180431 0
M  V30 3575 H 326.825 3.29093 1.24058 0
M  V30 3576 H 326.699 2.51628 2.81004 0
M  V30 3577 H 329.086 1.57577 2.49506 0
M  V30 3578 H 329.167 2.38536 0.923811 0
M  V30 3579 H 328.811 4.63031 2.08722 0
M  V30 3580 H 328.741 3.78968 3.65637 0
M  V30 3581 H 331.232 2.98423 2.31845 0
M  V30 3582 H 331.545 6.46632 4.23187 0
M  V30 3583 H 329.89 5.81152 3.81165 0
M  V30 3584 H 333.081 3.74762 2.80484 0
M  V30 3585 H 333.254 5.33535 3.67756 0
M  V30 3586 N 326.66 -1.06551 1.16123 0
M  V30 3587 C 327.607 -2.13961 0.865414 0
M  V30 3588 C 328.577 -1.65066 -0.185055 0
M  V30 3589 O 329.762 -1.90732 -0.05083 0
M  V30 3590 C 326.902 -3.43113 0.369776 0
M  V30 3591 C 326.015 -4.05756 1.48276 0
M  V30 3592 C 325.15 -5.22773 0.942414 0
M  V30 3593 C 324.189 -5.77395 2.03179 0
M  V30 3594 N 323.326 -6.85731 1.50721 0
M  V30 3595 H 328.166 -2.38605 1.78527 0
M  V30 3596 H 325.703 -1.17072 0.890646 0
M  V30 3597 H 327.661 -4.17151 0.0640643 0
M  V30 3598 H 326.291 -3.18695 -0.513143 0
M  V30 3599 H 325.343 -3.29292 1.9045 0
M  V30 3600 H 326.655 -4.42351 2.30493 0
M  V30 3601 H 325.809 -6.03827 0.589729 0
M  V30 3602 H 324.548 -4.87618 0.0895191 0
M  V30 3603 H 323.553 -4.94981 2.3932 0
M  V30 3604 H 324.778 -6.14603 2.8886 0
M  V30 3605 H 322.724 -6.52499 0.676811 0
M  V30 3606 H 322.641 -7.21254 2.26557 0
M  V30 3607 H 323.909 -7.7047 1.18303 0
M  V30 3608 N 328.138 -0.959301 -1.25041 0
M  V30 3609 C 329.384 -0.617525 -1.9317 0
M  V30 3610 C 329.717 0.843981 -1.74902 0
M  V30 3611 O 328.992 1.60615 -1.09696 0
M  V30 3612 C 329.275 -0.982736 -3.46431 0
M  V30 3613 C 329.128 -2.50032 -3.73904 0
M  V30 3614 C 330.447 -0.511176 -4.37121 0
M  V30 3615 H 327.566 -0.22582 -0.701552 0
M  V30 3616 H 330.208 -1.19679 -1.4757 0
M  V30 3617 H 328.358 -0.489806 -3.854 0
M  V30 3618 H 330.03 -3.06737 -3.44544 0
M  V30 3619 H 328.273 -2.93598 -3.19348 0
M  V30 3620 H 328.944 -2.70635 -4.81103 0
M  V30 3621 H 331.42 -0.934075 -4.0548 0
M  V30 3622 H 330.296 -0.795361 -5.43107 0
M  V30 3623 H 330.557 0.588834 -4.38161 0
M  V30 3624 N 329.616 1.39756 -0.72842 0
M  V30 3625 C 330.526 2.34444 -0.0855374 0
M  V30 3626 C 331.542 1.57976 0.729356 0
M  V30 3627 O 332.718 1.90301 0.659346 0
M  V30 3628 C 329.783 3.36965 0.815798 0
M  V30 3629 C 328.844 4.29299 -0.0105996 0
M  V30 3630 C 328.077 5.26923 0.84781 0
M  V30 3631 O 328.3 5.30859 2.08673 0
M  V30 3632 O 327.234 6.01249 0.279969 0
M  V30 3633 H 331.06 2.91065 -0.866892 0
M  V30 3634 H 328.645 1.4117 -0.48902 0
M  V30 3635 H 330.527 3.99804 1.33171 0
M  V30 3636 H 329.202 2.82739 1.57608 0
M  V30 3637 H 328.109 3.69703 -0.571877 0
M  V30 3638 H 329.442 4.86712 -0.73295 0
M  V30 3639 N 331.094 0.475555 1.50254 0
M  V30 3640 C 332.024 -0.30611 2.31485 0
M  V30 3641 C 333.005 -0.986228 1.38591 0
M  V30 3642 O 334.19 -0.982541 1.67511 0
M  V30 3643 C 331.32 -1.38588 3.1845 0
M  V30 3644 C 330.274 -0.827115 4.19932 0
M  V30 3645 C 329.6 -2.00551 4.95665 0
M  V30 3646 C 330.9 0.16463 5.2204 0
M  V30 3647 H 332.594 0.371866 2.97082 0
M  V30 3648 H 330.14 0.180282 1.42867 0
M  V30 3649 H 332.093 -1.94023 3.74076 0
M  V30 3650 H 330.817 -2.09269 2.50747 0
M  V30 3651 H 329.476 -0.294702 3.65414 0
M  V30 3652 H 329.124 -2.6994 4.2443 0
M  V30 3653 H 328.824 -1.63784 5.64313 0
M  V30 3654 H 330.348 -2.56468 5.54127 0
M  V30 3655 H 331.762 -0.300699 5.72511 0
M  V30 3656 H 330.159 0.446813 5.98434 0
M  V30 3657 H 331.229 1.08905 4.72512 0
M  V30 3658 N 332.573 -1.56217 0.208337 0
M  V30 3659 C 333.483 -2.23316 -0.718836 0
M  V30 3660 C 334.499 -1.23648 -1.22422 0
M  V30 3661 O 335.675 -1.56423 -1.26861 0
M  V30 3662 C 332.74 -2.88968 -1.91568 0
M  V30 3663 C 331.801 -4.03943 -1.45357 0
M  V30 3664 C 331.034 -4.66455 -2.59337 0
M  V30 3665 O 331.257 -4.27919 -3.77149 0
M  V30 3666 O 330.191 -5.55686 -2.31293 0
M  V30 3667 H 334.017 -3.03182 -0.177315 0
M  V30 3668 H 331.602 -1.49384 -0.0215402 0
M  V30 3669 H 333.484 -3.30455 -2.61491 0
M  V30 3670 H 332.159 -2.12071 -2.44556 0
M  V30 3671 H 331.066 -3.67052 -0.722746 0
M  V30 3672 H 332.399 -4.82543 -0.970219 0
M  V30 3673 N 334.051 0.0651679 -1.57465 0
M  V30 3674 C 335.297 0.758912 -1.88712 0
M  V30 3675 C 335.652 1.7485 -0.802819 0
M  V30 3676 O 334.945 1.90632 0.192359 0
M  V30 3677 C 335.139 1.50081 -3.24362 0
M  V30 3678 C 334.968 0.584579 -4.45884 0
M  V30 3679 C 333.738 0.219039 -5.04825 0
M  V30 3680 C 335.936 -0.121559 -5.14156 0
M  V30 3681 N 333.918 -0.702222 -6.09871 0
M  V30 3682 C 335.289 -0.899767 -6.13436 0
M  V30 3683 C 337.344 -0.192331 -4.97528 0
M  V30 3684 C 336.047 -1.74218 -6.97883 0
M  V30 3685 C 338.073 -1.02174 -5.82507 0
M  V30 3686 C 337.435 -1.78798 -6.8133 0
M  V30 3687 H 333.534 0.25293 -0.739967 0
M  V30 3688 H 336.118 0.0201744 -1.9469 0
M  V30 3689 H 334.289 2.21023 -3.1938 0
M  V30 3690 H 336.021 2.14409 -3.43236 0
M  V30 3691 H 332.776 0.57336 -4.70117 0
M  V30 3692 H 333.2 -1.15629 -6.67052 0
M  V30 3693 H 337.842 0.385741 -4.21037 0
M  V30 3694 H 335.56 -2.3312 -7.73745 0
M  V30 3695 H 339.146 -1.07957 -5.71696 0
M  V30 3696 H 338.026 -2.41942 -7.45945 0
M  V30 3697 N 335.529 1.53961 0.336706 0
M  V30 3698 C 336.777 1.71197 1.07405 0
M  V30 3699 C 337.098 0.481475 1.88962 0
M  V30 3700 O 336.368 -0.504585 1.8929 0
M  V30 3701 H 334.948 0.631185 0.399517 0
M  V30 3702 H 337.61 1.91232 0.376323 0
M  V30 3703 H 336.706 2.58587 1.74755 0
M  V30 3704 N 337.007 -0.598083 1.45811 0
M  V30 3705 C 338.235 -1.38322 1.53866 0
M  V30 3706 C 338.65 -1.87992 0.174479 0
M  V30 3707 O 338.007 -1.62756 -0.825627 0
M  V30 3708 C 338.058 -2.58125 2.53089 0
M  V30 3709 O 337.779 -2.10516 3.84206 0
M  V30 3710 C 339.28 -3.50869 2.70935 0
M  V30 3711 H 336.5 -0.423093 0.520801 0
M  V30 3712 H 339.044 -0.728527 1.91083 0
M  V30 3713 H 337.199 -3.19615 2.18917 0
M  V30 3714 H 337.613 -2.88425 4.38077 0
M  V30 3715 H 339.087 -4.31451 3.44317 0
M  V30 3716 H 339.564 -4.01822 1.77301 0
M  V30 3717 H 340.17 -2.95225 3.06141 0
M  V30 3718 N 338.485 -1.33259 -0.841409 0
M  V30 3719 C 339.395 -1.25332 -1.98316 0
M  V30 3720 C 340.411 -0.164364 -1.73222 0
M  V30 3721 O 341.587 -0.387486 -1.97637 0
M  V30 3722 C 338.652 -0.990078 -3.32262 0
M  V30 3723 C 337.713 -2.16879 -3.70489 0
M  V30 3724 C 336.946 -1.91801 -4.98044 0
M  V30 3725 O 337.169 -0.867075 -5.63771 0
M  V30 3726 O 336.103 -2.78267 -5.33714 0
M  V30 3727 H 339.929 -2.21344 -2.07944 0
M  V30 3728 H 337.514 -1.1328 -0.974058 0
M  V30 3729 H 339.396 -0.860321 -4.12524 0
M  V30 3730 H 338.071 -0.0602155 -3.23644 0
M  V30 3731 H 336.978 -2.35407 -2.90748 0
M  V30 3732 H 338.311 -3.0819 -3.8377 0
M  V30 3733 N 339.963 1.05934 -1.16686 0
M  V30 3734 C 341.24 1.75643 -0.860747 0
M  V30 3735 C 341.62 2.01144 0.640641 0
M  V30 3736 O 340.968 1.64147 1.58959 0
M  V30 3737 C 341.178 3.05493 -1.68745 0
M  V30 3738 C 342.526 3.79581 -1.90271 0
M  V30 3739 O 343.55 3.15344 -1.65641 0
M  V30 3740 O 342.409 4.9499 -2.31618 0
M  V30 3741 H 339.503 0.763426 -0.317977 0
M  V30 3742 H 342.049 1.1217 -1.27342 0
M  V30 3743 H 340.821 2.8264 -2.70611 0
M  V30 3744 H 340.444 3.76702 -1.27206 0
M  V30 3745 N 341.441 0.965919 1.2453 0
M  V30 3746 C 342.718 0.543777 1.87889 0
M  V30 3747 C 343.098 -0.97909 1.87021 0
M  V30 3748 O 342.446 -1.84969 1.3416 0
M  V30 3749 C 342.656 1.13327 3.30088 0
M  V30 3750 C 344.004 1.21707 4.06783 0
M  V30 3751 O 345.028 1.08566 3.39252 0
M  V30 3752 O 343.887 1.42456 5.27606 0
M  V30 3753 H 340.981 0.181054 0.806938 0
M  V30 3754 H 343.527 1.06007 1.32516 0
M  V30 3755 H 342.299 2.17612 3.25209 0
M  V30 3756 H 341.922 0.600911 3.93033 0
M  V30 3757 N 342.919 -1.39368 0.735821 0
M  V30 3758 C 343.829 -2.34395 0.0979693 0
M  V30 3759 C 344.845 -1.58361 -0.720968 0
M  V30 3760 O 346.021 -1.90648 -0.649245 0
M  V30 3761 C 343.086 -3.37393 -0.797916 0
M  V30 3762 C 342.147 -4.29287 0.0333662 0
M  V30 3763 C 341.38 -5.27365 -0.819854 0
M  V30 3764 O 341.603 -5.31959 -2.05855 0
M  V30 3765 O 340.537 -6.01389 -0.248079 0
M  V30 3766 H 344.363 -2.90601 0.882315 0
M  V30 3767 H 341.948 -1.40909 0.4965 0
M  V30 3768 H 343.83 -4.00505 -1.31048 0
M  V30 3769 H 342.505 -2.83571 -1.56106 0
M  V30 3770 H 341.412 -3.69395 0.591475 0
M  V30 3771 H 342.745 -4.86317 0.758752 0
M  V30 3772 N 344.397 -0.483516 -1.5 0
M  V30 3773 C 345.627 0.0643896 -2.065 0
M  V30 3774 C 346.035 1.32949 -1.34615 0
M  V30 3775 O 345.378 1.79003 -0.412756 0
M  V30 3776 C 345.44 0.405983 -3.572 0
M  V30 3777 C 345.104 -0.758875 -4.50655 0
M  V30 3778 C 346.101 -1.64445 -4.93208 0
M  V30 3779 C 343.786 -0.952725 -4.93182 0
M  V30 3780 C 345.78 -2.70818 -5.77006 0
M  V30 3781 C 343.467 -2.01966 -5.76761 0
M  V30 3782 C 344.465 -2.89574 -6.18576 0
M  V30 3783 O 344.153 -3.94429 -7.00486 0
M  V30 3784 H 343.885 -0.00934786 -0.675935 0
M  V30 3785 H 346.439 -0.674959 -1.93993 0
M  V30 3786 H 344.669 1.19869 -3.67652 0
M  V30 3787 H 346.358 0.890433 -3.96013 0
M  V30 3788 H 347.124 -1.50643 -4.61012 0
M  V30 3789 H 343.003 -0.280247 -4.60147 0
M  V30 3790 H 346.547 -3.3923 -6.09565 0
M  V30 3791 H 342.444 -2.1577 -6.0837 0
M  V30 3792 H 343.212 -3.91568 -7.1876 0
M  V30 3793 N 345.875 1.56104 -0.216619 0
M  V30 3794 C 346.805 2.23063 0.690296 0
M  V30 3795 C 347.786 1.20072 1.20485 0
M  V30 3796 O 348.971 1.48643 1.24976 0
M  V30 3797 C 346.101 2.90672 1.90072 0
M  V30 3798 C 345.055 4.00092 1.5202 0
M  V30 3799 C 344.381 4.54972 2.80899 0
M  V30 3800 C 345.681 5.17398 0.71391 0
M  V30 3801 H 347.375 2.99109 0.132038 0
M  V30 3802 H 344.921 1.43866 0.0620664 0
M  V30 3803 H 346.874 3.36204 2.54057 0
M  V30 3804 H 345.598 2.12066 2.48386 0
M  V30 3805 H 344.257 3.55283 0.903839 0
M  V30 3806 H 343.905 3.73102 3.37348 0
M  V30 3807 H 343.605 5.28817 2.56176 0
M  V30 3808 H 345.129 5.0322 3.45836 0
M  V30 3809 H 346.543 5.59342 1.25735 0
M  V30 3810 H 344.94 5.97444 0.563951 0
M  V30 3811 H 346.01 4.84088 -0.280527 0
M  V30 3812 N 347.353 -0.0568162 1.57498 0
M  V30 3813 C 348.63 -0.786954 1.79071 0
M  V30 3814 C 349.01 -1.95028 0.80792 0
M  V30 3815 O 348.358 -2.27968 -0.155858 0
M  V30 3816 C 348.568 -1.24594 3.26002 0
M  V30 3817 C 349.916 -1.67323 3.90241 0
M  V30 3818 O 350.94 -1.34124 3.29984 0
M  V30 3819 O 349.799 -2.28842 4.9628 0
M  V30 3820 H 346.893 -0.378262 0.735423 0
M  V30 3821 H 349.439 -0.035734 1.69662 0
M  V30 3822 H 348.211 -0.41423 3.89101 0
M  V30 3823 H 347.834 -2.05803 3.40192 0
M  V30 3824 N 348.832 -1.54138 -0.328536 0
M  V30 3825 C 349.779 -1.83176 -1.40411 0
M  V30 3826 C 350.749 -0.678494 -1.5161 0
M  V30 3827 O 351.934 -0.92443 -1.6691 0
M  V30 3828 C 349.074 -2.06035 -2.76846 0
M  V30 3829 C 348.187 -3.33727 -2.74318 0
M  V30 3830 C 347.322 -3.46574 -4.02567 0
M  V30 3831 C 346.361 -4.68159 -3.94327 0
M  V30 3832 N 345.498 -4.77959 -5.14296 0
M  V30 3833 H 350.338 -2.74938 -1.14948 0
M  V30 3834 H 347.875 -1.36166 -0.556538 0
M  V30 3835 H 349.833 -2.1728 -3.56153 0
M  V30 3836 H 348.463 -1.1757 -3.00628 0
M  V30 3837 H 347.515 -3.31246 -1.8703 0
M  V30 3838 H 348.827 -4.23139 -2.64111 0
M  V30 3839 H 347.981 -3.57333 -4.90304 0
M  V30 3840 H 346.72 -2.55245 -4.15574 0
M  V30 3841 H 345.725 -4.57461 -3.04974 0
M  V30 3842 H 346.95 -5.60868 -3.82889 0
M  V30 3843 H 344.896 -3.89544 -5.27818 0
M  V30 3844 H 344.813 -5.6133 -5.06404 0
M  V30 3845 H 346.081 -4.93044 -6.03761 0
M  V30 3846 N 350.31 0.590341 -1.46126 0
M  V30 3847 C 351.556 1.35082 -1.51264 0
M  V30 3848 C 351.889 1.93534 -0.160711 0
M  V30 3849 O 351.164 1.76045 0.826956 0
M  V30 3850 C 351.447 2.48588 -2.6053 0
M  V30 3851 C 351.3 1.95221 -4.05227 0
M  V30 3852 C 352.619 3.50662 -2.6594 0
M  V30 3853 H 349.738 0.489803 -0.550692 0
M  V30 3854 H 352.38 0.663887 -1.78024 0
M  V30 3855 H 350.53 3.07186 -2.37843 0
M  V30 3856 H 352.202 1.41139 -4.39178 0
M  V30 3857 H 350.445 1.26101 -4.15068 0
M  V30 3858 H 351.116 2.77121 -4.77397 0
M  V30 3859 H 353.592 3.01934 -2.86313 0
M  V30 3860 H 352.468 4.27551 -3.44226 0
M  V30 3861 H 352.729 4.07399 -1.71694 0
M  V30 3862 N 351.788 1.33704 0.83433 0
M  V30 3863 C 352.698 1.26382 1.97648 0
M  V30 3864 C 353.714 0.173548 1.73132 0
M  V30 3865 O 354.89 0.397962 1.97429 0
M  V30 3866 C 351.955 1.00769 3.31733 0
M  V30 3867 C 351.016 2.1884 3.69334 0
M  V30 3868 C 350.249 1.9444 4.9702 0
M  V30 3869 O 350.472 0.896961 5.63303 0
M  V30 3870 O 349.406 2.81093 5.32231 0
M  V30 3871 H 353.232 2.22444 2.06767 0
M  V30 3872 H 350.817 1.13795 0.968037 0
M  V30 3873 H 352.699 0.882186 4.12062 0
M  V30 3874 H 351.374 0.0773783 3.23608 0
M  V30 3875 H 350.281 2.36946 2.89495 0
M  V30 3876 H 351.614 3.10221 3.82131 0
M  V30 3877 N 353.266 -1.05314 1.17247 0
M  V30 3878 C 354.682 -1.30452 0.919473 0
M  V30 3879 C 354.882 -1.9703 -0.42209 0
M  V30 3880 O 353.938 -2.24311 -1.15935 0
M  V30 3881 C 355.251 -2.17551 2.07586 0
M  V30 3882 C 356.799 -2.30937 2.11275 0
M  V30 3883 C 357.274 -3.21396 3.26296 0
M  V30 3884 N 358.765 -3.28981 3.26076 0
M  V30 3885 C 359.5 -3.99095 4.11716 0
M  V30 3886 N 358.996 -4.71648 5.07465 0
M  V30 3887 N 360.789 -3.95247 3.9967 0
M  V30 3888 H 352.94 -0.604988 2.03602 0
M  V30 3889 H 355.203 -0.329368 0.888944 0
M  V30 3890 H 354.909 -1.75921 3.0454 0
M  V30 3891 H 354.783 -3.18182 2.02584 0
M  V30 3892 H 357.17 -2.71809 1.14907 0
M  V30 3893 H 357.251 -1.2994 2.20339 0
M  V30 3894 H 356.895 -2.81238 4.22927 0
M  V30 3895 H 356.825 -4.22395 3.14467 0
M  V30 3896 H 359.316 -2.77286 2.5675 0
M  V30 3897 H 359.629 -5.22705 5.6921 0
M  V30 3898 H 357.974 -4.70594 5.11435 0
M  V30 3899 H 361.165 -3.37691 3.24164 0
M  V30 3900 H 361.338 -4.4962 4.66632 0
M  V30 3901 N 354.744 -0.972509 -1.24016 0
M  V30 3902 C 355.692 -0.498562 -2.27194 0
M  V30 3903 C 356.686 0.440372 -1.63576 0
M  V30 3904 O 357.892 0.315133 -1.7722 0
M  V30 3905 H 354.267 -0.142775 -0.738322 0
M  V30 3906 H 356.238 -1.38065 -2.64539 0
M  V30 3907 C 354.987 0.191072 -3.47175 0
M  V30 3908 H 354.31 -0.522318 -3.96373 0
M  V30 3909 H 355.75 0.486445 -4.212 0
M  V30 3910 C 354.209 1.41967 -3.05527 0
M  V30 3911 O 354.739 2.51642 -3.13112 0
M  V30 3912 N 352.945 1.28746 -2.60524 0
M  V30 3913 H 352.492 0.395089 -2.54552 0
M  V30 3914 H 352.45 2.11061 -2.33025 0
M  V30 3915 N 356.222 1.38976 -0.743202 0
M  V30 3916 C 357.471 1.99581 -0.291592 0
M  V30 3917 C 357.784 1.59656 1.13001 0
M  V30 3918 O 358.99 2.13157 1.68156 0
M  V30 3919 C 357.446 3.56813 -0.470391 0
M  V30 3920 C 357.054 4.05695 -1.90041 0
M  V30 3921 C 358.798 4.24423 -0.0809709 0
M  V30 3922 C 356.705 5.5553 -2.02832 0
M  V30 3923 H 355.635 0.746615 -0.105272 0
M  V30 3924 H 358.286 1.58872 -0.918258 0
M  V30 3925 H 356.668 3.95359 0.225299 0
M  V30 3926 H 357.842 3.78464 -2.62872 0
M  V30 3927 H 356.157 3.50775 -2.24379 0
M  V30 3928 H 358.754 5.34474 -0.155445 0
M  V30 3929 H 359.097 4.04962 0.96497 0
M  V30 3930 H 359.63 3.9108 -0.728124 0
M  V30 3931 H 356.369 5.79881 -3.05643 0
M  V30 3932 H 355.889 5.84537 -1.34448 0
M  V30 3933 H 357.568 6.21069 -1.81335 0
M  V30 3934 N 357.7 0.491464 1.49741 0
M  V30 3935 C 358.647 -0.292027 2.28945 0
M  V30 3936 C 359.617 -0.968973 1.34908 0
M  V30 3937 O 360.802 -0.97748 1.6386 0
M  V30 3938 C 357.942 -1.35617 3.17336 0
M  V30 3939 C 357.055 -0.691957 4.26422 0
M  V30 3940 C 356.19 -1.73572 5.02042 0
M  V30 3941 C 355.229 -1.05286 6.02977 0
M  V30 3942 N 354.366 -2.0404 6.71798 0
M  V30 3943 H 359.206 0.389654 2.95442 0
M  V30 3944 H 356.743 0.204003 1.45679 0
M  V30 3945 H 358.701 -1.98502 3.66951 0
M  V30 3946 H 357.331 -2.00674 2.52844 0
M  V30 3947 H 356.383 0.0499523 3.80367 0
M  V30 3948 H 357.695 -0.153946 4.98562 0
M  V30 3949 H 356.849 -2.43987 5.55478 0
M  V30 3950 H 355.588 -2.30757 4.29654 0
M  V30 3951 H 354.593 -0.334446 5.48782 0
M  V30 3952 H 355.818 -0.487636 6.77347 0
M  V30 3953 H 353.764 -2.60205 6.02187 0
M  V30 3954 H 353.681 -1.55279 7.39881 0
M  V30 3955 H 354.949 -2.73772 7.29842 0
M  V30 3956 N 359.178 -1.55987 0.224894 0
M  V30 3957 C 360.125 -2.20436 -0.68385 0
M  V30 3958 C 361.095 -1.16102 -1.18783 0
M  V30 3959 O 362.28 -1.4447 -1.24632 0
M  V30 3960 C 359.42 -2.89076 -1.88491 0
M  V30 3961 C 358.533 -4.08012 -1.41951 0
M  V30 3962 C 357.668 -4.64426 -2.5784 0
M  V30 3963 C 356.707 -5.75656 -2.08053 0
M  V30 3964 N 355.844 -6.26347 -3.17227 0
M  V30 3965 H 360.684 -2.97727 -0.12754 0
M  V30 3966 H 358.221 -1.47011 -0.0511978 0
M  V30 3967 H 360.179 -3.27059 -2.59014 0
M  V30 3968 H 358.809 -2.14298 -2.41405 0
M  V30 3969 H 357.861 -3.75492 -0.609095 0
M  V30 3970 H 359.173 -4.88375 -1.01447 0
M  V30 3971 H 358.327 -5.04869 -3.3644 0
M  V30 3972 H 357.066 -3.83233 -3.01635 0
M  V30 3973 H 356.071 -5.34712 -1.27916 0
M  V30 3974 H 357.296 -6.58686 -1.65255 0
M  V30 3975 H 355.242 -5.48067 -3.60497 0
M  V30 3976 H 355.159 -7.01843 -2.80986 0
M  V30 3977 H 356.427 -6.71447 -3.95953 0
M  V30 3978 N 360.656 0.0484629 -1.57525 0
M  V30 3979 C 361.881 0.759177 -1.93006 0
M  V30 3980 C 362.306 1.69125 -0.823317 0
M  V30 3981 O 361.664 1.79931 0.222364 0
M  V30 3982 C 361.712 1.50899 -3.27509 0
M  V30 3983 O 360.816 2.62112 -3.18388 0
M  V30 3984 H 360.157 0.205564 -0.631379 0
M  V30 3985 H 362.687 0.00972959 -2.04598 0
M  V30 3986 H 362.697 1.88317 -3.6194 0
M  V30 3987 H 361.372 0.825269 -4.0763 0
M  V30 3988 H 359.949 2.27379 -2.95556 0
M  V30 3989 N 362.134 1.5431 0.320358 0
M  V30 3990 C 363.064 1.86912 1.3995 0
M  V30 3991 C 364.045 0.726211 1.53819 0
M  V30 3992 O 365.23 0.980233 1.67646 0
M  V30 3993 C 362.36 2.09932 2.7667 0
M  V30 3994 C 361.314 3.25776 2.77586 0
M  V30 3995 C 360.64 3.34173 4.17412 0
M  V30 3996 C 361.94 4.6335 2.41048 0
M  V30 3997 H 363.634 2.77292 1.12914 0
M  V30 3998 H 361.18 1.33421 0.541738 0
M  V30 3999 H 363.133 2.31324 3.52232 0
M  V30 4000 H 361.857 1.16304 3.0519 0
M  V30 4001 H 360.516 3.04276 2.04479 0
M  V30 4002 H 360.164 2.38098 4.43078 0
M  V30 4003 H 359.864 4.12033 4.18931 0
M  V30 4004 H 361.388 3.57803 4.94782 0
M  V30 4005 H 362.802 4.84602 3.06324 0
M  V30 4006 H 361.199 5.43782 2.53813 0
M  V30 4007 H 362.269 4.65381 1.36193 0
M  V30 4008 N 363.613 -0.582584 1.46437 0
M  V30 4009 C 364.545 -1.70618 1.53043 0
M  V30 4010 C 365.558 -1.57322 0.418769 0
M  V30 4011 O 366.747 -1.64744 0.687136 0
M  V30 4012 C 363.847 -3.08869 1.39474 0
M  V30 4013 C 363.02 -3.48166 2.64762 0
M  V30 4014 C 362.079 -4.65478 2.4539 0
M  V30 4015 O 361.105 -4.71333 3.19114 0
M  V30 4016 N 362.307 -5.60365 1.51564 0
M  V30 4017 H 365.072 -1.65405 2.49923 0
M  V30 4018 H 362.633 -0.768567 1.42494 0
M  V30 4019 H 364.625 -3.85143 1.24287 0
M  V30 4020 H 363.195 -3.08449 0.507758 0
M  V30 4021 H 362.415 -2.61598 2.9489 0
M  V30 4022 H 363.703 -3.71188 3.4799 0
M  V30 4023 H 363.101 -5.5837 0.907705 0
M  V30 4024 H 361.658 -6.36068 1.4234 0
M  V30 4025 N 365.091 -1.34144 -0.827227 0
M  V30 4026 C 366.001 -1.27428 -1.96975 0
M  V30 4027 C 367.017 -0.182728 -1.73038 0
M  V30 4028 O 368.193 -0.408426 -1.97215 0
M  V30 4029 C 365.258 -1.02526 -3.31194 0
M  V30 4030 C 364.319 -2.20796 -3.68168 0
M  V30 4031 C 363.552 -1.97073 -4.95982 0
M  V30 4032 O 363.775 -0.926822 -5.6282 0
M  V30 4033 O 362.709 -2.83912 -5.30733 0
M  V30 4034 H 366.535 -2.23537 -2.05584 0
M  V30 4035 H 364.12 -1.14307 -0.961989 0
M  V30 4036 H 366.002 -0.904026 -4.11589 0
M  V30 4037 H 364.677 -0.0945389 -3.23562 0
M  V30 4038 H 363.584 -2.38477 -2.88235 0
M  V30 4039 H 364.917 -3.12243 -3.8048 0
M  V30 4040 N 366.569 1.04691 -1.17803 0
M  V30 4041 C 367.519 2.10856 -0.867391 0
M  V30 4042 C 368.503 1.601 0.160206 0
M  V30 4043 O 369.695 1.76948 -0.042947 0
M  V30 4044 C 366.824 3.411 -0.388012 0
M  V30 4045 C 365.91 3.9864 -1.44732 0
M  V30 4046 N 366.301 4.30075 -2.66212 0
M  V30 4047 C 364.599 4.26439 -1.30637 0
M  V30 4048 C 365.3 4.76033 -3.34317 0
M  V30 4049 N 364.276 4.76462 -2.61696 0
M  V30 4050 H 368.078 2.33029 -1.79094 0
M  V30 4051 H 365.592 1.22386 -1.0675 0
M  V30 4052 H 367.589 4.16641 -0.146994 0
M  V30 4053 H 366.249 3.20357 0.529271 0
M  V30 4054 H 367.26 4.19917 -3.03134 0
M  V30 4055 H 363.937 4.15056 -0.451129 0
M  V30 4056 H 365.327 5.09427 -4.38103 0
M  V30 4057 N 368.047 0.979072 1.23499 0
M  V30 4058 C 368.977 0.537606 2.27227 0
M  V30 4059 C 369.958 -0.428539 1.64613 0
M  V30 4060 O 371.143 -0.322191 1.91509 0
M  V30 4061 C 368.273 -0.162052 3.46922 0
M  V30 4062 C 367.227 0.721242 4.21879 0
M  V30 4063 C 366.553 -0.110555 5.34586 0
M  V30 4064 C 367.853 2.01141 4.82016 0
M  V30 4065 H 369.547 1.40462 2.64406 0
M  V30 4066 H 367.093 0.67684 1.27102 0
M  V30 4067 H 369.046 -0.482192 4.18632 0
M  V30 4068 H 367.77 -1.06351 3.08799 0
M  V30 4069 H 366.429 1.02482 3.51984 0
M  V30 4070 H 366.077 -1.0125 4.92704 0
M  V30 4071 H 365.777 0.477325 5.85658 0
M  V30 4072 H 367.301 -0.425107 6.09118 0
M  V30 4073 H 368.715 1.75612 5.45741 0
M  V30 4074 H 367.112 2.54695 5.43369 0
M  V30 4075 H 368.182 2.69909 4.02836 0
M  V30 4076 N 369.525 -1.3858 0.750561 0
M  V30 4077 C 370.936 -1.82927 0.373438 0
M  V30 4078 C 371.287 -1.62634 -1.09748 0
M  V30 4079 O 370.412 -1.12588 -1.84805 0
M  V30 4080 C 371.007 -3.32088 0.671029 0
M  V30 4081 C 369.566 -3.74795 0.34722 0
M  V30 4082 C 368.713 -2.61391 0.92575 0
M  V30 4083 H 371.664 -1.27351 0.946958 0
M  V30 4084 H 371.685 -3.80465 -0.0518269 0
M  V30 4085 H 371.197 -3.46826 1.74164 0
M  V30 4086 H 369.298 -3.65638 -0.716933 0
M  V30 4087 H 369.411 -4.71667 0.840656 0
M  V30 4088 H 367.775 -2.52265 0.351327 0
M  V30 4089 H 368.558 -2.78929 2.00133 0
M  V30 4090 N 371.003 -0.499398 -1.49478 0
M  V30 4091 C 372.28 0.108629 -1.95298 0
M  V30 4092 C 372.66 1.54282 -1.44084 0
M  V30 4093 O 372.008 2.18944 -0.653908 0
M  V30 4094 C 372.218 0.0229111 -3.48992 0
M  V30 4095 C 373.566 0.197643 -4.2414 0
M  V30 4096 O 374.59 0.0981735 -3.56065 0
M  V30 4097 O 373.449 0.401669 -5.45022 0
M  V30 4098 H 370.543 0.096181 -0.821388 0
M  V30 4099 H 373.089 -0.561822 -1.6013 0
M  V30 4100 H 371.861 -0.977321 -3.78899 0
M  V30 4101 H 371.484 0.733579 -3.90774 0
M  V30 4102 N 372.481 1.55866 -0.233164 0
M  V30 4103 C 373.727 1.98897 0.395959 0
M  V30 4104 C 374.06 1.12091 1.58585 0
M  V30 4105 O 373.335 0.181182 1.93654 0
M  V30 4106 C 373.618 3.50658 0.819224 0
M  V30 4107 C 373.471 4.48233 -0.375109 0
M  V30 4108 C 374.79 4.07135 1.67121 0
M  V30 4109 H 371.909 0.723102 0.142451 0
M  V30 4110 H 374.551 1.87082 -0.331725 0
M  V30 4111 H 372.701 3.60857 1.43925 0
M  V30 4112 H 374.373 4.50031 -1.01341 0
M  V30 4113 H 372.616 4.21624 -1.02058 0
M  V30 4114 H 373.287 5.51988 -0.0358328 0
M  V30 4115 H 375.763 3.99952 1.14795 0
M  V30 4116 H 374.639 5.13615 1.93625 0
M  V30 4117 H 374.9 3.54736 2.63846 0
M  V30 4118 N 373.959 -0.0401083 1.57549 0
M  V30 4119 C 375.205 -0.734211 1.89043 0
M  V30 4120 C 375.538 -1.75591 0.829535 0
M  V30 4121 O 374.813 -1.93868 -0.156706 0
M  V30 4122 C 375.096 -1.41374 3.31188 0
M  V30 4123 C 374.949 -0.406299 4.47961 0
M  V30 4124 C 376.268 -2.35061 3.72068 0
M  V30 4125 H 373.387 -0.265447 0.687537 0
M  V30 4126 H 376.029 0.00294087 1.9 0
M  V30 4127 H 374.179 -2.04206 3.30503 0
M  V30 4128 H 375.851 0.219255 4.60779 0
M  V30 4129 H 374.094 0.275485 4.32924 0
M  V30 4130 H 374.765 -0.920022 5.44279 0
M  V30 4131 H 377.241 -1.82282 3.74049 0
M  V30 4132 H 376.117 -2.79593 4.72355 0
M  V30 4133 H 376.378 -3.21258 3.0372 0
M  V30 4134 N 375.437 -1.54477 -0.31217 0
M  V30 4135 C 376.683 -1.73483 -1.0503 0
M  V30 4136 C 377.016 -0.513125 -1.87298 0
M  V30 4137 O 376.291 0.489864 -1.8823 0
M  V30 4138 C 376.574 -3.01723 -1.96558 0
M  V30 4139 C 376.427 -4.3417 -1.17545 0
M  V30 4140 C 377.746 -3.25772 -2.95907 0
M  V30 4141 H 374.865 -0.631222 -0.380432 0
M  V30 4142 H 377.507 -1.87184 -0.325932 0
M  V30 4143 H 375.657 -2.90174 -2.58324 0
M  V30 4144 H 377.329 -4.5762 -0.581513 0
M  V30 4145 H 375.572 -4.31159 -0.477925 0
M  V30 4146 H 376.243 -5.20143 -1.84811 0
M  V30 4147 H 378.719 -3.36857 -2.44267 0
M  V30 4148 H 377.595 -4.16838 -3.57123 0
M  V30 4149 H 377.856 -2.43537 -3.68974 0
M  V30 4150 N 376.915 0.57481 -1.46744 0
M  V30 4151 C 378.145 1.35659 -1.55821 0
M  V30 4152 C 378.553 1.88129 -0.201036 0
M  V30 4153 O 377.896 1.64723 0.813134 0
M  V30 4154 C 377.958 2.57473 -2.50894 0
M  V30 4155 C 377.622 2.26415 -3.9697 0
M  V30 4156 C 378.619 1.84771 -4.85958 0
M  V30 4157 C 376.304 2.38316 -4.42166 0
M  V30 4158 C 378.298 1.55434 -6.18158 0
M  V30 4159 C 375.985 2.08591 -5.74398 0
M  V30 4160 C 376.983 1.67216 -6.62214 0
M  V30 4161 O 376.671 1.37859 -7.91991 0
M  V30 4162 H 376.403 0.420496 -0.529301 0
M  V30 4163 H 378.957 0.704967 -1.92923 0
M  V30 4164 H 377.187 3.25468 -2.08824 0
M  V30 4165 H 378.876 3.19546 -2.50291 0
M  V30 4166 H 379.642 1.75085 -4.52295 0
M  V30 4167 H 375.521 2.69483 -3.74032 0
M  V30 4168 H 379.065 1.23065 -6.86659 0
M  V30 4169 H 374.962 2.17905 -6.07608 0
M  V30 4170 H 375.73 1.51638 -8.04331 0
M  V30 4171 N 378.394 1.34581 0.820102 0
M  V30 4172 C 379.342 1.26401 1.95258 0
M  V30 4173 C 380.336 0.161553 1.68628 0
M  V30 4174 O 381.542 0.326703 1.7701 0
M  V30 4175 H 377.917 0.392749 0.64129 0
M  V30 4176 H 379.888 2.22105 1.99279 0
M  V30 4177 C 378.637 1.03919 3.31807 0
M  V30 4178 H 377.96 1.87984 3.52848 0
M  V30 4179 H 379.4 1.02232 4.11491 0
M  V30 4180 C 377.859 -0.257433 3.35915 0
M  V30 4181 O 378.389 -1.25784 3.81499 0
M  V30 4182 N 376.595 -0.291524 2.89134 0
M  V30 4183 H 376.142 0.523161 2.52232 0
M  V30 4184 H 376.1 -1.15883 2.92264 0
M  V30 4185 N 379.872 -1.04064 1.18357 0
M  V30 4186 C 380.835 -2.10243 0.912707 0
M  V30 4187 C 381.835 -1.60477 -0.101928 0
M  V30 4188 O 383.025 -1.73703 0.131517 0
M  V30 4189 C 380.157 -3.38893 0.369387 0
M  V30 4190 H 381.35 -2.35706 1.85426 0
M  V30 4191 H 378.903 -1.20489 0.995594 0
M  V30 4192 H 379.638 -3.19094 -0.578776 0
M  V30 4193 H 379.423 -3.76331 1.1008 0
M  V30 4194 H 380.913 -4.17128 0.198575 0
M  V30 4195 N 381.35 -0.985608 -1.22978 0
M  V30 4196 C 382.598 -0.656087 -1.91154 0
M  V30 4197 C 382.919 0.813561 -1.77218 0
M  V30 4198 O 382.189 1.58244 -1.1548 0
M  V30 4199 H 380.769 -0.239674 -0.707506 0
M  V30 4200 H 383.431 -1.25054 -1.49491 0
M  V30 4201 H 382.527 -0.912253 -2.9847 0
M  V30 4202 N 382.828 1.3818 -0.7579 0
M  V30 4203 C 384.056 2.04301 -0.326937 0
M  V30 4204 C 384.471 1.57163 1.0462 0
M  V30 4205 O 383.828 0.746626 1.66529 0
M  V30 4206 C 383.879 3.59846 -0.345363 0
M  V30 4207 O 383.6 4.05256 -1.66432 0
M  V30 4208 C 385.101 4.4319 0.098927 0
M  V30 4209 H 382.321 0.656443 -0.139012 0
M  V30 4210 H 384.865 1.76786 -1.02796 0
M  V30 4211 H 383.02 3.86182 0.306955 0
M  V30 4212 H 383.434 4.99709 -1.59345 0
M  V30 4213 H 384.908 5.51989 0.0348745 0
M  V30 4214 H 385.385 4.23947 1.14741 0
M  V30 4215 H 385.991 4.22051 -0.52468 0
M  V30 4216 N 384.306 0.507319 1.49211 0
M  V30 4217 C 385.583 -0.0982702 1.95353 0
M  V30 4218 C 385.963 -1.53516 1.449 0
M  V30 4219 O 385.311 -2.18594 0.66551 0
M  V30 4220 C 385.521 -0.00440283 3.49 0
M  V30 4221 C 386.869 -0.175147 4.24239 0
M  V30 4222 O 387.893 -0.0792891 3.56112 0
M  V30 4223 O 386.752 -0.37276 5.45227 0
M  V30 4224 H 383.846 -0.0918236 0.821887 0
M  V30 4225 H 386.392 0.570307 1.5983 0
M  V30 4226 H 385.164 0.997402 3.78375 0
M  V30 4227 H 384.787 -0.712845 3.91158 0
M  V30 4228 N 385.784 -1.5574 0.241426 0
M  V30 4229 C 387.033 -1.97986 -0.385295 0
M  V30 4230 C 387.346 -1.13267 -1.59468 0
M  V30 4231 O 388.552 -1.45501 -2.2922 0
M  V30 4232 C 387.008 -3.52275 -0.736884 0
M  V30 4233 C 386.616 -4.45726 0.450796 0
M  V30 4234 C 388.36 -4.03189 -1.3281 0
M  V30 4235 C 386.267 -5.91352 0.0756662 0
M  V30 4236 H 385.197 -0.739386 -0.147731 0
M  V30 4237 H 387.848 -1.80308 0.340779 0
M  V30 4238 H 386.23 -3.65628 -1.52094 0
M  V30 4239 H 387.404 -4.44131 1.22819 0
M  V30 4240 H 385.719 -4.05264 0.956573 0
M  V30 4241 H 388.316 -5.09505 -1.62201 0
M  V30 4242 H 388.659 -3.50212 -2.25071 0
M  V30 4243 H 389.192 -3.93141 -0.607069 0
M  V30 4244 H 385.931 -6.48354 0.965272 0
M  V30 4245 H 385.451 -5.96095 -0.665635 0
M  V30 4246 H 387.13 -6.46084 -0.344075 0
M  V30 4247 N 387.262 0.0317525 -1.57568 0
M  V30 4248 C 388.192 1.03274 -2.0942 0
M  V30 4249 C 389.173 1.3788 -0.996143 0
M  V30 4250 O 390.358 1.46811 -1.27122 0
M  V30 4251 C 387.488 2.33448 -2.57137 0
M  V30 4252 C 386.442 2.13091 -3.71182 0
M  V30 4253 C 385.768 3.49001 -4.05095 0
M  V30 4254 C 387.068 1.51928 -4.99715 0
M  V30 4255 H 388.762 0.60112 -2.93303 0
M  V30 4256 H 386.308 0.287705 -1.41097 0
M  V30 4257 H 388.261 3.03802 -2.92032 0
M  V30 4258 H 386.985 2.78665 -1.70333 0
M  V30 4259 H 385.644 1.45171 -3.36632 0
M  V30 4260 H 385.292 3.91862 -3.15362 0
M  V30 4261 H 384.992 3.36207 -4.81911 0
M  V30 4262 H 386.516 4.20721 -4.42522 0
M  V30 4263 H 387.93 2.12196 -5.32584 0
M  V30 4264 H 386.327 1.49716 -5.81124 0
M  V30 4265 H 387.397 0.484811 -4.8247 0
M  V30 4266 N 388.74 1.54641 0.303973 0
M  V30 4267 C 389.65 1.88439 1.39743 0
M  V30 4268 C 390.666 0.778239 1.55626 0
M  V30 4269 O 391.842 1.07442 1.70347 0
M  V30 4270 C 388.907 2.12212 2.74166 0
M  V30 4271 C 387.968 3.35936 2.67293 0
M  V30 4272 C 387.201 3.58566 3.95305 0
M  V30 4273 O 387.424 2.84263 4.9452 0
M  V30 4274 O 386.358 4.52078 3.97378 0
M  V30 4275 H 390.184 2.81458 1.14083 0
M  V30 4276 H 387.769 1.40793 0.499768 0
M  V30 4277 H 389.651 2.29067 3.53704 0
M  V30 4278 H 388.326 1.22379 2.99675 0
M  V30 4279 H 387.233 3.24448 1.86237 0
M  V30 4280 H 388.566 4.2589 2.46736 0
M  V30 4281 N 390.218 -0.567019 1.47046 0
M  V30 4282 C 391.466 -1.322 1.52864 0
M  V30 4283 C 391.787 -1.94088 0.188388 0
M  V30 4284 O 391.057 -1.7941 -0.786693 0
M  V30 4285 H 389.637 -0.490894 0.563056 0
M  V30 4286 H 392.299 -0.662879 1.83281 0
M  V30 4287 H 391.395 -2.12062 2.2899 0
M  V30 4288 N 391.696 -1.35014 -0.812953 0
M  V30 4289 C 392.973 -1.18502 -1.55617 0
M  V30 4290 C 393.353 0.238421 -2.09749 0
M  V30 4291 O 392.701 1.2411 -1.91857 0
M  V30 4292 C 392.911 -2.24783 -2.66971 0
M  V30 4293 C 394.259 -2.60268 -3.35478 0
M  V30 4294 O 395.283 -2.23648 -2.77236 0
M  V30 4295 O 394.142 -3.2321 -4.40678 0
M  V30 4296 H 391.236 -0.459984 -0.687272 0
M  V30 4297 H 393.782 -1.46677 -0.853464 0
M  V30 4298 H 392.554 -3.20284 -2.24798 0
M  V30 4299 H 392.177 -1.97841 -3.44884 0
M  V30 4300 N 393.175 1.03435 -1.18907 0
M  V30 4301 C 394.591 1.28973 -0.940111 0
M  V30 4302 C 394.791 1.97676 0.390691 0
M  V30 4303 O 393.847 2.26127 1.12352 0
M  V30 4304 C 395.16 2.14221 -2.11021 0
M  V30 4305 C 396.708 2.27547 -2.14922 0
M  V30 4306 C 397.183 3.16164 -3.31367 0
M  V30 4307 N 398.674 3.23752 -3.31269 0
M  V30 4308 C 399.409 3.92495 -4.18014 0
M  V30 4309 N 398.905 4.63515 -5.14904 0
M  V30 4310 N 400.698 3.88838 -4.05908 0
M  V30 4311 H 392.849 0.57252 -2.04538 0
M  V30 4312 H 395.112 0.315184 -0.894071 0
M  V30 4313 H 394.818 1.71054 -3.073 0
M  V30 4314 H 394.692 3.14919 -2.0762 0
M  V30 4315 H 397.079 2.69947 -1.19217 0
M  V30 4316 H 397.16 1.26418 -2.22378 0
M  V30 4317 H 396.804 2.74474 -4.27348 0
M  V30 4318 H 396.734 4.17339 -3.21148 0
M  V30 4319 H 399.225 2.73167 -2.61129 0
M  V30 4320 H 399.538 5.13583 -5.77453 0
M  V30 4321 H 397.883 4.62398 -5.18857 0
M  V30 4322 H 401.074 3.32491 -3.29495 0
M  V30 4323 H 401.247 4.4214 -4.73726 0
M  V30 4324 N 394.653 0.992116 1.22453 0
M  V30 4325 C 395.583 0.561677 2.26644 0
M  V30 4326 C 396.564 -0.411055 1.65059 0
M  V30 4327 O 397.749 -0.301861 1.9184 0
M  V30 4328 C 394.879 -0.125247 3.47074 0
M  V30 4329 C 393.833 0.765948 4.21091 0
M  V30 4330 C 393.159 -0.0538484 5.34673 0
M  V30 4331 C 394.459 2.06242 4.79856 0
M  V30 4332 H 396.153 1.43259 2.62902 0
M  V30 4333 H 393.699 0.690283 1.26377 0
M  V30 4334 H 395.652 -0.437764 4.1912 0
M  V30 4335 H 394.376 -1.03069 3.0991 0
M  V30 4336 H 393.035 1.0621 3.50878 0
M  V30 4337 H 392.683 -0.960188 4.9375 0
M  V30 4338 H 392.383 0.539415 5.85119 0
M  V30 4339 H 393.907 -0.360477 6.09535 0
M  V30 4340 H 395.321 1.8139 5.43848 0
M  V30 4341 H 393.718 2.60444 5.40638 0
M  V30 4342 H 394.788 2.74167 3.99951 0
M  V30 4343 N 396.131 -1.37776 0.765217 0
M  V30 4344 C 397.379 -1.99454 0.325943 0
M  V30 4345 C 397.7 -1.61049 -1.09947 0
M  V30 4346 O 396.97 -0.872821 -1.75381 0
M  V30 4347 H 395.55 -0.737697 0.117525 0
M  V30 4348 H 398.212 -1.68359 0.981895 0
M  V30 4349 H 397.308 -3.09547 0.398353 0
M  V30 4350 N 397.609 -0.515225 -1.4894 0
M  V30 4351 C 398.857 0.0241671 -2.02086 0
M  V30 4352 C 399.178 1.3616 -1.3959 0
M  V30 4353 O 398.448 1.87841 -0.556121 0
M  V30 4354 H 397.028 0.0119203 -0.746905 0
M  V30 4355 H 399.69 -0.675702 -1.82812 0
M  V30 4356 H 398.786 0.143385 -3.1177 0
M  V30 4357 N 399.087 1.5561 -0.249682 0
M  V30 4358 C 400.017 2.24477 0.642826 0
M  V30 4359 C 400.998 1.22601 1.17911 0
M  V30 4360 O 402.183 1.5126 1.21795 0
M  V30 4361 C 399.313 2.94638 1.83863 0
M  V30 4362 C 398.267 4.03227 1.435 0
M  V30 4363 C 397.593 4.60828 2.71186 0
M  V30 4364 C 398.893 5.18796 0.604002 0
M  V30 4365 H 400.587 2.99321 0.0685625 0
M  V30 4366 H 398.133 1.43965 0.0315363 0
M  V30 4367 H 400.086 3.41517 2.46868 0
M  V30 4368 H 398.81 2.17287 2.43832 0
M  V30 4369 H 397.469 3.57121 0.828275 0
M  V30 4370 H 397.117 3.80174 3.29358 0
M  V30 4371 H 396.817 5.34132 2.44901 0
M  V30 4372 H 398.341 5.10442 3.35084 0
M  V30 4373 H 399.755 5.61883 1.13842 0
M  V30 4374 H 398.152 5.98506 0.437097 0
M  V30 4375 H 399.222 4.83384 -0.383147 0
M  V30 4376 N 400.565 -0.0233959 1.57583 0
M  V30 4377 C 401.79 -0.728376 1.94189 0
M  V30 4378 C 402.215 -1.67793 0.850119 0
M  V30 4379 O 401.573 -1.80262 -0.19371 0
M  V30 4380 C 401.621 -1.45669 3.29868 0
M  V30 4381 O 400.725 -2.57013 3.22518 0
M  V30 4382 H 400.066 -0.195493 0.63457 0
M  V30 4383 H 402.596 0.0228214 2.04587 0
M  V30 4384 H 402.606 -1.82535 3.6489 0
M  V30 4385 H 401.281 -0.760314 4.08891 0
M  V30 4386 H 399.858 -2.22648 2.99136 0
M  V30 4387 N 402.043 -1.548 -0.295768 0
M  V30 4388 C 403.292 -1.73538 -1.02798 0
M  V30 4389 C 403.605 -0.531159 -1.8825 0
M  V30 4390 O 404.811 -0.600458 -2.64777 0
M  V30 4391 C 403.267 -3.07051 -1.87744 0
M  V30 4392 C 402.875 -4.34968 -1.07269 0
M  V30 4393 C 404.619 -3.35146 -2.60533 0
M  V30 4394 C 402.526 -5.5953 -1.91521 0
M  V30 4395 H 401.456 -0.646794 -0.387522 0
M  V30 4396 H 404.107 -1.81278 -0.284718 0
M  V30 4397 H 402.489 -2.93289 -2.66078 0
M  V30 4398 H 403.663 -4.5958 -0.335117 0
M  V30 4399 H 401.978 -4.13847 -0.460384 0
M  V30 4400 H 404.575 -4.2541 -3.23929 0
M  V30 4401 H 404.918 -2.54255 -3.29636 0
M  V30 4402 H 405.451 -3.49902 -1.89244 0
M  V30 4403 H 402.19 -6.43103 -1.26878 0
M  V30 4404 H 401.71 -5.39096 -2.62937 0
M  V30 4405 H 403.389 -5.96982 -2.49442 0
M  V30 4406 N 403.521 0.559213 -1.47345 0
M  V30 4407 C 404.746 1.34676 -1.57725 0
M  V30 4408 C 405.171 1.86723 -0.227164 0
M  V30 4409 O 404.529 1.6286 0.796642 0
M  V30 4410 C 404.577 2.49399 -2.60447 0
M  V30 4411 O 403.681 3.51567 -2.15578 0
M  V30 4412 H 403.022 0.400115 -0.52991 0
M  V30 4413 H 405.552 0.676009 -1.93109 0
M  V30 4414 H 405.562 2.95996 -2.80803 0
M  V30 4415 H 404.237 2.10873 -3.58477 0
M  V30 4416 H 402.814 3.11289 -2.05313 0
M  V30 4417 N 404.999 1.35443 0.805782 0
M  V30 4418 C 406.41 1.25768 1.37983 0
M  V30 4419 C 406.761 -0.10958 1.95894 0
M  V30 4420 O 405.886 -1.01056 1.91355 0
M  V30 4421 C 406.481 2.27727 2.5085 0
M  V30 4422 C 405.04 2.2179 3.04115 0
M  V30 4423 C 404.187 2.13393 1.77084 0
M  V30 4424 H 407.138 1.4656 0.608752 0
M  V30 4425 H 407.159 1.90422 3.29424 0
M  V30 4426 H 406.671 3.27227 2.08671 0
M  V30 4427 H 404.772 1.25703 3.50756 0
M  V30 4428 H 404.885 3.13788 3.62042 0
M  V30 4429 H 403.249 1.59384 1.98668 0
M  V30 4430 H 404.032 3.14755 1.37056 0
M  V30 4431 N 406.477 -1.02803 1.19454 0
M  V30 4432 C 407.44 -2.09264 0.934955 0
M  V30 4433 C 408.44 -1.60576 -0.0849015 0
M  V30 4434 O 409.63 -1.73554 0.149933 0
M  V30 4435 C 406.762 -3.38482 0.40531 0
M  V30 4436 H 407.955 -2.33726 1.87916 0
M  V30 4437 H 405.508 -1.19426 1.00832 0
M  V30 4438 H 406.243 -3.19689 -0.544899 0
M  V30 4439 H 406.028 -3.75142 1.14065 0
M  V30 4440 H 407.518 -4.16894 0.242806 0
M  V30 4441 N 407.956 -0.998596 -1.21925 0
M  V30 4442 C 409.204 -0.676325 -1.90448 0
M  V30 4443 C 409.525 0.794719 -1.78071 0
M  V30 4444 O 408.795 1.5701 -1.17152 0
M  V30 4445 H 407.375 -0.247165 -0.704925 0
M  V30 4446 H 410.037 -1.26633 -1.48156 0
M  V30 4447 H 409.133 -0.943858 -2.97486 0
M  V30 4448 N 409.434 1.37368 -0.772513 0
M  V30 4449 C 410.683 1.98918 -0.333861 0
M  V30 4450 C 410.996 1.62017 1.09589 0
M  V30 4451 O 412.202 2.16676 1.63596 0
M  V30 4452 C 410.658 3.55735 -0.545971 0
M  V30 4453 C 410.266 4.01573 -1.98603 0
M  V30 4454 C 412.01 4.24156 -0.170979 0
M  V30 4455 C 409.917 5.51102 -2.1457 0
M  V30 4456 H 408.847 0.744214 -0.121085 0
M  V30 4457 H 411.498 1.56888 -0.95175 0
M  V30 4458 H 409.88 3.95748 0.141387 0
M  V30 4459 H 411.054 3.72803 -2.7084 0
M  V30 4460 H 409.369 3.45937 -2.31769 0
M  V30 4461 H 411.966 5.34024 -0.26878 0
M  V30 4462 H 412.309 4.06917 0.878855 0
M  V30 4463 H 412.842 3.89447 -0.810914 0
M  V30 4464 H 409.581 5.73268 -3.17875 0
M  V30 4465 H 409.101 5.81554 -1.46817 0
M  V30 4466 H 410.78 6.17083 -1.94468 0
M  V30 4467 N 410.912 0.523116 1.48665 0
M  V30 4468 C 412.158 -0.0134963 2.02796 0
M  V30 4469 C 412.491 -1.34582 1.40004 0
M  V30 4470 O 411.766 -1.86756 0.543381 0
M  V30 4471 C 412.049 -0.14276 3.59817 0
M  V30 4472 C 411.902 1.21425 4.331 0
M  V30 4473 C 413.221 -0.872856 4.31357 0
M  V30 4474 H 410.34 -0.00343074 0.736992 0
M  V30 4475 H 412.982 0.678816 1.7746 0
M  V30 4476 H 411.132 -0.732401 3.81534 0
M  V30 4477 H 412.804 1.84447 4.2282 0
M  V30 4478 H 411.047 1.79791 3.94788 0
M  V30 4479 H 411.718 1.07687 5.41394 0
M  V30 4480 H 414.194 -0.372555 4.14429 0
M  V30 4481 H 413.07 -0.932185 5.40927 0
M  V30 4482 H 413.331 -1.92161 3.98154 0
M  V30 4483 N 412.39 -1.55475 0.257931 0
M  V30 4484 C 413.337 -2.21837 -0.636939 0
M  V30 4485 C 414.307 -1.18596 -1.16294 0
M  V30 4486 O 415.492 -1.47081 -1.21539 0
M  V30 4487 C 412.632 -2.9301 -1.82317 0
M  V30 4488 C 411.745 -4.10931 -1.33265 0
M  V30 4489 C 410.88 -4.69791 -2.47931 0
M  V30 4490 C 409.919 -5.7994 -1.95796 0
M  V30 4491 N 409.056 -6.32935 -3.0387 0
M  V30 4492 H 413.896 -2.9793 -0.0643591 0
M  V30 4493 H 411.433 -1.47086 -0.0200031 0
M  V30 4494 H 413.391 -3.3248 -2.52018 0
M  V30 4495 H 412.021 -2.1937 -2.36805 0
M  V30 4496 H 411.073 -3.76699 -0.52931 0
M  V30 4497 H 412.385 -4.90417 -0.910654 0
M  V30 4498 H 411.539 -5.11892 -3.25656 0
M  V30 4499 H 410.278 -3.89545 -2.93438 0
M  V30 4500 H 409.283 -5.37305 -1.16546 0
M  V30 4501 H 410.508 -6.62043 -1.51246 0
M  V30 4502 H 408.454 -5.55591 -3.48791 0
M  V30 4503 H 408.371 -7.07645 -2.66035 0
M  V30 4504 H 409.639 -6.79695 -3.81621 0
M  V30 4505 N 413.868 0.0150385 -1.57593 0
M  V30 4506 C 415.284 0.370907 -1.5523 0
M  V30 4507 C 415.484 1.75735 -0.985882 0
M  V30 4508 O 414.54 2.44944 -0.613077 0
M  V30 4509 C 415.853 0.259908 -2.99575 0
M  V30 4510 C 417.401 0.335959 -3.11192 0
M  V30 4511 C 417.876 0.254253 -4.57294 0
M  V30 4512 N 419.367 0.312618 -4.62144 0
M  V30 4513 C 420.102 0.272505 -5.72752 0
M  V30 4514 N 419.598 0.183864 -6.92556 0
M  V30 4515 N 421.391 0.323267 -5.6117 0
M  V30 4516 H 413.542 -0.892104 -1.92757 0
M  V30 4517 H 415.805 -0.340563 -0.884715 0
M  V30 4518 H 415.511 -0.693403 -3.44797 0
M  V30 4519 H 415.385 1.048 -3.62349 0
M  V30 4520 H 417.772 1.27971 -2.65909 0
M  V30 4521 H 417.853 -0.481739 -2.51223 0
M  V30 4522 H 417.497 -0.685887 -5.03247 0
M  V30 4523 H 417.427 1.09024 -5.15191 0
M  V30 4524 H 419.918 0.38307 -3.75953 0
M  V30 4525 H 420.231 0.15874 -7.72637 0
M  V30 4526 H 418.576 0.149708 -6.94839 0
M  V30 4527 H 421.767 0.390607 -4.66467 0
M  V30 4528 H 421.94 0.288539 -6.47357 0
M  V30 4529 N 415.346 1.54954 0.287554 0
M  V30 4530 C 416.623 1.65569 1.04146 0
M  V30 4531 C 417.003 0.512672 2.0478 0
M  V30 4532 O 416.351 -0.489038 2.23205 0
M  V30 4533 C 416.561 3.04163 1.71131 0
M  V30 4534 C 417.909 3.61429 2.22832 0
M  V30 4535 O 418.933 3.06702 1.81141 0
M  V30 4536 O 417.792 4.57281 2.9926 0
M  V30 4537 H 414.886 0.671881 0.482188 0
M  V30 4538 H 417.432 1.67297 0.28457 0
M  V30 4539 H 416.204 3.78796 0.981303 0
M  V30 4540 H 415.827 3.06271 2.53543 0
M  V30 4541 N 416.824 -0.551391 1.4764 0
M  V30 4542 C 417.734 -1.68525 1.63207 0
M  V30 4543 C 418.75 -1.6621 0.514815 0
M  V30 4544 O 419.926 -1.85551 0.783113 0
M  V30 4545 C 416.991 -3.05025 1.64805 0
M  V30 4546 C 416.052 -3.18362 2.88 0
M  V30 4547 C 415.285 -4.4835 2.89513 0
M  V30 4548 O 415.508 -5.34163 2.00065 0
M  V30 4549 O 414.442 -4.65602 3.81443 0
M  V30 4550 H 418.268 -1.58333 2.59161 0
M  V30 4551 H 415.853 -0.722063 1.30792 0
M  V30 4552 H 417.735 -3.86245 1.68502 0
M  V30 4553 H 416.41 -3.15587 0.720197 0
M  V30 4554 H 415.317 -2.36518 2.89845 0
M  V30 4555 H 416.65 -3.12707 3.80099 0
M  V30 4556 N 418.302 -1.35869 -0.798587 0
M  V30 4557 C 419.232 -1.32118 -1.92528 0
M  V30 4558 C 420.213 -0.194209 -1.68988 0
M  V30 4559 O 421.398 -0.390426 -1.90235 0
M  V30 4560 C 418.528 -1.10047 -3.29404 0
M  V30 4561 C 417.482 -2.19471 -3.67446 0
M  V30 4562 C 416.808 -1.82555 -5.02571 0
M  V30 4563 C 418.108 -3.61495 -3.76987 0
M  V30 4564 H 419.802 -2.26394 -1.95924 0
M  V30 4565 H 417.348 -1.08981 -0.94123 0
M  V30 4566 H 419.301 -1.06061 -4.07835 0
M  V30 4567 H 418.025 -0.122195 -3.26371 0
M  V30 4568 H 416.684 -2.22568 -2.91306 0
M  V30 4569 H 416.332 -0.833249 -4.9605 0
M  V30 4570 H 416.032 -2.5581 -5.28995 0
M  V30 4571 H 417.556 -1.80108 -5.83432 0
M  V30 4572 H 418.97 -3.60676 -4.4563 0
M  V30 4573 H 417.367 -4.33577 -4.14887 0
M  V30 4574 H 418.437 -3.97065 -2.78329 0
M  V30 4575 N 419.78 1.02168 -1.19998 0
M  V30 4576 C 421.026 1.75945 -1.00852 0
M  V30 4577 C 421.359 1.88702 0.458828 0
M  V30 4578 O 420.634 1.40911 1.34069 0
M  V30 4579 C 420.917 3.18154 -1.68671 0
M  V30 4580 C 420.77 3.13224 -3.22817 0
M  V30 4581 C 422.089 4.16711 -1.41561 0
M  V30 4582 H 419.208 0.638673 -0.367785 0
M  V30 4583 H 421.85 1.19222 -1.4794 0
M  V30 4584 H 420 3.66586 -1.28636 0
M  V30 4585 H 421.672 2.72635 -3.72112 0
M  V30 4586 H 419.915 2.50751 -3.53986 0
M  V30 4587 H 420.586 4.13728 -3.65422 0
M  V30 4588 H 423.062 3.76913 -1.76284 0
M  V30 4589 H 421.938 5.14391 -1.91553 0
M  V30 4590 H 422.199 4.40774 -0.342193 0
M  V30 4591 N 421.258 1.00505 1.21394 0
M  V30 4592 C 422.505 0.687774 1.90462 0
M  V30 4593 C 422.833 -0.78147 1.7811 0
M  V30 4594 O 422.088 -1.58208 1.1519 0
M  V30 4595 C 422.387 1.0546 3.41486 0
M  V30 4596 C 422.053 2.51812 3.74034 0
M  V30 4597 C 420.715 2.91804 3.82628 0
M  V30 4598 C 423.067 3.46614 3.8924 0
M  V30 4599 C 420.395 4.2556 4.03876 0
M  V30 4600 C 422.747 4.80044 4.11995 0
M  V30 4601 C 421.411 5.19759 4.18816 0
M  V30 4602 H 420.681 0.251674 0.696951 0
M  V30 4603 H 423.328 1.26349 1.43903 0
M  V30 4604 H 421.633 0.397133 3.89782 0
M  V30 4605 H 423.33 0.786976 3.93202 0
M  V30 4606 H 419.92 2.1982 3.67936 0
M  V30 4607 H 424.104 3.16883 3.81967 0
M  V30 4608 H 419.36 4.55901 4.07387 0
M  V30 4609 H 423.534 5.53439 4.22704 0
M  V30 4610 H 421.161 6.23418 4.35033 0
M  V30 4611 N 422.737 -1.36956 0.779787 0
M  V30 4612 C 424.153 -1.52817 0.460342 0
M  V30 4613 C 424.353 -1.7361 -1.02283 0
M  V30 4614 O 423.409 -1.76207 -1.80852 0
M  V30 4615 C 424.722 -2.71983 1.28241 0
M  V30 4616 C 426.27 -2.85849 1.27512 0
M  V30 4617 C 426.745 -4.08008 2.08072 0
M  V30 4618 N 428.236 -4.15135 2.05467 0
M  V30 4619 C 428.971 -5.08711 2.64577 0
M  V30 4620 N 428.467 -6.07792 3.32506 0
M  V30 4621 N 430.26 -5.01254 2.54363 0
M  V30 4622 H 422.411 -1.21713 1.74068 0
M  V30 4623 H 424.674 -0.593294 0.739396 0
M  V30 4624 H 424.38 -2.63109 2.33381 0
M  V30 4625 H 424.254 -3.65882 0.917088 0
M  V30 4626 H 426.641 -2.94189 0.231686 0
M  V30 4627 H 426.722 -1.92886 1.68014 0
M  V30 4628 H 426.366 -4.00429 3.12441 0
M  V30 4629 H 426.296 -5.001 1.64947 0
M  V30 4630 H 428.787 -3.44189 1.5602 0
M  V30 4631 H 429.1 -6.75739 3.74963 0
M  V30 4632 H 427.445 -6.08047 3.36606 0
M  V30 4633 H 430.636 -4.22795 2.00902 0
M  V30 4634 H 430.809 -5.73995 3.00722 0
M  V30 4635 N 424.215 -0.530993 -1.48385 0
M  V30 4636 C 425.148 0.278511 -2.26494 0
M  V30 4637 C 426.126 0.943905 -1.32398 0
M  V30 4638 O 427.31 0.968098 -1.61741 0
M  V30 4639 C 424.437 1.39453 -3.08659 0
M  V30 4640 C 423.483 0.840434 -4.18137 0
M  V30 4641 S 424.316 -0.292496 -5.34701 0
M  V30 4642 C 425.472 0.825973 -6.20426 0
M  V30 4643 H 425.705 -0.384365 -2.94805 0
M  V30 4644 H 423.238 -0.316799 -1.51115 0
M  V30 4645 H 425.196 2.03382 -3.56575 0
M  V30 4646 H 423.857 2.02913 -2.3976 0
M  V30 4647 H 423.05 1.67769 -4.75257 0
M  V30 4648 H 422.652 0.277819 -3.72967 0
M  V30 4649 H 424.944 1.72438 -6.55188 0
M  V30 4650 H 425.887 0.292728 -7.07495 0
M  V30 4651 H 426.295 1.10683 -5.53543 0
M  V30 4652 N 425.693 1.55336 -0.266172 0
M  V30 4653 C 426.939 1.99692 0.353681 0
M  V30 4654 C 427.272 1.1543 1.56172 0
M  V30 4655 O 426.547 0.222218 1.93226 0
M  V30 4656 C 426.83 3.52316 0.74466 0
M  V30 4657 C 426.683 4.47337 -0.470101 0
M  V30 4658 C 428.002 4.10588 1.58447 0
M  V30 4659 H 425.121 0.725961 0.12708 0
M  V30 4660 H 427.763 1.86336 -0.371333 0
M  V30 4661 H 425.913 3.63829 1.36239 0
M  V30 4662 H 427.585 4.4778 -1.10864 0
M  V30 4663 H 425.828 4.19364 -1.10978 0
M  V30 4664 H 426.499 5.51788 -0.15291 0
M  V30 4665 H 428.975 4.02297 1.06286 0
M  V30 4666 H 427.851 5.17607 1.82686 0
M  V30 4667 H 428.112 3.60253 2.56262 0
M  V30 4668 N 427.171 -0.0066808 1.57599 0
M  V30 4669 C 428.587 -0.36267 1.55425 0
M  V30 4670 C 428.787 -1.75209 0.995187 0
M  V30 4671 O 427.843 -2.44616 0.626058 0
M  V30 4672 C 429.156 -0.244017 2.99708 0
M  V30 4673 C 430.704 -0.319451 3.11366 0
M  V30 4674 C 431.179 -0.229998 4.57422 0
M  V30 4675 N 432.67 -0.288105 4.62303 0
M  V30 4676 C 433.405 -0.242127 5.72889 0
M  V30 4677 N 432.901 -0.147133 6.92644 0
M  V30 4678 N 434.694 -0.293502 5.61333 0
M  V30 4679 H 426.845 0.902314 1.92281 0
M  V30 4680 H 429.108 0.34525 0.882896 0
M  V30 4681 H 428.814 0.711678 3.44424 0
M  V30 4682 H 428.688 -1.02877 3.629 0
M  V30 4683 H 431.075 -1.26559 2.66584 0
M  V30 4684 H 431.156 0.495055 2.50964 0
M  V30 4685 H 430.8 0.712566 5.02877 0
M  V30 4686 H 430.73 -1.0629 5.15761 0
M  V30 4687 H 433.221 -0.363126 3.76151 0
M  V30 4688 H 433.534 -0.117763 7.7271 0
M  V30 4689 H 431.879 -0.112857 6.94908 0
M  V30 4690 H 435.07 -0.365864 4.66668 0
M  V30 4691 H 435.243 -0.254204 6.47501 0
M  V30 4692 N 428.649 -1.55105 -0.279332 0
M  V30 4693 C 429.897 -1.75066 -1.00977 0
M  V30 4694 C 430.218 -0.551276 -1.87045 0
M  V30 4695 O 429.488 0.433984 -1.91032 0
M  V30 4696 H 428.068 -0.645578 -0.375816 0
M  V30 4697 H 430.73 -1.92497 -0.305089 0
M  V30 4698 H 429.826 -2.64894 -1.65038 0
M  V30 4699 N 430.127 0.543554 -1.4793 0
M  V30 4700 C 431.543 0.870806 -1.3375 0
M  V30 4701 C 431.743 1.9864 -0.338261 0
M  V30 4702 O 430.799 2.51305 0.245371 0
M  V30 4703 C 432.112 1.25114 -2.73435 0
M  V30 4704 C 433.66 1.3618 -2.81823 0
M  V30 4705 C 434.135 1.77563 -4.22179 0
M  V30 4706 N 435.626 1.8469 -4.24787 0
M  V30 4707 C 436.361 2.18067 -5.30315 0
M  V30 4708 N 435.857 2.49963 -6.46135 0
M  V30 4709 N 437.65 2.18958 -5.17701 0
M  V30 4710 H 429.801 -0.19275 -2.11524 0
M  V30 4711 H 432.064 -0.0235777 -0.947707 0
M  V30 4712 H 431.77 0.50514 -3.48053 0
M  V30 4713 H 431.644 2.20431 -3.06088 0
M  V30 4714 H 434.031 2.09859 -2.07468 0
M  V30 4715 H 434.112 0.390169 -2.52807 0
M  V30 4716 H 433.756 1.04449 -4.97044 0
M  V30 4717 H 433.686 2.75753 -4.48629 0
M  V30 4718 H 436.177 1.62372 -3.41239 0
M  V30 4719 H 436.49 2.74497 -7.22406 0
M  V30 4720 H 434.835 2.47513 -6.49432 0
M  V30 4721 H 438.026 1.93488 -4.2624 0
M  V30 4722 H 438.199 2.44639 -6.00047 0
M  V30 4723 N 431.605 1.3629 0.791371 0
M  V30 4724 C 433.021 1.16661 1.08914 0
M  V30 4725 C 433.221 -0.0106266 2.01497 0
M  V30 4726 O 432.277 -0.676596 2.43266 0
M  V30 4727 C 433.59 2.47656 1.70549 0
M  V30 4728 C 435.138 2.54002 1.82899 0
M  V30 4729 C 435.613 3.85078 2.47949 0
M  V30 4730 N 437.104 3.86413 2.5542 0
M  V30 4731 C 437.839 4.84572 3.06557 0
M  V30 4732 N 437.335 5.93124 3.58016 0
M  V30 4733 N 439.128 4.71994 3.05251 0
M  V30 4734 H 431.279 2.11668 0.176238 0
M  V30 4735 H 433.542 0.937486 0.140796 0
M  V30 4736 H 433.248 3.34059 1.09989 0
M  V30 4737 H 433.122 2.63319 2.70079 0
M  V30 4738 H 435.509 1.68018 2.42598 0
M  V30 4739 H 435.59 2.42239 0.821808 0
M  V30 4740 H 435.234 4.71467 1.88895 0
M  V30 4741 H 435.164 3.94135 3.49235 0
M  V30 4742 H 437.655 3.07988 2.18979 0
M  V30 4743 H 437.968 6.63999 3.95381 0
M  V30 4744 H 436.313 5.96796 3.56173 0
M  V30 4745 H 439.504 3.86321 2.64336 0
M  V30 4746 H 439.677 5.48653 3.44796 0
M  V30 4747 N 433.083 -1.0153 1.20538 0
M  V30 4748 C 434.329 -1.75408 1.01783 0
M  V30 4749 C 434.662 -1.88943 -0.448814 0
M  V30 4750 O 433.937 -1.4162 -1.33319 0
M  V30 4751 C 434.22 -3.17255 1.70356 0
M  V30 4752 C 434.073 -3.11508 3.24473 0
M  V30 4753 C 435.392 -4.15955 1.43769 0
M  V30 4754 H 432.511 -0.636713 0.371167 0
M  V30 4755 H 435.153 -1.18436 1.4857 0
M  V30 4756 H 433.303 -3.65898 1.30578 0
M  V30 4757 H 434.975 -2.70658 3.73553 0
M  V30 4758 H 433.218 -2.4887 3.55311 0
M  V30 4759 H 433.889 -4.11784 3.67611 0
M  V30 4760 H 436.365 -3.75973 1.7828 0
M  V30 4761 H 435.241 -5.13368 1.94279 0
M  V30 4762 H 435.502 -4.40586 0.365564 0
M  V30 4763 N 434.561 -1.01147 -1.20859 0
M  V30 4764 C 435.972 -0.730205 -1.71828 0
M  V30 4765 C 436.323 0.751662 -1.8123 0
M  V30 4766 O 435.448 1.58686 -1.47132 0
M  V30 4767 C 436.043 -1.31885 -3.12077 0
M  V30 4768 C 434.602 -1.08656 -3.60376 0
M  V30 4769 C 433.749 -1.42769 -2.37723 0
M  V30 4770 H 436.7 -1.18158 -1.05945 0
M  V30 4771 H 436.721 -0.706793 -3.73878 0
M  V30 4772 H 436.233 -2.39737 -3.05201 0
M  V30 4773 H 434.334 -0.0254814 -3.72591 0
M  V30 4774 H 434.447 -1.76301 -4.45483 0
M  V30 4775 H 432.811 -0.846603 -2.40218 0
M  V30 4776 H 433.594 -2.51666 -2.33493 0
M  V30 4777 N 436.039 1.36541 -0.78704 0
M  V30 4778 C 437.288 1.98552 -0.35494 0
M  V30 4779 C 437.601 1.63171 1.07864 0
M  V30 4780 O 438.807 2.18399 1.61289 0
M  V30 4781 C 437.263 3.55136 -0.583671 0
M  V30 4782 C 436.871 3.99444 -2.02851 0
M  V30 4783 C 438.615 4.2395 -0.215957 0
M  V30 4784 C 436.522 5.48796 -2.20403 0
M  V30 4785 H 435.452 0.742888 -0.128972 0
M  V30 4786 H 438.103 1.5587 -0.968337 0
M  V30 4787 H 436.485 3.95875 0.0994046 0
M  V30 4788 H 437.659 3.6991 -2.74779 0
M  V30 4789 H 435.974 3.43459 -2.35425 0
M  V30 4790 H 438.571 5.33709 -0.325405 0
M  V30 4791 H 438.914 4.07827 0.835646 0
M  V30 4792 H 439.447 3.88565 -0.852175 0
M  V30 4793 H 436.186 5.69864 -3.23937 0
M  V30 4794 H 435.706 5.79964 -1.52977 0
M  V30 4795 H 437.385 6.14986 -2.01002 0
M  V30 4796 N 437.518 0.538854 1.48102 0
M  V30 4797 C 438.448 -0.207654 2.32575 0
M  V30 4798 C 439.429 -0.926559 1.4265 0
M  V30 4799 O 440.614 -0.91061 1.71527 0
M  V30 4800 C 437.744 -1.24957 3.24042 0
M  V30 4801 C 436.698 -0.648263 4.23062 0
M  V30 4802 C 436.024 -1.79348 5.03725 0
M  V30 4803 C 437.324 0.385897 5.20872 0
M  V30 4804 H 439.018 0.497534 2.95237 0
M  V30 4805 H 436.564 0.240715 1.41974 0
M  V30 4806 H 438.517 -1.77983 3.81969 0
M  V30 4807 H 437.241 -1.98446 2.59397 0
M  V30 4808 H 435.9 -0.139452 3.66335 0
M  V30 4809 H 435.548 -2.51696 4.35498 0
M  V30 4810 H 435.248 -1.39702 5.70751 0
M  V30 4811 H 436.772 -2.32735 5.64506 0
M  V30 4812 H 438.186 -0.057607 5.73271 0
M  V30 4813 H 436.583 0.700227 5.96001 0
M  V30 4814 H 437.653 1.28848 4.67468 0
M  V30 4815 N 438.996 -1.55193 0.274407 0
M  V30 4816 C 439.929 -2.18606 -0.654712 0
M  V30 4817 C 440.907 -1.14677 -1.15273 0
M  V30 4818 O 442.091 -1.43198 -1.22583 0
M  V30 4819 C 439.218 -2.80875 -1.89281 0
M  V30 4820 C 438.264 -3.981 -1.53032 0
M  V30 4821 S 439.097 -5.32025 -0.609107 0
M  V30 4822 C 440.253 -5.97761 -1.85559 0
M  V30 4823 H 440.486 -2.97074 -0.115894 0
M  V30 4824 H 438.019 -1.54288 0.05867 0
M  V30 4825 H 439.977 -3.17381 -2.60345 0
M  V30 4826 H 438.638 -2.02302 -2.40277 0
M  V30 4827 H 437.831 -4.40356 -2.45158 0
M  V30 4828 H 437.433 -3.63013 -0.899874 0
M  V30 4829 H 439.725 -6.16951 -2.7996 0
M  V30 4830 H 440.668 -6.92545 -1.47605 0
M  V30 4831 H 441.076 -5.27113 -2.02021 0
M  V30 4832 N 440.474 -0.00167713 -1.576 0
M  V30 4833 C 441.72 0.683832 -1.90923 0
M  V30 4834 C 442.053 1.7333 -0.875799 0
M  V30 4835 O 441.328 1.94215 0.10525 0
M  V30 4836 C 441.611 1.32543 -3.3482 0
M  V30 4837 C 441.464 0.287387 -4.48881 0
M  V30 4838 C 442.783 2.25114 -3.78169 0
M  V30 4839 H 439.902 0.247125 -0.694333 0
M  V30 4840 H 442.544 -0.0533149 -1.89925 0
M  V30 4841 H 440.694 1.95372 -3.35801 0
M  V30 4842 H 442.366 -0.341346 -4.60035 0
M  V30 4843 H 440.609 -0.39017 -4.32042 0
M  V30 4844 H 441.28 0.775393 -5.46527 0
M  V30 4845 H 443.756 1.723 -3.7875 0
M  V30 4846 H 442.632 2.66971 -4.79602 0
M  V30 4847 H 442.893 3.13092 -3.12131 0
M  V30 4848 N 441.952 1.55251 0.271103 0
M  V30 4849 C 443.18 1.79974 1.02064 0
M  V30 4850 C 443.595 0.574003 1.79863 0
M  V30 4851 O 442.952 -0.456962 1.76686 0
M  V30 4852 C 443.003 3.02603 1.97772 0
M  V30 4853 O 442.724 4.20443 1.23124 0
M  V30 4854 C 444.225 3.39944 2.84522 0
M  V30 4855 H 441.445 0.599489 0.301419 0
M  V30 4856 H 443.989 2.02268 0.301313 0
M  V30 4857 H 442.144 2.8243 2.65165 0
M  V30 4858 H 442.558 4.89783 1.87651 0
M  V30 4859 H 444.032 4.28915 3.47471 0
M  V30 4860 H 444.509 2.59432 3.54389 0
M  V30 4861 H 445.115 3.62383 2.22618 0
M  V30 4862 N 443.43 -0.535701 1.48216 0
M  V30 4863 C 444.655 -1.32149 1.59848 0
M  V30 4864 C 445.08 -1.86338 0.256842 0
M  V30 4865 O 444.438 -1.64107 -0.770632 0
M  V30 4866 C 444.486 -2.45224 2.64381 0
M  V30 4867 O 443.59 -3.48093 2.21144 0
M  V30 4868 H 442.931 -0.391634 0.536208 0
M  V30 4869 H 445.461 -0.645202 1.94161 0
M  V30 4870 H 445.471 -2.91491 2.85476 0
M  V30 4871 H 444.146 -2.05143 3.61786 0
M  V30 4872 H 442.723 -3.07984 2.10239 0
M  V30 4873 N 444.908 -1.36708 -0.784132 0
M  V30 4874 C 446.156 -1.30972 -1.53918 0
M  V30 4875 C 446.477 0.109086 -1.94695 0
M  V30 4876 O 445.747 1.05048 -1.65353 0
M  V30 4877 H 444.327 -0.481819 -0.570841 0
M  V30 4878 H 446.989 -1.71063 -0.934002 0
M  V30 4879 H 446.085 -1.94061 -2.44431 0
M  V30 4880 N 446.386 1.0089 -1.21074 0
M  V30 4881 C 447.634 1.74262 -1.02358 0
M  V30 4882 C 447.955 1.89869 0.444393 0
M  V30 4883 O 447.225 1.44677 1.32081 0
M  V30 4884 H 445.805 0.645615 -0.375754 0
M  V30 4885 H 448.467 1.21596 -1.52317 0
M  V30 4886 H 447.563 2.74328 -1.4883 0
M  V30 4887 N 447.864 1.01787 1.20321 0
M  V30 4888 C 449.094 0.72614 1.93419 0
M  V30 4889 C 449.502 -0.717317 1.75075 0
M  V30 4890 O 448.845 -1.49836 1.06278 0
M  V30 4891 C 448.907 0.983621 3.45782 0
M  V30 4892 C 448.571 2.41645 3.87888 0
M  V30 4893 C 449.568 3.39732 3.93545 0
M  V30 4894 C 447.253 2.75752 4.19841 0
M  V30 4895 C 449.247 4.69988 4.30569 0
M  V30 4896 C 446.934 4.06221 4.56539 0
M  V30 4897 C 447.932 5.0315 4.61876 0
M  V30 4898 O 447.62 6.31284 4.97731 0
M  V30 4899 H 447.352 0.265824 0.621541 0
M  V30 4900 H 449.906 1.3623 1.53722 0
M  V30 4901 H 448.136 0.290301 3.85609 0
M  V30 4902 H 449.825 0.683279 4.00108 0
M  V30 4903 H 450.591 3.14718 3.69022 0
M  V30 4904 H 446.47 2.00993 4.14877 0
M  V30 4905 H 450.014 5.45642 4.3465 0
M  V30 4906 H 445.911 4.31013 4.80518 0
M  V30 4907 H 446.679 6.35591 5.15719 0
M  V30 4908 N 449.342 -1.36122 0.79427 0
M  V30 4909 C 450.274 -2.28683 0.153903 0
M  V30 4910 C 451.287 -1.49707 -0.639669 0
M  V30 4911 O 452.476 -1.7209 -0.474054 0
M  V30 4912 C 449.576 -3.29202 -0.804921 0
M  V30 4913 C 448.749 -4.37358 -0.060366 0
M  V30 4914 C 447.808 -5.17811 -0.935849 0
M  V30 4915 O 446.834 -5.67853 -0.391309 0
M  V30 4916 N 448.036 -5.34721 -2.25951 0
M  V30 4917 H 450.801 -2.84278 0.949008 0
M  V30 4918 H 448.362 -1.4834 0.648611 0
M  V30 4919 H 450.354 -3.79914 -1.39455 0
M  V30 4920 H 448.924 -2.74212 -1.50088 0
M  V30 4921 H 448.144 -3.87746 0.710382 0
M  V30 4922 H 449.432 -5.06777 0.45324 0
M  V30 4923 H 448.83 -4.95687 -2.72601 0
M  V30 4924 H 447.387 -5.88657 -2.79867 0
M  V30 4925 N 450.82 -0.546701 -1.47814 0
M  V30 4926 C 451.767 0.206854 -2.29871 0
M  V30 4927 C 452.737 0.918235 -1.38411 0
M  V30 4928 O 453.922 0.915991 -1.67375 0
M  V30 4929 C 451.062 1.23746 -3.22151 0
M  V30 4930 C 450.175 0.533216 -4.28697 0
M  V30 4931 C 449.31 1.5482 -5.08138 0
M  V30 4932 C 448.349 0.828347 -6.06469 0
M  V30 4933 N 447.486 1.78966 -6.78908 0
M  V30 4934 H 452.326 -0.499037 -2.93792 0
M  V30 4935 H 449.863 -0.25793 -1.44821 0
M  V30 4936 H 451.821 1.84746 -3.74065 0
M  V30 4937 H 450.451 1.91151 -2.60117 0
M  V30 4938 H 449.503 -0.191089 -3.7992 0
M  V30 4939 H 450.815 -0.0311987 -4.9879 0
M  V30 4940 H 449.969 2.23202 -5.6415 0
M  V30 4941 H 448.708 2.14652 -4.37922 0
M  V30 4942 H 447.713 0.130539 -5.49645 0
M  V30 4943 H 448.938 0.235907 -6.7869 0
M  V30 4944 H 446.884 2.37675 -6.1143 0
M  V30 4945 H 446.801 1.27712 -7.45135 0
M  V30 4946 H 448.069 2.46496 -7.395 0
M  V30 4947 N 452.299 1.55045 -0.282633 0
M  V30 4948 C 453.715 1.59441 0.0712997 0
M  V30 4949 C 453.915 1.2998 1.53972 0
M  V30 4950 O 452.971 1.06431 2.28973 0
M  V30 4951 C 454.284 2.99097 -0.310104 0
M  V30 4952 C 455.832 3.1194 -0.257343 0
M  V30 4953 C 456.307 4.53875 -0.613297 0
M  V30 4954 N 457.798 4.5974 -0.565134 0
M  V30 4955 C 458.533 5.67603 -0.81326 0
M  V30 4956 N 458.029 6.83582 -1.1264 0
M  V30 4957 N 459.822 5.57187 -0.741553 0
M  V30 4958 H 451.973 1.72458 -1.23984 0
M  V30 4959 H 454.236 0.804549 -0.501403 0
M  V30 4960 H 453.942 3.25516 -1.33163 0
M  V30 4961 H 453.816 3.75616 0.345366 0
M  V30 4962 H 456.203 2.85281 0.754905 0
M  V30 4963 H 456.284 2.37618 -0.947178 0
M  V30 4964 H 455.928 4.81261 -1.62327 0
M  V30 4965 H 455.858 5.26508 0.09841 0
M  V30 4966 H 458.349 3.76427 -0.333294 0
M  V30 4967 H 458.662 7.6175 -1.30219 0
M  V30 4968 H 457.007 6.85179 -1.16425 0
M  V30 4969 H 460.198 4.65457 -0.496705 0
M  V30 4970 H 460.371 6.41171 -0.938306 0
M  V30 4971 N 453.777 0.010035 1.57597 0
M  V30 4972 C 455.005 -0.683413 1.95287 0
M  V30 4973 C 455.42 -1.66747 0.885481 0
M  V30 4974 O 454.777 -1.82003 -0.134629 0
M  V30 4975 C 454.828 -1.40652 3.33015 0
M  V30 4976 O 454.549 -0.461916 4.35658 0
M  V30 4977 C 456.05 -2.19356 3.85225 0
M  V30 4978 H 453.27 -0.189708 0.643624 0
M  V30 4979 H 455.814 0.0641359 2.04399 0
M  V30 4980 H 453.969 -2.10562 3.2518 0
M  V30 4981 H 454.383 -0.973215 5.15392 0
M  V30 4982 H 455.857 -2.65433 4.83993 0
M  V30 4983 H 456.334 -3.02457 3.18459 0
M  V30 4984 H 456.94 -1.54442 3.96267 0
M  V30 4985 N 455.255 -1.55392 -0.262866 0
M  V30 4986 C 456.218 -1.88181 -1.30846 0
M  V30 4987 C 457.218 -0.757079 -1.41862 0
M  V30 4988 O 458.408 -1.02519 -1.40838 0
M  V30 4989 C 455.54 -2.09609 -2.68844 0
M  V30 4990 H 456.733 -2.81659 -1.02997 0
M  V30 4991 H 454.286 -1.48039 -0.501414 0
M  V30 4992 H 455.021 -1.18547 -3.01856 0
M  V30 4993 H 454.806 -2.91508 -2.62231 0
M  V30 4994 H 456.296 -2.36215 -3.44372 0
M  V30 4995 N 456.733 0.527833 -1.48498 0
M  V30 4996 C 458.149 0.856571 -1.34666 0
M  V30 4997 C 458.349 1.98271 -0.35931 0
M  V30 4998 O 457.405 2.51551 0.218703 0
M  V30 4999 C 458.718 1.22207 -2.74747 0
M  V30 5000 C 460.266 1.33183 -2.83251 0
M  V30 5001 C 460.741 1.73075 -4.24039 0
M  V30 5002 N 462.232 1.80174 -4.26722 0
M  V30 5003 C 462.967 2.1243 -5.32598 0
M  V30 5004 N 462.463 2.43096 -6.4875 0
M  V30 5005 N 464.256 2.13454 -5.19994 0
M  V30 5006 H 456.407 -0.215174 -2.11307 0
M  V30 5007 H 458.67 -0.0336281 -0.947403 0
M  V30 5008 H 458.376 0.468195 -3.4857 0
M  V30 5009 H 458.25 2.17173 -3.08409 0
M  V30 5010 H 460.637 2.07647 -2.09683 0
M  V30 5011 H 460.718 0.363333 -2.53206 0
M  V30 5012 H 460.362 0.991712 -4.98124 0
M  V30 5013 H 460.292 2.70979 -4.51529 0
M  V30 5014 H 462.783 1.58744 -3.42942 0
M  V30 5015 H 463.096 2.6682 -7.25277 0
M  V30 5016 H 461.441 2.40611 -6.52021 0
M  V30 5017 H 464.632 1.88956 -4.28268 0
M  V30 5018 H 464.805 2.38261 -6.02608 0
M  V30 5019 N 458.211 1.37122 0.776871 0
M  V30 5020 C 459.46 1.31373 1.53049 0
M  V30 5021 C 459.773 -0.101016 1.95339 0
M  V30 5022 O 460.979 -0.280953 2.70042 0
M  V30 5023 C 459.435 2.30567 2.76346 0
M  V30 5024 C 459.043 3.77543 2.41175 0
M  V30 5025 C 460.787 2.33818 3.54301 0
M  V30 5026 C 458.694 4.68481 3.60943 0
M  V30 5027 H 457.624 0.488234 0.574581 0
M  V30 5028 H 460.275 1.62554 0.851372 0
M  V30 5029 H 458.657 1.92396 3.46121 0
M  V30 5030 H 459.831 4.24521 1.79216 0
M  V30 5031 H 458.146 3.77187 1.76405 0
M  V30 5032 H 460.743 2.98965 4.4331 0
M  V30 5033 H 461.086 1.3503 3.93793 0
M  V30 5034 H 461.619 2.7067 2.91518 0
M  V30 5035 H 458.358 5.68378 3.26537 0
M  V30 5036 H 457.878 4.2621 4.22025 0
M  V30 5037 H 459.557 4.85366 4.27819 0
M  V30 5038 N 459.689 -1.00246 1.21608 0
M  V30 5039 C 460.938 -1.73476 1.02902 0
M  V30 5040 C 461.251 -1.90643 -0.437561 0
M  V30 5041 O 462.457 -2.61105 -0.74407 0
M  V30 5042 C 460.913 -3.12079 1.79261 0
M  V30 5043 C 460.521 -3.02877 3.30106 0
M  V30 5044 C 462.265 -3.89421 1.68972 0
M  V30 5045 C 460.172 -4.36575 3.98944 0
M  V30 5046 H 459.102 -0.650408 0.381425 0
M  V30 5047 H 461.753 -1.11985 1.45367 0
M  V30 5048 H 460.135 -3.74196 1.2959 0
M  V30 5049 H 461.309 -2.49983 3.87098 0
M  V30 5050 H 459.624 -2.39022 3.40965 0
M  V30 5051 H 462.221 -4.88362 2.17731 0
M  V30 5052 H 462.564 -4.1122 0.648397 0
M  V30 5053 H 463.097 -3.33963 2.16133 0
M  V30 5054 H 459.836 -4.19978 5.03288 0
M  V30 5055 H 459.356 -4.8942 3.4674 0
M  V30 5056 H 461.035 -5.05364 4.04 0
M  V30 5057 N 461.167 -1.02423 -1.1978 0
M  V30 5058 C 462.13 -0.605703 -2.21052 0
M  V30 5059 C 463.13 0.328209 -1.57415 0
M  V30 5060 O 464.32 0.115853 -1.73814 0
M  V30 5061 C 461.452 0.114366 -3.40708 0
M  V30 5062 H 462.645 -1.5017 -2.59594 0
M  V30 5063 H 460.198 -0.814888 -1.33376 0
M  V30 5064 H 460.933 1.02492 -3.07678 0
M  V30 5065 H 460.718 -0.556641 -3.88129 0
M  V30 5066 H 462.208 0.394272 -4.15735 0
M  V30 5067 N 462.645 1.35699 -0.801477 0
M  V30 5068 C 463.922 1.9324 -0.302937 0
M  V30 5069 C 464.302 1.73209 1.20672 0
M  V30 5070 O 463.65 1.09809 2.00385 0
M  V30 5071 C 463.86 3.41728 -0.708747 0
M  V30 5072 C 465.208 4.18868 -0.695328 0
M  V30 5073 O 466.232 3.5022 -0.649971 0
M  V30 5074 O 465.091 5.41342 -0.749081 0
M  V30 5075 H 462.185 0.82331 -0.0780367 0
M  V30 5076 H 464.731 1.44806 -0.884832 0
M  V30 5077 H 463.503 3.50015 -1.74944 0
M  V30 5078 H 463.126 3.97471 -0.101384 0
M  V30 5079 N 464.123 0.554532 1.47522 0
M  V30 5080 C 465.348 0.0322661 2.07375 0
M  V30 5081 C 465.773 -1.25079 1.40488 0
M  V30 5082 O 465.131 -1.74859 0.47896 0
M  V30 5083 C 465.179 -0.149397 3.6029 0
M  V30 5084 O 464.283 -1.21259 3.9417 0
M  V30 5085 H 463.624 0.0501228 0.662106 0
M  V30 5086 H 466.154 0.769452 1.8958 0
M  V30 5087 H 466.164 -0.364437 4.06369 0
M  V30 5088 H 464.839 0.787743 4.08372 0
M  V30 5089 H 463.416 -0.97825 3.5984 0
M  V30 5090 N 465.601 -1.54893 0.290851 0
M  V30 5091 C 466.85 -1.99111 -0.322113 0
M  V30 5092 C 467.163 -1.18283 -1.55784 0
M  V30 5093 O 468.369 -1.5272 -2.24475 0
M  V30 5094 C 466.825 -3.54442 -0.624438 0
M  V30 5095 C 466.433 -4.44066 0.592373 0
M  V30 5096 C 468.177 -4.07211 -1.19916 0
M  V30 5097 C 466.084 -5.90812 0.263762 0
M  V30 5098 H 465.014 -0.743712 -0.124133 0
M  V30 5099 H 467.665 -1.79132 0.39797 0
M  V30 5100 H 466.047 -3.70281 -1.40384 0
M  V30 5101 H 467.221 -4.39999 1.36886 0
M  V30 5102 H 465.536 -4.02015 1.08502 0
M  V30 5103 H 468.133 -5.14407 -1.45909 0
M  V30 5104 H 468.476 -3.57196 -2.13815 0
M  V30 5105 H 469.009 -3.94873 -0.481687 0
M  V30 5106 H 465.748 -6.44955 1.17105 0
M  V30 5107 H 465.268 -5.97911 -0.475655 0
M  V30 5108 H 466.947 -6.46852 -0.138354 0
M  V30 5109 N 467.08 -0.0183926 -1.57589 0
M  V30 5110 C 468.01 0.965596 -2.12599 0
M  V30 5111 C 468.991 1.34641 -1.0395 0
M  V30 5112 O 470.176 1.42693 -1.31729 0
M  V30 5113 C 467.306 2.25149 -2.64434 0
M  V30 5114 C 466.26 2.01175 -3.77773 0
M  V30 5115 C 465.586 3.35937 -4.15994 0
M  V30 5116 C 466.886 1.35953 -5.04296 0
M  V30 5117 H 468.58 0.507504 -2.95067 0
M  V30 5118 H 466.126 0.242671 -1.41941 0
M  V30 5119 H 468.079 2.94357 -3.01549 0
M  V30 5120 H 466.803 2.73105 -1.79112 0
M  V30 5121 H 465.462 1.34388 -3.4108 0
M  V30 5122 H 465.11 3.81631 -3.27669 0
M  V30 5123 H 464.81 3.20705 -4.92364 0
M  V30 5124 H 466.334 4.0643 -4.55683 0
M  V30 5125 H 467.748 1.95144 -5.39065 0
M  V30 5126 H 466.145 1.31152 -5.85593 0
M  V30 5127 H 467.215 0.331071 -4.83768 0
M  V30 5128 N 468.558 1.5553 0.254621 0
M  V30 5129 C 469.506 1.9048 1.33492 0
M  V30 5130 C 470.5 0.78304 1.50216 0
M  V30 5131 O 471.706 0.967582 1.51782 0
M  V30 5132 H 468.081 0.604846 0.44684 0
M  V30 5133 H 470.052 2.80688 1.01275 0
M  V30 5134 C 468.801 2.20928 2.68489 0
M  V30 5135 H 468.124 3.06742 2.56417 0
M  V30 5136 H 469.564 2.49291 3.42972 0
M  V30 5137 C 468.023 1.023 3.20993 0
M  V30 5138 O 468.553 0.267027 4.00811 0
M  V30 5139 N 466.759 0.815714 2.78917 0
M  V30 5140 H 466.306 1.43217 2.14119 0
M  V30 5141 H 466.264 0.0236532 3.14391 0
M  V30 5142 N 470.036 -0.519951 1.48776 0
M  V30 5143 C 470.966 -1.63253 1.66945 0
M  V30 5144 C 471.947 -1.62014 0.518224 0
M  V30 5145 O 473.132 -1.79053 0.751919 0
M  V30 5146 C 470.262 -3.0181 1.71836 0
M  V30 5147 C 469.216 -3.17911 2.8656 0
M  V30 5148 C 468.542 -4.5763 2.76548 0
M  V30 5149 C 469.842 -2.99729 4.27738 0
M  V30 5150 H 471.536 -1.48302 2.6009 0
M  V30 5151 H 469.082 -0.712026 1.25165 0
M  V30 5152 H 471.035 -3.79525 1.83135 0
M  V30 5153 H 469.759 -3.17806 0.752775 0
M  V30 5154 H 468.418 -2.42616 2.74833 0
M  V30 5155 H 468.066 -4.70476 1.77937 0
M  V30 5156 H 467.766 -4.69346 3.53536 0
M  V30 5157 H 469.29 -5.37431 2.89828 0
M  V30 5158 H 470.704 -3.67228 4.40246 0
M  V30 5159 H 469.101 -3.22932 5.05801 0
M  V30 5160 H 470.171 -1.96047 4.43502 0
M  V30 5161 N 471.514 -1.37532 -0.769588 0
M  V30 5162 C 472.761 -1.3286 -1.52822 0
M  V30 5163 C 473.089 0.0862597 -1.94309 0
M  V30 5164 O 472.344 1.05995 -1.6451 0
M  V30 5165 C 472.643 -2.21558 -2.8044 0
M  V30 5166 C 472.309 -3.69796 -2.57996 0
M  V30 5167 C 470.971 -4.10194 -2.51583 0
M  V30 5168 C 473.323 -4.63699 -2.37976 0
M  V30 5169 C 470.651 -5.42608 -2.23144 0
M  V30 5170 C 473.003 -5.96353 -2.1106 0
M  V30 5171 C 471.667 -6.35853 -2.03093 0
M  V30 5172 H 470.937 -0.486168 -0.559215 0
M  V30 5173 H 473.584 -1.69757 -0.886277 0
M  V30 5174 H 471.889 -1.77663 -3.49204 0
M  V30 5175 H 473.586 -2.15256 -3.38328 0
M  V30 5176 H 470.176 -3.37759 -2.63851 0
M  V30 5177 H 474.36 -4.33346 -2.41919 0
M  V30 5178 H 469.616 -5.72173 -2.15472 0
M  V30 5179 H 473.79 -6.68667 -1.94568 0
M  V30 5180 H 471.417 -7.38382 -1.8082 0
M  V30 5181 N 472.992 0.995999 -1.22138 0
M  V30 5182 C 474.24 1.73167 -1.042 0
M  V30 5183 C 474.561 1.90329 0.42423 0
M  V30 5184 O 473.831 1.4607 1.30539 0
M  V30 5185 H 472.411 0.641593 -0.38258 0
M  V30 5186 H 475.073 1.19974 -1.53598 0
M  V30 5187 H 474.169 2.72734 -1.51731 0
M  V30 5188 N 474.47 1.03057 1.19235 0
M  V30 5189 C 475.4 0.633497 2.24742 0
M  V30 5190 C 476.381 -0.358335 1.66283 0
M  V30 5191 O 477.566 -0.240676 1.92703 0
M  V30 5192 C 474.696 -0.0147648 3.47297 0
M  V30 5193 C 473.65 0.899527 4.18441 0
M  V30 5194 C 472.976 0.116281 5.34574 0
M  V30 5195 C 474.276 2.21404 4.73051 0
M  V30 5196 H 475.97 1.5155 2.58211 0
M  V30 5197 H 473.516 0.73014 1.24117 0
M  V30 5198 H 475.469 -0.304202 4.20301 0
M  V30 5199 H 474.193 -0.931577 3.13032 0
M  V30 5200 H 472.852 1.17319 3.47321 0
M  V30 5201 H 472.5 -0.802619 4.96555 0
M  V30 5202 H 472.2 0.725293 5.83107 0
M  V30 5203 H 473.724 -0.166376 6.10373 0
M  V30 5204 H 475.138 1.98601 5.37802 0
M  V30 5205 H 473.535 2.77512 5.32078 0
M  V30 5206 H 474.605 2.86752 3.91026 0
M  V30 5207 N 475.948 -1.35272 0.808662 0
M  V30 5208 C 477.196 -1.98316 0.389233 0
M  V30 5209 C 477.517 -1.64465 -1.04767 0
M  V30 5210 O 476.787 -0.928175 -1.72516 0
M  V30 5211 H 475.367 -0.733585 0.140935 0
M  V30 5212 H 478.029 -1.6515 1.03496 0
M  V30 5213 H 477.125 -3.08123 0.496631 0
M  V30 5214 N 477.426 -0.562348 -1.47226 0
M  V30 5215 C 478.356 0.170627 -2.32876 0
M  V30 5216 C 479.337 0.903748 -1.44106 0
M  V30 5217 O 480.522 0.883206 -1.72954 0
M  V30 5218 C 477.652 1.19786 -3.25989 0
M  V30 5219 C 476.606 0.580875 -4.2404 0
M  V30 5220 C 475.932 1.71311 -5.06514 0
M  V30 5221 C 477.232 -0.468714 -5.20193 0
M  V30 5222 H 478.926 -0.544441 -2.94408 0
M  V30 5223 H 476.472 -0.263271 -1.41573 0
M  V30 5224 H 478.425 1.71884 -3.84752 0
M  V30 5225 H 477.149 1.94294 -2.62521 0
M  V30 5226 H 475.808 0.0811538 -3.6651 0
M  V30 5227 H 475.456 2.44736 -4.39447 0
M  V30 5228 H 475.156 1.30604 -5.72902 0
M  V30 5229 H 476.68 2.23725 -5.68137 0
M  V30 5230 H 478.094 -0.0336028 -5.7329 0
M  V30 5231 H 476.491 -0.794957 -5.94811 0
M  V30 5232 H 477.561 -1.36269 -4.65359 0
M  V30 5233 N 478.904 1.54736 -0.299062 0
M  V30 5234 C 480.153 1.99279 0.311549 0
M  V30 5235 C 480.466 1.19107 1.55154 0
M  V30 5236 O 481.672 1.53908 2.23662 0
M  V30 5237 C 480.128 3.54768 0.605632 0
M  V30 5238 C 479.736 4.43746 -0.615914 0
M  V30 5239 C 481.48 4.07841 1.17754 0
M  V30 5240 C 479.387 5.90663 -0.29509 0
M  V30 5241 H 478.317 0.744359 0.120187 0
M  V30 5242 H 480.968 1.78919 -0.407464 0
M  V30 5243 H 479.35 3.71021 1.38419 0
M  V30 5244 H 480.524 4.39267 -1.39218 0
M  V30 5245 H 478.839 4.01434 -1.10633 0
M  V30 5246 H 481.436 5.15174 1.43179 0
M  V30 5247 H 481.779 3.58324 2.11918 0
M  V30 5248 H 482.312 3.95123 0.460739 0
M  V30 5249 H 479.051 6.44325 -1.20524 0
M  V30 5250 H 478.571 5.98155 0.44394 0
M  V30 5251 H 480.25 6.46916 0.104048 0
M  V30 5252 N 480.382 0.0267497 1.57577 0
M  V30 5253 C 481.63 -0.651116 1.91324 0
M  V30 5254 C 481.951 -1.72804 0.90353 0
M  V30 5255 O 481.221 -1.95822 -0.0552946 0
M  V30 5256 H 479.801 -0.243491 0.706202 0
M  V30 5257 H 482.463 0.0739935 1.94759 0
M  V30 5258 H 481.559 -1.10536 2.9187 0
M  V30 5259 N 481.861 -1.55662 -0.24637 0
M  V30 5260 C 483.272 -1.67953 -0.81539 0
M  V30 5261 C 483.623 -0.624302 -1.86002 0
M  V30 5262 O 482.748 0.229328 -2.15181 0
M  V30 5263 C 483.343 -3.04484 -1.48576 0
M  V30 5264 C 481.902 -3.18713 -2.00248 0
M  V30 5265 C 481.049 -2.6383 -0.853766 0
M  V30 5266 H 484 -1.58685 -0.0221692 0
M  V30 5267 H 484.021 -2.98959 -2.3538 0
M  V30 5268 H 483.533 -3.81264 -0.725222 0
M  V30 5269 H 481.634 -2.46757 -2.79181 0
M  V30 5270 H 481.747 -4.25628 -2.1995 0
M  V30 5271 H 480.111 -2.21667 -1.25442 0
M  V30 5272 H 480.894 -3.43135 -0.106302 0
M  V30 5273 N 483.339 0.512053 -1.4905 0
M  V30 5274 C 484.249 1.64139 -1.67617 0
M  V30 5275 C 485.265 1.64786 -0.558701 0
M  V30 5276 O 486.441 1.8341 -0.832034 0
M  V30 5277 C 483.506 3.00548 -1.72835 0
M  V30 5278 C 482.567 3.10615 -2.96339 0
M  V30 5279 C 481.8 4.40517 -3.01298 0
M  V30 5280 O 482.023 5.28671 -2.14157 0
M  V30 5281 O 480.957 4.55325 -3.93653 0
M  V30 5282 H 484.783 1.51407 -2.63267 0
M  V30 5283 H 482.368 0.687131 -1.32661 0
M  V30 5284 H 484.25 3.81641 -1.78683 0
M  V30 5285 H 482.925 3.13566 -0.803616 0
M  V30 5286 H 481.832 2.2875 -2.96014 0
M  V30 5287 H 483.165 3.0252 -3.88256 0
M  V30 5288 N 484.817 1.37938 0.762283 0
M  V30 5289 C 486.042 1.37059 1.55659 0
M  V30 5290 C 486.467 -0.0396123 1.88058 0
M  V30 5291 O 485.825 -1.01929 1.49934 0
M  V30 5292 C 485.873 2.22494 2.83776 0
M  V30 5293 O 484.977 1.63607 3.78559 0
M  V30 5294 H 484.318 0.467892 0.47114 0
M  V30 5295 H 486.848 1.81587 0.942725 0
M  V30 5296 H 486.858 2.36045 3.32786 0
M  V30 5297 H 485.533 3.24993 2.59524 0
M  V30 5298 H 484.11 1.5915 3.37233 0
M  V30 5299 N 486.295 -0.989507 1.22664 0
M  V30 5300 C 487.706 -1.54406 1.04955 0
M  V30 5301 C 488.057 -1.92366 -0.385951 0
M  V30 5302 O 487.182 -1.75111 -1.27142 0
M  V30 5303 C 487.777 -2.80578 1.89899 0
M  V30 5304 C 486.336 -3.32464 1.76478 0
M  V30 5305 C 485.483 -2.05524 1.86159 0
M  V30 5306 H 488.434 -0.810211 1.3646 0
M  V30 5307 H 488.455 -3.53075 1.4184 0
M  V30 5308 H 487.967 -2.52918 2.94371 0
M  V30 5309 H 486.068 -3.65024 0.747528 0
M  V30 5310 H 486.181 -4.02838 2.59342 0
M  V30 5311 H 484.545 -2.19241 1.29636 0
M  V30 5312 H 485.328 -1.80258 2.92168 0
M  V30 5313 N 487.773 -1.03688 -1.18687 0
M  V30 5314 C 488.998 -0.757819 -1.93059 0
M  V30 5315 C 489.423 0.678353 -1.75442 0
M  V30 5316 O 488.781 1.46938 -1.06203 0
M  V30 5317 C 488.829 -1.12423 -3.42627 0
M  V30 5318 O 487.933 -0.247505 -4.11657 0
M  V30 5319 H 487.274 -0.279245 -0.602427 0
M  V30 5320 H 489.804 -1.3857 -1.5053 0
M  V30 5321 H 489.814 -1.08454 -3.93322 0
M  V30 5322 H 488.489 -2.17049 -3.54771 0
M  V30 5323 H 487.066 -0.34649 -3.71287 0
M  V30 5324 N 489.251 1.34841 -0.815825 0
M  V30 5325 C 490.497 1.98793 -0.401129 0
M  V30 5326 C 490.83 1.64548 1.03139 0
M  V30 5327 O 490.105 0.913487 1.71714 0
M  V30 5328 C 490.388 3.55143 -0.595409 0
M  V30 5329 C 490.241 3.99155 -2.07352 0
M  V30 5330 C 491.56 4.40092 -0.0268823 0
M  V30 5331 H 488.679 0.722146 -0.14722 0
M  V30 5332 H 491.321 1.59847 -1.02707 0
M  V30 5333 H 489.471 3.8845 -0.0625779 0
M  V30 5334 H 491.143 3.76216 -2.66945 0
M  V30 5335 H 489.386 3.49726 -2.56659 0
M  V30 5336 H 490.057 5.07971 -2.1603 0
M  V30 5337 H 492.533 4.13298 -0.482042 0
M  V30 5338 H 491.409 5.48562 -0.19267 0
M  V30 5339 H 491.67 4.29016 1.06759 0
M  V30 5340 N 490.729 0.570148 1.46925 0
M  V30 5341 C 491.954 0.0542592 2.07329 0
M  V30 5342 C 492.379 -1.23582 1.41806 0
M  V30 5343 O 491.737 -1.74341 0.497479 0
M  V30 5344 C 491.785 -0.111175 3.60429 0
M  V30 5345 O 490.889 -1.17071 3.95434 0
M  V30 5346 H 490.23 0.0571425 0.661537 0
M  V30 5347 H 492.76 0.789516 1.88753 0
M  V30 5348 H 492.77 -0.321315 4.06733 0
M  V30 5349 H 491.445 0.831012 4.07513 0
M  V30 5350 H 490.022 -0.940029 3.60857 0
M  V30 5351 N 492.207 -1.54576 0.307264 0
M  V30 5352 C 493.17 -2.22423 -0.553224 0
M  V30 5353 C 494.17 -1.21231 -1.05639 0
M  V30 5354 O 495.36 -1.45923 -0.951419 0
M  V30 5355 C 492.492 -2.91552 -1.76664 0
M  V30 5356 H 493.685 -2.99874 0.0396484 0
M  V30 5357 H 491.238 -1.56192 0.0581629 0
M  V30 5358 H 491.973 -2.18196 -2.39918 0
M  V30 5359 H 491.758 -3.65738 -1.41343 0
M  V30 5360 H 493.248 -3.43292 -2.37783 0
M  V30 5361 N 493.685 -0.035106 -1.57561 0
M  V30 5362 C 494.617 0.973604 -2.07494 0
M  V30 5363 C 495.63 1.28504 -0.999534 0
M  V30 5364 O 496.819 1.24864 -1.27559 0
M  V30 5365 C 493.919 2.29945 -2.48955 0
M  V30 5366 C 493.092 2.1723 -3.79644 0
M  V30 5367 C 492.151 3.328 -4.07592 0
M  V30 5368 O 491.177 3.09418 -4.77754 0
M  V30 5369 N 492.379 4.56779 -3.58236 0
M  V30 5370 H 495.144 0.547525 -2.94656 0
M  V30 5371 H 492.705 0.151515 -1.61189 0
M  V30 5372 H 494.697 3.06097 -2.64739 0
M  V30 5373 H 493.267 2.64173 -1.67126 0
M  V30 5374 H 492.487 1.25768 -3.73599 0
M  V30 5375 H 493.775 2.05945 -4.65257 0
M  V30 5376 H 493.173 4.78668 -3.01485 0
M  V30 5377 H 491.73 5.30079 -3.79288 0
M  V30 5378 N 495.163 1.55791 0.238111 0
M  V30 5379 C 496.111 1.91885 1.31464 0
M  V30 5380 C 497.105 0.798929 1.49377 0
M  V30 5381 O 498.311 0.983626 1.50747 0
M  V30 5382 H 494.686 0.609551 0.440399 0
M  V30 5383 H 496.657 2.81747 0.982925 0
M  V30 5384 C 495.406 2.23763 2.6613 0
M  V30 5385 H 494.729 3.09444 2.53149 0
M  V30 5386 H 496.169 2.52915 3.40309 0
M  V30 5387 C 494.628 1.05699 3.1989 0
M  V30 5388 O 495.158 0.309524 4.00506 0
M  V30 5389 N 493.364 0.845251 2.78036 0
M  V30 5390 H 492.911 1.4548 2.12588 0
M  V30 5391 H 492.869 0.0569973 3.14348 0
M  V30 5392 N 496.642 -0.504142 1.49319 0
M  V30 5393 C 497.867 -1.28729 1.62615 0
M  V30 5394 C 498.292 -1.85752 0.296309 0
M  V30 5395 O 497.65 -1.65704 -0.735649 0
M  V30 5396 C 497.698 -2.39561 2.69524 0
M  V30 5397 O 496.802 -3.43324 2.28478 0
M  V30 5398 H 496.143 -0.380172 0.544395 0
M  V30 5399 H 498.673 -0.603872 1.95485 0
M  V30 5400 H 498.683 -2.8537 2.91595 0
M  V30 5401 H 497.358 -1.97423 3.66056 0
M  V30 5402 H 495.935 -3.03455 2.16725 0
M  V30 5403 N 498.12 -1.38341 -0.754957 0
M  V30 5404 C 499.397 -1.24995 -1.50451 0
M  V30 5405 C 499.777 0.149244 -2.10572 0
M  V30 5406 O 499.125 1.15861 -1.96948 0
M  V30 5407 C 499.335 -2.35904 -2.57197 0
M  V30 5408 C 500.683 -2.74262 -3.24138 0
M  V30 5409 O 501.707 -2.35205 -2.67501 0
M  V30 5410 O 500.566 -3.4161 -4.26574 0
M  V30 5411 H 497.66 -0.48872 -0.667144 0
M  V30 5412 H 500.206 -1.50165 -0.790486 0
M  V30 5413 H 498.978 -3.2953 -2.11011 0
M  V30 5414 H 498.601 -2.12291 -3.36182 0
M  V30 5415 N 499.598 0.982988 -1.23187 0
M  V30 5416 C 500.826 1.75921 -1.08901 0
M  V30 5417 C 501.241 1.85341 0.359719 0
M  V30 5418 O 500.598 1.33072 1.24892 0
M  V30 5419 C 500.649 3.18742 -1.70545 0
M  V30 5420 O 500.37 3.09814 -3.09753 0
M  V30 5421 C 501.871 4.1277 -1.61667 0
M  V30 5422 H 499.091 0.552166 -0.381252 0
M  V30 5423 H 501.635 1.23516 -1.62985 0
M  V30 5424 H 499.79 3.68182 -1.20501 0
M  V30 5425 H 500.204 3.99703 -3.39614 0
M  V30 5426 H 501.678 5.10697 -2.09506 0
M  V30 5427 H 502.155 4.3542 -0.575009 0
M  V30 5428 H 502.761 3.69232 -2.11064 0
M  V30 5429 N 501.076 1.04316 1.18135 0
M  V30 5430 C 502.487 0.775505 1.69832 0
M  V30 5431 C 502.838 -0.703348 1.8316 0
M  V30 5432 O 501.963 -1.54729 1.51287 0
M  V30 5433 C 502.558 1.40112 3.0847 0
M  V30 5434 C 501.117 1.18172 3.57368 0
M  V30 5435 C 500.264 1.49022 2.33854 0
M  V30 5436 H 503.215 1.20925 1.02775 0
M  V30 5437 H 503.236 0.805672 3.71873 0
M  V30 5438 H 502.748 2.47744 2.98738 0
M  V30 5439 H 500.849 0.124258 3.72393 0
M  V30 5440 H 500.962 1.8805 4.40652 0
M  V30 5441 H 499.326 0.909995 2.37889 0
M  V30 5442 H 500.109 2.57768 2.26738 0
M  V30 5443 N 502.554 -1.34406 0.822964 0
M  V30 5444 C 503.484 -2.32052 0.259608 0
M  V30 5445 C 504.465 -1.58243 -0.623961 0
M  V30 5446 O 505.65 -1.86224 -0.55083 0
M  V30 5447 C 502.78 -3.42434 -0.579314 0
M  V30 5448 C 501.734 -4.27499 0.20712 0
M  V30 5449 C 501.06 -5.29349 -0.754547 0
M  V30 5450 C 502.36 -5.02758 1.41533 0
M  V30 5451 H 504.054 -2.79418 1.07545 0
M  V30 5452 H 501.6 -1.34338 0.518593 0
M  V30 5453 H 503.553 -4.0976 -0.983612 0
M  V30 5454 H 502.277 -2.93717 -1.4282 0
M  V30 5455 H 500.936 -3.61776 0.592787 0
M  V30 5456 H 500.584 -4.76895 -1.59939 0
M  V30 5457 H 500.284 -5.8714 -0.232561 0
M  V30 5458 H 501.808 -5.99544 -1.1567 0
M  V30 5459 H 503.222 -5.62938 1.08504 0
M  V30 5460 H 501.619 -5.70123 1.87296 0
M  V30 5461 H 502.689 -4.32451 2.1935 0
M  V30 5462 N 504.032 -0.577932 -1.46621 0
M  V30 5463 C 504.962 0.145917 -2.33044 0
M  V30 5464 C 505.943 0.888412 -1.45056 0
M  V30 5465 O 507.128 0.864812 -1.73881 0
M  V30 5466 C 504.258 1.16322 -3.27241 0
M  V30 5467 C 503.212 0.535868 -4.24632 0
M  V30 5468 C 502.538 1.65929 -5.08303 0
M  V30 5469 C 503.838 -0.523861 -5.19666 0
M  V30 5470 H 505.532 -0.575636 -2.93814 0
M  V30 5471 H 503.078 -0.278272 -1.41286 0
M  V30 5472 H 505.031 1.67793 -3.86553 0
M  V30 5473 H 503.755 1.91498 -2.64567 0
M  V30 5474 H 502.414 0.0422759 -3.66576 0
M  V30 5475 H 502.062 2.40061 -4.42018 0
M  V30 5476 H 501.762 1.2452 -5.74255 0
M  V30 5477 H 503.286 2.17686 -5.70478 0
M  V30 5478 H 504.7 -0.0944059 -5.73222 0
M  V30 5479 H 503.097 -0.858 -5.93935 0
M  V30 5480 H 504.167 -1.41197 -4.63887 0
M  V30 5481 N 505.51 1.54411 -0.315457 0
M  V30 5482 C 506.921 1.85885 0.174265 0
M  V30 5483 C 507.272 1.23723 1.52273 0
M  V30 5484 O 506.397 0.540246 2.09548 0
M  V30 5485 C 506.992 3.37257 0.322981 0
M  V30 5486 C 505.551 3.68711 0.756922 0
M  V30 5487 C 504.698 2.77013 -0.126195 0
M  V30 5488 H 507.649 1.49374 -0.536007 0
M  V30 5489 H 507.67 3.62539 1.15522 0
M  V30 5490 H 507.182 3.82471 -0.658602 0
M  V30 5491 H 505.283 3.29024 1.74854 0
M  V30 5492 H 505.396 4.75741 0.566291 0
M  V30 5493 H 503.76 2.51588 0.39692 0
M  V30 5494 H 504.543 3.25051 -1.1044 0
M  V30 5495 N 506.988 0.0434614 1.5754 0
M  V30 5496 C 508.399 -0.493343 1.80064 0
M  V30 5497 C 508.75 -1.71388 0.955023 0
M  V30 5498 O 507.875 -2.15736 0.169434 0
M  V30 5499 C 508.47 -0.90179 3.26578 0
M  V30 5500 C 507.029 -1.38362 3.50047 0
M  V30 5501 C 506.176 -0.355129 2.75017 0
M  V30 5502 H 509.127 0.2694 1.56397 0
M  V30 5503 H 509.148 -1.76523 3.37075 0
M  V30 5504 H 508.66 -0.013271 3.88098 0
M  V30 5505 H 506.761 -2.29159 2.93798 0
M  V30 5506 H 506.874 -1.3811 4.58762 0
M  V30 5507 H 505.238 -0.826348 2.40922 0
M  V30 5508 H 506.021 0.525172 3.39259 0
M  V30 5509 N 508.466 -1.55915 -0.229846 0
M  V30 5510 C 509.429 -1.90914 -1.26824 0
M  V30 5511 C 510.429 -0.786999 -1.40225 0
M  V30 5512 O 511.619 -1.05484 -1.38632 0
M  V30 5513 C 508.751 -2.15264 -2.64337 0
M  V30 5514 H 509.944 -2.8378 -0.969998 0
M  V30 5515 H 507.497 -1.49069 -0.4699 0
M  V30 5516 H 508.232 -1.24923 -2.99274 0
M  V30 5517 H 508.017 -2.97005 -2.55989 0
M  V30 5518 H 509.507 -2.43467 -3.39284 0
M  V30 5519 N 509.944 0.496216 -1.49584 0
M  V30 5520 C 511.19 1.25189 -1.59548 0
M  V30 5521 C 511.523 1.9212 -0.283466 0
M  V30 5522 O 510.798 1.80947 0.713324 0
M  V30 5523 C 511.081 2.31516 -2.75812 0
M  V30 5524 C 510.934 1.69054 -4.16822 0
M  V30 5525 C 512.253 3.3304 -2.87702 0
M  V30 5526 H 509.372 0.45379 -0.580727 0
M  V30 5527 H 512.014 0.549327 -1.81886 0
M  V30 5528 H 510.164 2.91438 -2.56897 0
M  V30 5529 H 511.836 1.12923 -4.47265 0
M  V30 5530 H 510.079 0.994485 -4.22247 0
M  V30 5531 H 510.75 2.462 -4.94054 0
M  V30 5532 H 513.226 2.83114 -3.04936 0
M  V30 5533 H 512.102 4.04794 -3.7072 0
M  V30 5534 H 512.363 3.95655 -1.97255 0
M  V30 5535 N 511.423 1.38739 0.74761 0
M  V30 5536 C 512.834 1.31507 1.32524 0
M  V30 5537 C 513.185 -0.0263963 1.96182 0
M  V30 5538 O 512.31 -0.92849 1.95469 0
M  V30 5539 C 512.905 2.38162 2.40966 0
M  V30 5540 C 511.464 2.34489 2.94434 0
M  V30 5541 C 510.611 2.20712 1.67873 0
M  V30 5542 H 513.562 1.4901 0.546043 0
M  V30 5543 H 513.583 2.04222 3.21051 0
M  V30 5544 H 513.095 3.35783 1.94605 0
M  V30 5545 H 511.196 1.40467 3.45108 0
M  V30 5546 H 511.309 3.28861 3.48407 0
M  V30 5547 H 509.673 1.67667 1.91729 0
M  V30 5548 H 510.456 3.20285 1.23582 0
M  V30 5549 O 512.94 -0.888371 1.34871 0
M  V30 5550 H 513.631 -1.52504 1.19424 0
M  V30 END ATOM
M  V30 BEGIN BOND
M  V30 END BOND
M  V30 END CTAB
M  END
$$$$
