drugbank_target|Q96EM0 Trans-3-hydroxy-L-proline dehydratase (DB00172)
 OpenBabel12092120093D

  0  0  0     0  0            999 V3000
M  V30 BEGIN CTAB
M  V30 COUNTS 5344 5406 0 0 0
M  V30 BEGIN ATOM
M  V30 1 H -0.908 1.98254 -0.117106 0
M  V30 2 N 0 1.576 0 0
M  V30 3 C 0.933 2.03868 1.02534 0
M  V30 4 C 1.911 0.928543 1.3348 0
M  V30 5 O 3.095 1.19667 1.45644 0
M  V30 6 C 0.222 2.43627 2.35294 0
M  V30 7 C -0.732 3.65373 2.2001 0
M  V30 8 S 0.101 5.13292 1.52614 0
M  V30 9 C 1.257 5.56322 2.86805 0
M  V30 10 H 1.49 2.90518 0.631377 0
M  V30 11 H -0.977 1.52953 0.210867 0
M  V30 12 H 0.981 2.67203 3.11629 0
M  V30 13 H -0.358 1.57376 2.7183 0
M  V30 14 H -1.165 3.90944 3.18086 0
M  V30 15 H -1.563 3.418 1.51819 0
M  V30 16 H 0.729 5.58782 3.83104 0
M  V30 17 H 1.672 6.56266 2.65933 0
M  V30 18 H 2.08 4.83886 2.90714 0
M  V30 19 N 1.4781 -0.272755 1.55222 0
M  V30 20 C 2.3881 -1.35918 1.91216 0
M  V30 21 C 3.4041 -1.54026 0.809436 0
M  V30 22 O 4.5801 -1.68148 1.10852 0
M  V30 23 C 1.6451 -2.69834 2.17693 0
M  V30 24 C 0.7061 -2.6047 3.41253 0
M  V30 25 C -0.0609 -3.88 3.66458 0
M  V30 26 O 0.1621 -4.88693 2.94169 0
M  V30 27 O -0.9039 -3.88189 4.59992 0
M  V30 28 H 2.9221 -1.0839 2.83699 0
M  V30 29 H 0.5071 -0.471301 1.41771 0
M  V30 30 H 2.3891 -3.49017 2.36147 0
M  V30 31 H 1.0641 -2.97148 1.28392 0
M  V30 32 H -0.0289 -1.79663 3.28134 0
M  V30 33 H 1.3041 -2.38106 4.30774 0
M  V30 34 N 2.9562 -1.48159 -0.537278 0
M  V30 35 C 4.1812 -1.59707 -1.32319 0
M  V30 36 C 4.6062 -0.254859 -1.86365 0
M  V30 37 O 3.9642 0.772378 -1.64024 0
M  V30 38 C 4.0122 -2.6412 -2.45505 0
M  V30 39 O 3.1162 -2.20774 -3.48328 0
M  V30 40 H 2.4572 -0.535791 -0.392204 0
M  V30 41 H 4.9872 -1.94092 -0.647268 0
M  V30 42 H 4.9972 -2.85166 -2.91795 0
M  V30 43 H 3.6722 -3.61567 -2.05528 0
M  V30 44 H 2.2492 -2.09911 -3.08207 0
M  V30 45 N 4.4343 0.785586 -1.36625 0
M  V30 46 C 5.3973 1.87999 -1.31107 0
M  V30 47 C 6.3973 1.59316 -0.217959 0
M  V30 48 O 7.5873 1.67656 -0.472977 0
M  V30 49 C 4.7193 3.24861 -1.03334 0
M  V30 50 H 5.9123 1.94307 -2.2844 0
M  V30 51 H 3.4653 0.983813 -1.21453 0
M  V30 52 H 4.2003 3.24235 -0.0647432 0
M  V30 53 H 3.9853 3.4707 -1.82441 0
M  V30 54 H 5.4753 4.04929 -1.02088 0
M  V30 55 N 5.9124 1.20967 1.01018 0
M  V30 56 C 6.8424 0.988272 2.11555 0
M  V30 57 C 7.8234 -0.0849778 1.69888 0
M  V30 58 O 9.0084 0.0738202 1.9406 0
M  V30 59 C 6.1384 0.546528 3.42973 0
M  V30 60 C 5.0924 1.56375 3.9841 0
M  V30 61 C 4.4184 0.97842 5.25672 0
M  V30 62 C 5.7184 2.94922 4.31066 0
M  V30 63 H 7.4124 1.91276 2.30334 0
M  V30 64 H 4.9584 0.921073 1.1069 0
M  V30 65 H 6.9114 0.378839 4.19694 0
M  V30 66 H 5.6354 -0.413598 3.23971 0
M  V30 67 H 4.2944 1.71891 3.23804 0
M  V30 68 H 3.9424 0.0101688 5.02999 0
M  V30 69 H 3.6424 1.65784 5.63728 0
M  V30 70 H 5.1664 0.821939 6.05043 0
M  V30 71 H 6.5804 2.8288 4.9865 0
M  V30 72 H 4.9774 3.5983 4.80253 0
M  V30 73 H 6.0474 3.4616 3.39561 0
M  V30 74 N 7.3905 -1.2043 1.01659 0
M  V30 75 C 8.3535 -2.21433 0.591616 0
M  V30 76 C 9.3535 -1.57203 -0.338226 0
M  V30 77 O 10.5435 -1.73737 -0.126918 0
M  V30 78 C 7.6755 -3.40628 -0.136058 0
M  V30 79 H 8.8685 -2.60545 1.48514 0
M  V30 80 H 6.4215 -1.33893 0.806379 0
M  V30 81 H 7.1565 -3.07019 -1.04449 0
M  V30 82 H 6.9415 -3.88475 0.531917 0
M  V30 83 H 8.4315 -4.15475 -0.420735 0
M  V30 84 N 8.8686 -0.792821 -1.36206 0
M  V30 85 C 10.1146 -0.36733 -1.99446 0
M  V30 86 C 10.4476 1.05917 -1.62774 0
M  V30 87 O 9.7226 1.7324 -0.88421 0
M  V30 88 C 10.0056 -0.535044 -3.56103 0
M  V30 89 C 9.8586 -2.00548 -4.02617 0
M  V30 90 C 11.1776 0.0478191 -4.40074 0
M  V30 91 H 8.2966 -0.134941 -0.724541 0
M  V30 92 H 10.9386 -0.999794 -1.61568 0
M  V30 93 H 9.0886 0.00336329 -3.885 0
M  V30 94 H 10.7606 -2.60521 -3.80692 0
M  V30 95 H 9.0036 -2.50686 -3.54032 0
M  V30 96 H 9.6746 -2.07377 -5.11565 0
M  V30 97 H 12.1506 -0.411822 -4.14057 0
M  V30 98 H 11.0266 -0.0995336 -5.4881 0
M  V30 99 H 11.2876 1.14025 -4.27142 0
M  V30 100 N 10.3467 1.47872 -0.545128 0
M  V30 101 C 11.7577 1.86384 -0.108581 0
M  V30 102 C 12.1087 1.45309 1.31832 0
M  V30 103 O 11.2337 0.850641 1.9898 0
M  V30 104 C 11.8287 3.38265 -0.190274 0
M  V30 105 C 10.3877 3.75914 0.191164 0
M  V30 106 C 9.5347 2.71926 -0.543273 0
M  V30 107 H 12.4857 1.39561 -0.755537 0
M  V30 108 H 12.5067 3.75831 0.594217 0
M  V30 109 H 12.0187 3.6813 -1.2289 0
M  V30 110 H 10.1197 3.51665 1.23136 0
M  V30 111 H 10.2327 4.78836 -0.158987 0
M  V30 112 H 8.5967 2.54697 0.0122495 0
M  V30 113 H 9.3797 3.04634 -1.58282 0
M  V30 114 N 11.8248 0.280983 1.55075 0
M  V30 115 C 13.2408 -0.0729964 1.59433 0
M  V30 116 C 13.4408 -1.5411 1.29817 0
M  V30 117 O 12.4968 -2.29086 1.06187 0
M  V30 118 C 13.8098 0.306921 2.9913 0
M  V30 119 C 15.3578 0.254023 3.11968 0
M  V30 120 C 15.8328 0.608467 4.5394 0
M  V30 121 N 17.3238 0.560241 4.59799 0
M  V30 122 C 18.0588 0.80722 5.6769 0
M  V30 123 N 17.5548 1.11912 6.83701 0
M  V30 124 N 19.3478 0.735623 5.57266 0
M  V30 125 H 11.4988 1.238 1.7259 0
M  V30 126 H 13.7618 0.500547 0.805082 0
M  V30 127 H 13.4678 1.32816 3.25657 0
M  V30 128 H 13.3418 -0.349363 3.75579 0
M  V30 129 H 15.7288 -0.75794 2.852 0
M  V30 130 H 15.8098 0.944649 2.37718 0
M  V30 131 H 15.4538 1.61814 4.81434 0
M  V30 132 H 15.3838 -0.104013 5.26497 0
M  V30 133 H 17.8748 0.329288 3.76463 0
M  V30 134 H 18.1878 1.29409 7.61888 0
M  V30 135 H 16.5328 1.15695 6.85303 0
M  V30 136 H 19.7238 0.491752 4.6551 0
M  V30 137 H 19.8968 0.931482 6.4127 0
M  V30 138 N 13.3029 -1.57598 0.00835791 0
M  V30 139 C 14.2329 -2.1198 -0.979113 0
M  V30 140 C 15.2139 -1.03091 -1.35301 0
M  V30 141 O 16.3989 -1.30818 -1.43528 0
M  V30 142 C 13.5289 -2.62995 -2.26828 0
M  V30 143 C 12.4829 -3.76485 -2.03576 0
M  V30 144 C 11.8089 -4.13846 -3.38579 0
M  V30 145 C 13.1089 -5.0342 -1.39161 0
M  V30 146 H 14.8029 -2.94738 -0.526281 0
M  V30 147 H 12.3489 -1.41783 -0.251704 0
M  V30 148 H 14.3019 -2.99669 -2.96271 0
M  V30 149 H 13.0259 -1.7737 -2.7424 0
M  V30 150 H 11.6849 -3.40217 -1.36557 0
M  V30 151 H 11.3329 -3.25232 -3.83709 0
M  V30 152 H 11.0329 -4.90312 -3.23834 0
M  V30 153 H 12.5569 -4.53086 -4.09323 0
M  V30 154 H 13.9709 -5.37812 -1.98573 0
M  V30 155 H 12.3679 -5.84746 -1.34878 0
M  V30 156 H 13.4379 -4.83548 -0.361868 0
M  V30 157 N 14.781 0.264519 -1.55364 0
M  V30 158 C 16.192 0.834936 -1.6699 0
M  V30 159 C 16.543 1.86718 -0.602552 0
M  V30 160 O 15.668 2.14899 0.254425 0
M  V30 161 C 16.263 1.5212 -3.02729 0
M  V30 162 C 14.822 2.03954 -3.16354 0
M  V30 163 C 13.969 0.884498 -2.62815 0
M  V30 164 H 16.92 0.0406869 -1.58648 0
M  V30 165 H 16.941 2.38853 -2.96191 0
M  V30 166 H 16.453 0.769668 -3.80392 0
M  V30 167 H 14.554 2.82041 -2.43482 0
M  V30 168 H 14.667 2.24902 -4.23032 0
M  V30 169 H 13.031 1.2802 -2.20188 0
M  V30 170 H 13.814 0.14634 -3.42988 0
M  V30 171 N 16.2591 1.48442 0.529413 0
M  V30 172 C 17.6701 1.5002 1.11134 0
M  V30 173 C 18.0211 0.27031 1.94329 0
M  V30 174 O 17.1461 -0.622507 2.07253 0
M  V30 175 C 17.7411 2.71834 2.02217 0
M  V30 176 C 16.3001 2.76283 2.55627 0
M  V30 177 C 15.4471 2.43542 1.326 0
M  V30 178 H 18.3981 1.5555 0.314641 0
M  V30 179 H 18.4191 2.50384 2.8651 0
M  V30 180 H 17.9311 3.61331 1.41639 0
M  V30 181 H 16.0321 1.90995 3.19924 0
M  V30 182 H 16.1451 3.77725 2.94721 0
M  V30 183 H 14.5091 1.94709 1.64196 0
M  V30 184 H 15.2921 3.3528 0.737734 0
M  V30 185 N 17.7372 -0.778329 1.37039 0
M  V30 186 C 18.6872 -1.88142 1.28789 0
M  V30 187 C 19.6712 -1.59923 0.177063 0
M  V30 188 O 20.8632 -1.72165 0.410873 0
M  V30 189 C 17.9922 -3.25518 1.09055 0
M  V30 190 C 17.0782 -3.5971 2.24654 0
M  V30 191 N 17.4692 -3.65131 3.50018 0
M  V30 192 C 15.7672 -3.89837 2.16663 0
M  V30 193 C 16.4682 -3.95882 4.26207 0
M  V30 194 N 15.4442 -4.11441 3.55271 0
M  V30 195 H 19.2462 -1.90575 2.23737 0
M  V30 196 H 16.7602 -0.974435 1.29917 0
M  V30 197 H 18.7572 -4.04423 1.0123 0
M  V30 198 H 17.4172 -3.24353 0.15018 0
M  V30 199 H 18.4282 -3.475 3.84011 0
M  V30 200 H 15.1052 -3.96533 1.30645 0
M  V30 201 H 16.4952 -4.06907 5.34674 0
M  V30 202 N 19.2153 -1.21501 -1.00376 0
M  V30 203 C 20.4923 -0.941745 -1.71437 0
M  V30 204 C 20.8723 0.546114 -2.03914 0
M  V30 205 O 20.2203 1.51128 -1.71384 0
M  V30 206 C 20.4303 -1.82812 -2.97289 0
M  V30 207 C 21.7783 -2.07771 -3.70292 0
M  V30 208 O 22.8023 -1.80171 -3.07273 0
M  V30 209 O 21.6613 -2.54456 -4.83647 0
M  V30 210 H 18.7553 -0.353243 -0.747762 0
M  V30 211 H 21.3013 -1.32436 -1.06108 0
M  V30 212 H 20.0733 -2.83501 -2.69709 0
M  V30 213 H 19.6963 -1.4464 -3.70358 0
M  V30 214 N 20.6934 1.19889 -1.02296 0
M  V30 215 C 22.1044 1.71124 -0.746568 0
M  V30 216 C 22.4554 1.81939 0.734335 0
M  V30 217 O 21.5804 1.48639 1.57275 0
M  V30 218 C 22.1754 3.10804 -1.34857 0
M  V30 219 C 20.7344 3.59323 -1.1209 0
M  V30 220 C 19.8814 2.3635 -1.45031 0
M  V30 221 H 22.8324 1.04813 -1.19163 0
M  V30 222 H 22.8534 3.73186 -0.742437 0
M  V30 223 H 22.3654 3.029 -2.42638 0
M  V30 224 H 20.4664 3.7255 -0.0610337 0
M  V30 225 H 20.5794 4.4378 -1.80544 0
M  V30 226 H 18.9434 2.39399 -0.869487 0
M  V30 227 H 19.7264 2.31081 -2.53883 0
M  V30 228 N 22.1715 0.800033 1.35784 0
M  V30 229 C 23.4195 0.376597 1.9856 0
M  V30 230 C 23.7405 -1.05812 1.63795 0
M  V30 231 O 23.0105 -1.73103 0.917171 0
M  V30 232 H 21.5905 0.136261 0.734467 0
M  V30 233 H 24.2525 1.02442 1.65806 0
M  V30 234 H 23.3485 0.477002 3.08433 0
M  V30 235 N 23.6496 -1.47581 0.552962 0
M  V30 236 C 24.8776 -2.06875 0.0320556 0
M  V30 237 C 25.2926 -1.40625 -1.25976 0
M  V30 238 O 24.6496 -0.501349 -1.75479 0
M  V30 239 C 24.7006 -3.61092 -0.17167 0
M  V30 240 O 24.4216 -4.24858 1.06899 0
M  V30 241 C 25.9226 -4.37242 -0.730344 0
M  V30 242 H 23.1426 -0.669561 0.043915 0
M  V30 243 H 25.6866 -1.89646 0.765163 0
M  V30 244 H 23.8416 -3.7785 -0.854894 0
M  V30 245 H 24.2556 -5.17334 0.864059 0
M  V30 246 H 25.7296 -5.45842 -0.822203 0
M  V30 247 H 26.2066 -4.03235 -1.74064 0
M  V30 248 H 26.8126 -4.25219 -0.0829543 0
M  V30 249 N 25.1277 -0.289203 -1.54924 0
M  V30 250 C 26.5387 0.205791 -1.85562 0
M  V30 251 C 26.8897 1.54351 -1.2112 0
M  V30 252 O 26.0147 2.10435 -0.504601 0
M  V30 253 C 26.6097 0.380177 -3.3666 0
M  V30 254 C 25.1687 0.819395 -3.67373 0
M  V30 255 C 24.3157 -0.079159 -2.77187 0
M  V30 256 H 27.2667 -0.510577 -1.50262 0
M  V30 257 H 27.2877 1.21659 -3.60526 0
M  V30 258 H 26.7997 -0.593589 -3.83534 0
M  V30 259 H 24.9007 1.80413 -3.26009 0
M  V30 260 H 25.0137 0.646957 -4.74712 0
M  V30 261 H 23.3777 0.439565 -2.50878 0
M  V30 262 H 24.1607 -1.04906 -3.26878 0
M  V30 263 N 26.6058 1.57591 -0.0167156 0
M  V30 264 C 27.8518 1.91567 0.665582 0
M  V30 265 C 28.1848 0.892298 1.72487 0
M  V30 266 O 27.4598 -0.0867127 1.94307 0
M  V30 267 C 27.7428 3.36069 1.29342 0
M  V30 268 C 27.5958 4.49135 0.244541 0
M  V30 269 C 28.9148 3.803 2.21495 0
M  V30 270 H 26.0338 0.69666 0.240488 0
M  V30 271 H 28.6758 1.89866 -0.0714356 0
M  V30 272 H 26.8258 3.3765 1.92158 0
M  V30 273 H 28.4978 4.59689 -0.385228 0
M  V30 274 H 26.7408 4.3165 -0.431379 0
M  V30 275 H 27.4118 5.47242 0.723207 0
M  V30 276 H 29.8878 3.80377 1.68678 0
M  V30 277 H 28.7638 4.82127 2.62382 0
M  V30 278 H 29.0248 3.15104 3.101 0
M  V30 279 N 28.0839 -0.256276 1.55502 0
M  V30 280 C 29.0139 -1.32102 1.92539 0
M  V30 281 C 29.9949 -1.50684 0.789194 0
M  V30 282 O 31.1799 -1.63449 1.04872 0
M  V30 283 C 28.3099 -2.67752 2.21192 0
M  V30 284 C 27.2639 -2.63878 3.36975 0
M  V30 285 C 26.5899 -4.03236 3.51147 0
M  V30 286 C 27.8899 -2.21682 4.72921 0
M  V30 287 H 29.5839 -1.01351 2.81724 0
M  V30 288 H 27.1299 -0.486105 1.35547 0
M  V30 289 H 29.0829 -3.42365 2.45691 0
M  V30 290 H 27.8069 -3.0012 1.28824 0
M  V30 291 H 26.4659 -1.91722 3.12471 0
M  V30 292 H 26.1139 -4.32854 2.56216 0
M  V30 293 H 25.8139 -4.01535 4.29003 0
M  V30 294 H 27.3379 -4.79563 3.77957 0
M  V30 295 H 28.7519 -2.86023 4.96854 0
M  V30 296 H 27.1489 -2.3111 5.53812 0
M  V30 297 H 28.2189 -1.16833 4.70615 0
M  V30 298 N 29.562 -1.4872 -0.521534 0
M  V30 299 C 30.787 -1.61101 -1.30618 0
M  V30 300 C 31.212 -0.274611 -1.86085 0
M  V30 301 O 30.57 0.754937 -1.64834 0
M  V30 302 C 30.618 -2.66709 -2.4269 0
M  V30 303 O 29.722 -2.24456 -3.45967 0
M  V30 304 H 29.063 -0.539921 -0.386499 0
M  V30 305 H 31.593 -1.94767 -0.626645 0
M  V30 306 H 31.603 -2.88245 -2.88754 0
M  V30 307 H 30.278 -3.63727 -2.01682 0
M  V30 308 H 28.855 -2.13168 -3.05964 0
M  V30 309 N 31.0401 0.771051 -1.3745 0
M  V30 310 C 32.2861 1.5319 -1.32894 0
M  V30 311 C 32.6191 1.94008 0.0862511 0
M  V30 312 O 31.8941 1.64124 1.04373 0
M  V30 313 C 32.1771 2.79648 -2.26868 0
M  V30 314 C 32.0301 2.45079 -3.77169 0
M  V30 315 C 33.3491 3.81583 -2.19277 0
M  V30 316 H 30.4681 0.555744 -0.484064 0
M  V30 317 H 33.1101 0.884492 -1.68157 0
M  V30 318 H 31.2601 3.34891 -1.96926 0
M  V30 319 H 32.9321 1.95745 -4.1771 0
M  V30 320 H 31.1751 1.77767 -3.95704 0
M  V30 321 H 31.8461 3.35478 -4.38359 0
M  V30 322 H 34.3221 3.35835 -2.45671 0
M  V30 323 H 33.1981 4.67787 -2.87171 0
M  V30 324 H 33.4591 4.25897 -1.18592 0
M  V30 325 N 32.5182 1.22032 0.997298 0
M  V30 326 C 33.7642 1.04376 1.73878 0
M  V30 327 C 34.0972 -0.420716 1.89588 0
M  V30 328 O 33.3722 -1.31202 1.43583 0
M  V30 329 C 33.6552 1.75047 3.14691 0
M  V30 330 C 33.5082 3.29062 3.06656 0
M  V30 331 C 34.8272 1.49928 4.13775 0
M  V30 332 H 31.9462 0.380578 0.631133 0
M  V30 333 H 34.5882 1.50312 1.16217 0
M  V30 334 H 32.7382 1.35996 3.63919 0
M  V30 335 H 34.4102 3.7753 2.65083 0
M  V30 336 H 32.6532 3.58967 2.43568 0
M  V30 337 H 33.3242 3.73683 4.06282 0
M  V30 338 H 35.8002 1.83842 3.73285 0
M  V30 339 H 34.6762 2.01878 5.10428 0
M  V30 340 H 34.9372 0.430929 4.39995 0
M  V30 341 N 33.9963 -1.19345 1.0293 0
M  V30 342 C 35.2733 -1.84811 0.640642 0
M  V30 343 C 35.6533 -1.91855 -0.88062 0
M  V30 344 O 35.0013 -1.43587 -1.7775 0
M  V30 345 C 35.2113 -3.23755 1.30321 0
M  V30 346 C 36.5593 -3.99912 1.42673 0
M  V30 347 O 37.5833 -3.33155 1.26041 0
M  V30 348 O 36.4423 -5.19494 1.6967 0
M  V30 349 H 33.5363 -0.796443 0.222726 0
M  V30 350 H 36.0823 -1.26831 1.12748 0
M  V30 351 H 34.8543 -3.13466 2.34211 0
M  V30 352 H 34.4773 -3.89381 0.804261 0
M  V30 353 N 35.4744 -0.807222 -1.35358 0
M  V30 354 C 36.4074 -0.163572 -2.27613 0
M  V30 355 C 37.3854 0.670817 -1.48118 0
M  V30 356 O 38.5694 0.63796 -1.77376 0
M  V30 357 C 35.6964 0.773015 -3.29761 0
M  V30 358 C 34.7424 0.0181653 -4.26496 0
M  V30 359 S 35.5754 -1.31831 -5.19019 0
M  V30 360 C 36.7314 -0.38619 -6.24707 0
M  V30 361 H 36.9644 -0.945757 -2.81856 0
M  V30 362 H 34.4974 -0.602315 -1.42167 0
M  V30 363 H 36.4554 1.30788 -3.89108 0
M  V30 364 H 35.1164 1.52859 -2.74396 0
M  V30 365 H 34.3094 0.729534 -4.98692 0
M  V30 366 H 33.9114 -0.446761 -3.71322 0
M  V30 367 H 36.2034 0.428295 -6.76145 0
M  V30 368 H 37.1464 -1.07736 -6.99856 0
M  V30 369 H 37.5544 0.018398 -5.64497 0
M  V30 370 N 36.9525 1.47285 -0.560781 0
M  V30 371 C 37.9025 2.27073 0.205384 0
M  V30 372 C 38.8865 1.34569 0.882044 0
M  V30 373 O 40.0785 1.58899 0.77976 0
M  V30 374 C 37.2075 3.20414 1.23247 0
M  V30 375 C 36.2935 4.20399 0.559041 0
M  V30 376 N 36.6845 5.04423 -0.372927 0
M  V30 377 C 34.9825 4.38536 0.812522 0
M  V30 378 C 35.6835 5.76655 -0.764446 0
M  V30 379 N 34.6595 5.43471 -0.11848 0
M  V30 380 H 38.4615 2.89422 -0.511117 0
M  V30 381 H 35.9755 1.57868 -0.380975 0
M  V30 382 H 37.9725 3.76262 1.79534 0
M  V30 383 H 36.6325 2.59623 1.95002 0
M  V30 384 H 37.6435 5.1248 -0.747287 0
M  V30 385 H 34.3205 3.88913 1.51832 0
M  V30 386 H 35.7105 6.54238 -1.53045 0
M  V30 387 N 38.4306 0.297415 1.54768 0
M  V30 388 C 39.6586 -0.315623 2.04478 0
M  V30 389 C 40.0736 -1.47792 1.17486 0
M  V30 390 O 39.4306 -1.81404 0.19971 0
M  V30 391 C 39.4816 -0.7753 3.53088 0
M  V30 392 O 39.2026 0.340732 4.36773 0
M  V30 393 C 40.7036 -1.45386 4.18781 0
M  V30 394 H 37.9236 -0.0690887 0.667434 0
M  V30 395 H 40.4676 0.436003 1.99798 0
M  V30 396 H 38.6226 -1.47696 3.58141 0
M  V30 397 H 39.0366 -0.0165035 5.24497 0
M  V30 398 H 40.5106 -1.72669 5.24299 0
M  V30 399 H 40.9876 -2.39275 3.68299 0
M  V30 400 H 41.5936 -0.795475 4.17795 0
M  V30 401 N 39.9087 -1.5758 0.0250728 0
M  V30 402 C 41.1567 -1.91255 -0.653151 0
M  V30 403 C 41.4777 -0.901691 -1.729 0
M  V30 404 O 40.7477 0.0573785 -1.95816 0
M  V30 405 H 39.3277 -0.705942 -0.244243 0
M  V30 406 H 41.9897 -1.94767 0.0719209 0
M  V30 407 H 41.0857 -2.91752 -1.10847 0
M  V30 408 N 41.3868 0.248026 -1.55636 0
M  V30 409 C 42.6348 0.974295 -1.77065 0
M  V30 410 C 42.9558 1.85897 -0.588849 0
M  V30 411 O 42.2258 1.91868 0.395407 0
M  V30 412 H 40.8058 0.362733 -0.653019 0
M  V30 413 H 43.4678 0.266244 -1.93073 0
M  V30 414 H 42.5638 1.59667 -2.68166 0
M  V30 415 N 42.8649 1.48995 0.513639 0
M  V30 416 C 43.7749 1.67443 1.64317 0
M  V30 417 C 44.7909 0.556947 1.64846 0
M  V30 418 O 45.9669 0.830082 1.83498 0
M  V30 419 C 43.0319 1.72515 3.00732 0
M  V30 420 C 42.0929 2.96009 3.1093 0
M  V30 421 C 41.3259 3.00829 4.40837 0
M  V30 422 O 41.5489 2.13594 5.28898 0
M  V30 423 O 40.4829 3.93168 4.55744 0
M  V30 424 H 44.3089 2.63106 1.51687 0
M  V30 425 H 41.8939 1.32588 0.688543 0
M  V30 426 H 43.7759 1.78277 3.81831 0
M  V30 427 H 42.4509 0.800278 3.13651 0
M  V30 428 H 41.3579 2.9577 2.29065 0
M  V30 429 H 42.6909 3.87934 3.02933 0
M  V30 430 N 44.343 -0.763751 1.37857 0
M  V30 431 C 45.754 -1.3405 1.29952 0
M  V30 432 C 46.105 -1.96138 -0.0492898 0
M  V30 433 O 45.23 -1.94372 -0.951239 0
M  V30 434 C 45.825 -2.43729 2.35333 0
M  V30 435 C 44.384 -2.97151 2.31037 0
M  V30 436 C 43.531 -1.70438 2.18738 0
M  V30 437 H 46.482 -0.563396 1.48363 0
M  V30 438 H 46.503 -3.23412 2.00462 0
M  V30 439 H 46.015 -1.9851 3.33489 0
M  V30 440 H 44.116 -3.46724 1.3643 0
M  V30 441 H 44.229 -3.52221 3.24772 0
M  V30 442 H 42.593 -1.93673 1.65418 0
M  V30 443 H 43.376 -1.27312 3.18821 0
M  V30 444 N 45.8211 -1.22559 -0.990812 0
M  V30 445 C 46.7511 -1.0218 -2.09956 0
M  V30 446 C 47.7321 0.0579394 -1.70001 0
M  V30 447 O 48.9171 -0.104684 -1.93918 0
M  V30 448 C 46.0471 -0.601023 -3.4206 0
M  V30 449 C 45.0011 -1.62694 -3.95872 0
M  V30 450 C 44.3271 -1.06193 -5.24049 0
M  V30 451 C 45.6271 -3.01743 -4.2632 0
M  V30 452 H 47.3211 -1.94916 -2.27262 0
M  V30 453 H 44.8671 -0.938566 -1.09211 0
M  V30 454 H 46.8201 -0.445561 -4.19038 0
M  V30 455 H 45.5441 0.362005 -3.24588 0
M  V30 456 H 44.2031 -1.77021 -3.21028 0
M  V30 457 H 43.8511 -0.0901903 -5.02919 0
M  V30 458 H 43.5511 -1.74732 -5.61019 0
M  V30 459 H 45.0751 -0.918092 -6.03658 0
M  V30 460 H 46.4891 -2.90777 -4.94087 0
M  V30 461 H 44.8861 -3.67425 -4.74467 0
M  V30 462 H 45.9561 -3.51518 -3.34011 0
M  V30 463 N 47.2992 1.18797 -1.03562 0
M  V30 464 C 48.7152 1.40671 -0.753917 0
M  V30 465 C 48.9152 1.9043 0.658686 0
M  V30 466 O 47.9712 2.08538 1.42366 0
M  V30 467 C 49.2842 2.41192 -1.79574 0
M  V30 468 C 50.8322 2.54928 -1.81606 0
M  V30 469 C 51.3072 3.58709 -2.84766 0
M  V30 470 N 52.7982 3.66212 -2.83625 0
M  V30 471 C 53.5332 4.46225 -3.60098 0
M  V30 472 N 53.0292 5.29888 -4.46308 0
M  V30 473 N 54.8222 4.40939 -3.4861 0
M  V30 474 H 46.9732 0.848221 -1.94728 0
M  V30 475 H 49.2362 0.435081 -0.842264 0
M  V30 476 H 48.9422 2.11669 -2.80872 0
M  V30 477 H 48.8162 3.40467 -1.62365 0
M  V30 478 H 51.2032 2.83771 -0.809817 0
M  V30 479 H 51.2842 1.55784 -2.02891 0
M  V30 480 H 50.9282 3.30607 -3.85566 0
M  V30 481 H 50.8582 4.57519 -2.60737 0
M  V30 482 H 53.3492 3.06466 -2.21105 0
M  V30 483 H 53.6622 5.88078 -5.01382 0
M  V30 484 H 52.0072 5.29326 -4.50377 0
M  V30 485 H 55.1982 3.74624 -2.80668 0
M  V30 486 H 55.3712 5.03056 -4.08459 0
M  V30 487 N 48.7773 0.814389 1.34928 0
M  V30 488 C 50.0263 0.394871 1.97797 0
M  V30 489 C 50.3393 -1.04555 1.65311 0
M  V30 490 O 51.5453 -1.56856 2.21604 0
M  V30 491 C 50.0013 0.655103 3.53888 0
M  V30 492 C 49.6093 2.10858 3.95276 0
M  V30 493 C 51.3533 0.301329 4.23429 0
M  V30 494 C 49.2603 2.31415 5.44244 0
M  V30 495 H 48.1903 0.143913 0.740139 0
M  V30 496 H 50.8413 0.999544 1.53888 0
M  V30 497 H 49.2233 -0.0196253 3.95995 0
M  V30 498 H 50.3973 2.82176 3.64298 0
M  V30 499 H 48.7123 2.42297 3.38646 0
M  V30 500 H 51.3093 0.432869 5.32945 0
M  V30 501 H 51.6523 -0.75331 4.09428 0
M  V30 502 H 52.1853 0.930288 3.86769 0
M  V30 503 H 48.9243 3.35353 5.63222 0
M  V30 504 H 48.4443 1.6463 5.76764 0
M  V30 505 H 50.1233 2.13352 6.10811 0
M  V30 506 N 50.2554 -1.46986 0.568584 0
M  V30 507 C 51.5014 -2.02741 0.0488709 0
M  V30 508 C 51.8344 -1.44077 -1.30214 0
M  V30 509 O 51.1094 -0.600552 -1.84996 0
M  V30 510 C 51.3924 -3.60086 -0.032047 0
M  V30 511 C 51.2454 -4.29162 1.34686 0
M  V30 512 C 52.5644 -4.33838 -0.739798 0
M  V30 513 H 49.6834 -0.736749 0.0192338 0
M  V30 514 H 52.3254 -1.75289 0.733065 0
M  V30 515 H 50.4754 -3.83606 -0.61473 0
M  V30 516 H 52.1474 -4.16948 1.97362 0
M  V30 517 H 50.3904 -3.89073 1.91846 0
M  V30 518 H 51.0614 -5.37826 1.24285 0
M  V30 519 H 53.5374 -4.15378 -0.244939 0
M  V30 520 H 52.4134 -5.43537 -0.765406 0
M  V30 521 H 52.6744 -4.03875 -1.79827 0
M  V30 522 N 51.7335 -0.305618 -1.54608 0
M  V30 523 C 52.6635 0.561482 -2.26649 0
M  V30 524 C 53.6445 1.13415 -1.26772 0
M  V30 525 O 54.8295 1.16262 -1.55553 0
M  V30 526 C 51.9595 1.73122 -3.01075 0
M  V30 527 C 50.9135 1.2887 -4.08138 0
M  V30 528 C 50.2395 2.54396 -4.70305 0
M  V30 529 C 51.5395 0.416578 -5.20636 0
M  V30 530 H 53.2335 -0.0393902 -2.99374 0
M  V30 531 H 50.7795 -0.020385 -1.43986 0
M  V30 532 H 52.7325 2.34396 -3.50195 0
M  V30 533 H 51.4565 2.3584 -2.25936 0
M  V30 534 H 50.1155 0.698991 -3.59875 0
M  V30 535 H 49.7635 3.15439 -3.918 0
M  V30 536 H 49.4635 2.25486 -5.42614 0
M  V30 537 H 50.9875 3.16464 -5.2219 0
M  V30 538 H 52.4015 0.935116 -5.65622 0
M  V30 539 H 50.7985 0.221046 -5.99693 0
M  V30 540 H 51.8685 -0.557162 -4.81688 0
M  V30 541 N 53.2116 1.57565 -0.0334293 0
M  V30 542 C 54.1746 2.09393 0.932048 0
M  V30 543 C 55.1746 1.00986 1.25134 0
M  V30 544 O 56.3646 1.27129 1.19096 0
M  V30 545 C 53.4966 2.56338 2.2473 0
M  V30 546 H 54.6896 2.95984 0.483085 0
M  V30 547 H 52.2426 1.54819 0.21468 0
M  V30 548 H 52.9776 1.7309 2.74245 0
M  V30 549 H 52.7626 3.35542 2.02865 0
M  V30 550 H 54.2526 2.96646 2.93923 0
M  V30 551 N 54.6897 -0.239769 1.55765 0
M  V30 552 C 55.9377 -0.964892 1.77579 0
M  V30 553 C 56.2587 -1.85582 0.598699 0
M  V30 554 O 55.5287 -1.92075 -0.385226 0
M  V30 555 H 54.1087 -0.359265 0.654933 0
M  V30 556 H 56.7707 -0.256001 1.93211 0
M  V30 557 H 55.8667 -1.58243 2.69009 0
M  V30 558 N 56.1678 -1.49265 -0.50573 0
M  V30 559 C 57.4078 -1.60128 -1.27038 0
M  V30 560 C 57.7718 -0.279557 -1.89954 0
M  V30 561 O 58.9728 -0.263329 -2.67507 0
M  V30 562 C 57.2438 -2.72507 -2.31246 0
M  V30 563 S 58.8028 -3.0329 -3.17113 0
M  V30 564 H 55.6208 -0.564863 -0.4318 0
M  V30 565 H 58.2228 -1.86902 -0.573397 0
M  V30 566 H 56.9268 -3.67068 -1.83546 0
M  V30 567 H 56.4578 -2.4771 -3.05619 0
M  V30 568 H 58.4728 -2.44448 -4.31809 0
M  V30 569 N 57.6459 0.756429 -1.3826 0
M  V30 570 C 59.0569 1.33359 -1.30661 0
M  V30 571 C 59.4079 1.96161 0.0388875 0
M  V30 572 O 58.5329 1.94874 0.940918 0
M  V30 573 C 59.1279 2.42477 -2.36622 0
M  V30 574 C 57.6869 2.95922 -2.3261 0
M  V30 575 C 56.8339 1.69275 -2.19639 0
M  V30 576 H 59.7849 0.55552 -1.4866 0
M  V30 577 H 59.8059 3.22345 -2.02174 0
M  V30 578 H 59.3179 1.96739 -3.34538 0
M  V30 579 H 57.4189 3.45996 -1.38267 0
M  V30 580 H 57.5319 3.50494 -3.26636 0
M  V30 581 H 55.8959 1.92793 -1.66442 0
M  V30 582 H 56.6789 1.25619 -3.19491 0
M  V30 583 N 59.124 1.23083 0.984299 0
M  V30 584 C 60.034 1.02515 2.11016 0
M  V30 585 C 61.05 -0.0291702 1.73976 0
M  V30 586 O 62.226 0.165434 2.00719 0
M  V30 587 C 59.291 0.614673 3.41208 0
M  V30 588 C 58.352 1.74359 3.92297 0
M  V30 589 C 57.585 1.35261 5.16275 0
M  V30 590 O 57.808 0.235136 5.69915 0
M  V30 591 O 56.742 2.17227 5.61334 0
M  V30 592 H 60.568 1.96862 2.31255 0
M  V30 593 H 58.153 1.01753 1.09392 0
M  V30 594 H 60.035 0.396518 4.1953 0
M  V30 595 H 58.71 -0.299851 3.22308 0
M  V30 596 H 57.617 2.01635 3.1511 0
M  V30 597 H 58.95 2.63629 4.15645 0
M  V30 598 N 60.6021 -1.18246 1.0419 0
M  V30 599 C 61.8481 -1.88536 0.747122 0
M  V30 600 C 62.1811 -1.80223 -0.723409 0
M  V30 601 O 61.4561 -1.20337 -1.52804 0
M  V30 602 C 61.7391 -3.38968 1.21544 0
M  V30 603 C 61.5921 -3.56084 2.74816 0
M  V30 604 C 62.9111 -4.32648 0.806482 0
M  V30 605 H 60.0301 -0.684619 0.272883 0
M  V30 606 H 62.6721 -1.39113 1.29413 0
M  V30 607 H 60.8221 -3.8119 0.750081 0
M  V30 608 H 62.4941 -3.22946 3.29399 0
M  V30 609 H 60.7371 -2.98699 3.14582 0
M  V30 610 H 61.4081 -4.61639 3.02644 0
M  V30 611 H 63.8841 -3.98211 1.20695 0
M  V30 612 H 62.7601 -5.36462 1.1619 0
M  V30 613 H 63.0211 -4.41146 -0.29029 0
M  V30 614 N 62.0802 -0.821533 -1.34494 0
M  V30 615 C 63.3052 -0.420873 -2.03085 0
M  V30 616 C 63.7302 0.964915 -1.61465 0
M  V30 617 O 63.0882 1.62763 -0.798607 0
M  V30 618 C 63.1362 -0.529414 -3.56693 0
M  V30 619 O 62.2402 0.451302 -4.09923 0
M  V30 620 H 61.5812 -0.173489 -0.640935 0
M  V30 621 H 64.1112 -1.11157 -1.71771 0
M  V30 622 H 64.1212 -0.404671 -4.05988 0
M  V30 623 H 62.7962 -1.54014 -3.86332 0
M  V30 624 H 61.3732 0.285558 -3.71805 0
M  V30 625 N 63.5583 1.46682 -0.576371 0
M  V30 626 C 64.8063 2.02013 -0.0594163 0
M  V30 627 C 65.1273 1.45101 1.30271 0
M  V30 628 O 64.3973 0.633317 1.8538 0
M  V30 629 H 62.9773 0.746759 -0.0189745 0
M  V30 630 H 65.6393 1.79862 -0.750717 0
M  V30 631 H 64.7353 3.12097 0.014345 0
M  V30 632 N 65.0364 0.313813 1.54444 0
M  V30 633 C 66.4474 -0.176243 1.85866 0
M  V30 634 C 66.7984 -1.52405 1.23561 0
M  V30 635 O 65.9234 -2.09605 0.538016 0
M  V30 636 C 66.5184 -0.32657 3.37222 0
M  V30 637 C 65.0774 -0.760846 3.6863 0
M  V30 638 C 64.2244 0.123247 2.77026 0
M  V30 639 H 67.1754 0.534418 1.49431 0
M  V30 640 H 67.1964 -1.15908 3.62416 0
M  V30 641 H 66.7084 0.654531 3.82541 0
M  V30 642 H 64.8094 -1.75204 3.28838 0
M  V30 643 H 64.9224 -0.571353 4.75681 0
M  V30 644 H 63.2864 -0.399597 2.51546 0
M  V30 645 H 64.0694 1.10094 3.25168 0
M  V30 646 N 66.5145 -1.57545 0.0417849 0
M  V30 647 C 67.7425 -1.96624 -0.643928 0
M  V30 648 C 68.1575 -0.918897 -1.64929 0
M  V30 649 O 67.5145 0.0979323 -1.82237 0
M  V30 650 C 67.5655 -3.35781 -1.33914 0
M  V30 651 O 67.2865 -4.365 -0.374048 0
M  V30 652 C 68.7875 -3.89566 -2.1155 0
M  V30 653 H 66.0075 -0.647316 -0.176702 0
M  V30 654 H 68.5515 -2.04229 0.105304 0
M  V30 655 H 66.7065 -3.29357 -2.03968 0
M  V30 656 H 67.1205 -5.17248 -0.869179 0
M  V30 657 H 68.5945 -4.89242 -2.55628 0
M  V30 658 H 69.0715 -3.24488 -2.9598 0
M  V30 659 H 69.6775 -3.99298 -1.46427 0
M  V30 660 N 67.9926 0.231505 -1.5589 0
M  V30 661 C 68.9226 1.29022 -1.94617 0
M  V30 662 C 69.9036 1.4941 -0.813067 0
M  V30 663 O 71.0886 1.6176 -1.07459 0
M  V30 664 C 68.2186 2.64199 -2.25424 0
M  V30 665 C 67.1726 2.58484 -3.41131 0
M  V30 666 C 66.4986 3.97599 -3.57518 0
M  V30 667 C 67.7986 2.1413 -4.76388 0
M  V30 668 H 69.4926 0.968563 -2.83301 0
M  V30 669 H 67.0386 0.464479 -1.36303 0
M  V30 670 H 68.9916 3.38413 -2.51107 0
M  V30 671 H 67.7156 2.98032 -1.33583 0
M  V30 672 H 66.3746 1.86727 -3.15481 0
M  V30 673 H 66.0226 4.28723 -2.6307 0
M  V30 674 H 65.7226 3.94659 -4.35337 0
M  V30 675 H 67.2466 4.7349 -3.85538 0
M  V30 676 H 68.6606 2.78083 -5.01341 0
M  V30 677 H 67.0576 2.2227 -5.57419 0
M  V30 678 H 68.1276 1.09331 -4.72414 0
M  V30 679 N 69.4707 1.49531 0.497807 0
M  V30 680 C 70.4007 1.6935 1.60757 0
M  V30 681 C 71.3817 0.542218 1.61227 0
M  V30 682 O 72.5667 0.778417 1.77917 0
M  V30 683 C 69.6967 1.76298 2.99226 0
M  V30 684 C 68.6507 2.91248 3.13622 0
M  V30 685 C 67.9767 2.83312 4.53474 0
M  V30 686 C 69.2767 4.3214 2.93346 0
M  V30 687 H 70.9707 2.62263 1.44425 0
M  V30 688 H 68.5167 1.26208 0.693367 0
M  V30 689 H 70.4697 1.88749 3.76765 0
M  V30 690 H 69.1937 0.799871 3.16654 0
M  V30 691 H 67.8527 2.78404 2.38509 0
M  V30 692 H 67.5007 1.84902 4.67782 0
M  V30 693 H 67.2007 3.60465 4.64046 0
M  V30 694 H 68.7247 2.97775 5.33069 0
M  V30 695 H 70.1387 4.45649 3.60652 0
M  V30 696 H 68.5357 5.1054 3.15387 0
M  V30 697 H 69.6057 4.46363 1.89441 0
M  V30 698 N 70.9488 -0.749086 1.3866 0
M  V30 699 C 71.9118 -1.84457 1.36045 0
M  V30 700 C 72.9118 -1.58682 0.260122 0
M  V30 701 O 74.1018 -1.66343 0.517261 0
M  V30 702 C 71.2338 -3.22008 1.11911 0
M  V30 703 H 72.4268 -1.88182 2.33512 0
M  V30 704 H 69.9798 -0.951266 1.24019 0
M  V30 705 H 70.7148 -3.2395 0.150686 0
M  V30 706 H 70.4998 -3.42111 1.91579 0
M  V30 707 H 71.9898 -4.0208 1.12788 0
M  V30 708 N 72.4269 -1.23603 -0.977757 0
M  V30 709 C 73.3739 -1.01954 -2.07061 0
M  V30 710 C 74.3439 0.0638697 -1.65977 0
M  V30 711 O 75.5289 -0.0887624 -1.90593 0
M  V30 712 C 72.6689 -0.619658 -3.39491 0
M  V30 713 C 71.7819 -1.77547 -3.93829 0
M  V30 714 C 70.9169 -1.32212 -5.14484 0
M  V30 715 C 69.9559 -2.44852 -5.60994 0
M  V30 716 N 69.0929 -2.00456 -6.72876 0
M  V30 717 H 73.9329 -1.95495 -2.24913 0
M  V30 718 H 71.4699 -0.973861 -1.10247 0
M  V30 719 H 73.4279 -0.368898 -4.15566 0
M  V30 720 H 72.0579 0.278752 -3.21594 0
M  V30 721 H 71.1099 -2.14016 -3.14486 0
M  V30 722 H 72.4219 -2.62219 -4.24314 0
M  V30 723 H 71.5759 -1.02965 -5.97899 0
M  V30 724 H 70.3149 -0.445808 -4.85658 0
M  V30 725 H 69.3199 -2.74871 -4.76157 0
M  V30 726 H 70.5449 -3.33024 -5.91837 0
M  V30 727 H 68.4909 -1.15208 -6.45804 0
M  V30 728 H 68.4079 -2.78687 -7.02759 0
M  V30 729 H 69.6759 -1.7432 -7.59758 0
M  V30 730 N 73.905 1.17692 -1.04816 0
M  V30 731 C 75.321 1.39863 -0.768794 0
M  V30 732 C 75.521 1.91118 0.638451 0
M  V30 733 O 74.577 2.10036 1.40146 0
M  V30 734 C 75.89 2.39274 -1.82122 0
M  V30 735 C 77.438 2.52987 -1.843 0
M  V30 736 C 77.913 3.55669 -2.88555 0
M  V30 737 N 79.404 3.63183 -2.87493 0
M  V30 738 C 80.139 4.42381 -3.64811 0
M  V30 739 N 79.635 5.25125 -4.51903 0
M  V30 740 N 81.428 4.37217 -3.53267 0
M  V30 741 H 73.579 0.82752 -1.95617 0
M  V30 742 H 75.842 0.426123 -0.846831 0
M  V30 743 H 75.548 2.08678 -2.83102 0
M  V30 744 H 75.422 3.38725 -1.65967 0
M  V30 745 H 77.809 2.82896 -0.839869 0
M  V30 746 H 77.89 1.53623 -2.04532 0
M  V30 747 H 77.534 3.26499 -3.89051 0
M  V30 748 H 77.464 4.54728 -2.65575 0
M  V30 749 H 79.955 3.04103 -2.24343 0
M  V30 750 H 80.268 5.82728 -5.07591 0
M  V30 751 H 78.613 5.24519 -4.55966 0
M  V30 752 H 81.804 3.71626 -2.84625 0
M  V30 753 H 81.977 4.98696 -4.13771 0
M  V30 754 N 75.3831 0.828654 1.34056 0
M  V30 755 C 76.7991 0.515135 1.51058 0
M  V30 756 C 76.9991 -0.959581 1.77184 0
M  V30 757 O 76.0551 -1.74382 1.82612 0
M  V30 758 C 77.3681 1.37963 2.67183 0
M  V30 759 C 78.9161 1.37735 2.81066 0
M  V30 760 C 79.3911 2.22645 4.00241 0
M  V30 761 N 80.8821 2.203 4.07458 0
M  V30 762 C 81.6171 2.82744 4.98842 0
M  V30 763 N 81.1131 3.54201 5.9541 0
M  V30 764 N 82.9061 2.72268 4.91759 0
M  V30 765 H 75.0571 1.78343 1.15358 0
M  V30 766 H 77.3201 0.760304 0.566252 0
M  V30 767 H 77.0261 2.42714 2.54525 0
M  V30 768 H 76.9001 1.0484 3.62338 0
M  V30 769 H 79.2871 0.337593 2.93163 0
M  V30 770 H 79.3681 1.74859 1.86703 0
M  V30 771 H 79.0121 3.26674 3.88905 0
M  V30 772 H 78.9421 1.82869 4.93829 0
M  V30 773 H 81.4331 1.68327 3.38341 0
M  V30 774 H 81.7461 3.9908 6.61782 0
M  V30 775 H 80.0911 3.58308 5.95517 0
M  V30 776 H 83.2821 2.16014 4.15278 0
M  V30 777 H 83.4551 3.21219 5.62781 0
M  V30 778 N 76.8612 -1.46375 0.584142 0
M  V30 779 C 78.0912 -2.06461 0.0758195 0
M  V30 780 C 78.4992 -1.43322 -1.23512 0
M  V30 781 O 77.8422 -0.533216 -1.75791 0
M  V30 782 C 77.9042 -3.59131 -0.162773 0
M  V30 783 C 77.5682 -4.4447 1.06279 0
M  V30 784 C 78.5652 -4.80918 1.97519 0
M  V30 785 C 76.2502 -4.85584 1.28504 0
M  V30 786 C 78.2442 -5.57309 3.09331 0
M  V30 787 C 75.9312 -5.61734 2.4062 0
M  V30 788 C 76.9292 -5.9751 3.30863 0
M  V30 789 O 76.6172 -6.72121 4.41032 0
M  V30 790 H 76.3492 -0.673745 0.0551725 0
M  V30 791 H 78.9032 -1.88969 0.804984 0
M  V30 792 H 77.1332 -3.74936 -0.946565 0
M  V30 793 H 78.8222 -4.0114 -0.619782 0
M  V30 794 H 79.5882 -4.49732 1.81565 0
M  V30 795 H 75.4672 -4.57187 0.591702 0
M  V30 796 H 79.0112 -5.85152 3.79793 0
M  V30 797 H 74.9082 -5.92334 2.56537 0
M  V30 798 H 75.6762 -6.90547 4.39417 0
M  V30 799 N 78.3393 -0.321999 -1.54275 0
M  V30 800 C 79.2723 0.58718 -2.20516 0
M  V30 801 C 80.2503 1.11693 -1.18167 0
M  V30 802 O 81.4343 1.18122 -1.46899 0
M  V30 803 C 78.5613 1.80554 -2.86562 0
M  V30 804 C 77.6073 1.40718 -4.02617 0
M  V30 805 S 78.4403 0.445218 -5.33646 0
M  V30 806 C 79.5963 1.6709 -6.03185 0
M  V30 807 H 79.8293 0.0244875 -2.9729 0
M  V30 808 H 77.3623 -0.106087 -1.54035 0
M  V30 809 H 79.3203 2.50462 -3.25237 0
M  V30 810 H 77.9813 2.33942 -2.09595 0
M  V30 811 H 77.1743 2.31501 -4.47687 0
M  V30 812 H 76.7763 0.78782 -3.65608 0
M  V30 813 H 79.0683 2.60856 -6.25268 0
M  V30 814 H 80.0113 1.26239 -6.96756 0
M  V30 815 H 80.4193 1.85716 -5.33076 0
M  V30 816 N 79.8174 1.5752 -0.0501392 0
M  V30 817 C 81.2334 1.56631 0.306402 0
M  V30 818 C 81.4334 1.0577 1.71508 0
M  V30 819 O 80.4894 0.713837 2.422 0
M  V30 820 C 81.8024 3.00393 0.135811 0
M  V30 821 C 83.3504 3.12315 0.206993 0
M  V30 822 C 83.8254 4.57954 0.064944 0
M  V30 823 N 85.3164 4.63041 0.121254 0
M  V30 824 C 86.0514 5.73389 0.0354381 0
M  V30 825 N 85.5474 6.92724 -0.102666 0
M  V30 826 N 87.3404 5.62026 0.090946 0
M  V30 827 H 79.4914 1.88903 -0.971046 0
M  V30 828 H 81.7544 0.869876 -0.376855 0
M  V30 829 H 81.4604 3.41635 -0.835384 0
M  V30 830 H 81.3344 3.66373 0.897275 0
M  V30 831 H 83.7214 2.70973 1.16866 0
M  V30 832 H 83.8024 2.49016 -0.585208 0
M  V30 833 H 83.4464 4.99981 -0.893394 0
M  V30 834 H 83.3764 5.19258 0.876277 0
M  V30 835 H 85.8674 3.77216 0.227284 0
M  V30 836 H 86.1804 7.72633 -0.160882 0
M  V30 837 H 84.5254 6.94864 -0.137737 0
M  V30 838 H 87.7164 4.67684 0.197388 0
M  V30 839 H 87.8894 6.47997 0.0206089 0
M  V30 840 N 81.2955 -0.223234 1.56011 0
M  V30 841 C 82.2275 -1.30006 1.88762 0
M  V30 842 C 83.2405 -1.43129 0.775746 0
M  V30 843 O 84.4295 -1.44057 1.05403 0
M  V30 844 C 81.5295 -2.67589 2.07965 0
M  V30 845 C 80.7025 -2.76434 3.38973 0
M  V30 846 C 79.7615 -3.95019 3.47629 0
M  V30 847 O 78.7875 -3.83436 4.20672 0
M  V30 848 N 79.9895 -5.09249 2.78649 0
M  V30 849 H 82.7545 -1.02238 2.81722 0
M  V30 850 H 80.3155 -0.413278 1.56536 0
M  V30 851 H 82.3075 -3.45297 2.11073 0
M  V30 852 H 80.8775 -2.87964 1.21638 0
M  V30 853 H 80.0975 -1.85216 3.47978 0
M  V30 854 H 81.3855 -2.79313 4.25278 0
M  V30 855 H 80.7835 -5.21556 2.19081 0
M  V30 856 H 79.3405 -5.85007 2.8742 0
M  V30 857 N 82.7736 -1.49793 -0.48987 0
M  V30 858 C 83.7236 -1.63673 -1.5873 0
M  V30 859 C 84.7076 -0.491956 -1.53195 0
M  V30 860 O 85.8996 -0.745461 -1.60536 0
M  V30 861 C 83.0286 -1.71689 -2.97284 0
M  V30 862 C 82.1146 -2.91781 -3.07774 0
M  V30 863 N 82.5056 -4.15714 -2.88124 0
M  V30 864 C 80.8036 -2.89949 -3.38889 0
M  V30 865 C 81.5046 -4.965 -3.03088 0
M  V30 866 N 80.4806 -4.30083 -3.3246 0
M  V30 867 H 84.2826 -2.57204 -1.42208 0
M  V30 868 H 81.7966 -1.46719 -0.69623 0
M  V30 869 H 83.7936 -1.79732 -3.76168 0
M  V30 870 H 82.4536 -0.793024 -3.14867 0
M  V30 871 H 83.4646 -4.45515 -2.64077 0
M  V30 872 H 80.1416 -2.06987 -3.62578 0
M  V30 873 H 81.5316 -6.04991 -2.92294 0
M  V30 874 N 84.2517 0.741722 -1.39055 0
M  V30 875 C 85.1817 1.869 -1.39966 0
M  V30 876 C 86.1627 1.6804 -0.26392 0
M  V30 877 O 87.3477 1.88458 -0.468755 0
M  V30 878 C 84.4777 3.24572 -1.23574 0
M  V30 879 C 83.4317 3.58056 -2.34477 0
M  V30 880 C 82.7577 4.94593 -2.0318 0
M  V30 881 C 84.0577 3.61716 -3.76774 0
M  V30 882 H 85.7517 1.86395 -2.34302 0
M  V30 883 H 83.2977 0.895361 -1.1278 0
M  V30 884 H 85.2507 4.031 -1.22834 0
M  V30 885 H 83.9747 3.25587 -0.257045 0
M  V30 886 H 82.6337 2.81854 -2.34423 0
M  V30 887 H 82.2817 4.92181 -1.03765 0
M  V30 888 H 81.9817 5.17964 -2.77465 0
M  V30 889 H 83.5057 5.75486 -2.04079 0
M  V30 890 H 84.9197 4.30335 -3.78794 0
M  V30 891 H 83.3167 3.96603 -4.50362 0
M  V30 892 H 84.3867 2.61672 -4.08235 0
M  V30 893 N 85.7298 1.2412 0.971189 0
M  V30 894 C 87.0068 0.986867 1.6888 0
M  V30 895 C 87.3868 -0.491857 2.0529 0
M  V30 896 O 86.7348 -1.46531 1.75331 0
M  V30 897 C 86.9448 1.9063 2.92338 0
M  V30 898 C 88.2928 2.17515 3.64654 0
M  V30 899 O 89.3168 1.88254 3.02388 0
M  V30 900 O 88.1758 2.6719 4.7673 0
M  V30 901 H 85.2698 0.372944 0.738134 0
M  V30 902 H 87.8158 1.35203 1.02559 0
M  V30 903 H 86.5878 2.90552 2.62097 0
M  V30 904 H 86.2108 1.54408 3.66393 0
M  V30 905 N 87.2079 -1.17134 1.05439 0
M  V30 906 C 88.1579 -2.1919 0.627675 0
M  V30 907 C 89.1419 -1.57328 -0.337147 0
M  V30 908 O 90.3339 -1.76329 -0.153976 0
M  V30 909 C 87.4629 -3.43299 0.00651435 0
M  V30 910 C 86.5489 -4.12255 0.995312 0
M  V30 911 N 86.9399 -4.56997 2.16765 0
M  V30 912 C 85.2379 -4.38316 0.824336 0
M  V30 913 C 85.9389 -5.10239 2.7934 0
M  V30 914 N 84.9149 -5.02595 2.07122 0
M  V30 915 H 88.7169 -2.5149 1.52086 0
M  V30 916 H 86.2309 -1.33491 0.924868 0
M  V30 917 H 88.2279 -4.15693 -0.316965 0
M  V30 918 H 86.8879 -3.1249 -0.882033 0
M  V30 919 H 87.8989 -4.51006 2.54587 0
M  V30 920 H 84.5759 -4.17498 -0.0129526 0
M  V30 921 H 85.9659 -5.54961 3.78772 0
M  V30 922 N 88.686 -0.835752 -1.33615 0
M  V30 923 C 89.932 -0.430596 -1.98176 0
M  V30 924 C 90.265 1.00684 -1.66061 0
M  V30 925 O 89.54 1.70339 -0.938877 0
M  V30 926 C 89.823 -0.648065 -3.5422 0
M  V30 927 C 89.676 -2.13255 -3.96033 0
M  V30 928 C 90.995 -0.0922113 -4.40003 0
M  V30 929 H 88.114 -0.157924 -0.719881 0
M  V30 930 H 90.756 -1.05069 -1.58305 0
M  V30 931 H 88.906 -0.120237 -3.88314 0
M  V30 932 H 90.578 -2.725 -3.72211 0
M  V30 933 H 88.821 -2.61823 -3.45878 0
M  V30 934 H 89.492 -2.23547 -5.04708 0
M  V30 935 H 91.968 -0.543343 -4.12537 0
M  V30 936 H 90.844 -0.274083 -5.48215 0
M  V30 937 H 91.105 1.00378 -4.30554 0
M  V30 938 N 90.1641 1.46063 -0.591896 0
M  V30 939 C 91.5801 1.57561 -0.254288 0
M  V30 940 C 91.7801 1.58565 1.24336 0
M  V30 941 O 90.8361 1.50753 2.02558 0
M  V30 942 C 92.1491 2.86549 -0.911611 0
M  V30 943 C 93.6971 3.00197 -0.886059 0
M  V30 944 C 94.1721 4.31933 -1.5231 0
M  V30 945 N 95.6631 4.38654 -1.48786 0
M  V30 946 C 96.3981 5.39222 -1.95006 0
M  V30 947 N 95.8941 6.46414 -2.49241 0
M  V30 948 N 97.6871 5.3048 -1.85868 0
M  V30 949 H 89.8381 1.43655 -1.56451 0
M  V30 950 H 92.1011 0.68583 -0.654478 0
M  V30 951 H 91.8071 2.91651 -1.96551 0
M  V30 952 H 91.6811 3.74794 -0.425368 0
M  V30 953 H 94.0681 2.9467 0.159246 0
M  V30 954 H 94.1491 2.13403 -1.41041 0
M  V30 955 H 93.7931 4.38217 -2.56765 0
M  V30 956 H 93.7231 5.17516 -0.973891 0
M  V30 957 H 96.2141 3.61793 -1.09151 0
M  V30 958 H 96.5271 7.19376 -2.82344 0
M  V30 959 H 94.8721 6.47208 -2.53272 0
M  V30 960 H 98.0631 4.45643 -1.43248 0
M  V30 961 H 98.2361 6.08711 -2.22204 0
M  V30 962 N 91.6422 0.330177 1.54103 0
M  V30 963 C 93.0582 -0.0222371 1.59585 0
M  V30 964 C 93.2582 -1.49902 1.34654 0
M  V30 965 O 92.3142 -2.25592 1.13421 0
M  V30 966 C 93.6272 0.401932 2.98002 0
M  V30 967 C 95.1752 0.353145 3.11001 0
M  V30 968 C 95.6502 0.752576 4.51775 0
M  V30 969 N 97.1412 0.706239 4.57784 0
M  V30 970 C 97.8762 0.987417 5.64834 0
M  V30 971 N 97.3722 1.33607 6.79795 0
M  V30 972 N 99.1652 0.91254 5.54643 0
M  V30 973 H 91.3162 1.29228 1.68564 0
M  V30 974 H 93.5792 0.525906 0.78875 0
M  V30 975 H 93.2852 1.4311 3.21267 0
M  V30 976 H 93.1592 -0.229699 3.765 0
M  V30 977 H 95.5462 -0.666822 2.87467 0
M  V30 978 H 95.6272 1.0198 2.34593 0
M  V30 979 H 95.2712 1.77049 4.76042 0
M  V30 980 H 95.2012 0.0635409 5.26562 0
M  V30 981 H 97.6922 0.44889 3.75224 0
M  V30 982 H 98.0052 1.53582 7.57385 0
M  V30 983 H 96.3502 1.37439 6.81275 0
M  V30 984 H 99.5412 0.639601 4.6371 0
M  V30 985 H 99.7142 1.13503 6.37982 0
M  V30 986 N 93.1203 -1.57491 0.0584922 0
M  V30 987 C 94.5363 -1.56792 -0.298091 0
M  V30 988 C 94.7363 -1.06679 -1.70944 0
M  V30 989 O 93.7923 -0.726672 -2.41818 0
M  V30 990 C 95.1053 -3.00461 -0.119879 0
M  V30 991 C 96.6533 -3.1242 -0.190428 0
M  V30 992 C 97.1283 -4.57982 -0.0406567 0
M  V30 993 N 98.6193 -4.63099 -0.0966958 0
M  V30 994 C 99.3543 -5.734 -0.00502943 0
M  V30 995 N 98.8503 -6.9266 0.139402 0
M  V30 996 N 100.643 -5.62067 -0.0611391 0
M  V30 997 H 92.7943 -1.88386 0.98105 0
M  V30 998 H 95.0573 -0.867865 0.381463 0
M  V30 999 H 94.7633 -3.41187 0.85349 0
M  V30 1000 H 94.6373 -3.66843 -0.877833 0
M  V30 1001 H 97.0243 -2.71589 -1.15427 0
M  V30 1002 H 97.1053 -2.48702 0.598405 0
M  V30 1003 H 96.7493 -4.995 0.919897 0
M  V30 1004 H 96.6793 -5.19715 -0.848727 0
M  V30 1005 H 99.1703 -3.77331 -0.207277 0
M  V30 1006 H 99.4833 -7.72536 0.201855 0
M  V30 1007 H 97.8283 -6.94781 0.174586 0
M  V30 1008 H 101.019 -4.67782 -0.172583 0
M  V30 1009 H 101.192 -6.47999 0.0137562 0
M  V30 1010 N 94.5984 0.214957 -1.56127 0
M  V30 1011 C 95.5284 1.2695 -1.95974 0
M  V30 1012 C 96.5094 1.48539 -0.828868 0
M  V30 1013 O 97.6944 1.60611 -1.09168 0
M  V30 1014 C 94.8244 2.61794 -2.28214 0
M  V30 1015 C 93.7784 2.54851 -3.43853 0
M  V30 1016 C 93.1044 3.93785 -3.61715 0
M  V30 1017 C 94.4044 2.09065 -4.78632 0
M  V30 1018 H 96.0984 0.93846 -2.84312 0
M  V30 1019 H 93.6444 0.449996 -1.36788 0
M  V30 1020 H 95.5974 3.35731 -2.54682 0
M  V30 1021 H 94.3214 2.96599 -1.36736 0
M  V30 1022 H 92.9804 1.8337 -3.17444 0
M  V30 1023 H 92.6284 4.25908 -2.67602 0
M  V30 1024 H 92.3284 3.90019 -4.39498 0
M  V30 1025 H 93.8524 4.69374 -3.90539 0
M  V30 1026 H 95.2664 2.7275 -5.04262 0
M  V30 1027 H 93.6634 2.16346 -5.59745 0
M  V30 1028 H 94.7334 1.04315 -4.73547 0
M  V30 1029 N 96.0765 1.50051 0.48192 0
M  V30 1030 C 97.0095 1.62749 1.59963 0
M  V30 1031 C 97.9875 0.475903 1.5548 0
M  V30 1032 O 99.1715 0.693986 1.7526 0
M  V30 1033 C 96.2985 1.60008 2.98522 0
M  V30 1034 C 95.3445 2.80596 3.21198 0
M  V30 1035 S 96.1775 4.42038 3.02262 0
M  V30 1036 C 97.3335 4.41973 4.43182 0
M  V30 1037 H 97.5665 2.57296 1.4895 0
M  V30 1038 H 95.0995 1.39179 0.668477 0
M  V30 1039 H 97.0575 1.59112 3.78409 0
M  V30 1040 H 95.7185 0.667153 3.06933 0
M  V30 1041 H 94.9115 2.74952 4.22395 0
M  V30 1042 H 94.5135 2.79003 2.49065 0
M  V30 1043 H 96.8055 4.14868 5.35622 0
M  V30 1044 H 97.7485 5.43512 4.53873 0
M  V30 1045 H 98.1565 3.71812 4.24755 0
M  V30 1046 N 97.5546 -0.734337 1.39446 0
M  V30 1047 C 98.8016 -1.49391 1.36706 0
M  V30 1048 C 99.1296 -1.94465 -0.0367813 0
M  V30 1049 O 98.3846 -1.67154 -1.01774 0
M  V30 1050 C 98.6836 -2.74711 2.28623 0
M  V30 1051 C 98.3496 -2.48501 3.76242 0
M  V30 1052 C 97.0116 -2.41062 4.16464 0
M  V30 1053 C 99.3636 -2.26098 4.69606 0
M  V30 1054 C 96.6916 -2.09262 5.48112 0
M  V30 1055 C 99.0436 -1.95814 6.01531 0
M  V30 1056 C 97.7076 -1.86845 6.40816 0
M  V30 1057 H 96.9776 -0.546661 0.500243 0
M  V30 1058 H 99.6246 -0.842788 1.71957 0
M  V30 1059 H 97.9296 -3.44569 1.86492 0
M  V30 1060 H 99.6266 -3.32741 2.23796 0
M  V30 1061 H 96.2166 -2.55169 3.44364 0
M  V30 1062 H 100.401 -2.30812 4.39363 0
M  V30 1063 H 95.6566 -2.00841 5.77471 0
M  V30 1064 H 99.8306 -1.77488 6.73403 0
M  V30 1065 H 97.4576 -1.6197 7.42745 0
M  V30 1066 N 99.0327 -1.24633 -0.964593 0
M  V30 1067 C 99.9427 -1.05859 -2.09359 0
M  V30 1068 C 100.959 0.00148855 -1.74 0
M  V30 1069 O 102.135 -0.197346 -2.00431 0
M  V30 1070 C 99.1997 -0.668879 -3.40187 0
M  V30 1071 C 98.2607 -1.80578 -3.89474 0
M  V30 1072 C 97.4937 -1.43457 -5.14058 0
M  V30 1073 O 97.7167 -0.325775 -5.69469 0
M  V30 1074 O 96.6507 -2.2613 -5.57807 0
M  V30 1075 H 100.477 -2.00516 -2.28094 0
M  V30 1076 H 98.0617 -1.03481 -1.0776 0
M  V30 1077 H 99.9437 -0.463211 -4.18846 0
M  V30 1078 H 98.6187 0.248536 -3.22744 0
M  V30 1079 H 97.5257 -2.06623 -3.11862 0
M  V30 1080 H 98.8587 -2.70208 -4.11398 0
M  V30 1081 N 100.511 1.16574 -1.06058 0
M  V30 1082 C 101.922 1.68662 -0.800632 0
M  V30 1083 C 102.273 1.84184 0.67608 0
M  V30 1084 O 101.398 1.53568 1.52466 0
M  V30 1085 C 101.993 3.06356 -1.44676 0
M  V30 1086 C 100.552 3.55575 -1.23465 0
M  V30 1087 C 99.6988 2.31616 -1.52477 0
M  V30 1088 H 102.65 1.00969 -1.22438 0
M  V30 1089 H 102.671 3.70636 -0.860788 0
M  V30 1090 H 102.183 2.95027 -2.52152 0
M  V30 1091 H 100.284 3.72167 -0.179527 0
M  V30 1092 H 100.397 4.37812 -1.94571 0
M  V30 1093 H 98.7608 2.36512 -0.945209 0
M  V30 1094 H 99.5438 2.22887 -2.61106 0
M  V30 1095 N 101.989 0.842826 1.3317 0
M  V30 1096 C 103.405 0.531128 1.50503 0
M  V30 1097 C 103.605 -0.940734 1.78192 0
M  V30 1098 O 102.661 -1.72436 1.84451 0
M  V30 1099 C 103.974 1.40789 2.65705 0
M  V30 1100 C 105.522 1.40708 2.79589 0
M  V30 1101 C 105.997 2.26878 3.97857 0
M  V30 1102 N 107.488 2.24609 4.05099 0
M  V30 1103 C 108.223 2.88019 4.95815 0
M  V30 1104 N 107.719 3.60496 5.9162 0
M  V30 1105 N 109.512 2.77469 4.88843 0
M  V30 1106 H 101.663 1.79557 1.1346 0
M  V30 1107 H 103.926 0.766267 0.558156 0
M  V30 1108 H 103.632 2.454 2.51936 0
M  V30 1109 H 103.506 1.08677 3.61205 0
M  V30 1110 H 105.893 0.368668 2.92788 0
M  V30 1111 H 105.974 1.76829 1.84838 0
M  V30 1112 H 105.618 3.3078 3.85418 0
M  V30 1113 H 105.548 1.88096 4.91861 0
M  V30 1114 H 108.039 1.71906 3.36536 0
M  V30 1115 H 108.352 4.06076 6.57512 0
M  V30 1116 H 106.697 3.64604 5.91683 0
M  V30 1117 H 109.888 2.20406 4.12963 0
M  V30 1118 H 110.061 3.2717 5.59342 0
M  V30 1119 N 103.467 -1.45747 0.599634 0
M  V30 1120 C 104.715 -2.01893 0.0915472 0
M  V30 1121 C 105.036 -1.47155 -1.27946 0
M  V30 1122 O 104.306 -0.66273 -1.84349 0
M  V30 1123 H 102.886 -0.746363 0.0308524 0
M  V30 1124 H 105.548 -1.78645 0.779237 0
M  V30 1125 H 104.644 -3.1208 0.0353086 0
M  V30 1126 N 104.945 -0.338344 -1.53925 0
M  V30 1127 C 105.895 0.536712 -2.21593 0
M  V30 1128 C 106.879 1.07015 -1.20153 0
M  V30 1129 O 108.071 1.00471 -1.45721 0
M  V30 1130 C 105.2 1.68977 -2.98834 0
M  V30 1131 C 104.286 1.17052 -4.07627 0
M  V30 1132 N 104.677 0.372085 -5.0443 0
M  V30 1133 C 102.975 1.44789 -4.21844 0
M  V30 1134 C 103.676 0.0909171 -5.81629 0
M  V30 1135 N 102.652 0.681131 -5.39316 0
M  V30 1136 H 106.454 -0.0804298 -2.9379 0
M  V30 1137 H 103.968 -0.144943 -1.61752 0
M  V30 1138 H 105.965 2.32857 -3.45808 0
M  V30 1139 H 104.625 2.31024 -2.28162 0
M  V30 1140 H 105.636 0.0136217 -5.17898 0
M  V30 1141 H 102.313 2.07313 -3.62391 0
M  V30 1142 H 103.703 -0.552817 -6.69622 0
M  V30 1143 N 106.423 1.57458 -0.0668435 0
M  V30 1144 C 107.839 1.56947 0.289772 0
M  V30 1145 C 108.039 1.07584 1.70376 0
M  V30 1146 O 107.095 0.739486 2.41429 0
M  V30 1147 C 108.408 3.0052 0.103943 0
M  V30 1148 C 109.956 3.12517 0.173857 0
M  V30 1149 C 110.431 4.57997 0.0163682 0
M  V30 1150 N 111.922 4.63144 0.0721352 0
M  V30 1151 C 112.657 5.73394 -0.0253794 0
M  V30 1152 N 112.153 6.92576 -0.176133 0
M  V30 1153 N 113.946 5.62091 0.0313305 0
M  V30 1154 H 106.097 1.87863 -0.991027 0
M  V30 1155 H 108.36 0.86583 -0.38606 0
M  V30 1156 H 108.066 3.40729 -0.871572 0
M  V30 1157 H 107.94 3.67304 0.858366 0
M  V30 1158 H 110.327 2.72197 1.13985 0
M  V30 1159 H 110.408 2.48381 -0.611586 0
M  V30 1160 H 110.052 4.99005 -0.946374 0
M  V30 1161 H 109.982 5.20158 0.821153 0
M  V30 1162 H 112.473 3.77436 0.187263 0
M  V30 1163 H 112.786 7.72418 -0.242821 0
M  V30 1164 H 111.131 6.94678 -0.211429 0
M  V30 1165 H 114.322 4.67867 0.147773 0
M  V30 1166 H 114.495 6.47982 -0.048121 0
M  V30 1167 N 107.901 -0.206675 1.56239 0
M  V30 1168 C 109.178 -0.954051 1.70755 0
M  V30 1169 C 109.558 -2.01841 0.618353 0
M  V30 1170 O 108.906 -2.25444 -0.372434 0
M  V30 1171 C 109.116 -1.551 3.12642 0
M  V30 1172 C 110.464 -2.03757 3.72516 0
M  V30 1173 O 111.488 -1.64965 3.15698 0
M  V30 1174 O 110.347 -2.75103 4.72208 0
M  V30 1175 H 107.441 -0.446636 0.696021 0
M  V30 1176 H 109.987 -0.197283 1.68549 0
M  V30 1177 H 108.759 -0.783212 3.83382 0
M  V30 1178 H 108.382 -2.37291 3.19028 0
M  V30 1179 N 109.379 -1.50304 -0.473955 0
M  V30 1180 C 110.312 -1.63595 -1.59097 0
M  V30 1181 C 111.29 -0.484142 -1.55225 0
M  V30 1182 O 112.474 -0.703271 -1.7489 0
M  V30 1183 C 109.601 -1.61589 -2.97669 0
M  V30 1184 C 108.647 -2.82295 -3.19705 0
M  V30 1185 S 109.48 -4.43635 -2.99913 0
M  V30 1186 C 110.636 -4.44317 -4.40832 0
M  V30 1187 H 110.869 -2.58082 -1.47583 0
M  V30 1188 H 108.402 -1.39531 -0.661087 0
M  V30 1189 H 110.36 -1.61116 -3.7756 0
M  V30 1190 H 109.021 -0.683421 -3.06575 0
M  V30 1191 H 108.214 -2.77188 -4.20931 0
M  V30 1192 H 107.816 -2.8032 -2.47582 0
M  V30 1193 H 110.108 -4.17703 -5.33414 0
M  V30 1194 H 111.051 -5.45911 -4.50984 0
M  V30 1195 H 111.459 -3.74059 -4.22777 0
M  V30 1196 N 110.857 0.726932 -1.39834 0
M  V30 1197 C 112.087 1.51393 -1.40583 0
M  V30 1198 C 112.495 1.892 -0.000740625 0
M  V30 1199 O 111.838 1.55189 0.982951 0
M  V30 1200 C 111.9 2.82588 -2.22226 0
M  V30 1201 C 111.564 2.67169 -3.70769 0
M  V30 1202 C 112.561 2.3518 -4.63666 0
M  V30 1203 C 110.246 2.83788 -4.14451 0
M  V30 1204 C 112.24 2.20002 -5.98229 0
M  V30 1205 C 109.927 2.68229 -5.49087 0
M  V30 1206 C 110.925 2.36382 -6.4079 0
M  V30 1207 O 110.613 2.2093 -7.72946 0
M  V30 1208 H 110.345 0.474168 -0.48181 0
M  V30 1209 H 112.899 0.905247 -1.84376 0
M  V30 1210 H 111.129 3.45746 -1.73195 0
M  V30 1211 H 112.818 3.44247 -2.15055 0
M  V30 1212 H 113.584 2.21984 -4.31217 0
M  V30 1213 H 109.463 3.07566 -3.43401 0
M  V30 1214 H 113.007 1.95067 -6.69772 0
M  V30 1215 H 108.904 2.81006 -5.81125 0
M  V30 1216 H 109.672 2.35937 -7.83757 0
M  V30 1217 N 112.336 1.25143 0.95797 0
M  V30 1218 C 113.584 1.09476 1.69881 0
M  V30 1219 C 113.905 -0.365502 1.91544 0
M  V30 1220 O 113.175 -1.25985 1.50015 0
M  V30 1221 H 111.755 0.402128 0.629525 0
M  V30 1222 H 114.417 1.57214 1.15194 0
M  V30 1223 H 113.513 1.60046 2.6794 0
M  V30 1224 N 113.814 -1.1601 1.06675 0
M  V30 1225 C 114.777 -2.18724 0.685001 0
M  V30 1226 C 115.777 -1.58496 -0.271246 0
M  V30 1227 O 116.967 -1.74119 -0.0531156 0
M  V30 1228 C 114.099 -3.40899 0.00853648 0
M  V30 1229 H 115.292 -2.54011 1.59431 0
M  V30 1230 H 112.845 -1.30352 0.862441 0
M  V30 1231 H 113.58 -3.11173 -0.913337 0
M  V30 1232 H 113.365 -3.8587 0.696204 0
M  V30 1233 H 114.855 -4.16886 -0.24414 0
M  V30 1234 N 115.292 -0.849877 -1.32721 0
M  V30 1235 C 116.538 -0.451591 -1.97708 0
M  V30 1236 C 116.871 0.989175 -1.6712 0
M  V30 1237 O 116.146 1.69334 -0.956891 0
M  V30 1238 C 116.429 -0.685598 -3.53513 0
M  V30 1239 C 116.282 -2.17444 -3.93749 0
M  V30 1240 C 117.601 -0.138874 -4.39881 0
M  V30 1241 H 114.72 -0.16555 -0.718166 0
M  V30 1242 H 117.362 -1.06742 -1.57182 0
M  V30 1243 H 115.512 -0.161416 -3.88165 0
M  V30 1244 H 117.184 -2.76433 -3.693 0
M  V30 1245 H 115.427 -2.65476 -3.43081 0
M  V30 1246 H 116.098 -2.28888 -5.02309 0
M  V30 1247 H 118.574 -0.587068 -4.11938 0
M  V30 1248 H 117.45 -0.332213 -5.47894 0
M  V30 1249 H 117.711 0.95806 -4.31594 0
M  V30 1250 N 116.77 1.45427 -0.607355 0
M  V30 1251 C 117.7 2.3329 0.0989352 0
M  V30 1252 C 118.681 1.46816 0.859007 0
M  V30 1253 O 119.866 1.75588 0.829604 0
M  V30 1254 C 116.996 3.29518 1.09705 0
M  V30 1255 C 115.95 4.25626 0.450206 0
M  V30 1256 C 115.276 5.11542 1.55655 0
M  V30 1257 C 116.576 5.18505 -0.628455 0
M  V30 1258 H 118.27 2.92595 -0.634716 0
M  V30 1259 H 115.816 1.40696 -0.306681 0
M  V30 1260 H 117.769 3.89855 1.59971 0
M  V30 1261 H 116.493 2.68372 1.86129 0
M  V30 1262 H 115.152 3.66586 -0.0315886 0
M  V30 1263 H 114.8 4.46765 2.31107 0
M  V30 1264 H 114.5 5.76647 1.12925 0
M  V30 1265 H 116.024 5.74748 2.06148 0
M  V30 1266 H 117.438 5.72916 -0.209877 0
M  V30 1267 H 115.835 5.92085 -0.977489 0
M  V30 1268 H 116.905 4.60948 -1.50514 0
M  V30 1269 N 118.248 0.346503 1.53744 0
M  V30 1270 C 119.494 -0.249473 2.0126 0
M  V30 1271 C 119.827 -1.49965 1.23386 0
M  V30 1272 O 119.102 -1.91811 0.32229 0
M  V30 1273 C 119.385 -0.560643 3.55709 0
M  V30 1274 C 119.238 0.701836 4.44291 0
M  V30 1275 C 120.557 -1.36905 4.18264 0
M  V30 1276 H 117.676 -0.0891987 0.731582 0
M  V30 1277 H 120.318 0.467624 1.84156 0
M  V30 1278 H 118.468 -1.17156 3.70414 0
M  V30 1279 H 120.14 1.33974 4.41417 0
M  V30 1280 H 118.383 1.32612 4.13033 0
M  V30 1281 H 119.054 0.43933 5.50249 0
M  V30 1282 H 121.53 -0.852448 4.07275 0
M  V30 1283 H 120.406 -1.55553 5.26398 0
M  V30 1284 H 120.667 -2.37203 3.73078 0
M  V30 1285 N 119.726 -1.57421 0.075193 0
M  V30 1286 C 121.137 -1.81021 -0.456964 0
M  V30 1287 C 121.488 -0.98936 -1.69429 0
M  V30 1288 O 120.613 -0.212865 -2.15351 0
M  V30 1289 C 121.208 -3.28329 -0.83581 0
M  V30 1290 C 119.767 -3.52764 -1.31281 0
M  V30 1291 C 118.914 -2.75676 -0.299648 0
M  V30 1292 H 121.865 -1.55822 0.300856 0
M  V30 1293 H 121.886 -3.40564 -1.69696 0
M  V30 1294 H 121.398 -3.88046 0.0649238 0
M  V30 1295 H 119.499 -2.98355 -2.23193 0
M  V30 1296 H 119.612 -4.61451 -1.28839 0
M  V30 1297 H 117.976 -2.42538 -0.777641 0
M  V30 1298 H 118.759 -3.38132 0.593417 0
M  V30 1299 N 121.204 0.198386 -1.56346 0
M  V30 1300 C 122.429 0.939682 -1.84891 0
M  V30 1301 C 122.854 1.76202 -0.658369 0
M  V30 1302 O 122.212 1.76993 0.392851 0
M  V30 1303 C 122.26 1.81428 -3.11635 0
M  V30 1304 O 121.364 2.91265 -2.91956 0
M  V30 1305 H 120.705 0.264807 -0.608912 0
M  V30 1306 H 123.235 0.204695 -2.03573 0
M  V30 1307 H 123.245 2.21958 -3.42343 0
M  V30 1308 H 121.92 1.21004 -3.97908 0
M  V30 1309 H 120.497 2.54514 -2.72538 0
M  V30 1310 N 122.682 1.50554 0.465978 0
M  V30 1311 C 123.592 1.72585 1.58907 0
M  V30 1312 C 124.608 0.60911 1.6299 0
M  V30 1313 O 125.784 0.88804 1.80765 0
M  V30 1314 C 122.849 1.81995 2.95091 0
M  V30 1315 C 121.91 3.05751 3.01355 0
M  V30 1316 C 121.143 3.14702 4.31043 0
M  V30 1317 O 121.366 2.30313 5.21835 0
M  V30 1318 O 120.3 4.07468 4.43005 0
M  V30 1319 H 124.126 2.67799 1.43239 0
M  V30 1320 H 121.711 1.34711 0.646013 0
M  V30 1321 H 123.593 1.90335 3.75966 0
M  V30 1322 H 122.268 0.899659 3.10947 0
M  V30 1323 H 121.175 3.02908 2.19539 0
M  V30 1324 H 122.508 3.97375 2.90437 0
M  V30 1325 N 124.16 -0.719506 1.40217 0
M  V30 1326 C 125.09 -1.8465 1.42922 0
M  V30 1327 C 126.071 -1.67599 0.29062 0
M  V30 1328 O 127.256 -1.87688 0.498677 0
M  V30 1329 C 124.386 -3.22565 1.28722 0
M  V30 1330 C 123.34 -3.54281 2.40144 0
M  V30 1331 C 122.666 -4.91298 2.11023 0
M  V30 1332 C 123.966 -3.55676 3.82481 0
M  V30 1333 H 125.66 -1.82644 2.37237 0
M  V30 1334 H 123.206 -0.877305 1.1419 0
M  V30 1335 H 125.159 -4.01095 1.29232 0
M  V30 1336 H 123.883 -3.25137 0.308811 0
M  V30 1337 H 122.542 -2.78088 2.38877 0
M  V30 1338 H 122.19 -4.90468 1.11582 0
M  V30 1339 H 121.89 -5.13485 2.8567 0
M  V30 1340 H 123.414 -5.72166 2.13209 0
M  V30 1341 H 124.828 -4.24254 3.85592 0
M  V30 1342 H 123.225 -3.89388 4.56614 0
M  V30 1343 H 124.295 -2.55144 4.12346 0
M  V30 1344 N 125.638 -1.25649 -0.95132 0
M  V30 1345 C 127.049 -1.09654 -1.51106 0
M  V30 1346 C 127.4 0.326615 -1.93462 0
M  V30 1347 O 126.525 1.21697 -1.78938 0
M  V30 1348 C 127.12 -1.98437 -2.74605 0
M  V30 1349 C 125.679 -1.86618 -3.2688 0
M  V30 1350 C 124.826 -1.9239 -1.99703 0
M  V30 1351 H 127.777 -1.38887 -0.767865 0
M  V30 1352 H 127.798 -1.5263 -3.48546 0
M  V30 1353 H 127.31 -3.02009 -2.43746 0
M  V30 1354 H 125.411 -0.859421 -3.62553 0
M  V30 1355 H 125.524 -2.71607 -3.94673 0
M  V30 1356 H 123.888 -1.36317 -2.15151 0
M  V30 1357 H 124.671 -2.97573 -1.71188 0
M  V30 1358 N 127.117 1.15442 -1.07289 0
M  V30 1359 C 128.394 1.82306 -0.708792 0
M  V30 1360 C 128.774 1.94991 0.808807 0
M  V30 1361 O 128.122 1.50085 1.72298 0
M  V30 1362 C 128.332 3.18695 -1.42247 0
M  V30 1363 C 129.68 3.94341 -1.57417 0
M  V30 1364 O 130.704 3.28247 -1.38319 0
M  V30 1365 O 129.563 5.12839 -1.88834 0
M  V30 1366 H 126.657 0.787628 -0.252132 0
M  V30 1367 H 129.203 1.22559 -1.17377 0
M  V30 1368 H 127.975 3.04557 -2.45684 0
M  V30 1369 H 127.598 3.86128 -0.948223 0
M  V30 1370 N 128.595 0.856903 1.32268 0
M  V30 1371 C 129.558 0.308171 2.27119 0
M  V30 1372 C 130.558 -0.533421 1.51695 0
M  V30 1373 O 131.748 -0.344607 1.70757 0
M  V30 1374 C 128.88 -0.563757 3.36206 0
M  V30 1375 H 130.073 1.14535 2.77167 0
M  V30 1376 H 127.626 0.631421 1.42978 0
M  V30 1377 H 128.361 -1.42266 2.91429 0
M  V30 1378 H 128.146 0.0386749 3.92081 0
M  V30 1379 H 129.636 -0.940386 4.06874 0
M  V30 1380 N 130.073 -1.45103 0.615059 0
M  V30 1381 C 131.023 -2.27679 -0.120966 0
M  V30 1382 C 132.007 -1.3775 -0.831491 0
M  V30 1383 O 133.199 -1.61683 -0.720249 0
M  V30 1384 C 130.328 -3.24767 -1.1127 0
M  V30 1385 C 129.414 -4.22184 -0.402627 0
M  V30 1386 N 129.805 -5.02692 0.559884 0
M  V30 1387 C 128.103 -4.4125 -0.649202 0
M  V30 1388 C 128.804 -5.73421 0.977942 0
M  V30 1389 N 127.78 -5.42657 0.320104 0
M  V30 1390 H 131.582 -2.87325 0.618181 0
M  V30 1391 H 129.096 -1.56345 0.439304 0
M  V30 1392 H 131.093 -3.82666 -1.65446 0
M  V30 1393 H 129.753 -2.66682 -1.85232 0
M  V30 1394 H 130.764 -5.09354 0.936976 0
M  V30 1395 H 127.441 -3.9428 -1.37293 0
M  V30 1396 H 128.831 -6.48107 1.77222 0
M  V30 1397 N 131.551 -0.354651 -1.53558 0
M  V30 1398 C 132.481 0.489091 -2.2832 0
M  V30 1399 C 133.462 1.09324 -1.30316 0
M  V30 1400 O 134.647 1.11255 -1.59173 0
M  V30 1401 C 131.777 1.63456 -3.0643 0
M  V30 1402 C 130.731 1.1582 -4.12031 0
M  V30 1403 C 130.057 2.39305 -4.7816 0
M  V30 1404 C 131.357 0.250731 -5.21698 0
M  V30 1405 H 133.051 -0.134614 -2.99097 0
M  V30 1406 H 130.597 -0.0661826 -1.43848 0
M  V30 1407 H 132.55 2.23136 -3.57475 0
M  V30 1408 H 131.274 2.28533 -2.33325 0
M  V30 1409 H 129.933 0.584146 -3.61916 0
M  V30 1410 H 129.581 3.02814 -4.01637 0
M  V30 1411 H 129.281 2.08109 -5.49513 0
M  V30 1412 H 130.805 2.99691 -5.31994 0
M  V30 1413 H 132.219 0.754695 -5.68311 0
M  V30 1414 H 130.616 0.0301468 -6.00092 0
M  V30 1415 H 131.686 -0.710125 -4.79672 0
M  V30 1416 N 133.029 1.57378 -0.0835403 0
M  V30 1417 C 134.277 1.93547 0.581718 0
M  V30 1418 C 134.598 0.96524 1.69435 0
M  V30 1419 O 133.868 0.0153369 1.95894 0
M  V30 1420 H 132.448 0.714521 0.217874 0
M  V30 1421 H 135.11 1.94366 -0.144158 0
M  V30 1422 H 134.206 2.95665 0.999423 0
M  V30 1423 N 134.507 -0.190092 1.56449 0
M  V30 1424 C 135.753 -0.911052 1.81184 0
M  V30 1425 C 136.086 -1.82699 0.658396 0
M  V30 1426 O 135.361 -1.91491 -0.340775 0
M  V30 1427 C 135.644 -1.72297 3.16205 0
M  V30 1428 C 135.497 -0.831419 4.42049 0
M  V30 1429 C 136.816 -2.69454 3.47969 0
M  V30 1430 H 133.935 -0.32977 0.659106 0
M  V30 1431 H 136.577 -0.178169 1.89163 0
M  V30 1432 H 134.727 -2.34778 3.09534 0
M  V30 1433 H 136.399 -0.220929 4.60771 0
M  V30 1434 H 134.642 -0.138406 4.33579 0
M  V30 1435 H 135.313 -1.43461 5.33032 0
M  V30 1436 H 137.789 -2.17104 3.54972 0
M  V30 1437 H 136.665 -3.23342 4.43555 0
M  V30 1438 H 136.926 -3.48744 2.71717 0
M  V30 1439 N 135.985 -1.50799 -0.457987 0
M  V30 1440 C 136.915 -1.73553 -1.5621 0
M  V30 1441 C 137.896 -0.584774 -1.59732 0
M  V30 1442 O 139.081 -0.825314 -1.7579 0
M  V30 1443 C 136.211 -1.84169 -2.94447 0
M  V30 1444 C 135.165 -2.99461 -3.0579 0
M  V30 1445 C 134.491 -2.95235 -4.45803 0
M  V30 1446 C 135.791 -4.39766 -2.81786 0
M  V30 1447 H 137.485 -2.66 -1.37421 0
M  V30 1448 H 135.031 -1.28002 -0.659662 0
M  V30 1449 H 136.984 -1.98672 -3.71628 0
M  V30 1450 H 135.708 -0.883545 -3.14422 0
M  V30 1451 H 134.367 -2.8463 -2.31044 0
M  V30 1452 H 134.015 -1.97239 -4.62715 0
M  V30 1453 H 133.715 -3.72642 -4.54326 0
M  V30 1454 H 135.239 -3.11803 -5.24987 0
M  V30 1455 H 136.653 -4.55054 -3.4871 0
M  V30 1456 H 135.05 -5.18722 -3.0174 0
M  V30 1457 H 136.12 -4.51229 -1.7754 0
M  V30 1458 N 137.463 0.71206 -1.40597 0
M  V30 1459 C 138.71 1.47197 -1.39065 0
M  V30 1460 C 139.038 1.94499 0.00583891 0
M  V30 1461 O 138.293 1.68752 0.99102 0
M  V30 1462 C 138.592 2.71039 -2.32965 0
M  V30 1463 C 138.258 2.42484 -3.80148 0
M  V30 1464 C 136.92 2.34406 -4.20247 0
M  V30 1465 C 139.272 2.18598 -4.73143 0
M  V30 1466 C 136.6 2.00516 -5.51371 0
M  V30 1467 C 138.952 1.8622 -6.0457 0
M  V30 1468 C 137.616 1.76626 -6.43708 0
M  V30 1469 H 136.886 0.538634 -0.508876 0
M  V30 1470 H 139.533 0.815325 -1.73276 0
M  V30 1471 H 137.838 3.41558 -1.91951 0
M  V30 1472 H 139.535 3.29138 -2.29061 0
M  V30 1473 H 136.125 2.49659 -3.4838 0
M  V30 1474 H 140.309 2.23793 -4.42979 0
M  V30 1475 H 135.565 1.91628 -5.80593 0
M  V30 1476 H 139.739 1.66752 -6.76141 0
M  V30 1477 H 137.366 1.50133 -7.45228 0
M  V30 1478 N 138.941 1.26152 0.944643 0
M  V30 1479 C 139.871 1.09902 2.06019 0
M  V30 1480 C 140.852 0.00519538 1.70099 0
M  V30 1481 O 142.037 0.176583 1.93396 0
M  V30 1482 C 139.167 0.727562 3.39594 0
M  V30 1483 C 138.121 1.77274 3.89561 0
M  V30 1484 C 137.447 1.25569 5.19747 0
M  V30 1485 C 138.747 3.17357 4.14827 0
M  V30 1486 H 140.441 2.03217 2.19871 0
M  V30 1487 H 137.987 0.978452 1.05652 0
M  V30 1488 H 139.94 0.600777 4.17095 0
M  V30 1489 H 138.664 -0.241287 3.25707 0
M  V30 1490 H 137.323 1.88814 3.14237 0
M  V30 1491 H 136.971 0.276783 5.02238 0
M  V30 1492 H 136.671 1.95433 5.54148 0
M  V30 1493 H 138.195 1.1415 5.99835 0
M  V30 1494 H 139.609 3.08914 4.82954 0
M  V30 1495 H 138.006 3.84781 4.60504 0
M  V30 1496 H 139.076 3.63673 3.20734 0
M  V30 1497 N 140.419 -1.14872 1.07899 0
M  V30 1498 C 141.369 -2.17809 0.674027 0
M  V30 1499 C 142.353 -1.58008 -0.303699 0
M  V30 1500 O 143.545 -1.76616 -0.11654 0
M  V30 1501 C 140.674 -3.43208 0.0793318 0
M  V30 1502 C 139.76 -4.10051 1.08253 0
M  V30 1503 N 140.151 -4.52296 2.2641 0
M  V30 1504 C 138.449 -4.36469 0.917124 0
M  V30 1505 C 139.15 -5.04199 2.901 0
M  V30 1506 N 138.126 -4.98088 2.17736 0
M  V30 1507 H 141.928 -2.48207 1.57386 0
M  V30 1508 H 139.442 -1.315 0.952976 0
M  V30 1509 H 141.439 -4.16272 -0.228719 0
M  V30 1510 H 140.099 -3.14291 -0.815551 0
M  V30 1511 H 141.11 -4.45504 2.64096 0
M  V30 1512 H 137.787 -4.17432 0.0756078 0
M  V30 1513 H 139.177 -5.46802 3.90458 0
M  V30 1514 N 141.898 -0.863906 -1.31812 0
M  V30 1515 C 142.846 -0.30422 -2.30602 0
M  V30 1516 C 143.84 0.577419 -1.59255 0
M  V30 1517 O 145.046 0.464194 -1.73912 0
M  V30 1518 H 141.421 -0.0796877 -0.747766 0
M  V30 1519 H 143.392 -1.15148 -2.75288 0
M  V30 1520 C 142.141 0.484617 -3.44306 0
M  V30 1521 H 141.464 -0.18451 -3.99374 0
M  V30 1522 H 142.904 0.841664 -4.15562 0
M  V30 1523 C 141.363 1.6735 -2.92396 0
M  V30 1524 O 141.893 2.77273 -2.90659 0
M  V30 1525 N 140.099 1.50362 -2.48676 0
M  V30 1526 H 139.646 0.609402 -2.50288 0
M  V30 1527 H 139.604 2.30051 -2.14299 0
M  V30 1528 N 143.376 1.44774 -0.622745 0
M  V30 1529 C 144.286 2.34433 0.0886031 0
M  V30 1530 C 145.302 1.52131 0.844529 0
M  V30 1531 O 146.478 1.84886 0.798691 0
M  V30 1532 C 143.543 3.29986 1.0635 0
M  V30 1533 C 142.604 4.28195 0.307873 0
M  V30 1534 C 141.837 5.19183 1.23633 0
M  V30 1535 O 142.06 5.13918 2.47476 0
M  V30 1536 O 140.994 5.97515 0.725189 0
M  V30 1537 H 144.82 2.96693 -0.648599 0
M  V30 1538 H 142.405 1.44408 -0.382957 0
M  V30 1539 H 144.287 3.88825 1.6246 0
M  V30 1540 H 142.962 2.70269 1.78146 0
M  V30 1541 H 141.869 3.72927 -0.296064 0
M  V30 1542 H 143.202 4.90808 -0.3699 0
M  V30 1543 N 144.854 0.36279 1.53368 0
M  V30 1544 C 146.102 -0.227326 2.00817 0
M  V30 1545 C 146.423 -1.49511 1.25186 0
M  V30 1546 O 145.693 -1.92482 0.364348 0
M  V30 1547 H 144.273 -0.0869923 0.741917 0
M  V30 1548 H 146.935 0.488381 1.88682 0
M  V30 1549 H 146.031 -0.456273 3.08747 0
M  V30 1550 N 146.332 -1.57332 0.0918853 0
M  V30 1551 C 147.562 -1.98286 -0.580205 0
M  V30 1552 C 147.97 -0.969713 -1.6246 0
M  V30 1553 O 147.313 0.0493501 -1.83634 0
M  V30 1554 C 147.375 -3.35603 -1.28882 0
M  V30 1555 C 147.039 -4.55285 -0.395559 0
M  V30 1556 C 148.036 -5.18687 0.355002 0
M  V30 1557 C 145.721 -5.01314 -0.314556 0
M  V30 1558 C 147.715 -6.26484 1.17458 0
M  V30 1559 C 145.402 -6.08979 0.508677 0
M  V30 1560 C 146.4 -6.71429 1.2519 0
M  V30 1561 O 146.088 -7.77018 2.06151 0
M  V30 1562 H 145.82 -0.656678 -0.160466 0
M  V30 1563 H 148.374 -2.04721 0.16688 0
M  V30 1564 H 146.604 -3.25842 -2.08241 0
M  V30 1565 H 148.293 -3.61026 -1.85512 0
M  V30 1566 H 149.059 -4.84058 0.302134 0
M  V30 1567 H 144.938 -4.5247 -0.882697 0
M  V30 1568 H 148.482 -6.75159 1.75518 0
M  V30 1569 H 144.379 -6.4304 0.563037 0
M  V30 1570 H 145.147 -7.93991 1.98799 0
M  V30 1571 N 147.81 0.181792 -1.56548 0
M  V30 1572 C 149.035 0.920019 -1.85877 0
M  V30 1573 C 149.46 1.75494 -0.677021 0
M  V30 1574 O 148.818 1.77399 0.374056 0
M  V30 1575 C 148.866 1.78112 -3.13542 0
M  V30 1576 O 147.97 2.88152 -2.95029 0
M  V30 1577 H 147.311 0.258334 -0.611686 0
M  V30 1578 H 149.841 0.183092 -2.03779 0
M  V30 1579 H 149.851 2.18314 -3.44678 0
M  V30 1580 H 148.526 1.16777 -3.99169 0
M  V30 1581 H 147.103 2.51609 -2.75222 0
M  V30 1582 N 149.288 1.51039 0.449983 0
M  V30 1583 C 150.513 1.6715 1.22783 0
M  V30 1584 C 150.938 0.363081 1.84563 0
M  V30 1585 O 150.296 -0.675433 1.68249 0
M  V30 1586 C 150.344 2.77985 2.29689 0
M  V30 1587 O 149.448 2.40707 3.34864 0
M  V30 1588 H 148.789 0.557746 0.360299 0
M  V30 1589 H 151.319 1.97535 0.533005 0
M  V30 1590 H 151.329 3.01693 2.74673 0
M  V30 1591 H 150.004 3.72935 1.84098 0
M  V30 1592 H 148.581 2.27523 2.95445 0
M  V30 1593 N 150.766 -0.704594 1.40972 0
M  V30 1594 C 151.699 -1.82861 1.36518 0
M  V30 1595 C 152.677 -1.6091 0.23382 0
M  V30 1596 O 153.861 -1.83778 0.419271 0
M  V30 1597 C 150.988 -3.1939 1.12729 0
M  V30 1598 C 150.034 -3.60148 2.28463 0
M  V30 1599 S 150.867 -3.65994 3.90907 0
M  V30 1600 C 152.023 -5.05264 3.69403 0
M  V30 1601 H 152.256 -1.86361 2.3164 0
M  V30 1602 H 149.789 -0.872439 1.27389 0
M  V30 1603 H 151.747 -3.98211 0.996893 0
M  V30 1604 H 150.408 -3.1351 0.192427 0
M  V30 1605 H 149.601 -4.59309 2.07489 0
M  V30 1606 H 149.203 -2.88612 2.37863 0
M  V30 1607 H 151.495 -5.92504 3.28551 0
M  V30 1608 H 152.438 -5.31278 4.68134 0
M  V30 1609 H 152.846 -4.76377 3.02862 0
M  V30 1610 N 152.244 -1.26651 -0.937939 0
M  V30 1611 C 153.484 -1.13611 -1.69917 0
M  V30 1612 C 153.848 0.314687 -1.89404 0
M  V30 1613 O 155.049 0.567285 -2.62746 0
M  V30 1614 C 153.32 -1.88742 -3.03498 0
M  V30 1615 S 154.879 -1.91794 -3.94665 0
M  V30 1616 H 151.697 -0.405767 -0.583844 0
M  V30 1617 H 154.299 -1.60416 -1.11745 0
M  V30 1618 H 153.003 -2.9336 -2.86999 0
M  V30 1619 H 152.534 -1.42391 -3.66727 0
M  V30 1620 H 154.549 -1.00698 -4.85875 0
M  V30 1621 N 153.722 1.14298 -1.08507 0
M  V30 1622 C 154.97 1.84993 -0.813763 0
M  V30 1623 C 155.291 1.83405 0.662393 0
M  V30 1624 O 154.561 1.28319 1.48024 0
M  V30 1625 H 153.141 0.684966 -0.298045 0
M  V30 1626 H 155.803 1.385 -1.37126 0
M  V30 1627 H 154.899 2.89788 -1.15884 0
M  V30 1628 N 155.201 0.870884 1.31352 0
M  V30 1629 C 156.151 0.298889 2.26032 0
M  V30 1630 C 157.135 -0.564595 1.50669 0
M  V30 1631 O 158.327 -0.411323 1.72154 0
M  V30 1632 C 155.456 -0.497842 3.39671 0
M  V30 1633 C 154.542 0.378937 4.22404 0
M  V30 1634 N 154.933 1.47284 4.83881 0
M  V30 1635 C 153.231 0.171535 4.4567 0
M  V30 1636 C 153.932 2.01359 5.45738 0
M  V30 1637 N 152.908 1.31047 5.27568 0
M  V30 1638 H 156.71 1.13494 2.71102 0
M  V30 1639 H 154.224 0.718745 1.45629 0
M  V30 1640 H 156.221 -0.924155 4.06528 0
M  V30 1641 H 154.881 -1.33149 2.96144 0
M  V30 1642 H 155.892 1.85575 4.8351 0
M  V30 1643 H 152.569 -0.626091 4.12779 0
M  V30 1644 H 153.959 2.93143 6.0458 0
M  V30 1645 N 156.679 -1.44442 0.630414 0
M  V30 1646 C 157.642 -2.29107 -0.0652523 0
M  V30 1647 C 158.642 -1.41002 -0.772995 0
M  V30 1648 O 159.832 -1.62881 -0.617692 0
M  V30 1649 C 156.964 -3.22564 -1.10296 0
M  V30 1650 H 158.157 -2.92103 0.679401 0
M  V30 1651 H 155.71 -1.51343 0.390517 0
M  V30 1652 H 156.445 -2.64416 -1.87762 0
M  V30 1653 H 156.23 -3.87491 -0.59941 0
M  V30 1654 H 157.72 -3.86167 -1.5895 0
M  V30 1655 N 158.157 -0.370918 -1.53173 0
M  V30 1656 C 159.403 0.217423 -2.01631 0
M  V30 1657 C 159.736 1.47983 -1.25756 0
M  V30 1658 O 159.011 1.91274 -0.352764 0
M  V30 1659 C 159.294 0.503982 -3.56556 0
M  V30 1660 C 159.147 -0.77243 -4.43118 0
M  V30 1661 C 160.466 1.30234 -4.20389 0
M  V30 1662 H 157.585 0.0775486 -0.732909 0
M  V30 1663 H 160.227 -0.496863 -1.83388 0
M  V30 1664 H 158.377 1.11248 -3.72231 0
M  V30 1665 H 160.049 -1.4098 -4.39229 0
M  V30 1666 H 158.292 -1.39167 -4.10871 0
M  V30 1667 H 158.963 -0.526815 -5.4948 0
M  V30 1668 H 161.439 0.787546 -4.08579 0
M  V30 1669 H 160.315 1.47158 -5.28806 0
M  V30 1670 H 160.576 2.31237 -3.76805 0
M  V30 1671 N 159.635 1.57281 -0.100228 0
M  V30 1672 C 160.565 2.17328 0.853857 0
M  V30 1673 C 161.546 1.10804 1.2906 0
M  V30 1674 O 162.731 1.38963 1.35657 0
M  V30 1675 C 159.861 2.75772 2.11109 0
M  V30 1676 C 158.815 3.87713 1.81279 0
M  V30 1677 C 158.141 4.32882 3.13874 0
M  V30 1678 C 159.441 5.10677 1.09574 0
M  V30 1679 H 161.135 2.97305 0.353545 0
M  V30 1680 H 158.681 1.43009 0.168612 0
M  V30 1681 H 160.634 3.16433 2.78296 0
M  V30 1682 H 159.358 1.93057 2.63432 0
M  V30 1683 H 158.017 3.476 1.16489 0
M  V30 1684 H 157.665 3.47051 3.64095 0
M  V30 1685 H 157.365 5.08358 2.94696 0
M  V30 1686 H 158.889 4.7618 3.82211 0
M  V30 1687 H 160.303 5.48474 1.66879 0
M  V30 1688 H 158.7 5.91615 1.00557 0
M  V30 1689 H 159.77 4.84835 0.0793299 0
M  V30 1690 N 161.113 -0.173488 1.56642 0
M  V30 1691 C 162.076 -1.19859 1.95362 0
M  V30 1692 C 163.076 -1.37296 0.83704 0
M  V30 1693 O 164.266 -1.34739 1.10413 0
M  V30 1694 C 161.398 -2.56405 2.24654 0
M  V30 1695 H 162.591 -0.867062 2.87092 0
M  V30 1696 H 160.144 -0.415853 1.50666 0
M  V30 1697 H 160.879 -2.94576 1.35631 0
M  V30 1698 H 160.664 -2.45115 3.06041 0
M  V30 1699 H 162.154 -3.30287 2.5554 0
M  V30 1700 N 162.591 -1.51276 -0.441967 0
M  V30 1701 C 163.521 -1.752 -1.54361 0
M  V30 1702 C 164.502 -0.601682 -1.59103 0
M  V30 1703 O 165.687 -0.843913 -1.74905 0
M  V30 1704 C 162.817 -1.87282 -2.92477 0
M  V30 1705 C 161.771 -3.02687 -3.02596 0
M  V30 1706 C 161.097 -2.99947 -4.42647 0
M  V30 1707 C 162.397 -4.4273 -2.77106 0
M  V30 1708 H 164.091 -2.67442 -1.34592 0
M  V30 1709 H 161.637 -1.28694 -0.646048 0
M  V30 1710 H 163.59 -2.02602 -3.695 0
M  V30 1711 H 162.314 -0.916844 -3.13467 0
M  V30 1712 H 160.973 -2.87065 -2.28012 0
M  V30 1713 H 160.621 -2.02136 -4.60597 0
M  V30 1714 H 160.321 -3.77439 -4.50348 0
M  V30 1715 H 161.845 -3.17354 -5.2165 0
M  V30 1716 H 163.259 -4.58727 -3.43864 0
M  V30 1717 H 161.656 -5.21893 -2.96222 0
M  V30 1718 H 162.726 -4.53087 -1.72744 0
M  V30 1719 N 164.069 0.697108 -1.41344 0
M  V30 1720 C 165.317 1.45426 -1.40341 0
M  V30 1721 C 165.638 1.94996 -0.0128787 0
M  V30 1722 O 164.908 1.71599 0.945027 0
M  V30 1723 H 163.488 0.539594 -0.516573 0
M  V30 1724 H 166.15 0.825201 -1.76569 0
M  V30 1725 H 165.246 2.31817 -2.08967 0
M  V30 1726 N 165.547 1.27147 0.931209 0
M  V30 1727 C 166.963 1.04475 1.20653 0
M  V30 1728 C 167.163 -0.223885 2.00252 0
M  V30 1729 O 166.219 -0.930332 2.34736 0
M  V30 1730 C 167.532 2.28209 1.95809 0
M  V30 1731 C 169.08 2.33211 2.08762 0
M  V30 1732 C 169.555 3.56665 2.87323 0
M  V30 1733 N 171.046 3.57201 2.94892 0
M  V30 1734 C 171.781 4.49395 3.56134 0
M  V30 1735 N 171.277 5.51889 4.18796 0
M  V30 1736 N 173.07 4.37026 3.53504 0
M  V30 1737 H 165.221 2.08612 0.399333 0
M  V30 1738 H 167.484 0.917312 0.239253 0
M  V30 1739 H 167.19 3.20538 1.44736 0
M  V30 1740 H 167.064 2.33247 2.96438 0
M  V30 1741 H 169.451 1.41391 2.59023 0
M  V30 1742 H 169.532 2.32178 1.07364 0
M  V30 1743 H 169.176 4.4882 2.37746 0
M  V30 1744 H 169.106 3.54948 3.88998 0
M  V30 1745 H 171.597 2.83074 2.50354 0
M  V30 1746 H 171.91 6.18409 4.63454 0
M  V30 1747 H 170.255 5.55735 4.17353 0
M  V30 1748 H 173.446 3.56166 3.03749 0
M  V30 1749 H 173.619 5.09067 4.00942 0
M  V30 1750 N 167.025 -1.13721 1.09112 0
M  V30 1751 C 168.272 -1.84924 0.825192 0
M  V30 1752 C 168.6 -1.83347 -0.649151 0
M  V30 1753 O 167.855 -1.26449 -1.49362 0
M  V30 1754 C 168.154 -3.32861 1.30146 0
M  V30 1755 C 167.82 -3.54621 2.78486 0
M  V30 1756 C 166.482 -3.60268 3.18999 0
M  V30 1757 C 168.834 -3.62855 3.74146 0
M  V30 1758 C 166.162 -3.71679 4.53951 0
M  V30 1759 C 168.514 -3.75793 5.08883 0
M  V30 1760 C 167.178 -3.79692 5.4899 0
M  V30 1761 H 166.448 -0.676684 0.301959 0
M  V30 1762 H 169.095 -1.3428 1.36533 0
M  V30 1763 H 167.4 -3.85835 0.681064 0
M  V30 1764 H 169.097 -3.86395 1.07236 0
M  V30 1765 H 165.687 -3.50879 2.46134 0
M  V30 1766 H 169.871 -3.57775 3.43963 0
M  V30 1767 H 165.127 -3.72963 4.84467 0
M  V30 1768 H 169.301 -3.81107 5.82864 0
M  V30 1769 H 166.928 -3.88287 6.53558 0
M  V30 1770 N 168.503 -0.877838 -1.30888 0
M  V30 1771 C 169.466 -0.344265 -2.266 0
M  V30 1772 C 170.466 0.50922 -1.52524 0
M  V30 1773 O 171.656 0.317398 -1.71284 0
M  V30 1774 C 168.788 0.510198 -3.37061 0
M  V30 1775 H 169.981 -1.1893 -2.7531 0
M  V30 1776 H 167.534 -0.654088 -1.41956 0
M  V30 1777 H 168.269 1.37612 -2.93655 0
M  V30 1778 H 168.054 -0.101047 -3.9197 0
M  V30 1779 H 169.544 0.875537 -4.08319 0
M  V30 1780 N 169.982 1.44106 -0.638065 0
M  V30 1781 C 170.912 2.33448 0.0494287 0
M  V30 1782 C 171.893 1.48606 0.827672 0
M  V30 1783 O 173.078 1.77308 0.792173 0
M  V30 1784 C 170.208 3.31771 1.02691 0
M  V30 1785 C 169.162 4.26485 0.359823 0
M  V30 1786 C 168.488 5.14729 1.44769 0
M  V30 1787 C 169.788 5.17056 -0.738296 0
M  V30 1788 H 171.482 2.91183 -0.696636 0
M  V30 1789 H 169.028 1.40014 -0.336456 0
M  V30 1790 H 170.981 3.93161 1.51666 0
M  V30 1791 H 169.705 2.7226 1.80395 0
M  V30 1792 H 168.364 3.66437 -0.10934 0
M  V30 1793 H 168.012 4.51566 2.21578 0
M  V30 1794 H 167.712 5.78913 1.00668 0
M  V30 1795 H 169.236 5.78991 1.93911 0
M  V30 1796 H 170.65 5.72342 -0.331354 0
M  V30 1797 H 169.047 5.89879 -1.10286 0
M  V30 1798 H 170.117 4.57652 -1.60258 0
M  V30 1799 N 171.46 0.379036 1.52974 0
M  V30 1800 C 172.737 -0.263479 1.93817 0
M  V30 1801 C 173.117 -1.65244 1.31368 0
M  V30 1802 O 172.465 -2.23448 0.477856 0
M  V30 1803 C 172.675 -0.300166 3.47707 0
M  V30 1804 C 174.023 -0.534061 4.21228 0
M  V30 1805 O 175.047 -0.38081 3.54159 0
M  V30 1806 O 173.906 -0.833501 5.40106 0
M  V30 1807 H 171 -0.161149 0.811147 0
M  V30 1808 H 173.546 0.432798 1.64088 0
M  V30 1809 H 172.318 0.673138 3.85467 0
M  V30 1810 H 171.941 -1.04179 3.83709 0
M  V30 1811 N 172.938 -1.57226 0.108567 0
M  V30 1812 C 174.185 -1.94833 -0.551943 0
M  V30 1813 C 174.513 -0.991204 -1.67348 0
M  V30 1814 O 173.768 -0.0131878 -1.95696 0
M  V30 1815 C 174.067 -3.38911 -1.13463 0
M  V30 1816 C 173.733 -4.50696 -0.135509 0
M  V30 1817 C 172.395 -4.80998 0.139252 0
M  V30 1818 C 174.747 -5.18333 0.545957 0
M  V30 1819 C 172.075 -5.76259 1.10194 0
M  V30 1820 C 174.427 -6.14627 1.49721 0
M  V30 1821 C 173.091 -6.43327 1.78006 0
M  V30 1822 H 172.361 -0.712944 -0.20197 0
M  V30 1823 H 175.008 -1.90582 0.18726 0
M  V30 1824 H 173.313 -3.39805 -1.95037 0
M  V30 1825 H 175.01 -3.65317 -1.65362 0
M  V30 1826 H 171.6 -4.27087 -0.359846 0
M  V30 1827 H 175.784 -4.95087 0.346842 0
M  V30 1828 H 171.04 -5.96804 1.32795 0
M  V30 1829 H 175.214 -6.66126 2.03099 0
M  V30 1830 H 172.841 -7.1695 2.52759 0
M  V30 1831 N 174.416 0.165178 -1.56732 0
M  V30 1832 C 175.664 0.879068 -1.8198 0
M  V30 1833 C 175.985 1.82514 -0.686561 0
M  V30 1834 O 175.255 1.93694 0.293146 0
M  V30 1835 H 173.835 0.327608 -0.671329 0
M  V30 1836 H 176.497 0.163526 -1.94213 0
M  V30 1837 H 175.593 1.45228 -2.76252 0
M  V30 1838 N 175.894 1.51508 0.433938 0
M  V30 1839 C 176.824 1.76016 1.53429 0
M  V30 1840 C 177.805 0.610112 1.58782 0
M  V30 1841 O 178.99 0.853177 1.74455 0
M  V30 1842 C 176.12 1.88831 2.9148 0
M  V30 1843 C 175.074 3.04288 3.00987 0
M  V30 1844 C 174.4 3.0229 4.4105 0
M  V30 1845 C 175.7 4.44193 2.74754 0
M  V30 1846 H 177.394 2.68152 1.33171 0
M  V30 1847 H 174.94 1.29035 0.639214 0
M  V30 1848 H 176.893 2.04559 3.6842 0
M  V30 1849 H 175.617 0.933455 3.12976 0
M  V30 1850 H 174.276 2.8827 2.26486 0
M  V30 1851 H 173.924 2.04576 4.59519 0
M  V30 1852 H 173.624 3.79822 4.4834 0
M  V30 1853 H 175.148 3.20116 5.1996 0
M  V30 1854 H 176.562 4.60544 3.41426 0
M  V30 1855 H 174.959 5.23457 2.9345 0
M  V30 1856 H 176.029 4.53996 1.70339 0
M  V30 1857 N 177.372 -0.689602 1.41712 0
M  V30 1858 C 178.618 -1.45181 1.41599 0
M  V30 1859 C 178.951 -1.94181 0.0270081 0
M  V30 1860 O 178.226 -1.6993 -0.946265 0
M  V30 1861 C 178.509 -2.65945 2.42787 0
M  V30 1862 C 178.362 -2.22672 3.90816 0
M  V30 1863 C 179.681 -3.68149 2.41151 0
M  V30 1864 H 176.8 -0.526576 0.515642 0
M  V30 1865 H 179.442 -0.784947 1.73028 0
M  V30 1866 H 177.592 -3.2284 2.16116 0
M  V30 1867 H 179.264 -1.71058 4.28412 0
M  V30 1868 H 177.507 -1.54394 4.05395 0
M  V30 1869 H 178.178 -3.0935 4.57172 0
M  V30 1870 H 180.654 -3.2094 2.64834 0
M  V30 1871 H 179.53 -4.50248 3.13955 0
M  V30 1872 H 179.791 -4.18259 1.43221 0
M  V30 1873 N 178.85 -1.27639 -0.924453 0
M  V30 1874 C 180.261 -1.12834 -1.48746 0
M  V30 1875 C 180.612 0.285505 -1.94112 0
M  V30 1876 O 179.737 1.17874 -1.81479 0
M  V30 1877 C 180.332 -2.04217 -2.70334 0
M  V30 1878 C 178.891 -1.93509 -3.22848 0
M  V30 1879 C 178.038 -1.96583 -1.95577 0
M  V30 1880 H 180.989 -1.40484 -0.738233 0
M  V30 1881 H 181.01 -1.59989 -3.4523 0
M  V30 1882 H 180.522 -3.07111 -2.37285 0
M  V30 1883 H 178.623 -0.936131 -3.60649 0
M  V30 1884 H 178.736 -2.79917 -3.88823 0
M  V30 1885 H 177.1 -1.4085 -2.12211 0
M  V30 1886 H 177.883 -3.01137 -1.64837 0
M  V30 1887 N 180.328 1.1314 -1.09713 0
M  V30 1888 C 181.291 2.16831 -0.742751 0
M  V30 1889 C 182.291 1.59159 0.229129 0
M  V30 1890 O 183.481 1.74199 0.00693237 0
M  V30 1891 C 180.613 3.40756 -0.0989168 0
M  V30 1892 H 181.806 2.49695 -1.66109 0
M  V30 1893 H 179.359 1.2802 -0.896699 0
M  V30 1894 H 180.094 3.13485 0.830514 0
M  V30 1895 H 179.879 3.83888 -0.798265 0
M  V30 1896 H 181.369 4.17386 0.133524 0
M  V30 1897 N 181.806 0.884767 1.30421 0
M  V30 1898 C 183.217 0.553656 1.78302 0
M  V30 1899 C 183.568 -0.930153 1.7275 0
M  V30 1900 O 182.693 -1.72681 1.30423 0
M  V30 1901 C 183.288 0.998234 3.2376 0
M  V30 1902 C 181.847 0.71854 3.69478 0
M  V30 1903 C 180.994 1.18132 2.50879 0
M  V30 1904 H 183.945 1.06901 1.17294 0
M  V30 1905 H 183.966 0.327118 3.79091 0
M  V30 1906 H 183.478 2.0782 3.27769 0
M  V30 1907 H 181.579 -0.349444 3.70958 0
M  V30 1908 H 181.692 1.30595 4.60958 0
M  V30 1909 H 180.056 0.600669 2.47516 0
M  V30 1910 H 180.839 2.26902 2.57624 0
M  V30 1911 N 183.284 -1.43765 0.645699 0
M  V30 1912 C 184.695 -1.85193 0.236719 0
M  V30 1913 C 185.046 -1.54045 -1.21509 0
M  V30 1914 O 184.171 -0.985694 -1.92647 0
M  V30 1915 C 184.766 -3.36151 0.422845 0
M  V30 1916 C 183.325 -3.76338 0.0682492 0
M  V30 1917 C 182.472 -2.67538 0.729306 0
M  V30 1918 H 185.423 -1.34025 0.849883 0
M  V30 1919 H 185.444 -3.79032 -0.333904 0
M  V30 1920 H 184.956 -3.5879 1.47958 0
M  V30 1921 H 183.057 -3.59312 -0.986179 0
M  V30 1922 H 183.17 -4.76603 0.488469 0
M  V30 1923 H 181.534 -2.54176 0.163235 0
M  V30 1924 H 182.317 -2.93006 1.78892 0
M  V30 1925 N 184.763 -0.387143 -1.52771 0
M  V30 1926 C 185.726 0.436939 -2.24997 0
M  V30 1927 C 186.726 0.991991 -1.26555 0
M  V30 1928 O 187.916 0.874335 -1.50669 0
M  V30 1929 C 185.048 1.61281 -3.00335 0
M  V30 1930 H 186.241 -0.195365 -2.99263 0
M  V30 1931 H 183.794 -0.139218 -1.55679 0
M  V30 1932 H 184.529 2.2826 -2.30364 0
M  V30 1933 H 184.314 1.22154 -3.72587 0
M  V30 1934 H 185.804 2.19629 -3.5518 0
M  V30 1935 N 186.241 1.57166 -0.116904 0
M  V30 1936 C 187.489 1.94737 0.540533 0
M  V30 1937 C 187.81 1.00096 1.67349 0
M  V30 1938 O 187.08 0.0568854 1.95817 0
M  V30 1939 H 185.66 0.718981 0.202669 0
M  V30 1940 H 188.322 1.94017 -0.185353 0
M  V30 1941 H 187.418 2.97719 0.936483 0
M  V30 1942 N 187.719 -0.156864 1.56817 0
M  V30 1943 C 188.947 -0.886316 1.86955 0
M  V30 1944 C 189.362 -1.75185 0.703975 0
M  V30 1945 O 188.719 -1.79555 -0.326552 0
M  V30 1946 C 188.77 -1.75117 3.16253 0
M  V30 1947 O 188.491 -0.920537 4.2832 0
M  V30 1948 C 189.992 -2.58905 3.59837 0
M  V30 1949 H 187.212 -0.25678 0.619923 0
M  V30 1950 H 189.756 -0.152615 2.0393 0
M  V30 1951 H 187.911 -2.43805 3.01062 0
M  V30 1952 H 188.325 -1.51337 5.02192 0
M  V30 1953 H 189.799 -3.1518 4.53172 0
M  V30 1954 H 190.276 -3.34472 2.84649 0
M  V30 1955 H 190.882 -1.95526 3.7769 0
M  V30 1956 N 189.197 -1.51736 -0.425897 0
M  V30 1957 C 190.613 -1.40166 -0.76326 0
M  V30 1958 C 190.813 -0.492962 -1.95377 0
M  V30 1959 O 189.869 0.0475815 -2.52455 0
M  V30 1960 C 191.182 -2.82403 -1.03291 0
M  V30 1961 C 192.73 -2.91632 -1.13665 0
M  V30 1962 C 193.205 -4.34801 -1.43916 0
M  V30 1963 N 194.696 -4.3796 -1.50816 0
M  V30 1964 C 195.431 -5.4578 -1.75817 0
M  V30 1965 N 194.927 -6.63744 -1.98534 0
M  V30 1966 N 196.72 -5.33274 -1.77694 0
M  V30 1967 H 188.871 -2.09361 0.358 0
M  V30 1968 H 191.134 -0.942941 0.0978094 0
M  V30 1969 H 190.84 -3.50943 -0.230696 0
M  V30 1970 H 190.714 -3.22428 -1.95754 0
M  V30 1971 H 193.101 -2.23284 -1.92947 0
M  V30 1972 H 193.182 -2.55088 -0.190756 0
M  V30 1973 H 192.826 -5.03703 -0.65157 0
M  V30 1974 H 192.756 -4.68868 -2.39729 0
M  V30 1975 H 195.247 -3.52919 -1.35118 0
M  V30 1976 H 195.56 -7.41704 -2.17013 0
M  V30 1977 H 193.905 -6.66839 -1.95832 0
M  V30 1978 H 197.096 -4.40098 -1.59473 0
M  V30 1979 H 197.269 -6.1738 -1.9684 0
M  V30 1980 N 190.675 0.682077 -1.42076 0
M  V30 1981 C 191.585 1.82535 -1.47371 0
M  V30 1982 C 192.601 1.7017 -0.363079 0
M  V30 1983 O 193.777 1.91848 -0.612875 0
M  V30 1984 C 190.842 3.18624 -1.36674 0
M  V30 1985 C 189.903 3.42999 -2.58167 0
M  V30 1986 C 189.136 4.72595 -2.4797 0
M  V30 1987 O 189.359 5.50006 -1.5116 0
M  V30 1988 O 188.293 4.98054 -3.37974 0
M  V30 1989 H 192.119 1.81023 -2.43853 0
M  V30 1990 H 189.704 0.836887 -1.2376 0
M  V30 1991 H 191.586 3.99847 -1.33043 0
M  V30 1992 H 190.261 3.20789 -0.433138 0
M  V30 1993 H 189.168 2.61653 -2.67373 0
M  V30 1994 H 190.501 3.45659 -3.50401 0
M  V30 1995 N 192.153 1.28127 0.917671 0
M  V30 1996 C 193.116 1.11744 2.00115 0
M  V30 1997 C 194.116 0.0583052 1.60694 0
M  V30 1998 O 195.306 0.303755 1.71531 0
M  V30 1999 C 192.438 0.704862 3.33533 0
M  V30 2000 H 193.631 2.07966 2.16079 0
M  V30 2001 H 191.184 1.11058 1.09981 0
M  V30 2002 H 191.919 -0.258299 3.2327 0
M  V30 2003 H 191.704 1.4699 3.63505 0
M  V30 2004 H 193.194 0.612768 4.1308 0
M  V30 2005 N 193.631 -1.12557 1.10312 0
M  V30 2006 C 195.047 -1.36036 0.834649 0
M  V30 2007 C 195.247 -1.93946 -0.546539 0
M  V30 2008 O 194.303 -2.16484 -1.29966 0
M  V30 2009 C 195.616 -2.30312 1.9333 0
M  V30 2010 C 197.164 -2.43906 1.9616 0
M  V30 2011 C 197.639 -3.41496 3.05195 0
M  V30 2012 N 199.13 -3.49053 3.04494 0
M  V30 2013 C 199.865 -4.24471 3.85502 0
M  V30 2014 N 199.361 -5.02966 4.76442 0
M  V30 2015 N 201.154 -4.19864 3.73725 0
M  V30 2016 H 193.305 -0.733246 1.99342 0
M  V30 2017 H 195.568 -0.385234 0.866198 0
M  V30 2018 H 195.274 -1.94933 2.92735 0
M  V30 2019 H 195.148 -3.30421 1.81939 0
M  V30 2020 H 197.535 -2.78567 0.973886 0
M  V30 2021 H 197.616 -1.4369 2.11629 0
M  V30 2022 H 197.26 -3.07565 4.04186 0
M  V30 2023 H 197.19 -4.41539 2.86968 0
M  V30 2024 H 199.681 -2.93053 2.38596 0
M  V30 2025 H 199.994 -5.57846 5.34815 0
M  V30 2026 H 198.339 -5.02167 4.80472 0
M  V30 2027 H 201.53 -3.57623 3.02032 0
M  V30 2028 H 201.703 -4.78386 4.37093 0
M  V30 2029 N 195.109 -0.891671 -1.2995 0
M  V30 2030 C 196.355 -0.514261 -1.96171 0
M  V30 2031 C 196.688 0.935506 -1.70182 0
M  V30 2032 O 195.963 1.66204 -1.01028 0
M  V30 2033 C 196.246 -0.797719 -3.51153 0
M  V30 2034 C 196.099 -2.2986 -3.86632 0
M  V30 2035 C 197.418 -0.278749 -4.39216 0
M  V30 2036 H 194.537 -0.188314 -0.712535 0
M  V30 2037 H 197.179 -1.11689 -1.53706 0
M  V30 2038 H 195.329 -0.284826 -3.87455 0
M  V30 2039 H 197.001 -2.88042 -3.60319 0
M  V30 2040 H 195.244 -2.76257 -3.34462 0
M  V30 2041 H 195.915 -2.44753 -4.94773 0
M  V30 2042 H 198.391 -0.717825 -4.09862 0
M  V30 2043 H 197.267 -0.506353 -5.46559 0
M  V30 2044 H 197.528 0.820266 -4.34424 0
M  V30 2045 N 196.587 1.43421 -0.653314 0
M  V30 2046 C 197.535 2.32546 0.0501531 0
M  V30 2047 C 198.529 1.48617 0.812985 0
M  V30 2048 O 199.735 1.64825 0.723375 0
M  V30 2049 H 196.11 0.751185 0.0350032 0
M  V30 2050 H 198.081 2.89602 -0.719261 0
M  V30 2051 C 196.83 3.32925 1.00279 0
M  V30 2052 H 196.153 3.97532 0.425236 0
M  V30 2053 H 197.593 3.9792 1.46409 0
M  V30 2054 C 196.052 2.63532 2.09886 0
M  V30 2055 O 196.582 2.45092 3.18265 0
M  V30 2056 N 194.788 2.22905 1.86445 0
M  V30 2057 H 194.335 2.38103 0.98309 0
M  V30 2058 H 194.293 1.76805 2.59976 0
M  V30 2059 N 198.065 0.39524 1.52563 0
M  V30 2060 C 199.314 -0.186321 2.00838 0
M  V30 2061 C 199.627 -1.47402 1.28577 0
M  V30 2062 O 200.833 -2.13599 1.67593 0
M  V30 2063 C 199.289 -0.382595 3.57861 0
M  V30 2064 C 198.897 0.892202 4.39026 0
M  V30 2065 C 200.641 -0.9202 4.14406 0
M  V30 2066 C 198.548 0.66388 5.87662 0
M  V30 2067 H 197.478 -0.0734041 0.750418 0
M  V30 2068 H 200.129 0.518552 1.76021 0
M  V30 2069 H 198.511 -1.14946 3.7895 0
M  V30 2070 H 199.685 1.66414 4.29701 0
M  V30 2071 H 198 1.35519 3.9373 0
M  V30 2072 H 200.597 -1.10683 5.23119 0
M  V30 2073 H 200.94 -1.89096 3.70875 0
M  V30 2074 H 201.473 -0.212751 3.97231 0
M  V30 2075 H 198.212 1.6058 6.35527 0
M  V30 2076 H 197.732 -0.0690193 5.9976 0
M  V30 2077 H 199.411 0.300699 6.46301 0
M  V30 2078 N 199.544 -1.57102 0.125237 0
M  V30 2079 C 200.494 -2.12202 -0.833936 0
M  V30 2080 C 201.478 -1.04433 -1.22403 0
M  V30 2081 O 202.67 -1.30655 -1.19408 0
M  V30 2082 C 199.799 -2.72994 -2.08157 0
M  V30 2083 C 198.885 -3.87852 -1.71556 0
M  V30 2084 N 199.276 -4.9464 -1.05662 0
M  V30 2085 C 197.574 -3.98153 -2.00973 0
M  V30 2086 C 198.275 -5.74953 -0.883376 0
M  V30 2087 N 197.251 -5.24985 -1.41036 0
M  V30 2088 H 201.053 -2.92141 -0.321035 0
M  V30 2089 H 198.567 -1.62217 -0.0770315 0
M  V30 2090 H 200.564 -3.10816 -2.77847 0
M  V30 2091 H 199.224 -1.9452 -2.59985 0
M  V30 2092 H 200.235 -5.12872 -0.719878 0
M  V30 2093 H 196.912 -3.30728 -2.54804 0
M  V30 2094 H 198.302 -6.70904 -0.365675 0
M  V30 2095 N 201.022 0.148545 -1.56898 0
M  V30 2096 C 202.262 0.86765 -1.85071 0
M  V30 2097 C 202.626 1.78417 -0.709317 0
M  V30 2098 O 203.827 2.54261 -0.872049 0
M  V30 2099 C 202.098 1.62306 -3.1842 0
M  V30 2100 S 203.657 2.3878 -3.68143 0
M  V30 2101 H 200.475 0.290174 -0.649092 0
M  V30 2102 H 203.077 0.127755 -1.95082 0
M  V30 2103 H 201.781 0.941192 -3.99462 0
M  V30 2104 H 201.312 2.4039 -3.1141 0
M  V30 2105 H 203.327 3.63942 -3.37285 0
M  V30 2106 N 202.5 1.5196 0.417844 0
M  V30 2107 C 203.911 1.57851 0.997 0
M  V30 2108 C 204.262 0.413714 1.91789 0
M  V30 2109 O 203.387 -0.467057 2.113 0
M  V30 2110 C 203.982 2.86085 1.81496 0
M  V30 2111 C 202.541 2.94483 2.34428 0
M  V30 2112 C 201.688 2.52707 1.14169 0
M  V30 2113 H 204.639 1.57455 0.198392 0
M  V30 2114 H 204.66 2.70947 2.67148 0
M  V30 2115 H 204.172 3.70842 1.14446 0
M  V30 2116 H 202.273 2.142 3.04875 0
M  V30 2117 H 202.386 3.98546 2.65891 0
M  V30 2118 H 200.75 2.06353 1.49301 0
M  V30 2119 H 201.533 3.39828 0.486999 0
M  V30 2120 N 203.978 -0.674533 1.42435 0
M  V30 2121 C 205.218 -1.4466 1.44405 0
M  V30 2122 C 205.582 -1.91911 0.0585784 0
M  V30 2123 O 206.783 -2.68759 -0.0469991 0
M  V30 2124 C 205.054 -2.61136 2.44013 0
M  V30 2125 S 206.613 -3.49981 2.64687 0
M  V30 2126 H 203.431 -0.494074 0.511284 0
M  V30 2127 H 206.033 -0.785162 1.7904 0
M  V30 2128 H 204.737 -2.24662 3.43446 0
M  V30 2129 H 204.268 -3.32153 2.10803 0
M  V30 2130 H 206.283 -4.57124 1.93007 0
M  V30 2131 N 205.456 -1.28612 -0.910864 0
M  V30 2132 C 206.704 -1.15705 -1.65701 0
M  V30 2133 C 207.025 0.29416 -1.92769 0
M  V30 2134 O 206.295 1.20331 -1.54588 0
M  V30 2135 H 204.875 -0.425216 -0.614167 0
M  V30 2136 H 207.537 -1.61381 -1.0928 0
M  V30 2137 H 206.633 -1.6988 -2.61815 0
M  V30 2138 N 206.934 1.1197 -1.10907 0
M  V30 2139 C 207.864 2.19928 -0.784473 0
M  V30 2140 C 208.845 1.6833 0.244726 0
M  V30 2141 O 210.03 1.93892 0.109418 0
M  V30 2142 C 207.16 3.46597 -0.220827 0
M  V30 2143 C 206.114 4.11376 -1.18127 0
M  V30 2144 C 205.44 5.32554 -0.478594 0
M  V30 2145 C 206.74 4.56945 -2.52979 0
M  V30 2146 H 208.434 2.47337 -1.68715 0
M  V30 2147 H 205.98 1.18879 -0.812642 0
M  V30 2148 H 207.933 4.21396 0.0184278 0
M  V30 2149 H 206.657 3.1863 0.717113 0
M  V30 2150 H 205.316 3.38564 -1.40606 0
M  V30 2151 H 204.964 5.00856 0.463976 0
M  V30 2152 H 204.664 5.76844 -1.11912 0
M  V30 2153 H 206.188 6.10096 -0.248 0
M  V30 2154 H 207.602 5.23093 -2.3462 0
M  V30 2155 H 205.999 5.1203 -3.12962 0
M  V30 2156 H 207.069 3.70676 -3.12614 0
M  V30 2157 N 208.412 0.89855 1.29475 0
M  V30 2158 C 209.658 0.524658 1.95896 0
M  V30 2159 C 209.991 -0.926468 1.70676 0
M  V30 2160 O 209.266 -1.65665 1.01908 0
M  V30 2161 C 209.549 0.81633 3.50725 0
M  V30 2162 C 209.402 2.31907 3.85408 0
M  V30 2163 C 210.721 0.302038 4.39062 0
M  V30 2164 H 207.84 0.19209 0.711527 0
M  V30 2165 H 210.482 1.12502 1.53112 0
M  V30 2166 H 208.632 0.305369 3.87298 0
M  V30 2167 H 210.304 2.89949 3.58786 0
M  V30 2168 H 208.547 2.78027 3.32992 0
M  V30 2169 H 209.218 2.47373 4.93468 0
M  V30 2170 H 211.694 0.739551 4.09475 0
M  V30 2171 H 210.57 0.535331 5.46283 0
M  V30 2172 H 210.831 -0.797216 4.34853 0
M  V30 2173 N 209.89 -1.43072 0.660911 0
M  V30 2174 C 211.118 -2.06067 0.185422 0
M  V30 2175 C 211.533 -1.49582 -1.15198 0
M  V30 2176 O 210.89 -0.630134 -1.71276 0
M  V30 2177 C 210.941 -3.61371 0.0966523 0
M  V30 2178 O 210.662 -4.15758 1.38119 0
M  V30 2179 C 212.163 -4.41455 -0.403996 0
M  V30 2180 H 209.383 -0.664459 0.0934604 0
M  V30 2181 H 211.927 -1.83447 0.90373 0
M  V30 2182 H 210.082 -3.8315 -0.572259 0
M  V30 2183 H 210.496 -5.09499 1.24542 0
M  V30 2184 H 211.97 -5.50437 -0.415045 0
M  V30 2185 H 212.447 -4.15036 -1.43674 0
M  V30 2186 H 213.053 -4.24663 0.232691 0
M  V30 2187 N 211.368 -0.403325 -1.52352 0
M  V30 2188 C 212.331 0.413051 -2.25447 0
M  V30 2189 C 213.331 0.978513 -1.276 0
M  V30 2190 O 214.521 0.858305 -1.51587 0
M  V30 2191 C 211.653 1.58087 -3.02029 0
M  V30 2192 H 212.846 -0.227094 -2.99039 0
M  V30 2193 H 210.399 -0.155722 -1.55522 0
M  V30 2194 H 211.134 2.25804 -2.32772 0
M  V30 2195 H 210.919 1.18195 -3.73861 0
M  V30 2196 H 212.409 2.1585 -3.57489 0
M  V30 2197 N 212.846 1.57033 -0.133567 0
M  V30 2198 C 214.093 1.95686 0.520877 0
M  V30 2199 C 214.421 1.0177 1.6575 0
M  V30 2200 O 213.676 0.0443195 1.9565 0
M  V30 2201 C 213.975 3.40674 1.08057 0
M  V30 2202 C 213.641 4.50855 0.0637899 0
M  V30 2203 C 212.303 4.80716 -0.215757 0
M  V30 2204 C 214.655 5.17398 -0.62835 0
M  V30 2205 C 211.983 5.74433 -1.19348 0
M  V30 2206 C 214.335 6.12167 -1.5948 0
M  V30 2207 C 212.999 6.40414 -1.88218 0
M  V30 2208 H 212.269 0.716067 0.190602 0
M  V30 2209 H 214.916 1.9026 -0.217556 0
M  V30 2210 H 213.221 3.42865 1.89606 0
M  V30 2211 H 214.918 3.67902 1.59529 0
M  V30 2212 H 211.508 4.27605 0.291855 0
M  V30 2213 H 215.692 4.94472 -0.425562 0
M  V30 2214 H 210.948 5.94616 -1.42272 0
M  V30 2215 H 215.122 6.6281 -2.13671 0
M  V30 2216 H 212.749 7.12838 -2.64133 0
M  V30 2217 N 214.325 -0.140222 1.56975 0
M  V30 2218 C 215.571 -0.852949 1.83991 0
M  V30 2219 C 215.904 -1.80512 0.716187 0
M  V30 2220 O 215.179 -1.92479 -0.279681 0
M  V30 2221 C 215.462 -1.6215 3.21527 0
M  V30 2222 C 215.315 -0.690363 4.4447 0
M  V30 2223 C 216.634 -2.58247 3.56366 0
M  V30 2224 H 213.753 -0.308634 0.669264 0
M  V30 2225 H 216.395 -0.117898 1.89634 0
M  V30 2226 H 214.545 -2.24812 3.16847 0
M  V30 2227 H 216.217 -0.0742264 4.6124 0
M  V30 2228 H 214.46 -0.000396433 4.338 0
M  V30 2229 H 215.131 -1.2643 5.37326 0
M  V30 2230 H 217.607 -2.05701 3.61699 0
M  V30 2231 H 216.483 -3.09067 4.53617 0
M  V30 2232 H 216.744 -3.39923 2.82674 0
M  V30 2233 N 215.803 -1.52179 -0.40978 0
M  V30 2234 C 216.766 -1.74853 -1.48186 0
M  V30 2235 C 217.766 -0.618417 -1.48433 0
M  V30 2236 O 218.956 -0.886286 -1.49969 0
M  V30 2237 C 216.088 -1.8303 -2.87598 0
M  V30 2238 H 217.281 -2.70559 -1.29374 0
M  V30 2239 H 214.834 -1.42586 -0.640233 0
M  V30 2240 H 215.569 -0.89236 -3.11781 0
M  V30 2241 H 215.354 -2.65187 -2.88822 0
M  V30 2242 H 216.844 -2.02316 -3.65319 0
M  V30 2243 N 217.281 0.66697 -1.42791 0
M  V30 2244 C 218.521 1.43892 -1.4517 0
M  V30 2245 C 218.885 1.91877 -0.0687551 0
M  V30 2246 O 220.086 2.6878 0.0327455 0
M  V30 2247 C 218.357 2.59839 -2.45395 0
M  V30 2248 S 219.916 3.48572 -2.66539 0
M  V30 2249 H 216.734 0.491356 -0.513897 0
M  V30 2250 H 219.336 0.775656 -1.79454 0
M  V30 2251 H 218.04 2.22838 -3.44632 0
M  V30 2252 H 217.571 3.3103 -2.12562 0
M  V30 2253 H 219.586 4.56094 -1.95429 0
M  V30 2254 N 218.759 1.29093 0.90403 0
M  V30 2255 C 219.669 1.15727 2.0407 0
M  V30 2256 C 220.685 0.0815308 1.73809 0
M  V30 2257 O 221.861 0.292749 1.99261 0
M  V30 2258 C 218.926 0.830424 3.36608 0
M  V30 2259 C 217.987 1.98955 3.80415 0
M  V30 2260 C 217.22 1.6782 5.06628 0
M  V30 2261 O 217.443 0.597105 5.67266 0
M  V30 2262 O 216.377 2.52486 5.46383 0
M  V30 2263 H 220.203 2.11171 2.18267 0
M  V30 2264 H 217.788 1.08504 1.027 0
M  V30 2265 H 219.67 0.662521 4.16159 0
M  V30 2266 H 218.345 -0.0942678 3.23563 0
M  V30 2267 H 217.252 2.21267 3.01648 0
M  V30 2268 H 218.585 2.89529 3.98037 0
M  V30 2269 N 220.237 -1.11381 1.11499 0
M  V30 2270 C 221.514 -1.7955 0.775965 0
M  V30 2271 C 221.894 -1.97859 -0.73588 0
M  V30 2272 O 221.242 -1.56376 -1.66609 0
M  V30 2273 C 221.452 -3.13196 1.53977 0
M  V30 2274 C 222.8 -3.88227 1.71944 0
M  V30 2275 O 223.824 -3.22887 1.50407 0
M  V30 2276 O 222.683 -5.05477 2.07738 0
M  V30 2277 H 219.777 -0.777728 0.28119 0
M  V30 2278 H 222.323 -1.18118 1.21845 0
M  V30 2279 H 221.095 -2.95229 2.56818 0
M  V30 2280 H 220.718 -3.82342 1.09088 0
M  V30 2281 N 221.715 -0.905404 -1.28997 0
M  V30 2282 C 222.963 -0.533192 -1.9494 0
M  V30 2283 C 223.284 0.924618 -1.71685 0
M  V30 2284 O 222.554 1.65268 -1.05183 0
M  V30 2285 H 221.134 -0.194194 -0.721317 0
M  V30 2286 H 223.796 -1.15294 -1.57141 0
M  V30 2287 H 222.892 -0.72059 -3.03667 0
M  V30 2288 N 223.193 1.4272 -0.668489 0
M  V30 2289 C 224.609 1.55992 -0.33745 0
M  V30 2290 C 224.809 1.64933 1.15756 0
M  V30 2291 O 223.865 1.61278 1.94282 0
M  V30 2292 C 225.178 2.81314 -1.06222 0
M  V30 2293 C 226.726 2.95078 -1.04394 0
M  V30 2294 C 227.201 4.23252 -1.74991 0
M  V30 2295 N 228.692 4.3015 -1.71829 0
M  V30 2296 C 229.427 5.28127 -2.23315 0
M  V30 2297 N 228.923 6.32293 -2.83156 0
M  V30 2298 N 230.716 5.19882 -2.13726 0
M  V30 2299 H 222.867 1.3516 -1.63846 0
M  V30 2300 H 225.13 0.650174 -0.689912 0
M  V30 2301 H 224.836 2.80823 -2.11734 0
M  V30 2302 H 224.71 3.72012 -0.62344 0
M  V30 2303 H 227.097 2.951 0.0028244 0
M  V30 2304 H 227.178 2.05627 -1.52155 0
M  V30 2305 H 226.822 4.2399 -2.79633 0
M  V30 2306 H 226.752 5.11626 -1.24685 0
M  V30 2307 H 229.243 3.55499 -1.28175 0
M  V30 2308 H 229.556 7.03398 -3.20079 0
M  V30 2309 H 227.901 6.32873 -2.87223 0
M  V30 2310 H 231.092 4.37423 -1.66669 0
M  V30 2311 H 231.265 5.96077 -2.54158 0
M  V30 2312 N 224.671 0.411399 1.52136 0
M  V30 2313 C 225.896 -0.165538 2.06738 0
M  V30 2314 C 226.321 -1.379 1.27926 0
M  V30 2315 O 225.679 -1.78628 0.310114 0
M  V30 2316 C 225.727 -0.492124 3.57226 0
M  V30 2317 O 224.831 -1.58276 3.80818 0
M  V30 2318 H 224.172 -0.0132132 0.663869 0
M  V30 2319 H 226.702 0.585253 1.96051 0
M  V30 2320 H 226.712 -0.750104 4.01045 0
M  V30 2321 H 225.387 0.394922 4.14021 0
M  V30 2322 H 223.964 -1.31677 3.48877 0
M  V30 2323 N 226.149 -1.5696 0.141893 0
M  V30 2324 C 227.099 -2.13074 -0.811383 0
M  V30 2325 C 228.083 -1.05726 -1.21288 0
M  V30 2326 O 229.275 -1.31914 -1.18015 0
M  V30 2327 C 226.404 -2.75186 -2.0525 0
M  V30 2328 C 225.49 -3.8965 -1.67432 0
M  V30 2329 N 225.881 -4.95733 -1.0041 0
M  V30 2330 C 224.179 -4.00262 -1.96739 0
M  V30 2331 C 224.88 -5.75858 -0.822345 0
M  V30 2332 N 223.856 -5.26452 -1.3546 0
M  V30 2333 H 227.658 -2.92465 -0.290031 0
M  V30 2334 H 225.172 -1.6229 -0.0598218 0
M  V30 2335 H 227.169 -3.13745 -2.74535 0
M  V30 2336 H 225.829 -1.97266 -2.57907 0
M  V30 2337 H 226.84 -5.13607 -0.665441 0
M  V30 2338 H 223.517 -3.33412 -2.51282 0
M  V30 2339 H 224.907 -6.71254 -0.294496 0
M  V30 2340 N 227.627 0.131896 -1.57047 0
M  V30 2341 C 228.875 0.840269 -1.83804 0
M  V30 2342 C 229.196 1.81017 -0.72512 0
M  V30 2343 O 228.466 1.94272 0.251995 0
M  V30 2344 H 227.046 0.313294 -0.678127 0
M  V30 2345 H 229.708 0.122294 -1.94516 0
M  V30 2346 H 228.804 1.39335 -2.79271 0
M  V30 2347 N 229.106 1.52395 0.401703 0
M  V30 2348 C 230.517 1.58899 0.980202 0
M  V30 2349 C 230.868 0.434032 1.91339 0
M  V30 2350 O 229.993 -0.444619 2.11783 0
M  V30 2351 C 230.588 2.87994 1.78451 0
M  V30 2352 C 229.147 2.96953 2.31292 0
M  V30 2353 C 228.294 2.53903 1.11483 0
M  V30 2354 H 231.245 1.57657 0.18168 0
M  V30 2355 H 231.266 2.73765 2.64259 0
M  V30 2356 H 230.778 3.72035 1.10506 0
M  V30 2357 H 228.879 2.17422 3.02586 0
M  V30 2358 H 228.992 4.01344 2.61649 0
M  V30 2359 H 227.356 2.07925 1.47104 0
M  V30 2360 H 228.139 3.40326 0.450928 0
M  V30 2361 N 230.584 -0.659388 1.43143 0
M  V30 2362 C 231.83 -1.42145 1.44647 0
M  V30 2363 C 232.163 -1.9408 0.0681907 0
M  V30 2364 O 231.438 -1.71899 -0.910007 0
M  V30 2365 C 231.721 -2.60735 2.48373 0
M  V30 2366 C 231.574 -2.14332 3.95451 0
M  V30 2367 C 232.893 -3.62951 2.48906 0
M  V30 2368 H 230.012 -0.51552 0.526696 0
M  V30 2369 H 232.654 -0.748069 1.74654 0
M  V30 2370 H 230.804 -3.18184 2.22916 0
M  V30 2371 H 232.476 -1.61932 4.31944 0
M  V30 2372 H 230.719 -1.4576 4.08578 0
M  V30 2373 H 231.39 -2.99583 4.63631 0
M  V30 2374 H 233.866 -3.1525 2.71582 0
M  V30 2375 H 232.742 -4.43487 3.23435 0
M  V30 2376 H 233.003 -4.15126 1.52061 0
M  V30 2377 N 232.062 -1.29571 -0.897171 0
M  V30 2378 C 233.478 -1.07637 -1.17841 0
M  V30 2379 C 233.678 0.170713 -2.00776 0
M  V30 2380 O 232.734 0.867768 -2.3712 0
M  V30 2381 C 234.047 -2.3332 -1.8969 0
M  V30 2382 C 235.595 -2.38664 -2.02505 0
M  V30 2383 C 236.07 -3.64157 -2.77765 0
M  V30 2384 N 237.561 -3.64894 -2.85318 0
M  V30 2385 C 238.296 -4.58679 -3.44094 0
M  V30 2386 N 237.792 -5.62799 -4.04017 0
M  V30 2387 N 239.585 -4.46245 -3.41793 0
M  V30 2388 H 231.736 -2.09598 -0.343883 0
M  V30 2389 H 233.999 -0.923333 -0.214848 0
M  V30 2390 H 233.705 -3.24262 -1.36187 0
M  V30 2391 H 233.579 -2.41025 -2.9015 0
M  V30 2392 H 235.966 -1.48208 -2.55183 0
M  V30 2393 H 236.047 -2.34943 -1.01171 0
M  V30 2394 H 235.691 -4.54965 -2.25763 0
M  V30 2395 H 235.621 -3.65137 -3.7945 0
M  V30 2396 H 238.112 -2.89613 -2.42761 0
M  V30 2397 H 238.425 -6.3048 -4.46895 0
M  V30 2398 H 236.77 -5.66605 -4.02472 0
M  V30 2399 H 239.961 -3.64094 -2.94199 0
M  V30 2400 H 240.134 -5.19518 -3.87304 0
M  V30 2401 N 233.54 1.10788 -1.12088 0
M  V30 2402 C 234.787 1.82671 -0.873931 0
M  V30 2403 C 235.115 1.85004 0.600311 0
M  V30 2404 O 234.37 1.30365 1.45957 0
M  V30 2405 C 234.669 3.29294 -1.38926 0
M  V30 2406 C 234.335 3.47113 -2.87791 0
M  V30 2407 C 232.997 3.51684 -3.28439 0
M  V30 2408 C 235.349 3.52808 -3.83635 0
M  V30 2409 C 232.677 3.59513 -4.63646 0
M  V30 2410 C 235.029 3.62169 -5.18668 0
M  V30 2411 C 233.693 3.65003 -5.58864 0
M  V30 2412 H 232.963 0.668441 -0.319794 0
M  V30 2413 H 235.61 1.30613 -1.40045 0
M  V30 2414 H 233.915 3.83894 -0.783122 0
M  V30 2415 H 235.612 3.83416 -1.17443 0
M  V30 2416 H 232.202 3.4423 -2.5535 0
M  V30 2417 H 236.386 3.4853 -3.53328 0
M  V30 2418 H 231.642 3.59987 -4.94185 0
M  V30 2419 H 235.816 3.6552 -5.92763 0
M  V30 2420 H 233.443 3.70822 -6.63623 0
M  V30 2421 N 235.018 0.912232 1.28515 0
M  V30 2422 C 235.968 0.370649 2.24967 0
M  V30 2423 C 236.952 -0.516375 1.52389 0
M  V30 2424 O 238.144 -0.356345 1.73376 0
M  V30 2425 C 235.273 -0.389526 3.41083 0
M  V30 2426 C 234.359 0.51313 4.20984 0
M  V30 2427 N 234.75 1.62604 4.78951 0
M  V30 2428 C 233.048 0.313235 4.44899 0
M  V30 2429 C 233.749 2.18619 5.39055 0
M  V30 2430 N 232.725 1.47765 5.23132 0
M  V30 2431 H 236.527 1.22061 2.67354 0
M  V30 2432 H 234.041 0.764712 1.43269 0
M  V30 2433 H 236.038 -0.794353 4.09262 0
M  V30 2434 H 234.698 -1.2366 3.0023 0
M  V30 2435 H 235.709 2.00864 4.77362 0
M  V30 2436 H 232.386 -0.494452 4.14562 0
M  V30 2437 H 233.776 3.12228 5.94948 0
M  V30 2438 N 236.496 -1.42363 0.676048 0
M  V30 2439 C 237.721 -2.06377 0.205705 0
M  V30 2440 C 238.146 -1.50463 -1.12883 0
M  V30 2441 O 237.504 -0.623619 -1.70237 0
M  V30 2442 C 237.552 -3.60277 0.152655 0
M  V30 2443 O 236.656 -4.02935 -0.87845 0
M  V30 2444 H 235.997 -0.655588 0.105359 0
M  V30 2445 H 238.527 -1.82475 0.925412 0
M  V30 2446 H 238.537 -4.07993 -0.0230675 0
M  V30 2447 H 237.212 -4.00346 1.12675 0
M  V30 2448 H 235.789 -3.66764 -0.673668 0
M  V30 2449 N 237.974 -0.419461 -1.51915 0
M  V30 2450 C 239.22 0.153166 -2.02221 0
M  V30 2451 C 239.553 1.43907 -1.30401 0
M  V30 2452 O 238.828 1.90055 -0.413438 0
M  V30 2453 C 239.111 0.390291 -3.57979 0
M  V30 2454 C 238.964 -0.913014 -4.40436 0
M  V30 2455 C 240.283 1.16794 -4.2432 0
M  V30 2456 H 237.402 0.0541924 -0.735005 0
M  V30 2457 H 240.044 -0.554955 -1.81715 0
M  V30 2458 H 238.194 0.993491 -3.75582 0
M  V30 2459 H 239.866 -1.54882 -4.34522 0
M  V30 2460 H 238.109 -1.52168 -4.06236 0
M  V30 2461 H 238.78 -0.701361 -5.47526 0
M  V30 2462 H 241.256 0.657161 -4.10878 0
M  V30 2463 H 240.132 1.3026 -5.3322 0
M  V30 2464 H 240.393 2.19132 -3.83971 0
M  V30 2465 N 239.452 1.56882 -0.150215 0
M  V30 2466 C 240.863 1.82995 0.370076 0
M  V30 2467 C 241.214 1.06907 1.64515 0
M  V30 2468 O 240.339 0.315369 2.1409 0
M  V30 2469 C 240.934 3.31942 0.678208 0
M  V30 2470 C 239.493 3.58625 1.14301 0
M  V30 2471 C 238.64 2.76792 0.167778 0
M  V30 2472 H 241.591 1.54209 -0.374858 0
M  V30 2473 H 241.612 3.48272 1.53254 0
M  V30 2474 H 241.124 3.87294 -0.249991 0
M  V30 2475 H 239.225 3.08664 2.08704 0
M  V30 2476 H 239.338 4.67073 1.06676 0
M  V30 2477 H 237.702 2.45972 0.661037 0
M  V30 2478 H 238.485 3.34916 -0.754069 0
M  V30 2479 N 240.93 -0.123565 1.57115 0
M  V30 2480 C 241.893 -1.13583 1.99076 0
M  V30 2481 C 242.893 -1.34564 0.880296 0
M  V30 2482 O 244.083 -1.31158 1.14644 0
M  V30 2483 C 241.215 -2.49128 2.32698 0
M  V30 2484 H 242.408 -0.775287 2.89706 0
M  V30 2485 H 239.961 -0.36771 1.51913 0
M  V30 2486 H 240.696 -2.90111 1.44934 0
M  V30 2487 H 240.481 -2.35255 3.13684 0
M  V30 2488 H 241.971 -3.2199 2.65918 0
M  V30 2489 N 242.408 -1.52605 -0.393616 0
M  V30 2490 C 243.655 -1.67424 -1.1391 0
M  V30 2491 C 243.983 -0.411859 -1.90089 0
M  V30 2492 O 243.238 0.605626 -1.86093 0
M  V30 2493 C 243.537 -2.85721 -2.14705 0
M  V30 2494 C 243.203 -4.23342 -1.55218 0
M  V30 2495 C 241.865 -4.60771 -1.3872 0
M  V30 2496 C 244.217 -5.09041 -1.11924 0
M  V30 2497 C 241.545 -5.81563 -0.774689 0
M  V30 2498 C 243.897 -6.30452 -0.520853 0
M  V30 2499 C 242.561 -6.66617 -0.343134 0
M  V30 2500 H 241.831 -0.612648 -0.416826 0
M  V30 2501 H 244.478 -1.8674 -0.424315 0
M  V30 2502 H 242.783 -2.60803 -2.92385 0
M  V30 2503 H 244.48 -2.94382 -2.72288 0
M  V30 2504 H 241.07 -3.93855 -1.69045 0
M  V30 2505 H 245.254 -4.80695 -1.23473 0
M  V30 2506 H 240.51 -6.08196 -0.625154 0
M  V30 2507 H 244.684 -6.96175 -0.177065 0
M  V30 2508 H 242.311 -7.60083 0.133571 0
M  V30 2509 N 243.887 0.651787 -1.4349 0
M  V30 2510 C 245.133 1.41376 -1.45398 0
M  V30 2511 C 245.466 1.94041 -0.0784823 0
M  V30 2512 O 244.741 1.72379 0.900878 0
M  V30 2513 C 245.024 2.59414 -2.49752 0
M  V30 2514 C 244.877 2.12232 -3.96582 0
M  V30 2515 C 246.196 3.61626 -2.50827 0
M  V30 2516 H 243.315 0.512719 -0.529422 0
M  V30 2517 H 245.957 0.738796 -1.75048 0
M  V30 2518 H 244.107 3.16997 -2.246 0
M  V30 2519 H 245.779 1.59639 -4.32797 0
M  V30 2520 H 244.022 1.43592 -4.09346 0
M  V30 2521 H 244.693 2.9712 -4.65214 0
M  V30 2522 H 247.169 3.13805 -2.7325 0
M  V30 2523 H 246.045 4.41766 -3.25783 0
M  V30 2524 H 246.306 4.14314 -1.5426 0
M  V30 2525 N 245.365 1.30045 0.890287 0
M  V30 2526 C 246.295 1.18541 2.01172 0
M  V30 2527 C 247.276 0.0773356 1.69924 0
M  V30 2528 O 248.461 0.25845 1.92473 0
M  V30 2529 C 245.591 0.870941 3.36202 0
M  V30 2530 C 244.545 1.93637 3.81692 0
M  V30 2531 C 243.871 1.475 5.13953 0
M  V30 2532 C 245.171 3.34666 4.00994 0
M  V30 2533 H 246.865 2.12359 2.11054 0
M  V30 2534 H 244.411 1.02238 1.01407 0
M  V30 2535 H 246.364 0.777141 4.14172 0
M  V30 2536 H 245.088 -0.102926 3.26438 0
M  V30 2537 H 243.747 2.01972 3.05946 0
M  V30 2538 H 243.395 0.489551 5.00612 0
M  V30 2539 H 243.095 2.1876 5.4536 0
M  V30 2540 H 244.619 1.39489 5.94454 0
M  V30 2541 H 246.033 3.2912 4.69417 0
M  V30 2542 H 244.43 4.03966 4.43769 0
M  V30 2543 H 245.5 3.76949 3.05021 0
M  V30 2544 N 246.843 -1.10192 1.12674 0
M  V30 2545 C 247.806 -2.14786 0.799979 0
M  V30 2546 C 248.806 -1.59711 -0.18685 0
M  V30 2547 O 249.996 -1.74156 0.0392558 0
M  V30 2548 C 247.128 -3.40374 0.189228 0
M  V30 2549 H 248.321 -2.45203 1.72671 0
M  V30 2550 H 245.874 -1.25597 0.930326 0
M  V30 2551 H 246.609 -3.15577 -0.747107 0
M  V30 2552 H 246.394 -3.81637 0.899766 0
M  V30 2553 H 247.884 -4.17594 -0.0228143 0
M  V30 2554 N 248.321 -0.919034 -1.28029 0
M  V30 2555 C 249.549 -0.570971 -1.98866 0
M  V30 2556 C 249.964 0.848996 -1.68634 0
M  V30 2557 O 249.321 1.56307 -0.942036 0
M  V30 2558 C 249.372 -0.776876 -3.53054 0
M  V30 2559 O 249.093 -2.14097 -3.82222 0
M  V30 2560 C 250.594 -0.436356 -4.41147 0
M  V30 2561 H 247.814 -0.217175 -0.634883 0
M  V30 2562 H 250.358 -1.23368 -1.63097 0
M  V30 2563 H 248.513 -0.161085 -3.87065 0
M  V30 2564 H 248.927 -2.18455 -4.76841 0
M  V30 2565 H 250.401 -0.63117 -5.4838 0
M  V30 2566 H 250.878 0.627686 -4.34692 0
M  V30 2567 H 251.484 -1.02991 -4.12641 0
M  V30 2568 N 249.799 1.42003 -0.683588 0
M  V30 2569 C 251.076 1.95112 -0.138075 0
M  V30 2570 C 251.456 1.62359 1.34918 0
M  V30 2571 O 250.804 0.924311 2.08971 0
M  V30 2572 C 251.014 3.46505 -0.416581 0
M  V30 2573 C 252.362 4.23254 -0.337834 0
M  V30 2574 O 253.386 3.54468 -0.35082 0
M  V30 2575 O 252.245 5.45743 -0.287596 0
M  V30 2576 H 249.339 0.826961 -0.00797996 0
M  V30 2577 H 251.885 1.51784 -0.758924 0
M  V30 2578 H 250.657 3.63582 -1.4465 0
M  V30 2579 H 250.28 3.969 0.235839 0
M  V30 2580 N 251.277 0.427512 1.51691 0
M  V30 2581 C 252.207 -0.3796 2.30394 0
M  V30 2582 C 253.188 -1.02982 1.35384 0
M  V30 2583 O 254.373 -1.03534 1.643 0
M  V30 2584 C 251.503 -1.48649 3.1388 0
M  V30 2585 C 250.457 -0.960294 4.17088 0
M  V30 2586 C 249.783 -2.16219 4.89033 0
M  V30 2587 C 251.083 -0.00153679 5.223 0
M  V30 2588 H 252.777 0.277164 2.98114 0
M  V30 2589 H 250.323 0.134739 1.43368 0
M  V30 2590 H 252.276 -2.05826 3.67714 0
M  V30 2591 H 251 -2.1714 2.43962 0
M  V30 2592 H 249.659 -0.410806 3.64291 0
M  V30 2593 H 249.307 -2.83307 4.15628 0
M  V30 2594 H 249.007 -1.81654 5.58816 0
M  V30 2595 H 250.531 -2.73968 5.45687 0
M  V30 2596 H 251.945 -0.482687 5.71264 0
M  V30 2597 H 250.342 0.256199 5.99553 0
M  V30 2598 H 251.412 0.938174 4.75738 0
M  V30 2599 N 252.755 -1.56801 0.158532 0
M  V30 2600 C 253.688 -2.13148 -0.815065 0
M  V30 2601 C 254.666 -1.0581 -1.23462 0
M  V30 2602 O 255.85 -1.3371 -1.32868 0
M  V30 2603 C 252.977 -2.6606 -2.09594 0
M  V30 2604 C 252.023 -3.85651 -1.82141 0
M  V30 2605 S 252.856 -5.26041 -1.00207 0
M  V30 2606 C 254.012 -5.8235 -2.29389 0
M  V30 2607 H 254.245 -2.95396 -0.335937 0
M  V30 2608 H 251.778 -1.54299 -0.0559391 0
M  V30 2609 H 253.736 -2.97195 -2.8317 0
M  V30 2610 H 252.397 -1.83921 -2.54621 0
M  V30 2611 H 251.59 -4.20958 -2.77147 0
M  V30 2612 H 251.192 -3.55338 -1.16667 0
M  V30 2613 H 253.484 -5.94485 -3.24952 0
M  V30 2614 H 254.427 -6.79688 -1.9857 0
M  V30 2615 H 254.835 -5.10675 -2.40564 0
M  V30 2616 N 254.233 0.115231 -1.57178 0
M  V30 2617 C 255.479 0.82357 -1.85325 0
M  V30 2618 C 255.812 1.79349 -0.744814 0
M  V30 2619 O 255.087 1.92899 0.249024 0
M  V30 2620 C 255.37 1.57014 -3.24066 0
M  V30 2621 C 255.223 0.619565 -4.45513 0
M  V30 2622 C 256.542 2.52545 -3.60429 0
M  V30 2623 H 253.661 0.297948 -0.674089 0
M  V30 2624 H 256.303 0.0877138 -1.89797 0
M  V30 2625 H 254.453 2.19742 -3.20383 0
M  V30 2626 H 256.125 0.000837639 -4.613 0
M  V30 2627 H 254.368 -0.0686174 -4.33746 0
M  V30 2628 H 255.039 1.17866 -5.3927 0
M  V30 2629 H 257.515 1.9992 -3.64926 0
M  V30 2630 H 256.391 3.01811 -4.58477 0
M  V30 2631 H 256.652 3.35383 -2.88047 0
M  V30 2632 N 255.711 1.52812 0.385517 0
M  V30 2633 C 256.988 1.5861 1.14465 0
M  V30 2634 C 257.368 0.381402 2.07626 0
M  V30 2635 O 256.716 -0.629999 2.19643 0
M  V30 2636 C 256.926 2.92664 1.90128 0
M  V30 2637 C 258.274 3.46526 2.45367 0
M  V30 2638 O 259.298 2.94562 2.0028 0
M  V30 2639 O 258.157 4.37323 3.27736 0
M  V30 2640 H 255.251 0.639855 0.523941 0
M  V30 2641 H 257.797 1.65149 0.390389 0
M  V30 2642 H 256.569 3.71788 1.22022 0
M  V30 2643 H 256.192 2.89527 2.72507 0
M  V30 2644 N 257.189 -0.644168 1.43834 0
M  V30 2645 C 258.435 -1.40603 1.46146 0
M  V30 2646 C 258.768 -1.93997 0.0887717 0
M  V30 2647 O 258.043 -1.72854 -0.891724 0
M  V30 2648 C 258.326 -2.58086 2.51124 0
M  V30 2649 C 258.179 -2.10126 3.97702 0
M  V30 2650 C 259.498 -3.60291 2.52742 0
M  V30 2651 H 256.617 -0.509905 0.532134 0
M  V30 2652 H 259.259 -0.729502 1.75437 0
M  V30 2653 H 257.409 -3.15801 2.26278 0
M  V30 2654 H 259.081 -1.57342 4.33637 0
M  V30 2655 H 257.324 -1.41419 4.10101 0
M  V30 2656 H 257.995 -2.94649 4.66783 0
M  V30 2657 H 260.471 -3.12352 2.7491 0
M  V30 2658 H 259.347 -4.40032 3.28121 0
M  V30 2659 H 259.608 -4.1349 1.56455 0
M  V30 2660 N 258.668 -1.30515 -0.883378 0
M  V30 2661 C 260.079 -1.17509 -1.45081 0
M  V30 2662 C 260.43 0.223605 -1.94922 0
M  V30 2663 O 259.555 1.12041 -1.85137 0
M  V30 2664 C 260.15 -2.12715 -2.63701 0
M  V30 2665 C 258.709 -2.03682 -3.16529 0
M  V30 2666 C 257.856 -2.02706 -1.89224 0
M  V30 2667 H 260.807 -1.42762 -0.693165 0
M  V30 2668 H 260.828 -1.70891 -3.39965 0
M  V30 2669 H 260.34 -3.14505 -2.27395 0
M  V30 2670 H 258.441 -1.05039 -3.57488 0
M  V30 2671 H 258.554 -2.92146 -3.7972 0
M  V30 2672 H 256.918 -1.4753 -2.07622 0
M  V30 2673 H 257.701 -3.06229 -1.55174 0
M  V30 2674 N 260.146 1.09593 -1.13257 0
M  V30 2675 C 261.394 1.81375 -0.891492 0
M  V30 2676 C 261.715 1.86049 0.584009 0
M  V30 2677 O 260.985 1.34481 1.42449 0
M  V30 2678 H 259.565 0.671708 -0.326828 0
M  V30 2679 H 262.227 1.3256 -1.42877 0
M  V30 2680 H 261.323 2.84612 -1.28071 0
M  V30 2681 N 261.624 0.925811 1.2754 0
M  V30 2682 C 262.574 0.394488 2.24561 0
M  V30 2683 C 263.558 -0.500183 1.52928 0
M  V30 2684 O 264.75 -0.337936 1.73744 0
M  V30 2685 C 261.879 -0.353328 3.41477 0
M  V30 2686 C 260.965 0.557752 4.20416 0
M  V30 2687 N 261.356 1.67674 4.77199 0
M  V30 2688 C 259.654 0.360404 4.44541 0
M  V30 2689 C 260.355 2.24324 5.36706 0
M  V30 2690 N 259.331 1.53305 5.21535 0
M  V30 2691 H 263.133 1.2489 2.66045 0
M  V30 2692 H 260.647 0.779864 1.4245 0
M  V30 2693 H 262.644 -0.7509 4.10082 0
M  V30 2694 H 261.304 -1.20469 3.01525 0
M  V30 2695 H 262.315 2.05915 4.75204 0
M  V30 2696 H 258.992 -0.450454 4.15063 0
M  V30 2697 H 260.382 3.18521 5.91603 0
M  V30 2698 N 263.102 -1.41638 0.69111 0
M  V30 2699 C 264.35 -2.00902 0.219758 0
M  V30 2700 C 264.671 -1.54994 -1.18329 0
M  V30 2701 O 263.941 -0.778628 -1.79762 0
M  V30 2702 H 262.521 -0.74289 0.0782558 0
M  V30 2703 H 265.183 -1.73327 0.891271 0
M  V30 2704 H 264.279 -3.11224 0.233708 0
M  V30 2705 N 264.58 -0.43555 -1.51462 0
M  V30 2706 C 265.527 0.376797 -2.27703 0
M  V30 2707 C 266.497 1.01838 -1.31219 0
M  V30 2708 O 267.682 1.03762 -1.60119 0
M  V30 2709 C 264.822 1.47301 -3.12084 0
M  V30 2710 C 263.935 0.849744 -4.2356 0
M  V30 2711 C 263.07 1.92086 -4.95254 0
M  V30 2712 C 262.109 1.27593 -5.98654 0
M  V30 2713 N 261.246 2.28833 -6.63762 0
M  V30 2714 H 266.086 -0.279734 -2.96684 0
M  V30 2715 H 263.623 -0.149795 -1.46335 0
M  V30 2716 H 265.581 2.11984 -3.59331 0
M  V30 2717 H 264.211 2.0992 -2.45221 0
M  V30 2718 H 263.263 0.0912529 -3.80291 0
M  V30 2719 H 264.575 0.338878 -4.97648 0
M  V30 2720 H 263.729 2.64435 -5.46039 0
M  V30 2721 H 262.468 2.46545 -4.20793 0
M  V30 2722 H 261.473 0.537893 -5.47162 0
M  V30 2723 H 262.698 0.738693 -6.7507 0
M  V30 2724 H 260.644 2.82375 -5.92115 0
M  V30 2725 H 260.561 1.82632 -7.33608 0
M  V30 2726 H 261.829 3.00671 -7.19178 0
M  V30 2727 N 266.058 1.56714 -0.166846 0
M  V30 2728 C 267.304 1.97039 0.479962 0
M  V30 2729 C 267.637 1.05264 1.63197 0
M  V30 2730 O 266.912 0.0988833 1.94248 0
M  V30 2731 C 267.195 3.46867 0.967212 0
M  V30 2732 C 267.048 4.49421 -0.18466 0
M  V30 2733 C 268.367 3.9968 1.84238 0
M  V30 2734 H 265.486 0.71641 0.172992 0
M  V30 2735 H 268.128 1.8832 -0.252079 0
M  V30 2736 H 266.278 3.54428 1.59101 0
M  V30 2737 H 267.95 4.53924 -0.821621 0
M  V30 2738 H 266.193 4.25573 -0.840837 0
M  V30 2739 H 266.864 5.51644 0.198317 0
M  V30 2740 H 269.34 3.94723 1.31655 0
M  V30 2741 H 268.216 5.04941 2.15234 0
M  V30 2742 H 268.477 3.43226 2.78654 0
M  V30 2743 N 267.536 -0.106894 1.57237 0
M  V30 2744 C 268.469 -1.16125 1.96444 0
M  V30 2745 C 269.447 -1.3947 0.835871 0
M  V30 2746 O 270.631 -1.53425 1.09513 0
M  V30 2747 C 267.758 -2.51277 2.27107 0
M  V30 2748 C 266.804 -2.44285 3.4961 0
M  V30 2749 S 267.637 -1.87077 5.01759 0
M  V30 2750 C 268.793 -3.23877 5.35588 0
M  V30 2751 H 269.026 -0.826971 2.85567 0
M  V30 2752 H 266.559 -0.314124 1.51171 0
M  V30 2753 H 268.517 -3.29035 2.45451 0
M  V30 2754 H 267.178 -2.81879 1.38576 0
M  V30 2755 H 266.371 -3.4387 3.68469 0
M  V30 2756 H 265.973 -1.74652 3.30715 0
M  V30 2757 H 268.265 -4.20122 5.31511 0
M  V30 2758 H 269.208 -3.09833 6.36717 0
M  V30 2759 H 269.616 -3.22864 4.63054 0
M  V30 2760 N 269.014 -1.53014 -0.377408 0
M  V30 2761 C 270.26 -1.68872 -1.12294 0
M  V30 2762 C 270.593 -0.433224 -1.89306 0
M  V30 2763 O 269.868 0.569258 -1.85983 0
M  V30 2764 C 270.151 -2.93115 -2.09179 0
M  V30 2765 C 270.004 -4.28794 -1.35853 0
M  V30 2766 C 271.323 -3.12928 -3.09458 0
M  V30 2767 H 268.442 -0.614518 -0.406862 0
M  V30 2768 H 271.084 -1.85633 -0.40503 0
M  V30 2769 H 269.234 -2.78956 -2.70399 0
M  V30 2770 H 270.906 -4.54742 -0.775082 0
M  V30 2771 H 269.149 -4.28744 -0.660364 0
M  V30 2772 H 269.82 -5.11837 -2.06706 0
M  V30 2773 H 272.296 -3.26194 -2.58334 0
M  V30 2774 H 271.172 -4.01316 -3.74482 0
M  V30 2775 H 271.433 -2.27669 -3.78971 0
M  V30 2776 N 270.492 0.636531 -1.44174 0
M  V30 2777 C 271.769 1.39463 -1.37148 0
M  V30 2778 C 272.149 2.11082 -0.027507 0
M  V30 2779 O 271.497 2.05954 0.989716 0
M  V30 2780 C 271.707 2.36552 -2.56601 0
M  V30 2781 C 273.055 3.00048 -3.00427 0
M  V30 2782 O 274.079 2.46878 -2.56767 0
M  V30 2783 O 272.938 3.96488 -3.76111 0
M  V30 2784 H 270.032 0.623903 -0.542839 0
M  V30 2785 H 272.578 0.662039 -1.56253 0
M  V30 2786 H 271.35 1.82692 -3.46034 0
M  V30 2787 H 270.973 3.17236 -2.39681 0
M  V30 2788 N 271.97 1.30982 0.876444 0
M  V30 2789 C 273.219 1.19658 1.62373 0
M  V30 2790 C 273.532 -0.245636 1.94052 0
M  V30 2791 O 274.738 -0.48049 2.67214 0
M  V30 2792 C 273.194 2.09433 2.92687 0
M  V30 2793 C 272.802 3.58613 2.68516 0
M  V30 2794 C 274.546 2.06893 3.70669 0
M  V30 2795 C 272.453 4.40416 3.94699 0
M  V30 2796 H 271.383 0.444268 0.609214 0
M  V30 2797 H 274.034 1.55791 0.969605 0
M  V30 2798 H 272.416 1.66191 3.59439 0
M  V30 2799 H 273.59 4.10058 2.10212 0
M  V30 2800 H 271.905 3.63063 2.03898 0
M  V30 2801 H 274.502 2.65258 4.64265 0
M  V30 2802 H 274.845 1.05448 4.02724 0
M  V30 2803 H 275.378 2.48301 3.10792 0
M  V30 2804 H 272.117 5.42591 3.67798 0
M  V30 2805 H 271.637 3.93731 4.52477 0
M  V30 2806 H 273.316 4.52294 4.62644 0
M  V30 2807 N 273.449 -1.08991 1.13837 0
M  V30 2808 C 274.412 -2.13925 0.822715 0
M  V30 2809 C 275.412 -1.599 -0.1699 0
M  V30 2810 O 276.602 -1.74104 0.0577251 0
M  V30 2811 C 273.734 -3.40155 0.225318 0
M  V30 2812 H 274.927 -2.43358 1.75262 0
M  V30 2813 H 272.48 -1.24603 0.943594 0
M  V30 2814 H 273.215 -3.16352 -0.713594 0
M  V30 2815 H 273 -3.80661 0.940193 0
M  V30 2816 H 274.49 -4.17594 0.0214784 0
M  V30 2817 N 274.927 -0.932562 -1.27047 0
M  V30 2818 C 276.157 -0.591173 -1.97961 0
M  V30 2819 C 276.565 0.836219 -1.69717 0
M  V30 2820 O 275.908 1.56801 -0.957036 0
M  V30 2821 C 275.97 -0.743082 -3.51736 0
M  V30 2822 C 275.634 -2.1435 -4.03613 0
M  V30 2823 C 276.631 -3.11815 -4.16014 0
M  V30 2824 C 274.316 -2.46175 -4.37839 0
M  V30 2825 C 276.31 -4.39211 -4.61923 0
M  V30 2826 C 273.997 -3.73806 -4.83438 0
M  V30 2827 C 274.995 -4.70137 -4.95439 0
M  V30 2828 O 274.683 -5.95496 -5.40037 0
M  V30 2829 H 274.415 -0.222375 -0.638377 0
M  V30 2830 H 276.969 -1.25317 -1.62742 0
M  V30 2831 H 275.199 -0.0239739 -3.86693 0
M  V30 2832 H 276.888 -0.40603 -4.03864 0
M  V30 2833 H 277.654 -2.88549 -3.89826 0
M  V30 2834 H 273.533 -1.71936 -4.27737 0
M  V30 2835 H 277.077 -5.14404 -4.71205 0
M  V30 2836 H 272.974 -3.96888 -5.09068 0
M  V30 2837 H 273.742 -5.98554 -5.58279 0
M  V30 2838 N 276.405 1.4127 -0.698611 0
M  V30 2839 C 277.653 2.00782 -0.230409 0
M  V30 2840 C 277.974 1.5562 1.17505 0
M  V30 2841 O 277.244 0.78815 1.79346 0
M  V30 2842 H 275.824 0.742464 -0.0821944 0
M  V30 2843 H 278.486 1.72852 -0.90045 0
M  V30 2844 H 277.582 3.11095 -0.25021 0
M  V30 2845 N 277.883 0.443576 1.51229 0
M  V30 2846 C 279.131 -0.120557 2.0174 0
M  V30 2847 C 279.452 -1.42665 1.32935 0
M  V30 2848 O 278.722 -1.9028 0.465866 0
M  V30 2849 H 277.302 -0.0475426 0.745486 0
M  V30 2850 H 279.964 0.587711 1.85828 0
M  V30 2851 H 279.06 -0.291972 3.10731 0
M  V30 2852 N 279.361 -1.56624 0.175154 0
M  V30 2853 C 280.324 -2.16934 -0.739738 0
M  V30 2854 C 281.324 -1.11842 -1.15533 0
M  V30 2855 O 282.514 -1.37335 -1.07167 0
M  V30 2856 C 279.646 -2.75531 -2.00738 0
M  V30 2857 H 280.839 -2.99131 -0.214639 0
M  V30 2858 H 278.392 -1.56123 -0.0744197 0
M  V30 2859 H 279.127 -1.97078 -2.57548 0
M  V30 2860 H 278.912 -3.52444 -1.71831 0
M  V30 2861 H 280.402 -3.21904 -2.66021 0
M  V30 2862 N 280.839 0.0985539 -1.57292 0
M  V30 2863 C 282.086 0.802678 -1.85912 0
M  V30 2864 C 282.414 1.78901 -0.763186 0
M  V30 2865 O 281.669 1.94178 0.243559 0
M  V30 2866 C 281.968 1.56927 -3.21105 0
M  V30 2867 C 281.634 0.725376 -4.45027 0
M  V30 2868 C 280.296 0.492726 -4.78671 0
M  V30 2869 C 282.648 0.138493 -5.21016 0
M  V30 2870 C 279.976 -0.336727 -5.85733 0
M  V30 2871 C 282.328 -0.678264 -6.28953 0
M  V30 2872 C 280.992 -0.921039 -6.61115 0
M  V30 2873 H 280.262 0.293721 -0.680301 0
M  V30 2874 H 282.909 0.0642841 -1.91392 0
M  V30 2875 H 281.214 2.37914 -3.11294 0
M  V30 2876 H 282.911 2.11841 -3.40477 0
M  V30 2877 H 279.501 0.916815 -4.18679 0
M  V30 2878 H 283.685 0.305404 -4.95359 0
M  V30 2879 H 278.941 -0.533836 -6.09065 0
M  V30 2880 H 283.115 -1.1399 -6.87007 0
M  V30 2881 H 280.742 -1.56556 -7.43905 0
M  V30 2882 N 282.317 1.53212 0.369288 0
M  V30 2883 C 283.547 1.72868 1.13139 0
M  V30 2884 C 283.955 0.455754 1.83629 0
M  V30 2885 O 283.298 -0.580861 1.74275 0
M  V30 2886 C 283.36 2.83667 2.20847 0
M  V30 2887 C 283.024 4.24142 1.70155 0
M  V30 2888 C 284.021 5.06619 1.16763 0
M  V30 2889 C 281.706 4.70539 1.7578 0
M  V30 2890 C 283.7 6.33581 0.696678 0
M  V30 2891 C 281.387 5.97481 1.28297 0
M  V30 2892 C 282.385 6.78833 0.753307 0
M  V30 2893 O 282.073 8.03393 0.285475 0
M  V30 2894 H 281.805 0.581707 0.344373 0
M  V30 2895 H 284.359 2.00736 0.435243 0
M  V30 2896 H 282.589 2.51265 2.93944 0
M  V30 2897 H 284.278 2.91536 2.82421 0
M  V30 2898 H 285.044 4.71948 1.11758 0
M  V30 2899 H 280.923 4.07293 2.15949 0
M  V30 2900 H 284.467 6.97027 0.282581 0
M  V30 2901 H 280.364 6.31651 1.32994 0
M  V30 2902 H 281.132 8.17497 0.405145 0
M  V30 2903 N 283.795 -0.628877 1.44509 0
M  V30 2904 C 284.758 -1.72263 1.51188 0
M  V30 2905 C 285.758 -1.55907 0.39367 0
M  V30 2906 O 286.948 -1.61361 0.656377 0
M  V30 2907 C 284.08 -3.11365 1.38798 0
M  V30 2908 H 285.273 -1.67714 2.4862 0
M  V30 2909 H 282.826 -0.842737 1.31634 0
M  V30 2910 H 283.561 -3.21507 0.424693 0
M  V30 2911 H 283.346 -3.24644 2.19884 0
M  V30 2912 H 284.836 -3.91075 1.46458 0
M  V30 2913 N 285.273 -1.31445 -0.869486 0
M  V30 2914 C 286.52 -1.21158 -1.62256 0
M  V30 2915 C 286.848 0.230155 -1.93133 0
M  V30 2916 O 286.103 1.17906 -1.56194 0
M  V30 2917 C 286.402 -2.00145 -2.96102 0
M  V30 2918 C 286.068 -3.4964 -2.84715 0
M  V30 2919 C 284.73 -3.90403 -2.81317 0
M  V30 2920 C 287.082 -4.44769 -2.71716 0
M  V30 2921 C 284.41 -5.24561 -2.62778 0
M  V30 2922 C 286.762 -5.79054 -2.54714 0
M  V30 2923 C 285.426 -6.19037 -2.49699 0
M  V30 2924 H 284.696 -0.443348 -0.593737 0
M  V30 2925 H 287.343 -1.62715 -1.00976 0
M  V30 2926 H 285.648 -1.5127 -3.6142 0
M  V30 2927 H 287.345 -1.89566 -3.53363 0
M  V30 2928 H 283.935 -3.17256 -2.88178 0
M  V30 2929 H 288.119 -4.14208 -2.73397 0
M  V30 2930 H 283.375 -5.54613 -2.57321 0
M  V30 2931 H 287.549 -6.52393 -2.43632 0
M  V30 2932 H 285.176 -7.22935 -2.35093 0
M  V30 2933 N 286.751 1.08385 -1.14413 0
M  V30 2934 C 287.997 1.81044 -0.913834 0
M  V30 2935 C 288.33 1.86004 0.558209 0
M  V30 2936 O 287.605 1.33606 1.4135 0
M  V30 2937 C 287.888 3.26648 -1.51569 0
M  V30 2938 C 287.741 3.29895 -3.0576 0
M  V30 2939 C 289.06 4.23629 -1.19273 0
M  V30 2940 H 286.179 0.65727 -0.333414 0
M  V30 2941 H 288.821 1.26896 -1.41412 0
M  V30 2942 H 286.971 3.72889 -1.09023 0
M  V30 2943 H 288.643 2.91977 -3.57137 0
M  V30 2944 H 286.886 2.69163 -3.40197 0
M  V30 2945 H 287.557 4.32516 -3.42977 0
M  V30 2946 H 290.033 3.85727 -1.56057 0
M  V30 2947 H 288.909 5.23822 -1.64017 0
M  V30 2948 H 289.17 4.41968 -0.108068 0
M  V30 2949 N 288.23 0.939286 1.26551 0
M  V30 2950 C 289.458 0.602536 1.97932 0
M  V30 2951 C 289.873 -0.82206 1.69964 0
M  V30 2952 O 289.23 -1.54789 0.966784 0
M  V30 2953 C 289.281 0.832946 3.51773 0
M  V30 2954 O 289.002 2.20151 3.78768 0
M  V30 2955 C 290.503 0.506483 4.40397 0
M  V30 2956 H 287.723 0.227248 0.631347 0
M  V30 2957 H 290.267 1.25948 1.61113 0
M  V30 2958 H 288.422 0.222644 3.8676 0
M  V30 2959 H 288.836 2.26013 4.73306 0
M  V30 2960 H 290.31 0.718333 5.47306 0
M  V30 2961 H 290.787 -0.558451 4.35635 0
M  V30 2962 H 291.393 1.09543 4.10951 0
M  V30 2963 N 289.708 -1.40897 0.706093 0
M  V30 2964 C 290.671 -2.29131 0.0562841 0
M  V30 2965 C 291.671 -1.44901 -0.697166 0
M  V30 2966 O 292.861 -1.65926 -0.530484 0
M  V30 2967 C 289.993 -3.27957 -0.93043 0
M  V30 2968 H 291.186 -2.88091 0.833284 0
M  V30 2969 H 288.739 -1.4906 0.470192 0
M  V30 2970 H 289.474 -2.73997 -1.73482 0
M  V30 2971 H 289.259 -3.90124 -0.393166 0
M  V30 2972 H 290.749 -3.94049 -1.38256 0
M  V30 2973 N 291.186 -0.45159 -1.50991 0
M  V30 2974 C 292.096 0.358431 -2.31846 0
M  V30 2975 C 293.112 1.01438 -1.41373 0
M  V30 2976 O 294.288 1.00663 -1.74439 0
M  V30 2977 C 291.353 1.43704 -3.15515 0
M  V30 2978 C 290.414 0.799742 -4.21785 0
M  V30 2979 C 289.647 1.82696 -5.01456 0
M  V30 2980 O 289.87 3.05105 -4.81941 0
M  V30 2981 O 288.804 1.40958 -5.85162 0
M  V30 2982 H 292.63 -0.302032 -3.02194 0
M  V30 2983 H 290.215 -0.213825 -1.47862 0
M  V30 2984 H 292.097 2.06227 -3.67489 0
M  V30 2985 H 290.772 2.08133 -2.47916 0
M  V30 2986 H 289.679 0.136084 -3.73852 0
M  V30 2987 H 291.012 0.198718 -4.91799 0
M  V30 2988 N 292.664 1.56529 -0.183458 0
M  V30 2989 C 293.611 2.18546 0.742055 0
M  V30 2990 C 294.581 1.12912 1.2182 0
M  V30 2991 O 295.766 1.41115 1.28418 0
M  V30 2992 C 292.906 2.83977 1.96089 0
M  V30 2993 C 292.019 4.04105 1.52719 0
M  V30 2994 C 291.154 4.57427 2.70063 0
M  V30 2995 C 290.193 5.69938 2.23243 0
M  V30 2996 N 289.33 6.17717 3.33722 0
M  V30 2997 H 294.17 2.97284 0.206432 0
M  V30 2998 H 291.707 1.46823 0.0901571 0
M  V30 2999 H 293.665 3.20077 2.67594 0
M  V30 3000 H 292.295 2.07822 2.47002 0
M  V30 3001 H 291.347 3.73745 0.708436 0
M  V30 3002 H 292.659 4.85513 1.1436 0
M  V30 3003 H 291.813 4.95772 3.49708 0
M  V30 3004 H 290.552 3.75101 3.11689 0
M  V30 3005 H 289.557 5.31133 1.42048 0
M  V30 3006 H 290.782 6.54073 1.82661 0
M  V30 3007 H 288.728 5.38317 3.74902 0
M  V30 3008 H 288.645 6.94146 2.99495 0
M  V30 3009 H 289.913 6.60713 4.13616 0
M  V30 3010 N 294.142 -0.090211 1.57342 0
M  V30 3011 C 295.072 -1.10976 2.05443 0
M  V30 3012 C 296.053 -1.41482 0.944284 0
M  V30 3013 O 297.238 -1.51428 1.21586 0
M  V30 3014 C 294.368 -2.42831 2.48295 0
M  V30 3015 C 293.322 -2.26721 3.63018 0
M  V30 3016 C 292.648 -3.63796 3.91863 0
M  V30 3017 C 293.948 -1.7037 4.93732 0
M  V30 3018 H 295.642 -0.709564 2.9087 0
M  V30 3019 H 293.188 -0.339874 1.39932 0
M  V30 3020 H 295.141 -3.14431 2.80555 0
M  V30 3021 H 293.865 -2.84795 1.59873 0
M  V30 3022 H 292.524 -1.57565 3.31012 0
M  V30 3023 H 292.172 -4.03297 3.00601 0
M  V30 3024 H 291.872 -3.53861 4.69101 0
M  V30 3025 H 293.396 -4.36855 4.26603 0
M  V30 3026 H 294.81 -2.31816 5.24342 0
M  V30 3027 H 293.207 -1.71181 5.75167 0
M  V30 3028 H 294.277 -0.663542 4.80339 0
M  V30 3029 N 295.62 -1.53406 -0.361157 0
M  V30 3030 C 296.868 -1.69467 -1.10115 0
M  V30 3031 C 297.189 -0.451352 -1.89705 0
M  V30 3032 O 296.459 0.534636 -1.88463 0
M  V30 3033 H 295.039 -0.624749 -0.409508 0
M  V30 3034 H 297.701 -1.90609 -0.406699 0
M  V30 3035 H 296.797 -2.55774 -1.78847 0
M  V30 3036 N 297.098 0.621204 -1.44841 0
M  V30 3037 C 298.028 1.74366 -1.55303 0
M  V30 3038 C 299.009 1.65199 -0.405385 0
M  V30 3039 O 300.194 1.83807 -0.626787 0
M  V30 3040 C 297.324 3.12931 -1.50637 0
M  V30 3041 C 296.278 3.36896 -2.63979 0
M  V30 3042 C 295.604 4.75594 -2.44366 0
M  V30 3043 C 296.904 3.28483 -4.06074 0
M  V30 3044 H 298.598 1.65867 -2.49256 0
M  V30 3045 H 296.144 0.796558 -1.19962 0
M  V30 3046 H 298.097 3.9124 -1.56555 0
M  V30 3047 H 296.821 3.22237 -0.532057 0
M  V30 3048 H 295.48 2.60972 -2.57467 0
M  V30 3049 H 295.128 4.81616 -1.45105 0
M  V30 3050 H 294.828 4.92586 -3.20364 0
M  V30 3051 H 296.352 5.5612 -2.52117 0
M  V30 3052 H 297.766 3.96684 -4.13902 0
M  V30 3053 H 296.163 3.57008 -4.82354 0
M  V30 3054 H 297.233 2.26133 -4.28943 0
M  V30 3055 N 298.576 1.31904 0.862503 0
M  V30 3056 C 299.853 1.12644 1.59908 0
M  V30 3057 C 300.233 -0.316104 2.0872 0
M  V30 3058 O 299.581 -1.31145 1.87118 0
M  V30 3059 C 299.791 2.1472 2.7513 0
M  V30 3060 C 301.139 2.47637 3.44907 0
M  V30 3061 O 302.163 2.13205 2.85346 0
M  V30 3062 O 301.022 3.06632 4.52371 0
M  V30 3063 H 298.116 0.43416 0.703871 0
M  V30 3064 H 300.662 1.43408 0.907314 0
M  V30 3065 H 299.434 3.1172 2.3653 0
M  V30 3066 H 299.057 1.84905 3.51989 0
M  V30 3067 N 300.054 -1.07777 1.14986 0
M  V30 3068 C 301.303 -1.79669 0.916617 0
M  V30 3069 C 301.616 -1.87474 -0.557917 0
M  V30 3070 O 302.822 -2.55845 -0.908617 0
M  V30 3071 C 301.278 -3.22848 1.59051 0
M  V30 3072 C 300.886 -3.23257 3.10176 0
M  V30 3073 C 302.63 -3.99379 1.43864 0
M  V30 3074 C 300.537 -4.61063 3.70372 0
M  V30 3075 H 299.467 -0.673349 0.33929 0
M  V30 3076 H 302.118 -1.21003 1.37951 0
M  V30 3077 H 300.5 -3.8168 1.0553 0
M  V30 3078 H 301.674 -2.74095 3.70417 0
M  V30 3079 H 299.989 -2.60222 3.25074 0
M  V30 3080 H 302.586 -5.0122 1.86232 0
M  V30 3081 H 302.929 -4.14511 0.385564 0
M  V30 3082 H 303.462 -3.47032 1.94457 0
M  V30 3083 H 300.201 -4.51135 4.7556 0
M  V30 3084 H 299.721 -5.1048 3.14913 0
M  V30 3085 H 301.4 -5.30034 3.71043 0
M  V30 3086 N 301.532 -0.945985 -1.26051 0
M  V30 3087 C 302.772 -0.603665 -1.95282 0
M  V30 3088 C 303.136 0.842377 -1.72534 0
M  V30 3089 O 304.337 1.29387 -2.35611 0
M  V30 3090 C 302.608 -0.942292 -3.44754 0
M  V30 3091 S 304.167 -0.711242 -4.32997 0
M  V30 3092 H 300.985 -0.222176 -0.675395 0
M  V30 3093 H 303.587 -1.21832 -1.52896 0
M  V30 3094 H 302.291 -1.99203 -3.58812 0
M  V30 3095 H 301.822 -0.317546 -3.92116 0
M  V30 3096 H 303.837 0.422221 -4.944 0
M  V30 3097 N 303.011 1.40521 -0.713556 0
M  V30 3098 C 304.236 2.05759 -0.26035 0
M  V30 3099 C 304.661 1.53403 1.08854 0
M  V30 3100 O 304.019 0.668535 1.68524 0
M  V30 3101 C 304.067 3.59745 -0.248122 0
M  V30 3102 O 303.171 4.05123 0.77131 0
M  V30 3103 H 302.512 0.652564 -0.122703 0
M  V30 3104 H 305.042 1.79958 -0.973467 0
M  V30 3105 H 305.052 4.07911 -0.0851129 0
M  V30 3106 H 303.727 3.97218 -1.2325 0
M  V30 3107 H 302.304 3.68422 0.57619 0
M  V30 3108 N 304.489 0.459591 1.5075 0
M  V30 3109 C 305.452 -0.329093 2.26825 0
M  V30 3110 C 306.452 -0.930481 1.31144 0
M  V30 3111 O 307.642 -0.801453 1.54669 0
M  V30 3112 C 304.774 -1.46768 3.07688 0
M  V30 3113 H 305.967 0.337924 2.9799 0
M  V30 3114 H 303.52 0.213336 1.54837 0
M  V30 3115 H 304.255 -2.17009 2.40993 0
M  V30 3116 H 304.04 -1.04238 3.77991 0
M  V30 3117 H 305.53 -2.02433 3.65254 0
M  V30 3118 N 305.967 -1.56429 0.191757 0
M  V30 3119 C 306.914 -2.18936 -0.730454 0
M  V30 3120 C 307.884 -1.13557 -1.21219 0
M  V30 3121 O 309.069 -1.41794 -1.27668 0
M  V30 3122 C 306.209 -2.85013 -1.9458 0
M  V30 3123 C 305.322 -4.04909 -1.50574 0
M  V30 3124 C 304.457 -4.58853 -2.67634 0
M  V30 3125 C 303.496 -5.71114 -2.20217 0
M  V30 3126 N 302.633 -6.19478 -3.30442 0
M  V30 3127 H 307.473 -2.97389 -0.190664 0
M  V30 3128 H 305.01 -1.46869 -0.0823694 0
M  V30 3129 H 306.968 -3.21492 -2.65893 0
M  V30 3130 H 305.598 -2.09129 -2.45896 0
M  V30 3131 H 304.65 -3.74115 -0.688605 0
M  V30 3132 H 305.962 -4.86113 -1.11784 0
M  V30 3133 H 305.116 -4.97619 -3.47074 0
M  V30 3134 H 303.855 -3.76749 -3.09696 0
M  V30 3135 H 302.86 -5.31879 -1.3923 0
M  V30 3136 H 304.085 -6.55033 -1.79189 0
M  V30 3137 H 302.031 -5.40297 -3.72041 0
M  V30 3138 H 301.948 -6.95725 -2.9581 0
M  V30 3139 H 303.216 -6.62898 -4.10106 0
M  V30 3140 N 307.445 0.0818655 -1.57387 0
M  V30 3141 C 308.673 0.796108 -1.9097 0
M  V30 3142 C 309.088 1.71626 -0.786757 0
M  V30 3143 O 308.445 1.80908 0.240513 0
M  V30 3144 C 308.496 1.59829 -3.24248 0
M  V30 3145 O 308.217 0.715131 -4.32224 0
M  V30 3146 C 309.718 2.41442 -3.7178 0
M  V30 3147 H 306.938 0.22691 -0.631469 0
M  V30 3148 H 309.482 0.0551439 -2.04426 0
M  V30 3149 H 307.637 2.29163 -3.12351 0
M  V30 3150 H 308.051 1.27205 -5.08841 0
M  V30 3151 H 309.525 2.932 -4.67694 0
M  V30 3152 H 310.002 3.2051 -3.00283 0
M  V30 3153 H 310.608 1.77283 -3.86589 0
M  V30 3154 N 308.923 1.53595 0.353017 0
M  V30 3155 C 310.339 1.43648 0.695516 0
M  V30 3156 C 310.539 0.585617 1.92802 0
M  V30 3157 O 309.595 0.0729223 2.52395 0
M  V30 3158 C 310.908 2.8701 0.896991 0
M  V30 3159 C 312.456 2.96723 0.996209 0
M  V30 3160 C 312.931 4.41173 1.23007 0
M  V30 3161 N 314.422 4.44657 1.29749 0
M  V30 3162 C 315.157 5.53547 1.49577 0
M  V30 3163 N 314.653 6.72461 1.66639 0
M  V30 3164 N 316.446 5.41145 1.52048 0
M  V30 3165 H 308.597 2.07415 -0.457481 0
M  V30 3166 H 310.86 0.9372 -0.142687 0
M  V30 3167 H 310.566 3.51644 0.0629938 0
M  V30 3168 H 310.44 3.31401 1.80148 0
M  V30 3169 H 312.827 2.32235 1.82074 0
M  V30 3170 H 312.908 2.55707 0.0688331 0
M  V30 3171 H 312.552 5.06238 0.410505 0
M  V30 3172 H 312.482 4.79772 2.17086 0
M  V30 3173 H 314.973 3.58963 1.18126 0
M  V30 3174 H 315.286 7.51214 1.81378 0
M  V30 3175 H 313.631 6.75423 1.63794 0
M  V30 3176 H 316.822 4.47205 1.38294 0
M  V30 3177 H 316.995 6.26068 1.67159 0
M  V30 3178 N 310.401 -0.613514 1.45168 0
M  V30 3179 C 311.678 -1.37263 1.39349 0
M  V30 3180 C 312.058 -2.11012 0.0610848 0
M  V30 3181 O 311.406 -2.07502 -0.956825 0
M  V30 3182 C 311.616 -2.3244 2.60332 0
M  V30 3183 C 312.964 -2.9523 3.05163 0
M  V30 3184 O 313.988 -2.42762 2.60663 0
M  V30 3185 O 312.847 -3.90454 3.82372 0
M  V30 3186 H 309.941 -0.615188 0.552696 0
M  V30 3187 H 312.487 -0.637097 1.57287 0
M  V30 3188 H 311.259 -1.77164 3.48896 0
M  V30 3189 H 310.882 -3.13383 2.44698 0
M  V30 3190 N 311.879 -1.3236 -0.855495 0
M  V30 3191 C 312.809 -1.23833 -1.97958 0
M  V30 3192 C 313.79 -0.122361 -1.69659 0
M  V30 3193 O 314.975 -0.30939 -1.9172 0
M  V30 3194 C 312.105 -0.959772 -3.33775 0
M  V30 3195 C 311.059 -2.03689 -3.76424 0
M  V30 3196 C 310.385 -1.61075 -5.09862 0
M  V30 3197 C 311.685 -3.4518 -3.9198 0
M  V30 3198 H 313.379 -2.1788 -2.0535 0
M  V30 3199 H 310.925 -1.04891 -0.986605 0
M  V30 3200 H 312.878 -0.886678 -4.11966 0
M  V30 3201 H 311.602 0.0163404 -3.26596 0
M  V30 3202 H 310.261 -2.10012 -3.00484 0
M  V30 3203 H 309.909 -0.622107 -4.99138 0
M  V30 3204 H 309.609 -2.33143 -5.39368 0
M  V30 3205 H 311.133 -1.55201 -5.90546 0
M  V30 3206 H 312.547 -3.4145 -4.60526 0
M  V30 3207 H 310.944 -4.1559 -4.32903 0
M  V30 3208 H 312.014 -3.84903 -2.94919 0
M  V30 3209 N 313.357 1.07166 -1.15556 0
M  V30 3210 C 314.603 1.80065 -0.932984 0
M  V30 3211 C 314.936 1.86586 0.53845 0
M  V30 3212 O 314.211 1.35098 1.39924 0
M  V30 3213 C 314.494 3.25022 -1.55025 0
M  V30 3214 C 314.347 3.26634 -3.09242 0
M  V30 3215 C 315.666 4.22341 -1.2376 0
M  V30 3216 H 312.785 0.653697 -0.340366 0
M  V30 3217 H 315.427 1.25389 -1.4275 0
M  V30 3218 H 313.577 3.71712 -1.12972 0
M  V30 3219 H 315.249 2.88173 -3.60214 0
M  V30 3220 H 313.492 2.65539 -3.43033 0
M  V30 3221 H 314.163 4.28854 -3.47546 0
M  V30 3222 H 316.639 3.8405 -1.60139 0
M  V30 3223 H 315.515 5.22053 -1.69564 0
M  V30 3224 H 315.776 4.41828 -0.154938 0
M  V30 3225 N 314.835 0.952656 1.25548 0
M  V30 3226 C 316.112 0.523818 1.88456 0
M  V30 3227 C 316.492 -0.998871 1.85973 0
M  V30 3228 O 315.84 -1.86381 1.3219 0
M  V30 3229 C 316.05 1.0982 3.31271 0
M  V30 3230 C 317.398 1.17385 4.08051 0
M  V30 3231 O 318.422 1.04961 3.40384 0
M  V30 3232 O 317.281 1.36852 5.29088 0
M  V30 3233 H 314.375 0.172485 0.808813 0
M  V30 3234 H 316.921 1.04596 1.33633 0
M  V30 3235 H 315.693 2.1415 3.27499 0
M  V30 3236 H 315.316 0.559191 3.93648 0
M  V30 3237 N 316.313 -1.40141 0.720998 0
M  V30 3238 C 317.276 -2.29058 0.0805834 0
M  V30 3239 C 318.276 -1.45632 -0.681758 0
M  V30 3240 O 319.466 -1.6648 -0.512856 0
M  V30 3241 C 316.598 -3.28925 -0.895593 0
M  V30 3242 H 317.791 -2.87191 0.863793 0
M  V30 3243 H 315.344 -1.48553 0.485975 0
M  V30 3244 H 316.079 -2.75822 -1.70566 0
M  V30 3245 H 315.864 -3.90519 -0.351766 0
M  V30 3246 H 317.354 -3.95494 -1.34069 0
M  V30 3247 N 317.792 -0.46758 -1.50504 0
M  V30 3248 C 318.755 0.317059 -2.26996 0
M  V30 3249 C 319.755 0.923513 -1.31635 0
M  V30 3250 O 320.945 0.793239 -1.55091 0
M  V30 3251 C 318.077 1.45134 -3.08462 0
M  V30 3252 H 319.27 -0.353723 -2.97807 0
M  V30 3253 H 316.823 -0.221545 -1.54722 0
M  V30 3254 H 317.558 2.15728 -2.4214 0
M  V30 3255 H 317.343 1.02232 -3.78538 0
M  V30 3256 H 318.833 2.00493 -3.66323 0
M  V30 3257 N 319.27 1.56325 -0.20005 0
M  V30 3258 C 320.495 2.02548 0.44597 0
M  V30 3259 C 320.92 1.07922 1.5406 0
M  V30 3260 O 320.278 0.0635775 1.81188 0
M  V30 3261 C 320.326 3.47175 0.974761 0
M  V30 3262 O 319.43 3.55671 2.08739 0
M  V30 3263 H 318.771 0.655862 0.103638 0
M  V30 3264 H 321.301 2.02201 -0.312381 0
M  V30 3265 H 321.311 3.87067 1.2901 0
M  V30 3266 H 319.986 4.15538 0.17347 0
M  V30 3267 H 318.563 3.27657 1.78032 0
M  V30 3268 N 320.748 -0.0735177 1.57428 0
M  V30 3269 C 321.711 -1.07192 2.02589 0
M  V30 3270 C 322.711 -1.31695 0.922661 0
M  V30 3271 O 323.901 -1.27445 1.18758 0
M  V30 3272 C 321.033 -2.41599 2.40506 0
M  V30 3273 H 322.226 -0.682727 2.92025 0
M  V30 3274 H 319.779 -0.319193 1.53006 0
M  V30 3275 H 320.514 -2.85354 1.5409 0
M  V30 3276 H 320.299 -2.25156 3.21009 0
M  V30 3277 H 321.789 -3.13367 2.76027 0
M  V30 3278 N 322.226 -1.5378 -0.344866 0
M  V30 3279 C 323.472 -1.71216 -1.08687 0
M  V30 3280 C 323.805 -0.473281 -1.88345 0
M  V30 3281 O 323.08 0.52968 -1.87149 0
M  V30 3282 C 323.363 -2.97486 -2.02914 0
M  V30 3283 C 323.216 -4.31579 -1.26727 0
M  V30 3284 C 324.535 -3.19422 -3.0275 0
M  V30 3285 H 321.654 -0.62301 -0.393735 0
M  V30 3286 H 324.296 -1.8645 -0.365563 0
M  V30 3287 H 322.446 -2.84629 -2.64421 0
M  V30 3288 H 324.118 -4.56284 -0.67845 0
M  V30 3289 H 322.361 -4.30049 -0.569273 0
M  V30 3290 H 323.032 -5.16106 -1.95803 0
M  V30 3291 H 325.508 -3.316 -2.51357 0
M  V30 3292 H 324.384 -4.09169 -3.65885 0
M  V30 3293 H 324.645 -2.35656 -3.74057 0
M  V30 3294 N 323.704 0.605807 -1.45491 0
M  V30 3295 C 324.932 1.39136 -1.5313 0
M  V30 3296 C 325.347 1.88082 -0.164507 0
M  V30 3297 O 324.704 1.62316 0.834247 0
M  V30 3298 C 324.755 2.59463 -2.51716 0
M  V30 3299 O 324.476 2.12551 -3.83084 0
M  V30 3300 C 325.977 3.52301 -2.6907 0
M  V30 3301 H 323.197 0.425849 -0.51855 0
M  V30 3302 H 325.741 0.73865 -1.90694 0
M  V30 3303 H 323.896 3.20772 -2.17219 0
M  V30 3304 H 324.31 2.90744 -4.36541 0
M  V30 3305 H 325.784 4.33271 -3.42024 0
M  V30 3306 H 326.261 4.02757 -1.75167 0
M  V30 3307 H 326.867 2.96845 -3.04571 0
M  V30 3308 N 325.182 1.32811 0.848464 0
M  V30 3309 C 326.092 1.24278 1.98978 0
M  V30 3310 C 327.108 0.155176 1.73307 0
M  V30 3311 O 328.284 0.376999 1.9784 0
M  V30 3312 C 325.349 0.972444 3.32783 0
M  V30 3313 C 324.41 2.14911 3.71634 0
M  V30 3314 C 323.643 1.89157 4.99054 0
M  V30 3315 O 323.866 0.837165 5.64223 0
M  V30 3316 O 322.8 2.75433 5.35183 0
M  V30 3317 H 326.626 2.20238 2.09115 0
M  V30 3318 H 324.211 1.12762 0.980052 0
M  V30 3319 H 326.093 0.838432 4.12975 0
M  V30 3320 H 324.768 0.043051 3.23671 0
M  V30 3321 H 323.675 2.33862 2.91992 0
M  V30 3322 H 325.008 3.06151 3.85399 0
M  V30 3323 N 326.66 -1.06551 1.16123 0
M  V30 3324 C 327.623 -2.12132 0.867906 0
M  V30 3325 C 328.623 -1.60224 -0.135944 0
M  V30 3326 O 329.813 -1.73943 0.0946422 0
M  V30 3327 C 326.945 -3.396 0.297419 0
M  V30 3328 H 328.138 -2.39586 1.80385 0
M  V30 3329 H 325.691 -1.22574 0.969812 0
M  V30 3330 H 326.426 -3.17794 -0.64633 0
M  V30 3331 H 326.211 -3.78581 1.02073 0
M  V30 3332 H 327.701 -4.17455 0.110052 0
M  V30 3333 N 328.138 -0.959301 -1.25041 0
M  V30 3334 C 329.384 -0.617525 -1.9317 0
M  V30 3335 C 329.717 0.843981 -1.74902 0
M  V30 3336 O 328.992 1.60615 -1.09696 0
M  V30 3337 C 329.275 -0.982736 -3.46431 0
M  V30 3338 C 329.128 -2.50032 -3.73904 0
M  V30 3339 C 330.447 -0.511176 -4.37121 0
M  V30 3340 H 327.566 -0.22582 -0.701552 0
M  V30 3341 H 330.208 -1.19679 -1.4757 0
M  V30 3342 H 328.358 -0.489806 -3.854 0
M  V30 3343 H 330.03 -3.06737 -3.44544 0
M  V30 3344 H 328.273 -2.93598 -3.19348 0
M  V30 3345 H 328.944 -2.70635 -4.81103 0
M  V30 3346 H 331.42 -0.934075 -4.0548 0
M  V30 3347 H 330.296 -0.795361 -5.43107 0
M  V30 3348 H 330.557 0.588834 -4.38161 0
M  V30 3349 N 329.616 1.39756 -0.72842 0
M  V30 3350 C 330.563 2.30647 -0.0841519 0
M  V30 3351 C 331.533 1.48869 0.7367 0
M  V30 3352 O 332.718 1.77574 0.698015 0
M  V30 3353 C 329.858 3.35165 0.822091 0
M  V30 3354 C 328.971 4.31999 -0.0106663 0
M  V30 3355 C 328.106 5.23585 0.896241 0
M  V30 3356 C 327.145 6.12072 0.0583381 0
M  V30 3357 N 326.282 6.96035 0.920818 0
M  V30 3358 H 331.122 2.85173 -0.864891 0
M  V30 3359 H 328.659 1.40422 -0.438179 0
M  V30 3360 H 330.617 3.94345 1.36189 0
M  V30 3361 H 329.247 2.8211 1.56888 0
M  V30 3362 H 328.299 3.74492 -0.66781 0
M  V30 3363 H 329.611 4.9443 -0.658825 0
M  V30 3364 H 328.765 5.87759 1.50412 0
M  V30 3365 H 327.504 4.61459 1.57819 0
M  V30 3366 H 326.509 5.46916 -0.562389 0
M  V30 3367 H 327.734 6.76261 -0.6203 0
M  V30 3368 H 325.68 6.36485 1.58818 0
M  V30 3369 H 325.597 7.55284 0.32899 0
M  V30 3370 H 326.865 7.64646 1.51447 0
M  V30 3371 N 331.094 0.475555 1.50254 0
M  V30 3372 C 332.057 -0.305016 2.27161 0
M  V30 3373 C 333.057 -0.916519 1.32123 0
M  V30 3374 O 334.247 -0.785003 1.5551 0
M  V30 3375 C 331.379 -1.43496 3.09227 0
M  V30 3376 H 332.572 0.369511 2.97615 0
M  V30 3377 H 330.125 0.229747 1.54602 0
M  V30 3378 H 330.86 -2.14441 2.43281 0
M  V30 3379 H 330.645 -1.00223 3.79075 0
M  V30 3380 H 332.135 -1.98548 3.67381 0
M  V30 3381 N 332.573 -1.56217 0.208337 0
M  V30 3382 C 333.505 -2.1695 -0.739276 0
M  V30 3383 C 334.518 -1.13492 -1.1672 0
M  V30 3384 O 335.707 -1.40529 -1.10063 0
M  V30 3385 C 332.807 -2.72755 -2.01142 0
M  V30 3386 C 331.98 -4.0125 -1.74118 0
M  V30 3387 C 331.039 -4.41749 -2.85909 0
M  V30 3388 O 330.065 -5.08912 -2.54946 0
M  V30 3389 N 331.267 -4.06342 -4.14568 0
M  V30 3390 H 334.032 -2.98893 -0.219837 0
M  V30 3391 H 331.593 -1.61878 0.0268445 0
M  V30 3392 H 333.585 -2.96826 -2.75094 0
M  V30 3393 H 332.155 -1.95191 -2.4417 0
M  V30 3394 H 331.375 -3.85173 -0.838775 0
M  V30 3395 H 332.663 -4.851 -1.53477 0
M  V30 3396 H 332.061 -3.52345 -4.42571 0
M  V30 3397 H 330.618 -4.35335 -4.85105 0
M  V30 3398 N 334.051 0.0651679 -1.57465 0
M  V30 3399 C 335.298 0.763063 -1.87573 0
M  V30 3400 C 335.626 1.77242 -0.800961 0
M  V30 3401 O 334.881 1.94651 0.202316 0
M  V30 3402 C 335.18 1.50081 -3.24362 0
M  V30 3403 C 334.846 0.630816 -4.46466 0
M  V30 3404 C 333.508 0.391082 -4.79608 0
M  V30 3405 C 335.86 0.0279465 -5.21193 0
M  V30 3406 C 333.188 -0.460894 -5.84887 0
M  V30 3407 C 335.54 -0.811522 -6.27373 0
M  V30 3408 C 334.204 -1.06106 -6.59013 0
M  V30 3409 H 333.474 0.279224 -0.686378 0
M  V30 3410 H 336.121 0.0236726 -1.91485 0
M  V30 3411 H 334.426 2.31258 -3.16271 0
M  V30 3412 H 336.123 2.04571 -3.44894 0
M  V30 3413 H 332.713 0.8278 -4.2053 0
M  V30 3414 H 336.897 0.200262 -4.95896 0
M  V30 3415 H 332.153 -0.662907 -6.07796 0
M  V30 3416 H 336.327 -1.28537 -6.84435 0
M  V30 3417 H 333.954 -1.723 -7.40417 0
M  V30 3418 N 335.529 1.53961 0.336706 0
M  V30 3419 C 336.476 1.82428 1.41381 0
M  V30 3420 C 337.446 0.670444 1.51968 0
M  V30 3421 O 338.631 0.915565 1.67398 0
M  V30 3422 C 335.771 2.04564 2.77934 0
M  V30 3423 C 334.884 3.32267 2.76084 0
M  V30 3424 C 334.019 3.44434 4.04399 0
M  V30 3425 C 333.058 4.66061 3.96804 0
M  V30 3426 N 332.195 4.75224 5.16823 0
M  V30 3427 H 337.035 2.74324 1.16405 0
M  V30 3428 H 334.572 1.35869 0.563752 0
M  V30 3429 H 336.53 2.15388 3.57301 0
M  V30 3430 H 335.16 1.15974 3.01247 0
M  V30 3431 H 334.212 3.3025 1.88784 0
M  V30 3432 H 335.524 4.21733 2.66351 0
M  V30 3433 H 334.678 3.54728 4.92192 0
M  V30 3434 H 333.417 2.53037 4.16921 0
M  V30 3435 H 332.422 4.55838 3.07396 0
M  V30 3436 H 333.647 5.58829 3.85858 0
M  V30 3437 H 331.593 3.86739 5.29876 0
M  V30 3438 H 331.51 5.58636 5.09374 0
M  V30 3439 H 332.778 4.89835 6.06367 0
M  V30 3440 N 337.007 -0.598083 1.45811 0
M  V30 3441 C 338.256 -1.35295 1.49594 0
M  V30 3442 C 338.569 -1.95057 0.145679 0
M  V30 3443 O 339.775 -2.71431 0.0612099 0
M  V30 3444 C 338.231 -2.45124 2.63519 0
M  V30 3445 C 337.839 -1.91732 4.04899 0
M  V30 3446 C 339.583 -3.2205 2.76558 0
M  V30 3447 C 337.49 -2.991 5.1019 0
M  V30 3448 H 336.42 -0.508552 0.556679 0
M  V30 3449 H 339.071 -0.639977 1.71978 0
M  V30 3450 H 337.453 -3.19149 2.34435 0
M  V30 3451 H 338.627 -1.24352 4.43704 0
M  V30 3452 H 336.942 -1.27522 3.96393 0
M  V30 3453 H 339.539 -4.0215 3.52391 0
M  V30 3454 H 339.882 -3.73663 1.83526 0
M  V30 3455 H 340.415 -2.55127 3.05213 0
M  V30 3456 H 337.154 -2.52393 6.04961 0
M  V30 3457 H 336.674 -3.65017 4.75944 0
M  V30 3458 H 338.353 -3.63318 5.35359 0
M  V30 3459 N 338.485 -1.33259 -0.841409 0
M  V30 3460 C 339.433 -1.23279 -1.97244 0
M  V30 3461 C 340.427 -0.134706 -1.68864 0
M  V30 3462 O 341.633 -0.298501 -1.77508 0
M  V30 3463 H 338.008 -0.382497 -0.647457 0
M  V30 3464 H 339.979 -2.18906 -2.02787 0
M  V30 3465 C 338.728 -0.986268 -3.33419 0
M  V30 3466 H 338.051 -1.82347 -3.55794 0
M  V30 3467 H 339.491 -0.956728 -4.13065 0
M  V30 3468 C 337.95 0.310842 -3.35463 0
M  V30 3469 O 338.48 1.31838 -3.79449 0
M  V30 3470 N 336.686 0.337485 -2.88634 0
M  V30 3471 H 336.233 -0.482967 -2.53032 0
M  V30 3472 H 336.191 1.20518 -2.90384 0
M  V30 3473 N 339.963 1.05934 -1.16686 0
M  V30 3474 C 340.913 2.11764 -0.844978 0
M  V30 3475 C 341.897 1.59922 0.177178 0
M  V30 3476 O 343.089 1.76983 -0.0241768 0
M  V30 3477 C 340.218 3.41493 -0.351812 0
M  V30 3478 C 339.304 4.00152 -1.40496 0
M  V30 3479 N 339.695 4.32874 -2.61636 0
M  V30 3480 C 337.993 4.278 -1.26106 0
M  V30 3481 C 338.694 4.79552 -3.29249 0
M  V30 3482 N 337.67 4.79211 -2.56628 0
M  V30 3483 H 341.472 2.34916 -1.76612 0
M  V30 3484 H 338.986 1.23511 -1.05446 0
M  V30 3485 H 340.983 4.16773 -0.102796 0
M  V30 3486 H 339.643 3.19778 0.56322 0
M  V30 3487 H 340.654 4.23109 -2.98663 0
M  V30 3488 H 337.331 4.15511 -0.407081 0
M  V30 3489 H 338.721 5.14045 -4.32675 0
M  V30 3490 N 341.441 0.965919 1.2453 0
M  V30 3491 C 342.852 0.665929 1.7442 0
M  V30 3492 C 343.203 -0.818407 1.78316 0
M  V30 3493 O 342.328 -1.64037 1.41141 0
M  V30 3494 C 342.923 1.20211 3.16757 0
M  V30 3495 C 341.482 0.952059 3.6416 0
M  V30 3496 C 340.629 1.33848 2.42858 0
M  V30 3497 H 343.58 1.14144 1.10258 0
M  V30 3498 H 343.601 0.567544 3.76244 0
M  V30 3499 H 343.113 2.28244 3.13889 0
M  V30 3500 H 341.214 -0.112821 3.72429 0
M  V30 3501 H 341.327 1.59645 4.51719 0
M  V30 3502 H 339.691 0.756864 2.43195 0
M  V30 3503 H 340.474 2.42827 2.42673 0
M  V30 3504 N 342.919 -1.39368 0.735821 0
M  V30 3505 C 344.196 -1.94465 0.210395 0
M  V30 3506 C 344.576 -1.67254 -1.28799 0
M  V30 3507 O 343.924 -1.00123 -2.05396 0
M  V30 3508 C 344.134 -3.4472 0.544897 0
M  V30 3509 C 345.482 -4.21708 0.494689 0
M  V30 3510 O 346.506 -3.52922 0.482136 0
M  V30 3511 O 345.365 -5.44299 0.489947 0
M  V30 3512 H 342.459 -0.826096 0.0386666 0
M  V30 3513 H 345.005 -1.48863 0.814735 0
M  V30 3514 H 343.777 -3.57963 1.58045 0
M  V30 3515 H 343.4 -3.97502 -0.08837 0
M  V30 3516 N 344.397 -0.483516 -1.5 0
M  V30 3517 C 345.622 0.0667119 -2.07293 0
M  V30 3518 C 346.047 1.3164 -1.3436 0
M  V30 3519 O 345.405 1.76945 -0.394987 0
M  V30 3520 C 345.453 0.321126 -3.59167 0
M  V30 3521 O 344.557 1.39927 -3.87936 0
M  V30 3522 H 343.898 -0.0184758 -0.663743 0
M  V30 3523 H 346.428 -0.678125 -1.93035 0
M  V30 3524 H 346.438 0.557906 -4.04168 0
M  V30 3525 H 345.113 -0.592007 -4.11665 0
M  V30 3526 H 343.69 1.14882 -3.54763 0
M  V30 3527 N 345.875 1.56104 -0.216619 0
M  V30 3528 C 346.785 2.23694 0.706982 0
M  V30 3529 C 347.801 1.24295 1.21765 0
M  V30 3530 O 348.977 1.57094 1.2603 0
M  V30 3531 C 346.042 2.8998 1.90033 0
M  V30 3532 C 345.103 4.04708 1.43213 0
M  V30 3533 C 344.336 4.67824 2.56859 0
M  V30 3534 O 344.559 4.29913 3.74874 0
M  V30 3535 O 343.493 5.56905 2.28343 0
M  V30 3536 H 347.319 3.03272 0.161235 0
M  V30 3537 H 344.904 1.49394 0.0136177 0
M  V30 3538 H 346.786 3.31837 2.59735 0
M  V30 3539 H 345.461 2.13365 2.43428 0
M  V30 3540 H 344.368 3.6743 0.70327 0
M  V30 3541 H 345.701 4.83051 0.944615 0
M  V30 3542 N 347.353 -0.0568162 1.57498 0
M  V30 3543 C 348.63 -0.786954 1.79071 0
M  V30 3544 C 349.01 -1.95028 0.80792 0
M  V30 3545 O 348.358 -2.27968 -0.155858 0
M  V30 3546 C 348.568 -1.24594 3.26002 0
M  V30 3547 C 349.916 -1.67323 3.90241 0
M  V30 3548 O 350.94 -1.34124 3.29984 0
M  V30 3549 O 349.799 -2.28842 4.9628 0
M  V30 3550 H 346.893 -0.378262 0.735423 0
M  V30 3551 H 349.439 -0.035734 1.69662 0
M  V30 3552 H 348.211 -0.41423 3.89101 0
M  V30 3553 H 347.834 -2.05803 3.40192 0
M  V30 3554 N 348.832 -1.54138 -0.328536 0
M  V30 3555 C 349.762 -1.86167 -1.40939 0
M  V30 3556 C 350.743 -0.718044 -1.54202 0
M  V30 3557 O 351.928 -0.971328 -1.68163 0
M  V30 3558 C 349.058 -2.08461 -2.77779 0
M  V30 3559 C 348.012 -3.24299 -2.7931 0
M  V30 3560 C 347.338 -3.31955 -4.19178 0
M  V30 3561 C 348.638 -4.62065 -2.43502 0
M  V30 3562 H 350.332 -2.76689 -1.14383 0
M  V30 3563 H 347.878 -1.33132 -0.548806 0
M  V30 3564 H 349.831 -2.29453 -3.53454 0
M  V30 3565 H 348.555 -1.14684 -3.05802 0
M  V30 3566 H 347.214 -3.03187 -2.0609 0
M  V30 3567 H 346.862 -2.35745 -4.44335 0
M  V30 3568 H 346.562 -4.09805 -4.2111 0
M  V30 3569 H 348.086 -3.55175 -4.96672 0
M  V30 3570 H 349.5 -4.8297 -3.08889 0
M  V30 3571 H 347.897 -5.42429 -2.56693 0
M  V30 3572 H 348.967 -4.64652 -1.38659 0
M  V30 3573 N 350.31 0.590341 -1.46126 0
M  V30 3574 C 351.273 1.68194 -1.55703 0
M  V30 3575 C 352.273 1.54808 -0.434868 0
M  V30 3576 O 353.463 1.59564 -0.698928 0
M  V30 3577 C 350.595 3.07575 -1.47005 0
M  V30 3578 H 351.788 1.61064 -2.52979 0
M  V30 3579 H 349.341 0.807541 -1.33823 0
M  V30 3580 H 350.076 3.20268 -0.509785 0
M  V30 3581 H 349.861 3.187 -2.28414 0
M  V30 3582 H 351.351 3.87055 -1.56776 0
M  V30 3583 N 351.788 1.33704 0.83433 0
M  V30 3584 C 353.035 1.25417 1.58987 0
M  V30 3585 C 353.363 -0.178869 1.93676 0
M  V30 3586 O 352.618 -1.13723 1.59265 0
M  V30 3587 C 352.917 2.07926 2.90692 0
M  V30 3588 C 352.583 3.57066 2.75345 0
M  V30 3589 C 351.245 3.97724 2.70867 0
M  V30 3590 C 353.597 4.51817 2.59828 0
M  V30 3591 C 350.925 5.31344 2.48778 0
M  V30 3592 C 353.277 5.85604 2.39272 0
M  V30 3593 C 351.941 6.25439 2.33199 0
M  V30 3594 H 351.211 0.458934 0.581774 0
M  V30 3595 H 353.858 1.65335 0.966261 0
M  V30 3596 H 352.163 1.608 3.57282 0
M  V30 3597 H 353.86 1.98868 3.48213 0
M  V30 3598 H 350.45 3.24785 2.79665 0
M  V30 3599 H 354.634 4.21311 2.62319 0
M  V30 3600 H 349.89 5.61241 2.42526 0
M  V30 3601 H 354.064 6.58623 2.2625 0
M  V30 3602 H 351.691 7.28914 2.15843 0
M  V30 3603 N 353.266 -1.05314 1.17247 0
M  V30 3604 C 354.196 -2.1498 0.911362 0
M  V30 3605 C 355.177 -1.69471 -0.146169 0
M  V30 3606 O 356.362 -1.942 0.003812 0
M  V30 3607 C 353.492 -3.4472 0.422528 0
M  V30 3608 C 352.446 -4.03789 1.4191 0
M  V30 3609 C 351.772 -5.28858 0.788274 0
M  V30 3610 C 353.072 -4.41418 2.7919 0
M  V30 3611 H 354.766 -2.3708 1.82848 0
M  V30 3612 H 352.312 -1.13938 0.880569 0
M  V30 3613 H 354.265 -4.20787 0.227289 0
M  V30 3614 H 352.989 -3.22269 -0.530123 0
M  V30 3615 H 351.648 -3.2979 1.60106 0
M  V30 3616 H 351.296 -5.02709 -0.171173 0
M  V30 3617 H 350.996 -5.69338 1.45353 0
M  V30 3618 H 352.52 -6.07612 0.603282 0
M  V30 3619 H 353.934 -5.08524 2.64719 0
M  V30 3620 H 352.331 -4.92913 3.42282 0
M  V30 3621 H 353.401 -3.51819 3.33693 0
M  V30 3622 N 354.744 -0.972509 -1.24016 0
M  V30 3623 C 355.974 -0.653853 -1.9598 0
M  V30 3624 C 356.382 0.781801 -1.72292 0
M  V30 3625 O 355.725 1.53677 -1.00644 0
M  V30 3626 C 355.787 -0.854608 -3.49194 0
M  V30 3627 C 355.451 -2.27082 -3.96589 0
M  V30 3628 C 356.448 -3.24892 -4.05883 0
M  V30 3629 C 354.133 -2.5998 -4.29786 0
M  V30 3630 C 356.127 -4.53684 -4.47716 0
M  V30 3631 C 353.814 -3.88997 -4.71301 0
M  V30 3632 C 354.812 -4.85661 -4.80232 0
M  V30 3633 O 354.5 -6.12376 -5.20818 0
M  V30 3634 H 354.232 -0.242572 -0.630979 0
M  V30 3635 H 356.786 -1.30431 -1.58673 0
M  V30 3636 H 355.016 -0.146985 -3.86421 0
M  V30 3637 H 356.705 -0.534311 -4.02368 0
M  V30 3638 H 357.471 -3.00805 -3.80449 0
M  V30 3639 H 353.35 -1.85457 -4.22051 0
M  V30 3640 H 356.894 -5.29135 -4.54601 0
M  V30 3641 H 352.791 -4.12882 -4.96184 0
M  V30 3642 H 353.559 -6.16013 -5.38953 0
M  V30 3643 N 356.222 1.38976 -0.743202 0
M  V30 3644 C 357.47 1.99948 -0.29417 0
M  V30 3645 C 357.791 1.59279 1.12495 0
M  V30 3646 O 357.061 0.844808 1.76748 0
M  V30 3647 H 355.641 0.739473 -0.105774 0
M  V30 3648 H 358.303 1.699 -0.954986 0
M  V30 3649 H 357.399 3.10142 -0.349056 0
M  V30 3650 N 357.7 0.491464 1.49741 0
M  V30 3651 C 358.928 -0.0535151 2.06831 0
M  V30 3652 C 359.343 -1.31683 1.35296 0
M  V30 3653 O 358.7 -1.77402 0.42836 0
M  V30 3654 C 358.751 -0.320835 3.60073 0
M  V30 3655 O 358.472 0.892394 4.28915 0
M  V30 3656 C 359.973 -0.910519 4.33848 0
M  V30 3657 H 357.193 0.0161909 0.670805 0
M  V30 3658 H 359.737 0.68609 1.92647 0
M  V30 3659 H 357.892 -1.0104 3.73991 0
M  V30 3660 H 358.306 0.649401 5.20464 0
M  V30 3661 H 359.78 -1.04721 5.41976 0
M  V30 3662 H 360.257 -1.90589 3.95692 0
M  V30 3663 H 360.863 -0.258712 4.24512 0
M  V30 3664 N 359.178 -1.55987 0.224894 0
M  V30 3665 C 360.427 -1.97566 -0.406273 0
M  V30 3666 C 360.74 -1.11569 -1.6066 0
M  V30 3667 O 361.946 -1.43062 -2.3075 0
M  V30 3668 C 360.402 -3.51474 -0.774207 0
M  V30 3669 C 360.01 -4.46179 0.403496 0
M  V30 3670 C 361.754 -4.01758 -1.37079 0
M  V30 3671 C 359.661 -5.91399 0.0129412 0
M  V30 3672 H 358.591 -0.737777 -0.155565 0
M  V30 3673 H 361.242 -1.80659 0.321635 0
M  V30 3674 H 359.624 -3.63994 -1.55963 0
M  V30 3675 H 360.798 -4.45409 1.18101 0
M  V30 3676 H 359.113 -4.06255 0.913536 0
M  V30 3677 H 361.71 -5.07756 -1.67596 0
M  V30 3678 H 362.053 -3.47805 -2.28773 0
M  V30 3679 H 362.586 -3.92475 -0.648733 0
M  V30 3680 H 359.325 -6.49341 0.896451 0
M  V30 3681 H 358.845 -5.95356 -0.728821 0
M  V30 3682 H 360.524 -6.45683 -0.412582 0
M  V30 3683 N 360.656 0.0484629 -1.57525 0
M  V30 3684 C 361.586 1.0549 -2.08313 0
M  V30 3685 C 362.567 1.38929 -0.981463 0
M  V30 3686 O 363.752 1.48151 -1.25558 0
M  V30 3687 C 360.882 2.36162 -2.54646 0
M  V30 3688 C 359.836 2.17016 -3.68901 0
M  V30 3689 C 359.162 3.53278 -4.01371 0
M  V30 3690 C 360.462 1.57219 -4.98076 0
M  V30 3691 H 362.156 0.632195 -2.92649 0
M  V30 3692 H 359.702 0.302654 -1.40784 0
M  V30 3693 H 361.655 3.06882 -2.88793 0
M  V30 3694 H 360.379 2.80456 -1.67368 0
M  V30 3695 H 359.038 1.48733 -3.35073 0
M  V30 3696 H 358.686 3.95185 -3.11188 0
M  V30 3697 H 358.386 3.41299 -4.78318 0
M  V30 3698 H 359.91 4.25391 -4.38035 0
M  V30 3699 H 361.324 2.17832 -5.30304 0
M  V30 3700 H 359.721 1.55871 -5.79503 0
M  V30 3701 H 360.791 0.535956 -4.81929 0
M  V30 3702 N 362.134 1.5431 0.320358 0
M  V30 3703 C 363.362 1.76636 1.07738 0
M  V30 3704 C 363.777 0.51649 1.81598 0
M  V30 3705 O 363.134 -0.512942 1.75143 0
M  V30 3706 C 363.185 2.96158 2.07299 0
M  V30 3707 O 362.906 4.16313 1.36438 0
M  V30 3708 C 364.407 3.3072 2.95193 0
M  V30 3709 H 361.627 0.589597 0.320339 0
M  V30 3710 H 364.171 2.01207 0.36551 0
M  V30 3711 H 362.326 2.73851 2.74016 0
M  V30 3712 H 362.74 4.83565 2.03138 0
M  V30 3713 H 364.214 4.17643 3.60941 0
M  V30 3714 H 364.691 2.48026 3.62463 0
M  V30 3715 H 365.297 3.55117 2.34034 0
M  V30 3716 N 363.613 -0.582584 1.46437 0
M  V30 3717 C 364.89 -1.34276 1.4223 0
M  V30 3718 C 365.27 -2.10835 0.10583 0
M  V30 3719 O 364.618 -2.09485 -0.912596 0
M  V30 3720 C 364.828 -2.26865 2.65204 0
M  V30 3721 C 366.176 -2.88691 3.11356 0
M  V30 3722 O 367.2 -2.37178 2.65753 0
M  V30 3723 O 366.059 -3.82255 3.90568 0
M  V30 3724 H 363.153 -0.603326 0.565621 0
M  V30 3725 H 365.699 -0.603591 1.58603 0
M  V30 3726 H 364.471 -1.69724 3.52576 0
M  V30 3727 H 364.094 -3.08122 2.5129 0
M  V30 3728 N 365.091 -1.34144 -0.827227 0
M  V30 3729 C 366.339 -1.26009 -1.58007 0
M  V30 3730 C 366.66 0.170971 -1.94249 0
M  V30 3731 O 365.93 1.10256 -1.61927 0
M  V30 3732 H 364.51 -0.463414 -0.585881 0
M  V30 3733 H 367.172 -1.68005 -0.987951 0
M  V30 3734 H 366.268 -1.86187 -2.50481 0
M  V30 3735 N 366.569 1.04691 -1.17803 0
M  V30 3736 C 367.516 2.12557 -0.899343 0
M  V30 3737 C 368.486 1.65339 0.158771 0
M  V30 3738 O 369.671 1.90789 0.0204797 0
M  V30 3739 C 366.811 3.42481 -0.424315 0
M  V30 3740 C 365.924 4.03346 -1.54713 0
M  V30 3741 C 365.059 5.21208 -1.02546 0
M  V30 3742 C 364.098 5.74089 -2.12339 0
M  V30 3743 N 363.235 6.83247 -1.61612 0
M  V30 3744 H 368.075 2.35734 -1.823 0
M  V30 3745 H 365.612 1.1564 -0.909159 0
M  V30 3746 H 367.57 4.16996 -0.130421 0
M  V30 3747 H 366.2 3.19471 0.462377 0
M  V30 3748 H 365.252 3.2622 -1.95664 0
M  V30 3749 H 366.564 4.38628 -2.37501 0
M  V30 3750 H 365.718 6.02812 -0.685718 0
M  V30 3751 H 364.457 4.87414 -0.167084 0
M  V30 3752 H 363.462 4.91111 -2.47165 0
M  V30 3753 H 364.687 6.0993 -2.98601 0
M  V30 3754 H 362.633 6.5134 -0.780533 0
M  V30 3755 H 362.55 7.17559 -2.38003 0
M  V30 3756 H 363.818 7.68491 -1.30545 0
M  V30 3757 N 368.047 0.979072 1.23499 0
M  V30 3758 C 369.324 0.563674 1.87302 0
M  V30 3759 C 369.704 -0.959199 1.88049 0
M  V30 3760 O 369.052 -1.83535 1.36114 0
M  V30 3761 C 369.262 1.16822 3.28867 0
M  V30 3762 C 370.61 1.26014 4.0547 0
M  V30 3763 O 371.634 1.12158 3.38082 0
M  V30 3764 O 370.493 1.48044 5.26066 0
M  V30 3765 H 367.587 0.189602 0.804972 0
M  V30 3766 H 370.133 1.07407 1.31384 0
M  V30 3767 H 368.905 2.21049 3.22883 0
M  V30 3768 H 368.528 0.642564 3.92373 0
M  V30 3769 N 369.525 -1.3858 0.750561 0
M  V30 3770 C 370.488 -2.28836 0.129152 0
M  V30 3771 C 371.488 -1.47045 -0.650714 0
M  V30 3772 O 372.678 -1.6753 -0.477428 0
M  V30 3773 C 369.81 -3.30751 -0.825622 0
M  V30 3774 H 371.003 -2.85294 0.924516 0
M  V30 3775 H 368.556 -1.47489 0.517376 0
M  V30 3776 H 369.291 -2.79378 -1.64677 0
M  V30 3777 H 369.076 -3.91177 -0.268852 0
M  V30 3778 H 370.566 -3.98249 -1.2565 0
M  V30 3779 N 371.003 -0.499398 -1.49478 0
M  V30 3780 C 372.233 0.0424839 -2.06556 0
M  V30 3781 C 372.641 1.31514 -1.36018 0
M  V30 3782 O 371.984 1.78555 -0.431718 0
M  V30 3783 C 372.046 0.368074 -3.57611 0
M  V30 3784 C 371.71 -0.806631 -4.49825 0
M  V30 3785 C 372.707 -1.69667 -4.91436 0
M  V30 3786 C 370.392 -1.00498 -4.92144 0
M  V30 3787 C 372.386 -2.76923 -5.74101 0
M  V30 3788 C 370.073 -2.08072 -5.74586 0
M  V30 3789 C 371.071 -2.96119 -6.15469 0
M  V30 3790 O 370.759 -4.01836 -6.96264 0
M  V30 3791 H 370.491 -0.0165165 -0.675798 0
M  V30 3792 H 373.045 -0.695497 -1.93267 0
M  V30 3793 H 371.275 1.15963 -3.68903 0
M  V30 3794 H 372.964 0.848381 -3.96935 0
M  V30 3795 H 373.73 -1.55524 -4.59388 0
M  V30 3796 H 369.609 -0.329036 -4.59824 0
M  V30 3797 H 373.153 -3.45676 -6.05932 0
M  V30 3798 H 369.05 -2.22211 -6.06047 0
M  V30 3799 H 369.818 -3.9917 -7.14567 0
M  V30 3800 N 372.481 1.55866 -0.233164 0
M  V30 3801 C 373.709 2.02998 0.399905 0
M  V30 3802 C 374.124 1.11274 1.52524 0
M  V30 3803 O 373.481 0.124528 1.82075 0
M  V30 3804 C 373.532 3.4958 0.920639 0
M  V30 3805 O 373.253 4.37808 -0.159834 0
M  V30 3806 C 374.754 4.12411 1.62578 0
M  V30 3807 H 371.974 0.664006 0.0966281 0
M  V30 3808 H 374.518 2.0143 -0.353013 0
M  V30 3809 H 372.673 3.51727 1.62379 0
M  V30 3810 H 373.087 5.23981 0.23337 0
M  V30 3811 H 374.561 5.16711 1.94201 0
M  V30 3812 H 375.038 3.5809 2.54299 0
M  V30 3813 H 375.644 4.14148 0.967553 0
M  V30 3814 N 373.959 -0.0401083 1.57549 0
M  V30 3815 C 374.906 -1.04413 2.05831 0
M  V30 3816 C 375.876 -1.36585 0.945184 0
M  V30 3817 O 377.061 -1.47112 1.21502 0
M  V30 3818 C 374.201 -2.34336 2.53339 0
M  V30 3819 C 373.314 -2.08419 3.78398 0
M  V30 3820 C 372.449 -3.32133 4.14561 0
M  V30 3821 C 371.488 -3.01721 5.3257 0
M  V30 3822 N 370.625 -4.17855 5.64218 0
M  V30 3823 H 375.465 -0.625442 2.91363 0
M  V30 3824 H 373.002 -0.297218 1.44066 0
M  V30 3825 H 374.96 -3.10234 2.78946 0
M  V30 3826 H 373.59 -2.73948 1.7074 0
M  V30 3827 H 372.642 -1.23069 3.59942 0
M  V30 3828 H 373.954 -1.81978 4.64419 0
M  V30 3829 H 373.108 -4.16406 4.41238 0
M  V30 3830 H 371.847 -3.61678 3.2717 0
M  V30 3831 H 370.852 -2.15849 5.05657 0
M  V30 3832 H 372.077 -2.73466 6.21605 0
M  V30 3833 H 370.023 -4.47372 4.79786 0
M  V30 3834 H 369.94 -3.94798 6.44725 0
M  V30 3835 H 371.208 -5.03033 5.95465 0
M  V30 3836 N 375.437 -1.54477 -0.31217 0
M  V30 3837 C 376.347 -1.87695 -1.4074 0
M  V30 3838 C 377.363 -0.769975 -1.56036 0
M  V30 3839 O 378.539 -1.06537 -1.70915 0
M  V30 3840 C 375.604 -2.10755 -2.75287 0
M  V30 3841 C 374.665 -3.34514 -2.69071 0
M  V30 3842 C 373.898 -3.56465 -3.97201 0
M  V30 3843 O 374.121 -2.81637 -4.96021 0
M  V30 3844 O 373.055 -4.49964 -3.9977 0
M  V30 3845 H 376.881 -2.80849 -1.15574 0
M  V30 3846 H 374.466 -1.40526 -0.507228 0
M  V30 3847 H 376.348 -2.27188 -3.54913 0
M  V30 3848 H 375.023 -1.20788 -3.0032 0
M  V30 3849 H 373.93 -3.23456 -1.87955 0
M  V30 3850 H 375.263 -4.24575 -2.48992 0
M  V30 3851 N 376.915 0.57481 -1.46744 0
M  V30 3852 C 378.326 1.15695 -1.46532 0
M  V30 3853 C 378.677 1.95068 -0.210425 0
M  V30 3854 O 377.802 2.05241 0.685944 0
M  V30 3855 C 378.397 2.1048 -2.65487 0
M  V30 3856 C 376.956 2.64002 -2.68291 0
M  V30 3857 C 376.103 1.40026 -2.39349 0
M  V30 3858 H 379.054 0.362325 -1.54509 0
M  V30 3859 H 379.075 2.94074 -2.41455 0
M  V30 3860 H 378.587 1.52683 -3.56805 0
M  V30 3861 H 376.688 3.25646 -1.81067 0
M  V30 3862 H 376.801 3.06197 -3.68483 0
M  V30 3863 H 375.165 1.70106 -1.89568 0
M  V30 3864 H 375.948 0.840485 -3.32852 0
M  V30 3865 N 378.394 1.34581 0.820102 0
M  V30 3866 C 379.622 1.3018 1.60813 0
M  V30 3867 C 380.037 -0.123551 1.88395 0
M  V30 3868 O 379.394 -1.07148 1.47735 0
M  V30 3869 C 379.445 2.09312 2.94739 0
M  V30 3870 O 379.166 3.46288 2.68358 0
M  V30 3871 C 380.667 2.1234 3.89136 0
M  V30 3872 H 377.887 0.447726 0.499782 0
M  V30 3873 H 380.431 1.77237 1.02017 0
M  V30 3874 H 378.586 1.65889 3.50085 0
M  V30 3875 H 379 3.87227 3.53774 0
M  V30 3876 H 380.474 2.72126 4.80262 0
M  V30 3877 H 380.951 1.11854 4.24718 0
M  V30 3878 H 381.557 2.55864 3.39726 0
M  V30 3879 N 379.872 -1.04064 1.18357 0
M  V30 3880 C 381.1 -1.80916 1.00384 0
M  V30 3881 C 381.515 -1.83414 -0.447738 0
M  V30 3882 O 380.872 -1.26962 -1.31099 0
M  V30 3883 C 380.923 -3.26516 1.55144 0
M  V30 3884 O 380.644 -3.2424 2.94618 0
M  V30 3885 C 382.145 -4.20013 1.41789 0
M  V30 3886 H 379.365 -0.569728 0.354474 0
M  V30 3887 H 381.909 -1.31151 1.56906 0
M  V30 3888 H 380.064 -3.73512 1.02798 0
M  V30 3889 H 380.478 -4.15452 3.20156 0
M  V30 3890 H 381.952 -5.20111 1.84901 0
M  V30 3891 H 382.429 -4.37667 0.36661 0
M  V30 3892 H 383.035 -3.78881 1.93207 0
M  V30 3893 N 381.35 -0.985608 -1.22978 0
M  V30 3894 C 382.298 -0.522631 -2.26652 0
M  V30 3895 C 383.292 0.422998 -1.64034 0
M  V30 3896 O 384.498 0.296319 -1.77544 0
M  V30 3897 H 380.873 -0.150597 -0.736766 0
M  V30 3898 H 382.844 -1.40863 -2.63059 0
M  V30 3899 C 381.593 0.154238 -3.47358 0
M  V30 3900 H 380.916 -0.564329 -3.95797 0
M  V30 3901 H 382.356 0.441744 -4.21693 0
M  V30 3902 C 380.815 1.38719 -3.07016 0
M  V30 3903 O 381.345 2.48307 -3.15764 0
M  V30 3904 N 379.551 1.25975 -2.61875 0
M  V30 3905 H 379.098 0.368068 -2.54957 0
M  V30 3906 H 379.056 2.08578 -2.3525 0
M  V30 3907 N 382.828 1.3818 -0.7579 0
M  V30 3908 C 384.077 1.99261 -0.312744 0
M  V30 3909 C 384.39 1.60846 1.11301 0
M  V30 3910 O 385.596 2.14929 1.65885 0
M  V30 3911 C 384.052 3.56294 -0.50821 0
M  V30 3912 C 383.66 4.03657 -1.94333 0
M  V30 3913 C 385.404 4.24313 -0.125982 0
M  V30 3914 C 383.311 5.53347 -2.08712 0
M  V30 3915 H 382.241 0.745456 -0.113185 0
M  V30 3916 H 384.892 1.57889 -0.935056 0
M  V30 3917 H 383.274 3.95575 0.183353 0
M  V30 3918 H 384.448 3.75655 -2.66871 0
M  V30 3919 H 382.763 3.48376 -2.28086 0
M  V30 3920 H 385.36 5.34279 -0.212125 0
M  V30 3921 H 385.703 4.05962 0.921964 0
M  V30 3922 H 386.236 3.90285 -0.769563 0
M  V30 3923 H 382.975 5.76607 -3.11777 0
M  V30 3924 H 382.495 5.83078 -1.4064 0
M  V30 3925 H 384.174 6.19111 -1.87912 0
M  V30 3926 N 384.306 0.507319 1.49211 0
M  V30 3927 C 385.546 -0.0332372 2.04373 0
M  V30 3928 C 385.91 -1.33694 1.37804 0
M  V30 3929 O 387.111 -1.96213 1.83722 0
M  V30 3930 C 385.382 -0.17599 3.56966 0
M  V30 3931 S 386.941 -0.669882 4.33657 0
M  V30 3932 H 383.759 0.00123603 0.710999 0
M  V30 3933 H 386.361 0.682725 1.83191 0
M  V30 3934 H 385.065 0.778053 4.02957 0
M  V30 3935 H 384.596 -0.917005 3.82563 0
M  V30 3936 H 386.611 -1.93806 4.56786 0
M  V30 3937 N 385.784 -1.5574 0.241426 0
M  V30 3938 C 387.03 -1.99104 -0.385406 0
M  V30 3939 C 387.363 -1.1293 -1.57988 0
M  V30 3940 O 386.638 -0.191449 -1.93555 0
M  V30 3941 C 386.921 -3.51087 -0.800616 0
M  V30 3942 C 386.774 -4.48028 0.398874 0
M  V30 3943 C 388.093 -4.08015 -1.64959 0
M  V30 3944 H 385.212 -0.723848 -0.138614 0
M  V30 3945 H 387.854 -1.86903 0.341642 0
M  V30 3946 H 386.004 -3.61615 -1.4201 0
M  V30 3947 H 387.676 -4.49487 1.03726 0
M  V30 3948 H 385.919 -4.21077 1.04293 0
M  V30 3949 H 386.59 -5.51962 0.0651056 0
M  V30 3950 H 389.066 -4.00555 -1.12672 0
M  V30 3951 H 387.942 -5.14635 -1.90898 0
M  V30 3952 H 388.203 -3.56131 -2.61961 0
M  V30 3953 N 387.262 0.0317525 -1.57568 0
M  V30 3954 C 388.509 0.723104 -1.89149 0
M  V30 3955 C 388.837 1.75504 -0.838377 0
M  V30 3956 O 388.092 1.95037 0.160982 0
M  V30 3957 C 388.391 1.43167 -3.27472 0
M  V30 3958 C 388.057 0.535972 -4.47703 0
M  V30 3959 C 386.719 0.289262 -4.8033 0
M  V30 3960 C 389.071 -0.0826125 -5.21135 0
M  V30 3961 C 386.399 -0.584853 -5.83778 0
M  V30 3962 C 388.751 -0.944414 -6.25511 0
M  V30 3963 C 387.415 -1.20061 -6.56614 0
M  V30 3964 H 386.685 0.264602 -0.692146 0
M  V30 3965 H 389.332 -0.0169496 -1.91492 0
M  V30 3966 H 387.637 2.24497 -3.21105 0
M  V30 3967 H 389.334 1.97209 -3.49155 0
M  V30 3968 H 385.924 0.738414 -4.22191 0
M  V30 3969 H 390.108 0.0950302 -4.96209 0
M  V30 3970 H 385.364 -0.79168 -6.06253 0
M  V30 3971 H 389.538 -1.43026 -6.81554 0
M  V30 3972 H 387.165 -1.87967 -7.36595 0
M  V30 3973 N 388.74 1.54641 0.303973 0
M  V30 3974 C 389.703 1.84646 1.35789 0
M  V30 3975 C 390.703 0.7192 1.4382 0
M  V30 3976 O 391.893 0.987491 1.43507 0
M  V30 3977 C 389.025 2.02407 2.74307 0
M  V30 3978 H 390.218 2.78829 1.10429 0
M  V30 3979 H 387.771 1.46658 0.540487 0
M  V30 3980 H 388.506 1.10502 3.04893 0
M  V30 3981 H 388.291 2.84453 2.69868 0
M  V30 3982 H 389.781 2.27002 3.50514 0
M  V30 3983 N 390.218 -0.567019 1.47046 0
M  V30 3984 C 391.495 -1.3276 1.43646 0
M  V30 3985 C 391.875 -2.1071 0.128186 0
M  V30 3986 O 391.223 -2.10441 -0.890326 0
M  V30 3987 C 391.433 -2.2404 2.67595 0
M  V30 3988 C 392.781 -2.85372 3.14401 0
M  V30 3989 O 393.805 -2.34346 2.68254 0
M  V30 3990 O 392.664 -3.78091 3.946 0
M  V30 3991 H 389.758 -0.597293 0.571988 0
M  V30 3992 H 392.304 -0.586735 1.59234 0
M  V30 3993 H 391.076 -1.65975 3.54356 0
M  V30 3994 H 390.699 -3.05439 2.54544 0
M  V30 3995 N 391.696 -1.35014 -0.812953 0
M  V30 3996 C 392.606 -1.2951 -1.95613 0
M  V30 3997 C 393.622 -0.20107 -1.72834 0
M  V30 3998 O 394.798 -0.42932 -1.96771 0
M  V30 3999 C 391.863 -1.06033 -3.30088 0
M  V30 4000 C 390.924 -2.24688 -3.65805 0
M  V30 4001 C 390.157 -2.02322 -4.93864 0
M  V30 4002 O 390.38 -0.986464 -5.61805 0
M  V30 4003 O 389.314 -2.89525 -5.27692 0
M  V30 4004 H 393.14 -2.25705 -2.03202 0
M  V30 4005 H 390.725 -1.15321 -0.949811 0
M  V30 4006 H 392.607 -0.94763 -4.10607 0
M  V30 4007 H 391.282 -0.128852 -3.23443 0
M  V30 4008 H 390.189 -2.41521 -2.85689 0
M  V30 4009 H 391.522 -3.16261 -3.77147 0
M  V30 4010 N 393.175 1.03435 -1.18907 0
M  V30 4011 C 394.107 2.1165 -0.879595 0
M  V30 4012 C 395.12 1.62316 0.125439 0
M  V30 4013 O 396.309 1.78201 -0.103245 0
M  V30 4014 C 393.409 3.37622 -0.294042 0
M  V30 4015 C 392.582 4.16166 -1.34629 0
M  V30 4016 C 391.641 5.20457 -0.775274 0
M  V30 4017 O 390.667 5.50379 -1.4516 0
M  V30 4018 N 391.869 5.78949 0.424126 0
M  V30 4019 H 394.634 2.38791 -1.81105 0
M  V30 4020 H 392.195 1.19681 -1.09032 0
M  V30 4021 H 394.187 4.04572 0.101679 0
M  V30 4022 H 392.757 3.07873 0.541575 0
M  V30 4023 H 391.977 3.44444 -1.91707 0
M  V30 4024 H 393.265 4.65432 -2.05549 0
M  V30 4025 H 392.663 5.56948 0.991209 0
M  V30 4026 H 391.22 6.47334 0.761691 0
M  V30 4027 N 394.653 0.992116 1.22453 0
M  V30 4028 C 395.899 0.668523 1.91464 0
M  V30 4029 C 396.232 -0.797313 1.77078 0
M  V30 4030 O 395.507 -1.5765 1.13916 0
M  V30 4031 C 395.79 1.07424 3.43703 0
M  V30 4032 C 395.643 2.59857 3.67143 0
M  V30 4033 C 396.962 0.626891 4.35612 0
M  V30 4034 H 394.081 0.244341 0.695318 0
M  V30 4035 H 396.723 1.2355 1.44345 0
M  V30 4036 H 394.873 0.591816 3.83966 0
M  V30 4037 H 396.545 3.15764 3.3629 0
M  V30 4038 H 394.788 3.01961 3.11451 0
M  V30 4039 H 395.459 2.83296 4.73759 0
M  V30 4040 H 397.935 1.04125 4.02861 0
M  V30 4041 H 396.811 0.939076 5.40807 0
M  V30 4042 H 397.072 -0.472457 4.39568 0
M  V30 4043 N 396.131 -1.37776 0.765217 0
M  V30 4044 C 397.408 -1.93975 0.251596 0
M  V30 4045 C 397.788 -1.69949 -1.25222 0
M  V30 4046 O 397.136 -1.04457 -2.03226 0
M  V30 4047 C 397.346 -3.43487 0.617895 0
M  V30 4048 C 398.694 -4.20564 0.584029 0
M  V30 4049 O 399.718 -3.5182 0.556888 0
M  V30 4050 O 398.577 -5.43138 0.605291 0
M  V30 4051 H 395.671 -0.82509 0.0561806 0
M  V30 4052 H 398.217 -1.47101 0.846128 0
M  V30 4053 H 396.989 -3.5453 1.65602 0
M  V30 4054 H 396.612 -3.976 -0.00403411 0
M  V30 4055 N 397.609 -0.515225 -1.4894 0
M  V30 4056 C 399.025 -0.172099 -1.58669 0
M  V30 4057 C 399.225 1.32405 -1.51892 0
M  V30 4058 O 398.281 2.10116 -1.40027 0
M  V30 4059 C 399.594 -0.761533 -2.90897 0
M  V30 4060 C 401.142 -0.728926 -3.04394 0
M  V30 4061 C 401.617 -1.29667 -4.39261 0
M  V30 4062 N 403.108 -1.25799 -4.4579 0
M  V30 4063 C 403.843 -1.66733 -5.48623 0
M  V30 4064 N 403.339 -2.15327 -6.58488 0
M  V30 4065 N 405.132 -1.58061 -5.39419 0
M  V30 4066 H 397.283 -1.48778 -1.51588 0
M  V30 4067 H 399.546 -0.617968 -0.718901 0
M  V30 4068 H 399.252 -1.81136 -3.01468 0
M  V30 4069 H 399.126 -0.230106 -3.76497 0
M  V30 4070 H 401.513 0.312098 -2.93445 0
M  V30 4071 H 401.594 -1.29766 -2.20442 0
M  V30 4072 H 401.238 -2.33655 -4.50963 0
M  V30 4073 H 401.168 -0.703752 -5.21876 0
M  V30 4074 H 403.659 -0.902102 -3.66975 0
M  V30 4075 H 403.972 -2.44594 -7.33071 0
M  V30 4076 H 402.317 -2.19311 -6.59491 0
M  V30 4077 H 405.508 -1.19906 -4.52482 0
M  V30 4078 H 405.681 -1.90284 -6.19432 0
M  V30 4079 N 399.087 1.5561 -0.249682 0
M  V30 4080 C 400.312 2.03865 0.381305 0
M  V30 4081 C 400.737 1.12769 1.50548 0
M  V30 4082 O 400.095 0.121189 1.80895 0
M  V30 4083 C 400.143 3.50101 0.863816 0
M  V30 4084 O 399.247 3.62132 1.97318 0
M  V30 4085 H 398.588 0.658827 0.0827194 0
M  V30 4086 H 401.118 2.01105 -0.376552 0
M  V30 4087 H 401.128 3.90975 1.1663 0
M  V30 4088 H 399.803 4.1588 0.0411816 0
M  V30 4089 H 398.38 3.33155 1.67517 0
M  V30 4090 N 400.565 -0.0233959 1.57583 0
M  V30 4091 C 401.976 -0.56927 1.77809 0
M  V30 4092 C 402.327 -1.75284 0.881472 0
M  V30 4093 O 401.452 -2.1626 0.0777805 0
M  V30 4094 C 402.047 -1.03949 3.22459 0
M  V30 4095 C 400.606 -1.53084 3.43864 0
M  V30 4096 C 399.753 -0.471454 2.73263 0
M  V30 4097 H 402.704 0.202825 1.57399 0
M  V30 4098 H 402.725 -1.90661 3.29285 0
M  V30 4099 H 402.237 -0.177865 3.87692 0
M  V30 4100 H 400.338 -2.41414 2.83814 0
M  V30 4101 H 400.451 -1.57443 4.52491 0
M  V30 4102 H 398.815 -0.927788 2.37201 0
M  V30 4103 H 399.598 0.380808 3.41181 0
M  V30 4104 N 402.043 -1.548 -0.295768 0
M  V30 4105 C 403.271 -1.78327 -1.04914 0
M  V30 4106 C 403.686 -0.545316 -1.80753 0
M  V30 4107 O 403.043 0.485013 -1.75937 0
M  V30 4108 C 403.094 -2.99418 -2.02561 0
M  V30 4109 O 402.815 -4.18431 -1.29798 0
M  V30 4110 C 404.316 -3.35375 -2.89895 0
M  V30 4111 H 401.536 -0.594618 -0.310918 0
M  V30 4112 H 404.08 -2.01763 -0.333454 0
M  V30 4113 H 402.235 -2.78175 -2.69624 0
M  V30 4114 H 402.649 -4.86736 -1.95419 0
M  V30 4115 H 404.123 -4.23332 -3.54251 0
M  V30 4116 H 404.6 -2.53761 -3.58472 0
M  V30 4117 H 405.206 -3.58796 -2.28355 0
M  V30 4118 N 403.521 0.559213 -1.47345 0
M  V30 4119 C 404.769 1.31388 -1.53563 0
M  V30 4120 C 405.09 1.93985 -0.198678 0
M  V30 4121 O 404.36 1.79825 0.777167 0
M  V30 4122 H 402.94 0.487901 -0.565652 0
M  V30 4123 H 405.602 0.65315 -1.8363 0
M  V30 4124 H 404.698 2.10844 -2.30111 0
M  V30 4125 N 404.999 1.35443 0.805782 0
M  V30 4126 C 406.224 1.32037 1.59941 0
M  V30 4127 C 406.649 -0.0994215 1.87837 0
M  V30 4128 O 406.007 -1.06648 1.46615 0
M  V30 4129 C 406.055 2.13354 2.90711 0
M  V30 4130 O 405.159 1.5148 3.83572 0
M  V30 4131 H 404.5 0.452666 0.485787 0
M  V30 4132 H 407.03 1.78496 1.00002 0
M  V30 4133 H 407.04 2.25338 3.40128 0
M  V30 4134 H 405.715 3.16572 2.69732 0
M  V30 4135 H 404.292 1.4834 3.42125 0
M  V30 4136 N 406.477 -1.02803 1.19454 0
M  V30 4137 C 407.725 -1.75869 0.995722 0
M  V30 4138 C 408.046 -1.89138 -0.474543 0
M  V30 4139 O 407.316 -1.42558 -1.34366 0
M  V30 4140 H 405.896 -0.651511 0.365435 0
M  V30 4141 H 408.558 -1.24004 1.50363 0
M  V30 4142 H 407.654 -2.76661 1.44447 0
M  V30 4143 N 407.956 -0.998596 -1.21925 0
M  V30 4144 C 409.202 -0.678667 -1.91107 0
M  V30 4145 C 409.535 0.78791 -1.77498 0
M  V30 4146 O 408.81 1.57043 -1.1475 0
M  V30 4147 C 409.093 -1.09245 -3.43129 0
M  V30 4148 C 408.946 -2.61801 -3.6576 0
M  V30 4149 C 410.265 -0.649984 -4.35274 0
M  V30 4150 H 407.384 -0.248025 -0.694012 0
M  V30 4151 H 410.026 -1.24314 -1.43688 0
M  V30 4152 H 408.176 -0.612171 -3.83647 0
M  V30 4153 H 409.848 -3.17543 -3.34611 0
M  V30 4154 H 408.091 -3.03609 -3.09845 0
M  V30 4155 H 408.762 -2.85804 -4.7225 0
M  V30 4156 H 411.238 -1.0626 -4.02303 0
M  V30 4157 H 410.114 -0.967743 -5.40302 0
M  V30 4158 H 410.375 0.449139 -4.39813 0
M  V30 4159 N 409.434 1.37368 -0.772513 0
M  V30 4160 C 410.662 2.03942 -0.348588 0
M  V30 4161 C 411.077 1.58264 1.02947 0
M  V30 4162 O 410.434 0.764246 1.65727 0
M  V30 4163 C 410.485 3.5946 -0.38351 0
M  V30 4164 O 410.206 4.03468 -1.70721 0
M  V30 4165 C 411.707 4.4327 0.0519152 0
M  V30 4166 H 408.927 0.654931 -0.145966 0
M  V30 4167 H 411.471 1.75686 -1.04665 0
M  V30 4168 H 409.626 3.86486 0.265978 0
M  V30 4169 H 410.04 4.97991 -1.64636 0
M  V30 4170 H 411.514 5.51995 -0.0236733 0
M  V30 4171 H 411.991 4.2514 1.10238 0
M  V30 4172 H 412.597 4.21471 -0.569415 0
M  V30 4173 N 410.912 0.523116 1.48665 0
M  V30 4174 C 411.875 -0.232592 2.28017 0
M  V30 4175 C 412.875 -0.874021 1.34972 0
M  V30 4176 O 414.065 -0.735132 1.57929 0
M  V30 4177 C 411.197 -1.33586 3.13636 0
M  V30 4178 H 412.39 0.464008 2.96289 0
M  V30 4179 H 409.943 0.278816 1.53793 0
M  V30 4180 H 410.678 -2.06593 2.4998 0
M  V30 4181 H 410.463 -0.881125 3.82071 0
M  V30 4182 H 411.953 -1.86759 3.73511 0
M  V30 4183 N 412.39 -1.55475 0.257931 0
M  V30 4184 C 413.806 -1.59307 -0.0966563 0
M  V30 4185 C 414.006 -1.27514 -1.5602 0
M  V30 4186 O 413.062 -1.02774 -2.30637 0
M  V30 4187 C 414.375 -2.99552 0.262481 0
M  V30 4188 C 415.923 -3.1231 0.207683 0
M  V30 4189 C 416.398 -4.54793 0.541012 0
M  V30 4190 N 417.889 -4.6058 0.491921 0
M  V30 4191 C 418.624 -5.68825 0.722857 0
M  V30 4192 N 418.12 -6.85287 1.0175 0
M  V30 4193 N 419.913 -5.58296 0.652815 0
M  V30 4194 H 412.064 -1.74409 1.21224 0
M  V30 4195 H 414.327 -0.812424 0.48854 0
M  V30 4196 H 414.033 -3.27593 1.27967 0
M  V30 4197 H 413.907 -3.75019 -0.40508 0
M  V30 4198 H 416.294 -2.84044 -0.800195 0
M  V30 4199 H 416.375 -2.39095 0.909255 0
M  V30 4200 H 416.019 -4.83783 1.5465 0
M  V30 4201 H 415.949 -5.26285 -0.18216 0
M  V30 4202 H 418.44 -3.7691 0.273366 0
M  V30 4203 H 418.753 -7.63725 1.18084 0
M  V30 4204 H 417.098 -6.86945 1.05509 0
M  V30 4205 H 420.289 -4.66189 0.422592 0
M  V30 4206 H 420.462 -6.42582 0.836182 0
M  V30 4207 N 413.868 0.0150385 -1.57593 0
M  V30 4208 C 415.117 0.702115 -1.89085 0
M  V30 4209 C 415.43 1.75764 -0.858277 0
M  V30 4210 O 416.636 2.49829 -1.0629 0
M  V30 4211 C 415.092 1.29992 -3.35604 0
M  V30 4212 C 414.7 0.280007 -4.47124 0
M  V30 4213 C 416.444 1.96606 -3.76227 0
M  V30 4214 C 414.351 0.886949 -5.84711 0
M  V30 4215 H 413.281 0.265997 -0.705522 0
M  V30 4216 H 415.932 -0.0430408 -1.8345 0
M  V30 4217 H 414.314 2.09525 -3.36029 0
M  V30 4218 H 415.488 -0.489631 -4.58191 0
M  V30 4219 H 413.803 -0.284835 -4.15425 0
M  V30 4220 H 416.4 2.42893 -4.76347 0
M  V30 4221 H 416.743 2.79024 -3.08952 0
M  V30 4222 H 417.276 1.23828 -3.78036 0
M  V30 4223 H 414.015 0.101876 -6.55421 0
M  V30 4224 H 413.535 1.6261 -5.77337 0
M  V30 4225 H 415.214 1.39011 -6.3189 0
M  V30 4226 N 415.346 1.54954 0.287554 0
M  V30 4227 C 416.309 1.86076 1.33823 0
M  V30 4228 C 417.309 0.734414 1.43049 0
M  V30 4229 O 418.499 1.00266 1.42452 0
M  V30 4230 C 415.631 2.05305 2.72144 0
M  V30 4231 H 416.824 2.79984 1.07465 0
M  V30 4232 H 414.377 1.47223 0.524902 0
M  V30 4233 H 415.112 1.1373 3.03704 0
M  V30 4234 H 414.897 2.873 2.66836 0
M  V30 4235 H 416.387 2.30706 3.48087 0
M  V30 4236 N 416.824 -0.551391 1.4764 0
M  V30 4237 C 417.754 -1.66757 1.63445 0
M  V30 4238 C 418.735 -1.63077 0.483742 0
M  V30 4239 O 419.92 -1.80607 0.71377 0
M  V30 4240 C 417.05 -3.05387 1.65396 0
M  V30 4241 C 416.004 -3.23918 2.79752 0
M  V30 4242 C 415.33 -4.63393 2.66779 0
M  V30 4243 C 416.63 -3.08735 4.21284 0
M  V30 4244 H 418.324 -1.53786 2.56886 0
M  V30 4245 H 415.87 -0.738415 1.23626 0
M  V30 4246 H 417.823 -3.83325 1.75043 0
M  V30 4247 H 416.547 -3.19332 0.685195 0
M  V30 4248 H 415.206 -2.48391 2.69625 0
M  V30 4249 H 414.854 -4.74144 1.67918 0
M  V30 4250 H 414.554 -4.7674 3.43501 0
M  V30 4251 H 416.078 -5.43458 2.78364 0
M  V30 4252 H 417.492 -3.76484 4.32357 0
M  V30 4253 H 415.889 -3.33588 4.98838 0
M  V30 4254 H 416.959 -2.0541 4.39243 0
M  V30 4255 N 418.302 -1.35869 -0.798587 0
M  V30 4256 C 419.234 -1.25305 -1.91915 0
M  V30 4257 C 420.247 -0.174548 -1.61862 0
M  V30 4258 O 421.436 -0.428499 -1.73281 0
M  V30 4259 C 418.536 -0.9086 -3.26493 0
M  V30 4260 C 417.709 -2.08711 -3.84394 0
M  V30 4261 C 416.768 -1.71717 -4.97393 0
M  V30 4262 O 415.794 -2.43692 -5.14396 0
M  V30 4263 N 416.996 -0.645473 -5.769 0
M  V30 4264 H 419.761 -2.21849 -2.01502 0
M  V30 4265 H 417.322 -1.29143 -0.976408 0
M  V30 4266 H 419.314 -0.642455 -3.99568 0
M  V30 4267 H 417.884 -0.0325815 -3.12583 0
M  V30 4268 H 417.104 -2.51659 -3.03416 0
M  V30 4269 H 418.392 -2.87468 -4.19809 0
M  V30 4270 H 417.79 -0.047648 -5.6568 0
M  V30 4271 H 416.347 -0.43913 -6.50319 0
M  V30 4272 N 419.78 1.02168 -1.19998 0
M  V30 4273 C 421.01 1.79036 -1.031 0
M  V30 4274 C 421.418 1.84409 0.423078 0
M  V30 4275 O 420.761 1.29228 1.30559 0
M  V30 4276 C 420.823 3.25185 -1.53281 0
M  V30 4277 C 420.487 3.43431 -3.01503 0
M  V30 4278 C 421.484 3.33063 -3.99206 0
M  V30 4279 C 419.169 3.69412 -3.40353 0
M  V30 4280 C 421.163 3.48413 -5.33748 0
M  V30 4281 C 418.85 3.84406 -4.75053 0
M  V30 4282 C 419.848 3.7391 -5.71559 0
M  V30 4283 O 419.536 3.88452 -7.03818 0
M  V30 4284 H 419.268 0.570043 -0.363355 0
M  V30 4285 H 421.822 1.29524 -1.59414 0
M  V30 4286 H 420.052 3.75756 -0.913483 0
M  V30 4287 H 421.741 3.83671 -1.32481 0
M  V30 4288 H 422.507 3.12934 -3.70537 0
M  V30 4289 H 418.386 3.76671 -2.65782 0
M  V30 4290 H 421.93 3.40137 -6.09059 0
M  V30 4291 H 417.827 4.04035 -5.03415 0
M  V30 4292 H 418.595 4.055 -7.10993 0
M  V30 4293 N 421.258 1.00505 1.21394 0
M  V30 4294 C 422.208 0.536503 2.21598 0
M  V30 4295 C 423.192 -0.401914 1.55799 0
M  V30 4296 O 424.384 -0.226757 1.75541 0
M  V30 4297 C 421.513 -0.135446 3.43033 0
M  V30 4298 C 420.599 0.823992 4.16018 0
M  V30 4299 N 420.99 1.97683 4.6557 0
M  V30 4300 C 419.288 0.642387 4.4135 0
M  V30 4301 C 419.989 2.58003 5.21354 0
M  V30 4302 N 418.965 1.86162 5.1073 0
M  V30 4303 H 422.767 1.41557 2.57563 0
M  V30 4304 H 420.281 0.868878 1.37202 0
M  V30 4305 H 422.278 -0.488584 4.14027 0
M  V30 4306 H 420.938 -1.01049 3.08576 0
M  V30 4307 H 421.949 2.3572 4.61147 0
M  V30 4308 H 418.626 -0.185578 4.17087 0
M  V30 4309 H 420.016 3.555 5.70149 0
M  V30 4310 N 422.737 -1.36956 0.779787 0
M  V30 4311 C 423.684 -2.30175 0.169697 0
M  V30 4312 C 424.654 -1.51501 -0.68094 0
M  V30 4313 O 425.839 -1.80042 -0.631629 0
M  V30 4314 C 422.979 -3.37985 -0.697131 0
M  V30 4315 C 422.092 -4.31661 0.170992 0
M  V30 4316 C 421.227 -5.2655 -0.701298 0
M  V30 4317 C 420.266 -6.11867 0.168869 0
M  V30 4318 N 419.403 -6.98973 -0.661855 0
M  V30 4319 H 424.243 -2.81767 0.970135 0
M  V30 4320 H 421.78 -1.38699 0.489994 0
M  V30 4321 H 423.738 -3.99128 -1.2146 0
M  V30 4322 H 422.368 -2.87739 -1.46309 0
M  V30 4323 H 421.42 -3.71756 0.80634 0
M  V30 4324 H 422.732 -4.91644 0.841875 0
M  V30 4325 H 421.886 -5.92937 -1.28494 0
M  V30 4326 H 420.625 -4.66998 -1.40584 0
M  V30 4327 H 419.63 -5.44452 0.764986 0
M  V30 4328 H 420.855 -6.73493 0.870863 0
M  V30 4329 H 418.801 -6.41941 -1.35086 0
M  V30 4330 H 418.718 -7.55984 -0.0484447 0
M  V30 4331 H 419.986 -7.6974 -1.22963 0
M  V30 4332 N 424.215 -0.530993 -1.48385 0
M  V30 4333 C 425.463 0.00273189 -2.021 0
M  V30 4334 C 425.784 1.34672 -1.41027 0
M  V30 4335 O 425.054 1.8724 -0.576012 0
M  V30 4336 H 423.634 0.00399774 -0.746989 0
M  V30 4337 H 426.296 -0.695054 -1.82085 0
M  V30 4338 H 425.392 0.11031 -3.11905 0
M  V30 4339 N 425.693 1.55336 -0.266172 0
M  V30 4340 C 426.623 2.25146 0.618981 0
M  V30 4341 C 427.604 1.23845 1.16604 0
M  V30 4342 O 428.789 1.52544 1.20183 0
M  V30 4343 C 425.919 2.96572 1.80728 0
M  V30 4344 C 424.873 4.04726 1.39215 0
M  V30 4345 C 424.199 4.63678 2.66283 0
M  V30 4346 C 425.499 5.19407 0.548942 0
M  V30 4347 H 427.193 2.99377 0.0368116 0
M  V30 4348 H 424.739 1.43991 0.0162651 0
M  V30 4349 H 426.692 3.44116 2.43232 0
M  V30 4350 H 425.416 2.19861 2.41514 0
M  V30 4351 H 424.075 3.57979 0.790351 0
M  V30 4352 H 423.723 3.83646 3.25308 0
M  V30 4353 H 423.423 5.367 2.39222 0
M  V30 4354 H 424.947 5.13967 3.29651 0
M  V30 4355 H 426.361 5.63059 1.07876 0
M  V30 4356 H 424.758 5.98936 0.373593 0
M  V30 4357 H 425.828 4.8295 -0.434394 0
M  V30 4358 N 427.171 -0.0066808 1.57599 0
M  V30 4359 C 428.101 -0.999296 2.11036 0
M  V30 4360 C 429.082 -1.36278 1.01795 0
M  V30 4361 O 430.267 -1.4477 1.29442 0
M  V30 4362 C 427.397 -2.29328 2.60818 0
M  V30 4363 C 426.351 -2.07159 3.74525 0
M  V30 4364 C 425.677 -3.42512 4.10596 0
M  V30 4365 C 426.977 -1.43959 5.02069 0
M  V30 4366 H 428.671 -0.554382 2.94223 0
M  V30 4367 H 426.217 -0.265221 1.41536 0
M  V30 4368 H 428.17 -2.99117 2.96828 0
M  V30 4369 H 426.894 -2.7592 1.74745 0
M  V30 4370 H 425.553 -1.39797 3.38899 0
M  V30 4371 H 425.201 -3.86795 3.21556 0
M  V30 4372 H 424.901 -3.28498 4.87199 0
M  V30 4373 H 426.425 -4.13628 4.4916 0
M  V30 4374 H 427.839 -2.03696 5.35893 0
M  V30 4375 H 426.236 -1.40452 5.83432 0
M  V30 4376 H 427.306 -0.407992 4.83181 0
M  V30 4377 N 428.649 -1.55105 -0.279332 0
M  V30 4378 C 429.559 -1.90638 -1.36727 0
M  V30 4379 C 430.575 -0.802899 -1.54368 0
M  V30 4380 O 431.751 -1.10138 -1.68616 0
M  V30 4381 C 428.816 -2.16547 -2.70755 0
M  V30 4382 C 427.877 -3.40146 -2.61915 0
M  V30 4383 C 427.11 -3.6481 -3.8955 0
M  V30 4384 O 427.333 -2.92095 -4.89935 0
M  V30 4385 O 426.267 -4.58343 -3.90135 0
M  V30 4386 H 430.093 -2.83237 -1.09591 0
M  V30 4387 H 427.678 -1.4157 -0.477306 0
M  V30 4388 H 429.56 -2.34665 -3.50014 0
M  V30 4389 H 428.235 -1.27131 -2.9769 0
M  V30 4390 H 427.142 -3.2737 -1.81052 0
M  V30 4391 H 428.475 -4.29761 -2.3993 0
M  V30 4392 N 430.127 0.543554 -1.4793 0
M  V30 4393 C 431.057 1.65888 -1.64327 0
M  V30 4394 C 432.038 1.62818 -0.492383 0
M  V30 4395 O 433.223 1.80226 -0.723338 0
M  V30 4396 C 430.353 3.04506 -1.67013 0
M  V30 4397 C 429.307 3.2243 -2.81466 0
M  V30 4398 C 428.633 4.61972 -2.69233 0
M  V30 4399 C 429.933 3.06496 -4.22915 0
M  V30 4400 H 431.627 1.52421 -2.57698 0
M  V30 4401 H 429.173 0.731849 -1.24016 0
M  V30 4402 H 431.126 3.82391 -1.77074 0
M  V30 4403 H 429.85 3.18964 -0.70212 0
M  V30 4404 H 428.509 2.46957 -2.70938 0
M  V30 4405 H 428.157 4.73247 -1.7043 0
M  V30 4406 H 427.857 4.74911 -3.46025 0
M  V30 4407 H 429.381 5.41974 -2.81242 0
M  V30 4408 H 430.795 3.74186 -4.34348 0
M  V30 4409 H 429.192 3.30938 -5.006 0
M  V30 4410 H 430.262 2.03077 -4.40327 0
M  V30 4411 N 431.605 1.3629 0.791371 0
M  V30 4412 C 432.553 1.30514 1.92533 0
M  V30 4413 C 433.547 0.197285 1.68247 0
M  V30 4414 O 434.753 0.364176 1.76278 0
M  V30 4415 H 431.128 0.406263 0.632815 0
M  V30 4416 H 433.099 2.26282 1.94523 0
M  V30 4417 C 431.848 1.10933 3.29529 0
M  V30 4418 H 431.171 1.95427 3.48781 0
M  V30 4419 H 432.611 1.10937 4.0923 0
M  V30 4420 C 431.07 -0.186123 3.36385 0
M  V30 4421 O 431.6 -1.17664 3.84081 0
M  V30 4422 N 429.806 -0.230128 2.89687 0
M  V30 4423 H 429.353 0.576545 2.51065 0
M  V30 4424 H 429.311 -1.09658 2.94657 0
M  V30 4425 N 433.083 -1.0153 1.20538 0
M  V30 4426 C 434.015 -2.10224 0.913155 0
M  V30 4427 C 435.028 -1.62495 -0.0995998 0
M  V30 4428 O 436.217 -1.78014 0.131582 0
M  V30 4429 C 433.317 -3.37111 0.347717 0
M  V30 4430 C 432.49 -4.13971 1.41233 0
M  V30 4431 C 431.549 -5.19158 0.857976 0
M  V30 4432 O 430.575 -5.48 1.53897 0
M  V30 4433 N 431.777 -5.7955 -0.331966 0
M  V30 4434 H 434.542 -2.35879 1.84881 0
M  V30 4435 H 432.103 -1.17931 1.10923 0
M  V30 4436 H 434.095 -4.04683 -0.0373026 0
M  V30 4437 H 432.665 -3.08696 -0.492527 0
M  V30 4438 H 431.885 -3.41351 1.97163 0
M  V30 4439 H 433.173 -4.62103 2.12928 0
M  V30 4440 H 432.571 -5.58455 -0.902478 0
M  V30 4441 H 431.128 -6.48464 -0.65861 0
M  V30 4442 N 434.561 -1.01147 -1.20859 0
M  V30 4443 C 435.494 -0.522108 -2.22147 0
M  V30 4444 C 436.472 0.427686 -1.56874 0
M  V30 4445 O 437.656 0.34889 -1.85243 0
M  V30 4446 C 434.783 0.240819 -3.37843 0
M  V30 4447 C 433.829 -0.657752 -4.21398 0
M  V30 4448 S 434.662 -2.12393 -4.91578 0
M  V30 4449 C 435.818 -1.37102 -6.10699 0
M  V30 4450 H 436.051 -1.38035 -2.63313 0
M  V30 4451 H 433.584 -0.819941 -1.30829 0
M  V30 4452 H 435.542 0.674908 -4.04914 0
M  V30 4453 H 434.203 1.07457 -2.95147 0
M  V30 4454 H 433.396 -0.0697456 -5.03952 0
M  V30 4455 H 432.998 -1.0294 -3.59555 0
M  V30 4456 H 435.29 -0.648315 -6.74391 0
M  V30 4457 H 436.233 -2.17252 -6.73949 0
M  V30 4458 H 436.641 -0.876154 -5.57659 0
M  V30 4459 N 436.039 1.36541 -0.78704 0
M  V30 4460 C 437.455 1.52571 -0.46844 0
M  V30 4461 C 437.655 1.7415 1.01361 0
M  V30 4462 O 436.711 1.77163 1.79915 0
M  V30 4463 C 438.024 2.71299 -1.29682 0
M  V30 4464 C 439.572 2.85169 -1.29027 0
M  V30 4465 C 440.047 4.06898 -2.10233 0
M  V30 4466 N 441.538 4.1404 -2.07666 0
M  V30 4467 C 442.273 5.07301 -2.67271 0
M  V30 4468 N 441.769 6.06021 -3.35724 0
M  V30 4469 N 443.562 4.99898 -2.57018 0
M  V30 4470 H 435.713 1.20788 -1.74711 0
M  V30 4471 H 437.976 0.589364 -0.742532 0
M  V30 4472 H 437.682 2.61868 -2.34773 0
M  V30 4473 H 437.556 3.6539 -0.936479 0
M  V30 4474 H 439.943 2.94062 -0.247284 0
M  V30 4475 H 440.024 1.91992 -1.69035 0
M  V30 4476 H 439.668 3.98766 -3.1456 0
M  V30 4477 H 439.598 4.99218 -1.67597 0
M  V30 4478 H 442.089 3.43357 -1.57843 0
M  V30 4479 H 442.402 6.73741 -3.78541 0
M  V30 4480 H 440.747 6.06253 -3.39826 0
M  V30 4481 H 443.938 4.21724 -2.03142 0
M  V30 4482 H 444.111 5.72392 -3.03761 0
M  V30 4483 N 437.518 0.538854 1.48102 0
M  V30 4484 C 438.481 -0.208395 2.28251 0
M  V30 4485 C 439.481 -0.859656 1.35892 0
M  V30 4486 O 440.671 -0.71834 1.58699 0
M  V30 4487 C 437.803 -1.30252 3.15035 0
M  V30 4488 H 438.996 0.495407 2.9578 0
M  V30 4489 H 436.549 0.295112 1.53489 0
M  V30 4490 H 437.284 -2.0393 2.52157 0
M  V30 4491 H 437.069 -0.840551 3.82985 0
M  V30 4492 H 438.559 -1.82787 3.75471 0
M  V30 4493 N 438.996 -1.55193 0.274407 0
M  V30 4494 C 440.243 -1.99581 -0.342579 0
M  V30 4495 C 440.571 -1.1628 -1.55914 0
M  V30 4496 O 439.826 -0.22029 -1.94456 0
M  V30 4497 C 440.125 -3.49019 -0.769458 0
M  V30 4498 C 439.791 -4.49598 0.342389 0
M  V30 4499 C 438.453 -4.76821 0.647686 0
M  V30 4500 C 440.805 -5.0964 1.09163 0
M  V30 4501 C 438.133 -5.61354 1.70581 0
M  V30 4502 C 440.485 -5.95323 2.13948 0
M  V30 4503 C 439.149 -6.20867 2.45113 0
M  V30 4504 H 438.419 -0.730319 -0.125358 0
M  V30 4505 H 441.066 -1.87529 0.387971 0
M  V30 4506 H 439.371 -3.58544 -1.57967 0
M  V30 4507 H 441.068 -3.8077 -1.25757 0
M  V30 4508 H 437.658 -4.28496 0.094318 0
M  V30 4509 H 441.842 -4.88632 0.869024 0
M  V30 4510 H 437.098 -5.79392 1.9523 0
M  V30 4511 H 441.272 -6.40881 2.72478 0
M  V30 4512 H 438.899 -6.86162 3.27239 0
M  V30 4513 N 440.474 -0.00167713 -1.576 0
M  V30 4514 C 441.421 0.989195 -2.08527 0
M  V30 4515 C 442.391 1.34031 -0.981065 0
M  V30 4516 O 443.576 1.43839 -1.2536 0
M  V30 4517 C 440.716 2.27537 -2.59463 0
M  V30 4518 C 439.829 1.98314 -3.83791 0
M  V30 4519 C 438.964 3.21025 -4.23222 0
M  V30 4520 C 438.003 2.87495 -5.40382 0
M  V30 4521 N 437.14 4.02749 -5.75098 0
M  V30 4522 H 441.98 0.547973 -2.92919 0
M  V30 4523 H 439.517 0.258917 -1.44803 0
M  V30 4524 H 441.475 3.02729 -2.87073 0
M  V30 4525 H 440.105 2.69325 -1.77943 0
M  V30 4526 H 439.157 1.13482 -3.63078 0
M  V30 4527 H 440.469 1.69601 -4.69081 0
M  V30 4528 H 439.623 4.04561 -4.52123 0
M  V30 4529 H 438.362 3.52877 -3.36644 0
M  V30 4530 H 437.367 2.02367 -5.11202 0
M  V30 4531 H 438.592 2.56889 -6.28637 0
M  V30 4532 H 436.538 4.34494 -4.91478 0
M  V30 4533 H 436.455 3.77566 -6.54966 0
M  V30 4534 H 437.723 4.87068 -6.08592 0
M  V30 4535 N 441.952 1.55251 0.271103 0
M  V30 4536 C 443.177 1.80306 1.02491 0
M  V30 4537 C 443.602 0.575457 1.79081 0
M  V30 4538 O 442.96 -0.474987 1.74967 0
M  V30 4539 C 443.008 3.02832 1.95768 0
M  V30 4540 O 442.112 2.78051 3.04568 0
M  V30 4541 H 441.453 0.595896 0.292923 0
M  V30 4542 H 443.983 2.02397 0.299436 0
M  V30 4543 H 443.993 3.31616 2.37686 0
M  V30 4544 H 442.668 3.9183 1.39434 0
M  V30 4545 H 441.245 2.60369 2.66951 0
M  V30 4546 N 443.43 -0.535701 1.48216 0
M  V30 4547 C 444.655 -1.32149 1.59848 0
M  V30 4548 C 445.08 -1.86338 0.256842 0
M  V30 4549 O 444.438 -1.64107 -0.770632 0
M  V30 4550 C 444.486 -2.45224 2.64381 0
M  V30 4551 O 443.59 -3.48093 2.21144 0
M  V30 4552 H 442.931 -0.391634 0.536208 0
M  V30 4553 H 445.461 -0.645202 1.94161 0
M  V30 4554 H 445.471 -2.91491 2.85476 0
M  V30 4555 H 444.146 -2.05143 3.61786 0
M  V30 4556 H 442.723 -3.07984 2.10239 0
M  V30 4557 N 444.908 -1.36708 -0.784132 0
M  V30 4558 C 445.871 -1.31307 -1.87859 0
M  V30 4559 C 446.871 -0.219654 -1.59293 0
M  V30 4560 O 448.061 -0.47476 -1.67606 0
M  V30 4561 C 445.193 -1.03679 -3.24751 0
M  V30 4562 H 446.386 -2.28647 -1.94064 0
M  V30 4563 H 443.939 -1.21558 -0.98252 0
M  V30 4564 H 444.674 -0.0681936 -3.24228 0
M  V30 4565 H 444.459 -1.82811 -3.46876 0
M  V30 4566 H 445.949 -1.02518 -4.04821 0
M  V30 4567 N 446.386 1.0089 -1.21074 0
M  V30 4568 C 447.614 1.78191 -1.05145 0
M  V30 4569 C 448.029 1.84537 0.398952 0
M  V30 4570 O 447.386 1.30393 1.27687 0
M  V30 4571 C 447.437 3.22288 -1.63746 0
M  V30 4572 O 447.158 3.16315 -3.03111 0
M  V30 4573 C 448.659 4.16106 -1.52875 0
M  V30 4574 H 445.879 0.560129 -0.369454 0
M  V30 4575 H 448.423 1.26945 -1.60328 0
M  V30 4576 H 446.578 3.70655 -1.12664 0
M  V30 4577 H 446.992 4.06817 -3.31059 0
M  V30 4578 H 448.466 5.15026 -1.98626 0
M  V30 4579 H 448.943 4.36541 -0.482521 0
M  V30 4580 H 449.549 3.73625 -2.03185 0
M  V30 4581 N 447.864 1.01787 1.20321 0
M  V30 4582 C 449.112 0.706538 1.89347 0
M  V30 4583 C 449.433 -0.766289 1.79313 0
M  V30 4584 O 448.703 -1.55126 1.19635 0
M  V30 4585 H 447.283 0.258348 0.700903 0
M  V30 4586 H 449.945 1.28974 1.46122 0
M  V30 4587 H 449.041 0.991066 2.95946 0
M  V30 4588 N 449.342 -1.36122 0.79427 0
M  V30 4589 C 450.567 -2.03891 0.379871 0
M  V30 4590 C 450.992 -1.59488 -0.997251 0
M  V30 4591 O 450.35 -0.765652 -1.64339 0
M  V30 4592 C 450.398 -3.57687 0.457442 0
M  V30 4593 O 449.502 -4.08931 -0.5338 0
M  V30 4594 H 448.843 -0.6443 0.160541 0
M  V30 4595 H 451.373 -1.73976 1.07673 0
M  V30 4596 H 451.383 -4.06721 0.322792 0
M  V30 4597 H 450.058 -3.89357 1.46199 0
M  V30 4598 H 448.635 -3.71154 -0.360409 0
M  V30 4599 N 450.82 -0.546701 -1.47814 0
M  V30 4600 C 452.066 -0.0187684 -2.02791 0
M  V30 4601 C 452.399 1.32338 -1.42128 0
M  V30 4602 O 451.674 1.85867 -0.573023 0
M  V30 4603 C 451.957 0.0854985 -3.59998 0
M  V30 4604 C 451.81 -1.283 -4.31114 0
M  V30 4605 C 453.129 0.80412 -4.32691 0
M  V30 4606 H 450.248 -0.0082946 -0.736953 0
M  V30 4607 H 452.89 -0.706962 -1.76358 0
M  V30 4608 H 451.04 0.671609 -3.82651 0
M  V30 4609 H 452.712 -1.91151 -4.19832 0
M  V30 4610 H 450.955 -1.86049 -3.91878 0
M  V30 4611 H 451.626 -1.16287 -5.39612 0
M  V30 4612 H 454.102 0.306576 -4.14969 0
M  V30 4613 H 452.978 0.846011 -5.42341 0
M  V30 4614 H 453.239 1.85802 -4.01161 0
M  V30 4615 N 452.299 1.55045 -0.282633 0
M  V30 4616 C 453.546 1.9976 0.33199 0
M  V30 4617 C 453.874 1.17105 1.55295 0
M  V30 4618 O 453.129 0.230599 1.94337 0
M  V30 4619 C 453.428 3.49422 0.750938 0
M  V30 4620 C 453.094 4.4941 -0.366228 0
M  V30 4621 C 451.756 4.76471 -0.672964 0
M  V30 4622 C 454.108 5.09054 -1.11864 0
M  V30 4623 C 451.436 5.60442 -1.73556 0
M  V30 4624 C 453.788 5.9418 -2.17102 0
M  V30 4625 C 452.452 6.19558 -2.48402 0
M  V30 4626 H 451.722 0.730974 0.121484 0
M  V30 4627 H 454.369 1.8732 -0.39791 0
M  V30 4628 H 452.674 3.59377 1.56063 0
M  V30 4629 H 454.371 3.81432 1.23736 0
M  V30 4630 H 450.961 4.2844 -0.117041 0
M  V30 4631 H 455.145 4.88165 -0.894925 0
M  V30 4632 H 450.401 5.78349 -1.983 0
M  V30 4633 H 454.575 6.39427 -2.75873 0
M  V30 4634 H 452.202 6.84417 -3.30874 0
M  V30 4635 N 453.777 0.010035 1.57597 0
M  V30 4636 C 455.005 -0.683413 1.95287 0
M  V30 4637 C 455.42 -1.66747 0.885481 0
M  V30 4638 O 454.777 -1.82003 -0.134629 0
M  V30 4639 C 454.828 -1.40652 3.33015 0
M  V30 4640 O 454.549 -0.461916 4.35658 0
M  V30 4641 C 456.05 -2.19356 3.85225 0
M  V30 4642 H 453.27 -0.189708 0.643624 0
M  V30 4643 H 455.814 0.0641359 2.04399 0
M  V30 4644 H 453.969 -2.10562 3.2518 0
M  V30 4645 H 454.383 -0.973215 5.15392 0
M  V30 4646 H 455.857 -2.65433 4.83993 0
M  V30 4647 H 456.334 -3.02457 3.18459 0
M  V30 4648 H 456.94 -1.54442 3.96267 0
M  V30 4649 N 455.255 -1.55392 -0.262866 0
M  V30 4650 C 456.503 -1.76127 -0.991147 0
M  V30 4651 C 456.824 -0.571083 -1.8645 0
M  V30 4652 O 456.094 0.413698 -1.91482 0
M  V30 4653 H 454.674 -0.649528 -0.368948 0
M  V30 4654 H 457.336 -1.9281 -0.284655 0
M  V30 4655 H 456.432 -2.6663 -1.62219 0
M  V30 4656 N 456.733 0.527833 -1.48498 0
M  V30 4657 C 457.68 1.6322 -1.6318 0
M  V30 4658 C 458.65 1.59199 -0.473815 0
M  V30 4659 O 459.835 1.77591 -0.697563 0
M  V30 4660 C 456.975 3.01474 -1.67951 0
M  V30 4661 C 456.088 3.15713 -2.94871 0
M  V30 4662 C 455.223 4.44539 -2.90789 0
M  V30 4663 C 454.262 4.52315 -4.12404 0
M  V30 4664 N 453.399 5.72533 -4.06387 0
M  V30 4665 H 458.239 1.50011 -2.57489 0
M  V30 4666 H 455.776 0.730298 -1.27691 0
M  V30 4667 H 457.734 3.81572 -1.68698 0
M  V30 4668 H 456.364 3.1345 -0.771306 0
M  V30 4669 H 455.416 2.28854 -3.03859 0
M  V30 4670 H 456.728 3.1732 -3.8485 0
M  V30 4671 H 455.882 5.3293 -2.89949 0
M  V30 4672 H 454.621 4.45457 -1.98542 0
M  V30 4673 H 453.626 3.62331 -4.13517 0
M  V30 4674 H 454.851 4.53134 -5.05812 0
M  V30 4675 H 452.797 5.74344 -3.16962 0
M  V30 4676 H 452.714 5.75643 -4.90073 0
M  V30 4677 H 453.982 6.63204 -4.0961 0
M  V30 4678 N 458.211 1.37122 0.776871 0
M  V30 4679 C 459.174 1.32301 1.8716 0
M  V30 4680 C 460.174 0.228099 1.59174 0
M  V30 4681 O 461.364 0.483642 1.67352 0
M  V30 4682 C 458.496 1.054 3.24197 0
M  V30 4683 H 459.689 2.29673 1.92848 0
M  V30 4684 H 457.242 1.22077 0.97606 0
M  V30 4685 H 457.977 0.0853872 3.24188 0
M  V30 4686 H 457.762 1.84648 3.45901 0
M  V30 4687 H 459.252 1.04664 4.04271 0
M  V30 4688 N 459.689 -1.00246 1.21608 0
M  V30 4689 C 460.935 -1.74319 1.03638 0
M  V30 4690 C 461.268 -1.89408 -0.428749 0
M  V30 4691 O 460.543 -1.43026 -1.3181 0
M  V30 4692 C 460.826 -3.15431 1.73711 0
M  V30 4693 C 460.679 -3.08049 3.27759 0
M  V30 4694 C 461.998 -4.14407 1.48173 0
M  V30 4695 H 459.117 -0.632741 0.377899 0
M  V30 4696 H 461.759 -1.16853 1.49818 0
M  V30 4697 H 459.909 -3.64493 1.34452 0
M  V30 4698 H 461.581 -2.66681 3.76403 0
M  V30 4699 H 459.824 -2.45088 3.57931 0
M  V30 4700 H 460.495 -4.07862 3.71958 0
M  V30 4701 H 462.971 -3.74061 1.82258 0
M  V30 4702 H 461.847 -5.11279 1.99713 0
M  V30 4703 H 462.108 -4.40174 0.412273 0
M  V30 4704 N 461.167 -1.02423 -1.1978 0
M  V30 4705 C 462.583 -0.740459 -1.41384 0
M  V30 4706 C 462.783 0.676827 -1.89793 0
M  V30 4707 O 461.839 1.4435 -2.0717 0
M  V30 4708 C 463.152 -1.77264 -2.42895 0
M  V30 4709 C 464.7 -1.79165 -2.56649 0
M  V30 4710 C 465.175 -2.8133 -3.6141 0
M  V30 4711 N 466.666 -2.80118 -3.68901 0
M  V30 4712 C 467.401 -3.55824 -4.49641 0
M  V30 4713 N 466.897 -4.41231 -5.34123 0
M  V30 4714 N 468.69 -3.44387 -4.44246 0
M  V30 4715 H 460.841 -1.9391 -0.866764 0
M  V30 4716 H 463.104 -0.838074 -0.443098 0
M  V30 4717 H 462.81 -2.7884 -2.14339 0
M  V30 4718 H 462.684 -1.59108 -3.42001 0
M  V30 4719 H 465.071 -0.782702 -2.84531 0
M  V30 4720 H 465.152 -2.01396 -1.57713 0
M  V30 4721 H 464.796 -3.82394 -3.34271 0
M  V30 4722 H 464.726 -2.56359 -4.59986 0
M  V30 4723 H 467.217 -2.1817 -3.08562 0
M  V30 4724 H 467.53 -4.95747 -5.92836 0
M  V30 4725 H 465.875 -4.45306 -5.33599 0
M  V30 4726 H 469.066 -2.7708 -3.77285 0
M  V30 4727 H 469.239 -4.0364 -5.06931 0
M  V30 4728 N 462.645 1.35699 -0.801477 0
M  V30 4729 C 463.555 2.33661 -0.209691 0
M  V30 4730 C 464.571 1.6162 0.644591 0
M  V30 4731 O 465.747 1.93529 0.557545 0
M  V30 4732 C 462.812 3.40816 0.636033 0
M  V30 4733 C 461.873 4.28639 -0.238147 0
M  V30 4734 C 461.106 5.30676 0.567307 0
M  V30 4735 O 461.329 5.41174 1.8024 0
M  V30 4736 O 460.263 6.01887 -0.0391336 0
M  V30 4737 H 464.089 2.8606 -1.01996 0
M  V30 4738 H 461.674 1.38379 -0.563164 0
M  V30 4739 H 463.556 4.06301 1.11791 0
M  V30 4740 H 462.231 2.90696 1.42399 0
M  V30 4741 H 461.138 3.66152 -0.767044 0
M  V30 4742 H 462.471 4.82143 -0.989915 0
M  V30 4743 N 464.123 0.554532 1.47522 0
M  V30 4744 C 465.086 -0.184174 2.28459 0
M  V30 4745 C 466.086 -0.845195 1.36796 0
M  V30 4746 O 467.276 -0.701467 1.59452 0
M  V30 4747 C 464.408 -1.26903 3.16399 0
M  V30 4748 H 465.601 0.526751 2.95238 0
M  V30 4749 H 463.154 0.311375 1.53167 0
M  V30 4750 H 463.889 -2.01244 2.54306 0
M  V30 4751 H 463.674 -0.799883 3.83854 0
M  V30 4752 H 465.164 -1.78794 3.77389 0
M  V30 4753 N 465.601 -1.54893 0.290851 0
M  V30 4754 C 466.548 -2.23138 -0.58974 0
M  V30 4755 C 467.518 -1.21036 -1.13752 0
M  V30 4756 O 468.703 -1.49626 -1.18392 0
M  V30 4757 C 465.843 -2.96811 -1.76061 0
M  V30 4758 C 464.956 -4.13665 -1.24519 0
M  V30 4759 C 464.091 -4.74944 -2.3791 0
M  V30 4760 C 463.13 -5.83963 -1.83451 0
M  V30 4761 N 462.267 -6.39239 -2.90376 0
M  V30 4762 H 467.107 -2.98 -0.00114915 0
M  V30 4763 H 464.644 -1.47096 0.0112006 0
M  V30 4764 H 466.602 -3.37751 -2.44909 0
M  V30 4765 H 465.232 -2.24344 -2.32098 0
M  V30 4766 H 464.284 -3.77737 -0.449288 0
M  V30 4767 H 465.596 -4.92238 -0.806424 0
M  V30 4768 H 464.75 -5.18684 -3.14724 0
M  V30 4769 H 463.489 -3.95682 -2.85109 0
M  V30 4770 H 462.494 -5.39657 -1.05122 0
M  V30 4771 H 463.719 -6.65103 -1.37169 0
M  V30 4772 H 461.665 -5.62864 -3.36927 0
M  V30 4773 H 461.582 -7.13129 -2.50965 0
M  V30 4774 H 462.85 -6.87637 -3.67118 0
M  V30 4775 N 467.08 -0.0183926 -1.57589 0
M  V30 4776 C 468.32 0.666846 -1.93216 0
M  V30 4777 C 468.684 1.69905 -0.894215 0
M  V30 4778 O 469.885 2.436 -1.13633 0
M  V30 4779 C 468.156 1.27684 -3.33814 0
M  V30 4780 S 469.715 1.98464 -3.91353 0
M  V30 4781 H 466.533 0.219826 -0.676164 0
M  V30 4782 H 469.135 -0.0794893 -1.95338 0
M  V30 4783 H 467.839 0.513006 -4.07181 0
M  V30 4784 H 467.37 2.06071 -3.3511 0
M  V30 4785 H 469.385 3.26189 -3.73918 0
M  V30 4786 N 468.558 1.5553 0.254621 0
M  V30 4787 C 469.806 1.7665 0.981793 0
M  V30 4788 C 470.127 0.580963 1.86145 0
M  V30 4789 O 469.397 -0.403537 1.91699 0
M  V30 4790 H 467.977 0.651475 0.365498 0
M  V30 4791 H 470.639 1.92958 0.274426 0
M  V30 4792 H 469.735 2.67486 1.60802 0
M  V30 4793 N 470.036 -0.519951 1.48776 0
M  V30 4794 C 471.313 -1.28123 1.47797 0
M  V30 4795 C 471.693 -2.10196 0.195157 0
M  V30 4796 O 471.041 -2.13167 -0.822925 0
M  V30 4797 C 471.251 -2.15413 2.74587 0
M  V30 4798 C 472.599 -2.75225 3.23321 0
M  V30 4799 O 473.623 -2.25694 2.75574 0
M  V30 4800 O 472.482 -3.65346 4.06429 0
M  V30 4801 H 469.576 -0.578793 0.590701 0
M  V30 4802 H 472.122 -0.535779 1.6102 0
M  V30 4803 H 470.894 -1.54617 3.59457 0
M  V30 4804 H 470.517 -2.97186 2.64132 0
M  V30 4805 N 471.514 -1.37532 -0.769588 0
M  V30 4806 C 472.761 -1.3286 -1.52822 0
M  V30 4807 C 473.089 0.0862597 -1.94309 0
M  V30 4808 O 472.344 1.05995 -1.6451 0
M  V30 4809 C 472.643 -2.21558 -2.8044 0
M  V30 4810 C 472.309 -3.69796 -2.57996 0
M  V30 4811 C 470.971 -4.10194 -2.51583 0
M  V30 4812 C 473.323 -4.63699 -2.37976 0
M  V30 4813 C 470.651 -5.42608 -2.23144 0
M  V30 4814 C 473.003 -5.96353 -2.1106 0
M  V30 4815 C 471.667 -6.35853 -2.03093 0
M  V30 4816 H 470.937 -0.486168 -0.559215 0
M  V30 4817 H 473.584 -1.69757 -0.886277 0
M  V30 4818 H 471.889 -1.77663 -3.49204 0
M  V30 4819 H 473.586 -2.15256 -3.38328 0
M  V30 4820 H 470.176 -3.37759 -2.63851 0
M  V30 4821 H 474.36 -4.33346 -2.41919 0
M  V30 4822 H 469.616 -5.72173 -2.15472 0
M  V30 4823 H 473.79 -6.68667 -1.94568 0
M  V30 4824 H 471.417 -7.38382 -1.8082 0
M  V30 4825 N 472.992 0.995999 -1.22138 0
M  V30 4826 C 473.939 2.08551 -0.988687 0
M  V30 4827 C 474.909 1.65864 0.0885021 0
M  V30 4828 O 476.094 1.90704 -0.0604589 0
M  V30 4829 C 473.234 3.40374 -0.569191 0
M  V30 4830 C 472.347 3.96421 -1.71681 0
M  V30 4831 C 471.482 5.1639 -1.2456 0
M  V30 4832 C 470.521 5.64567 -2.36497 0
M  V30 4833 N 469.658 6.75777 -1.90445 0
M  V30 4834 H 474.498 2.2779 -1.92135 0
M  V30 4835 H 472.035 1.1168 -0.957388 0
M  V30 4836 H 473.993 4.16068 -0.307166 0
M  V30 4837 H 472.623 3.21145 0.326462 0
M  V30 4838 H 471.675 3.17628 -2.09324 0
M  V30 4839 H 472.987 4.2816 -2.55891 0
M  V30 4840 H 472.141 5.99362 -0.940774 0
M  V30 4841 H 470.88 4.86266 -0.373662 0
M  V30 4842 H 469.885 4.80185 -2.67772 0
M  V30 4843 H 471.11 5.96716 -3.24202 0
M  V30 4844 H 469.056 6.47443 -1.05609 0
M  V30 4845 H 468.973 7.06818 -2.68223 0
M  V30 4846 H 470.241 7.62262 -1.63022 0
M  V30 4847 N 474.47 1.03057 1.19235 0
M  V30 4848 C 475.433 0.617418 2.20727 0
M  V30 4849 C 476.433 -0.319856 1.57587 0
M  V30 4850 O 477.623 -0.106633 1.73873 0
M  V30 4851 C 474.755 -0.096296 3.40764 0
M  V30 4852 H 475.948 1.51544 2.58794 0
M  V30 4853 H 473.501 0.821949 1.32942 0
M  V30 4854 H 474.236 -1.00859 3.08217 0
M  V30 4855 H 474.021 0.577217 3.87828 0
M  V30 4856 H 475.511 -0.372219 4.15938 0
M  V30 4857 N 475.948 -1.35272 0.808662 0
M  V30 4858 C 477.194 -1.99003 0.390581 0
M  V30 4859 C 477.527 -1.63999 -1.0401 0
M  V30 4860 O 476.802 -0.904368 -1.72196 0
M  V30 4861 C 477.085 -3.55454 0.576566 0
M  V30 4862 C 476.938 -4.00249 2.05233 0
M  V30 4863 C 478.257 -4.401 0.00354277 0
M  V30 4864 H 475.376 -0.722917 0.143388 0
M  V30 4865 H 478.018 -1.6039 1.01858 0
M  V30 4866 H 476.168 -3.88477 0.0419766 0
M  V30 4867 H 477.84 -3.77626 2.64946 0
M  V30 4868 H 476.083 -3.51082 2.54801 0
M  V30 4869 H 476.754 -5.0911 2.13333 0
M  V30 4870 H 479.23 -4.13548 0.460117 0
M  V30 4871 H 478.106 -5.48656 0.163575 0
M  V30 4872 H 478.367 -4.28444 -1.09032 0
M  V30 4873 N 477.426 -0.562348 -1.47226 0
M  V30 4874 C 478.675 -0.038041 -2.01664 0
M  V30 4875 C 478.988 1.32199 -1.44162 0
M  V30 4876 O 480.194 1.9365 -1.90294 0
M  V30 4877 C 478.65 -0.0174958 -3.59896 0
M  V30 4878 C 478.258 -1.3746 -4.2639 0
M  V30 4879 C 480.002 0.453934 -4.22066 0
M  V30 4880 C 477.909 -1.31289 -5.76643 0
M  V30 4881 H 476.839 -0.0104511 -0.753928 0
M  V30 4882 H 479.49 -0.710966 -1.69167 0
M  V30 4883 H 477.872 0.721182 -3.89378 0
M  V30 4884 H 479.046 -2.1314 -4.08544 0
M  V30 4885 H 477.361 -1.78438 -3.7623 0
M  V30 4886 H 479.958 0.518584 -5.32179 0
M  V30 4887 H 480.301 1.46706 -3.89594 0
M  V30 4888 H 480.834 -0.230044 -3.97134 0
M  V30 4889 H 477.573 -2.30217 -6.13743 0
M  V30 4890 H 477.093 -0.597973 -5.96812 0
M  V30 4891 H 478.772 -1.01713 -6.38955 0
M  V30 4892 N 478.904 1.54736 -0.299062 0
M  V30 4893 C 480.15 2.00397 0.311244 0
M  V30 4894 C 480.483 1.18716 1.53688 0
M  V30 4895 O 479.758 0.263154 1.92712 0
M  V30 4896 C 480.041 3.53817 0.669761 0
M  V30 4897 C 479.894 4.46239 -0.564882 0
M  V30 4898 C 481.213 4.13856 1.49702 0
M  V30 4899 H 478.332 0.728493 0.111653 0
M  V30 4900 H 480.974 1.85506 -0.410774 0
M  V30 4901 H 479.124 3.66637 1.28491 0
M  V30 4902 H 480.796 4.45328 -1.20337 0
M  V30 4903 H 479.039 4.16916 -1.19849 0
M  V30 4904 H 479.71 5.5134 -0.269918 0
M  V30 4905 H 482.186 4.04461 0.977284 0
M  V30 4906 H 481.062 5.21365 1.71666 0
M  V30 4907 H 481.323 3.65608 2.48563 0
M  V30 4908 N 480.382 0.0267497 1.57577 0
M  V30 4909 C 481.292 -0.971633 2.13533 0
M  V30 4910 C 482.308 -1.35868 1.08701 0
M  V30 4911 O 483.484 -1.44058 1.40746 0
M  V30 4912 C 480.549 -2.23622 2.64941 0
M  V30 4913 C 479.61 -1.90982 3.8448 0
M  V30 4914 C 478.843 -3.11411 4.33427 0
M  V30 4915 O 479.066 -4.23992 3.81558 0
M  V30 4916 O 478 -2.93848 5.25297 0
M  V30 4917 H 481.826 -0.525853 2.99113 0
M  V30 4918 H 479.411 -0.193712 1.48139 0
M  V30 4919 H 481.293 -2.97864 2.98086 0
M  V30 4920 H 479.968 -2.67386 1.82446 0
M  V30 4921 H 478.875 -1.14132 3.56265 0
M  V30 4922 H 480.208 -1.52036 4.6813 0
M  V30 4923 N 481.861 -1.55662 -0.24637 0
M  V30 4924 C 483.107 -1.77782 -0.975779 0
M  V30 4925 C 483.44 -0.592103 -1.84953 0
M  V30 4926 O 482.715 0.409588 -1.90138 0
M  V30 4927 C 482.998 -3.09788 -1.83584 0
M  V30 4928 C 482.851 -4.38764 -0.990241 0
M  V30 4929 C 484.17 -3.38029 -2.81823 0
M  V30 4930 H 481.289 -0.646789 -0.353317 0
M  V30 4931 H 483.931 -1.88398 -0.246248 0
M  V30 4932 H 482.081 -3.00869 -2.45784 0
M  V30 4933 H 483.753 -4.59675 -0.386897 0
M  V30 4934 H 481.996 -4.32798 -0.294626 0
M  V30 4935 H 482.667 -5.27514 -1.62584 0
M  V30 4936 H 485.143 -3.46915 -2.2976 0
M  V30 4937 H 484.019 -4.3161 -3.39122 0
M  V30 4938 H 484.28 -2.58968 -3.58313 0
M  V30 4939 N 483.339 0.512053 -1.4905 0
M  V30 4940 C 484.564 1.2959 -1.6193 0
M  V30 4941 C 484.989 1.85906 -0.286454 0
M  V30 4942 O 484.347 1.65312 0.744426 0
M  V30 4943 C 484.395 2.40987 -2.68249 0
M  V30 4944 O 483.499 3.44531 -2.26654 0
M  V30 4945 H 482.84 0.383053 -0.542371 0
M  V30 4946 H 485.37 0.614231 -1.95162 0
M  V30 4947 H 485.38 2.86913 -2.90078 0
M  V30 4948 H 484.055 1.99361 -3.65004 0
M  V30 4949 H 482.632 3.046 -2.15112 0
M  V30 4950 N 484.817 1.37938 0.762283 0
M  V30 4951 C 486.065 1.33404 1.51815 0
M  V30 4952 C 486.386 -0.0780975 1.94844 0
M  V30 4953 O 485.656 -1.02405 1.67003 0
M  V30 4954 H 484.236 0.490839 0.563104 0
M  V30 4955 H 486.898 1.72527 0.906669 0
M  V30 4956 H 485.994 1.97926 2.41313 0
M  V30 4957 N 486.295 -0.989507 1.22664 0
M  V30 4958 C 487.227 -2.0824 0.957542 0
M  V30 4959 C 488.24 -1.6267 -0.0651098 0
M  V30 4960 O 489.429 -1.77695 0.169312 0
M  V30 4961 C 486.529 -3.36298 0.419145 0
M  V30 4962 C 485.702 -4.10882 1.49982 0
M  V30 4963 C 484.761 -5.17221 0.967904 0
M  V30 4964 O 483.787 -5.44613 1.65487 0
M  V30 4965 N 484.989 -5.80124 -0.20896 0
M  V30 4966 H 487.754 -2.31904 1.89843 0
M  V30 4967 H 485.315 -1.15552 1.13399 0
M  V30 4968 H 487.307 -4.04671 0.0485451 0
M  V30 4969 H 485.877 -3.09671 -0.426937 0
M  V30 4970 H 485.097 -3.37092 2.04359 0
M  V30 4971 H 486.385 -4.57482 2.22682 0
M  V30 4972 H 485.783 -5.60244 -0.783818 0
M  V30 4973 H 484.34 -6.49715 -0.520913 0
M  V30 4974 N 487.773 -1.03688 -1.18687 0
M  V30 4975 C 488.736 -0.629115 -2.20397 0
M  V30 4976 C 489.736 0.311495 -1.57754 0
M  V30 4977 O 490.926 0.0974107 -1.73927 0
M  V30 4978 C 488.058 0.0782231 -3.4081 0
M  V30 4979 H 489.251 -1.52915 -2.57987 0
M  V30 4980 H 486.804 -0.828988 -1.32505 0
M  V30 4981 H 487.539 0.992233 -3.08748 0
M  V30 4982 H 487.324 -0.597776 -3.87517 0
M  V30 4983 H 488.814 0.350156 -4.16129 0
M  V30 4984 N 489.251 1.34841 -0.815825 0
M  V30 4985 C 490.201 2.27075 -0.205169 0
M  V30 4986 C 491.185 1.48205 0.626414 0
M  V30 4987 O 492.377 1.70306 0.482157 0
M  V30 4988 C 489.506 3.37322 0.637871 0
M  V30 4989 C 488.592 4.23609 -0.203948 0
M  V30 4990 N 488.983 4.89558 -1.27149 0
M  V30 4991 C 487.281 4.45998 0.0128971 0
M  V30 4992 C 487.982 5.53597 -1.7862 0
M  V30 4993 N 486.958 5.32535 -1.0912 0
M  V30 4994 H 490.76 2.75563 -1.02187 0
M  V30 4995 H 488.274 1.48477 -0.657912 0
M  V30 4996 H 490.271 4.02359 1.09146 0
M  V30 4997 H 488.931 2.90385 1.45281 0
M  V30 4998 H 489.942 4.9077 -1.65423 0
M  V30 4999 H 486.619 4.09837 0.79624 0
M  V30 5000 H 488.009 6.16184 -2.67892 0
M  V30 5001 N 490.729 0.570148 1.46925 0
M  V30 5002 C 491.959 0.0561151 2.06524 0
M  V30 5003 C 492.367 -1.24874 1.42137 0
M  V30 5004 O 491.71 -1.76292 0.516417 0
M  V30 5005 C 491.772 -0.197035 3.5896 0
M  V30 5006 C 491.436 1.02033 4.45464 0
M  V30 5007 C 492.433 1.92921 4.82781 0
M  V30 5008 C 490.118 1.23864 4.86788 0
M  V30 5009 C 492.112 3.03999 5.60235 0
M  V30 5010 C 489.799 2.35249 5.64004 0
M  V30 5011 C 490.797 3.25146 6.0064 0
M  V30 5012 O 490.485 4.34598 6.76299 0
M  V30 5013 H 490.217 0.0487409 0.674241 0
M  V30 5014 H 492.771 0.786915 1.89728 0
M  V30 5015 H 491.001 -0.982299 3.74016 0
M  V30 5016 H 492.69 -0.658032 4.00531 0
M  V30 5017 H 493.456 1.77265 4.51444 0
M  V30 5018 H 489.335 0.54805 4.57731 0
M  V30 5019 H 492.879 3.74192 5.8875 0
M  V30 5020 H 488.776 2.50873 5.94755 0
M  V30 5021 H 489.544 4.32808 6.94708 0
M  V30 5022 N 492.207 -1.54576 0.307264 0
M  V30 5023 C 493.435 -2.04675 -0.302597 0
M  V30 5024 C 493.85 -1.18425 -1.47041 0
M  V30 5025 O 493.207 -0.211257 -1.81273 0
M  V30 5026 C 493.258 -3.53575 -0.752801 0
M  V30 5027 O 492.979 -4.36547 0.368536 0
M  V30 5028 C 494.48 -4.19699 -1.42717 0
M  V30 5029 H 491.7 -0.66786 -0.0648374 0
M  V30 5030 H 494.244 -1.99516 0.448716 0
M  V30 5031 H 492.399 -3.59074 -1.45412 0
M  V30 5032 H 492.813 -5.24497 0.0168937 0
M  V30 5033 H 494.287 -5.25388 -1.69327 0
M  V30 5034 H 494.764 -3.69815 -2.36925 0
M  V30 5035 H 495.37 -4.18293 -0.768856 0
M  V30 5036 N 493.685 -0.035106 -1.57561 0
M  V30 5037 C 494.933 0.64096 -1.91667 0
M  V30 5038 C 495.254 1.72323 -0.912681 0
M  V30 5039 O 494.524 1.95849 0.0449089 0
M  V30 5040 H 493.104 0.239743 -0.707483 0
M  V30 5041 H 495.766 -0.084321 -1.94718 0
M  V30 5042 H 494.862 1.08987 -2.92452 0
M  V30 5043 N 495.163 1.55791 0.238111 0
M  V30 5044 C 496.391 1.82098 0.982233 0
M  V30 5045 C 496.806 0.612025 1.78605 0
M  V30 5046 O 496.163 -0.419381 1.77616 0
M  V30 5047 C 496.214 3.0673 1.91309 0
M  V30 5048 O 495.935 4.2296 1.14179 0
M  V30 5049 C 497.436 3.45903 2.77248 0
M  V30 5050 H 494.656 0.605748 0.288635 0
M  V30 5051 H 497.2 2.02862 0.258341 0
M  V30 5052 H 495.355 2.87991 2.59114 0
M  V30 5053 H 495.769 4.93653 1.7722 0
M  V30 5054 H 497.243 4.36189 3.38295 0
M  V30 5055 H 497.72 2.66891 3.48806 0
M  V30 5056 H 498.326 3.67024 2.14881 0
M  V30 5057 N 496.642 -0.504142 1.49319 0
M  V30 5058 C 497.605 -1.5883 1.65244 0
M  V30 5059 C 498.605 -1.52009 0.524386 0
M  V30 5060 O 499.795 -1.55218 0.79077 0
M  V30 5061 C 496.927 -2.98481 1.64687 0
M  V30 5062 H 498.12 -1.4604 2.61939 0
M  V30 5063 H 495.673 -0.728144 1.38303 0
M  V30 5064 H 496.408 -3.16751 0.695644 0
M  V30 5065 H 496.193 -3.0484 2.46607 0
M  V30 5066 H 497.683 -3.77256 1.79075 0
M  V30 5067 N 498.12 -1.38341 -0.754957 0
M  V30 5068 C 499.345 -1.37882 -1.5493 0
M  V30 5069 C 499.77 0.0296385 -1.88077 0
M  V30 5070 O 499.128 1.01133 -1.50472 0
M  V30 5071 C 499.176 -2.23996 -2.82592 0
M  V30 5072 O 498.28 -1.65612 -3.77686 0
M  V30 5073 H 497.621 -0.470384 -0.468652 0
M  V30 5074 H 500.151 -1.82084 -0.933082 0
M  V30 5075 H 500.161 -2.37806 -3.3153 0
M  V30 5076 H 498.836 -3.26365 -2.57796 0
M  V30 5077 H 497.413 -1.60936 -3.36384 0
M  V30 5078 N 499.598 0.982988 -1.23187 0
M  V30 5079 C 500.845 1.72392 -1.06241 0
M  V30 5080 C 501.173 1.9032 0.40108 0
M  V30 5081 O 500.428 1.45084 1.31336 0
M  V30 5082 C 500.727 3.12736 -1.73006 0
M  V30 5083 C 500.393 3.14695 -3.22921 0
M  V30 5084 C 499.055 3.14937 -3.63824 0
M  V30 5085 C 501.407 3.10211 -4.1883 0
M  V30 5086 C 498.735 3.08408 -4.99101 0
M  V30 5087 C 501.087 3.05224 -5.54095 0
M  V30 5088 C 499.751 3.03787 -5.94365 0
M  V30 5089 H 499.021 0.630829 -0.388762 0
M  V30 5090 H 501.668 1.15053 -1.53085 0
M  V30 5091 H 499.973 3.73446 -1.18514 0
M  V30 5092 H 501.67 3.68828 -1.57374 0
M  V30 5093 H 498.26 3.15262 -2.90358 0
M  V30 5094 H 502.444 3.09166 -3.8824 0
M  V30 5095 H 497.7 3.05646 -5.29519 0
M  V30 5096 H 501.874 3.00712 -6.28128 0
M  V30 5097 H 499.501 2.98483 -6.99151 0
M  V30 5098 N 501.076 1.04316 1.18135 0
M  V30 5099 C 502.325 0.74319 1.87509 0
M  V30 5100 C 502.638 -0.732136 1.81381 0
M  V30 5101 O 503.844 -1.14572 2.46141 0
M  V30 5102 C 502.3 1.27913 3.36402 0
M  V30 5103 C 501.908 2.78326 3.51053 0
M  V30 5104 C 503.652 1.0558 4.11161 0
M  V30 5105 C 501.559 3.25266 4.93919 0
M  V30 5106 H 500.489 0.274313 0.702331 0
M  V30 5107 H 503.14 1.25931 1.33467 0
M  V30 5108 H 501.522 0.690853 3.89927 0
M  V30 5109 H 502.696 3.42933 3.07788 0
M  V30 5110 H 501.011 2.991 2.89704 0
M  V30 5111 H 503.608 1.38161 5.16542 0
M  V30 5112 H 503.951 -0.00684729 4.16299 0
M  V30 5113 H 504.484 1.60882 3.63816 0
M  V30 5114 H 501.223 4.30922 4.9395 0
M  V30 5115 H 500.743 2.65396 5.3789 0
M  V30 5116 H 502.422 3.19433 5.62647 0
M  V30 5117 N 502.554 -1.34406 0.822964 0
M  V30 5118 C 503.803 -1.97542 0.407458 0
M  V30 5119 C 504.116 -1.65973 -1.035 0
M  V30 5120 O 505.322 -2.22598 -1.55442 0
M  V30 5121 C 503.778 -3.53463 0.677623 0
M  V30 5122 C 503.386 -3.93925 2.1337 0
M  V30 5123 C 505.13 -4.23229 0.328284 0
M  V30 5124 C 503.037 -5.42759 2.34876 0
M  V30 5125 H 501.967 -0.739207 0.148623 0
M  V30 5126 H 504.618 -1.53248 1.00932 0
M  V30 5127 H 503 -3.96 0.00558965 0
M  V30 5128 H 504.174 -3.62494 2.8449 0
M  V30 5129 H 502.489 -3.37097 2.44448 0
M  V30 5130 H 505.086 -5.32659 0.466794 0
M  V30 5131 H 505.429 -4.09899 -0.727224 0
M  V30 5132 H 505.962 -3.86169 0.954896 0
M  V30 5133 H 502.701 -5.61075 3.38932 0
M  V30 5134 H 502.221 -5.75704 1.68299 0
M  V30 5135 H 503.9 -6.0944 2.17236 0
M  V30 5136 N 504.032 -0.577932 -1.46621 0
M  V30 5137 C 504.942 0.160651 -2.34049 0
M  V30 5138 C 505.958 0.890911 -1.49462 0
M  V30 5139 O 507.134 0.855166 -1.82343 0
M  V30 5140 C 504.199 1.16447 -3.26559 0
M  V30 5141 C 503.26 0.4394 -4.27045 0
M  V30 5142 C 502.493 1.3954 -5.15135 0
M  V30 5143 O 502.716 2.63162 -5.06065 0
M  V30 5144 O 501.65 0.908585 -5.95003 0
M  V30 5145 H 505.476 -0.557057 -2.98547 0
M  V30 5146 H 503.061 -0.338369 -1.45518 0
M  V30 5147 H 504.943 1.7434 -3.83645 0
M  V30 5148 H 503.618 1.86373 -2.64663 0
M  V30 5149 H 502.525 -0.181247 -3.73661 0
M  V30 5150 H 503.858 -0.218799 -4.91713 0
M  V30 5151 N 505.51 1.54411 -0.315457 0
M  V30 5152 C 506.787 1.92562 0.343398 0
M  V30 5153 C 507.167 1.24423 1.70535 0
M  V30 5154 O 506.515 0.385051 2.25232 0
M  V30 5155 C 506.725 3.46168 0.443687 0
M  V30 5156 C 508.073 4.18659 0.707783 0
M  V30 5157 O 509.097 3.52281 0.52693 0
M  V30 5158 O 507.956 5.36198 1.05612 0
M  V30 5159 H 505.05 0.80379 0.194552 0
M  V30 5160 H 507.596 1.65738 -0.364577 0
M  V30 5161 H 506.368 3.8792 -0.513172 0
M  V30 5162 H 505.991 3.79073 1.19956 0
M  V30 5163 N 506.988 0.0434614 1.5754 0
M  V30 5164 C 508.265 -0.671479 1.83713 0
M  V30 5165 C 508.645 -1.89495 0.930315 0
M  V30 5166 O 507.993 -2.28498 -0.0105639 0
M  V30 5167 C 508.203 -1.0361 3.33266 0
M  V30 5168 C 509.551 -1.42167 4.00092 0
M  V30 5169 O 510.575 -1.12866 3.37846 0
M  V30 5170 O 509.434 -1.96817 5.09829 0
M  V30 5171 H 506.528 -0.330726 0.75799 0
M  V30 5172 H 509.074 0.0722373 1.69546 0
M  V30 5173 H 507.846 -0.165938 3.90948 0
M  V30 5174 H 507.469 -1.83751 3.52592 0
M  V30 5175 N 508.466 -1.55915 -0.229846 0
M  V30 5176 C 509.743 -1.6932 -0.979295 0
M  V30 5177 C 510.123 -0.588321 -2.02736 0
M  V30 5178 O 509.471 0.40586 -2.24867 0
M  V30 5179 C 509.681 -3.10305 -1.59724 0
M  V30 5180 C 511.029 -3.6945 -2.09264 0
M  V30 5181 O 512.053 -3.13214 -1.69633 0
M  V30 5182 O 510.912 -4.68072 -2.82082 0
M  V30 5183 H 508.006 -0.689314 -0.456919 0
M  V30 5184 H 510.552 -1.68238 -0.222283 0
M  V30 5185 H 509.324 -3.82177 -0.840039 0
M  V30 5186 H 508.947 -3.1547 -2.42001 0
M  V30 5187 N 509.944 0.496216 -1.49584 0
M  V30 5188 C 511.355 1.07765 -1.52459 0
M  V30 5189 C 511.706 1.93679 -0.31353 0
M  V30 5190 O 510.831 2.08588 0.576186 0
M  V30 5191 C 511.426 1.96111 -2.76271 0
M  V30 5192 C 509.985 2.49409 -2.81908 0
M  V30 5193 C 509.132 1.27142 -2.46435 0
M  V30 5194 H 512.083 0.279914 -1.56212 0
M  V30 5195 H 512.104 2.80862 -2.56704 0
M  V30 5196 H 511.616 1.33555 -3.64396 0
M  V30 5197 H 509.717 3.1559 -1.98074 0
M  V30 5198 H 509.83 2.86234 -3.84196 0
M  V30 5199 H 508.194 1.59818 -1.98319 0
M  V30 5200 H 508.977 0.662866 -3.3684 0
M  V30 5201 N 511.423 1.38739 0.74761 0
M  V30 5202 C 512.353 1.39173 1.87492 0
M  V30 5203 C 513.334 0.256794 1.6815 0
M  V30 5204 O 514.519 0.460762 1.88655 0
M  V30 5205 C 511.649 1.22197 3.25093 0
M  V30 5206 C 510.603 2.32957 3.59047 0
M  V30 5207 C 509.929 2.01082 4.95449 0
M  V30 5208 C 511.229 3.75237 3.6331 0
M  V30 5209 H 512.923 2.3351 1.87386 0
M  V30 5210 H 510.469 1.12399 0.900134 0
M  V30 5211 H 512.422 1.21124 4.03617 0
M  V30 5212 H 511.146 0.243241 3.25693 0
M  V30 5213 H 509.805 2.33226 2.82845 0
M  V30 5214 H 509.453 1.01678 4.92616 0
M  V30 5215 H 509.153 2.75267 5.19136 0
M  V30 5216 H 510.677 2.01638 5.76346 0
M  V30 5217 H 512.091 3.76966 4.31937 0
M  V30 5218 H 510.488 4.48677 3.98509 0
M  V30 5219 H 511.558 4.07122 2.634 0
M  V30 5220 N 512.901 -0.976442 1.23707 0
M  V30 5221 C 514.317 -1.24341 1.00058 0
M  V30 5222 C 514.517 -1.99315 -0.295932 0
M  V30 5223 O 513.573 -2.3123 -1.01435 0
M  V30 5224 C 514.886 -2.03909 2.21001 0
M  V30 5225 C 516.434 -2.17034 2.25534 0
M  V30 5226 C 516.909 -2.99994 3.46075 0
M  V30 5227 N 518.4 -3.07578 3.46338 0
M  V30 5228 C 519.135 -3.72104 4.36264 0
M  V30 5229 N 518.631 -4.3842 5.36432 0
M  V30 5230 N 520.424 -3.69029 4.23998 0
M  V30 5231 H 512.575 -0.47428 2.07037 0
M  V30 5232 H 514.838 -0.272167 0.908091 0
M  V30 5233 H 514.544 -1.56198 3.15111 0
M  V30 5234 H 514.418 -3.04654 2.22409 0
M  V30 5235 H 516.805 -2.63951 1.31961 0
M  V30 5236 H 516.886 -1.15664 2.28156 0
M  V30 5237 H 516.53 -2.53772 4.39957 0
M  V30 5238 H 516.46 -4.01541 3.40694 0
M  V30 5239 H 518.951 -2.60397 2.73865 0
M  V30 5240 H 519.264 -4.85447 6.013 0
M  V30 5241 H 517.609 -4.37116 5.40328 0
M  V30 5242 H 520.8 -3.16392 3.44984 0
M  V30 5243 H 520.973 -4.19034 4.94282 0
M  V30 5244 N 514.379 -1.04941 -1.1758 0
M  V30 5245 C 515.656 -0.671918 -1.83697 0
M  V30 5246 C 516.036 0.847929 -1.93322 0
M  V30 5247 O 515.384 1.75287 -1.46583 0
M  V30 5248 C 515.594 -1.35797 -3.21497 0
M  V30 5249 C 516.942 -1.4944 -3.97433 0
M  V30 5250 O 517.966 -1.31678 -3.30967 0
M  V30 5251 O 516.825 -1.78463 -5.1654 0
M  V30 5252 H 513.919 -0.236212 -0.792548 0
M  V30 5253 H 516.465 -1.14884 -1.24899 0
M  V30 5254 H 515.237 -2.39498 -3.09446 0
M  V30 5255 H 514.86 -0.870236 -3.8796 0
M  V30 5256 N 515.857 1.33968 -0.830081 0
M  V30 5257 C 517.105 1.97672 -0.420734 0
M  V30 5258 C 517.426 1.66111 1.02138 0
M  V30 5259 O 516.696 0.955503 1.71017 0
M  V30 5260 H 515.276 0.73125 -0.152587 0
M  V30 5261 H 517.938 1.63483 -1.0611 0
M  V30 5262 H 517.034 3.07294 -0.545588 0
M  V30 5263 N 517.335 0.585699 1.46312 0
M  V30 5264 C 518.582 0.0724211 2.0237 0
M  V30 5265 C 518.91 -1.28868 1.45683 0
M  V30 5266 O 518.165 -1.85853 0.612945 0
M  V30 5267 C 518.464 -0.0401312 3.57377 0
M  V30 5268 C 518.13 1.25376 4.33119 0
M  V30 5269 C 516.792 1.60824 4.5353 0
M  V30 5270 C 519.144 2.10987 4.76586 0
M  V30 5271 C 516.472 2.81676 5.14661 0
M  V30 5272 C 518.824 3.31068 5.39052 0
M  V30 5273 C 517.488 3.66794 5.5769 0
M  V30 5274 H 516.758 0.0265007 0.740526 0
M  V30 5275 H 519.405 0.762935 1.75646 0
M  V30 5276 H 517.71 -0.813791 3.83255 0
M  V30 5277 H 519.407 -0.453078 3.98432 0
M  V30 5278 H 515.997 0.967808 4.1753 0
M  V30 5279 H 520.181 1.84904 4.60569 0
M  V30 5280 H 515.437 3.0949 5.27282 0
M  V30 5281 H 519.611 3.97672 5.71691 0
M  V30 5282 H 517.238 4.60529 6.04828 0
M  V30 5283 N 518.813 -1.54241 0.323641 0
M  V30 5284 C 519.743 -2.27289 -0.534993 0
M  V30 5285 C 520.724 -1.28087 -1.11927 0
M  V30 5286 O 521.909 -1.56899 -1.14439 0
M  V30 5287 C 519.039 -3.03075 -1.69596 0
M  V30 5288 C 517.993 -4.09614 -1.24098 0
M  V30 5289 C 517.319 -4.73242 -2.4889 0
M  V30 5290 C 518.619 -5.21087 -0.355789 0
M  V30 5291 H 520.313 -2.99308 0.0743257 0
M  V30 5292 H 517.859 -1.43952 0.0371874 0
M  V30 5293 H 519.812 -3.52907 -2.30293 0
M  V30 5294 H 518.536 -2.28673 -2.33187 0
M  V30 5295 H 517.195 -3.60666 -0.656945 0
M  V30 5296 H 516.843 -3.95455 -3.10845 0
M  V30 5297 H 516.543 -5.45209 -2.19138 0
M  V30 5298 H 518.067 -5.25848 -3.10348 0
M  V30 5299 H 519.481 -5.66675 -0.869042 0
M  V30 5300 H 517.878 -5.9991 -0.151045 0
M  V30 5301 H 518.948 -4.81005 0.613339 0
M  V30 5302 N 520.291 -0.0518155 -1.57515 0
M  V30 5303 C 521.221 0.920283 -2.146 0
M  V30 5304 C 522.202 1.32406 -1.06783 0
M  V30 5305 O 523.387 1.39866 -1.34726 0
M  V30 5306 C 520.517 2.1949 -2.6915 0
M  V30 5307 C 519.471 1.93116 -3.81956 0
M  V30 5308 C 518.797 3.27037 -4.23026 0
M  V30 5309 C 520.097 1.25225 -5.07066 0
M  V30 5310 H 521.791 0.444801 -2.96077 0
M  V30 5311 H 519.337 0.212508 -1.42423 0
M  V30 5312 H 521.29 2.87894 -3.07725 0
M  V30 5313 H 520.014 2.69244 -1.84865 0
M  V30 5314 H 518.673 1.27123 -3.43854 0
M  V30 5315 H 518.321 3.74595 -3.3569 0
M  V30 5316 H 518.021 3.10189 -4.99056 0
M  V30 5317 H 519.545 3.96673 -4.64202 0
M  V30 5318 H 520.959 1.83666 -5.43083 0
M  V30 5319 H 519.356 1.18702 -5.88243 0
M  V30 5320 H 520.426 0.228382 -4.84362 0
M  V30 5321 N 521.769 1.56035 0.221574 0
M  V30 5322 C 522.716 1.92413 1.27459 0
M  V30 5323 C 523.686 0.781323 1.46576 0
M  V30 5324 O 524.871 1.03721 1.60145 0
M  V30 5325 C 522.011 2.24617 2.61995 0
M  V30 5326 C 521.124 3.51831 2.50677 0
M  V30 5327 C 520.259 3.73482 3.77736 0
M  V30 5328 C 519.298 4.94211 3.6114 0
M  V30 5329 N 518.435 5.12252 4.80148 0
M  V30 5330 H 523.275 2.82203 0.957355 0
M  V30 5331 H 520.812 1.39676 0.461415 0
M  V30 5332 H 522.77 2.41298 3.40339 0
M  V30 5333 H 521.4 1.38 2.91815 0
M  V30 5334 H 520.452 3.43343 1.63767 0
M  V30 5335 H 521.764 4.40328 2.34334 0
M  V30 5336 H 520.918 3.9026 4.64523 0
M  V30 5337 H 519.657 2.83266 3.97003 0
M  V30 5338 H 518.662 4.77384 2.72736 0
M  V30 5339 H 519.887 5.85912 3.43343 0
M  V30 5340 H 517.833 4.24978 4.99729 0
M  V30 5341 H 517.75 5.94881 4.66532 0
M  V30 5342 H 519.018 5.33465 5.68362 0
M  V30 5343 O 523.286 -0.367026 1.57274 0
M  V30 5344 H 523.977 -1.01783 1.64803 0
M  V30 END ATOM
M  V30 BEGIN BOND
M  V30 END BOND
M  V30 END CTAB
M  END
$$$$
