drugbank_target|Q96ER9 Mitochondrial potassium channel (DB01236)
 OpenBabel12092121233D

  0  0  0     0  0            999 V3000
M  V30 BEGIN CTAB
M  V30 COUNTS 6466 6515 0 0 0
M  V30 BEGIN ATOM
M  V30 1 H -0.908 1.98254 -0.117106 0
M  V30 2 N 0 1.576 0 0
M  V30 3 C 0.933 2.03868 1.02534 0
M  V30 4 C 1.911 0.928543 1.3348 0
M  V30 5 O 3.095 1.19667 1.45644 0
M  V30 6 C 0.222 2.43627 2.35294 0
M  V30 7 C -0.732 3.65373 2.2001 0
M  V30 8 S 0.101 5.13292 1.52614 0
M  V30 9 C 1.257 5.56322 2.86805 0
M  V30 10 H 1.49 2.90518 0.631377 0
M  V30 11 H -0.977 1.52953 0.210867 0
M  V30 12 H 0.981 2.67203 3.11629 0
M  V30 13 H -0.358 1.57376 2.7183 0
M  V30 14 H -1.165 3.90944 3.18086 0
M  V30 15 H -1.563 3.418 1.51819 0
M  V30 16 H 0.729 5.58782 3.83104 0
M  V30 17 H 1.672 6.56266 2.65933 0
M  V30 18 H 2.08 4.83886 2.90714 0
M  V30 19 N 1.4781 -0.272755 1.55222 0
M  V30 20 C 2.4111 -1.3627 1.83046 0
M  V30 21 C 3.3891 -1.47536 0.683521 0
M  V30 22 O 4.5731 -1.64157 0.926545 0
M  V30 23 C 1.7001 -2.73908 1.99229 0
M  V30 24 C 0.7461 -2.79925 3.21783 0
M  V30 25 S 1.5791 -2.39146 4.79134 0
M  V30 26 C 2.7351 -3.78758 4.9829 0
M  V30 27 H 2.9681 -1.12464 2.75207 0
M  V30 28 H 0.5011 -0.472398 1.46996 0
M  V30 29 H 2.4591 -3.53171 2.09238 0
M  V30 30 H 1.1201 -2.94965 1.07956 0
M  V30 31 H 0.3131 -3.80946 3.29994 0
M  V30 32 H -0.0849 -2.08683 3.10367 0
M  V30 33 H 2.2071 -4.7403 4.84047 0
M  V30 34 H 3.1501 -3.75499 6.00338 0
M  V30 35 H 3.5581 -3.70072 4.26271 0
M  V30 36 N 2.9562 -1.48159 -0.537278 0
M  V30 37 C 4.2042 -1.55497 -1.29094 0
M  V30 38 C 4.5252 -0.227454 -1.93669 0
M  V30 39 O 3.7952 0.750386 -1.80959 0
M  V30 40 H 2.3752 -0.572832 -0.47945 0
M  V30 41 H 5.0372 -1.84579 -0.625818 0
M  V30 42 H 4.1332 -2.33216 -2.07405 0
M  V30 43 N 4.4343 0.785586 -1.36625 0
M  V30 44 C 5.8503 1.08419 -1.17122 0
M  V30 45 C 6.0503 2.015 0.00208491 0
M  V30 46 O 5.1063 2.43551 0.666278 0
M  V30 47 C 6.4193 1.69498 -2.48377 0
M  V30 48 C 7.9673 1.81821 -2.54775 0
M  V30 49 C 8.4423 2.46315 -3.86126 0
M  V30 50 N 9.9333 2.53779 -3.87492 0
M  V30 51 C 10.6683 3.045 -4.85868 0
M  V30 52 N 10.1643 3.55499 -5.94637 0
M  V30 53 N 11.9573 3.03247 -4.73284 0
M  V30 54 H 4.1083 0.167264 -2.1174 0
M  V30 55 H 6.3713 0.13682 -0.938075 0
M  V30 56 H 6.0773 1.08571 -3.34522 0
M  V30 57 H 5.9513 2.6896 -2.64462 0
M  V30 58 H 8.3383 2.41884 -1.69045 0
M  V30 59 H 8.4193 0.811532 -2.42586 0
M  V30 60 H 8.0633 1.86895 -4.72263 0
M  V30 61 H 7.9933 3.47561 -3.95612 0
M  V30 62 H 10.4843 2.17672 -3.08913 0
M  V30 63 H 10.7973 3.92562 -6.65669 0
M  V30 64 H 9.1423 3.5364 -5.98301 0
M  V30 65 H 12.3333 2.62696 -3.87438 0
M  V30 66 H 12.5063 3.42467 -5.50109 0
M  V30 67 N 5.9124 1.20967 1.01018 0
M  V30 68 C 7.1374 1.0503 1.78839 0
M  V30 69 C 7.5624 -0.395752 1.8389 0
M  V30 70 O 6.9204 -1.28529 1.27867 0
M  V30 71 C 6.9684 1.64602 3.2084 0
M  V30 72 O 6.0724 0.887988 4.02726 0
M  V30 73 H 5.4134 0.369987 0.551367 0
M  V30 74 H 7.9434 1.60399 1.27018 0
M  V30 75 H 7.9534 1.68607 3.71532 0
M  V30 76 H 6.6284 2.69841 3.16479 0
M  V30 77 H 5.2054 0.922648 3.61305 0
M  V30 78 N 7.3905 -1.2043 1.01659 0
M  V30 79 C 8.8015 -1.71517 0.737482 0
M  V30 80 C 9.1525 -1.81547 -0.743973 0
M  V30 81 O 8.2775 -1.47803 -1.58061 0
M  V30 82 C 8.8725 -3.11515 1.33206 0
M  V30 83 C 7.4315 -3.59912 1.10183 0
M  V30 84 C 6.5785 -2.37116 1.43776 0
M  V30 85 H 9.5295 -1.05444 1.18606 0
M  V30 86 H 9.5505 -3.73575 0.722636 0
M  V30 87 H 9.0625 -3.04182 2.41028 0
M  V30 88 H 7.1635 -3.72577 0.0412756 0
M  V30 89 H 7.2765 -4.44731 1.78188 0
M  V30 90 H 5.6405 -2.39857 0.856778 0
M  V30 91 H 6.4235 -2.32424 2.52654 0
M  V30 92 N 8.8686 -0.792821 -1.36206 0
M  V30 93 C 10.1166 -0.366062 -1.98757 0
M  V30 94 C 10.4376 1.0668 -1.63231 0
M  V30 95 O 9.7076 1.73587 -0.907978 0
M  V30 96 H 8.2876 -0.132364 -0.735179 0
M  V30 97 H 10.9496 -1.01562 -1.66347 0
M  V30 98 H 10.0456 -0.460638 -3.08682 0
M  V30 99 N 10.3467 1.47872 -0.545128 0
M  V30 100 C 11.5937 2.02493 -0.0165858 0
M  V30 101 C 11.9217 1.42073 1.32836 0
M  V30 102 O 11.1767 0.561459 1.87473 0
M  V30 103 C 11.4757 3.57131 0.13867 0
M  V30 104 C 11.1417 4.36411 -1.13384 0
M  V30 105 C 9.8037 4.57792 -1.48256 0
M  V30 106 C 12.1557 4.82223 -1.97764 0
M  V30 107 C 9.4837 5.22233 -2.67376 0
M  V30 108 C 11.8357 5.47977 -3.16076 0
M  V30 109 C 10.4997 5.67593 -3.51275 0
M  V30 110 H 9.7697 0.740975 -0.00606918 0
M  V30 111 H 12.4167 1.77683 -0.714207 0
M  V30 112 H 10.7217 3.80865 0.919172 0
M  V30 113 H 12.4187 3.97031 0.562782 0
M  V30 114 H 9.0087 4.2004 -0.852297 0
M  V30 115 H 13.1927 4.65493 -1.72132 0
M  V30 116 H 8.4487 5.35616 -2.94831 0
M  V30 117 H 12.6227 5.8244 -3.81755 0
M  V30 118 H 10.2497 6.17298 -4.43675 0
M  V30 119 N 11.8248 0.280983 1.55075 0
M  V30 120 C 12.7878 -0.590896 2.21452 0
M  V30 121 C 13.7878 -1.07682 1.19421 0
M  V30 122 O 14.9778 -0.97605 1.44288 0
M  V30 123 C 12.1098 -1.81587 2.88511 0
M  V30 124 H 13.3028 -0.0112554 2.99898 0
M  V30 125 H 10.8558 0.0316438 1.56268 0
M  V30 126 H 11.5908 -2.43587 2.14093 0
M  V30 127 H 11.3758 -1.4753 3.63287 0
M  V30 128 H 12.8658 -2.43575 3.39206 0
M  V30 129 N 13.3029 -1.57598 0.00835791 0
M  V30 130 C 14.2359 -2.04409 -1.01451 0
M  V30 131 C 15.2139 -0.935609 -1.32985 0
M  V30 132 O 16.3979 -1.20437 -1.45007 0
M  V30 133 C 13.5249 -2.44872 -2.33999 0
M  V30 134 C 12.5709 -3.66535 -2.18069 0
M  V30 135 S 13.4039 -5.14095 -1.4989 0
M  V30 136 C 14.5599 -5.57835 -2.8385 0
M  V30 137 H 14.7929 -2.90849 -0.615961 0
M  V30 138 H 12.3259 -1.53063 -0.202752 0
M  V30 139 H 14.2839 -2.68852 -3.10208 0
M  V30 140 H 12.9449 -1.58815 -2.70992 0
M  V30 141 H 12.1379 -3.92626 -3.16008 0
M  V30 142 H 11.7399 -3.426 -1.50004 0
M  V30 143 H 14.0319 -5.60806 -3.80136 0
M  V30 144 H 14.9749 -6.57667 -2.62449 0
M  V30 145 H 15.3829 -4.85421 -2.88144 0
M  V30 146 N 14.781 0.264519 -1.55364 0
M  V30 147 C 15.713 1.34965 -1.85248 0
M  V30 148 C 16.726 1.45136 -0.737525 0
M  V30 149 O 17.915 1.46801 -1.01547 0
M  V30 150 C 15.015 2.73008 -2.00797 0
M  V30 151 C 14.188 2.85324 -3.31525 0
M  V30 152 C 13.247 4.04097 -3.37034 0
M  V30 153 O 12.273 3.94455 -4.10358 0
M  V30 154 N 13.475 5.16458 -2.65049 0
M  V30 155 H 16.24 1.09672 -2.78913 0
M  V30 156 H 13.801 0.454635 -1.55386 0
M  V30 157 H 15.793 3.50772 -2.01844 0
M  V30 158 H 14.363 2.91087 -1.1396 0
M  V30 159 H 13.583 1.94377 -3.42945 0
M  V30 160 H 14.871 2.9049 -4.17724 0
M  V30 161 H 14.269 5.27181 -2.05175 0
M  V30 162 H 12.826 5.92422 -2.71809 0
M  V30 163 N 16.2591 1.48442 0.529413 0
M  V30 164 C 17.2091 1.59407 1.63014 0
M  V30 165 C 18.1931 0.451166 1.54445 0
M  V30 166 O 19.3851 0.702635 1.62456 0
M  V30 167 C 16.5141 1.63746 3.01732 0
M  V30 168 C 15.6001 2.83518 3.15402 0
M  V30 169 N 15.9911 4.07929 2.99045 0
M  V30 170 C 14.2891 2.80862 3.46457 0
M  V30 171 C 14.9901 4.8829 3.16146 0
M  V30 172 N 13.9661 4.21117 3.43746 0
M  V30 173 H 17.7681 2.53343 1.48978 0
M  V30 174 H 15.2821 1.44821 0.734885 0
M  V30 175 H 17.2791 1.69695 3.80801 0
M  V30 176 H 15.9391 0.709264 3.16859 0
M  V30 177 H 16.9501 4.38357 2.75796 0
M  V30 178 H 13.6271 1.97301 3.67938 0
M  V30 179 H 15.0171 5.97028 3.08232 0
M  V30 180 N 17.7372 -0.778329 1.37039 0
M  V30 181 C 18.9862 -1.53189 1.3121 0
M  V30 182 C 19.2992 -1.95328 -0.103095 0
M  V30 183 O 20.5052 -2.70012 -0.283826 0
M  V30 184 C 18.9612 -2.76591 2.30272 0
M  V30 185 C 18.5692 -2.41577 3.77286 0
M  V30 186 C 20.3132 -3.5455 2.33441 0
M  V30 187 C 18.2202 -3.61441 4.68096 0
M  V30 188 H 17.1502 -0.5751 0.487622 0
M  V30 189 H 19.8012 -0.853101 1.62464 0
M  V30 190 H 18.1832 -3.46326 1.92027 0
M  V30 191 H 19.3572 -1.79668 4.2433 0
M  V30 192 H 17.6722 -1.76806 3.76999 0
M  V30 193 H 20.2692 -4.43628 2.98493 0
M  V30 194 H 20.6122 -3.93936 1.34611 0
M  V30 195 H 21.1452 -2.91805 2.7036 0
M  V30 196 H 17.8842 -3.27142 5.6803 0
M  V30 197 H 17.4042 -4.22478 4.25761 0
M  V30 198 H 19.0832 -4.28335 4.8491 0
M  V30 199 N 19.2153 -1.21501 -1.00376 0
M  V30 200 C 20.4613 -1.03452 -1.74429 0
M  V30 201 C 20.7943 0.430764 -1.89362 0
M  V30 202 O 20.0693 1.31962 -1.42886 0
M  V30 203 C 20.3523 -1.73375 -3.15615 0
M  V30 204 C 20.2053 -3.27431 -3.08397 0
M  V30 205 C 21.5243 -1.47732 -4.14564 0
M  V30 206 H 18.6433 -0.377226 -0.633143 0
M  V30 207 H 21.2853 -1.49693 -1.17013 0
M  V30 208 H 19.4353 -1.34064 -3.64636 0
M  V30 209 H 21.1073 -3.76119 -2.67081 0
M  V30 210 H 19.3503 -3.5767 -2.45468 0
M  V30 211 H 20.0213 -3.71524 -4.08258 0
M  V30 212 H 22.4973 -1.8186 -3.74254 0
M  V30 213 H 21.3733 -1.99169 -5.11491 0
M  V30 214 H 21.6343 -0.407589 -4.40217 0
M  V30 215 N 20.6934 1.19889 -1.02296 0
M  V30 216 C 21.9414 1.89046 -0.714558 0
M  V30 217 C 22.2624 1.79636 0.758681 0
M  V30 218 O 21.5324 1.20292 1.54618 0
M  V30 219 H 20.1124 0.699802 -0.261317 0
M  V30 220 H 22.7744 1.45574 -1.29592 0
M  V30 221 H 21.8704 2.95524 -1.0036 0
M  V30 222 N 22.1715 0.800033 1.35784 0
M  V30 223 C 23.4175 0.377901 1.99248 0
M  V30 224 C 23.7505 -1.05052 1.63333 0
M  V30 225 O 23.0255 -1.72768 0.893385 0
M  V30 226 C 23.3085 0.553922 3.55814 0
M  V30 227 C 23.1615 2.0268 4.01548 0
M  V30 228 C 24.4805 -0.0244802 4.40093 0
M  V30 229 H 21.5995 0.138782 0.723815 0
M  V30 230 H 24.2415 1.00835 1.61035 0
M  V30 231 H 22.3915 0.0172398 3.88496 0
M  V30 232 H 24.0635 2.62536 3.79305 0
M  V30 233 H 22.3065 2.5256 3.52698 0
M  V30 234 H 22.9775 2.10087 5.10458 0
M  V30 235 H 25.4535 0.433775 4.13833 0
M  V30 236 H 24.3295 0.128637 5.48749 0
M  V30 237 H 24.5905 -1.11758 4.27741 0
M  V30 238 N 23.6496 -1.47581 0.552962 0
M  V30 239 C 25.0606 -1.86324 0.118463 0
M  V30 240 C 25.4116 -1.46006 -1.3106 0
M  V30 241 O 24.5366 -0.861182 -1.98526 0
M  V30 242 C 25.1316 -3.3816 0.20821 0
M  V30 243 C 23.6906 -3.7601 -0.171226 0
M  V30 244 C 22.8376 -2.71634 0.557686 0
M  V30 245 H 25.7886 -1.39159 0.762928 0
M  V30 246 H 25.8096 -3.76141 -0.574278 0
M  V30 247 H 25.3216 -3.67473 1.24841 0
M  V30 248 H 23.4226 -3.52313 -1.21269 0
M  V30 249 H 23.5356 -4.78745 0.184379 0
M  V30 250 H 21.8996 -2.547 0.00125792 0
M  V30 251 H 22.6826 -3.0379 1.59896 0
M  V30 252 N 25.1277 -0.289203 -1.54924 0
M  V30 253 C 26.0777 0.606939 -2.19773 0
M  V30 254 C 27.0617 1.10783 -1.16687 0
M  V30 255 O 28.2537 1.05057 -1.4245 0
M  V30 256 C 25.3827 1.78398 -2.93307 0
M  V30 257 C 24.4687 1.29961 -4.03697 0
M  V30 258 N 24.8597 0.532377 -5.0299 0
M  V30 259 C 23.1577 1.58136 -4.17024 0
M  V30 260 C 23.8587 0.275912 -5.81045 0
M  V30 261 N 22.8347 0.852365 -5.36876 0
M  V30 262 H 26.6367 0.0130779 -2.93897 0
M  V30 263 H 24.1507 -0.09341 -1.62131 0
M  V30 264 H 26.1477 2.43741 -3.38225 0
M  V30 265 H 24.8077 2.38166 -2.20697 0
M  V30 266 H 25.8187 0.17838 -5.17593 0
M  V30 267 H 22.4957 2.18738 -3.55612 0
M  V30 268 H 23.8857 -0.339502 -6.71042 0
M  V30 269 N 26.6058 1.57591 -0.0167156 0
M  V30 270 C 27.8518 1.91567 0.665582 0
M  V30 271 C 28.1848 0.892298 1.72487 0
M  V30 272 O 27.4598 -0.0867127 1.94307 0
M  V30 273 C 27.7428 3.36069 1.29342 0
M  V30 274 C 27.5958 4.49135 0.244541 0
M  V30 275 C 28.9148 3.803 2.21495 0
M  V30 276 H 26.0338 0.69666 0.240488 0
M  V30 277 H 28.6758 1.89866 -0.0714356 0
M  V30 278 H 26.8258 3.3765 1.92158 0
M  V30 279 H 28.4978 4.59689 -0.385228 0
M  V30 280 H 26.7408 4.3165 -0.431379 0
M  V30 281 H 27.4118 5.47242 0.723207 0
M  V30 282 H 29.8878 3.80377 1.68678 0
M  V30 283 H 28.7638 4.82127 2.62382 0
M  V30 284 H 29.0248 3.15104 3.101 0
M  V30 285 N 28.0839 -0.256276 1.55502 0
M  V30 286 C 29.0139 -1.32102 1.92539 0
M  V30 287 C 29.9949 -1.50684 0.789194 0
M  V30 288 O 31.1799 -1.63449 1.04872 0
M  V30 289 C 28.3099 -2.67752 2.21192 0
M  V30 290 C 27.2639 -2.63878 3.36975 0
M  V30 291 C 26.5899 -4.03236 3.51147 0
M  V30 292 C 27.8899 -2.21682 4.72921 0
M  V30 293 H 29.5839 -1.01351 2.81724 0
M  V30 294 H 27.1299 -0.486105 1.35547 0
M  V30 295 H 29.0829 -3.42365 2.45691 0
M  V30 296 H 27.8069 -3.0012 1.28824 0
M  V30 297 H 26.4659 -1.91722 3.12471 0
M  V30 298 H 26.1139 -4.32854 2.56216 0
M  V30 299 H 25.8139 -4.01535 4.29003 0
M  V30 300 H 27.3379 -4.79563 3.77957 0
M  V30 301 H 28.7519 -2.86023 4.96854 0
M  V30 302 H 27.1489 -2.3111 5.53812 0
M  V30 303 H 28.2189 -1.16833 4.70615 0
M  V30 304 N 29.562 -1.4872 -0.521534 0
M  V30 305 C 30.808 -1.574 -1.27879 0
M  V30 306 C 31.141 -0.250817 -1.92573 0
M  V30 307 O 30.416 0.743934 -1.79711 0
M  V30 308 C 30.699 -2.71843 -2.36164 0
M  V30 309 C 30.552 -4.13893 -1.76105 0
M  V30 310 C 31.871 -2.82008 -3.37875 0
M  V30 311 H 28.99 -0.572941 -0.463581 0
M  V30 312 H 31.632 -1.80927 -0.580119 0
M  V30 313 H 29.782 -2.51914 -2.95756 0
M  V30 314 H 31.454 -4.45284 -1.20499 0
M  V30 315 H 29.697 -4.20498 -1.06601 0
M  V30 316 H 30.368 -4.89804 -2.5455 0
M  V30 317 H 32.844 -3.00086 -2.88249 0
M  V30 318 H 31.72 -3.63796 -4.11028 0
M  V30 319 H 31.981 -1.90511 -3.98946 0
M  V30 320 N 31.0401 0.771051 -1.3745 0
M  V30 321 C 32.4561 1.07171 -1.18265 0
M  V30 322 C 32.6561 2.01491 -0.019287 0
M  V30 323 O 31.7121 2.44244 0.640408 0
M  V30 324 C 33.0251 1.66854 -2.50161 0
M  V30 325 C 34.5731 1.79109 -2.56689 0
M  V30 326 C 35.0481 2.42205 -3.88717 0
M  V30 327 N 36.5391 2.49655 -3.90162 0
M  V30 328 C 37.2741 2.9933 -4.8907 0
M  V30 329 N 36.7701 3.49172 -5.98374 0
M  V30 330 N 38.5631 2.9821 -4.76474 0
M  V30 331 H 30.7141 0.144796 -2.11906 0
M  V30 332 H 32.9771 0.126863 -0.939473 0
M  V30 333 H 32.6831 1.05017 -3.35655 0
M  V30 334 H 32.5571 2.6614 -2.673 0
M  V30 335 H 34.9441 2.40077 -1.71601 0
M  V30 336 H 35.0251 0.785757 -2.43433 0
M  V30 337 H 34.6691 1.81875 -4.74219 0
M  V30 338 H 34.5991 3.43345 -3.99276 0
M  V30 339 H 37.0901 2.14383 -3.11205 0
M  V30 340 H 37.4031 3.8548 -6.69795 0
M  V30 341 H 35.7481 3.47275 -6.02018 0
M  V30 342 H 38.9391 2.58572 -3.90203 0
M  V30 343 H 39.1121 3.36613 -5.53711 0
M  V30 344 N 32.5182 1.22032 0.997298 0
M  V30 345 C 33.9342 0.979326 1.26021 0
M  V30 346 C 34.1342 -0.32972 1.98784 0
M  V30 347 O 33.1902 -1.05345 2.29475 0
M  V30 348 C 34.5032 2.17509 2.07631 0
M  V30 349 C 36.0512 2.21817 2.2083 0
M  V30 350 C 36.5262 3.40933 3.05825 0
M  V30 351 N 38.0172 3.41067 3.13412 0
M  V30 352 C 38.7522 4.29885 3.79455 0
M  V30 353 N 38.2482 5.28914 4.47462 0
M  V30 354 N 40.0412 4.17673 3.76173 0
M  V30 355 H 32.1922 2.06202 0.509352 0
M  V30 356 H 34.4552 0.90334 0.287541 0
M  V30 357 H 34.1612 3.12415 1.61524 0
M  V30 358 H 34.0352 2.17206 3.08385 0
M  V30 359 H 36.4222 1.27462 2.66153 0
M  V30 360 H 36.5032 2.2616 1.1952 0
M  V30 361 H 36.1472 4.35586 2.61203 0
M  V30 362 H 36.0772 3.33829 4.07266 0
M  V30 363 H 38.5682 2.69406 2.65007 0
M  V30 364 H 38.8812 5.92973 4.95583 0
M  V30 365 H 37.2262 5.32831 4.46224 0
M  V30 366 H 40.4172 3.39564 3.22202 0
M  V30 367 H 40.5902 4.87098 4.27363 0
M  V30 368 N 33.9963 -1.19345 1.0293 0
M  V30 369 C 35.2443 -1.88665 0.724574 0
M  V30 370 C 35.5653 -1.80036 -0.749144 0
M  V30 371 O 34.8353 -1.2111 -1.53978 0
M  V30 372 H 33.4153 -0.698406 0.265025 0
M  V30 373 H 36.0773 -1.44885 1.30362 0
M  V30 374 H 35.1733 -2.94987 1.01926 0
M  V30 375 N 35.4744 -0.807222 -1.35358 0
M  V30 376 C 36.4044 -0.232509 -2.3234 0
M  V30 377 C 37.3854 0.642386 -1.57504 0
M  V30 378 O 38.5704 0.572526 -1.85569 0
M  V30 379 C 35.7004 0.619238 -3.41735 0
M  V30 380 C 34.6544 -0.157215 -4.27711 0
M  V30 381 C 33.9804 0.816273 -5.28433 0
M  V30 382 C 35.2804 -1.35656 -5.04376 0
M  V30 383 H 36.9744 -1.04276 -2.80654 0
M  V30 384 H 34.5204 -0.50288 -1.34934 0
M  V30 385 H 36.4734 1.03137 -4.08584 0
M  V30 386 H 35.1974 1.46239 -2.92031 0
M  V30 387 H 33.8564 -0.550525 -3.62443 0
M  V30 388 H 33.5044 1.65494 -4.74996 0
M  V30 389 H 33.2044 0.301067 -5.86828 0
M  V30 390 H 34.7284 1.22659 -5.98153 0
M  V30 391 H 36.1424 -1.01927 -5.64166 0
M  V30 392 H 34.5394 -1.8063 -5.7227 0
M  V30 393 H 35.6094 -2.14288 -4.34981 0
M  V30 394 N 36.9525 1.47285 -0.560781 0
M  V30 395 C 37.8825 2.32857 0.173105 0
M  V30 396 C 38.8635 1.44009 0.905281 0
M  V30 397 O 40.0485 1.7286 0.885046 0
M  V30 398 C 37.1785 3.25861 1.20133 0
M  V30 399 C 36.1325 4.23978 0.585388 0
M  V30 400 C 35.4585 5.06332 1.7185 0
M  V30 401 C 36.7585 5.20242 -0.463178 0
M  V30 402 H 38.4525 2.94466 -0.541307 0
M  V30 403 H 35.9985 1.41601 -0.261764 0
M  V30 404 H 37.9515 3.84569 1.72293 0
M  V30 405 H 36.6755 2.62315 1.94573 0
M  V30 406 H 35.3345 3.66501 0.085054 0
M  V30 407 H 34.9825 4.39186 2.45203 0
M  V30 408 H 34.6825 5.72762 1.31213 0
M  V30 409 H 36.2065 5.67899 2.24329 0
M  V30 410 H 37.6205 5.73293 -0.027502 0
M  V30 411 H 36.0175 5.94896 -0.788627 0
M  V30 412 H 37.0875 4.65504 -1.35773 0
M  V30 413 N 38.4306 0.297415 1.54768 0
M  V30 414 C 39.6786 -0.312295 1.99673 0
M  V30 415 C 39.9996 -1.54686 1.18732 0
M  V30 416 O 39.2696 -1.93854 0.282382 0
M  V30 417 H 37.8496 -0.118381 0.73756 0
M  V30 418 H 40.5116 0.407915 1.90583 0
M  V30 419 H 39.6076 -0.586813 3.06534 0
M  V30 420 N 39.9087 -1.5758 0.0250728 0
M  V30 421 C 41.3247 -1.56124 -0.331282 0
M  V30 422 C 41.5247 -1.03029 -1.73169 0
M  V30 423 O 40.5807 -0.675215 -2.43305 0
M  V30 424 C 41.8937 -3.00139 -0.183584 0
M  V30 425 C 43.4417 -3.11946 -0.256654 0
M  V30 426 C 43.9167 -4.57793 -0.137792 0
M  V30 427 N 45.4077 -4.6279 -0.194904 0
M  V30 428 C 46.1427 -5.7326 -0.126655 0
M  V30 429 N 45.6387 -6.928 -0.00755288 0
M  V30 430 N 47.4317 -5.61811 -0.180348 0
M  V30 431 H 39.5827 -1.90424 0.94087 0
M  V30 432 H 41.8457 -0.875761 0.362968 0
M  V30 433 H 41.5517 -3.4292 0.780927 0
M  V30 434 H 41.4257 -3.64899 -0.955448 0
M  V30 435 H 43.8127 -2.69079 -1.21162 0
M  V30 436 H 43.8937 -2.49915 0.545517 0
M  V30 437 H 43.5377 -5.01339 0.813739 0
M  V30 438 H 43.4677 -5.17798 -0.958775 0
M  V30 439 H 45.9587 -3.76807 -0.287267 0
M  V30 440 H 46.2717 -7.72791 0.0379428 0
M  V30 441 H 44.6167 -6.94995 0.0271731 0
M  V30 442 H 47.8077 -4.6731 -0.271767 0
M  V30 443 H 47.9807 -6.47882 -0.123697 0
M  V30 444 N 41.3868 0.248026 -1.55636 0
M  V30 445 C 42.6638 0.998988 -1.68165 0
M  V30 446 C 43.0438 2.03409 -0.564621 0
M  V30 447 O 42.3918 2.24378 0.432076 0
M  V30 448 C 42.6018 1.63334 -3.0842 0
M  V30 449 C 43.9498 2.13562 -3.66983 0
M  V30 450 O 44.9738 1.73277 -3.11213 0
M  V30 451 O 43.8328 2.87526 -4.64749 0
M  V30 452 H 40.9268 0.464933 -0.683935 0
M  V30 453 H 43.4728 0.241902 -1.67967 0
M  V30 454 H 42.2448 0.884583 -3.8117 0
M  V30 455 H 41.8678 2.45666 -3.12624 0
M  V30 456 N 42.8649 1.48995 0.513639 0
M  V30 457 C 43.7949 1.67636 1.62544 0
M  V30 458 C 44.7759 0.525087 1.61793 0
M  V30 459 O 45.9609 0.759502 1.78732 0
M  V30 460 C 43.0909 1.73114 3.01079 0
M  V30 461 C 42.0449 2.87905 3.16693 0
M  V30 462 C 41.3709 2.78486 4.56453 0
M  V30 463 C 42.6709 4.29005 2.97913 0
M  V30 464 H 44.3649 2.60716 1.47198 0
M  V30 465 H 41.9109 1.25465 0.706714 0
M  V30 466 H 43.8639 1.84742 3.78746 0
M  V30 467 H 42.5879 0.766241 3.17484 0
M  V30 468 H 41.2469 2.75859 2.41448 0
M  V30 469 H 40.8949 1.7993 4.69717 0
M  V30 470 H 40.5949 3.55523 4.67843 0
M  V30 471 H 42.1189 2.92104 5.36197 0
M  V30 472 H 43.5329 4.41798 3.65359 0
M  V30 473 H 41.9299 5.07166 3.20785 0
M  V30 474 H 42.9999 4.44329 1.94165 0
M  V30 475 N 44.343 -0.763751 1.37857 0
M  V30 476 C 45.59 -1.52257 1.33506 0
M  V30 477 C 45.918 -1.94343 -0.078022 0
M  V30 478 O 45.173 -1.64958 -1.05297 0
M  V30 479 C 45.472 -2.79499 2.22745 0
M  V30 480 C 45.138 -2.56426 3.70886 0
M  V30 481 C 43.8 -2.49842 4.11257 0
M  V30 482 C 46.152 -2.36008 4.64704 0
M  V30 483 C 43.48 -2.20841 5.43549 0
M  V30 484 C 45.832 -2.0853 5.97242 0
M  V30 485 C 44.496 -2.00396 6.36709 0
M  V30 486 H 43.766 -0.557149 0.488534 0
M  V30 487 H 46.413 -0.879073 1.70131 0
M  V30 488 H 44.718 -3.48447 1.79142 0
M  V30 489 H 46.415 -3.37413 2.16688 0
M  V30 490 H 43.005 -2.62416 3.38874 0
M  V30 491 H 47.189 -2.40079 4.34368 0
M  V30 492 H 42.445 -2.13045 5.73081 0
M  V30 493 H 46.619 -1.91732 6.69486 0
M  V30 494 H 44.246 -1.77688 7.39142 0
M  V30 495 N 45.8211 -1.22559 -0.990812 0
M  V30 496 C 46.7541 -0.940773 -2.07905 0
M  V30 497 C 47.7321 0.117082 -1.62178 0
M  V30 498 O 48.9161 -0.0149506 -1.88494 0
M  V30 499 C 46.0431 -0.415321 -3.36144 0
M  V30 500 C 45.0891 -1.45818 -4.00799 0
M  V30 501 S 45.9221 -3.03219 -4.41382 0
M  V30 502 C 47.0781 -2.52317 -5.72789 0
M  V30 503 H 47.3111 -1.8623 -2.31745 0
M  V30 504 H 44.8441 -1.05688 -1.12558 0
M  V30 505 H 46.8021 -0.118747 -4.10328 0
M  V30 506 H 45.4631 0.485121 -3.10331 0
M  V30 507 H 44.6561 -1.04044 -4.93144 0
M  V30 508 H 44.2581 -1.70356 -3.32949 0
M  V30 509 H 46.5501 -1.93688 -6.49224 0
M  V30 510 H 47.4931 -3.43161 -6.19392 0
M  V30 511 H 47.9011 -1.93529 -5.30289 0
M  V30 512 N 47.2992 1.18797 -1.03562 0
M  V30 513 C 48.5272 1.92599 -0.755869 0
M  V30 514 C 48.9422 1.75886 0.686271 0
M  V30 515 O 48.2992 1.08517 1.46732 0
M  V30 516 C 48.3502 3.44159 -1.10619 0
M  V30 517 O 48.0712 3.60341 -2.4917 0
M  V30 518 C 49.5722 4.3507 -0.850214 0
M  V30 519 H 46.7922 0.611587 -0.276048 0
M  V30 520 H 49.3362 1.50742 -1.38192 0
M  V30 521 H 47.4912 3.83823 -0.525194 0
M  V30 522 H 47.9052 4.54128 -2.62427 0
M  V30 523 H 49.3792 5.39989 -1.14523 0
M  V30 524 H 49.8562 4.38673 0.215176 0
M  V30 525 H 50.4622 4.01097 -1.41426 0
M  V30 526 N 48.7773 0.814389 1.34928 0
M  V30 527 C 50.1933 0.499084 1.51596 0
M  V30 528 C 50.3933 -0.978319 1.76157 0
M  V30 529 O 49.4493 -1.76309 1.80752 0
M  V30 530 C 50.7623 1.35121 2.68631 0
M  V30 531 C 52.3103 1.34746 2.82511 0
M  V30 532 C 52.7853 2.18388 4.0258 0
M  V30 533 N 54.2763 2.15966 4.09772 0
M  V30 534 C 55.0113 2.77437 5.01813 0
M  V30 535 N 54.5073 3.47866 5.99134 0
M  V30 536 N 56.3003 2.67037 4.94619 0
M  V30 537 H 48.4513 1.7711 1.17243 0
M  V30 538 H 50.7143 0.754256 0.574284 0
M  V30 539 H 50.4203 2.40001 2.57085 0
M  V30 540 H 50.2943 1.00991 3.63429 0
M  V30 541 H 52.6813 0.30648 2.93504 0
M  V30 542 H 52.7623 1.72869 1.88547 0
M  V30 543 H 52.4063 3.2253 3.92347 0
M  V30 544 H 52.3363 1.77621 4.9574 0
M  V30 545 H 54.8273 1.64729 3.40107 0
M  V30 546 H 55.1403 3.92038 6.65977 0
M  V30 547 H 53.4853 3.51972 5.99284 0
M  V30 548 H 56.6763 2.11597 4.17546 0
M  V30 549 H 56.8493 3.15232 5.66156 0
M  V30 550 N 50.2554 -1.46986 0.568584 0
M  V30 551 C 51.4834 -2.0683 0.0539956 0
M  V30 552 C 51.8984 -1.41953 -1.24478 0
M  V30 553 O 51.2554 -0.519933 -1.74937 0
M  V30 554 C 51.3064 -3.61254 -0.133362 0
M  V30 555 O 51.0274 -4.237 1.11399 0
M  V30 556 C 52.5284 -4.37992 -0.683927 0
M  V30 557 H 49.7484 -0.669058 0.0510141 0
M  V30 558 H 52.2924 -1.88824 0.785234 0
M  V30 559 H 50.4474 -3.78735 -0.81477 0
M  V30 560 H 50.8614 -5.16388 0.91888 0
M  V30 561 H 52.3354 -5.46684 -0.764263 0
M  V30 562 H 52.8124 -4.05058 -1.69778 0
M  V30 563 H 53.4184 -4.25283 -0.0378494 0
M  V30 564 N 51.7335 -0.305618 -1.54608 0
M  V30 565 C 52.6635 0.561482 -2.26649 0
M  V30 566 C 53.6445 1.13415 -1.26772 0
M  V30 567 O 54.8295 1.16262 -1.55553 0
M  V30 568 C 51.9595 1.73122 -3.01075 0
M  V30 569 C 50.9135 1.2887 -4.08138 0
M  V30 570 C 50.2395 2.54396 -4.70305 0
M  V30 571 C 51.5395 0.416578 -5.20636 0
M  V30 572 H 53.2335 -0.0393902 -2.99374 0
M  V30 573 H 50.7795 -0.020385 -1.43986 0
M  V30 574 H 52.7325 2.34396 -3.50195 0
M  V30 575 H 51.4565 2.3584 -2.25936 0
M  V30 576 H 50.1155 0.698991 -3.59875 0
M  V30 577 H 49.7635 3.15439 -3.918 0
M  V30 578 H 49.4635 2.25486 -5.42614 0
M  V30 579 H 50.9875 3.16464 -5.2219 0
M  V30 580 H 52.4015 0.935116 -5.65622 0
M  V30 581 H 50.7985 0.221046 -5.99693 0
M  V30 582 H 51.8685 -0.557162 -4.81688 0
M  V30 583 N 53.2116 1.57565 -0.0334293 0
M  V30 584 C 54.4516 1.93844 0.648379 0
M  V30 585 C 54.8156 0.910387 1.69044 0
M  V30 586 O 56.0166 1.15952 2.42505 0
M  V30 587 C 54.2876 3.35017 1.24492 0
M  V30 588 S 55.8466 3.93229 1.94721 0
M  V30 589 H 52.6646 0.678231 0.213364 0
M  V30 590 H 55.2666 1.95254 -0.0981253 0
M  V30 591 H 53.9706 4.07652 0.474128 0
M  V30 592 H 53.5016 3.37061 2.02864 0
M  V30 593 H 55.5166 3.77014 3.22606 0
M  V30 594 N 54.6897 -0.239769 1.55765 0
M  V30 595 C 55.9147 -0.988373 1.82335 0
M  V30 596 C 56.3397 -1.77886 0.611421 0
M  V30 597 O 55.6977 -1.75889 -0.439639 0
M  V30 598 C 55.7457 -1.89627 3.06715 0
M  V30 599 O 54.8497 -2.98904 2.84131 0
M  V30 600 H 54.1907 -0.280858 0.601677 0
M  V30 601 H 56.7207 -0.258597 2.02959 0
M  V30 602 H 56.7307 -2.30957 3.36338 0
M  V30 603 H 55.4057 -1.31511 3.9456 0
M  V30 604 H 53.9827 -2.61651 2.65694 0
M  V30 605 N 56.1678 -1.49265 -0.50573 0
M  V30 606 C 57.5788 -1.51769 -1.08734 0
M  V30 607 C 57.9298 -0.301192 -1.93874 0
M  V30 608 O 57.0548 0.589456 -2.08217 0
M  V30 609 C 57.6498 -2.75017 -1.97867 0
M  V30 610 C 56.2088 -2.80314 -2.51199 0
M  V30 611 C 55.3558 -2.4562 -1.28709 0
M  V30 612 H 58.3068 -1.56031 -0.289855 0
M  V30 613 H 58.3278 -2.5491 -2.82491 0
M  V30 614 H 57.8398 -3.63539 -1.35873 0
M  V30 615 H 55.9408 -1.96061 -3.16845 0
M  V30 616 H 56.0538 -3.82366 -2.88675 0
M  V30 617 H 54.4178 -1.97297 -1.61078 0
M  V30 618 H 55.2008 -3.36411 -0.6843 0
M  V30 619 N 57.6459 0.756429 -1.3826 0
M  V30 620 C 58.8939 1.51248 -1.34047 0
M  V30 621 C 59.2149 1.94875 0.0698372 0
M  V30 622 O 58.4849 1.67436 1.01696 0
M  V30 623 H 57.0649 0.561018 -0.493222 0
M  V30 624 H 59.7269 0.899347 -1.7291 0
M  V30 625 H 58.8229 2.40472 -1.98947 0
M  V30 626 N 59.124 1.23083 0.984299 0
M  V30 627 C 60.535 1.05609 1.5396 0
M  V30 628 C 60.886 -0.377793 1.92528 0
M  V30 629 O 60.011 -1.26398 1.75649 0
M  V30 630 C 60.606 1.91087 2.7977 0
M  V30 631 C 59.165 1.77885 3.31713 0
M  V30 632 C 58.312 1.87028 2.04733 0
M  V30 633 H 61.263 1.36802 0.804419 0
M  V30 634 H 61.284 1.43336 3.5247 0
M  V30 635 H 60.796 2.9544 2.51668 0
M  V30 636 H 58.897 0.762995 3.64704 0
M  V30 637 H 59.01 2.61047 4.01735 0
M  V30 638 H 57.374 1.30565 2.18689 0
M  V30 639 H 58.157 2.92929 1.79017 0
M  V30 640 N 60.6021 -1.18246 1.0419 0
M  V30 641 C 61.8271 -1.92736 0.765996 0
M  V30 642 C 62.2521 -1.75728 -0.67091 0
M  V30 643 O 61.6101 -1.06825 -1.46486 0
M  V30 644 C 61.6581 -3.42148 1.13875 0
M  V30 645 O 60.7621 -4.11548 0.264954 0
M  V30 646 H 60.1031 -0.601238 0.281797 0
M  V30 647 H 62.6331 -1.49942 1.39207 0
M  V30 648 H 62.6431 -3.92858 1.1012 0
M  V30 649 H 61.3181 -3.53848 2.18551 0
M  V30 650 H 59.8951 -3.71137 0.362226 0
M  V30 651 N 62.0802 -0.821533 -1.34494 0
M  V30 652 C 63.0122 -0.199946 -2.28326 0
M  V30 653 C 64.0252 0.609377 -1.50965 0
M  V30 654 O 65.2142 0.439285 -1.7301 0
M  V30 655 C 62.3142 0.738431 -3.30757 0
M  V30 656 C 61.4872 -0.0277632 -4.37391 0
M  V30 657 C 60.5462 0.831332 -5.19591 0
M  V30 658 O 59.5722 0.276822 -5.68526 0
M  V30 659 N 60.7742 2.15132 -5.39165 0
M  V30 660 H 63.5392 -1.00609 -2.82308 0
M  V30 661 H 61.1002 -0.678366 -1.47003 0
M  V30 662 H 63.0922 1.31773 -3.82646 0
M  V30 663 H 61.6622 1.44533 -2.7718 0
M  V30 664 H 60.8822 -0.788359 -3.86236 0
M  V30 665 H 62.1702 -0.555251 -5.05761 0
M  V30 666 H 61.5682 2.62559 -5.01078 0
M  V30 667 H 60.1252 2.6795 -5.94177 0
M  V30 668 N 63.5583 1.46682 -0.576371 0
M  V30 669 C 64.9693 1.86112 -0.148091 0
M  V30 670 C 65.3203 1.48073 1.2872 0
M  V30 671 O 64.4453 0.892656 1.97131 0
M  V30 672 C 65.0403 3.37786 -0.261982 0
M  V30 673 C 63.5993 3.76235 0.111384 0
M  V30 674 C 62.7463 2.70713 -0.60083 0
M  V30 675 H 65.6973 1.37927 -0.78497 0
M  V30 676 H 65.7183 3.77007 0.514364 0
M  V30 677 H 65.2303 3.6544 -1.30671 0
M  V30 678 H 63.3313 3.54198 1.15649 0
M  V30 679 H 63.4443 4.78391 -0.26052 0
M  V30 680 H 61.8083 2.54666 -0.0417783 0
M  V30 681 H 62.5913 3.01208 -1.64708 0
M  V30 682 N 65.0364 0.313813 1.54444 0
M  V30 683 C 66.2844 -0.291099 1.99993 0
M  V30 684 C 66.6054 -1.53418 1.20366 0
M  V30 685 O 65.8754 -1.93544 0.302927 0
M  V30 686 H 64.4554 -0.110552 0.738774 0
M  V30 687 H 67.1174 0.428106 1.9014 0
M  V30 688 H 66.2134 -0.554268 3.07139 0
M  V30 689 N 66.5145 -1.57545 0.0417849 0
M  V30 690 C 67.4245 -2.14451 -0.951213 0
M  V30 691 C 68.4405 -1.09992 -1.34825 0
M  V30 692 O 69.6165 -1.42114 -1.42708 0
M  V30 693 C 66.6815 -2.67063 -2.21084 0
M  V30 694 C 65.7425 -3.86284 -1.87304 0
M  V30 695 C 64.9755 -4.36378 -3.07261 0
M  V30 696 O 65.1985 -3.85587 -4.20332 0
M  V30 697 O 64.1325 -5.28077 -2.88822 0
M  V30 698 H 67.9585 -2.99601 -0.497287 0
M  V30 699 H 65.5435 -1.48317 -0.179567 0
M  V30 700 H 67.4255 -3.00914 -2.95006 0
M  V30 701 H 66.1005 -1.84989 -2.65633 0
M  V30 702 H 65.0075 -3.57338 -1.10727 0
M  V30 703 H 66.3405 -4.6956 -1.47562 0
M  V30 704 N 67.9926 0.231505 -1.5589 0
M  V30 705 C 68.9396 1.28682 -1.91598 0
M  V30 706 C 69.9096 1.47071 -0.771974 0
M  V30 707 O 71.0946 1.60802 -1.027 0
M  V30 708 C 68.2346 2.6342 -2.22944 0
M  V30 709 C 67.3476 2.52912 -3.50228 0
M  V30 710 C 66.4826 3.80106 -3.7107 0
M  V30 711 C 65.5216 3.64279 -4.91902 0
M  V30 712 N 64.6586 4.834 -5.09184 0
M  V30 713 H 69.4986 0.975305 -2.81588 0
M  V30 714 H 67.0356 0.470299 -1.39379 0
M  V30 715 H 68.9936 3.41869 -2.39126 0
M  V30 716 H 67.6236 2.92687 -1.36139 0
M  V30 717 H 66.6756 1.6595 -3.42294 0
M  V30 718 H 67.9876 2.37133 -4.38827 0
M  V30 719 H 67.1416 4.66999 -3.87295 0
M  V30 720 H 65.8806 3.98799 -2.80733 0
M  V30 721 H 64.8856 2.7577 -4.75637 0
M  V30 722 H 66.1106 3.47067 -5.83714 0
M  V30 723 H 64.0566 5.02425 -4.21788 0
M  V30 724 H 63.9736 4.70311 -5.91898 0
M  V30 725 H 65.2416 5.71747 -5.29835 0
M  V30 726 N 69.4707 1.49531 0.497807 0
M  V30 727 C 70.8867 1.36365 0.829266 0
M  V30 728 C 71.0867 0.399184 1.97506 0
M  V30 729 O 70.1427 -0.167977 2.51941 0
M  V30 730 C 71.4557 2.77153 1.16647 0
M  V30 731 C 73.0037 2.85877 1.27449 0
M  V30 732 C 73.4787 4.2744 1.64497 0
M  V30 733 N 74.9697 4.30265 1.7154 0
M  V30 734 C 75.7047 5.3677 2.01656 0
M  V30 735 N 75.2007 6.53516 2.29976 0
M  V30 736 N 76.9937 5.24189 2.02934 0
M  V30 737 H 69.1447 2.10831 -0.257703 0
M  V30 738 H 71.4077 0.946534 -0.0527091 0
M  V30 739 H 71.1137 3.49442 0.397872 0
M  V30 740 H 70.9877 3.12722 2.10915 0
M  V30 741 H 73.3747 2.13824 2.0338 0
M  V30 742 H 73.4557 2.53887 0.312244 0
M  V30 743 H 73.0997 5.00021 0.891151 0
M  V30 744 H 73.0297 4.56896 2.61827 0
M  V30 745 H 75.5207 3.4607 1.51802 0
M  V30 746 H 75.8337 7.30506 2.52153 0
M  V30 747 H 74.1787 6.56737 2.27425 0
M  V30 748 H 77.3697 4.31988 1.80289 0
M  V30 749 H 77.5427 6.07286 2.26071 0
M  V30 750 N 70.9488 -0.749086 1.3866 0
M  V30 751 C 72.3598 -1.32664 1.31366 0
M  V30 752 C 72.7108 -1.96179 -0.028484 0
M  V30 753 O 71.8358 -1.9537 -0.93057 0
M  V30 754 C 72.4308 -2.41219 2.37905 0
M  V30 755 C 70.9898 -2.94684 2.34176 0
M  V30 756 C 70.1368 -1.68108 2.20533 0
M  V30 757 H 73.0878 -0.547628 1.48952 0
M  V30 758 H 73.1088 -3.21268 2.0388 0
M  V30 759 H 72.6208 -1.94962 3.35576 0
M  V30 760 H 70.7218 -3.45258 1.401 0
M  V30 761 H 70.8348 -3.48757 3.2849 0
M  V30 762 H 69.1988 -1.91907 1.67463 0
M  V30 763 H 69.9818 -1.23923 3.20153 0
M  V30 764 N 72.4269 -1.23603 -0.977757 0
M  V30 765 C 73.3369 -1.03632 -2.1047 0
M  V30 766 C 74.3529 0.0199435 -1.73989 0
M  V30 767 O 75.5289 -0.176076 -2.00629 0
M  V30 768 C 72.5939 -0.63276 -3.40877 0
M  V30 769 C 71.6549 -1.76437 -3.91367 0
M  V30 770 C 70.8879 -1.37997 -5.15551 0
M  V30 771 O 71.1109 -0.265357 -5.69782 0
M  V30 772 O 70.0449 -2.20201 -5.60174 0
M  V30 773 H 73.8709 -1.98086 -2.30208 0
M  V30 774 H 71.4559 -1.02332 -1.08851 0
M  V30 775 H 73.3379 -0.418761 -4.19314 0
M  V30 776 H 72.0129 0.282754 -3.22463 0
M  V30 777 H 70.9199 -2.03304 -3.14036 0
M  V30 778 H 72.2529 -2.6583 -4.14241 0
M  V30 779 N 73.905 1.17692 -1.04816 0
M  V30 780 C 74.815 2.25229 -0.65643 0
M  V30 781 C 75.831 1.71018 0.320761 0
M  V30 782 O 77.007 2.00649 0.173805 0
M  V30 783 C 74.072 3.46684 -0.0332629 0
M  V30 784 C 73.133 4.15997 -1.06042 0
M  V30 785 C 72.366 5.31654 -0.466893 0
M  V30 786 O 72.589 5.65777 0.724758 0
M  V30 787 O 71.523 5.89831 -1.1993 0
M  V30 788 H 75.349 2.61016 -1.55255 0
M  V30 789 H 72.934 1.24919 -0.81949 0
M  V30 790 H 74.816 4.20234 0.313256 0
M  V30 791 H 73.491 3.12703 0.836566 0
M  V30 792 H 72.398 3.44482 -1.45886 0
M  V30 793 H 73.731 4.53996 -1.90127 0
M  V30 794 N 75.3831 0.828654 1.34056 0
M  V30 795 C 76.6291 0.42008 1.98402 0
M  V30 796 C 76.9621 -1.01564 1.65525 0
M  V30 797 O 76.2371 -1.70834 0.929831 0
M  V30 798 C 76.5201 0.62927 3.54559 0
M  V30 799 C 76.3731 2.11152 3.97159 0
M  V30 800 C 77.6921 0.0688756 4.40046 0
M  V30 801 H 74.8111 0.154104 0.720709 0
M  V30 802 H 77.4531 1.04228 1.5886 0
M  V30 803 H 75.6031 0.0996418 3.88372 0
M  V30 804 H 77.2751 2.70522 3.73651 0
M  V30 805 H 75.5181 2.59985 3.47261 0
M  V30 806 H 76.1891 2.20868 5.05887 0
M  V30 807 H 78.6651 0.521458 4.1282 0
M  V30 808 H 77.5411 0.245006 5.48353 0
M  V30 809 H 77.8021 -1.0266 4.30015 0
M  V30 810 N 76.8612 -1.46375 0.584142 0
M  V30 811 C 77.8242 -2.28784 -0.138108 0
M  V30 812 C 78.8242 -1.38471 -0.817462 0
M  V30 813 O 80.0142 -1.60833 -0.669199 0
M  V30 814 C 77.1462 -3.18892 -1.20503 0
M  V30 815 H 78.3392 -2.94117 0.586127 0
M  V30 816 H 75.8922 -1.52509 0.342171 0
M  V30 817 H 76.6272 -2.58309 -1.96079 0
M  V30 818 H 76.4122 -3.85388 -0.722384 0
M  V30 819 H 77.9022 -3.80914 -1.71155 0
M  V30 820 N 78.3393 -0.321999 -1.54275 0
M  V30 821 C 79.2693 0.537411 -2.27231 0
M  V30 822 C 80.2503 1.12064 -1.27968 0
M  V30 823 O 81.4353 1.14606 -1.56777 0
M  V30 824 C 78.5653 1.69919 -3.02894 0
M  V30 825 C 77.5193 1.24534 -4.09482 0
M  V30 826 C 76.8453 2.49394 -4.72977 0
M  V30 827 C 78.1453 0.361335 -5.21049 0
M  V30 828 H 79.8393 -0.0711406 -2.99315 0
M  V30 829 H 77.3853 -0.0356555 -1.43956 0
M  V30 830 H 79.3383 2.30668 -3.52662 0
M  V30 831 H 78.0623 2.33431 -2.28424 0
M  V30 832 H 76.7213 0.660782 -3.60596 0
M  V30 833 H 76.3693 3.11265 -3.95124 0
M  V30 834 H 76.0693 2.19718 -5.44975 0
M  V30 835 H 77.5933 3.10908 -5.25517 0
M  V30 836 H 79.0073 0.875072 -5.66582 0
M  V30 837 H 77.4043 0.157428 -5.99893 0
M  V30 838 H 78.4743 -0.60822 -4.8107 0
M  V30 839 N 79.8174 1.5752 -0.0501392 0
M  V30 840 C 81.0654 1.9227 0.622642 0
M  V30 841 C 81.3864 0.929083 1.71444 0
M  V30 842 O 80.6564 -0.0262186 1.95882 0
M  V30 843 H 79.2364 0.709739 0.232981 0
M  V30 844 H 81.8984 1.94628 -0.102898 0
M  V30 845 H 80.9944 2.93479 1.06191 0
M  V30 846 N 81.2955 -0.223234 1.56011 0
M  V30 847 C 82.2255 -1.27988 1.95298 0
M  V30 848 C 83.2065 -1.48976 0.820979 0
M  V30 849 O 84.3915 -1.61188 1.08315 0
M  V30 850 C 81.5215 -2.63 2.26822 0
M  V30 851 C 80.4755 -2.56671 3.42497 0
M  V30 852 C 79.8015 -3.95697 3.59622 0
M  V30 853 C 81.1015 -2.11601 4.77517 0
M  V30 854 H 82.7955 -0.953525 2.8381 0
M  V30 855 H 80.3415 -0.457244 1.36548 0
M  V30 856 H 82.2945 -3.37077 2.52898 0
M  V30 857 H 81.0185 -2.9732 1.35161 0
M  V30 858 H 79.6775 -1.85051 3.16467 0
M  V30 859 H 79.3255 -4.27322 2.6534 0
M  V30 860 H 79.0255 -3.92345 4.37424 0
M  V30 861 H 80.5495 -4.71438 3.88044 0
M  V30 862 H 81.9635 -2.7542 5.02809 0
M  V30 863 H 80.3605 -2.19311 5.5859 0
M  V30 864 H 81.4305 -1.06824 4.72987 0
M  V30 865 N 82.7736 -1.49793 -0.48987 0
M  V30 866 C 83.7236 -1.63673 -1.5873 0
M  V30 867 C 84.7076 -0.491956 -1.53195 0
M  V30 868 O 85.8996 -0.745461 -1.60536 0
M  V30 869 C 83.0286 -1.71689 -2.97284 0
M  V30 870 C 82.1146 -2.91781 -3.07774 0
M  V30 871 N 82.5056 -4.15714 -2.88124 0
M  V30 872 C 80.8036 -2.89949 -3.38889 0
M  V30 873 C 81.5046 -4.965 -3.03088 0
M  V30 874 N 80.4806 -4.30083 -3.3246 0
M  V30 875 H 84.2826 -2.57204 -1.42208 0
M  V30 876 H 81.7966 -1.46719 -0.69623 0
M  V30 877 H 83.7936 -1.79732 -3.76168 0
M  V30 878 H 82.4536 -0.793024 -3.14867 0
M  V30 879 H 83.4646 -4.45515 -2.64077 0
M  V30 880 H 80.1416 -2.06987 -3.62578 0
M  V30 881 H 81.5316 -6.04991 -2.92294 0
M  V30 882 N 84.2517 0.741722 -1.39055 0
M  V30 883 C 85.2017 1.84661 -1.33732 0
M  V30 884 C 86.1857 1.59397 -0.219401 0
M  V30 885 O 87.3777 1.71015 -0.456375 0
M  V30 886 C 84.5067 3.22512 -1.17647 0
M  V30 887 C 83.5927 3.53628 -2.34112 0
M  V30 888 N 83.9837 3.55723 -3.59576 0
M  V30 889 C 82.2817 3.83956 -2.26923 0
M  V30 890 C 82.9827 3.84443 -4.36553 0
M  V30 891 N 81.9587 4.01877 -3.66055 0
M  V30 892 H 85.7607 1.84576 -2.28711 0
M  V30 893 H 83.2747 0.939647 -1.32455 0
M  V30 894 H 85.2717 4.01597 -1.11917 0
M  V30 895 H 83.9317 3.2384 -0.236124 0
M  V30 896 H 84.9427 3.37196 -3.93089 0
M  V30 897 H 81.6197 3.92929 -1.41113 0
M  V30 898 H 83.0097 3.92588 -5.45274 0
M  V30 899 N 85.7298 1.2412 0.971189 0
M  V30 900 C 87.1458 1.00584 1.23916 0
M  V30 901 C 87.3458 -0.287481 1.99439 0
M  V30 902 O 86.4018 -1.00454 2.31658 0
M  V30 903 C 87.7148 2.21864 2.0297 0
M  V30 904 C 89.2628 2.26452 2.16076 0
M  V30 905 C 89.7378 3.47343 2.98524 0
M  V30 906 N 91.2288 3.47639 3.06107 0
M  V30 907 C 91.9638 4.37837 3.70251 0
M  V30 908 N 91.4598 5.38286 4.36142 0
M  V30 909 N 93.2528 4.25558 3.67228 0
M  V30 910 H 85.4038 2.07236 0.465499 0
M  V30 911 H 87.6668 0.909236 0.268315 0
M  V30 912 H 87.3728 3.15771 1.54861 0
M  V30 913 H 87.2468 2.23698 3.03709 0
M  V30 914 H 89.6338 1.33078 2.6339 0
M  V30 915 H 89.7148 2.28645 1.14696 0
M  V30 916 H 89.3588 4.41029 2.51905 0
M  V30 917 H 89.2888 3.42393 4.00093 0
M  V30 918 H 91.7798 2.74966 2.59233 0
M  V30 919 H 92.0928 6.03352 4.82894 0
M  V30 920 H 90.4378 5.42176 4.34822 0
M  V30 921 H 93.6288 3.46322 3.14927 0
M  V30 922 H 93.8018 4.96054 4.16935 0
M  V30 923 N 87.2079 -1.17134 1.05439 0
M  V30 924 C 88.1379 -2.2342 0.678649 0
M  V30 925 C 89.1189 -1.66971 -0.32476 0
M  V30 926 O 90.3039 -1.93149 -0.201802 0
M  V30 927 C 87.4339 -3.47256 0.0552099 0
M  V30 928 C 86.3879 -4.16543 0.98365 0
M  V30 929 C 85.7139 -5.34231 0.223961 0
M  V30 930 C 87.0139 -4.68495 2.3089 0
M  V30 931 H 88.7079 -2.55105 1.56722 0
M  V30 932 H 86.2539 -1.2262 0.754998 0
M  V30 933 H 88.2069 -4.20828 -0.21946 0
M  V30 934 H 86.9309 -3.14846 -0.868319 0
M  V30 935 H 85.5899 -3.44887 1.24293 0
M  V30 936 H 85.2379 -4.98071 -0.702412 0
M  V30 937 H 84.9379 -5.81527 0.842627 0
M  V30 938 H 86.4619 -6.10585 -0.0433671 0
M  V30 939 H 87.8759 -5.33691 2.09396 0
M  V30 940 H 86.2729 -5.26379 2.88176 0
M  V30 941 H 87.3429 -3.85169 2.94572 0
M  V30 942 N 88.686 -0.835752 -1.33615 0
M  V30 943 C 90.097 -0.487099 -1.80234 0
M  V30 944 C 90.448 0.993627 -1.69179 0
M  V30 945 O 89.573 1.77403 -1.23924 0
M  V30 946 C 90.168 -0.877385 -3.27242 0
M  V30 947 C 88.727 -0.580915 -3.7189 0
M  V30 948 C 87.874 -1.0874 -2.5509 0
M  V30 949 H 90.825 -1.02474 -1.2118 0
M  V30 950 H 90.846 -0.186195 -3.80044 0
M  V30 951 H 90.358 -1.95512 -3.35256 0
M  V30 952 H 88.459 0.486881 -3.69405 0
M  V30 953 H 88.572 -1.13396 -4.65487 0
M  V30 954 H 86.936 -0.508392 -2.49575 0
M  V30 955 H 87.719 -2.17184 -2.65868 0
M  V30 956 N 90.1641 1.46063 -0.591896 0
M  V30 957 C 91.1271 2.28854 0.125973 0
M  V30 958 C 92.1271 1.38903 0.810107 0
M  V30 959 O 93.3171 1.61186 0.66066 0
M  V30 960 C 90.4491 3.19526 1.1881 0
M  V30 961 H 91.6421 2.93802 -0.601717 0
M  V30 962 H 89.1951 1.52325 -0.350254 0
M  V30 963 H 89.9301 2.59345 1.94707 0
M  V30 964 H 89.7151 3.85766 0.701936 0
M  V30 965 H 91.2051 3.81817 1.69132 0
M  V30 966 N 91.6422 0.330177 1.54103 0
M  V30 967 C 92.5722 -0.525353 2.27513 0
M  V30 968 C 93.5532 -1.11383 1.2856 0
M  V30 969 O 94.7382 -1.13773 1.57383 0
M  V30 970 C 91.8682 -1.6831 3.03791 0
M  V30 971 C 90.8222 -1.2236 4.10137 0
M  V30 972 C 90.1482 -2.46882 4.74293 0
M  V30 973 C 91.4482 -0.333697 5.21233 0
M  V30 974 H 93.1422 0.087013 2.99274 0
M  V30 975 H 90.6882 0.0432893 1.43935 0
M  V30 976 H 92.6412 -2.28795 3.5388 0
M  V30 977 H 91.3652 -2.32216 2.29659 0
M  V30 978 H 90.0242 -0.64165 3.60941 0
M  V30 979 H 89.6722 -3.09165 3.96769 0
M  V30 980 H 89.3722 -2.16825 5.46133 0
M  V30 981 H 90.8962 -3.08117 5.27159 0
M  V30 982 H 92.3102 -0.845013 5.67038 0
M  V30 983 H 90.7072 -0.125612 5.99969 0
M  V30 984 H 91.7772 0.633724 4.80741 0
M  V30 985 N 93.1203 -1.57491 0.0584922 0
M  V30 986 C 94.3683 -1.92597 -0.612436 0
M  V30 987 C 94.6893 -0.938162 -1.70949 0
M  V30 988 O 93.9593 0.0158301 -1.95894 0
M  V30 989 H 92.5393 -0.710964 -0.229214 0
M  V30 990 H 95.2013 -1.94571 0.113218 0
M  V30 991 H 94.2973 -2.94038 -1.04633 0
M  V30 992 N 94.5984 0.214957 -1.56127 0
M  V30 993 C 96.0144 0.564948 -1.49267 0
M  V30 994 C 96.2144 1.86827 -0.754838 0
M  V30 995 O 95.2704 2.50745 -0.297198 0
M  V30 996 C 96.5834 0.638071 -2.93852 0
M  V30 997 C 98.1314 0.728253 -3.0441 0
M  V30 998 C 98.6064 0.832663 -4.50367 0
M  V30 999 N 100.097 0.896712 -4.54437 0
M  V30 1000 C 100.832 0.997324 -5.6466 0
M  V30 1001 N 100.328 1.06147 -6.8462 0
M  V30 1002 N 102.121 1.03297 -5.52527 0
M  V30 1003 H 94.2724 -0.640211 -2.02522 0
M  V30 1004 H 96.5354 -0.225507 -0.920788 0
M  V30 1005 H 96.2414 -0.250126 -3.50809 0
M  V30 1006 H 96.1154 1.49947 -3.46115 0
M  V30 1007 H 98.5024 1.60689 -2.47514 0
M  V30 1008 H 98.5834 -0.158952 -2.55306 0
M  V30 1009 H 98.2274 -0.0415417 -5.07883 0
M  V30 1010 H 98.1574 1.73538 -4.97184 0
M  V30 1011 H 100.648 0.857188 -3.6805 0
M  V30 1012 H 100.961 1.1382 -7.64372 0
M  V30 1013 H 99.3064 1.03049 -6.87318 0
M  V30 1014 H 102.497 0.979558 -4.57736 0
M  V30 1015 H 102.67 1.10793 -6.38458 0
M  V30 1016 N 96.0765 1.50051 0.48192 0
M  V30 1017 C 97.0395 1.67584 1.5636 0
M  V30 1018 C 98.0395 0.546894 1.51214 0
M  V30 1019 O 99.2295 0.813725 1.54026 0
M  V30 1020 C 96.3615 1.691 2.96003 0
M  V30 1021 H 97.5545 2.64078 1.42136 0
M  V30 1022 H 95.1075 1.39369 0.707533 0
M  V30 1023 H 95.8425 0.742589 3.15684 0
M  V30 1024 H 95.6275 2.51105 3.01146 0
M  V30 1025 H 97.1175 1.84656 3.74556 0
M  V30 1026 N 97.5546 -0.734337 1.39446 0
M  V30 1027 C 98.4846 -1.86155 1.40955 0
M  V30 1028 C 99.4656 -1.67898 0.272827 0
M  V30 1029 O 100.651 -1.88207 0.478743 0
M  V30 1030 C 97.7806 -3.23912 1.25294 0
M  V30 1031 C 96.7346 -3.56808 2.36373 0
M  V30 1032 C 96.0606 -4.93508 2.058 0
M  V30 1033 C 97.3606 -3.59713 3.78687 0
M  V30 1034 H 99.0546 -1.8515 2.35287 0
M  V30 1035 H 96.6006 -0.889367 1.13253 0
M  V30 1036 H 98.5536 -4.02443 1.2497 0
M  V30 1037 H 97.2776 -3.25446 0.274308 0
M  V30 1038 H 95.9366 -2.80606 2.35914 0
M  V30 1039 H 95.5846 -4.91623 1.06374 0
M  V30 1040 H 95.2846 -5.16486 2.80208 0
M  V30 1041 H 96.8086 -5.74396 2.07128 0
M  V30 1042 H 98.2226 -4.2832 3.81071 0
M  V30 1043 H 96.6196 -3.94209 4.52459 0
M  V30 1044 H 97.6896 -2.59504 4.09617 0
M  V30 1045 N 99.0327 -1.24633 -0.964593 0
M  V30 1046 C 100.281 -1.08573 -1.70459 0
M  V30 1047 C 100.602 0.375655 -1.91347 0
M  V30 1048 O 99.8717 1.26779 -1.49345 0
M  V30 1049 H 98.4517 -0.398784 -0.631649 0
M  V30 1050 H 101.114 -1.56601 -1.16026 0
M  V30 1051 H 100.21 -1.58623 -2.68785 0
M  V30 1052 N 100.511 1.16574 -1.06058 0
M  V30 1053 C 101.461 2.18854 -0.63929 0
M  V30 1054 C 102.445 1.57505 0.328798 0
M  V30 1055 O 103.637 1.76408 0.144623 0
M  V30 1056 C 100.766 3.43291 -0.0247203 0
M  V30 1057 C 99.8518 4.11722 -1.01716 0
M  V30 1058 N 100.243 4.55841 -2.19186 0
M  V30 1059 C 98.5408 4.37872 -0.847569 0
M  V30 1060 C 99.2418 5.08751 -2.82042 0
M  V30 1061 N 98.2178 5.01489 -2.09784 0
M  V30 1062 H 102.02 2.5068 -1.53417 0
M  V30 1063 H 99.5338 1.32999 -0.931935 0
M  V30 1064 H 101.531 4.15856 0.294915 0
M  V30 1065 H 100.191 3.12954 0.865448 0
M  V30 1066 H 101.202 4.49649 -2.56975 0
M  V30 1067 H 97.8788 4.17499 -0.00918848 0
M  V30 1068 H 99.2688 5.52944 -3.81709 0
M  V30 1069 N 101.989 0.842826 1.3317 0
M  V30 1070 C 103.214 0.453129 2.02389 0
M  V30 1071 C 103.639 -0.939105 1.6298 0
M  V30 1072 O 102.997 -1.61472 0.8244 0
M  V30 1073 C 103.045 0.586094 3.55805 0
M  V30 1074 O 102.149 -0.386029 4.10589 0
M  V30 1075 H 101.49 0.183664 0.638094 0
M  V30 1076 H 104.02 1.13875 1.69981 0
M  V30 1077 H 104.03 0.469209 4.05293 0
M  V30 1078 H 102.705 1.6014 3.83833 0
M  V30 1079 H 101.282 -0.226371 3.72212 0
M  V30 1080 N 103.467 -1.45747 0.599634 0
M  V30 1081 C 104.716 -2.01502 0.0893511 0
M  V30 1082 C 105.029 -1.4748 -1.28488 0
M  V30 1083 O 106.235 -1.95161 -1.88745 0
M  V30 1084 C 104.691 -3.59735 0.109082 0
M  V30 1085 C 104.299 -4.22754 1.48267 0
M  V30 1086 C 106.043 -4.23085 -0.346374 0
M  V30 1087 C 103.95 -5.73115 1.45921 0
M  V30 1088 H 102.88 -0.753417 0.0296347 0
M  V30 1089 H 105.531 -1.67303 0.753788 0
M  V30 1090 H 103.913 -3.91087 -0.621854 0
M  V30 1091 H 105.087 -4.02987 2.23468 0
M  V30 1092 H 103.402 -3.71567 1.87955 0
M  V30 1093 H 105.999 -5.33327 -0.38298 0
M  V30 1094 H 106.342 -3.93201 -1.36743 0
M  V30 1095 H 106.875 -3.9642 0.331038 0
M  V30 1096 H 103.614 -6.07685 2.45762 0
M  V30 1097 H 103.134 -5.95097 0.749665 0
M  V30 1098 H 104.813 -6.3616 1.17941 0
M  V30 1099 N 104.945 -0.338344 -1.53925 0
M  V30 1100 C 105.877 0.555117 -2.22376 0
M  V30 1101 C 106.89 1.06812 -1.22862 0
M  V30 1102 O 108.079 0.979163 -1.49247 0
M  V30 1103 C 105.179 1.77609 -2.88631 0
M  V30 1104 C 104.352 1.39927 -4.14414 0
M  V30 1105 C 103.411 2.47936 -4.64127 0
M  V30 1106 O 102.437 2.11461 -5.28463 0
M  V30 1107 N 103.639 3.79107 -4.39612 0
M  V30 1108 H 106.404 -0.0310778 -2.99684 0
M  V30 1109 H 103.965 -0.162226 -1.61085 0
M  V30 1110 H 105.957 2.49287 -3.18807 0
M  V30 1111 H 104.527 2.26978 -2.14941 0
M  V30 1112 H 103.747 0.513481 -3.90841 0
M  V30 1113 H 105.035 1.12341 -4.96243 0
M  V30 1114 H 104.433 4.11531 -3.88148 0
M  V30 1115 H 102.99 4.4697 -4.74406 0
M  V30 1116 N 106.423 1.57458 -0.0668435 0
M  V30 1117 C 107.355 2.09413 0.931601 0
M  V30 1118 C 108.368 1.02522 1.26464 0
M  V30 1119 O 109.557 1.30049 1.22269 0
M  V30 1120 C 106.657 2.53537 2.24882 0
M  V30 1121 C 105.83 3.83944 2.09537 0
M  V30 1122 C 104.889 4.14214 3.2452 0
M  V30 1123 O 103.915 4.83891 2.9973 0
M  V30 1124 N 105.117 3.67367 4.49469 0
M  V30 1125 H 107.882 2.95699 0.488048 0
M  V30 1126 H 105.443 1.61462 0.119009 0
M  V30 1127 H 107.435 2.70853 3.00701 0
M  V30 1128 H 106.005 1.72415 2.60753 0
M  V30 1129 H 105.225 3.76057 1.18215 0
M  V30 1130 H 106.513 4.69312 1.96529 0
M  V30 1131 H 105.911 3.11068 4.72497 0
M  V30 1132 H 104.468 3.89891 5.2233 0
M  V30 1133 N 107.901 -0.206675 1.56239 0
M  V30 1134 C 109.317 -0.557025 1.49564 0
M  V30 1135 C 109.517 -1.86424 0.764735 0
M  V30 1136 O 108.573 -2.50584 0.310491 0
M  V30 1137 C 109.886 -0.622478 2.94186 0
M  V30 1138 C 111.434 -0.712099 3.04792 0
M  V30 1139 C 111.909 -0.808767 4.50803 0
M  V30 1140 N 113.4 -0.8726 4.54907 0
M  V30 1141 C 114.135 -0.967365 5.65181 0
M  V30 1142 N 113.631 -1.02515 6.85173 0
M  V30 1143 N 115.424 -1.00366 5.53067 0
M  V30 1144 H 107.575 0.650943 2.02179 0
M  V30 1145 H 109.838 0.230387 0.919579 0
M  V30 1146 H 109.544 0.268727 3.50672 0
M  V30 1147 H 109.418 -1.4811 3.46905 0
M  V30 1148 H 111.805 -1.59374 2.48363 0
M  V30 1149 H 111.886 0.172489 2.55218 0
M  V30 1150 H 111.53 0.0684754 5.07854 0
M  V30 1151 H 111.46 -1.70899 4.98098 0
M  V30 1152 H 113.951 -0.837657 3.68499 0
M  V30 1153 H 114.264 -1.09765 7.64965 0
M  V30 1154 H 112.609 -0.994026 6.87855 0
M  V30 1155 H 115.8 -0.95527 4.58249 0
M  V30 1156 H 115.973 -1.07405 6.39037 0
M  V30 1157 N 109.379 -1.50304 -0.473955 0
M  V30 1158 C 110.342 -1.6841 -1.55469 0
M  V30 1159 C 111.342 -0.554905 -1.50922 0
M  V30 1160 O 112.532 -0.821882 -1.53593 0
M  V30 1161 C 109.664 -1.70667 -2.95102 0
M  V30 1162 H 110.857 -2.64828 -1.40733 0
M  V30 1163 H 108.41 -1.39742 -0.700132 0
M  V30 1164 H 109.145 -0.75932 -3.15285 0
M  V30 1165 H 108.93 -2.52698 -2.9981 0
M  V30 1166 H 110.42 -1.8664 -3.73571 0
M  V30 1167 N 110.857 0.726932 -1.39834 0
M  V30 1168 C 112.085 1.51613 -1.40787 0
M  V30 1169 C 112.5 1.88799 -0.00451505 0
M  V30 1170 O 111.857 1.54662 0.968809 0
M  V30 1171 C 111.908 2.79863 -2.28821 0
M  V30 1172 O 111.629 2.44253 -3.63692 0
M  V30 1173 C 113.13 3.73837 -2.38245 0
M  V30 1174 H 110.35 0.468264 -0.480593 0
M  V30 1175 H 112.894 0.897607 -1.83748 0
M  V30 1176 H 111.049 3.38027 -1.89252 0
M  V30 1177 H 111.463 3.26695 -4.1033 0
M  V30 1178 H 112.937 4.60699 -3.04073 0
M  V30 1179 H 113.414 4.16153 -1.40403 0
M  V30 1180 H 114.02 3.21589 -2.78317 0
M  V30 1181 N 112.336 1.25143 0.95797 0
M  V30 1182 C 113.561 1.12521 1.74223 0
M  V30 1183 C 113.986 -0.317402 1.85403 0
M  V30 1184 O 113.344 -1.2299 1.33204 0
M  V30 1185 C 113.392 1.78062 3.1357 0
M  V30 1186 O 112.496 1.058 3.98598 0
M  V30 1187 H 111.837 0.39304 0.535178 0
M  V30 1188 H 114.367 1.65641 1.201 0
M  V30 1189 H 114.377 1.84213 3.64046 0
M  V30 1190 H 113.052 2.83021 3.04749 0
M  V30 1191 H 111.629 1.07506 3.57067 0
M  V30 1192 N 113.814 -1.1601 1.06675 0
M  V30 1193 C 115.042 -1.90527 0.806667 0
M  V30 1194 C 115.457 -1.77643 -0.639396 0
M  V30 1195 O 114.814 -1.12369 -1.43803 0
M  V30 1196 C 114.865 -3.41106 1.19705 0
M  V30 1197 O 114.586 -3.53608 2.58636 0
M  V30 1198 C 116.087 -4.32663 0.965266 0
M  V30 1199 H 113.307 -0.604053 0.292166 0
M  V30 1200 H 115.851 -1.47026 1.4214 0
M  V30 1201 H 114.006 -3.82296 0.626774 0
M  V30 1202 H 114.42 -4.47011 2.74375 0
M  V30 1203 H 115.894 -5.36763 1.288 0
M  V30 1204 H 116.371 -4.39089 -0.0987936 0
M  V30 1205 H 116.977 -3.97206 1.52011 0
M  V30 1206 N 115.292 -0.849877 -1.32721 0
M  V30 1207 C 116.255 -0.296122 -2.27279 0
M  V30 1208 C 117.255 0.541458 -1.5141 0
M  V30 1209 O 118.445 0.353658 -1.70572 0
M  V30 1210 C 115.577 0.581579 -3.35902 0
M  V30 1211 H 116.77 -1.13064 -2.77771 0
M  V30 1212 H 114.323 -0.62383 -1.43311 0
M  V30 1213 H 115.058 1.43809 -2.9067 0
M  V30 1214 H 114.843 -0.0178814 -3.92096 0
M  V30 1215 H 116.333 0.961951 -4.0637 0
M  V30 1216 N 116.77 1.45427 -0.607355 0
M  V30 1217 C 117.717 2.3053 0.111625 0
M  V30 1218 C 118.687 1.4209 0.860216 0
M  V30 1219 O 119.872 1.71019 0.845998 0
M  V30 1220 C 117.012 3.26992 1.10319 0
M  V30 1221 C 116.125 4.30535 0.355493 0
M  V30 1222 C 115.26 5.14105 1.33676 0
M  V30 1223 C 114.299 6.09376 0.576862 0
M  V30 1224 N 113.436 6.85727 1.5074 0
M  V30 1225 H 118.276 2.91477 -0.620093 0
M  V30 1226 H 115.813 1.43631 -0.317594 0
M  V30 1227 H 117.771 3.81385 1.6912 0
M  V30 1228 H 116.401 2.67799 1.80232 0
M  V30 1229 H 115.453 3.78805 -0.348023 0
M  V30 1230 H 116.765 4.98235 -0.237423 0
M  V30 1231 H 115.919 5.72897 1.99684 0
M  V30 1232 H 114.658 4.46423 1.9636 0
M  V30 1233 H 113.663 5.49715 -0.0968519 0
M  V30 1234 H 114.888 6.79085 -0.0449341 0
M  V30 1235 H 112.834 6.20735 2.12189 0
M  V30 1236 H 112.751 7.49778 0.967913 0
M  V30 1237 H 114.019 7.4906 2.15706 0
M  V30 1238 N 118.248 0.346503 1.53744 0
M  V30 1239 C 119.476 -0.25041 2.05379 0
M  V30 1240 C 119.891 -1.43979 1.22129 0
M  V30 1241 O 119.248 -1.80677 0.257321 0
M  V30 1242 C 119.299 -0.662575 3.55376 0
M  V30 1243 O 119.02 0.479515 4.35468 0
M  V30 1244 C 120.521 -1.31989 4.23195 0
M  V30 1245 H 117.741 -0.0478198 0.669294 0
M  V30 1246 H 120.285 0.499346 1.9831 0
M  V30 1247 H 118.44 -1.36227 3.62658 0
M  V30 1248 H 118.854 0.15037 5.24284 0
M  V30 1249 H 120.328 -1.55902 5.29527 0
M  V30 1250 H 120.805 -2.27436 3.75725 0
M  V30 1251 H 121.411 -0.662154 4.20114 0
M  V30 1252 N 119.726 -1.57421 0.075193 0
M  V30 1253 C 120.972 -1.94716 -0.587998 0
M  V30 1254 C 121.327 -0.955205 -1.67014 0
M  V30 1255 O 120.62 0.0219842 -1.91587 0
M  V30 1256 C 120.814 -3.36428 -1.20626 0
M  V30 1257 C 120.643 -4.49317 -0.185541 0
M  V30 1258 C 119.413 -5.04772 0.23099 0
M  V30 1259 C 121.611 -5.11036 0.57854 0
M  V30 1260 N 119.593 -6.01204 1.24206 0
M  V30 1261 C 120.964 -6.02998 1.44199 0
M  V30 1262 C 123.019 -4.93844 0.634237 0
M  V30 1263 C 121.722 -6.79614 2.3562 0
M  V30 1264 C 123.748 -5.71106 1.53597 0
M  V30 1265 C 123.11 -6.6272 2.38709 0
M  V30 1266 H 119.209 -0.759536 -0.186089 0
M  V30 1267 H 121.793 -1.94097 0.153128 0
M  V30 1268 H 119.964 -3.37778 -1.9173 0
M  V30 1269 H 121.696 -3.60951 -1.8302 0
M  V30 1270 H 118.451 -4.73353 -0.152807 0
M  V30 1271 H 118.875 -6.54119 1.74521 0
M  V30 1272 H 123.517 -4.22799 -0.00960004 0
M  V30 1273 H 121.235 -7.49934 3.01038 0
M  V30 1274 H 124.821 -5.59824 1.58394 0
M  V30 1275 H 123.701 -7.2146 3.07352 0
M  V30 1276 N 121.204 0.198386 -1.56346 0
M  V30 1277 C 122.45 0.916115 -1.81601 0
M  V30 1278 C 122.805 1.81025 -0.651744 0
M  V30 1279 O 122.098 1.88316 0.353229 0
M  V30 1280 C 122.292 1.77031 -3.10475 0
M  V30 1281 C 122.121 0.960365 -4.39326 0
M  V30 1282 C 120.891 0.646093 -5.01152 0
M  V30 1283 C 123.089 0.314628 -5.13337 0
M  V30 1284 N 121.071 -0.182828 -6.13628 0
M  V30 1285 C 122.442 -0.37664 -6.18855 0
M  V30 1286 C 124.497 0.230019 -4.97368 0
M  V30 1287 C 123.2 -1.14445 -7.10137 0
M  V30 1288 C 125.226 -0.524389 -5.89071 0
M  V30 1289 C 124.588 -1.20412 -6.94032 0
M  V30 1290 H 120.687 0.314732 -0.715868 0
M  V30 1291 H 123.271 0.185102 -1.93818 0
M  V30 1292 H 121.442 2.47295 -2.99499 0
M  V30 1293 H 123.174 2.42727 -3.2383 0
M  V30 1294 H 119.929 0.969724 -4.63566 0
M  V30 1295 H 120.353 -0.586802 -6.74452 0
M  V30 1296 H 124.995 0.741184 -4.16253 0
M  V30 1297 H 122.713 -1.66706 -7.90718 0
M  V30 1298 H 126.299 -0.591167 -5.78789 0
M  V30 1299 H 125.179 -1.77853 -7.63766 0
M  V30 1300 N 122.682 1.50554 0.465978 0
M  V30 1301 C 123.959 1.5232 1.22712 0
M  V30 1302 C 124.339 0.270807 2.09356 0
M  V30 1303 O 123.687 -0.745541 2.15995 0
M  V30 1304 C 123.897 2.82175 2.05374 0
M  V30 1305 C 125.245 3.33033 2.6339 0
M  V30 1306 O 126.269 2.83531 2.15612 0
M  V30 1307 O 125.128 4.19336 3.50456 0
M  V30 1308 H 122.222 0.611183 0.557122 0
M  V30 1309 H 124.768 1.62847 0.477381 0
M  V30 1310 H 123.54 3.64797 1.41558 0
M  V30 1311 H 123.163 2.74675 2.87471 0
M  V30 1312 N 124.16 -0.719506 1.40217 0
M  V30 1313 C 125.576 -1.02707 1.22161 0
M  V30 1314 C 125.776 -2.0128 0.0940557 0
M  V30 1315 O 124.832 -2.46452 -0.549318 0
M  V30 1316 C 126.145 -1.57454 2.56181 0
M  V30 1317 C 127.693 -1.69458 2.63159 0
M  V30 1318 C 128.168 -2.27611 3.97438 0
M  V30 1319 N 129.659 -2.35002 3.99159 0
M  V30 1320 C 130.394 -2.80972 4.99842 0
M  V30 1321 N 129.89 -3.26723 6.10921 0
M  V30 1322 N 131.683 -2.80321 4.87213 0
M  V30 1323 H 123.834 -0.0660492 2.12297 0
M  V30 1324 H 126.097 -0.0919077 0.943534 0
M  V30 1325 H 125.803 -0.924873 3.39321 0
M  V30 1326 H 125.677 -2.56036 2.76993 0
M  V30 1327 H 128.064 -2.33543 1.80393 0
M  V30 1328 H 128.145 -0.694867 2.46181 0
M  V30 1329 H 127.789 -1.6415 4.80643 0
M  V30 1330 H 127.719 -3.2829 4.11744 0
M  V30 1331 H 130.21 -2.02685 3.18947 0
M  V30 1332 H 130.523 -3.60355 6.8364 0
M  V30 1333 H 128.868 -3.24692 6.14492 0
M  V30 1334 H 132.059 -2.43912 3.9953 0
M  V30 1335 H 132.232 -3.15831 5.65822 0
M  V30 1336 N 125.638 -1.25649 -0.95132 0
M  V30 1337 C 126.868 -1.13179 -1.72841 0
M  V30 1338 C 127.276 0.316827 -1.86528 0
M  V30 1339 O 126.619 1.22948 -1.3649 0
M  V30 1340 C 126.681 -1.71644 -3.15878 0
M  V30 1341 C 126.345 -3.20667 -3.25609 0
M  V30 1342 C 127.342 -4.17616 -3.09666 0
M  V30 1343 C 125.027 -3.6094 -3.49324 0
M  V30 1344 C 127.021 -5.52817 -3.17289 0
M  V30 1345 C 124.708 -4.96278 -3.56584 0
M  V30 1346 C 125.706 -5.92025 -3.40581 0
M  V30 1347 O 125.394 -7.24899 -3.47528 0
M  V30 1348 H 125.126 -0.395389 -0.54831 0
M  V30 1349 H 127.68 -1.66566 -1.20187 0
M  V30 1350 H 125.91 -1.12707 -3.69911 0
M  V30 1351 H 127.599 -1.54225 -3.75459 0
M  V30 1352 H 128.365 -3.87842 -2.91211 0
M  V30 1353 H 124.244 -2.86907 -3.6084 0
M  V30 1354 H 127.788 -6.2753 -3.04716 0
M  V30 1355 H 123.685 -5.25716 -3.74556 0
M  V30 1356 H 124.453 -7.33039 -3.64138 0
M  V30 1357 N 127.117 1.15442 -1.07289 0
M  V30 1358 C 128.027 2.23786 -0.704057 0
M  V30 1359 C 129.043 1.7166 0.284413 0
M  V30 1360 O 130.219 2.00972 0.131205 0
M  V30 1361 C 127.284 3.46535 -0.106792 0
M  V30 1362 C 126.345 4.13654 -1.14842 0
M  V30 1363 C 125.578 5.30544 -0.57956 0
M  V30 1364 O 125.801 5.67187 0.604585 0
M  V30 1365 O 124.735 5.87154 -1.32414 0
M  V30 1366 H 128.561 2.57664 -1.60757 0
M  V30 1367 H 126.146 1.23152 -0.845803 0
M  V30 1368 H 128.028 4.20804 0.224048 0
M  V30 1369 H 126.703 3.14407 0.770049 0
M  V30 1370 H 125.61 3.4131 -1.5316 0
M  V30 1371 H 126.943 4.49861 -1.99714 0
M  V30 1372 N 128.595 0.856903 1.32268 0
M  V30 1373 C 129.505 0.306131 2.32594 0
M  V30 1374 C 130.521 -0.577209 1.64147 0
M  V30 1375 O 131.697 -0.477043 1.95669 0
M  V30 1376 C 128.762 -0.494561 3.43154 0
M  V30 1377 C 127.823 0.415186 4.27288 0
M  V30 1378 C 127.056 -0.347387 5.32568 0
M  V30 1379 O 127.279 -1.57708 5.48165 0
M  V30 1380 O 126.213 0.287982 6.01211 0
M  V30 1381 H 130.039 1.13737 2.81598 0
M  V30 1382 H 127.624 0.619902 1.35932 0
M  V30 1383 H 129.506 -0.948944 4.10576 0
M  V30 1384 H 128.181 -1.30257 2.96336 0
M  V30 1385 H 127.088 0.917793 3.62667 0
M  V30 1386 H 128.421 1.18844 4.77637 0
M  V30 1387 N 130.073 -1.45103 0.615059 0
M  V30 1388 C 131.32 -2.02183 0.113179 0
M  V30 1389 C 131.648 -1.48249 -1.25906 0
M  V30 1390 O 130.903 -0.650265 -1.84581 0
M  V30 1391 C 131.202 -3.57386 0.0318797 0
M  V30 1392 C 130.868 -4.30505 1.34077 0
M  V30 1393 C 129.53 -4.50197 1.69929 0
M  V30 1394 C 131.882 -4.72238 2.20546 0
M  V30 1395 C 129.21 -5.08881 2.91988 0
M  V30 1396 C 131.562 -5.32272 3.41861 0
M  V30 1397 C 130.226 -5.50187 3.77956 0
M  V30 1398 H 129.496 -0.739842 0.0414151 0
M  V30 1399 H 132.143 -1.74073 0.798168 0
M  V30 1400 H 130.448 -3.84817 -0.736409 0
M  V30 1401 H 132.145 -3.99264 -0.372712 0
M  V30 1402 H 128.735 -4.15496 1.05173 0
M  V30 1403 H 132.919 -4.56751 1.94146 0
M  V30 1404 H 128.175 -5.20939 3.2005 0
M  V30 1405 H 132.349 -5.63563 4.09109 0
M  V30 1406 H 129.976 -5.95427 4.72622 0
M  V30 1407 N 131.551 -0.354651 -1.53558 0
M  V30 1408 C 132.797 0.238797 -2.01389 0
M  V30 1409 C 133.13 1.49309 -1.2418 0
M  V30 1410 O 132.405 1.91638 -0.332457 0
M  V30 1411 C 132.688 0.541771 -3.56001 0
M  V30 1412 C 132.541 -0.725388 -4.43912 0
M  V30 1413 C 133.86 1.34685 -4.18984 0
M  V30 1414 H 130.979 0.0853177 -0.732045 0
M  V30 1415 H 133.621 -0.477384 -1.83905 0
M  V30 1416 H 131.771 1.15189 -3.71031 0
M  V30 1417 H 133.443 -1.36313 -4.407 0
M  V30 1418 H 131.686 -1.34801 -4.12324 0
M  V30 1419 H 132.357 -0.468505 -5.50008 0
M  V30 1420 H 134.833 0.830837 -4.07721 0
M  V30 1421 H 133.709 1.52759 -5.27215 0
M  V30 1422 H 133.97 2.35221 -3.74331 0
M  V30 1423 N 133.029 1.57378 -0.0835403 0
M  V30 1424 C 134.277 1.93547 0.581718 0
M  V30 1425 C 134.598 0.96524 1.69435 0
M  V30 1426 O 133.868 0.0153369 1.95894 0
M  V30 1427 H 132.448 0.714521 0.217874 0
M  V30 1428 H 135.11 1.94366 -0.144158 0
M  V30 1429 H 134.206 2.95665 0.999423 0
M  V30 1430 N 134.507 -0.190092 1.56449 0
M  V30 1431 C 135.437 -1.23816 1.97969 0
M  V30 1432 C 136.418 -1.47201 0.852395 0
M  V30 1433 O 137.603 -1.58854 1.1171 0
M  V30 1434 C 134.733 -2.5813 2.3235 0
M  V30 1435 C 133.687 -2.49348 3.47864 0
M  V30 1436 C 133.013 -3.8798 3.67934 0
M  V30 1437 C 134.313 -2.01424 4.81898 0
M  V30 1438 H 136.007 -0.89311 2.85769 0
M  V30 1439 H 133.553 -0.428177 1.37487 0
M  V30 1440 H 135.506 -3.31637 2.59991 0
M  V30 1441 H 134.23 -2.94386 1.41438 0
M  V30 1442 H 132.889 -1.78297 3.20321 0
M  V30 1443 H 132.537 -4.21597 2.74344 0
M  V30 1444 H 132.237 -3.82978 4.45648 0
M  V30 1445 H 133.761 -4.63101 3.97957 0
M  V30 1446 H 135.175 -2.64693 5.08538 0
M  V30 1447 H 133.572 -2.07413 5.63116 0
M  V30 1448 H 134.642 -0.967677 4.75146 0
M  V30 1449 N 135.985 -1.50799 -0.457987 0
M  V30 1450 C 136.933 -1.71162 -1.575 0
M  V30 1451 C 137.927 -0.577592 -1.59249 0
M  V30 1452 O 139.133 -0.758443 -1.63241 0
M  V30 1453 H 135.508 -0.540468 -0.522875 0
M  V30 1454 H 137.479 -2.64837 -1.37492 0
M  V30 1455 C 136.228 -1.83496 -2.95338 0
M  V30 1456 H 135.551 -2.70153 -2.94716 0
M  V30 1457 H 136.991 -2.01765 -3.72917 0
M  V30 1458 C 135.45 -0.589694 -3.31699 0
M  V30 1459 O 135.98 0.265163 -4.00824 0
M  V30 1460 N 134.186 -0.439845 -2.87252 0
M  V30 1461 H 133.733 -1.13655 -2.31172 0
M  V30 1462 H 133.691 0.392159 -3.11945 0
M  V30 1463 N 137.463 0.71206 -1.40597 0
M  V30 1464 C 138.373 1.8562 -1.43466 0
M  V30 1465 C 139.389 1.70902 -0.326902 0
M  V30 1466 O 140.565 1.93105 -0.572043 0
M  V30 1467 C 137.63 3.21451 -1.29884 0
M  V30 1468 C 136.691 3.48398 -2.50833 0
M  V30 1469 C 135.924 4.77749 -2.3789 0
M  V30 1470 O 136.147 5.53089 -1.39459 0
M  V30 1471 O 135.081 5.05111 -3.27333 0
M  V30 1472 H 138.907 1.86155 -2.39958 0
M  V30 1473 H 136.492 0.86295 -1.21957 0
M  V30 1474 H 138.374 4.02579 -1.24531 0
M  V30 1475 H 137.049 3.21636 -0.364997 0
M  V30 1476 H 135.956 2.67265 -2.61763 0
M  V30 1477 H 137.289 3.53014 -3.4299 0
M  V30 1478 N 138.941 1.26152 0.944643 0
M  V30 1479 C 140.187 1.11657 1.69294 0
M  V30 1480 C 140.52 -0.339926 1.91202 0
M  V30 1481 O 139.795 -1.24994 1.49019 0
M  V30 1482 C 140.078 1.88236 3.06984 0
M  V30 1483 C 139.931 3.41772 2.92424 0
M  V30 1484 C 141.25 1.67343 4.07043 0
M  V30 1485 H 138.369 0.407004 0.614424 0
M  V30 1486 H 141.011 1.55106 1.09737 0
M  V30 1487 H 139.161 1.51308 3.57824 0
M  V30 1488 H 140.833 3.88433 2.48832 0
M  V30 1489 H 139.076 3.68974 2.28124 0
M  V30 1490 H 139.747 3.90579 3.90067 0
M  V30 1491 H 142.223 1.99509 3.65151 0
M  V30 1492 H 141.099 2.23346 5.01406 0
M  V30 1493 H 141.36 0.617158 4.37771 0
M  V30 1494 N 140.419 -1.14872 1.07899 0
M  V30 1495 C 141.835 -1.37776 0.805606 0
M  V30 1496 C 142.035 -1.92743 -0.587555 0
M  V30 1497 O 141.091 -2.13678 -1.34528 0
M  V30 1498 C 142.404 -2.34361 1.88402 0
M  V30 1499 C 143.952 -2.48012 1.90942 0
M  V30 1500 C 144.427 -3.47893 2.97883 0
M  V30 1501 N 145.918 -3.55433 2.97021 0
M  V30 1502 C 146.653 -4.32553 3.76412 0
M  V30 1503 N 146.149 -5.12959 4.65666 0
M  V30 1504 N 147.942 -4.27697 3.64735 0
M  V30 1505 H 140.093 -0.775365 1.97742 0
M  V30 1506 H 142.356 -0.403521 0.857831 0
M  V30 1507 H 142.062 -2.01098 2.88535 0
M  V30 1508 H 141.936 -3.34206 1.74889 0
M  V30 1509 H 144.323 -2.8057 0.914579 0
M  V30 1510 H 144.404 -1.48147 2.08534 0
M  V30 1511 H 144.048 -3.16069 3.97571 0
M  V30 1512 H 143.978 -4.47527 2.77538 0
M  V30 1513 H 146.469 -2.98048 2.32326 0
M  V30 1514 H 146.782 -5.69065 5.22862 0
M  V30 1515 H 145.127 -5.12245 4.69712 0
M  V30 1516 H 148.318 -3.63949 2.94378 0
M  V30 1517 H 148.491 -4.8755 4.26848 0
M  V30 1518 N 141.898 -0.863906 -1.31812 0
M  V30 1519 C 142.808 -0.318461 -2.32428 0
M  V30 1520 C 143.824 0.568496 -1.64451 0
M  V30 1521 O 145 0.46666 -1.95919 0
M  V30 1522 C 142.065 0.476355 -3.43412 0
M  V30 1523 C 141.126 -0.43784 -4.27061 0
M  V30 1524 C 140.359 0.319138 -5.32745 0
M  V30 1525 O 140.582 1.54799 -5.48993 0
M  V30 1526 O 139.516 -0.319861 -6.01049 0
M  V30 1527 H 143.342 -1.15229 -2.80991 0
M  V30 1528 H 140.927 -0.627103 -1.35602 0
M  V30 1529 H 142.809 0.927156 -4.11074 0
M  V30 1530 H 141.484 1.28683 -2.97022 0
M  V30 1531 H 140.391 -0.937013 -3.62175 0
M  V30 1532 H 141.724 -1.21375 -4.77 0
M  V30 1533 N 143.376 1.44774 -0.622745 0
M  V30 1534 C 144.339 2.29069 0.0774015 0
M  V30 1535 C 145.339 1.4059 0.780461 0
M  V30 1536 O 146.529 1.62551 0.626322 0
M  V30 1537 C 143.661 3.21974 1.12006 0
M  V30 1538 H 144.854 2.92459 -0.663901 0
M  V30 1539 H 142.407 1.51548 -0.382486 0
M  V30 1540 H 143.142 2.63417 1.89162 0
M  V30 1541 H 142.927 3.87168 0.619951 0
M  V30 1542 H 144.417 3.85318 1.60995 0
M  V30 1543 N 144.854 0.36279 1.53368 0
M  V30 1544 C 145.786 -0.519668 2.23231 0
M  V30 1545 C 146.799 -1.04844 1.24546 0
M  V30 1546 O 147.988 -0.955296 1.50786 0
M  V30 1547 C 145.088 -1.72995 2.9142 0
M  V30 1548 C 144.261 -1.33316 4.16588 0
M  V30 1549 C 143.32 -2.40521 4.68013 0
M  V30 1550 O 142.346 -2.03027 5.3176 0
M  V30 1551 N 143.548 -3.72065 4.45587 0
M  V30 1552 H 146.313 0.078751 2.99597 0
M  V30 1553 H 143.874 0.187833 1.60807 0
M  V30 1554 H 145.866 -2.44184 3.22733 0
M  V30 1555 H 144.436 -2.2353 2.18525 0
M  V30 1556 H 143.656 -0.451236 3.91609 0
M  V30 1557 H 144.944 -1.04432 4.97967 0
M  V30 1558 H 144.342 -4.05304 3.94646 0
M  V30 1559 H 142.899 -4.39366 4.81457 0
M  V30 1560 N 146.332 -1.57332 0.0918853 0
M  V30 1561 C 147.58 -1.93853 -0.571446 0
M  V30 1562 C 147.901 -0.974212 -1.6892 0
M  V30 1563 O 147.171 -0.0257254 -1.95883 0
M  V30 1564 H 145.751 -0.715666 -0.214082 0
M  V30 1565 H 148.413 -1.94287 0.154464 0
M  V30 1566 H 147.509 -2.96191 -0.983729 0
M  V30 1567 N 147.81 0.181792 -1.56548 0
M  V30 1568 C 148.757 1.22521 -1.95595 0
M  V30 1569 C 149.727 1.4454 -0.818373 0
M  V30 1570 O 150.912 1.57454 -1.07763 0
M  V30 1571 C 148.052 2.56193 -2.31212 0
M  V30 1572 C 147.165 2.41641 -3.58097 0
M  V30 1573 C 146.3 3.68108 -3.82975 0
M  V30 1574 C 145.339 3.48445 -5.03242 0
M  V30 1575 N 144.476 4.66956 -5.24306 0
M  V30 1576 H 149.316 0.885226 -2.84548 0
M  V30 1577 H 146.853 0.425718 -1.40805 0
M  V30 1578 H 148.811 3.34088 -2.49882 0
M  V30 1579 H 147.441 2.88208 -1.45382 0
M  V30 1580 H 146.493 1.54976 -3.474 0
M  V30 1581 H 147.805 2.23052 -4.46149 0
M  V30 1582 H 146.959 4.54441 -4.01956 0
M  V30 1583 H 145.698 3.89666 -2.93278 0
M  V30 1584 H 144.703 2.60499 -4.8417 0
M  V30 1585 H 145.928 3.2832 -5.9446 0
M  V30 1586 H 143.874 4.88752 -4.37559 0
M  V30 1587 H 143.791 4.51242 -6.06561 0
M  V30 1588 H 145.059 5.54602 -5.47756 0
M  V30 1589 N 149.288 1.51039 0.449983 0
M  V30 1590 C 150.534 1.63322 1.20223 0
M  V30 1591 C 150.867 0.34241 1.91158 0
M  V30 1592 O 150.142 -0.657344 1.83055 0
M  V30 1593 C 150.425 2.82801 2.22925 0
M  V30 1594 C 150.278 4.21823 1.56157 0
M  V30 1595 C 151.597 2.97807 3.24035 0
M  V30 1596 H 148.716 0.594407 0.435718 0
M  V30 1597 H 151.358 1.83489 0.493136 0
M  V30 1598 H 149.508 2.65738 2.834 0
M  V30 1599 H 151.18 4.50526 0.991162 0
M  V30 1600 H 149.423 4.25105 0.864172 0
M  V30 1601 H 150.094 5.01391 2.30891 0
M  V30 1602 H 152.57 3.13497 2.73603 0
M  V30 1603 H 151.446 3.82992 3.93202 0
M  V30 1604 H 151.707 2.09328 3.89402 0
M  V30 1605 N 150.766 -0.704594 1.40972 0
M  V30 1606 C 151.994 -1.49354 1.43182 0
M  V30 1607 C 152.409 -1.88768 0.0345508 0
M  V30 1608 O 151.766 -1.56184 -0.944081 0
M  V30 1609 C 151.817 -2.76187 2.33244 0
M  V30 1610 O 151.538 -2.38436 3.67532 0
M  V30 1611 C 153.039 -3.7 2.44162 0
M  V30 1612 H 150.259 -0.460559 0.487982 0
M  V30 1613 H 152.803 -0.868261 1.85153 0
M  V30 1614 H 150.958 -3.34974 1.94606 0
M  V30 1615 H 151.372 -3.20126 4.15475 0
M  V30 1616 H 152.846 -4.55803 3.11364 0
M  V30 1617 H 153.323 -4.13867 1.47006 0
M  V30 1618 H 153.929 -3.17121 2.83398 0
M  V30 1619 N 152.244 -1.26651 -0.937939 0
M  V30 1620 C 153.154 -1.10276 -2.07066 0
M  V30 1621 C 154.17 -0.0354197 -1.73964 0
M  V30 1622 O 155.346 -0.239816 -1.99967 0
M  V30 1623 C 152.411 -0.740887 -3.38691 0
M  V30 1624 C 151.472 -1.88799 -3.85556 0
M  V30 1625 C 150.705 -1.54329 -5.10899 0
M  V30 1626 O 150.928 -0.446494 -5.6865 0
M  V30 1627 O 149.862 -2.37911 -5.52885 0
M  V30 1628 H 153.688 -2.05309 -2.23789 0
M  V30 1629 H 151.273 -1.05743 -1.0554 0
M  V30 1630 H 153.155 -0.55195 -4.1777 0
M  V30 1631 H 151.83 0.180022 -3.23199 0
M  V30 1632 H 150.737 -2.13191 -3.07409 0
M  V30 1633 H 152.07 -2.78874 -4.05574 0
M  V30 1634 N 153.722 1.14298 -1.08507 0
M  V30 1635 C 154.685 2.17607 -0.719711 0
M  V30 1636 C 155.685 1.58907 0.245997 0
M  V30 1637 O 156.875 1.74181 0.0254081 0
M  V30 1638 C 154.007 3.40842 -0.0627695 0
M  V30 1639 H 155.2 2.51443 -1.63452 0
M  V30 1640 H 152.753 1.28963 -0.88307 0
M  V30 1641 H 153.488 3.12587 0.863716 0
M  V30 1642 H 153.273 3.84713 -0.757504 0
M  V30 1643 H 154.763 4.17221 0.177786 0
M  V30 1644 N 155.201 0.870884 1.31352 0
M  V30 1645 C 156.111 0.330783 2.32256 0
M  V30 1646 C 157.127 -0.559767 1.6475 0
M  V30 1647 O 158.303 -0.456263 1.96164 0
M  V30 1648 C 155.368 -0.458137 3.4366 0
M  V30 1649 C 154.429 0.460482 4.26823 0
M  V30 1650 C 153.662 -0.290881 5.32907 0
M  V30 1651 O 153.885 -1.51885 5.49806 0
M  V30 1652 O 152.819 0.351732 6.00871 0
M  V30 1653 H 156.645 1.16718 2.80376 0
M  V30 1654 H 154.23 0.634285 1.35267 0
M  V30 1655 H 156.112 -0.905343 4.1156 0
M  V30 1656 H 154.787 -1.27106 2.97701 0
M  V30 1657 H 153.694 0.956207 3.61673 0
M  V30 1658 H 155.027 1.23903 4.7635 0
M  V30 1659 N 156.679 -1.44442 0.630414 0
M  V30 1660 C 157.626 -2.30678 -0.0749355 0
M  V30 1661 C 158.596 -1.4344 -0.837502 0
M  V30 1662 O 159.781 -1.72343 -0.818684 0
M  V30 1663 C 156.921 -3.28706 -1.05103 0
M  V30 1664 C 156.034 -4.31046 -0.286954 0
M  V30 1665 C 155.169 -5.16167 -1.2548 0
M  V30 1666 C 154.208 -6.10216 -0.479843 0
M  V30 1667 N 153.345 -6.88039 -1.39811 0
M  V30 1668 H 158.185 -2.90454 0.666386 0
M  V30 1669 H 155.722 -1.43107 0.340404 0
M  V30 1670 H 157.68 -3.84027 -1.63031 0
M  V30 1671 H 156.31 -2.70632 -1.75949 0
M  V30 1672 H 155.362 -3.78203 0.408243 0
M  V30 1673 H 156.674 -4.97794 0.316657 0
M  V30 1674 H 155.828 -5.76002 -1.90544 0
M  V30 1675 H 154.567 -4.49491 -1.89233 0
M  V30 1676 H 153.572 -5.49491 0.184295 0
M  V30 1677 H 154.797 -6.78928 0.152965 0
M  V30 1678 H 152.743 -6.24032 -2.02287 0
M  V30 1679 H 152.66 -7.51223 -0.848508 0
M  V30 1680 H 153.928 -7.52397 -2.03762 0
M  V30 1681 N 158.157 -0.370918 -1.53173 0
M  V30 1682 C 159.403 0.217423 -2.01631 0
M  V30 1683 C 159.736 1.47983 -1.25756 0
M  V30 1684 O 159.011 1.91274 -0.352764 0
M  V30 1685 C 159.294 0.503982 -3.56556 0
M  V30 1686 C 159.147 -0.77243 -4.43118 0
M  V30 1687 C 160.466 1.30234 -4.20389 0
M  V30 1688 H 157.585 0.0775486 -0.732909 0
M  V30 1689 H 160.227 -0.496863 -1.83388 0
M  V30 1690 H 158.377 1.11248 -3.72231 0
M  V30 1691 H 160.049 -1.4098 -4.39229 0
M  V30 1692 H 158.292 -1.39167 -4.10871 0
M  V30 1693 H 158.963 -0.526815 -5.4948 0
M  V30 1694 H 161.439 0.787546 -4.08579 0
M  V30 1695 H 160.315 1.47158 -5.28806 0
M  V30 1696 H 160.576 2.31237 -3.76805 0
M  V30 1697 N 159.635 1.57281 -0.100228 0
M  V30 1698 C 160.882 1.94537 0.562268 0
M  V30 1699 C 161.21 0.982315 1.67871 0
M  V30 1700 O 160.465 0.00280936 1.957 0
M  V30 1701 C 160.764 3.38305 1.15259 0
M  V30 1702 C 160.43 4.50618 0.159409 0
M  V30 1703 C 159.092 4.81066 -0.113741 0
M  V30 1704 C 161.444 5.18615 -0.518461 0
M  V30 1705 C 158.772 5.76835 -1.07137 0
M  V30 1706 C 161.124 6.15412 -1.46459 0
M  V30 1707 C 159.788 6.44262 -1.74592 0
M  V30 1708 H 159.058 0.711863 0.205748 0
M  V30 1709 H 161.705 1.90679 -0.17715 0
M  V30 1710 H 160.01 3.38766 1.96836 0
M  V30 1711 H 161.707 3.64435 1.67297 0
M  V30 1712 H 158.297 4.2689 0.382491 0
M  V30 1713 H 162.481 4.95264 -0.320581 0
M  V30 1714 H 157.737 5.975 -1.29628 0
M  V30 1715 H 161.911 6.67194 -1.99564 0
M  V30 1716 H 159.538 7.1828 -2.48953 0
M  V30 1717 N 161.113 -0.173488 1.56642 0
M  V30 1718 C 162.046 -1.24353 1.91342 0
M  V30 1719 C 163.024 -1.4289 0.775965 0
M  V30 1720 O 164.208 -1.57932 1.02907 0
M  V30 1721 C 161.335 -2.60683 2.16245 0
M  V30 1722 C 160.381 -2.58894 3.38934 0
M  V30 1723 S 161.214 -2.0819 4.93373 0
M  V30 1724 C 162.37 -3.46302 5.21369 0
M  V30 1725 H 162.603 -0.947345 2.81803 0
M  V30 1726 H 160.136 -0.377958 1.49703 0
M  V30 1727 H 162.094 -3.39149 2.31275 0
M  V30 1728 H 160.755 -2.87502 1.26496 0
M  V30 1729 H 159.948 -3.59188 3.53553 0
M  V30 1730 H 159.55 -1.88522 3.2301 0
M  V30 1731 H 161.842 -4.42287 5.13214 0
M  V30 1732 H 162.785 -3.3656 6.23003 0
M  V30 1733 H 163.193 -3.42214 4.48943 0
M  V30 1734 N 162.591 -1.51276 -0.441967 0
M  V30 1735 C 163.837 -1.63958 -1.19355 0
M  V30 1736 C 164.17 -0.352543 -1.90973 0
M  V30 1737 O 163.445 0.647627 -1.83401 0
M  V30 1738 C 163.728 -2.83979 -2.21422 0
M  V30 1739 C 163.581 -4.22646 -1.53918 0
M  V30 1740 C 164.9 -2.99521 -3.22451 0
M  V30 1741 H 162.019 -0.596709 -0.432559 0
M  V30 1742 H 164.661 -1.83748 -0.483398 0
M  V30 1743 H 162.811 -2.67237 -2.81987 0
M  V30 1744 H 164.483 -4.51045 -0.967256 0
M  V30 1745 H 162.726 -4.25558 -0.841615 0
M  V30 1746 H 163.397 -5.02609 -2.28229 0
M  V30 1747 H 165.873 -3.14944 -2.71937 0
M  V30 1748 H 164.749 -3.85072 -3.91166 0
M  V30 1749 H 165.01 -2.11391 -3.88287 0
M  V30 1750 N 164.069 0.697108 -1.41344 0
M  V30 1751 C 165.032 1.79281 -1.42797 0
M  V30 1752 C 166.032 1.57607 -0.318837 0
M  V30 1753 O 167.222 1.64309 -0.578642 0
M  V30 1754 C 164.354 3.17632 -1.23785 0
M  V30 1755 H 165.547 1.79385 -2.40335 0
M  V30 1756 H 163.1 0.904582 -1.27464 0
M  V30 1757 H 163.835 3.23167 -0.270814 0
M  V30 1758 H 163.62 3.34765 -2.04144 0
M  V30 1759 H 165.11 3.97617 -1.27633 0
M  V30 1760 N 165.547 1.27147 0.931209 0
M  V30 1761 C 166.963 1.04475 1.20653 0
M  V30 1762 C 167.163 -0.223885 2.00252 0
M  V30 1763 O 166.219 -0.930332 2.34736 0
M  V30 1764 C 167.532 2.28209 1.95809 0
M  V30 1765 C 169.08 2.33211 2.08762 0
M  V30 1766 C 169.555 3.56665 2.87323 0
M  V30 1767 N 171.046 3.57201 2.94892 0
M  V30 1768 C 171.781 4.49395 3.56134 0
M  V30 1769 N 171.277 5.51889 4.18796 0
M  V30 1770 N 173.07 4.37026 3.53504 0
M  V30 1771 H 165.221 2.08612 0.399333 0
M  V30 1772 H 167.484 0.917312 0.239253 0
M  V30 1773 H 167.19 3.20538 1.44736 0
M  V30 1774 H 167.064 2.33247 2.96438 0
M  V30 1775 H 169.451 1.41391 2.59023 0
M  V30 1776 H 169.532 2.32178 1.07364 0
M  V30 1777 H 169.176 4.4882 2.37746 0
M  V30 1778 H 169.106 3.54948 3.88998 0
M  V30 1779 H 171.597 2.83074 2.50354 0
M  V30 1780 H 171.91 6.18409 4.63454 0
M  V30 1781 H 170.255 5.55735 4.17353 0
M  V30 1782 H 173.446 3.56166 3.03749 0
M  V30 1783 H 173.619 5.09067 4.00942 0
M  V30 1784 N 167.025 -1.13721 1.09112 0
M  V30 1785 C 168.273 -1.84559 0.823562 0
M  V30 1786 C 168.594 -1.83754 -0.652658 0
M  V30 1787 O 167.864 -1.29102 -1.47342 0
M  V30 1788 H 166.444 -0.683376 0.301673 0
M  V30 1789 H 169.106 -1.37771 1.37859 0
M  V30 1790 H 168.202 -2.8917 1.17419 0
M  V30 1791 N 168.503 -0.877838 -1.30888 0
M  V30 1792 C 169.433 -0.35534 -2.3078 0
M  V30 1793 C 170.414 0.557994 -1.60687 0
M  V30 1794 O 171.599 0.473355 -1.88343 0
M  V30 1795 C 168.729 0.437221 -3.44537 0
M  V30 1796 C 167.683 -0.383715 -4.26276 0
M  V30 1797 C 167.009 0.535014 -5.32017 0
M  V30 1798 C 168.309 -1.62201 -4.96476 0
M  V30 1799 H 170.003 -1.19007 -2.74732 0
M  V30 1800 H 167.549 -0.573698 -1.32078 0
M  V30 1801 H 169.502 0.813334 -4.13477 0
M  V30 1802 H 168.226 1.30553 -2.99372 0
M  V30 1803 H 166.885 -0.741874 -3.59015 0
M  V30 1804 H 166.533 1.40083 -4.831 0
M  V30 1805 H 166.233 -0.0104211 -5.87599 0
M  V30 1806 H 167.757 0.907799 -6.03814 0
M  V30 1807 H 169.171 -1.31689 -5.5797 0
M  V30 1808 H 167.568 -2.10711 -5.61891 0
M  V30 1809 H 168.638 -2.37044 -4.23011 0
M  V30 1810 N 169.982 1.44106 -0.638065 0
M  V30 1811 C 171.228 2.02277 -0.145546 0
M  V30 1812 C 171.561 1.50125 1.23191 0
M  V30 1813 O 170.836 0.688133 1.8192 0
M  V30 1814 C 171.119 3.59829 -0.139791 0
M  V30 1815 C 170.972 4.22247 -1.55008 0
M  V30 1816 C 172.291 4.36873 0.531966 0
M  V30 1817 H 169.41 0.734992 -0.0543632 0
M  V30 1818 H 172.052 1.71592 -0.815863 0
M  V30 1819 H 170.202 3.86102 0.431007 0
M  V30 1820 H 171.874 4.07057 -2.1703 0
M  V30 1821 H 170.117 3.79476 -2.10191 0
M  V30 1822 H 170.788 5.31284 -1.49804 0
M  V30 1823 H 173.264 4.16074 0.0464781 0
M  V30 1824 H 172.14 5.4657 0.505206 0
M  V30 1825 H 172.401 4.11995 1.60352 0
M  V30 1826 N 171.46 0.379036 1.52974 0
M  V30 1827 C 172.876 0.0285448 1.59574 0
M  V30 1828 C 173.076 -1.45542 1.39355 0
M  V30 1829 O 172.132 -2.2187 1.20541 0
M  V30 1830 C 173.445 0.496535 2.96572 0
M  V30 1831 C 174.993 0.451909 3.0972 0
M  V30 1832 C 175.468 0.895924 4.49152 0
M  V30 1833 N 176.959 0.851522 4.55306 0
M  V30 1834 C 177.694 1.16661 5.61407 0
M  V30 1835 N 177.19 1.55166 6.752 0
M  V30 1836 N 178.983 1.08853 5.51459 0
M  V30 1837 H 171.134 1.34525 1.64367 0
M  V30 1838 H 173.397 0.550733 0.771619 0
M  V30 1839 H 173.103 1.53258 3.16552 0
M  V30 1840 H 172.977 -0.109802 3.7704 0
M  V30 1841 H 175.364 -0.575029 2.89443 0
M  V30 1842 H 175.445 1.09392 2.3123 0
M  V30 1843 H 175.089 1.92104 4.70168 0
M  V30 1844 H 175.019 0.23103 5.26093 0
M  V30 1845 H 177.51 0.568038 3.73606 0
M  V30 1846 H 177.823 1.776 7.52116 0
M  V30 1847 H 176.168 1.59044 6.76557 0
M  V30 1848 H 179.359 0.786803 4.6144 0
M  V30 1849 H 179.532 1.33742 6.34048 0
M  V30 1850 N 172.938 -1.57226 0.108567 0
M  V30 1851 C 173.848 -2.18292 -0.859401 0
M  V30 1852 C 174.864 -1.15612 -1.30038 0
M  V30 1853 O 176.04 -1.48039 -1.36552 0
M  V30 1854 C 173.105 -2.762 -2.09558 0
M  V30 1855 C 172.166 -3.93881 -1.70752 0
M  V30 1856 C 171.399 -4.49018 -2.88477 0
M  V30 1857 O 171.622 -4.03068 -4.036 0
M  V30 1858 O 170.556 -5.39852 -2.66164 0
M  V30 1859 H 174.382 -3.01441 -0.369769 0
M  V30 1860 H 171.967 -1.48945 -0.1165 0
M  V30 1861 H 173.849 -3.13156 -2.81978 0
M  V30 1862 H 172.524 -1.96089 -2.57548 0
M  V30 1863 H 171.431 -3.61713 -0.954714 0
M  V30 1864 H 172.764 -4.75396 -1.27513 0
M  V30 1865 N 174.416 0.165178 -1.56732 0
M  V30 1866 C 175.379 1.18822 -1.95995 0
M  V30 1867 C 176.379 1.3685 -0.84431 0
M  V30 1868 O 177.569 1.34152 -1.11126 0
M  V30 1869 C 174.701 2.5521 -2.26011 0
M  V30 1870 H 175.894 0.851825 -2.87548 0
M  V30 1871 H 173.447 0.407857 -1.50885 0
M  V30 1872 H 174.182 2.93852 -1.37191 0
M  V30 1873 H 173.967 2.43489 -3.07336 0
M  V30 1874 H 175.457 3.28927 -2.57288 0
M  V30 1875 N 175.894 1.51508 0.433938 0
M  V30 1876 C 177.31 1.39759 0.770682 0
M  V30 1877 C 177.51 0.482594 1.95636 0
M  V30 1878 O 176.566 -0.0609691 2.52426 0
M  V30 1879 C 177.879 2.81851 1.04787 0
M  V30 1880 C 179.427 2.91025 1.1521 0
M  V30 1881 C 179.902 4.34032 1.46219 0
M  V30 1882 N 181.393 4.37154 1.53136 0
M  V30 1883 C 182.128 5.4484 1.78709 0
M  V30 1884 N 181.624 6.62682 2.02051 0
M  V30 1885 N 183.417 5.32324 1.80519 0
M  V30 1886 H 175.568 2.09548 -0.346892 0
M  V30 1887 H 177.831 0.943446 -0.0928074 0
M  V30 1888 H 177.537 3.50815 0.249304 0
M  V30 1889 H 177.411 3.21386 1.97461 0
M  V30 1890 H 179.798 2.22257 1.94128 0
M  V30 1891 H 179.879 2.54983 0.204281 0
M  V30 1892 H 179.523 5.03351 0.678274 0
M  V30 1893 H 179.453 4.6759 2.42212 0
M  V30 1894 H 181.944 3.52197 1.36987 0
M  V30 1895 H 182.257 7.40543 2.20943 0
M  V30 1896 H 180.602 6.65791 1.99366 0
M  V30 1897 H 183.793 4.39246 1.61805 0
M  V30 1898 H 183.966 6.16328 2.00111 0
M  V30 1899 N 177.372 -0.689602 1.41712 0
M  V30 1900 C 178.282 -1.83314 1.46401 0
M  V30 1901 C 179.298 -1.7036 0.35405 0
M  V30 1902 O 180.474 -1.92171 0.602692 0
M  V30 1903 C 177.539 -3.19344 1.34982 0
M  V30 1904 C 176.6 -3.44363 2.56344 0
M  V30 1905 C 175.833 -4.73904 2.45461 0
M  V30 1906 O 176.056 -5.508 1.48241 0
M  V30 1907 O 174.99 -4.99839 3.35328 0
M  V30 1908 H 178.816 -1.82314 2.42889 0
M  V30 1909 H 176.401 -0.843438 1.23315 0
M  V30 1910 H 178.283 -4.00547 1.3092 0
M  V30 1911 H 176.958 -3.21014 0.41612 0
M  V30 1912 H 175.865 -2.63067 2.65982 0
M  V30 1913 H 177.198 -3.47512 3.48563 0
M  V30 1914 N 178.85 -1.27639 -0.924453 0
M  V30 1915 C 180.127 -1.04887 -1.651 0
M  V30 1916 C 180.507 0.415327 -2.06974 0
M  V30 1917 O 179.855 1.39923 -1.80648 0
M  V30 1918 C 180.065 -2.01348 -2.85061 0
M  V30 1919 C 181.413 -2.30899 -3.56329 0
M  V30 1920 O 182.437 -1.99348 -2.95193 0
M  V30 1921 O 181.296 -2.84699 -4.66485 0
M  V30 1922 H 178.39 -0.400083 -0.723784 0
M  V30 1923 H 180.936 -1.38916 -0.974703 0
M  V30 1924 H 179.708 -3.0008 -2.51133 0
M  V30 1925 H 179.331 -1.679 -3.6041 0
M  V30 1926 N 180.328 1.1314 -1.09713 0
M  V30 1927 C 181.258 2.20748 -0.761102 0
M  V30 1928 C 182.239 1.68061 0.262566 0
M  V30 1929 O 183.424 1.93765 0.129977 0
M  V30 1930 C 180.554 3.46812 -0.184054 0
M  V30 1931 C 179.508 4.12606 -1.13757 0
M  V30 1932 C 178.834 5.33031 -0.422083 0
M  V30 1933 C 180.134 4.59603 -2.48118 0
M  V30 1934 H 181.828 2.49113 -1.66082 0
M  V30 1935 H 179.374 1.19734 -0.799987 0
M  V30 1936 H 181.327 4.21353 0.0631215 0
M  V30 1937 H 180.051 3.17851 0.750868 0
M  V30 1938 H 178.71 3.40036 -1.37007 0
M  V30 1939 H 178.358 5.00335 0.517072 0
M  V30 1940 H 178.058 5.77999 -1.05788 0
M  V30 1941 H 179.582 6.10325 -0.183277 0
M  V30 1942 H 180.996 5.25552 -2.29059 0
M  V30 1943 H 179.393 5.15321 -3.07514 0
M  V30 1944 H 180.463 3.73971 -3.08665 0
M  V30 1945 N 181.806 0.884767 1.30421 0
M  V30 1946 C 182.716 0.355398 2.31892 0
M  V30 1947 C 183.732 -0.542261 1.65335 0
M  V30 1948 O 184.908 -0.435432 1.96637 0
M  V30 1949 C 181.973 -0.421661 3.44126 0
M  V30 1950 C 181.034 0.505727 4.26311 0
M  V30 1951 C 180.267 -0.234343 5.33185 0
M  V30 1952 O 180.49 -1.46045 5.51386 0
M  V30 1953 O 179.424 0.415443 6.00465 0
M  V30 1954 H 183.25 1.19685 2.79122 0
M  V30 1955 H 180.835 0.648596 1.34587 0
M  V30 1956 H 182.717 -0.861641 4.12497 0
M  V30 1957 H 181.392 -1.23942 2.99032 0
M  V30 1958 H 180.299 0.994513 3.60639 0
M  V30 1959 H 181.632 1.28948 4.75009 0
M  V30 1960 N 183.284 -1.43765 0.645699 0
M  V30 1961 C 184.53 -2.02197 0.156271 0
M  V30 1962 C 184.863 -1.50776 -1.22393 0
M  V30 1963 O 184.138 -0.697771 -1.81553 0
M  V30 1964 C 184.421 -3.59749 0.158872 0
M  V30 1965 C 184.274 -4.21419 1.57245 0
M  V30 1966 C 185.593 -4.37149 -0.50879 0
M  V30 1967 H 182.712 -0.734694 0.0582602 0
M  V30 1968 H 185.354 -1.71157 0.824951 0
M  V30 1969 H 183.504 -3.86325 -0.410525 0
M  V30 1970 H 185.176 -4.059 2.19186 0
M  V30 1971 H 183.419 -3.78356 2.122 0
M  V30 1972 H 184.09 -5.30482 1.52619 0
M  V30 1973 H 186.566 -4.16093 -0.024412 0
M  V30 1974 H 185.442 -5.4683 -0.476213 0
M  V30 1975 H 185.703 -4.12839 -1.58165 0
M  V30 1976 N 184.763 -0.387143 -1.52771 0
M  V30 1977 C 185.713 0.465942 -2.23188 0
M  V30 1978 C 186.697 1.03138 -1.23496 0
M  V30 1979 O 187.889 0.957845 -1.48843 0
M  V30 1980 C 185.018 1.59384 -3.04059 0
M  V30 1981 C 184.104 1.04024 -4.11144 0
M  V30 1982 N 184.495 0.211416 -5.05358 0
M  V30 1983 C 182.793 1.31295 -4.26237 0
M  V30 1984 C 183.494 -0.0941698 -5.81624 0
M  V30 1985 N 182.47 0.509207 -5.4121 0
M  V30 1986 H 186.272 -0.173856 -2.93385 0
M  V30 1987 H 183.786 -0.19633 -1.61209 0
M  V30 1988 H 185.783 2.21738 -3.53041 0
M  V30 1989 H 184.443 2.23648 -2.35397 0
M  V30 1990 H 185.454 -0.151151 -5.17679 0
M  V30 1991 H 182.131 1.95679 -3.68803 0
M  V30 1992 H 183.521 -0.765572 -6.67524 0
M  V30 1993 N 186.241 1.57166 -0.116904 0
M  V30 1994 C 187.173 2.12271 0.864507 0
M  V30 1995 C 188.186 1.06494 1.23138 0
M  V30 1996 O 189.375 1.33873 1.18069 0
M  V30 1997 C 186.475 2.60564 2.16702 0
M  V30 1998 C 185.648 3.90416 1.97216 0
M  V30 1999 C 184.707 4.24329 3.11178 0
M  V30 2000 O 183.733 4.93182 2.84184 0
M  V30 2001 N 184.935 3.8148 4.37554 0
M  V30 2002 H 187.7 2.97102 0.393726 0
M  V30 2003 H 185.261 1.61759 0.0675805 0
M  V30 2004 H 187.253 2.80282 2.91932 0
M  V30 2005 H 185.823 1.80623 2.55135 0
M  V30 2006 H 185.043 3.79627 1.06192 0
M  V30 2007 H 186.331 4.75327 1.81499 0
M  V30 2008 H 185.729 3.25943 4.62361 0
M  V30 2009 H 184.286 4.06311 5.09661 0
M  V30 2010 N 187.719 -0.156864 1.56817 0
M  V30 2011 C 188.682 -1.17781 1.96622 0
M  V30 2012 C 189.682 -1.36401 0.851555 0
M  V30 2013 O 190.872 -1.33561 1.11836 0
M  V30 2014 C 188.004 -2.54008 2.27361 0
M  V30 2015 H 189.197 -0.836564 2.87996 0
M  V30 2016 H 186.75 -0.39985 1.51099 0
M  V30 2017 H 187.485 -2.9312 1.38748 0
M  V30 2018 H 187.27 -2.41856 3.08623 0
M  V30 2019 H 188.76 -3.27558 2.59029 0
M  V30 2020 N 189.197 -1.51736 -0.425897 0
M  V30 2021 C 190.144 -1.73875 -1.51776 0
M  V30 2022 C 191.114 -0.580702 -1.55618 0
M  V30 2023 O 192.299 -0.81641 -1.72451 0
M  V30 2024 C 189.439 -1.88012 -2.89388 0
M  V30 2025 C 188.552 -3.15606 -2.94986 0
M  V30 2026 C 187.687 -3.20271 -4.23793 0
M  V30 2027 C 186.726 -4.42134 -4.23302 0
M  V30 2028 N 185.863 -4.44284 -5.43651 0
M  V30 2029 H 190.703 -2.67071 -1.32201 0
M  V30 2030 H 188.24 -1.32351 -0.642008 0
M  V30 2031 H 190.198 -1.9419 -3.69251 0
M  V30 2032 H 188.828 -0.98213 -3.07496 0
M  V30 2033 H 187.88 -3.18681 -2.07717 0
M  V30 2034 H 189.192 -4.05486 -2.90486 0
M  V30 2035 H 188.346 -3.25428 -5.12036 0
M  V30 2036 H 187.085 -2.28299 -4.30965 0
M  V30 2037 H 186.09 -4.3714 -3.3345 0
M  V30 2038 H 187.315 -5.35382 -4.17783 0
M  V30 2039 H 185.261 -3.55188 -5.51523 0
M  V30 2040 H 185.178 -5.27988 -5.41078 0
M  V30 2041 H 186.446 -4.53649 -6.33895 0
M  V30 2042 N 190.675 0.682077 -1.42076 0
M  V30 2043 C 191.605 1.80796 -1.47767 0
M  V30 2044 C 192.586 1.6677 -0.334954 0
M  V30 2045 O 193.771 1.863 -0.548264 0
M  V30 2046 C 190.901 3.19038 -1.37229 0
M  V30 2047 C 189.855 3.47789 -2.49453 0
M  V30 2048 C 189.181 4.8553 -2.23975 0
M  V30 2049 C 190.481 3.45411 -3.91776 0
M  V30 2050 H 192.175 1.7629 -2.41997 0
M  V30 2051 H 189.721 0.846721 -1.16476 0
M  V30 2052 H 191.674 3.97528 -1.39821 0
M  V30 2053 H 190.398 3.24204 -0.394907 0
M  V30 2054 H 189.057 2.71657 -2.46166 0
M  V30 2055 H 188.705 4.87337 -1.24547 0
M  V30 2056 H 188.405 5.0573 -2.99184 0
M  V30 2057 H 189.929 5.66312 -2.28304 0
M  V30 2058 H 191.343 4.13882 -3.96705 0
M  V30 2059 H 189.74 3.77145 -4.66778 0
M  V30 2060 H 190.81 2.44122 -4.18966 0
M  V30 2061 N 192.153 1.28127 0.917671 0
M  V30 2062 C 193.1 1.11717 2.0196 0
M  V30 2063 C 194.07 0.0153929 1.66093 0
M  V30 2064 O 195.255 0.179596 1.89953 0
M  V30 2065 C 192.395 0.780927 3.36148 0
M  V30 2066 C 191.508 1.96135 3.84909 0
M  V30 2067 C 190.643 1.56609 5.0759 0
M  V30 2068 C 189.682 2.71339 5.48673 0
M  V30 2069 N 188.819 2.32332 6.62545 0
M  V30 2070 H 193.659 2.06003 2.15329 0
M  V30 2071 H 191.196 1.02535 1.05475 0
M  V30 2072 H 193.154 0.56675 4.13333 0
M  V30 2073 H 191.784 -0.124998 3.22558 0
M  V30 2074 H 190.836 2.28777 3.03916 0
M  V30 2075 H 192.148 2.82165 4.1132 0
M  V30 2076 H 191.302 1.31374 5.92305 0
M  V30 2077 H 190.041 0.677014 4.82978 0
M  V30 2078 H 189.046 2.97276 4.62501 0
M  V30 2079 H 190.271 3.60882 5.75274 0
M  V30 2080 H 188.217 1.45889 6.39572 0
M  V30 2081 H 188.134 3.11899 6.88662 0
M  V30 2082 H 189.402 2.10371 7.50576 0
M  V30 2083 N 193.631 -1.12557 1.10312 0
M  V30 2084 C 194.541 -2.21841 0.763142 0
M  V30 2085 C 195.557 -1.72354 -0.238801 0
M  V30 2086 O 196.733 -2.01249 -0.0778746 0
M  V30 2087 C 193.798 -3.46131 0.198632 0
M  V30 2088 C 192.859 -4.10464 1.25769 0
M  V30 2089 C 192.092 -5.28821 0.72002 0
M  V30 2090 O 192.315 -5.6859 -0.453993 0
M  V30 2091 O 191.249 -5.83437 1.47935 0
M  V30 2092 H 195.075 -2.53312 1.67532 0
M  V30 2093 H 192.66 -1.20867 0.878157 0
M  V30 2094 H 194.542 -4.2125 -0.112401 0
M  V30 2095 H 193.217 -3.16338 -0.686419 0
M  V30 2096 H 192.124 -3.3713 1.62156 0
M  V30 2097 H 193.457 -4.44408 2.11571 0
M  V30 2098 N 195.109 -0.891671 -1.2995 0
M  V30 2099 C 196.355 -0.514261 -1.96171 0
M  V30 2100 C 196.688 0.935506 -1.70182 0
M  V30 2101 O 195.963 1.66204 -1.01028 0
M  V30 2102 C 196.246 -0.797719 -3.51153 0
M  V30 2103 C 196.099 -2.2986 -3.86632 0
M  V30 2104 C 197.418 -0.278749 -4.39216 0
M  V30 2105 H 194.537 -0.188314 -0.712535 0
M  V30 2106 H 197.179 -1.11689 -1.53706 0
M  V30 2107 H 195.329 -0.284826 -3.87455 0
M  V30 2108 H 197.001 -2.88042 -3.60319 0
M  V30 2109 H 195.244 -2.76257 -3.34462 0
M  V30 2110 H 195.915 -2.44753 -4.94773 0
M  V30 2111 H 198.391 -0.717825 -4.09862 0
M  V30 2112 H 197.267 -0.506353 -5.46559 0
M  V30 2113 H 197.528 0.820266 -4.34424 0
M  V30 2114 N 196.587 1.43421 -0.653314 0
M  V30 2115 C 198.003 1.56341 -0.320886 0
M  V30 2116 C 198.203 1.63696 1.17499 0
M  V30 2117 O 197.259 1.59208 1.95982 0
M  V30 2118 C 198.572 2.82424 -1.03233 0
M  V30 2119 C 200.12 2.96168 -1.01259 0
M  V30 2120 C 200.595 4.25084 -1.70492 0
M  V30 2121 N 202.086 4.31948 -1.67257 0
M  V30 2122 C 202.821 5.30466 -2.17701 0
M  V30 2123 N 202.317 6.35261 -2.76434 0
M  V30 2124 N 204.11 5.2212 -2.082 0
M  V30 2125 H 196.261 1.3689 -1.62403 0
M  V30 2126 H 198.524 0.657455 -0.682977 0
M  V30 2127 H 198.23 2.83053 -2.08744 0
M  V30 2128 H 198.104 3.72653 -0.583948 0
M  V30 2129 H 200.491 2.9508 0.0341235 0
M  V30 2130 H 200.572 2.07229 -1.49966 0
M  V30 2131 H 200.216 4.26932 -2.7512 0
M  V30 2132 H 200.146 5.1292 -1.19251 0
M  V30 2133 H 202.637 3.56838 -1.24398 0
M  V30 2134 H 202.95 7.06754 -3.12601 0
M  V30 2135 H 201.295 6.35884 -2.80495 0
M  V30 2136 H 204.486 4.39166 -1.62021 0
M  V30 2137 H 204.659 5.98739 -2.47822 0
M  V30 2138 N 198.065 0.39524 1.52563 0
M  V30 2139 C 199.342 -0.242908 1.94086 0
M  V30 2140 C 199.722 -1.63841 1.33114 0
M  V30 2141 O 199.07 -2.22928 0.501529 0
M  V30 2142 C 199.28 -0.26327 3.48006 0
M  V30 2143 C 200.628 -0.489354 4.21771 0
M  V30 2144 O 201.652 -0.343226 3.54543 0
M  V30 2145 O 200.511 -0.776169 5.4096 0
M  V30 2146 H 197.605 -0.152536 0.812811 0
M  V30 2147 H 200.151 0.450178 1.6362 0
M  V30 2148 H 198.923 0.713985 3.84731 0
M  V30 2149 H 198.546 -1.00103 3.84792 0
M  V30 2150 N 199.544 -1.57102 0.125237 0
M  V30 2151 C 200.96 -1.57915 -0.231322 0
M  V30 2152 C 201.16 -1.13833 -1.66266 0
M  V30 2153 O 200.216 -0.828581 -2.38518 0
M  V30 2154 C 201.529 -3.00699 0.00766489 0
M  V30 2155 C 203.077 -3.12947 -0.0577483 0
M  V30 2156 C 203.552 -4.57742 0.153626 0
M  V30 2157 N 205.043 -4.63092 0.0998073 0
M  V30 2158 C 205.778 -5.72905 0.238174 0
M  V30 2159 N 205.274 -6.91445 0.433057 0
M  V30 2160 N 207.067 -5.6182 0.177308 0
M  V30 2161 H 199.218 -1.84055 1.06007 0
M  V30 2162 H 201.481 -0.850905 0.417929 0
M  V30 2163 H 201.187 -3.3726 0.997431 0
M  V30 2164 H 201.061 -3.70236 -0.721452 0
M  V30 2165 H 203.448 -2.7624 -1.03804 0
M  V30 2166 H 203.529 -2.4594 0.70335 0
M  V30 2167 H 203.173 -4.95149 1.13092 0
M  V30 2168 H 203.103 -5.22848 -0.627534 0
M  V30 2169 H 205.594 -3.77871 -0.047051 0
M  V30 2170 H 205.907 -7.70985 0.529332 0
M  V30 2171 H 204.252 -6.93415 0.469109 0
M  V30 2172 H 207.443 -4.68093 0.0259748 0
M  V30 2173 H 207.616 -6.47357 0.288582 0
M  V30 2174 N 201.022 0.148545 -1.56898 0
M  V30 2175 C 201.952 1.18524 -2.01182 0
M  V30 2176 C 202.933 1.4489 -0.891123 0
M  V30 2177 O 204.118 1.55836 -1.15882 0
M  V30 2178 C 201.248 2.51879 -2.39112 0
M  V30 2179 C 200.202 2.40038 -3.54353 0
M  V30 2180 C 199.528 3.78089 -3.78091 0
M  V30 2181 C 200.828 1.88577 -4.87069 0
M  V30 2182 H 202.522 0.817029 -2.88036 0
M  V30 2183 H 200.068 0.391575 -1.38574 0
M  V30 2184 H 202.021 3.24627 -2.68692 0
M  V30 2185 H 200.745 2.90532 -1.49193 0
M  V30 2186 H 199.404 1.69742 -3.24936 0
M  V30 2187 H 199.052 4.14175 -2.85426 0
M  V30 2188 H 198.752 3.71028 -4.55645 0
M  V30 2189 H 200.276 4.52387 -4.10095 0
M  V30 2190 H 201.69 2.51117 -5.15377 0
M  V30 2191 H 200.087 1.9241 -5.68417 0
M  V30 2192 H 201.157 0.84136 -4.77545 0
M  V30 2193 N 202.5 1.5196 0.417844 0
M  V30 2194 C 203.777 1.56146 1.17803 0
M  V30 2195 C 204.157 0.337275 2.08388 0
M  V30 2196 O 203.505 -0.676447 2.18258 0
M  V30 2197 C 203.715 2.88566 1.96293 0
M  V30 2198 C 205.063 3.41244 2.52662 0
M  V30 2199 O 206.087 2.90247 2.06483 0
M  V30 2200 O 204.946 4.30273 3.36938 0
M  V30 2201 H 202.04 0.628598 0.537395 0
M  V30 2202 H 204.586 1.64283 0.425331 0
M  V30 2203 H 203.358 3.69116 1.2988 0
M  V30 2204 H 202.981 2.83681 2.78587 0
M  V30 2205 N 203.978 -0.674533 1.42435 0
M  V30 2206 C 205.394 -0.98769 1.25367 0
M  V30 2207 C 205.594 -2.00879 0.158044 0
M  V30 2208 O 204.65 -2.48075 -0.470633 0
M  V30 2209 C 205.963 -1.49224 2.6106 0
M  V30 2210 C 207.511 -1.61 2.68417 0
M  V30 2211 C 207.986 -2.14852 4.04478 0
M  V30 2212 N 209.477 -2.22185 4.06434 0
M  V30 2213 C 210.212 -2.64928 5.08528 0
M  V30 2214 N 209.708 -3.07121 6.21006 0
M  V30 2215 N 211.501 -2.64679 4.95885 0
M  V30 2216 H 203.652 0.00152503 2.124 0
M  V30 2217 H 205.915 -0.0618434 0.945981 0
M  V30 2218 H 205.621 -0.816453 3.42092 0
M  V30 2219 H 205.495 -2.47094 2.84999 0
M  V30 2220 H 207.882 -2.27686 1.87732 0
M  V30 2221 H 207.963 -0.616195 2.48267 0
M  V30 2222 H 207.607 -1.48775 4.85622 0
M  V30 2223 H 207.537 -3.15024 4.2198 0
M  V30 2224 H 210.028 -1.92435 3.25234 0
M  V30 2225 H 210.341 -3.38423 6.94759 0
M  V30 2226 H 208.686 -3.04978 6.24511 0
M  V30 2227 H 211.877 -2.31078 4.07088 0
M  V30 2228 H 212.05 -2.9767 5.75584 0
M  V30 2229 N 205.456 -1.28612 -0.910864 0
M  V30 2230 C 206.702 -1.16106 -1.66274 0
M  V30 2231 C 207.035 0.289113 -1.92036 0
M  V30 2232 O 206.31 1.21 -1.52281 0
M  V30 2233 C 206.593 -1.96309 -3.01885 0
M  V30 2234 C 206.446 -3.49405 -2.8326 0
M  V30 2235 C 207.765 -1.78076 -4.02463 0
M  V30 2236 H 204.884 -0.423152 -0.603417 0
M  V30 2237 H 207.526 -1.57961 -1.05586 0
M  V30 2238 H 205.676 -1.60742 -3.53687 0
M  V30 2239 H 207.348 -3.94894 -2.38446 0
M  V30 2240 H 205.591 -3.74893 -2.18261 0
M  V30 2241 H 206.262 -4.00784 -3.79574 0
M  V30 2242 H 208.738 -2.0912 -3.59733 0
M  V30 2243 H 207.614 -2.36561 -4.95308 0
M  V30 2244 H 207.875 -0.733008 -4.35981 0
M  V30 2245 N 206.934 1.1197 -1.10907 0
M  V30 2246 C 208.159 1.87942 -0.877064 0
M  V30 2247 C 208.584 1.79341 0.567314 0
M  V30 2248 O 207.942 1.15184 1.40009 0
M  V30 2249 C 207.99 3.34926 -1.33629 0
M  V30 2250 O 207.094 4.09303 -0.504447 0
M  V30 2251 H 206.435 0.583785 -0.316371 0
M  V30 2252 H 208.965 1.4157 -1.47712 0
M  V30 2253 H 208.975 3.8577 -1.32837 0
M  V30 2254 H 207.65 3.40504 -2.3881 0
M  V30 2255 H 206.227 3.68393 -0.577993 0
M  V30 2256 N 208.412 0.89855 1.29475 0
M  V30 2257 C 209.828 0.594483 1.48115 0
M  V30 2258 C 210.028 -0.86431 1.82022 0
M  V30 2259 O 209.084 -1.64457 1.91599 0
M  V30 2260 C 210.397 1.51932 2.59494 0
M  V30 2261 C 211.945 1.5244 2.7337 0
M  V30 2262 C 212.42 2.43548 3.87877 0
M  V30 2263 N 213.911 2.41589 3.95208 0
M  V30 2264 C 214.646 3.08789 4.83153 0
M  V30 2265 N 214.142 3.85265 5.75798 0
M  V30 2266 N 215.935 2.97952 4.76635 0
M  V30 2267 H 208.086 1.84207 1.05742 0
M  V30 2268 H 210.349 0.789251 0.525154 0
M  V30 2269 H 210.055 2.55865 2.41301 0
M  V30 2270 H 209.929 1.23899 3.56271 0
M  V30 2271 H 212.316 0.492518 2.90961 0
M  V30 2272 H 212.397 1.8451 1.77172 0
M  V30 2273 H 212.041 3.46829 3.71041 0
M  V30 2274 H 211.971 2.08788 4.83441 0
M  V30 2275 H 214.462 1.86025 3.28943 0
M  V30 2276 H 214.775 4.33598 6.39697 0
M  V30 2277 H 213.12 3.89371 5.75687 0
M  V30 2278 H 216.311 2.37723 4.03244 0
M  V30 2279 H 216.484 3.50599 5.44962 0
M  V30 2280 N 209.89 -1.43072 0.660911 0
M  V30 2281 C 210.8 -2.34585 -0.0264163 0
M  V30 2282 C 211.816 -1.54316 -0.803898 0
M  V30 2283 O 212.992 -1.86939 -0.749391 0
M  V30 2284 C 210.057 -3.32689 -0.975639 0
M  V30 2285 C 209.118 -4.2886 -0.194236 0
M  V30 2286 C 208.351 -5.22278 -1.09825 0
M  V30 2287 O 208.574 -5.20299 -2.33763 0
M  V30 2288 O 207.508 -5.99228 -0.566513 0
M  V30 2289 H 211.334 -2.94869 0.727034 0
M  V30 2290 H 208.919 -1.43342 0.42111 0
M  V30 2291 H 210.801 -3.92995 -1.52094 0
M  V30 2292 H 209.476 -2.74898 -1.70918 0
M  V30 2293 H 208.383 -3.72011 0.394835 0
M  V30 2294 H 209.716 -4.89655 0.499899 0
M  V30 2295 N 211.368 -0.403325 -1.52352 0
M  V30 2296 C 212.645 0.232611 -1.94212 0
M  V30 2297 C 213.025 1.63133 -1.33981 0
M  V30 2298 O 212.373 2.22659 -0.513344 0
M  V30 2299 C 212.583 0.244811 -3.4814 0
M  V30 2300 C 213.931 0.46698 -4.22024 0
M  V30 2301 O 214.955 0.324419 -3.5472 0
M  V30 2302 O 213.814 0.74747 -5.41364 0
M  V30 2303 H 210.908 0.148223 -0.813609 0
M  V30 2304 H 213.454 -0.458848 -1.63379 0
M  V30 2305 H 212.226 -0.734378 -3.84347 0
M  V30 2306 H 211.849 0.980611 -3.85318 0
M  V30 2307 N 212.846 1.57033 -0.133567 0
M  V30 2308 C 214.071 2.00475 0.531477 0
M  V30 2309 C 214.496 1.01291 1.58499 0
M  V30 2310 O 213.854 -0.0133279 1.81295 0
M  V30 2311 C 213.902 3.42729 1.12113 0
M  V30 2312 O 213.006 3.46498 2.23636 0
M  V30 2313 H 212.347 0.650876 0.131362 0
M  V30 2314 H 214.877 2.03344 -0.22634 0
M  V30 2315 H 214.887 3.81246 1.4531 0
M  V30 2316 H 213.562 4.14428 0.349557 0
M  V30 2317 H 212.139 3.19811 1.91769 0
M  V30 2318 N 214.325 -0.140222 1.56975 0
M  V30 2319 C 215.257 -1.19818 1.95388 0
M  V30 2320 C 216.27 -1.38816 0.850525 0
M  V30 2321 O 217.459 -1.38267 1.12891 0
M  V30 2322 C 214.559 -2.56189 2.21857 0
M  V30 2323 C 213.732 -2.58077 3.5315 0
M  V30 2324 C 212.791 -3.76037 3.6808 0
M  V30 2325 O 211.817 -3.60598 4.40406 0
M  V30 2326 N 213.019 -4.93763 3.05251 0
M  V30 2327 H 215.784 -0.871609 2.86746 0
M  V30 2328 H 213.345 -0.32972 1.58507 0
M  V30 2329 H 215.337 -3.33623 2.2908 0
M  V30 2330 H 213.907 -2.81111 1.36731 0
M  V30 2331 H 213.127 -1.6651 3.57307 0
M  V30 2332 H 214.415 -2.56377 4.39486 0
M  V30 2333 H 213.813 -5.09209 2.46419 0
M  V30 2334 H 212.37 -5.68949 3.18026 0
M  V30 2335 N 215.803 -1.52179 -0.40978 0
M  V30 2336 C 217.033 -1.69807 -1.17682 0
M  V30 2337 C 217.441 -0.406908 -1.84773 0
M  V30 2338 O 216.784 0.626863 -1.72673 0
M  V30 2339 C 216.846 -2.77712 -2.2829 0
M  V30 2340 C 216.51 -4.19481 -1.81341 0
M  V30 2341 C 217.507 -5.03345 -1.30154 0
M  V30 2342 C 215.192 -4.65713 -1.88194 0
M  V30 2343 C 217.186 -6.31511 -0.864416 0
M  V30 2344 C 214.873 -5.93869 -1.44093 0
M  V30 2345 C 215.871 -6.76597 -0.933023 0
M  V30 2346 O 215.559 -8.02354 -0.49838 0
M  V30 2347 H 215.291 -0.572372 -0.359675 0
M  V30 2348 H 217.845 -1.99511 -0.488311 0
M  V30 2349 H 216.075 -2.43383 -3.00502 0
M  V30 2350 H 217.764 -2.83946 -2.90051 0
M  V30 2351 H 218.53 -4.68819 -1.24232 0
M  V30 2352 H 214.409 -4.01424 -2.26671 0
M  V30 2353 H 217.953 -6.96033 -0.467286 0
M  V30 2354 H 213.85 -6.27903 -1.49694 0
M  V30 2355 H 214.618 -8.16135 -0.621747 0
M  V30 2356 N 217.281 0.66697 -1.42791 0
M  V30 2357 C 218.211 1.79218 -1.49677 0
M  V30 2358 C 219.192 1.66405 -0.352623 0
M  V30 2359 O 220.377 1.85708 -0.567993 0
M  V30 2360 C 217.507 3.17565 -1.40605 0
M  V30 2361 C 216.461 3.45124 -2.53127 0
M  V30 2362 C 215.787 4.83127 -2.29112 0
M  V30 2363 C 217.087 3.41236 -3.95418 0
M  V30 2364 H 218.781 1.73713 -2.43853 0
M  V30 2365 H 216.327 0.83432 -1.17367 0
M  V30 2366 H 218.28 3.96022 -1.44029 0
M  V30 2367 H 217.004 3.23767 -0.429271 0
M  V30 2368 H 215.663 2.69031 -2.49034 0
M  V30 2369 H 215.311 4.85988 -1.29709 0
M  V30 2370 H 215.011 5.02528 -3.04531 0
M  V30 2371 H 216.535 5.63859 -2.34297 0
M  V30 2372 H 217.949 4.09651 -4.01073 0
M  V30 2373 H 216.346 3.72173 -4.70752 0
M  V30 2374 H 217.416 2.39665 -4.21532 0
M  V30 2375 N 218.759 1.29093 0.90403 0
M  V30 2376 C 219.669 1.15727 2.0407 0
M  V30 2377 C 220.685 0.0815308 1.73809 0
M  V30 2378 O 221.861 0.292749 1.99261 0
M  V30 2379 C 218.926 0.830424 3.36608 0
M  V30 2380 C 217.987 1.98955 3.80415 0
M  V30 2381 C 217.22 1.6782 5.06628 0
M  V30 2382 O 217.443 0.597105 5.67266 0
M  V30 2383 O 216.377 2.52486 5.46383 0
M  V30 2384 H 220.203 2.11171 2.18267 0
M  V30 2385 H 217.788 1.08504 1.027 0
M  V30 2386 H 219.67 0.662521 4.16159 0
M  V30 2387 H 218.345 -0.0942678 3.23563 0
M  V30 2388 H 217.252 2.21267 3.01648 0
M  V30 2389 H 218.585 2.89529 3.98037 0
M  V30 2390 N 220.237 -1.11381 1.11499 0
M  V30 2391 C 221.167 -2.19509 0.796125 0
M  V30 2392 C 222.148 -1.68458 -0.235796 0
M  V30 2393 O 223.333 -1.93947 -0.0991344 0
M  V30 2394 C 220.463 -3.46475 0.239205 0
M  V30 2395 C 219.417 -4.10744 1.20307 0
M  V30 2396 C 218.743 -5.32293 0.50683 0
M  V30 2397 C 220.043 -4.55597 2.55399 0
M  V30 2398 H 221.737 -2.46439 1.70024 0
M  V30 2399 H 219.283 -1.18446 0.818935 0
M  V30 2400 H 221.236 -4.214 0.00392006 0
M  V30 2401 H 219.96 -3.19006 -0.700206 0
M  V30 2402 H 218.619 -3.37813 1.42399 0
M  V30 2403 H 218.267 -5.01095 -0.437408 0
M  V30 2404 H 217.967 -5.76243 1.1497 0
M  V30 2405 H 219.491 -6.09956 0.280351 0
M  V30 2406 H 220.905 -5.21841 2.37391 0
M  V30 2407 H 219.302 -5.10363 3.15673 0
M  V30 2408 H 220.372 -3.69013 3.14575 0
M  V30 2409 N 221.715 -0.905404 -1.28997 0
M  V30 2410 C 222.678 -0.392253 -2.25819 0
M  V30 2411 C 223.678 0.476753 -1.5357 0
M  V30 2412 O 224.868 0.280994 -1.71919 0
M  V30 2413 C 222 0.438588 -3.38067 0
M  V30 2414 H 223.193 -1.24743 -2.72725 0
M  V30 2415 H 220.746 -0.684051 -1.40536 0
M  V30 2416 H 221.481 1.31352 -2.96508 0
M  V30 2417 H 221.266 -0.184167 -3.91667 0
M  V30 2418 H 222.756 0.78873 -4.10084 0
M  V30 2419 N 223.193 1.4272 -0.668489 0
M  V30 2420 C 224.421 2.05966 -0.196348 0
M  V30 2421 C 224.836 1.50191 1.14403 0
M  V30 2422 O 224.193 0.639208 1.7094 0
M  V30 2423 C 224.244 3.61314 -0.115815 0
M  V30 2424 O 223.965 4.1502 -1.40322 0
M  V30 2425 C 225.466 4.41663 0.380579 0
M  V30 2426 H 222.686 0.663954 -0.0969829 0
M  V30 2427 H 225.23 1.82966 -0.913446 0
M  V30 2428 H 223.385 3.83448 0.551931 0
M  V30 2429 H 223.799 5.08832 -1.27243 0
M  V30 2430 H 225.273 5.5065 0.385848 0
M  V30 2431 H 225.75 4.15792 1.41471 0
M  V30 2432 H 226.356 4.24534 -0.255209 0
M  V30 2433 N 224.671 0.411399 1.52136 0
M  V30 2434 C 225.601 -0.404015 2.29978 0
M  V30 2435 C 226.582 -1.04412 1.34284 0
M  V30 2436 O 227.767 -1.0527 1.63192 0
M  V30 2437 C 224.897 -1.5197 3.12286 0
M  V30 2438 C 223.851 -1.00448 4.16046 0
M  V30 2439 C 223.177 -2.21393 4.86712 0
M  V30 2440 C 224.477 -0.0569336 5.22269 0
M  V30 2441 H 226.171 0.245529 2.98392 0
M  V30 2442 H 223.717 0.119525 1.43503 0
M  V30 2443 H 225.67 -2.09715 3.6551 0
M  V30 2444 H 224.394 -2.19716 2.41646 0
M  V30 2445 H 223.053 -0.449421 3.63835 0
M  V30 2446 H 222.701 -2.87699 4.12599 0
M  V30 2447 H 222.401 -1.87571 5.56858 0
M  V30 2448 H 223.925 -2.7974 5.4275 0
M  V30 2449 H 225.339 -0.54325 5.7072 0
M  V30 2450 H 223.736 0.192594 5.99791 0
M  V30 2451 H 224.806 0.887663 4.76706 0
M  V30 2452 N 226.149 -1.5696 0.141893 0
M  V30 2453 C 227.059 -2.20066 -0.812905 0
M  V30 2454 C 228.075 -1.18344 -1.27557 0
M  V30 2455 O 229.251 -1.50902 -1.33381 0
M  V30 2456 C 226.316 -2.80583 -2.03652 0
M  V30 2457 C 225.377 -3.97414 -1.62359 0
M  V30 2458 C 224.61 -4.55036 -2.78887 0
M  V30 2459 O 224.833 -4.11538 -3.94959 0
M  V30 2460 O 223.767 -5.45376 -2.54653 0
M  V30 2461 H 227.593 -3.02157 -0.305746 0
M  V30 2462 H 225.178 -1.49159 -0.0848799 0
M  V30 2463 H 227.06 -3.19067 -2.75272 0
M  V30 2464 H 225.735 -2.01508 -2.5333 0
M  V30 2465 H 224.642 -3.63656 -0.877775 0
M  V30 2466 H 225.975 -4.77994 -1.17401 0
M  V30 2467 N 227.627 0.131896 -1.57047 0
M  V30 2468 C 228.577 1.1679 -1.95816 0
M  V30 2469 C 229.561 1.37756 -0.831393 0
M  V30 2470 O 230.753 1.39065 -1.09499 0
M  V30 2471 C 227.882 2.49778 -2.35512 0
M  V30 2472 C 226.968 2.32342 -3.54793 0
M  V30 2473 N 227.359 1.8469 -4.70875 0
M  V30 2474 C 225.657 2.63043 -3.60173 0
M  V30 2475 C 226.358 1.80656 -5.52936 0
M  V30 2476 N 225.334 2.24528 -4.95064 0
M  V30 2477 H 229.136 0.791818 -2.83033 0
M  V30 2478 H 226.65 0.339791 -1.58805 0
M  V30 2479 H 228.647 3.24692 -2.61498 0
M  V30 2480 H 227.307 2.88156 -1.49654 0
M  V30 2481 H 228.318 1.54429 -4.9434 0
M  V30 2482 H 224.995 3.05193 -2.84892 0
M  V30 2483 H 226.385 1.45178 -6.56028 0
M  V30 2484 N 229.106 1.52395 0.401703 0
M  V30 2485 C 230.522 1.41363 0.740864 0
M  V30 2486 C 230.722 0.523982 1.94568 0
M  V30 2487 O 229.778 -0.00741204 2.52499 0
M  V30 2488 C 231.091 2.84011 0.987847 0
M  V30 2489 C 232.639 2.93404 1.09011 0
M  V30 2490 C 233.114 4.37036 1.3698 0
M  V30 2491 N 234.605 4.40304 1.43829 0
M  V30 2492 C 235.34 5.48508 1.67112 0
M  V30 2493 N 234.836 6.66819 1.87949 0
M  V30 2494 N 236.629 5.36034 1.69187 0
M  V30 2495 H 228.78 2.08765 -0.391262 0
M  V30 2496 H 231.043 0.941265 -0.112798 0
M  V30 2497 H 230.749 3.51265 0.174835 0
M  V30 2498 H 230.623 3.25502 1.906 0
M  V30 2499 H 233.01 2.26325 1.8937 0
M  V30 2500 H 233.091 2.55359 0.15015 0
M  V30 2501 H 232.735 5.04676 0.571353 0
M  V30 2502 H 232.665 4.72623 2.3224 0
M  V30 2503 H 235.156 3.55024 1.29486 0
M  V30 2504 H 235.469 7.45063 2.05185 0
M  V30 2505 H 233.814 6.6987 1.85199 0
M  V30 2506 H 237.005 4.42579 1.52451 0
M  V30 2507 H 237.178 6.20434 1.86993 0
M  V30 2508 N 230.584 -0.659388 1.43143 0
M  V30 2509 C 231.517 -1.78425 1.42267 0
M  V30 2510 C 232.495 -1.60085 0.284894 0
M  V30 2511 O 233.679 -1.82351 0.477527 0
M  V30 2512 C 230.806 -3.15642 1.22833 0
M  V30 2513 C 229.852 -3.52698 2.39806 0
M  V30 2514 S 230.685 -3.53372 4.02353 0
M  V30 2515 C 231.841 -4.93256 3.85291 0
M  V30 2516 H 232.074 -1.78897 2.37452 0
M  V30 2517 H 229.607 -0.831469 1.301 0
M  V30 2518 H 231.565 -3.94838 1.12308 0
M  V30 2519 H 230.226 -3.12739 0.29207 0
M  V30 2520 H 229.419 -4.52475 2.21996 0
M  V30 2521 H 229.021 -2.80899 2.46925 0
M  V30 2522 H 231.313 -5.81751 3.47235 0
M  V30 2523 H 232.256 -5.16115 4.84799 0
M  V30 2524 H 232.664 -4.665 3.17865 0
M  V30 2525 N 232.062 -1.29571 -0.897171 0
M  V30 2526 C 232.992 -1.17473 -2.01798 0
M  V30 2527 C 233.973 -0.068323 -1.69963 0
M  V30 2528 O 235.158 -0.248239 -1.92607 0
M  V30 2529 C 232.288 -0.853099 -3.36659 0
M  V30 2530 C 231.242 -1.9161 -3.82713 0
M  V30 2531 C 230.568 -1.44773 -5.14728 0
M  V30 2532 C 231.868 -3.32535 -4.02763 0
M  V30 2533 H 233.562 -2.11237 -2.12177 0
M  V30 2534 H 231.108 -1.01699 -1.01948 0
M  V30 2535 H 233.061 -0.755165 -4.14578 0
M  V30 2536 H 231.785 0.120236 -3.26379 0
M  V30 2537 H 230.444 -2.00346 -3.07013 0
M  V30 2538 H 230.092 -0.462995 -5.00865 0
M  V30 2539 H 229.792 -2.15865 -5.46513 0
M  V30 2540 H 231.316 -1.36334 -5.95185 0
M  V30 2541 H 232.73 -3.26626 -4.71156 0
M  V30 2542 H 231.127 -4.01607 -4.45905 0
M  V30 2543 H 232.197 -3.75326 -3.07016 0
M  V30 2544 N 233.54 1.10788 -1.12088 0
M  V30 2545 C 234.472 2.16816 -0.743213 0
M  V30 2546 C 235.485 1.6119 0.228412 0
M  V30 2547 O 236.674 1.78497 0.0102931 0
M  V30 2548 C 233.774 3.38809 -0.0787313 0
M  V30 2549 C 232.947 4.23885 -1.0789 0
M  V30 2550 C 232.006 5.24334 -0.442713 0
M  V30 2551 O 231.032 5.58497 -1.09864 0
M  V30 2552 N 232.234 5.75079 0.791457 0
M  V30 2553 H 234.999 2.49825 -1.65552 0
M  V30 2554 H 232.56 1.26373 -1.012 0
M  V30 2555 H 234.552 4.03107 0.358766 0
M  V30 2556 H 233.122 3.03805 0.736275 0
M  V30 2557 H 232.342 3.55939 -1.69414 0
M  V30 2558 H 233.63 4.77562 -1.75533 0
M  V30 2559 H 233.028 5.49517 1.3434 0
M  V30 2560 H 231.585 6.4118 1.17183 0
M  V30 2561 N 235.018 0.912232 1.28515 0
M  V30 2562 C 235.928 0.404506 2.31086 0
M  V30 2563 C 236.944 -0.50707 1.66448 0
M  V30 2564 O 238.12 -0.393624 1.97516 0
M  V30 2565 C 235.185 -0.348572 3.44943 0
M  V30 2566 C 234.246 0.59604 4.25142 0
M  V30 2567 C 233.479 -0.121194 5.33562 0
M  V30 2568 O 233.702 -1.34317 5.5436 0
M  V30 2569 O 232.636 0.542716 5.99448 0
M  V30 2570 H 236.462 1.25579 2.76521 0
M  V30 2571 H 234.047 0.676998 1.33181 0
M  V30 2572 H 235.929 -0.77395 4.14232 0
M  V30 2573 H 234.604 -1.17571 3.01594 0
M  V30 2574 H 233.511 1.07079 3.58448 0
M  V30 2575 H 234.844 1.38995 4.72167 0
M  V30 2576 N 236.496 -1.42363 0.676048 0
M  V30 2577 C 237.406 -2.346 -0.00153389 0
M  V30 2578 C 238.422 -1.5516 -0.787485 0
M  V30 2579 O 239.598 -1.87723 -0.729521 0
M  V30 2580 C 236.663 -3.33705 -0.940298 0
M  V30 2581 C 235.724 -4.29042 -0.148739 0
M  V30 2582 C 234.957 -5.23413 -1.04279 0
M  V30 2583 O 235.18 -5.22749 -2.28232 0
M  V30 2584 O 234.114 -5.99795 -0.502925 0
M  V30 2585 H 237.94 -2.94082 0.758268 0
M  V30 2586 H 235.525 -1.42888 0.436289 0
M  V30 2587 H 237.407 -3.94586 -1.47917 0
M  V30 2588 H 236.082 -2.76695 -1.67993 0
M  V30 2589 H 234.989 -3.71571 0.43427 0
M  V30 2590 H 236.322 -4.89097 0.551805 0
M  V30 2591 N 237.974 -0.419461 -1.51915 0
M  V30 2592 C 238.921 0.400927 -2.27291 0
M  V30 2593 C 239.891 1.03224 -1.30131 0
M  V30 2594 O 241.076 1.05455 -1.59009 0
M  V30 2595 C 238.216 1.50603 -3.10504 0
M  V30 2596 C 237.329 0.89462 -4.22635 0
M  V30 2597 C 236.464 1.97328 -4.93189 0
M  V30 2598 C 235.503 1.33935 -5.97267 0
M  V30 2599 N 234.64 2.3586 -6.61298 0
M  V30 2600 H 239.48 -0.248251 -2.96964 0
M  V30 2601 H 237.017 -0.134266 -1.46486 0
M  V30 2602 H 238.975 2.15783 -3.57062 0
M  V30 2603 H 237.605 2.12509 -2.42981 0
M  V30 2604 H 236.657 0.131583 -3.80172 0
M  V30 2605 H 237.969 0.391641 -4.9726 0
M  V30 2606 H 237.123 2.70211 -5.43204 0
M  V30 2607 H 235.862 2.50994 -4.18155 0
M  V30 2608 H 234.867 0.595896 -5.46561 0
M  V30 2609 H 236.092 0.810252 -6.74249 0
M  V30 2610 H 234.038 2.88639 -5.89087 0
M  V30 2611 H 233.955 1.90403 -7.3163 0
M  V30 2612 H 235.223 3.08282 -7.15949 0
M  V30 2613 N 239.452 1.56882 -0.150215 0
M  V30 2614 C 240.868 1.58263 0.20617 0
M  V30 2615 C 241.068 1.16464 1.64434 0
M  V30 2616 O 240.124 0.866422 2.3717 0
M  V30 2617 C 241.437 3.00649 -0.0555025 0
M  V30 2618 C 242.985 3.12999 0.00795388 0
M  V30 2619 C 243.46 4.5744 -0.226429 0
M  V30 2620 N 244.951 4.62875 -0.173469 0
M  V30 2621 C 245.686 5.72454 -0.329288 0
M  V30 2622 N 245.182 6.90669 -0.543005 0
M  V30 2623 N 246.975 5.61467 -0.266666 0
M  V30 2624 H 239.126 1.82345 -1.08922 0
M  V30 2625 H 241.389 0.844149 -0.431413 0
M  V30 2626 H 241.095 3.3563 -1.05096 0
M  V30 2627 H 240.969 3.71337 0.66246 0
M  V30 2628 H 243.356 2.77857 0.993966 0
M  V30 2629 H 243.437 2.4479 -0.742388 0
M  V30 2630 H 243.081 4.93287 -1.20956 0
M  V30 2631 H 243.011 5.2378 0.544274 0
M  V30 2632 H 245.502 3.77898 -0.0130709 0
M  V30 2633 H 245.815 7.70045 -0.651922 0
M  V30 2634 H 244.16 6.92581 -0.579366 0
M  V30 2635 H 247.351 4.67992 -0.100441 0
M  V30 2636 H 247.524 6.46816 -0.391535 0
M  V30 2637 N 240.93 -0.123565 1.57115 0
M  V30 2638 C 241.86 -1.15309 2.03042 0
M  V30 2639 C 242.841 -1.43454 0.914061 0
M  V30 2640 O 244.026 -1.53973 1.18347 0
M  V30 2641 C 241.156 -2.48043 2.43089 0
M  V30 2642 C 240.11 -2.3437 3.58127 0
M  V30 2643 C 239.436 -3.72026 3.84059 0
M  V30 2644 C 240.736 -1.80804 4.90007 0
M  V30 2645 H 242.43 -0.771102 2.893 0
M  V30 2646 H 239.976 -0.369479 1.39179 0
M  V30 2647 H 241.929 -3.20311 2.73823 0
M  V30 2648 H 240.653 -2.88122 1.53796 0
M  V30 2649 H 239.312 -1.64551 3.27595 0
M  V30 2650 H 238.96 -4.09582 2.91979 0
M  V30 2651 H 238.66 -3.63732 4.6149 0
M  V30 2652 H 240.184 -4.45806 4.1724 0
M  V30 2653 H 241.598 -2.42886 5.19307 0
M  V30 2654 H 239.995 -1.83343 5.71407 0
M  V30 2655 H 241.065 -0.76528 4.78823 0
M  V30 2656 N 242.408 -1.52605 -0.393616 0
M  V30 2657 C 243.824 -1.41753 -0.733357 0
M  V30 2658 C 244.024 -0.534293 -1.94287 0
M  V30 2659 O 243.08 -0.0059787 -2.52499 0
M  V30 2660 C 244.393 -2.84531 -0.972772 0
M  V30 2661 C 245.941 -2.93978 -1.07453 0
M  V30 2662 C 246.416 -4.37756 -1.3466 0
M  V30 2663 N 247.907 -4.4106 -1.41492 0
M  V30 2664 C 248.642 -5.49387 -1.642 0
M  V30 2665 N 248.138 -6.67806 -1.8441 0
M  V30 2666 N 249.931 -5.36923 -1.66342 0
M  V30 2667 H 242.082 -2.08555 0.402328 0
M  V30 2668 H 244.345 -0.940654 0.117789 0
M  V30 2669 H 244.051 -3.51353 -0.156204 0
M  V30 2670 H 243.925 -3.26508 -1.88871 0
M  V30 2671 H 246.312 -2.27326 -1.88167 0
M  V30 2672 H 246.393 -2.55435 -0.136605 0
M  V30 2673 H 246.037 -5.04972 -0.544581 0
M  V30 2674 H 245.967 -4.73848 -2.2973 0
M  V30 2675 H 248.458 -3.55705 -1.27601 0
M  V30 2676 H 248.771 -7.46141 -2.01231 0
M  V30 2677 H 247.116 -6.70843 -1.81644 0
M  V30 2678 H 250.307 -4.43381 -1.50102 0
M  V30 2679 H 250.48 -6.21416 -1.837 0
M  V30 2680 N 243.887 0.651787 -1.4349 0
M  V30 2681 C 245.115 1.43937 -1.48626 0
M  V30 2682 C 245.53 1.8851 -0.104587 0
M  V30 2683 O 244.887 1.5958 0.885464 0
M  V30 2684 C 244.938 2.6734 -2.43334 0
M  V30 2685 O 244.659 2.24631 -3.76128 0
M  V30 2686 C 246.16 3.60683 -2.57726 0
M  V30 2687 H 243.38 0.44213 -0.504739 0
M  V30 2688 H 245.924 0.798944 -1.88248 0
M  V30 2689 H 244.079 3.2752 -2.06904 0
M  V30 2690 H 244.493 3.04485 -4.2707 0
M  V30 2691 H 245.967 4.43933 -3.28067 0
M  V30 2692 H 246.444 4.08126 -1.62265 0
M  V30 2693 H 247.05 3.06384 -2.94973 0
M  V30 2694 N 245.365 1.30045 0.890287 0
M  V30 2695 C 246.328 1.15963 1.977 0
M  V30 2696 C 247.328 0.0923777 1.60534 0
M  V30 2697 O 248.518 0.340071 1.70848 0
M  V30 2698 C 245.65 0.775451 3.31963 0
M  V30 2699 H 246.843 2.12502 2.11619 0
M  V30 2700 H 244.396 1.13366 1.07601 0
M  V30 2701 H 245.131 -0.189671 3.23745 0
M  V30 2702 H 244.916 1.54668 3.60306 0
M  V30 2703 H 246.406 0.700251 4.11687 0
M  V30 2704 N 246.843 -1.10192 1.12674 0
M  V30 2705 C 248.073 -1.85713 0.905213 0
M  V30 2706 C 248.481 -1.81056 -0.549108 0
M  V30 2707 O 247.824 -1.19927 -1.39151 0
M  V30 2708 C 247.886 -3.34972 1.30516 0
M  V30 2709 C 247.55 -3.63385 2.77129 0
M  V30 2710 C 248.547 -3.59772 3.75313 0
M  V30 2711 C 246.232 -3.91981 3.14096 0
M  V30 2712 C 248.226 -3.84354 5.08479 0
M  V30 2713 C 245.913 -4.16218 4.47443 0
M  V30 2714 C 246.911 -4.12395 5.44444 0
M  V30 2715 O 246.599 -4.36014 6.75387 0
M  V30 2716 H 246.331 -0.593719 0.323223 0
M  V30 2717 H 248.885 -1.40198 1.50112 0
M  V30 2718 H 247.115 -3.81156 0.652463 0
M  V30 2719 H 248.804 -3.91886 1.05736 0
M  V30 2720 H 249.57 -3.37716 3.48099 0
M  V30 2721 H 245.449 -3.94085 2.39202 0
M  V30 2722 H 248.993 -3.81285 5.84181 0
M  V30 2723 H 244.89 -4.37754 4.74386 0
M  V30 2724 H 245.658 -4.53516 6.8137 0
M  V30 2725 N 248.321 -0.919034 -1.28029 0
M  V30 2726 C 249.251 -0.428581 -2.29533 0
M  V30 2727 C 250.232 0.50659 -1.62381 0
M  V30 2728 O 251.417 0.413195 -1.89753 0
M  V30 2729 C 248.547 0.327388 -3.45753 0
M  V30 2730 C 247.501 -0.519137 -4.2484 0
M  V30 2731 C 246.827 0.365486 -5.33449 0
M  V30 2732 C 248.127 -1.77914 -4.91064 0
M  V30 2733 H 249.821 -1.27687 -2.70807 0
M  V30 2734 H 247.367 -0.615428 -1.30186 0
M  V30 2735 H 249.32 0.681378 -4.15855 0
M  V30 2736 H 248.044 1.20963 -3.03374 0
M  V30 2737 H 246.703 -0.855717 -3.56473 0
M  V30 2738 H 246.351 1.24642 -4.87312 0
M  V30 2739 H 246.051 -0.197356 -5.87268 0
M  V30 2740 H 247.575 0.715241 -6.06396 0
M  V30 2741 H 248.989 -1.49374 -5.53498 0
M  V30 2742 H 247.386 -2.2848 -5.54903 0
M  V30 2743 H 248.456 -2.50382 -4.15255 0
M  V30 2744 N 249.799 1.42003 -0.683588 0
M  V30 2745 C 251.215 1.55625 -0.353976 0
M  V30 2746 C 251.415 1.66151 1.14 0
M  V30 2747 O 250.471 1.63329 1.92561 0
M  V30 2748 C 251.784 2.80171 -1.092 0
M  V30 2749 C 253.332 2.93954 -1.07518 0
M  V30 2750 C 253.807 4.21372 -1.79471 0
M  V30 2751 N 255.298 4.28303 -1.76381 0
M  V30 2752 C 256.033 5.25729 -2.28904 0
M  V30 2753 N 255.529 6.29254 -2.89846 0
M  V30 2754 N 257.322 5.17586 -2.19228 0
M  V30 2755 H 249.473 1.33415 -1.6527 0
M  V30 2756 H 251.736 0.64282 -0.696769 0
M  V30 2757 H 251.442 2.78561 -2.14701 0
M  V30 2758 H 251.316 3.7133 -0.662862 0
M  V30 2759 H 253.703 2.95086 -0.028475 0
M  V30 2760 H 253.784 2.04002 -1.54328 0
M  V30 2761 H 253.428 4.21001 -2.84114 0
M  V30 2762 H 253.358 5.10275 -1.30104 0
M  V30 2763 H 255.849 3.54119 -1.31939 0
M  V30 2764 H 256.162 6.99964 -3.27522 0
M  V30 2765 H 254.507 6.29791 -2.93919 0
M  V30 2766 H 257.698 4.35631 -1.71299 0
M  V30 2767 H 257.871 5.93348 -2.60466 0
M  V30 2768 N 251.277 0.427512 1.51691 0
M  V30 2769 C 252.24 -0.377132 2.26076 0
M  V30 2770 C 253.24 -0.958089 1.29141 0
M  V30 2771 O 254.43 -0.83408 1.52934 0
M  V30 2772 C 251.562 -1.53262 3.04506 0
M  V30 2773 H 252.755 0.27464 2.9864 0
M  V30 2774 H 250.308 0.180445 1.55255 0
M  V30 2775 H 251.043 -2.22072 2.36335 0
M  V30 2776 H 250.828 -1.12232 3.75694 0
M  V30 2777 H 252.318 -2.10135 3.60878 0
M  V30 2778 N 252.755 -1.56801 0.158532 0
M  V30 2779 C 253.665 -2.20916 -0.789518 0
M  V30 2780 C 254.681 -1.1969 -1.26294 0
M  V30 2781 O 255.857 -1.52308 -1.31773 0
M  V30 2782 C 252.922 -2.82727 -2.00665 0
M  V30 2783 C 251.983 -3.99114 -1.58134 0
M  V30 2784 C 251.216 -4.57968 -2.74045 0
M  V30 2785 O 251.439 -4.15704 -3.90572 0
M  V30 2786 O 250.373 -5.48047 -2.48855 0
M  V30 2787 H 254.199 -3.02464 -0.273681 0
M  V30 2788 H 251.784 -1.4924 -0.0690548 0
M  V30 2789 H 253.666 -3.21968 -2.71872 0
M  V30 2790 H 252.341 -2.04184 -2.51179 0
M  V30 2791 H 251.248 -3.64567 -0.839155 0
M  V30 2792 H 252.581 -4.79212 -1.12325 0
M  V30 2793 N 254.233 0.115231 -1.57178 0
M  V30 2794 C 255.51 0.852873 -1.76027 0
M  V30 2795 C 255.89 1.97892 -0.73498 0
M  V30 2796 O 255.238 2.27232 0.24036 0
M  V30 2797 C 255.448 1.36608 -3.21153 0
M  V30 2798 C 256.796 1.81692 -3.83762 0
M  V30 2799 O 257.82 1.46278 -3.24779 0
M  V30 2800 O 256.679 2.47104 -4.87444 0
M  V30 2801 H 253.773 0.405296 -0.720877 0
M  V30 2802 H 256.319 0.0986785 -1.69413 0
M  V30 2803 H 255.091 0.558357 -3.87296 0
M  V30 2804 H 254.714 2.18287 -3.3232 0
M  V30 2805 N 255.711 1.52812 0.385517 0
M  V30 2806 C 256.936 1.72207 1.15583 0
M  V30 2807 C 257.361 0.441034 1.82857 0
M  V30 2808 O 256.719 -0.603465 1.70962 0
M  V30 2809 C 256.767 2.87476 2.17692 0
M  V30 2810 O 255.871 2.54693 3.24354 0
M  V30 2811 H 255.212 0.572526 0.336319 0
M  V30 2812 H 257.742 1.99618 0.448744 0
M  V30 2813 H 257.752 3.13072 2.6163 0
M  V30 2814 H 256.427 3.80408 1.68115 0
M  V30 2815 H 255.004 2.3985 2.85529 0
M  V30 2816 N 257.189 -0.644168 1.43834 0
M  V30 2817 C 258.099 -1.78563 1.52159 0
M  V30 2818 C 259.115 -1.69147 0.408069 0
M  V30 2819 O 260.291 -1.90156 0.663524 0
M  V30 2820 C 257.356 -3.14888 1.45073 0
M  V30 2821 C 256.417 -3.36034 2.6717 0
M  V30 2822 C 255.65 -4.65855 2.60413 0
M  V30 2823 O 255.873 -5.45805 1.65689 0
M  V30 2824 O 254.807 -4.88918 3.5106 0
M  V30 2825 H 258.633 -1.74494 2.48567 0
M  V30 2826 H 256.218 -0.80378 1.25935 0
M  V30 2827 H 258.1 -3.96179 1.43597 0
M  V30 2828 H 256.775 -3.19528 0.518037 0
M  V30 2829 H 255.682 -2.54472 2.74217 0
M  V30 2830 H 257.015 -3.36247 3.59442 0
M  V30 2831 N 258.668 -1.30515 -0.883378 0
M  V30 2832 C 260.084 -1.08881 -1.16692 0
M  V30 2833 C 260.284 0.149409 -2.00945 0
M  V30 2834 O 259.34 0.84257 -2.38027 0
M  V30 2835 C 260.653 -2.35319 -1.87204 0
M  V30 2836 C 262.201 -2.40799 -1.99962 0
M  V30 2837 C 262.676 -3.67083 -2.73887 0
M  V30 2838 N 264.167 -3.679 -2.81432 0
M  V30 2839 C 264.902 -4.62303 -3.3921 0
M  V30 2840 N 264.398 -5.67052 -3.98025 0
M  V30 2841 N 266.191 -4.49845 -3.3704 0
M  V30 2842 H 258.342 -2.09951 -0.321633 0
M  V30 2843 H 260.605 -0.92556 -0.205043 0
M  V30 2844 H 260.311 -3.25689 -1.3274 0
M  V30 2845 H 260.185 -2.44089 -2.87577 0
M  V30 2846 H 262.572 -1.50907 -2.53597 0
M  V30 2847 H 262.653 -2.36003 -0.98673 0
M  V30 2848 H 262.297 -4.57334 -2.20925 0
M  V30 2849 H 262.227 -3.69141 -3.75556 0
M  V30 2850 H 264.718 -2.92171 -2.39676 0
M  V30 2851 H 265.031 -6.35184 -4.40183 0
M  V30 2852 H 263.376 -5.70842 -3.96439 0
M  V30 2853 H 266.567 -3.67194 -2.90321 0
M  V30 2854 H 266.74 -5.23597 -3.81772 0
M  V30 2855 N 260.146 1.09593 -1.13257 0
M  V30 2856 C 261.056 2.19739 -0.821691 0
M  V30 2857 C 262.072 1.72926 0.19302 0
M  V30 2858 O 263.248 2.01385 0.0244895 0
M  V30 2859 C 260.313 3.45482 -0.290333 0
M  V30 2860 C 259.374 4.06985 -1.36607 0
M  V30 2861 C 258.607 5.26726 -0.859975 0
M  V30 2862 O 258.83 5.69594 0.303082 0
M  V30 2863 O 257.764 5.7931 -1.63351 0
M  V30 2864 H 261.59 2.48781 -1.74189 0
M  V30 2865 H 259.175 1.18496 -0.909894 0
M  V30 2866 H 261.057 4.214 0.000674022 0
M  V30 2867 H 259.732 3.18047 0.602306 0
M  V30 2868 H 258.639 3.32712 -1.71037 0
M  V30 2869 H 259.972 4.38643 -2.23279 0
M  V30 2870 N 261.624 0.925811 1.2754 0
M  V30 2871 C 262.571 0.422045 2.26908 0
M  V30 2872 C 263.541 -0.510029 1.58076 0
M  V30 2873 O 264.726 -0.429599 1.85901 0
M  V30 2874 C 261.866 -0.320837 3.43605 0
M  V30 2875 C 260.979 0.64513 4.27156 0
M  V30 2876 C 260.114 -0.117405 5.3107 0
M  V30 2877 C 259.153 0.841391 6.0629 0
M  V30 2878 N 258.29 0.111604 7.02011 0
M  V30 2879 H 263.13 1.27441 2.69375 0
M  V30 2880 H 260.667 0.639697 1.32462 0
M  V30 2881 H 262.625 -0.76785 4.10073 0
M  V30 2882 H 261.255 -1.13745 3.02096 0
M  V30 2883 H 260.307 1.21067 3.6062 0
M  V30 2884 H 261.619 1.37797 4.79389 0
M  V30 2885 H 260.773 -0.624422 6.03478 0
M  V30 2886 H 259.512 -0.883219 4.79636 0
M  V30 2887 H 258.517 1.35967 5.32722 0
M  V30 2888 H 259.742 1.60696 6.59813 0
M  V30 2889 H 257.688 -0.635999 6.5291 0
M  V30 2890 H 257.605 0.784044 7.51923 0
M  V30 2891 H 258.873 -0.374823 7.78598 0
M  V30 2892 N 263.102 -1.41638 0.69111 0
M  V30 2893 C 264.349 -2.01299 0.220193 0
M  V30 2894 C 264.677 -1.54715 -1.17871 0
M  V30 2895 O 263.932 -0.747193 -1.80874 0
M  V30 2896 C 264.231 -3.56714 0.221277 0
M  V30 2897 C 263.897 -4.22792 1.56709 0
M  V30 2898 C 262.559 -4.40557 1.93554 0
M  V30 2899 C 264.911 -4.59883 2.45268 0
M  V30 2900 C 262.239 -4.92688 3.18552 0
M  V30 2901 C 264.591 -5.13403 3.69595 0
M  V30 2902 C 263.255 -5.29379 4.06589 0
M  V30 2903 H 262.525 -0.736606 0.0805743 0
M  V30 2904 H 265.172 -1.69598 0.889319 0
M  V30 2905 H 263.477 -3.8818 -0.531391 0
M  V30 2906 H 265.174 -4.00678 -0.160547 0
M  V30 2907 H 261.764 -4.09336 1.2705 0
M  V30 2908 H 265.948 -4.45817 2.18084 0
M  V30 2909 H 261.204 -5.03242 3.47214 0
M  V30 2910 H 265.378 -5.41084 4.38407 0
M  V30 2911 H 263.005 -5.69537 5.03519 0
M  V30 2912 N 264.58 -0.43555 -1.51462 0
M  V30 2913 C 265.805 0.132627 -2.06976 0
M  V30 2914 C 266.23 1.35848 -1.30104 0
M  V30 2915 O 265.588 1.78112 -0.338493 0
M  V30 2916 C 265.636 0.43523 -3.57964 0
M  V30 2917 O 264.74 1.52198 -3.83288 0
M  V30 2918 H 264.081 0.00265 -0.663995 0
M  V30 2919 H 266.611 -0.616369 -1.95095 0
M  V30 2920 H 266.621 0.686206 -4.02188 0
M  V30 2921 H 265.296 -0.460739 -4.1334 0
M  V30 2922 H 263.873 1.2611 -3.50928 0
M  V30 2923 N 266.058 1.56714 -0.166846 0
M  V30 2924 C 266.988 2.20754 0.760913 0
M  V30 2925 C 267.969 1.16178 1.24244 0
M  V30 2926 O 269.154 1.44592 1.29641 0
M  V30 2927 C 266.284 2.84478 1.99223 0
M  V30 2928 C 265.238 3.95053 1.64672 0
M  V30 2929 C 264.564 4.45805 2.95232 0
M  V30 2930 C 265.864 5.14865 0.878155 0
M  V30 2931 H 267.558 2.98537 0.22713 0
M  V30 2932 H 265.104 1.43596 0.107805 0
M  V30 2933 H 267.057 3.27951 2.64624 0
M  V30 2934 H 265.781 2.04056 2.55007 0
M  V30 2935 H 264.44 3.52228 1.01641 0
M  V30 2936 H 264.088 3.62181 3.49047 0
M  V30 2937 H 263.788 5.204 2.7287 0
M  V30 2938 H 265.312 4.91962 3.6167 0
M  V30 2939 H 266.726 5.55059 1.43466 0
M  V30 2940 H 265.123 5.95348 0.753738 0
M  V30 2941 H 266.193 4.84735 -0.126377 0
M  V30 2942 N 267.536 -0.106894 1.57237 0
M  V30 2943 C 268.783 -0.812526 1.85484 0
M  V30 2944 C 269.111 -1.79304 0.753687 0
M  V30 2945 O 268.366 -1.94047 -0.253853 0
M  V30 2946 C 268.665 -1.58628 3.20268 0
M  V30 2947 C 268.331 -0.748967 4.44636 0
M  V30 2948 C 266.993 -0.518104 4.78403 0
M  V30 2949 C 269.345 -0.166122 5.20935 0
M  V30 2950 C 266.673 0.305659 5.85903 0
M  V30 2951 C 269.025 0.644899 6.29304 0
M  V30 2952 C 267.689 0.885965 6.61594 0
M  V30 2953 H 266.959 -0.297324 0.678734 0
M  V30 2954 H 269.606 -0.0744332 1.91355 0
M  V30 2955 H 267.911 -2.39562 3.10028 0
M  V30 2956 H 269.608 -2.13643 3.39349 0
M  V30 2957 H 266.198 -0.939006 4.18187 0
M  V30 2958 H 270.382 -0.33167 4.95191 0
M  V30 2959 H 265.638 0.501528 6.0934 0
M  V30 2960 H 269.812 1.10345 6.87602 0
M  V30 2961 H 267.439 1.52609 7.44725 0
M  V30 2962 N 269.014 -1.53014 -0.377408 0
M  V30 2963 C 270.239 -1.72818 -1.14668 0
M  V30 2964 C 270.664 -0.450725 -1.8262 0
M  V30 2965 O 270.022 0.59439 -1.7128 0
M  V30 2966 C 270.07 -2.88627 -2.16164 0
M  V30 2967 O 269.174 -2.56409 -3.22998 0
M  V30 2968 H 268.515 -0.574301 -0.333278 0
M  V30 2969 H 271.045 -1.99853 -0.438152 0
M  V30 2970 H 271.055 -3.14455 -2.59966 0
M  V30 2971 H 269.73 -3.81294 -1.66095 0
M  V30 2972 H 268.307 -2.4136 -2.84253 0
M  V30 2973 N 270.492 0.636531 -1.44174 0
M  V30 2974 C 271.455 1.73063 -1.50273 0
M  V30 2975 C 272.455 1.56113 -0.385397 0
M  V30 2976 O 273.645 1.61707 -0.64781 0
M  V30 2977 C 270.777 3.12096 -1.37145 0
M  V30 2978 H 271.97 1.69031 -2.47727 0
M  V30 2979 H 269.523 0.849706 -1.31186 0
M  V30 2980 H 270.258 3.21728 -0.407636 0
M  V30 2981 H 270.043 3.25805 -2.18159 0
M  V30 2982 H 271.533 3.91846 -1.44382 0
M  V30 2983 N 271.97 1.30982 0.876444 0
M  V30 2984 C 272.933 1.18054 1.96459 0
M  V30 2985 C 273.933 0.109399 1.60427 0
M  V30 2986 O 275.123 0.358173 1.70478 0
M  V30 2987 C 272.255 0.810616 3.31122 0
M  V30 2988 H 273.448 2.14735 2.09354 0
M  V30 2989 H 271.001 1.145 1.06392 0
M  V30 2990 H 271.736 -0.155322 3.23928 0
M  V30 2991 H 271.521 1.58481 3.58645 0
M  V30 2992 H 273.011 0.743876 4.10921 0
M  V30 2993 N 273.449 -1.08991 1.13837 0
M  V30 2994 C 274.695 -1.81526 0.90422 0
M  V30 2995 C 275.028 -1.85706 -0.568066 0
M  V30 2996 O 274.303 -1.32855 -1.42056 0
M  V30 2997 C 274.586 -3.27447 1.49835 0
M  V30 2998 C 274.439 -3.31512 3.04006 0
M  V30 2999 C 275.758 -4.24256 1.17025 0
M  V30 3000 H 272.877 -0.659029 0.329923 0
M  V30 3001 H 275.519 -1.27644 1.40737 0
M  V30 3002 H 273.669 -3.73462 1.07044 0
M  V30 3003 H 275.341 -2.93867 3.55584 0
M  V30 3004 H 273.584 -2.70963 3.38765 0
M  V30 3005 H 274.255 -4.34329 3.40679 0
M  V30 3006 H 276.731 -3.86549 1.54009 0
M  V30 3007 H 275.607 -5.24684 1.61237 0
M  V30 3008 H 275.868 -4.42019 0.0846274 0
M  V30 3009 N 274.927 -0.932562 -1.27047 0
M  V30 3010 C 276.343 -0.633544 -1.46487 0
M  V30 3011 C 276.543 0.815746 -1.84249 0
M  V30 3012 O 275.599 1.59319 -1.95892 0
M  V30 3013 C 276.912 -1.58758 -2.55375 0
M  V30 3014 C 278.46 -1.59634 -2.69232 0
M  V30 3015 C 278.935 -2.53747 -3.81283 0
M  V30 3016 N 280.426 -2.51982 -3.88664 0
M  V30 3017 C 281.161 -3.21491 -4.74796 0
M  V30 3018 N 280.657 -4.00395 -5.65381 0
M  V30 3019 N 282.45 -3.10485 -4.68568 0
M  V30 3020 H 274.601 -1.86946 -1.00821 0
M  V30 3021 H 276.864 -0.802897 -0.504044 0
M  V30 3022 H 276.57 -2.62172 -2.34432 0
M  V30 3023 H 276.444 -1.33301 -3.52861 0
M  V30 3024 H 278.831 -0.569488 -2.89553 0
M  V30 3025 H 278.912 -1.89142 -1.72218 0
M  V30 3026 H 278.556 -3.56545 -3.61715 0
M  V30 3027 H 278.486 -2.21532 -4.77735 0
M  V30 3028 H 280.977 -1.94681 -3.23895 0
M  V30 3029 H 281.29 -4.50406 -6.27976 0
M  V30 3030 H 279.635 -4.04498 -5.65161 0
M  V30 3031 H 282.826 -2.48331 -3.96799 0
M  V30 3032 H 282.999 -3.64925 -5.35475 0
M  V30 3033 N 276.405 1.4127 -0.698611 0
M  V30 3034 C 277.315 2.34573 -0.0357891 0
M  V30 3035 C 278.331 1.56393 0.762701 0
M  V30 3036 O 279.507 1.8886 0.699564 0
M  V30 3037 C 276.572 3.35159 0.887089 0
M  V30 3038 C 275.633 4.29225 0.0804634 0
M  V30 3039 C 274.866 5.25006 0.959387 0
M  V30 3040 O 275.089 5.26314 2.19886 0
M  V30 3041 O 274.023 6.00519 0.407439 0
M  V30 3042 H 277.849 2.92838 -0.804957 0
M  V30 3043 H 275.434 1.42175 -0.458966 0
M  V30 3044 H 277.316 3.9689 1.41621 0
M  V30 3045 H 275.991 2.79333 1.6357 0
M  V30 3046 H 274.898 3.70833 -0.493328 0
M  V30 3047 H 276.231 4.88157 -0.629547 0
M  V30 3048 N 277.883 0.443576 1.51229 0
M  V30 3049 C 279.108 -0.121648 2.07043 0
M  V30 3050 C 279.533 -1.35156 1.30823 0
M  V30 3051 O 278.891 -1.7793 0.347934 0
M  V30 3052 C 278.939 -0.41624 3.5819 0
M  V30 3053 O 278.043 -1.50163 3.8409 0
M  V30 3054 H 277.384 0.000871367 0.663999 0
M  V30 3055 H 279.914 0.626706 1.94765 0
M  V30 3056 H 279.924 -0.664867 4.02546 0
M  V30 3057 H 278.599 0.482653 4.1309 0
M  V30 3058 H 277.176 -1.24248 3.51592 0
M  V30 3059 N 279.361 -1.56624 0.175154 0
M  V30 3060 C 280.311 -2.14747 -0.766004 0
M  V30 3061 C 281.295 -1.08275 -1.19018 0
M  V30 3062 O 282.487 -1.34388 -1.15191 0
M  V30 3063 C 279.616 -2.79478 -1.99366 0
M  V30 3064 C 278.702 -3.93114 -1.5913 0
M  V30 3065 N 279.093 -4.97752 -0.89872 0
M  V30 3066 C 277.391 -4.04345 -1.88204 0
M  V30 3067 C 278.092 -5.77473 -0.700012 0
M  V30 3068 N 277.068 -5.29207 -1.24263 0
M  V30 3069 H 280.87 -2.93015 -0.22793 0
M  V30 3070 H 278.384 -1.6238 -0.0253843 0
M  V30 3071 H 280.381 -3.19498 -2.67818 0
M  V30 3072 H 279.041 -2.02692 -2.53665 0
M  V30 3073 H 280.052 -5.14903 -0.556347 0
M  V30 3074 H 276.729 -3.38667 -2.44153 0
M  V30 3075 H 278.119 -6.71728 -0.152047 0
M  V30 3076 N 280.839 0.0985539 -1.57292 0
M  V30 3077 C 281.749 1.13824 -2.05137 0
M  V30 3078 C 282.765 1.44076 -0.975604 0
M  V30 3079 O 283.941 1.54786 -1.28853 0
M  V30 3080 C 281.006 2.43969 -2.46333 0
M  V30 3081 C 280.067 2.2093 -3.68087 0
M  V30 3082 C 279.3 3.44869 -4.0731 0
M  V30 3083 O 279.523 4.52972 -3.46659 0
M  V30 3084 O 278.457 3.34661 -5.00285 0
M  V30 3085 H 282.283 0.761881 -2.93988 0
M  V30 3086 H 279.868 0.310818 -1.46131 0
M  V30 3087 H 281.75 3.20609 -2.73473 0
M  V30 3088 H 280.425 2.81038 -1.60621 0
M  V30 3089 H 279.332 1.42081 -3.46069 0
M  V30 3090 H 280.665 1.88755 -4.54568 0
M  V30 3091 N 282.317 1.53212 0.369288 0
M  V30 3092 C 283.264 1.79388 1.45219 0
M  V30 3093 C 284.234 0.638059 1.53356 0
M  V30 3094 O 285.419 0.879852 1.69302 0
M  V30 3095 C 282.559 1.98623 2.82211 0
M  V30 3096 C 281.672 3.26337 2.8307 0
M  V30 3097 C 280.807 3.35779 4.11614 0
M  V30 3098 C 279.846 4.5754 4.06601 0
M  V30 3099 N 278.983 4.64155 5.26787 0
M  V30 3100 H 283.823 2.71794 1.22198 0
M  V30 3101 H 281.36 1.34642 0.592444 0
M  V30 3102 H 283.318 2.07761 3.61789 0
M  V30 3103 H 281.948 1.09558 3.03639 0
M  V30 3104 H 281 3.26171 1.95747 0
M  V30 3105 H 282.312 4.15988 2.75237 0
M  V30 3106 H 281.466 3.44208 4.99606 0
M  V30 3107 H 280.205 2.44137 4.22195 0
M  V30 3108 H 279.21 4.49215 3.16996 0
M  V30 3109 H 280.435 5.50519 3.97625 0
M  V30 3110 H 278.381 3.75413 5.3796 0
M  V30 3111 H 278.298 5.47706 5.21109 0
M  V30 3112 H 279.566 4.76863 6.16621 0
M  V30 3113 N 283.795 -0.628877 1.44509 0
M  V30 3114 C 284.705 -1.7694 1.54044 0
M  V30 3115 C 285.721 -1.68705 0.425987 0
M  V30 3116 O 286.897 -1.89442 0.683656 0
M  V30 3117 C 283.962 -3.13332 1.48405 0
M  V30 3118 C 283.023 -3.33181 2.70719 0
M  V30 3119 C 282.256 -4.63067 2.6534 0
M  V30 3120 O 282.479 -5.44017 1.71469 0
M  V30 3121 O 281.413 -4.85167 3.56226 0
M  V30 3122 H 285.239 -1.71848 2.50403 0
M  V30 3123 H 282.824 -0.790378 1.26781 0
M  V30 3124 H 284.706 -3.94634 1.47791 0
M  V30 3125 H 283.381 -3.1896 0.551898 0
M  V30 3126 H 282.288 -2.51549 2.769 0
M  V30 3127 H 283.621 -3.32416 3.62988 0
M  V30 3128 N 285.273 -1.31445 -0.869486 0
M  V30 3129 C 286.689 -1.10113 -1.15531 0
M  V30 3130 C 286.889 0.128087 -2.01092 0
M  V30 3131 O 285.945 0.817276 -2.38908 0
M  V30 3132 C 287.258 -2.37291 -1.84698 0
M  V30 3133 C 288.806 -2.42906 -1.97397 0
M  V30 3134 C 289.281 -3.69967 -2.69979 0
M  V30 3135 N 290.772 -3.70864 -2.77514 0
M  V30 3136 C 291.507 -4.65875 -3.34287 0
M  V30 3137 N 291.003 -5.71242 -3.91988 0
M  V30 3138 N 292.796 -4.53394 -3.3225 0
M  V30 3139 H 284.947 -2.1028 -0.299347 0
M  V30 3140 H 287.21 -0.927683 -0.195214 0
M  V30 3141 H 286.916 -3.27078 -1.29278 0
M  V30 3142 H 286.79 -2.47125 -2.84972 0
M  V30 3143 H 289.177 -1.53588 -2.51982 0
M  V30 3144 H 289.258 -2.37036 -0.961643 0
M  V30 3145 H 288.902 -4.59652 -2.16062 0
M  V30 3146 H 288.832 -3.73103 -3.7162 0
M  V30 3147 H 291.323 -2.94697 -2.36563 0
M  V30 3148 H 291.636 -6.39817 -4.33421 0
M  V30 3149 H 289.981 -5.75015 -3.90362 0
M  V30 3150 H 293.172 -3.70252 -2.8641 0
M  V30 3151 H 293.345 -5.27617 -3.76197 0
M  V30 3152 N 286.751 1.08385 -1.14413 0
M  V30 3153 C 287.979 1.84517 -0.936001 0
M  V30 3154 C 288.394 1.81626 0.515503 0
M  V30 3155 O 287.751 1.22008 1.35721 0
M  V30 3156 C 287.802 3.32049 -1.42918 0
M  V30 3157 O 287.523 3.34951 -2.82381 0
M  V30 3158 C 289.024 4.24986 -1.26103 0
M  V30 3159 H 286.244 0.582491 -0.333084 0
M  V30 3160 H 288.788 1.36885 -1.5193 0
M  V30 3161 H 286.943 3.7707 -0.888641 0
M  V30 3162 H 287.357 4.27048 -3.04517 0
M  V30 3163 H 288.831 5.26615 -1.6547 0
M  V30 3164 H 289.308 4.38726 -0.20392 0
M  V30 3165 H 289.914 3.85791 -1.79012 0
M  V30 3166 N 288.23 0.939286 1.26551 0
M  V30 3167 C 289.646 0.641304 1.46149 0
M  V30 3168 C 289.846 -0.805964 1.84679 0
M  V30 3169 O 288.902 -1.58278 1.96734 0
M  V30 3170 C 290.215 1.6011 2.54529 0
M  V30 3171 C 291.763 1.6106 2.68382 0
M  V30 3172 C 292.238 2.55765 3.79932 0
M  V30 3173 N 293.729 2.5404 3.87322 0
M  V30 3174 C 294.464 3.24004 4.73085 0
M  V30 3175 N 293.96 4.03388 5.63249 0
M  V30 3176 N 295.753 3.12965 4.66914 0
M  V30 3177 H 287.904 1.87478 0.998285 0
M  V30 3178 H 290.167 0.805559 0.499779 0
M  V30 3179 H 289.873 2.63412 2.33039 0
M  V30 3180 H 289.747 1.35171 3.52149 0
M  V30 3181 H 292.134 0.584835 2.89247 0
M  V30 3182 H 292.215 1.90053 1.71212 0
M  V30 3183 H 291.859 3.58458 3.5982 0
M  V30 3184 H 291.789 2.24063 4.76554 0
M  V30 3185 H 294.28 1.96396 3.22858 0
M  V30 3186 H 294.593 4.5373 6.25579 0
M  V30 3187 H 292.938 4.07489 5.63008 0
M  V30 3188 H 296.129 2.50432 3.95476 0
M  V30 3189 H 296.302 3.67759 5.33533 0
M  V30 3190 N 289.708 -1.40897 0.706093 0
M  V30 3191 C 290.671 -2.29131 0.0562841 0
M  V30 3192 C 291.671 -1.44901 -0.697166 0
M  V30 3193 O 292.861 -1.65926 -0.530484 0
M  V30 3194 C 289.993 -3.27957 -0.93043 0
M  V30 3195 H 291.186 -2.88091 0.833284 0
M  V30 3196 H 288.739 -1.4906 0.470192 0
M  V30 3197 H 289.474 -2.73997 -1.73482 0
M  V30 3198 H 289.259 -3.90124 -0.393166 0
M  V30 3199 H 290.749 -3.94049 -1.38256 0
M  V30 3200 N 291.186 -0.45159 -1.50991 0
M  V30 3201 C 292.096 0.358431 -2.31846 0
M  V30 3202 C 293.112 1.01438 -1.41373 0
M  V30 3203 O 294.288 1.00663 -1.74439 0
M  V30 3204 C 291.353 1.43704 -3.15515 0
M  V30 3205 C 290.414 0.799742 -4.21785 0
M  V30 3206 C 289.647 1.82696 -5.01456 0
M  V30 3207 O 289.87 3.05105 -4.81941 0
M  V30 3208 O 288.804 1.40958 -5.85162 0
M  V30 3209 H 292.63 -0.302032 -3.02194 0
M  V30 3210 H 290.215 -0.213825 -1.47862 0
M  V30 3211 H 292.097 2.06227 -3.67489 0
M  V30 3212 H 290.772 2.08133 -2.47916 0
M  V30 3213 H 289.679 0.136084 -3.73852 0
M  V30 3214 H 291.012 0.198718 -4.91799 0
M  V30 3215 N 292.664 1.56529 -0.183458 0
M  V30 3216 C 294.08 1.58664 0.172554 0
M  V30 3217 C 294.28 1.19925 1.61926 0
M  V30 3218 O 293.336 0.916534 2.35278 0
M  V30 3219 C 294.649 3.00463 -0.119262 0
M  V30 3220 C 296.197 3.12945 -0.0584396 0
M  V30 3221 C 296.672 4.56857 -0.323408 0
M  V30 3222 N 298.163 4.62403 -0.271612 0
M  V30 3223 C 298.898 5.71626 -0.450639 0
M  V30 3224 N 298.394 6.89362 -0.689384 0
M  V30 3225 N 300.187 5.60775 -0.385701 0
M  V30 3226 H 292.338 1.79994 -1.12765 0
M  V30 3227 H 294.601 0.834808 -0.449222 0
M  V30 3228 H 294.307 3.33326 -1.12192 0
M  V30 3229 H 294.181 3.72659 0.583544 0
M  V30 3230 H 296.568 2.79902 0.934805 0
M  V30 3231 H 296.649 2.4316 -0.794144 0
M  V30 3232 H 296.293 4.9061 -1.31392 0
M  V30 3233 H 296.223 5.24816 0.43305 0
M  V30 3234 H 298.714 3.77785 -0.0932256 0
M  V30 3235 H 299.027 7.68489 -0.815113 0
M  V30 3236 H 297.372 6.91196 -0.726142 0
M  V30 3237 H 300.563 4.67674 -0.199687 0
M  V30 3238 H 300.736 6.4584 -0.528646 0
M  V30 3239 N 294.142 -0.090211 1.57342 0
M  V30 3240 C 295.37 -0.806224 1.90546 0
M  V30 3241 C 295.785 -1.72041 0.777644 0
M  V30 3242 O 295.142 -1.80778 -0.250103 0
M  V30 3243 C 295.193 -1.61546 3.23396 0
M  V30 3244 O 294.914 -0.738043 4.31839 0
M  V30 3245 C 296.415 -2.4341 3.70495 0
M  V30 3246 H 293.635 -0.230256 0.630257 0
M  V30 3247 H 296.179 -0.0659843 2.04394 0
M  V30 3248 H 294.334 -2.30816 3.11131 0
M  V30 3249 H 294.748 -1.29901 5.08159 0
M  V30 3250 H 296.222 -2.95676 4.66133 0
M  V30 3251 H 296.699 -3.22098 2.98579 0
M  V30 3252 H 297.305 -1.79331 3.85643 0
M  V30 3253 N 295.62 -1.53406 -0.361157 0
M  V30 3254 C 296.567 -1.80156 -1.44265 0
M  V30 3255 C 297.537 -0.646183 -1.53015 0
M  V30 3256 O 298.722 -0.888818 -1.68833 0
M  V30 3257 C 295.862 -2.00116 -2.81154 0
M  V30 3258 C 294.975 -3.27833 -2.81335 0
M  V30 3259 C 294.11 -3.37957 -4.09828 0
M  V30 3260 C 293.149 -4.59689 -4.04168 0
M  V30 3261 N 292.286 -4.66942 -5.24318 0
M  V30 3262 H 297.126 -2.72438 -1.20754 0
M  V30 3263 H 294.663 -1.34954 -0.585296 0
M  V30 3264 H 296.621 -2.09677 -3.60682 0
M  V30 3265 H 295.251 -1.11167 -3.03054 0
M  V30 3266 H 294.303 -3.27204 -1.94014 0
M  V30 3267 H 295.615 -4.17442 -2.73027 0
M  V30 3268 H 294.769 -3.46853 -4.97773 0
M  V30 3269 H 293.508 -2.46372 -4.20894 0
M  V30 3270 H 292.513 -4.50889 -3.14609 0
M  V30 3271 H 293.738 -5.5262 -3.947 0
M  V30 3272 H 291.684 -3.7826 -5.35962 0
M  V30 3273 H 291.601 -5.50462 -5.18197 0
M  V30 3274 H 292.869 -4.80127 -6.14084 0
M  V30 3275 N 297.098 0.621204 -1.44841 0
M  V30 3276 C 298.046 1.75385 -1.52784 0
M  V30 3277 C 299.04 1.64639 -0.398779 0
M  V30 3278 O 300.246 1.70598 -0.574137 0
M  V30 3279 H 296.621 0.579193 -0.479625 0
M  V30 3280 H 298.592 1.6581 -2.48092 0
M  V30 3281 C 297.341 3.13742 -1.4987 0
M  V30 3282 H 296.664 3.22663 -2.36069 0
M  V30 3283 H 298.104 3.92861 -1.59487 0
M  V30 3284 C 296.563 3.36175 -0.220973 0
M  V30 3285 O 297.093 3.95469 0.704782 0
M  V30 3286 N 295.299 2.90348 -0.120963 0
M  V30 3287 H 294.846 2.42278 -0.875162 0
M  V30 3288 H 294.804 3.05732 0.733168 0
M  V30 3289 N 298.576 1.31904 0.862503 0
M  V30 3290 C 299.822 1.23207 1.61838 0
M  V30 3291 C 300.177 -0.206062 1.91293 0
M  V30 3292 O 299.47 -1.14162 1.53875 0
M  V30 3293 C 299.664 2.01713 2.95037 0
M  V30 3294 C 299.493 3.53014 2.78588 0
M  V30 3295 C 298.263 4.22359 2.77382 0
M  V30 3296 C 300.461 4.47819 2.52909 0
M  V30 3297 N 298.443 5.59766 2.52062 0
M  V30 3298 C 299.814 5.72947 2.36922 0
M  V30 3299 C 301.869 4.37162 2.38314 0
M  V30 3300 C 300.572 6.88623 2.07823 0
M  V30 3301 C 302.598 5.5263 2.10604 0
M  V30 3302 C 301.96 6.76752 1.95411 0
M  V30 3303 H 298.059 0.505984 0.596242 0
M  V30 3304 H 300.643 1.66179 1.01452 0
M  V30 3305 H 298.814 1.61098 3.53415 0
M  V30 3306 H 300.546 1.84975 3.59953 0
M  V30 3307 H 297.301 3.74401 2.90036 0
M  V30 3308 H 297.725 6.32135 2.42352 0
M  V30 3309 H 302.367 3.41857 2.48784 0
M  V30 3310 H 300.085 7.83948 1.9609 0
M  V30 3311 H 303.671 5.46307 2.00101 0
M  V30 3312 H 302.551 7.6459 1.74274 0
M  V30 3313 N 300.054 -1.07777 1.14986 0
M  V30 3314 C 301.279 -1.84558 0.946213 0
M  V30 3315 C 301.704 -1.81323 -0.500362 0
M  V30 3316 O 301.062 -1.20301 -1.35637 0
M  V30 3317 C 301.11 -3.29736 1.45968 0
M  V30 3318 O 300.214 -4.07149 0.65601 0
M  V30 3319 H 299.555 -0.571641 0.33782 0
M  V30 3320 H 302.085 -1.35991 1.52865 0
M  V30 3321 H 302.095 -3.80574 1.47063 0
M  V30 3322 H 300.77 -3.31406 2.51283 0
M  V30 3323 H 299.347 -3.65994 0.714322 0
M  V30 3324 N 301.532 -0.945985 -1.26051 0
M  V30 3325 C 302.462 -0.477172 -2.28572 0
M  V30 3326 C 303.443 0.472032 -1.63419 0
M  V30 3327 O 304.628 0.372853 -1.90587 0
M  V30 3328 C 301.758 0.253975 -3.4637 0
M  V30 3329 C 300.712 -0.609135 -4.23643 0
M  V30 3330 C 300.038 0.252252 -5.34105 0
M  V30 3331 C 301.338 -1.8829 -4.8718 0
M  V30 3332 H 303.032 -1.33402 -2.68038 0
M  V30 3333 H 300.578 -0.642904 -1.28852 0
M  V30 3334 H 302.531 0.593016 -4.17207 0
M  V30 3335 H 301.255 1.145 -3.05871 0
M  V30 3336 H 299.914 -0.931138 -3.54578 0
M  V30 3337 H 299.562 1.14278 -4.89846 0
M  V30 3338 H 299.262 -0.32188 -5.86718 0
M  V30 3339 H 300.786 0.586454 -6.07777 0
M  V30 3340 H 302.2 -1.61081 -5.50205 0
M  V30 3341 H 300.597 -2.40199 -5.49931 0
M  V30 3342 H 301.667 -2.59134 -4.09851 0
M  V30 3343 N 303.011 1.40521 -0.713556 0
M  V30 3344 C 304.26 2.00155 -0.249192 0
M  V30 3345 C 304.573 1.57224 1.16362 0
M  V30 3346 O 305.779 2.09542 1.72639 0
M  V30 3347 C 304.235 3.5773 -0.3946 0
M  V30 3348 C 303.843 4.09635 -1.81392 0
M  V30 3349 C 305.587 4.24499 0.00907364 0
M  V30 3350 C 303.494 5.59707 -1.91003 0
M  V30 3351 H 302.424 0.74868 -0.0894114 0
M  V30 3352 H 305.075 1.60784 -0.884352 0
M  V30 3353 H 303.457 3.94792 0.30911 0
M  V30 3354 H 304.631 3.83955 -2.54785 0
M  V30 3355 H 302.946 3.55456 -2.16888 0
M  V30 3356 H 305.543 5.34683 -0.0420404 0
M  V30 3357 H 305.886 4.02824 1.05065 0
M  V30 3358 H 306.419 3.92536 -0.645007 0
M  V30 3359 H 303.158 5.86234 -2.93275 0
M  V30 3360 H 302.678 5.87258 -1.22019 0
M  V30 3361 H 304.357 6.24776 -1.6812 0
M  V30 3362 N 304.489 0.459591 1.5075 0
M  V30 3363 C 305.737 -0.0991532 2.01857 0
M  V30 3364 C 306.058 -1.41247 1.34441 0
M  V30 3365 O 305.328 -1.89775 0.486022 0
M  V30 3366 H 303.908 -0.039633 0.745948 0
M  V30 3367 H 306.57 0.607387 1.85194 0
M  V30 3368 H 305.666 -0.258998 3.11023 0
M  V30 3369 N 305.967 -1.56429 0.191757 0
M  V30 3370 C 307.192 -2.02309 -0.456706 0
M  V30 3371 C 307.617 -1.07103 -1.5463 0
M  V30 3372 O 306.975 -0.0539677 -1.8122 0
M  V30 3373 C 307.023 -3.46654 -0.993159 0
M  V30 3374 O 306.127 -3.54559 -2.10622 0
M  V30 3375 H 305.468 -0.655303 -0.107114 0
M  V30 3376 H 307.998 -2.02364 0.301653 0
M  V30 3377 H 308.008 -3.86377 -1.31061 0
M  V30 3378 H 306.683 -4.1544 -0.195504 0
M  V30 3379 H 305.26 -3.26708 -1.79767 0
M  V30 3380 N 307.445 0.0818655 -1.57387 0
M  V30 3381 C 308.691 0.784074 -1.8703 0
M  V30 3382 C 309.024 1.77729 -0.782689 0
M  V30 3383 O 308.299 1.93384 0.208051 0
M  V30 3384 C 308.582 1.50105 -3.27323 0
M  V30 3385 C 308.435 0.524925 -4.46727 0
M  V30 3386 C 309.754 2.44843 -3.65705 0
M  V30 3387 H 306.873 0.283582 -0.680257 0
M  V30 3388 H 309.515 0.0474352 -1.89941 0
M  V30 3389 H 307.665 2.12897 -3.24972 0
M  V30 3390 H 309.337 -0.0970111 -4.61198 0
M  V30 3391 H 307.58 -0.160606 -4.33503 0
M  V30 3392 H 308.251 1.064 -5.41648 0
M  V30 3393 H 310.727 1.92135 -3.69085 0
M  V30 3394 H 309.603 2.92018 -4.64776 0
M  V30 3395 H 309.864 3.29197 -2.95096 0
M  V30 3396 N 308.923 1.53595 0.353017 0
M  V30 3397 C 309.853 1.83902 1.43883 0
M  V30 3398 C 310.834 0.693421 1.55324 0
M  V30 3399 O 312.019 0.944452 1.69687 0
M  V30 3400 C 309.149 2.04016 2.8106 0
M  V30 3401 C 308.103 3.19814 2.84434 0
M  V30 3402 C 307.429 3.25244 4.24406 0
M  V30 3403 C 308.729 4.58133 2.50822 0
M  V30 3404 H 310.423 2.74835 1.1877 0
M  V30 3405 H 307.969 1.32242 0.569917 0
M  V30 3406 H 309.922 2.238 3.57059 0
M  V30 3407 H 308.646 1.09804 3.07588 0
M  V30 3408 H 307.305 2.9987 2.10887 0
M  V30 3409 H 306.953 2.28646 4.48029 0
M  V30 3410 H 306.653 4.03054 4.27576 0
M  V30 3411 H 308.177 3.47228 5.0226 0
M  V30 3412 H 309.591 4.77995 3.16534 0
M  V30 3413 H 307.988 5.38276 2.6529 0
M  V30 3414 H 309.058 4.62387 1.46034 0
M  V30 3415 N 310.401 -0.613514 1.45168 0
M  V30 3416 C 311.649 -1.36997 1.48581 0
M  V30 3417 C 311.97 -1.94589 0.126545 0
M  V30 3418 O 311.24 -1.76816 -0.843372 0
M  V30 3419 H 309.82 -0.508558 0.547154 0
M  V30 3420 H 312.482 -0.720853 1.81079 0
M  V30 3421 H 311.578 -2.1924 2.22127 0
M  V30 3422 N 311.879 -1.3236 -0.855495 0
M  V30 3423 C 312.842 -1.21164 -1.94556 0
M  V30 3424 C 313.842 -0.134908 -1.60233 0
M  V30 3425 O 315.032 -0.385249 -1.69887 0
M  V30 3426 C 312.164 -0.863192 -3.29791 0
M  V30 3427 H 313.357 -2.18038 -2.05911 0
M  V30 3428 H 310.91 -1.16179 -1.04557 0
M  V30 3429 H 311.645 0.103769 -3.24134 0
M  V30 3430 H 311.43 -1.64166 -3.56078 0
M  V30 3431 H 312.92 -0.809156 -4.09686 0
M  V30 3432 N 313.357 1.07166 -1.15556 0
M  V30 3433 C 314.287 2.16403 -0.877046 0
M  V30 3434 C 315.268 1.69217 0.173111 0
M  V30 3435 O 316.453 1.94181 0.027084 0
M  V30 3436 C 313.583 3.45349 -0.367632 0
M  V30 3437 C 312.537 4.05995 -1.35468 0
M  V30 3438 C 311.863 5.30045 -0.704038 0
M  V30 3439 C 313.163 4.45804 -2.72132 0
M  V30 3440 H 314.857 2.39959 -1.79053 0
M  V30 3441 H 312.403 1.15325 -0.862331 0
M  V30 3442 H 314.356 4.21095 -0.160317 0
M  V30 3443 H 313.08 3.21385 0.581326 0
M  V30 3444 H 311.739 3.32296 -1.54839 0
M  V30 3445 H 311.387 5.02373 0.251128 0
M  V30 3446 H 311.087 5.71579 -1.36277 0
M  V30 3447 H 312.611 6.08495 -0.50654 0
M  V30 3448 H 314.025 5.12671 -2.56595 0
M  V30 3449 H 312.422 4.98296 -3.34397 0
M  V30 3450 H 313.492 3.57083 -3.28054 0
M  V30 3451 N 314.835 0.952656 1.25548 0
M  V30 3452 C 316.084 0.602053 1.92505 0
M  V30 3453 C 316.397 -0.864663 1.75451 0
M  V30 3454 O 317.603 -1.32514 2.36965 0
M  V30 3455 C 316.059 1.02607 3.44963 0
M  V30 3456 C 315.667 2.51519 3.70732 0
M  V30 3457 C 317.411 0.747905 4.1786 0
M  V30 3458 C 315.318 2.87732 5.16686 0
M  V30 3459 H 314.248 0.22146 0.720744 0
M  V30 3460 H 316.899 1.15684 1.42441 0
M  V30 3461 H 315.281 0.399712 3.93978 0
M  V30 3462 H 316.455 3.19157 3.32378 0
M  V30 3463 H 314.77 2.76786 3.11092 0
M  V30 3464 H 317.367 0.994647 5.25367 0
M  V30 3465 H 317.71 -0.315629 4.15102 0
M  V30 3466 H 318.243 1.33452 3.74747 0
M  V30 3467 H 314.982 3.93095 5.24554 0
M  V30 3468 H 314.502 2.24765 5.56094 0
M  V30 3469 H 316.181 2.76817 5.84792 0
M  V30 3470 N 316.313 -1.40141 0.720998 0
M  V30 3471 C 317.561 -2.0039 0.262323 0
M  V30 3472 C 317.882 -1.57469 -1.15015 0
M  V30 3473 O 317.152 -0.816582 -1.78069 0
M  V30 3474 H 315.732 -0.741063 0.093996 0
M  V30 3475 H 318.394 -1.71398 0.927835 0
M  V30 3476 H 317.49 -3.10658 0.299671 0
M  V30 3477 N 317.792 -0.46758 -1.50504 0
M  V30 3478 C 319.038 0.0887532 -2.02606 0
M  V30 3479 C 319.371 1.39686 -1.34913 0
M  V30 3480 O 318.646 1.88644 -0.473694 0
M  V30 3481 C 318.929 0.276206 -3.59039 0
M  V30 3482 C 318.782 -1.05267 -4.37309 0
M  V30 3483 C 320.101 1.03235 -4.27821 0
M  V30 3484 H 317.22 0.0307814 -0.736357 0
M  V30 3485 H 319.862 -0.612485 -1.79857 0
M  V30 3486 H 318.012 0.8735 -3.78553 0
M  V30 3487 H 319.684 -1.68628 -4.29374 0
M  V30 3488 H 317.927 -1.65015 -4.01189 0
M  V30 3489 H 318.598 -0.875197 -5.45018 0
M  V30 3490 H 321.074 0.526111 -4.12761 0
M  V30 3491 H 319.95 1.1323 -5.37094 0
M  V30 3492 H 320.211 2.06806 -3.90748 0
M  V30 3493 N 319.27 1.56325 -0.20005 0
M  V30 3494 C 320.233 2.18084 0.705132 0
M  V30 3495 C 321.233 1.13666 1.1374 0
M  V30 3496 O 322.423 1.39023 1.04968 0
M  V30 3497 C 319.555 2.78689 1.96329 0
M  V30 3498 H 320.748 2.99435 0.167023 0
M  V30 3499 H 318.301 1.56221 0.0495725 0
M  V30 3500 H 319.036 2.0115 2.5438 0
M  V30 3501 H 318.821 3.55133 1.66202 0
M  V30 3502 H 320.311 3.26096 2.60866 0
M  V30 3503 N 320.748 -0.0735177 1.57428 0
M  V30 3504 C 321.996 -0.771472 1.86796 0
M  V30 3505 C 322.317 -1.78201 0.791804 0
M  V30 3506 O 321.587 -1.95074 -0.179718 0
M  V30 3507 H 320.167 -0.28791 0.689287 0
M  V30 3508 H 322.829 -0.0500161 1.94836 0
M  V30 3509 H 321.925 -1.28874 2.8425 0
M  V30 3510 N 322.226 -1.5378 -0.344866 0
M  V30 3511 C 323.451 -1.75211 -1.10977 0
M  V30 3512 C 323.876 -0.48936 -1.81623 0
M  V30 3513 O 323.234 0.557925 -1.72502 0
M  V30 3514 C 323.282 -2.93147 -2.09993 0
M  V30 3515 O 322.386 -2.63203 -3.17487 0
M  V30 3516 H 321.727 -0.581241 -0.321021 0
M  V30 3517 H 324.257 -2.00738 -0.395661 0
M  V30 3518 H 324.267 -3.19898 -2.53237 0
M  V30 3519 H 322.942 -3.84731 -1.5797 0
M  V30 3520 H 321.519 -2.47336 -2.79069 0
M  V30 3521 N 323.704 0.605807 -1.45491 0
M  V30 3522 C 324.932 1.39136 -1.5313 0
M  V30 3523 C 325.347 1.88082 -0.164507 0
M  V30 3524 O 324.704 1.62316 0.834247 0
M  V30 3525 C 324.755 2.59463 -2.51716 0
M  V30 3526 O 324.476 2.12551 -3.83084 0
M  V30 3527 C 325.977 3.52301 -2.6907 0
M  V30 3528 H 323.197 0.425849 -0.51855 0
M  V30 3529 H 325.741 0.73865 -1.90694 0
M  V30 3530 H 323.896 3.20772 -2.17219 0
M  V30 3531 H 324.31 2.90744 -4.36541 0
M  V30 3532 H 325.784 4.33271 -3.42024 0
M  V30 3533 H 326.261 4.02757 -1.75167 0
M  V30 3534 H 326.867 2.96845 -3.04571 0
M  V30 3535 N 325.182 1.32811 0.848464 0
M  V30 3536 C 326.412 1.26556 1.63301 0
M  V30 3537 C 326.82 -0.1676 1.88456 0
M  V30 3538 O 326.163 -1.11713 1.45828 0
M  V30 3539 C 326.225 1.96202 3.01239 0
M  V30 3540 C 325.889 3.45528 2.99098 0
M  V30 3541 C 326.886 4.40903 2.75501 0
M  V30 3542 C 324.571 3.87558 3.19537 0
M  V30 3543 C 326.565 5.76282 2.72356 0
M  V30 3544 C 324.252 5.23044 3.16019 0
M  V30 3545 C 325.25 6.17217 2.92458 0
M  V30 3546 O 324.938 7.50223 2.88825 0
M  V30 3547 H 324.67 0.43771 0.515156 0
M  V30 3548 H 327.224 1.7559 1.0657 0
M  V30 3549 H 325.454 1.41746 3.59785 0
M  V30 3550 H 327.143 1.83573 3.62016 0
M  V30 3551 H 327.909 4.09756 2.5947 0
M  V30 3552 H 323.788 3.14674 3.369 0
M  V30 3553 H 327.332 6.4976 2.53886 0
M  V30 3554 H 323.229 5.53818 3.31596 0
M  V30 3555 H 323.997 7.59657 3.04735 0
M  V30 3556 N 326.66 -1.06551 1.16123 0
M  V30 3557 C 327.906 -1.79567 0.94252 0
M  V30 3558 C 328.239 -1.86869 -0.528547 0
M  V30 3559 O 327.514 -1.35838 -1.39206 0
M  V30 3560 C 327.797 -3.24195 1.56747 0
M  V30 3561 C 327.65 -3.24989 3.10969 0
M  V30 3562 C 328.969 -4.21678 1.25998 0
M  V30 3563 H 326.088 -0.651883 0.343828 0
M  V30 3564 H 328.73 -1.2463 1.43413 0
M  V30 3565 H 326.88 -3.71107 1.14942 0
M  V30 3566 H 328.552 -2.86258 3.61737 0
M  V30 3567 H 326.795 -2.63716 3.44436 0
M  V30 3568 H 327.466 -4.27005 3.49815 0
M  V30 3569 H 329.942 -3.83196 1.62174 0
M  V30 3570 H 328.818 -5.21146 1.7233 0
M  V30 3571 H 329.079 -4.4174 0.178367 0
M  V30 3572 N 328.138 -0.959301 -1.25041 0
M  V30 3573 C 329.086 -0.474437 -2.2771 0
M  V30 3574 C 330.08 0.457697 -1.631 0
M  V30 3575 O 331.286 0.333912 -1.76876 0
M  V30 3576 H 327.661 -0.134936 -0.739795 0
M  V30 3577 H 329.632 -1.35251 -2.65988 0
M  V30 3578 C 328.381 0.227884 -3.46952 0
M  V30 3579 H 327.704 -0.480248 -3.96905 0
M  V30 3580 H 329.144 0.531091 -4.20661 0
M  V30 3581 C 327.603 1.452 -3.04004 0
M  V30 3582 O 328.133 2.54949 -3.10426 0
M  V30 3583 N 326.339 1.31502 -2.59144 0
M  V30 3584 H 325.886 0.422065 -2.54119 0
M  V30 3585 H 325.844 2.13521 -2.30773 0
M  V30 3586 N 329.616 1.39756 -0.72842 0
M  V30 3587 C 331.032 1.5442 -0.403308 0
M  V30 3588 C 331.232 1.69694 1.08656 0
M  V30 3589 O 330.288 1.69373 1.87267 0
M  V30 3590 C 331.601 2.76555 -1.18058 0
M  V30 3591 C 333.149 2.90384 -1.16815 0
M  V30 3592 C 333.624 4.15449 -1.92785 0
M  V30 3593 N 335.115 4.22475 -1.89918 0
M  V30 3594 C 335.85 5.1818 -2.45514 0
M  V30 3595 N 335.346 6.19714 -3.09719 0
M  V30 3596 N 337.139 5.1035 -2.35584 0
M  V30 3597 H 329.29 1.28089 -1.69431 0
M  V30 3598 H 331.553 0.620327 -0.716867 0
M  V30 3599 H 331.259 2.7159 -2.23455 0
M  V30 3600 H 331.133 3.69033 -0.780662 0
M  V30 3601 H 333.52 2.94846 -0.12234 0
M  V30 3602 H 333.601 1.98988 -1.6074 0
M  V30 3603 H 333.245 4.11749 -2.97364 0
M  V30 3604 H 333.175 5.05877 -1.46272 0
M  V30 3605 H 335.666 3.49743 -1.43138 0
M  V30 3606 H 335.979 6.8919 -3.49625 0
M  V30 3607 H 334.324 6.20121 -3.13807 0
M  V30 3608 H 337.515 4.2996 -1.85072 0
M  V30 3609 H 337.688 5.84761 -2.79211 0
M  V30 3610 N 331.094 0.475555 1.50254 0
M  V30 3611 C 332.34 -0.0780073 2.0265 0
M  V30 3612 C 332.673 -1.38968 1.35652 0
M  V30 3613 O 331.948 -1.8839 0.483691 0
M  V30 3614 C 332.231 -0.257161 3.59181 0
M  V30 3615 C 332.084 1.07585 4.36744 0
M  V30 3616 C 333.403 -1.00965 4.28362 0
M  V30 3617 H 330.522 -0.0268758 0.73651 0
M  V30 3618 H 333.164 0.622015 1.7953 0
M  V30 3619 H 331.314 -0.853412 3.79011 0
M  V30 3620 H 332.986 1.70902 4.28474 0
M  V30 3621 H 331.229 1.6714 4.00308 0
M  V30 3622 H 331.9 0.904088 5.44546 0
M  V30 3623 H 334.376 -0.504214 4.13034 0
M  V30 3624 H 333.252 -1.10381 5.37687 0
M  V30 3625 H 333.513 -2.04731 3.91839 0
M  V30 3626 N 332.573 -1.56217 0.208337 0
M  V30 3627 C 333.989 -1.58919 -0.14729 0
M  V30 3628 C 334.189 -1.22486 -1.59998 0
M  V30 3629 O 333.245 -0.953849 -2.3379 0
M  V30 3630 C 334.558 -3.00236 0.167048 0
M  V30 3631 C 336.106 -3.12813 0.108219 0
M  V30 3632 C 336.581 -4.56284 0.396049 0
M  V30 3633 N 338.072 -4.61912 0.345142 0
M  V30 3634 C 338.807 -5.70837 0.541523 0
M  V30 3635 N 338.303 -6.88178 0.798968 0
M  V30 3636 N 340.096 -5.60091 0.474867 0
M  V30 3637 H 332.247 -1.78177 1.15614 0
M  V30 3638 H 334.51 -0.827555 0.462446 0
M  V30 3639 H 334.216 -3.31499 1.1748 0
M  V30 3640 H 334.09 -3.7354 -0.524184 0
M  V30 3641 H 336.477 -2.81354 -0.890157 0
M  V30 3642 H 336.558 -2.41866 0.832729 0
M  V30 3643 H 336.202 -4.88458 1.3918 0
M  V30 3644 H 336.132 -5.25439 -0.349502 0
M  V30 3645 H 338.623 -3.77589 0.153316 0
M  V30 3646 H 338.936 -7.67095 0.93727 0
M  V30 3647 H 337.281 -6.89953 0.836013 0
M  V30 3648 H 340.472 -4.67297 0.274064 0
M  V30 3649 H 340.645 -6.44917 0.631326 0
M  V30 3650 N 334.051 0.0651679 -1.57465 0
M  V30 3651 C 334.981 1.07693 -2.07182 0
M  V30 3652 C 335.962 1.39962 -0.966673 0
M  V30 3653 O 337.147 1.49475 -1.2398 0
M  V30 3654 C 334.277 2.3885 -2.52127 0
M  V30 3655 C 333.231 2.20917 -3.66579 0
M  V30 3656 C 332.557 3.57515 -3.97601 0
M  V30 3657 C 333.857 1.62493 -4.9638 0
M  V30 3658 H 335.551 0.663199 -2.91962 0
M  V30 3659 H 333.097 0.317569 -1.40455 0
M  V30 3660 H 335.05 3.09928 -2.85522 0
M  V30 3661 H 333.774 2.82215 -1.64384 0
M  V30 3662 H 332.433 1.52279 -3.33477 0
M  V30 3663 H 332.081 3.98463 -3.06979 0
M  V30 3664 H 331.781 3.46353 -4.74672 0
M  V30 3665 H 333.305 4.30013 -4.33499 0
M  V30 3666 H 334.719 2.23445 -5.27963 0
M  V30 3667 H 333.116 1.62009 -5.77818 0
M  V30 3668 H 334.186 0.587041 -4.81333 0
M  V30 3669 N 335.529 1.53961 0.336706 0
M  V30 3670 C 336.461 1.78751 1.4346 0
M  V30 3671 C 337.474 0.669019 1.48418 0
M  V30 3672 O 338.663 0.945884 1.51378 0
M  V30 3673 C 335.763 1.87844 2.82078 0
M  V30 3674 C 334.936 3.17854 3.00479 0
M  V30 3675 C 333.995 3.17816 4.19379 0
M  V30 3676 O 333.021 3.91511 4.13168 0
M  V30 3677 N 334.223 2.40669 5.2826 0
M  V30 3678 H 336.988 2.73493 1.22563 0
M  V30 3679 H 334.549 1.53096 0.526625 0
M  V30 3680 H 336.541 1.85261 3.59806 0
M  V30 3681 H 335.111 1.00257 2.96086 0
M  V30 3682 H 334.331 3.33504 2.10163 0
M  V30 3683 H 335.619 4.03718 3.0966 0
M  V30 3684 H 335.017 1.8036 5.36178 0
M  V30 3685 H 333.574 2.43877 6.04456 0
M  V30 3686 N 337.007 -0.598083 1.45811 0
M  V30 3687 C 337.917 -1.73632 1.57763 0
M  V30 3688 C 338.933 -1.67763 0.461676 0
M  V30 3689 O 340.109 -1.87949 0.723685 0
M  V30 3690 C 337.174 -3.10114 1.55018 0
M  V30 3691 C 336.235 -3.27364 2.77726 0
M  V30 3692 C 335.468 -4.57334 2.75102 0
M  V30 3693 O 335.691 -5.40258 1.8297 0
M  V30 3694 O 334.625 -4.77502 3.66437 0
M  V30 3695 H 338.451 -1.66498 2.53992 0
M  V30 3696 H 336.036 -0.763308 1.28429 0
M  V30 3697 H 337.918 -3.9141 1.56129 0
M  V30 3698 H 336.593 -3.17718 0.619431 0
M  V30 3699 H 335.5 -2.45619 2.82174 0
M  V30 3700 H 336.833 -3.24641 3.69958 0
M  V30 3701 N 338.485 -1.33259 -0.841409 0
M  V30 3702 C 339.415 -1.25926 -1.96634 0
M  V30 3703 C 340.396 -0.140349 -1.6952 0
M  V30 3704 O 341.581 -0.329707 -1.91381 0
M  V30 3705 C 338.711 -0.99512 -3.32738 0
M  V30 3706 C 337.665 -2.0767 -3.74242 0
M  V30 3707 C 336.991 -1.66474 -5.08125 0
M  V30 3708 C 338.291 -3.49318 -3.88297 0
M  V30 3709 H 339.985 -2.20046 -2.03027 0
M  V30 3710 H 337.531 -1.05931 -0.975425 0
M  V30 3711 H 339.484 -0.930323 -4.11002 0
M  V30 3712 H 338.208 -0.0183004 -3.26595 0
M  V30 3713 H 336.867 -2.13187 -2.98239 0
M  V30 3714 H 336.515 -0.675012 -4.9845 0
M  V30 3715 H 336.215 -2.3885 -5.36865 0
M  V30 3716 H 337.739 -1.61455 -5.88867 0
M  V30 3717 H 339.153 -3.46316 -4.56879 0
M  V30 3718 H 337.55 -4.20158 -4.28471 0
M  V30 3719 H 338.62 -3.8801 -2.9082 0
M  V30 3720 N 339.963 1.05934 -1.16686 0
M  V30 3721 C 340.91 2.13499 -0.876748 0
M  V30 3722 C 341.88 1.65162 0.176299 0
M  V30 3723 O 343.065 1.90757 0.0407143 0
M  V30 3724 C 340.205 3.42912 -0.387967 0
M  V30 3725 C 339.318 4.04964 -1.50426 0
M  V30 3726 C 338.453 5.22266 -0.970125 0
M  V30 3727 C 337.492 5.76309 -2.06238 0
M  V30 3728 N 336.629 6.84922 -1.54356 0
M  V30 3729 H 341.469 2.37654 -1.7979 0
M  V30 3730 H 339.006 1.16598 -0.896843 0
M  V30 3731 H 340.964 4.17111 -0.086186 0
M  V30 3732 H 339.594 3.18963 0.496235 0
M  V30 3733 H 338.646 3.28277 -1.92193 0
M  V30 3734 H 339.958 4.41122 -2.32836 0
M  V30 3735 H 339.112 6.03506 -0.621743 0
M  V30 3736 H 337.851 4.87564 -0.115377 0
M  V30 3737 H 336.856 4.93704 -2.41942 0
M  V30 3738 H 338.081 6.13062 -2.92115 0
M  V30 3739 H 336.027 6.52131 -0.711406 0
M  V30 3740 H 335.944 7.20043 -2.30379 0
M  V30 3741 H 337.212 7.69832 -1.22387 0
M  V30 3742 N 341.441 0.965919 1.2453 0
M  V30 3743 C 342.404 0.499547 2.2369 0
M  V30 3744 C 343.404 -0.40294 1.5567 0
M  V30 3745 O 344.594 -0.19865 1.73064 0
M  V30 3746 C 341.726 -0.276792 3.39774 0
M  V30 3747 H 342.919 1.37613 2.66463 0
M  V30 3748 H 340.472 0.750324 1.37112 0
M  V30 3749 H 341.207 -1.17055 3.02438 0
M  V30 3750 H 340.992 0.370826 3.90343 0
M  V30 3751 H 342.482 -0.592175 4.1338 0
M  V30 3752 N 342.919 -1.39368 0.735821 0
M  V30 3753 C 343.849 -2.33234 0.111506 0
M  V30 3754 C 344.83 -1.53954 -0.723334 0
M  V30 3755 O 346.015 -1.82344 -0.668147 0
M  V30 3756 C 343.145 -3.38057 -0.795917 0
M  V30 3757 C 342.099 -4.2795 -0.065172 0
M  V30 3758 C 341.425 -5.23479 -1.08967 0
M  V30 3759 C 342.725 -5.10741 1.09273 0
M  V30 3760 H 344.419 -2.85692 0.895571 0
M  V30 3761 H 341.965 -1.37364 0.432109 0
M  V30 3762 H 343.918 -4.02675 -1.24221 0
M  V30 3763 H 342.642 -2.8404 -1.61211 0
M  V30 3764 H 341.301 -3.64813 0.361511 0
M  V30 3765 H 340.949 -4.65758 -1.89944 0
M  V30 3766 H 340.649 -5.84472 -0.605489 0
M  V30 3767 H 342.173 -5.90974 -1.53565 0
M  V30 3768 H 343.587 -5.68699 0.724841 0
M  V30 3769 H 341.984 -5.8088 1.50659 0
M  V30 3770 H 343.054 -4.45525 1.91404 0
M  V30 3771 N 344.397 -0.483516 -1.5 0
M  V30 3772 C 345.327 0.293829 -2.31644 0
M  V30 3773 C 346.308 0.978864 -1.39112 0
M  V30 3774 O 347.493 0.973644 -1.68029 0
M  V30 3775 C 344.623 1.36897 -3.19181 0
M  V30 3776 C 343.577 0.804833 -4.20365 0
M  V30 3777 C 342.903 1.9792 -4.96721 0
M  V30 3778 C 344.203 -0.192313 -5.21946 0
M  V30 3779 H 345.897 -0.387616 -2.9688 0
M  V30 3780 H 343.443 -0.187856 -1.42769 0
M  V30 3781 H 345.396 1.92037 -3.751 0
M  V30 3782 H 344.12 2.07936 -2.51853 0
M  V30 3783 H 342.779 0.275319 -3.65565 0
M  V30 3784 H 342.427 2.67686 -4.25856 0
M  V30 3785 H 342.127 1.60789 -5.65173 0
M  V30 3786 H 343.651 2.53526 -5.55479 0
M  V30 3787 H 345.065 0.270333 -5.72662 0
M  V30 3788 H 343.462 -0.478543 -5.98189 0
M  V30 3789 H 344.532 -1.11409 -4.71928 0
M  V30 3790 N 345.875 1.56104 -0.216619 0
M  V30 3791 C 346.805 2.23063 0.690296 0
M  V30 3792 C 347.786 1.20072 1.20485 0
M  V30 3793 O 348.971 1.48643 1.24976 0
M  V30 3794 C 346.101 2.90672 1.90072 0
M  V30 3795 C 345.055 4.00092 1.5202 0
M  V30 3796 C 344.381 4.54972 2.80899 0
M  V30 3797 C 345.681 5.17398 0.71391 0
M  V30 3798 H 347.375 2.99109 0.132038 0
M  V30 3799 H 344.921 1.43866 0.0620664 0
M  V30 3800 H 346.874 3.36204 2.54057 0
M  V30 3801 H 345.598 2.12066 2.48386 0
M  V30 3802 H 344.257 3.55283 0.903839 0
M  V30 3803 H 343.905 3.73102 3.37348 0
M  V30 3804 H 343.605 5.28817 2.56176 0
M  V30 3805 H 345.129 5.0322 3.45836 0
M  V30 3806 H 346.543 5.59342 1.25735 0
M  V30 3807 H 344.94 5.97444 0.563951 0
M  V30 3808 H 346.01 4.84088 -0.280527 0
M  V30 3809 N 347.353 -0.0568162 1.57498 0
M  V30 3810 C 348.263 -1.08346 2.08083 0
M  V30 3811 C 349.279 -1.41439 1.01346 0
M  V30 3812 O 350.455 -1.51316 1.32912 0
M  V30 3813 C 347.52 -2.37352 2.52715 0
M  V30 3814 C 346.581 -2.11093 3.73816 0
M  V30 3815 C 345.814 -3.33949 4.1631 0
M  V30 3816 O 346.037 -4.43622 3.58547 0
M  V30 3817 O 344.971 -3.21279 5.08983 0
M  V30 3818 H 348.797 -0.683667 2.95905 0
M  V30 3819 H 346.382 -0.271965 1.46904 0
M  V30 3820 H 348.264 -3.13246 2.81877 0
M  V30 3821 H 346.939 -2.76681 1.68016 0
M  V30 3822 H 345.846 -1.32856 3.49714 0
M  V30 3823 H 347.179 -1.76637 4.59413 0
M  V30 3824 N 348.832 -1.54138 -0.328536 0
M  V30 3825 C 349.795 -1.82462 -1.38709 0
M  V30 3826 C 350.795 -0.696229 -1.44946 0
M  V30 3827 O 351.985 -0.964535 -1.4506 0
M  V30 3828 C 349.117 -1.98018 -2.77492 0
M  V30 3829 H 350.31 -2.77037 -1.14851 0
M  V30 3830 H 347.863 -1.45779 -0.563751 0
M  V30 3831 H 348.598 -1.05637 -3.06613 0
M  V30 3832 H 348.383 -2.80124 -2.74359 0
M  V30 3833 H 349.873 -2.21396 -3.54081 0
M  V30 3834 N 350.31 0.590341 -1.46126 0
M  V30 3835 C 351.242 1.71427 -1.52136 0
M  V30 3836 C 352.255 1.57542 -0.41042 0
M  V30 3837 O 353.444 1.65106 -0.678389 0
M  V30 3838 C 350.544 3.09605 -1.37834 0
M  V30 3839 C 349.717 3.49566 -2.62912 0
M  V30 3840 C 348.776 4.66773 -2.42918 0
M  V30 3841 O 347.802 4.73019 -3.1661 0
M  V30 3842 N 349.004 5.61161 -1.4859 0
M  V30 3843 H 351.769 1.66728 -2.49042 0
M  V30 3844 H 349.33 0.776113 -1.42085 0
M  V30 3845 H 351.322 3.85796 -1.22243 0
M  V30 3846 H 349.892 3.08714 -0.491393 0
M  V30 3847 H 349.112 2.63158 -2.93499 0
M  V30 3848 H 350.4 3.73028 -3.46017 0
M  V30 3849 H 349.798 5.58844 -0.87808 0
M  V30 3850 H 348.355 6.36814 -1.38965 0
M  V30 3851 N 351.788 1.33704 0.83433 0
M  V30 3852 C 352.735 1.24335 1.94447 0
M  V30 3853 C 353.705 0.120991 1.65659 0
M  V30 3854 O 354.89 0.300035 1.88426 0
M  V30 3855 C 352.03 0.993124 3.30501 0
M  V30 3856 C 351.143 2.20217 3.71657 0
M  V30 3857 C 350.278 1.88572 4.96602 0
M  V30 3858 C 349.317 3.05683 5.30306 0
M  V30 3859 N 348.454 2.73997 6.46429 0
M  V30 3860 H 353.294 2.1928 2.01792 0
M  V30 3861 H 350.831 1.09035 0.987404 0
M  V30 3862 H 352.789 0.828467 4.08892 0
M  V30 3863 H 351.419 0.0803902 3.227 0
M  V30 3864 H 350.471 2.47642 2.88752 0
M  V30 3865 H 351.783 3.07752 3.92543 0
M  V30 3866 H 350.937 1.68776 5.82752 0
M  V30 3867 H 349.676 0.982799 4.77695 0
M  V30 3868 H 348.681 3.26088 4.42659 0
M  V30 3869 H 349.906 3.96737 5.51159 0
M  V30 3870 H 347.852 1.86268 6.28999 0
M  V30 3871 H 347.769 3.55064 6.67432 0
M  V30 3872 H 349.037 2.57679 7.35678 0
M  V30 3873 N 353.266 -1.05314 1.17247 0
M  V30 3874 C 354.514 -1.77941 0.958194 0
M  V30 3875 C 354.835 -1.88089 -0.514556 0
M  V30 3876 O 354.105 -1.39676 -1.37359 0
M  V30 3877 H 352.685 -0.659116 0.351533 0
M  V30 3878 H 355.347 -1.27166 1.47699 0
M  V30 3879 H 354.443 -2.79663 1.38546 0
M  V30 3880 N 354.744 -0.972509 -1.24016 0
M  V30 3881 C 356.155 -0.67517 -1.74064 0
M  V30 3882 C 356.506 0.808939 -1.78747 0
M  V30 3883 O 355.631 1.63286 -1.42009 0
M  V30 3884 C 356.226 -1.21889 -3.16115 0
M  V30 3885 C 354.785 -0.971358 -3.6365 0
M  V30 3886 C 353.932 -1.35134 -2.42145 0
M  V30 3887 H 356.883 -1.14727 -1.09651 0
M  V30 3888 H 356.904 -0.587489 -3.75937 0
M  V30 3889 H 356.416 -2.29906 -3.12674 0
M  V30 3890 H 354.517 0.0930686 -3.72484 0
M  V30 3891 H 354.63 -1.62039 -4.50866 0
M  V30 3892 H 352.994 -0.769751 -2.4279 0
M  V30 3893 H 353.777 -2.4411 -2.41381 0
M  V30 3894 N 356.222 1.38976 -0.743202 0
M  V30 3895 C 357.468 2.0064 -0.295189 0
M  V30 3896 C 357.801 1.5885 1.11716 0
M  V30 3897 O 357.076 0.821181 1.76315 0
M  V30 3898 C 357.359 3.578 -0.406318 0
M  V30 3899 C 357.212 4.09586 -1.85903 0
M  V30 3900 C 358.531 4.39616 0.206439 0
M  V30 3901 H 355.65 0.728935 -0.108733 0
M  V30 3902 H 358.292 1.65067 -0.940897 0
M  V30 3903 H 356.442 3.88235 0.143419 0
M  V30 3904 H 358.114 3.89837 -2.46627 0
M  V30 3905 H 356.357 3.6284 -2.3776 0
M  V30 3906 H 357.028 5.18708 -1.888 0
M  V30 3907 H 359.504 4.15273 -0.262283 0
M  V30 3908 H 358.38 5.48812 0.0983819 0
M  V30 3909 H 358.641 4.22754 1.2935 0
M  V30 3910 N 357.7 0.491464 1.49741 0
M  V30 3911 C 358.925 -0.0557177 2.07325 0
M  V30 3912 C 359.35 -1.30925 1.35056 0
M  V30 3913 O 358.708 -1.76733 0.404365 0
M  V30 3914 C 358.756 -0.302074 3.59333 0
M  V30 3915 O 357.86 -1.37868 3.88672 0
M  V30 3916 H 357.201 0.0219956 0.663636 0
M  V30 3917 H 359.731 0.688352 1.92673 0
M  V30 3918 H 359.741 -0.536464 4.04458 0
M  V30 3919 H 358.416 0.61383 4.11345 0
M  V30 3920 H 356.993 -1.12999 3.55367 0
M  V30 3921 N 359.178 -1.55987 0.224894 0
M  V30 3922 C 360.108 -2.23426 -0.678457 0
M  V30 3923 C 361.089 -1.20709 -1.19847 0
M  V30 3924 O 362.274 -1.49304 -1.24186 0
M  V30 3925 C 359.404 -2.91676 -1.88527 0
M  V30 3926 C 358.358 -4.00893 -1.49896 0
M  V30 3927 C 357.684 -4.56455 -2.78483 0
M  V30 3928 C 358.984 -5.17769 -0.686461 0
M  V30 3929 H 360.678 -2.99175 -0.116173 0
M  V30 3930 H 358.224 -1.43897 -0.054436 0
M  V30 3931 H 360.177 -3.37547 -2.5227 0
M  V30 3932 H 358.901 -2.1338 -2.47258 0
M  V30 3933 H 357.56 -3.55758 -0.884985 0
M  V30 3934 H 357.208 -3.74886 -3.35365 0
M  V30 3935 H 356.908 -5.30169 -2.53368 0
M  V30 3936 H 358.432 -5.05047 -3.43162 0
M  V30 3937 H 359.846 -5.60001 -1.22767 0
M  V30 3938 H 358.243 -5.97735 -0.532259 0
M  V30 3939 H 359.313 -4.83932 0.306196 0
M  V30 3940 N 360.656 0.0484629 -1.57525 0
M  V30 3941 C 361.588 1.08222 -2.02041 0
M  V30 3942 C 362.601 1.33621 -0.930012 0
M  V30 3943 O 363.79 1.3145 -1.20761 0
M  V30 3944 C 360.89 2.42818 -2.36416 0
M  V30 3945 C 360.063 2.37049 -3.67596 0
M  V30 3946 C 359.122 3.53937 -3.89378 0
M  V30 3947 O 358.148 3.34308 -4.60681 0
M  V30 3948 N 359.35 4.75126 -3.3352 0
M  V30 3949 H 362.115 0.702946 -2.9134 0
M  V30 3950 H 359.676 0.236745 -1.6016 0
M  V30 3951 H 361.668 3.197 -2.48141 0
M  V30 3952 H 360.238 2.72661 -1.52888 0
M  V30 3953 H 359.458 1.45395 -3.66407 0
M  V30 3954 H 360.746 2.30318 -4.53686 0
M  V30 3955 H 360.144 4.93976 -2.75688 0
M  V30 3956 H 358.701 5.49439 -3.50656 0
M  V30 3957 N 362.134 1.5431 0.320358 0
M  V30 3958 C 363.044 1.86946 1.41734 0
M  V30 3959 C 364.06 0.761689 1.56443 0
M  V30 3960 O 365.236 1.05629 1.71477 0
M  V30 3961 C 362.301 2.09293 2.76401 0
M  V30 3962 C 361.362 3.33082 2.70841 0
M  V30 3963 C 360.595 3.54353 3.99086 0
M  V30 3964 O 360.818 2.79002 4.97508 0
M  V30 3965 O 359.752 4.47838 4.0215 0
M  V30 3966 H 363.578 2.80232 1.17062 0
M  V30 3967 H 361.163 1.40255 0.514673 0
M  V30 3968 H 363.045 2.25303 3.56113 0
M  V30 3969 H 361.72 1.19194 3.00956 0
M  V30 3970 H 360.627 3.22454 1.89668 0
M  V30 3971 H 361.96 4.23249 2.5124 0
M  V30 3972 N 363.613 -0.582584 1.46437 0
M  V30 3973 C 364.576 -1.67366 1.56592 0
M  V30 3974 C 365.576 -1.54575 0.443072 0
M  V30 3975 O 366.766 -1.59191 0.707381 0
M  V30 3976 C 363.898 -3.06791 1.48634 0
M  V30 3977 H 365.091 -1.5972 2.5383 0
M  V30 3978 H 362.644 -0.800432 1.34249 0
M  V30 3979 H 363.379 -3.19993 0.526763 0
M  V30 3980 H 363.164 -3.17484 2.30101 0
M  V30 3981 H 364.654 -3.86218 1.58826 0
M  V30 3982 N 365.091 -1.34144 -0.827227 0
M  V30 3983 C 366.34 -1.25602 -1.5782 0
M  V30 3984 C 366.653 0.173445 -1.94829 0
M  V30 3985 O 367.859 0.380984 -2.68814 0
M  V30 3986 C 366.315 -2.20151 -2.84713 0
M  V30 3987 C 365.923 -3.68331 -2.55021 0
M  V30 3988 C 367.667 -2.20508 -3.62735 0
M  V30 3989 C 365.574 -4.54762 -3.78082 0
M  V30 3990 H 364.504 -0.466573 -0.592306 0
M  V30 3991 H 367.155 -1.59283 -0.911116 0
M  V30 3992 H 365.537 -1.79417 -3.53023 0
M  V30 3993 H 366.711 -4.17577 -1.94849 0
M  V30 3994 H 365.026 -3.7038 -1.90283 0
M  V30 3995 H 367.623 -2.82306 -4.54101 0
M  V30 3996 H 367.966 -1.20322 -3.98533 0
M  V30 3997 H 368.499 -2.59664 -3.01362 0
M  V30 3998 H 365.238 -5.55867 -3.47407 0
M  V30 3999 H 364.758 -4.10254 -4.37552 0
M  V30 4000 H 366.437 -4.69153 -4.45538 0
M  V30 4001 N 366.569 1.04691 -1.17803 0
M  V30 4002 C 367.985 1.29963 -0.926379 0
M  V30 4003 C 368.185 1.97251 0.411635 0
M  V30 4004 O 367.241 2.24922 1.14744 0
M  V30 4005 C 368.554 2.16447 -2.08737 0
M  V30 4006 C 370.102 2.29814 -2.12496 0
M  V30 4007 C 370.577 3.19661 -3.27995 0
M  V30 4008 N 372.068 3.27247 -3.27816 0
M  V30 4009 C 372.803 3.96906 -4.13827 0
M  V30 4010 N 372.299 4.6895 -5.09959 0
M  V30 4011 N 374.092 3.93122 -4.01761 0
M  V30 4012 H 366.243 0.594182 -2.0392 0
M  V30 4013 H 368.506 0.324649 -0.890678 0
M  V30 4014 H 368.212 1.74304 -3.05469 0
M  V30 4015 H 368.086 3.17103 -2.04268 0
M  V30 4016 H 370.473 2.71196 -1.16347 0
M  V30 4017 H 370.554 1.2877 -2.21025 0
M  V30 4018 H 370.198 2.78991 -4.24413 0
M  V30 4019 H 370.128 4.20722 -3.16703 0
M  V30 4020 H 372.619 2.75921 -2.58217 0
M  V30 4021 H 372.932 5.19679 -5.71974 0
M  V30 4022 H 371.277 4.67875 -5.13924 0
M  V30 4023 H 374.468 3.35967 -3.2595 0
M  V30 4024 H 374.641 4.47139 -4.6901 0
M  V30 4025 N 368.047 0.979072 1.23499 0
M  V30 4026 C 368.957 0.526431 2.28617 0
M  V30 4027 C 369.973 -0.418126 1.68901 0
M  V30 4028 O 371.149 -0.288372 1.99325 0
M  V30 4029 C 368.214 -0.165235 3.46306 0
M  V30 4030 C 367.275 0.82056 4.21385 0
M  V30 4031 C 366.508 0.161807 5.33455 0
M  V30 4032 O 366.731 -1.04742 5.60701 0
M  V30 4033 O 365.665 0.859708 5.95729 0
M  V30 4034 H 369.491 1.4006 2.69475 0
M  V30 4035 H 367.076 0.746643 1.29405 0
M  V30 4036 H 368.958 -0.553287 4.17752 0
M  V30 4037 H 367.633 -1.01419 3.07402 0
M  V30 4038 H 366.54 1.25929 3.52268 0
M  V30 4039 H 367.873 1.63828 4.64135 0
M  V30 4040 N 369.525 -1.3858 0.750561 0
M  V30 4041 C 370.457 -2.29057 0.0810714 0
M  V30 4042 C 371.47 -1.47596 -0.686973 0
M  V30 4043 O 372.659 -1.70495 -0.528563 0
M  V30 4044 C 369.759 -3.26475 -0.909247 0
M  V30 4045 C 368.932 -4.36945 -0.199478 0
M  V30 4046 C 367.991 -5.14572 -1.10011 0
M  V30 4047 O 367.017 -5.66321 -0.57177 0
M  V30 4048 N 368.219 -5.27262 -2.42849 0
M  V30 4049 H 370.984 -2.87153 0.858087 0
M  V30 4050 H 368.545 -1.50328 0.60109 0
M  V30 4051 H 370.537 -3.75285 -1.51471 0
M  V30 4052 H 369.107 -2.69298 -1.58736 0
M  V30 4053 H 368.327 -3.8981 0.586664 0
M  V30 4054 H 369.615 -5.07963 0.291783 0
M  V30 4055 H 369.013 -4.86763 -2.88233 0
M  V30 4056 H 367.57 -5.79456 -2.98453 0
M  V30 4057 N 371.003 -0.499398 -1.49478 0
M  V30 4058 C 371.966 0.268838 -2.27618 0
M  V30 4059 C 372.966 0.895383 -1.33565 0
M  V30 4060 O 374.156 0.760164 -1.56739 0
M  V30 4061 C 371.288 1.38559 -3.11471 0
M  V30 4062 H 372.481 -0.416812 -2.96989 0
M  V30 4063 H 370.034 -0.254313 -1.54217 0
M  V30 4064 H 370.769 2.10544 -2.46661 0
M  V30 4065 H 370.554 0.941797 -3.80621 0
M  V30 4066 H 372.044 1.92678 -3.70493 0
M  V30 4067 N 372.481 1.55866 -0.233164 0
M  V30 4068 C 373.706 2.03449 0.402906 0
M  V30 4069 C 374.131 1.11166 1.51736 0
M  V30 4070 O 373.489 0.101996 1.81013 0
M  V30 4071 C 373.537 3.49165 0.9009 0
M  V30 4072 O 372.641 3.60019 2.01147 0
M  V30 4073 H 371.982 0.657913 0.0897025 0
M  V30 4074 H 374.512 2.01493 -0.355201 0
M  V30 4075 H 374.522 3.89716 1.2077 0
M  V30 4076 H 373.197 4.15813 0.0852889 0
M  V30 4077 H 371.774 3.3136 1.71042 0
M  V30 4078 N 373.959 -0.0401083 1.57549 0
M  V30 4079 C 375.184 -0.748931 1.93406 0
M  V30 4080 C 375.609 -1.68686 0.832274 0
M  V30 4081 O 374.967 -1.80047 -0.212818 0
M  V30 4082 C 375.015 -1.4916 3.28304 0
M  V30 4083 O 374.119 -2.6042 3.19774 0
M  V30 4084 H 373.46 -0.202212 0.63246 0
M  V30 4085 H 375.99 0.00112086 2.046 0
M  V30 4086 H 376 -1.86395 3.62934 0
M  V30 4087 H 374.675 -0.80364 4.08062 0
M  V30 4088 H 373.252 -2.25808 2.96758 0
M  V30 4089 N 375.437 -1.54477 -0.31217 0
M  V30 4090 C 376.667 -1.76948 -1.06645 0
M  V30 4091 C 377.075 -0.523593 -1.81811 0
M  V30 4092 O 376.418 0.51578 -1.76311 0
M  V30 4093 C 376.48 -2.91668 -2.10166 0
M  V30 4094 C 376.144 -4.30165 -1.54296 0
M  V30 4095 C 377.141 -5.10603 -0.978793 0
M  V30 4096 C 374.826 -4.76738 -1.58196 0
M  V30 4097 C 376.82 -6.3573 -0.461048 0
M  V30 4098 C 374.507 -6.01831 -1.06034 0
M  V30 4099 C 375.505 -6.81161 -0.500844 0
M  V30 4100 O 375.193 -8.03899 0.0128958 0
M  V30 4101 H 374.925 -0.594088 -0.322546 0
M  V30 4102 H 377.479 -2.02213 -0.360441 0
M  V30 4103 H 375.709 -2.62001 -2.84416 0
M  V30 4104 H 377.398 -3.01817 -2.71406 0
M  V30 4105 H 378.164 -4.75771 -0.941651 0
M  V30 4106 H 374.043 -4.15027 -2.00683 0
M  V30 4107 H 377.587 -6.97596 -0.0236894 0
M  V30 4108 H 373.484 -6.36152 -1.09459 0
M  V30 4109 H 374.252 -8.18437 -0.101457 0
M  V30 4110 N 376.915 0.57481 -1.46744 0
M  V30 4111 C 378.14 1.36341 -1.56288 0
M  V30 4112 C 378.565 1.86954 -0.207347 0
M  V30 4113 O 377.923 1.62006 0.813871 0
M  V30 4114 C 377.971 2.52147 -2.57787 0
M  V30 4115 O 377.075 3.53834 -2.11838 0
M  V30 4116 H 376.416 0.405713 -0.525636 0
M  V30 4117 H 378.946 0.696453 -1.92382 0
M  V30 4118 H 378.956 2.98958 -2.77648 0
M  V30 4119 H 377.631 2.14663 -3.5622 0
M  V30 4120 H 376.208 3.1345 -2.01999 0
M  V30 4121 N 378.394 1.34581 0.820102 0
M  V30 4122 C 379.81 1.14325 1.11364 0
M  V30 4123 C 380.01 -0.0533648 2.01429 0
M  V30 4124 O 379.066 -0.728044 2.41776 0
M  V30 4125 C 380.379 2.43983 1.75764 0
M  V30 4126 C 381.927 2.50065 1.88246 0
M  V30 4127 C 382.402 3.79732 2.56061 0
M  V30 4128 N 383.893 3.80908 2.63558 0
M  V30 4129 C 384.628 4.77961 3.16766 0
M  V30 4130 N 384.124 5.85397 3.70517 0
M  V30 4131 N 385.917 4.65413 3.15194 0
M  V30 4132 H 378.068 2.11246 0.221096 0
M  V30 4133 H 380.331 0.934289 0.160649 0
M  V30 4134 H 380.037 3.31651 1.1705 0
M  V30 4135 H 379.911 2.57531 2.75604 0
M  V30 4136 H 382.298 1.62834 2.46108 0
M  V30 4137 H 382.379 2.40442 0.873006 0
M  V30 4138 H 382.023 4.67354 1.98853 0
M  V30 4139 H 381.953 3.86639 3.57516 0
M  V30 4140 H 384.444 3.03274 2.25463 0
M  V30 4141 H 384.757 6.55463 4.09376 0
M  V30 4142 H 383.102 5.89107 3.68752 0
M  V30 4143 H 386.293 3.80627 2.72471 0
M  V30 4144 H 386.466 5.41216 3.56356 0
M  V30 4145 N 379.872 -1.04064 1.18357 0
M  V30 4146 C 380.804 -2.12114 0.868358 0
M  V30 4147 C 381.817 -1.62247 -0.134045 0
M  V30 4148 O 383.006 -1.78253 0.0937933 0
M  V30 4149 C 380.106 -3.37773 0.276132 0
M  V30 4150 C 379.279 -4.16874 1.3242 0
M  V30 4151 C 378.338 -5.20861 0.747662 0
M  V30 4152 O 377.364 -5.51141 1.42239 0
M  V30 4153 N 378.566 -5.78715 -0.454823 0
M  V30 4154 H 381.331 -2.39748 1.79836 0
M  V30 4155 H 378.892 -1.20258 1.08396 0
M  V30 4156 H 380.884 -4.04513 -0.123133 0
M  V30 4157 H 379.454 -3.07581 -0.557895 0
M  V30 4158 H 378.674 -3.45456 1.89878 0
M  V30 4159 H 379.962 -4.66516 2.03078 0
M  V30 4160 H 379.36 -5.56415 -1.02073 0
M  V30 4161 H 377.917 -6.46921 -0.79601 0
M  V30 4162 N 381.35 -0.985608 -1.22978 0
M  V30 4163 C 382.282 -0.488154 -2.23941 0
M  V30 4164 C 383.295 0.41282 -1.57479 0
M  V30 4165 O 384.484 0.216121 -1.77187 0
M  V30 4166 C 381.584 0.312611 -3.37455 0
M  V30 4167 C 380.757 -0.582741 -4.33501 0
M  V30 4168 C 379.816 0.165064 -5.25941 0
M  V30 4169 O 378.842 -0.447077 -5.67442 0
M  V30 4170 N 380.044 1.44953 -5.62111 0
M  V30 4171 H 382.809 -1.3563 -2.67254 0
M  V30 4172 H 380.37 -0.859477 -1.37203 0
M  V30 4173 H 382.362 0.821357 -3.96277 0
M  V30 4174 H 380.932 1.0818 -2.93285 0
M  V30 4175 H 380.152 -1.27225 -3.73105 0
M  V30 4176 H 381.44 -1.19275 -4.94622 0
M  V30 4177 H 380.838 1.9683 -5.30353 0
M  V30 4178 H 379.395 1.90361 -6.23383 0
M  V30 4179 N 382.828 1.3818 -0.7579 0
M  V30 4180 C 384.244 1.5353 -0.435972 0
M  V30 4181 C 384.444 1.71961 1.05032 0
M  V30 4182 O 383.5 1.73307 1.83633 0
M  V30 4183 C 384.813 2.73989 -1.23898 0
M  V30 4184 C 386.361 2.87841 -1.22949 0
M  V30 4185 C 386.836 4.11266 -2.01554 0
M  V30 4186 N 388.327 4.18352 -1.98837 0
M  V30 4187 C 389.062 5.12856 -2.5645 0
M  V30 4188 N 388.558 6.13005 -3.22794 0
M  V30 4189 N 390.351 5.05238 -2.46356 0
M  V30 4190 H 382.502 1.24467 -1.7211 0
M  V30 4191 H 384.765 0.604982 -0.729864 0
M  V30 4192 H 384.471 2.66789 -2.29165 0
M  V30 4193 H 384.345 3.67294 -0.858764 0
M  V30 4194 H 386.732 2.9452 -0.184854 0
M  V30 4195 H 386.813 1.95534 -1.64924 0
M  V30 4196 H 386.457 4.05349 -3.06031 0
M  V30 4197 H 386.387 5.02661 -1.5697 0
M  V30 4198 H 388.878 3.46628 -1.50524 0
M  V30 4199 H 389.191 6.81619 -3.64165 0
M  V30 4200 H 387.536 6.13325 -3.2689 0
M  V30 4201 H 390.727 4.25938 -1.9415 0
M  V30 4202 H 390.9 5.78707 -2.91552 0
M  V30 4203 N 384.306 0.507319 1.49211 0
M  V30 4204 C 385.583 -0.0982702 1.95353 0
M  V30 4205 C 385.963 -1.53516 1.449 0
M  V30 4206 O 385.311 -2.18594 0.66551 0
M  V30 4207 C 385.521 -0.00440283 3.49 0
M  V30 4208 C 386.869 -0.175147 4.24239 0
M  V30 4209 O 387.893 -0.0792891 3.56112 0
M  V30 4210 O 386.752 -0.37276 5.45227 0
M  V30 4211 H 383.846 -0.0918236 0.821887 0
M  V30 4212 H 386.392 0.570307 1.5983 0
M  V30 4213 H 385.164 0.997402 3.78375 0
M  V30 4214 H 384.787 -0.712845 3.91158 0
M  V30 4215 N 385.784 -1.5574 0.241426 0
M  V30 4216 C 386.714 -2.24133 -0.654722 0
M  V30 4217 C 387.695 -1.21974 -1.1856 0
M  V30 4218 O 388.88 -1.50612 -1.22595 0
M  V30 4219 C 386.01 -2.93659 -1.85423 0
M  V30 4220 C 384.964 -4.0246 -1.45636 0
M  V30 4221 C 384.29 -4.59383 -2.73626 0
M  V30 4222 C 385.59 -5.18468 -0.631506 0
M  V30 4223 H 387.284 -2.99281 -0.0844353 0
M  V30 4224 H 384.83 -1.43947 -0.0391707 0
M  V30 4225 H 386.783 -3.40203 -2.48676 0
M  V30 4226 H 385.507 -2.15991 -2.44981 0
M  V30 4227 H 384.166 -3.56676 -0.847202 0
M  V30 4228 H 383.814 -3.78422 -3.3137 0
M  V30 4229 H 383.514 -5.32826 -2.4773 0
M  V30 4230 H 385.038 -5.08658 -3.37786 0
M  V30 4231 H 386.452 -5.61272 -1.1682 0
M  V30 4232 H 384.849 -5.98266 -0.468831 0
M  V30 4233 H 385.919 -4.8358 0.357506 0
M  V30 4234 N 387.262 0.0317525 -1.57568 0
M  V30 4235 C 388.212 1.04101 -2.02847 0
M  V30 4236 C 389.196 1.3219 -0.917317 0
M  V30 4237 O 390.388 1.31819 -1.18121 0
M  V30 4238 C 387.517 2.34295 -2.5092 0
M  V30 4239 C 386.603 2.09308 -3.68851 0
M  V30 4240 N 386.994 1.5437 -4.81667 0
M  V30 4241 C 385.292 2.39604 -3.76172 0
M  V30 4242 C 385.993 1.45126 -5.63306 0
M  V30 4243 N 384.969 1.92589 -5.08341 0
M  V30 4244 H 388.771 0.610217 -2.87495 0
M  V30 4245 H 386.285 0.238108 -1.60645 0
M  V30 4246 H 388.282 3.07404 -2.81617 0
M  V30 4247 H 386.942 2.78055 -1.67677 0
M  V30 4248 H 387.953 1.22678 -5.03161 0
M  V30 4249 H 384.63 2.86457 -3.03724 0
M  V30 4250 H 386.02 1.03163 -6.63933 0
M  V30 4251 N 388.74 1.54641 0.303973 0
M  V30 4252 C 389.688 1.86137 1.39484 0
M  V30 4253 C 390.682 0.734854 1.52631 0
M  V30 4254 O 391.888 0.918803 1.54784 0
M  V30 4255 H 388.263 0.590324 0.465856 0
M  V30 4256 H 390.234 2.77324 1.10154 0
M  V30 4257 C 388.983 2.12274 2.75382 0
M  V30 4258 H 388.306 2.98429 2.66046 0
M  V30 4259 H 389.746 2.38254 3.5073 0
M  V30 4260 C 388.205 0.920365 3.24085 0
M  V30 4261 O 388.735 0.139377 4.01458 0
M  V30 4262 N 386.941 0.726566 2.81371 0
M  V30 4263 H 386.488 1.36332 2.18567 0
M  V30 4264 H 386.446 -0.0763799 3.14307 0
M  V30 4265 N 390.218 -0.567019 1.47046 0
M  V30 4266 C 391.148 -1.68482 1.61667 0
M  V30 4267 C 392.129 -1.6358 0.466418 0
M  V30 4268 O 393.314 -1.81354 0.694574 0
M  V30 4269 C 390.444 -3.07124 1.62148 0
M  V30 4270 C 389.398 -3.26867 2.76301 0
M  V30 4271 C 388.724 -4.66196 2.61849 0
M  V30 4272 C 390.024 -3.13186 4.17986 0
M  V30 4273 H 391.718 -1.56502 2.5524 0
M  V30 4274 H 389.264 -0.751486 1.22836 0
M  V30 4275 H 391.217 -3.8516 1.70968 0
M  V30 4276 H 389.941 -3.2004 0.651287 0
M  V30 4277 H 388.6 -2.51237 2.66975 0
M  V30 4278 H 388.248 -4.75898 1.62879 0
M  V30 4279 H 387.948 -4.80356 3.38425 0
M  V30 4280 H 389.472 -5.46379 2.72584 0
M  V30 4281 H 390.886 -3.81049 4.2834 0
M  V30 4282 H 389.283 -3.3886 4.95272 0
M  V30 4283 H 390.353 -2.10057 4.3704 0
M  V30 4284 N 391.696 -1.35014 -0.812953 0
M  V30 4285 C 392.629 -1.21761 -1.93001 0
M  V30 4286 C 393.607 -0.10694 -1.62248 0
M  V30 4287 O 394.791 -0.273891 -1.865 0
M  V30 4288 C 391.918 -0.873404 -3.27245 0
M  V30 4289 C 390.964 -1.99523 -3.76952 0
M  V30 4290 S 391.797 -3.61009 -3.95516 0
M  V30 4291 C 392.953 -3.28651 -5.32672 0
M  V30 4292 H 393.186 -2.16315 -2.03948 0
M  V30 4293 H 390.719 -1.20156 -0.969631 0
M  V30 4294 H 392.677 -0.68161 -4.04802 0
M  V30 4295 H 391.338 0.053971 -3.14054 0
M  V30 4296 H 390.531 -1.70838 -4.74163 0
M  V30 4297 H 390.133 -2.14503 -3.06373 0
M  V30 4298 H 392.425 -2.81085 -6.1644 0
M  V30 4299 H 393.368 -4.25039 -5.66346 0
M  V30 4300 H 393.776 -2.6458 -4.98656 0
M  V30 4301 N 393.175 1.03435 -1.18907 0
M  V30 4302 C 394.421 1.77005 -0.989798 0
M  V30 4303 C 394.754 1.88205 0.478816 0
M  V30 4304 O 394.029 1.39481 1.35556 0
M  V30 4305 C 394.312 3.19925 -1.65287 0
M  V30 4306 C 394.165 3.1663 -3.19477 0
M  V30 4307 C 395.484 4.18189 -1.37134 0
M  V30 4308 H 392.603 0.642538 -0.360991 0
M  V30 4309 H 395.245 1.20784 -1.46667 0
M  V30 4310 H 393.395 3.67929 -1.24741 0
M  V30 4311 H 395.067 2.76567 -3.692 0
M  V30 4312 H 393.31 2.54491 -3.51307 0
M  V30 4313 H 393.981 4.1758 -3.61013 0
M  V30 4314 H 396.457 3.78761 -1.72276 0
M  V30 4315 H 395.333 5.16394 -1.86087 0
M  V30 4316 H 395.594 4.41112 -0.295424 0
M  V30 4317 N 394.653 0.992116 1.22453 0
M  V30 4318 C 395.93 0.583508 1.86694 0
M  V30 4319 C 396.31 -0.9392 1.89056 0
M  V30 4320 O 395.658 -1.82081 1.38053 0
M  V30 4321 C 395.868 1.20304 3.2761 0
M  V30 4322 C 397.216 1.30308 4.0411 0
M  V30 4323 O 398.24 1.15737 3.36873 0
M  V30 4324 O 397.099 1.53615 5.24466 0
M  V30 4325 H 394.193 0.198129 0.802916 0
M  V30 4326 H 396.739 1.08794 1.30238 0
M  V30 4327 H 395.511 2.24461 3.2052 0
M  V30 4328 H 395.134 0.684144 3.9167 0
M  V30 4329 N 396.131 -1.37776 0.765217 0
M  V30 4330 C 397.061 -2.32945 0.160953 0
M  V30 4331 C 398.042 -1.55454 -0.690516 0
M  V30 4332 O 399.227 -1.83721 -0.629318 0
M  V30 4333 C 396.357 -3.39669 -0.724031 0
M  V30 4334 C 395.311 -4.27992 0.0256173 0
M  V30 4335 C 394.637 -5.25673 -0.978383 0
M  V30 4336 C 395.937 -5.08309 1.20082 0
M  V30 4337 H 397.631 -2.83728 0.955969 0
M  V30 4338 H 395.177 -1.36416 0.461149 0
M  V30 4339 H 397.13 -4.05219 -1.15652 0
M  V30 4340 H 395.854 -2.87396 -1.5515 0
M  V30 4341 H 394.513 -3.63964 0.438812 0
M  V30 4342 H 394.161 -4.69682 -1.80022 0
M  V30 4343 H 393.861 -5.85625 -0.481378 0
M  V30 4344 H 395.385 -5.94098 -1.40995 0
M  V30 4345 H 396.799 -5.67034 0.845307 0
M  V30 4346 H 395.196 -5.77554 1.62947 0
M  V30 4347 H 396.266 -4.41365 2.00811 0
M  V30 4348 N 397.609 -0.515225 -1.4894 0
M  V30 4349 C 399.025 -0.172099 -1.58669 0
M  V30 4350 C 399.225 1.32405 -1.51892 0
M  V30 4351 O 398.281 2.10116 -1.40027 0
M  V30 4352 C 399.594 -0.761533 -2.90897 0
M  V30 4353 C 401.142 -0.728926 -3.04394 0
M  V30 4354 C 401.617 -1.29667 -4.39261 0
M  V30 4355 N 403.108 -1.25799 -4.4579 0
M  V30 4356 C 403.843 -1.66733 -5.48623 0
M  V30 4357 N 403.339 -2.15327 -6.58488 0
M  V30 4358 N 405.132 -1.58061 -5.39419 0
M  V30 4359 H 397.283 -1.48778 -1.51588 0
M  V30 4360 H 399.546 -0.617968 -0.718901 0
M  V30 4361 H 399.252 -1.81136 -3.01468 0
M  V30 4362 H 399.126 -0.230106 -3.76497 0
M  V30 4363 H 401.513 0.312098 -2.93445 0
M  V30 4364 H 401.594 -1.29766 -2.20442 0
M  V30 4365 H 401.238 -2.33655 -4.50963 0
M  V30 4366 H 401.168 -0.703752 -5.21876 0
M  V30 4367 H 403.659 -0.902102 -3.66975 0
M  V30 4368 H 403.972 -2.44594 -7.33071 0
M  V30 4369 H 402.317 -2.19311 -6.59491 0
M  V30 4370 H 405.508 -1.19906 -4.52482 0
M  V30 4371 H 405.681 -1.90284 -6.19432 0
M  V30 4372 N 399.087 1.5561 -0.249682 0
M  V30 4373 C 400.335 1.98618 0.373548 0
M  V30 4374 C 400.656 1.13919 1.58264 0
M  V30 4375 O 399.926 0.222637 1.94631 0
M  V30 4376 H 398.506 0.733571 0.141006 0
M  V30 4377 H 401.168 1.91748 -0.349117 0
M  V30 4378 H 400.264 3.04584 0.680796 0
M  V30 4379 N 400.565 -0.0233959 1.57583 0
M  V30 4380 C 401.495 -1.02162 2.09965 0
M  V30 4381 C 402.476 -1.3735 1.00344 0
M  V30 4382 O 403.661 -1.46135 1.27899 0
M  V30 4383 C 400.791 -2.32081 2.58371 0
M  V30 4384 C 399.745 -2.1112 3.72307 0
M  V30 4385 C 399.071 -3.46848 4.06941 0
M  V30 4386 C 400.371 -1.49276 5.00514 0
M  V30 4387 H 402.065 -0.585557 2.93618 0
M  V30 4388 H 399.611 -0.280218 1.41247 0
M  V30 4389 H 401.564 -3.02249 2.93639 0
M  V30 4390 H 400.288 -2.77758 1.71808 0
M  V30 4391 H 398.947 -1.43384 3.37397 0
M  V30 4392 H 398.595 -3.90184 3.17436 0
M  V30 4393 H 398.295 -3.33646 4.83688 0
M  V30 4394 H 399.819 -4.18369 4.44747 0
M  V30 4395 H 401.233 -2.09368 5.33702 0
M  V30 4396 H 399.63 -1.46632 5.8191 0
M  V30 4397 H 400.7 -0.459217 4.82721 0
M  V30 4398 N 402.043 -1.548 -0.295768 0
M  V30 4399 C 403.289 -1.74588 -1.03184 0
M  V30 4400 C 403.622 -0.532962 -1.86744 0
M  V30 4401 O 402.897 0.469872 -1.88739 0
M  V30 4402 C 403.18 -3.03791 -1.93347 0
M  V30 4403 C 403.033 -4.35392 -1.12933 0
M  V30 4404 C 404.352 -3.28892 -2.92435 0
M  V30 4405 H 401.471 -0.635221 -0.373715 0
M  V30 4406 H 404.113 -1.87519 -0.30606 0
M  V30 4407 H 402.263 -2.92898 -2.55232 0
M  V30 4408 H 403.935 -4.58211 -0.532943 0
M  V30 4409 H 402.178 -4.31642 -0.432168 0
M  V30 4410 H 402.849 -5.22074 -1.79284 0
M  V30 4411 H 405.325 -3.39429 -2.4068 0
M  V30 4412 H 404.201 -4.20603 -3.52682 0
M  V30 4413 H 404.462 -2.47437 -3.6637 0
M  V30 4414 N 403.521 0.559213 -1.47345 0
M  V30 4415 C 404.471 1.66192 -1.5609 0
M  V30 4416 C 405.455 1.55323 -0.419957 0
M  V30 4417 O 406.647 1.63839 -0.669762 0
M  V30 4418 C 403.776 3.0497 -1.57634 0
M  V30 4419 C 402.862 3.2105 -2.77106 0
M  V30 4420 N 403.253 3.07203 -4.01821 0
M  V30 4421 C 401.551 3.52046 -2.73825 0
M  V30 4422 C 402.252 3.25919 -4.81821 0
M  V30 4423 N 401.228 3.52161 -4.14106 0
M  V30 4424 H 405.03 1.54052 -2.5029 0
M  V30 4425 H 402.544 0.763914 -1.43311 0
M  V30 4426 H 404.541 3.84142 -1.61989 0
M  V30 4427 H 403.201 3.18224 -0.645281 0
M  V30 4428 H 404.212 2.84572 -4.32711 0
M  V30 4429 H 400.889 3.71839 -1.89848 0
M  V30 4430 H 402.279 3.20198 -5.90697 0
M  V30 4431 N 404.999 1.35443 0.805782 0
M  V30 4432 C 405.962 1.28301 1.89925 0
M  V30 4433 C 406.962 0.194285 1.59622 0
M  V30 4434 O 408.152 0.448036 1.6834 0
M  V30 4435 C 405.284 0.984997 3.2636 0
M  V30 4436 H 406.477 2.2553 1.97677 0
M  V30 4437 H 404.03 1.19979 1.00173 0
M  V30 4438 H 404.765 0.016603 3.24296 0
M  V30 4439 H 404.55 1.77269 3.4974 0
M  V30 4440 H 406.04 0.960651 4.064 0
M  V30 4441 N 406.477 -1.02803 1.19454 0
M  V30 4442 C 407.44 -2.09264 0.934955 0
M  V30 4443 C 408.44 -1.60576 -0.0849015 0
M  V30 4444 O 409.63 -1.73554 0.149933 0
M  V30 4445 C 406.762 -3.38482 0.40531 0
M  V30 4446 H 407.955 -2.33726 1.87916 0
M  V30 4447 H 405.508 -1.19426 1.00832 0
M  V30 4448 H 406.243 -3.19689 -0.544899 0
M  V30 4449 H 406.028 -3.75142 1.14065 0
M  V30 4450 H 407.518 -4.16894 0.242806 0
M  V30 4451 N 407.956 -0.998596 -1.21925 0
M  V30 4452 C 409.204 -0.676325 -1.90448 0
M  V30 4453 C 409.525 0.794719 -1.78071 0
M  V30 4454 O 408.795 1.5701 -1.17152 0
M  V30 4455 H 407.375 -0.247165 -0.704925 0
M  V30 4456 H 410.037 -1.26633 -1.48156 0
M  V30 4457 H 409.133 -0.943858 -2.97486 0
M  V30 4458 N 409.434 1.37368 -0.772513 0
M  V30 4459 C 410.845 1.8231 -0.402493 0
M  V30 4460 C 411.196 1.6436 1.07146 0
M  V30 4461 O 410.321 1.15514 1.82991 0
M  V30 4462 C 410.916 3.30979 -0.723776 0
M  V30 4463 C 409.475 3.74195 -0.406802 0
M  V30 4464 C 408.622 2.59885 -0.967218 0
M  V30 4465 H 411.573 1.25829 -0.967099 0
M  V30 4466 H 411.594 3.80499 -0.00870832 0
M  V30 4467 H 411.106 3.44011 -1.7966 0
M  V30 4468 H 409.207 3.66732 0.658673 0
M  V30 4469 H 409.32 4.7027 -0.915588 0
M  V30 4470 H 407.684 2.51674 -0.391416 0
M  V30 4471 H 408.467 2.7571 -2.04546 0
M  V30 4472 N 410.912 0.523116 1.48665 0
M  V30 4473 C 412.16 -0.0134497 2.02096 0
M  V30 4474 C 412.481 -1.35418 1.40311 0
M  V30 4475 O 411.751 -1.87543 0.566074 0
M  V30 4476 H 410.331 -0.00795915 0.746958 0
M  V30 4477 H 412.993 0.685388 1.82451 0
M  V30 4478 H 412.089 -0.126849 3.11842 0
M  V30 4479 N 412.39 -1.55475 0.257931 0
M  V30 4480 C 413.322 -2.19192 -0.669881 0
M  V30 4481 C 414.335 -1.17148 -1.1305 0
M  V30 4482 O 415.524 -1.43959 -1.05537 0
M  V30 4483 C 412.624 -2.79016 -1.92363 0
M  V30 4484 C 411.797 -4.06586 -1.61265 0
M  V30 4485 C 410.856 -4.50622 -2.7171 0
M  V30 4486 O 409.882 -5.16765 -2.38627 0
M  V30 4487 N 411.084 -4.19325 -4.01431 0
M  V30 4488 H 413.849 -2.99441 -0.124635 0
M  V30 4489 H 411.41 -1.6171 0.0783311 0
M  V30 4490 H 413.402 -3.05427 -2.65511 0
M  V30 4491 H 411.972 -2.0286 -2.37837 0
M  V30 4492 H 411.192 -3.87646 -0.715811 0
M  V30 4493 H 412.48 -4.89737 -1.37967 0
M  V30 4494 H 411.878 -3.66247 -4.31138 0
M  V30 4495 H 410.435 -4.50547 -4.7101 0
M  V30 4496 N 413.868 0.0150385 -1.57593 0
M  V30 4497 C 415.145 0.7392 -1.81094 0
M  V30 4498 C 415.525 1.92817 -0.859344 0
M  V30 4499 O 414.873 2.28301 0.095362 0
M  V30 4500 C 415.083 1.15907 -3.29191 0
M  V30 4501 C 416.431 1.56918 -3.9454 0
M  V30 4502 O 417.455 1.25328 -3.33424 0
M  V30 4503 O 416.314 2.15604 -5.02173 0
M  V30 4504 H 413.408 0.358631 -0.745193 0
M  V30 4505 H 415.954 -0.00926156 -1.69697 0
M  V30 4506 H 414.726 0.310921 -3.90063 0
M  V30 4507 H 414.349 1.96711 -3.45529 0
M  V30 4508 N 415.346 1.54954 0.287554 0
M  V30 4509 C 416.571 1.79209 1.04397 0
M  V30 4510 C 416.996 0.556431 1.79682 0
M  V30 4511 O 416.354 -0.493518 1.74454 0
M  V30 4512 C 416.402 3.00739 1.98969 0
M  V30 4513 O 415.506 2.74805 3.075 0
M  V30 4514 H 414.847 0.592755 0.299227 0
M  V30 4515 H 417.377 2.02068 0.320886 0
M  V30 4516 H 417.387 3.29077 2.4119 0
M  V30 4517 H 416.062 3.90329 1.43582 0
M  V30 4518 H 414.639 2.57523 2.69697 0
M  V30 4519 N 416.824 -0.551391 1.4764 0
M  V30 4520 C 418.072 -1.30572 1.54258 0
M  V30 4521 C 418.393 -1.93877 0.208963 0
M  V30 4522 O 417.663 -1.80234 -0.767619 0
M  V30 4523 H 416.243 -0.484894 0.568231 0
M  V30 4524 H 418.905 -0.643402 1.83974 0
M  V30 4525 H 418.001 -2.09621 2.31226 0
M  V30 4526 N 418.302 -1.35869 -0.798587 0
M  V30 4527 C 419.527 -1.32883 -1.59238 0
M  V30 4528 C 419.952 0.0894587 -1.87887 0
M  V30 4529 O 419.31 1.05869 -1.47178 0
M  V30 4530 C 419.358 -2.14892 -2.89575 0
M  V30 4531 O 418.462 -1.53512 -3.82763 0
M  V30 4532 H 417.803 -0.455236 -0.48338 0
M  V30 4533 H 420.333 -1.79024 -0.990539 0
M  V30 4534 H 420.343 -2.27139 -3.38928 0
M  V30 4535 H 419.018 -3.17998 -2.68049 0
M  V30 4536 H 417.595 -1.50153 -3.41334 0
M  V30 4537 N 419.78 1.02168 -1.19998 0
M  V30 4538 C 420.712 2.10705 -0.901994 0
M  V30 4539 C 421.725 1.6244 0.108216 0
M  V30 4540 O 422.914 1.78082 -0.12214 0
M  V30 4541 C 420.014 3.37291 -0.329834 0
M  V30 4542 C 419.187 4.14714 -1.39035 0
M  V30 4543 C 418.246 5.19606 -0.830432 0
M  V30 4544 O 417.272 5.48809 -1.50989 0
M  V30 4545 N 418.474 5.79366 0.362696 0
M  V30 4546 H 421.239 2.36856 -1.83628 0
M  V30 4547 H 418.8 1.18518 -1.10296 0
M  V30 4548 H 420.792 4.04657 0.0587633 0
M  V30 4549 H 419.362 3.0843 0.508891 0
M  V30 4550 H 418.582 3.42392 -1.9535 0
M  V30 4551 H 419.87 4.63226 -2.10474 0
M  V30 4552 H 419.268 5.57968 0.932081 0
M  V30 4553 H 417.825 6.48106 0.69299 0
M  V30 4554 N 421.258 1.00505 1.21394 0
M  V30 4555 C 422.221 0.570459 2.21987 0
M  V30 4556 C 423.221 -0.353211 1.56873 0
M  V30 4557 O 424.411 -0.14349 1.73608 0
M  V30 4558 C 421.543 -0.168555 3.40483 0
M  V30 4559 H 422.736 1.46021 2.6195 0
M  V30 4560 H 420.289 0.793565 1.34656 0
M  V30 4561 H 421.024 -1.07374 3.06009 0
M  V30 4562 H 420.809 0.494823 3.88965 0
M  V30 4563 H 422.299 -0.460362 4.15055 0
M  V30 4564 N 422.737 -1.36956 0.779787 0
M  V30 4565 C 423.985 -1.99097 0.347079 0
M  V30 4566 C 424.306 -1.62206 -1.08232 0
M  V30 4567 O 423.576 -0.891373 -1.74446 0
M  V30 4568 H 422.156 -0.736409 0.125342 0
M  V30 4569 H 424.818 -1.67308 0.999696 0
M  V30 4570 H 423.914 -3.09107 0.431162 0
M  V30 4571 N 424.215 -0.530993 -1.48385 0
M  V30 4572 C 425.44 0.000729535 -2.074 0
M  V30 4573 C 425.865 1.27298 -1.3848 0
M  V30 4574 O 425.223 1.75599 -0.451081 0
M  V30 4575 C 425.271 0.206697 -3.60007 0
M  V30 4576 O 424.375 1.27514 -3.92191 0
M  V30 4577 H 423.716 -0.039583 -0.662819 0
M  V30 4578 H 426.246 -0.739194 -1.9078 0
M  V30 4579 H 426.256 0.42904 -4.05738 0
M  V30 4580 H 424.931 -0.722675 -4.09573 0
M  V30 4581 H 423.508 1.03537 -3.58238 0
M  V30 4582 N 425.693 1.55336 -0.266172 0
M  V30 4583 C 427.104 1.85236 0.233315 0
M  V30 4584 C 427.455 1.18816 1.56132 0
M  V30 4585 O 426.58 0.473307 2.11161 0
M  V30 4586 C 427.175 3.36059 0.430113 0
M  V30 4587 C 425.734 3.66116 0.873842 0
M  V30 4588 C 424.881 2.77274 -0.0380016 0
M  V30 4589 H 427.832 1.51004 -0.488214 0
M  V30 4590 H 427.853 3.58681 1.26998 0
M  V30 4591 H 427.365 3.84373 -0.536588 0
M  V30 4592 H 425.466 3.23295 1.85233 0
M  V30 4593 H 425.579 4.73699 0.717358 0
M  V30 4594 H 423.943 2.50198 0.476759 0
M  V30 4595 H 424.726 3.284 -1.00042 0
M  V30 4596 N 427.171 -0.0066808 1.57599 0
M  V30 4597 C 428.582 -0.550379 1.78403 0
M  V30 4598 C 428.933 -1.74339 0.900014 0
M  V30 4599 O 428.058 -2.16166 0.100713 0
M  V30 4600 C 428.653 -1.00523 3.23544 0
M  V30 4601 C 427.212 -1.49428 3.45468 0
M  V30 4602 C 426.359 -0.442444 2.73748 0
M  V30 4603 H 429.31 0.219508 1.57175 0
M  V30 4604 H 429.331 -1.87157 3.31289 0
M  V30 4605 H 428.843 -0.136735 3.87859 0
M  V30 4606 H 426.944 -2.3839 2.86358 0
M  V30 4607 H 427.057 -1.52635 4.54136 0
M  V30 4608 H 425.421 -0.902578 2.38171 0
M  V30 4609 H 426.204 0.416973 3.40758 0
M  V30 4610 N 428.649 -1.55105 -0.279332 0
M  V30 4611 C 429.877 -1.7943 -1.03017 0
M  V30 4612 C 430.292 -0.564456 -1.80165 0
M  V30 4613 O 429.649 0.466326 -1.76442 0
M  V30 4614 C 429.7 -3.0155 -1.99374 0
M  V30 4615 O 429.421 -4.19784 -1.25352 0
M  V30 4616 C 430.922 -3.3843 -2.86321 0
M  V30 4617 H 428.142 -0.597882 -0.304594 0
M  V30 4618 H 430.686 -2.02105 -0.312035 0
M  V30 4619 H 428.841 -2.81019 -2.66659 0
M  V30 4620 H 429.255 -4.88781 -1.90246 0
M  V30 4621 H 430.729 -4.27066 -3.49741 0
M  V30 4622 H 431.206 -2.57549 -3.5576 0
M  V30 4623 H 431.812 -3.61197 -2.24536 0
M  V30 4624 N 430.127 0.543554 -1.4793 0
M  V30 4625 C 431.543 0.870806 -1.3375 0
M  V30 4626 C 431.743 1.9864 -0.338261 0
M  V30 4627 O 430.799 2.51305 0.245371 0
M  V30 4628 C 432.112 1.25114 -2.73435 0
M  V30 4629 C 433.66 1.3618 -2.81823 0
M  V30 4630 C 434.135 1.77563 -4.22179 0
M  V30 4631 N 435.626 1.8469 -4.24787 0
M  V30 4632 C 436.361 2.18067 -5.30315 0
M  V30 4633 N 435.857 2.49963 -6.46135 0
M  V30 4634 N 437.65 2.18958 -5.17701 0
M  V30 4635 H 429.801 -0.19275 -2.11524 0
M  V30 4636 H 432.064 -0.0235777 -0.947707 0
M  V30 4637 H 431.77 0.50514 -3.48053 0
M  V30 4638 H 431.644 2.20431 -3.06088 0
M  V30 4639 H 434.031 2.09859 -2.07468 0
M  V30 4640 H 434.112 0.390169 -2.52807 0
M  V30 4641 H 433.756 1.04449 -4.97044 0
M  V30 4642 H 433.686 2.75753 -4.48629 0
M  V30 4643 H 436.177 1.62372 -3.41239 0
M  V30 4644 H 436.49 2.74497 -7.22406 0
M  V30 4645 H 434.835 2.47513 -6.49432 0
M  V30 4646 H 438.026 1.93488 -4.2624 0
M  V30 4647 H 438.199 2.44639 -6.00047 0
M  V30 4648 N 431.605 1.3629 0.791371 0
M  V30 4649 C 432.882 1.20962 1.53712 0
M  V30 4650 C 433.262 -0.205021 2.10102 0
M  V30 4651 O 432.61 -1.21042 1.93807 0
M  V30 4652 C 432.82 2.29002 2.63361 0
M  V30 4653 C 434.168 2.65572 3.31295 0
M  V30 4654 O 435.192 2.2803 2.73643 0
M  V30 4655 O 434.051 3.3018 4.35481 0
M  V30 4656 H 431.145 0.47086 0.679867 0
M  V30 4657 H 433.691 1.48016 0.830021 0
M  V30 4658 H 432.463 3.2382 2.19674 0
M  V30 4659 H 432.086 2.03303 3.41692 0
M  V30 4660 N 433.083 -1.0153 1.20538 0
M  V30 4661 C 434.499 -1.27461 0.96051 0
M  V30 4662 C 434.699 -1.98273 -0.359193 0
M  V30 4663 O 433.755 -2.27886 -1.0874 0
M  V30 4664 C 435.068 -2.10837 2.14402 0
M  V30 4665 C 436.616 -2.24099 2.18515 0
M  V30 4666 C 437.091 -3.10852 3.36355 0
M  V30 4667 N 438.582 -3.18441 3.36377 0
M  V30 4668 C 439.317 -3.85795 4.24205 0
M  V30 4669 N 438.813 -4.55264 5.22213 0
M  V30 4670 N 440.606 -3.82331 4.12043 0
M  V30 4671 H 432.757 -0.539907 2.05423 0
M  V30 4672 H 435.02 -0.30092 0.898972 0
M  V30 4673 H 434.726 -1.66144 3.09983 0
M  V30 4674 H 434.6 -3.11576 2.12604 0
M  V30 4675 H 436.987 -2.68016 1.23497 0
M  V30 4676 H 437.068 -1.22865 2.24361 0
M  V30 4677 H 436.712 -2.6764 4.31661 0
M  V30 4678 H 436.642 -4.12177 3.27746 0
M  V30 4679 H 439.133 -2.68978 2.65442 0
M  V30 4680 H 439.446 -5.04331 5.85551 0
M  V30 4681 H 437.791 -4.54085 5.26148 0
M  V30 4682 H 440.982 -3.27207 3.34743 0
M  V30 4683 H 441.155 -4.34547 4.807 0
M  V30 4684 N 434.561 -1.01147 -1.20859 0
M  V30 4685 C 435.838 -0.613136 -1.85742 0
M  V30 4686 C 436.218 0.909004 -1.90526 0
M  V30 4687 O 435.566 1.79862 -1.40932 0
M  V30 4688 C 435.776 -1.255 -3.25654 0
M  V30 4689 C 437.124 -1.3672 -4.01986 0
M  V30 4690 O 438.148 -1.21082 -3.34989 0
M  V30 4691 O 437.007 -1.6194 -5.21956 0
M  V30 4692 H 434.101 -0.210878 -0.799662 0
M  V30 4693 H 436.647 -1.10853 -1.2849 0
M  V30 4694 H 435.419 -2.29532 -3.16908 0
M  V30 4695 H 435.042 -0.746369 -3.90532 0
M  V30 4696 N 436.039 1.36541 -0.78704 0
M  V30 4697 C 437.285 1.99599 -0.358872 0
M  V30 4698 C 437.618 1.62323 1.06606 0
M  V30 4699 O 436.893 0.876858 1.73613 0
M  V30 4700 C 437.176 3.56327 -0.519944 0
M  V30 4701 C 437.029 4.03464 -1.98839 0
M  V30 4702 C 438.348 4.4005 0.0664737 0
M  V30 4703 H 435.467 0.725107 -0.131869 0
M  V30 4704 H 438.109 1.6199 -0.992936 0
M  V30 4705 H 436.259 3.88495 0.0198321 0
M  V30 4706 H 437.931 3.81793 -2.58905 0
M  V30 4707 H 436.174 3.55092 -2.49183 0
M  V30 4708 H 436.845 5.12439 -2.05207 0
M  V30 4709 H 439.321 4.14228 -0.394267 0
M  V30 4710 H 438.197 5.48847 -0.0762682 0
M  V30 4711 H 438.458 4.26655 1.15835 0
M  V30 4712 N 437.518 0.538854 1.48102 0
M  V30 4713 C 438.795 -0.0568108 1.95517 0
M  V30 4714 C 439.175 -1.50408 1.48124 0
M  V30 4715 O 438.523 -2.17133 0.711727 0
M  V30 4716 C 438.733 0.0696262 3.48931 0
M  V30 4717 C 440.081 -0.0851202 4.24515 0
M  V30 4718 O 441.105 -0.0037347 3.562 0
M  V30 4719 O 439.964 -0.257025 5.45895 0
M  V30 4720 H 437.058 -0.0743695 0.823649 0
M  V30 4721 H 439.604 0.604081 1.58584 0
M  V30 4722 H 438.376 1.07744 3.76174 0
M  V30 4723 H 437.999 -0.629714 3.92582 0
M  V30 4724 N 438.996 -1.55193 0.274407 0
M  V30 4725 C 440.242 -1.99877 -0.343086 0
M  V30 4726 C 440.575 -1.16256 -1.55558 0
M  V30 4727 O 439.85 -0.232462 -1.93106 0
M  V30 4728 C 440.133 -3.52706 -0.725965 0
M  V30 4729 C 439.986 -4.47081 0.493818 0
M  V30 4730 C 441.305 -4.11422 -1.56268 0
M  V30 4731 H 438.424 -0.726625 -0.123229 0
M  V30 4732 H 441.066 -1.86136 0.38121 0
M  V30 4733 H 439.216 -3.64546 -1.34307 0
M  V30 4734 H 440.888 -4.47186 1.13237 0
M  V30 4735 H 439.131 -4.1877 1.13201 0
M  V30 4736 H 439.802 -5.51699 0.18217 0
M  V30 4737 H 442.278 -4.02855 -1.04151 0
M  V30 4738 H 441.154 -5.18568 -1.79939 0
M  V30 4739 H 441.415 -3.61607 -2.54348 0
M  V30 4740 N 440.474 -0.00167713 -1.576 0
M  V30 4741 C 441.404 0.988091 -2.11563 0
M  V30 4742 C 442.385 1.35736 -1.02517 0
M  V30 4743 O 443.57 1.44082 -1.30208 0
M  V30 4744 C 440.7 2.27941 -2.62031 0
M  V30 4745 C 439.654 2.0517 -3.75619 0
M  V30 4746 C 438.98 3.4033 -4.12407 0
M  V30 4747 C 440.28 1.41294 -5.02825 0
M  V30 4748 H 441.974 0.538771 -2.94513 0
M  V30 4749 H 439.52 0.257712 -1.41675 0
M  V30 4750 H 441.473 2.97539 -2.9841 0
M  V30 4751 H 440.197 2.74989 -1.76205 0
M  V30 4752 H 438.856 1.37998 -3.39635 0
M  V30 4753 H 438.504 3.85085 -3.23603 0
M  V30 4754 H 438.204 3.25909 -4.88935 0
M  V30 4755 H 439.728 4.1124 -4.51347 0
M  V30 4756 H 441.142 2.00851 -5.36965 0
M  V30 4757 H 439.539 1.37356 -5.84169 0
M  V30 4758 H 440.609 0.382362 -4.8339 0
M  V30 4759 N 441.952 1.55251 0.271103 0
M  V30 4760 C 443.177 1.80306 1.02491 0
M  V30 4761 C 443.602 0.575457 1.79081 0
M  V30 4762 O 442.96 -0.474987 1.74967 0
M  V30 4763 C 443.008 3.02832 1.95768 0
M  V30 4764 O 442.112 2.78051 3.04568 0
M  V30 4765 H 441.453 0.595896 0.292923 0
M  V30 4766 H 443.983 2.02397 0.299436 0
M  V30 4767 H 443.993 3.31616 2.37686 0
M  V30 4768 H 442.668 3.9183 1.39434 0
M  V30 4769 H 441.245 2.60369 2.66951 0
M  V30 4770 N 443.43 -0.535701 1.48216 0
M  V30 4771 C 444.393 -1.623 1.61838 0
M  V30 4772 C 445.393 -1.53087 0.492024 0
M  V30 4773 O 446.583 -1.5686 0.757668 0
M  V30 4774 C 443.715 -3.01907 1.58319 0
M  V30 4775 H 444.908 -1.51564 2.58783 0
M  V30 4776 H 442.461 -0.757317 1.36727 0
M  V30 4777 H 443.196 -3.18155 0.628299 0
M  V30 4778 H 442.981 -3.10003 2.40085 0
M  V30 4779 H 444.471 -3.80969 1.71033 0
M  V30 4780 N 444.908 -1.36708 -0.784132 0
M  V30 4781 C 445.871 -1.31307 -1.87859 0
M  V30 4782 C 446.871 -0.219654 -1.59293 0
M  V30 4783 O 448.061 -0.47476 -1.67606 0
M  V30 4784 C 445.193 -1.03679 -3.24751 0
M  V30 4785 H 446.386 -2.28647 -1.94064 0
M  V30 4786 H 443.939 -1.21558 -0.98252 0
M  V30 4787 H 444.674 -0.0681936 -3.24228 0
M  V30 4788 H 444.459 -1.82811 -3.46876 0
M  V30 4789 H 445.949 -1.02518 -4.04821 0
M  V30 4790 N 446.386 1.0089 -1.21074 0
M  V30 4791 C 447.316 2.1145 -0.990523 0
M  V30 4792 C 448.297 1.69897 0.0831699 0
M  V30 4793 O 449.482 1.94052 -0.0758853 0
M  V30 4794 C 446.612 3.42914 -0.550177 0
M  V30 4795 C 445.566 3.98244 -1.56799 0
M  V30 4796 C 444.892 5.25568 -0.984013 0
M  V30 4797 C 446.192 4.30752 -2.95381 0
M  V30 4798 H 447.886 2.3013 -1.91521 0
M  V30 4799 H 445.432 1.10592 -0.92225 0
M  V30 4800 H 447.385 4.19653 -0.383305 0
M  V30 4801 H 446.109 3.24014 0.41015 0
M  V30 4802 H 444.768 3.23621 -1.72236 0
M  V30 4803 H 444.416 5.02998 -0.0155216 0
M  V30 4804 H 444.116 5.63551 -1.66384 0
M  V30 4805 H 445.64 6.04955 -0.828378 0
M  V30 4806 H 447.054 4.98349 -2.8341 0
M  V30 4807 H 445.451 4.79869 -3.60341 0
M  V30 4808 H 446.521 3.39192 -3.46521 0
M  V30 4809 N 447.864 1.01787 1.20321 0
M  V30 4810 C 448.811 0.589197 2.23153 0
M  V30 4811 C 449.781 -0.391367 1.61423 0
M  V30 4812 O 450.966 -0.290518 1.88575 0
M  V30 4813 C 448.106 -0.0650747 3.45039 0
M  V30 4814 C 447.219 0.960207 4.21194 0
M  V30 4815 C 446.354 0.276854 5.30478 0
M  V30 4816 C 445.393 1.2888 5.98378 0
M  V30 4817 N 444.53 0.632031 6.99249 0
M  V30 4818 H 449.37 1.47071 2.59179 0
M  V30 4819 H 446.907 0.736192 1.27352 0
M  V30 4820 H 448.865 -0.461552 4.14639 0
M  V30 4821 H 447.495 -0.910233 3.09701 0
M  V30 4822 H 446.547 1.47484 3.50646 0
M  V30 4823 H 447.859 1.72977 4.67847 0
M  V30 4824 H 447.013 -0.175056 6.06447 0
M  V30 4825 H 445.752 -0.525004 4.84866 0
M  V30 4826 H 444.757 1.75109 5.21169 0
M  V30 4827 H 445.982 2.09196 6.46076 0
M  V30 4828 H 443.928 -0.149935 6.55829 0
M  V30 4829 H 443.845 1.33964 7.44036 0
M  V30 4830 H 445.113 0.203755 7.79234 0
M  V30 4831 N 449.342 -1.36122 0.79427 0
M  V30 4832 C 450.252 -2.33769 0.197296 0
M  V30 4833 C 451.268 -1.61276 -0.653153 0
M  V30 4834 O 452.444 -1.9323 -0.5678 0
M  V30 4835 C 449.509 -3.40474 -0.654098 0
M  V30 4836 C 448.57 -4.28759 0.215411 0
M  V30 4837 C 447.803 -5.30368 -0.595443 0
M  V30 4838 O 448.026 -5.40211 -1.83107 0
M  V30 4839 O 446.96 -6.019 0.00721351 0
M  V30 4840 H 450.786 -2.86597 1.00478 0
M  V30 4841 H 448.371 -1.38676 0.555818 0
M  V30 4842 H 450.253 -4.05703 -1.13944 0
M  V30 4843 H 448.928 -2.89937 -1.43938 0
M  V30 4844 H 447.835 -3.66554 0.747615 0
M  V30 4845 H 449.168 -4.82661 0.964332 0
M  V30 4846 N 450.82 -0.546701 -1.47814 0
M  V30 4847 C 451.752 0.244196 -2.27895 0
M  V30 4848 C 452.765 0.88911 -1.36377 0
M  V30 4849 O 453.954 0.764733 -1.61289 0
M  V30 4850 C 451.054 1.36252 -3.10304 0
M  V30 4851 C 450.227 0.816382 -4.29714 0
M  V30 4852 C 449.286 1.81789 -4.93801 0
M  V30 4853 O 448.312 1.36818 -5.52512 0
M  V30 4854 N 449.514 3.15085 -4.87547 0
M  V30 4855 H 452.279 -0.442694 -2.96412 0
M  V30 4856 H 449.84 -0.382095 -1.57327 0
M  V30 4857 H 451.832 2.03102 -3.50045 0
M  V30 4858 H 450.402 1.95281 -2.44099 0
M  V30 4859 H 449.622 -0.0285981 -3.9419 0
M  V30 4860 H 450.91 0.430668 -5.06974 0
M  V30 4861 H 450.308 3.54275 -4.41028 0
M  V30 4862 H 448.865 3.77522 -5.31339 0
M  V30 4863 N 452.299 1.55045 -0.282633 0
M  V30 4864 C 453.229 2.2579 0.595066 0
M  V30 4865 C 454.21 1.25074 1.15284 0
M  V30 4866 O 455.395 1.5381 1.18559 0
M  V30 4867 C 452.525 2.98472 1.77572 0
M  V30 4868 C 451.479 4.0618 1.34914 0
M  V30 4869 C 450.805 4.66477 2.6135 0
M  V30 4870 C 452.105 5.1996 0.493821 0
M  V30 4871 H 453.799 2.994 0.00505653 0
M  V30 4872 H 451.345 1.44 0.000992001 0
M  V30 4873 H 453.298 3.46677 2.39568 0
M  V30 4874 H 452.022 2.2241 2.39168 0
M  V30 4875 H 450.681 3.58797 0.752338 0
M  V30 4876 H 450.329 3.87074 3.2122 0
M  V30 4877 H 450.029 5.39207 2.33516 0
M  V30 4878 H 451.553 5.17435 3.24181 0
M  V30 4879 H 452.967 5.64172 1.01898 0
M  V30 4880 H 451.364 5.99299 0.310047 0
M  V30 4881 H 452.434 4.82462 -0.485593 0
M  V30 4882 N 453.777 0.010035 1.57597 0
M  V30 4883 C 455.002 -0.687021 1.95691 0
M  V30 4884 C 455.427 -1.65952 0.885519 0
M  V30 4885 O 454.785 -1.80633 -0.15543 0
M  V30 4886 C 454.833 -1.3864 3.32884 0
M  V30 4887 O 453.937 -2.50115 3.27897 0
M  V30 4888 H 453.278 -0.181989 0.638573 0
M  V30 4889 H 455.808 0.0662122 2.04493 0
M  V30 4890 H 455.818 -1.74754 3.6868 0
M  V30 4891 H 454.493 -0.673411 4.10412 0
M  V30 4892 H 453.07 -2.16253 3.03791 0
M  V30 4893 N 455.255 -1.55392 -0.262866 0
M  V30 4894 C 456.205 -1.85355 -1.32768 0
M  V30 4895 C 457.189 -0.713188 -1.44231 0
M  V30 4896 O 458.381 -0.974765 -1.47741 0
M  V30 4897 C 455.51 -2.13781 -2.68612 0
M  V30 4898 C 454.596 -3.34104 -2.61219 0
M  V30 4899 N 454.987 -4.53766 -2.2345 0
M  V30 4900 C 453.285 -3.36895 -2.92263 0
M  V30 4901 C 453.986 -5.35877 -2.26298 0
M  V30 4902 N 452.962 -4.74536 -2.65172 0
M  V30 4903 H 456.764 -2.75413 -1.02591 0
M  V30 4904 H 454.278 -1.55405 -0.471503 0
M  V30 4905 H 456.275 -2.33407 -3.45437 0
M  V30 4906 H 454.935 -1.25013 -2.99669 0
M  V30 4907 H 455.946 -4.79682 -1.95258 0
M  V30 4908 H 452.623 -2.58351 -3.27965 0
M  V30 4909 H 454.013 -6.41577 -1.99572 0
M  V30 4910 N 456.733 0.527833 -1.48498 0
M  V30 4911 C 457.958 1.313 -1.60546 0
M  V30 4912 C 458.383 1.86199 -0.26672 0
M  V30 4913 O 457.741 1.64513 0.761918 0
M  V30 4914 C 457.789 2.43818 -2.65678 0
M  V30 4915 O 456.893 3.46916 -2.22987 0
M  V30 4916 H 456.234 0.388784 -0.538277 0
M  V30 4917 H 458.764 0.634896 -1.945 0
M  V30 4918 H 458.774 2.89973 -2.87018 0
M  V30 4919 H 457.449 2.03222 -3.62869 0
M  V30 4920 H 456.026 3.06864 -2.11869 0
M  V30 4921 N 458.211 1.37122 0.776871 0
M  V30 4922 C 459.627 1.1781 1.07671 0
M  V30 4923 C 459.827 0.0107454 2.01497 0
M  V30 4924 O 458.883 -0.650756 2.4397 0
M  V30 4925 C 460.196 2.49451 1.67913 0
M  V30 4926 C 461.744 2.55927 1.80195 0
M  V30 4927 C 462.219 3.87686 2.43851 0
M  V30 4928 N 463.71 3.891 2.51307 0
M  V30 4929 C 464.445 4.87797 3.014 0
M  V30 4930 N 463.941 5.96888 3.51705 0
M  V30 4931 N 465.734 4.75205 3.00227 0
M  V30 4932 H 457.885 2.11843 0.153778 0
M  V30 4933 H 460.148 0.938927 0.130844 0
M  V30 4934 H 459.854 3.35207 1.06439 0
M  V30 4935 H 459.728 2.66169 2.67271 0
M  V30 4936 H 462.115 1.70582 2.40803 0
M  V30 4937 H 462.196 2.43097 0.796069 0
M  V30 4938 H 461.84 4.73444 1.83884 0
M  V30 4939 H 461.77 3.97817 3.45035 0
M  V30 4940 H 464.261 3.10293 2.157 0
M  V30 4941 H 464.574 6.68155 3.88316 0
M  V30 4942 H 462.919 6.0054 3.49824 0
M  V30 4943 H 466.11 3.89103 2.60224 0
M  V30 4944 H 466.283 5.52279 3.38957 0
M  V30 4945 N 459.689 -1.00246 1.21608 0
M  V30 4946 C 460.621 -2.09244 0.935401 0
M  V30 4947 C 461.634 -1.62592 -0.0823594 0
M  V30 4948 O 462.823 -1.77865 0.150456 0
M  V30 4949 C 459.923 -3.36724 0.383453 0
M  V30 4950 C 459.096 -4.1245 1.45615 0
M  V30 4951 C 458.155 -5.18219 0.912991 0
M  V30 4952 O 457.181 -5.46337 1.59701 0
M  V30 4953 N 458.383 -5.7987 -0.270478 0
M  V30 4954 H 461.148 -2.33905 1.87373 0
M  V30 4955 H 458.709 -1.16748 1.12167 0
M  V30 4956 H 460.701 -4.047 0.00562157 0
M  V30 4957 H 459.271 -3.09201 -0.459758 0
M  V30 4958 H 458.491 -3.39241 2.00772 0
M  V30 4959 H 459.779 -4.59819 2.17817 0
M  V30 4960 H 459.177 -5.59381 -0.843195 0
M  V30 4961 H 457.734 -6.49126 -0.589794 0
M  V30 4962 N 461.167 -1.02423 -1.1978 0
M  V30 4963 C 462.413 -0.719051 -1.89625 0
M  V30 4964 C 462.746 0.750083 -1.7913 0
M  V30 4965 O 462.021 1.54574 -1.18056 0
M  V30 4966 C 462.304 -1.16499 -3.40735 0
M  V30 4967 C 462.157 -2.695 -3.60125 0
M  V30 4968 C 463.476 -0.742166 -4.33797 0
M  V30 4969 H 460.595 -0.26269 -0.688595 0
M  V30 4970 H 463.237 -1.27333 -1.41018 0
M  V30 4971 H 461.387 -0.69341 -3.82262 0
M  V30 4972 H 463.059 -3.24569 -3.278 0
M  V30 4973 H 461.302 -3.10113 -3.03336 0
M  V30 4974 H 461.973 -2.95757 -4.66081 0
M  V30 4975 H 464.449 -1.1477 -3.99959 0
M  V30 4976 H 463.325 -1.08213 -5.38127 0
M  V30 4977 H 463.586 0.355747 -4.40666 0
M  V30 4978 N 462.645 1.35699 -0.801477 0
M  V30 4979 C 463.595 2.2728 -0.181073 0
M  V30 4980 C 464.579 1.47533 0.642098 0
M  V30 4981 O 465.771 1.69785 0.500193 0
M  V30 4982 C 462.9 3.36626 0.673612 0
M  V30 4983 C 461.986 4.23802 -0.159008 0
M  V30 4984 N 462.377 4.90879 -1.2195 0
M  V30 4985 C 460.675 4.45959 0.0602005 0
M  V30 4986 C 461.376 5.5546 -1.72738 0
M  V30 4987 N 460.352 5.33663 -1.03465 0
M  V30 4988 H 464.154 2.76632 -0.992582 0
M  V30 4989 H 461.668 1.49166 -0.642127 0
M  V30 4990 H 463.665 4.01179 1.13408 0
M  V30 4991 H 462.325 2.88828 1.48353 0
M  V30 4992 H 463.336 4.92497 -1.60209 0
M  V30 4993 H 460.013 4.08969 0.839664 0
M  V30 4994 H 461.403 6.18991 -2.61342 0
M  V30 4995 N 464.123 0.554532 1.47522 0
M  V30 4996 C 465.348 0.0322661 2.07375 0
M  V30 4997 C 465.773 -1.25079 1.40488 0
M  V30 4998 O 465.131 -1.74859 0.47896 0
M  V30 4999 C 465.179 -0.149397 3.6029 0
M  V30 5000 O 464.283 -1.21259 3.9417 0
M  V30 5001 H 463.624 0.0501228 0.662106 0
M  V30 5002 H 466.154 0.769452 1.8958 0
M  V30 5003 H 466.164 -0.364437 4.06369 0
M  V30 5004 H 464.839 0.787743 4.08372 0
M  V30 5005 H 463.416 -0.97825 3.5984 0
M  V30 5006 N 465.601 -1.54893 0.290851 0
M  V30 5007 C 466.841 -2.01842 -0.322388 0
M  V30 5008 C 467.205 -1.17477 -1.51865 0
M  V30 5009 O 468.406 -1.54077 -2.20258 0
M  V30 5010 C 466.677 -3.50874 -0.679844 0
M  V30 5011 S 468.236 -4.19796 -1.27739 0
M  V30 5012 H 465.054 -0.704005 -0.0994866 0
M  V30 5013 H 467.656 -1.91015 0.416358 0
M  V30 5014 H 466.36 -4.09915 0.199435 0
M  V30 5015 H 465.891 -3.65717 -1.44964 0
M  V30 5016 H 467.906 -4.24729 -2.56554 0
M  V30 5017 N 467.08 -0.0183926 -1.57589 0
M  V30 5018 C 468.01 0.965596 -2.12599 0
M  V30 5019 C 468.991 1.34641 -1.0395 0
M  V30 5020 O 470.176 1.42693 -1.31729 0
M  V30 5021 C 467.306 2.25149 -2.64434 0
M  V30 5022 C 466.26 2.01175 -3.77773 0
M  V30 5023 C 465.586 3.35937 -4.15994 0
M  V30 5024 C 466.886 1.35953 -5.04296 0
M  V30 5025 H 468.58 0.507504 -2.95067 0
M  V30 5026 H 466.126 0.242671 -1.41941 0
M  V30 5027 H 468.079 2.94357 -3.01549 0
M  V30 5028 H 466.803 2.73105 -1.79112 0
M  V30 5029 H 465.462 1.34388 -3.4108 0
M  V30 5030 H 465.11 3.81631 -3.27669 0
M  V30 5031 H 464.81 3.20705 -4.92364 0
M  V30 5032 H 466.334 4.0643 -4.55683 0
M  V30 5033 H 467.748 1.95144 -5.39065 0
M  V30 5034 H 466.145 1.31152 -5.85593 0
M  V30 5035 H 467.215 0.331071 -4.83768 0
M  V30 5036 N 468.558 1.5553 0.254621 0
M  V30 5037 C 469.468 1.92789 1.33677 0
M  V30 5038 C 470.484 0.827356 1.53071 0
M  V30 5039 O 471.66 1.12807 1.66843 0
M  V30 5040 C 468.725 2.20827 2.67275 0
M  V30 5041 C 467.786 3.4427 2.5647 0
M  V30 5042 C 467.019 3.70961 3.83697 0
M  V30 5043 O 467.242 2.99852 4.85227 0
M  V30 5044 O 466.176 4.64491 3.82794 0
M  V30 5045 H 470.002 2.84945 1.05071 0
M  V30 5046 H 467.587 1.42312 0.454723 0
M  V30 5047 H 469.469 2.40204 3.46237 0
M  V30 5048 H 468.144 1.31851 2.9563 0
M  V30 5049 H 467.051 3.30209 1.75821 0
M  V30 5050 H 468.384 4.33524 2.33062 0
M  V30 5051 N 470.036 -0.519951 1.48776 0
M  V30 5052 C 471.284 -1.2727 1.56993 0
M  V30 5053 C 471.605 -1.9339 0.25004 0
M  V30 5054 O 470.875 -1.81822 -0.729216 0
M  V30 5055 H 469.455 -0.472732 0.578389 0
M  V30 5056 H 472.117 -0.604234 1.85297 0
M  V30 5057 H 471.213 -2.04669 2.3562 0
M  V30 5058 N 471.514 -1.37532 -0.769588 0
M  V30 5059 C 472.444 -1.36172 -1.89682 0
M  V30 5060 C 473.425 -0.23001 -1.68538 0
M  V30 5061 O 474.61 -0.43069 -1.89364 0
M  V30 5062 C 471.74 -1.1701 -3.26995 0
M  V30 5063 C 470.694 -2.27216 -3.62708 0
M  V30 5064 C 470.02 -1.93174 -4.98586 0
M  V30 5065 C 471.32 -3.6941 -3.69234 0
M  V30 5066 H 473.014 -2.30499 -1.91078 0
M  V30 5067 H 470.56 -1.10953 -0.917902 0
M  V30 5068 H 472.513 -1.14688 -4.05493 0
M  V30 5069 H 471.237 -0.191395 -3.26039 0
M  V30 5070 H 469.896 -2.28697 -2.86519 0
M  V30 5071 H 469.544 -0.938281 -4.94171 0
M  V30 5072 H 469.244 -2.66973 -5.23449 0
M  V30 5073 H 470.768 -1.92443 -5.79481 0
M  V30 5074 H 472.182 -3.70047 -4.37879 0
M  V30 5075 H 470.579 -4.4228 -4.05597 0
M  V30 5076 H 471.649 -4.0288 -2.69844 0
M  V30 5077 N 472.992 0.995999 -1.22138 0
M  V30 5078 C 474.408 1.25917 -0.980667 0
M  V30 5079 C 474.608 1.98819 0.327604 0
M  V30 5080 O 473.664 2.29587 1.05101 0
M  V30 5081 C 474.977 2.07399 -2.17729 0
M  V30 5082 C 476.525 2.20594 -2.22052 0
M  V30 5083 C 477 3.05462 -3.41258 0
M  V30 5084 N 478.491 3.13049 -3.41401 0
M  V30 5085 C 479.226 3.78997 -4.30289 0
M  V30 5086 N 478.722 4.46899 -5.2939 0
M  V30 5087 N 480.515 3.75728 -4.18073 0
M  V30 5088 H 472.666 0.507158 -2.06256 0
M  V30 5089 H 474.929 0.28658 -0.903646 0
M  V30 5090 H 474.635 1.61191 -3.12586 0
M  V30 5091 H 474.509 3.08154 -2.17534 0
M  V30 5092 H 476.896 2.66017 -1.27745 0
M  V30 5093 H 476.977 1.1928 -2.26287 0
M  V30 5094 H 476.621 2.60739 -4.35864 0
M  V30 5095 H 476.551 4.06911 -3.34262 0
M  V30 5096 H 479.042 2.64721 -2.69688 0
M  V30 5097 H 479.355 4.94952 -5.935 0
M  V30 5098 H 477.7 4.45657 -5.33306 0
M  V30 5099 H 480.891 3.2184 -3.39907 0
M  V30 5100 H 481.064 4.26845 -4.87553 0
M  V30 5101 N 474.47 1.03057 1.19235 0
M  V30 5102 C 475.38 0.622922 2.26179 0
M  V30 5103 C 476.396 -0.346113 1.70523 0
M  V30 5104 O 477.572 -0.203572 2.00369 0
M  V30 5105 C 474.637 -0.0182063 3.46695 0
M  V30 5106 C 473.698 0.998546 4.17526 0
M  V30 5107 C 472.931 0.387917 5.32288 0
M  V30 5108 O 473.154 -0.808668 5.64639 0
M  V30 5109 O 472.088 1.1116 5.91546 0
M  V30 5110 H 475.914 1.51363 2.63292 0
M  V30 5111 H 473.499 0.800856 1.26122 0
M  V30 5112 H 475.381 -0.375606 4.19723 0
M  V30 5113 H 474.056 -0.882895 3.11427 0
M  V30 5114 H 472.963 1.40756 3.4661 0
M  V30 5115 H 474.296 1.83366 4.56769 0
M  V30 5116 N 475.948 -1.35272 0.808662 0
M  V30 5117 C 476.88 -2.28507 0.178149 0
M  V30 5118 C 477.893 -1.50377 -0.623754 0
M  V30 5119 O 479.082 -1.72583 -0.455774 0
M  V30 5120 C 476.182 -3.30038 -0.769959 0
M  V30 5121 C 475.355 -4.37398 -0.0139749 0
M  V30 5122 C 474.414 -5.18775 -0.880875 0
M  V30 5123 O 473.44 -5.68236 -0.331059 0
M  V30 5124 N 474.642 -5.37087 -2.20267 0
M  V30 5125 H 477.407 -2.83255 0.979106 0
M  V30 5126 H 474.968 -1.47643 0.664308 0
M  V30 5127 H 476.96 -3.81371 -1.35418 0
M  V30 5128 H 475.53 -2.75789 -1.47171 0
M  V30 5129 H 474.75 -3.86971 0.751468 0
M  V30 5130 H 476.038 -5.06268 0.506965 0
M  V30 5131 H 475.436 -4.9855 -2.67328 0
M  V30 5132 H 473.993 -5.91593 -2.73608 0
M  V30 5133 N 477.426 -0.562348 -1.47226 0
M  V30 5134 C 478.356 0.170627 -2.32876 0
M  V30 5135 C 479.337 0.903748 -1.44106 0
M  V30 5136 O 480.522 0.883206 -1.72954 0
M  V30 5137 C 477.652 1.19786 -3.25989 0
M  V30 5138 C 476.606 0.580875 -4.2404 0
M  V30 5139 C 475.932 1.71311 -5.06514 0
M  V30 5140 C 477.232 -0.468714 -5.20193 0
M  V30 5141 H 478.926 -0.544441 -2.94408 0
M  V30 5142 H 476.472 -0.263271 -1.41573 0
M  V30 5143 H 478.425 1.71884 -3.84752 0
M  V30 5144 H 477.149 1.94294 -2.62521 0
M  V30 5145 H 475.808 0.0811538 -3.6651 0
M  V30 5146 H 475.456 2.44736 -4.39447 0
M  V30 5147 H 475.156 1.30604 -5.72902 0
M  V30 5148 H 476.68 2.23725 -5.68137 0
M  V30 5149 H 478.094 -0.0336028 -5.7329 0
M  V30 5150 H 476.491 -0.794957 -5.94811 0
M  V30 5151 H 477.561 -1.36269 -4.65359 0
M  V30 5152 N 478.904 1.54736 -0.299062 0
M  V30 5153 C 480.181 1.92187 0.363802 0
M  V30 5154 C 480.561 1.22607 1.71845 0
M  V30 5155 O 479.909 0.361141 2.25628 0
M  V30 5156 C 480.119 3.45678 0.480377 0
M  V30 5157 C 481.467 4.17885 0.752147 0
M  V30 5158 O 482.491 3.51702 0.564264 0
M  V30 5159 O 481.35 5.35048 1.11294 0
M  V30 5160 H 478.444 0.801681 0.203066 0
M  V30 5161 H 480.99 1.66115 -0.346978 0
M  V30 5162 H 479.762 3.88443 -0.471999 0
M  V30 5163 H 479.385 3.77779 1.2397 0
M  V30 5164 N 480.382 0.0267497 1.57577 0
M  V30 5165 C 481.63 -0.651116 1.91324 0
M  V30 5166 C 481.951 -1.72804 0.90353 0
M  V30 5167 O 481.221 -1.95822 -0.0552946 0
M  V30 5168 H 479.801 -0.243491 0.706202 0
M  V30 5169 H 482.463 0.0739935 1.94759 0
M  V30 5170 H 481.559 -1.10536 2.9187 0
M  V30 5171 N 481.861 -1.55662 -0.24637 0
M  V30 5172 C 482.791 -1.93377 -1.30873 0
M  V30 5173 C 483.772 -0.798773 -1.50179 0
M  V30 5174 O 484.957 -1.0591 -1.62778 0
M  V30 5175 C 482.087 -2.22893 -2.66338 0
M  V30 5176 C 481.041 -3.38649 -2.61727 0
M  V30 5177 C 480.367 -3.53708 -4.00992 0
M  V30 5178 C 481.667 -4.74323 -2.18666 0
M  V30 5179 H 483.361 -2.82363 -0.995552 0
M  V30 5180 H 480.907 -1.35854 -0.477464 0
M  V30 5181 H 482.86 -2.47866 -3.40794 0
M  V30 5182 H 481.584 -1.30733 -2.99293 0
M  V30 5183 H 480.243 -3.13685 -1.89729 0
M  V30 5184 H 479.891 -2.58967 -4.31214 0
M  V30 5185 H 479.591 -4.31551 -3.98795 0
M  V30 5186 H 481.115 -3.81003 -4.77147 0
M  V30 5187 H 482.529 -4.98665 -2.82854 0
M  V30 5188 H 480.926 -5.55273 -2.27579 0
M  V30 5189 H 481.996 -4.71349 -1.13834 0
M  V30 5190 N 483.339 0.512053 -1.4905 0
M  V30 5191 C 484.249 1.64139 -1.67617 0
M  V30 5192 C 485.265 1.64786 -0.558701 0
M  V30 5193 O 486.441 1.8341 -0.832034 0
M  V30 5194 C 483.506 3.00548 -1.72835 0
M  V30 5195 C 482.567 3.10615 -2.96339 0
M  V30 5196 C 481.8 4.40517 -3.01298 0
M  V30 5197 O 482.023 5.28671 -2.14157 0
M  V30 5198 O 480.957 4.55325 -3.93653 0
M  V30 5199 H 484.783 1.51407 -2.63267 0
M  V30 5200 H 482.368 0.687131 -1.32661 0
M  V30 5201 H 484.25 3.81641 -1.78683 0
M  V30 5202 H 482.925 3.13566 -0.803616 0
M  V30 5203 H 481.832 2.2875 -2.96014 0
M  V30 5204 H 483.165 3.0252 -3.88256 0
M  V30 5205 N 484.817 1.37938 0.762283 0
M  V30 5206 C 485.764 1.34467 1.87583 0
M  V30 5207 C 486.734 0.208633 1.64785 0
M  V30 5208 O 487.919 0.399494 1.86571 0
M  V30 5209 C 485.059 1.16692 3.24772 0
M  V30 5210 C 484.172 2.39608 3.59461 0
M  V30 5211 C 483.307 2.14631 4.85908 0
M  V30 5212 C 482.346 3.33364 5.13357 0
M  V30 5213 N 481.483 3.07877 6.30996 0
M  V30 5214 H 486.323 2.29669 1.89885 0
M  V30 5215 H 483.86 1.14116 0.928219 0
M  V30 5216 H 485.818 1.04405 4.03925 0
M  V30 5217 H 484.448 0.251333 3.2182 0
M  V30 5218 H 483.5 2.626 2.75219 0
M  V30 5219 H 484.812 3.28128 3.75678 0
M  V30 5220 H 483.966 1.99429 5.72986 0
M  V30 5221 H 482.705 1.23463 4.71814 0
M  V30 5222 H 481.71 3.49094 4.24751 0
M  V30 5223 H 482.935 4.25395 5.29354 0
M  V30 5224 H 480.881 2.19348 6.18241 0
M  V30 5225 H 480.798 3.89944 6.47673 0
M  V30 5226 H 482.066 2.96313 7.20985 0
M  V30 5227 N 486.295 -0.989507 1.22664 0
M  V30 5228 C 487.523 -1.76496 1.07967 0
M  V30 5229 C 487.938 -1.85148 -0.369543 0
M  V30 5230 O 487.295 -1.32408 -1.25596 0
M  V30 5231 C 487.346 -3.19642 1.68853 0
M  V30 5232 O 487.067 -3.11453 3.08105 0
M  V30 5233 C 488.568 -4.13621 1.59475 0
M  V30 5234 H 485.788 -0.55418 0.378319 0
M  V30 5235 H 488.332 -1.24378 1.62328 0
M  V30 5236 H 486.487 -3.68816 1.18547 0
M  V30 5237 H 486.901 -4.01499 3.37489 0
M  V30 5238 H 488.375 -5.11801 2.06795 0
M  V30 5239 H 488.852 -4.35718 0.55191 0
M  V30 5240 H 489.458 -3.70346 2.09103 0
M  V30 5241 N 487.773 -1.03688 -1.18687 0
M  V30 5242 C 489.013 -0.746858 -1.90267 0
M  V30 5243 C 489.377 0.712075 -1.78307 0
M  V30 5244 O 490.578 1.11553 -2.44559 0
M  V30 5245 C 488.849 -1.19543 -3.36815 0
M  V30 5246 S 490.408 -1.03047 -4.26529 0
M  V30 5247 H 487.226 -0.271663 -0.657054 0
M  V30 5248 H 489.828 -1.32838 -1.43437 0
M  V30 5249 H 488.532 -2.2527 -3.43047 0
M  V30 5250 H 488.063 -0.607533 -3.88681 0
M  V30 5251 H 490.078 0.0543232 -4.9617 0
M  V30 5252 N 489.251 1.34841 -0.815825 0
M  V30 5253 C 490.476 2.03261 -0.41226 0
M  V30 5254 C 490.901 1.61055 0.971751 0
M  V30 5255 O 490.259 0.7917 1.63101 0
M  V30 5256 C 490.307 3.56914 -0.514289 0
M  V30 5257 O 489.411 4.09728 0.468675 0
M  V30 5258 H 488.752 0.641664 -0.170771 0
M  V30 5259 H 491.282 1.72241 -1.10427 0
M  V30 5260 H 491.292 4.06156 -0.387457 0
M  V30 5261 H 489.967 3.86982 -1.52375 0
M  V30 5262 H 488.544 3.71681 0.301316 0
M  V30 5263 N 490.729 0.570148 1.46925 0
M  V30 5264 C 491.661 -0.207909 2.28255 0
M  V30 5265 C 492.674 -0.867301 1.37774 0
M  V30 5266 O 493.863 -0.738976 1.62485 0
M  V30 5267 C 490.963 -1.31298 3.12433 0
M  V30 5268 C 490.136 -0.747915 4.30958 0
M  V30 5269 C 489.195 -1.7391 4.9663 0
M  V30 5270 O 488.221 -1.2801 5.54619 0
M  V30 5271 N 489.423 -3.07288 4.92498 0
M  V30 5272 H 492.188 0.489794 2.95671 0
M  V30 5273 H 489.749 0.407076 1.56699 0
M  V30 5274 H 491.741 -1.97507 3.53232 0
M  V30 5275 H 490.311 -1.91373 2.47175 0
M  V30 5276 H 489.531 0.0913066 3.94094 0
M  V30 5277 H 490.819 -0.349958 5.07595 0
M  V30 5278 H 490.217 -3.47213 4.46609 0
M  V30 5279 H 488.774 -3.69021 5.37277 0
M  V30 5280 N 492.207 -1.54576 0.307264 0
M  V30 5281 C 493.14 -2.19946 -0.608195 0
M  V30 5282 C 494.118 -1.17096 -1.12815 0
M  V30 5283 O 495.302 -1.45766 -1.19518 0
M  V30 5284 C 492.429 -2.84826 -1.8328 0
M  V30 5285 C 491.475 -4.01256 -1.44554 0
M  V30 5286 S 492.308 -5.33197 -0.49612 0
M  V30 5287 C 493.464 -6.01563 -1.72838 0
M  V30 5288 H 493.697 -2.97253 -0.0528544 0
M  V30 5289 H 491.23 -1.54129 0.0913837 0
M  V30 5290 H 493.188 -3.22832 -2.53554 0
M  V30 5291 H 491.849 -2.07353 -2.35931 0
M  V30 5292 H 491.042 -4.45457 -2.35762 0
M  V30 5293 H 490.644 -3.6484 -0.822671 0
M  V30 5294 H 492.936 -6.22751 -2.6681 0
M  V30 5295 H 493.879 -6.9552 -1.32882 0
M  V30 5296 H 494.287 -5.31279 -1.90795 0
M  V30 5297 N 493.685 -0.035106 -1.57561 0
M  V30 5298 C 494.648 0.929819 -2.09492 0
M  V30 5299 C 495.648 1.25026 -1.01119 0
M  V30 5300 O 496.838 1.18961 -1.27255 0
M  V30 5301 C 493.97 2.24457 -2.56577 0
M  V30 5302 H 495.163 0.479935 -2.96035 0
M  V30 5303 H 492.716 0.213033 -1.54841 0
M  V30 5304 H 493.451 2.74061 -1.73382 0
M  V30 5305 H 493.236 2.02508 -3.35757 0
M  V30 5306 H 494.726 2.93607 -2.96959 0
M  V30 5307 N 495.163 1.55791 0.238111 0
M  V30 5308 C 496.411 1.77681 0.963001 0
M  V30 5309 C 496.732 0.600674 1.85518 0
M  V30 5310 O 496.002 -0.383182 1.92116 0
M  V30 5311 H 494.582 0.655315 0.358568 0
M  V30 5312 H 497.244 1.93239 0.253945 0
M  V30 5313 H 496.34 2.69177 1.57956 0
M  V30 5314 N 496.642 -0.504142 1.49319 0
M  V30 5315 C 497.888 -1.26033 1.58882 0
M  V30 5316 C 498.221 -1.92268 0.273274 0
M  V30 5317 O 497.496 -1.80567 -0.72291 0
M  V30 5318 C 497.779 -2.32976 2.7458 0
M  V30 5319 C 497.632 -1.71263 4.1592 0
M  V30 5320 C 498.951 -3.34561 2.85932 0
M  V30 5321 H 496.07 -0.456863 0.578312 0
M  V30 5322 H 498.712 -0.558965 1.81592 0
M  V30 5323 H 496.862 -2.92796 2.55348 0
M  V30 5324 H 498.534 -1.15294 4.4666 0
M  V30 5325 H 496.777 -1.01686 4.21714 0
M  V30 5326 H 497.448 -2.48816 4.92742 0
M  V30 5327 H 499.924 -2.84727 3.0343 0
M  V30 5328 H 498.8 -4.06754 3.68568 0
M  V30 5329 H 499.061 -3.96695 1.95154 0
M  V30 5330 N 498.12 -1.38341 -0.754957 0
M  V30 5331 C 499.366 -1.34672 -1.51628 0
M  V30 5332 C 499.699 0.0636036 -1.94096 0
M  V30 5333 O 498.974 1.0245 -1.6533 0
M  V30 5334 C 499.257 -2.30116 -2.76981 0
M  V30 5335 C 499.11 -3.80003 -2.4066 0
M  V30 5336 C 500.429 -2.23715 -3.78998 0
M  V30 5337 H 497.548 -0.490517 -0.550056 0
M  V30 5338 H 500.19 -1.69178 -0.864807 0
M  V30 5339 H 498.34 -2.00821 -3.3257 0
M  V30 5340 H 500.012 -4.19966 -1.90856 0
M  V30 5341 H 498.255 -3.97751 -1.73137 0
M  V30 5342 H 498.926 -4.42244 -3.30339 0
M  V30 5343 H 501.402 -2.49574 -3.32945 0
M  V30 5344 H 500.278 -2.9261 -4.64403 0
M  V30 5345 H 500.539 -1.23554 -4.24484 0
M  V30 5346 N 499.598 0.982988 -1.23187 0
M  V30 5347 C 500.53 2.07729 -0.968572 0
M  V30 5348 C 501.543 1.62702 0.0564821 0
M  V30 5349 O 502.732 1.77603 -0.178733 0
M  V30 5350 C 499.832 3.36071 -0.436974 0
M  V30 5351 C 499.005 4.10081 -1.52159 0
M  V30 5352 C 498.064 5.16701 -0.99532 0
M  V30 5353 O 497.09 5.43727 -1.68373 0
M  V30 5354 N 498.292 5.80226 0.178192 0
M  V30 5355 H 501.057 2.30894 -1.9107 0
M  V30 5356 H 498.618 1.14949 -1.1401 0
M  V30 5357 H 500.61 4.04639 -0.0700051 0
M  V30 5358 H 499.18 3.09893 0.410509 0
M  V30 5359 H 498.4 3.36004 -2.06144 0
M  V30 5360 H 499.688 4.56295 -2.25105 0
M  V30 5361 H 499.086 5.60651 0.754096 0
M  V30 5362 H 497.643 6.49982 0.486449 0
M  V30 5363 N 501.076 1.04316 1.18135 0
M  V30 5364 C 502.006 0.657299 2.24058 0
M  V30 5365 C 502.987 -0.340678 1.66654 0
M  V30 5366 O 504.172 -0.220223 1.92947 0
M  V30 5367 C 501.302 0.0220715 3.47293 0
M  V30 5368 C 500.256 0.943857 4.17463 0
M  V30 5369 C 499.582 0.172973 5.3442 0
M  V30 5370 C 500.882 2.26409 4.70677 0
M  V30 5371 H 502.576 1.5428 2.56589 0
M  V30 5372 H 500.122 0.743263 1.23335 0
M  V30 5373 H 502.075 -0.259607 4.206 0
M  V30 5374 H 500.799 -0.898323 3.14003 0
M  V30 5375 H 499.458 1.20996 3.46057 0
M  V30 5376 H 499.106 -0.749907 4.97379 0
M  V30 5377 H 498.806 0.787098 5.82304 0
M  V30 5378 H 500.33 -0.101628 6.10515 0
M  V30 5379 H 501.744 2.04294 5.35665 0
M  V30 5380 H 500.141 2.8314 5.29105 0
M  V30 5381 H 501.211 2.90883 3.87962 0
M  V30 5382 N 502.554 -1.34406 0.822964 0
M  V30 5383 C 503.8 -1.98578 0.411666 0
M  V30 5384 C 504.133 -1.65093 -1.02264 0
M  V30 5385 O 503.408 -0.92258 -1.71227 0
M  V30 5386 C 503.691 -3.54823 0.614235 0
M  V30 5387 C 503.544 -3.9805 2.09466 0
M  V30 5388 C 504.863 -4.40071 0.050221 0
M  V30 5389 H 501.982 -0.721355 0.151047 0
M  V30 5390 H 504.624 -1.59301 1.03554 0
M  V30 5391 H 502.774 -3.88411 0.0831774 0
M  V30 5392 H 504.446 -3.74795 2.68936 0
M  V30 5393 H 502.689 -3.4836 2.5851 0
M  V30 5394 H 503.36 -5.06819 2.18721 0
M  V30 5395 H 505.836 -4.13037 0.503953 0
M  V30 5396 H 504.712 -5.48452 0.221759 0
M  V30 5397 H 504.973 -4.29576 -1.04482 0
M  V30 5398 N 504.032 -0.577932 -1.46621 0
M  V30 5399 C 504.979 0.158048 -2.30258 0
M  V30 5400 C 505.949 0.888669 -1.40328 0
M  V30 5401 O 507.134 0.880283 -1.6928 0
M  V30 5402 C 504.274 1.16884 -3.24703 0
M  V30 5403 C 503.387 0.442163 -4.29731 0
M  V30 5404 C 502.522 1.44007 -5.11308 0
M  V30 5405 C 501.561 0.69952 -6.0809 0
M  V30 5406 N 500.698 1.64525 -6.82551 0
M  V30 5407 H 505.538 -0.561242 -2.92667 0
M  V30 5408 H 503.075 -0.288591 -1.44241 0
M  V30 5409 H 505.033 1.7677 -3.779 0
M  V30 5410 H 503.663 1.85591 -2.64113 0
M  V30 5411 H 502.715 -0.271632 -3.79429 0
M  V30 5412 H 504.027 -0.136992 -4.98612 0
M  V30 5413 H 503.181 2.11186 -5.68758 0
M  V30 5414 H 501.92 2.05315 -4.42377 0
M  V30 5415 H 500.925 0.0139217 -5.49798 0
M  V30 5416 H 502.15 0.091894 -6.79038 0
M  V30 5417 H 500.096 2.24653 -6.16334 0
M  V30 5418 H 500.013 1.11878 -7.47676 0
M  V30 5419 H 501.281 2.30754 -7.44562 0
M  V30 5420 N 505.51 1.54411 -0.315457 0
M  V30 5421 C 506.735 2.05299 0.294496 0
M  V30 5422 C 507.16 1.19052 1.4563 0
M  V30 5423 O 506.518 0.197804 1.80218 0
M  V30 5424 C 506.566 3.5345 0.714549 0
M  V30 5425 O 505.67 3.70175 1.81781 0
M  V30 5426 H 505.011 0.661743 0.0547019 0
M  V30 5427 H 507.541 1.99327 -0.461508 0
M  V30 5428 H 507.551 3.9557 0.999426 0
M  V30 5429 H 506.226 4.1568 -0.135244 0
M  V30 5430 H 504.803 3.3996 1.53236 0
M  V30 5431 N 506.988 0.0434614 1.5754 0
M  V30 5432 C 507.951 -0.918696 2.09982 0
M  V30 5433 C 508.951 -1.24488 1.01781 0
M  V30 5434 O 510.141 -1.18284 1.27885 0
M  V30 5435 C 507.273 -2.23093 2.57764 0
M  V30 5436 H 508.466 -0.464229 2.96285 0
M  V30 5437 H 506.019 -0.204818 1.54952 0
M  V30 5438 H 506.754 -2.73137 1.74832 0
M  V30 5439 H 506.539 -2.00724 3.36827 0
M  V30 5440 H 508.029 -2.92028 2.98512 0
M  V30 5441 N 508.466 -1.55915 -0.229846 0
M  V30 5442 C 509.429 -1.90914 -1.26824 0
M  V30 5443 C 510.429 -0.786999 -1.40225 0
M  V30 5444 O 511.619 -1.05484 -1.38632 0
M  V30 5445 C 508.751 -2.15264 -2.64337 0
M  V30 5446 H 509.944 -2.8378 -0.969998 0
M  V30 5447 H 507.497 -1.49069 -0.4699 0
M  V30 5448 H 508.232 -1.24923 -2.99274 0
M  V30 5449 H 508.017 -2.97005 -2.55989 0
M  V30 5450 H 509.507 -2.43467 -3.39284 0
M  V30 5451 N 509.944 0.496216 -1.49584 0
M  V30 5452 C 510.894 1.59422 -1.62999 0
M  V30 5453 C 511.878 1.53402 -0.485457 0
M  V30 5454 O 513.07 1.60851 -0.738649 0
M  V30 5455 C 510.199 2.98009 -1.70427 0
M  V30 5456 C 509.285 3.09008 -2.90473 0
M  V30 5457 N 509.676 2.89884 -4.14489 0
M  V30 5458 C 507.974 3.40115 -2.8851 0
M  V30 5459 C 508.675 3.0519 -4.95211 0
M  V30 5460 N 507.651 3.3428 -4.2867 0
M  V30 5461 H 511.453 1.43297 -2.56599 0
M  V30 5462 H 508.967 0.702443 -1.46422 0
M  V30 5463 H 510.964 3.76926 -1.78136 0
M  V30 5464 H 509.624 3.152 -0.77967 0
M  V30 5465 H 510.635 2.65963 -4.44392 0
M  V30 5466 H 507.312 3.63452 -2.05448 0
M  V30 5467 H 508.702 2.94856 -6.03746 0
M  V30 5468 N 511.423 1.38739 0.74761 0
M  V30 5469 C 512.834 1.31507 1.32524 0
M  V30 5470 C 513.185 -0.0263963 1.96182 0
M  V30 5471 O 512.31 -0.92849 1.95469 0
M  V30 5472 C 512.905 2.38162 2.40966 0
M  V30 5473 C 511.464 2.34489 2.94434 0
M  V30 5474 C 510.611 2.20712 1.67873 0
M  V30 5475 H 513.562 1.4901 0.546043 0
M  V30 5476 H 513.583 2.04222 3.21051 0
M  V30 5477 H 513.095 3.35783 1.94605 0
M  V30 5478 H 511.196 1.40467 3.45108 0
M  V30 5479 H 511.309 3.28861 3.48407 0
M  V30 5480 H 509.673 1.67667 1.91729 0
M  V30 5481 H 510.456 3.20285 1.23582 0
M  V30 5482 N 512.901 -0.976442 1.23707 0
M  V30 5483 C 514.149 -1.71487 1.06942 0
M  V30 5484 C 514.47 -1.9098 -0.393897 0
M  V30 5485 O 513.74 -1.48128 -1.28198 0
M  V30 5486 H 512.32 -0.635425 0.392739 0
M  V30 5487 H 514.982 -1.17515 1.55487 0
M  V30 5488 H 514.078 -2.70286 1.56051 0
M  V30 5489 N 514.379 -1.04941 -1.1758 0
M  V30 5490 C 515.309 -0.669172 -2.23706 0
M  V30 5491 C 516.29 0.331835 -1.66832 0
M  V30 5492 O 517.475 0.209988 -1.93061 0
M  V30 5493 C 514.605 -0.0404889 -3.47276 0
M  V30 5494 C 513.559 -0.965983 -4.16957 0
M  V30 5495 C 512.885 -0.201312 -5.34321 0
M  V30 5496 C 514.185 -2.28902 -4.69469 0
M  V30 5497 H 515.879 -1.55639 -2.55767 0
M  V30 5498 H 513.425 -0.749793 -1.22939 0
M  V30 5499 H 515.378 0.237298 -4.20731 0
M  V30 5500 H 514.102 0.881658 -3.14475 0
M  V30 5501 H 512.761 -1.22829 -3.45411 0
M  V30 5502 H 512.409 0.723519 -4.97769 0
M  V30 5503 H 512.109 -0.817968 -5.81879 0
M  V30 5504 H 513.633 0.0692499 -6.10561 0
M  V30 5505 H 515.047 -2.07132 -5.34574 0
M  V30 5506 H 513.444 -2.85942 -5.27596 0
M  V30 5507 H 514.514 -2.92937 -3.86414 0
M  V30 5508 N 515.857 1.33968 -0.830081 0
M  V30 5509 C 517.103 1.98357 -0.422191 0
M  V30 5510 C 517.436 1.65633 1.01387 0
M  V30 5511 O 516.711 0.931648 1.70735 0
M  V30 5512 C 516.994 3.54492 -0.633043 0
M  V30 5513 C 516.847 3.96934 -2.11574 0
M  V30 5514 C 518.166 4.40039 -0.0735584 0
M  V30 5515 H 515.285 0.720544 -0.154871 0
M  V30 5516 H 517.927 1.58749 -1.04397 0
M  V30 5517 H 516.077 3.88361 -0.103775 0
M  V30 5518 H 517.749 3.73363 -2.7092 0
M  V30 5519 H 515.992 3.46984 -2.60354 0
M  V30 5520 H 516.663 5.05651 -2.21406 0
M  V30 5521 H 519.139 4.12764 -0.52585 0
M  V30 5522 H 518.015 5.48327 -0.250841 0
M  V30 5523 H 518.276 4.30124 1.02202 0
M  V30 5524 N 517.335 0.585699 1.46312 0
M  V30 5525 C 518.245 -0.148236 2.34131 0
M  V30 5526 C 519.261 -0.882972 1.49932 0
M  V30 5527 O 520.437 -0.845484 1.82794 0
M  V30 5528 C 517.502 -1.14714 3.27172 0
M  V30 5529 C 516.563 -0.416746 4.27272 0
M  V30 5530 C 515.796 -1.36806 5.15868 0
M  V30 5531 O 516.019 -2.60475 5.07454 0
M  V30 5532 O 514.953 -0.877018 5.95476 0
M  V30 5533 H 518.779 0.572882 2.98248 0
M  V30 5534 H 516.364 0.346082 1.45336 0
M  V30 5535 H 518.246 -1.72303 3.84564 0
M  V30 5536 H 516.921 -1.84967 2.65648 0
M  V30 5537 H 515.828 0.201061 3.73559 0
M  V30 5538 H 517.161 0.244872 4.9159 0
M  V30 5539 N 518.813 -1.54241 0.323641 0
M  V30 5540 C 520.224 -1.85975 -0.164405 0
M  V30 5541 C 520.575 -1.24529 -1.51615 0
M  V30 5542 O 519.7 -0.551351 -2.09258 0
M  V30 5543 C 520.295 -3.37424 -0.305091 0
M  V30 5544 C 518.854 -3.69107 -0.737358 0
M  V30 5545 C 518.001 -2.76942 0.140884 0
M  V30 5546 H 520.952 -1.49088 0.543922 0
M  V30 5547 H 520.973 -3.63147 -1.13598 0
M  V30 5548 H 520.485 -3.82116 0.678876 0
M  V30 5549 H 518.586 -3.29947 -1.73107 0
M  V30 5550 H 518.699 -4.76035 -0.541053 0
M  V30 5551 H 517.063 -2.51795 -0.383572 0
M  V30 5552 H 517.846 -3.24461 1.12162 0
M  V30 5553 N 520.291 -0.0518155 -1.57515 0
M  V30 5554 C 521.254 0.907547 -2.10467 0
M  V30 5555 C 522.254 1.23947 -1.02439 0
M  V30 5556 O 523.444 1.17604 -1.2851 0
M  V30 5557 C 520.576 2.21723 -2.58944 0
M  V30 5558 H 521.769 0.44851 -2.96527 0
M  V30 5559 H 519.322 0.196598 -1.55059 0
M  V30 5560 H 520.057 2.72206 -1.76279 0
M  V30 5561 H 519.842 1.98935 -3.37886 0
M  V30 5562 H 521.332 2.90441 -3.00056 0
M  V30 5563 N 521.769 1.56035 0.221574 0
M  V30 5564 C 523.046 1.69837 0.970301 0
M  V30 5565 C 523.426 0.599065 2.02421 0
M  V30 5566 O 522.774 -0.393929 2.25079 0
M  V30 5567 C 522.984 3.11148 1.58076 0
M  V30 5568 C 524.332 3.70555 2.07302 0
M  V30 5569 O 525.356 3.14109 1.6797 0
M  V30 5570 O 524.215 4.69562 2.79596 0
M  V30 5571 H 521.309 0.691727 0.453257 0
M  V30 5572 H 523.855 1.68353 0.213358 0
M  V30 5573 H 522.627 3.82617 0.819759 0
M  V30 5574 H 522.25 3.16749 2.40324 0
M  V30 5575 N 523.247 -0.488276 1.49845 0
M  V30 5576 C 524.495 -1.23911 1.59657 0
M  V30 5577 C 524.816 -1.92816 0.291005 0
M  V30 5578 O 524.086 -1.83328 -0.690485 0
M  V30 5579 H 522.666 -0.460357 0.588286 0
M  V30 5580 H 525.328 -0.564794 1.86537 0
M  V30 5581 H 524.424 -1.99625 2.39909 0
M  V30 5582 N 524.725 -1.39134 -0.740242 0
M  V30 5583 C 525.688 -1.37217 -1.83587 0
M  V30 5584 C 526.688 -0.270221 -1.58513 0
M  V30 5585 O 527.878 -0.527843 -1.6601 0
M  V30 5586 C 525.01 -1.13959 -3.21288 0
M  V30 5587 H 526.203 -2.34705 -1.86691 0
M  V30 5588 H 523.756 -1.24622 -0.94335 0
M  V30 5589 H 524.491 -0.17131 -3.23847 0
M  V30 5590 H 524.276 -1.93754 -3.40884 0
M  V30 5591 H 525.766 -1.15346 -4.01354 0
M  V30 5592 N 526.204 0.969867 -1.24223 0
M  V30 5593 C 527.137 2.06279 -0.975926 0
M  V30 5594 C 528.115 1.62353 0.0895385 0
M  V30 5595 O 529.299 1.88442 -0.0469418 0
M  V30 5596 C 526.426 3.35391 -0.472315 0
M  V30 5597 C 525.472 3.98266 -1.526 0
M  V30 5598 S 526.305 4.36172 -3.10667 0
M  V30 5599 C 527.461 5.68423 -2.62003 0
M  V30 5600 H 527.694 2.28551 -1.90137 0
M  V30 5601 H 525.227 1.10748 -1.07584 0
M  V30 5602 H 527.185 4.10068 -0.188376 0
M  V30 5603 H 525.846 3.1111 0.432378 0
M  V30 5604 H 525.039 4.91307 -1.12399 0
M  V30 5605 H 524.641 3.30009 -1.75983 0
M  V30 5606 H 526.933 6.45842 -2.0468 0
M  V30 5607 H 527.876 6.13478 -3.53625 0
M  V30 5608 H 528.284 5.26928 -2.02502 0
M  V30 5609 N 527.682 1.05563 1.17022 0
M  V30 5610 C 529.093 0.793475 1.69 0
M  V30 5611 C 529.444 -0.683882 1.83895 0
M  V30 5612 O 528.569 -1.53116 1.5292 0
M  V30 5613 C 529.164 1.43376 3.06967 0
M  V30 5614 C 527.723 1.21956 3.56095 0
M  V30 5615 C 526.87 1.51494 2.3226 0
M  V30 5616 H 529.821 1.22008 1.01487 0
M  V30 5617 H 529.842 0.845068 3.70997 0
M  V30 5618 H 529.354 2.50899 2.96093 0
M  V30 5619 H 527.455 0.163749 3.7224 0
M  V30 5620 H 527.568 1.92713 4.38633 0
M  V30 5621 H 525.932 0.935175 2.3691 0
M  V30 5622 H 526.715 2.60159 2.23992 0
M  V30 5623 N 529.16 -1.33526 0.837174 0
M  V30 5624 C 530.385 -2.0258 0.444545 0
M  V30 5625 C 530.81 -1.6258 -0.946006 0
M  V30 5626 O 530.168 -0.817548 -1.6182 0
M  V30 5627 C 530.216 -3.5605 0.571006 0
M  V30 5628 O 529.32 -4.10422 -0.403431 0
M  V30 5629 H 528.661 -0.638866 0.180958 0
M  V30 5630 H 531.191 -1.70462 1.13154 0
M  V30 5631 H 531.201 -4.05488 0.452024 0
M  V30 5632 H 529.876 -3.84509 1.58512 0
M  V30 5633 H 528.453 -3.72113 -0.242147 0
M  V30 5634 N 530.638 -0.59345 -1.46 0
M  V30 5635 C 531.885 -0.0831523 -2.02329 0
M  V30 5636 C 532.213 1.28093 -1.46364 0
M  V30 5637 O 531.468 1.85526 -0.622793 0
M  V30 5638 C 531.767 0.021178 -3.57394 0
M  V30 5639 C 531.433 -1.27671 -4.32448 0
M  V30 5640 C 530.095 -1.63227 -4.5267 0
M  V30 5641 C 532.447 -2.13511 -4.7546 0
M  V30 5642 C 529.775 -2.84401 -5.1316 0
M  V30 5643 C 532.127 -3.33922 -5.37289 0
M  V30 5644 C 530.791 -3.69747 -5.55737 0
M  V30 5645 H 530.061 -0.0304276 -0.740375 0
M  V30 5646 H 532.708 -0.772239 -1.75239 0
M  V30 5647 H 531.013 0.793454 -3.83682 0
M  V30 5648 H 532.71 0.431942 -3.98667 0
M  V30 5649 H 529.3 -0.989937 -4.17011 0
M  V30 5650 H 533.484 -1.87344 -4.59582 0
M  V30 5651 H 528.74 -3.12282 -5.25633 0
M  V30 5652 H 532.914 -4.00698 -5.69574 0
M  V30 5653 H 530.541 -4.6373 -6.02377 0
M  V30 5654 N 532.116 1.54067 -0.331816 0
M  V30 5655 C 533.046 2.27569 0.522932 0
M  V30 5656 C 534.027 1.28679 1.11247 0
M  V30 5657 O 535.212 1.57504 1.13605 0
M  V30 5658 C 532.342 3.0397 1.67987 0
M  V30 5659 C 531.296 4.10267 1.21924 0
M  V30 5660 C 530.622 4.74555 2.46377 0
M  V30 5661 C 531.922 5.21268 0.32815 0
M  V30 5662 H 533.616 2.99264 -0.0901977 0
M  V30 5663 H 531.162 1.4393 -0.044821 0
M  V30 5664 H 533.115 3.54123 2.28418 0
M  V30 5665 H 531.839 2.29906 2.31971 0
M  V30 5666 H 530.498 3.61009 0.637809 0
M  V30 5667 H 530.146 3.97098 3.08743 0
M  V30 5668 H 529.846 5.46363 2.16243 0
M  V30 5669 H 531.37 5.27487 3.07555 0
M  V30 5670 H 532.784 5.67128 0.838978 0
M  V30 5671 H 531.181 5.99982 0.119228 0
M  V30 5672 H 532.251 4.80673 -0.638839 0
M  V30 5673 N 533.594 0.0601682 1.57485 0
M  V30 5674 C 534.524 -0.90889 2.15085 0
M  V30 5675 C 535.505 -1.31838 1.07484 0
M  V30 5676 O 536.69 -1.3915 1.35466 0
M  V30 5677 C 533.82 -2.18059 2.7031 0
M  V30 5678 C 532.774 -1.91088 3.82974 0
M  V30 5679 C 532.1 -3.24789 4.24754 0
M  V30 5680 C 533.4 -1.22535 5.07723 0
M  V30 5681 H 535.094 -0.429093 2.96309 0
M  V30 5682 H 532.64 -0.204952 1.42534 0
M  V30 5683 H 534.593 -2.86258 3.09248 0
M  V30 5684 H 533.317 -2.6826 1.8629 0
M  V30 5685 H 531.976 -1.25297 3.44523 0
M  V30 5686 H 531.624 -3.72809 3.37672 0
M  V30 5687 H 531.324 -3.07538 5.00694 0
M  V30 5688 H 532.848 -3.94205 4.66299 0
M  V30 5689 H 534.262 -1.80783 5.4405 0
M  V30 5690 H 532.659 -1.1558 5.88864 0
M  V30 5691 H 533.729 -0.202692 4.84476 0
M  V30 5692 N 535.072 -1.5615 -0.213296 0
M  V30 5693 C 535.982 -1.96265 -1.28519 0
M  V30 5694 C 536.998 -0.86765 -1.50824 0
M  V30 5695 O 538.174 -1.17191 -1.63793 0
M  V30 5696 C 535.239 -2.27836 -2.61327 0
M  V30 5697 C 534.3 -3.50949 -2.47252 0
M  V30 5698 C 533.533 -3.81004 -3.73727 0
M  V30 5699 O 533.756 -3.12612 -4.77106 0
M  V30 5700 O 532.69 -4.74477 -3.70344 0
M  V30 5701 H 536.516 -2.87631 -0.974795 0
M  V30 5702 H 534.101 -1.43467 -0.416832 0
M  V30 5703 H 535.983 -2.49299 -3.39747 0
M  V30 5704 H 534.658 -1.39643 -2.9203 0
M  V30 5705 H 533.565 -3.34754 -1.67004 0
M  V30 5706 H 534.898 -4.39551 -2.21486 0
M  V30 5707 N 536.55 0.480323 -1.50102 0
M  V30 5708 C 537.482 1.59669 -1.64433 0
M  V30 5709 C 538.495 1.54063 -0.52615 0
M  V30 5710 O 539.684 1.59619 -0.798992 0
M  V30 5711 C 536.784 2.98527 -1.6042 0
M  V30 5712 C 535.957 3.291 -2.88117 0
M  V30 5713 C 535.016 4.47468 -2.76873 0
M  V30 5714 O 534.042 4.4823 -3.50825 0
M  V30 5715 N 535.244 5.48593 -1.89806 0
M  V30 5716 H 538.009 1.47795 -2.60723 0
M  V30 5717 H 535.57 0.66858 -1.4745 0
M  V30 5718 H 537.562 3.75666 -1.50523 0
M  V30 5719 H 536.132 3.04218 -0.719036 0
M  V30 5720 H 535.352 2.40662 -3.12211 0
M  V30 5721 H 536.64 3.46334 -3.72734 0
M  V30 5722 H 536.038 5.50791 -1.2902 0
M  V30 5723 H 534.595 6.24752 -1.85819 0
M  V30 5724 N 538.028 1.39524 0.732853 0
M  V30 5725 C 539.276 1.36594 1.48951 0
M  V30 5726 C 539.597 -0.0367507 1.94965 0
M  V30 5727 O 538.867 -0.988391 1.69138 0
M  V30 5728 H 537.447 0.502673 0.552566 0
M  V30 5729 H 540.109 1.74411 0.869869 0
M  V30 5730 H 539.205 2.03 2.3706 0
M  V30 5731 N 539.506 -0.963266 1.24736 0
M  V30 5732 C 540.731 -1.74699 1.11781 0
M  V30 5733 C 541.156 -1.85267 -0.325258 0
M  V30 5734 O 540.514 -1.32681 -1.23553 0
M  V30 5735 C 540.562 -3.14322 1.76731 0
M  V30 5736 O 539.666 -3.99043 1.04109 0
M  V30 5737 H 539.007 -0.53684 0.390767 0
M  V30 5738 H 541.537 -1.20801 1.65131 0
M  V30 5739 H 541.547 -3.64824 1.82668 0
M  V30 5740 H 540.222 -3.05946 2.81726 0
M  V30 5741 H 538.799 -3.5752 1.05991 0
M  V30 5742 N 540.985 -1.06182 -1.16461 0
M  V30 5743 C 541.918 -0.615859 -2.19733 0
M  V30 5744 C 542.896 0.360766 -1.58547 0
M  V30 5745 O 544.08 0.270009 -1.86556 0
M  V30 5746 C 541.207 0.097312 -3.3856 0
M  V30 5747 C 540.253 -0.835889 -4.18229 0
M  V30 5748 S 541.086 -2.33052 -4.82128 0
M  V30 5749 C 542.242 -1.62881 -6.04335 0
M  V30 5750 H 542.475 -1.49079 -2.57221 0
M  V30 5751 H 540.008 -0.874692 -1.27234 0
M  V30 5752 H 541.966 0.502563 -4.07412 0
M  V30 5753 H 540.627 0.948418 -2.99439 0
M  V30 5754 H 539.82 -0.283426 -5.03202 0
M  V30 5755 H 539.422 -1.18097 -3.54865 0
M  V30 5756 H 541.714 -0.933764 -6.71034 0
M  V30 5757 H 542.657 -2.45641 -6.64128 0
M  V30 5758 H 543.065 -1.11189 -5.53441 0
M  V30 5759 N 542.463 1.3308 -0.844243 0
M  V30 5760 C 543.712 1.96868 -0.438833 0
M  V30 5761 C 544.025 1.67599 1.00846 0
M  V30 5762 O 545.231 2.25043 1.51881 0
M  V30 5763 C 543.687 3.5234 -0.73377 0
M  V30 5764 C 543.295 3.90481 -2.1961 0
M  V30 5765 C 545.039 4.22653 -0.395574 0
M  V30 5766 C 542.946 5.38954 -2.43481 0
M  V30 5767 H 541.876 0.736749 -0.160364 0
M  V30 5768 H 544.527 1.51623 -1.03358 0
M  V30 5769 H 542.909 3.95941 -0.068589 0
M  V30 5770 H 544.083 3.57922 -2.90221 0
M  V30 5771 H 542.398 3.33165 -2.4978 0
M  V30 5772 H 544.995 5.31848 -0.551477 0
M  V30 5773 H 545.338 4.11004 0.661921 0
M  V30 5774 H 545.871 3.84601 -1.01621 0
M  V30 5775 H 542.61 5.55612 -3.47816 0
M  V30 5776 H 542.13 5.72954 -1.77437 0
M  V30 5777 H 543.809 6.05907 -2.26905 0
M  V30 5778 N 543.941 0.601185 1.45683 0
M  V30 5779 C 544.871 -0.108824 2.33246 0
M  V30 5780 C 545.852 -0.865223 1.46451 0
M  V30 5781 O 547.037 -0.83704 1.75235 0
M  V30 5782 C 544.167 -1.11101 3.2905 0
M  V30 5783 C 543.121 -0.468244 4.25431 0
M  V30 5784 C 542.447 -1.57822 5.10878 0
M  V30 5785 C 543.747 0.606469 5.18767 0
M  V30 5786 H 545.441 0.622306 2.92861 0
M  V30 5787 H 542.987 0.300714 1.40825 0
M  V30 5788 H 544.94 -1.61622 3.89174 0
M  V30 5789 H 543.664 -1.87265 2.67581 0
M  V30 5790 H 542.323 0.0160484 3.66596 0
M  V30 5791 H 541.971 -2.32998 4.45781 0
M  V30 5792 H 541.671 -1.15369 5.76163 0
M  V30 5793 H 543.195 -2.08583 5.73869 0
M  V30 5794 H 544.609 0.185589 5.73 0
M  V30 5795 H 543.006 0.952381 5.92494 0
M  V30 5796 H 544.076 1.48559 4.61582 0
M  V30 5797 N 545.419 -1.53889 0.339982 0
M  V30 5798 C 546.382 -2.23547 -0.50592 0
M  V30 5799 C 547.382 -1.23445 -1.03044 0
M  V30 5800 O 548.572 -1.47909 -0.920253 0
M  V30 5801 C 545.704 -2.95234 -1.7044 0
M  V30 5802 H 546.897 -2.99722 0.103247 0
M  V30 5803 H 544.45 -1.56033 0.0912804 0
M  V30 5804 H 545.185 -2.23236 -2.35236 0
M  V30 5805 H 544.97 -3.68654 -1.33553 0
M  V30 5806 H 546.46 -3.48258 -2.30447 0
M  V30 5807 N 546.897 -0.0685191 -1.57451 0
M  V30 5808 C 547.827 0.89747 -2.15564 0
M  V30 5809 C 548.808 1.31266 -1.08181 0
M  V30 5810 O 549.993 1.38429 -1.36202 0
M  V30 5811 C 547.123 2.16623 -2.71463 0
M  V30 5812 C 546.077 1.89054 -3.83982 0
M  V30 5813 C 545.403 3.22532 -4.26471 0
M  V30 5814 C 546.703 1.1984 -5.08366 0
M  V30 5815 H 548.397 0.413373 -2.96533 0
M  V30 5816 H 545.943 0.197391 -1.42641 0
M  V30 5817 H 547.896 2.84614 -3.10761 0
M  V30 5818 H 546.62 2.67269 -1.8771 0
M  V30 5819 H 545.279 1.23469 -3.45183 0
M  V30 5820 H 544.927 3.71013 -3.39644 0
M  V30 5821 H 544.627 3.04879 -5.02317 0
M  V30 5822 H 546.151 3.91727 -4.68383 0
M  V30 5823 H 547.565 1.77896 -5.45001 0
M  V30 5824 H 545.962 1.12456 -5.89469 0
M  V30 5825 H 547.032 0.176996 -4.84577 0
M  V30 5826 N 548.375 1.56261 0.205012 0
M  V30 5827 C 549.6 1.84491 0.947512 0
M  V30 5828 C 550.025 0.650894 1.76479 0
M  V30 5829 O 549.383 -0.40035 1.76824 0
M  V30 5830 C 549.431 3.10863 1.82747 0
M  V30 5831 O 548.535 2.90719 2.925 0
M  V30 5832 H 547.876 0.607783 0.267386 0
M  V30 5833 H 550.406 2.03485 0.213323 0
M  V30 5834 H 550.416 3.41399 2.23407 0
M  V30 5835 H 549.091 3.97392 1.2269 0
M  V30 5836 H 547.668 2.71457 2.55667 0
M  V30 5837 N 549.853 -0.472356 1.50355 0
M  V30 5838 C 551.13 -1.23356 1.51798 0
M  V30 5839 C 551.51 -2.09469 0.26193 0
M  V30 5840 O 550.858 -2.15677 -0.754691 0
M  V30 5841 C 551.068 -2.06568 2.81302 0
M  V30 5842 C 552.416 -2.648 3.31913 0
M  V30 5843 O 553.44 -2.16812 2.82614 0
M  V30 5844 O 552.299 -3.52231 4.17846 0
M  V30 5845 H 549.393 -0.559707 0.608816 0
M  V30 5846 H 551.939 -0.48428 1.62643 0
M  V30 5847 H 550.711 -1.43103 3.64194 0
M  V30 5848 H 550.334 -2.88633 2.73454 0
M  V30 5849 N 551.331 -1.39911 -0.725443 0
M  V30 5850 C 552.559 -1.40949 -1.51463 0
M  V30 5851 C 552.974 -0.0065242 -1.88799 0
M  V30 5852 O 552.331 0.967163 -1.54765 0
M  V30 5853 C 552.382 -2.29119 -2.79619 0
M  V30 5854 O 552.103 -3.63952 -2.43866 0
M  V30 5855 C 553.604 -2.38642 -3.73584 0
M  V30 5856 H 550.824 -0.481091 -0.467752 0
M  V30 5857 H 553.368 -1.83843 -0.895651 0
M  V30 5858 H 551.523 -1.89612 -3.37826 0
M  V30 5859 H 551.937 -4.10677 -3.26258 0
M  V30 5860 H 553.411 -3.04563 -4.60375 0
M  V30 5861 H 553.888 -1.40846 -4.16004 0
M  V30 5862 H 554.494 -2.78659 -3.21293 0
M  V30 5863 N 552.809 0.956637 -1.25245 0
M  V30 5864 C 553.719 2.0868 -1.0719 0
M  V30 5865 C 554.735 1.73997 -0.00959074 0
M  V30 5866 O 555.911 2.00301 -0.210104 0
M  V30 5867 C 552.976 3.39754 -0.690526 0
M  V30 5868 C 552.037 3.88316 -1.83055 0
M  V30 5869 C 551.27 5.13134 -1.46728 0
M  V30 5870 O 551.493 5.6925 -0.362029 0
M  V30 5871 O 550.427 5.56356 -2.29677 0
M  V30 5872 H 554.253 2.26813 -2.01965 0
M  V30 5873 H 551.838 1.07098 -1.04165 0
M  V30 5874 H 553.72 4.18543 -0.489871 0
M  V30 5875 H 552.395 3.22896 0.227981 0
M  V30 5876 H 551.302 3.1054 -2.08604 0
M  V30 5877 H 552.635 4.09669 -2.72822 0
M  V30 5878 N 554.287 1.06798 1.15896 0
M  V30 5879 C 555.219 0.641263 2.20046 0
M  V30 5880 C 556.232 -0.303355 1.59949 0
M  V30 5881 O 557.421 -0.0935478 1.78255 0
M  V30 5882 C 554.521 -0.0794029 3.38807 0
M  V30 5883 C 553.694 0.879986 4.28457 0
M  V30 5884 C 552.753 0.197638 5.25829 0
M  V30 5885 O 551.779 0.836913 5.63014 0
M  V30 5886 N 552.981 -1.05886 5.70761 0
M  V30 5887 H 555.746 1.53718 2.57276 0
M  V30 5888 H 553.307 0.951951 1.30956 0
M  V30 5889 H 555.299 -0.546418 4.00994 0
M  V30 5890 H 553.869 -0.877193 3.0004 0
M  V30 5891 H 553.089 1.52625 3.63454 0
M  V30 5892 H 554.377 1.53065 4.8523 0
M  V30 5893 H 553.775 -1.59828 5.42652 0
M  V30 5894 H 552.332 -1.46965 6.35015 0
M  V30 5895 N 555.766 -1.3263 0.851289 0
M  V30 5896 C 557.182 -1.50162 0.5407 0
M  V30 5897 C 557.382 -1.78788 -0.929369 0
M  V30 5898 O 556.438 -1.85545 -1.71258 0
M  V30 5899 C 557.751 -2.64803 1.42478 0
M  V30 5900 C 559.299 -2.78688 1.42485 0
M  V30 5901 C 559.774 -3.96405 2.29407 0
M  V30 5902 N 561.265 -4.0366 2.27184 0
M  V30 5903 C 562 -4.93971 2.9117 0
M  V30 5904 N 561.496 -5.89313 3.64256 0
M  V30 5905 N 563.289 -4.87066 2.80576 0
M  V30 5906 H 555.44 -1.12315 1.80275 0
M  V30 5907 H 557.703 -0.553266 0.769806 0
M  V30 5908 H 557.409 -2.50368 2.46999 0
M  V30 5909 H 557.283 -3.60506 1.10974 0
M  V30 5910 H 559.67 -2.92547 0.387304 0
M  V30 5911 H 559.751 -1.83708 1.78002 0
M  V30 5912 H 559.395 -3.83304 3.33228 0
M  V30 5913 H 559.325 -4.90654 1.91224 0
M  V30 5914 H 561.816 -3.35435 1.74045 0
M  V30 5915 H 562.129 -6.54913 4.10255 0
M  V30 5916 H 560.474 -5.8935 3.68364 0
M  V30 5917 H 563.665 -4.11552 2.23031 0
M  V30 5918 H 563.838 -5.57248 3.30725 0
M  V30 5919 N 557.244 -0.608902 -1.45362 0
M  V30 5920 C 558.174 0.0964526 -2.33301 0
M  V30 5921 C 559.155 0.857444 -1.46908 0
M  V30 5922 O 560.34 0.827735 -1.75676 0
M  V30 5923 C 557.47 1.09354 -3.29635 0
M  V30 5924 C 556.424 0.445676 -4.25673 0
M  V30 5925 C 555.75 1.5511 -5.11708 0
M  V30 5926 C 557.05 -0.633972 -5.18438 0
M  V30 5927 H 558.744 -0.637829 -2.92527 0
M  V30 5928 H 556.29 -0.308178 -1.40664 0
M  V30 5929 H 558.243 1.59556 -3.90025 0
M  V30 5930 H 556.967 1.85843 -2.6857 0
M  V30 5931 H 555.626 -0.0354897 -3.66583 0
M  V30 5932 H 555.274 2.30631 -4.4701 0
M  V30 5933 H 554.974 1.12311 -5.76767 0
M  V30 5934 H 556.498 2.05537 -5.74967 0
M  V30 5935 H 557.912 -0.215974 -5.72893 0
M  V30 5936 H 556.309 -0.983789 -5.91981 0
M  V30 5937 H 557.379 -1.51005 -4.60788 0
M  V30 5938 N 558.722 1.53707 -0.348139 0
M  V30 5939 C 559.632 2.28881 0.514857 0
M  V30 5940 C 560.648 1.34168 1.10793 0
M  V30 5941 O 561.824 1.6721 1.12262 0
M  V30 5942 C 558.889 3.05042 1.64774 0
M  V30 5943 C 557.95 4.15389 1.08398 0
M  V30 5944 C 557.183 4.87909 2.16287 0
M  V30 5945 O 557.406 4.60137 3.3709 0
M  V30 5946 O 556.34 5.74254 1.80323 0
M  V30 5947 H 560.166 3.03547 -0.0963699 0
M  V30 5948 H 557.751 1.48972 -0.113043 0
M  V30 5949 H 559.633 3.52656 2.30677 0
M  V30 5950 H 558.308 2.33228 2.24469 0
M  V30 5951 H 557.215 3.72068 0.389341 0
M  V30 5952 H 558.548 4.89318 0.531829 0
M  V30 5953 N 560.2 0.0768682 1.57412 0
M  V30 5954 C 561.163 -0.873949 2.11884 0
M  V30 5955 C 562.163 -1.22301 1.04398 0
M  V30 5956 O 563.353 -1.15545 1.30365 0
M  V30 5957 C 560.485 -2.17575 2.62438 0
M  V30 5958 H 561.678 -0.401278 2.97203 0
M  V30 5959 H 559.231 -0.171904 1.55352 0
M  V30 5960 H 559.966 -2.69368 1.80587 0
M  V30 5961 H 559.751 -1.93534 3.41009 0
M  V30 5962 H 561.241 -2.85631 3.04639 0
M  V30 5963 N 561.678 -1.56367 -0.196722 0
M  V30 5964 C 562.61 -1.90941 -1.26784 0
M  V30 5965 C 563.623 -0.799928 -1.41792 0
M  V30 5966 O 564.812 -1.07833 -1.42247 0
M  V30 5967 C 561.912 -2.12477 -2.6402 0
M  V30 5968 C 561.085 -3.43616 -2.70641 0
M  V30 5969 C 560.144 -3.54284 -3.89062 0
M  V30 5970 O 559.17 -4.2712 -3.76241 0
M  V30 5971 N 560.372 -2.87252 -5.04447 0
M  V30 5972 H 563.137 -2.83417 -0.974417 0
M  V30 5973 H 560.698 -1.57215 -0.386649 0
M  V30 5974 H 562.69 -2.16904 -3.41665 0
M  V30 5975 H 561.26 -1.26508 -2.85857 0
M  V30 5976 H 560.48 -3.51072 -1.79283 0
M  V30 5977 H 561.768 -4.29958 -2.72054 0
M  V30 5978 H 561.166 -2.27901 -5.17762 0
M  V30 5979 H 559.723 -2.97308 -5.80044 0
M  V30 5980 N 563.156 0.464375 -1.50603 0
M  V30 5981 C 564.402 1.21776 -1.62168 0
M  V30 5982 C 564.735 1.91476 -0.324154 0
M  V30 5983 O 564.01 1.8242 0.674782 0
M  V30 5984 C 564.293 2.25614 -2.80661 0
M  V30 5985 C 564.146 1.60175 -4.20314 0
M  V30 5986 C 565.465 3.26862 -2.94702 0
M  V30 5987 H 562.584 0.44137 -0.590222 0
M  V30 5988 H 565.226 0.510623 -1.8301 0
M  V30 5989 H 563.376 2.85923 -2.63021 0
M  V30 5990 H 565.048 1.03411 -4.4956 0
M  V30 5991 H 563.291 0.904697 -4.24261 0
M  V30 5992 H 563.962 2.35665 -4.99165 0
M  V30 5993 H 566.438 2.76582 -3.10872 0
M  V30 5994 H 565.314 3.96839 -3.79223 0
M  V30 5995 H 565.575 3.91382 -2.05603 0
M  V30 5996 N 564.634 1.40294 0.718013 0
M  V30 5997 C 565.582 1.40536 1.85344 0
M  V30 5998 C 566.576 0.286192 1.66965 0
M  V30 5999 O 567.782 0.457105 1.74099 0
M  V30 6000 H 564.157 0.439236 0.61039 0
M  V30 6001 H 566.128 2.36275 1.82255 0
M  V30 6002 C 564.877 1.28245 3.23185 0
M  V30 6003 H 564.2 2.1364 3.37932 0
M  V30 6004 H 565.64 1.32474 4.02774 0
M  V30 6005 C 564.099 -0.0075503 3.36899 0
M  V30 6006 O 564.629 -0.971391 3.89778 0
M  V30 6007 N 562.835 -0.0762479 2.905 0
M  V30 6008 H 562.382 0.708819 2.47656 0
M  V30 6009 H 562.34 -0.938846 3.00055 0
M  V30 6010 N 566.112 -0.949982 1.2575 0
M  V30 6011 C 567.528 -1.22191 1.02672 0
M  V30 6012 C 567.728 -1.99898 -0.253588 0
M  V30 6013 O 566.784 -2.33329 -0.965076 0
M  V30 6014 C 568.097 -1.99175 2.25277 0
M  V30 6015 C 569.645 -2.12201 2.30087 0
M  V30 6016 C 570.12 -2.92586 3.5236 0
M  V30 6017 N 571.611 -3.00163 3.52784 0
M  V30 6018 C 572.346 -3.62766 4.44059 0
M  V30 6019 N 571.842 -4.26943 5.45611 0
M  V30 6020 N 573.635 -3.59953 4.3173 0
M  V30 6021 H 565.786 -0.430258 2.07996 0
M  V30 6022 H 568.049 -0.252844 0.91366 0
M  V30 6023 H 567.755 -1.49479 3.18354 0
M  V30 6024 H 567.629 -2.99868 2.28821 0
M  V30 6025 H 570.016 -2.61093 1.3753 0
M  V30 6026 H 570.097 -1.10799 2.30559 0
M  V30 6027 H 569.741 -2.44383 4.45241 0
M  V30 6028 H 569.671 -3.94224 3.49134 0
M  V30 6029 H 572.162 -2.54529 2.79327 0
M  V30 6030 H 572.475 -4.72583 6.11461 0
M  V30 6031 H 570.82 -4.25557 5.49478 0
M  V30 6032 H 574.011 -3.09003 3.51617 0
M  V30 6033 H 574.184 -4.08455 5.03059 0
M  V30 6034 N 567.59 -1.07411 -1.15328 0
M  V30 6035 C 568.538 -0.689316 -2.22151 0
M  V30 6036 C 569.532 0.300156 -1.6672 0
M  V30 6037 O 570.738 0.163804 -1.79253 0
M  V30 6038 H 567.113 -0.204834 -0.723566 0
M  V30 6039 H 569.084 -1.59988 -2.51886 0
M  V30 6040 C 567.833 -0.103848 -3.47545 0
M  V30 6041 H 567.156 -0.856367 -3.90521 0
M  V30 6042 H 568.596 0.127725 -4.23808 0
M  V30 6043 C 567.055 1.15563 -3.1646 0
M  V30 6044 O 567.585 2.242 -3.33312 0
M  V30 6045 N 565.791 1.06203 -2.70498 0
M  V30 6046 H 565.338 0.177933 -2.56985 0
M  V30 6047 H 565.296 1.90553 -2.50074 0
M  V30 6048 N 569.068 1.32177 -0.85831 0
M  V30 6049 C 570.296 2.01313 -0.477582 0
M  V30 6050 C 570.711 1.6449 0.926736 0
M  V30 6051 O 570.068 0.868096 1.60531 0
M  V30 6052 C 570.119 3.56293 -0.611337 0
M  V30 6053 O 569.84 3.91794 -1.96034 0
M  V30 6054 C 571.341 4.42702 -0.230093 0
M  V30 6055 H 568.561 0.644323 -0.187322 0
M  V30 6056 H 571.105 1.68674 -1.15626 0
M  V30 6057 H 569.26 3.87395 0.0196494 0
M  V30 6058 H 569.674 4.86513 -1.95973 0
M  V30 6059 H 571.148 5.50727 -0.374674 0
M  V30 6060 H 571.625 4.3129 0.829779 0
M  V30 6061 H 572.231 4.16997 -0.836302 0
M  V30 6062 N 570.547 0.616602 1.45037 0
M  V30 6063 C 571.796 0.112861 2.01384 0
M  V30 6064 C 572.109 -1.26758 1.48969 0
M  V30 6065 O 573.315 -1.86454 1.9735 0
M  V30 6066 C 571.771 0.151057 3.59583 0
M  V30 6067 C 571.379 1.53191 4.20995 0
M  V30 6068 C 573.123 -0.296974 4.2346 0
M  V30 6069 C 571.03 1.526 5.71373 0
M  V30 6070 H 569.96 0.0384254 0.75302 0
M  V30 6071 H 572.611 0.773262 1.66412 0
M  V30 6072 H 570.993 -0.57617 3.91786 0
M  V30 6073 H 572.167 2.28156 4.00352 0
M  V30 6074 H 570.482 1.92279 3.69348 0
M  V30 6075 H 573.079 -0.320712 5.33737 0
M  V30 6076 H 573.422 -1.32145 3.9477 0
M  V30 6077 H 573.955 0.377279 3.96007 0
M  V30 6078 H 570.694 2.52837 6.04776 0
M  V30 6079 H 570.214 0.819064 5.94181 0
M  V30 6080 H 571.893 1.25357 6.3474 0
M  V30 6081 N 572.025 -1.5352 0.356285 0
M  V30 6082 C 573.255 -2.05236 -0.236983 0
M  V30 6083 C 573.663 -1.23016 -1.43749 0
M  V30 6084 O 573.006 -0.2615 -1.81829 0
M  V30 6085 C 573.068 -3.52549 -0.7035 0
M  V30 6086 C 572.732 -4.55425 0.379059 0
M  V30 6087 C 573.729 -5.0524 1.22592 0
M  V30 6088 C 571.414 -4.99425 0.536638 0
M  V30 6089 C 573.408 -5.97647 2.21578 0
M  V30 6090 C 571.095 -5.9164 1.52988 0
M  V30 6091 C 572.093 -6.4064 2.3679 0
M  V30 6092 O 571.781 -7.31039 3.34421 0
M  V30 6093 H 571.513 -0.674346 -0.047254 0
M  V30 6094 H 574.067 -1.98962 0.510238 0
M  V30 6095 H 572.297 -3.56331 -1.50217 0
M  V30 6096 H 573.986 -3.87171 -1.21873 0
M  V30 6097 H 574.752 -4.72002 1.11532 0
M  V30 6098 H 570.631 -4.60879 -0.105834 0
M  V30 6099 H 574.175 -6.35816 2.87025 0
M  V30 6100 H 570.072 -6.24293 1.64099 0
M  V30 6101 H 570.84 -7.49009 3.30041 0
M  V30 6102 N 573.503 -0.0852151 -1.57369 0
M  V30 6103 C 574.728 0.592872 -1.98746 0
M  V30 6104 C 575.153 1.61538 -0.963689 0
M  V30 6105 O 574.511 1.81168 0.069071 0
M  V30 6106 C 574.559 1.22599 -3.39119 0
M  V30 6107 O 573.663 2.34185 -3.39457 0
M  V30 6108 H 573.004 0.151314 -0.646529 0
M  V30 6109 H 575.534 -0.163703 -2.03944 0
M  V30 6110 H 575.544 1.56965 -3.76598 0
M  V30 6111 H 574.219 0.476831 -4.13158 0
M  V30 6112 H 572.796 2.01512 -3.13763 0
M  V30 6113 N 574.981 1.5647 0.188427 0
M  V30 6114 C 576.209 1.85131 0.923803 0
M  V30 6115 C 576.624 0.668537 1.76567 0
M  V30 6116 O 575.981 -0.362662 1.7886 0
M  V30 6117 C 576.032 3.12661 1.81453 0
M  V30 6118 O 575.753 4.26378 1.00665 0
M  V30 6119 C 577.254 3.54548 2.66103 0
M  V30 6120 H 574.474 0.614624 0.269218 0
M  V30 6121 H 577.018 2.03581 0.193671 0
M  V30 6122 H 575.173 2.96088 2.49821 0
M  V30 6123 H 575.587 4.99041 1.61425 0
M  V30 6124 H 577.061 4.4673 3.24247 0
M  V30 6125 H 577.538 2.77853 3.40139 0
M  V30 6126 H 578.144 3.73674 2.03096 0
M  V30 6127 N 576.459 -0.456382 1.50847 0
M  V30 6128 C 577.389 -1.56025 1.73719 0
M  V30 6129 C 578.37 -1.5967 0.586473 0
M  V30 6130 O 579.555 -1.75702 0.827185 0
M  V30 6131 C 576.685 -2.94251 1.84483 0
M  V30 6132 C 575.639 -3.05471 2.99786 0
M  V30 6133 C 574.965 -4.45489 2.95709 0
M  V30 6134 C 576.265 -2.81318 4.40065 0
M  V30 6135 H 577.959 -1.37138 2.66146 0
M  V30 6136 H 575.505 -0.658299 1.28072 0
M  V30 6137 H 577.458 -3.71417 1.99067 0
M  V30 6138 H 576.182 -3.14328 0.886891 0
M  V30 6139 H 574.841 -2.30741 2.84876 0
M  V30 6140 H 574.489 -4.62505 1.97732 0
M  V30 6141 H 574.189 -4.53929 3.73125 0
M  V30 6142 H 575.713 -5.24655 3.12362 0
M  V30 6143 H 577.127 -3.48226 4.55425 0
M  V30 6144 H 575.524 -3.01188 5.19043 0
M  V30 6145 H 576.594 -1.7706 4.51418 0
M  V30 6146 N 577.937 -1.40673 -0.710563 0
M  V30 6147 C 579.183 -1.39428 -1.47267 0
M  V30 6148 C 579.516 0.00182129 -1.942 0
M  V30 6149 O 578.791 0.971387 -1.68506 0
M  V30 6150 C 579.074 -2.38812 -2.6952 0
M  V30 6151 C 578.927 -3.87467 -2.28449 0
M  V30 6152 C 580.246 -2.3566 -3.71689 0
M  V30 6153 H 577.365 -0.507768 -0.534173 0
M  V30 6154 H 580.007 -1.71843 -0.810547 0
M  V30 6155 H 578.157 -2.113 -3.26013 0
M  V30 6156 H 579.829 -4.25825 -1.77399 0
M  V30 6157 H 578.072 -4.03058 -1.60395 0
M  V30 6158 H 578.743 -4.5253 -3.16103 0
M  V30 6159 H 581.219 -2.6004 -3.24836 0
M  V30 6160 H 580.095 -3.07237 -4.54859 0
M  V30 6161 H 580.356 -1.36996 -4.20339 0
M  V30 6162 N 579.415 0.9433 -1.26252 0
M  V30 6163 C 580.643 1.72367 -1.14443 0
M  V30 6164 C 581.058 1.86392 0.300572 0
M  V30 6165 O 580.415 1.36978 1.20596 0
M  V30 6166 C 580.466 3.13155 -1.806 0
M  V30 6167 O 580.187 2.99803 -3.19452 0
M  V30 6168 C 581.688 4.07417 -1.74717 0
M  V30 6169 H 578.908 0.539758 -0.398626 0
M  V30 6170 H 581.452 1.18268 -1.66832 0
M  V30 6171 H 579.607 3.64162 -1.32154 0
M  V30 6172 H 580.021 3.88697 -3.52158 0
M  V30 6173 H 581.495 5.03773 -2.25647 0
M  V30 6174 H 581.972 4.3337 -0.713244 0
M  V30 6175 H 582.578 3.6233 -2.22704 0
M  V30 6176 N 580.893 1.08022 1.14757 0
M  V30 6177 C 582.133 0.816959 1.87364 0
M  V30 6178 C 582.497 -0.645407 1.80827 0
M  V30 6179 O 583.698 -1.024 2.48531 0
M  V30 6180 C 581.969 1.31961 3.32146 0
M  V30 6181 S 583.528 1.18806 4.2241 0
M  V30 6182 H 580.346 0.295862 0.646519 0
M  V30 6183 H 582.948 1.3807 1.38408 0
M  V30 6184 H 581.652 2.37847 3.3445 0
M  V30 6185 H 581.183 0.751371 3.86158 0
M  V30 6186 H 583.198 0.129865 4.9603 0
M  V30 6187 N 582.371 -1.3172 0.865308 0
M  V30 6188 C 583.617 -1.97168 0.474633 0
M  V30 6189 C 583.95 -1.68263 -0.969604 0
M  V30 6190 O 583.225 -0.976588 -1.68205 0
M  V30 6191 C 583.508 -3.52689 0.726808 0
M  V30 6192 C 583.361 -3.91185 2.22024 0
M  V30 6193 C 584.68 -4.39689 0.190201 0
M  V30 6194 H 581.799 -0.716185 0.17392 0
M  V30 6195 H 584.441 -1.55925 1.08569 0
M  V30 6196 H 582.591 -3.8795 0.206705 0
M  V30 6197 H 584.263 -3.66049 2.80724 0
M  V30 6198 H 582.506 -3.3996 2.69462 0
M  V30 6199 H 583.177 -4.99604 2.34735 0
M  V30 6200 H 585.653 -4.11225 0.635103 0
M  V30 6201 H 584.529 -5.47469 0.396132 0
M  V30 6202 H 584.79 -4.32683 -0.907625 0
M  V30 6203 N 583.85 -0.624285 -1.44708 0
M  V30 6204 C 585.077 -0.132919 -2.06473 0
M  V30 6205 C 585.493 1.18967 -1.46602 0
M  V30 6206 O 584.85 1.72824 -0.586341 0
M  V30 6207 C 584.901 -0.00465418 -3.615 0
M  V30 6208 O 584.622 -1.27494 -4.19138 0
M  V30 6209 C 586.123 0.516213 -4.40284 0
M  V30 6210 H 583.343 -0.0765201 -0.666623 0
M  V30 6211 H 585.887 -0.856751 -1.85688 0
M  V30 6212 H 584.042 0.669583 -3.8157 0
M  V30 6213 H 584.456 -1.11536 -5.12504 0
M  V30 6214 H 585.93 0.554994 -5.49203 0
M  V30 6215 H 586.407 1.5419 -4.11245 0
M  V30 6216 H 587.013 -0.124542 -4.25118 0
M  V30 6217 N 585.328 1.53329 -0.364422 0
M  V30 6218 C 586.575 2.01239 0.225634 0
M  V30 6219 C 586.903 1.25172 1.48869 0
M  V30 6220 O 586.158 0.333289 1.92841 0
M  V30 6221 C 586.457 3.52911 0.564661 0
M  V30 6222 C 586.123 4.46837 -0.603936 0
M  V30 6223 C 584.785 4.72234 -0.924585 0
M  V30 6224 C 587.137 5.02409 -1.38691 0
M  V30 6225 C 584.465 5.50454 -2.0302 0
M  V30 6226 C 586.817 5.81836 -2.48293 0
M  V30 6227 C 585.481 6.0552 -2.80894 0
M  V30 6228 H 584.751 0.736386 0.0825654 0
M  V30 6229 H 587.398 1.84948 -0.496645 0
M  V30 6230 H 585.703 3.67144 1.36794 0
M  V30 6231 H 587.4 3.87455 1.03344 0
M  V30 6232 H 583.99 4.27217 -0.343983 0
M  V30 6233 H 588.174 4.82735 -1.15243 0
M  V30 6234 H 583.43 5.67024 -2.28678 0
M  V30 6235 H 587.604 6.23905 -3.0938 0
M  V30 6236 H 585.231 6.65916 -3.66688 0
M  V30 6237 N 586.806 0.0935595 1.57322 0
M  V30 6238 C 588.052 -0.571355 1.94585 0
M  V30 6239 C 588.385 -1.67929 0.975366 0
M  V30 6240 O 587.66 -1.94498 0.00816206 0
M  V30 6241 C 587.943 -1.12797 3.41978 0
M  V30 6242 C 587.796 -0.0251881 4.49793 0
M  V30 6243 C 589.115 -2.02682 3.90651 0
M  V30 6244 H 586.234 -0.206223 0.70756 0
M  V30 6245 H 588.876 0.163956 1.89291 0
M  V30 6246 H 587.026 -1.75461 3.4662 0
M  V30 6247 H 588.698 0.608979 4.57263 0
M  V30 6248 H 586.941 0.641399 4.29032 0
M  V30 6249 H 587.612 -0.455433 5.50118 0
M  V30 6250 H 590.088 -1.49925 3.88152 0
M  V30 6251 H 588.964 -2.38555 4.94351 0
M  V30 6252 H 589.225 -2.94362 3.29854 0
M  V30 6253 N 588.284 -1.56567 -0.180126 0
M  V30 6254 C 589.247 -1.94852 -1.20686 0
M  V30 6255 C 590.247 -0.831212 -1.3765 0
M  V30 6256 O 591.437 -1.09841 -1.35206 0
M  V30 6257 C 588.569 -2.23565 -2.57355 0
M  V30 6258 H 589.762 -2.86722 -0.879225 0
M  V30 6259 H 587.315 -1.50489 -0.422237 0
M  V30 6260 H 588.05 -1.34381 -2.95148 0
M  V30 6261 H 587.835 -3.04999 -2.46411 0
M  V30 6262 H 589.325 -2.54137 -3.31367 0
M  V30 6263 N 589.762 0.448376 -1.51087 0
M  V30 6264 C 590.99 1.22143 -1.66999 0
M  V30 6265 C 591.405 1.85283 -0.362699 0
M  V30 6266 O 590.762 1.70236 0.65772 0
M  V30 6267 C 590.813 2.31357 -2.7777 0
M  V30 6268 O 590.534 1.70801 -4.03434 0
M  V30 6269 C 592.035 3.21836 -3.04855 0
M  V30 6270 H 589.255 0.368558 -0.560719 0
M  V30 6271 H 591.799 0.532618 -1.97442 0
M  V30 6272 H 589.954 2.95973 -2.49958 0
M  V30 6273 H 590.368 2.42895 -4.64868 0
M  V30 6274 H 591.842 3.94627 -3.85971 0
M  V30 6275 H 592.319 3.81949 -2.16821 0
M  V30 6276 H 592.925 2.62933 -3.34285 0
M  V30 6277 N 591.24 1.41047 0.703093 0
M  V30 6278 C 592.17 1.45067 1.82969 0
M  V30 6279 C 593.151 0.31016 1.67248 0
M  V30 6280 O 594.336 0.520548 1.87093 0
M  V30 6281 C 591.466 1.32478 3.2104 0
M  V30 6282 C 590.42 2.44262 3.51454 0
M  V30 6283 C 589.746 2.16742 4.88801 0
M  V30 6284 C 591.046 3.86606 3.51189 0
M  V30 6285 H 592.74 2.39353 1.79863 0
M  V30 6286 H 590.286 1.15206 0.863919 0
M  V30 6287 H 592.239 1.33904 3.99559 0
M  V30 6288 H 590.963 0.346735 3.24754 0
M  V30 6289 H 589.622 2.42107 2.75282 0
M  V30 6290 H 589.27 1.17299 4.89132 0
M  V30 6291 H 588.97 2.91643 5.10116 0
M  V30 6292 H 590.494 2.19872 5.69639 0
M  V30 6293 H 591.908 3.90517 4.19725 0
M  V30 6294 H 590.305 4.61128 3.84033 0
M  V30 6295 H 591.375 4.15296 2.50315 0
M  V30 6296 N 592.718 -0.936591 1.26751 0
M  V30 6297 C 594.129 -1.49816 1.1141 0
M  V30 6298 C 594.48 -1.9383 -0.304015 0
M  V30 6299 O 593.605 -1.80346 -1.196 0
M  V30 6300 C 594.2 -2.72271 2.01629 0
M  V30 6301 C 592.759 -3.2468 1.9042 0
M  V30 6302 C 591.906 -1.97444 1.94708 0
M  V30 6303 H 594.857 -0.751604 1.39773 0
M  V30 6304 H 594.878 -3.46741 1.56688 0
M  V30 6305 H 594.39 -2.40205 3.04833 0
M  V30 6306 H 592.491 -3.61525 0.901674 0
M  V30 6307 H 592.604 -3.91476 2.76195 0
M  V30 6308 H 590.968 -2.13545 1.38818 0
M  V30 6309 H 591.751 -1.67703 2.9955 0
M  V30 6310 N 594.196 -1.08629 -1.14182 0
M  V30 6311 C 595.442 -0.818556 -1.85546 0
M  V30 6312 C 595.775 0.654076 -1.82854 0
M  V30 6313 O 595.05 1.48099 -1.26083 0
M  V30 6314 C 595.333 -1.34397 -3.3408 0
M  V30 6315 C 595.186 -2.8821 -3.45333 0
M  V30 6316 C 596.505 -0.971069 -4.29253 0
M  V30 6317 H 593.624 -0.298821 -0.673702 0
M  V30 6318 H 596.266 -1.34629 -1.34071 0
M  V30 6319 H 594.416 -0.895064 -3.78049 0
M  V30 6320 H 596.088 -3.41488 -3.10134 0
M  V30 6321 H 594.331 -3.25756 -2.86471 0
M  V30 6322 H 595.002 -3.20047 -4.49749 0
M  V30 6323 H 597.478 -1.35809 -3.93313 0
M  V30 6324 H 596.354 -1.36586 -5.31635 0
M  V30 6325 H 596.615 0.121659 -4.41933 0
M  V30 6326 N 595.674 1.31259 -0.872281 0
M  V30 6327 C 596.604 2.30929 -0.345554 0
M  V30 6328 C 597.585 1.60449 0.5648 0
M  V30 6329 O 598.77 1.8814 0.481335 0
M  V30 6330 C 595.9 3.44348 0.451823 0
M  V30 6331 C 594.854 4.26435 -0.365641 0
M  V30 6332 C 594.18 5.31785 0.557562 0
M  V30 6333 C 595.48 4.97159 -1.60095 0
M  V30 6334 H 597.174 2.75234 -1.17841 0
M  V30 6335 H 594.72 1.3232 -0.568094 0
M  V30 6336 H 596.673 4.13128 0.830854 0
M  V30 6337 H 595.397 2.98816 1.31821 0
M  V30 6338 H 594.056 3.59326 -0.726649 0
M  V30 6339 H 593.704 4.82502 1.4213 0
M  V30 6340 H 593.404 5.87598 0.0144878 0
M  V30 6341 H 594.928 6.03424 0.933387 0
M  V30 6342 H 596.342 5.58523 -1.29323 0
M  V30 6343 H 594.739 5.62779 -2.08327 0
M  V30 6344 H 595.809 4.24012 -2.35249 0
M  V30 6345 N 597.152 0.631951 1.44375 0
M  V30 6346 C 598.382 0.143658 2.061 0
M  V30 6347 C 598.79 -1.18733 1.47306 0
M  V30 6348 O 598.133 -1.73943 0.590724 0
M  V30 6349 C 598.195 -0.0446102 3.59472 0
M  V30 6350 C 597.859 1.20835 4.40736 0
M  V30 6351 C 598.856 2.13224 4.74164 0
M  V30 6352 C 596.541 1.44399 4.81097 0
M  V30 6353 C 598.535 3.27487 5.46838 0
M  V30 6354 C 596.222 2.58959 5.53519 0
M  V30 6355 C 597.22 3.50329 5.86309 0
M  V30 6356 O 596.908 4.62891 6.57257 0
M  V30 6357 H 596.64 0.0772939 0.671567 0
M  V30 6358 H 599.194 0.866677 1.8622 0
M  V30 6359 H 597.424 -0.822783 3.77845 0
M  V30 6360 H 599.113 -0.487561 4.02961 0
M  V30 6361 H 599.879 1.96253 4.4352 0
M  V30 6362 H 595.758 0.741696 4.54994 0
M  V30 6363 H 599.302 3.98826 5.72349 0
M  V30 6364 H 595.199 2.75873 5.83579 0
M  V30 6365 H 595.967 4.61883 6.75726 0
M  V30 6366 N 598.631 -1.53133 0.372548 0
M  V30 6367 C 599.564 -2.22328 -0.514361 0
M  V30 6368 C 600.542 -1.21776 -1.07747 0
M  V30 6369 O 601.726 -1.50704 -1.13228 0
M  V30 6370 C 598.853 -2.92343 -1.71035 0
M  V30 6371 C 597.899 -4.07026 -1.27405 0
M  V30 6372 S 598.732 -5.34821 -0.269526 0
M  V30 6373 C 599.888 -6.08352 -1.47168 0
M  V30 6374 H 600.121 -2.9721 0.0732683 0
M  V30 6375 H 597.654 -1.53603 0.156673 0
M  V30 6376 H 599.612 -3.33296 -2.39634 0
M  V30 6377 H 598.273 -2.17173 -2.26925 0
M  V30 6378 H 597.466 -4.55056 -2.16656 0
M  V30 6379 H 597.068 -3.68001 -0.66719 0
M  V30 6380 H 599.36 -6.33507 -2.40157 0
M  V30 6381 H 600.303 -7.0053 -1.03263 0
M  V30 6382 H 600.711 -5.38893 -1.6809 0
M  V30 6383 N 600.109 -0.101901 -1.5727 0
M  V30 6384 C 601.039 0.851544 -2.17419 0
M  V30 6385 C 602.02 1.28942 -1.10941 0
M  V30 6386 O 603.205 1.35509 -1.39107 0
M  V30 6387 C 600.335 2.10816 -2.75996 0
M  V30 6388 C 599.289 1.80867 -3.87906 0
M  V30 6389 C 598.615 3.13413 -4.33216 0
M  V30 6390 C 599.915 1.0903 -5.10793 0
M  V30 6391 H 601.609 0.350381 -2.97343 0
M  V30 6392 H 599.155 0.16709 -1.43027 0
M  V30 6393 H 601.108 2.77959 -3.16729 0
M  V30 6394 H 599.832 2.63227 -1.93337 0
M  V30 6395 H 598.491 1.16119 -3.47724 0
M  V30 6396 H 598.139 3.63725 -3.47438 0
M  V30 6397 H 597.839 2.94155 -5.08671 0
M  V30 6398 H 599.363 3.81704 -4.76586 0
M  V30 6399 H 600.777 1.66295 -5.48652 0
M  V30 6400 H 599.174 0.99927 -5.91722 0
M  V30 6401 H 600.244 0.0741704 -4.84843 0
M  V30 6402 N 601.587 1.56661 0.17182 0
M  V30 6403 C 602.834 1.81965 0.888529 0
M  V30 6404 C 603.162 0.6789 1.82267 0
M  V30 6405 O 602.417 -0.333875 1.92831 0
M  V30 6406 C 602.716 3.13435 1.71736 0
M  V30 6407 C 602.382 4.41159 0.932184 0
M  V30 6408 C 601.044 4.75851 0.715481 0
M  V30 6409 C 603.396 5.19803 0.381387 0
M  V30 6410 C 600.724 5.86666 -0.063126 0
M  V30 6411 C 603.076 6.31433 -0.384129 0
M  V30 6412 C 601.74 6.64692 -0.611637 0
M  V30 6413 H 601.01 0.665859 0.325136 0
M  V30 6414 H 603.657 1.90884 0.153495 0
M  V30 6415 H 601.962 2.99857 2.52177 0
M  V30 6416 H 603.659 3.30224 2.27493 0
M  V30 6417 H 600.249 4.13947 1.11112 0
M  V30 6418 H 604.433 4.93396 0.536148 0
M  V30 6419 H 599.689 6.10892 -0.249136 0
M  V30 6420 H 603.863 6.91577 -0.818185 0
M  V30 6421 H 601.49 7.50398 -1.21684 0
M  V30 6422 N 603.065 -0.440357 1.51323 0
M  V30 6423 C 604.012 -1.53429 1.72419 0
M  V30 6424 C 604.982 -1.56165 0.565826 0
M  V30 6425 O 606.167 -1.73222 0.799917 0
M  V30 6426 C 603.307 -2.91169 1.85242 0
M  V30 6427 C 602.42 -2.97985 3.12777 0
M  V30 6428 C 601.555 -4.26829 3.16212 0
M  V30 6429 C 600.594 -4.27501 4.38074 0
M  V30 6430 N 599.731 -5.47866 4.39076 0
M  V30 6431 H 604.571 -1.34743 2.65797 0
M  V30 6432 H 602.108 -0.654608 1.31732 0
M  V30 6433 H 604.066 -3.71087 1.90658 0
M  V30 6434 H 602.696 -3.0842 0.952744 0
M  V30 6435 H 601.748 -2.10749 3.16685 0
M  V30 6436 H 603.06 -2.94342 4.02696 0
M  V30 6437 H 602.214 -5.15118 3.20527 0
M  V30 6438 H 600.953 -4.33124 2.24176 0
M  V30 6439 H 599.958 -3.37606 4.33938 0
M  V30 6440 H 601.183 -4.22873 5.31371 0
M  V30 6441 H 599.129 -5.54887 3.49909 0
M  V30 6442 H 599.046 -5.46091 5.22801 0
M  V30 6443 H 600.314 -6.38195 4.4758 0
M  V30 6444 N 604.543 -1.41418 -0.695603 0
M  V30 6445 C 605.506 -1.42988 -1.79129 0
M  V30 6446 C 606.506 -0.320514 -1.57573 0
M  V30 6447 O 607.696 -0.58039 -1.64247 0
M  V30 6448 C 604.828 -1.24122 -3.175 0
M  V30 6449 H 606.021 -2.40526 -1.7913 0
M  V30 6450 H 603.574 -1.2756 -0.903225 0
M  V30 6451 H 604.309 -0.274253 -3.23138 0
M  V30 6452 H 604.094 -2.045 -3.34547 0
M  V30 6453 H 605.584 -1.28056 -3.97481 0
M  V30 6454 N 606.021 0.929856 -1.27246 0
M  V30 6455 C 607.246 1.71674 -1.16374 0
M  V30 6456 C 607.671 1.86064 0.276024 0
M  V30 6457 O 607.029 1.3591 1.19992 0
M  V30 6458 C 607.077 3.09526 -1.85003 0
M  V30 6459 O 606.181 3.96142 -1.14653 0
M  V30 6460 H 605.522 0.52629 -0.404863 0
M  V30 6461 H 608.052 1.16381 -1.68276 0
M  V30 6462 H 608.062 3.59852 -1.92276 0
M  V30 6463 H 606.737 2.98369 -2.89739 0
M  V30 6464 H 605.314 3.54584 -1.15433 0
M  V30 6465 O 607.538 1.21494 1.06403 0
M  V30 6466 H 608.229 0.975073 1.67368 0
M  V30 END ATOM
M  V30 BEGIN BOND
M  V30 END BOND
M  V30 END CTAB
M  END
$$$$
