drugbank_target|Q96EN8 Molybdenum cofactor sulfurase (DB00114)
 OpenBabel12092120063D

  0  0  0     0  0            999 V3000
M  V30 BEGIN CTAB
M  V30 COUNTS 13649 13811 0 0 0
M  V30 BEGIN ATOM
M  V30 1 H -0.908 1.98254 -0.117106 0
M  V30 2 N 0 1.576 0 0
M  V30 3 C 0.933 2.03868 1.02534 0
M  V30 4 C 1.911 0.928543 1.3348 0
M  V30 5 O 3.095 1.19667 1.45644 0
M  V30 6 C 0.222 2.43627 2.35294 0
M  V30 7 C -0.732 3.65373 2.2001 0
M  V30 8 S 0.101 5.13292 1.52614 0
M  V30 9 C 1.257 5.56322 2.86805 0
M  V30 10 H 1.49 2.90518 0.631377 0
M  V30 11 H -0.977 1.52953 0.210867 0
M  V30 12 H 0.981 2.67203 3.11629 0
M  V30 13 H -0.358 1.57376 2.7183 0
M  V30 14 H -1.165 3.90944 3.18086 0
M  V30 15 H -1.563 3.418 1.51819 0
M  V30 16 H 0.729 5.58782 3.83104 0
M  V30 17 H 1.672 6.56266 2.65933 0
M  V30 18 H 2.08 4.83886 2.90714 0
M  V30 19 N 1.4781 -0.272755 1.55222 0
M  V30 20 C 2.4411 -1.32041 1.87344 0
M  V30 21 C 3.4411 -1.42342 0.74803 0
M  V30 22 O 4.6311 -1.41488 1.0162 0
M  V30 23 C 1.7631 -2.70173 2.07893 0
M  V30 24 H 2.9561 -1.04789 2.80997 0
M  V30 25 H 0.5091 -0.51083 1.47717 0
M  V30 26 H 1.2441 -3.02605 1.16622 0
M  V30 27 H 1.0291 -2.64082 2.89833 0
M  V30 28 H 2.5191 -3.45869 2.34017 0
M  V30 29 N 2.9562 -1.48159 -0.537278 0
M  V30 30 C 4.2042 -1.55497 -1.29094 0
M  V30 31 C 4.5252 -0.227454 -1.93669 0
M  V30 32 O 3.7952 0.750386 -1.80959 0
M  V30 33 H 2.3752 -0.572832 -0.47945 0
M  V30 34 H 5.0372 -1.84579 -0.625818 0
M  V30 35 H 4.1332 -2.33216 -2.07405 0
M  V30 36 N 4.4343 0.785586 -1.36625 0
M  V30 37 C 5.3973 1.87999 -1.31107 0
M  V30 38 C 6.3973 1.59316 -0.217959 0
M  V30 39 O 7.5873 1.67656 -0.472977 0
M  V30 40 C 4.7193 3.24861 -1.03334 0
M  V30 41 H 5.9123 1.94307 -2.2844 0
M  V30 42 H 3.4653 0.983813 -1.21453 0
M  V30 43 H 4.2003 3.24235 -0.0647432 0
M  V30 44 H 3.9853 3.4707 -1.82441 0
M  V30 45 H 5.4753 4.04929 -1.02088 0
M  V30 46 N 5.9124 1.20967 1.01018 0
M  V30 47 C 6.8754 0.965918 2.07853 0
M  V30 48 C 7.8754 -0.0610545 1.60684 0
M  V30 49 O 9.0654 0.175681 1.73312 0
M  V30 50 C 6.1974 0.455513 3.37843 0
M  V30 51 H 7.3904 1.91365 2.3091 0
M  V30 52 H 4.9434 1.02594 1.17916 0
M  V30 53 H 5.6784 -0.497381 3.20463 0
M  V30 54 H 5.4634 1.19622 3.73407 0
M  V30 55 H 6.9534 0.304667 4.16487 0
M  V30 56 N 7.3905 -1.2043 1.01659 0
M  V30 57 C 8.3535 -2.21433 0.591616 0
M  V30 58 C 9.3535 -1.57203 -0.338226 0
M  V30 59 O 10.5435 -1.73737 -0.126918 0
M  V30 60 C 7.6755 -3.40628 -0.136058 0
M  V30 61 H 8.8685 -2.60545 1.48514 0
M  V30 62 H 6.4215 -1.33893 0.806379 0
M  V30 63 H 7.1565 -3.07019 -1.04449 0
M  V30 64 H 6.9415 -3.88475 0.531917 0
M  V30 65 H 8.4315 -4.15475 -0.420735 0
M  V30 66 N 8.8686 -0.792821 -1.36206 0
M  V30 67 C 9.7786 -0.194808 -2.3379 0
M  V30 68 C 10.7946 0.654869 -1.61206 0
M  V30 69 O 11.9706 0.569856 -1.9317 0
M  V30 70 C 9.0356 0.657721 -3.40404 0
M  V30 71 C 8.0966 -0.210849 -4.28782 0
M  V30 72 C 7.3296 0.601086 -5.30304 0
M  V30 73 O 7.5526 1.83682 -5.40016 0
M  V30 74 O 6.4866 -0.000808277 -6.019 0
M  V30 75 H 10.3126 -1.00172 -2.86704 0
M  V30 76 H 7.8976 -0.554341 -1.38735 0
M  V30 77 H 9.7796 1.14375 -4.05581 0
M  V30 78 H 8.4546 1.44247 -2.89784 0
M  V30 79 H 7.3616 -0.743714 -3.66633 0
M  V30 80 H 8.6946 -0.959195 -4.82763 0
M  V30 81 N 10.3467 1.47872 -0.545128 0
M  V30 82 C 11.5717 2.07391 -0.0190611 0
M  V30 83 C 11.9967 1.39688 1.25971 0
M  V30 84 O 11.3547 0.467816 1.7516 0
M  V30 85 C 11.4027 3.60188 0.172335 0
M  V30 86 O 10.5067 3.9339 1.23766 0
M  V30 87 H 9.8477 0.662411 -0.0459059 0
M  V30 88 H 12.3777 1.90066 -0.757365 0
M  V30 89 H 12.3877 4.06129 0.390305 0
M  V30 90 H 11.0627 4.08865 -0.761725 0
M  V30 91 H 9.6397 3.5921 1.00114 0
M  V30 92 N 11.8248 0.280983 1.55075 0
M  V30 93 C 13.0728 -0.333455 1.9933 0
M  V30 94 C 13.3938 -1.55937 1.17085 0
M  V30 95 O 12.6638 -1.94143 0.261805 0
M  V30 96 H 11.2438 -0.126197 0.736263 0
M  V30 97 H 13.9058 0.387678 1.91005 0
M  V30 98 H 13.0018 -0.619292 3.05894 0
M  V30 99 N 13.3029 -1.57598 0.00835791 0
M  V30 100 C 14.7189 -1.55764 -0.347822 0
M  V30 101 C 14.9189 -1.01186 -1.74252 0
M  V30 102 O 13.9749 -0.649371 -2.44007 0
M  V30 103 C 15.2879 -2.99927 -0.215407 0
M  V30 104 C 16.8359 -3.11656 -0.289725 0
M  V30 105 C 17.3109 -4.57621 -0.18634 0
M  V30 106 N 18.8019 -4.62557 -0.243978 0
M  V30 107 C 19.5369 -5.73094 -0.18745 0
M  V30 108 N 19.0329 -6.92753 -0.0810331 0
M  V30 109 N 20.8259 -5.61588 -0.239925 0
M  V30 110 H 12.9769 -1.91411 0.92062 0
M  V30 111 H 15.2399 -0.879562 0.353659 0
M  V30 112 H 14.9459 -3.43729 0.744512 0
M  V30 113 H 14.8199 -3.63865 -0.994097 0
M  V30 114 H 17.2069 -2.67779 -1.24009 0
M  V30 115 H 17.2879 -2.5048 0.51898 0
M  V30 116 H 16.9319 -5.02174 0.760519 0
M  V30 117 H 16.8619 -5.16752 -1.01364 0
M  V30 118 H 19.3529 -3.76481 -0.327217 0
M  V30 119 H 19.6659 -7.72787 -0.0440241 0
M  V30 120 H 18.0109 -6.94984 -0.0465419 0
M  V30 121 H 21.2019 -4.66996 -0.321317 0
M  V30 122 H 21.3749 -6.47714 -0.192407 0
M  V30 123 N 14.781 0.264519 -1.55364 0
M  V30 124 C 15.691 1.34902 -1.91934 0
M  V30 125 C 16.707 1.53595 -0.817593 0
M  V30 126 O 17.883 1.67558 -1.11742 0
M  V30 127 C 14.948 2.68676 -2.19121 0
M  V30 128 C 14.009 2.58657 -3.4263 0
M  V30 129 C 13.242 3.86051 -3.68511 0
M  V30 130 O 13.465 4.87126 -2.96757 0
M  V30 131 O 12.399 3.85744 -4.62045 0
M  V30 132 H 16.225 1.06883 -2.8427 0
M  V30 133 H 13.81 0.463775 -1.42019 0
M  V30 134 H 15.692 3.47759 -2.37995 0
M  V30 135 H 14.367 2.96463 -1.29966 0
M  V30 136 H 13.274 1.7792 -3.29082 0
M  V30 137 H 14.607 2.35818 -4.32031 0
M  V30 138 N 16.2591 1.48442 0.529413 0
M  V30 139 C 17.1891 1.65902 1.64313 0
M  V30 140 C 18.1701 0.507897 1.6234 0
M  V30 141 O 19.3551 0.740503 1.79528 0
M  V30 142 C 16.4851 1.69911 3.02898 0
M  V30 143 C 15.4391 2.8453 3.19729 0
M  V30 144 C 14.7651 2.73629 4.59381 0
M  V30 145 C 16.0651 4.25821 3.02447 0
M  V30 146 H 17.7591 2.5914 1.49955 0
M  V30 147 H 15.3051 1.24709 0.719982 0
M  V30 148 H 17.2581 1.80715 3.80684 0
M  V30 149 H 15.9821 0.732524 3.18279 0
M  V30 150 H 14.6411 2.73283 2.44361 0
M  V30 151 H 14.2891 1.74938 4.71599 0
M  V30 152 H 13.9891 3.50541 4.71588 0
M  V30 153 H 15.5131 2.86401 5.39265 0
M  V30 154 H 16.9271 4.37898 3.70024 0
M  V30 155 H 15.3241 5.03735 3.26146 0
M  V30 156 H 16.3941 4.42244 1.98867 0
M  V30 157 N 17.7372 -0.778329 1.37039 0
M  V30 158 C 18.9832 -1.53817 1.33086 0
M  V30 159 C 19.3382 -1.92208 -0.0860346 0
M  V30 160 O 18.6312 -1.60713 -1.04316 0
M  V30 161 C 18.8252 -2.81845 2.19768 0
M  V30 162 C 18.6542 -2.55967 3.69744 0
M  V30 163 C 17.4242 -2.50428 4.38878 0
M  V30 164 C 19.6222 -2.2441 4.62758 0
M  V30 165 N 17.6042 -2.16564 5.74433 0
M  V30 166 C 18.9752 -2.0063 5.86641 0
M  V30 167 C 21.0302 -2.1051 4.5121 0
M  V30 168 C 19.7332 -1.64354 7.00272 0
M  V30 169 C 21.7592 -1.75634 5.64718 0
M  V30 170 C 21.1212 -1.52709 6.87648 0
M  V30 171 H 17.2202 -0.563434 0.542279 0
M  V30 172 H 19.8042 -0.908617 1.72198 0
M  V30 173 H 17.9752 -3.42649 1.82883 0
M  V30 174 H 19.7072 -3.47682 2.07122 0
M  V30 175 H 16.4622 -2.66056 3.91805 0
M  V30 176 H 16.8862 -2.02348 6.46053 0
M  V30 177 H 21.5282 -2.26919 3.56746 0
M  V30 178 H 19.2462 -1.46683 7.94676 0
M  V30 179 H 22.8322 -1.65546 5.57751 0
M  V30 180 H 21.7122 -1.2612 7.73992 0
M  V30 181 N 19.2153 -1.21501 -1.00376 0
M  V30 182 C 20.4433 -1.059 -1.77744 0
M  V30 183 C 20.8583 0.391125 -1.84704 0
M  V30 184 O 20.2153 1.27133 -1.30933 0
M  V30 185 C 20.2663 -1.65111 -3.21591 0
M  V30 186 O 19.9873 -3.0445 -3.15027 0
M  V30 187 C 21.4883 -1.54637 -4.15454 0
M  V30 188 H 18.7083 -0.371825 -0.558558 0
M  V30 189 H 21.2523 -1.60865 -1.26264 0
M  V30 190 H 19.4073 -1.14235 -3.70175 0
M  V30 191 H 19.8213 -3.3278 -4.0541 0
M  V30 192 H 21.2953 -2.00808 -5.14179 0
M  V30 193 H 21.7723 -0.501022 -4.36333 0
M  V30 194 H 22.3783 -2.04767 -3.72761 0
M  V30 195 N 20.6934 1.19889 -1.02296 0
M  V30 196 C 21.9404 1.8942 -0.715972 0
M  V30 197 C 22.2684 1.79251 0.754944 0
M  V30 198 O 21.5234 1.17526 1.56481 0
M  V30 199 C 21.8224 3.39883 -1.10518 0
M  V30 200 C 21.4884 3.70254 -2.57337 0
M  V30 201 C 20.1504 3.78254 -2.97452 0
M  V30 202 C 22.5024 3.84052 -3.52354 0
M  V30 203 C 19.8304 3.97514 -4.31509 0
M  V30 204 C 22.1824 4.04824 -4.86108 0
M  V30 205 C 20.8464 4.11054 -5.25919 0
M  V30 206 H 20.1164 0.693138 -0.261993 0
M  V30 207 H 22.7634 1.42012 -1.28472 0
M  V30 208 H 21.0684 3.8915 -0.454953 0
M  V30 209 H 22.7654 3.9199 -0.845261 0
M  V30 210 H 19.3554 3.64632 -2.25258 0
M  V30 211 H 23.5394 3.77221 -3.22518 0
M  V30 212 H 18.7954 4.00574 -4.61898 0
M  V30 213 H 22.9694 4.14442 -5.59653 0
M  V30 214 H 20.5964 4.2573 -6.29808 0
M  V30 215 N 22.1715 0.800033 1.35784 0
M  V30 216 C 23.1345 0.211565 2.28221 0
M  V30 217 C 24.1345 -0.59728 1.49296 0
M  V30 218 O 25.3245 -0.416721 1.69142 0
M  V30 219 C 22.4565 -0.705846 3.33513 0
M  V30 220 H 23.6495 1.02677 2.81776 0
M  V30 221 H 21.2025 0.570211 1.45528 0
M  V30 222 H 21.9375 -1.54498 2.85133 0
M  V30 223 H 21.7225 -0.127655 3.91892 0
M  V30 224 H 23.2125 -1.11211 4.02519 0
M  V30 225 N 23.6496 -1.47581 0.552962 0
M  V30 226 C 24.8976 -2.02082 0.0272703 0
M  V30 227 C 25.2186 -1.4301 -1.32563 0
M  V30 228 O 24.4886 -0.603745 -1.86365 0
M  V30 229 H 23.0686 -0.746966 0.00709182 0
M  V30 230 H 25.7306 -1.81033 0.722008 0
M  V30 231 H 24.8266 -3.12034 -0.0639951 0
M  V30 232 N 25.1277 -0.289203 -1.54924 0
M  V30 233 C 26.3527 0.329299 -2.04769 0
M  V30 234 C 26.7777 1.4763 -1.16564 0
M  V30 235 O 26.1357 1.80527 -0.167186 0
M  V30 236 C 26.1837 0.774438 -3.52186 0
M  V30 237 O 25.2877 1.88038 -3.67036 0
M  V30 238 H 24.6287 0.0659259 -0.660719 0
M  V30 239 H 27.1587 -0.42761 -2.00082 0
M  V30 240 H 27.1687 1.06642 -3.93816 0
M  V30 241 H 25.8437 -0.0646707 -4.1585 0
M  V30 242 H 24.4207 1.58985 -3.3731 0
M  V30 243 N 26.6058 1.57591 -0.0167156 0
M  V30 244 C 28.0218 1.55946 0.339557 0
M  V30 245 C 28.2218 1.02109 1.73713 0
M  V30 246 O 27.2778 0.662303 2.43659 0
M  V30 247 C 28.5908 3.00037 0.199499 0
M  V30 248 C 30.1388 3.11805 0.273193 0
M  V30 249 C 30.6138 4.57713 0.162068 0
M  V30 250 N 32.1048 4.6268 0.219444 0
M  V30 251 C 32.8398 5.73185 0.157054 0
M  V30 252 N 32.3358 6.92786 0.0442936 0
M  V30 253 N 34.1288 5.61707 0.21014 0
M  V30 254 H 26.2798 1.90921 -0.930758 0
M  V30 255 H 28.5428 0.877674 -0.358319 0
M  V30 256 H 28.2488 3.4333 -0.76273 0
M  V30 257 H 28.1228 3.64387 0.974786 0
M  V30 258 H 30.5098 2.68433 1.22587 0
M  V30 259 H 30.5908 2.50201 -0.532256 0
M  V30 260 H 30.2348 5.01763 -0.78714 0
M  V30 261 H 30.1648 5.17283 0.986222 0
M  V30 262 H 32.6558 3.76649 0.307246 0
M  V30 263 H 32.9688 7.728 0.00304069 0
M  V30 264 H 31.3138 6.94999 0.00968457 0
M  V30 265 H 34.5048 4.6716 0.296546 0
M  V30 266 H 34.6778 6.47807 0.158054 0
M  V30 267 N 28.0839 -0.256276 1.55502 0
M  V30 268 C 29.3609 -1.00789 1.67633 0
M  V30 269 C 29.7409 -2.03706 0.553826 0
M  V30 270 O 29.0889 -2.24145 -0.443969 0
M  V30 271 C 29.2989 -1.64968 3.07549 0
M  V30 272 C 30.6469 -2.15505 3.65845 0
M  V30 273 O 31.6709 -1.74925 3.1029 0
M  V30 274 O 30.5299 -2.89986 4.63217 0
M  V30 275 H 27.6239 -0.468553 0.681459 0
M  V30 276 H 30.1699 -0.250806 1.67836 0
M  V30 277 H 28.9419 -0.904785 3.80696 0
M  V30 278 H 28.5649 -2.47321 3.11317 0
M  V30 279 N 29.562 -1.4872 -0.521534 0
M  V30 280 C 30.973 -1.50607 -1.10337 0
M  V30 281 C 31.324 -0.280612 -1.94183 0
M  V30 282 O 30.449 0.611507 -2.0758 0
M  V30 283 C 31.044 -2.72903 -2.00772 0
M  V30 284 C 29.603 -2.77634 -2.54158 0
M  V30 285 C 28.75 -2.44241 -1.31307 0
M  V30 286 H 31.701 -1.55714 -0.306388 0
M  V30 287 H 31.722 -2.519 -2.85178 0
M  V30 288 H 31.234 -3.62077 -1.39721 0
M  V30 289 H 29.335 -1.92689 -3.18907 0
M  V30 290 H 29.448 -3.79283 -2.92714 0
M  V30 291 H 27.812 -1.95577 -1.63161 0
M  V30 292 H 28.595 -3.35666 -0.719943 0
M  V30 293 N 31.0401 0.771051 -1.3745 0
M  V30 294 C 32.2651 1.56529 -1.36065 0
M  V30 295 C 32.6901 1.88029 0.0515859 0
M  V30 296 O 32.0481 1.49282 1.02882 0
M  V30 297 C 32.0961 2.85187 -2.20683 0
M  V30 298 O 31.2001 3.79593 -1.61193 0
M  V30 299 H 30.5411 0.47411 -0.464883 0
M  V30 300 H 33.0711 0.954269 -1.80983 0
M  V30 301 H 33.0811 3.34283 -2.33921 0
M  V30 302 H 31.7561 2.61588 -3.23334 0
M  V30 303 H 30.3331 3.38239 -1.56999 0
M  V30 304 N 32.5182 1.22032 0.997298 0
M  V30 305 C 33.4812 0.987909 2.06816 0
M  V30 306 C 34.4812 -0.0440084 1.6074 0
M  V30 307 O 35.6712 0.194053 1.73116 0
M  V30 308 C 32.8032 0.49132 3.37341 0
M  V30 309 H 33.9962 1.93803 2.28868 0
M  V30 310 H 31.5492 1.03838 1.16822 0
M  V30 311 H 32.2842 -0.463364 3.20973 0
M  V30 312 H 32.0692 1.23575 3.72118 0
M  V30 313 H 33.5592 0.348824 4.16141 0
M  V30 314 N 33.9963 -1.19345 1.0293 0
M  V30 315 C 35.4073 -1.70725 0.755633 0
M  V30 316 C 35.7583 -1.82326 -0.724676 0
M  V30 317 O 34.8833 -1.49471 -1.56484 0
M  V30 318 C 35.4783 -3.10084 1.36503 0
M  V30 319 C 34.0373 -3.58723 1.13994 0
M  V30 320 C 33.1843 -2.35577 1.46283 0
M  V30 321 H 36.1353 -1.0418 1.19718 0
M  V30 322 H 36.1563 -3.72787 0.762217 0
M  V30 323 H 35.6683 -3.01609 2.44241 0
M  V30 324 H 33.7693 -3.72512 0.0807901 0
M  V30 325 H 33.8823 -4.42816 1.82894 0
M  V30 326 H 32.2463 -2.38935 0.88217 0
M  V30 327 H 33.0293 -2.29731 2.55105 0
M  V30 328 N 35.4744 -0.807222 -1.35358 0
M  V30 329 C 36.8904 -0.491038 -1.51858 0
M  V30 330 C 37.0904 0.987648 -1.75635 0
M  V30 331 O 36.1464 1.77265 -1.79815 0
M  V30 332 C 37.4594 -1.33695 -2.69344 0
M  V30 333 C 39.0074 -1.33246 -2.83222 0
M  V30 334 C 39.4824 -2.1625 -4.03733 0
M  V30 335 N 40.9734 -2.1379 -4.10911 0
M  V30 336 C 41.7084 -2.74772 -5.03277 0
M  V30 337 N 41.2044 -3.44684 -6.0097 0
M  V30 338 N 42.9974 -2.6441 -4.96028 0
M  V30 339 H 35.1484 -1.76485 -1.18181 0
M  V30 340 H 37.4114 -0.751199 -0.578276 0
M  V30 341 H 37.1174 -2.38634 -2.58354 0
M  V30 342 H 36.9914 -0.990618 -3.6396 0
M  V30 343 H 39.3784 -0.290911 -2.93663 0
M  V30 344 H 39.4594 -1.71866 -1.89461 0
M  V30 345 H 39.1034 -3.20445 -3.94052 0
M  V30 346 H 39.0334 -1.74989 -4.96675 0
M  V30 347 H 41.5244 -1.62923 -3.40976 0
M  V30 348 H 41.8374 -3.88501 -6.68047 0
M  V30 349 H 40.1824 -3.48788 -6.01142 0
M  V30 350 H 43.3734 -2.0938 -4.18662 0
M  V30 351 H 43.5464 -3.12225 -5.6782 0
M  V30 352 N 36.9525 1.47285 -0.560781 0
M  V30 353 C 37.8825 2.32857 0.173105 0
M  V30 354 C 38.8635 1.44009 0.905281 0
M  V30 355 O 40.0485 1.7286 0.885046 0
M  V30 356 C 37.1785 3.25861 1.20133 0
M  V30 357 C 36.1325 4.23978 0.585388 0
M  V30 358 C 35.4585 5.06332 1.7185 0
M  V30 359 C 36.7585 5.20242 -0.463178 0
M  V30 360 H 38.4525 2.94466 -0.541307 0
M  V30 361 H 35.9985 1.41601 -0.261764 0
M  V30 362 H 37.9515 3.84569 1.72293 0
M  V30 363 H 36.6755 2.62315 1.94573 0
M  V30 364 H 35.3345 3.66501 0.085054 0
M  V30 365 H 34.9825 4.39186 2.45203 0
M  V30 366 H 34.6825 5.72762 1.31213 0
M  V30 367 H 36.2065 5.67899 2.24329 0
M  V30 368 H 37.6205 5.73293 -0.027502 0
M  V30 369 H 36.0175 5.94896 -0.788627 0
M  V30 370 H 37.0875 4.65504 -1.35773 0
M  V30 371 N 38.4306 0.297415 1.54768 0
M  V30 372 C 39.3936 -0.567375 2.22066 0
M  V30 373 C 40.3936 -1.06409 1.20556 0
M  V30 374 O 41.5836 -0.960691 1.45315 0
M  V30 375 C 38.7156 -1.78517 2.90421 0
M  V30 376 H 39.9086 0.0205534 2.99893 0
M  V30 377 H 37.4616 0.0482163 1.56226 0
M  V30 378 H 38.1966 -2.41303 2.16664 0
M  V30 379 H 37.9816 -1.43669 3.64831 0
M  V30 380 H 39.4716 -2.39964 3.41771 0
M  V30 381 N 39.9087 -1.5758 0.0250728 0
M  V30 382 C 41.1387 -1.95646 -0.663783 0
M  V30 383 C 41.5467 -0.899935 -1.66427 0
M  V30 384 O 40.8897 0.127191 -1.83259 0
M  V30 385 C 40.9517 -3.29835 -1.43 0
M  V30 386 C 40.6157 -4.53197 -0.588305 0
M  V30 387 C 41.6127 -5.19726 0.13469 0
M  V30 388 C 39.2977 -4.99529 -0.526897 0
M  V30 389 C 41.2917 -6.30902 0.90781 0
M  V30 390 C 38.9787 -6.10589 0.24993 0
M  V30 391 C 39.9767 -6.76134 0.965994 0
M  V30 392 O 39.6647 -7.85062 1.7301 0
M  V30 393 H 39.3967 -0.649282 -0.188174 0
M  V30 394 H 41.9507 -2.05245 0.0799006 0
M  V30 395 H 40.1807 -3.16716 -2.21873 0
M  V30 396 H 41.8697 -3.52833 -2.00658 0
M  V30 397 H 42.6357 -4.84904 0.0965562 0
M  V30 398 H 38.5147 -4.48319 -1.07381 0
M  V30 399 H 42.0587 -6.81995 1.46724 0
M  V30 400 H 37.9557 -6.44849 0.289795 0
M  V30 401 H 38.7237 -8.01708 1.64944 0
M  V30 402 N 41.3868 0.248026 -1.55636 0
M  V30 403 C 42.6348 0.974295 -1.77065 0
M  V30 404 C 42.9558 1.85897 -0.588849 0
M  V30 405 O 42.2258 1.91868 0.395407 0
M  V30 406 H 40.8058 0.362733 -0.653019 0
M  V30 407 H 43.4678 0.266244 -1.93073 0
M  V30 408 H 42.5638 1.59667 -2.68166 0
M  V30 409 N 42.8649 1.48995 0.513639 0
M  V30 410 C 44.0949 1.61297 1.291 0
M  V30 411 C 44.5029 0.278656 1.87137 0
M  V30 412 O 43.8459 -0.744325 1.67945 0
M  V30 413 C 43.9079 2.61326 2.46879 0
M  V30 414 C 43.5719 4.05993 2.09807 0
M  V30 415 C 44.5689 4.93183 1.64519 0
M  V30 416 C 42.2539 4.51642 2.19829 0
M  V30 417 C 44.2479 6.24056 1.2974 0
M  V30 418 C 41.9349 5.82532 1.84662 0
M  V30 419 C 42.9329 6.68562 1.3969 0
M  V30 420 O 42.6209 7.97014 1.04992 0
M  V30 421 H 42.3529 0.546236 0.39825 0
M  V30 422 H 44.9069 1.95673 0.62459 0
M  V30 423 H 43.1369 2.22104 3.16554 0
M  V30 424 H 44.8259 2.6329 3.08923 0
M  V30 425 H 45.5919 4.59147 1.56233 0
M  V30 426 H 41.4709 3.84855 2.53786 0
M  V30 427 H 45.0149 6.91161 0.945659 0
M  V30 428 H 40.9119 6.16099 1.92594 0
M  V30 429 H 41.6799 8.09913 1.18249 0
M  V30 430 N 44.343 -0.763751 1.37857 0
M  V30 431 C 45.591 -1.51957 1.33243 0
M  V30 432 C 45.912 -1.94835 -0.0801709 0
M  V30 433 O 45.182 -1.66894 -1.02582 0
M  V30 434 H 43.762 -0.563626 0.49024 0
M  V30 435 H 46.424 -0.908504 1.7243 0
M  V30 436 H 45.52 -2.41523 1.97669 0
M  V30 437 N 45.8211 -1.22559 -0.990812 0
M  V30 438 C 47.2321 -1.04791 -1.54518 0
M  V30 439 C 47.5831 0.387998 -1.92325 0
M  V30 440 O 46.7081 1.27328 -1.74976 0
M  V30 441 C 47.3031 -1.896 -2.80779 0
M  V30 442 C 45.8621 -1.76124 -3.32652 0
M  V30 443 C 45.0091 -1.8594 -2.05722 0
M  V30 444 H 47.9601 -1.36374 -0.811662 0
M  V30 445 H 47.9811 -1.41464 -3.53225 0
M  V30 446 H 47.4931 -2.94101 -2.53231 0
M  V30 447 H 45.5941 -0.743643 -3.65104 0
M  V30 448 H 45.7071 -2.58913 -4.03114 0
M  V30 449 H 44.0711 -1.29403 -2.19379 0
M  V30 450 H 44.8541 -2.91976 -1.80568 0
M  V30 451 N 47.2992 1.18797 -1.03562 0
M  V30 452 C 48.5472 1.88278 -0.734569 0
M  V30 453 C 48.8682 1.8043 0.739586 0
M  V30 454 O 48.1382 1.21925 1.53333 0
M  V30 455 H 46.7182 0.696991 -0.268725 0
M  V30 456 H 49.3802 1.44192 -1.31129 0
M  V30 457 H 48.4762 2.94443 -1.03489 0
M  V30 458 N 48.7773 0.814389 1.34928 0
M  V30 459 C 50.0023 0.410097 2.03305 0
M  V30 460 C 50.4273 -0.973464 1.60951 0
M  V30 461 O 49.7853 -1.63185 0.789964 0
M  V30 462 C 49.8333 0.51049 3.56968 0
M  V30 463 O 48.9373 -0.473035 4.09678 0
M  V30 464 H 48.2783 0.170088 0.641846 0
M  V30 465 H 50.8083 1.10244 1.72358 0
M  V30 466 H 50.8183 0.383135 4.06197 0
M  V30 467 H 49.4933 1.51963 3.87144 0
M  V30 468 H 48.0703 -0.305272 3.71648 0
M  V30 469 N 50.2554 -1.46986 0.568584 0
M  V30 470 C 51.1854 -2.32946 -0.160753 0
M  V30 471 C 52.1664 -1.44487 -0.897631 0
M  V30 472 O 53.3514 -1.73327 -0.875867 0
M  V30 473 C 50.4814 -3.26494 -1.18403 0
M  V30 474 C 49.4354 -4.24282 -0.562895 0
M  V30 475 C 48.7614 -5.07236 -1.69163 0
M  V30 476 C 50.0614 -5.19989 0.490761 0
M  V30 477 H 51.7554 -2.94175 0.556916 0
M  V30 478 H 49.3014 -1.4146 0.26927 0
M  V30 479 H 51.2544 -3.85477 -1.70251 0
M  V30 480 H 49.9784 -2.63343 -1.93179 0
M  V30 481 H 48.6374 -3.66541 -0.0656164 0
M  V30 482 H 48.2854 -4.4048 -2.42871 0
M  V30 483 H 47.9854 -5.7345 -1.28174 0
M  V30 484 H 49.5094 -5.6908 -2.21314 0
M  V30 485 H 50.9234 -5.73271 0.0579047 0
M  V30 486 H 49.3204 -5.94469 0.820165 0
M  V30 487 H 50.3904 -4.64777 1.3824 0
M  V30 488 N 51.7335 -0.305618 -1.54608 0
M  V30 489 C 53.1495 0.0476228 -1.59529 0
M  V30 490 C 53.3495 1.52025 -1.32252 0
M  V30 491 O 52.4055 2.27368 -1.09818 0
M  V30 492 C 53.7185 -0.354471 -2.98603 0
M  V30 493 C 55.2665 -0.303622 -3.11524 0
M  V30 494 C 55.7415 -0.680608 -4.52915 0
M  V30 495 N 57.2325 -0.63332 -4.5885 0
M  V30 496 C 57.9675 -0.897432 -5.66334 0
M  V30 497 N 57.4635 -1.22775 -6.81834 0
M  V30 498 N 59.2565 -0.824186 -5.56025 0
M  V30 499 H 51.4075 -1.2653 -1.70599 0
M  V30 500 H 53.6705 -0.513291 -0.797017 0
M  V30 501 H 53.3765 -1.3798 -3.23503 0
M  V30 502 H 53.2505 0.289568 -3.76087 0
M  V30 503 H 55.6375 0.712472 -2.8637 0
M  V30 504 H 55.7185 -0.982348 -2.36185 0
M  V30 505 H 55.3625 -1.69453 -4.78799 0
M  V30 506 H 55.2925 0.0202385 -5.26596 0
M  V30 507 H 57.7835 -0.389138 -3.75891 0
M  V30 508 H 58.0965 -1.41513 -7.59733 0
M  V30 509 H 56.4415 -1.26583 -6.83375 0
M  V30 510 H 59.6325 -0.565748 -4.64669 0
M  V30 511 H 59.8055 -1.03338 -6.39707 0
M  V30 512 N 53.2116 1.57565 -0.0334293 0
M  V30 513 C 54.1216 2.13943 0.962572 0
M  V30 514 C 55.1376 1.09276 1.35406 0
M  V30 515 O 56.3136 1.41355 1.4346 0
M  V30 516 C 53.3786 2.65887 2.22497 0
M  V30 517 C 52.4396 3.85286 1.8935 0
M  V30 518 C 51.6726 4.34743 3.09571 0
M  V30 519 O 51.8956 3.83352 4.22371 0
M  V30 520 O 50.8296 5.26538 2.91618 0
M  V30 521 H 54.6556 2.99333 0.513169 0
M  V30 522 H 52.2406 1.4822 0.18743 0
M  V30 523 H 54.1226 2.99346 2.96598 0
M  V30 524 H 52.7976 1.83578 2.6661 0
M  V30 525 H 51.7046 3.56746 1.1262 0
M  V30 526 H 53.0376 4.68771 1.5005 0
M  V30 527 N 54.6897 -0.239769 1.55765 0
M  V30 528 C 55.6197 -1.30052 1.9393 0
M  V30 529 C 56.6007 -1.49839 0.805132 0
M  V30 530 O 57.7857 -1.62328 1.06599 0
M  V30 531 C 54.9157 -2.65391 2.2402 0
M  V30 532 C 53.8697 -2.60289 3.39755 0
M  V30 533 C 53.1957 -3.99489 3.55405 0
M  V30 534 C 54.4957 -2.16654 4.75246 0
M  V30 535 H 56.1897 -0.983573 2.82783 0
M  V30 536 H 53.7357 -0.471701 1.36055 0
M  V30 537 H 55.6887 -3.3974 2.49308 0
M  V30 538 H 54.4127 -2.98736 1.32 0
M  V30 539 H 53.0717 -1.88398 3.14487 0
M  V30 540 H 52.7197 -4.30112 2.60793 0
M  V30 541 H 52.4197 -3.96962 4.33238 0
M  V30 542 H 53.9437 -4.75528 3.83022 0
M  V30 543 H 55.3577 -2.80737 4.99859 0
M  V30 544 H 53.7547 -2.25223 5.56232 0
M  V30 545 H 54.8247 -1.11835 4.71827 0
M  V30 546 N 56.1678 -1.49265 -0.50573 0
M  V30 547 C 57.5838 -1.35923 -0.836486 0
M  V30 548 C 57.7838 -0.388704 -1.97715 0
M  V30 549 O 56.8398 0.181336 -2.51848 0
M  V30 550 C 58.1528 -2.76531 -1.18115 0
M  V30 551 C 59.7008 -2.85197 -1.28964 0
M  V30 552 C 60.1758 -4.26561 -1.66761 0
M  V30 553 N 61.6668 -4.2935 -1.73819 0
M  V30 554 C 62.4018 -5.35693 -2.045 0
M  V30 555 N 61.8978 -6.52287 -2.33438 0
M  V30 556 N 63.6908 -5.23105 -2.05711 0
M  V30 557 H 55.8418 -2.10965 0.246519 0
M  V30 558 H 58.1048 -0.9468 0.0476887 0
M  V30 559 H 57.8108 -3.49226 -0.416398 0
M  V30 560 H 57.6848 -3.11599 -2.1257 0
M  V30 561 H 60.0718 -2.12742 -2.04511 0
M  V30 562 H 60.1528 -2.53718 -0.325704 0
M  V30 563 H 59.7968 -4.99541 -0.917656 0
M  V30 564 H 59.7268 -4.55502 -2.64246 0
M  V30 565 H 62.2178 -3.4526 -1.53635 0
M  V30 566 H 62.5308 -7.29158 -2.56024 0
M  V30 567 H 60.8758 -6.55521 -2.30905 0
M  V30 568 H 64.0668 -4.31026 -1.82577 0
M  V30 569 H 64.2398 -6.06078 -2.29289 0
M  V30 570 N 57.6459 0.756429 -1.3826 0
M  V30 571 C 58.6089 1.85176 -1.35065 0
M  V30 572 C 59.6089 1.58818 -0.251703 0
M  V30 573 O 60.7989 1.66615 -0.508433 0
M  V30 574 C 57.9309 3.22596 -1.10201 0
M  V30 575 H 59.1239 1.89417 -2.3251 0
M  V30 576 H 56.6769 0.95783 -1.23512 0
M  V30 577 H 57.4119 3.24025 -0.133504 0
M  V30 578 H 57.1969 3.43122 -1.89762 0
M  V30 579 H 58.6869 4.02673 -1.10654 0
M  V30 580 N 59.124 1.23083 0.984299 0
M  V30 581 C 60.54 0.992637 1.24975 0
M  V30 582 C 60.74 -0.308618 1.99123 0
M  V30 583 O 59.796 -1.02905 2.30579 0
M  V30 584 C 61.109 2.19698 2.05312 0
M  V30 585 C 62.657 2.24147 2.18465 0
M  V30 586 C 63.132 3.44157 3.02192 0
M  V30 587 N 64.623 3.44372 3.09777 0
M  V30 588 C 65.358 4.33886 3.74874 0
M  V30 589 N 64.854 5.3363 4.41827 0
M  V30 590 N 66.647 4.21639 3.71721 0
M  V30 591 H 58.798 2.06731 0.487453 0
M  V30 592 H 61.061 0.906339 0.277944 0
M  V30 593 H 60.767 3.1411 1.58201 0
M  V30 594 H 60.641 2.20465 3.06064 0
M  V30 595 H 63.028 1.30277 2.64786 0
M  V30 596 H 63.109 2.27415 1.17115 0
M  V30 597 H 62.753 4.38332 2.56568 0
M  V30 598 H 62.683 3.3813 4.03702 0
M  V30 599 H 65.174 2.72201 2.62135 0
M  V30 600 H 65.487 5.98196 4.89266 0
M  V30 601 H 63.832 5.37534 4.40548 0
M  V30 602 H 67.023 3.42962 3.18582 0
M  V30 603 H 67.196 4.91604 4.22173 0
M  V30 604 N 60.6021 -1.18246 1.0419 0
M  V30 605 C 61.5121 -2.25574 0.644476 0
M  V30 606 C 62.5281 -1.70845 -0.329826 0
M  V30 607 O 63.7041 -2.00554 -0.184443 0
M  V30 608 C 60.7691 -3.46697 0.014877 0
M  V30 609 C 59.8301 -4.16554 1.03834 0
M  V30 610 C 59.0631 -5.31894 0.438692 0
M  V30 611 O 59.2861 -5.65385 -0.754752 0
M  V30 612 O 58.2201 -5.90459 1.168 0
M  V30 613 H 62.0461 -2.61836 1.53869 0
M  V30 614 H 59.6311 -1.25352 0.812854 0
M  V30 615 H 61.5131 -4.20062 -0.335538 0
M  V30 616 H 60.1881 -3.12255 -0.853138 0
M  V30 617 H 59.0951 -3.45251 1.44057 0
M  V30 618 H 60.4281 -4.54998 1.87716 0
M  V30 619 N 62.0802 -0.821533 -1.34494 0
M  V30 620 C 63.3272 -0.408946 -1.98328 0
M  V30 621 C 63.6552 1.02764 -1.65136 0
M  V30 622 O 62.9102 1.73026 -0.914349 0
M  V30 623 C 63.2092 -0.556512 -3.53041 0
M  V30 624 C 62.8752 -1.95861 -4.0614 0
M  V30 625 C 61.5372 -2.34217 -4.20352 0
M  V30 626 C 63.8892 -2.87523 -4.34718 0
M  V30 627 C 61.2172 -3.63572 -4.6047 0
M  V30 628 C 63.5692 -4.1634 -4.76281 0
M  V30 629 C 62.2332 -4.54675 -4.88699 0
M  V30 630 H 61.5032 -0.149644 -0.725732 0
M  V30 631 H 64.1502 -1.04521 -1.6046 0
M  V30 632 H 62.4552 0.163148 -3.9146 0
M  V30 633 H 64.1522 -0.217826 -4.00408 0
M  V30 634 H 60.7422 -1.65066 -3.95539 0
M  V30 635 H 64.9262 -2.59133 -4.23277 0
M  V30 636 H 60.1822 -3.93101 -4.68275 0
M  V30 637 H 64.3562 -4.87455 -4.97354 0
M  V30 638 H 61.9832 -5.54959 -5.19542 0
M  V30 639 N 63.5583 1.46682 -0.576371 0
M  V30 640 C 64.7833 2.07304 -0.0630475 0
M  V30 641 C 65.2083 1.42329 1.2298 0
M  V30 642 O 64.5663 0.504865 1.74129 0
M  V30 643 C 64.6143 3.60472 0.095895 0
M  V30 644 O 63.7183 3.95927 1.15394 0
M  V30 645 H 63.0593 0.661288 -0.0599463 0
M  V30 646 H 65.5893 1.88417 -0.797511 0
M  V30 647 H 65.5993 4.06865 0.304071 0
M  V30 648 H 64.2743 4.07157 -0.84828 0
M  V30 649 H 62.8513 3.61252 0.924724 0
M  V30 650 N 65.0364 0.313813 1.54444 0
M  V30 651 C 66.4524 -0.0391619 1.59552 0
M  V30 652 C 66.6524 -1.51322 1.33056 0
M  V30 653 O 65.7084 -2.26782 1.11022 0
M  V30 654 C 67.0214 0.370302 2.98411 0
M  V30 655 C 68.5694 0.320139 3.11358 0
M  V30 656 C 69.0444 0.704617 4.52547 0
M  V30 657 N 70.5354 0.657645 4.58508 0
M  V30 658 C 71.2704 0.927453 5.6585 0
M  V30 659 N 70.7664 1.26389 6.81174 0
M  V30 660 N 72.5594 0.853662 5.5558 0
M  V30 661 H 64.7104 1.27433 1.69925 0
M  V30 662 H 66.9734 0.517511 0.794284 0
M  V30 663 H 66.6794 1.39694 3.22767 0
M  V30 664 H 66.5534 -0.269619 3.76235 0
M  V30 665 H 68.9404 -0.697275 2.86744 0
M  V30 666 H 69.0214 0.99486 2.35661 0
M  V30 667 H 68.6654 1.7199 4.77893 0
M  V30 668 H 68.5954 0.00768843 5.26599 0
M  V30 669 H 71.0864 0.409067 3.75679 0
M  V30 670 H 71.3994 1.4554 7.58972 0
M  V30 671 H 69.7444 1.30206 6.82694 0
M  V30 672 H 72.9354 0.590383 4.64362 0
M  V30 673 H 73.1084 1.0673 6.3915 0
M  V30 674 N 66.5145 -1.57545 0.0417849 0
M  V30 675 C 67.4445 -2.14009 -0.933929 0
M  V30 676 C 68.4255 -1.05938 -1.33083 0
M  V30 677 O 69.6105 -1.33833 -1.40721 0
M  V30 678 C 66.7405 -2.67747 -2.21199 0
M  V30 679 C 65.6945 -3.80718 -1.95544 0
M  V30 680 C 65.0205 -4.20935 -3.29724 0
M  V30 681 C 66.3205 -5.06258 -1.28452 0
M  V30 682 H 68.0145 -2.95788 -0.463645 0
M  V30 683 H 65.5605 -1.42285 -0.221573 0
M  V30 684 H 67.5135 -3.05886 -2.89848 0
M  V30 685 H 66.2375 -1.83147 -2.70416 0
M  V30 686 H 64.8965 -3.43037 -1.2931 0
M  V30 687 H 64.5445 -3.33298 -3.76724 0
M  V30 688 H 64.2445 -4.9707 -3.13361 0
M  V30 689 H 65.7685 -4.61666 -3.9962 0
M  V30 690 H 67.1825 -5.41903 -1.8712 0
M  V30 691 H 65.5795 -5.87475 -1.22445 0
M  V30 692 H 66.6495 -4.84207 -0.259219 0
M  V30 693 N 67.9926 0.231505 -1.5589 0
M  V30 694 C 68.9556 1.27028 -1.90779 0
M  V30 695 C 69.9556 1.40308 -0.785507 0
M  V30 696 O 71.1456 1.38744 -1.05336 0
M  V30 697 C 68.2776 2.64566 -2.14983 0
M  V30 698 H 69.4706 0.973017 -2.83677 0
M  V30 699 H 67.0236 0.471486 -1.49019 0
M  V30 700 H 67.7586 2.99406 -1.24604 0
M  V30 701 H 67.5436 2.56305 -2.96732 0
M  V30 702 H 69.0336 3.39543 -2.43105 0
M  V30 703 N 69.4707 1.49531 0.497807 0
M  V30 704 C 70.7187 1.58865 1.24926 0
M  V30 705 C 71.0397 0.278721 1.92998 0
M  V30 706 O 70.3097 -0.702144 1.82885 0
M  V30 707 H 68.8897 0.585343 0.464094 0
M  V30 708 H 71.5517 1.86174 0.57666 0
M  V30 709 H 70.6477 2.38633 2.01149 0
M  V30 710 N 70.9488 -0.749086 1.3866 0
M  V30 711 C 72.1768 -1.53834 1.38358 0
M  V30 712 C 72.5918 -1.88783 -0.0255219 0
M  V30 713 O 71.9488 -1.53101 -0.993292 0
M  V30 714 C 71.9998 -2.83468 2.2434 0
M  V30 715 O 71.7208 -2.50008 3.5976 0
M  V30 716 C 73.2218 -3.7758 2.32267 0
M  V30 717 H 70.4418 -0.47585 0.473083 0
M  V30 718 H 72.9858 -0.926726 1.82297 0
M  V30 719 H 71.1408 -3.40995 1.83851 0
M  V30 720 H 71.5548 -3.33182 4.05081 0
M  V30 721 H 73.0288 -4.65478 2.96706 0
M  V30 722 H 73.5058 -4.18334 1.33765 0
M  V30 723 H 74.1118 -3.25976 2.73166 0
M  V30 724 N 72.4269 -1.23603 -0.977757 0
M  V30 725 C 73.6729 -1.07129 -1.72195 0
M  V30 726 C 74.0059 0.390501 -1.90233 0
M  V30 727 O 73.2809 1.28902 -1.45653 0
M  V30 728 C 73.5639 -1.80031 -3.11867 0
M  V30 729 C 73.4169 -3.33899 -3.01383 0
M  V30 730 C 74.7359 -1.56492 -4.11337 0
M  V30 731 H 71.8549 -0.390571 -0.624999 0
M  V30 732 H 74.4969 -1.52142 -1.13811 0
M  V30 733 H 72.6469 -1.41768 -3.6171 0
M  V30 734 H 74.3189 -3.81699 -2.59043 0
M  V30 735 H 72.5619 -3.62796 -2.37827 0
M  V30 736 H 73.2329 -3.801 -4.00285 0
M  V30 737 H 75.7089 -1.89757 -3.70313 0
M  V30 738 H 74.5849 -2.09973 -5.07151 0
M  V30 739 H 74.8459 -0.500874 -4.39254 0
M  V30 740 N 73.905 1.17692 -1.04816 0
M  V30 741 C 75.135 1.91508 -0.775128 0
M  V30 742 C 75.543 1.76844 0.67253 0
M  V30 743 O 74.886 1.10057 1.47082 0
M  V30 744 C 74.948 3.43167 -1.0713 0
M  V30 745 C 74.612 3.81612 -2.51438 0
M  V30 746 C 75.609 3.84772 -3.49638 0
M  V30 747 C 73.294 4.12687 -2.86348 0
M  V30 748 C 75.288 4.18469 -4.80794 0
M  V30 749 C 72.975 4.46053 -4.17708 0
M  V30 750 C 73.973 4.48921 -5.14741 0
M  V30 751 O 73.661 4.81504 -6.43746 0
M  V30 752 H 73.393 0.614575 -0.281555 0
M  V30 753 H 75.947 1.50206 -1.40098 0
M  V30 754 H 74.177 3.84745 -0.388342 0
M  V30 755 H 75.866 3.98239 -0.784883 0
M  V30 756 H 76.632 3.60893 -3.24008 0
M  V30 757 H 72.511 4.09627 -2.11486 0
M  V30 758 H 76.055 4.20623 -5.56527 0
M  V30 759 H 71.952 4.69393 -4.43103 0
M  V30 760 H 72.72 4.99377 -6.4851 0
M  V30 761 N 75.3831 0.828654 1.34056 0
M  V30 762 C 76.3131 0.269443 2.3194 0
M  V30 763 C 77.2941 -0.617247 1.58506 0
M  V30 764 O 78.4791 -0.542931 1.86456 0
M  V30 765 C 75.6091 -0.564793 3.42677 0
M  V30 766 C 74.5631 0.225241 4.27407 0
M  V30 767 C 73.8891 -0.7321 5.29664 0
M  V30 768 C 75.1891 1.43663 5.02154 0
M  V30 769 H 76.8831 1.08728 2.7896 0
M  V30 770 H 74.4291 0.524283 1.34117 0
M  V30 771 H 76.3821 -0.966233 4.10173 0
M  V30 772 H 75.1061 -1.41574 2.9432 0
M  V30 773 H 73.7651 0.608117 3.61521 0
M  V30 774 H 73.4131 -1.57916 4.77568 0
M  V30 775 H 73.1131 -0.20767 5.87233 0
M  V30 776 H 74.6371 -1.13128 6.00029 0
M  V30 777 H 76.0511 1.1089 5.62473 0
M  V30 778 H 74.4481 1.89711 5.69324 0
M  V30 779 H 75.5181 2.21181 4.31517 0
M  V30 780 N 76.8612 -1.46375 0.584142 0
M  V30 781 C 78.1382 -1.956 0.0033388 0
M  V30 782 C 78.5182 -1.52679 -1.45782 0
M  V30 783 O 77.8662 -0.77816 -2.14842 0
M  V30 784 C 78.0762 -3.48551 0.176891 0
M  V30 785 C 79.4242 -4.24576 0.0454609 0
M  V30 786 O 80.4482 -3.56043 0.105801 0
M  V30 787 O 79.3072 -5.46427 -0.0890376 0
M  V30 788 H 76.4012 -0.825547 -0.0490066 0
M  V30 789 H 78.9472 -1.56652 0.65256 0
M  V30 790 H 77.7192 -3.72683 1.1926 0
M  V30 791 H 77.3422 -3.94332 -0.508695 0
M  V30 792 N 78.3393 -0.321999 -1.54275 0
M  V30 793 C 79.2893 0.560185 -2.21011 0
M  V30 794 C 80.2733 1.08283 -1.19011 0
M  V30 795 O 81.4653 1.02011 -1.44647 0
M  V30 796 C 78.5943 1.72137 -2.97025 0
M  V30 797 C 77.6803 1.21369 -4.06363 0
M  V30 798 N 78.0713 0.425566 -5.04007 0
M  V30 799 C 76.3693 1.49255 -4.20284 0
M  V30 800 C 77.0703 0.152601 -5.815 0
M  V30 801 N 76.0463 0.738294 -5.38563 0
M  V30 802 H 79.8483 -0.049265 -2.93859 0
M  V30 803 H 77.3623 -0.127779 -1.61897 0
M  V30 804 H 79.3593 2.36512 -3.43319 0
M  V30 805 H 78.0193 2.33431 -2.25699 0
M  V30 806 H 79.0303 0.068551 -5.17855 0
M  V30 807 H 75.7073 2.11145 -3.60172 0
M  V30 808 H 77.0973 -0.481764 -6.70171 0
M  V30 809 N 79.8174 1.5752 -0.0501392 0
M  V30 810 C 80.7804 2.1037 0.909786 0
M  V30 811 C 81.7804 1.02308 1.24056 0
M  V30 812 O 82.9704 1.28385 1.17741 0
M  V30 813 C 80.1024 2.58708 2.21998 0
M  V30 814 H 81.2954 2.96479 0.451665 0
M  V30 815 H 78.8484 1.55038 0.198248 0
M  V30 816 H 79.5834 1.75989 2.72394 0
M  V30 817 H 79.3684 3.37675 1.99295 0
M  V30 818 H 80.8584 2.99747 2.9076 0
M  V30 819 N 81.2955 -0.223234 1.56011 0
M  V30 820 C 82.5435 -0.946003 1.78592 0
M  V30 821 C 82.8645 -1.84936 0.618349 0
M  V30 822 O 82.1345 -1.92473 -0.364833 0
M  V30 823 H 80.7145 -0.352298 0.658707 0
M  V30 824 H 83.3765 -0.235494 1.93472 0
M  V30 825 H 82.4725 -1.55381 2.70672 0
M  V30 826 N 82.7736 -1.49793 -0.48987 0
M  V30 827 C 83.7366 -1.66752 -1.57246 0
M  V30 828 C 84.7366 -0.538867 -1.51502 0
M  V30 829 O 85.9266 -0.805545 -1.54456 0
M  V30 830 C 83.0586 -1.67528 -2.96896 0
M  V30 831 H 84.2516 -2.63321 -1.43534 0
M  V30 832 H 81.8046 -1.38992 -0.714914 0
M  V30 833 H 82.5396 -0.725837 -3.16073 0
M  V30 834 H 82.3246 -2.49504 -3.02473 0
M  V30 835 H 83.8146 -1.82667 -3.7553 0
M  V30 836 N 84.2517 0.741722 -1.39055 0
M  V30 837 C 85.4797 1.53098 -1.39171 0
M  V30 838 C 85.8947 1.88794 0.0155099 0
M  V30 839 O 85.2517 1.53626 0.985159 0
M  V30 840 C 85.3027 2.82274 -2.2584 0
M  V30 841 O 85.0237 2.48097 -3.61081 0
M  V30 842 C 86.5247 3.76343 -2.34266 0
M  V30 843 H 83.7447 0.473335 -0.4756 0
M  V30 844 H 86.2887 0.917045 -1.82785 0
M  V30 845 H 84.4437 3.40015 -1.85656 0
M  V30 846 H 84.8577 3.31029 -4.06842 0
M  V30 847 H 86.3317 4.63898 -2.9917 0
M  V30 848 H 86.8087 4.17619 -1.35982 0
M  V30 849 H 87.4147 3.24523 -2.74891 0
M  V30 850 N 85.7298 1.2412 0.971189 0
M  V30 851 C 86.6598 1.05508 2.08304 0
M  V30 852 C 87.6408 -0.0308864 1.70072 0
M  V30 853 O 88.8258 0.135521 1.93727 0
M  V30 854 C 85.9558 0.655365 3.4106 0
M  V30 855 C 84.9098 1.68971 3.93234 0
M  V30 856 C 84.2358 1.14516 5.22293 0
M  V30 857 C 85.5358 3.08487 4.21465 0
M  V30 858 H 87.2298 1.98507 2.24132 0
M  V30 859 H 84.7758 0.955821 1.07704 0
M  V30 860 H 86.7288 0.51217 4.18276 0
M  V30 861 H 85.4528 -0.31032 3.25122 0
M  V30 862 H 84.1118 1.82106 3.18171 0
M  V30 863 H 83.7598 0.170189 5.02712 0
M  V30 864 H 83.4598 1.83635 5.58168 0
M  V30 865 H 84.9838 1.01401 6.02121 0
M  V30 866 H 86.3978 2.98601 4.89398 0
M  V30 867 H 84.7948 3.74926 4.68562 0
M  V30 868 H 85.8648 3.56787 3.28376 0
M  V30 869 N 87.2079 -1.17134 1.05439 0
M  V30 870 C 88.4549 -1.87456 0.765942 0
M  V30 871 C 88.7829 -1.81189 -0.707153 0
M  V30 872 O 88.0379 -1.21633 -1.5331 0
M  V30 873 C 88.3369 -3.36833 1.19491 0
M  V30 874 C 88.0029 -3.63301 2.67063 0
M  V30 875 C 86.6649 -3.70234 3.07376 0
M  V30 876 C 89.0169 -3.74575 3.62413 0
M  V30 877 C 86.3449 -3.85933 4.41896 0
M  V30 878 C 88.6969 -3.91793 4.9667 0
M  V30 879 C 87.3609 -3.96966 5.36633 0
M  V30 880 H 86.6309 -0.685948 0.280278 0
M  V30 881 H 89.2779 -1.38556 1.32192 0
M  V30 882 H 87.5829 -3.87807 0.557969 0
M  V30 883 H 89.2799 -3.89611 0.948893 0
M  V30 884 H 85.8699 -3.58532 2.34846 0
M  V30 885 H 90.0539 -3.68537 3.32406 0
M  V30 886 H 85.3099 -3.88187 4.72357 0
M  V30 887 H 89.4839 -3.99458 5.70444 0
M  V30 888 H 87.1109 -4.08883 6.40874 0
M  V30 889 N 88.686 -0.835752 -1.33615 0
M  V30 890 C 89.911 -0.442389 -2.02627 0
M  V30 891 C 90.336 0.947735 -1.62479 0
M  V30 892 O 89.694 1.61907 -0.815826 0
M  V30 893 C 89.742 -0.567216 -3.56111 0
M  V30 894 O 88.846 0.407799 -4.10379 0
M  V30 895 H 88.187 -0.180278 -0.639059 0
M  V30 896 H 90.717 -1.12972 -1.70583 0
M  V30 897 H 90.727 -0.447708 -4.05536 0
M  V30 898 H 89.402 -1.58103 -3.84677 0
M  V30 899 H 87.979 0.246107 -3.72087 0
M  V30 900 N 90.1641 1.46063 -0.591896 0
M  V30 901 C 91.0961 2.28539 0.174001 0
M  V30 902 C 92.1091 1.39047 0.846753 0
M  V30 903 O 93.2981 1.63564 0.714774 0
M  V30 904 C 90.3981 3.14347 1.26645 0
M  V30 905 C 89.5711 4.32021 0.683856 0
M  V30 906 C 88.6301 4.99157 1.66518 0
M  V30 907 O 87.6561 5.56458 1.19763 0
M  V30 908 N 88.8581 4.97005 2.99943 0
M  V30 909 H 91.6231 2.94911 -0.533633 0
M  V30 910 H 89.1841 1.56077 -0.430294 0
M  V30 911 H 91.1761 3.56125 1.92242 0
M  V30 912 H 89.7461 2.49988 1.87682 0
M  V30 913 H 88.9661 3.93915 -0.1498 0
M  V30 914 H 90.2541 5.08059 0.274567 0
M  V30 915 H 89.6521 4.51714 3.40545 0
M  V30 916 H 88.2091 5.42696 3.61004 0
M  V30 917 N 91.6422 0.330177 1.54103 0
M  V30 918 C 92.8672 -0.274893 2.0557 0
M  V30 919 C 93.2922 -1.44487 1.20437 0
M  V30 920 O 92.6502 -1.80021 0.214991 0
M  V30 921 C 92.6982 -0.68079 3.54115 0
M  V30 922 O 91.8022 -1.7824 3.71893 0
M  V30 923 H 91.1432 -0.0483849 0.662235 0
M  V30 924 H 93.6732 0.480508 1.98878 0
M  V30 925 H 93.6832 -0.961635 3.96505 0
M  V30 926 H 92.3582 0.174903 4.15532 0
M  V30 927 H 90.9352 -1.49985 3.41407 0
M  V30 928 N 93.1203 -1.57491 0.0584922 0
M  V30 929 C 94.0523 -2.08916 -0.942694 0
M  V30 930 C 95.0653 -1.0185 -1.27006 0
M  V30 931 O 96.2543 -1.29398 -1.22957 0
M  V30 932 C 93.3543 -2.52341 -2.26224 0
M  V30 933 C 92.5273 -3.82827 -2.1157 0
M  V30 934 C 91.5863 -4.12487 -3.26712 0
M  V30 935 O 90.6123 -4.82295 -3.02292 0
M  V30 936 N 91.8143 -3.64978 -4.5141 0
M  V30 937 H 94.5793 -2.95437 -0.503722 0
M  V30 938 H 92.1403 -1.61397 -0.12757 0
M  V30 939 H 94.1323 -2.69254 -3.02133 0
M  V30 940 H 92.7023 -1.7103 -2.61663 0
M  V30 941 H 91.9223 -3.75425 -1.20208 0
M  V30 942 H 93.2103 -4.68263 -1.99015 0
M  V30 943 H 92.6083 -3.08558 -4.7414 0
M  V30 944 H 91.1653 -3.87115 -5.2439 0
M  V30 945 N 94.5984 0.214957 -1.56127 0
M  V30 946 C 95.5284 1.2695 -1.95974 0
M  V30 947 C 96.5094 1.48539 -0.828868 0
M  V30 948 O 97.6944 1.60611 -1.09168 0
M  V30 949 C 94.8244 2.61794 -2.28214 0
M  V30 950 C 93.7784 2.54851 -3.43853 0
M  V30 951 C 93.1044 3.93785 -3.61715 0
M  V30 952 C 94.4044 2.09065 -4.78632 0
M  V30 953 H 96.0984 0.93846 -2.84312 0
M  V30 954 H 93.6444 0.449996 -1.36788 0
M  V30 955 H 95.5974 3.35731 -2.54682 0
M  V30 956 H 94.3214 2.96599 -1.36736 0
M  V30 957 H 92.9804 1.8337 -3.17444 0
M  V30 958 H 92.6284 4.25908 -2.67602 0
M  V30 959 H 92.3284 3.90019 -4.39498 0
M  V30 960 H 93.8524 4.69374 -3.90539 0
M  V30 961 H 95.2664 2.7275 -5.04262 0
M  V30 962 H 93.6634 2.16346 -5.59745 0
M  V30 963 H 94.7334 1.04315 -4.73547 0
M  V30 964 N 96.0765 1.50051 0.48192 0
M  V30 965 C 96.9865 1.7089 1.60728 0
M  V30 966 C 98.0025 0.591788 1.63627 0
M  V30 967 O 99.1785 0.868817 1.81696 0
M  V30 968 C 96.2435 1.78855 2.97005 0
M  V30 969 C 95.3045 3.02537 3.04581 0
M  V30 970 C 94.5375 3.10112 4.34357 0
M  V30 971 O 94.7605 2.24765 5.24249 0
M  V30 972 O 93.6945 4.02747 4.47301 0
M  V30 973 H 97.5205 2.66264 1.46072 0
M  V30 974 H 95.1055 1.34018 0.660264 0
M  V30 975 H 96.9875 1.86336 3.77964 0
M  V30 976 H 95.6625 0.866628 3.11883 0
M  V30 977 H 94.5695 3.00563 2.22739 0
M  V30 978 H 95.9025 3.94272 2.94636 0
M  V30 979 N 97.5546 -0.734337 1.39446 0
M  V30 980 C 98.7796 -1.52866 1.40167 0
M  V30 981 C 99.2046 -1.881 -0.00171513 0
M  V30 982 O 98.5626 -1.51957 -0.988879 0
M  V30 983 C 98.6106 -2.79235 2.28167 0
M  V30 984 O 97.7146 -3.75185 1.71201 0
M  V30 985 H 97.0556 -0.461618 0.477289 0
M  V30 986 H 99.5856 -0.905949 1.8345 0
M  V30 987 H 99.5956 -3.27963 2.42702 0
M  V30 988 H 98.2706 -2.52923 3.30156 0
M  V30 989 H 96.8476 -3.33958 1.65912 0
M  V30 990 N 99.0327 -1.24633 -0.964593 0
M  V30 991 C 100.28 -1.08788 -1.70796 0
M  V30 992 C 100.608 0.372783 -1.90894 0
M  V30 993 O 99.8627 1.29167 -1.47018 0
M  V30 994 C 100.162 -1.7763 -3.10133 0
M  V30 995 C 99.8277 -3.27557 -3.09866 0
M  V30 996 C 98.4897 -3.6846 -3.09501 0
M  V30 997 C 100.842 -4.23389 -3.03959 0
M  V30 998 C 98.1697 -5.03624 -3.00965 0
M  V30 999 C 100.522 -5.58565 -2.96965 0
M  V30 1000 C 99.1857 -5.98809 -2.9493 0
M  V30 1001 H 98.4557 -0.398084 -0.624988 0
M  V30 1002 H 101.103 -1.54777 -1.12767 0
M  V30 1003 H 99.4077 -1.24044 -3.71645 0
M  V30 1004 H 101.105 -1.62832 -3.66451 0
M  V30 1005 H 97.6947 -2.95006 -3.10917 0
M  V30 1006 H 101.879 -3.92787 -3.03368 0
M  V30 1007 H 97.1347 -5.33998 -2.97752 0
M  V30 1008 H 101.309 -6.32523 -2.91354 0
M  V30 1009 H 98.9357 -7.03505 -2.88071 0
M  V30 1010 N 100.511 1.16574 -1.06058 0
M  V30 1011 C 101.739 1.90952 -0.796552 0
M  V30 1012 C 102.154 1.77302 0.648808 0
M  V30 1013 O 101.511 1.11605 1.44397 0
M  V30 1014 C 101.562 3.41736 -1.17894 0
M  V30 1015 O 101.283 3.54975 -2.56758 0
M  V30 1016 C 102.784 4.33169 -0.942308 0
M  V30 1017 H 100.004 0.605594 -0.288959 0
M  V30 1018 H 102.548 1.47777 -1.41358 0
M  V30 1019 H 100.703 3.82623 -0.606491 0
M  V30 1020 H 101.117 4.4846 -2.72 0
M  V30 1021 H 102.591 5.37439 -1.25952 0
M  V30 1022 H 103.068 4.3903 0.122078 0
M  V30 1023 H 103.674 3.98007 -1.49902 0
M  V30 1024 N 101.989 0.842826 1.3317 0
M  V30 1025 C 103.214 0.453129 2.02389 0
M  V30 1026 C 103.639 -0.939105 1.6298 0
M  V30 1027 O 102.997 -1.61472 0.8244 0
M  V30 1028 C 103.045 0.586094 3.55805 0
M  V30 1029 O 102.149 -0.386029 4.10589 0
M  V30 1030 H 101.49 0.183664 0.638094 0
M  V30 1031 H 104.02 1.13875 1.69981 0
M  V30 1032 H 104.03 0.469209 4.05293 0
M  V30 1033 H 102.705 1.6014 3.83833 0
M  V30 1034 H 101.282 -0.226371 3.72212 0
M  V30 1035 N 103.467 -1.45747 0.599634 0
M  V30 1036 C 104.744 -1.95585 0.0240846 0
M  V30 1037 C 105.124 -1.54217 -1.44154 0
M  V30 1038 O 104.472 -0.800903 -2.14004 0
M  V30 1039 C 104.682 -3.48344 0.21385 0
M  V30 1040 C 106.03 -4.24504 0.0904902 0
M  V30 1041 O 107.054 -3.55911 0.143558 0
M  V30 1042 O 105.913 -5.46491 -0.0310766 0
M  V30 1043 H 103.007 -0.82602 -0.0402478 0
M  V30 1044 H 105.553 -1.55951 0.669139 0
M  V30 1045 H 104.325 -3.71397 1.23206 0
M  V30 1046 H 103.948 -3.9485 -0.466842 0
M  V30 1047 N 104.945 -0.338344 -1.53925 0
M  V30 1048 C 105.875 0.51328 -2.27789 0
M  V30 1049 C 106.856 1.107 -1.29149 0
M  V30 1050 O 108.041 1.12937 -1.57984 0
M  V30 1051 C 105.171 1.66697 -3.04679 0
M  V30 1052 C 104.125 1.20183 -4.1078 0
M  V30 1053 C 103.451 2.44363 -4.75595 0
M  V30 1054 C 104.751 0.30605 -5.21403 0
M  V30 1055 H 106.445 -0.102883 -2.99223 0
M  V30 1056 H 103.991 -0.0509219 -1.4391 0
M  V30 1057 H 105.944 2.26915 -3.55088 0
M  V30 1058 H 104.668 2.30995 -2.30887 0
M  V30 1059 H 103.327 0.622499 -3.61276 0
M  V30 1060 H 102.975 3.07057 -3.98403 0
M  V30 1061 H 102.675 2.13925 -5.47275 0
M  V30 1062 H 104.199 3.05317 -5.28786 0
M  V30 1063 H 105.613 0.814929 -5.67478 0
M  V30 1064 H 104.01 0.0937929 -6.00027 0
M  V30 1065 H 105.08 -0.65921 -4.80398 0
M  V30 1066 N 106.423 1.57458 -0.0668435 0
M  V30 1067 C 107.356 2.08033 0.93795 0
M  V30 1068 C 108.334 0.984321 1.29421 0
M  V30 1069 O 109.518 1.25736 1.40437 0
M  V30 1070 C 106.645 2.53388 2.24749 0
M  V30 1071 C 105.691 3.74376 2.04315 0
M  V30 1072 S 106.524 5.19303 1.30706 0
M  V30 1073 C 107.68 5.67986 2.62951 0
M  V30 1074 H 107.913 2.92935 0.50759 0
M  V30 1075 H 105.446 1.5371 0.145804 0
M  V30 1076 H 107.404 2.8018 3.00016 0
M  V30 1077 H 106.065 1.68763 2.64911 0
M  V30 1078 H 105.258 4.04083 3.01218 0
M  V30 1079 H 104.86 3.47931 1.37186 0
M  V30 1080 H 107.152 5.74528 3.5906 0
M  V30 1081 H 108.095 6.66955 2.3786 0
M  V30 1082 H 108.503 4.95781 2.69929 0
M  V30 1083 N 107.901 -0.206675 1.56239 0
M  V30 1084 C 108.811 -1.27686 1.96808 0
M  V30 1085 C 109.827 -1.50455 0.874035 0
M  V30 1086 O 111.003 -1.63295 1.17884 0
M  V30 1087 C 108.068 -2.60358 2.28942 0
M  V30 1088 C 107.129 -2.45762 3.51994 0
M  V30 1089 C 106.362 -3.72108 3.82585 0
M  V30 1090 O 106.585 -4.75776 3.14631 0
M  V30 1091 O 105.519 -3.6833 4.76043 0
M  V30 1092 H 109.345 -0.962593 2.88041 0
M  V30 1093 H 106.93 -0.410746 1.43643 0
M  V30 1094 H 108.812 -3.38687 2.50737 0
M  V30 1095 H 107.487 -2.91435 1.4088 0
M  V30 1096 H 106.394 -1.65584 3.35459 0
M  V30 1097 H 107.727 -2.19621 4.40486 0
M  V30 1098 N 109.379 -1.50304 -0.473955 0
M  V30 1099 C 110.327 -1.69482 -1.59307 0
M  V30 1100 C 111.321 -0.560669 -1.59853 0
M  V30 1101 O 112.527 -0.741087 -1.64036 0
M  V30 1102 H 108.902 -0.534892 -0.528578 0
M  V30 1103 H 110.873 -2.63364 -1.40293 0
M  V30 1104 C 109.622 -1.80354 -2.97267 0
M  V30 1105 H 108.945 -2.67012 -2.97564 0
M  V30 1106 H 110.385 -1.97798 -3.75036 0
M  V30 1107 C 108.844 -0.55448 -3.32306 0
M  V30 1108 O 109.374 0.307661 -4.0052 0
M  V30 1109 N 107.58 -0.409354 -2.87702 0
M  V30 1110 H 107.127 -1.11196 -2.32364 0
M  V30 1111 H 107.085 0.425223 -3.11511 0
M  V30 1112 N 110.857 0.726932 -1.39834 0
M  V30 1113 C 112.085 1.51613 -1.40787 0
M  V30 1114 C 112.5 1.88799 -0.00451505 0
M  V30 1115 O 111.857 1.54662 0.968809 0
M  V30 1116 C 111.908 2.79863 -2.28821 0
M  V30 1117 O 111.629 2.44253 -3.63692 0
M  V30 1118 C 113.13 3.73837 -2.38245 0
M  V30 1119 H 110.35 0.468264 -0.480593 0
M  V30 1120 H 112.894 0.897607 -1.83748 0
M  V30 1121 H 111.049 3.38027 -1.89252 0
M  V30 1122 H 111.463 3.26695 -4.1033 0
M  V30 1123 H 112.937 4.60699 -3.04073 0
M  V30 1124 H 113.414 4.16153 -1.40403 0
M  V30 1125 H 114.02 3.21589 -2.78317 0
M  V30 1126 N 112.336 1.25143 0.95797 0
M  V30 1127 C 113.566 1.12261 1.73439 0
M  V30 1128 C 113.974 -0.326715 1.86358 0
M  V30 1129 O 113.317 -1.2367 1.35836 0
M  V30 1130 C 113.379 1.69966 3.16784 0
M  V30 1131 C 113.043 3.18936 3.27305 0
M  V30 1132 C 114.04 4.15968 3.11877 0
M  V30 1133 C 111.725 3.59083 3.51234 0
M  V30 1134 C 113.719 5.51126 3.20217 0
M  V30 1135 C 111.406 4.9438 3.5921 0
M  V30 1136 C 112.404 5.90211 3.43716 0
M  V30 1137 O 112.092 7.23046 3.51368 0
M  V30 1138 H 111.824 0.392476 0.550399 0
M  V30 1139 H 114.378 1.65927 1.21068 0
M  V30 1140 H 112.608 1.10744 3.70503 0
M  V30 1141 H 114.297 1.52232 3.76272 0
M  V30 1142 H 115.063 3.86292 2.93264 0
M  V30 1143 H 110.942 2.84989 3.62356 0
M  V30 1144 H 114.486 6.25905 3.0804 0
M  V30 1145 H 110.383 5.23723 3.77339 0
M  V30 1146 H 111.151 7.31097 3.6802 0
M  V30 1147 N 113.814 -1.1601 1.06675 0
M  V30 1148 C 115.062 -1.86264 0.784229 0
M  V30 1149 C 115.383 -1.82328 -0.691488 0
M  V30 1150 O 114.653 -1.25947 -1.50047 0
M  V30 1151 H 113.233 -0.689621 0.28711 0
M  V30 1152 H 115.895 -1.40664 1.34906 0
M  V30 1153 H 114.991 -2.91595 1.11259 0
M  V30 1154 N 115.292 -0.849877 -1.32721 0
M  V30 1155 C 116.24 -0.279745 -2.30912 0
M  V30 1156 C 117.234 0.594278 -1.58634 0
M  V30 1157 O 118.44 0.482613 -1.73409 0
M  V30 1158 H 114.815 -0.0717521 -0.748569 0
M  V30 1159 H 116.786 -1.12222 -2.76494 0
M  V30 1160 C 115.535 0.521108 -3.43773 0
M  V30 1161 H 114.858 -0.142141 -3.99547 0
M  V30 1162 H 116.298 0.885693 -4.14646 0
M  V30 1163 C 114.757 1.70442 -2.90605 0
M  V30 1164 O 115.287 2.8034 -2.87702 0
M  V30 1165 N 113.493 1.52991 -2.47067 0
M  V30 1166 H 113.04 0.635914 -2.49628 0
M  V30 1167 H 112.998 2.32311 -2.11847 0
M  V30 1168 N 116.77 1.45427 -0.607355 0
M  V30 1169 C 118.181 1.85756 -0.187535 0
M  V30 1170 C 118.532 1.5077 1.25551 0
M  V30 1171 O 117.657 0.93427 1.95193 0
M  V30 1172 C 118.252 3.37154 -0.333572 0
M  V30 1173 C 116.811 3.76387 0.0315542 0
M  V30 1174 C 115.958 2.69377 -0.658117 0
M  V30 1175 H 118.909 1.36231 -0.81405 0
M  V30 1176 H 118.93 3.78014 0.43428 0
M  V30 1177 H 118.442 3.62586 -1.38393 0
M  V30 1178 H 116.543 3.56571 1.0811 0
M  V30 1179 H 116.656 4.77731 -0.361935 0
M  V30 1180 H 115.02 2.5452 -0.0957873 0
M  V30 1181 H 115.803 2.97646 -1.7106 0
M  V30 1182 N 118.248 0.346503 1.53744 0
M  V30 1183 C 119.198 -0.524953 2.21874 0
M  V30 1184 C 120.182 -1.06376 1.20718 0
M  V30 1185 O 121.374 -0.996972 1.46251 0
M  V30 1186 C 118.503 -1.6739 2.99726 0
M  V30 1187 C 117.589 -1.14888 4.08242 0
M  V30 1188 N 117.98 -0.345329 5.0462 0
M  V30 1189 C 116.278 -1.4255 4.22606 0
M  V30 1190 C 116.979 -0.0600706 5.81669 0
M  V30 1191 N 115.955 -0.65252 5.39669 0
M  V30 1192 H 119.757 0.0960091 2.93743 0
M  V30 1193 H 117.271 0.15352 1.61673 0
M  V30 1194 H 119.268 -2.3102 3.47038 0
M  V30 1195 H 117.928 -2.29811 2.29384 0
M  V30 1196 H 118.939 0.0138439 5.17898 0
M  V30 1197 H 115.616 -2.05389 3.63486 0
M  V30 1198 H 117.006 0.588321 6.69319 0
M  V30 1199 N 119.726 -1.57421 0.075193 0
M  V30 1200 C 120.951 -1.98364 -0.605515 0
M  V30 1201 C 121.376 -0.953383 -1.62149 0
M  V30 1202 O 120.734 0.0806053 -1.81121 0
M  V30 1203 C 120.782 -3.38332 -1.24756 0
M  V30 1204 O 119.886 -3.37959 -2.36342 0
M  V30 1205 H 119.227 -0.645553 -0.155428 0
M  V30 1206 H 121.757 -2.04044 0.150714 0
M  V30 1207 H 121.767 -3.75591 -1.5936 0
M  V30 1208 H 120.442 -4.12846 -0.503129 0
M  V30 1209 H 119.019 -3.12474 -2.03506 0
M  V30 1210 N 121.204 0.198386 -1.56346 0
M  V30 1211 C 122.136 1.26987 -1.90806 0
M  V30 1212 C 123.149 1.41877 -0.798419 0
M  V30 1213 O 124.338 1.42362 -1.07682 0
M  V30 1214 C 121.438 2.64246 -2.12196 0
M  V30 1215 C 120.611 2.71007 -3.43328 0
M  V30 1216 C 119.67 3.89439 -3.5387 0
M  V30 1217 O 118.696 3.76695 -4.26719 0
M  V30 1218 N 119.898 5.04752 -2.86715 0
M  V30 1219 H 122.663 0.977433 -2.83313 0
M  V30 1220 H 120.224 0.388322 -1.57174 0
M  V30 1221 H 122.216 3.41896 -2.1654 0
M  V30 1222 H 120.786 2.85992 -1.26204 0
M  V30 1223 H 120.006 1.79657 -3.50881 0
M  V30 1224 H 121.294 2.72512 -4.29668 0
M  V30 1225 H 120.692 5.18004 -2.2735 0
M  V30 1226 H 119.249 5.8036 -2.96691 0
M  V30 1227 N 122.682 1.50554 0.465978 0
M  V30 1228 C 123.63 1.70324 1.58406 0
M  V30 1229 C 124.624 0.569139 1.59553 0
M  V30 1230 O 125.83 0.749776 1.63641 0
M  V30 1231 H 122.205 0.537688 0.525734 0
M  V30 1232 H 124.176 2.64104 1.38894 0
M  V30 1233 C 122.925 1.81928 2.96307 0
M  V30 1234 H 122.248 2.68586 2.96144 0
M  V30 1235 H 123.688 1.99784 3.73982 0
M  V30 1236 C 122.147 0.572095 3.32007 0
M  V30 1237 O 122.677 -0.286416 4.00678 0
M  V30 1238 N 120.883 0.424606 2.87481 0
M  V30 1239 H 120.43 1.12427 2.31771 0
M  V30 1240 H 120.388 -0.408697 3.11732 0
M  V30 1241 N 124.16 -0.719506 1.40217 0
M  V30 1242 C 125.409 -1.47486 1.37589 0
M  V30 1243 C 125.722 -1.9559 -0.0201568 0
M  V30 1244 O 126.928 -2.70973 -0.169049 0
M  V30 1245 C 125.384 -2.66575 2.41796 0
M  V30 1246 C 124.992 -2.25358 3.87192 0
M  V30 1247 C 126.736 -3.4433 2.48269 0
M  V30 1248 C 124.643 -3.41262 4.83005 0
M  V30 1249 H 123.573 -0.553901 0.511576 0
M  V30 1250 H 126.224 -0.783427 1.65936 0
M  V30 1251 H 124.606 -3.3787 2.06543 0
M  V30 1252 H 125.78 -1.61509 4.31569 0
M  V30 1253 H 124.095 -1.60657 3.84159 0
M  V30 1254 H 126.692 -4.30569 3.17041 0
M  V30 1255 H 127.035 -3.87872 1.51198 0
M  V30 1256 H 127.568 -2.80076 2.82493 0
M  V30 1257 H 124.307 -3.02755 5.81394 0
M  V30 1258 H 123.827 -4.0404 4.43297 0
M  V30 1259 H 125.506 -4.07383 5.02641 0
M  V30 1260 N 125.638 -1.25649 -0.95132 0
M  V30 1261 C 126.863 -1.13443 -1.73624 0
M  V30 1262 C 127.288 0.307565 -1.85568 0
M  V30 1263 O 126.646 1.22282 -1.33854 0
M  V30 1264 C 126.694 -1.79723 -3.12621 0
M  V30 1265 O 125.798 -1.07912 -3.98031 0
M  V30 1266 H 125.139 -0.395872 -0.533086 0
M  V30 1267 H 127.669 -1.66276 -1.1922 0
M  V30 1268 H 127.679 -1.86141 -3.63064 0
M  V30 1269 H 126.354 -2.84633 -3.03244 0
M  V30 1270 H 124.931 -1.09398 -3.56492 0
M  V30 1271 N 127.117 1.15442 -1.07289 0
M  V30 1272 C 128.342 1.90638 -0.816828 0
M  V30 1273 C 128.767 1.77445 0.624083 0
M  V30 1274 O 128.125 1.10671 1.43602 0
M  V30 1275 C 128.173 3.39008 -1.22906 0
M  V30 1276 O 127.277 4.10701 -0.373975 0
M  V30 1277 H 126.618 0.593555 -0.297638 0
M  V30 1278 H 129.148 1.46198 -1.43134 0
M  V30 1279 H 129.158 3.89801 -1.20497 0
M  V30 1280 H 127.833 3.47929 -2.27856 0
M  V30 1281 H 126.41 3.70046 -0.460499 0
M  V30 1282 N 128.595 0.856903 1.32268 0
M  V30 1283 C 129.542 0.301172 2.28827 0
M  V30 1284 C 130.512 -0.593104 1.5515 0
M  V30 1285 O 131.697 -0.527537 1.83362 0
M  V30 1286 C 128.837 -0.502523 3.41422 0
M  V30 1287 C 127.95 0.417797 4.29975 0
M  V30 1288 C 127.085 -0.398749 5.29701 0
M  V30 1289 C 126.124 0.518827 6.09897 0
M  V30 1290 N 125.261 -0.260674 7.01616 0
M  V30 1291 H 130.101 1.12983 2.75751 0
M  V30 1292 H 127.638 0.568582 1.35667 0
M  V30 1293 H 129.596 -0.984141 4.05426 0
M  V30 1294 H 128.226 -1.29599 2.95642 0
M  V30 1295 H 127.278 1.01781 3.66531 0
M  V30 1296 H 128.59 1.12191 4.86019 0
M  V30 1297 H 127.744 -0.943435 5.9932 0
M  V30 1298 H 126.483 -1.13622 4.7428 0
M  V30 1299 H 125.488 1.07538 5.39181 0
M  V30 1300 H 126.713 1.25495 6.67404 0
M  V30 1301 H 124.659 -0.981198 6.4862 0
M  V30 1302 H 124.576 0.384364 7.55022 0
M  V30 1303 H 125.844 -0.787014 7.75517 0
M  V30 1304 N 130.073 -1.45103 0.615059 0
M  V30 1305 C 131.003 -2.33339 -0.0865619 0
M  V30 1306 C 131.984 -1.4727 -0.851209 0
M  V30 1307 O 133.169 -1.76026 -0.820281 0
M  V30 1308 C 130.299 -3.30095 -1.07956 0
M  V30 1309 C 129.253 -4.25858 -0.427628 0
M  V30 1310 C 128.579 -5.12361 -1.5294 0
M  V30 1311 C 129.879 -5.18165 0.655944 0
M  V30 1312 H 131.573 -2.92254 0.650224 0
M  V30 1313 H 129.119 -1.40532 0.314138 0
M  V30 1314 H 131.072 -3.90698 -1.57901 0
M  V30 1315 H 129.796 -2.69355 -1.84703 0
M  V30 1316 H 128.455 -3.66564 0.0510292 0
M  V30 1317 H 128.103 -4.47984 -2.28734 0
M  V30 1318 H 127.803 -5.77238 -1.09865 0
M  V30 1319 H 129.327 -5.75833 -2.03098 0
M  V30 1320 H 130.741 -5.72796 0.240257 0
M  V30 1321 H 129.138 -5.91559 1.00888 0
M  V30 1322 H 130.208 -4.60144 1.52957 0
M  V30 1323 N 131.551 -0.354651 -1.53558 0
M  V30 1324 C 132.779 0.239515 -2.05509 0
M  V30 1325 C 133.194 1.4333 -1.2289 0
M  V30 1326 O 132.551 1.80538 -0.266899 0
M  V30 1327 C 132.602 0.643719 -3.55723 0
M  V30 1328 O 132.323 -0.502602 -4.35207 0
M  V30 1329 C 133.824 1.29743 -4.23889 0
M  V30 1330 H 131.044 0.0442697 -0.669538 0
M  V30 1331 H 133.588 -0.509856 -1.98042 0
M  V30 1332 H 131.743 1.34302 -3.63376 0
M  V30 1333 H 132.157 -0.178172 -5.24197 0
M  V30 1334 H 133.631 1.53091 -5.30346 0
M  V30 1335 H 134.108 2.25441 -3.76926 0
M  V30 1336 H 134.714 0.639865 -4.20459 0
M  V30 1337 N 133.029 1.57378 -0.0835403 0
M  V30 1338 C 133.979 2.09916 0.889905 0
M  V30 1339 C 134.963 1.01151 1.25129 0
M  V30 1340 O 136.155 1.27443 1.2283 0
M  V30 1341 C 133.284 2.67379 2.15322 0
M  V30 1342 C 132.37 3.83167 1.81779 0
M  V30 1343 N 132.761 4.91665 1.18739 0
M  V30 1344 C 131.059 3.92685 2.11459 0
M  V30 1345 C 131.76 5.72409 1.0355 0
M  V30 1346 N 130.736 5.21062 1.54906 0
M  V30 1347 H 134.538 2.91188 0.398378 0
M  V30 1348 H 132.052 1.61956 0.120013 0
M  V30 1349 H 134.049 3.0334 2.8599 0
M  V30 1350 H 132.709 1.87558 2.65051 0
M  V30 1351 H 133.72 5.10784 0.855604 0
M  V30 1352 H 130.397 3.23856 2.63483 0
M  V30 1353 H 131.787 6.69699 0.543425 0
M  V30 1354 N 134.507 -0.190092 1.56449 0
M  V30 1355 C 135.784 -0.935886 1.71757 0
M  V30 1356 C 136.164 -2.01173 0.639726 0
M  V30 1357 O 135.512 -2.25827 -0.348502 0
M  V30 1358 C 135.722 -1.51775 3.1427 0
M  V30 1359 C 137.07 -1.99794 3.74656 0
M  V30 1360 O 138.094 -1.61607 3.1743 0
M  V30 1361 O 136.953 -2.70079 4.751 0
M  V30 1362 H 134.047 -0.439229 0.700719 0
M  V30 1363 H 136.593 -0.179395 1.68749 0
M  V30 1364 H 135.365 -0.742505 3.84191 0
M  V30 1365 H 134.988 -2.33894 3.21527 0
M  V30 1366 N 135.985 -1.50799 -0.457987 0
M  V30 1367 C 137.213 -1.66218 -1.23203 0
M  V30 1368 C 137.628 -0.350894 -1.85511 0
M  V30 1369 O 136.985 0.668546 -1.69814 0
M  V30 1370 C 137.036 -2.76291 -2.33121 0
M  V30 1371 O 136.757 -4.02338 -1.73366 0
M  V30 1372 C 138.258 -3.028 -3.2377 0
M  V30 1373 H 135.478 -0.558361 -0.372121 0
M  V30 1374 H 138.022 -1.97099 -0.545179 0
M  V30 1375 H 136.177 -2.48068 -2.97558 0
M  V30 1376 H 136.591 -4.63312 -2.4585 0
M  V30 1377 H 138.065 -3.8345 -3.97077 0
M  V30 1378 H 138.542 -2.14385 -3.83322 0
M  V30 1379 H 139.148 -3.32604 -2.65056 0
M  V30 1380 N 137.463 0.71206 -1.40597 0
M  V30 1381 C 138.709 1.47416 -1.39271 0
M  V30 1382 C 139.042 1.942 0.00388791 0
M  V30 1383 O 138.317 1.68403 0.973179 0
M  V30 1384 C 138.6 2.69774 -2.38525 0
M  V30 1385 C 138.453 2.28861 -3.87224 0
M  V30 1386 C 139.772 3.71939 -2.35264 0
M  V30 1387 H 136.891 0.534713 -0.5072 0
M  V30 1388 H 139.533 0.812375 -1.71757 0
M  V30 1389 H 137.683 3.26238 -2.10953 0
M  V30 1390 H 139.355 1.77852 -4.25636 0
M  V30 1391 H 137.598 1.60824 -4.02887 0
M  V30 1392 H 138.269 3.16584 -4.52193 0
M  V30 1393 H 140.745 3.25113 -2.59694 0
M  V30 1394 H 139.621 4.55186 -3.06753 0
M  V30 1395 H 139.882 4.20484 -1.36549 0
M  V30 1396 N 138.941 1.26152 0.944643 0
M  V30 1397 C 139.851 1.09176 2.07648 0
M  V30 1398 C 140.867 0.0261935 1.7398 0
M  V30 1399 O 142.043 0.229208 2.00091 0
M  V30 1400 C 139.108 0.722915 3.39079 0
M  V30 1401 C 138.169 1.86752 3.86552 0
M  V30 1402 C 137.402 1.51617 5.11711 0
M  V30 1403 O 137.625 0.416331 5.68879 0
M  V30 1404 O 136.559 2.34975 5.54139 0
M  V30 1405 H 140.385 2.0412 2.24875 0
M  V30 1406 H 137.97 1.05182 1.061 0
M  V30 1407 H 139.852 0.529787 4.18056 0
M  V30 1408 H 138.527 -0.197159 3.23099 0
M  V30 1409 H 137.434 2.11558 3.08535 0
M  V30 1410 H 138.767 2.76719 4.07047 0
M  V30 1411 N 140.419 -1.14872 1.07899 0
M  V30 1412 C 141.351 -2.19425 0.662231 0
M  V30 1413 C 142.364 -1.60231 -0.288079 0
M  V30 1414 O 143.553 -1.78336 -0.076534 0
M  V30 1415 C 140.653 -3.38867 -0.0470695 0
M  V30 1416 C 139.826 -4.27597 0.920831 0
M  V30 1417 C 138.885 -5.25616 0.247805 0
M  V30 1418 O 137.911 -5.62189 0.890599 0
M  V30 1419 N 139.113 -5.71746 -1.00435 0
M  V30 1420 H 141.878 -2.55797 1.56166 0
M  V30 1421 H 139.439 -1.30042 0.964404 0
M  V30 1422 H 141.431 -4.01497 -0.50813 0
M  V30 1423 H 140.001 -3.00864 -0.848523 0
M  V30 1424 H 139.221 -3.61982 1.56087 0
M  V30 1425 H 140.509 -4.83748 1.57688 0
M  V30 1426 H 139.907 -5.44153 -1.54642 0
M  V30 1427 H 138.464 -6.36389 -1.40899 0
M  V30 1428 N 141.898 -0.863906 -1.31812 0
M  V30 1429 C 143.144 -0.472535 -1.97218 0
M  V30 1430 C 143.477 0.971394 -1.68159 0
M  V30 1431 O 142.752 1.68309 -0.974798 0
M  V30 1432 C 143.035 -0.723054 -3.52766 0
M  V30 1433 C 142.888 -2.21608 -3.91421 0
M  V30 1434 C 144.207 -0.185522 -4.39709 0
M  V30 1435 H 141.326 -0.173158 -0.71637 0
M  V30 1436 H 143.968 -1.08403 -1.56041 0
M  V30 1437 H 142.118 -0.202577 -3.87971 0
M  V30 1438 H 143.79 -2.80334 -3.66347 0
M  V30 1439 H 142.033 -2.691 -3.40246 0
M  V30 1440 H 142.704 -2.34203 -4.99853 0
M  V30 1441 H 145.18 -0.630726 -4.11292 0
M  V30 1442 H 144.056 -0.390306 -5.47511 0
M  V30 1443 H 144.317 0.912229 -4.32586 0
M  V30 1444 N 143.376 1.44774 -0.622745 0
M  V30 1445 C 144.792 1.56986 -0.287652 0
M  V30 1446 C 144.992 1.61167 1.20944 0
M  V30 1447 O 144.048 1.55015 1.99315 0
M  V30 1448 C 145.361 2.84551 -0.972188 0
M  V30 1449 C 146.909 2.9825 -0.949536 0
M  V30 1450 C 147.384 4.28605 -1.61437 0
M  V30 1451 N 148.875 4.35399 -1.58057 0
M  V30 1452 C 149.61 5.34964 -2.064 0
M  V30 1453 N 149.106 6.40981 -2.62897 0
M  V30 1454 N 150.899 5.26419 -1.97078 0
M  V30 1455 H 143.05 1.40304 -1.59463 0
M  V30 1456 H 145.313 0.671794 -0.668878 0
M  V30 1457 H 145.019 2.87417 -2.02693 0
M  V30 1458 H 144.893 3.73807 -0.504771 0
M  V30 1459 H 147.28 2.94941 0.0967067 0
M  V30 1460 H 147.361 2.10364 -1.45536 0
M  V30 1461 H 147.005 4.32672 -2.66002 0
M  V30 1462 H 146.935 5.15334 -1.08344 0
M  V30 1463 H 149.426 3.59397 -1.16801 0
M  V30 1464 H 149.739 7.13225 -2.97539 0
M  V30 1465 H 148.084 6.4169 -2.66943 0
M  V30 1466 H 151.275 4.42504 -1.52669 0
M  V30 1467 H 151.448 6.03861 -2.35066 0
M  V30 1468 N 144.854 0.36279 1.53368 0
M  V30 1469 C 146.084 -0.228281 2.05335 0
M  V30 1470 C 146.492 -1.43226 1.23625 0
M  V30 1471 O 145.835 -1.81717 0.269206 0
M  V30 1472 C 145.897 -0.688549 3.52845 0
M  V30 1473 C 145.561 0.398362 4.5526 0
M  V30 1474 C 146.558 1.24732 5.04716 0
M  V30 1475 C 144.243 0.557805 4.99193 0
M  V30 1476 C 146.237 2.2411 5.96702 0
M  V30 1477 C 143.924 1.55495 5.90986 0
M  V30 1478 C 144.922 2.39503 6.39631 0
M  V30 1479 O 144.61 3.37517 7.29615 0
M  V30 1480 H 144.342 -0.044395 0.674541 0
M  V30 1481 H 146.896 0.518668 1.98744 0
M  V30 1482 H 145.126 -1.48706 3.56964 0
M  V30 1483 H 146.815 -1.20231 3.87685 0
M  V30 1484 H 147.581 1.13532 4.71525 0
M  V30 1485 H 143.46 -0.0862959 4.60919 0
M  V30 1486 H 147.004 2.89718 6.34594 0
M  V30 1487 H 142.901 1.66744 6.23592 0
M  V30 1488 H 143.669 3.33213 7.47604 0
M  V30 1489 N 146.332 -1.57332 0.0918853 0
M  V30 1490 C 147.748 -1.57389 -0.264766 0
M  V30 1491 C 147.948 -1.10281 -1.68643 0
M  V30 1492 O 147.004 -0.777801 -2.40222 0
M  V30 1493 C 148.317 -3.00648 -0.0561195 0
M  V30 1494 C 149.865 -3.12754 -0.124116 0
M  V30 1495 C 150.34 -4.57965 0.0564972 0
M  V30 1496 N 151.831 -4.632 0.00155611 0
M  V30 1497 C 152.566 -5.73281 0.116598 0
M  V30 1498 N 152.062 -6.92208 0.286294 0
M  V30 1499 N 153.855 -5.6207 0.0580973 0
M  V30 1500 H 146.006 -1.86262 1.02079 0
M  V30 1501 H 148.269 -0.859579 0.399786 0
M  V30 1502 H 147.975 -3.393 0.925669 0
M  V30 1503 H 147.849 -3.68623 -0.799823 0
M  V30 1504 H 150.236 -2.73976 -1.09641 0
M  V30 1505 H 150.317 -2.47377 0.651024 0
M  V30 1506 H 149.961 -4.97436 1.02564 0
M  V30 1507 H 149.891 -5.21399 -0.738297 0
M  V30 1508 H 152.382 -3.77686 -0.127192 0
M  V30 1509 H 152.695 -7.71934 0.365676 0
M  V30 1510 H 151.04 -6.94254 0.32192 0
M  V30 1511 H 154.231 -4.68043 -0.0733204 0
M  V30 1512 H 154.404 -6.47824 0.151203 0
M  V30 1513 N 147.81 0.181792 -1.56548 0
M  V30 1514 C 149.059 0.898348 -1.8059 0
M  V30 1515 C 149.372 1.83862 -0.667379 0
M  V30 1516 O 150.578 2.59678 -0.792446 0
M  V30 1517 C 149.034 1.64791 -3.19956 0
M  V30 1518 C 148.642 0.751789 -4.41647 0
M  V30 1519 C 150.386 2.35331 -3.53298 0
M  V30 1520 C 148.293 1.50098 -5.72035 0
M  V30 1521 H 147.223 0.339194 -0.673397 0
M  V30 1522 H 149.874 0.151413 -1.82874 0
M  V30 1523 H 148.256 2.43921 -3.11959 0
M  V30 1524 H 149.43 -0.0018076 -4.608 0
M  V30 1525 H 147.745 0.156562 -4.16106 0
M  V30 1526 H 150.342 2.91958 -4.47956 0
M  V30 1527 H 150.685 3.10164 -2.77676 0
M  V30 1528 H 151.218 1.63154 -3.62803 0
M  V30 1529 H 147.957 0.795175 -6.50659 0
M  V30 1530 H 147.477 2.22817 -5.56878 0
M  V30 1531 H 149.156 2.05125 -6.13622 0
M  V30 1532 N 149.288 1.51039 0.449983 0
M  V30 1533 C 150.218 1.74379 1.55288 0
M  V30 1534 C 151.199 0.593236 1.5942 0
M  V30 1535 O 152.384 0.834625 1.7535 0
M  V30 1536 C 149.514 1.85728 2.93466 0
M  V30 1537 C 148.468 3.01078 3.04197 0
M  V30 1538 C 147.794 2.97595 4.44231 0
M  V30 1539 C 149.094 4.41254 2.7945 0
M  V30 1540 H 150.788 2.66725 1.36008 0
M  V30 1541 H 148.334 1.2835 0.652864 0
M  V30 1542 H 150.287 2.0064 3.70569 0
M  V30 1543 H 149.011 0.900207 3.13949 0
M  V30 1544 H 147.67 2.85851 2.29531 0
M  V30 1545 H 147.318 1.99691 4.61663 0
M  V30 1546 H 147.018 3.75046 4.52343 0
M  V30 1547 H 148.542 3.14583 5.23326 0
M  V30 1548 H 149.956 4.56897 3.46292 0
M  V30 1549 H 148.353 5.20315 2.98985 0
M  V30 1550 H 149.423 4.52164 1.75144 0
M  V30 1551 N 150.766 -0.704594 1.40972 0
M  V30 1552 C 151.729 -1.80035 1.41845 0
M  V30 1553 C 152.729 -1.57774 0.310474 0
M  V30 1554 O 153.919 -1.64613 0.56992 0
M  V30 1555 C 151.051 -3.18284 1.22098 0
M  V30 1556 H 152.244 -1.80658 2.3938 0
M  V30 1557 H 149.797 -0.911329 1.26982 0
M  V30 1558 H 150.532 -3.23306 0.253672 0
M  V30 1559 H 150.317 -3.35843 2.02366 0
M  V30 1560 H 151.807 -3.98289 1.25522 0
M  V30 1561 N 152.244 -1.26651 -0.937939 0
M  V30 1562 C 153.194 -1.05156 -2.02302 0
M  V30 1563 C 154.178 0.0171233 -1.60891 0
M  V30 1564 O 155.37 -0.200213 -1.75864 0
M  V30 1565 C 152.499 -0.689962 -3.36295 0
M  V30 1566 C 151.585 -1.79626 -3.84181 0
M  V30 1567 N 151.976 -3.03422 -4.04684 0
M  V30 1568 C 150.274 -1.6806 -4.13124 0
M  V30 1569 C 150.975 -3.75345 -4.444 0
M  V30 1570 N 149.951 -3.03051 -4.51288 0
M  V30 1571 H 153.753 -1.99117 -2.1617 0
M  V30 1572 H 151.267 -1.17216 -1.12402 0
M  V30 1573 H 153.264 -0.517112 -4.13681 0
M  V30 1574 H 151.924 0.242139 -3.23796 0
M  V30 1575 H 152.935 -3.39293 -3.91281 0
M  V30 1576 H 149.612 -0.818629 -4.09396 0
M  V30 1577 H 151.002 -4.81691 -4.68427 0
M  V30 1578 N 153.722 1.14298 -1.08507 0
M  V30 1579 C 154.969 1.85359 -0.815373 0
M  V30 1580 C 155.297 1.83001 0.658865 0
M  V30 1581 O 154.552 1.25655 1.50031 0
M  V30 1582 C 154.851 3.33547 -1.28379 0
M  V30 1583 C 154.517 3.56093 -2.76602 0
M  V30 1584 C 153.179 3.61955 -3.17084 0
M  V30 1585 C 155.531 3.64834 -3.72217 0
M  V30 1586 C 152.859 3.74082 -4.51973 0
M  V30 1587 C 155.211 3.78487 -5.06883 0
M  V30 1588 C 153.875 3.82598 -5.46969 0
M  V30 1589 H 153.145 0.678276 -0.298366 0
M  V30 1590 H 155.792 1.35002 -1.35819 0
M  V30 1591 H 154.097 3.86191 -0.660593 0
M  V30 1592 H 155.794 3.86959 -1.05186 0
M  V30 1593 H 152.384 3.52179 -2.4427 0
M  V30 1594 H 156.568 3.59595 -3.42061 0
M  V30 1595 H 151.824 3.75527 -4.82483 0
M  V30 1596 H 155.998 3.84193 -5.80834 0
M  V30 1597 H 153.625 3.91747 -6.51489 0
M  V30 1598 N 155.201 0.870884 1.31352 0
M  V30 1599 C 156.151 0.298889 2.26032 0
M  V30 1600 C 157.135 -0.564595 1.50669 0
M  V30 1601 O 158.327 -0.411323 1.72154 0
M  V30 1602 C 155.456 -0.497842 3.39671 0
M  V30 1603 C 154.542 0.378937 4.22404 0
M  V30 1604 N 154.933 1.47284 4.83881 0
M  V30 1605 C 153.231 0.171535 4.4567 0
M  V30 1606 C 153.932 2.01359 5.45738 0
M  V30 1607 N 152.908 1.31047 5.27568 0
M  V30 1608 H 156.71 1.13494 2.71102 0
M  V30 1609 H 154.224 0.718745 1.45629 0
M  V30 1610 H 156.221 -0.924155 4.06528 0
M  V30 1611 H 154.881 -1.33149 2.96144 0
M  V30 1612 H 155.892 1.85575 4.8351 0
M  V30 1613 H 152.569 -0.626091 4.12779 0
M  V30 1614 H 153.959 2.93143 6.0458 0
M  V30 1615 N 156.679 -1.44442 0.630414 0
M  V30 1616 C 157.907 -2.06414 0.141671 0
M  V30 1617 C 158.322 -1.47105 -1.18345 0
M  V30 1618 O 157.679 -0.593662 -1.72574 0
M  V30 1619 C 157.73 -3.61494 0.0199784 0
M  V30 1620 O 157.451 -4.18594 1.29269 0
M  V30 1621 C 158.952 -4.40499 -0.497544 0
M  V30 1622 H 156.172 -0.666292 0.0793452 0
M  V30 1623 H 158.716 -1.85323 0.864614 0
M  V30 1624 H 156.871 -3.8185 -0.653402 0
M  V30 1625 H 157.285 -5.12026 1.13707 0
M  V30 1626 H 158.759 -5.49433 -0.531708 0
M  V30 1627 H 159.236 -4.11895 -1.52445 0
M  V30 1628 H 159.842 -4.25061 0.142562 0
M  V30 1629 N 158.157 -0.370918 -1.53173 0
M  V30 1630 C 159.385 0.217704 -2.05751 0
M  V30 1631 C 159.8 1.42018 -1.24404 0
M  V30 1632 O 159.157 1.80245 -0.286033 0
M  V30 1633 C 159.208 0.605954 -3.56385 0
M  V30 1634 O 158.929 -0.548734 -4.3465 0
M  V30 1635 C 160.43 1.2524 -4.25241 0
M  V30 1636 H 157.65 0.0371659 -0.66997 0
M  V30 1637 H 160.194 -0.530832 -1.9749 0
M  V30 1638 H 158.349 1.3044 -3.6478 0
M  V30 1639 H 158.763 -0.23376 -5.23979 0
M  V30 1640 H 160.237 1.47458 -5.3194 0
M  V30 1641 H 160.714 2.2143 -3.79296 0
M  V30 1642 H 161.32 0.595233 -4.21114 0
M  V30 1643 N 159.635 1.57281 -0.100228 0
M  V30 1644 C 160.598 2.13158 0.842398 0
M  V30 1645 C 161.598 1.06202 1.20738 0
M  V30 1646 O 162.788 1.32066 1.13597 0
M  V30 1647 C 159.92 2.65639 2.13655 0
M  V30 1648 H 161.113 2.97766 0.357114 0
M  V30 1649 H 158.666 1.5559 0.148823 0
M  V30 1650 H 159.401 1.84566 2.66657 0
M  V30 1651 H 159.186 3.43844 1.88451 0
M  V30 1652 H 160.676 3.08846 2.81077 0
M  V30 1653 N 161.113 -0.173488 1.56642 0
M  V30 1654 C 162.023 -1.23482 1.99473 0
M  V30 1655 C 163.039 -1.48567 0.905752 0
M  V30 1656 O 164.215 -1.60758 1.21321 0
M  V30 1657 C 161.28 -2.55444 2.34413 0
M  V30 1658 C 160.341 -2.38241 3.57127 0
M  V30 1659 C 159.574 -3.63909 3.90392 0
M  V30 1660 O 159.797 -4.68996 3.24653 0
M  V30 1661 O 158.731 -3.58149 4.83749 0
M  V30 1662 H 162.557 -0.901279 2.90018 0
M  V30 1663 H 160.142 -0.380185 1.44482 0
M  V30 1664 H 162.024 -3.33292 2.57865 0
M  V30 1665 H 160.699 -2.88382 1.4703 0
M  V30 1666 H 159.606 -1.58431 3.38896 0
M  V30 1667 H 160.939 -2.10228 4.45045 0
M  V30 1668 N 162.591 -1.51276 -0.441967 0
M  V30 1669 C 163.868 -1.54252 -1.20273 0
M  V30 1670 C 164.248 -0.30408 -2.08898 0
M  V30 1671 O 163.596 0.711084 -2.17154 0
M  V30 1672 C 163.806 -2.85406 -2.00859 0
M  V30 1673 C 165.154 -3.37181 -2.58059 0
M  V30 1674 O 166.178 -2.86925 -2.11074 0
M  V30 1675 O 165.037 -4.24858 -3.43741 0
M  V30 1676 H 162.131 -0.619969 -0.547328 0
M  V30 1677 H 164.677 -1.63586 -0.451413 0
M  V30 1678 H 163.449 -3.67003 -1.35736 0
M  V30 1679 H 163.072 -2.79213 -2.83065 0
M  V30 1680 N 164.069 0.697108 -1.41344 0
M  V30 1681 C 165.299 1.48377 -1.43763 0
M  V30 1682 C 165.707 1.89156 -0.0408726 0
M  V30 1683 O 165.05 1.57239 0.949812 0
M  V30 1684 C 165.112 2.7781 -2.2817 0
M  V30 1685 C 164.776 2.59244 -3.76353 0
M  V30 1686 C 165.773 2.25292 -4.68551 0
M  V30 1687 C 163.458 2.74933 -4.20378 0
M  V30 1688 C 165.452 2.07264 -6.02761 0
M  V30 1689 C 163.139 2.56521 -5.54653 0
M  V30 1690 C 164.137 2.22737 -6.4566 0
M  V30 1691 O 163.825 2.04485 -7.77458 0
M  V30 1692 H 163.557 0.463842 -0.491759 0
M  V30 1693 H 166.111 0.865934 -1.86255 0
M  V30 1694 H 164.341 3.41995 -1.8049 0
M  V30 1695 H 166.03 3.39608 -2.22309 0
M  V30 1696 H 166.796 2.12787 -4.35829 0
M  V30 1697 H 162.675 3.00213 -3.49848 0
M  V30 1698 H 166.219 1.80817 -6.73759 0
M  V30 1699 H 162.116 2.68616 -5.86955 0
M  V30 1700 H 162.884 2.1926 -7.88586 0
M  V30 1701 N 165.547 1.27147 0.931209 0
M  V30 1702 C 166.775 1.16082 1.71267 0
M  V30 1703 C 167.19 -0.282772 1.8667 0
M  V30 1704 O 166.547 -1.19283 1.38122 0
M  V30 1705 C 166.598 1.8358 3.11417 0
M  V30 1706 O 166.319 3.22299 2.96741 0
M  V30 1707 C 167.82 1.78597 4.05732 0
M  V30 1708 H 165.04 0.403758 0.535929 0
M  V30 1709 H 167.584 1.67953 1.16671 0
M  V30 1710 H 165.739 1.35623 3.62885 0
M  V30 1711 H 166.153 3.55851 3.85319 0
M  V30 1712 H 167.627 2.30444 5.01597 0
M  V30 1713 H 168.104 0.754564 4.3267 0
M  V30 1714 H 168.71 2.26152 3.60188 0
M  V30 1715 N 167.025 -1.13721 1.09112 0
M  V30 1716 C 168.271 -1.85198 0.826414 0
M  V30 1717 C 168.604 -1.83129 -0.646319 0
M  V30 1718 O 167.879 -1.2671 -1.47563 0
M  V30 1719 C 168.162 -3.33507 1.35812 0
M  V30 1720 C 168.015 -3.44108 2.89672 0
M  V30 1721 C 169.334 -4.28838 0.989256 0
M  V30 1722 H 166.453 -0.67243 0.301675 0
M  V30 1723 H 169.095 -1.33499 1.35197 0
M  V30 1724 H 167.245 -3.77666 0.911082 0
M  V30 1725 H 168.917 -3.08684 3.428 0
M  V30 1726 H 167.16 -2.85087 3.26967 0
M  V30 1727 H 167.831 -4.48388 3.21951 0
M  V30 1728 H 170.307 -3.92734 1.37475 0
M  V30 1729 H 169.183 -5.31051 1.38838 0
M  V30 1730 H 169.444 -4.4198 -0.102924 0
M  V30 1731 N 168.503 -0.877838 -1.30888 0
M  V30 1732 C 169.752 -0.488793 -1.95688 0
M  V30 1733 C 170.065 0.965485 -1.70111 0
M  V30 1734 O 171.271 1.46104 -2.28836 0
M  V30 1735 C 169.727 -0.823201 -3.50359 0
M  V30 1736 C 169.335 -2.29477 -3.84765 0
M  V30 1737 C 171.079 -0.503009 -4.21509 0
M  V30 1738 C 168.986 -2.57118 -5.32583 0
M  V30 1739 H 167.916 -0.179062 -0.732429 0
M  V30 1740 H 170.567 -1.07183 -1.48943 0
M  V30 1741 H 168.949 -0.169331 -3.95638 0
M  V30 1742 H 170.123 -2.99236 -3.5042 0
M  V30 1743 H 168.438 -2.58178 -3.267 0
M  V30 1744 H 171.035 -0.68665 -5.30273 0
M  V30 1745 H 171.378 0.557109 -4.12555 0
M  V30 1746 H 171.911 -1.11376 -3.8189 0
M  V30 1747 H 168.65 -3.61843 -5.4658 0
M  V30 1748 H 168.17 -1.91961 -5.68253 0
M  V30 1749 H 169.849 -2.42251 -5.99936 0
M  V30 1750 N 169.982 1.44106 -0.638065 0
M  V30 1751 C 171.229 2.01978 -0.14533 0
M  V30 1752 C 171.557 1.50234 1.23532 0
M  V30 1753 O 170.812 0.679548 1.83523 0
M  V30 1754 C 171.111 3.5729 -0.0887327 0
M  V30 1755 C 170.777 4.28317 -1.40909 0
M  V30 1756 C 169.439 4.47437 -1.77069 0
M  V30 1757 C 171.791 4.6867 -2.28031 0
M  V30 1758 C 169.119 5.04171 -3.00047 0
M  V30 1759 C 171.471 5.26766 -3.50286 0
M  V30 1760 C 170.135 5.44104 -3.86661 0
M  V30 1761 H 169.405 0.739089 -0.0531801 0
M  V30 1762 H 172.052 1.72781 -0.825761 0
M  V30 1763 H 170.357 3.8594 0.675095 0
M  V30 1764 H 172.054 3.99807 0.309145 0
M  V30 1765 H 168.644 4.1377 -1.1177 0
M  V30 1766 H 172.828 4.53604 -2.01388 0
M  V30 1767 H 168.084 5.15782 -3.28298 0
M  V30 1768 H 172.258 5.56983 -4.18023 0
M  V30 1769 H 169.885 5.87832 -4.82034 0
M  V30 1770 N 171.46 0.379036 1.52974 0
M  V30 1771 C 172.688 -0.20679 2.05864 0
M  V30 1772 C 173.103 -1.41356 1.25155 0
M  V30 1773 O 172.46 -1.8009 0.295588 0
M  V30 1774 C 172.511 -0.587045 3.56702 0
M  V30 1775 O 172.232 0.571776 4.34353 0
M  V30 1776 C 173.733 -1.22983 4.25899 0
M  V30 1777 H 170.953 -0.0336123 0.670158 0
M  V30 1778 H 173.497 0.541298 1.97206 0
M  V30 1779 H 171.652 -1.28504 3.65466 0
M  V30 1780 H 172.066 0.261544 5.23847 0
M  V30 1781 H 173.54 -1.44635 5.32715 0
M  V30 1782 H 174.017 -2.19416 3.80465 0
M  V30 1783 H 174.623 -0.572892 4.21424 0
M  V30 1784 N 172.938 -1.57226 0.108567 0
M  V30 1785 C 173.901 -2.13602 -0.831082 0
M  V30 1786 C 174.901 -1.06841 -1.20173 0
M  V30 1787 O 176.091 -1.32666 -1.12895 0
M  V30 1788 C 173.223 -2.66769 -2.12243 0
M  V30 1789 H 174.416 -2.97951 -0.341317 0
M  V30 1790 H 171.969 -1.55667 -0.14057 0
M  V30 1791 H 172.704 -1.85977 -2.65675 0
M  V30 1792 H 172.489 -3.44839 -1.86625 0
M  V30 1793 H 173.979 -3.10332 -2.79435 0
M  V30 1794 N 174.416 0.165178 -1.56732 0
M  V30 1795 C 175.664 0.879068 -1.8198 0
M  V30 1796 C 175.985 1.82514 -0.686561 0
M  V30 1797 O 175.255 1.93694 0.293146 0
M  V30 1798 H 173.835 0.327608 -0.671329 0
M  V30 1799 H 176.497 0.163526 -1.94213 0
M  V30 1800 H 175.593 1.45228 -2.76252 0
M  V30 1801 N 175.894 1.51508 0.433938 0
M  V30 1802 C 177.119 1.68443 1.21003 0
M  V30 1803 C 177.544 0.382636 1.84167 0
M  V30 1804 O 176.902 -0.65755 1.68956 0
M  V30 1805 C 176.95 2.80405 2.26727 0
M  V30 1806 O 176.054 2.44245 3.32292 0
M  V30 1807 H 175.395 0.561536 0.354363 0
M  V30 1808 H 177.925 1.9809 0.512024 0
M  V30 1809 H 177.935 3.0459 2.71457 0
M  V30 1810 H 176.61 3.74867 1.80132 0
M  V30 1811 H 175.187 2.30644 2.93015 0
M  V30 1812 N 177.372 -0.689602 1.41712 0
M  V30 1813 C 178.6 -1.47827 1.44758 0
M  V30 1814 C 179.015 -1.88721 0.0545703 0
M  V30 1815 O 178.372 -1.57176 -0.927463 0
M  V30 1816 C 178.423 -2.73698 2.3616 0
M  V30 1817 O 178.144 -2.34524 3.7004 0
M  V30 1818 C 179.645 -3.67389 2.48072 0
M  V30 1819 H 176.865 -0.455357 0.49284 0
M  V30 1820 H 179.409 -0.848574 1.86063 0
M  V30 1821 H 177.564 -3.32891 1.98148 0
M  V30 1822 H 177.978 -3.15701 4.18847 0
M  V30 1823 H 179.452 -4.52475 3.16181 0
M  V30 1824 H 179.929 -4.12284 1.51388 0
M  V30 1825 H 180.535 -3.14097 2.86746 0
M  V30 1826 N 178.85 -1.27639 -0.924453 0
M  V30 1827 C 179.813 -1.10681 -2.00705 0
M  V30 1828 C 180.813 -0.0497823 -1.60723 0
M  V30 1829 O 182.003 -0.294654 -1.7169 0
M  V30 1830 C 179.135 -0.687164 -3.33902 0
M  V30 1831 H 180.328 -2.06817 -2.17179 0
M  V30 1832 H 177.881 -1.10473 -1.10569 0
M  V30 1833 H 178.616 0.275439 -3.23128 0
M  V30 1834 H 178.401 -1.45061 -3.6428 0
M  V30 1835 H 179.891 -0.590853 -4.13399 0
M  V30 1836 N 180.328 1.1314 -1.09713 0
M  V30 1837 C 181.291 2.16831 -0.742751 0
M  V30 1838 C 182.291 1.59159 0.229129 0
M  V30 1839 O 183.481 1.74199 0.00693237 0
M  V30 1840 C 180.613 3.40756 -0.0989168 0
M  V30 1841 H 181.806 2.49695 -1.66109 0
M  V30 1842 H 179.359 1.2802 -0.896699 0
M  V30 1843 H 180.094 3.13485 0.830514 0
M  V30 1844 H 179.879 3.83888 -0.798265 0
M  V30 1845 H 181.369 4.17386 0.133524 0
M  V30 1846 N 181.806 0.884767 1.30421 0
M  V30 1847 C 182.736 0.367574 2.30589 0
M  V30 1848 C 183.717 -0.549464 1.60981 0
M  V30 1849 O 184.902 -0.46336 1.88591 0
M  V30 1850 C 182.032 -0.418944 3.44764 0
M  V30 1851 C 180.986 0.406316 4.26067 0
M  V30 1852 C 180.312 -0.506793 5.32293 0
M  V30 1853 C 181.612 1.64832 4.95608 0
M  V30 1854 H 183.306 1.20462 2.74097 0
M  V30 1855 H 180.852 0.580695 1.31772 0
M  V30 1856 H 182.805 -0.791395 4.13902 0
M  V30 1857 H 181.529 -1.28964 3.0006 0
M  V30 1858 H 180.188 0.760903 3.58617 0
M  V30 1859 H 179.836 -1.37519 4.83836 0
M  V30 1860 H 179.536 0.0415828 5.87585 0
M  V30 1861 H 181.06 -0.875764 6.04287 0
M  V30 1862 H 182.474 1.34646 5.57264 0
M  V30 1863 H 180.871 2.13688 5.60765 0
M  V30 1864 H 181.941 2.39284 4.21748 0
M  V30 1865 N 183.284 -1.43765 0.645699 0
M  V30 1866 C 184.231 -2.30745 -0.0504648 0
M  V30 1867 C 185.201 -1.4432 -0.822241 0
M  V30 1868 O 186.386 -1.73202 -0.800358 0
M  V30 1869 C 183.526 -3.29802 -1.0161 0
M  V30 1870 C 182.639 -4.31326 -0.241219 0
M  V30 1871 C 181.774 -5.17469 -1.19998 0
M  V30 1872 C 180.813 -6.10691 -0.415094 0
M  V30 1873 N 179.95 -6.89483 -1.32506 0
M  V30 1874 H 184.79 -2.8973 0.697155 0
M  V30 1875 H 182.327 -1.42738 0.355563 0
M  V30 1876 H 184.285 -3.85734 -1.58949 0
M  V30 1877 H 182.915 -2.72483 -1.73069 0
M  V30 1878 H 181.967 -3.77749 0.448334 0
M  V30 1879 H 183.279 -4.9743 0.369437 0
M  V30 1880 H 182.433 -5.7799 -1.84424 0
M  V30 1881 H 181.172 -4.51473 -1.84455 0
M  V30 1882 H 180.177 -5.49265 0.242565 0
M  V30 1883 H 181.402 -6.78727 0.224966 0
M  V30 1884 H 179.348 -6.26142 -1.95657 0
M  V30 1885 H 179.265 -7.52081 -0.768783 0
M  V30 1886 H 180.533 -7.54516 -1.9577 0
M  V30 1887 N 184.763 -0.387143 -1.52771 0
M  V30 1888 C 185.693 0.440551 -2.29306 0
M  V30 1889 C 186.674 1.06535 -1.32606 0
M  V30 1890 O 187.859 1.07853 -1.61497 0
M  V30 1891 C 184.989 1.56919 -3.09829 0
M  V30 1892 C 183.943 1.07054 -4.14395 0
M  V30 1893 C 183.269 2.29109 -4.83129 0
M  V30 1894 C 184.569 0.140015 -5.22112 0
M  V30 1895 H 186.263 -0.198026 -2.98744 0
M  V30 1896 H 183.809 -0.09668 -1.43675 0
M  V30 1897 H 185.762 2.15503 -3.62128 0
M  V30 1898 H 184.486 2.23532 -2.3812 0
M  V30 1899 H 183.145 0.507247 -3.63074 0
M  V30 1900 H 182.793 2.94227 -4.0797 0
M  V30 1901 H 182.493 1.96406 -5.53804 0
M  V30 1902 H 184.017 2.88339 -5.38231 0
M  V30 1903 H 185.431 0.633978 -5.69784 0
M  V30 1904 H 183.828 -0.0971485 -6.00021 0
M  V30 1905 H 184.898 -0.811711 -4.78058 0
M  V30 1906 N 186.241 1.57166 -0.116904 0
M  V30 1907 C 187.487 1.95412 0.542405 0
M  V30 1908 C 187.82 1.00019 1.66463 0
M  V30 1909 O 187.095 0.0370346 1.94465 0
M  V30 1910 C 187.378 3.43615 1.07708 0
M  V30 1911 C 187.231 4.49781 -0.0415868 0
M  V30 1912 C 188.55 3.93616 1.96861 0
M  V30 1913 H 185.669 0.710543 0.195696 0
M  V30 1914 H 188.311 1.89027 -0.192038 0
M  V30 1915 H 186.461 3.49187 1.70296 0
M  V30 1916 H 188.133 4.56308 -0.676793 0
M  V30 1917 H 186.376 4.28033 -0.705019 0
M  V30 1918 H 187.047 5.50733 0.373717 0
M  V30 1919 H 189.523 3.90335 1.44146 0
M  V30 1920 H 188.399 4.97838 2.3119 0
M  V30 1921 H 188.66 3.34188 2.89432 0
M  V30 1922 N 187.719 -0.156864 1.56817 0
M  V30 1923 C 188.682 -1.17781 1.96622 0
M  V30 1924 C 189.682 -1.36401 0.851555 0
M  V30 1925 O 190.872 -1.33561 1.11836 0
M  V30 1926 C 188.004 -2.54008 2.27361 0
M  V30 1927 H 189.197 -0.836564 2.87996 0
M  V30 1928 H 186.75 -0.39985 1.51099 0
M  V30 1929 H 187.485 -2.9312 1.38748 0
M  V30 1930 H 187.27 -2.41856 3.08623 0
M  V30 1931 H 188.76 -3.27558 2.59029 0
M  V30 1932 N 189.197 -1.51736 -0.425897 0
M  V30 1933 C 190.107 -1.76738 -1.54275 0
M  V30 1934 C 191.123 -0.65211 -1.61318 0
M  V30 1935 O 192.299 -0.935654 -1.78346 0
M  V30 1936 C 189.364 -1.89755 -2.90162 0
M  V30 1937 C 188.425 -3.13633 -2.93143 0
M  V30 1938 C 187.658 -3.2602 -4.22548 0
M  V30 1939 O 187.881 -2.44067 -5.15546 0
M  V30 1940 O 186.815 -4.19071 -4.32046 0
M  V30 1941 H 190.641 -2.71502 -1.36089 0
M  V30 1942 H 188.226 -1.36376 -0.610069 0
M  V30 1943 H 190.108 -2.00236 -3.70788 0
M  V30 1944 H 188.783 -0.981785 -3.08452 0
M  V30 1945 H 187.69 -3.08622 -2.11431 0
M  V30 1946 H 189.023 -4.04936 -2.798 0
M  V30 1947 N 190.675 0.682077 -1.42076 0
M  V30 1948 C 191.638 1.77756 -1.44691 0
M  V30 1949 C 192.638 1.5726 -0.335535 0
M  V30 1950 O 193.828 1.63686 -0.596037 0
M  V30 1951 C 190.96 3.16301 -1.27146 0
M  V30 1952 H 192.153 1.76826 -2.42224 0
M  V30 1953 H 189.706 0.891012 -1.28416 0
M  V30 1954 H 190.441 3.22862 -0.305075 0
M  V30 1955 H 190.226 3.32581 -2.07683 0
M  V30 1956 H 191.716 3.96241 -1.31843 0
M  V30 1957 N 192.153 1.28127 0.917671 0
M  V30 1958 C 193.4 1.15052 1.66641 0
M  V30 1959 C 193.728 -0.301677 1.92146 0
M  V30 1960 O 192.983 -1.23622 1.51711 0
M  V30 1961 C 193.282 1.89018 3.03327 0
M  V30 1962 C 192.948 3.38832 2.97496 0
M  V30 1963 C 191.61 3.79693 2.95613 0
M  V30 1964 C 193.962 4.34378 2.88036 0
M  V30 1965 C 191.29 5.14447 2.82066 0
M  V30 1966 C 193.642 5.69201 2.7603 0
M  V30 1967 C 192.306 6.09343 2.72502 0
M  V30 1968 H 191.576 0.421006 0.609783 0
M  V30 1969 H 194.223 1.58855 1.06945 0
M  V30 1970 H 192.528 1.37752 3.66785 0
M  V30 1971 H 194.225 1.76321 3.60156 0
M  V30 1972 H 190.815 3.06342 2.99754 0
M  V30 1973 H 194.999 4.03775 2.88581 0
M  V30 1974 H 190.255 5.44681 2.77728 0
M  V30 1975 H 194.429 6.42901 2.67678 0
M  V30 1976 H 192.056 7.13712 2.61762 0
M  V30 1977 N 193.631 -1.12557 1.10312 0
M  V30 1978 C 195.042 -1.65574 0.862678 0
M  V30 1979 C 195.393 -1.86566 -0.607256 0
M  V30 1980 O 194.518 -1.59121 -1.46662 0
M  V30 1981 C 195.113 -3.00776 1.55947 0
M  V30 1982 C 193.672 -3.50748 1.36576 0
M  V30 1983 C 192.819 -2.25797 1.60968 0
M  V30 1984 H 195.77 -0.963552 1.26101 0
M  V30 1985 H 195.791 -3.67185 0.997753 0
M  V30 1986 H 195.303 -2.85465 2.62928 0
M  V30 1987 H 193.404 -3.71245 0.317531 0
M  V30 1988 H 193.517 -4.30289 2.10686 0
M  V30 1989 H 191.881 -2.32841 1.03234 0
M  V30 1990 H 192.664 -2.13043 2.69198 0
M  V30 1991 N 195.109 -0.891671 -1.2995 0
M  V30 1992 C 196.355 -0.523649 -1.96544 0
M  V30 1993 C 196.71 0.918394 -1.69066 0
M  V30 1994 O 196.003 1.64122 -0.988659 0
M  V30 1995 C 196.197 -0.742868 -3.49594 0
M  V30 1996 C 196.026 -2.20467 -3.9195 0
M  V30 1997 C 194.796 -2.85055 -4.17219 0
M  V30 1998 C 196.994 -3.17912 -4.04273 0
M  V30 1999 N 194.976 -4.21762 -4.46083 0
M  V30 2000 C 196.347 -4.39712 -4.37097 0
M  V30 2001 C 198.402 -3.1361 -3.86721 0
M  V30 2002 C 197.105 -5.5776 -4.54199 0
M  V30 2003 C 199.131 -4.30936 -4.05028 0
M  V30 2004 C 198.493 -5.51504 -4.38204 0
M  V30 2005 H 194.592 -0.241072 -0.743914 0
M  V30 2006 H 197.176 -1.15081 -1.5705 0
M  V30 2007 H 195.347 -0.14515 -3.88129 0
M  V30 2008 H 197.079 -0.341081 -4.0326 0
M  V30 2009 H 193.834 -2.35889 -4.10674 0
M  V30 2010 H 194.258 -4.92382 -4.64638 0
M  V30 2011 H 198.9 -2.21489 -3.60142 0
M  V30 2012 H 196.618 -6.50379 -4.79618 0
M  V30 2013 H 200.204 -4.29085 -3.92909 0
M  V30 2014 H 199.084 -6.40778 -4.52077 0
M  V30 2015 N 196.587 1.43421 -0.653314 0
M  V30 2016 C 197.833 2.02111 -0.166992 0
M  V30 2017 C 198.166 1.51423 1.21592 0
M  V30 2018 O 197.441 0.707389 1.8118 0
M  V30 2019 C 197.724 3.5966 -0.177948 0
M  V30 2020 C 197.577 4.20579 -1.59478 0
M  V30 2021 C 198.896 4.37413 0.4856 0
M  V30 2022 H 196.015 0.734374 -0.0621557 0
M  V30 2023 H 198.657 1.70717 -0.834016 0
M  V30 2024 H 196.807 3.86537 0.390032 0
M  V30 2025 H 198.479 4.04732 -2.21336 0
M  V30 2026 H 196.722 3.77226 -2.14204 0
M  V30 2027 H 197.393 5.29665 -1.5543 0
M  V30 2028 H 199.869 4.161 0.00234528 0
M  V30 2029 H 198.745 5.47075 0.447207 0
M  V30 2030 H 199.006 4.13672 1.55974 0
M  V30 2031 N 198.065 0.39524 1.52563 0
M  V30 2032 C 199.29 -0.187456 2.06551 0
M  V30 2033 C 199.715 -1.39249 1.26457 0
M  V30 2034 O 199.073 -1.78947 0.291151 0
M  V30 2035 C 199.121 -0.529985 3.56684 0
M  V30 2036 O 198.225 -1.62307 3.79118 0
M  V30 2037 H 197.566 -0.0202537 0.663691 0
M  V30 2038 H 200.096 0.564426 1.96661 0
M  V30 2039 H 200.106 -0.792598 4.00227 0
M  V30 2040 H 198.781 0.350987 4.14416 0
M  V30 2041 H 197.358 -1.3537 3.47461 0
M  V30 2042 N 199.544 -1.57102 0.125237 0
M  V30 2043 C 200.476 -2.12726 -0.853237 0
M  V30 2044 C 201.489 -1.07145 -1.22571 0
M  V30 2045 O 202.678 -1.34497 -1.17358 0
M  V30 2046 C 199.778 -2.61709 -2.15317 0
M  V30 2047 C 198.951 -3.91456 -1.95143 0
M  V30 2048 C 198.01 -4.25973 -3.08923 0
M  V30 2049 O 197.036 -4.94682 -2.81564 0
M  V30 2050 N 198.238 -3.83795 -4.35524 0
M  V30 2051 H 201.003 -2.97307 -0.377964 0
M  V30 2052 H 198.564 -1.61792 -0.0590011 0
M  V30 2053 H 200.556 -2.81826 -2.90441 0
M  V30 2054 H 199.126 -1.81974 -2.54174 0
M  V30 2055 H 198.346 -3.80185 -1.04177 0
M  V30 2056 H 199.634 -4.76283 -1.78976 0
M  V30 2057 H 199.032 -3.2839 -4.60626 0
M  V30 2058 H 197.589 -4.09008 -5.07499 0
M  V30 2059 N 201.022 0.148545 -1.56898 0
M  V30 2060 C 202.27 0.859717 -1.82902 0
M  V30 2061 C 202.591 1.81775 -0.70588 0
M  V30 2062 O 201.861 1.93994 0.272586 0
M  V30 2063 H 200.441 0.320469 -0.674766 0
M  V30 2064 H 203.103 0.142918 -1.94375 0
M  V30 2065 H 202.199 1.4229 -2.77777 0
M  V30 2066 N 202.5 1.5196 0.417844 0
M  V30 2067 C 203.911 1.57851 0.997 0
M  V30 2068 C 204.262 0.413714 1.91789 0
M  V30 2069 O 203.387 -0.467057 2.113 0
M  V30 2070 C 203.982 2.86085 1.81496 0
M  V30 2071 C 202.541 2.94483 2.34428 0
M  V30 2072 C 201.688 2.52707 1.14169 0
M  V30 2073 H 204.639 1.57455 0.198392 0
M  V30 2074 H 204.66 2.70947 2.67148 0
M  V30 2075 H 204.172 3.70842 1.14446 0
M  V30 2076 H 202.273 2.142 3.04875 0
M  V30 2077 H 202.386 3.98546 2.65891 0
M  V30 2078 H 200.75 2.06353 1.49301 0
M  V30 2079 H 201.533 3.39828 0.486999 0
M  V30 2080 N 203.978 -0.674533 1.42435 0
M  V30 2081 C 204.888 -1.81751 1.48337 0
M  V30 2082 C 205.904 -1.69975 0.372099 0
M  V30 2083 O 207.08 -1.91521 0.62304 0
M  V30 2084 C 204.145 -3.17895 1.38361 0
M  V30 2085 C 203.206 -3.41625 2.59982 0
M  V30 2086 C 202.439 -4.71274 2.50473 0
M  V30 2087 O 202.662 -5.49197 1.54075 0
M  V30 2088 O 201.596 -4.96254 3.4061 0
M  V30 2089 H 205.422 -1.79728 2.44809 0
M  V30 2090 H 203.007 -0.830312 1.24202 0
M  V30 2091 H 204.889 -3.99136 1.35161 0
M  V30 2092 H 203.564 -3.20555 0.450144 0
M  V30 2093 H 202.471 -2.60231 2.68757 0
M  V30 2094 H 203.804 -3.43796 3.52229 0
M  V30 2095 N 205.456 -1.28612 -0.910864 0
M  V30 2096 C 206.681 -1.1891 -1.69927 0
M  V30 2097 C 207.106 0.248372 -1.86453 0
M  V30 2098 O 206.464 1.17961 -1.37676 0
M  V30 2099 C 206.512 -1.89578 -3.06745 0
M  V30 2100 O 205.616 -1.20521 -3.94396 0
M  V30 2101 H 204.957 -0.412632 -0.520222 0
M  V30 2102 H 207.487 -1.69985 -1.1387 0
M  V30 2103 H 207.497 -1.97597 -3.56958 0
M  V30 2104 H 206.172 -2.94136 -2.94035 0
M  V30 2105 H 204.749 -1.20684 -3.52831 0
M  V30 2106 N 206.934 1.1197 -1.10907 0
M  V30 2107 C 208.159 1.87942 -0.877064 0
M  V30 2108 C 208.584 1.79341 0.567314 0
M  V30 2109 O 207.942 1.15184 1.40009 0
M  V30 2110 C 207.99 3.34926 -1.33629 0
M  V30 2111 O 207.094 4.09303 -0.504447 0
M  V30 2112 H 206.435 0.583785 -0.316371 0
M  V30 2113 H 208.965 1.4157 -1.47712 0
M  V30 2114 H 208.975 3.8577 -1.32837 0
M  V30 2115 H 207.65 3.40504 -2.3881 0
M  V30 2116 H 206.227 3.68393 -0.577993 0
M  V30 2117 N 208.412 0.89855 1.29475 0
M  V30 2118 C 209.66 0.522847 1.9522 0
M  V30 2119 C 209.981 -0.93371 1.71192 0
M  V30 2120 O 209.251 -1.65823 1.04305 0
M  V30 2121 H 207.831 0.190366 0.722336 0
M  V30 2122 H 210.493 1.14459 1.5775 0
M  V30 2123 H 209.589 0.704476 3.04045 0
M  V30 2124 N 209.89 -1.43072 0.660911 0
M  V30 2125 C 211.115 -2.06584 0.183805 0
M  V30 2126 C 211.54 -1.49257 -1.14472 0
M  V30 2127 O 210.898 -0.605528 -1.70889 0
M  V30 2128 C 210.946 -3.60418 0.114434 0
M  V30 2129 O 210.05 -4.01981 -0.921137 0
M  V30 2130 H 209.391 -0.656669 0.0983994 0
M  V30 2131 H 211.921 -1.83447 0.906006 0
M  V30 2132 H 211.931 -4.07946 -0.0663394 0
M  V30 2133 H 210.606 -4.01519 1.08422 0
M  V30 2134 H 209.183 -3.66029 -0.71253 0
M  V30 2135 N 211.368 -0.403325 -1.52352 0
M  V30 2136 C 212.784 -0.0539281 -1.59509 0
M  V30 2137 C 212.984 1.43307 -1.41652 0
M  V30 2138 O 212.04 2.19924 -1.24056 0
M  V30 2139 C 213.353 -0.543654 -2.95745 0
M  V30 2140 C 214.901 -0.501125 -3.08962 0
M  V30 2141 C 215.376 -0.967267 -4.47669 0
M  V30 2142 N 216.867 -0.923849 -4.53893 0
M  V30 2143 C 217.602 -1.25578 -5.5948 0
M  V30 2144 N 217.098 -1.65889 -6.72646 0
M  V30 2145 N 218.891 -1.17613 -5.49658 0
M  V30 2146 H 211.042 -1.37123 -1.62206 0
M  V30 2147 H 213.305 -0.56294 -0.76276 0
M  V30 2148 H 213.011 -1.58275 -3.14073 0
M  V30 2149 H 212.885 0.0498042 -3.77167 0
M  V30 2150 H 215.272 0.528909 -2.90321 0
M  V30 2151 H 215.353 -1.13056 -2.2946 0
M  V30 2152 H 214.997 -1.9956 -4.67053 0
M  V30 2153 H 214.927 -0.314698 -5.25659 0
M  V30 2154 H 217.418 -0.627403 -3.72655 0
M  V30 2155 H 217.731 -1.89543 -7.49195 0
M  V30 2156 H 216.076 -1.69787 -6.73942 0
M  V30 2157 H 219.267 -0.860115 -4.6013 0
M  V30 2158 H 219.44 -1.43812 -6.3184 0
M  V30 2159 N 212.846 1.57033 -0.133567 0
M  V30 2160 C 214.093 1.95686 0.520877 0
M  V30 2161 C 214.421 1.0177 1.6575 0
M  V30 2162 O 213.676 0.0443195 1.9565 0
M  V30 2163 C 213.975 3.40674 1.08057 0
M  V30 2164 C 213.641 4.50855 0.0637899 0
M  V30 2165 C 212.303 4.80716 -0.215757 0
M  V30 2166 C 214.655 5.17398 -0.62835 0
M  V30 2167 C 211.983 5.74433 -1.19348 0
M  V30 2168 C 214.335 6.12167 -1.5948 0
M  V30 2169 C 212.999 6.40414 -1.88218 0
M  V30 2170 H 212.269 0.716067 0.190602 0
M  V30 2171 H 214.916 1.9026 -0.217556 0
M  V30 2172 H 213.221 3.42865 1.89606 0
M  V30 2173 H 214.918 3.67902 1.59529 0
M  V30 2174 H 211.508 4.27605 0.291855 0
M  V30 2175 H 215.692 4.94472 -0.425562 0
M  V30 2176 H 210.948 5.94616 -1.42272 0
M  V30 2177 H 215.122 6.6281 -2.13671 0
M  V30 2178 H 212.749 7.12838 -2.64133 0
M  V30 2179 N 214.325 -0.140222 1.56975 0
M  V30 2180 C 215.565 -0.857823 1.85528 0
M  V30 2181 C 215.929 -1.78039 0.718768 0
M  V30 2182 O 217.13 -2.53795 0.885521 0
M  V30 2183 C 215.401 -1.60615 3.19277 0
M  V30 2184 S 216.96 -2.36824 3.69405 0
M  V30 2185 H 213.778 -0.286727 0.650622 0
M  V30 2186 H 216.38 -0.117408 1.95147 0
M  V30 2187 H 215.084 -0.919994 3.99955 0
M  V30 2188 H 214.615 -2.38735 3.12681 0
M  V30 2189 H 216.63 -3.62148 3.3921 0
M  V30 2190 N 215.803 -1.52179 -0.40978 0
M  V30 2191 C 217.033 -1.69807 -1.17682 0
M  V30 2192 C 217.441 -0.406908 -1.84773 0
M  V30 2193 O 216.784 0.626863 -1.72673 0
M  V30 2194 C 216.846 -2.77712 -2.2829 0
M  V30 2195 C 216.51 -4.19481 -1.81341 0
M  V30 2196 C 217.507 -5.03345 -1.30154 0
M  V30 2197 C 215.192 -4.65713 -1.88194 0
M  V30 2198 C 217.186 -6.31511 -0.864416 0
M  V30 2199 C 214.873 -5.93869 -1.44093 0
M  V30 2200 C 215.871 -6.76597 -0.933023 0
M  V30 2201 O 215.559 -8.02354 -0.49838 0
M  V30 2202 H 215.291 -0.572372 -0.359675 0
M  V30 2203 H 217.845 -1.99511 -0.488311 0
M  V30 2204 H 216.075 -2.43383 -3.00502 0
M  V30 2205 H 217.764 -2.83946 -2.90051 0
M  V30 2206 H 218.53 -4.68819 -1.24232 0
M  V30 2207 H 214.409 -4.01424 -2.26671 0
M  V30 2208 H 217.953 -6.96033 -0.467286 0
M  V30 2209 H 213.85 -6.27903 -1.49694 0
M  V30 2210 H 214.618 -8.16135 -0.621747 0
M  V30 2211 N 217.281 0.66697 -1.42791 0
M  V30 2212 C 218.211 1.79218 -1.49677 0
M  V30 2213 C 219.192 1.66405 -0.352623 0
M  V30 2214 O 220.377 1.85708 -0.567993 0
M  V30 2215 C 217.507 3.17565 -1.40605 0
M  V30 2216 C 216.461 3.45124 -2.53127 0
M  V30 2217 C 215.787 4.83127 -2.29112 0
M  V30 2218 C 217.087 3.41236 -3.95418 0
M  V30 2219 H 218.781 1.73713 -2.43853 0
M  V30 2220 H 216.327 0.83432 -1.17367 0
M  V30 2221 H 218.28 3.96022 -1.44029 0
M  V30 2222 H 217.004 3.23767 -0.429271 0
M  V30 2223 H 215.663 2.69031 -2.49034 0
M  V30 2224 H 215.311 4.85988 -1.29709 0
M  V30 2225 H 215.011 5.02528 -3.04531 0
M  V30 2226 H 216.535 5.63859 -2.34297 0
M  V30 2227 H 217.949 4.09651 -4.01073 0
M  V30 2228 H 216.346 3.72173 -4.70752 0
M  V30 2229 H 217.416 2.39665 -4.21532 0
M  V30 2230 N 218.759 1.29093 0.90403 0
M  V30 2231 C 219.987 1.19689 1.68766 0
M  V30 2232 C 220.402 -0.243113 1.87228 0
M  V30 2233 O 219.759 -1.16326 1.40621 0
M  V30 2234 C 219.81 1.90144 3.07453 0
M  V30 2235 O 219.531 3.2852 2.89838 0
M  V30 2236 C 221.032 1.87162 4.01852 0
M  V30 2237 H 218.252 0.415035 0.527244 0
M  V30 2238 H 220.796 1.7039 1.13082 0
M  V30 2239 H 218.951 1.43289 3.59926 0
M  V30 2240 H 219.365 3.63944 3.77684 0
M  V30 2241 H 220.839 2.41032 4.96596 0
M  V30 2242 H 221.316 0.84617 4.30972 0
M  V30 2243 H 221.922 2.33741 3.5531 0
M  V30 2244 N 220.237 -1.11381 1.11499 0
M  V30 2245 C 221.514 -1.7955 0.775965 0
M  V30 2246 C 221.894 -1.97859 -0.73588 0
M  V30 2247 O 221.242 -1.56376 -1.66609 0
M  V30 2248 C 221.452 -3.13196 1.53977 0
M  V30 2249 C 222.8 -3.88227 1.71944 0
M  V30 2250 O 223.824 -3.22887 1.50407 0
M  V30 2251 O 222.683 -5.05477 2.07738 0
M  V30 2252 H 219.777 -0.777728 0.28119 0
M  V30 2253 H 222.323 -1.18118 1.21845 0
M  V30 2254 H 221.095 -2.95229 2.56818 0
M  V30 2255 H 220.718 -3.82342 1.09088 0
M  V30 2256 N 221.715 -0.905404 -1.28997 0
M  V30 2257 C 222.94 -0.549175 -1.99997 0
M  V30 2258 C 223.365 0.860276 -1.67275 0
M  V30 2259 O 222.723 1.57355 -0.900502 0
M  V30 2260 C 222.771 -0.755185 -3.52604 0
M  V30 2261 O 221.875 0.189692 -4.11964 0
M  V30 2262 H 221.216 -0.213899 -0.628604 0
M  V30 2263 H 223.746 -1.21856 -1.64354 0
M  V30 2264 H 223.756 -0.662045 -4.02593 0
M  V30 2265 H 222.431 -1.78271 -3.75755 0
M  V30 2266 H 221.008 0.0485257 -3.72868 0
M  V30 2267 N 223.193 1.4272 -0.668489 0
M  V30 2268 C 224.143 2.27971 0.0363806 0
M  V30 2269 C 225.127 1.40741 0.779794 0
M  V30 2270 O 226.319 1.64245 0.659745 0
M  V30 2271 C 223.448 3.28673 0.991398 0
M  V30 2272 C 222.534 4.23388 0.245658 0
M  V30 2273 N 222.925 5.00267 -0.746069 0
M  V30 2274 C 221.223 4.43355 0.484988 0
M  V30 2275 C 221.924 5.69396 -1.19009 0
M  V30 2276 N 220.9 5.41095 -0.521287 0
M  V30 2277 H 224.702 2.84833 -0.724394 0
M  V30 2278 H 222.216 1.54607 -0.497028 0
M  V30 2279 H 224.213 3.88543 1.51129 0
M  V30 2280 H 222.873 2.73373 1.75207 0
M  V30 2281 H 223.884 5.05525 -1.12537 0
M  V30 2282 H 220.561 3.99104 1.22565 0
M  V30 2283 H 221.951 6.41083 -2.01153 0
M  V30 2284 N 224.671 0.411399 1.52136 0
M  V30 2285 C 225.899 -0.163076 2.06256 0
M  V30 2286 C 226.314 -1.3867 1.28125 0
M  V30 2287 O 225.671 -1.79423 0.333721 0
M  V30 2288 C 225.722 -0.511252 3.57867 0
M  V30 2289 O 225.443 0.66378 4.33042 0
M  V30 2290 C 226.944 -1.13921 4.28412 0
M  V30 2291 H 224.164 -0.0193897 0.67072 0
M  V30 2292 H 226.708 0.583007 1.96013 0
M  V30 2293 H 224.863 -1.20723 3.6811 0
M  V30 2294 H 225.277 0.372601 5.23175 0
M  V30 2295 H 226.751 -1.33302 5.35663 0
M  V30 2296 H 227.228 -2.11296 3.85033 0
M  V30 2297 H 227.834 -0.483373 4.22544 0
M  V30 2298 N 226.149 -1.5696 0.141893 0
M  V30 2299 C 227.374 -2.00754 -0.520838 0
M  V30 2300 C 227.799 -1.0213 -1.57959 0
M  V30 2301 O 227.157 0.00371324 -1.813 0
M  V30 2302 C 227.205 -3.43318 -1.10294 0
M  V30 2303 O 226.309 -3.47679 -2.21795 0
M  V30 2304 H 225.65 -0.651564 -0.127908 0
M  V30 2305 H 228.18 -2.03221 0.23712 0
M  V30 2306 H 228.19 -3.82012 -1.43287 0
M  V30 2307 H 226.865 -4.14608 -0.327574 0
M  V30 2308 H 225.442 -3.20824 -1.9007 0
M  V30 2309 N 227.627 0.131896 -1.57047 0
M  V30 2310 C 228.873 0.843179 -1.84441 0
M  V30 2311 C 229.206 1.80129 -0.725749 0
M  V30 2312 O 228.481 1.92624 0.269469 0
M  V30 2313 C 228.764 1.60442 -3.22382 0
M  V30 2314 C 228.617 0.666782 -4.4483 0
M  V30 2315 C 229.936 2.56354 -3.5773 0
M  V30 2316 H 227.055 0.305081 -0.670891 0
M  V30 2317 H 229.697 0.107839 -1.89694 0
M  V30 2318 H 227.847 2.23128 -3.18035 0
M  V30 2319 H 229.519 0.0497646 -4.61273 0
M  V30 2320 H 227.762 -0.022609 -4.33794 0
M  V30 2321 H 228.433 1.23579 -5.37989 0
M  V30 2322 H 230.909 2.0378 -3.62785 0
M  V30 2323 H 229.785 3.06657 -4.5525 0
M  V30 2324 H 230.046 3.38419 -2.84473 0
M  V30 2325 N 229.106 1.52395 0.401703 0
M  V30 2326 C 230.352 1.67065 1.14966 0
M  V30 2327 C 230.685 0.403052 1.89971 0
M  V30 2328 O 229.96 -0.598774 1.85054 0
M  V30 2329 C 230.243 2.8975 2.13815 0
M  V30 2330 C 230.096 4.26578 1.42658 0
M  V30 2331 C 231.415 3.07965 3.14397 0
M  V30 2332 H 228.534 0.607968 0.416587 0
M  V30 2333 H 231.176 1.84965 0.434511 0
M  V30 2334 H 229.326 2.74619 2.74803 0
M  V30 2335 H 230.998 4.53451 0.847329 0
M  V30 2336 H 229.241 4.27639 0.72849 0
M  V30 2337 H 229.912 5.08483 2.14823 0
M  V30 2338 H 232.388 3.22043 2.63491 0
M  V30 2339 H 231.264 3.95308 3.80819 0
M  V30 2340 H 231.525 2.21611 3.82545 0
M  V30 2341 N 230.584 -0.659388 1.43143 0
M  V30 2342 C 231.832 -1.41654 1.44147 0
M  V30 2343 C 232.153 -1.94893 0.0645739 0
M  V30 2344 O 231.423 -1.74044 -0.899198 0
M  V30 2345 H 230.003 -0.525708 0.530697 0
M  V30 2346 H 232.665 -0.778097 1.78694 0
M  V30 2347 H 231.761 -2.26195 2.1504 0
M  V30 2348 N 232.062 -1.29571 -0.897171 0
M  V30 2349 C 232.995 -1.0924 -2.00354 0
M  V30 2350 C 233.973 -0.00354011 -1.626 0
M  V30 2351 O 235.157 -0.15473 -1.87864 0
M  V30 2352 C 232.284 -0.66352 -3.32137 0
M  V30 2353 C 231.33 -1.75146 -3.88878 0
M  V30 2354 S 232.163 -3.35124 -4.17674 0
M  V30 2355 C 233.319 -2.9411 -5.52494 0
M  V30 2356 H 233.552 -2.02907 -2.17292 0
M  V30 2357 H 231.085 -1.13746 -1.04408 0
M  V30 2358 H 233.043 -0.422791 -4.08317 0
M  V30 2359 H 231.704 0.253588 -3.13075 0
M  V30 2360 H 230.897 -1.40337 -4.84068 0
M  V30 2361 H 230.499 -1.94584 -3.19395 0
M  V30 2362 H 232.791 -2.41312 -6.33068 0
M  V30 2363 H 233.734 -3.88161 -5.9223 0
M  V30 2364 H 234.142 -2.32332 -5.14473 0
M  V30 2365 N 233.54 1.10788 -1.12088 0
M  V30 2366 C 234.956 1.34691 -0.856186 0
M  V30 2367 C 235.156 1.94791 0.515615 0
M  V30 2368 O 234.212 2.18524 1.26505 0
M  V30 2369 C 235.525 2.27208 -1.9697 0
M  V30 2370 C 237.073 2.40755 -2.00016 0
M  V30 2371 C 237.548 3.36598 -3.1059 0
M  V30 2372 N 239.039 3.44164 -3.10008 0
M  V30 2373 C 239.774 4.18284 -3.92206 0
M  V30 2374 N 239.27 4.95322 -4.84384 0
M  V30 2375 N 241.063 4.13865 -3.80357 0
M  V30 2376 H 233.214 0.70144 -2.00483 0
M  V30 2377 H 235.477 0.371405 -0.872217 0
M  V30 2378 H 235.183 1.90251 -2.958 0
M  V30 2379 H 235.057 3.27485 -1.87172 0
M  V30 2380 H 237.444 2.76982 -1.01808 0
M  V30 2381 H 237.525 1.40305 -2.13888 0
M  V30 2382 H 237.169 3.01096 -4.09028 0
M  V30 2383 H 237.099 4.36918 -2.93956 0
M  V30 2384 H 239.59 2.8922 -2.43228 0
M  V30 2385 H 239.903 5.49267 -5.43623 0
M  V30 2386 H 238.248 4.94459 -4.884 0
M  V30 2387 H 241.439 3.52773 -3.07683 0
M  V30 2388 H 241.612 4.71372 -4.44649 0
M  V30 2389 N 235.018 0.912232 1.28515 0
M  V30 2390 C 235.966 0.389597 2.29314 0
M  V30 2391 C 236.96 -0.517915 1.61289 0
M  V30 2392 O 238.166 -0.399328 1.75515 0
M  V30 2393 H 234.541 0.107386 0.744293 0
M  V30 2394 H 236.512 1.25286 2.70825 0
M  V30 2395 C 235.261 -0.356496 3.45868 0
M  V30 2396 H 234.584 0.332608 3.98414 0
M  V30 2397 H 236.024 -0.686851 4.184 0
M  V30 2398 C 234.483 -1.56383 2.98406 0
M  V30 2399 O 235.013 -2.66294 3.00749 0
M  V30 2400 N 233.219 -1.41029 2.54085 0
M  V30 2401 H 232.766 -0.516089 2.52377 0
M  V30 2402 H 232.724 -2.21939 2.22689 0
M  V30 2403 N 236.496 -1.42363 0.676048 0
M  V30 2404 C 237.742 -2.0182 0.199125 0
M  V30 2405 C 238.075 -1.53339 -1.19168 0
M  V30 2406 O 237.35 -0.736124 -1.80032 0
M  V30 2407 C 237.633 -3.59331 0.235144 0
M  V30 2408 C 237.486 -4.17989 1.66149 0
M  V30 2409 C 238.805 -4.3813 -0.41595 0
M  V30 2410 H 235.924 -0.733293 0.0738311 0
M  V30 2411 H 238.566 -1.69368 0.86107 0
M  V30 2412 H 236.716 -3.87109 -0.328487 0
M  V30 2413 H 238.388 -4.0116 2.27747 0
M  V30 2414 H 236.631 -3.7377 2.20178 0
M  V30 2415 H 237.302 -5.27126 1.63837 0
M  V30 2416 H 239.778 -4.16051 0.0638529 0
M  V30 2417 H 238.654 -5.47717 -0.360115 0
M  V30 2418 H 238.915 -4.16101 -1.49373 0
M  V30 2419 N 237.974 -0.419461 -1.51915 0
M  V30 2420 C 239.202 0.152136 -2.0634 0
M  V30 2421 C 239.617 1.37988 -1.28859 0
M  V30 2422 O 238.974 1.79243 -0.343232 0
M  V30 2423 C 239.025 0.492266 -3.58133 0
M  V30 2424 O 238.746 -0.686736 -4.32684 0
M  V30 2425 C 240.247 1.11648 -4.2901 0
M  V30 2426 H 237.467 0.0158325 -0.670813 0
M  V30 2427 H 240.011 -0.593394 -1.95702 0
M  V30 2428 H 238.166 1.18769 -3.68745 0
M  V30 2429 H 238.58 -0.400341 -5.2297 0
M  V30 2430 H 240.054 1.3046 -5.36362 0
M  V30 2431 H 240.531 2.09251 -3.86148 0
M  V30 2432 H 241.137 0.460958 -4.22795 0
M  V30 2433 N 239.452 1.56882 -0.150215 0
M  V30 2434 C 240.385 2.12712 0.826358 0
M  V30 2435 C 241.363 1.05154 1.24022 0
M  V30 2436 O 242.547 1.33004 1.33575 0
M  V30 2437 C 239.674 2.64945 2.11002 0
M  V30 2438 C 238.72 3.8468 1.84183 0
M  V30 2439 S 239.553 5.25502 1.02995 0
M  V30 2440 C 240.709 5.81125 2.32474 0
M  V30 2441 H 240.942 2.95214 0.351598 0
M  V30 2442 H 238.475 1.54267 0.0641211 0
M  V30 2443 H 240.433 2.95689 2.84742 0
M  V30 2444 H 239.094 1.82568 2.55593 0
M  V30 2445 H 238.287 4.19482 2.79375 0
M  V30 2446 H 237.889 3.54714 1.1855 0
M  V30 2447 H 240.181 5.92753 3.281 0
M  V30 2448 H 241.124 6.78625 2.02171 0
M  V30 2449 H 241.532 5.09392 2.43269 0
M  V30 2450 N 240.93 -0.123565 1.57115 0
M  V30 2451 C 241.893 -1.13583 1.99076 0
M  V30 2452 C 242.893 -1.34564 0.880296 0
M  V30 2453 O 244.083 -1.31158 1.14644 0
M  V30 2454 C 241.215 -2.49128 2.32698 0
M  V30 2455 H 242.408 -0.775287 2.89706 0
M  V30 2456 H 239.961 -0.36771 1.51913 0
M  V30 2457 H 240.696 -2.90111 1.44934 0
M  V30 2458 H 240.481 -2.35255 3.13684 0
M  V30 2459 H 241.971 -3.2199 2.65918 0
M  V30 2460 N 242.408 -1.52605 -0.393616 0
M  V30 2461 C 243.657 -1.66649 -1.13627 0
M  V30 2462 C 243.97 -0.410364 -1.91247 0
M  V30 2463 O 245.176 -0.430854 -2.68059 0
M  V30 2464 C 243.632 -2.9449 -2.06891 0
M  V30 2465 C 243.24 -4.27266 -1.34714 0
M  V30 2466 C 244.984 -3.17899 -2.81319 0
M  V30 2467 C 242.891 -5.46217 -2.26717 0
M  V30 2468 H 241.821 -0.62084 -0.427871 0
M  V30 2469 H 244.472 -1.791 -0.399428 0
M  V30 2470 H 242.854 -2.75774 -2.84191 0
M  V30 2471 H 244.028 -4.56518 -0.626714 0
M  V30 2472 H 242.343 -4.10081 -0.722643 0
M  V30 2473 H 244.94 -4.03949 -3.50328 0
M  V30 2474 H 245.283 -2.32777 -3.45139 0
M  V30 2475 H 245.816 -3.37159 -2.11113 0
M  V30 2476 H 242.555 -6.33733 -1.67521 0
M  V30 2477 H 242.075 -5.21283 -2.96689 0
M  V30 2478 H 243.754 -5.7991 -2.86903 0
M  V30 2479 N 243.887 0.651787 -1.4349 0
M  V30 2480 C 244.835 1.78586 -1.49029 0
M  V30 2481 C 245.829 1.65448 -0.363767 0
M  V30 2482 O 247.035 1.71777 -0.537821 0
M  V30 2483 H 243.41 0.589236 -0.467231 0
M  V30 2484 H 245.381 1.71035 -2.44519 0
M  V30 2485 C 244.13 3.16851 -1.43181 0
M  V30 2486 H 243.453 3.27598 -2.29171 0
M  V30 2487 H 244.893 3.96156 -1.51118 0
M  V30 2488 C 243.352 3.36568 -0.149616 0
M  V30 2489 O 243.882 3.93885 0.788509 0
M  V30 2490 N 242.088 2.90539 -0.0593484 0
M  V30 2491 H 241.635 2.4408 -0.823575 0
M  V30 2492 H 241.593 3.04108 0.797853 0
M  V30 2493 N 245.365 1.30045 0.890287 0
M  V30 2494 C 246.611 1.18737 1.64406 0
M  V30 2495 C 246.944 -0.258525 1.92472 0
M  V30 2496 O 246.219 -1.18562 1.54186 0
M  V30 2497 C 246.502 2.01087 2.98724 0
M  V30 2498 C 246.355 3.53867 2.77665 0
M  V30 2499 C 247.674 1.84457 3.9958 0
M  V30 2500 H 244.793 0.432698 0.596608 0
M  V30 2501 H 247.435 1.5962 1.0306 0
M  V30 2502 H 245.585 1.66349 3.51084 0
M  V30 2503 H 247.257 3.98637 2.32133 0
M  V30 2504 H 245.5 3.78318 2.12269 0
M  V30 2505 H 246.171 4.06772 3.7315 0
M  V30 2506 H 248.647 2.14817 3.56361 0
M  V30 2507 H 247.523 2.44411 4.91482 0
M  V30 2508 H 247.784 0.802276 4.3476 0
M  V30 2509 N 246.843 -1.10192 1.12674 0
M  V30 2510 C 248.092 -1.81573 0.8783 0
M  V30 2511 C 248.405 -1.86249 -0.597557 0
M  V30 2512 O 249.611 -2.5386 -0.962681 0
M  V30 2513 C 248.067 -3.26149 1.52167 0
M  V30 2514 C 247.675 -3.29763 3.03249 0
M  V30 2515 C 249.419 -4.0234 1.3536 0
M  V30 2516 C 247.326 -4.68815 3.60508 0
M  V30 2517 H 246.256 -0.680394 0.324931 0
M  V30 2518 H 248.907 -1.23902 1.35353 0
M  V30 2519 H 247.289 -3.83832 0.974104 0
M  V30 2520 H 248.463 -2.8189 3.6452 0
M  V30 2521 H 246.778 -2.67059 3.19481 0
M  V30 2522 H 249.375 -5.05058 1.75559 0
M  V30 2523 H 249.718 -4.15235 0.297554 0
M  V30 2524 H 250.251 -3.51079 1.87052 0
M  V30 2525 H 246.99 -4.61121 4.65884 0
M  V30 2526 H 246.51 -5.17045 3.04014 0
M  V30 2527 H 248.189 -5.37785 3.59717 0
M  V30 2528 N 248.321 -0.919034 -1.28029 0
M  V30 2529 C 249.546 -0.570357 -1.99403 0
M  V30 2530 C 249.971 0.842486 -1.68178 0
M  V30 2531 O 249.329 1.56391 -0.917141 0
M  V30 2532 C 249.377 -0.792541 -3.51783 0
M  V30 2533 O 248.481 0.145988 -4.12142 0
M  V30 2534 H 247.822 -0.220555 -0.6263 0
M  V30 2535 H 250.352 -1.23592 -1.63053 0
M  V30 2536 H 250.362 -0.704708 -4.01868 0
M  V30 2537 H 249.037 -1.82247 -3.73844 0
M  V30 2538 H 247.614 0.00897528 -3.72899 0
M  V30 2539 N 249.799 1.42003 -0.683588 0
M  V30 2540 C 251.027 2.05746 -0.218182 0
M  V30 2541 C 251.442 1.51396 1.12804 0
M  V30 2542 O 250.799 0.657303 1.70252 0
M  V30 2543 C 250.85 3.61171 -0.154131 0
M  V30 2544 O 250.571 4.13508 -1.44716 0
M  V30 2545 C 252.072 4.42042 0.333713 0
M  V30 2546 H 249.292 0.662888 -0.10402 0
M  V30 2547 H 251.836 1.81987 -0.9328 0
M  V30 2548 H 249.991 3.84012 0.511231 0
M  V30 2549 H 250.405 5.07453 -1.32632 0
M  V30 2550 H 251.879 5.51028 0.327423 0
M  V30 2551 H 252.356 4.17269 1.37053 0
M  V30 2552 H 252.962 4.24239 -0.300222 0
M  V30 2553 N 251.277 0.427512 1.51691 0
M  V30 2554 C 252.688 -0.0378867 1.86662 0
M  V30 2555 C 253.039 -1.42819 1.34525 0
M  V30 2556 O 252.164 -2.05037 0.692014 0
M  V30 2557 C 252.759 -0.0755266 3.38716 0
M  V30 2558 C 251.318 -0.485309 3.73258 0
M  V30 2559 C 250.465 0.328399 2.75349 0
M  V30 2560 H 253.416 0.64379 1.45055 0
M  V30 2561 H 253.437 -0.887056 3.70016 0
M  V30 2562 H 252.949 0.936487 3.76632 0
M  V30 2563 H 251.05 -1.50329 3.40928 0
M  V30 2564 H 251.163 -0.21693 4.78609 0
M  V30 2565 H 249.527 -0.211905 2.53817 0
M  V30 2566 H 250.31 1.3391 3.16106 0
M  V30 2567 N 252.755 -1.56801 0.158532 0
M  V30 2568 C 254.001 -1.96781 -0.490405 0
M  V30 2569 C 254.334 -1.04397 -1.63753 0
M  V30 2570 O 253.609 -0.0885805 -1.94298 0
M  V30 2571 C 253.892 -3.4635 -0.985594 0
M  V30 2572 C 253.745 -4.49512 0.160824 0
M  V30 2573 C 255.064 -3.98697 -1.86355 0
M  V30 2574 H 252.183 -0.715482 -0.176788 0
M  V30 2575 H 254.825 -1.88451 0.242088 0
M  V30 2576 H 252.975 -3.53579 -1.60978 0
M  V30 2577 H 254.647 -4.54353 0.797537 0
M  V30 2578 H 252.89 -4.26013 0.818256 0
M  V30 2579 H 253.561 -5.51531 -0.227569 0
M  V30 2580 H 256.037 -3.94019 -1.33746 0
M  V30 2581 H 254.913 -5.03792 -2.17909 0
M  V30 2582 H 255.174 -3.41744 -2.8047 0
M  V30 2583 N 254.233 0.115231 -1.57178 0
M  V30 2584 C 255.649 0.468877 -1.52557 0
M  V30 2585 C 255.849 1.81649 -0.872125 0
M  V30 2586 O 254.905 2.48347 -0.45606 0
M  V30 2587 C 256.218 0.4499 -2.97315 0
M  V30 2588 C 257.766 0.533185 -3.08425 0
M  V30 2589 C 258.241 0.54456 -4.54751 0
M  V30 2590 N 259.732 0.605892 -4.5922 0
M  V30 2591 C 260.467 0.636203 -5.6986 0
M  V30 2592 N 259.963 0.623931 -6.89985 0
M  V30 2593 N 261.756 0.679496 -5.57978 0
M  V30 2594 H 253.907 -0.767712 -1.9804 0
M  V30 2595 H 256.17 -0.283609 -0.904583 0
M  V30 2596 H 255.876 -0.472721 -3.48509 0
M  V30 2597 H 255.75 1.27632 -3.5495 0
M  V30 2598 H 258.137 1.44623 -2.57232 0
M  V30 2599 H 258.218 -0.320995 -2.53778 0
M  V30 2600 H 257.862 -0.364452 -5.06591 0
M  V30 2601 H 257.792 1.41568 -5.07214 0
M  V30 2602 H 260.283 0.621386 -3.72756 0
M  V30 2603 H 260.596 0.649787 -7.70063 0
M  V30 2604 H 258.941 0.591296 -6.9248 0
M  V30 2605 H 262.132 0.686472 -4.63039 0
M  V30 2606 H 262.305 0.69965 -6.44212 0
M  V30 2607 N 255.711 1.52812 0.385517 0
M  V30 2608 C 257.122 1.5993 0.963293 0
M  V30 2609 C 257.473 0.454302 1.90868 0
M  V30 2610 O 256.598 -0.422132 2.12243 0
M  V30 2611 C 257.193 2.89871 1.75387 0
M  V30 2612 C 255.752 2.99389 2.28129 0
M  V30 2613 C 254.899 2.55071 1.08783 0
M  V30 2614 H 257.85 1.5784 0.164948 0
M  V30 2615 H 257.871 2.76553 2.61341 0
M  V30 2616 H 257.383 3.73186 1.06554 0
M  V30 2617 H 255.484 2.20619 3.00263 0
M  V30 2618 H 255.597 4.04096 2.57377 0
M  V30 2619 H 253.961 2.09473 1.4489 0
M  V30 2620 H 254.744 3.40785 0.414807 0
M  V30 2621 N 257.189 -0.644168 1.43834 0
M  V30 2622 C 258.099 -1.78563 1.52159 0
M  V30 2623 C 259.115 -1.69147 0.408069 0
M  V30 2624 O 260.291 -1.90156 0.663524 0
M  V30 2625 C 257.356 -3.14888 1.45073 0
M  V30 2626 C 256.417 -3.36034 2.6717 0
M  V30 2627 C 255.65 -4.65855 2.60413 0
M  V30 2628 O 255.873 -5.45805 1.65689 0
M  V30 2629 O 254.807 -4.88918 3.5106 0
M  V30 2630 H 258.633 -1.74494 2.48567 0
M  V30 2631 H 256.218 -0.80378 1.25935 0
M  V30 2632 H 258.1 -3.96179 1.43597 0
M  V30 2633 H 256.775 -3.19528 0.518037 0
M  V30 2634 H 255.682 -2.54472 2.74217 0
M  V30 2635 H 257.015 -3.36247 3.59442 0
M  V30 2636 N 258.668 -1.30515 -0.883378 0
M  V30 2637 C 259.945 -1.10086 -1.6168 0
M  V30 2638 C 260.325 0.349269 -2.08191 0
M  V30 2639 O 259.673 1.34105 -1.85008 0
M  V30 2640 C 259.883 -2.10315 -2.78511 0
M  V30 2641 C 261.231 -2.42119 -3.48803 0
M  V30 2642 O 262.255 -2.08638 -2.88702 0
M  V30 2643 O 261.114 -2.99396 -4.57192 0
M  V30 2644 H 258.208 -0.422907 -0.710689 0
M  V30 2645 H 260.754 -1.41947 -0.930015 0
M  V30 2646 H 259.526 -3.07917 -2.41459 0
M  V30 2647 H 259.149 -1.79282 -3.54886 0
M  V30 2648 N 260.146 1.09593 -1.13257 0
M  V30 2649 C 261.076 2.18214 -0.830946 0
M  V30 2650 C 262.057 1.68812 0.208966 0
M  V30 2651 O 263.242 1.9408 0.0682666 0
M  V30 2652 C 260.372 3.46051 -0.294296 0
M  V30 2653 C 259.326 4.08778 -1.26826 0
M  V30 2654 C 258.652 5.31419 -0.591449 0
M  V30 2655 C 259.952 4.51476 -2.62615 0
M  V30 2656 H 261.646 2.43703 -1.73923 0
M  V30 2657 H 259.192 1.17128 -0.837675 0
M  V30 2658 H 261.145 4.2134 -0.0709606 0
M  V30 2659 H 259.869 3.20079 0.649366 0
M  V30 2660 H 258.528 3.35505 -1.47756 0
M  V30 2661 H 258.176 5.01727 0.357633 0
M  V30 2662 H 257.876 5.74341 -1.24123 0
M  V30 2663 H 259.4 6.09433 -0.377355 0
M  V30 2664 H 260.814 5.17999 -2.45663 0
M  V30 2665 H 259.211 5.05277 -3.23752 0
M  V30 2666 H 260.281 3.63962 -3.20406 0
M  V30 2667 N 261.624 0.925811 1.2754 0
M  V30 2668 C 262.87 0.575575 1.95086 0
M  V30 2669 C 263.225 -0.873246 1.71441 0
M  V30 2670 O 262.518 -1.61443 1.03183 0
M  V30 2671 C 262.712 0.835296 3.47502 0
M  V30 2672 C 262.541 2.30781 3.85967 0
M  V30 2673 C 261.311 2.96017 4.09514 0
M  V30 2674 C 263.509 3.28519 3.95702 0
M  V30 2675 N 261.491 4.3344 4.34744 0
M  V30 2676 C 262.862 4.51146 4.25285 0
M  V30 2677 C 264.917 3.23753 3.7827 0
M  V30 2678 C 263.62 5.69606 4.39251 0
M  V30 2679 C 265.646 4.41523 3.9346 0
M  V30 2680 C 265.008 5.62928 4.23428 0
M  V30 2681 H 261.107 0.260711 0.737261 0
M  V30 2682 H 263.691 1.19204 1.53943 0
M  V30 2683 H 261.862 0.248005 3.87607 0
M  V30 2684 H 263.594 0.447878 4.02214 0
M  V30 2685 H 260.349 2.46695 4.04275 0
M  V30 2686 H 260.773 5.04528 4.5142 0
M  V30 2687 H 265.415 2.3096 3.54143 0
M  V30 2688 H 263.133 6.62866 4.62205 0
M  V30 2689 H 266.719 4.39351 3.81394 0
M  V30 2690 H 265.599 6.52538 4.34929 0
M  V30 2691 N 263.102 -1.41638 0.69111 0
M  V30 2692 C 264.327 -2.06148 0.227583 0
M  V30 2693 C 264.752 -1.51652 -1.11281 0
M  V30 2694 O 264.11 -0.64164 -1.69566 0
M  V30 2695 C 264.158 -3.60095 0.190858 0
M  V30 2696 O 263.262 -4.03845 -0.835664 0
M  V30 2697 H 262.603 -0.654434 0.112306 0
M  V30 2698 H 265.133 -1.81484 0.944714 0
M  V30 2699 H 265.143 -4.07995 0.020207 0
M  V30 2700 H 263.818 -3.99129 1.16915 0
M  V30 2701 H 262.395 -3.67458 -0.63473 0
M  V30 2702 N 264.58 -0.43555 -1.51462 0
M  V30 2703 C 265.543 0.365137 -2.26273 0
M  V30 2704 C 266.543 0.951227 -1.29647 0
M  V30 2705 O 267.733 0.825958 -1.53374 0
M  V30 2706 C 264.865 1.51645 -3.05314 0
M  V30 2707 H 266.058 -0.290474 -2.9849 0
M  V30 2708 H 263.611 -0.188676 -1.55157 0
M  V30 2709 H 264.346 2.20816 -2.3751 0
M  V30 2710 H 264.131 1.10238 -3.76284 0
M  V30 2711 H 265.621 2.08218 -3.61987 0
M  V30 2712 N 266.058 1.56714 -0.166846 0
M  V30 2713 C 266.968 2.21331 0.777791 0
M  V30 2714 C 267.984 1.20358 1.25658 0
M  V30 2715 O 269.16 1.53005 1.30964 0
M  V30 2716 C 266.225 2.83787 1.99163 0
M  V30 2717 C 265.286 3.99947 1.56016 0
M  V30 2718 C 264.519 4.59415 2.71613 0
M  V30 2719 O 264.742 4.17769 3.88362 0
M  V30 2720 O 263.676 5.49359 2.45945 0
M  V30 2721 H 267.502 3.02605 0.257636 0
M  V30 2722 H 265.087 1.49275 0.0611393 0
M  V30 2723 H 266.969 3.23405 2.70161 0
M  V30 2724 H 265.644 2.05513 2.50092 0
M  V30 2725 H 264.551 3.65007 0.819809 0
M  V30 2726 H 265.884 4.79801 1.09782 0
M  V30 2727 N 267.536 -0.106894 1.57237 0
M  V30 2728 C 268.446 -1.14911 2.0453 0
M  V30 2729 C 269.462 -1.44592 0.96795 0
M  V30 2730 O 270.638 -1.55468 1.2803 0
M  V30 2731 C 267.703 -2.45272 2.45036 0
M  V30 2732 C 266.764 -2.22879 3.66911 0
M  V30 2733 C 265.997 -3.47024 4.05475 0
M  V30 2734 O 266.22 -4.54804 3.44252 0
M  V30 2735 O 265.154 -3.3731 4.98504 0
M  V30 2736 H 268.98 -0.777461 2.9358 0
M  V30 2737 H 266.565 -0.318563 1.45964 0
M  V30 2738 H 268.447 -3.22055 2.71769 0
M  V30 2739 H 267.122 -2.81886 1.59129 0
M  V30 2740 H 266.029 -1.43915 3.45311 0
M  V30 2741 H 267.362 -1.91163 4.53561 0
M  V30 2742 N 269.014 -1.53014 -0.377408 0
M  V30 2743 C 270.43 -1.42523 -0.718281 0
M  V30 2744 C 270.63 -0.55487 -1.9371 0
M  V30 2745 O 269.686 -0.0327593 -2.52479 0
M  V30 2746 C 270.999 -2.85546 -0.942539 0
M  V30 2747 C 272.547 -2.95101 -1.04329 0
M  V30 2748 C 273.022 -4.3916 -1.3001 0
M  V30 2749 N 274.513 -4.42536 -1.36806 0
M  V30 2750 C 275.248 -5.51097 -1.58364 0
M  V30 2751 N 274.744 -6.69724 -1.77317 0
M  V30 2752 N 276.537 -5.38657 -1.60638 0
M  V30 2753 H 268.688 -2.08116 0.424426 0
M  V30 2754 H 270.951 -0.939352 0.127759 0
M  V30 2755 H 270.657 -3.51499 -0.118929 0
M  V30 2756 H 270.531 -3.28493 -1.85397 0
M  V30 2757 H 272.918 -2.29309 -1.85745 0
M  V30 2758 H 272.999 -2.55566 -0.109505 0
M  V30 2759 H 272.643 -5.05521 -0.490991 0
M  V30 2760 H 272.573 -4.76258 -2.24691 0
M  V30 2761 H 275.064 -3.57039 -1.23821 0
M  V30 2762 H 275.377 -7.48233 -1.93306 0
M  V30 2763 H 273.722 -6.72732 -1.74518 0
M  V30 2764 H 276.913 -4.44948 -1.45391 0
M  V30 2765 H 277.086 -6.2333 -1.77098 0
M  V30 2766 N 270.492 0.636531 -1.44174 0
M  V30 2767 C 271.717 1.42847 -1.50364 0
M  V30 2768 C 272.142 1.87665 -0.127867 0
M  V30 2769 O 271.5 1.58408 0.88185 0
M  V30 2770 C 271.548 2.62854 -2.4686 0
M  V30 2771 O 270.652 3.62501 -1.9664 0
M  V30 2772 H 269.993 0.427642 -0.507955 0
M  V30 2773 H 272.523 0.777422 -1.89255 0
M  V30 2774 H 272.533 3.10465 -2.64718 0
M  V30 2775 H 271.208 2.29578 -3.46795 0
M  V30 2776 H 269.785 3.21735 -1.88523 0
M  V30 2777 N 271.97 1.30982 0.876444 0
M  V30 2778 C 272.933 1.18054 1.96459 0
M  V30 2779 C 273.933 0.109399 1.60427 0
M  V30 2780 O 275.123 0.358173 1.70478 0
M  V30 2781 C 272.255 0.810616 3.31122 0
M  V30 2782 H 273.448 2.14735 2.09354 0
M  V30 2783 H 271.001 1.145 1.06392 0
M  V30 2784 H 271.736 -0.155322 3.23928 0
M  V30 2785 H 271.521 1.58481 3.58645 0
M  V30 2786 H 273.011 0.743876 4.10921 0
M  V30 2787 N 273.449 -1.08991 1.13837 0
M  V30 2788 C 274.674 -1.85551 0.926585 0
M  V30 2789 C 275.099 -1.80782 -0.519566 0
M  V30 2790 O 274.457 -1.18855 -1.36906 0
M  V30 2791 C 274.505 -3.31266 1.42462 0
M  V30 2792 O 273.609 -4.07822 0.612789 0
M  V30 2793 H 272.95 -0.575192 0.331738 0
M  V30 2794 H 275.48 -1.37604 1.51414 0
M  V30 2795 H 275.49 -3.82112 1.43019 0
M  V30 2796 H 274.165 -3.34052 2.47754 0
M  V30 2797 H 272.742 -3.66731 0.675463 0
M  V30 2798 N 274.927 -0.932562 -1.27047 0
M  V30 2799 C 275.89 -0.440064 -2.24936 0
M  V30 2800 C 276.89 0.444071 -1.54547 0
M  V30 2801 O 278.08 0.244465 -1.72476 0
M  V30 2802 C 275.212 0.36678 -3.38921 0
M  V30 2803 H 276.405 -1.305 -2.70018 0
M  V30 2804 H 273.958 -0.713707 -1.39054 0
M  V30 2805 H 274.693 1.25033 -2.99228 0
M  V30 2806 H 274.478 -0.267204 -3.91188 0
M  V30 2807 H 275.968 0.701567 -4.11665 0
M  V30 2808 N 276.405 1.4127 -0.698611 0
M  V30 2809 C 277.63 2.06024 -0.238512 0
M  V30 2810 C 278.055 1.5224 1.10475 0
M  V30 2811 O 277.413 0.650623 1.69223 0
M  V30 2812 C 277.461 3.59988 -0.209952 0
M  V30 2813 O 276.565 4.04282 0.814235 0
M  V30 2814 H 275.906 0.653829 -0.115775 0
M  V30 2815 H 278.436 1.8098 -0.954326 0
M  V30 2816 H 278.446 4.07979 -0.0418436 0
M  V30 2817 H 277.121 3.98503 -1.1903 0
M  V30 2818 H 275.698 3.6779 0.615234 0
M  V30 2819 N 277.883 0.443576 1.51229 0
M  V30 2820 C 278.831 -0.37904 2.29491 0
M  V30 2821 C 279.825 -1.0153 1.35603 0
M  V30 2822 O 281.031 -0.94955 1.52917 0
M  V30 2823 H 277.406 -0.141053 0.738653 0
M  V30 2824 H 279.377 0.301799 2.9687 0
M  V30 2825 C 278.126 -1.46426 3.15364 0
M  V30 2826 H 277.449 -0.984037 3.87501 0
M  V30 2827 H 278.889 -2.01297 3.7317 0
M  V30 2828 C 277.348 -2.45099 2.31146 0
M  V30 2829 O 277.878 -3.49773 1.9754 0
M  V30 2830 N 276.084 -2.16139 1.94249 0
M  V30 2831 H 275.631 -1.31044 2.21777 0
M  V30 2832 H 275.589 -2.82398 1.38198 0
M  V30 2833 N 279.361 -1.56624 0.175154 0
M  V30 2834 C 280.772 -1.83561 -0.340916 0
M  V30 2835 C 281.123 -1.09511 -1.62794 0
M  V30 2836 O 280.248 -0.349389 -2.13561 0
M  V30 2837 C 280.843 -3.32979 -0.625313 0
M  V30 2838 C 279.402 -3.60399 -1.08581 0
M  V30 2839 C 278.549 -2.77024 -0.123722 0
M  V30 2840 H 281.5 -1.53593 0.399344 0
M  V30 2841 H 281.521 -3.50666 -1.47694 0
M  V30 2842 H 281.033 -3.86847 0.311575 0
M  V30 2843 H 279.134 -3.11945 -2.03767 0
M  V30 2844 H 279.247 -4.68711 -0.992317 0
M  V30 2845 H 277.611 -2.46993 -0.621821 0
M  V30 2846 H 278.394 -3.33674 0.807256 0
M  V30 2847 N 280.839 0.0985539 -1.57292 0
M  V30 2848 C 282.116 0.834155 -1.76921 0
M  V30 2849 C 282.496 1.97101 -0.755928 0
M  V30 2850 O 281.844 2.27474 0.216245 0
M  V30 2851 C 282.054 1.33194 -3.22584 0
M  V30 2852 C 283.402 1.77611 -3.85668 0
M  V30 2853 O 284.426 1.42825 -3.26312 0
M  V30 2854 O 283.285 2.4192 -4.90038 0
M  V30 2855 H 280.379 0.397628 -0.725135 0
M  V30 2856 H 282.925 0.0807044 -1.69508 0
M  V30 2857 H 281.697 0.517248 -3.87866 0
M  V30 2858 H 281.32 2.1475 -3.34616 0
M  V30 2859 N 282.317 1.53212 0.369288 0
M  V30 2860 C 283.557 1.70915 1.12105 0
M  V30 2861 C 283.921 0.449444 1.86665 0
M  V30 2862 O 285.122 0.503105 2.6405 0
M  V30 2863 C 283.393 2.9222 2.05772 0
M  V30 2864 S 284.952 3.30609 2.88519 0
M  V30 2865 H 281.77 0.601445 0.379189 0
M  V30 2866 H 284.372 1.91306 0.402794 0
M  V30 2867 H 283.076 3.82103 1.49752 0
M  V30 2868 H 282.607 2.7422 2.82076 0
M  V30 2869 H 284.622 2.82333 4.08047 0
M  V30 2870 N 283.795 -0.628877 1.44509 0
M  V30 2871 C 284.727 -1.754 1.47538 0
M  V30 2872 C 285.74 -1.58575 0.368506 0
M  V30 2873 O 286.929 -1.66847 0.634376 0
M  V30 2874 C 284.029 -3.1315 1.29577 0
M  V30 2875 C 283.202 -3.56413 2.53551 0
M  V30 2876 C 282.261 -4.7305 2.30457 0
M  V30 2877 O 281.287 -4.81247 3.03957 0
M  V30 2878 N 282.489 -5.64903 1.3366 0
M  V30 2879 H 285.254 -1.73272 2.44534 0
M  V30 2880 H 282.815 -0.813512 1.39977 0
M  V30 2881 H 284.807 -3.88902 1.11971 0
M  V30 2882 H 283.377 -3.09908 0.409371 0
M  V30 2883 H 282.597 -2.70847 2.86419 0
M  V30 2884 H 283.885 -3.82071 3.36005 0
M  V30 2885 H 283.283 -5.60975 0.729604 0
M  V30 2886 H 281.84 -6.40275 1.22032 0
M  V30 2887 N 285.273 -1.31445 -0.869486 0
M  V30 2888 C 286.203 -1.21727 -1.99261 0
M  V30 2889 C 287.184 -0.104359 -1.6978 0
M  V30 2890 O 288.369 -0.289038 -1.92037 0
M  V30 2891 C 285.499 -0.924317 -3.34774 0
M  V30 2892 C 284.453 -1.99685 -3.78563 0
M  V30 2893 C 283.779 -1.55658 -5.11541 0
M  V30 2894 C 285.079 -3.41003 -3.95619 0
M  V30 2895 H 286.773 -2.1569 -2.07649 0
M  V30 2896 H 284.319 -1.03839 -0.997675 0
M  V30 2897 H 286.272 -0.842934 -4.12883 0
M  V30 2898 H 284.996 0.0509793 -3.2656 0
M  V30 2899 H 283.655 -2.06813 -3.02694 0
M  V30 2900 H 283.303 -0.569132 -4.9977 0
M  V30 2901 H 283.003 -2.27409 -5.41811 0
M  V30 2902 H 284.527 -1.48928 -5.92159 0
M  V30 2903 H 285.941 -3.36547 -4.64122 0
M  V30 2904 H 284.338 -4.10975 -4.37286 0
M  V30 2905 H 285.408 -3.81754 -2.98985 0
M  V30 2906 N 286.751 1.08385 -1.14413 0
M  V30 2907 C 288.162 1.62258 -0.923535 0
M  V30 2908 C 288.513 1.88691 0.537595 0
M  V30 2909 O 287.638 1.64454 1.40655 0
M  V30 2910 C 288.233 2.94781 -1.67002 0
M  V30 2911 C 286.792 3.45437 -1.495 0
M  V30 2912 C 285.939 2.19668 -1.69238 0
M  V30 2913 H 288.89 0.916086 -1.2959 0
M  V30 2914 H 288.911 3.63229 -1.13334 0
M  V30 2915 H 288.423 2.7551 -2.73342 0
M  V30 2916 H 286.524 3.6981 -0.455097 0
M  V30 2917 H 286.637 4.22173 -2.2651 0
M  V30 2918 H 285.001 2.28849 -1.11804 0
M  V30 2919 H 285.784 2.02905 -2.7692 0
M  V30 2920 N 288.23 0.939286 1.26551 0
M  V30 2921 C 289.18 0.418284 2.2413 0
M  V30 2922 C 290.164 -0.483935 1.5345 0
M  V30 2923 O 291.356 -0.319489 1.74093 0
M  V30 2924 C 288.485 -0.31709 3.41832 0
M  V30 2925 C 287.571 0.602311 4.19801 0
M  V30 2926 N 287.962 1.72726 4.75394 0
M  V30 2927 C 286.26 0.407534 4.44134 0
M  V30 2928 C 286.961 2.30004 5.34297 0
M  V30 2929 N 285.937 1.58828 5.1988 0
M  V30 2930 H 289.739 1.27705 2.64705 0
M  V30 2931 H 287.253 0.794929 1.41614 0
M  V30 2932 H 289.25 -0.707364 4.10855 0
M  V30 2933 H 287.91 -1.17264 3.02786 0
M  V30 2934 H 288.921 2.10944 4.72994 0
M  V30 2935 H 285.598 -0.406406 4.15517 0
M  V30 2936 H 286.988 3.24778 5.88191 0
M  V30 2937 N 289.708 -1.40897 0.706093 0
M  V30 2938 C 290.638 -2.33418 0.0620085 0
M  V30 2939 C 291.619 -1.52385 -0.755827 0
M  V30 2940 O 292.804 -1.80886 -0.706674 0
M  V30 2941 C 289.934 -3.36293 -0.867445 0
M  V30 2942 C 288.888 -4.27716 -0.155932 0
M  V30 2943 C 288.214 -5.2105 -1.20046 0
M  V30 2944 C 289.514 -5.12944 0.984149 0
M  V30 2945 H 291.208 -2.87527 0.83477 0
M  V30 2946 H 288.754 -1.38249 0.402875 0
M  V30 2947 H 290.707 -3.99949 -1.32735 0
M  V30 2948 H 289.431 -2.80556 -1.67199 0
M  V30 2949 H 288.09 -3.65498 0.284047 0
M  V30 2950 H 287.738 -4.61624 -1.99781 0
M  V30 2951 H 287.438 -5.83056 -0.729328 0
M  V30 2952 H 288.962 -5.87584 -1.66066 0
M  V30 2953 H 290.376 -5.70109 0.604048 0
M  V30 2954 H 288.773 -5.83945 1.38304 0
M  V30 2955 H 289.843 -4.49485 1.81911 0
M  V30 2956 N 291.186 -0.45159 -1.50991 0
M  V30 2957 C 292.433 0.110074 -2.02201 0
M  V30 2958 C 292.761 1.4146 -1.33489 0
M  V30 2959 O 292.016 1.90617 -0.443125 0
M  V30 2960 C 292.315 0.361728 -3.55565 0
M  V30 2961 C 291.981 -0.858717 -4.42648 0
M  V30 2962 C 290.643 -1.19338 -4.66167 0
M  V30 2963 C 292.995 -1.67221 -4.93646 0
M  V30 2964 C 290.323 -2.34195 -5.37931 0
M  V30 2965 C 292.675 -2.8119 -5.6667 0
M  V30 2966 C 291.339 -3.15094 -5.88449 0
M  V30 2967 H 290.609 0.040279 -0.739904 0
M  V30 2968 H 293.256 -0.601696 -1.81802 0
M  V30 2969 H 291.561 1.15554 -3.74372 0
M  V30 2970 H 293.258 0.80996 -3.92735 0
M  V30 2971 H 289.848 -0.58796 -4.24548 0
M  V30 2972 H 294.032 -1.42686 -4.75347 0
M  V30 2973 H 289.288 -2.6076 -5.53005 0
M  V30 2974 H 293.462 -3.44585 -6.05173 0
M  V30 2975 H 291.089 -4.04204 -6.43835 0
M  V30 2976 N 292.664 1.56529 -0.183458 0
M  V30 2977 C 293.904 1.99141 0.460667 0
M  V30 2978 C 294.268 1.06736 1.59597 0
M  V30 2979 O 295.469 1.38538 2.30349 0
M  V30 2980 C 293.74 3.45358 0.919939 0
M  V30 2981 S 295.299 4.09999 1.56354 0
M  V30 2982 H 292.117 0.695479 0.147748 0
M  V30 2983 H 294.719 1.93429 -0.283782 0
M  V30 2984 H 293.423 4.10315 0.0834208 0
M  V30 2985 H 292.954 3.54862 1.69814 0
M  V30 2986 H 294.969 4.06046 2.85203 0
M  V30 2987 N 294.142 -0.090211 1.57342 0
M  V30 2988 C 295.372 -0.805055 1.90269 0
M  V30 2989 C 295.78 -1.72561 0.775842 0
M  V30 2990 O 295.123 -1.81839 -0.260843 0
M  V30 2991 C 295.185 -1.66734 3.18497 0
M  V30 2992 C 294.849 -0.918092 4.47683 0
M  V30 2993 C 295.846 -0.245674 5.19319 0
M  V30 2994 C 293.531 -0.890724 4.94339 0
M  V30 2995 C 295.525 0.444088 6.35851 0
M  V30 2996 C 293.212 -0.197179 6.10782 0
M  V30 2997 C 294.21 0.469044 6.81388 0
M  V30 2998 O 293.898 1.15146 7.95611 0
M  V30 2999 H 293.63 -0.235143 0.633785 0
M  V30 3000 H 296.184 -0.0703805 2.05279 0
M  V30 3001 H 294.414 -2.44437 2.99646 0
M  V30 3002 H 296.103 -2.25919 3.37217 0
M  V30 3003 H 296.869 -0.258246 4.84312 0
M  V30 3004 H 292.748 -1.39873 4.39268 0
M  V30 3005 H 296.292 0.964667 6.90898 0
M  V30 3006 H 292.189 -0.18247 6.45242 0
M  V30 3007 H 292.957 1.05885 8.11622 0
M  V30 3008 N 295.62 -1.53406 -0.361157 0
M  V30 3009 C 297.031 -1.61442 -0.937728 0
M  V30 3010 C 297.382 -0.48461 -1.90121 0
M  V30 3011 O 296.507 0.388312 -2.12888 0
M  V30 3012 C 297.102 -2.92624 -1.70753 0
M  V30 3013 C 295.661 -3.02981 -2.23337 0
M  V30 3014 C 294.808 -2.5677 -1.04712 0
M  V30 3015 H 297.759 -1.58083 -0.139816 0
M  V30 3016 H 297.78 -2.80675 -2.56908 0
M  V30 3017 H 297.292 -3.74834 -1.00604 0
M  V30 3018 H 295.393 -2.25368 -2.96715 0
M  V30 3019 H 295.506 -4.0814 -2.50916 0
M  V30 3020 H 293.87 -2.11752 -1.41539 0
M  V30 3021 H 294.653 -3.41402 -0.360539 0
M  V30 3022 N 297.098 0.621204 -1.44841 0
M  V30 3023 C 298.061 1.71459 -1.521 0
M  V30 3024 C 299.061 1.55696 -0.401933 0
M  V30 3025 O 300.251 1.61011 -0.664925 0
M  V30 3026 C 297.383 3.10624 -1.40447 0
M  V30 3027 H 298.576 1.66394 -2.49506 0
M  V30 3028 H 296.129 0.835745 -1.3208 0
M  V30 3029 H 296.864 3.21277 -0.441737 0
M  V30 3030 H 296.649 3.23473 -2.21602 0
M  V30 3031 H 298.139 3.90293 -1.4853 0
M  V30 3032 N 298.576 1.31904 0.862503 0
M  V30 3033 C 299.508 1.16005 1.97675 0
M  V30 3034 C 300.521 0.0971234 1.6251 0
M  V30 3035 O 301.71 0.345337 1.75128 0
M  V30 3036 C 298.81 0.751791 3.30456 0
M  V30 3037 C 297.983 1.90133 3.93914 0
M  V30 3038 C 297.042 1.4779 5.05019 0
M  V30 3039 O 296.068 2.18872 5.25437 0
M  V30 3040 N 297.27 0.369491 5.79323 0
M  V30 3041 H 300.035 2.11982 2.11857 0
M  V30 3042 H 297.596 1.24337 1.03691 0
M  V30 3043 H 299.588 0.451084 4.02178 0
M  V30 3044 H 298.158 -0.116593 3.12382 0
M  V30 3045 H 297.378 2.36896 3.15078 0
M  V30 3046 H 298.666 2.67111 4.33047 0
M  V30 3047 H 298.064 -0.222299 5.65263 0
M  V30 3048 H 296.621 0.128354 6.51674 0
M  V30 3049 N 300.054 -1.07777 1.14986 0
M  V30 3050 C 301.279 -1.84558 0.946213 0
M  V30 3051 C 301.704 -1.81323 -0.500362 0
M  V30 3052 O 301.062 -1.20301 -1.35637 0
M  V30 3053 C 301.11 -3.29736 1.45968 0
M  V30 3054 O 300.214 -4.07149 0.65601 0
M  V30 3055 H 299.555 -0.571641 0.33782 0
M  V30 3056 H 302.085 -1.35991 1.52865 0
M  V30 3057 H 302.095 -3.80574 1.47063 0
M  V30 3058 H 300.77 -3.31406 2.51283 0
M  V30 3059 H 299.347 -3.65994 0.714322 0
M  V30 3060 N 301.532 -0.945985 -1.26051 0
M  V30 3061 C 302.48 -0.450259 -2.282 0
M  V30 3062 C 303.474 0.47497 -1.62605 0
M  V30 3063 O 304.68 0.352653 -1.76512 0
M  V30 3064 H 301.055 -0.127081 -0.741184 0
M  V30 3065 H 303.026 -1.32422 -2.67408 0
M  V30 3066 C 301.775 0.26467 -3.46691 0
M  V30 3067 H 301.098 -0.438123 -3.97392 0
M  V30 3068 H 302.538 0.575678 -4.20074 0
M  V30 3069 C 300.997 1.48416 -3.02447 0
M  V30 3070 O 301.527 2.58227 -3.07704 0
M  V30 3071 N 299.733 1.34243 -2.57735 0
M  V30 3072 H 299.28 0.448994 -2.53657 0
M  V30 3073 H 299.238 2.15957 -2.28495 0
M  V30 3074 N 303.011 1.40521 -0.713556 0
M  V30 3075 C 304.258 2.00923 -0.25219 0
M  V30 3076 C 304.586 1.56571 1.15395 0
M  V30 3077 O 303.841 0.775874 1.79663 0
M  V30 3078 C 304.14 3.56317 -0.278 0
M  V30 3079 C 303.806 4.20246 -1.63415 0
M  V30 3080 C 302.468 4.37422 -2.00538 0
M  V30 3081 C 304.82 4.55923 -2.52554 0
M  V30 3082 C 302.148 4.87558 -3.2635 0
M  V30 3083 C 304.5 5.07458 -3.77716 0
M  V30 3084 C 303.164 5.22843 -4.14959 0
M  V30 3085 H 302.434 0.735231 -0.0922829 0
M  V30 3086 H 305.081 1.68161 -0.916188 0
M  V30 3087 H 303.386 3.88976 0.469567 0
M  V30 3088 H 305.083 4.00883 0.0967819 0
M  V30 3089 H 301.673 4.07263 -1.33546 0
M  V30 3090 H 305.857 4.42291 -2.25149 0
M  V30 3091 H 301.113 4.97654 -3.55176 0
M  V30 3092 H 305.287 5.34041 -4.4696 0
M  V30 3093 H 302.914 5.61454 -5.12516 0
M  V30 3094 N 304.489 0.459591 1.5075 0
M  V30 3095 C 305.714 -0.0996819 2.0716 0
M  V30 3096 C 306.139 -1.33761 1.32249 0
M  V30 3097 O 305.497 -1.77551 0.366786 0
M  V30 3098 C 305.545 -0.378226 3.58611 0
M  V30 3099 O 304.649 -1.46081 3.85661 0
M  V30 3100 H 303.99 0.00791392 0.663953 0
M  V30 3101 H 306.52 0.647329 1.9409 0
M  V30 3102 H 306.53 -0.622135 4.03229 0
M  V30 3103 H 305.205 0.526439 4.12555 0
M  V30 3104 H 303.782 -1.20511 3.5289 0
M  V30 3105 N 305.967 -1.56429 0.191757 0
M  V30 3106 C 307.215 -1.97095 -0.447006 0
M  V30 3107 C 307.536 -1.07967 -1.62383 0
M  V30 3108 O 306.806 -0.150248 -1.95323 0
M  V30 3109 H 305.386 -0.727832 -0.168135 0
M  V30 3110 H 308.048 -1.92911 0.27771 0
M  V30 3111 H 307.144 -3.01848 -0.793371 0
M  V30 3112 N 307.445 0.0818655 -1.57387 0
M  V30 3113 C 308.691 0.784074 -1.8703 0
M  V30 3114 C 309.024 1.77729 -0.782689 0
M  V30 3115 O 308.299 1.93384 0.208051 0
M  V30 3116 C 308.582 1.50105 -3.27323 0
M  V30 3117 C 308.435 0.524925 -4.46727 0
M  V30 3118 C 309.754 2.44843 -3.65705 0
M  V30 3119 H 306.873 0.283582 -0.680257 0
M  V30 3120 H 309.515 0.0474352 -1.89941 0
M  V30 3121 H 307.665 2.12897 -3.24972 0
M  V30 3122 H 309.337 -0.0970111 -4.61198 0
M  V30 3123 H 307.58 -0.160606 -4.33503 0
M  V30 3124 H 308.251 1.064 -5.41648 0
M  V30 3125 H 310.727 1.92135 -3.69085 0
M  V30 3126 H 309.603 2.92018 -4.64776 0
M  V30 3127 H 309.864 3.29197 -2.95096 0
M  V30 3128 N 308.923 1.53595 0.353017 0
M  V30 3129 C 310.339 1.43648 0.695516 0
M  V30 3130 C 310.539 0.585617 1.92802 0
M  V30 3131 O 309.595 0.0729223 2.52395 0
M  V30 3132 C 310.908 2.8701 0.896991 0
M  V30 3133 C 312.456 2.96723 0.996209 0
M  V30 3134 C 312.931 4.41173 1.23007 0
M  V30 3135 N 314.422 4.44657 1.29749 0
M  V30 3136 C 315.157 5.53547 1.49577 0
M  V30 3137 N 314.653 6.72461 1.66639 0
M  V30 3138 N 316.446 5.41145 1.52048 0
M  V30 3139 H 308.597 2.07415 -0.457481 0
M  V30 3140 H 310.86 0.9372 -0.142687 0
M  V30 3141 H 310.566 3.51644 0.0629938 0
M  V30 3142 H 310.44 3.31401 1.80148 0
M  V30 3143 H 312.827 2.32235 1.82074 0
M  V30 3144 H 312.908 2.55707 0.0688331 0
M  V30 3145 H 312.552 5.06238 0.410505 0
M  V30 3146 H 312.482 4.79772 2.17086 0
M  V30 3147 H 314.973 3.58963 1.18126 0
M  V30 3148 H 315.286 7.51214 1.81378 0
M  V30 3149 H 313.631 6.75423 1.63794 0
M  V30 3150 H 316.822 4.47205 1.38294 0
M  V30 3151 H 316.995 6.26068 1.67159 0
M  V30 3152 N 310.401 -0.613514 1.45168 0
M  V30 3153 C 311.631 -1.39743 1.52169 0
M  V30 3154 C 312.039 -1.88596 0.151086 0
M  V30 3155 O 311.382 -1.6251 -0.856521 0
M  V30 3156 C 311.444 -2.64035 2.43979 0
M  V30 3157 C 311.108 -2.36861 3.90827 0
M  V30 3158 C 312.105 -1.97591 4.80889 0
M  V30 3159 C 309.79 -2.49956 4.35692 0
M  V30 3160 C 311.784 -1.71768 6.1382 0
M  V30 3161 C 309.471 -2.23747 5.68665 0
M  V30 3162 C 310.469 -1.84714 6.57548 0
M  V30 3163 O 310.157 -1.58809 7.88058 0
M  V30 3164 H 309.889 -0.434382 0.517966 0
M  V30 3165 H 312.443 -0.75587 1.90986 0
M  V30 3166 H 310.673 -3.3089 2.00122 0
M  V30 3167 H 312.362 -3.26069 2.41731 0
M  V30 3168 H 313.128 -1.87015 4.47493 0
M  V30 3169 H 309.007 -2.79305 3.66756 0
M  V30 3170 H 312.551 -1.41227 6.83155 0
M  V30 3171 H 308.448 -2.33938 6.01617 0
M  V30 3172 H 309.216 -1.7291 8.00028 0
M  V30 3173 N 311.879 -1.3236 -0.855495 0
M  V30 3174 C 313.29 -1.2056 -1.42556 0
M  V30 3175 C 313.641 0.182209 -1.95352 0
M  V30 3176 O 312.766 1.08088 -1.87472 0
M  V30 3177 C 313.361 -2.1826 -2.59129 0
M  V30 3178 C 311.92 -2.10351 -3.12137 0
M  V30 3179 C 311.067 -2.06674 -1.84882 0
M  V30 3180 H 314.018 -1.442 -0.662727 0
M  V30 3181 H 314.039 -1.78064 -3.36264 0
M  V30 3182 H 313.551 -3.19257 -2.20673 0
M  V30 3183 H 311.652 -1.12599 -3.55179 0
M  V30 3184 H 311.765 -3.00135 -3.73438 0
M  V30 3185 H 310.129 -1.51901 -2.04446 0
M  V30 3186 H 310.912 -3.09451 -1.48643 0
M  V30 3187 N 313.357 1.07166 -1.15556 0
M  V30 3188 C 314.287 2.16403 -0.877046 0
M  V30 3189 C 315.268 1.69217 0.173111 0
M  V30 3190 O 316.453 1.94181 0.027084 0
M  V30 3191 C 313.583 3.45349 -0.367632 0
M  V30 3192 C 312.537 4.05995 -1.35468 0
M  V30 3193 C 311.863 5.30045 -0.704038 0
M  V30 3194 C 313.163 4.45804 -2.72132 0
M  V30 3195 H 314.857 2.39959 -1.79053 0
M  V30 3196 H 312.403 1.15325 -0.862331 0
M  V30 3197 H 314.356 4.21095 -0.160317 0
M  V30 3198 H 313.08 3.21385 0.581326 0
M  V30 3199 H 311.739 3.32296 -1.54839 0
M  V30 3200 H 311.387 5.02373 0.251128 0
M  V30 3201 H 311.087 5.71579 -1.36277 0
M  V30 3202 H 312.611 6.08495 -0.50654 0
M  V30 3203 H 314.025 5.12671 -2.56595 0
M  V30 3204 H 312.422 4.98296 -3.34397 0
M  V30 3205 H 313.492 3.57083 -3.28054 0
M  V30 3206 N 314.835 0.952656 1.25548 0
M  V30 3207 C 316.06 0.623025 1.97821 0
M  V30 3208 C 316.485 -0.7976 1.70352 0
M  V30 3209 O 315.843 -1.53905 0.958283 0
M  V30 3210 C 315.891 0.885532 3.49558 0
M  V30 3211 O 314.995 -0.0366641 4.12384 0
M  V30 3212 H 314.336 0.237082 0.620232 0
M  V30 3213 H 316.866 1.27871 1.59719 0
M  V30 3214 H 316.876 0.811009 3.99858 0
M  V30 3215 H 315.551 1.92094 3.6888 0
M  V30 3216 H 314.128 0.0898954 3.72792 0
M  V30 3217 N 316.313 -1.40141 0.720998 0
M  V30 3218 C 317.559 -2.01572 0.272075 0
M  V30 3219 C 317.914 -1.5616 -1.12391 0
M  V30 3220 O 317.207 -0.774198 -1.75262 0
M  V30 3221 C 317.401 -3.56165 0.296892 0
M  V30 3222 C 317.23 -4.16584 1.69375 0
M  V30 3223 C 316 -4.49783 2.30269 0
M  V30 3224 C 318.198 -4.41076 2.64493 0
M  V30 3225 N 316.18 -4.95626 3.62254 0
M  V30 3226 C 317.551 -4.88971 3.81192 0
M  V30 3227 C 319.606 -4.23122 2.62435 0
M  V30 3228 C 318.309 -5.20796 4.96149 0
M  V30 3229 C 320.335 -4.56052 3.76524 0
M  V30 3230 C 319.697 -5.04141 4.91956 0
M  V30 3231 H 315.796 -0.768343 0.145511 0
M  V30 3232 H 318.38 -1.70287 0.943959 0
M  V30 3233 H 316.551 -3.86868 -0.344578 0
M  V30 3234 H 318.283 -4.04346 -0.169254 0
M  V30 3235 H 315.038 -4.37101 1.82318 0
M  V30 3236 H 315.462 -5.22923 4.29977 0
M  V30 3237 H 320.104 -3.85158 1.74393 0
M  V30 3238 H 317.822 -5.57672 5.84831 0
M  V30 3239 H 321.408 -4.43796 3.76213 0
M  V30 3240 H 320.288 -5.29142 5.78774 0
M  V30 3241 N 317.792 -0.46758 -1.50504 0
M  V30 3242 C 319.041 0.0902868 -2.01498 0
M  V30 3243 C 319.354 1.411 -1.35463 0
M  V30 3244 O 320.56 2.0536 -1.77594 0
M  V30 3245 C 319.016 0.21142 -3.59278 0
M  V30 3246 C 318.624 -1.10065 -4.34269 0
M  V30 3247 C 320.368 0.721433 -4.18325 0
M  V30 3248 C 318.275 -0.943505 -5.83825 0
M  V30 3249 H 317.205 0.037517 -0.753066 0
M  V30 3250 H 319.856 -0.601943 -1.73346 0
M  V30 3251 H 318.238 0.967352 -3.84003 0
M  V30 3252 H 319.412 -1.86726 -4.21272 0
M  V30 3253 H 317.727 -1.5415 -3.86816 0
M  V30 3254 H 320.324 0.85598 -5.27804 0
M  V30 3255 H 320.667 1.71186 -3.79475 0
M  V30 3256 H 321.2 0.0229843 -3.97793 0
M  V30 3257 H 317.939 -1.90719 -6.27141 0
M  V30 3258 H 317.459 -0.217213 -5.99407 0
M  V30 3259 H 319.138 -0.608715 -6.4413 0
M  V30 3260 N 319.27 1.56325 -0.20005 0
M  V30 3261 C 320.18 2.22931 0.730668 0
M  V30 3262 C 321.196 1.22997 1.23076 0
M  V30 3263 O 322.372 1.55748 1.27689 0
M  V30 3264 C 319.437 2.87948 1.93098 0
M  V30 3265 C 318.498 4.03166 1.47497 0
M  V30 3266 C 317.731 4.65073 2.61807 0
M  V30 3267 O 317.954 4.25913 3.79413 0
M  V30 3268 O 316.888 5.54452 2.34237 0
M  V30 3269 H 320.714 3.03084 0.193391 0
M  V30 3270 H 318.299 1.49371 0.0294621 0
M  V30 3271 H 320.181 3.29063 2.6324 0
M  V30 3272 H 318.856 2.10771 2.45677 0
M  V30 3273 H 317.763 3.66664 0.742201 0
M  V30 3274 H 319.096 4.82022 0.995796 0
M  V30 3275 N 320.748 -0.0735177 1.57428 0
M  V30 3276 C 321.658 -1.10547 2.06922 0
M  V30 3277 C 322.674 -1.42506 0.998402 0
M  V30 3278 O 323.85 -1.52717 1.31299 0
M  V30 3279 C 320.915 -2.40019 2.50184 0
M  V30 3280 C 319.976 -2.15046 3.71556 0
M  V30 3281 C 319.209 -3.38345 4.12745 0
M  V30 3282 O 319.432 -4.47399 3.53822 0
M  V30 3283 O 318.366 -3.2666 5.05546 0
M  V30 3284 H 322.192 -0.715013 2.95163 0
M  V30 3285 H 319.777 -0.287531 1.46607 0
M  V30 3286 H 321.659 -3.16218 2.78539 0
M  V30 3287 H 320.334 -2.78447 1.65072 0
M  V30 3288 H 319.241 -1.36558 3.48285 0
M  V30 3289 H 320.574 -1.81499 4.57514 0
M  V30 3290 N 322.226 -1.5378 -0.344866 0
M  V30 3291 C 323.472 -1.71216 -1.08687 0
M  V30 3292 C 323.805 -0.473281 -1.88345 0
M  V30 3293 O 323.08 0.52968 -1.87149 0
M  V30 3294 C 323.363 -2.97486 -2.02914 0
M  V30 3295 C 323.216 -4.31579 -1.26727 0
M  V30 3296 C 324.535 -3.19422 -3.0275 0
M  V30 3297 H 321.654 -0.62301 -0.393735 0
M  V30 3298 H 324.296 -1.8645 -0.365563 0
M  V30 3299 H 322.446 -2.84629 -2.64421 0
M  V30 3300 H 324.118 -4.56284 -0.67845 0
M  V30 3301 H 322.361 -4.30049 -0.569273 0
M  V30 3302 H 323.032 -5.16106 -1.95803 0
M  V30 3303 H 325.508 -3.316 -2.51357 0
M  V30 3304 H 324.384 -4.09169 -3.65885 0
M  V30 3305 H 324.645 -2.35656 -3.74057 0
M  V30 3306 N 323.704 0.605807 -1.45491 0
M  V30 3307 C 324.651 1.7164 -1.54299 0
M  V30 3308 C 325.621 1.61486 -0.388761 0
M  V30 3309 O 326.806 1.81039 -0.602445 0
M  V30 3310 C 323.946 3.09953 -1.51734 0
M  V30 3311 C 323.059 3.309 -2.77721 0
M  V30 3312 C 322.194 4.59329 -2.66816 0
M  V30 3313 C 321.233 4.7354 -3.87848 0
M  V30 3314 N 320.37 5.9327 -3.75467 0
M  V30 3315 H 325.21 1.63449 -2.49176 0
M  V30 3316 H 322.747 0.796957 -1.23641 0
M  V30 3317 H 324.705 3.89977 -1.48235 0
M  V30 3318 H 323.335 3.17098 -0.604068 0
M  V30 3319 H 322.387 2.44639 -2.913 0
M  V30 3320 H 323.699 3.37274 -3.67488 0
M  V30 3321 H 322.853 5.4755 -2.61292 0
M  V30 3322 H 321.592 4.55355 -1.74651 0
M  V30 3323 H 320.597 3.83741 -3.93729 0
M  V30 3324 H 321.822 4.79309 -4.81082 0
M  V30 3325 H 319.768 5.90338 -2.86072 0
M  V30 3326 H 319.685 6.00811 -4.5887 0
M  V30 3327 H 320.953 6.83984 -3.73879 0
M  V30 3328 N 325.182 1.32811 0.848464 0
M  V30 3329 C 326.407 1.26882 1.6406 0
M  V30 3330 C 326.832 -0.15913 1.87426 0
M  V30 3331 O 326.19 -1.11258 1.43148 0
M  V30 3332 C 326.238 2.03997 2.97351 0
M  V30 3333 O 325.342 1.39201 3.88197 0
M  V30 3334 H 324.683 0.436982 0.499943 0
M  V30 3335 H 327.213 1.75224 1.0563 0
M  V30 3336 H 327.223 2.14403 3.47124 0
M  V30 3337 H 325.898 3.0783 2.79666 0
M  V30 3338 H 324.475 1.37381 3.46671 0
M  V30 3339 N 326.66 -1.06551 1.16123 0
M  V30 3340 C 327.908 -1.78947 0.939267 0
M  V30 3341 C 328.229 -1.87532 -0.534476 0
M  V30 3342 O 327.499 -1.38211 -1.38833 0
M  V30 3343 H 326.079 -0.662807 0.344523 0
M  V30 3344 H 328.741 -1.28725 1.46342 0
M  V30 3345 H 327.837 -2.81117 1.35572 0
M  V30 3346 N 328.138 -0.959301 -1.25041 0
M  V30 3347 C 329.554 -0.664474 -1.4511 0
M  V30 3348 C 329.754 0.776481 -1.85938 0
M  V30 3349 O 328.81 1.55128 -1.99227 0
M  V30 3350 C 330.123 -1.64139 -2.5195 0
M  V30 3351 C 331.671 -1.65309 -2.65786 0
M  V30 3352 C 332.146 -2.61777 -3.75815 0
M  V30 3353 N 333.637 -2.60169 -3.83231 0
M  V30 3354 C 334.372 -3.31489 -4.6787 0
M  V30 3355 N 333.868 -4.12298 -5.56761 0
M  V30 3356 N 335.661 -3.20354 -4.61876 0
M  V30 3357 H 327.812 -1.89043 -0.968332 0
M  V30 3358 H 330.075 -0.813408 -0.4869 0
M  V30 3359 H 329.781 -2.67086 -2.28819 0
M  V30 3360 H 329.655 -1.40756 -3.49954 0
M  V30 3361 H 332.042 -0.630778 -2.8828 0
M  V30 3362 H 332.123 -1.92753 -1.68167 0
M  V30 3363 H 331.767 -3.64137 -3.54071 0
M  V30 3364 H 331.697 -2.31616 -4.72929 0
M  V30 3365 H 334.188 -2.01507 -3.19692 0
M  V30 3366 H 334.501 -4.63625 -6.18281 0
M  V30 3367 H 332.846 -4.16395 -5.56454 0
M  V30 3368 H 336.037 -2.56692 -3.91442 0
M  V30 3369 H 336.21 -3.76201 -5.27614 0
M  V30 3370 N 329.616 1.39756 -0.72842 0
M  V30 3371 C 330.546 2.33289 -0.0991354 0
M  V30 3372 C 331.527 1.53568 0.731489 0
M  V30 3373 O 332.712 1.81987 0.677807 0
M  V30 3374 C 329.842 3.3763 0.813834 0
M  V30 3375 C 328.796 4.2791 0.0878663 0
M  V30 3376 C 328.122 5.22894 1.11741 0
M  V30 3377 C 329.422 5.11314 -1.06563 0
M  V30 3378 H 331.116 2.86163 -0.880408 0
M  V30 3379 H 328.662 1.37591 -0.424819 0
M  V30 3380 H 330.615 4.0201 1.26355 0
M  V30 3381 H 329.339 2.83181 1.62715 0
M  V30 3382 H 327.998 3.65 -0.342159 0
M  V30 3383 H 327.646 4.64744 1.92412 0
M  V30 3384 H 327.346 5.84143 0.636477 0
M  V30 3385 H 328.87 5.90151 1.56697 0
M  V30 3386 H 330.284 5.69076 -0.694671 0
M  V30 3387 H 328.681 5.81671 -1.47577 0
M  V30 3388 H 329.751 4.46534 -1.89038 0
M  V30 3389 N 331.094 0.475555 1.50254 0
M  V30 3390 C 332.044 -0.335025 2.25525 0
M  V30 3391 C 333.028 -0.957625 1.29299 0
M  V30 3392 O 334.22 -0.869436 1.54175 0
M  V30 3393 C 331.349 -1.41385 3.12834 0
M  V30 3394 C 330.435 -0.798762 4.1651 0
M  V30 3395 N 330.826 0.0835815 5.05731 0
M  V30 3396 C 329.124 -1.06221 4.33166 0
M  V30 3397 C 329.825 0.433113 5.80085 0
M  V30 3398 N 328.801 -0.1928 5.43258 0
M  V30 3399 H 332.603 0.344612 2.91873 0
M  V30 3400 H 330.117 0.289986 1.5979 0
M  V30 3401 H 332.114 -2.00777 3.65368 0
M  V30 3402 H 330.774 -2.09543 2.48036 0
M  V30 3403 H 331.785 0.452715 5.15918 0
M  V30 3404 H 328.462 -1.73844 3.79585 0
M  V30 3405 H 329.852 1.15346 6.61925 0
M  V30 3406 N 332.573 -1.56217 0.208337 0
M  V30 3407 C 333.984 -1.84243 -0.301904 0
M  V30 3408 C 334.335 -1.12939 -1.60434 0
M  V30 3409 O 333.46 -0.39461 -2.12772 0
M  V30 3410 C 334.055 -3.34231 -0.554543 0
M  V30 3411 C 332.614 -3.62621 -1.00912 0
M  V30 3412 C 331.761 -2.77224 -0.064933 0
M  V30 3413 H 334.712 -1.52712 0.431833 0
M  V30 3414 H 334.733 -3.5372 -1.40223 0
M  V30 3415 H 334.245 -3.86099 0.393561 0
M  V30 3416 H 332.346 -3.16197 -1.97104 0
M  V30 3417 H 332.459 -4.7071 -0.892674 0
M  V30 3418 H 330.823 -2.48256 -0.56929 0
M  V30 3419 H 331.606 -3.31887 0.877851 0
M  V30 3420 N 334.051 0.0651679 -1.57465 0
M  V30 3421 C 335.297 0.764193 -1.87851 0
M  V30 3422 C 335.63 1.76889 -0.801495 0
M  V30 3423 O 334.905 1.93594 0.187528 0
M  V30 3424 C 335.188 1.46625 -3.28897 0
M  V30 3425 C 335.041 0.477515 -4.47258 0
M  V30 3426 C 336.36 2.4095 -3.68281 0
M  V30 3427 H 333.479 0.276351 -0.683227 0
M  V30 3428 H 336.121 0.0272868 -1.8998 0
M  V30 3429 H 334.271 2.09438 -3.27212 0
M  V30 3430 H 335.943 -0.145922 -4.61069 0
M  V30 3431 H 334.186 -0.206576 -4.33308 0
M  V30 3432 H 334.857 1.0065 -5.42746 0
M  V30 3433 H 337.333 1.88209 -3.71102 0
M  V30 3434 H 336.209 2.87072 -4.67847 0
M  V30 3435 H 336.47 3.26049 -2.98571 0
M  V30 3436 N 335.529 1.53961 0.336706 0
M  V30 3437 C 336.754 1.75797 1.10046 0
M  V30 3438 C 337.179 0.498985 1.81361 0
M  V30 3439 O 336.537 -0.548769 1.72795 0
M  V30 3440 C 336.585 2.94257 2.08436 0
M  V30 3441 O 335.689 2.64883 3.16087 0
M  V30 3442 H 335.03 0.582936 0.317934 0
M  V30 3443 H 337.56 2.00945 0.38501 0
M  V30 3444 H 337.57 3.21237 2.51537 0
M  V30 3445 H 336.245 3.85564 1.55927 0
M  V30 3446 H 334.822 2.48812 2.77753 0
M  V30 3447 N 337.007 -0.598083 1.45811 0
M  V30 3448 C 338.235 -1.38322 1.53866 0
M  V30 3449 C 338.65 -1.87992 0.174479 0
M  V30 3450 O 338.007 -1.62756 -0.825627 0
M  V30 3451 C 338.058 -2.58125 2.53089 0
M  V30 3452 O 337.779 -2.10516 3.84206 0
M  V30 3453 C 339.28 -3.50869 2.70935 0
M  V30 3454 H 336.5 -0.423093 0.520801 0
M  V30 3455 H 339.044 -0.728527 1.91083 0
M  V30 3456 H 337.199 -3.19615 2.18917 0
M  V30 3457 H 337.613 -2.88425 4.38077 0
M  V30 3458 H 339.087 -4.31451 3.44317 0
M  V30 3459 H 339.564 -4.01822 1.77301 0
M  V30 3460 H 340.17 -2.95225 3.06141 0
M  V30 3461 N 338.485 -1.33259 -0.841409 0
M  V30 3462 C 339.896 -1.22066 -1.41269 0
M  V30 3463 C 340.247 0.161479 -1.95534 0
M  V30 3464 O 339.372 1.06094 -1.88608 0
M  V30 3465 C 339.967 -2.20996 -2.568 0
M  V30 3466 C 338.526 -2.13649 -3.09888 0
M  V30 3467 C 337.673 -2.08623 -1.82679 0
M  V30 3468 H 340.624 -1.44895 -0.647395 0
M  V30 3469 H 340.645 -1.81621 -3.34356 0
M  V30 3470 H 340.157 -3.2158 -2.17274 0
M  V30 3471 H 338.258 -1.16359 -3.53965 0
M  V30 3472 H 338.371 -3.04079 -3.70234 0
M  V30 3473 H 336.735 -1.54061 -2.02824 0
M  V30 3474 H 337.518 -3.1101 -1.45353 0
M  V30 3475 N 339.963 1.05934 -1.16686 0
M  V30 3476 C 341.211 1.78447 -0.948744 0
M  V30 3477 C 341.532 1.87813 0.524523 0
M  V30 3478 O 340.802 1.38945 1.38098 0
M  V30 3479 H 339.382 0.660971 -0.348033 0
M  V30 3480 H 342.044 1.27947 -1.47022 0
M  V30 3481 H 341.14 2.80394 -1.37061 0
M  V30 3482 N 341.441 0.965919 1.2453 0
M  V30 3483 C 342.388 0.49402 2.25451 0
M  V30 3484 C 343.358 -0.45948 1.59618 0
M  V30 3485 O 344.543 -0.370238 1.87173 0
M  V30 3486 C 341.683 -0.211359 3.44452 0
M  V30 3487 C 340.796 0.7807 4.24887 0
M  V30 3488 C 339.931 0.0516105 5.31175 0
M  V30 3489 C 338.97 1.03385 6.03306 0
M  V30 3490 N 338.107 0.334887 7.01301 0
M  V30 3491 H 342.947 1.35946 2.65184 0
M  V30 3492 H 340.484 0.681515 1.3036 0
M  V30 3493 H 342.442 -0.637 4.12308 0
M  V30 3494 H 341.072 -1.04077 3.05562 0
M  V30 3495 H 340.124 1.32479 3.56586 0
M  V30 3496 H 341.436 1.52978 4.74762 0
M  V30 3497 H 340.59 -0.432114 6.05159 0
M  V30 3498 H 339.329 -0.730179 4.82203 0
M  V30 3499 H 338.334 1.52847 5.28127 0
M  V30 3500 H 339.559 1.81606 6.54367 0
M  V30 3501 H 337.505 -0.427959 6.54603 0
M  V30 3502 H 337.422 1.02287 7.49048 0
M  V30 3503 H 338.69 -0.126928 7.79397 0
M  V30 3504 N 342.919 -1.39368 0.735821 0
M  V30 3505 C 344.165 -2.01272 0.293439 0
M  V30 3506 C 344.52 -1.57344 -1.10728 0
M  V30 3507 O 343.813 -0.792744 -1.74431 0
M  V30 3508 C 344.007 -3.5583 0.334651 0
M  V30 3509 C 343.836 -4.14764 1.73784 0
M  V30 3510 C 342.606 -4.47315 2.35026 0
M  V30 3511 C 344.804 -4.38246 2.69157 0
M  V30 3512 N 342.786 -4.91756 3.6749 0
M  V30 3513 C 344.157 -4.849 3.86357 0
M  V30 3514 C 346.212 -4.20315 2.66908 0
M  V30 3515 C 344.915 -5.15505 5.01645 0
M  V30 3516 C 346.941 -4.52033 3.8134 0
M  V30 3517 C 346.303 -4.98895 4.97276 0
M  V30 3518 H 342.402 -0.766756 0.153652 0
M  V30 3519 H 344.986 -1.69276 0.961967 0
M  V30 3520 H 343.157 -3.87212 -0.303527 0
M  V30 3521 H 344.889 -4.04503 -0.126358 0
M  V30 3522 H 341.644 -4.35143 1.86943 0
M  V30 3523 H 342.068 -5.18333 4.35499 0
M  V30 3524 H 346.71 -3.83287 1.78468 0
M  V30 3525 H 344.428 -5.51437 5.90713 0
M  V30 3526 H 348.014 -4.39781 3.80899 0
M  V30 3527 H 346.894 -5.22973 5.84353 0
M  V30 3528 N 344.397 -0.483516 -1.5 0
M  V30 3529 C 345.644 0.0671597 -2.02389 0
M  V30 3530 C 345.972 1.38597 -1.36459 0
M  V30 3531 O 345.227 1.89634 -0.483458 0
M  V30 3532 C 345.526 0.286226 -3.56252 0
M  V30 3533 C 345.192 -0.952416 -4.40726 0
M  V30 3534 C 343.854 -1.29199 -4.63531 0
M  V30 3535 C 346.206 -1.77655 -4.89988 0
M  V30 3536 C 343.534 -2.45553 -5.32842 0
M  V30 3537 C 345.886 -2.93147 -5.60578 0
M  V30 3538 C 344.55 -3.27505 -5.81633 0
M  V30 3539 H 343.82 0.0245755 -0.740592 0
M  V30 3540 H 346.467 -0.640124 -1.80485 0
M  V30 3541 H 344.772 1.07587 -3.76739 0
M  V30 3542 H 346.469 0.726473 -3.94365 0
M  V30 3543 H 343.059 -0.677881 -4.23205 0
M  V30 3544 H 347.243 -1.52737 -4.72213 0
M  V30 3545 H 342.499 -2.72431 -5.47349 0
M  V30 3546 H 346.673 -3.57344 -5.97727 0
M  V30 3547 H 344.3 -4.1777 -6.35116 0
M  V30 3548 N 345.875 1.56104 -0.216619 0
M  V30 3549 C 347.121 1.98466 0.417033 0
M  V30 3550 C 347.454 1.10403 1.59765 0
M  V30 3551 O 346.729 0.160632 1.93836 0
M  V30 3552 C 347.012 3.49769 0.85637 0
M  V30 3553 C 346.865 4.48606 -0.327546 0
M  V30 3554 C 348.184 4.05339 1.7143 0
M  V30 3555 H 345.303 0.721551 0.150112 0
M  V30 3556 H 347.945 1.87423 -0.311864 0
M  V30 3557 H 346.095 3.5931 1.47745 0
M  V30 3558 H 347.767 4.5108 -0.965618 0
M  V30 3559 H 346.01 4.22682 -0.975805 0
M  V30 3560 H 346.681 5.51995 0.0227149 0
M  V30 3561 H 349.157 3.98712 1.19031 0
M  V30 3562 H 348.033 5.11533 1.99061 0
M  V30 3563 H 348.294 3.51918 2.67593 0
M  V30 3564 N 347.353 -0.0568162 1.57498 0
M  V30 3565 C 348.283 -1.06593 2.0775 0
M  V30 3566 C 349.264 -1.39448 0.974082 0
M  V30 3567 O 350.449 -1.48815 1.24771 0
M  V30 3568 C 347.579 -2.37509 2.5339 0
M  V30 3569 C 346.533 -2.1897 3.67745 0
M  V30 3570 C 345.859 -3.55402 3.99492 0
M  V30 3571 C 347.159 -1.59859 4.97235 0
M  V30 3572 H 348.853 -0.647706 2.9231 0
M  V30 3573 H 346.399 -0.310116 1.40621 0
M  V30 3574 H 348.352 -3.08409 2.87162 0
M  V30 3575 H 347.076 -2.8134 1.65878 0
M  V30 3576 H 345.735 -1.50508 3.3428 0
M  V30 3577 H 345.383 -3.9683 3.09088 0
M  V30 3578 H 345.083 -3.43831 4.76502 0
M  V30 3579 H 346.607 -4.27708 4.35773 0
M  V30 3580 H 348.021 -2.20642 5.29141 0
M  V30 3581 H 346.418 -1.58942 5.78669 0
M  V30 3582 H 347.488 -0.561506 4.81638 0
M  V30 3583 N 348.832 -1.54138 -0.328536 0
M  V30 3584 C 349.762 -1.86167 -1.40939 0
M  V30 3585 C 350.743 -0.718044 -1.54202 0
M  V30 3586 O 351.928 -0.971328 -1.68163 0
M  V30 3587 C 349.058 -2.08461 -2.77779 0
M  V30 3588 C 348.012 -3.24299 -2.7931 0
M  V30 3589 C 347.338 -3.31955 -4.19178 0
M  V30 3590 C 348.638 -4.62065 -2.43502 0
M  V30 3591 H 350.332 -2.76689 -1.14383 0
M  V30 3592 H 347.878 -1.33132 -0.548806 0
M  V30 3593 H 349.831 -2.29453 -3.53454 0
M  V30 3594 H 348.555 -1.14684 -3.05802 0
M  V30 3595 H 347.214 -3.03187 -2.0609 0
M  V30 3596 H 346.862 -2.35745 -4.44335 0
M  V30 3597 H 346.562 -4.09805 -4.2111 0
M  V30 3598 H 348.086 -3.55175 -4.96672 0
M  V30 3599 H 349.5 -4.8297 -3.08889 0
M  V30 3600 H 347.897 -5.42429 -2.56693 0
M  V30 3601 H 348.967 -4.64652 -1.38659 0
M  V30 3602 N 350.31 0.590341 -1.46126 0
M  V30 3603 C 351.587 1.35029 -1.41515 0
M  V30 3604 C 351.967 2.10888 -0.0946472 0
M  V30 3605 O 351.315 2.08998 0.923693 0
M  V30 3606 C 351.525 2.28269 -2.63997 0
M  V30 3607 C 352.873 2.90338 -3.09821 0
M  V30 3608 O 353.897 2.38585 -2.64492 0
M  V30 3609 O 352.756 3.84321 -3.88535 0
M  V30 3610 H 349.85 0.606317 -0.562413 0
M  V30 3611 H 352.396 0.611994 -1.58281 0
M  V30 3612 H 351.168 1.71591 -3.51671 0
M  V30 3613 H 350.791 3.0945 -2.49652 0
M  V30 3614 N 351.788 1.33704 0.83433 0
M  V30 3615 C 352.751 1.24244 1.92603 0
M  V30 3616 C 353.751 0.160383 1.59998 0
M  V30 3617 O 354.941 0.412228 1.69252 0
M  V30 3618 C 352.073 0.91555 3.28376 0
M  V30 3619 H 353.266 2.21287 2.02416 0
M  V30 3620 H 350.819 1.17827 1.02696 0
M  V30 3621 H 351.554 -0.0521886 3.24258 0
M  V30 3622 H 351.339 1.69811 3.53422 0
M  V30 3623 H 352.829 0.874231 4.08347 0
M  V30 3624 N 353.266 -1.05314 1.17247 0
M  V30 3625 C 354.229 -2.112 0.890357 0
M  V30 3626 C 355.229 -1.60359 -0.118943 0
M  V30 3627 O 356.419 -1.73833 0.113086 0
M  V30 3628 C 353.551 -3.39266 0.333422 0
M  V30 3629 H 354.744 -2.37659 1.82916 0
M  V30 3630 H 352.297 -1.21538 0.982758 0
M  V30 3631 H 353.032 -3.18462 -0.612587 0
M  V30 3632 H 352.817 -3.77477 1.06082 0
M  V30 3633 H 354.307 -4.17315 0.154322 0
M  V30 3634 N 354.744 -0.972509 -1.24016 0
M  V30 3635 C 355.969 -0.654417 -1.96805 0
M  V30 3636 C 356.394 0.770398 -1.716 0
M  V30 3637 O 355.752 1.52361 -0.982647 0
M  V30 3638 C 355.8 -0.941031 -3.48105 0
M  V30 3639 O 354.904 -0.0289472 -4.1239 0
M  V30 3640 H 354.245 -0.24692 -0.616382 0
M  V30 3641 H 356.775 -1.30396 -1.57664 0
M  V30 3642 H 356.785 -0.87452 -3.98517 0
M  V30 3643 H 355.46 -1.97939 -3.65777 0
M  V30 3644 H 354.037 -0.149192 -3.72601 0
M  V30 3645 N 356.222 1.38976 -0.743202 0
M  V30 3646 C 357.452 2.04339 -0.304807 0
M  V30 3647 C 357.86 1.56162 1.06819 0
M  V30 3648 O 357.203 0.725284 1.68776 0
M  V30 3649 C 357.265 3.58716 -0.237369 0
M  V30 3650 C 356.929 4.29905 -1.55018 0
M  V30 3651 C 357.926 4.55987 -2.49744 0
M  V30 3652 C 355.611 4.68294 -1.81675 0
M  V30 3653 C 357.605 5.19478 -3.69353 0
M  V30 3654 C 355.292 5.31512 -3.0156 0
M  V30 3655 C 356.29 5.57037 -3.9522 0
M  V30 3656 O 355.978 6.18941 -5.12998 0
M  V30 3657 H 355.71 0.663439 -0.12971 0
M  V30 3658 H 358.264 1.78852 -1.01001 0
M  V30 3659 H 356.494 3.83133 0.524003 0
M  V30 3660 H 358.183 4.05543 0.170121 0
M  V30 3661 H 358.949 4.26767 -2.30423 0
M  V30 3662 H 354.828 4.47779 -1.09615 0
M  V30 3663 H 358.372 5.39318 -4.42473 0
M  V30 3664 H 354.269 5.60153 -3.20778 0
M  V30 3665 H 355.037 6.37433 -5.13441 0
M  V30 3666 N 357.7 0.491464 1.49741 0
M  V30 3667 C 358.946 -0.0565092 2.02721 0
M  V30 3668 C 359.279 -1.37522 1.37118 0
M  V30 3669 O 358.554 -1.87866 0.503645 0
M  V30 3670 C 358.837 -0.219051 3.59433 0
M  V30 3671 C 358.69 1.12211 4.35579 0
M  V30 3672 C 360.009 -0.964157 4.29409 0
M  V30 3673 H 357.128 -0.0190627 0.736753 0
M  V30 3674 H 359.77 0.641021 1.7886 0
M  V30 3675 H 357.92 -0.813165 3.79895 0
M  V30 3676 H 359.592 1.75437 4.26637 0
M  V30 3677 H 357.835 1.71377 3.98513 0
M  V30 3678 H 358.506 0.961794 5.43556 0
M  V30 3679 H 360.982 -0.460378 4.13545 0
M  V30 3680 H 359.858 -1.04671 5.38828 0
M  V30 3681 H 360.119 -2.00563 3.93988 0
M  V30 3682 N 359.178 -1.55987 0.224894 0
M  V30 3683 C 360.403 -2.03232 -0.41369 0
M  V30 3684 C 360.828 -1.10359 -1.52323 0
M  V30 3685 O 360.186 -0.092395 -1.81064 0
M  V30 3686 C 360.234 -3.48682 -0.919405 0
M  V30 3687 O 359.338 -3.58947 -2.03054 0
M  V30 3688 H 358.679 -0.657428 -0.0931903 0
M  V30 3689 H 361.209 -2.01679 0.34451 0
M  V30 3690 H 361.219 -3.8907 -1.22835 0
M  V30 3691 H 359.894 -4.15761 -0.107339 0
M  V30 3692 H 358.471 -3.30448 -1.72796 0
M  V30 3693 N 360.656 0.0484629 -1.57525 0
M  V30 3694 C 361.884 0.755421 -1.92616 0
M  V30 3695 C 362.299 1.69919 -0.822984 0
M  V30 3696 O 361.656 1.81378 0.202085 0
M  V30 3697 C 361.707 1.52915 -3.27566 0
M  V30 3698 O 361.428 0.62329 -4.33644 0
M  V30 3699 C 362.929 2.33502 -3.76818 0
M  V30 3700 H 360.149 0.213465 -0.63614 0
M  V30 3701 H 362.693 0.0117698 -2.04497 0
M  V30 3702 H 360.848 2.22486 -3.17142 0
M  V30 3703 H 361.262 1.16383 -5.11425 0
M  V30 3704 H 362.736 2.83214 -4.73808 0
M  V30 3705 H 363.213 3.14068 -3.07014 0
M  V30 3706 H 363.819 1.69043 -3.90262 0
M  V30 3707 N 362.134 1.5431 0.320358 0
M  V30 3708 C 363.359 1.76954 1.08175 0
M  V30 3709 C 363.784 0.518193 1.80821 0
M  V30 3710 O 363.142 -0.530411 1.73368 0
M  V30 3711 C 363.19 2.96451 2.05303 0
M  V30 3712 O 362.294 2.68221 3.13259 0
M  V30 3713 H 361.635 0.586275 0.311733 0
M  V30 3714 H 364.165 2.01342 0.363676 0
M  V30 3715 H 364.175 3.23887 2.48116 0
M  V30 3716 H 362.85 3.87196 1.51829 0
M  V30 3717 H 361.427 2.51744 2.75099 0
M  V30 3718 N 363.613 -0.582584 1.46437 0
M  V30 3719 C 365.024 -1.1647 1.45916 0
M  V30 3720 C 365.375 -1.95177 0.200077 0
M  V30 3721 O 364.5 -2.04874 -0.696819 0
M  V30 3722 C 365.095 -2.11885 2.64367 0
M  V30 3723 C 363.654 -2.65421 2.66887 0
M  V30 3724 C 362.801 -1.41294 2.38603 0
M  V30 3725 H 365.752 -0.370514 1.54314 0
M  V30 3726 H 365.773 -2.9535 2.39892 0
M  V30 3727 H 365.285 -1.54573 3.5599 0
M  V30 3728 H 363.386 -3.26602 1.79338 0
M  V30 3729 H 363.499 -3.08147 3.66854 0
M  V30 3730 H 361.863 -1.71109 1.88663 0
M  V30 3731 H 362.646 -0.858125 3.32402 0
M  V30 3732 N 365.091 -1.34144 -0.827227 0
M  V30 3733 C 366.021 -1.28005 -1.95287 0
M  V30 3734 C 367.002 -0.158321 -1.69362 0
M  V30 3735 O 368.187 -0.349987 -1.9102 0
M  V30 3736 C 365.317 -1.03036 -3.31664 0
M  V30 3737 C 364.271 -2.11628 -3.72019 0
M  V30 3738 C 363.597 -1.71854 -5.0633 0
M  V30 3739 C 364.897 -3.53417 -3.8457 0
M  V30 3740 H 366.591 -2.22187 -2.00682 0
M  V30 3741 H 364.137 -1.0696 -0.964135 0
M  V30 3742 H 366.09 -0.973863 -4.09993 0
M  V30 3743 H 364.814 -0.0529391 -3.26557 0
M  V30 3744 H 363.473 -2.16339 -2.95961 0
M  V30 3745 H 363.121 -0.727841 -4.97706 0
M  V30 3746 H 362.821 -2.44531 -5.34302 0
M  V30 3747 H 364.345 -1.67692 -5.87122 0
M  V30 3748 H 365.759 -3.51142 -4.5318 0
M  V30 3749 H 364.156 -4.24679 -4.2399 0
M  V30 3750 H 365.226 -3.91072 -2.86689 0
M  V30 3751 N 366.569 1.04691 -1.17803 0
M  V30 3752 C 367.846 1.7472 -0.879328 0
M  V30 3753 C 368.226 2.01812 0.619271 0
M  V30 3754 O 367.574 1.65824 1.57209 0
M  V30 3755 C 367.784 3.03686 -1.71976 0
M  V30 3756 C 369.132 3.77542 -1.94286 0
M  V30 3757 O 370.156 3.13569 -1.68976 0
M  V30 3758 O 369.015 4.92506 -2.36855 0
M  V30 3759 H 366.109 0.760011 -0.326056 0
M  V30 3760 H 368.655 1.10813 -1.28525 0
M  V30 3761 H 367.427 2.79754 -2.73594 0
M  V30 3762 H 367.05 3.75332 -1.31194 0
M  V30 3763 N 368.047 0.979072 1.23499 0
M  V30 3764 C 368.977 0.537606 2.27227 0
M  V30 3765 C 369.958 -0.428539 1.64613 0
M  V30 3766 O 371.143 -0.322191 1.91509 0
M  V30 3767 C 368.273 -0.162052 3.46922 0
M  V30 3768 C 367.227 0.721242 4.21879 0
M  V30 3769 C 366.553 -0.110555 5.34586 0
M  V30 3770 C 367.853 2.01141 4.82016 0
M  V30 3771 H 369.547 1.40462 2.64406 0
M  V30 3772 H 367.093 0.67684 1.27102 0
M  V30 3773 H 369.046 -0.482192 4.18632 0
M  V30 3774 H 367.77 -1.06351 3.08799 0
M  V30 3775 H 366.429 1.02482 3.51984 0
M  V30 3776 H 366.077 -1.0125 4.92704 0
M  V30 3777 H 365.777 0.477325 5.85658 0
M  V30 3778 H 367.301 -0.425107 6.09118 0
M  V30 3779 H 368.715 1.75612 5.45741 0
M  V30 3780 H 367.112 2.54695 5.43369 0
M  V30 3781 H 368.182 2.69909 4.02836 0
M  V30 3782 N 369.525 -1.3858 0.750561 0
M  V30 3783 C 370.75 -2.04997 0.314812 0
M  V30 3784 C 371.175 -1.56235 -1.04749 0
M  V30 3785 O 370.533 -0.712981 -1.66692 0
M  V30 3786 C 370.581 -3.58961 0.343415 0
M  V30 3787 O 369.685 -4.07025 -0.663628 0
M  V30 3788 H 369.026 -0.649081 0.139962 0
M  V30 3789 H 371.556 -1.77313 1.02084 0
M  V30 3790 H 371.566 -4.07542 0.193233 0
M  V30 3791 H 370.241 -3.93811 1.33738 0
M  V30 3792 H 368.818 -3.6982 -0.478307 0
M  V30 3793 N 371.003 -0.499398 -1.49478 0
M  V30 3794 C 371.966 0.268838 -2.27618 0
M  V30 3795 C 372.966 0.895383 -1.33565 0
M  V30 3796 O 374.156 0.760164 -1.56739 0
M  V30 3797 C 371.288 1.38559 -3.11471 0
M  V30 3798 H 372.481 -0.416812 -2.96989 0
M  V30 3799 H 370.034 -0.254313 -1.54217 0
M  V30 3800 H 370.769 2.10544 -2.46661 0
M  V30 3801 H 370.554 0.941797 -3.80621 0
M  V30 3802 H 372.044 1.92678 -3.70493 0
M  V30 3803 N 372.481 1.55866 -0.233164 0
M  V30 3804 C 373.431 2.17442 0.685774 0
M  V30 3805 C 374.415 1.12617 1.14918 0
M  V30 3806 O 375.607 1.3857 1.10124 0
M  V30 3807 C 372.736 2.86685 1.88856 0
M  V30 3808 C 371.822 3.98749 1.4443 0
M  V30 3809 N 372.213 5.00744 0.713364 0
M  V30 3810 C 370.511 4.11052 1.73068 0
M  V30 3811 C 371.212 5.79673 0.485205 0
M  V30 3812 N 370.188 5.33454 1.04536 0
M  V30 3813 H 373.99 2.93659 0.119022 0
M  V30 3814 H 371.504 1.62362 -0.0348995 0
M  V30 3815 H 373.501 3.29218 2.55776 0
M  V30 3816 H 372.161 2.11967 2.45967 0
M  V30 3817 H 373.172 5.16613 0.364861 0
M  V30 3818 H 369.849 3.47495 2.31416 0
M  V30 3819 H 371.239 6.71829 -0.097365 0
M  V30 3820 N 373.959 -0.0401083 1.57549 0
M  V30 3821 C 374.891 -1.07149 2.02612 0
M  V30 3822 C 375.904 -1.33126 0.937085 0
M  V30 3823 O 377.093 -1.30808 1.21456 0
M  V30 3824 C 374.193 -2.41561 2.37701 0
M  V30 3825 C 373.366 -2.35096 3.68848 0
M  V30 3826 C 372.425 -3.51867 3.91249 0
M  V30 3827 O 371.451 -3.3186 4.62447 0
M  V30 3828 N 372.653 -4.73351 3.36035 0
M  V30 3829 H 375.418 -0.687485 2.91708 0
M  V30 3830 H 372.979 -0.228248 1.60283 0
M  V30 3831 H 374.971 -3.18379 2.49833 0
M  V30 3832 H 373.541 -2.71846 1.54332 0
M  V30 3833 H 372.761 -1.4345 3.67173 0
M  V30 3834 H 374.049 -2.27908 4.54901 0
M  V30 3835 H 373.447 -4.92507 2.78304 0
M  V30 3836 H 372.004 -5.47572 3.53565 0
M  V30 3837 N 375.437 -1.54477 -0.31217 0
M  V30 3838 C 376.4 -1.83923 -1.36766 0
M  V30 3839 C 377.4 -0.711563 -1.44199 0
M  V30 3840 O 378.59 -0.979866 -1.44029 0
M  V30 3841 C 375.722 -2.0095 -2.75376 0
M  V30 3842 H 376.915 -2.78239 -1.11906 0
M  V30 3843 H 374.468 -1.46369 -0.548257 0
M  V30 3844 H 375.203 -1.08883 -3.05475 0
M  V30 3845 H 374.988 -2.83018 -2.71373 0
M  V30 3846 H 376.478 -2.2514 -3.51713 0
M  V30 3847 N 376.915 0.57481 -1.46744 0
M  V30 3848 C 378.192 1.3352 -1.4294 0
M  V30 3849 C 378.572 2.10775 -0.117009 0
M  V30 3850 O 377.92 2.09966 0.901474 0
M  V30 3851 C 378.13 2.25456 -2.66403 0
M  V30 3852 C 379.478 2.87035 -3.12883 0
M  V30 3853 O 380.502 2.35766 -2.67007 0
M  V30 3854 O 379.361 3.80179 -3.92589 0
M  V30 3855 H 376.455 0.600318 -0.568812 0
M  V30 3856 H 379.001 0.595171 -1.58921 0
M  V30 3857 H 377.773 1.67851 -3.53471 0
M  V30 3858 H 377.396 3.06785 -2.52921 0
M  V30 3859 N 378.394 1.34581 0.820102 0
M  V30 3860 C 379.641 1.27096 1.57648 0
M  V30 3861 C 379.969 -0.158317 1.93855 0
M  V30 3862 O 379.224 -1.12028 1.60463 0
M  V30 3863 C 379.523 2.10997 2.8847 0
M  V30 3864 C 379.189 3.59966 2.71543 0
M  V30 3865 C 377.851 4.00575 2.66634 0
M  V30 3866 C 380.203 4.54548 2.55021 0
M  V30 3867 C 377.531 5.33953 2.43128 0
M  V30 3868 C 379.883 5.88109 2.33047 0
M  V30 3869 C 378.547 6.27878 2.26552 0
M  V30 3870 H 377.817 0.465078 0.576874 0
M  V30 3871 H 380.464 1.6635 0.948671 0
M  V30 3872 H 378.769 1.6458 3.55557 0
M  V30 3873 H 380.466 2.0255 3.46084 0
M  V30 3874 H 377.056 3.27733 2.76205 0
M  V30 3875 H 381.24 4.24069 2.57835 0
M  V30 3876 H 376.496 5.63781 2.3656 0
M  V30 3877 H 380.67 6.60985 2.19251 0
M  V30 3878 H 378.297 7.31162 2.081 0
M  V30 3879 N 379.872 -1.04064 1.18357 0
M  V30 3880 C 381.118 -1.77528 0.980397 0
M  V30 3881 C 381.451 -1.87948 -0.48879 0
M  V30 3882 O 380.726 -1.3876 -1.36293 0
M  V30 3883 C 381.009 -3.20797 1.63588 0
M  V30 3884 C 380.862 -3.1832 3.17793 0
M  V30 3885 C 382.181 -4.18911 1.34914 0
M  V30 3886 H 379.3 -0.644443 0.357578 0
M  V30 3887 H 381.942 -1.2156 1.46024 0
M  V30 3888 H 380.092 -3.68586 1.22788 0
M  V30 3889 H 381.764 -2.78521 3.67728 0
M  V30 3890 H 380.007 -2.56351 3.49952 0
M  V30 3891 H 380.678 -4.19489 3.58794 0
M  V30 3892 H 383.154 -3.7967 1.70265 0
M  V30 3893 H 382.03 -5.17374 1.83346 0
M  V30 3894 H 382.291 -4.41262 0.272027 0
M  V30 3895 N 381.35 -0.985608 -1.22978 0
M  V30 3896 C 382.761 -0.693593 -1.73338 0
M  V30 3897 C 383.112 0.789935 -1.79595 0
M  V30 3898 O 382.237 1.61771 -1.43733 0
M  V30 3899 C 382.832 -1.25235 -3.14804 0
M  V30 3900 C 381.391 -1.00987 -3.626 0
M  V30 3901 C 380.538 -1.37695 -2.40698 0
M  V30 3902 H 383.489 -1.15884 -1.08428 0
M  V30 3903 H 383.51 -0.627329 -3.75293 0
M  V30 3904 H 383.022 -2.33209 -3.10218 0
M  V30 3905 H 381.123 0.0535565 -3.72562 0
M  V30 3906 H 381.236 -1.66812 -4.49122 0
M  V30 3907 H 379.6 -0.795459 -2.4196 0
M  V30 3908 H 380.383 -2.46657 -2.38779 0
M  V30 3909 N 382.828 1.3818 -0.7579 0
M  V30 3910 C 384.077 1.99261 -0.312744 0
M  V30 3911 C 384.39 1.60846 1.11301 0
M  V30 3912 O 385.596 2.14929 1.65885 0
M  V30 3913 C 384.052 3.56294 -0.50821 0
M  V30 3914 C 383.66 4.03657 -1.94333 0
M  V30 3915 C 385.404 4.24313 -0.125982 0
M  V30 3916 C 383.311 5.53347 -2.08712 0
M  V30 3917 H 382.241 0.745456 -0.113185 0
M  V30 3918 H 384.892 1.57889 -0.935056 0
M  V30 3919 H 383.274 3.95575 0.183353 0
M  V30 3920 H 384.448 3.75655 -2.66871 0
M  V30 3921 H 382.763 3.48376 -2.28086 0
M  V30 3922 H 385.36 5.34279 -0.212125 0
M  V30 3923 H 385.703 4.05962 0.921964 0
M  V30 3924 H 386.236 3.90285 -0.769563 0
M  V30 3925 H 382.975 5.76607 -3.11777 0
M  V30 3926 H 382.495 5.83078 -1.4064 0
M  V30 3927 H 384.174 6.19111 -1.87912 0
M  V30 3928 N 384.306 0.507319 1.49211 0
M  V30 3929 C 385.531 -0.033725 2.07373 0
M  V30 3930 C 385.956 -1.29485 1.36437 0
M  V30 3931 O 385.314 -1.76294 0.423087 0
M  V30 3932 C 385.362 -0.263945 3.59633 0
M  V30 3933 O 384.466 -1.33737 3.90113 0
M  V30 3934 H 383.807 0.0290331 0.663365 0
M  V30 3935 H 386.337 0.708749 1.91932 0
M  V30 3936 H 386.347 -0.493536 4.05004 0
M  V30 3937 H 385.022 0.657424 4.10671 0
M  V30 3938 H 383.599 -1.09224 3.56545 0
M  V30 3939 N 385.784 -1.5574 0.241426 0
M  V30 3940 C 387.031 -1.9881 -0.384836 0
M  V30 3941 C 387.359 -1.12947 -1.58346 0
M  V30 3942 O 386.614 -0.178993 -1.9488 0
M  V30 3943 C 386.913 -3.47308 -0.843317 0
M  V30 3944 C 386.579 -4.50223 0.246946 0
M  V30 3945 C 385.241 -4.78088 0.546399 0
M  V30 3946 C 387.593 -5.11841 0.983282 0
M  V30 3947 C 384.921 -5.64846 1.58636 0
M  V30 3948 C 387.273 -5.99727 2.01272 0
M  V30 3949 C 385.937 -6.25927 2.31888 0
M  V30 3950 H 385.207 -0.727496 -0.140821 0
M  V30 3951 H 387.854 -1.8831 0.348106 0
M  V30 3952 H 386.159 -3.55112 -1.65537 0
M  V30 3953 H 387.856 -3.78017 -1.33806 0
M  V30 3954 H 384.446 -4.286 0.00340639 0
M  V30 3955 H 388.63 -4.90366 0.765182 0
M  V30 3956 H 383.886 -5.83403 1.82896 0
M  V30 3957 H 388.06 -6.46517 2.58823 0
M  V30 3958 H 385.687 -6.92949 3.12611 0
M  V30 3959 N 387.262 0.0317525 -1.57568 0
M  V30 3960 C 388.492 0.733884 -1.93126 0
M  V30 3961 C 388.9 1.69563 -0.839352 0
M  V30 3962 O 388.243 1.82681 0.193175 0
M  V30 3963 C 388.305 1.54798 -3.24465 0
M  V30 3964 C 387.969 0.751304 -4.50782 0
M  V30 3965 C 388.966 0.0527632 -5.19873 0
M  V30 3966 C 386.651 0.706639 -4.97305 0
M  V30 3967 C 388.645 -0.679774 -6.33765 0
M  V30 3968 C 386.332 -0.0296449 -6.11093 0
M  V30 3969 C 387.33 -0.721614 -6.79177 0
M  V30 3970 O 387.018 -1.44595 -7.90789 0
M  V30 3971 H 386.75 0.211459 -0.642076 0
M  V30 3972 H 389.304 -0.00585615 -2.05399 0
M  V30 3973 H 387.534 2.33147 -3.08512 0
M  V30 3974 H 389.223 2.13247 -3.4537 0
M  V30 3975 H 389.989 0.0783188 -4.84937 0
M  V30 3976 H 385.868 1.23474 -4.44157 0
M  V30 3977 H 389.412 -1.22042 -6.86842 0
M  V30 3978 H 385.309 -0.0571331 -6.45475 0
M  V30 3979 H 386.077 -1.35935 -8.07133 0
M  V30 3980 N 388.74 1.54641 0.303973 0
M  V30 3981 C 389.687 1.85386 1.37479 0
M  V30 3982 C 390.657 0.702528 1.50512 0
M  V30 3983 O 391.842 0.950867 1.65418 0
M  V30 3984 C 388.982 2.10413 2.73533 0
M  V30 3985 C 388.095 3.38049 2.68974 0
M  V30 3986 C 387.23 3.52934 3.97002 0
M  V30 3987 C 386.269 4.74373 3.86829 0
M  V30 3988 N 385.406 4.8608 5.06627 0
M  V30 3989 H 390.246 2.76732 1.1056 0
M  V30 3990 H 387.783 1.37034 0.534805 0
M  V30 3991 H 389.741 2.22919 3.52652 0
M  V30 3992 H 388.371 1.22338 2.98719 0
M  V30 3993 H 387.423 3.3418 1.81736 0
M  V30 3994 H 388.735 4.27288 2.57346 0
M  V30 3995 H 387.889 3.65088 4.84557 0
M  V30 3996 H 386.628 2.61824 4.1146 0
M  V30 3997 H 385.633 4.62255 2.97658 0
M  V30 3998 H 386.858 5.66888 3.73918 0
M  V30 3999 H 384.804 3.97891 5.21554 0
M  V30 4000 H 384.721 5.69315 4.9741 0
M  V30 4001 H 385.989 5.02587 5.95841 0
M  V30 4002 N 390.218 -0.567019 1.47046 0
M  V30 4003 C 391.467 -1.32091 1.5243 0
M  V30 4004 C 391.78 -1.94704 0.187021 0
M  V30 4005 O 392.986 -2.7124 0.118771 0
M  V30 4006 C 391.442 -2.39479 2.68659 0
M  V30 4007 C 391.05 -1.831 4.08874 0
M  V30 4008 C 392.794 -3.16111 2.83327 0
M  V30 4009 C 390.701 -2.8821 5.16419 0
M  V30 4010 H 389.631 -0.496629 0.56734 0
M  V30 4011 H 392.282 -0.603354 1.73297 0
M  V30 4012 H 390.664 -3.14105 2.41152 0
M  V30 4013 H 391.838 -1.14913 4.46242 0
M  V30 4014 H 390.153 -1.19085 3.99008 0
M  V30 4015 H 392.75 -3.94585 3.60842 0
M  V30 4016 H 393.093 -3.69686 1.91411 0
M  V30 4017 H 393.626 -2.48595 3.10556 0
M  V30 4018 H 390.365 -2.39504 6.10179 0
M  V30 4019 H 389.885 -3.54839 4.8358 0
M  V30 4020 H 391.564 -3.51881 5.42945 0
M  V30 4021 N 391.696 -1.35014 -0.812953 0
M  V30 4022 C 392.943 -1.27931 -1.56971 0
M  V30 4023 C 393.271 0.148034 -1.93936 0
M  V30 4024 O 392.526 1.11175 -1.61054 0
M  V30 4025 C 392.825 -2.12524 -2.87347 0
M  V30 4026 C 392.491 -3.61401 -2.6963 0
M  V30 4027 C 391.153 -4.01983 -2.64506 0
M  V30 4028 C 393.505 -4.55894 -2.52607 0
M  V30 4029 C 390.833 -5.35235 -2.40293 0
M  V30 4030 C 393.185 -5.89336 -2.29925 0
M  V30 4031 C 391.849 -6.2907 -2.23219 0
M  V30 4032 H 391.119 -0.468131 -0.574399 0
M  V30 4033 H 393.766 -1.66851 -0.939836 0
M  V30 4034 H 392.071 -1.66463 -3.54679 0
M  V30 4035 H 393.768 -2.04383 -3.45005 0
M  V30 4036 H 390.358 -3.29193 -2.74463 0
M  V30 4037 H 394.542 -4.25431 -2.55583 0
M  V30 4038 H 389.798 -5.65028 -2.33566 0
M  V30 4039 H 393.972 -6.62139 -2.15743 0
M  V30 4040 H 391.599 -7.32256 -2.04219 0
M  V30 4041 N 393.175 1.03435 -1.18907 0
M  V30 4042 C 394.423 1.76394 -0.986382 0
M  V30 4043 C 394.744 1.88883 0.484567 0
M  V30 4044 O 394.014 1.41843 1.3512 0
M  V30 4045 H 392.594 0.65344 -0.361975 0
M  V30 4046 H 395.256 1.248 -1.49703 0
M  V30 4047 H 394.352 2.77424 -1.42978 0
M  V30 4048 N 394.653 0.992116 1.22453 0
M  V30 4049 C 395.9 0.667534 1.91181 0
M  V30 4050 C 396.228 -0.800317 1.77271 0
M  V30 4051 O 395.483 -1.59421 1.13505 0
M  V30 4052 C 395.782 1.01832 3.42586 0
M  V30 4053 C 395.448 2.47831 3.76684 0
M  V30 4054 C 394.11 2.87729 3.85701 0
M  V30 4055 C 396.462 3.42466 3.92895 0
M  V30 4056 C 393.79 4.21252 4.08367 0
M  V30 4057 C 396.142 4.75648 4.17064 0
M  V30 4058 C 394.806 5.15288 4.24305 0
M  V30 4059 H 394.076 0.244268 0.699581 0
M  V30 4060 H 396.723 1.24816 1.45235 0
M  V30 4061 H 395.028 0.355769 3.90181 0
M  V30 4062 H 396.725 0.745228 3.94014 0
M  V30 4063 H 393.315 2.15905 3.70247 0
M  V30 4064 H 397.499 3.12814 3.85307 0
M  V30 4065 H 392.755 4.51554 4.122 0
M  V30 4066 H 396.929 5.48924 4.2855 0
M  V30 4067 H 394.556 6.18769 4.41621 0
M  V30 4068 N 396.131 -1.37776 0.765217 0
M  V30 4069 C 397.542 -1.82521 0.392819 0
M  V30 4070 C 397.893 -1.63789 -1.08017 0
M  V30 4071 O 397.018 -1.14542 -1.83601 0
M  V30 4072 C 397.613 -3.31358 0.706214 0
M  V30 4073 C 396.172 -3.74406 0.386952 0
M  V30 4074 C 395.319 -2.60394 0.953422 0
M  V30 4075 H 398.27 -1.2634 0.960412 0
M  V30 4076 H 398.291 -3.80498 -0.0114706 0
M  V30 4077 H 397.803 -3.44959 1.77833 0
M  V30 4078 H 395.904 -3.66377 -0.678112 0
M  V30 4079 H 396.017 -4.70749 0.890636 0
M  V30 4080 H 394.381 -2.51878 0.378064 0
M  V30 4081 H 395.164 -2.76791 2.03081 0
M  V30 4082 N 397.609 -0.515225 -1.4894 0
M  V30 4083 C 398.837 0.0206034 -2.0689 0
M  V30 4084 C 399.252 1.29514 -1.37374 0
M  V30 4085 O 398.609 1.76698 -0.456529 0
M  V30 4086 C 398.66 0.26351 -3.60538 0
M  V30 4087 O 398.381 -0.960517 -4.27441 0
M  V30 4088 C 399.882 0.841383 -4.35242 0
M  V30 4089 H 397.102 -0.0268608 -0.670462 0
M  V30 4090 H 399.646 -0.716651 -1.91532 0
M  V30 4091 H 397.801 0.950777 -3.75552 0
M  V30 4092 H 398.215 -0.73212 -5.19365 0
M  V30 4093 H 399.689 0.96085 -5.43573 0
M  V30 4094 H 400.166 1.8427 -3.98674 0
M  V30 4095 H 400.772 0.191143 -4.2487 0
M  V30 4096 N 399.087 1.5561 -0.249682 0
M  V30 4097 C 400.335 1.98618 0.373548 0
M  V30 4098 C 400.656 1.13919 1.58264 0
M  V30 4099 O 399.926 0.222637 1.94631 0
M  V30 4100 H 398.506 0.733571 0.141006 0
M  V30 4101 H 401.168 1.91748 -0.349117 0
M  V30 4102 H 400.264 3.04584 0.680796 0
M  V30 4103 N 400.565 -0.0233959 1.57583 0
M  V30 4104 C 401.495 -1.02162 2.09965 0
M  V30 4105 C 402.476 -1.3735 1.00344 0
M  V30 4106 O 403.661 -1.46135 1.27899 0
M  V30 4107 C 400.791 -2.32081 2.58371 0
M  V30 4108 C 399.745 -2.1112 3.72307 0
M  V30 4109 C 399.071 -3.46848 4.06941 0
M  V30 4110 C 400.371 -1.49276 5.00514 0
M  V30 4111 H 402.065 -0.585557 2.93618 0
M  V30 4112 H 399.611 -0.280218 1.41247 0
M  V30 4113 H 401.564 -3.02249 2.93639 0
M  V30 4114 H 400.288 -2.77758 1.71808 0
M  V30 4115 H 398.947 -1.43384 3.37397 0
M  V30 4116 H 398.595 -3.90184 3.17436 0
M  V30 4117 H 398.295 -3.33646 4.83688 0
M  V30 4118 H 399.819 -4.18369 4.44747 0
M  V30 4119 H 401.233 -2.09368 5.33702 0
M  V30 4120 H 399.63 -1.46632 5.8191 0
M  V30 4121 H 400.7 -0.459217 4.82721 0
M  V30 4122 N 402.043 -1.548 -0.295768 0
M  V30 4123 C 403.291 -1.73985 -1.02828 0
M  V30 4124 C 403.612 -0.531406 -1.87619 0
M  V30 4125 O 402.882 0.454221 -1.90561 0
M  V30 4126 H 401.462 -0.641556 -0.382642 0
M  V30 4127 H 404.124 -1.92163 -0.325489 0
M  V30 4128 H 403.22 -2.63129 -1.67838 0
M  V30 4129 N 403.521 0.559213 -1.47345 0
M  V30 4130 C 404.484 1.64854 -1.59235 0
M  V30 4131 C 405.484 1.53851 -0.467607 0
M  V30 4132 O 406.674 1.58045 -0.732617 0
M  V30 4133 C 403.806 3.04388 -1.53496 0
M  V30 4134 H 404.999 1.55662 -2.56339 0
M  V30 4135 H 402.552 0.778973 -1.35505 0
M  V30 4136 H 403.287 3.19115 -0.577604 0
M  V30 4137 H 403.072 3.13783 -2.35123 0
M  V30 4138 H 404.562 3.83642 -1.6495 0
M  V30 4139 N 404.999 1.35443 0.805782 0
M  V30 4140 C 405.929 1.31095 1.93226 0
M  V30 4141 C 406.91 0.185244 1.69088 0
M  V30 4142 O 408.095 0.380332 1.90439 0
M  V30 4143 C 405.225 1.08299 3.29983 0
M  V30 4144 C 404.179 2.17519 3.68605 0
M  V30 4145 C 403.505 1.79887 5.03532 0
M  V30 4146 C 404.805 3.5949 3.78898 0
M  V30 4147 H 406.499 2.25352 1.97122 0
M  V30 4148 H 404.045 1.0848 0.946996 0
M  V30 4149 H 405.998 1.03897 4.08391 0
M  V30 4150 H 404.722 0.104885 3.26432 0
M  V30 4151 H 403.381 2.2102 2.92482 0
M  V30 4152 H 403.029 0.80693 4.96485 0
M  V30 4153 H 402.729 2.53001 5.30344 0
M  V30 4154 H 404.253 1.77011 5.84379 0
M  V30 4155 H 405.667 3.58307 4.47536 0
M  V30 4156 H 404.064 4.31371 4.1718 0
M  V30 4157 H 405.134 3.95584 2.80431 0
M  V30 4158 N 406.477 -1.02803 1.19454 0
M  V30 4159 C 407.407 -2.12999 0.956758 0
M  V30 4160 C 408.388 -1.69743 -0.110188 0
M  V30 4161 O 409.573 -1.94148 0.0450038 0
M  V30 4162 C 406.703 -3.43746 0.495553 0
M  V30 4163 C 405.657 -4.00688 1.50443 0
M  V30 4164 C 404.983 -5.27067 0.900275 0
M  V30 4165 C 406.283 -4.35397 2.8849 0
M  V30 4166 H 407.977 -2.33148 1.87836 0
M  V30 4167 H 405.523 -1.12045 0.904539 0
M  V30 4168 H 407.476 -4.2021 0.316493 0
M  V30 4169 H 406.2 -3.23321 -0.461646 0
M  V30 4170 H 404.859 -3.2632 1.67065 0
M  V30 4171 H 404.507 -5.02959 -0.064503 0
M  V30 4172 H 404.207 -5.66127 1.57397 0
M  V30 4173 H 405.731 -6.06196 0.73203 0
M  V30 4174 H 407.145 -5.02795 2.75446 0
M  V30 4175 H 405.542 -4.85541 3.52661 0
M  V30 4176 H 406.612 -3.44662 3.41081 0
M  V30 4177 N 407.956 -0.998596 -1.21925 0
M  V30 4178 C 409.202 -0.678667 -1.91107 0
M  V30 4179 C 409.535 0.78791 -1.77498 0
M  V30 4180 O 408.81 1.57043 -1.1475 0
M  V30 4181 C 409.093 -1.09245 -3.43129 0
M  V30 4182 C 408.946 -2.61801 -3.6576 0
M  V30 4183 C 410.265 -0.649984 -4.35274 0
M  V30 4184 H 407.384 -0.248025 -0.694012 0
M  V30 4185 H 410.026 -1.24314 -1.43688 0
M  V30 4186 H 408.176 -0.612171 -3.83647 0
M  V30 4187 H 409.848 -3.17543 -3.34611 0
M  V30 4188 H 408.091 -3.03609 -3.09845 0
M  V30 4189 H 408.762 -2.85804 -4.7225 0
M  V30 4190 H 411.238 -1.0626 -4.02303 0
M  V30 4191 H 410.114 -0.967743 -5.40302 0
M  V30 4192 H 410.375 0.449139 -4.39813 0
M  V30 4193 N 409.434 1.37368 -0.772513 0
M  V30 4194 C 410.384 2.27613 -0.132823 0
M  V30 4195 C 411.368 1.46138 0.673247 0
M  V30 4196 O 412.56 1.68686 0.536095 0
M  V30 4197 C 409.689 3.35122 0.744864 0
M  V30 4198 C 408.775 4.24044 -0.0690771 0
M  V30 4199 N 409.166 4.93355 -1.1151 0
M  V30 4200 C 407.464 4.45731 0.154782 0
M  V30 4201 C 408.165 5.59 -1.60917 0
M  V30 4202 N 407.141 5.35737 -0.921222 0
M  V30 4203 H 410.943 2.78675 -0.933681 0
M  V30 4204 H 408.457 1.50494 -0.610342 0
M  V30 4205 H 410.454 3.98683 1.21892 0
M  V30 4206 H 409.114 2.85616 1.54446 0
M  V30 4207 H 410.125 4.95785 -1.49726 0
M  V30 4208 H 406.802 4.07096 0.926224 0
M  V30 4209 H 408.192 6.24395 -2.48153 0
M  V30 4210 N 410.912 0.523116 1.48665 0
M  V30 4211 C 411.86 -0.256859 2.31177 0
M  V30 4212 C 412.854 -0.94199 1.40794 0
M  V30 4213 O 414.06 -0.867157 1.57735 0
M  V30 4214 H 410.435 -0.1017 0.745091 0
M  V30 4215 H 412.406 0.458739 2.94853 0
M  V30 4216 C 411.155 -1.29503 3.22683 0
M  V30 4217 H 410.478 -0.777248 3.92172 0
M  V30 4218 H 411.918 -1.81233 3.83315 0
M  V30 4219 C 410.377 -2.32501 2.43813 0
M  V30 4220 O 410.907 -3.3881 2.15803 0
M  V30 4221 N 409.113 -2.05538 2.05432 0
M  V30 4222 H 408.66 -1.19104 2.28412 0
M  V30 4223 H 408.618 -2.74676 1.52973 0
M  V30 4224 N 412.39 -1.55475 0.257931 0
M  V30 4225 C 413.806 -1.59307 -0.0966563 0
M  V30 4226 C 414.006 -1.27514 -1.5602 0
M  V30 4227 O 413.062 -1.02774 -2.30637 0
M  V30 4228 C 414.375 -2.99552 0.262481 0
M  V30 4229 C 415.923 -3.1231 0.207683 0
M  V30 4230 C 416.398 -4.54793 0.541012 0
M  V30 4231 N 417.889 -4.6058 0.491921 0
M  V30 4232 C 418.624 -5.68825 0.722857 0
M  V30 4233 N 418.12 -6.85287 1.0175 0
M  V30 4234 N 419.913 -5.58296 0.652815 0
M  V30 4235 H 412.064 -1.74409 1.21224 0
M  V30 4236 H 414.327 -0.812424 0.48854 0
M  V30 4237 H 414.033 -3.27593 1.27967 0
M  V30 4238 H 413.907 -3.75019 -0.40508 0
M  V30 4239 H 416.294 -2.84044 -0.800195 0
M  V30 4240 H 416.375 -2.39095 0.909255 0
M  V30 4241 H 416.019 -4.83783 1.5465 0
M  V30 4242 H 415.949 -5.26285 -0.18216 0
M  V30 4243 H 418.44 -3.7691 0.273366 0
M  V30 4244 H 418.753 -7.63725 1.18084 0
M  V30 4245 H 417.098 -6.86945 1.05509 0
M  V30 4246 H 420.289 -4.66189 0.422592 0
M  V30 4247 H 420.462 -6.42582 0.836182 0
M  V30 4248 N 413.868 0.0150385 -1.57593 0
M  V30 4249 C 414.831 0.995996 -2.06428 0
M  V30 4250 C 415.831 1.2818 -0.970903 0
M  V30 4251 O 417.021 1.22949 -1.23406 0
M  V30 4252 C 414.153 2.32506 -2.49307 0
M  V30 4253 H 415.346 0.573873 -2.94358 0
M  V30 4254 H 412.899 0.262186 -1.54085 0
M  V30 4255 H 413.634 2.79438 -1.64575 0
M  V30 4256 H 413.419 2.13087 -3.29145 0
M  V30 4257 H 414.909 3.02906 -2.87468 0
M  V30 4258 N 415.346 1.54954 0.287554 0
M  V30 4259 C 416.309 1.86076 1.33823 0
M  V30 4260 C 417.309 0.734414 1.43049 0
M  V30 4261 O 418.499 1.00266 1.42452 0
M  V30 4262 C 415.631 2.05305 2.72144 0
M  V30 4263 H 416.824 2.79984 1.07465 0
M  V30 4264 H 414.377 1.47223 0.524902 0
M  V30 4265 H 415.112 1.1373 3.03704 0
M  V30 4266 H 414.897 2.873 2.66836 0
M  V30 4267 H 416.387 2.30706 3.48087 0
M  V30 4268 N 416.824 -0.551391 1.4764 0
M  V30 4269 C 418.235 -1.13349 1.48354 0
M  V30 4270 C 418.586 -1.94709 0.241432 0
M  V30 4271 O 417.711 -2.06306 -0.653205 0
M  V30 4272 C 418.306 -2.0623 2.68802 0
M  V30 4273 C 416.865 -2.597 2.72457 0
M  V30 4274 C 416.012 -1.36201 2.41546 0
M  V30 4275 H 418.963 -0.337698 1.55065 0
M  V30 4276 H 418.984 -2.90196 2.46103 0
M  V30 4277 H 418.496 -1.46987 3.59188 0
M  V30 4278 H 416.597 -3.22724 1.86225 0
M  V30 4279 H 416.71 -3.00296 3.73308 0
M  V30 4280 H 415.074 -1.67068 1.9225 0
M  V30 4281 H 415.857 -0.787425 3.34147 0
M  V30 4282 N 418.302 -1.35869 -0.798587 0
M  V30 4283 C 419.232 -1.32118 -1.92528 0
M  V30 4284 C 420.213 -0.194209 -1.68988 0
M  V30 4285 O 421.398 -0.390426 -1.90235 0
M  V30 4286 C 418.528 -1.10047 -3.29404 0
M  V30 4287 C 417.482 -2.19471 -3.67446 0
M  V30 4288 C 416.808 -1.82555 -5.02571 0
M  V30 4289 C 418.108 -3.61495 -3.76987 0
M  V30 4290 H 419.802 -2.26394 -1.95924 0
M  V30 4291 H 417.348 -1.08981 -0.94123 0
M  V30 4292 H 419.301 -1.06061 -4.07835 0
M  V30 4293 H 418.025 -0.122195 -3.26371 0
M  V30 4294 H 416.684 -2.22568 -2.91306 0
M  V30 4295 H 416.332 -0.833249 -4.9605 0
M  V30 4296 H 416.032 -2.5581 -5.28995 0
M  V30 4297 H 417.556 -1.80108 -5.83432 0
M  V30 4298 H 418.97 -3.60676 -4.4563 0
M  V30 4299 H 417.367 -4.33577 -4.14887 0
M  V30 4300 H 418.437 -3.97065 -2.78329 0
M  V30 4301 N 419.78 1.02168 -1.19998 0
M  V30 4302 C 420.71 2.12488 -0.96804 0
M  V30 4303 C 421.691 1.69799 0.101185 0
M  V30 4304 O 422.876 1.94121 -0.0552993 0
M  V30 4305 C 420.006 3.43479 -0.513776 0
M  V30 4306 C 418.96 3.99884 -1.52566 0
M  V30 4307 C 418.286 5.26582 -0.928214 0
M  V30 4308 C 419.586 4.33861 -2.90795 0
M  V30 4309 H 421.28 2.32149 -1.89069 0
M  V30 4310 H 418.826 1.11564 -0.910468 0
M  V30 4311 H 420.779 4.20036 -0.338774 0
M  V30 4312 H 419.503 3.23561 0.444493 0
M  V30 4313 H 418.162 3.25429 -1.68794 0
M  V30 4314 H 417.81 5.02986 0.0378289 0
M  V30 4315 H 417.51 5.65284 -1.60397 0
M  V30 4316 H 419.034 6.05799 -0.764167 0
M  V30 4317 H 420.448 5.01327 -2.78109 0
M  V30 4318 H 418.845 4.83664 -3.55231 0
M  V30 4319 H 419.915 3.42848 -3.42904 0
M  V30 4320 N 421.258 1.00505 1.21394 0
M  V30 4321 C 422.674 0.717873 1.42544 0
M  V30 4322 C 422.874 -0.706936 1.88692 0
M  V30 4323 O 421.93 -1.47627 2.04847 0
M  V30 4324 C 423.243 1.73377 2.45684 0
M  V30 4325 C 424.791 1.75059 2.59467 0
M  V30 4326 C 425.266 2.75545 3.6584 0
M  V30 4327 N 426.757 2.74213 3.73311 0
M  V30 4328 C 427.492 3.48626 4.55245 0
M  V30 4329 N 426.988 4.32678 5.41075 0
M  V30 4330 N 428.781 3.37276 4.49668 0
M  V30 4331 H 420.932 1.92506 0.897503 0
M  V30 4332 H 423.195 0.830919 0.456375 0
M  V30 4333 H 422.901 2.75395 2.18748 0
M  V30 4334 H 422.775 1.53647 3.44489 0
M  V30 4335 H 425.162 0.737337 2.8574 0
M  V30 4336 H 425.243 1.98861 1.60897 0
M  V30 4337 H 424.887 3.77028 3.40313 0
M  V30 4338 H 424.817 2.49009 4.64007 0
M  V30 4339 H 427.308 2.13234 3.11993 0
M  V30 4340 H 427.621 4.86253 6.00648 0
M  V30 4341 H 425.966 4.3676 5.40616 0
M  V30 4342 H 429.157 2.71043 3.81646 0
M  V30 4343 H 429.33 3.95524 5.13288 0
M  V30 4344 N 422.737 -1.36956 0.779787 0
M  V30 4345 C 423.684 -2.30175 0.169697 0
M  V30 4346 C 424.654 -1.51501 -0.68094 0
M  V30 4347 O 425.839 -1.80042 -0.631629 0
M  V30 4348 C 422.979 -3.37985 -0.697131 0
M  V30 4349 C 422.092 -4.31661 0.170992 0
M  V30 4350 C 421.227 -5.2655 -0.701298 0
M  V30 4351 C 420.266 -6.11867 0.168869 0
M  V30 4352 N 419.403 -6.98973 -0.661855 0
M  V30 4353 H 424.243 -2.81767 0.970135 0
M  V30 4354 H 421.78 -1.38699 0.489994 0
M  V30 4355 H 423.738 -3.99128 -1.2146 0
M  V30 4356 H 422.368 -2.87739 -1.46309 0
M  V30 4357 H 421.42 -3.71756 0.80634 0
M  V30 4358 H 422.732 -4.91644 0.841875 0
M  V30 4359 H 421.886 -5.92937 -1.28494 0
M  V30 4360 H 420.625 -4.66998 -1.40584 0
M  V30 4361 H 419.63 -5.44452 0.764986 0
M  V30 4362 H 420.855 -6.73493 0.870863 0
M  V30 4363 H 418.801 -6.41941 -1.35086 0
M  V30 4364 H 418.718 -7.55984 -0.0484447 0
M  V30 4365 H 419.986 -7.6974 -1.22963 0
M  V30 4366 N 424.215 -0.530993 -1.48385 0
M  V30 4367 C 425.443 -0.00134122 -2.069 0
M  V30 4368 C 425.858 1.2805 -1.3874 0
M  V30 4369 O 425.215 1.76204 -0.475244 0
M  V30 4370 C 425.266 0.225256 -3.60798 0
M  V30 4371 O 424.987 -1.0058 -4.26398 0
M  V30 4372 C 426.488 0.795172 -4.3611 0
M  V30 4373 H 423.708 -0.0339704 -0.67014 0
M  V30 4374 H 426.252 -0.736926 -1.90761 0
M  V30 4375 H 424.407 0.910891 -3.76539 0
M  V30 4376 H 424.821 -0.787165 -5.1856 0
M  V30 4377 H 426.295 0.903143 -5.44562 0
M  V30 4378 H 426.772 1.80031 -4.00606 0
M  V30 4379 H 427.378 0.146069 -4.25049 0
M  V30 4380 N 425.693 1.55336 -0.266172 0
M  V30 4381 C 426.923 2.03506 0.356239 0
M  V30 4382 C 427.331 1.14426 1.50676 0
M  V30 4383 O 426.674 0.155043 1.83045 0
M  V30 4384 C 426.736 3.47848 0.90785 0
M  V30 4385 C 426.4 4.56861 -0.112888 0
M  V30 4386 C 427.397 5.11528 -0.929264 0
M  V30 4387 C 425.082 5.01704 -0.244546 0
M  V30 4388 C 427.076 6.09549 -1.86357 0
M  V30 4389 C 424.763 5.99553 -1.18234 0
M  V30 4390 C 425.761 6.53356 -1.99036 0
M  V30 4391 O 425.449 7.49293 -2.91231 0
M  V30 4392 H 425.181 0.670444 0.08649 0
M  V30 4393 H 427.735 2.01598 -0.39337 0
M  V30 4394 H 425.965 3.46967 1.70737 0
M  V30 4395 H 427.654 3.79407 1.44239 0
M  V30 4396 H 428.42 4.77701 -0.838237 0
M  V30 4397 H 424.299 4.59477 0.374359 0
M  V30 4398 H 427.843 6.51469 -2.49467 0
M  V30 4399 H 423.74 6.32799 -1.27421 0
M  V30 4400 H 424.508 7.66978 -2.8581 0
M  V30 4401 N 427.171 -0.0066808 1.57599 0
M  V30 4402 C 428.418 -0.69292 1.90276 0
M  V30 4403 C 428.746 -1.74148 0.866192 0
M  V30 4404 O 428.001 -1.95268 -0.129933 0
M  V30 4405 C 428.3 -1.37939 3.29708 0
M  V30 4406 C 427.966 -0.464679 4.48499 0
M  V30 4407 C 426.628 -0.212809 4.80729 0
M  V30 4408 C 428.98 0.16551 5.20937 0
M  V30 4409 C 426.308 0.677653 5.82773 0
M  V30 4410 C 428.66 1.04381 6.23929 0
M  V30 4411 C 427.324 1.30492 6.54621 0
M  V30 4412 H 426.594 -0.253558 0.696268 0
M  V30 4413 H 429.241 0.0474123 1.91441 0
M  V30 4414 H 427.546 -2.1936 3.24636 0
M  V30 4415 H 429.243 -1.9163 3.52249 0
M  V30 4416 H 425.833 -0.671153 4.23313 0
M  V30 4417 H 430.017 -0.0160756 4.96297 0
M  V30 4418 H 425.273 0.88803 6.04917 0
M  V30 4419 H 429.447 1.53851 6.79193 0
M  V30 4420 H 427.074 1.99662 7.33512 0
M  V30 4421 N 428.649 -1.55105 -0.279332 0
M  V30 4422 C 429.897 -1.75066 -1.00977 0
M  V30 4423 C 430.218 -0.551276 -1.87045 0
M  V30 4424 O 429.488 0.433984 -1.91032 0
M  V30 4425 H 428.068 -0.645578 -0.375816 0
M  V30 4426 H 430.73 -1.92497 -0.305089 0
M  V30 4427 H 429.826 -2.64894 -1.65038 0
M  V30 4428 N 430.127 0.543554 -1.4793 0
M  V30 4429 C 431.375 1.29752 -1.54948 0
M  V30 4430 C 431.696 1.93764 -0.219242 0
M  V30 4431 O 430.966 1.80639 0.75805 0
M  V30 4432 H 429.546 0.481874 -0.570795 0
M  V30 4433 H 432.208 0.633636 -1.84312 0
M  V30 4434 H 431.304 2.08392 -2.32334 0
M  V30 4435 N 431.605 1.3629 0.791371 0
M  V30 4436 C 432.853 1.30154 1.5461 0
M  V30 4437 C 433.174 -0.119409 1.94634 0
M  V30 4438 O 432.444 -1.05924 1.64794 0
M  V30 4439 H 431.024 0.478784 0.573389 0
M  V30 4440 H 433.686 1.70565 0.94306 0
M  V30 4441 H 432.782 1.92762 2.45457 0
M  V30 4442 N 433.083 -1.0153 1.20538 0
M  V30 4443 C 434.311 -1.78746 1.04199 0
M  V30 4444 C 434.726 -1.84323 -0.408733 0
M  V30 4445 O 434.083 -1.29714 -1.28377 0
M  V30 4446 C 434.134 -3.23152 1.62035 0
M  V30 4447 O 433.855 -3.17918 3.0143 0
M  V30 4448 C 435.356 -4.16911 1.50666 0
M  V30 4449 H 432.576 -0.56208 0.366479 0
M  V30 4450 H 435.12 -1.27794 1.59653 0
M  V30 4451 H 433.275 -3.71248 1.10697 0
M  V30 4452 H 433.689 -4.08567 3.28897 0
M  V30 4453 H 435.163 -5.16072 1.95892 0
M  V30 4454 H 435.64 -4.36791 0.459363 0
M  V30 4455 H 436.246 -3.74698 2.01201 0
M  V30 4456 N 434.561 -1.01147 -1.20859 0
M  V30 4457 C 435.524 -0.582224 -2.21682 0
M  V30 4458 C 436.524 0.344887 -1.57058 0
M  V30 4459 O 437.714 0.134281 -1.73682 0
M  V30 4460 C 434.846 0.150496 -3.40568 0
M  V30 4461 H 436.039 -1.47408 -2.61172 0
M  V30 4462 H 433.592 -0.800695 -1.34233 0
M  V30 4463 H 434.327 1.0575 -3.06574 0
M  V30 4464 H 434.112 -0.515444 -3.88697 0
M  V30 4465 H 435.602 0.438344 -4.15293 0
M  V30 4466 N 436.039 1.36541 -0.78704 0
M  V30 4467 C 437.264 2.0409 -0.369053 0
M  V30 4468 C 437.689 1.58957 1.00569 0
M  V30 4469 O 437.047 0.756926 1.64743 0
M  V30 4470 C 437.095 3.57924 -0.438466 0
M  V30 4471 O 436.199 4.08642 0.555479 0
M  V30 4472 H 435.54 0.645142 -0.157122 0
M  V30 4473 H 438.07 1.74545 -1.06749 0
M  V30 4474 H 438.08 4.06887 -0.301218 0
M  V30 4475 H 436.755 3.90127 -1.44132 0
M  V30 4476 H 435.332 3.70958 0.380088 0
M  V30 4477 N 437.518 0.538854 1.48102 0
M  V30 4478 C 438.481 -0.208395 2.28251 0
M  V30 4479 C 439.481 -0.859656 1.35892 0
M  V30 4480 O 440.671 -0.71834 1.58699 0
M  V30 4481 C 437.803 -1.30252 3.15035 0
M  V30 4482 H 438.996 0.495407 2.9578 0
M  V30 4483 H 436.549 0.295112 1.53489 0
M  V30 4484 H 437.284 -2.0393 2.52157 0
M  V30 4485 H 437.069 -0.840551 3.82985 0
M  V30 4486 H 438.559 -1.82787 3.75471 0
M  V30 4487 N 438.996 -1.55193 0.274407 0
M  V30 4488 C 440.226 -2.03692 -0.345442 0
M  V30 4489 C 440.634 -1.15224 -1.50067 0
M  V30 4490 O 439.977 -0.164749 -1.8296 0
M  V30 4491 C 440.039 -3.48325 -0.88939 0
M  V30 4492 C 439.703 -4.56794 0.137115 0
M  V30 4493 C 440.7 -5.11028 0.956378 0
M  V30 4494 C 438.385 -5.01568 0.27115 0
M  V30 4495 C 440.379 -6.08552 1.89587 0
M  V30 4496 C 438.066 -5.98918 1.21412 0
M  V30 4497 C 439.064 -6.52291 2.02498 0
M  V30 4498 O 438.752 -7.47738 2.952 0
M  V30 4499 H 438.484 -0.670893 -0.0829332 0
M  V30 4500 H 441.038 -2.01387 0.404056 0
M  V30 4501 H 439.268 -3.47867 -1.68895 0
M  V30 4502 H 440.957 -3.80167 -1.42225 0
M  V30 4503 H 441.723 -4.7725 0.863559 0
M  V30 4504 H 437.602 -4.5967 -0.349987 0
M  V30 4505 H 441.146 -6.50137 2.52918 0
M  V30 4506 H 437.043 -6.32114 1.30776 0
M  V30 4507 H 437.811 -7.65451 2.89874 0
M  V30 4508 N 440.474 -0.00167713 -1.576 0
M  V30 4509 C 441.404 0.988091 -2.11563 0
M  V30 4510 C 442.385 1.35736 -1.02517 0
M  V30 4511 O 443.57 1.44082 -1.30208 0
M  V30 4512 C 440.7 2.27941 -2.62031 0
M  V30 4513 C 439.654 2.0517 -3.75619 0
M  V30 4514 C 438.98 3.4033 -4.12407 0
M  V30 4515 C 440.28 1.41294 -5.02825 0
M  V30 4516 H 441.974 0.538771 -2.94513 0
M  V30 4517 H 439.52 0.257712 -1.41675 0
M  V30 4518 H 441.473 2.97539 -2.9841 0
M  V30 4519 H 440.197 2.74989 -1.76205 0
M  V30 4520 H 438.856 1.37998 -3.39635 0
M  V30 4521 H 438.504 3.85085 -3.23603 0
M  V30 4522 H 438.204 3.25909 -4.88935 0
M  V30 4523 H 439.728 4.1124 -4.51347 0
M  V30 4524 H 441.142 2.00851 -5.36965 0
M  V30 4525 H 439.539 1.37356 -5.84169 0
M  V30 4526 H 440.609 0.382362 -4.8339 0
M  V30 4527 N 441.952 1.55251 0.271103 0
M  V30 4528 C 442.915 1.87484 1.31842 0
M  V30 4529 C 443.915 0.749545 1.42262 0
M  V30 4530 O 445.105 1.01771 1.4138 0
M  V30 4531 C 442.237 2.0818 2.69951 0
M  V30 4532 H 443.43 2.81108 1.0449 0
M  V30 4533 H 440.983 1.47771 0.509258 0
M  V30 4534 H 441.718 1.16944 3.02481 0
M  V30 4535 H 441.503 2.90114 2.63774 0
M  V30 4536 H 442.993 2.34385 3.4562 0
M  V30 4537 N 443.43 -0.535701 1.48216 0
M  V30 4538 C 444.678 -1.28928 1.55634 0
M  V30 4539 C 444.999 -1.93645 0.229514 0
M  V30 4540 O 444.269 -1.81038 -0.74846 0
M  V30 4541 H 442.849 -0.47884 0.573342 0
M  V30 4542 H 445.511 -0.623853 1.84646 0
M  V30 4543 H 444.607 -2.07157 2.33436 0
M  V30 4544 N 444.908 -1.36708 -0.784132 0
M  V30 4545 C 445.818 -1.3363 -1.92822 0
M  V30 4546 C 446.834 -0.237686 -1.72369 0
M  V30 4547 O 448.01 -0.470962 -1.95816 0
M  V30 4548 C 445.075 -1.13011 -3.27764 0
M  V30 4549 C 444.136 -2.32397 -3.60957 0
M  V30 4550 C 443.369 -2.12752 -4.89461 0
M  V30 4551 O 443.592 -1.10541 -5.59586 0
M  V30 4552 O 442.526 -3.00653 -5.21432 0
M  V30 4553 H 446.352 -2.29964 -1.98369 0
M  V30 4554 H 443.937 -1.1731 -0.925136 0
M  V30 4555 H 445.819 -1.03451 -4.08504 0
M  V30 4556 H 444.494 -0.19743 -3.23097 0
M  V30 4557 H 443.401 -2.47527 -2.80502 0
M  V30 4558 H 444.734 -3.2419 -3.70354 0
M  V30 4559 N 446.386 1.0089 -1.21074 0
M  V30 4560 C 447.663 1.71834 -0.934469 0
M  V30 4561 C 448.043 2.0368 0.554753 0
M  V30 4562 O 447.391 1.70742 1.51854 0
M  V30 4563 C 447.601 2.98061 -1.8155 0
M  V30 4564 C 448.949 3.7117 -2.06199 0
M  V30 4565 O 449.973 3.08034 -1.78867 0
M  V30 4566 O 448.832 4.84721 -2.52404 0
M  V30 4567 H 445.926 0.749253 -0.35007 0
M  V30 4568 H 448.472 1.06668 -1.31985 0
M  V30 4569 H 447.244 2.70908 -2.82355 0
M  V30 4570 H 446.867 3.70968 -1.43068 0
M  V30 4571 N 447.864 1.01787 1.20321 0
M  V30 4572 C 449.111 0.707936 1.89722 0
M  V30 4573 C 449.439 -0.762535 1.78929 0
M  V30 4574 O 448.694 -1.56977 1.16861 0
M  V30 4575 C 448.993 1.09076 3.40349 0
M  V30 4576 C 448.659 2.55765 3.71342 0
M  V30 4577 C 447.321 2.95845 3.79511 0
M  V30 4578 C 449.673 3.50723 3.85542 0
M  V30 4579 C 447.001 4.2982 3.99339 0
M  V30 4580 C 449.353 4.84387 4.06881 0
M  V30 4581 C 448.017 5.24172 4.1328 0
M  V30 4582 H 447.287 0.259052 0.694243 0
M  V30 4583 H 449.934 1.27868 1.42555 0
M  V30 4584 H 448.239 0.438453 3.89339 0
M  V30 4585 H 449.936 0.828636 3.92345 0
M  V30 4586 H 446.526 2.2371 3.65584 0
M  V30 4587 H 450.71 3.20916 3.78585 0
M  V30 4588 H 445.966 4.60196 4.02529 0
M  V30 4589 H 450.14 5.57891 4.1681 0
M  V30 4590 H 447.767 6.27997 4.28396 0
M  V30 4591 N 449.342 -1.36122 0.79427 0
M  V30 4592 C 450.572 -2.03067 0.380437 0
M  V30 4593 C 450.98 -1.60018 -1.00949 0
M  V30 4594 O 450.323 -0.787425 -1.65968 0
M  V30 4595 C 450.385 -3.57587 0.37034 0
M  V30 4596 C 450.049 -4.23855 1.70867 0
M  V30 4597 C 451.046 -4.46404 2.66496 0
M  V30 4598 C 448.731 -4.61229 1.9893 0
M  V30 4599 C 450.725 -5.05412 3.88378 0
M  V30 4600 C 448.412 -5.19953 3.21079 0
M  V30 4601 C 449.41 -5.41985 4.15621 0
M  V30 4602 O 449.098 -5.99475 5.35616 0
M  V30 4603 H 448.83 -0.658168 0.154243 0
M  V30 4604 H 451.384 -1.7498 1.0757 0
M  V30 4605 H 449.614 -3.84814 -0.381444 0
M  V30 4606 H 451.303 -4.05895 -0.0194894 0
M  V30 4607 H 452.069 -4.17921 2.46103 0
M  V30 4608 H 447.948 -4.43402 1.26158 0
M  V30 4609 H 451.492 -5.22524 4.62185 0
M  V30 4610 H 447.389 -5.47862 3.41347 0
M  V30 4611 H 448.157 -6.17937 5.36745 0
M  V30 4612 N 450.82 -0.546701 -1.47814 0
M  V30 4613 C 452.069 -0.0166497 -2.01693 0
M  V30 4614 C 452.382 1.33721 -1.42752 0
M  V30 4615 O 453.588 1.95658 -1.8823 0
M  V30 4616 C 452.044 0.0206769 -3.59894 0
M  V30 4617 C 451.652 -1.3293 -4.27824 0
M  V30 4618 C 453.396 0.498674 -4.21561 0
M  V30 4619 C 451.303 -1.25165 -5.78003 0
M  V30 4620 H 450.233 -0.0024541 -0.753996 0
M  V30 4621 H 452.884 -0.692984 -1.69912 0
M  V30 4622 H 451.266 0.76244 -3.88591 0
M  V30 4623 H 452.44 -2.08795 -4.10781 0
M  V30 4624 H 450.755 -1.74438 -3.78101 0
M  V30 4625 H 453.352 0.575 -5.31599 0
M  V30 4626 H 453.695 1.5083 -3.88016 0
M  V30 4627 H 454.228 -0.18791 -3.97356 0
M  V30 4628 H 450.967 -2.23695 -6.1615 0
M  V30 4629 H 450.487 -0.53464 -5.97412 0
M  V30 4630 H 452.166 -0.949299 -6.39998 0
M  V30 4631 N 452.299 1.55045 -0.282633 0
M  V30 4632 C 453.71 1.85473 0.213655 0
M  V30 4633 C 454.061 1.20465 1.54863 0
M  V30 4634 O 453.186 0.495676 2.10647 0
M  V30 4635 C 453.781 3.36496 0.394445 0
M  V30 4636 C 452.34 3.67022 0.834961 0
M  V30 4637 C 451.487 2.77218 -0.0674081 0
M  V30 4638 H 454.438 1.50478 -0.504202 0
M  V30 4639 H 454.459 3.60007 1.23186 0
M  V30 4640 H 453.971 3.83782 -0.577326 0
M  V30 4641 H 452.072 3.25241 1.81794 0
M  V30 4642 H 452.185 4.74433 0.667075 0
M  V30 4643 H 450.549 2.5069 0.450196 0
M  V30 4644 H 451.332 3.2732 -1.0352 0
M  V30 4645 N 453.777 0.010035 1.57597 0
M  V30 4646 C 455.193 -0.346164 1.55801 0
M  V30 4647 C 455.393 -1.74144 1.01371 0
M  V30 4648 O 454.449 -2.43938 0.651968 0
M  V30 4649 C 455.762 -0.212216 2.9995 0
M  V30 4650 C 457.31 -0.286409 3.11687 0
M  V30 4651 C 457.785 -0.18147 4.5764 0
M  V30 4652 N 459.276 -0.239056 4.62583 0
M  V30 4653 C 460.011 -0.181351 5.73113 0
M  V30 4654 N 459.507 -0.073661 6.92761 0
M  V30 4655 N 461.3 -0.233949 5.61613 0
M  V30 4656 H 453.451 0.922657 1.91313 0
M  V30 4657 H 455.714 0.354595 0.879185 0
M  V30 4658 H 455.42 0.748169 3.4365 0
M  V30 4659 H 455.294 -0.990224 3.6397 0
M  V30 4660 H 457.681 -1.23724 2.67911 0
M  V30 4661 H 457.762 0.521645 2.50425 0
M  V30 4662 H 457.406 0.765863 5.02093 0
M  V30 4663 H 457.336 -1.00814 5.1686 0
M  V30 4664 H 459.827 -0.32321 3.76515 0
M  V30 4665 H 460.14 -0.0358003 7.72792 0
M  V30 4666 H 458.485 -0.0391461 6.94989 0
M  V30 4667 H 461.676 -0.316347 4.6703 0
M  V30 4668 H 461.849 -0.185514 6.47734 0
M  V30 4669 N 455.255 -1.55392 -0.262866 0
M  V30 4670 C 456.187 -1.85392 -1.34768 0
M  V30 4671 C 457.2 -0.739069 -1.45057 0
M  V30 4672 O 458.389 -1.01703 -1.46693 0
M  V30 4673 C 455.489 -2.01088 -2.72795 0
M  V30 4674 C 454.662 -3.31828 -2.84972 0
M  V30 4675 C 453.721 -3.37464 -4.03738 0
M  V30 4676 O 452.747 -4.10778 -3.94018 0
M  V30 4677 N 453.949 -2.65599 -5.16176 0
M  V30 4678 H 456.714 -2.79029 -1.09375 0
M  V30 4679 H 454.275 -1.55434 -0.452981 0
M  V30 4680 H 456.267 -2.02217 -3.50557 0
M  V30 4681 H 454.837 -1.1427 -2.90966 0
M  V30 4682 H 454.057 -3.43152 -1.94012 0
M  V30 4683 H 455.345 -4.18032 -2.90045 0
M  V30 4684 H 454.743 -2.05736 -5.26962 0
M  V30 4685 H 453.3 -2.72439 -5.92132 0
M  V30 4686 N 456.733 0.527833 -1.48498 0
M  V30 4687 C 457.958 1.313 -1.60546 0
M  V30 4688 C 458.383 1.86199 -0.26672 0
M  V30 4689 O 457.741 1.64513 0.761918 0
M  V30 4690 C 457.789 2.43818 -2.65678 0
M  V30 4691 O 456.893 3.46916 -2.22987 0
M  V30 4692 H 456.234 0.388784 -0.538277 0
M  V30 4693 H 458.764 0.634896 -1.945 0
M  V30 4694 H 458.774 2.89973 -2.87018 0
M  V30 4695 H 457.449 2.03222 -3.62869 0
M  V30 4696 H 456.026 3.06864 -2.11869 0
M  V30 4697 N 458.211 1.37122 0.776871 0
M  V30 4698 C 459.457 1.32243 1.53752 0
M  V30 4699 C 459.79 -0.0944745 1.9397 0
M  V30 4700 O 459.065 -1.05068 1.6368 0
M  V30 4701 C 459.348 2.25681 2.80607 0
M  V30 4702 C 459.201 3.76127 2.46676 0
M  V30 4703 C 460.52 2.17657 3.82509 0
M  V30 4704 H 457.639 0.481704 0.557791 0
M  V30 4705 H 460.281 1.6778 0.891612 0
M  V30 4706 H 458.431 1.95505 3.35723 0
M  V30 4707 H 460.103 4.16877 1.97513 0
M  V30 4708 H 458.346 3.94946 1.79443 0
M  V30 4709 H 459.017 4.36933 3.37333 0
M  V30 4710 H 461.493 2.44245 3.36873 0
M  V30 4711 H 460.369 2.85185 4.69 0
M  V30 4712 H 460.63 1.16785 4.26396 0
M  V30 4713 N 459.689 -1.00246 1.21608 0
M  V30 4714 C 460.652 -2.07233 0.979133 0
M  V30 4715 C 461.652 -1.6072 -0.0508219 0
M  V30 4716 O 462.842 -1.73196 0.186712 0
M  V30 4717 C 459.974 -3.37546 0.477016 0
M  V30 4718 H 461.167 -2.29687 1.92831 0
M  V30 4719 H 458.72 -1.17261 1.03342 0
M  V30 4720 H 459.455 -3.20773 -0.476966 0
M  V30 4721 H 459.24 -3.72638 1.21997 0
M  V30 4722 H 460.73 -4.16285 0.331181 0
M  V30 4723 N 461.167 -1.02423 -1.1978 0
M  V30 4724 C 462.099 -0.559152 -2.22275 0
M  V30 4725 C 463.112 0.36251 -1.58713 0
M  V30 4726 O 464.301 0.159641 -1.77785 0
M  V30 4727 C 461.401 0.205094 -3.38279 0
M  V30 4728 C 460.574 -0.720361 -4.31427 0
M  V30 4729 C 459.633 -0.00234368 -5.262 0
M  V30 4730 O 458.659 -0.627378 -5.65732 0
M  V30 4731 N 459.861 1.26996 -5.66438 0
M  V30 4732 H 462.626 -1.44064 -2.62804 0
M  V30 4733 H 460.187 -0.902692 -1.34399 0
M  V30 4734 H 462.179 0.694868 -3.9869 0
M  V30 4735 H 460.749 0.987947 -2.96578 0
M  V30 4736 H 459.969 -1.39031 -3.68869 0
M  V30 4737 H 461.257 -1.3495 -4.90577 0
M  V30 4738 H 460.655 1.79858 -5.36347 0
M  V30 4739 H 459.212 1.70432 -6.29123 0
M  V30 4740 N 462.645 1.35699 -0.801477 0
M  V30 4741 C 464.061 1.52065 -0.484596 0
M  V30 4742 C 464.261 1.75215 0.995084 0
M  V30 4743 O 463.317 1.79061 1.78026 0
M  V30 4744 C 464.63 2.69908 -1.32552 0
M  V30 4745 C 466.178 2.83784 -1.32044 0
M  V30 4746 C 466.653 4.04646 -2.14536 0
M  V30 4747 N 468.144 4.11814 -2.12046 0
M  V30 4748 C 468.879 5.04437 -2.72636 0
M  V30 4749 N 468.375 6.02426 -3.42133 0
M  V30 4750 N 470.168 4.97144 -2.62305 0
M  V30 4751 H 462.319 1.18928 -1.75983 0
M  V30 4752 H 464.582 0.581455 -0.748741 0
M  V30 4753 H 464.288 2.59363 -2.37537 0
M  V30 4754 H 464.162 3.64376 -0.975181 0
M  V30 4755 H 466.549 2.93783 -0.27846 0
M  V30 4756 H 466.63 1.90188 -1.71062 0
M  V30 4757 H 466.274 3.95407 -3.18772 0
M  V30 4758 H 466.204 4.97413 -1.72882 0
M  V30 4759 H 468.695 3.41664 -1.61476 0
M  V30 4760 H 469.008 6.69688 -3.85666 0
M  V30 4761 H 467.353 6.02615 -3.46237 0
M  V30 4762 H 470.544 4.19546 -2.07603 0
M  V30 4763 H 470.717 5.69138 -3.09815 0
M  V30 4764 N 464.123 0.554532 1.47522 0
M  V30 4765 C 465.37 0.029479 2.02479 0
M  V30 4766 C 465.698 -1.31929 1.42916 0
M  V30 4767 O 464.953 -1.87112 0.573385 0
M  V30 4768 C 465.252 -0.115927 3.57212 0
M  V30 4769 C 464.918 1.16161 4.3568 0
M  V30 4770 C 463.58 1.51168 4.56839 0
M  V30 4771 C 465.932 2.0083 4.80954 0
M  V30 4772 C 463.26 2.70696 5.2052 0
M  V30 4773 C 465.612 3.19559 5.45953 0
M  V30 4774 C 464.276 3.54882 5.65345 0
M  V30 4775 H 463.546 0.0107871 0.740921 0
M  V30 4776 H 466.193 0.725506 1.77225 0
M  V30 4777 H 464.498 -0.894902 3.81443 0
M  V30 4778 H 466.195 -0.53749 3.97381 0
M  V30 4779 H 462.785 0.879026 4.19489 0
M  V30 4780 H 466.969 1.75093 4.64388 0
M  V30 4781 H 462.225 2.98236 5.33728 0
M  V30 4782 H 466.399 3.85456 5.79997 0
M  V30 4783 H 464.026 4.47596 6.1446 0
M  V30 4784 N 465.601 -1.54893 0.290851 0
M  V30 4785 C 466.511 -2.26812 -0.59945 0
M  V30 4786 C 467.527 -1.29963 -1.15696 0
M  V30 4787 O 468.703 -1.62928 -1.18391 0
M  V30 4788 C 465.768 -2.98716 -1.75982 0
M  V30 4789 C 464.829 -4.1108 -1.2374 0
M  V30 4790 C 464.062 -4.79546 -2.34246 0
M  V30 4791 O 464.285 -4.47309 -3.53936 0
M  V30 4792 O 463.219 -5.67165 -2.01512 0
M  V30 4793 H 467.045 -3.03696 -0.0163561 0
M  V30 4794 H 464.63 -1.49289 0.0576755 0
M  V30 4795 H 466.512 -3.43851 -2.43607 0
M  V30 4796 H 465.187 -2.24737 -2.3297 0
M  V30 4797 H 464.094 -3.70367 -0.527163 0
M  V30 4798 H 465.427 -4.87007 -0.71307 0
M  V30 4799 N 467.08 -0.0183926 -1.57589 0
M  V30 4800 C 468.357 0.700621 -1.82622 0
M  V30 4801 C 468.737 1.90951 -0.90005 0
M  V30 4802 O 468.085 2.28452 0.0469145 0
M  V30 4803 C 468.295 1.08899 -3.31575 0
M  V30 4804 C 469.643 1.48514 -3.9778 0
M  V30 4805 O 470.667 1.18227 -3.36007 0
M  V30 4806 O 469.526 2.04903 -5.06633 0
M  V30 4807 H 466.62 0.342743 -0.752633 0
M  V30 4808 H 469.166 -0.0452548 -1.6964 0
M  V30 4809 H 467.938 0.228113 -3.90635 0
M  V30 4810 H 467.561 1.89338 -3.49624 0
M  V30 4811 N 468.558 1.5553 0.254621 0
M  V30 4812 C 469.806 1.7665 0.981793 0
M  V30 4813 C 470.127 0.580963 1.86145 0
M  V30 4814 O 469.397 -0.403537 1.91699 0
M  V30 4815 H 467.977 0.651475 0.365498 0
M  V30 4816 H 470.639 1.92958 0.274426 0
M  V30 4817 H 469.735 2.67486 1.60802 0
M  V30 4818 N 470.036 -0.519951 1.48776 0
M  V30 4819 C 471.264 -1.29971 1.60982 0
M  V30 4820 C 471.679 -1.86803 0.273885 0
M  V30 4821 O 471.036 -1.66904 -0.738193 0
M  V30 4822 C 471.087 -2.44346 2.66415 0
M  V30 4823 O 470.808 -1.89855 3.94825 0
M  V30 4824 C 472.309 -3.36014 2.89153 0
M  V30 4825 H 469.529 -0.394891 0.542496 0
M  V30 4826 H 472.073 -0.626214 1.94676 0
M  V30 4827 H 470.228 -3.07562 2.35552 0
M  V30 4828 H 470.642 -2.64798 4.5275 0
M  V30 4829 H 472.116 -4.12593 3.66703 0
M  V30 4830 H 472.593 -3.91859 1.98351 0
M  V30 4831 H 473.199 -2.78582 3.21359 0
M  V30 4832 N 471.514 -1.37532 -0.769588 0
M  V30 4833 C 472.763 -1.32183 -1.5235 0
M  V30 4834 C 473.076 0.0906555 -1.9539 0
M  V30 4835 O 474.282 0.266628 -2.70188 0
M  V30 4836 C 472.738 -2.32029 -2.75119 0
M  V30 4837 C 472.346 -3.78816 -2.3917 0
M  V30 4838 C 474.09 -2.35694 -3.53056 0
M  V30 4839 C 471.997 -4.70388 -3.58453 0
M  V30 4840 H 470.927 -0.491275 -0.571984 0
M  V30 4841 H 473.578 -1.63004 -0.842739 0
M  V30 4842 H 471.96 -1.94229 -3.45096 0
M  V30 4843 H 473.134 -4.25466 -1.76962 0
M  V30 4844 H 471.449 -3.78117 -1.74402 0
M  V30 4845 H 474.046 -3.01312 -4.41718 0
M  V30 4846 H 474.389 -1.37117 -3.93071 0
M  V30 4847 H 474.922 -2.72212 -2.90078 0
M  V30 4848 H 471.661 -5.70102 -3.23518 0
M  V30 4849 H 471.181 -4.28442 -4.19758 0
M  V30 4850 H 472.86 -4.87628 -4.25239 0
M  V30 4851 N 472.992 0.995999 -1.22138 0
M  V30 4852 C 474.217 1.77601 -1.0711 0
M  V30 4853 C 474.642 1.84339 0.374264 0
M  V30 4854 O 474 1.29359 1.27028 0
M  V30 4855 C 474.048 3.18897 -1.68336 0
M  V30 4856 O 473.152 4.01663 -0.934928 0
M  V30 4857 H 472.493 0.547011 -0.376397 0
M  V30 4858 H 475.023 1.25137 -1.6187 0
M  V30 4859 H 475.033 3.69539 -1.72931 0
M  V30 4860 H 473.708 3.13308 -2.73516 0
M  V30 4861 H 472.285 3.60204 -0.964751 0
M  V30 4862 N 474.47 1.03057 1.19235 0
M  V30 4863 C 475.717 0.728019 1.88961 0
M  V30 4864 C 476.045 -0.743515 1.79728 0
M  V30 4865 O 475.3 -1.55729 1.1852 0
M  V30 4866 C 475.599 1.1268 3.39172 0
M  V30 4867 C 475.265 2.5969 3.68608 0
M  V30 4868 C 473.927 2.99854 3.76352 0
M  V30 4869 C 476.279 3.54793 3.81801 0
M  V30 4870 C 473.607 4.34031 3.94758 0
M  V30 4871 C 475.959 4.88675 4.0172 0
M  V30 4872 C 474.623 5.28526 4.07697 0
M  V30 4873 H 473.893 0.266401 0.691456 0
M  V30 4874 H 476.54 1.29373 1.41191 0
M  V30 4875 H 474.845 0.479722 3.88852 0
M  V30 4876 H 476.542 0.870203 3.91444 0
M  V30 4877 H 473.132 2.27575 3.63191 0
M  V30 4878 H 477.316 3.24914 3.7516 0
M  V30 4879 H 472.572 4.6444 3.97625 0
M  V30 4880 H 476.746 5.6228 4.1087 0
M  V30 4881 H 474.373 6.32506 4.21712 0
M  V30 4882 N 475.948 -1.35272 0.808662 0
M  V30 4883 C 476.878 -2.32315 0.234981 0
M  V30 4884 C 477.859 -1.57572 -0.64071 0
M  V30 4885 O 479.044 -1.8563 -0.570551 0
M  V30 4886 C 476.174 -3.41801 -0.615601 0
M  V30 4887 C 475.128 -4.27694 0.161767 0
M  V30 4888 C 474.454 -5.28519 -0.810649 0
M  V30 4889 C 475.754 -5.04231 1.36193 0
M  V30 4890 H 477.448 -2.80543 1.04575 0
M  V30 4891 H 474.994 -1.3488 0.504315 0
M  V30 4892 H 476.947 -4.08693 -1.02702 0
M  V30 4893 H 475.671 -2.92186 -1.45928 0
M  V30 4894 H 474.33 -3.62384 0.554382 0
M  V30 4895 H 473.978 -4.75171 -1.64988 0
M  V30 4896 H 473.678 -5.8686 -0.294822 0
M  V30 4897 H 475.202 -5.98283 -1.22023 0
M  V30 4898 H 476.616 -5.64058 1.02528 0
M  V30 4899 H 475.013 -5.72077 1.81239 0
M  V30 4900 H 476.083 -4.34753 2.14751 0
M  V30 4901 N 477.426 -0.562348 -1.47226 0
M  V30 4902 C 478.703 0.0256985 -1.95583 0
M  V30 4903 C 479.083 1.48032 -1.50498 0
M  V30 4904 O 478.431 2.15973 -0.746181 0
M  V30 4905 C 478.641 -0.125129 -3.48776 0
M  V30 4906 C 479.989 0.0175728 -4.24596 0
M  V30 4907 O 481.013 -0.0529341 -3.56161 0
M  V30 4908 O 479.872 0.170145 -5.46235 0
M  V30 4909 H 476.966 0.0612565 -0.824728 0
M  V30 4910 H 479.512 -0.629233 -1.57603 0
M  V30 4911 H 478.284 -1.13715 -3.74412 0
M  V30 4912 H 477.907 0.567178 -3.93534 0
M  V30 4913 N 478.904 1.54736 -0.299062 0
M  V30 4914 C 480.15 2.00397 0.311244 0
M  V30 4915 C 480.483 1.18716 1.53688 0
M  V30 4916 O 479.758 0.263154 1.92712 0
M  V30 4917 C 480.041 3.53817 0.669761 0
M  V30 4918 C 479.894 4.46239 -0.564882 0
M  V30 4919 C 481.213 4.13856 1.49702 0
M  V30 4920 H 478.332 0.728493 0.111653 0
M  V30 4921 H 480.974 1.85506 -0.410774 0
M  V30 4922 H 479.124 3.66637 1.28491 0
M  V30 4923 H 480.796 4.45328 -1.20337 0
M  V30 4924 H 479.039 4.16916 -1.19849 0
M  V30 4925 H 479.71 5.5134 -0.269918 0
M  V30 4926 H 482.186 4.04461 0.977284 0
M  V30 4927 H 481.062 5.21365 1.71666 0
M  V30 4928 H 481.323 3.65608 2.48563 0
M  V30 4929 N 480.382 0.0267497 1.57577 0
M  V30 4930 C 481.631 -0.651736 1.9088 0
M  V30 4931 C 481.944 -1.73427 0.904576 0
M  V30 4932 O 483.15 -2.46923 1.12877 0
M  V30 4933 C 481.606 -1.21048 3.38933 0
M  V30 4934 C 481.214 -0.161362 4.47709 0
M  V30 4935 C 482.958 -1.86562 3.81307 0
M  V30 4936 C 480.865 -0.731611 5.86857 0
M  V30 4937 H 479.795 -0.247198 0.712326 0
M  V30 4938 H 482.446 0.0916641 1.83271 0
M  V30 4939 H 480.828 -2.00542 3.41466 0
M  V30 4940 H 482.002 0.61094 4.56732 0
M  V30 4941 H 480.317 0.394877 4.14523 0
M  V30 4942 H 482.914 -2.30178 4.8262 0
M  V30 4943 H 483.257 -2.70735 3.16241 0
M  V30 4944 H 483.79 -1.13762 3.81186 0
M  V30 4945 H 480.529 0.0719329 6.55461 0
M  V30 4946 H 480.049 -1.47245 5.81445 0
M  V30 4947 H 481.728 -1.22208 6.35354 0
M  V30 4948 N 481.861 -1.55662 -0.24637 0
M  V30 4949 C 482.824 -1.89558 -1.28842 0
M  V30 4950 C 483.824 -0.772082 -1.41052 0
M  V30 4951 O 485.014 -1.04007 -1.39743 0
M  V30 4952 C 482.146 -2.12449 -2.66605 0
M  V30 4953 H 483.339 -2.82735 -1.00004 0
M  V30 4954 H 480.892 -1.48562 -0.485684 0
M  V30 4955 H 481.627 -1.21742 -3.00582 0
M  V30 4956 H 481.412 -2.94273 -2.59125 0
M  V30 4957 H 482.902 -2.39854 -3.41847 0
M  V30 4958 N 483.339 0.512053 -1.4905 0
M  V30 4959 C 484.269 1.62365 -1.67809 0
M  V30 4960 C 485.25 1.61737 -0.526809 0
M  V30 4961 O 486.435 1.78651 -0.761404 0
M  V30 4962 C 483.565 3.00895 -1.73435 0
M  V30 4963 C 482.519 3.16387 -2.88242 0
M  V30 4964 C 481.845 4.56157 -2.78971 0
M  V30 4965 C 483.145 2.97457 -4.29321 0
M  V30 4966 H 484.839 1.46921 -2.60873 0
M  V30 4967 H 482.385 0.705379 -1.2554 0
M  V30 4968 H 484.338 3.78549 -1.85145 0
M  V30 4969 H 483.062 3.17403 -0.769619 0
M  V30 4970 H 481.721 2.41155 -2.76116 0
M  V30 4971 H 481.369 4.69525 -1.8043 0
M  V30 4972 H 481.069 4.67465 -3.5602 0
M  V30 4973 H 482.593 5.35886 -2.92675 0
M  V30 4974 H 484.007 3.64888 -4.42187 0
M  V30 4975 H 482.404 3.20245 -5.07507 0
M  V30 4976 H 483.474 1.93692 -4.44535 0
M  V30 4977 N 484.817 1.37938 0.762283 0
M  V30 4978 C 485.764 1.34467 1.87583 0
M  V30 4979 C 486.734 0.208633 1.64785 0
M  V30 4980 O 487.919 0.399494 1.86571 0
M  V30 4981 C 485.059 1.16692 3.24772 0
M  V30 4982 C 484.172 2.39608 3.59461 0
M  V30 4983 C 483.307 2.14631 4.85908 0
M  V30 4984 C 482.346 3.33364 5.13357 0
M  V30 4985 N 481.483 3.07877 6.30996 0
M  V30 4986 H 486.323 2.29669 1.89885 0
M  V30 4987 H 483.86 1.14116 0.928219 0
M  V30 4988 H 485.818 1.04405 4.03925 0
M  V30 4989 H 484.448 0.251333 3.2182 0
M  V30 4990 H 483.5 2.626 2.75219 0
M  V30 4991 H 484.812 3.28128 3.75678 0
M  V30 4992 H 483.966 1.99429 5.72986 0
M  V30 4993 H 482.705 1.23463 4.71814 0
M  V30 4994 H 481.71 3.49094 4.24751 0
M  V30 4995 H 482.935 4.25395 5.29354 0
M  V30 4996 H 480.881 2.19348 6.18241 0
M  V30 4997 H 480.798 3.89944 6.47673 0
M  V30 4998 H 482.066 2.96313 7.20985 0
M  V30 4999 N 486.295 -0.989507 1.22664 0
M  V30 5000 C 487.245 -2.06478 0.967005 0
M  V30 5001 C 488.229 -1.60682 -0.0836374 0
M  V30 5002 O 489.421 -1.76541 0.127322 0
M  V30 5003 C 486.55 -3.38861 0.550313 0
M  V30 5004 C 485.636 -3.9128 1.63587 0
M  V30 5005 N 486.027 -4.16884 2.86429 0
M  V30 5006 C 484.325 -4.1972 1.50834 0
M  V30 5007 C 485.026 -4.5954 3.56648 0
M  V30 5008 N 484.002 -4.63434 2.84131 0
M  V30 5009 H 487.804 -2.24219 1.90008 0
M  V30 5010 H 485.318 -1.17153 1.12467 0
M  V30 5011 H 487.315 -4.15465 0.345612 0
M  V30 5012 H 485.975 -3.22518 -0.375822 0
M  V30 5013 H 486.986 -4.04976 3.22823 0
M  V30 5014 H 483.663 -4.1243 0.648643 0
M  V30 5015 H 485.053 -4.87944 4.61909 0
M  V30 5016 N 487.773 -1.03688 -1.18687 0
M  V30 5017 C 489.021 -0.736572 -1.88199 0
M  V30 5018 C 489.342 0.737665 -1.80509 0
M  V30 5019 O 488.612 1.53204 -1.22088 0
M  V30 5020 H 487.192 -0.269466 -0.696704 0
M  V30 5021 H 489.854 -1.31282 -1.44052 0
M  V30 5022 H 488.95 -1.03802 -2.94332 0
M  V30 5023 N 489.251 1.34841 -0.815825 0
M  V30 5024 C 490.498 1.98499 -0.400535 0
M  V30 5025 C 490.826 1.64699 1.03463 0
M  V30 5026 O 490.081 0.907006 1.73412 0
M  V30 5027 C 490.38 3.53273 -0.541541 0
M  V30 5028 C 490.046 4.06966 -1.94138 0
M  V30 5029 C 488.708 4.21341 -2.32433 0
M  V30 5030 C 491.06 4.35933 -2.85677 0
M  V30 5031 C 488.388 4.62007 -3.61617 0
M  V30 5032 C 490.74 4.78042 -4.14317 0
M  V30 5033 C 489.404 4.90622 -4.52599 0
M  V30 5034 H 488.674 0.72636 -0.146566 0
M  V30 5035 H 491.321 1.60902 -1.0384 0
M  V30 5036 H 489.626 3.91387 0.179741 0
M  V30 5037 H 491.323 4.00497 -0.20085 0
M  V30 5038 H 487.913 3.96235 -1.63388 0
M  V30 5039 H 492.097 4.24372 -2.57337 0
M  V30 5040 H 487.353 4.69937 -3.91113 0
M  V30 5041 H 491.527 4.99415 -4.85342 0
M  V30 5042 H 489.154 5.2189 -5.52752 0
M  V30 5043 N 490.729 0.570148 1.46925 0
M  V30 5044 C 492.006 -0.0153259 1.95594 0
M  V30 5045 C 492.386 -1.47232 1.51281 0
M  V30 5046 O 491.734 -2.15574 0.757624 0
M  V30 5047 C 491.944 0.143624 3.48704 0
M  V30 5048 C 493.292 0.00494484 4.246 0
M  V30 5049 O 494.316 0.0718214 3.56128 0
M  V30 5050 O 493.175 -0.141175 5.46318 0
M  V30 5051 H 490.269 -0.0568819 0.825041 0
M  V30 5052 H 492.815 0.637583 1.57267 0
M  V30 5053 H 491.587 1.15699 3.73804 0
M  V30 5054 H 491.21 -0.5463 3.93829 0
M  V30 5055 N 492.207 -1.54576 0.307264 0
M  V30 5056 C 493.435 -2.04675 -0.302597 0
M  V30 5057 C 493.85 -1.18425 -1.47041 0
M  V30 5058 O 493.207 -0.211257 -1.81273 0
M  V30 5059 C 493.258 -3.53575 -0.752801 0
M  V30 5060 O 492.979 -4.36547 0.368536 0
M  V30 5061 C 494.48 -4.19699 -1.42717 0
M  V30 5062 H 491.7 -0.66786 -0.0648374 0
M  V30 5063 H 494.244 -1.99516 0.448716 0
M  V30 5064 H 492.399 -3.59074 -1.45412 0
M  V30 5065 H 492.813 -5.24497 0.0168937 0
M  V30 5066 H 494.287 -5.25388 -1.69327 0
M  V30 5067 H 494.764 -3.69815 -2.36925 0
M  V30 5068 H 495.37 -4.18293 -0.768856 0
M  V30 5069 N 493.685 -0.035106 -1.57561 0
M  V30 5070 C 494.615 0.942993 -2.13612 0
M  V30 5071 C 495.596 1.33531 -1.05373 0
M  V30 5072 O 496.781 1.41287 -1.33235 0
M  V30 5073 C 493.911 2.22332 -2.66807 0
M  V30 5074 C 492.865 1.97156 -3.79886 0
M  V30 5075 C 492.191 3.31506 -4.19533 0
M  V30 5076 C 493.491 1.30596 -5.05709 0
M  V30 5077 H 495.185 0.476179 -2.95589 0
M  V30 5078 H 492.731 0.227602 -1.4219 0
M  V30 5079 H 494.684 2.91142 -3.04654 0
M  V30 5080 H 493.408 2.7119 -1.81999 0
M  V30 5081 H 492.067 1.30763 -3.42486 0
M  V30 5082 H 491.715 3.78134 -3.31698 0
M  V30 5083 H 491.415 3.15465 -4.95738 0
M  V30 5084 H 492.939 4.01574 -4.59968 0
M  V30 5085 H 494.353 1.89416 -5.41105 0
M  V30 5086 H 492.75 1.24934 -5.86951 0
M  V30 5087 H 493.82 0.279742 -4.84092 0
M  V30 5088 N 495.163 1.55791 0.238111 0
M  V30 5089 C 496.073 1.94196 1.31625 0
M  V30 5090 C 497.089 0.843545 1.52185 0
M  V30 5091 O 498.265 1.1457 1.65637 0
M  V30 5092 C 495.33 2.2365 2.64918 0
M  V30 5093 C 494.391 3.46971 2.52804 0
M  V30 5094 C 493.624 3.7501 3.79741 0
M  V30 5095 O 493.847 3.04982 4.82019 0
M  V30 5096 O 492.781 4.68525 3.77846 0
M  V30 5097 H 496.607 2.86044 1.02043 0
M  V30 5098 H 494.192 1.42786 0.439603 0
M  V30 5099 H 496.074 2.43863 3.4367 0
M  V30 5100 H 494.749 1.34979 2.94215 0
M  V30 5101 H 493.656 3.32055 1.72309 0
M  V30 5102 H 494.989 4.35971 2.28451 0
M  V30 5103 N 496.642 -0.504142 1.49319 0
M  V30 5104 C 498.058 -0.835039 1.36012 0
M  V30 5105 C 498.258 -1.97674 0.390808 0
M  V30 5106 O 497.314 -2.51867 -0.178655 0
M  V30 5107 C 498.627 -1.17821 2.76656 0
M  V30 5108 C 500.175 -1.2866 2.85334 0
M  V30 5109 C 500.65 -1.66307 4.26739 0
M  V30 5110 N 502.141 -1.73362 4.29534 0
M  V30 5111 C 502.876 -2.0393 5.35911 0
M  V30 5112 N 502.372 -2.32744 6.52535 0
M  V30 5113 N 504.165 -2.05155 5.23324 0
M  V30 5114 H 496.316 0.248764 2.10938 0
M  V30 5115 H 498.579 0.0486962 0.946748 0
M  V30 5116 H 498.285 -0.412682 3.4927 0
M  V30 5117 H 498.159 -2.12239 3.11825 0
M  V30 5118 H 500.546 -2.04285 2.1296 0
M  V30 5119 H 500.627 -0.323004 2.53752 0
M  V30 5120 H 500.271 -0.91234 4.99639 0
M  V30 5121 H 500.201 -2.63761 4.55782 0
M  V30 5122 H 502.692 -1.53268 3.45424 0
M  V30 5123 H 503.005 -2.55248 7.2943 0
M  V30 5124 H 501.35 -2.30207 6.55767 0
M  V30 5125 H 504.541 -1.82119 4.3122 0
M  V30 5126 H 504.714 -2.28644 6.06322 0
M  V30 5127 N 498.12 -1.38341 -0.754957 0
M  V30 5128 C 499.05 -1.38176 -1.88227 0
M  V30 5129 C 500.031 -0.247873 -1.68284 0
M  V30 5130 O 501.216 -0.45075 -1.88896 0
M  V30 5131 C 498.346 -1.20471 -3.25736 0
M  V30 5132 C 497.3 -2.3105 -3.60278 0
M  V30 5133 C 496.626 -1.98452 -4.96509 0
M  V30 5134 C 497.926 -3.73305 -3.65295 0
M  V30 5135 H 499.62 -2.32512 -1.88622 0
M  V30 5136 H 497.166 -1.1192 -0.906082 0
M  V30 5137 H 499.119 -1.18982 -4.04254 0
M  V30 5138 H 497.843 -0.225965 -3.25817 0
M  V30 5139 H 496.502 -2.31723 -2.84078 0
M  V30 5140 H 496.15 -0.990641 -4.93148 0
M  V30 5141 H 495.85 -2.7251 -5.20588 0
M  V30 5142 H 497.374 -1.98578 -5.77407 0
M  V30 5143 H 498.788 -3.7467 -4.3393 0
M  V30 5144 H 497.185 -4.46557 -4.00883 0
M  V30 5145 H 498.255 -4.05719 -2.65556 0
M  V30 5146 N 499.598 0.982988 -1.23187 0
M  V30 5147 C 500.826 1.75921 -1.08901 0
M  V30 5148 C 501.241 1.85341 0.359719 0
M  V30 5149 O 500.598 1.33072 1.24892 0
M  V30 5150 C 500.649 3.18742 -1.70545 0
M  V30 5151 O 500.37 3.09814 -3.09753 0
M  V30 5152 C 501.871 4.1277 -1.61667 0
M  V30 5153 H 499.091 0.552166 -0.381252 0
M  V30 5154 H 501.635 1.23516 -1.62985 0
M  V30 5155 H 499.79 3.68182 -1.20501 0
M  V30 5156 H 500.204 3.99703 -3.39614 0
M  V30 5157 H 501.678 5.10697 -2.09506 0
M  V30 5158 H 502.155 4.3542 -0.575009 0
M  V30 5159 H 502.761 3.69232 -2.11064 0
M  V30 5160 N 501.076 1.04316 1.18135 0
M  V30 5161 C 502.324 0.746542 1.87806 0
M  V30 5162 C 502.645 -0.728082 1.80898 0
M  V30 5163 O 501.915 -1.52554 1.22899 0
M  V30 5164 H 500.495 0.273157 0.695265 0
M  V30 5165 H 503.157 1.32044 1.43354 0
M  V30 5166 H 502.253 1.05362 2.93778 0
M  V30 5167 N 502.554 -1.34406 0.822964 0
M  V30 5168 C 503.802 -1.97892 0.410245 0
M  V30 5169 C 504.123 -1.65567 -1.03017 0
M  V30 5170 O 503.393 -0.94642 -1.71522 0
M  V30 5171 H 501.973 -0.732049 0.148707 0
M  V30 5172 H 504.635 -1.64043 1.05242 0
M  V30 5173 H 503.731 -3.07579 0.529284 0
M  V30 5174 N 504.032 -0.577932 -1.46621 0
M  V30 5175 C 504.965 0.206312 -2.27265 0
M  V30 5176 C 505.943 0.901306 -1.35334 0
M  V30 5177 O 507.127 0.916151 -1.64739 0
M  V30 5178 C 504.254 1.29563 -3.1294 0
M  V30 5179 C 503.3 0.706981 -4.206 0
M  V30 5180 S 504.133 -0.462459 -5.33499 0
M  V30 5181 C 505.289 0.628171 -6.2274 0
M  V30 5182 H 505.522 -0.477961 -2.93433 0
M  V30 5183 H 503.055 -0.364715 -1.50031 0
M  V30 5184 H 505.013 1.91935 -3.62865 0
M  V30 5185 H 503.674 1.95183 -2.46095 0
M  V30 5186 H 502.867 1.52565 -4.80354 0
M  V30 5187 H 502.469 0.159022 -3.73662 0
M  V30 5188 H 504.761 1.51506 -6.60342 0
M  V30 5189 H 505.704 0.0674961 -7.08068 0
M  V30 5190 H 506.112 0.930167 -5.56784 0
M  V30 5191 N 505.51 1.54411 -0.315457 0
M  V30 5192 C 506.42 2.27737 0.56329 0
M  V30 5193 C 507.436 1.31787 1.13614 0
M  V30 5194 O 508.612 1.64791 1.15784 0
M  V30 5195 C 505.677 3.01478 1.71207 0
M  V30 5196 C 504.738 4.12997 1.17185 0
M  V30 5197 C 503.971 4.83212 2.26588 0
M  V30 5198 O 504.194 4.52884 3.46775 0
M  V30 5199 O 503.128 5.70299 1.92463 0
M  V30 5200 H 506.954 3.03683 -0.0319614 0
M  V30 5201 H 504.539 1.49178 -0.0814188 0
M  V30 5202 H 506.421 3.47683 2.38106 0
M  V30 5203 H 505.096 2.28414 2.29366 0
M  V30 5204 H 504.003 3.71159 0.468174 0
M  V30 5205 H 505.336 4.8808 0.635501 0
M  V30 5206 N 506.988 0.0434614 1.5754 0
M  V30 5207 C 507.936 -0.951465 2.1225 0
M  V30 5208 C 508.93 -1.3274 1.05245 0
M  V30 5209 O 510.136 -1.30795 1.23663 0
M  V30 5210 H 506.511 -0.324667 0.678303 0
M  V30 5211 H 508.482 -0.464855 2.94757 0
M  V30 5212 C 507.231 -2.21972 2.67626 0
M  V30 5213 H 506.554 -1.93923 3.4962 0
M  V30 5214 H 507.994 -2.89765 3.09536 0
M  V30 5215 C 506.453 -2.95919 1.61038 0
M  V30 5216 O 506.983 -3.8857 1.01862 0
M  V30 5217 N 505.189 -2.58511 1.32741 0
M  V30 5218 H 504.736 -1.83244 1.81051 0
M  V30 5219 H 504.694 -3.08296 0.616531 0
M  V30 5220 N 508.466 -1.55915 -0.229846 0
M  V30 5221 C 509.715 -1.77742 -0.953455 0
M  V30 5222 C 510.028 -0.610524 -1.85828 0
M  V30 5223 O 511.234 -0.712219 -2.61992 0
M  V30 5224 C 509.69 -3.14738 -1.74551 0
M  V30 5225 C 509.298 -4.39126 -0.887242 0
M  V30 5226 C 511.042 -3.45895 -2.46084 0
M  V30 5227 C 508.949 -5.67149 -1.67617 0
M  V30 5228 H 507.879 -0.662648 -0.359741 0
M  V30 5229 H 510.53 -1.82322 -0.207576 0
M  V30 5230 H 508.912 -3.04311 -2.53399 0
M  V30 5231 H 510.086 -4.60588 -0.139892 0
M  V30 5232 H 508.401 -4.15427 -0.284443 0
M  V30 5233 H 510.998 -4.38767 -3.05594 0
M  V30 5234 H 511.341 -2.68007 -3.18556 0
M  V30 5235 H 511.874 -3.57614 -1.74233 0
M  V30 5236 H 508.613 -6.47906 -0.994881 0
M  V30 5237 H 508.133 -5.49763 -2.39836 0
M  V30 5238 H 509.812 -6.07025 -2.23898 0
M  V30 5239 N 509.944 0.496216 -1.49584 0
M  V30 5240 C 510.891 1.59722 -1.66606 0
M  V30 5241 C 511.861 1.58158 -0.507477 0
M  V30 5242 O 513.046 1.76072 -0.735076 0
M  V30 5243 C 510.186 2.97844 -1.74308 0
M  V30 5244 C 509.299 3.09388 -3.01502 0
M  V30 5245 C 508.434 4.38271 -3.00153 0
M  V30 5246 C 507.473 4.43466 -4.21906 0
M  V30 5247 N 506.61 5.63784 -4.1844 0
M  V30 5248 H 511.45 1.44515 -2.60613 0
M  V30 5249 H 508.987 0.703048 -1.29212 0
M  V30 5250 H 510.945 3.77907 -1.76754 0
M  V30 5251 H 509.575 3.11743 -0.837619 0
M  V30 5252 H 508.627 2.22357 -3.08645 0
M  V30 5253 H 509.939 3.09085 -3.91494 0
M  V30 5254 H 509.093 5.2666 -3.01188 0
M  V30 5255 H 507.832 4.41146 -2.07947 0
M  V30 5256 H 506.837 3.53478 -4.21109 0
M  V30 5257 H 508.062 4.42303 -5.1531 0
M  V30 5258 H 506.008 5.67491 -3.29074 0
M  V30 5259 H 505.925 5.65118 -5.02173 0
M  V30 5260 H 507.193 6.54367 -4.23585 0
M  V30 5261 N 511.423 1.38739 0.74761 0
M  V30 5262 C 512.355 1.32341 1.87132 0
M  V30 5263 C 513.368 0.234502 1.61102 0
M  V30 5264 O 514.557 0.492516 1.71571 0
M  V30 5265 C 511.657 1.02915 3.22896 0
M  V30 5266 C 510.83 2.22834 3.76383 0
M  V30 5267 C 509.889 1.90059 4.90677 0
M  V30 5268 O 508.915 2.62615 5.04997 0
M  V30 5269 N 510.117 0.859141 5.74107 0
M  V30 5270 H 512.882 2.29175 1.93129 0
M  V30 5271 H 510.443 1.32678 0.927805 0
M  V30 5272 H 512.435 0.79031 3.96908 0
M  V30 5273 H 511.005 0.148572 3.12247 0
M  V30 5274 H 510.225 2.62747 2.93867 0
M  V30 5275 H 511.513 3.02851 4.08851 0
M  V30 5276 H 510.911 0.257564 5.65113 0
M  V30 5277 H 509.468 0.680189 6.48241 0
M  V30 5278 N 512.901 -0.976442 1.23707 0
M  V30 5279 C 513.851 -2.0544 0.988851 0
M  V30 5280 C 514.835 -1.60762 -0.0665901 0
M  V30 5281 O 516.027 -1.76396 0.14604 0
M  V30 5282 C 513.156 -3.38258 0.586223 0
M  V30 5283 C 512.242 -3.89523 1.67728 0
M  V30 5284 N 512.633 -4.13823 2.90834 0
M  V30 5285 C 510.931 -4.18097 1.55277 0
M  V30 5286 C 511.632 -4.55731 3.61502 0
M  V30 5287 N 510.608 -4.60394 2.8903 0
M  V30 5288 H 514.41 -2.22191 1.92376 0
M  V30 5289 H 511.924 -1.15954 1.13704 0
M  V30 5290 H 513.921 -4.15075 0.389658 0
M  V30 5291 H 512.581 -3.22898 -0.341594 0
M  V30 5292 H 513.592 -4.01529 3.271 0
M  V30 5293 H 510.269 -4.11719 0.692351 0
M  V30 5294 H 511.659 -4.83018 4.67059 0
M  V30 5295 N 514.379 -1.04941 -1.1758 0
M  V30 5296 C 515.607 -0.778294 -1.91703 0
M  V30 5297 C 516.022 0.665697 -1.76675 0
M  V30 5298 O 515.379 1.45456 -1.10222 0
M  V30 5299 C 515.43 -1.14628 -3.42845 0
M  V30 5300 O 515.151 -2.53359 -3.57409 0
M  V30 5301 C 516.652 -0.900931 -4.34049 0
M  V30 5302 H 513.872 -0.283167 -0.608323 0
M  V30 5303 H 516.416 -1.39942 -1.49119 0
M  V30 5304 H 514.571 -0.569953 -3.83184 0
M  V30 5305 H 514.985 -2.67709 -4.51035 0
M  V30 5306 H 516.459 -1.20817 -5.38616 0
M  V30 5307 H 516.936 0.163966 -4.38894 0
M  V30 5308 H 517.542 -1.46097 -3.99419 0
M  V30 5309 N 515.857 1.33968 -0.830081 0
M  V30 5310 C 517.104 1.98063 -0.421566 0
M  V30 5311 C 517.432 1.65787 1.0171 0
M  V30 5312 O 516.687 0.925348 1.72441 0
M  V30 5313 C 516.986 3.52679 -0.57898 0
M  V30 5314 C 516.652 4.04884 -1.98443 0
M  V30 5315 C 515.314 4.18852 -2.36888 0
M  V30 5316 C 517.666 4.32879 -2.90285 0
M  V30 5317 C 514.994 4.58145 -3.66497 0
M  V30 5318 C 517.346 4.7362 -4.19364 0
M  V30 5319 C 516.01 4.85794 -4.57778 0
M  V30 5320 H 515.28 0.724765 -0.154262 0
M  V30 5321 H 517.927 1.59792 -1.05541 0
M  V30 5322 H 516.232 3.91556 0.138219 0
M  V30 5323 H 517.929 4.00261 -0.243317 0
M  V30 5324 H 514.519 3.9448 -1.67581 0
M  V30 5325 H 518.703 4.21619 -2.61823 0
M  V30 5326 H 513.959 4.65762 -3.96075 0
M  V30 5327 H 518.133 4.9424 -4.90612 0
M  V30 5328 H 515.76 5.15998 -5.58256 0
M  V30 5329 N 517.335 0.585699 1.46312 0
M  V30 5330 C 518.563 0.0781299 2.06752 0
M  V30 5331 C 518.978 -1.22812 1.43396 0
M  V30 5332 O 518.335 -1.74318 0.540314 0
M  V30 5333 C 518.386 -0.0911927 3.61385 0
M  V30 5334 O 518.107 1.16336 4.22371 0
M  V30 5335 C 519.608 -0.632765 4.38761 0
M  V30 5336 H 516.828 0.0588188 0.668417 0
M  V30 5337 H 519.372 0.807218 1.87894 0
M  V30 5338 H 517.527 -0.770514 3.7966 0
M  V30 5339 H 517.941 0.979082 5.15281 0
M  V30 5340 H 519.415 -0.70041 5.47538 0
M  V30 5341 H 519.892 -1.65039 4.07012 0
M  V30 5342 H 520.498 0.0117856 4.25298 0
M  V30 5343 N 518.813 -1.54241 0.323641 0
M  V30 5344 C 519.743 -2.27289 -0.534993 0
M  V30 5345 C 520.724 -1.28087 -1.11927 0
M  V30 5346 O 521.909 -1.56899 -1.14439 0
M  V30 5347 C 519.039 -3.03075 -1.69596 0
M  V30 5348 C 517.993 -4.09614 -1.24098 0
M  V30 5349 C 517.319 -4.73242 -2.4889 0
M  V30 5350 C 518.619 -5.21087 -0.355789 0
M  V30 5351 H 520.313 -2.99308 0.0743257 0
M  V30 5352 H 517.859 -1.43952 0.0371874 0
M  V30 5353 H 519.812 -3.52907 -2.30293 0
M  V30 5354 H 518.536 -2.28673 -2.33187 0
M  V30 5355 H 517.195 -3.60666 -0.656945 0
M  V30 5356 H 516.843 -3.95455 -3.10845 0
M  V30 5357 H 516.543 -5.45209 -2.19138 0
M  V30 5358 H 518.067 -5.25848 -3.10348 0
M  V30 5359 H 519.481 -5.66675 -0.869042 0
M  V30 5360 H 517.878 -5.9991 -0.151045 0
M  V30 5361 H 518.948 -4.81005 0.613339 0
M  V30 5362 N 520.291 -0.0518155 -1.57515 0
M  V30 5363 C 521.254 0.907547 -2.10467 0
M  V30 5364 C 522.254 1.23947 -1.02439 0
M  V30 5365 O 523.444 1.17604 -1.2851 0
M  V30 5366 C 520.576 2.21723 -2.58944 0
M  V30 5367 H 521.769 0.44851 -2.96527 0
M  V30 5368 H 519.322 0.196598 -1.55059 0
M  V30 5369 H 520.057 2.72206 -1.76279 0
M  V30 5370 H 519.842 1.98935 -3.37886 0
M  V30 5371 H 521.332 2.90441 -3.00056 0
M  V30 5372 N 521.769 1.56035 0.221574 0
M  V30 5373 C 522.701 1.889 1.29805 0
M  V30 5374 C 523.714 0.777269 1.43047 0
M  V30 5375 O 524.903 1.05557 1.43945 0
M  V30 5376 C 522.003 2.0825 2.67367 0
M  V30 5377 C 521.176 3.39267 2.76073 0
M  V30 5378 C 520.235 3.48049 3.94649 0
M  V30 5379 O 519.261 4.2108 3.82988 0
M  V30 5380 N 520.463 2.79191 5.08953 0
M  V30 5381 H 523.228 2.81831 1.01938 0
M  V30 5382 H 520.789 1.5658 0.411612 0
M  V30 5383 H 522.781 2.11441 3.45072 0
M  V30 5384 H 521.351 1.21944 2.87834 0
M  V30 5385 H 520.571 3.48175 1.84846 0
M  V30 5386 H 521.859 4.25575 2.7886 0
M  V30 5387 H 521.257 2.19635 5.21322 0
M  V30 5388 H 519.814 2.88043 5.84701 0
M  V30 5389 N 523.247 -0.488276 1.49845 0
M  V30 5390 C 524.477 -1.26344 1.63465 0
M  V30 5391 C 524.885 -1.86637 0.310379 0
M  V30 5392 O 524.228 -1.69184 -0.715712 0
M  V30 5393 C 524.29 -2.42407 2.65479 0
M  V30 5394 C 523.954 -2.02886 4.09495 0
M  V30 5395 C 524.951 -1.56124 4.95904 0
M  V30 5396 C 522.636 -2.12131 4.55308 0
M  V30 5397 C 524.63 -1.19129 6.26169 0
M  V30 5398 C 522.317 -1.74747 5.85582 0
M  V30 5399 C 523.315 -1.28322 6.70837 0
M  V30 5400 O 523.003 -0.914491 7.98682 0
M  V30 5401 H 522.735 -0.388921 0.552916 0
M  V30 5402 H 525.289 -0.591288 1.96705 0
M  V30 5403 H 523.519 -3.12739 2.27445 0
M  V30 5404 H 525.208 -3.04409 2.68495 0
M  V30 5405 H 525.974 -1.48417 4.61733 0
M  V30 5406 H 521.853 -2.47217 3.89107 0
M  V30 5407 H 525.397 -0.828211 6.92666 0
M  V30 5408 H 521.294 -1.82109 6.19279 0
M  V30 5409 H 522.062 -1.04485 8.11804 0
M  V30 5410 N 524.725 -1.39134 -0.740242 0
M  V30 5411 C 525.953 -1.39334 -1.5295 0
M  V30 5412 C 526.368 0.0135008 -1.88795 0
M  V30 5413 O 525.725 0.983524 -1.5373 0
M  V30 5414 C 525.776 -2.2614 -2.82034 0
M  V30 5415 O 525.497 -3.61345 -2.47712 0
M  V30 5416 C 526.998 -2.34666 -3.76094 0
M  V30 5417 H 524.218 -0.476103 -0.472828 0
M  V30 5418 H 526.762 -1.82883 -0.9151 0
M  V30 5419 H 524.917 -1.86018 -3.39818 0
M  V30 5420 H 525.331 -4.07194 -3.30595 0
M  V30 5421 H 526.805 -2.99663 -4.63579 0
M  V30 5422 H 527.282 -1.36426 -4.17474 0
M  V30 5423 H 527.888 -2.75236 -3.2423 0
M  V30 5424 N 526.204 0.969867 -1.24223 0
M  V30 5425 C 527.434 1.74502 -1.106 0
M  V30 5426 C 527.842 1.86038 0.344483 0
M  V30 5427 O 527.185 1.3465 1.24961 0
M  V30 5428 C 527.247 3.18391 -1.66935 0
M  V30 5429 C 526.911 3.30334 -3.15798 0
M  V30 5430 C 527.908 3.15832 -4.12973 0
M  V30 5431 C 525.593 3.54644 -3.55715 0
M  V30 5432 C 527.587 3.25461 -5.48045 0
M  V30 5433 C 525.274 3.63912 -4.90929 0
M  V30 5434 C 526.272 3.49332 -5.86904 0
M  V30 5435 O 525.96 3.58251 -7.1966 0
M  V30 5436 H 525.692 0.554119 -0.387206 0
M  V30 5437 H 528.246 1.22646 -1.64764 0
M  V30 5438 H 526.476 3.71543 -1.07203 0
M  V30 5439 H 528.165 3.77707 -1.48634 0
M  V30 5440 H 528.931 2.96937 -3.83476 0
M  V30 5441 H 524.81 3.65059 -2.81519 0
M  V30 5442 H 528.354 3.13998 -6.22937 0
M  V30 5443 H 524.251 3.82319 -5.20098 0
M  V30 5444 H 525.019 3.7498 -7.27552 0
M  V30 5445 N 527.682 1.05563 1.17022 0
M  V30 5446 C 528.928 0.769074 1.87652 0
M  V30 5447 C 529.261 -0.702326 1.81055 0
M  V30 5448 O 528.536 -1.5139 1.22112 0
M  V30 5449 C 528.819 1.25492 3.37526 0
M  V30 5450 C 528.672 2.78953 3.52853 0
M  V30 5451 C 529.991 0.856919 4.31677 0
M  V30 5452 H 527.11 0.280854 0.681388 0
M  V30 5453 H 529.752 1.31027 1.37593 0
M  V30 5454 H 527.902 0.794516 3.80289 0
M  V30 5455 H 529.574 3.33146 3.19079 0
M  V30 5456 H 527.817 3.18046 2.95007 0
M  V30 5457 H 528.488 3.08011 4.58076 0
M  V30 5458 H 530.964 1.25334 3.96775 0
M  V30 5459 H 529.84 1.22443 5.35069 0
M  V30 5460 H 530.101 -0.238787 4.41455 0
M  V30 5461 N 529.16 -1.33526 0.837174 0
M  V30 5462 C 530.123 -2.27551 0.274421 0
M  V30 5463 C 531.123 -1.50886 -0.555881 0
M  V30 5464 O 532.313 -1.70227 -0.369918 0
M  V30 5465 C 529.445 -3.35332 -0.613605 0
M  V30 5466 H 530.638 -2.78837 1.10408 0
M  V30 5467 H 528.191 -1.439 0.610126 0
M  V30 5468 H 528.926 -2.89285 -1.46577 0
M  V30 5469 H 528.711 -3.92095 -0.0195341 0
M  V30 5470 H 530.201 -4.05433 -1.00068 0
M  V30 5471 N 530.638 -0.59345 -1.46 0
M  V30 5472 C 531.568 0.121192 -2.33185 0
M  V30 5473 C 532.549 0.872977 -1.4599 0
M  V30 5474 O 533.734 0.846321 -1.74789 0
M  V30 5475 C 530.864 1.12844 -3.28456 0
M  V30 5476 C 529.818 0.4908 -4.25177 0
M  V30 5477 C 529.144 1.60529 -5.10034 0
M  V30 5478 C 530.444 -0.578949 -5.19081 0
M  V30 5479 H 532.138 -0.606767 -2.93187 0
M  V30 5480 H 529.684 -0.293242 -1.40983 0
M  V30 5481 H 531.637 1.63684 -3.88311 0
M  V30 5482 H 530.361 1.88681 -2.66584 0
M  V30 5483 H 529.02 0.00339328 -3.666 0
M  V30 5484 H 528.668 2.35359 -4.44539 0
M  V30 5485 H 528.368 1.18422 -5.75543 0
M  V30 5486 H 529.892 2.11623 -5.72755 0
M  V30 5487 H 531.306 -0.155199 -5.7309 0
M  V30 5488 H 529.703 -0.920947 -5.92991 0
M  V30 5489 H 530.773 -1.46109 -4.62364 0
M  V30 5490 N 532.116 1.54067 -0.331816 0
M  V30 5491 C 533.341 2.05599 0.272705 0
M  V30 5492 C 533.766 1.2059 1.44359 0
M  V30 5493 O 533.124 0.216907 1.79998 0
M  V30 5494 C 533.172 3.54188 0.677021 0
M  V30 5495 O 532.276 3.72082 1.77844 0
M  V30 5496 H 531.617 0.662286 0.0476801 0
M  V30 5497 H 534.147 1.98826 -0.482624 0
M  V30 5498 H 534.157 3.96608 0.957415 0
M  V30 5499 H 532.832 4.15513 -0.179325 0
M  V30 5500 H 531.409 3.41566 1.49622 0
M  V30 5501 N 533.594 0.0601682 1.57485 0
M  V30 5502 C 534.819 -0.624416 1.97777 0
M  V30 5503 C 535.244 -1.63051 0.937867 0
M  V30 5504 O 534.602 -1.81036 -0.0978845 0
M  V30 5505 C 534.65 -1.27979 3.37126 0
M  V30 5506 O 533.754 -2.39556 3.35688 0
M  V30 5507 H 533.095 -0.161581 0.64404 0
M  V30 5508 H 535.625 0.131237 2.04179 0
M  V30 5509 H 535.635 -1.62937 3.74053 0
M  V30 5510 H 534.31 -0.542501 4.12347 0
M  V30 5511 H 532.887 -2.06478 3.10517 0
M  V30 5512 N 535.072 -1.5615 -0.213296 0
M  V30 5513 C 536.002 -1.96109 -1.26742 0
M  V30 5514 C 536.983 -0.830448 -1.48451 0
M  V30 5515 O 538.168 -1.09339 -1.60495 0
M  V30 5516 C 535.298 -2.28492 -2.61551 0
M  V30 5517 C 534.252 -3.44124 -2.54485 0
M  V30 5518 C 533.578 -3.62134 -3.93399 0
M  V30 5519 C 534.878 -4.78855 -2.08556 0
M  V30 5520 H 536.572 -2.84412 -0.935434 0
M  V30 5521 H 534.118 -1.36836 -0.44854 0
M  V30 5522 H 536.071 -2.55039 -3.3546 0
M  V30 5523 H 534.795 -1.37052 -2.96453 0
M  V30 5524 H 533.454 -3.17639 -1.83033 0
M  V30 5525 H 533.102 -2.68055 -4.25623 0
M  V30 5526 H 532.802 -4.39913 -3.89551 0
M  V30 5527 H 534.326 -3.91038 -4.68958 0
M  V30 5528 H 535.74 -5.04552 -2.72213 0
M  V30 5529 H 534.137 -5.59975 -2.1575 0
M  V30 5530 H 535.207 -4.73657 -1.03811 0
M  V30 5531 N 536.55 0.480323 -1.50102 0
M  V30 5532 C 537.482 1.59669 -1.64433 0
M  V30 5533 C 538.495 1.54063 -0.52615 0
M  V30 5534 O 539.684 1.59619 -0.798992 0
M  V30 5535 C 536.784 2.98527 -1.6042 0
M  V30 5536 C 535.957 3.291 -2.88117 0
M  V30 5537 C 535.016 4.47468 -2.76873 0
M  V30 5538 O 534.042 4.4823 -3.50825 0
M  V30 5539 N 535.244 5.48593 -1.89806 0
M  V30 5540 H 538.009 1.47795 -2.60723 0
M  V30 5541 H 535.57 0.66858 -1.4745 0
M  V30 5542 H 537.562 3.75666 -1.50523 0
M  V30 5543 H 536.132 3.04218 -0.719036 0
M  V30 5544 H 535.352 2.40662 -3.12211 0
M  V30 5545 H 536.64 3.46334 -3.72734 0
M  V30 5546 H 536.038 5.50791 -1.2902 0
M  V30 5547 H 534.595 6.24752 -1.85819 0
M  V30 5548 N 538.028 1.39524 0.732853 0
M  V30 5549 C 539.258 1.3994 1.51988 0
M  V30 5550 C 539.666 -0.00727973 1.89199 0
M  V30 5551 O 539.009 -0.989521 1.54771 0
M  V30 5552 C 539.071 2.21026 2.83527 0
M  V30 5553 C 538.735 3.69633 2.68738 0
M  V30 5554 C 539.732 4.62665 2.37143 0
M  V30 5555 C 537.417 4.13244 2.85542 0
M  V30 5556 C 539.411 5.97291 2.22536 0
M  V30 5557 C 537.098 5.47945 2.70554 0
M  V30 5558 C 538.096 6.39783 2.39097 0
M  V30 5559 O 537.784 7.72002 2.24204 0
M  V30 5560 H 537.516 0.479795 0.476206 0
M  V30 5561 H 540.07 1.8399 0.913054 0
M  V30 5562 H 538.3 1.71728 3.46477 0
M  V30 5563 H 539.989 2.13594 3.45156 0
M  V30 5564 H 540.755 4.30272 2.2381 0
M  V30 5565 H 536.634 3.42094 3.09019 0
M  V30 5566 H 540.178 6.68939 1.97905 0
M  V30 5567 H 536.075 5.79928 2.83466 0
M  V30 5568 H 536.843 7.8275 2.39258 0
M  V30 5569 N 539.506 -0.963266 1.24736 0
M  V30 5570 C 540.917 -1.52145 1.08207 0
M  V30 5571 C 541.268 -1.93142 -0.345061 0
M  V30 5572 O 540.393 -1.77769 -1.23399 0
M  V30 5573 C 540.988 -2.76486 1.95808 0
M  V30 5574 C 539.547 -3.28646 1.8349 0
M  V30 5575 C 538.694 -2.01529 1.90476 0
M  V30 5576 H 541.645 -0.781083 1.38148 0
M  V30 5577 H 541.666 -3.49986 1.49297 0
M  V30 5578 H 541.178 -2.46617 2.99669 0
M  V30 5579 H 539.279 -3.63357 0.824787 0
M  V30 5580 H 539.392 -3.97246 2.67829 0
M  V30 5581 H 537.756 -2.16442 1.34258 0
M  V30 5582 H 538.539 -1.7402 2.95926 0
M  V30 5583 N 540.985 -1.06182 -1.16461 0
M  V30 5584 C 541.933 -0.665716 -2.2287 0
M  V30 5585 C 542.927 0.317822 -1.66392 0
M  V30 5586 O 544.133 0.182807 -1.79069 0
M  V30 5587 H 540.508 -0.197148 -0.725697 0
M  V30 5588 H 542.479 -1.57307 -2.53569 0
M  V30 5589 C 541.228 -0.0669803 -3.47635 0
M  V30 5590 H 540.551 -0.814899 -3.91407 0
M  V30 5591 H 541.991 0.172669 -4.23648 0
M  V30 5592 C 540.45 1.18913 -3.15216 0
M  V30 5593 O 540.98 2.27723 -3.30916 0
M  V30 5594 N 539.186 1.09066 -2.69357 0
M  V30 5595 H 538.733 0.20518 -2.56782 0
M  V30 5596 H 538.691 1.93195 -2.48039 0
M  V30 5597 N 542.463 1.3308 -0.844243 0
M  V30 5598 C 543.711 1.97215 -0.441676 0
M  V30 5599 C 544.032 1.67185 1.0037 0
M  V30 5600 O 543.302 0.973588 1.69994 0
M  V30 5601 H 541.882 0.72959 -0.160335 0
M  V30 5602 H 544.544 1.62348 -1.07838 0
M  V30 5603 H 543.64 3.06698 -0.57815 0
M  V30 5604 N 543.941 0.601185 1.45683 0
M  V30 5605 C 544.904 -0.111398 2.28929 0
M  V30 5606 C 545.904 -0.801246 1.39416 0
M  V30 5607 O 547.094 -0.650383 1.61603 0
M  V30 5608 C 544.226 -1.16773 3.20276 0
M  V30 5609 H 545.419 0.620412 2.93413 0
M  V30 5610 H 542.972 0.359946 1.52099 0
M  V30 5611 H 543.707 -1.93051 2.60579 0
M  V30 5612 H 543.492 -0.677358 3.86205 0
M  V30 5613 H 544.982 -1.66698 3.82886 0
M  V30 5614 N 545.419 -1.53889 0.339982 0
M  V30 5615 C 546.83 -1.86139 -0.144671 0
M  V30 5616 C 547.181 -1.2613 -1.50285 0
M  V30 5617 O 546.306 -0.573515 -2.08662 0
M  V30 5618 C 546.901 -3.37728 -0.269285 0
M  V30 5619 C 545.46 -3.69868 -0.698168 0
M  V30 5620 C 544.607 -2.76777 0.170249 0
M  V30 5621 H 547.558 -1.48503 0.559704 0
M  V30 5622 H 547.579 -3.64331 -1.0974 0
M  V30 5623 H 547.091 -3.81375 0.719366 0
M  V30 5624 H 545.192 -3.31764 -1.69597 0
M  V30 5625 H 545.305 -4.76582 -0.490533 0
M  V30 5626 H 543.669 -2.52188 -0.356844 0
M  V30 5627 H 544.452 -3.23253 1.15597 0
M  V30 5628 N 546.897 -0.0685191 -1.57451 0
M  V30 5629 C 548.143 0.602239 -1.93652 0
M  V30 5630 C 548.476 1.6946 -0.948526 0
M  V30 5631 O 547.751 1.94487 0.022782 0
M  V30 5632 C 548.034 1.18223 -3.4014 0
M  V30 5633 C 547.887 0.0967431 -4.49696 0
M  V30 5634 C 549.206 2.08872 -3.87377 0
M  V30 5635 H 546.325 0.217453 -0.70419 0
M  V30 5636 H 548.967 -0.133821 -1.89528 0
M  V30 5637 H 547.117 1.80953 -3.43785 0
M  V30 5638 H 548.789 -0.536155 -4.58174 0
M  V30 5639 H 547.032 -0.573063 -4.29998 0
M  V30 5640 H 547.703 0.542894 -5.49324 0
M  V30 5641 H 550.179 1.56081 -3.85717 0
M  V30 5642 H 549.055 2.46389 -4.90493 0
M  V30 5643 H 549.316 2.99572 -3.25129 0
M  V30 5644 N 548.375 1.56261 0.205012 0
M  V30 5645 C 549.621 1.80306 0.9283 0
M  V30 5646 C 549.954 0.640932 1.83319 0
M  V30 5647 O 549.229 -0.359032 1.91158 0
M  V30 5648 C 549.512 3.14547 1.75306 0
M  V30 5649 C 549.365 4.41236 0.873562 0
M  V30 5650 C 550.684 3.45382 2.72762 0
M  V30 5651 H 547.803 0.655929 0.336044 0
M  V30 5652 H 550.445 1.88984 0.196211 0
M  V30 5653 H 548.595 3.0728 2.37721 0
M  V30 5654 H 550.267 4.60539 0.264887 0
M  V30 5655 H 548.51 4.33427 0.179773 0
M  V30 5656 H 549.181 5.31639 1.48541 0
M  V30 5657 H 551.657 3.52884 2.20481 0
M  V30 5658 H 550.533 4.40449 3.2756 0
M  V30 5659 H 550.794 2.68377 3.51321 0
M  V30 5660 N 549.853 -0.472356 1.50355 0
M  V30 5661 C 551.269 -0.806001 1.37753 0
M  V30 5662 C 551.469 -1.968 0.432649 0
M  V30 5663 O 550.525 -2.52189 -0.12519 0
M  V30 5664 C 551.838 -1.11926 2.79093 0
M  V30 5665 C 553.386 -1.22579 2.87999 0
M  V30 5666 C 553.861 -1.57218 4.3017 0
M  V30 5667 N 555.352 -1.64212 4.33115 0
M  V30 5668 C 556.087 -1.92517 5.40116 0
M  V30 5669 N 555.583 -2.1885 6.57325 0
M  V30 5670 N 557.376 -1.94008 5.27558 0
M  V30 5671 H 549.527 0.293451 2.10363 0
M  V30 5672 H 551.79 0.0687672 0.945503 0
M  V30 5673 H 551.496 -0.338504 3.50067 0
M  V30 5674 H 551.37 -2.05577 3.16256 0
M  V30 5675 H 553.757 -1.99722 2.17245 0
M  V30 5676 H 553.838 -0.269107 2.54381 0
M  V30 5677 H 553.482 -0.806154 5.01461 0
M  V30 5678 H 553.412 -2.54034 4.61275 0
M  V30 5679 H 555.903 -1.45906 3.48597 0
M  V30 5680 H 556.216 -2.39718 7.3468 0
M  V30 5681 H 554.561 -2.16245 6.60502 0
M  V30 5682 H 557.752 -1.72931 4.34986 0
M  V30 5683 H 557.925 -2.15731 6.11035 0
M  V30 5684 N 551.331 -1.39911 -0.725443 0
M  V30 5685 C 552.58 -1.36963 -1.48068 0
M  V30 5686 C 552.893 0.0284478 -1.95579 0
M  V30 5687 O 554.099 0.180535 -2.70899 0
M  V30 5688 C 552.555 -2.40664 -2.67598 0
M  V30 5689 C 552.163 -3.86234 -2.26997 0
M  V30 5690 C 553.907 -2.46807 -3.45379 0
M  V30 5691 C 551.814 -4.81554 -3.43307 0
M  V30 5692 H 550.744 -0.509223 -0.556065 0
M  V30 5693 H 553.395 -1.65602 -0.790454 0
M  V30 5694 H 551.777 -2.05109 -3.38742 0
M  V30 5695 H 552.951 -4.3088 -1.63337 0
M  V30 5696 H 551.266 -3.83475 -1.62284 0
M  V30 5697 H 553.863 -3.15213 -4.31909 0
M  V30 5698 H 554.206 -1.49552 -3.8851 0
M  V30 5699 H 554.739 -2.81303 -2.81271 0
M  V30 5700 H 551.478 -5.80106 -3.05217 0
M  V30 5701 H 550.998 -4.4158 -4.05915 0
M  V30 5702 H 552.677 -5.0091 -4.0951 0
M  V30 5703 N 552.809 0.956637 -1.25245 0
M  V30 5704 C 554.039 1.7332 -1.12445 0
M  V30 5705 C 554.447 1.86392 0.324732 0
M  V30 5706 O 553.79 1.35967 1.23526 0
M  V30 5707 C 553.852 3.16603 -1.70303 0
M  V30 5708 C 553.516 3.26966 -3.19284 0
M  V30 5709 C 554.513 3.11434 -4.16299 0
M  V30 5710 C 552.198 3.50851 -3.59456 0
M  V30 5711 C 554.192 3.1963 -5.51467 0
M  V30 5712 C 551.879 3.58684 -4.94761 0
M  V30 5713 C 552.877 3.43087 -5.90576 0
M  V30 5714 O 552.565 3.50598 -7.2342 0
M  V30 5715 H 552.297 0.549981 -0.393061 0
M  V30 5716 H 554.851 1.20892 -1.66055 0
M  V30 5717 H 553.081 3.70385 -1.11138 0
M  V30 5718 H 554.77 3.76109 -1.52632 0
M  V30 5719 H 555.536 2.92853 -3.86604 0
M  V30 5720 H 551.415 3.62053 -2.85375 0
M  V30 5721 H 554.959 3.07373 -6.26233 0
M  V30 5722 H 550.856 3.76782 -5.24124 0
M  V30 5723 H 551.624 3.67242 -7.31489 0
M  V30 5724 N 554.287 1.06798 1.15896 0
M  V30 5725 C 555.512 0.808739 1.90982 0
M  V30 5726 C 555.937 -0.6316 1.77179 0
M  V30 5727 O 555.295 -1.4407 1.10061 0
M  V30 5728 C 555.343 1.21468 3.39526 0
M  V30 5729 O 554.447 0.356562 4.10856 0
M  V30 5730 H 553.788 0.29512 0.594811 0
M  V30 5731 H 556.318 1.42513 1.46804 0
M  V30 5732 H 556.328 1.18844 3.90308 0
M  V30 5733 H 555.003 2.26379 3.48891 0
M  V30 5734 H 553.58 0.444808 3.70238 0
M  V30 5735 N 555.766 -1.3263 0.851289 0
M  V30 5736 C 557.043 -1.91982 0.374448 0
M  V30 5737 C 557.423 -1.77568 -1.14161 0
M  V30 5738 O 556.771 -1.1717 -1.96172 0
M  V30 5739 C 556.981 -3.38862 0.835088 0
M  V30 5740 C 558.329 -4.15999 0.850309 0
M  V30 5741 O 559.353 -3.47566 0.779505 0
M  V30 5742 O 558.212 -5.38189 0.949481 0
M  V30 5743 H 555.306 -0.819846 0.10854 0
M  V30 5744 H 557.852 -1.41422 0.937966 0
M  V30 5745 H 556.624 -3.43281 1.87814 0
M  V30 5746 H 556.247 -3.96821 0.248833 0
M  V30 5747 N 557.244 -0.608902 -1.45362 0
M  V30 5748 C 558.469 -0.10921 -2.07112 0
M  V30 5749 C 558.894 1.19779 -1.45033 0
M  V30 5750 O 558.252 1.72961 -0.543527 0
M  V30 5751 C 558.3 0.0155745 -3.60597 0
M  V30 5752 O 557.404 1.06546 -3.98399 0
M  V30 5753 H 556.745 -0.0746619 -0.659789 0
M  V30 5754 H 559.275 -0.839283 -1.86594 0
M  V30 5755 H 559.285 0.213364 -4.07442 0
M  V30 5756 H 557.96 -0.938765 -4.05167 0
M  V30 5757 H 556.537 0.844024 -3.63223 0
M  V30 5758 N 558.722 1.53707 -0.348139 0
M  V30 5759 C 559.632 2.28881 0.514857 0
M  V30 5760 C 560.648 1.34168 1.10793 0
M  V30 5761 O 561.824 1.6721 1.12262 0
M  V30 5762 C 558.889 3.05042 1.64774 0
M  V30 5763 C 557.95 4.15389 1.08398 0
M  V30 5764 C 557.183 4.87909 2.16287 0
M  V30 5765 O 557.406 4.60137 3.3709 0
M  V30 5766 O 556.34 5.74254 1.80323 0
M  V30 5767 H 560.166 3.03547 -0.0963699 0
M  V30 5768 H 557.751 1.48972 -0.113043 0
M  V30 5769 H 559.633 3.52656 2.30677 0
M  V30 5770 H 558.308 2.33228 2.24469 0
M  V30 5771 H 557.215 3.72068 0.389341 0
M  V30 5772 H 558.548 4.89318 0.531829 0
M  V30 5773 N 560.2 0.0768682 1.57412 0
M  V30 5774 C 561.447 -0.591085 1.93681 0
M  V30 5775 C 561.775 -1.69311 0.957286 0
M  V30 5776 O 561.03 -1.95682 -0.0262428 0
M  V30 5777 C 561.329 -1.20268 3.36557 0
M  V30 5778 C 560.995 -0.226286 4.50332 0
M  V30 5779 C 559.657 0.0423142 4.81181 0
M  V30 5780 C 562.009 0.441415 5.19327 0
M  V30 5781 C 559.337 0.985616 5.78362 0
M  V30 5782 C 561.689 1.37307 6.17519 0
M  V30 5783 C 560.353 1.65009 6.46783 0
M  V30 5784 H 559.623 -0.216293 0.70873 0
M  V30 5785 H 562.27 0.148824 1.90921 0
M  V30 5786 H 560.575 -2.01844 3.35807 0
M  V30 5787 H 562.272 -1.72688 3.61911 0
M  V30 5788 H 558.862 -0.445821 4.26275 0
M  V30 5789 H 563.046 0.247023 4.95685 0
M  V30 5790 H 558.302 1.20743 5.99359 0
M  V30 5791 H 562.476 1.89637 6.70083 0
M  V30 5792 H 560.103 2.38263 7.21897 0
M  V30 5793 N 561.678 -1.56367 -0.196722 0
M  V30 5794 C 562.903 -1.84991 -0.937714 0
M  V30 5795 C 563.328 -0.660244 -1.76132 0
M  V30 5796 O 562.686 0.390967 -1.77034 0
M  V30 5797 C 562.734 -3.11828 -1.81096 0
M  V30 5798 O 561.838 -2.92266 -2.90955 0
M  V30 5799 H 561.179 -0.609193 -0.264159 0
M  V30 5800 H 563.709 -2.03595 -0.202529 0
M  V30 5801 H 563.719 -3.42579 -2.21594 0
M  V30 5802 H 562.394 -3.98037 -1.2058 0
M  V30 5803 H 560.971 -2.72809 -2.54224 0
M  V30 5804 N 563.156 0.464375 -1.50603 0
M  V30 5805 C 564.381 1.24372 -1.65971 0
M  V30 5806 C 564.806 1.84901 -0.345453 0
M  V30 5807 O 564.164 1.67596 0.691457 0
M  V30 5808 C 564.212 2.32331 -2.7578 0
M  V30 5809 O 563.316 3.37146 -2.375 0
M  V30 5810 H 562.657 0.365604 -0.554283 0
M  V30 5811 H 565.187 0.55183 -1.97018 0
M  V30 5812 H 565.197 2.77539 -2.99059 0
M  V30 5813 H 563.872 1.87648 -3.71162 0
M  V30 5814 H 562.449 2.97602 -2.24694 0
M  V30 5815 N 564.634 1.40294 0.718013 0
M  V30 5816 C 566.045 1.34289 1.29705 0
M  V30 5817 C 566.396 0.0152228 1.96194 0
M  V30 5818 O 565.521 -0.88682 1.97394 0
M  V30 5819 C 566.116 2.43219 2.3586 0
M  V30 5820 C 564.675 2.40682 2.89394 0
M  V30 5821 C 563.822 2.24223 1.63154 0
M  V30 5822 H 566.773 1.50135 0.514312 0
M  V30 5823 H 566.794 2.10986 3.16647 0
M  V30 5824 H 566.306 3.39836 1.87439 0
M  V30 5825 H 564.407 1.47756 3.42051 0
M  V30 5826 H 564.52 3.36177 3.41353 0
M  V30 5827 H 562.884 1.71696 1.88129 0
M  V30 5828 H 563.667 3.22834 1.16761 0
M  V30 5829 N 566.112 -0.949982 1.2575 0
M  V30 5830 C 567.022 -2.08109 1.08295 0
M  V30 5831 C 568.038 -1.7399 0.0188181 0
M  V30 5832 O 569.214 -2.00187 0.220724 0
M  V30 5833 C 566.279 -3.39383 0.708534 0
M  V30 5834 C 565.34 -3.8734 1.85111 0
M  V30 5835 C 564.573 -5.12349 1.49447 0
M  V30 5836 O 564.796 -5.6905 0.392212 0
M  V30 5837 O 563.73 -5.5513 2.32624 0
M  V30 5838 H 567.556 -2.25738 2.03165 0
M  V30 5839 H 565.141 -1.06545 1.04731 0
M  V30 5840 H 567.023 -4.18277 0.512061 0
M  V30 5841 H 565.698 -3.23013 -0.210854 0
M  V30 5842 H 564.605 -3.09429 2.10248 0
M  V30 5843 H 565.938 -4.08216 2.74991 0
M  V30 5844 N 567.59 -1.07411 -1.15328 0
M  V30 5845 C 568.836 -0.798831 -1.86404 0
M  V30 5846 C 569.169 0.673433 -1.8215 0
M  V30 5847 O 568.444 1.49428 -1.24505 0
M  V30 5848 C 568.727 -1.30846 -3.35487 0
M  V30 5849 C 568.58 -2.84532 -3.4837 0
M  V30 5850 C 569.899 -0.925486 -4.30259 0
M  V30 5851 H 567.018 -0.291659 -0.676834 0
M  V30 5852 H 569.66 -1.332 -1.35491 0
M  V30 5853 H 567.81 -0.854916 -3.78977 0
M  V30 5854 H 569.482 -3.3818 -3.13739 0
M  V30 5855 H 567.725 -3.22699 -2.8991 0
M  V30 5856 H 568.396 -3.15259 -4.53118 0
M  V30 5857 H 570.872 -1.3163 -3.94731 0
M  V30 5858 H 569.748 -1.3094 -5.33053 0
M  V30 5859 H 570.009 0.168525 -4.41779 0
M  V30 5860 N 569.068 1.32177 -0.85831 0
M  V30 5861 C 570 2.27688 -0.262835 0
M  V30 5862 C 571.013 1.52588 0.567513 0
M  V30 5863 O 572.202 1.74156 0.391407 0
M  V30 5864 C 569.302 3.32668 0.646937 0
M  V30 5865 C 568.475 4.37148 -0.148372 0
M  V30 5866 C 567.534 5.21686 0.687728 0
M  V30 5867 O 566.56 5.69074 0.119934 0
M  V30 5868 N 567.762 5.44892 2.00182 0
M  V30 5869 H 570.527 2.79426 -1.08356 0
M  V30 5870 H 568.088 1.45076 -0.718647 0
M  V30 5871 H 570.08 3.86134 1.2117 0
M  V30 5872 H 568.65 2.81061 1.36834 0
M  V30 5873 H 567.87 3.83915 -0.894572 0
M  V30 5874 H 569.158 5.04038 -0.694514 0
M  V30 5875 H 568.556 5.08128 2.4864 0
M  V30 5876 H 567.113 6.0134 2.51463 0
M  V30 5877 N 570.547 0.616602 1.45037 0
M  V30 5878 C 571.795 0.115103 2.01772 0
M  V30 5879 C 572.116 -1.2622 1.48639 0
M  V30 5880 O 571.386 -1.83563 0.684199 0
M  V30 5881 H 569.966 0.0395607 0.745952 0
M  V30 5882 H 572.628 0.800032 1.77723 0
M  V30 5883 H 571.724 0.0717274 3.12018 0
M  V30 5884 N 572.025 -1.5352 0.356285 0
M  V30 5885 C 573.436 -1.86282 -0.12492 0
M  V30 5886 C 573.787 -1.27717 -1.48939 0
M  V30 5887 O 572.912 -0.595614 -2.08042 0
M  V30 5888 C 573.507 -3.37995 -0.23345 0
M  V30 5889 C 572.066 -3.70588 -0.658899 0
M  V30 5890 C 571.213 -2.76581 0.199596 0
M  V30 5891 H 574.164 -1.47901 0.575423 0
M  V30 5892 H 574.185 -3.65475 -1.0587 0
M  V30 5893 H 573.697 -3.8059 0.759776 0
M  V30 5894 H 571.798 -3.33544 -1.66069 0
M  V30 5895 H 571.911 -4.77076 -0.439957 0
M  V30 5896 H 570.275 -2.52552 -0.330076 0
M  V30 5897 H 571.058 -3.22008 1.19019 0
M  V30 5898 N 573.503 -0.0852151 -1.57369 0
M  V30 5899 C 574.752 0.580443 -1.93168 0
M  V30 5900 C 575.065 1.6995 -0.968319 0
M  V30 5901 O 576.271 2.42564 -1.21963 0
M  V30 5902 C 574.727 1.08386 -3.43192 0
M  V30 5903 C 574.335 -0.00491388 -4.48 0
M  V30 5904 C 576.079 1.72281 -3.87968 0
M  V30 5905 C 573.986 0.513299 -5.89168 0
M  V30 5906 H 572.916 0.22059 -0.72101 0
M  V30 5907 H 575.567 -0.159621 -1.82804 0
M  V30 5908 H 573.949 1.8773 -3.48674 0
M  V30 5909 H 575.123 -0.780032 -4.5415 0
M  V30 5910 H 573.438 -0.548453 -4.12772 0
M  V30 5911 H 576.035 2.12108 -4.9083 0
M  V30 5912 H 576.378 2.58811 -3.26071 0
M  V30 5913 H 576.911 0.995359 -3.85146 0
M  V30 5914 H 573.65 -0.315153 -6.54742 0
M  V30 5915 H 573.17 1.25564 -5.8651 0
M  V30 5916 H 574.849 0.985433 -6.39451 0
M  V30 5917 N 574.981 1.5647 0.188427 0
M  V30 5918 C 576.23 1.80207 0.905995 0
M  V30 5919 C 576.543 0.659579 1.84144 0
M  V30 5920 O 577.749 0.781431 2.60011 0
M  V30 5921 C 576.205 3.19255 1.66145 0
M  V30 5922 C 575.813 4.41324 0.770504 0
M  V30 5923 C 577.557 3.52298 2.36826 0
M  V30 5924 C 575.464 5.71394 1.52521 0
M  V30 5925 H 574.394 0.671953 0.342045 0
M  V30 5926 H 577.045 1.82808 0.159164 0
M  V30 5927 H 575.427 3.10922 2.45242 0
M  V30 5928 H 576.601 4.60797 0.0177261 0
M  V30 5929 H 574.916 4.16035 0.174199 0
M  V30 5930 H 577.513 4.46715 2.93854 0
M  V30 5931 H 577.856 2.76359 3.11338 0
M  V30 5932 H 578.389 3.62108 1.6469 0
M  V30 5933 H 575.128 6.50316 0.82275 0
M  V30 5934 H 574.648 5.55928 2.25175 0
M  V30 5935 H 576.327 6.12747 2.07725 0
M  V30 5936 N 576.459 -0.456382 1.50847 0
M  V30 5937 C 577.407 -1.57318 1.71329 0
M  V30 5938 C 578.401 -1.59187 0.579287 0
M  V30 5939 O 579.607 -1.6316 0.76018 0
M  V30 5940 H 575.982 -0.5223 0.541024 0
M  V30 5941 H 577.953 -1.3721 2.64983 0
M  V30 5942 C 576.702 -2.95142 1.83811 0
M  V30 5943 H 576.025 -2.94428 2.70467 0
M  V30 5944 H 577.465 -3.72702 2.02161 0
M  V30 5945 C 575.924 -3.31636 0.593224 0
M  V30 5946 O 576.454 -4.00852 -0.260898 0
M  V30 5947 N 574.66 -2.87205 0.442902 0
M  V30 5948 H 574.207 -2.31051 1.13901 0
M  V30 5949 H 574.165 -3.11986 -0.38884 0
M  V30 5950 N 577.937 -1.40673 -0.710563 0
M  V30 5951 C 579.184 -1.39222 -1.47049 0
M  V30 5952 C 579.512 0.0037691 -1.945 0
M  V30 5953 O 578.767 0.989224 -1.68857 0
M  V30 5954 C 579.066 -2.33253 -2.70791 0
M  V30 5955 C 578.732 -3.80406 -2.42079 0
M  V30 5956 C 577.394 -4.20496 -2.33959 0
M  V30 5957 C 579.746 -4.73375 -2.18094 0
M  V30 5958 C 577.074 -5.51584 -1.99929 0
M  V30 5959 C 579.426 -6.04768 -1.85576 0
M  V30 5960 C 578.09 -6.43895 -1.75941 0
M  V30 5961 H 577.36 -0.509449 -0.538092 0
M  V30 5962 H 580.007 -1.73363 -0.81348 0
M  V30 5963 H 578.312 -1.92314 -3.41354 0
M  V30 5964 H 580.009 -2.29412 -3.28894 0
M  V30 5965 H 576.599 -3.48645 -2.49288 0
M  V30 5966 H 580.783 -4.43217 -2.23321 0
M  V30 5967 H 576.039 -5.80797 -1.91011 0
M  V30 5968 H 580.213 -6.76318 -1.66033 0
M  V30 5969 H 577.84 -7.45387 -1.4934 0
M  V30 5970 N 579.415 0.9433 -1.26252 0
M  V30 5971 C 580.363 2.06302 -1.07434 0
M  V30 5972 C 581.357 1.694 -0.00189471 0
M  V30 5973 O 582.563 1.79302 -0.158408 0
M  V30 5974 H 578.938 0.675453 -0.330556 0
M  V30 5975 H 580.909 2.19326 -2.02333 0
M  V30 5976 C 579.658 3.40125 -0.721817 0
M  V30 5977 H 578.981 3.68996 -1.5389 0
M  V30 5978 H 580.421 4.19295 -0.629922 0
M  V30 5979 C 578.88 3.31993 0.572902 0
M  V30 5980 O 579.41 3.67945 1.61182 0
M  V30 5981 N 577.616 2.85099 0.562748 0
M  V30 5982 H 577.163 2.5604 -0.283092 0
M  V30 5983 H 577.121 2.80041 1.42915 0
M  V30 5984 N 580.893 1.08022 1.14757 0
M  V30 5985 C 582.139 0.808705 1.85978 0
M  V30 5986 C 582.472 -0.663764 1.82504 0
M  V30 5987 O 581.747 -1.48765 1.25296 0
M  V30 5988 C 582.03 1.32623 3.34788 0
M  V30 5989 C 581.883 2.86375 3.46856 0
M  V30 5990 C 583.202 0.948291 4.29762 0
M  V30 5991 H 580.321 0.295244 0.675278 0
M  V30 5992 H 582.963 1.33917 1.34783 0
M  V30 5993 H 581.113 0.875002 3.78518 0
M  V30 5994 H 582.785 3.39839 3.11941 0
M  V30 5995 H 581.028 3.24232 2.88194 0
M  V30 5996 H 581.699 3.17658 4.51439 0
M  V30 5997 H 584.175 1.33722 3.94028 0
M  V30 5998 H 583.051 1.33765 5.32352 0
M  V30 5999 H 583.312 -0.145094 4.41862 0
M  V30 6000 N 582.371 -1.3172 0.865308 0
M  V30 6001 C 583.301 -2.31109 0.333302 0
M  V30 6002 C 584.282 -1.60148 -0.573301 0
M  V30 6003 O 585.467 -1.87882 -0.491305 0
M  V30 6004 C 582.597 -3.44104 -0.470078 0
M  V30 6005 C 581.551 -4.26623 0.343021 0
M  V30 6006 C 580.877 -5.31482 -0.585756 0
M  V30 6007 C 582.177 -4.98001 1.57456 0
M  V30 6008 H 583.871 -2.75855 1.1638 0
M  V30 6009 H 581.417 -1.3262 0.561069 0
M  V30 6010 H 583.37 -4.12682 -0.852752 0
M  V30 6011 H 582.094 -2.98112 -1.33404 0
M  V30 6012 H 580.753 -3.59707 0.707583 0
M  V30 6013 H 580.401 -4.81741 -1.44686 0
M  V30 6014 H 580.101 -5.87582 -0.0456494 0
M  V30 6015 H 581.625 -6.0292 -0.965375 0
M  V30 6016 H 583.039 -5.59201 1.26359 0
M  V30 6017 H 581.436 -5.63876 2.05339 0
M  V30 6018 H 582.506 -4.25253 2.32997 0
M  V30 6019 N 583.85 -0.624285 -1.44708 0
M  V30 6020 C 585.127 -0.0572781 -1.95516 0
M  V30 6021 C 585.507 1.41516 -1.56641 0
M  V30 6022 O 584.855 2.12614 -0.837111 0
M  V30 6023 C 585.065 -0.272944 -3.47931 0
M  V30 6024 C 586.413 -0.162529 -4.24289 0
M  V30 6025 O 587.437 -0.203946 -3.55616 0
M  V30 6026 O 586.296 -0.0616847 -5.46465 0
M  V30 6027 H 583.389 0.0262219 -0.826584 0
M  V30 6028 H 585.936 -0.695512 -1.54793 0
M  V30 6029 H 584.707 -1.29492 -3.69253 0
M  V30 6030 H 584.331 0.399756 -3.95585 0
M  V30 6031 N 585.328 1.53329 -0.364422 0
M  V30 6032 C 586.605 1.93557 0.281962 0
M  V30 6033 C 586.985 1.29786 1.6649 0
M  V30 6034 O 586.333 0.456512 2.23893 0
M  V30 6035 C 586.543 3.47405 0.333331 0
M  V30 6036 C 587.891 4.20699 0.574231 0
M  V30 6037 O 588.915 3.53779 0.414588 0
M  V30 6038 O 587.774 5.39287 0.885002 0
M  V30 6039 H 584.868 0.809573 0.168881 0
M  V30 6040 H 587.414 1.64494 -0.417121 0
M  V30 6041 H 586.186 3.86091 -0.636326 0
M  V30 6042 H 585.809 3.82697 1.07836 0
M  V30 6043 N 586.806 0.0935595 1.57322 0
M  V30 6044 C 587.753 -0.865935 2.1394 0
M  V30 6045 C 588.723 -1.28083 1.05754 0
M  V30 6046 O 589.908 -1.36285 1.33533 0
M  V30 6047 C 587.048 -2.12023 2.72287 0
M  V30 6048 C 586.161 -1.756 3.94701 0
M  V30 6049 C 585.296 -2.95804 4.41218 0
M  V30 6050 C 584.335 -2.555 5.56225 0
M  V30 6051 N 583.472 -3.68534 5.97601 0
M  V30 6052 H 588.312 -0.376261 2.95615 0
M  V30 6053 H 585.849 -0.174052 1.46067 0
M  V30 6054 H 587.807 -2.85477 3.04235 0
M  V30 6055 H 586.437 -2.58492 1.93343 0
M  V30 6056 H 585.489 -0.921208 3.69077 0
M  V30 6057 H 586.801 -1.41964 4.78171 0
M  V30 6058 H 585.955 -3.77513 4.74941 0
M  V30 6059 H 584.694 -3.32649 3.56645 0
M  V30 6060 H 583.699 -1.72218 5.22131 0
M  V30 6061 H 584.924 -2.19801 6.42545 0
M  V30 6062 H 582.87 -4.051 5.15974 0
M  V30 6063 H 582.787 -3.38737 6.75865 0
M  V30 6064 H 584.055 -4.50757 6.35955 0
M  V30 6065 N 588.284 -1.56567 -0.180126 0
M  V30 6066 C 589.532 -1.81133 -0.896392 0
M  V30 6067 C 589.853 -0.669114 -1.83161 0
M  V30 6068 O 589.123 0.311616 -1.93406 0
M  V30 6069 H 587.703 -0.668172 -0.333999 0
M  V30 6070 H 590.365 -1.94048 -0.182051 0
M  V30 6071 H 589.461 -2.74854 -1.47857 0
M  V30 6072 N 589.762 0.448376 -1.51087 0
M  V30 6073 C 590.71 1.56407 -1.72161 0
M  V30 6074 C 591.704 1.58878 -0.587721 0
M  V30 6075 O 592.91 1.62755 -0.768822 0
M  V30 6076 H 589.285 0.519423 -0.543786 0
M  V30 6077 H 591.256 1.35803 -2.65707 0
M  V30 6078 C 590.005 2.94163 -1.85373 0
M  V30 6079 H 589.328 2.9299 -2.72024 0
M  V30 6080 H 590.768 3.71625 -2.04135 0
M  V30 6081 C 589.227 3.31317 -0.610803 0
M  V30 6082 O 589.757 4.00985 0.239636 0
M  V30 6083 N 587.963 2.86966 -0.458127 0
M  V30 6084 H 587.51 2.30443 -1.15124 0
M  V30 6085 H 587.468 3.12188 0.372289 0
M  V30 6086 N 591.24 1.41047 0.703093 0
M  V30 6087 C 592.489 1.39301 1.4587 0
M  V30 6088 C 592.802 0.00267077 1.956 0
M  V30 6089 O 594.008 -0.137414 2.71152 0
M  V30 6090 C 592.464 2.44891 2.63735 0
M  V30 6091 C 592.072 3.89796 2.20824 0
M  V30 6092 C 593.816 2.5227 3.41409 0
M  V30 6093 C 591.723 4.86955 3.35602 0
M  V30 6094 H 590.653 0.518005 0.547893 0
M  V30 6095 H 593.304 1.66839 0.764009 0
M  V30 6096 H 591.686 2.10472 3.35436 0
M  V30 6097 H 592.86 4.33424 1.56461 0
M  V30 6098 H 591.175 3.86008 1.56163 0
M  V30 6099 H 593.772 3.22044 4.26839 0
M  V30 6100 H 594.115 1.55714 3.86081 0
M  V30 6101 H 594.648 2.85742 2.7676 0
M  V30 6102 H 591.387 5.84888 2.9595 0
M  V30 6103 H 590.907 4.47982 3.98839 0
M  V30 6104 H 592.586 5.07361 4.01489 0
M  V30 6105 N 592.718 -0.936591 1.26751 0
M  V30 6106 C 593.967 -1.67778 1.11953 0
M  V30 6107 C 594.28 -1.92694 -0.33589 0
M  V30 6108 O 595.486 -2.64682 -0.604618 0
M  V30 6109 C 593.942 -3.02138 1.95551 0
M  V30 6110 C 593.55 -2.84953 3.45696 0
M  V30 6111 C 595.294 -3.79917 1.89377 0
M  V30 6112 C 593.201 -4.14814 4.21525 0
M  V30 6113 H 592.131 -0.629275 0.415366 0
M  V30 6114 H 594.782 -1.04122 1.51099 0
M  V30 6115 H 593.164 -3.668 1.49243 0
M  V30 6116 H 594.338 -2.29112 3.99805 0
M  V30 6117 H 592.653 -2.20612 3.53156 0
M  V30 6118 H 595.25 -4.76134 2.43312 0
M  V30 6119 H 595.593 -4.07204 0.865464 0
M  V30 6120 H 596.126 -3.22037 2.33532 0
M  V30 6121 H 592.865 -3.92709 5.24843 0
M  V30 6122 H 592.385 -4.70352 3.72195 0
M  V30 6123 H 594.064 -4.83239 4.3022 0
M  V30 6124 N 594.196 -1.08629 -1.14182 0
M  V30 6125 C 595.444 -0.815731 -1.84906 0
M  V30 6126 C 595.765 0.660441 -1.83475 0
M  V30 6127 O 595.035 1.47888 -1.28476 0
M  V30 6128 H 593.615 -0.298773 -0.684648 0
M  V30 6129 H 596.277 -1.37274 -1.38354 0
M  V30 6130 H 595.373 -1.16193 -2.89665 0
M  V30 6131 N 595.674 1.31259 -0.872281 0
M  V30 6132 C 596.904 2.00504 -0.498183 0
M  V30 6133 C 597.312 1.65632 0.914479 0
M  V30 6134 O 596.655 0.882849 1.61095 0
M  V30 6135 C 596.717 3.5482 -0.578194 0
M  V30 6136 C 596.381 4.13172 -1.95289 0
M  V30 6137 C 597.378 4.30107 -2.92069 0
M  V30 6138 C 595.063 4.48846 -2.25483 0
M  V30 6139 C 597.057 4.81908 -4.17185 0
M  V30 6140 C 594.744 5.00349 -3.50847 0
M  V30 6141 C 595.742 5.16831 -4.46514 0
M  V30 6142 O 595.43 5.67228 -5.69656 0
M  V30 6143 H 595.162 0.648055 -0.192354 0
M  V30 6144 H 597.716 1.6841 -1.17589 0
M  V30 6145 H 595.946 3.86383 0.156438 0
M  V30 6146 H 597.635 4.05318 -0.217192 0
M  V30 6147 H 598.401 4.02862 -2.7005 0
M  V30 6148 H 594.28 4.35292 -1.51795 0
M  V30 6149 H 597.824 4.94688 -4.91863 0
M  V30 6150 H 593.721 5.27028 -3.72708 0
M  V30 6151 H 594.489 5.85592 -5.7186 0
M  V30 6152 N 597.152 0.631951 1.44375 0
M  V30 6153 C 598.377 0.142146 2.06912 0
M  V30 6154 C 598.802 -1.17456 1.4692 0
M  V30 6155 O 598.16 -1.72074 0.570975 0
M  V30 6156 C 598.208 0.0417952 3.60576 0
M  V30 6157 O 597.312 -1.00194 4.00044 0
M  V30 6158 H 596.653 0.0851491 0.658518 0
M  V30 6159 H 599.183 0.868863 1.85235 0
M  V30 6160 H 599.193 -0.148517 4.0773 0
M  V30 6161 H 597.868 1.0031 4.03622 0
M  V30 6162 H 596.445 -0.786131 3.64519 0
M  V30 6163 N 598.631 -1.53133 0.372548 0
M  V30 6164 C 599.563 -2.23557 -0.505444 0
M  V30 6165 C 600.576 -1.25211 -1.04049 0
M  V30 6166 O 601.765 -1.51391 -0.945675 0
M  V30 6167 C 598.865 -2.92516 -1.71136 0
M  V30 6168 C 598.038 -4.17428 -1.30661 0
M  V30 6169 C 597.097 -4.69535 -2.37536 0
M  V30 6170 O 596.123 -5.33042 -1.99637 0
M  V30 6171 N 597.325 -4.47947 -3.6922 0
M  V30 6172 H 600.09 -2.9954 0.0978259 0
M  V30 6173 H 597.651 -1.60684 0.198068 0
M  V30 6174 H 599.643 -3.24281 -2.42124 0
M  V30 6175 H 598.213 -2.19944 -2.22134 0
M  V30 6176 H 597.433 -3.91888 -0.426292 0
M  V30 6177 H 598.721 -4.98622 -1.01259 0
M  V30 6178 H 598.119 -3.97219 -4.02783 0
M  V30 6179 H 596.676 -4.84245 -4.36292 0
M  V30 6180 N 600.109 -0.101901 -1.5727 0
M  V30 6181 C 601.355 0.561027 -1.94885 0
M  V30 6182 C 601.688 1.6741 -0.984258 0
M  V30 6183 O 600.963 1.94491 -0.0184767 0
M  V30 6184 C 601.246 1.10982 -3.42571 0
M  V30 6185 C 601.099 0.00133418 -4.498 0
M  V30 6186 C 602.418 2.00608 -3.9172 0
M  V30 6187 H 599.537 0.202467 -0.708644 0
M  V30 6188 H 602.179 -0.173992 -1.89202 0
M  V30 6189 H 600.329 1.73621 -3.47546 0
M  V30 6190 H 602.001 -0.63322 -4.56933 0
M  V30 6191 H 600.244 -0.664143 -4.28686 0
M  V30 6192 H 600.915 0.426253 -5.50352 0
M  V30 6193 H 603.391 1.47864 -3.88941 0
M  V30 6194 H 602.267 2.3593 -4.95609 0
M  V30 6195 H 602.528 2.92608 -3.3141 0
M  V30 6196 N 601.587 1.56661 0.17182 0
M  V30 6197 C 602.864 1.72838 0.915778 0
M  V30 6198 C 603.244 0.66316 2.00413 0
M  V30 6199 O 602.592 -0.322123 2.26218 0
M  V30 6200 C 602.802 3.16019 1.48097 0
M  V30 6201 C 604.15 3.76962 1.95408 0
M  V30 6202 O 605.174 3.19294 1.57892 0
M  V30 6203 O 604.033 4.78219 2.64516 0
M  V30 6204 H 601.127 0.705797 0.431021 0
M  V30 6205 H 603.673 1.68947 0.159689 0
M  V30 6206 H 602.445 3.85031 0.697618 0
M  V30 6207 H 602.068 3.24234 2.30126 0
M  V30 6208 N 603.065 -0.440357 1.51323 0
M  V30 6209 C 604.012 -1.53429 1.72419 0
M  V30 6210 C 604.982 -1.56165 0.565826 0
M  V30 6211 O 606.167 -1.73222 0.799917 0
M  V30 6212 C 603.307 -2.91169 1.85242 0
M  V30 6213 C 602.42 -2.97985 3.12777 0
M  V30 6214 C 601.555 -4.26829 3.16212 0
M  V30 6215 C 600.594 -4.27501 4.38074 0
M  V30 6216 N 599.731 -5.47866 4.39076 0
M  V30 6217 H 604.571 -1.34743 2.65797 0
M  V30 6218 H 602.108 -0.654608 1.31732 0
M  V30 6219 H 604.066 -3.71087 1.90658 0
M  V30 6220 H 602.696 -3.0842 0.952744 0
M  V30 6221 H 601.748 -2.10749 3.16685 0
M  V30 6222 H 603.06 -2.94342 4.02696 0
M  V30 6223 H 602.214 -5.15118 3.20527 0
M  V30 6224 H 600.953 -4.33124 2.24176 0
M  V30 6225 H 599.958 -3.37606 4.33938 0
M  V30 6226 H 601.183 -4.22873 5.31371 0
M  V30 6227 H 599.129 -5.54887 3.49909 0
M  V30 6228 H 599.046 -5.46091 5.22801 0
M  V30 6229 H 600.314 -6.38195 4.4758 0
M  V30 6230 N 604.543 -1.41418 -0.695603 0
M  V30 6231 C 605.476 -1.3768 -1.81988 0
M  V30 6232 C 606.454 -0.244061 -1.60758 0
M  V30 6233 O 607.638 -0.430965 -1.83507 0
M  V30 6234 C 604.765 -1.1476 -3.18666 0
M  V30 6235 C 603.811 -2.30752 -3.58686 0
M  V30 6236 S 604.644 -3.9323 -3.63498 0
M  V30 6237 C 605.8 -3.72613 -5.02902 0
M  V30 6238 H 606.033 -2.32822 -1.84882 0
M  V30 6239 H 603.566 -1.27942 -0.86431 0
M  V30 6240 H 605.524 -1.02223 -3.97569 0
M  V30 6241 H 604.185 -0.212385 -3.13381 0
M  V30 6242 H 603.378 -2.10409 -4.57978 0
M  V30 6243 H 602.98 -2.39696 -2.87092 0
M  V30 6244 H 605.272 -3.32317 -5.904 0
M  V30 6245 H 606.215 -4.71507 -5.28286 0
M  V30 6246 H 606.623 -3.0589 -4.74438 0
M  V30 6247 N 606.021 0.929856 -1.27246 0
M  V30 6248 C 606.984 2.01172 -1.09829 0
M  V30 6249 C 607.984 1.60743 -0.0429687 0
M  V30 6250 O 609.174 1.71813 -0.287373 0
M  V30 6251 C 606.306 3.34191 -0.673003 0
M  V30 6252 H 607.499 2.18054 -2.05895 0
M  V30 6253 H 605.052 1.11036 -1.10003 0
M  V30 6254 H 605.787 3.23009 0.289134 0
M  V30 6255 H 605.572 3.64892 -1.43515 0
M  V30 6256 H 607.062 4.13646 -0.573323 0
M  V30 6257 N 607.499 1.09233 1.13605 0
M  V30 6258 C 608.724 0.849067 1.89224 0
M  V30 6259 C 609.149 -0.593875 1.78479 0
M  V30 6260 O 608.507 -1.41703 1.13092 0
M  V30 6261 C 608.555 1.28642 3.36873 0
M  V30 6262 O 607.659 0.44363 4.10007 0
M  V30 6263 H 607 0.30767 0.588417 0
M  V30 6264 H 609.53 1.45595 1.43748 0
M  V30 6265 H 609.54 1.27096 3.87699 0
M  V30 6266 H 608.215 2.33729 3.44011 0
M  V30 6267 H 606.792 0.523241 3.69211 0
M  V30 6268 N 608.977 -1.30795 0.87923 0
M  V30 6269 C 609.907 -2.30742 0.357796 0
M  V30 6270 C 610.888 -1.60747 -0.556283 0
M  V30 6271 O 612.073 -1.88393 -0.47135 0
M  V30 6272 C 609.203 -3.44583 -0.433555 0
M  V30 6273 C 608.157 -4.26235 0.388251 0
M  V30 6274 C 607.483 -5.32073 -0.529352 0
M  V30 6275 C 608.783 -4.96303 1.62729 0
M  V30 6276 H 610.477 -2.74605 1.19299 0
M  V30 6277 H 608.023 -1.32017 0.575104 0
M  V30 6278 H 609.976 -4.13563 -0.808934 0
M  V30 6279 H 608.7 -2.99511 -1.30234 0
M  V30 6280 H 607.359 -3.58936 0.745695 0
M  V30 6281 H 607.007 -4.83249 -1.39569 0
M  V30 6282 H 606.707 -5.87598 0.0166741 0
M  V30 6283 H 608.231 -6.0391 -0.901373 0
M  V30 6284 H 609.645 -5.5783 1.32283 0
M  V30 6285 H 608.042 -5.61666 2.11309 0
M  V30 6286 H 609.112 -4.22758 2.37494 0
M  V30 6287 N 610.455 -0.639598 -1.44038 0
M  V30 6288 C 611.685 -0.154586 -2.06021 0
M  V30 6289 C 612.093 1.17951 -1.47933 0
M  V30 6290 O 611.436 1.73627 -0.59994 0
M  V30 6291 C 611.498 0.0255459 -3.59491 0
M  V30 6292 C 611.162 -1.2317 -4.40089 0
M  V30 6293 C 612.159 -2.15735 -4.73027 0
M  V30 6294 C 609.844 -1.46949 -4.80324 0
M  V30 6295 C 611.838 -3.30382 -5.45093 0
M  V30 6296 C 609.525 -2.61891 -5.52138 0
M  V30 6297 C 610.523 -3.53433 -5.84443 0
M  V30 6298 O 610.211 -4.6637 -6.54793 0
M  V30 6299 H 609.943 -0.0808543 -0.671147 0
M  V30 6300 H 612.497 -0.876541 -1.85758 0
M  V30 6301 H 610.727 0.802733 -3.78276 0
M  V30 6302 H 612.416 0.466184 -4.03214 0
M  V30 6303 H 613.182 -1.98602 -4.42473 0
M  V30 6304 H 609.061 -0.765815 -4.54595 0
M  V30 6305 H 612.605 -4.01856 -5.70226 0
M  V30 6306 H 608.502 -2.78964 -5.82108 0
M  V30 6307 H 609.27 -4.6546 -6.73267 0
M  V30 6308 N 611.933 1.52934 -0.380664 0
M  V30 6309 C 612.881 2.27727 0.47361 0
M  V30 6310 C 613.875 1.31288 1.0705 0
M  V30 6311 O 615.081 1.4886 1.01197 0
M  V30 6312 H 611.456 0.732189 0.171475 0
M  V30 6313 H 613.427 2.97864 -0.178785 0
M  V30 6314 C 612.176 3.0904 1.59341 0
M  V30 6315 H 611.499 3.831 1.14343 0
M  V30 6316 H 612.939 3.64527 2.16555 0
M  V30 6317 C 611.398 2.20813 2.54447 0
M  V30 6318 O 611.928 1.82907 3.57642 0
M  V30 6319 N 610.134 1.85145 2.23986 0
M  V30 6320 H 609.681 2.16169 1.40103 0
M  V30 6321 H 609.639 1.26402 2.87871 0
M  V30 6322 N 613.412 0.11024 1.57214 0
M  V30 6323 C 614.661 -0.549638 1.94067 0
M  V30 6324 C 614.974 -1.68388 0.995234 0
M  V30 6325 O 616.18 -2.40593 1.25807 0
M  V30 6326 C 614.636 -1.02912 3.44873 0
M  V30 6327 C 614.244 0.0761861 4.47935 0
M  V30 6328 C 615.988 -1.66087 3.9066 0
M  V30 6329 C 613.895 -0.419502 5.8991 0
M  V30 6330 H 612.825 -0.209092 0.724428 0
M  V30 6331 H 615.476 0.188683 1.82527 0
M  V30 6332 H 613.858 -1.82159 3.51616 0
M  V30 6333 H 615.032 0.852185 4.52851 0
M  V30 6334 H 613.347 0.614052 4.11847 0
M  V30 6335 H 615.944 -2.04272 4.94143 0
M  V30 6336 H 616.287 -2.53591 3.30148 0
M  V30 6337 H 616.82 -0.933959 3.86681 0
M  V30 6338 H 613.559 0.419277 6.54158 0
M  V30 6339 H 613.079 -1.16217 5.88433 0
M  V30 6340 H 614.758 -0.883577 6.40938 0
M  V30 6341 N 614.89 -1.56749 -0.16351 0
M  V30 6342 C 615.84 -1.93424 -1.20712 0
M  V30 6343 C 616.824 -0.803469 -1.39403 0
M  V30 6344 O 618.016 -1.06675 -1.41243 0
M  V30 6345 C 615.145 -2.30431 -2.54473 0
M  V30 6346 C 614.231 -3.5004 -2.39443 0
M  V30 6347 N 614.622 -4.67058 -1.9414 0
M  V30 6348 C 612.92 -3.548 -2.70246 0
M  V30 6349 C 613.621 -5.49184 -1.9176 0
M  V30 6350 N 612.597 -4.9044 -2.34457 0
M  V30 6351 H 616.399 -2.8138 -0.848681 0
M  V30 6352 H 613.913 -1.58089 -0.371717 0
M  V30 6353 H 615.91 -2.54903 -3.29894 0
M  V30 6354 H 614.57 -1.43818 -2.91112 0
M  V30 6355 H 615.581 -4.91128 -1.64357 0
M  V30 6356 H 612.258 -2.78685 -3.10871 0
M  V30 6357 H 613.648 -6.5297 -1.58366 0
M  V30 6358 N 616.368 0.432326 -1.51554 0
M  V30 6359 C 617.298 1.53242 -1.76179 0
M  V30 6360 C 618.279 1.58717 -0.611801 0
M  V30 6361 O 619.464 1.74364 -0.855033 0
M  V30 6362 C 616.594 2.91278 -1.89141 0
M  V30 6363 C 615.548 3.00663 -3.04608 0
M  V30 6364 C 614.874 4.40728 -3.02759 0
M  V30 6365 C 616.174 2.74281 -4.44485 0
M  V30 6366 H 617.868 1.32886 -2.68294 0
M  V30 6367 H 615.414 0.637841 -1.29103 0
M  V30 6368 H 617.367 3.68203 -2.04951 0
M  V30 6369 H 616.091 3.12877 -0.936785 0
M  V30 6370 H 614.75 2.26179 -2.88511 0
M  V30 6371 H 614.398 4.59301 -2.05065 0
M  V30 6372 H 614.098 4.47936 -3.80299 0
M  V30 6373 H 615.622 5.19619 -3.20669 0
M  V30 6374 H 617.036 3.40936 -4.60907 0
M  V30 6375 H 615.433 2.92893 -5.23769 0
M  V30 6376 H 616.503 1.69856 -4.54177 0
M  V30 6377 N 617.846 1.41785 0.688094 0
M  V30 6378 C 619.262 1.24419 0.999608 0
M  V30 6379 C 619.462 0.138868 2.01021 0
M  V30 6380 O 618.518 -0.494283 2.47615 0
M  V30 6381 C 619.831 2.59625 1.51709 0
M  V30 6382 C 621.379 2.66869 1.63554 0
M  V30 6383 C 621.854 4.0241 2.18702 0
M  V30 6384 N 623.345 4.04295 2.26053 0
M  V30 6385 C 624.08 5.05977 2.69768 0
M  V30 6386 N 623.576 6.18047 3.13033 0
M  V30 6387 N 625.369 4.93336 2.69398 0
M  V30 6388 H 617.52 2.12392 0.0187427 0
M  V30 6389 H 619.783 0.945347 0.0708673 0
M  V30 6390 H 619.489 3.41297 0.849059 0
M  V30 6391 H 619.363 2.82628 2.49803 0
M  V30 6392 H 621.75 1.8555 2.29467 0
M  V30 6393 H 621.831 2.47668 0.639857 0
M  V30 6394 H 621.475 4.8418 1.53402 0
M  V30 6395 H 621.405 4.18955 3.19037 0
M  V30 6396 H 623.896 3.23383 1.9553 0
M  V30 6397 H 624.209 6.91498 3.45038 0
M  V30 6398 H 622.554 6.21572 3.10923 0
M  V30 6399 H 625.745 4.04865 2.34952 0
M  V30 6400 H 625.918 5.72717 3.03148 0
M  V30 6401 N 619.324 -0.923095 1.27737 0
M  V30 6402 C 620.552 -1.70525 1.17171 0
M  V30 6403 C 620.967 -1.86847 -0.270881 0
M  V30 6404 O 620.324 -1.38879 -1.18401 0
M  V30 6405 C 620.375 -3.10242 1.85559 0
M  V30 6406 O 620.096 -2.94683 3.24182 0
M  V30 6407 C 621.597 -4.04586 1.81176 0
M  V30 6408 H 618.817 -0.533347 0.407163 0
M  V30 6409 H 621.361 -1.15599 1.68692 0
M  V30 6410 H 619.516 -3.62014 1.3793 0
M  V30 6411 H 619.93 -3.83045 3.58297 0
M  V30 6412 H 621.404 -5.00119 2.33633 0
M  V30 6413 H 621.881 -4.3218 0.782099 0
M  V30 6414 H 622.487 -3.58741 2.2844 0
M  V30 6415 N 620.802 -1.09834 -1.13024 0
M  V30 6416 C 622.05 -0.835297 -1.8403 0
M  V30 6417 C 622.371 0.640944 -1.84165 0
M  V30 6418 O 621.641 1.46517 -1.30037 0
M  V30 6419 H 620.221 -0.306018 -0.681441 0
M  V30 6420 H 622.883 -1.38734 -1.36891 0
M  V30 6421 H 621.979 -1.19258 -2.88416 0
M  V30 6422 N 622.28 1.30327 -0.886154 0
M  V30 6423 C 623.52 1.97886 -0.511912 0
M  V30 6424 C 623.884 1.68417 0.921944 0
M  V30 6425 O 625.085 2.29319 1.40237 0
M  V30 6426 C 623.356 3.48775 -0.780444 0
M  V30 6427 S 624.915 4.35844 -0.508482 0
M  V30 6428 H 621.733 0.685024 -0.190428 0
M  V30 6429 H 624.335 1.58413 -1.14567 0
M  V30 6430 H 623.039 3.67714 -1.82248 0
M  V30 6431 H 622.57 3.93171 -0.134284 0
M  V30 6432 H 624.585 4.91893 0.65239 0
M  V30 6433 N 623.758 0.647228 1.43697 0
M  V30 6434 C 625.005 0.158188 2.01881 0
M  V30 6435 C 625.333 -1.22573 1.51017 0
M  V30 6436 O 624.588 -1.83086 0.69122 0
M  V30 6437 C 624.887 0.111481 3.57226 0
M  V30 6438 C 624.553 1.43633 4.27411 0
M  V30 6439 C 623.215 1.79915 4.463 0
M  V30 6440 C 625.567 2.31011 4.67208 0
M  V30 6441 C 622.895 3.03251 5.02251 0
M  V30 6442 C 625.247 3.53633 5.24525 0
M  V30 6443 C 623.911 3.90118 5.41631 0
M  V30 6444 H 623.181 0.0578851 0.738736 0
M  V30 6445 H 625.828 0.836746 1.72252 0
M  V30 6446 H 624.133 -0.650507 3.86362 0
M  V30 6447 H 625.83 -0.283682 3.99995 0
M  V30 6448 H 622.42 1.14403 4.1305 0
M  V30 6449 H 626.604 2.04272 4.52313 0
M  V30 6450 H 621.86 3.31575 5.13681 0
M  V30 6451 H 626.034 4.21561 5.5431 0
M  V30 6452 H 623.661 4.85768 5.84751 0
M  V30 6453 N 625.236 -1.5273 0.388769 0
M  V30 6454 C 626.476 -2.03483 -0.193372 0
M  V30 6455 C 626.84 -1.26897 -1.44087 0
M  V30 6456 O 628.041 -1.67773 -2.10014 0
M  V30 6457 C 626.312 -3.54488 -0.455325 0
M  V30 6458 S 627.871 -4.27069 -1.00783 0
M  V30 6459 H 624.689 -0.708907 -0.0545131 0
M  V30 6460 H 627.291 -1.8798 0.536993 0
M  V30 6461 H 625.995 -4.07817 0.459722 0
M  V30 6462 H 625.526 -3.74196 -1.21413 0
M  V30 6463 H 627.541 -4.40185 -2.29023 0
M  V30 6464 N 626.714 -0.118576 -1.57153 0
M  V30 6465 C 627.662 0.849114 -2.16547 0
M  V30 6466 C 628.656 1.27567 -1.11458 0
M  V30 6467 O 629.862 1.24746 -1.29763 0
M  V30 6468 H 626.237 0.291935 -0.693021 0
M  V30 6469 H 628.208 0.323693 -2.96639 0
M  V30 6470 C 626.957 2.08951 -2.77912 0
M  V30 6471 H 626.28 1.77021 -3.58474 0
M  V30 6472 H 627.72 2.74666 -3.23008 0
M  V30 6473 C 626.179 2.87899 -1.74974 0
M  V30 6474 O 626.709 3.83268 -1.20285 0
M  V30 6475 N 624.915 2.51884 -1.44924 0
M  V30 6476 H 624.462 1.74397 -1.89587 0
M  V30 6477 H 624.42 3.05003 -0.762921 0
M  V30 6478 N 628.193 1.56834 0.155195 0
M  V30 6479 C 629.421 1.87049 0.884326 0
M  V30 6480 C 629.836 0.705839 1.7511 0
M  V30 6481 O 629.193 -0.324641 1.79589 0
M  V30 6482 C 629.244 3.1644 1.74781 0
M  V30 6483 O 628.965 4.28417 0.915978 0
M  V30 6484 C 630.466 3.60113 2.58522 0
M  V30 6485 H 627.686 0.620196 0.25612 0
M  V30 6486 H 630.23 2.03946 0.150445 0
M  V30 6487 H 628.385 3.01321 2.43484 0
M  V30 6488 H 628.799 5.02353 1.50803 0
M  V30 6489 H 630.273 4.53508 3.14698 0
M  V30 6490 H 630.75 2.85005 3.34169 0
M  V30 6491 H 631.356 3.77898 1.95124 0
M  V30 6492 N 629.671 -0.424282 1.51781 0
M  V30 6493 C 630.919 -1.17028 1.64769 0
M  V30 6494 C 631.24 -1.91409 0.372523 0
M  V30 6495 O 630.51 -1.86091 -0.612108 0
M  V30 6496 H 629.09 -0.434992 0.607282 0
M  V30 6497 H 631.752 -0.485169 1.88765 0
M  V30 6498 H 630.848 -1.8927 2.4816 0
M  V30 6499 N 631.149 -1.42148 -0.680565 0
M  V30 6500 C 632.112 -1.4488 -1.77602 0
M  V30 6501 C 633.112 -0.337209 -1.57224 0
M  V30 6502 O 634.302 -0.597778 -1.63622 0
M  V30 6503 C 631.434 -1.27483 -3.16166 0
M  V30 6504 H 632.627 -2.42412 -1.76568 0
M  V30 6505 H 630.18 -1.28511 -0.889645 0
M  V30 6506 H 630.915 -0.30851 -3.22829 0
M  V30 6507 H 630.7 -2.08037 -3.3236 0
M  V30 6508 H 632.19 -1.32265 -3.96101 0
M  V30 6509 N 632.627 0.916307 -1.28225 0
M  V30 6510 C 633.867 1.67964 -1.16479 0
M  V30 6511 C 634.231 1.8991 0.282494 0
M  V30 6512 O 635.432 2.63671 0.522607 0
M  V30 6513 C 633.703 3.00251 -1.93866 0
M  V30 6514 S 635.262 3.91353 -1.98465 0
M  V30 6515 H 632.08 0.576873 -0.415619 0
M  V30 6516 H 634.682 1.09006 -1.62289 0
M  V30 6517 H 633.386 2.81978 -2.98189 0
M  V30 6518 H 632.917 3.64257 -1.48595 0
M  V30 6519 H 634.932 4.84096 -1.0893 0
M  V30 6520 N 634.105 1.10431 1.1244 0
M  V30 6521 C 635.037 0.710945 2.17895 0
M  V30 6522 C 636.05 -0.252315 1.60833 0
M  V30 6523 O 637.239 -0.03679 1.78462 0
M  V30 6524 C 634.339 0.0284262 3.38888 0
M  V30 6525 C 633.512 1.01585 4.2544 0
M  V30 6526 C 632.571 0.364826 5.24934 0
M  V30 6527 O 631.597 1.01561 5.60066 0
M  V30 6528 N 632.799 -0.87674 5.73841 0
M  V30 6529 H 635.564 1.61826 2.52255 0
M  V30 6530 H 633.125 0.993132 1.27861 0
M  V30 6531 H 635.117 -0.418568 4.0253 0
M  V30 6532 H 633.687 -0.781294 3.02679 0
M  V30 6533 H 632.907 1.64111 3.58415 0
M  V30 6534 H 634.195 1.68425 4.80115 0
M  V30 6535 H 633.593 -1.42483 5.47462 0
M  V30 6536 H 632.15 -1.26688 6.39369 0
M  V30 6537 N 635.583 -1.29855 0.893053 0
M  V30 6538 C 636.999 -1.48366 0.588199 0
M  V30 6539 C 637.199 -1.81654 -0.872018 0
M  V30 6540 O 636.255 -1.909 -1.65268 0
M  V30 6541 C 637.568 -2.60136 1.5083 0
M  V30 6542 C 639.116 -2.74014 1.51279 0
M  V30 6543 C 639.591 -3.88905 2.41902 0
M  V30 6544 N 641.082 -3.96228 2.39911 0
M  V30 6545 C 641.817 -4.84458 3.06738 0
M  V30 6546 N 641.313 -5.77426 3.8282 0
M  V30 6547 N 643.106 -4.77894 2.95929 0
M  V30 6548 H 635.257 -1.06522 1.83757 0
M  V30 6549 H 637.52 -0.528495 0.787018 0
M  V30 6550 H 637.226 -2.42383 2.54839 0
M  V30 6551 H 637.1 -3.56793 1.22388 0
M  V30 6552 H 639.487 -2.91167 0.480179 0
M  V30 6553 H 639.568 -1.77952 1.83757 0
M  V30 6554 H 639.212 -3.72508 3.45253 0
M  V30 6555 H 639.142 -4.84322 2.06737 0
M  V30 6556 H 641.633 -3.29728 1.84629 0
M  V30 6557 H 641.946 -6.41529 4.30883 0
M  V30 6558 H 640.291 -5.77332 3.86927 0
M  V30 6559 H 643.482 -4.04248 2.36012 0
M  V30 6560 H 643.655 -5.46444 3.48286 0
M  V30 6561 N 637.061 -0.65484 -1.43351 0
M  V30 6562 C 638.011 0.0581325 -2.27926 0
M  V30 6563 C 638.995 0.793188 -1.3999 0
M  V30 6564 O 640.187 0.675387 -1.63608 0
M  V30 6565 C 637.316 1.02272 -3.27712 0
M  V30 6566 C 636.402 0.286048 -4.23134 0
M  V30 6567 N 636.793 -0.698298 -5.00957 0
M  V30 6568 C 635.091 0.527272 -4.42872 0
M  V30 6569 C 635.792 -1.1357 -5.70506 0
M  V30 6570 N 634.768 -0.469631 -5.41568 0
M  V30 6571 H 638.57 -0.697182 -2.85511 0
M  V30 6572 H 636.084 -0.482252 -1.55074 0
M  V30 6573 H 638.081 1.5483 -3.87083 0
M  V30 6574 H 636.741 1.77807 -2.71688 0
M  V30 6575 H 637.752 -1.07708 -5.06576 0
M  V30 6576 H 634.429 1.26367 -3.97916 0
M  V30 6577 H 635.819 -1.95027 -6.42973 0
M  V30 6578 N 638.539 1.52521 -0.396863 0
M  V30 6579 C 639.469 2.29582 0.425941 0
M  V30 6580 C 640.45 1.33281 1.05689 0
M  V30 6581 O 641.635 1.62181 1.06823 0
M  V30 6582 C 638.765 3.10821 1.54943 0
M  V30 6583 C 637.719 4.15069 1.04413 0
M  V30 6584 C 637.045 4.84578 2.26028 0
M  V30 6585 C 638.345 5.22191 0.106767 0
M  V30 6586 H 640.039 2.98612 -0.217045 0
M  V30 6587 H 637.585 1.43611 -0.105826 0
M  V30 6588 H 639.538 3.63492 2.13193 0
M  V30 6589 H 638.262 2.39538 2.22011 0
M  V30 6590 H 636.921 3.63389 0.484118 0
M  V30 6591 H 636.569 4.09835 2.91623 0
M  V30 6592 H 636.269 5.55043 1.92876 0
M  V30 6593 H 637.793 5.40056 2.84906 0
M  V30 6594 H 639.207 5.70176 0.597685 0
M  V30 6595 H 637.604 5.99947 -0.135352 0
M  V30 6596 H 638.674 4.77531 -0.842134 0
M  V30 6597 N 640.017 0.126909 1.57088 0
M  V30 6598 C 641.265 -0.528123 1.95078 0
M  V30 6599 C 641.586 -1.66708 1.0116 0
M  V30 6600 O 640.856 -1.95777 0.0693527 0
M  V30 6601 H 639.436 -0.198087 0.720257 0
M  V30 6602 H 642.098 0.197703 1.93895 0
M  V30 6603 H 641.194 -0.917507 2.98309 0
M  V30 6604 N 641.495 -1.56914 -0.146875 0
M  V30 6605 C 642.744 -1.82546 -0.857898 0
M  V30 6606 C 643.057 -0.708169 -1.8233 0
M  V30 6607 O 644.263 -0.850093 -2.57848 0
M  V30 6608 C 642.719 -3.23548 -1.57623 0
M  V30 6609 C 642.327 -4.43212 -0.653224 0
M  V30 6610 C 644.071 -3.58453 -2.27402 0
M  V30 6611 C 641.978 -5.75237 -1.37318 0
M  V30 6612 H 640.908 -0.680786 -0.32411 0
M  V30 6613 H 643.559 -1.83166 -0.110639 0
M  V30 6614 H 641.941 -3.17315 -2.36912 0
M  V30 6615 H 643.115 -4.60682 0.104452 0
M  V30 6616 H 641.43 -4.16351 -0.0638336 0
M  V30 6617 H 644.027 -4.54349 -2.81907 0
M  V30 6618 H 644.37 -2.84516 -3.03901 0
M  V30 6619 H 644.903 -3.66347 -1.55032 0
M  V30 6620 H 641.642 -6.52269 -0.650041 0
M  V30 6621 H 641.162 -5.61703 -2.10357 0
M  V30 6622 H 642.841 -6.18039 -1.91406 0
M  V30 6623 N 642.974 0.416227 -1.52004 0
M  V30 6624 C 644.199 1.19029 -1.69843 0
M  V30 6625 C 644.624 1.83708 -0.404103 0
M  V30 6626 O 643.982 1.69711 0.637787 0
M  V30 6627 C 644.03 2.23439 -2.83032 0
M  V30 6628 O 643.134 3.29419 -2.48106 0
M  V30 6629 H 642.475 0.347785 -0.565634 0
M  V30 6630 H 645.005 0.488871 -1.98674 0
M  V30 6631 H 645.015 2.67884 -3.07737 0
M  V30 6632 H 643.69 1.75745 -3.76944 0
M  V30 6633 H 642.267 2.90303 -2.34048 0
M  V30 6634 N 644.452 1.42507 0.673017 0
M  V30 6635 C 645.4 1.46362 1.80779 0
M  V30 6636 C 646.394 0.339166 1.6597 0
M  V30 6637 O 647.6 0.512262 1.72557 0
M  V30 6638 H 643.975 0.458433 0.596107 0
M  V30 6639 H 645.946 2.41953 1.74646 0
M  V30 6640 C 644.695 1.38462 3.18941 0
M  V30 6641 H 644.018 2.24283 3.30964 0
M  V30 6642 H 645.458 1.45221 3.98355 0
M  V30 6643 C 643.917 0.0996354 3.36753 0
M  V30 6644 O 644.447 -0.846894 3.92671 0
M  V30 6645 N 642.653 0.016211 2.90595 0
M  V30 6646 H 642.2 0.78725 2.45276 0
M  V30 6647 H 642.158 -0.84291 3.0289 0
M  V30 6648 N 645.93 -0.909495 1.28709 0
M  V30 6649 C 646.84 -2.04558 1.14861 0
M  V30 6650 C 647.856 -1.73842 0.0741621 0
M  V30 6651 O 649.032 -1.99383 0.2843 0
M  V30 6652 C 646.097 -3.36957 0.816148 0
M  V30 6653 C 645.158 -3.81255 1.97341 0
M  V30 6654 C 644.391 -5.07335 1.65671 0
M  V30 6655 O 644.614 -5.67514 0.573053 0
M  V30 6656 O 643.548 -5.47449 2.50167 0
M  V30 6657 H 647.374 -2.19161 2.10243 0
M  V30 6658 H 644.959 -1.03159 1.08068 0
M  V30 6659 H 646.841 -4.16436 0.644873 0
M  V30 6660 H 645.516 -3.2352 -0.107983 0
M  V30 6661 H 644.423 -3.02584 2.19986 0
M  V30 6662 H 645.756 -3.99261 2.87839 0
M  V30 6663 N 647.408 -1.11026 -1.11852 0
M  V30 6664 C 648.341 -0.708501 -2.16923 0
M  V30 6665 C 649.319 0.293196 -1.59935 0
M  V30 6666 O 650.503 0.190641 -1.87533 0
M  V30 6667 C 647.63 -0.0463705 -3.38668 0
M  V30 6668 C 646.676 -1.01252 -4.14307 0
M  V30 6669 S 647.509 -2.53291 -4.71809 0
M  V30 6670 C 648.665 -1.88366 -5.96883 0
M  V30 6671 H 648.898 -1.59854 -2.50667 0
M  V30 6672 H 646.431 -0.927869 -1.2341 0
M  V30 6673 H 648.389 0.329314 -4.09177 0
M  V30 6674 H 647.05 0.820562 -3.03192 0
M  V30 6675 H 646.243 -0.496596 -5.01548 0
M  V30 6676 H 645.845 -1.33042 -3.49537 0
M  V30 6677 H 648.137 -1.21753 -6.6647 0
M  V30 6678 H 649.08 -2.73588 -6.53112 0
M  V30 6679 H 649.488 -1.34562 -5.48227 0
M  V30 6680 N 648.886 1.2938 -0.899927 0
M  V30 6681 C 650.132 1.9584 -0.526742 0
M  V30 6682 C 650.465 1.70774 0.924651 0
M  V30 6683 O 649.74 1.02084 1.65557 0
M  V30 6684 C 650.023 3.50638 -0.820062 0
M  V30 6685 C 649.876 3.85161 -2.32317 0
M  V30 6686 C 651.195 4.3903 -0.30671 0
M  V30 6687 H 648.314 0.711322 -0.192848 0
M  V30 6688 H 650.956 1.52992 -1.12665 0
M  V30 6689 H 649.106 3.87265 -0.309491 0
M  V30 6690 H 650.778 3.58477 -2.9033 0
M  V30 6691 H 649.021 3.32696 -2.78381 0
M  V30 6692 H 649.692 4.93204 -2.47898 0
M  V30 6693 H 652.168 4.09396 -0.743908 0
M  V30 6694 H 651.044 5.46226 -0.541144 0
M  V30 6695 H 651.305 4.34937 0.792588 0
M  V30 6696 N 650.364 0.662433 1.43002 0
M  V30 6697 C 651.78 0.330835 1.56133 0
M  V30 6698 C 651.98 -1.16454 1.64441 0
M  V30 6699 O 651.036 -1.94964 1.60453 0
M  V30 6700 C 652.349 1.05029 2.81761 0
M  V30 6701 C 653.897 1.03142 2.95518 0
M  V30 6702 C 654.372 1.73196 4.2399 0
M  V30 6703 N 655.863 1.70004 4.30875 0
M  V30 6704 C 656.598 2.21074 5.29069 0
M  V30 6705 N 656.094 2.80473 6.33488 0
M  V30 6706 N 657.887 2.1152 5.20784 0
M  V30 6707 H 650.038 1.63272 1.35853 0
M  V30 6708 H 652.301 0.687149 0.653092 0
M  V30 6709 H 652.007 2.10542 2.81718 0
M  V30 6710 H 651.881 0.607664 3.72273 0
M  V30 6711 H 654.268 -0.0153339 2.95096 0
M  V30 6712 H 654.349 1.51282 2.0627 0
M  V30 6713 H 653.993 2.77833 4.25172 0
M  V30 6714 H 653.923 1.22515 5.1215 0
M  V30 6715 H 656.414 1.26667 3.56039 0
M  V30 6716 H 656.727 3.17094 7.04749 0
M  V30 6717 H 655.072 2.84538 6.34085 0
M  V30 6718 H 658.263 1.64814 4.38126 0
M  V30 6719 H 658.436 2.51629 5.97149 0
M  V30 6720 N 651.842 -1.52309 0.404946 0
M  V30 6721 C 652.789 -2.26898 -0.422597 0
M  V30 6722 C 653.759 -1.2914 -1.04461 0
M  V30 6723 O 654.944 -1.57996 -1.06967 0
M  V30 6724 C 652.084 -3.09053 -1.53559 0
M  V30 6725 C 651.197 -4.21762 -0.934908 0
M  V30 6726 C 650.332 -4.91283 -2.02025 0
M  V30 6727 C 649.371 -5.95962 -1.39628 0
M  V30 6728 N 648.508 -6.59017 -2.42159 0
M  V30 6729 H 653.348 -2.97188 0.219903 0
M  V30 6730 H 650.885 -1.46607 0.120282 0
M  V30 6731 H 652.843 -3.54987 -2.19181 0
M  V30 6732 H 651.473 -2.40942 -2.14818 0
M  V30 6733 H 650.525 -3.80029 -0.167854 0
M  V30 6734 H 651.837 -4.96864 -0.439073 0
M  V30 6735 H 650.991 -5.40601 -2.75383 0
M  V30 6736 H 649.73 -4.15741 -2.54973 0
M  V30 6737 H 648.735 -5.45968 -0.648023 0
M  V30 6738 H 649.96 -6.73445 -0.874553 0
M  V30 6739 H 647.906 -5.86306 -2.94247 0
M  V30 6740 H 647.823 -7.2978 -1.97376 0
M  V30 6741 H 649.091 -7.12974 -3.15099 0
M  V30 6742 N 653.32 -0.135238 -1.57019 0
M  V30 6743 C 654.27 0.820408 -2.12728 0
M  V30 6744 C 655.254 1.21735 -1.05211 0
M  V30 6745 O 656.446 1.18574 -1.31413 0
M  V30 6746 C 653.575 2.06414 -2.74314 0
M  V30 6747 C 652.661 1.69083 -3.88937 0
M  V30 6748 N 653.052 1.0251 -4.95303 0
M  V30 6749 C 651.35 1.98434 -3.99425 0
M  V30 6750 C 652.051 0.846749 -5.75504 0
M  V30 6751 N 651.027 1.3769 -5.25873 0
M  V30 6752 H 654.829 0.302426 -2.9234 0
M  V30 6753 H 652.343 0.0667009 -1.62263 0
M  V30 6754 H 654.34 2.75863 -3.12579 0
M  V30 6755 H 653 2.58741 -1.96171 0
M  V30 6756 H 654.011 0.687207 -5.1332 0
M  V30 6757 H 650.688 2.52693 -3.32344 0
M  V30 6758 H 652.078 0.322949 -6.71123 0
M  V30 6759 N 654.798 1.5699 0.138552 0
M  V30 6760 C 656.045 1.83809 0.849732 0
M  V30 6761 C 656.373 0.717409 1.80786 0
M  V30 6762 O 655.628 -0.292897 1.93496 0
M  V30 6763 C 655.927 3.17007 1.65049 0
M  V30 6764 C 655.593 4.43037 0.838398 0
M  V30 6765 C 654.255 4.77262 0.614385 0
M  V30 6766 C 656.607 5.20495 0.271044 0
M  V30 6767 C 653.935 5.864 -0.187552 0
M  V30 6768 C 656.287 6.30476 -0.517979 0
M  V30 6769 C 654.951 6.63245 -0.75249 0
M  V30 6770 H 654.221 0.672605 0.310939 0
M  V30 6771 H 656.868 1.91166 0.112971 0
M  V30 6772 H 655.173 3.05138 2.4576 0
M  V30 6773 H 656.87 3.34975 2.20437 0
M  V30 6774 H 653.46 4.16211 1.02307 0
M  V30 6775 H 657.644 4.94422 0.431371 0
M  V30 6776 H 652.9 6.10226 -0.378659 0
M  V30 6777 H 657.074 6.89686 -0.964694 0
M  V30 6778 H 654.701 7.47648 -1.37573 0
M  V30 6779 N 656.276 -0.40816 1.52223 0
M  V30 6780 C 657.208 -1.51642 1.71864 0
M  V30 6781 C 658.221 -1.51378 0.599056 0
M  V30 6782 O 659.41 -1.55626 0.874239 0
M  V30 6783 C 656.51 -2.90534 1.74481 0
M  V30 6784 C 655.683 -3.14979 3.03491 0
M  V30 6785 C 654.742 -4.33749 2.97907 0
M  V30 6786 O 653.768 -4.30982 3.71811 0
M  V30 6787 N 654.97 -5.38912 2.15764 0
M  V30 6788 H 657.735 -1.35188 2.67478 0
M  V30 6789 H 655.296 -0.597468 1.50472 0
M  V30 6790 H 657.288 -3.68056 1.68275 0
M  V30 6791 H 655.858 -3.00441 0.863363 0
M  V30 6792 H 655.078 -2.25492 3.23337 0
M  V30 6793 H 656.366 -3.28156 3.88833 0
M  V30 6794 H 655.764 -5.44008 1.55152 0
M  V30 6795 H 654.321 -6.15174 2.15415 0
M  V30 6796 N 657.755 -1.42862 -0.66545 0
M  V30 6797 C 658.718 -1.46756 -1.76055 0
M  V30 6798 C 659.718 -0.353866 -1.56858 0
M  V30 6799 O 660.908 -0.615099 -1.62979 0
M  V30 6800 C 658.04 -1.30829 -3.14796 0
M  V30 6801 H 659.233 -2.44271 -1.73987 0
M  V30 6802 H 656.786 -1.29447 -0.875965 0
M  V30 6803 H 657.521 -0.342733 -3.22484 0
M  V30 6804 H 657.306 -2.11551 -3.30134 0
M  V30 6805 H 658.796 -1.36458 -3.94676 0
M  V30 6806 N 659.233 0.902656 -1.29189 0
M  V30 6807 C 660.481 1.6496 -1.16758 0
M  V30 6808 C 660.802 1.92952 0.28188 0
M  V30 6809 O 660.072 1.55351 1.19344 0
M  V30 6810 H 658.652 0.611447 -0.429118 0
M  V30 6811 H 661.314 1.0825 -1.62074 0
M  V30 6812 H 660.41 2.60728 -1.71544 0
M  V30 6813 N 660.711 1.11618 1.11262 0
M  V30 6814 C 661.661 0.745274 2.15475 0
M  V30 6815 C 662.645 -0.251585 1.58921 0
M  V30 6816 O 663.837 -0.0584093 1.76904 0
M  V30 6817 C 660.966 0.192128 3.42762 0
M  V30 6818 C 660.052 1.21676 4.0627 0
M  V30 6819 N 660.443 2.41158 4.44608 0
M  V30 6820 C 658.741 1.06013 4.33217 0
M  V30 6821 C 659.442 3.0652 4.94389 0
M  V30 6822 N 658.418 2.33994 4.9066 0
M  V30 6823 H 662.22 1.65462 2.42898 0
M  V30 6824 H 659.734 0.995695 1.28295 0
M  V30 6825 H 661.731 -0.0917339 4.16799 0
M  V30 6826 H 660.391 -0.711778 3.16802 0
M  V30 6827 H 661.402 2.786 4.3658 0
M  V30 6828 H 658.079 0.212809 4.16957 0
M  V30 6829 H 659.469 4.08225 5.33669 0
M  V30 6830 N 662.189 -1.289 0.906776 0
M  V30 6831 C 663.435 -1.95558 0.53712 0
M  V30 6832 C 663.768 -1.71262 -0.915582 0
M  V30 6833 O 663.043 -1.02961 -1.65013 0
M  V30 6834 C 663.326 -3.50198 0.838645 0
M  V30 6835 C 663.179 -3.83923 2.34357 0
M  V30 6836 C 664.498 -4.38861 0.329988 0
M  V30 6837 H 661.617 -0.710289 0.196617 0
M  V30 6838 H 664.259 -1.52392 1.13475 0
M  V30 6839 H 662.409 -3.87096 0.330024 0
M  V30 6840 H 664.081 -3.56933 2.92227 0
M  V30 6841 H 662.324 -3.31215 2.80141 0
M  V30 6842 H 662.995 -4.91883 2.5051 0
M  V30 6843 H 665.471 -4.08996 0.765609 0
M  V30 6844 H 664.347 -5.45931 0.570105 0
M  V30 6845 H 664.608 -4.35352 -0.769511 0
M  V30 6846 N 663.667 -0.670007 -1.42649 0
M  V30 6847 C 664.907 -0.194106 -2.03476 0
M  V30 6848 C 665.271 1.1755 -1.51809 0
M  V30 6849 O 666.472 1.74579 -2.04391 0
M  V30 6850 C 664.743 -0.221828 -3.56711 0
M  V30 6851 S 666.302 0.183772 -4.38415 0
M  V30 6852 H 663.12 -0.0802478 -0.706457 0
M  V30 6853 H 665.722 -0.882092 -1.74469 0
M  V30 6854 H 664.426 -1.22107 -3.91814 0
M  V30 6855 H 663.957 0.486149 -3.90385 0
M  V30 6856 H 665.972 1.41839 -4.75496 0
M  V30 6857 N 665.145 1.52092 -0.413018 0
M  V30 6858 C 666.393 2.01456 0.161178 0
M  V30 6859 C 666.714 1.30034 1.45314 0
M  V30 6860 O 665.984 0.427435 1.9118 0
M  V30 6861 H 664.564 0.744376 0.0625526 0
M  V30 6862 H 667.226 1.86974 -0.550151 0
M  V30 6863 H 666.322 3.1008 0.354517 0
M  V30 6864 N 666.623 0.143563 1.56945 0
M  V30 6865 C 667.9 -0.553285 1.87612 0
M  V30 6866 C 668.28 -1.83195 1.04894 0
M  V30 6867 O 667.628 -2.28102 0.134773 0
M  V30 6868 C 667.838 -0.822055 3.3918 0
M  V30 6869 C 669.186 -1.16435 4.08324 0
M  V30 6870 O 670.21 -0.911522 3.4434 0
M  V30 6871 O 669.069 -1.63996 5.21313 0
M  V30 6872 H 666.163 -0.281851 0.777489 0
M  V30 6873 H 668.709 0.179916 1.68744 0
M  V30 6874 H 667.481 0.0830265 3.91212 0
M  V30 6875 H 667.104 -1.60956 3.63564 0
M  V30 6876 N 668.101 -1.57061 -0.130224 0
M  V30 6877 C 669.049 -2.00486 -1.17933 0
M  V30 6878 C 670.043 -0.899933 -1.43519 0
M  V30 6879 O 671.249 -1.08514 -1.43613 0
M  V30 6880 H 667.624 -0.638441 -0.397363 0
M  V30 6881 H 669.595 -2.87848 -0.786501 0
M  V30 6882 C 668.344 -2.41565 -2.50084 0
M  V30 6883 H 667.667 -3.26148 -2.31231 0
M  V30 6884 H 669.107 -2.75757 -3.22078 0
M  V30 6885 C 667.566 -1.27485 -3.11848 0
M  V30 6886 O 668.096 -0.584688 -3.97422 0
M  V30 6887 N 666.302 -1.03478 -2.71552 0
M  V30 6888 H 665.849 -1.59779 -2.02061 0
M  V30 6889 H 665.807 -0.27341 -3.13209 0
M  V30 6890 N 669.579 0.400081 -1.52437 0
M  V30 6891 C 670.512 1.50929 -1.7116 0
M  V30 6892 C 671.49 1.52679 -0.559275 0
M  V30 6893 O 672.674 1.71251 -0.787735 0
M  V30 6894 C 669.801 2.89433 -1.75915 0
M  V30 6895 C 668.847 3.05556 -2.97553 0
M  V30 6896 S 669.68 2.77919 -4.57735 0
M  V30 6897 C 670.836 4.18636 -4.6529 0
M  V30 6898 H 671.069 1.3482 -2.64973 0
M  V30 6899 H 668.602 0.592245 -1.4259 0
M  V30 6900 H 670.56 3.69253 -1.7934 0
M  V30 6901 H 669.221 3.02877 -0.832137 0
M  V30 6902 H 668.414 4.0691 -2.97388 0
M  V30 6903 H 668.016 2.33615 -2.92062 0
M  V30 6904 H 670.308 5.12406 -4.43223 0
M  V30 6905 H 671.251 4.23821 -5.67258 0
M  V30 6906 H 671.659 4.04029 -3.94234 0
M  V30 6907 N 671.057 1.43213 0.657864 0
M  V30 6908 C 672.334 1.35063 1.41483 0
M  V30 6909 C 672.714 -0.0038314 2.111 0
M  V30 6910 O 672.062 -1.02018 2.04462 0
M  V30 6911 C 672.272 2.53061 2.40335 0
M  V30 6912 C 673.62 2.9594 3.04474 0
M  V30 6913 O 674.644 2.53074 2.50663 0
M  V30 6914 O 673.503 3.70184 4.02027 0
M  V30 6915 H 670.597 0.533517 0.631893 0
M  V30 6916 H 673.143 1.55253 0.685162 0
M  V30 6917 H 671.915 3.43283 1.87809 0
M  V30 6918 H 671.538 2.34945 3.20759 0
M  V30 6919 N 672.536 -0.895792 1.29666 0
M  V30 6920 C 673.466 -2.01673 1.17688 0
M  V30 6921 C 674.447 -1.69955 0.0701317 0
M  V30 6922 O 675.632 -1.9258 0.250289 0
M  V30 6923 C 672.762 -3.36568 0.856681 0
M  V30 6924 C 671.716 -3.82509 1.92017 0
M  V30 6925 C 671.042 -5.14574 1.4532 0
M  V30 6926 C 672.342 -4.02409 3.32963 0
M  V30 6927 H 674.036 -2.11953 2.11463 0
M  V30 6928 H 671.582 -1.01839 1.01807 0
M  V30 6929 H 673.535 -4.14498 0.759577 0
M  V30 6930 H 672.259 -3.26391 -0.116763 0
M  V30 6931 H 670.918 -3.068 2.00673 0
M  V30 6932 H 670.566 -5.00815 0.468325 0
M  V30 6933 H 670.266 -5.46283 2.16447 0
M  V30 6934 H 671.79 -5.9504 1.36968 0
M  V30 6935 H 673.204 -4.70808 3.27127 0
M  V30 6936 H 671.601 -4.45478 4.02082 0
M  V30 6937 H 672.671 -3.06616 3.75652 0
M  V30 6938 N 674.014 -1.12206 -1.10668 0
M  V30 6939 C 675.263 -0.870595 -1.81944 0
M  V30 6940 C 675.576 0.605447 -1.85994 0
M  V30 6941 O 676.782 0.973433 -2.53449 0
M  V30 6942 C 675.238 -1.50783 -3.26791 0
M  V30 6943 C 674.846 -3.01849 -3.31046 0
M  V30 6944 C 676.59 -1.33653 -4.02911 0
M  V30 6945 C 674.497 -3.58518 -4.70339 0
M  V30 6946 H 673.427 -0.322043 -0.681765 0
M  V30 6947 H 676.078 -1.34827 -1.24475 0
M  V30 6948 H 674.46 -0.957825 -3.84242 0
M  V30 6949 H 675.634 -3.63321 -2.83433 0
M  V30 6950 H 673.949 -3.18346 -2.68411 0
M  V30 6951 H 676.546 -1.73416 -5.05797 0
M  V30 6952 H 676.889 -0.279949 -4.15358 0
M  V30 6953 H 677.422 -1.85562 -3.51868 0
M  V30 6954 H 674.161 -4.63925 -4.63091 0
M  V30 6955 H 673.681 -3.01819 -5.18329 0
M  V30 6956 H 675.36 -3.57434 -5.39305 0
M  V30 6957 N 675.492 1.28418 -0.913599 0
M  V30 6958 C 676.769 1.89977 -0.465619 0
M  V30 6959 C 677.149 1.82813 1.05559 0
M  V30 6960 O 676.497 1.26397 1.90358 0
M  V30 6961 C 676.707 3.34492 -0.995813 0
M  V30 6962 C 678.055 4.11468 -1.04782 0
M  V30 6963 O 679.079 3.43451 -0.944445 0
M  V30 6964 O 677.938 5.33046 -1.20518 0
M  V30 6965 H 675.032 0.813734 -0.147532 0
M  V30 6966 H 677.578 1.36786 -1.00437 0
M  V30 6967 H 676.35 3.33929 -2.03978 0
M  V30 6968 H 675.973 3.95181 -0.437878 0
M  V30 6969 N 676.97 0.677563 1.42291 0
M  V30 6970 C 678.218 0.200578 2.01102 0
M  V30 6971 C 678.539 -1.19803 1.53858 0
M  V30 6972 O 677.809 -1.80496 0.761439 0
M  V30 6973 H 676.389 0.0711634 0.743603 0
M  V30 6974 H 679.051 0.874691 1.7417 0
M  V30 6975 H 678.147 0.204 3.11433 0
M  V30 6976 N 678.448 -1.51871 0.421078 0
M  V30 6977 C 679.38 -2.25052 -0.434065 0
M  V30 6978 C 680.393 -1.28458 -1.00013 0
M  V30 6979 O 681.582 -1.54323 -0.897033 0
M  V30 6980 C 678.682 -2.97813 -1.61743 0
M  V30 6981 C 677.855 -4.21374 -1.17315 0
M  V30 6982 C 676.914 -4.76854 -2.22478 0
M  V30 6983 O 675.94 -5.39123 -1.82577 0
M  V30 6984 N 677.142 -4.59467 -3.54782 0
M  V30 6985 H 679.907 -2.99077 0.193073 0
M  V30 6986 H 677.468 -1.59972 0.249088 0
M  V30 6987 H 679.46 -3.3182 -2.31685 0
M  V30 6988 H 678.03 -2.26899 -2.15024 0
M  V30 6989 H 677.25 -3.93046 -0.3014 0
M  V30 6990 H 678.538 -5.01591 -0.853444 0
M  V30 6991 H 677.936 -4.09832 -3.89941 0
M  V30 6992 H 676.493 -4.9788 -4.20665 0
M  V30 6993 N 679.926 -0.151884 -1.56866 0
M  V30 6994 C 681.337 0.368128 -1.83035 0
M  V30 6995 C 681.688 1.64402 -1.07082 0
M  V30 6996 O 680.813 2.14056 -0.317647 0
M  V30 6997 C 681.408 0.674676 -3.32014 0
M  V30 6998 C 679.967 1.13919 -3.58747 0
M  V30 6999 C 679.114 0.164833 -2.7681 0
M  V30 7000 H 682.065 -0.376499 -1.54169 0
M  V30 7001 H 682.086 1.52883 -3.48435 0
M  V30 7002 H 681.598 -0.254113 -3.87267 0
M  V30 7003 H 679.699 2.08375 -3.08886 0
M  V30 7004 H 679.812 1.06179 -4.67186 0
M  V30 7005 H 678.176 0.658419 -2.46043 0
M  V30 7006 H 678.959 -0.757633 -3.34836 0
M  V30 7007 N 681.404 1.57128 0.121893 0
M  V30 7008 C 682.632 1.88883 0.844451 0
M  V30 7009 C 683.047 0.742824 1.73573 0
M  V30 7010 O 682.404 -0.286475 1.80238 0
M  V30 7011 C 682.455 3.20076 1.68029 0
M  V30 7012 O 682.176 4.30264 0.824898 0
M  V30 7013 C 683.677 3.65515 2.50826 0
M  V30 7014 H 680.897 0.62549 0.242907 0
M  V30 7015 H 683.441 2.04219 0.107151 0
M  V30 7016 H 681.596 3.06418 2.37038 0
M  V30 7017 H 682.01 5.05439 1.40113 0
M  V30 7018 H 683.484 4.60081 3.05008 0
M  V30 7019 H 683.961 2.92029 3.28048 0
M  V30 7020 H 684.567 3.81952 1.87064 0
M  V30 7021 N 682.882 -0.391992 1.52647 0
M  V30 7022 C 684.13 -1.13507 1.67214 0
M  V30 7023 C 684.451 -1.90575 0.41304 0
M  V30 7024 O 683.721 -1.87348 -0.572498 0
M  V30 7025 H 682.301 -0.422013 0.616372 0
M  V30 7026 H 684.963 -0.44502 1.89751 0
M  V30 7027 H 684.059 -1.83964 2.52118 0
M  V30 7028 N 684.36 -1.4356 -0.65026 0
M  V30 7029 C 685.585 -1.48995 -1.44275 0
M  V30 7030 C 686.01 -0.109954 -1.87778 0
M  V30 7031 O 685.368 0.896926 -1.57559 0
M  V30 7032 C 685.416 -2.44341 -2.65198 0
M  V30 7033 O 684.52 -1.93172 -3.6436 0
M  V30 7034 H 683.861 -0.503852 -0.432469 0
M  V30 7035 H 686.391 -1.88504 -0.795446 0
M  V30 7036 H 686.401 -2.61743 -3.12977 0
M  V30 7037 H 685.076 -3.44588 -2.32877 0
M  V30 7038 H 683.653 -1.85445 -3.23519 0
M  V30 7039 N 685.838 0.888903 -1.30139 0
M  V30 7040 C 687.084 1.6428 -1.18912 0
M  V30 7041 C 687.417 1.92499 0.256477 0
M  V30 7042 O 686.692 1.54312 1.18397 0
M  V30 7043 C 686.975 2.9851 -2.01405 0
M  V30 7044 C 686.828 2.77288 -3.54163 0
M  V30 7045 C 688.147 3.99383 -1.84882 0
M  V30 7046 H 685.266 0.596148 -0.433333 0
M  V30 7047 H 687.908 1.0289 -1.5973 0
M  V30 7048 H 686.058 3.50907 -1.66722 0
M  V30 7049 H 687.73 2.31709 -3.98884 0
M  V30 7050 H 685.973 2.11867 -3.78543 0
M  V30 7051 H 686.644 3.72717 -4.07168 0
M  V30 7052 H 689.12 3.56132 -2.15196 0
M  V30 7053 H 687.996 4.91222 -2.44934 0
M  V30 7054 H 688.257 4.34674 -0.806902 0
M  V30 7055 N 687.317 1.12792 1.10072 0
M  V30 7056 C 688.733 0.864745 1.34143 0
M  V30 7057 C 688.933 -0.503201 1.95116 0
M  V30 7058 O 687.989 -1.25111 2.19325 0
M  V30 7059 C 689.302 1.98413 2.25949 0
M  V30 7060 C 690.85 2.01545 2.39476 0
M  V30 7061 C 691.325 3.12727 3.34613 0
M  V30 7062 N 692.816 3.12194 3.42183 0
M  V30 7063 C 693.551 3.94862 4.15779 0
M  V30 7064 N 693.047 4.87528 4.92228 0
M  V30 7065 N 694.84 3.82985 4.11435 0
M  V30 7066 H 686.991 2.00926 0.68866 0
M  V30 7067 H 689.254 0.874564 0.365844 0
M  V30 7068 H 688.96 2.97005 1.88364 0
M  V30 7069 H 688.834 1.89254 3.26287 0
M  V30 7070 H 691.221 1.0357 2.76328 0
M  V30 7071 H 691.302 2.14777 1.3894 0
M  V30 7072 H 690.946 4.10936 2.98486 0
M  V30 7073 H 690.876 2.96732 4.35037 0
M  V30 7074 H 693.367 2.45065 2.87666 0
M  V30 7075 H 693.68 5.47109 5.45794 0
M  V30 7076 H 692.025 4.91539 4.9134 0
M  V30 7077 H 695.216 3.09923 3.50807 0
M  V30 7078 H 695.389 4.47641 4.68531 0
M  V30 7079 N 688.795 -1.27931 0.920396 0
M  V30 7080 C 690.044 -1.93975 0.552867 0
M  V30 7081 C 690.357 -1.73193 -0.909035 0
M  V30 7082 O 691.563 -2.33515 -1.38502 0
M  V30 7083 C 690.019 -3.47463 0.937947 0
M  V30 7084 C 689.627 -3.77013 2.42003 0
M  V30 7085 C 691.371 -4.19628 0.64132 0
M  V30 7086 C 689.278 -5.23841 2.74489 0
M  V30 7087 H 688.208 -0.726146 0.203046 0
M  V30 7088 H 690.859 -1.45339 1.12022 0
M  V30 7089 H 689.241 -3.94867 0.299317 0
M  V30 7090 H 690.415 -3.40393 3.10595 0
M  V30 7091 H 688.73 -3.18035 2.6878 0
M  V30 7092 H 691.327 -5.27729 0.860622 0
M  V30 7093 H 691.67 -4.14164 -0.421168 0
M  V30 7094 H 692.203 -3.78022 1.23872 0
M  V30 7095 H 688.942 -5.34388 3.79618 0
M  V30 7096 H 688.462 -5.61634 2.1054 0
M  V30 7097 H 690.141 -5.91647 2.61845 0
M  V30 7098 N 690.273 -0.685099 -1.4193 0
M  V30 7099 C 691.498 -0.218842 -2.06242 0
M  V30 7100 C 691.923 1.11923 -1.51178 0
M  V30 7101 O 691.281 1.69837 -0.634446 0
M  V30 7102 C 691.329 -0.175592 -3.60172 0
M  V30 7103 O 690.433 0.852776 -4.03487 0
M  V30 7104 H 689.774 -0.109531 -0.654904 0
M  V30 7105 H 692.304 -0.937013 -1.81882 0
M  V30 7106 H 692.314 -0.00291151 -4.08 0
M  V30 7107 H 690.989 -1.15222 -3.99621 0
M  V30 7108 H 689.566 0.650301 -3.67186 0
M  V30 7109 N 691.751 1.51645 -0.429126 0
M  V30 7110 C 692.998 2.02015 0.140079 0
M  V30 7111 C 693.326 1.31374 1.43427 0
M  V30 7112 O 692.581 0.414779 1.91254 0
M  V30 7113 C 692.88 3.54989 0.414472 0
M  V30 7114 C 692.546 4.43874 -0.792911 0
M  V30 7115 C 691.208 4.67887 -1.12404 0
M  V30 7116 C 693.56 4.96074 -1.59875 0
M  V30 7117 C 690.888 5.41348 -2.26184 0
M  V30 7118 C 693.24 5.70782 -2.72747 0
M  V30 7119 C 691.904 5.93062 -3.06324 0
M  V30 7120 H 691.174 0.739225 0.0512585 0
M  V30 7121 H 693.821 1.82675 -0.574641 0
M  V30 7122 H 692.126 3.72615 1.21099 0
M  V30 7123 H 693.823 3.91489 0.868173 0
M  V30 7124 H 690.413 4.25374 -0.524871 0
M  V30 7125 H 694.597 4.77412 -1.35614 0
M  V30 7126 H 689.853 5.56815 -2.52522 0
M  V30 7127 H 694.027 6.10221 -3.35564 0
M  V30 7128 H 691.654 6.49764 -3.94602 0
M  V30 7129 N 693.229 0.160201 1.56784 0
M  V30 7130 C 694.477 -0.486625 1.96154 0
M  V30 7131 C 694.798 -1.64525 1.04673 0
M  V30 7132 O 694.068 -1.95586 0.110864 0
M  V30 7133 H 692.648 -0.182764 0.724297 0
M  V30 7134 H 695.31 0.238787 1.93432 0
M  V30 7135 H 694.406 -0.854025 3.00188 0
M  V30 7136 N 694.707 -1.5719 -0.113559 0
M  V30 7137 C 695.937 -1.89053 -0.833212 0
M  V30 7138 C 696.345 -0.750139 -1.73694 0
M  V30 7139 O 695.688 0.287808 -1.81431 0
M  V30 7140 C 695.75 -3.15986 -1.71443 0
M  V30 7141 C 695.414 -4.46271 -0.984449 0
M  V30 7142 C 696.411 -5.18897 -0.322741 0
M  V30 7143 C 694.096 -4.92963 -0.964011 0
M  V30 7144 C 696.09 -6.3644 0.349646 0
M  V30 7145 C 693.777 -6.10422 -0.287828 0
M  V30 7146 C 694.775 -6.82009 0.36784 0
M  V30 7147 O 694.463 -7.97233 1.03322 0
M  V30 7148 H 694.195 -0.630225 -0.244526 0
M  V30 7149 H 696.749 -2.05152 -0.100847 0
M  V30 7150 H 694.979 -2.95984 -2.48858 0
M  V30 7151 H 696.668 -3.33826 -2.309 0
M  V30 7152 H 697.434 -4.83875 -0.330114 0
M  V30 7153 H 693.313 -4.37143 -1.46379 0
M  V30 7154 H 696.857 -6.92254 0.861996 0
M  V30 7155 H 692.754 -6.449 -0.278237 0
M  V30 7156 H 693.522 -8.13105 0.938247 0
M  V30 7157 N 696.185 0.383891 -1.52853 0
M  V30 7158 C 697.118 1.49105 -1.72751 0
M  V30 7159 C 698.096 1.52077 -0.575438 0
M  V30 7160 O 699.28 1.70406 -0.805854 0
M  V30 7161 C 696.407 2.87551 -1.78975 0
M  V30 7162 C 695.453 3.02383 -3.00777 0
M  V30 7163 S 696.286 2.73048 -4.60657 0
M  V30 7164 C 697.442 4.13678 -4.69704 0
M  V30 7165 H 697.675 1.32002 -2.66388 0
M  V30 7166 H 695.208 0.577088 -1.4321 0
M  V30 7167 H 697.166 3.6733 -1.83246 0
M  V30 7168 H 695.827 3.01977 -0.864215 0
M  V30 7169 H 695.02 4.03733 -3.01688 0
M  V30 7170 H 694.622 2.30504 -2.94523 0
M  V30 7171 H 696.914 5.07676 -4.48633 0
M  V30 7172 H 697.857 4.1778 -5.71721 0
M  V30 7173 H 698.265 3.99825 -3.98497 0
M  V30 7174 N 697.663 1.43903 0.642637 0
M  V30 7175 C 698.888 1.49758 1.43483 0
M  V30 7176 C 699.313 0.119911 1.87717 0
M  V30 7177 O 698.671 -0.888558 1.58033 0
M  V30 7178 C 698.719 2.45744 2.63898 0
M  V30 7179 O 697.823 1.95101 3.63331 0
M  V30 7180 H 697.164 0.506138 0.429791 0
M  V30 7181 H 699.694 1.88923 0.785438 0
M  V30 7182 H 699.704 2.63399 3.11584 0
M  V30 7183 H 698.379 3.45818 2.31046 0
M  V30 7184 H 696.956 1.87158 3.22531 0
M  V30 7185 N 699.141 -0.881989 1.30609 0
M  V30 7186 C 700.369 -1.66711 1.22536 0
M  V30 7187 C 700.784 -1.87614 -0.2113 0
M  V30 7188 O 700.141 -1.42576 -1.13923 0
M  V30 7189 C 700.192 -3.04182 1.95335 0
M  V30 7190 O 699.913 -2.8422 3.33393 0
M  V30 7191 C 701.414 -3.98617 1.93956 0
M  V30 7192 H 698.634 -0.520124 0.423925 0
M  V30 7193 H 701.178 -1.10174 1.72285 0
M  V30 7194 H 699.333 -3.57442 1.49378 0
M  V30 7195 H 699.747 -3.71452 3.70302 0
M  V30 7196 H 701.221 -4.92433 2.49426 0
M  V30 7197 H 701.698 -4.29473 0.919198 0
M  V30 7198 H 702.304 -3.51292 2.39738 0
M  V30 7199 N 700.619 -1.13374 -1.09472 0
M  V30 7200 C 701.549 -0.833268 -2.18126 0
M  V30 7201 C 702.53 0.207169 -1.68834 0
M  V30 7202 O 703.715 0.0662012 -1.94087 0
M  V30 7203 C 700.845 -0.297979 -3.46019 0
M  V30 7204 C 699.799 -1.27261 -4.08642 0
M  V30 7205 C 699.125 -0.597104 -5.31356 0
M  V30 7206 C 700.425 -2.63095 -4.51197 0
M  V30 7207 H 702.119 -1.74182 -2.43518 0
M  V30 7208 H 699.665 -0.838921 -1.17039 0
M  V30 7209 H 701.618 -0.0754444 -4.21332 0
M  V30 7210 H 700.342 0.645959 -3.20148 0
M  V30 7211 H 699.001 -1.48113 -3.35348 0
M  V30 7212 H 698.649 0.352293 -5.01765 0
M  V30 7213 H 698.349 -1.24734 -5.74208 0
M  V30 7214 H 699.873 -0.38384 -6.09392 0
M  V30 7215 H 701.287 -2.46214 -5.17737 0
M  V30 7216 H 699.684 -3.2429 -5.04932 0
M  V30 7217 H 700.754 -3.20793 -3.6362 0
M  V30 7218 N 702.098 1.27442 -0.927168 0
M  V30 7219 C 703.375 1.89473 -0.485742 0
M  V30 7220 C 703.755 1.83922 1.03614 0
M  V30 7221 O 703.103 1.28409 1.89007 0
M  V30 7222 C 703.313 3.33417 -1.03123 0
M  V30 7223 C 704.661 4.10333 -1.0914 0
M  V30 7224 O 705.685 3.4243 -0.98082 0
M  V30 7225 O 704.544 5.31737 -1.26165 0
M  V30 7226 H 701.638 0.812124 -0.156154 0
M  V30 7227 H 704.184 1.35713 -1.01882 0
M  V30 7228 H 702.956 3.31747 -2.07508 0
M  V30 7229 H 702.579 3.94695 -0.479767 0
M  V30 7230 N 703.576 0.692616 1.41565 0
M  V30 7231 C 704.853 0.150496 1.9502 0
M  V30 7232 C 705.233 -1.33881 1.63215 0
M  V30 7233 O 704.581 -2.08378 0.937598 0
M  V30 7234 C 704.791 0.438636 3.46233 0
M  V30 7235 C 706.139 0.364777 4.2303 0
M  V30 7236 O 707.163 0.373383 3.54238 0
M  V30 7237 O 706.022 0.32234 5.45549 0
M  V30 7238 H 703.116 0.0132454 0.826894 0
M  V30 7239 H 705.662 0.768574 1.51298 0
M  V30 7240 H 704.434 1.46962 3.62654 0
M  V30 7241 H 704.057 -0.210562 3.97042 0
M  V30 7242 N 705.054 -1.51416 0.437162 0
M  V30 7243 C 706.3 -2.02386 -0.129555 0
M  V30 7244 C 706.633 -1.32071 -1.42376 0
M  V30 7245 O 705.908 -0.43559 -1.8956 0
M  V30 7246 C 706.191 -3.5841 -0.348487 0
M  V30 7247 C 706.044 -4.39341 0.964352 0
M  V30 7248 C 707.363 -4.25654 -1.11834 0
M  V30 7249 H 704.482 -0.735587 -0.0456109 0
M  V30 7250 H 707.124 -1.81055 0.576124 0
M  V30 7251 H 705.274 -3.76716 -0.949592 0
M  V30 7252 H 706.946 -4.32685 1.59942 0
M  V30 7253 H 705.189 -4.04432 1.56898 0
M  V30 7254 H 705.86 -5.4667 0.765212 0
M  V30 7255 H 708.336 -4.11617 -0.609165 0
M  V30 7256 H 707.212 -5.34704 -1.24029 0
M  V30 7257 H 707.473 -3.86502 -2.14636 0
M  V30 7258 N 706.532 -0.168513 -1.56696 0
M  V30 7259 C 707.464 0.794249 -2.14998 0
M  V30 7260 C 708.477 1.1957 -1.10485 0
M  V30 7261 O 709.666 1.13604 -1.37682 0
M  V30 7262 C 706.766 2.08018 -2.67547 0
M  V30 7263 C 705.939 1.84274 -3.96689 0
M  V30 7264 C 704.998 2.97059 -4.3433 0
M  V30 7265 O 704.024 2.67815 -5.02259 0
M  V30 7266 N 705.226 4.24775 -3.9566 0
M  V30 7267 H 707.991 0.295832 -2.98236 0
M  V30 7268 H 705.552 0.0143611 -1.61894 0
M  V30 7269 H 707.544 2.82559 -2.89729 0
M  V30 7270 H 706.114 2.49059 -1.88914 0
M  V30 7271 H 705.334 0.936528 -3.82914 0
M  V30 7272 H 706.622 1.65773 -4.81037 0
M  V30 7273 H 706.02 4.51395 -3.40968 0
M  V30 7274 H 704.577 4.96027 -4.22848 0
M  V30 7275 N 708.01 1.57248 0.105221 0
M  V30 7276 C 708.973 2.00388 1.11252 0
M  V30 7277 C 709.973 0.89594 1.33527 0
M  V30 7278 O 711.163 1.16166 1.29811 0
M  V30 7279 C 708.295 2.35589 2.46395 0
M  V30 7280 H 709.488 2.90591 0.741424 0
M  V30 7281 H 707.041 1.52332 0.349956 0
M  V30 7282 H 707.776 1.4831 2.884 0
M  V30 7283 H 707.561 3.16408 2.31578 0
M  V30 7284 H 709.051 2.69658 3.18864 0
M  V30 7285 N 709.488 -0.375779 1.53054 0
M  V30 7286 C 710.735 -1.11948 1.68742 0
M  V30 7287 C 711.063 -1.89596 0.434015 0
M  V30 7288 O 710.318 -1.86787 -0.583867 0
M  V30 7289 C 710.617 -2.11356 2.88207 0
M  V30 7290 C 710.283 -1.50266 4.25124 0
M  V30 7291 C 708.945 -1.33333 4.62359 0
M  V30 7292 C 711.297 -1.05976 5.10312 0
M  V30 7293 C 708.625 -0.706765 5.82427 0
M  V30 7294 C 710.977 -0.447241 6.31017 0
M  V30 7295 C 709.641 -0.265314 6.66973 0
M  V30 7296 H 708.911 -0.409648 0.61747 0
M  V30 7297 H 711.558 -0.402492 1.87222 0
M  V30 7298 H 709.863 -2.89322 2.64197 0
M  V30 7299 H 711.56 -2.68833 2.97539 0
M  V30 7300 H 708.15 -1.64437 3.95801 0
M  V30 7301 H 712.334 -1.17855 4.82104 0
M  V30 7302 H 707.59 -0.554132 6.08884 0
M  V30 7303 H 711.764 -0.0958064 6.96334 0
M  V30 7304 H 709.391 0.222267 7.59875 0
M  V30 7305 N 710.966 -1.44241 -0.634997 0
M  V30 7306 C 711.896 -1.53632 -1.7584 0
M  V30 7307 C 712.877 -0.389603 -1.65578 0
M  V30 7308 O 714.062 -0.609219 -1.84397 0
M  V30 7309 C 711.192 -1.47644 -3.14354 0
M  V30 7310 C 710.146 -2.60752 -3.394 0
M  V30 7311 C 709.472 -2.39817 -4.77904 0
M  V30 7312 C 710.772 -4.02921 -3.32343 0
M  V30 7313 H 712.466 -2.47662 -1.68238 0
M  V30 7314 H 710.012 -1.19197 -0.807969 0
M  V30 7315 H 711.965 -1.52815 -3.92716 0
M  V30 7316 H 710.689 -0.501284 -3.2273 0
M  V30 7317 H 709.348 -2.54965 -2.63417 0
M  V30 7318 H 708.996 -1.40502 -4.82978 0
M  V30 7319 H 708.696 -3.15649 -4.9562 0
M  V30 7320 H 710.22 -2.46799 -5.585 0
M  V30 7321 H 711.634 -4.10098 -4.00615 0
M  V30 7322 H 710.031 -4.78925 -3.61595 0
M  V30 7323 H 711.101 -4.26766 -2.30215 0
M  V30 7324 N 712.444 0.87505 -1.31075 0
M  V30 7325 C 713.86 1.15997 -1.09622 0
M  V30 7326 C 714.06 2.01036 0.136611 0
M  V30 7327 O 713.116 2.38559 0.827397 0
M  V30 7328 C 714.429 1.85702 -2.36506 0
M  V30 7329 C 715.977 1.98425 -2.42067 0
M  V30 7330 C 716.452 2.71544 -3.68819 0
M  V30 7331 N 717.943 2.79084 -3.69684 0
M  V30 7332 C 718.678 3.36259 -4.64454 0
M  V30 7333 N 718.174 3.94406 -5.69575 0
M  V30 7334 N 719.967 3.34169 -4.51982 0
M  V30 7335 H 712.118 0.308258 -2.10151 0
M  V30 7336 H 714.381 0.199145 -0.926847 0
M  V30 7337 H 714.087 1.30663 -3.26527 0
M  V30 7338 H 713.961 2.86017 -2.45915 0
M  V30 7339 H 716.348 2.5263 -1.52518 0
M  V30 7340 H 716.429 0.971682 -2.36626 0
M  V30 7341 H 716.073 2.18008 -4.58732 0
M  V30 7342 H 716.003 3.73198 -3.71525 0
M  V30 7343 H 718.494 2.3781 -2.93691 0
M  V30 7344 H 718.807 4.36129 -6.37974 0
M  V30 7345 H 717.152 3.92797 -5.73355 0
M  V30 7346 H 720.343 2.87977 -3.69035 0
M  V30 7347 H 720.516 3.78431 -5.26017 0
M  V30 7348 N 713.922 1.13953 1.08869 0
M  V30 7349 C 715.169 0.90481 1.81161 0
M  V30 7350 C 715.497 -0.568824 1.85996 0
M  V30 7351 O 714.752 -1.43723 1.32823 0
M  V30 7352 C 715.051 1.44495 3.26888 0
M  V30 7353 C 714.717 2.93641 3.42178 0
M  V30 7354 C 713.379 3.34361 3.46059 0
M  V30 7355 C 715.731 3.89568 3.46246 0
M  V30 7356 C 713.059 4.69681 3.51592 0
M  V30 7357 C 715.411 5.2474 3.53314 0
M  V30 7358 C 714.075 5.64979 3.55465 0
M  V30 7359 H 713.345 0.331094 0.662916 0
M  V30 7360 H 715.992 1.42242 1.28217 0
M  V30 7361 H 714.297 0.848169 3.82509 0
M  V30 7362 H 715.994 1.23934 3.81368 0
M  V30 7363 H 712.584 2.61156 3.39846 0
M  V30 7364 H 716.768 3.59192 3.42483 0
M  V30 7365 H 712.024 5.00224 3.51547 0
M  V30 7366 H 716.198 5.98882 3.55406 0
M  V30 7367 H 713.825 6.69821 3.59505 0
M  V30 7368 N 715.4 -1.26948 0.933913 0
M  V30 7369 C 716.649 -1.93378 0.573409 0
M  V30 7370 C 716.962 -1.74148 -0.890614 0
M  V30 7371 O 718.168 -2.34971 -1.36017 0
M  V30 7372 C 716.624 -3.46449 0.974747 0
M  V30 7373 C 716.232 -3.74425 2.45988 0
M  V30 7374 C 717.976 -4.18924 0.685791 0
M  V30 7375 C 715.883 -5.209 2.8003 0
M  V30 7376 H 714.813 -0.723952 0.210736 0
M  V30 7377 H 717.464 -1.44143 1.13557 0
M  V30 7378 H 715.846 -3.94528 0.341181 0
M  V30 7379 H 717.02 -3.37079 3.14188 0
M  V30 7380 H 715.335 -3.15167 2.72138 0
M  V30 7381 H 717.932 -5.26786 0.916546 0
M  V30 7382 H 718.275 -4.14587 -0.377217 0
M  V30 7383 H 718.808 -3.76687 1.27874 0
M  V30 7384 H 715.547 -5.30332 3.85264 0
M  V30 7385 H 715.067 -5.59369 2.16485 0
M  V30 7386 H 716.746 -5.88837 2.68105 0
M  V30 7387 N 716.879 -0.700114 -1.41195 0
M  V30 7388 C 718.128 -0.230082 -2.00383 0
M  V30 7389 C 718.441 1.17857 -1.56106 0
M  V30 7390 O 719.647 1.74631 -2.07885 0
M  V30 7391 C 718.103 -0.360447 -3.5809 0
M  V30 7392 C 717.711 -1.77475 -4.11347 0
M  V30 7393 C 719.455 0.0495799 -4.24471 0
M  V30 7394 C 717.362 -1.85653 -5.61504 0
M  V30 7395 H 716.292 -0.0822633 -0.749499 0
M  V30 7396 H 718.943 -0.868969 -1.6162 0
M  V30 7397 H 717.325 0.346768 -3.94479 0
M  V30 7398 H 718.499 -2.51109 -3.86369 0
M  V30 7399 H 716.814 -2.13486 -3.57509 0
M  V30 7400 H 719.411 0.00898219 -5.34699 0
M  V30 7401 H 719.754 1.08904 -4.01803 0
M  V30 7402 H 720.287 -0.607521 -3.93134 0
M  V30 7403 H 717.026 -2.87667 -5.89006 0
M  V30 7404 H 716.546 -1.1641 -5.88395 0
M  V30 7405 H 718.225 -1.62151 -6.26351 0
M  V30 7406 N 718.357 1.51182 -0.445186 0
M  V30 7407 C 719.634 1.9478 0.178965 0
M  V30 7408 C 720.014 1.38428 1.59376 0
M  V30 7409 O 719.362 0.574552 2.21159 0
M  V30 7410 C 719.572 3.48683 0.148711 0
M  V30 7411 C 720.92 4.23152 0.35042 0
M  V30 7412 O 721.944 3.55479 0.226474 0
M  V30 7413 O 720.803 5.4322 0.597893 0
M  V30 7414 H 717.897 0.817387 0.12573 0
M  V30 7415 H 720.443 1.62051 -0.503729 0
M  V30 7416 H 719.215 3.82176 -0.84009 0
M  V30 7417 H 718.838 3.87875 0.873979 0
M  V30 7418 N 719.835 0.176821 1.56605 0
M  V30 7419 C 721.063 -0.472828 2.01425 0
M  V30 7420 C 721.478 -1.56436 1.05703 0
M  V30 7421 O 720.835 -1.82405 0.058808 0
M  V30 7422 C 720.886 -1.04607 3.46034 0
M  V30 7423 O 720.607 0.00189608 4.381 0
M  V30 7424 C 722.108 -1.7734 4.06282 0
M  V30 7425 H 719.328 -0.120503 0.660091 0
M  V30 7426 H 721.872 0.280166 2.02572 0
M  V30 7427 H 720.027 -1.74953 3.45645 0
M  V30 7428 H 720.441 -0.422118 5.22799 0
M  V30 7429 H 721.915 -2.12703 5.09374 0
M  V30 7430 H 722.392 -2.67043 3.4869 0
M  V30 7431 H 722.998 -1.11623 4.10391 0
M  V30 7432 N 721.313 -1.57302 -0.09688 0
M  V30 7433 C 722.729 -1.53094 -0.451041 0
M  V30 7434 C 722.929 -0.893265 -1.80618 0
M  V30 7435 O 721.985 -0.485013 -2.47798 0
M  V30 7436 C 723.298 -2.9782 -0.415172 0
M  V30 7437 C 724.846 -3.09026 -0.497155 0
M  V30 7438 C 725.321 -4.55356 -0.491452 0
M  V30 7439 N 726.812 -4.59896 -0.552258 0
M  V30 7440 C 727.547 -5.70563 -0.569654 0
M  V30 7441 N 727.043 -6.90666 -0.543365 0
M  V30 7442 N 728.836 -5.58733 -0.614331 0
M  V30 7443 H 720.987 -1.97131 0.790771 0
M  V30 7444 H 723.25 -0.901211 0.294147 0
M  V30 7445 H 722.956 -3.47933 0.513362 0
M  V30 7446 H 722.83 -3.56416 -1.23481 0
M  V30 7447 H 725.217 -2.58902 -1.41611 0
M  V30 7448 H 725.298 -2.53386 0.35059 0
M  V30 7449 H 724.942 -5.06131 0.423549 0
M  V30 7450 H 724.872 -5.08832 -1.35639 0
M  V30 7451 H 727.363 -3.73456 -0.577842 0
M  V30 7452 H 727.676 -7.70769 -0.559873 0
M  V30 7453 H 726.021 -6.93123 -0.510441 0
M  V30 7454 H 729.212 -4.63809 -0.632387 0
M  V30 7455 H 729.385 -6.44984 -0.62442 0
M  V30 7456 N 722.791 0.367657 -1.53252 0
M  V30 7457 C 723.721 1.45632 -1.8252 0
M  V30 7458 C 724.702 1.55979 -0.678568 0
M  V30 7459 O 725.887 1.70581 -0.928217 0
M  V30 7460 C 723.017 2.82994 -2.01325 0
M  V30 7461 C 721.971 2.87473 -3.17086 0
M  V30 7462 C 721.297 4.2749 -3.21179 0
M  V30 7463 C 722.597 2.55182 -4.55719 0
M  V30 7464 H 724.291 1.21387 -2.73689 0
M  V30 7465 H 721.837 0.58251 -1.31692 0
M  V30 7466 H 723.79 3.59179 -2.20383 0
M  V30 7467 H 722.514 3.08622 -1.06864 0
M  V30 7468 H 721.173 2.13739 -2.97844 0
M  V30 7469 H 720.821 4.5019 -2.24361 0
M  V30 7470 H 720.521 4.31403 -3.98955 0
M  V30 7471 H 722.045 5.0555 -3.42419 0
M  V30 7472 H 723.459 3.21081 -4.74953 0
M  V30 7473 H 721.856 2.70414 -5.3572 0
M  V30 7474 H 722.926 1.5044 -4.60973 0
M  V30 7475 N 724.269 1.44576 0.627338 0
M  V30 7476 C 725.219 1.48168 1.73293 0
M  V30 7477 C 726.203 0.347045 1.57113 0
M  V30 7478 O 727.395 0.592605 1.66785 0
M  V30 7479 C 724.524 1.43236 3.11991 0
M  V30 7480 C 723.61 2.61828 3.33627 0
M  V30 7481 N 724.001 3.87053 3.25612 0
M  V30 7482 C 722.299 2.57104 3.64436 0
M  V30 7483 C 723 4.66093 3.48041 0
M  V30 7484 N 721.976 3.97228 3.71095 0
M  V30 7485 H 725.778 2.42832 1.6556 0
M  V30 7486 H 723.292 1.39592 0.829934 0
M  V30 7487 H 725.289 1.43893 3.91281 0
M  V30 7488 H 723.949 0.496133 3.20887 0
M  V30 7489 H 724.96 4.18966 3.04447 0
M  V30 7490 H 721.637 1.72295 3.8029 0
M  V30 7491 H 723.027 5.75117 3.47404 0
M  V30 7492 N 725.747 -0.868086 1.31537 0
M  V30 7493 C 726.972 -1.65926 1.24432 0
M  V30 7494 C 727.397 -1.87169 -0.186936 0
M  V30 7495 O 726.755 -1.4148 -1.13371 0
M  V30 7496 C 726.803 -3.00347 1.9956 0
M  V30 7497 O 725.907 -3.90221 1.33422 0
M  V30 7498 H 725.248 -0.506375 0.429512 0
M  V30 7499 H 727.778 -1.0822 1.73637 0
M  V30 7500 H 727.788 -3.50269 2.09226 0
M  V30 7501 H 726.463 -2.84205 3.03645 0
M  V30 7502 H 725.04 -3.48672 1.32219 0
M  V30 7503 N 727.225 -1.14528 -1.08264 0
M  V30 7504 C 728.45 -0.938381 -1.84957 0
M  V30 7505 C 728.875 0.508044 -1.81109 0
M  V30 7506 O 728.233 1.36146 -1.19724 0
M  V30 7507 C 728.281 -1.44568 -3.30352 0
M  V30 7508 O 727.385 -0.638745 -4.07423 0
M  V30 7509 H 726.726 -0.335394 -0.573068 0
M  V30 7510 H 729.256 -1.52287 -1.36637 0
M  V30 7511 H 729.266 -1.45449 -3.81194 0
M  V30 7512 H 727.941 -2.49876 -3.32468 0
M  V30 7513 H 726.518 -0.698801 -3.66294 0
M  V30 7514 N 728.703 1.26451 -0.940633 0
M  V30 7515 C 729.951 1.93395 -0.586748 0
M  V30 7516 C 730.272 1.7417 0.876921 0
M  V30 7517 O 729.542 1.097 1.62304 0
M  V30 7518 H 728.122 0.715687 -0.214012 0
M  V30 7519 H 730.784 1.53902 -1.19584 0
M  V30 7520 H 729.88 3.01565 -0.804059 0
M  V30 7521 N 730.181 0.707592 1.40822 0
M  V30 7522 C 731.458 0.171172 1.9485 0
M  V30 7523 C 731.838 -1.32143 1.64625 0
M  V30 7524 O 731.186 -2.07372 0.959647 0
M  V30 7525 C 731.396 0.475334 3.45748 0
M  V30 7526 C 732.744 0.409625 4.22619 0
M  V30 7527 O 733.768 0.410934 3.53822 0
M  V30 7528 O 732.627 0.380185 5.45176 0
M  V30 7529 H 729.721 0.022015 0.826707 0
M  V30 7530 H 732.267 0.784577 1.50474 0
M  V30 7531 H 731.039 1.50801 3.61075 0
M  V30 7532 H 730.662 -0.168439 3.97243 0
M  V30 7533 N 731.66 -1.50943 0.453197 0
M  V30 7534 C 732.906 -2.03153 -0.100277 0
M  V30 7535 C 733.261 -1.33032 -1.38997 0
M  V30 7536 O 732.554 -0.441423 -1.86446 0
M  V30 7537 C 732.748 -3.55603 -0.357944 0
M  V30 7538 C 732.577 -4.40495 0.905223 0
M  V30 7539 C 731.347 -4.84247 1.44337 0
M  V30 7540 C 733.545 -4.81931 1.79575 0
M  V30 7541 N 731.527 -5.53403 2.65742 0
M  V30 7542 C 732.898 -5.50314 2.85577 0
M  V30 7543 C 734.953 -4.63903 1.80828 0
M  V30 7544 C 733.656 -6.02581 3.92797 0
M  V30 7545 C 735.682 -5.17097 2.86993 0
M  V30 7546 C 735.044 -5.8544 3.91713 0
M  V30 7547 H 731.143 -0.781995 0.00287755 0
M  V30 7548 H 733.727 -1.84651 0.617411 0
M  V30 7549 H 731.898 -3.74087 -1.04467 0
M  V30 7550 H 733.63 -3.9447 -0.904175 0
M  V30 7551 H 730.385 -4.63029 0.995045 0
M  V30 7552 H 730.809 -5.92598 3.27348 0
M  V30 7553 H 735.451 -4.10512 1.0119 0
M  V30 7554 H 733.169 -6.55018 4.73262 0
M  V30 7555 H 736.755 -5.0499 2.88923 0
M  V30 7556 H 735.635 -6.25861 4.72512 0
M  V30 7557 N 733.138 -0.185124 -1.56509 0
M  V30 7558 C 734.549 0.329221 -1.83774 0
M  V30 7559 C 734.9 1.62093 -1.10545 0
M  V30 7560 O 734.025 2.13334 -0.36298 0
M  V30 7561 C 734.62 0.604099 -3.33371 0
M  V30 7562 C 733.179 1.06284 -3.61083 0
M  V30 7563 C 732.326 0.10608 -2.77097 0
M  V30 7564 H 735.277 -0.409116 -1.53336 0
M  V30 7565 H 735.298 1.45458 -3.51599 0
M  V30 7566 H 734.81 -0.336201 -3.86641 0
M  V30 7567 H 732.911 2.01777 -3.13236 0
M  V30 7568 H 733.024 0.962453 -4.69333 0
M  V30 7569 H 731.388 0.606082 -2.47384 0
M  V30 7570 H 732.171 -0.828486 -3.33153 0
M  V30 7571 N 734.616 1.57351 0.0885366 0
M  V30 7572 C 735.862 1.86696 0.791996 0
M  V30 7573 C 736.195 0.775148 1.78059 0
M  V30 7574 O 735.47 -0.216247 1.93294 0
M  V30 7575 C 735.753 3.26684 1.51491 0
M  V30 7576 C 735.606 4.465 0.543858 0
M  V30 7577 C 736.925 3.64664 2.46391 0
M  V30 7578 H 734.044 0.679049 0.286463 0
M  V30 7579 H 736.686 1.89919 0.0554866 0
M  V30 7580 H 734.836 3.24067 2.14273 0
M  V30 7581 H 736.508 4.61235 -0.0774597 0
M  V30 7582 H 734.751 4.33567 -0.142228 0
M  V30 7583 H 735.422 5.41192 1.08696 0
M  V30 7584 H 737.898 3.68267 1.93698 0
M  V30 7585 H 736.774 4.63534 2.93986 0
M  V30 7586 H 737.035 2.93698 3.30445 0
M  V30 7587 N 736.094 -0.359525 1.53444 0
M  V30 7588 C 737.505 -0.936009 1.61542 0
M  V30 7589 C 737.856 -1.90069 0.486633 0
M  V30 7590 O 736.981 -2.12929 -0.386047 0
M  V30 7591 C 737.576 -1.70441 2.92806 0
M  V30 7592 C 736.135 -2.23015 3.03218 0
M  V30 7593 C 735.282 -1.04438 2.56881 0
M  V30 7594 H 738.233 -0.138134 1.58098 0
M  V30 7595 H 738.254 -2.56609 2.80948 0
M  V30 7596 H 737.766 -1.00205 3.74941 0
M  V30 7597 H 735.867 -2.96475 2.25684 0
M  V30 7598 H 735.98 -2.50481 4.08407 0
M  V30 7599 H 734.344 -1.41314 2.11902 0
M  V30 7600 H 735.127 -0.356905 3.4144 0
M  V30 7601 N 737.572 -1.44907 -0.619662 0
M  V30 7602 C 738.504 -1.48652 -1.74457 0
M  V30 7603 C 739.517 -0.378596 -1.58337 0
M  V30 7604 O 740.706 -0.644987 -1.6644 0
M  V30 7605 C 737.806 -1.31568 -3.12319 0
M  V30 7606 C 736.979 -2.55816 -3.54792 0
M  V30 7607 C 736.038 -2.33465 -4.71573 0
M  V30 7608 O 735.064 -3.07015 -4.79302 0
M  V30 7609 N 736.266 -1.37254 -5.6404 0
M  V30 7610 H 739.031 -2.45632 -1.71712 0
M  V30 7611 H 736.592 -1.40492 -0.804582 0
M  V30 7612 H 738.584 -1.14445 -3.88181 0
M  V30 7613 H 737.154 -0.429095 -3.09641 0
M  V30 7614 H 736.374 -2.88137 -2.69018 0
M  V30 7615 H 737.662 -3.38431 -3.79924 0
M  V30 7616 H 737.06 -0.765309 -5.60499 0
M  V30 7617 H 735.617 -1.26106 -6.39485 0
M  V30 7618 N 739.05 0.861098 -1.31996 0
M  V30 7619 C 740.013 1.95068 -1.20338 0
M  V30 7620 C 741.013 1.60289 -0.128114 0
M  V30 7621 O 742.203 1.70048 -0.378044 0
M  V30 7622 C 739.335 3.30153 -0.849205 0
M  V30 7623 H 740.528 2.06833 -2.17164 0
M  V30 7624 H 738.081 1.05049 -1.15734 0
M  V30 7625 H 738.816 3.24087 0.117508 0
M  V30 7626 H 738.601 3.56771 -1.62655 0
M  V30 7627 H 740.091 4.10025 -0.791782 0
M  V30 7628 N 740.528 1.15101 1.07655 0
M  V30 7629 C 741.478 0.813448 2.12995 0
M  V30 7630 C 742.462 -0.200899 1.59641 0
M  V30 7631 O 743.654 -0.00209918 1.77 0
M  V30 7632 C 740.783 0.301078 3.41977 0
M  V30 7633 C 739.869 1.3454 4.02194 0
M  V30 7634 N 740.26 2.55181 4.36711 0
M  V30 7635 C 738.558 1.19742 4.29625 0
M  V30 7636 C 739.259 3.22094 4.84387 0
M  V30 7637 N 738.235 2.49486 4.82968 0
M  V30 7638 H 742.037 1.73105 2.37511 0
M  V30 7639 H 739.551 1.03601 1.25063 0
M  V30 7640 H 741.548 0.040914 4.1688 0
M  V30 7641 H 740.208 -0.610629 3.18907 0
M  V30 7642 H 741.219 2.92349 4.27496 0
M  V30 7643 H 737.896 0.345353 4.16069 0
M  V30 7644 H 739.286 4.24996 5.20411 0
M  V30 7645 N 742.006 -1.2595 0.947325 0
M  V30 7646 C 742.969 -2.24407 0.466285 0
M  V30 7647 C 743.969 -1.55054 -0.426005 0
M  V30 7648 O 745.159 -1.7275 -0.224319 0
M  V30 7649 C 742.291 -3.39326 -0.327201 0
M  V30 7650 H 743.484 -2.68477 1.33642 0
M  V30 7651 H 741.037 -1.38211 0.729887 0
M  V30 7652 H 741.772 -3.00667 -1.21532 0
M  V30 7653 H 741.557 -3.9085 0.312839 0
M  V30 7654 H 743.047 -4.12455 -0.653477 0
M  V30 7655 N 743.484 -0.715051 -1.40445 0
M  V30 7656 C 744.761 -0.181503 -1.94756 0
M  V30 7657 C 745.141 1.31268 -1.65324 0
M  V30 7658 O 744.489 2.0686 -0.970631 0
M  V30 7659 C 744.699 -0.493663 -3.45491 0
M  V30 7660 C 746.047 -0.432032 -4.22396 0
M  V30 7661 O 747.071 -0.429692 -3.53599 0
M  V30 7662 O 745.93 -0.409091 -5.44967 0
M  V30 7663 H 743.024 -0.0263989 -0.826579 0
M  V30 7664 H 745.57 -0.792546 -1.50056 0
M  V30 7665 H 744.342 -1.52713 -3.6027 0
M  V30 7666 H 743.965 0.14737 -3.97327 0
M  V30 7667 N 744.962 1.50701 -0.461195 0
M  V30 7668 C 746.19 2.06681 0.0951756 0
M  V30 7669 C 746.605 1.32615 1.34382 0
M  V30 7670 O 745.962 0.392531 1.78229 0
M  V30 7671 C 746.013 3.59354 0.393316 0
M  V30 7672 O 745.734 4.30626 -0.805797 0
M  V30 7673 C 747.235 4.31926 0.997744 0
M  V30 7674 H 744.455 0.670995 -0.00267259 0
M  V30 7675 H 746.999 1.93991 -0.647137 0
M  V30 7676 H 745.154 3.7188 1.08555 0
M  V30 7677 H 745.568 5.21667 -0.544409 0
M  V30 7678 H 747.042 5.39756 1.15619 0
M  V30 7679 H 747.519 3.91772 1.98523 0
M  V30 7680 H 748.125 4.23905 0.344188 0
M  V30 7681 N 746.441 0.193421 1.56409 0
M  V30 7682 C 747.689 -0.444908 1.97142 0
M  V30 7683 C 748.01 -1.62268 1.08139 0
M  V30 7684 O 747.28 -1.95307 0.152326 0
M  V30 7685 H 745.86 -0.16736 0.728011 0
M  V30 7686 H 748.522 0.279763 1.92882 0
M  V30 7687 H 747.618 -0.790159 3.01932 0
M  V30 7688 N 747.919 -1.57396 -0.0801906 0
M  V30 7689 C 748.829 -2.06451 -1.11423 0
M  V30 7690 C 749.845 -0.992352 -1.42928 0
M  V30 7691 O 751.021 -1.30651 -1.53272 0
M  V30 7692 C 748.086 -2.49164 -2.41077 0
M  V30 7693 C 747.147 -3.70641 -2.16619 0
M  V30 7694 C 746.38 -4.11307 -3.40092 0
M  V30 7695 O 746.603 -3.51922 -4.48895 0
M  V30 7696 O 745.537 -5.04157 -3.288 0
M  V30 7697 H 749.363 -2.94857 -0.727519 0
M  V30 7698 H 746.948 -1.46484 -0.293743 0
M  V30 7699 H 748.83 -2.77196 -3.17396 0
M  V30 7700 H 747.505 -1.6389 -2.79145 0
M  V30 7701 H 746.412 -3.47703 -1.38033 0
M  V30 7702 H 747.745 -4.5674 -1.83437 0
M  V30 7703 N 749.397 0.351382 -1.53633 0
M  V30 7704 C 750.625 1.11275 -1.74429 0
M  V30 7705 C 751.04 1.82602 -0.479798 0
M  V30 7706 O 750.397 1.74074 0.548125 0
M  V30 7707 C 750.448 2.13223 -2.91921 0
M  V30 7708 O 750.169 1.44798 -4.13479 0
M  V30 7709 C 751.67 3.01797 -3.24706 0
M  V30 7710 H 748.89 0.332153 -0.583023 0
M  V30 7711 H 751.434 0.405974 -2.0043 0
M  V30 7712 H 749.589 2.79477 -2.68274 0
M  V30 7713 H 750.003 2.12839 -4.79374 0
M  V30 7714 H 751.477 3.69282 -4.10286 0
M  V30 7715 H 751.954 3.67387 -2.40673 0
M  V30 7716 H 752.56 2.41141 -3.5033 0
M  V30 7717 N 750.875 1.45233 0.611969 0
M  V30 7718 C 752.123 1.48727 1.36838 0
M  V30 7719 C 752.444 0.128616 1.94575 0
M  V30 7720 O 751.714 -0.84149 1.76906 0
M  V30 7721 H 750.294 0.547695 0.507976 0
M  V30 7722 H 752.956 1.81156 0.718925 0
M  V30 7723 H 752.052 2.2236 2.19003 0
M  V30 7724 N 752.353 -0.854086 1.3245 0
M  V30 7725 C 753.316 -1.94427 1.21371 0
M  V30 7726 C 754.316 -1.60219 0.136613 0
M  V30 7727 O 755.506 -1.69846 0.387057 0
M  V30 7728 C 752.638 -3.29698 0.866701 0
M  V30 7729 H 753.831 -2.05679 2.18257 0
M  V30 7730 H 751.384 -1.04434 1.1629 0
M  V30 7731 H 752.119 -3.24145 -0.100319 0
M  V30 7732 H 751.904 -3.55903 1.64545 0
M  V30 7733 H 753.394 -4.09599 0.813515 0
M  V30 7734 N 753.831 -1.1567 -1.07043 0
M  V30 7735 C 755.242 -0.942408 -1.61169 0
M  V30 7736 C 755.593 0.515537 -1.89306 0
M  V30 7737 O 754.718 1.38726 -1.66084 0
M  V30 7738 C 755.313 -1.70431 -2.92812 0
M  V30 7739 C 753.872 -1.53521 -3.43669 0
M  V30 7740 C 753.019 -1.7179 -2.17678 0
M  V30 7741 H 755.97 -1.3065 -0.9009 0
M  V30 7742 H 755.991 -1.17566 -3.61882 0
M  V30 7743 H 755.503 -2.76538 -2.72302 0
M  V30 7744 H 753.604 -0.498224 -3.69254 0
M  V30 7745 H 753.717 -2.31422 -4.19501 0
M  V30 7746 H 752.081 -1.14468 -2.27529 0
M  V30 7747 H 752.864 -2.79269 -1.99659 0
M  V30 7748 N 755.309 1.25446 -0.953992 0
M  V30 7749 C 756.534 1.97755 -0.625129 0
M  V30 7750 C 756.959 1.70437 0.795787 0
M  V30 7751 O 756.317 0.95992 1.53803 0
M  V30 7752 C 756.365 3.49463 -0.889251 0
M  V30 7753 O 755.469 4.12387 0.0322757 0
M  V30 7754 H 754.81 0.61998 -0.237742 0
M  V30 7755 H 757.34 1.59582 -1.28041 0
M  V30 7756 H 757.35 3.99772 -0.815263 0
M  V30 7757 H 756.025 3.68676 -1.92487 0
M  V30 7758 H 754.602 3.72782 -0.0938625 0
M  V30 7759 N 756.787 0.722489 1.40064 0
M  V30 7760 C 757.75 0.0830209 2.2905 0
M  V30 7761 C 758.75 -0.680208 1.45705 0
M  V30 7762 O 759.94 -0.511084 1.66534 0
M  V30 7763 C 757.072 -0.892092 3.29021 0
M  V30 7764 H 758.265 0.866848 2.87099 0
M  V30 7765 H 755.818 0.487556 1.48501 0
M  V30 7766 H 756.553 -1.70273 2.76003 0
M  V30 7767 H 756.338 -0.34761 3.90556 0
M  V30 7768 H 757.828 -1.33648 3.95636 0
M  V30 7769 N 758.265 -1.50454 0.469181 0
M  V30 7770 C 759.542 -1.9504 -0.147955 0
M  V30 7771 C 759.922 -1.40946 -1.57154 0
M  V30 7772 O 759.27 -0.609663 -2.20217 0
M  V30 7773 C 759.48 -3.48875 -0.0932198 0
M  V30 7774 C 760.828 -4.23655 -0.283056 0
M  V30 7775 O 761.852 -3.55795 -0.169892 0
M  V30 7776 O 760.711 -5.44102 -0.511396 0
M  V30 7777 H 757.805 -0.819283 -0.11271 0
M  V30 7778 H 760.351 -1.6123 0.529446 0
M  V30 7779 H 759.123 -3.80791 0.900784 0
M  V30 7780 H 758.746 -3.89217 -0.812161 0
M  V30 7781 N 759.743 -0.201713 -1.56304 0
M  V30 7782 C 760.968 0.443815 -2.02596 0
M  V30 7783 C 761.393 1.53945 -1.08086 0
M  V30 7784 O 760.751 1.81182 -0.0655056 0
M  V30 7785 C 760.799 0.971066 -3.47279 0
M  V30 7786 O 759.903 2.0836 -3.55893 0
M  V30 7787 H 759.244 0.10294 -0.655972 0
M  V30 7788 H 761.774 -0.314533 -2.02168 0
M  V30 7789 H 761.784 1.28598 -3.87204 0
M  V30 7790 H 760.459 0.169048 -4.15556 0
M  V30 7791 H 759.036 1.77683 -3.27846 0
M  V30 7792 N 761.222 1.57436 0.0718424 0
M  V30 7793 C 762.154 2.00412 1.1121 0
M  V30 7794 C 763.167 0.910074 1.34987 0
M  V30 7795 O 764.356 1.18796 1.33228 0
M  V30 7796 C 761.456 2.32786 2.46301 0
M  V30 7797 C 760.629 3.64036 2.4248 0
M  V30 7798 C 759.688 3.8408 3.59679 0
M  V30 7799 O 758.714 4.55667 3.4111 0
M  V30 7800 N 759.916 3.2643 4.80025 0
M  V30 7801 H 762.681 2.90264 0.746118 0
M  V30 7802 H 760.242 1.59791 0.260495 0
M  V30 7803 H 762.234 2.43368 3.23348 0
M  V30 7804 H 760.804 1.48824 2.74901 0
M  V30 7805 H 760.024 3.64208 1.50818 0
M  V30 7806 H 761.312 4.50217 2.37027 0
M  V30 7807 H 760.71 2.68325 4.98014 0
M  V30 7808 H 759.267 3.42461 5.54584 0
M  V30 7809 N 762.7 -0.34323 1.53817 0
M  V30 7810 C 763.663 -1.40444 1.8113 0
M  V30 7811 C 764.663 -1.45604 0.682366 0
M  V30 7812 O 765.853 -1.45974 0.950649 0
M  V30 7813 C 762.985 -2.79369 1.95361 0
M  V30 7814 H 764.178 -1.17489 2.75928 0
M  V30 7815 H 761.731 -0.577636 1.45234 0
M  V30 7816 H 762.466 -3.07607 1.02707 0
M  V30 7817 H 762.251 -2.7702 2.77493 0
M  V30 7818 H 763.741 -3.56178 2.18008 0
M  V30 7819 N 764.178 -1.45556 -0.604258 0
M  V30 7820 C 765.455 -1.40221 -1.36373 0
M  V30 7821 C 765.835 -0.0745195 -2.10968 0
M  V30 7822 O 765.183 0.943594 -2.08107 0
M  V30 7823 C 765.393 -2.61807 -2.30777 0
M  V30 7824 C 766.741 -3.07037 -2.93281 0
M  V30 7825 O 767.765 -2.62203 -2.41097 0
M  V30 7826 O 766.624 -3.8485 -3.88011 0
M  V30 7827 H 763.718 -0.556602 -0.611656 0
M  V30 7828 H 766.264 -1.57689 -0.627069 0
M  V30 7829 H 765.036 -3.50017 -1.74939 0
M  V30 7830 H 764.659 -2.46688 -3.11818 0
M  V30 7831 N 765.656 0.84705 -1.32902 0
M  V30 7832 C 766.902 1.60414 -1.24078 0
M  V30 7833 C 767.235 1.93217 0.195105 0
M  V30 7834 O 766.51 1.58001 1.13428 0
M  V30 7835 C 766.793 2.91951 -2.108 0
M  V30 7836 C 766.646 2.6588 -3.62805 0
M  V30 7837 C 767.965 3.93299 -1.97494 0
M  V30 7838 H 765.084 0.58206 -0.452079 0
M  V30 7839 H 767.726 0.977562 -1.62922 0
M  V30 7840 H 765.876 3.45425 -1.77802 0
M  V30 7841 H 767.548 2.18902 -4.06054 0
M  V30 7842 H 765.791 1.99716 -3.85092 0
M  V30 7843 H 766.462 3.59574 -4.1882 0
M  V30 7844 H 768.938 3.49105 -2.26417 0
M  V30 7845 H 767.814 4.8318 -2.60438 0
M  V30 7846 H 768.075 4.31887 -0.944782 0
M  V30 7847 N 767.134 1.16236 1.06428 0
M  V30 7848 C 768.383 0.937523 1.78587 0
M  V30 7849 C 768.696 -0.536 1.88113 0
M  V30 7850 O 769.902 -0.878697 2.56887 0
M  V30 7851 C 768.358 1.62808 3.2097 0
M  V30 7852 C 767.966 3.13927 3.19615 0
M  V30 7853 C 769.71 1.48515 3.97673 0
M  V30 7854 C 767.617 3.75727 4.56709 0
M  V30 7855 H 766.547 0.347125 0.669343 0
M  V30 7856 H 769.198 1.39353 1.19385 0
M  V30 7857 H 767.58 1.09977 3.80422 0
M  V30 7858 H 768.754 3.7359 2.69753 0
M  V30 7859 H 767.069 3.28089 2.56411 0
M  V30 7860 H 769.666 1.92069 4.99013 0
M  V30 7861 H 770.009 0.433913 4.14032 0
M  V30 7862 H 770.542 1.98494 3.44739 0
M  V30 7863 H 767.281 4.80793 4.45554 0
M  V30 7864 H 766.801 3.20849 5.0677 0
M  V30 7865 H 768.48 3.77203 5.25668 0
M  V30 7866 N 768.612 -1.24939 0.960631 0
M  V30 7867 C 770.023 -1.74701 0.658529 0
M  V30 7868 C 770.374 -1.77967 -0.825959 0
M  V30 7869 O 769.499 -1.40444 -1.64634 0
M  V30 7870 C 770.094 -3.17263 1.18867 0
M  V30 7871 C 768.653 -3.64561 0.936614 0
M  V30 7872 C 767.8 -2.43423 1.32817 0
M  V30 7873 H 770.751 -1.10741 1.13676 0
M  V30 7874 H 770.772 -3.76481 0.551589 0
M  V30 7875 H 770.284 -3.14854 2.26912 0
M  V30 7876 H 768.385 -3.72378 -0.128608 0
M  V30 7877 H 768.498 -4.52392 1.57729 0
M  V30 7878 H 766.862 -2.43513 0.746548 0
M  V30 7879 H 767.645 -2.437 2.41796 0
M  V30 7880 N 770.09 -0.729906 -1.39679 0
M  V30 7881 C 771.053 -0.0951668 -2.29002 0
M  V30 7882 C 772.053 0.672471 -1.46063 0
M  V30 7883 O 773.243 0.502245 -1.66803 0
M  V30 7884 C 770.375 0.874631 -3.29489 0
M  V30 7885 H 771.568 -0.882062 -2.86635 0
M  V30 7886 H 769.121 -0.495424 -1.4824 0
M  V30 7887 H 769.856 1.68807 -2.76902 0
M  V30 7888 H 769.641 0.326893 -3.90735 0
M  V30 7889 H 771.131 1.31548 -3.96339 0
M  V30 7890 N 771.568 1.50203 -0.477153 0
M  V30 7891 C 772.814 2.02658 0.0758507 0
M  V30 7892 C 773.147 1.358 1.38824 0
M  V30 7893 O 772.422 0.485696 1.88338 0
M  V30 7894 C 772.705 3.59208 0.253339 0
M  V30 7895 C 772.558 4.36629 -1.0805 0
M  V30 7896 C 773.877 4.28469 1.00509 0
M  V30 7897 H 770.996 0.736538 0.0260921 0
M  V30 7898 H 773.638 1.79464 -0.623925 0
M  V30 7899 H 771.788 3.79101 0.849378 0
M  V30 7900 H 773.46 4.28292 -1.71358 0
M  V30 7901 H 771.703 4.0013 -1.67566 0
M  V30 7902 H 772.374 5.44449 -0.909883 0
M  V30 7903 H 774.85 4.13087 0.499818 0
M  V30 7904 H 773.726 5.37804 1.09808 0
M  V30 7905 H 773.987 3.92057 2.04314 0
M  V30 7906 N 773.046 0.209999 1.56195 0
M  V30 7907 C 773.979 -0.744546 2.15712 0
M  V30 7908 C 774.957 -1.19917 1.09812 0
M  V30 7909 O 776.141 -1.284 1.38006 0
M  V30 7910 C 773.268 -2.00733 2.72807 0
M  V30 7911 C 772.314 -1.69363 3.91431 0
M  V30 7912 S 773.147 -0.828579 5.29051 0
M  V30 7913 C 774.303 -2.10118 5.89577 0
M  V30 7914 H 774.536 -0.238636 2.96341 0
M  V30 7915 H 772.069 -0.00517877 1.54399 0
M  V30 7916 H 774.027 -2.73246 3.06344 0
M  V30 7917 H 772.688 -2.48436 1.92193 0
M  V30 7918 H 771.881 -2.63157 4.29842 0
M  V30 7919 H 771.483 -1.04921 3.58981 0
M  V30 7920 H 773.775 -3.05231 6.04847 0
M  V30 7921 H 774.718 -1.76116 6.85849 0
M  V30 7922 H 775.126 -2.23644 5.18308 0
M  V30 7923 N 774.524 -1.57472 -0.0634922 0
M  V30 7924 C 775.772 -1.87283 -0.759563 0
M  V30 7925 C 776.093 -0.803135 -1.77693 0
M  V30 7926 O 775.363 0.167293 -1.95184 0
M  V30 7927 H 773.943 -0.691106 -0.283516 0
M  V30 7928 H 776.605 -1.94864 -0.0376091 0
M  V30 7929 H 775.701 -2.85064 -1.27062 0
M  V30 7930 N 776.003 0.335068 -1.53997 0
M  V30 7931 C 777.419 0.678704 -1.4445 0
M  V30 7932 C 777.619 1.92106 -0.608078 0
M  V30 7933 O 776.675 2.52292 -0.102373 0
M  V30 7934 C 777.988 0.863435 -2.88037 0
M  V30 7935 C 779.536 0.961513 -2.97866 0
M  V30 7936 C 780.011 1.1785 -4.42578 0
M  V30 7937 N 781.502 1.2455 -4.46141 0
M  V30 7938 C 782.237 1.43106 -5.55255 0
M  V30 7939 N 781.733 1.5878 -6.74359 0
M  V30 7940 N 783.526 1.45722 -5.42883 0
M  V30 7941 H 775.677 -0.481656 -2.06867 0
M  V30 7942 H 777.94 -0.153615 -0.935471 0
M  V30 7943 H 777.646 0.0219511 -3.51693 0
M  V30 7944 H 777.52 1.76268 -3.33481 0
M  V30 7945 H 779.907 1.79351 -2.34344 0
M  V30 7946 H 779.988 0.0389862 -2.5577 0
M  V30 7947 H 779.632 0.351397 -5.06683 0
M  V30 7948 H 779.562 2.11472 -4.82273 0
M  V30 7949 H 782.053 1.13928 -3.60318 0
M  V30 7950 H 782.366 1.72599 -7.53279 0
M  V30 7951 H 780.711 1.559 -6.77289 0
M  V30 7952 H 783.902 1.33065 -4.48789 0
M  V30 7953 H 784.075 1.59841 -6.27977 0
M  V30 7954 N 777.481 1.45874 0.596531 0
M  V30 7955 C 778.897 1.30524 0.918459 0
M  V30 7956 C 779.097 0.266429 1.99731 0
M  V30 7957 O 778.153 -0.335809 2.50257 0
M  V30 7958 C 779.466 2.68747 1.3489 0
M  V30 7959 C 781.014 2.7673 1.46251 0
M  V30 7960 C 781.489 4.15504 1.92667 0
M  V30 7961 N 782.98 4.17853 1.99883 0
M  V30 7962 C 783.715 5.22109 2.37044 0
M  V30 7963 N 783.211 6.36704 2.73094 0
M  V30 7964 N 785.004 5.09471 2.37479 0
M  V30 7965 H 777.155 2.12081 -0.116368 0
M  V30 7966 H 779.418 0.947941 0.0106033 0
M  V30 7967 H 779.124 3.46006 0.630288 0
M  V30 7968 H 778.998 2.97942 2.31323 0
M  V30 7969 H 781.385 1.99768 2.17202 0
M  V30 7970 H 781.466 2.51236 0.481054 0
M  V30 7971 H 781.11 4.92956 1.223 0
M  V30 7972 H 781.04 4.38396 2.91747 0
M  V30 7973 H 783.531 3.35163 1.74568 0
M  V30 7974 H 783.844 7.12041 3.00362 0
M  V30 7975 H 782.189 6.40087 2.70764 0
M  V30 7976 H 785.38 4.18987 2.08728 0
M  V30 7977 H 785.553 5.90837 2.66112 0
M  V30 7978 N 778.959 -0.83999 1.33349 0
M  V30 7979 C 780.184 -1.63249 1.27924 0
M  V30 7980 C 780.609 -1.87523 -0.147193 0
M  V30 7981 O 779.967 -1.43853 -1.10345 0
M  V30 7982 C 780.015 -2.96046 2.05886 0
M  V30 7983 O 779.119 -3.87303 1.4167 0
M  V30 7984 H 778.46 -0.49715 0.440157 0
M  V30 7985 H 780.99 -1.04512 1.75893 0
M  V30 7986 H 781 -3.45752 2.16609 0
M  V30 7987 H 779.675 -2.77701 3.09605 0
M  V30 7988 H 778.252 -3.45789 1.39585 0
M  V30 7989 N 780.437 -1.16799 -1.0581 0
M  V30 7990 C 781.367 -0.902241 -2.15364 0
M  V30 7991 C 782.348 0.153351 -1.69407 0
M  V30 7992 O 783.533 0.00442032 -1.94199 0
M  V30 7993 C 780.663 -0.407911 -3.44896 0
M  V30 7994 C 779.617 -1.40197 -4.04387 0
M  V30 7995 C 778.943 -0.765848 -5.29187 0
M  V30 7996 C 780.243 -2.77316 -4.42598 0
M  V30 7997 H 781.937 -1.81841 -2.37853 0
M  V30 7998 H 779.483 -0.875731 -1.14311 0
M  V30 7999 H 781.436 -0.20945 -4.20879 0
M  V30 8000 H 780.16 0.54378 -3.22041 0
M  V30 8001 H 778.819 -1.58707 -3.30466 0
M  V30 8002 H 778.467 0.192482 -5.02632 0
M  V30 8003 H 778.167 -1.42939 -5.69949 0
M  V30 8004 H 779.691 -0.577519 -6.07863 0
M  V30 8005 H 781.105 -2.62561 -5.09642 0
M  V30 8006 H 779.502 -3.4019 -4.94359 0
M  V30 8007 H 780.572 -3.32199 -3.53231 0
M  V30 8008 N 781.915 1.24427 -0.967243 0
M  V30 8009 C 783.14 1.9708 -0.646069 0
M  V30 8010 C 783.565 1.71272 0.777665 0
M  V30 8011 O 782.923 0.976179 1.52776 0
M  V30 8012 C 782.971 3.48501 -0.926266 0
M  V30 8013 O 782.075 4.12398 -0.0114653 0
M  V30 8014 H 781.416 0.617423 -0.244304 0
M  V30 8015 H 783.946 1.58215 -1.29727 0
M  V30 8016 H 783.956 3.98885 -0.857619 0
M  V30 8017 H 782.631 3.66613 -1.96386 0
M  V30 8018 H 781.208 3.72661 -0.133396 0
M  V30 8019 N 783.393 0.737304 1.3929 0
M  V30 8020 C 784.804 0.355966 1.83275 0
M  V30 8021 C 785.155 -1.11295 1.6158 0
M  V30 8022 O 784.28 -1.85871 1.10819 0
M  V30 8023 C 784.875 0.63931 3.32713 0
M  V30 8024 C 783.434 0.31144 3.75109 0
M  V30 8025 C 782.581 0.900765 2.62262 0
M  V30 8026 H 785.532 0.934763 1.28249 0
M  V30 8027 H 785.553 -0.0881293 3.80398 0
M  V30 8028 H 785.065 1.70847 3.48472 0
M  V30 8029 H 783.166 -0.751791 3.64937 0
M  V30 8030 H 783.279 0.795611 4.72448 0
M  V30 8031 H 781.643 0.327239 2.52589 0
M  V30 8032 H 782.426 1.97463 2.80826 0
M  V30 8033 N 784.871 -1.49948 0.485112 0
M  V30 8034 C 785.803 -2.26691 -0.338222 0
M  V30 8035 C 786.816 -1.32584 -0.944742 0
M  V30 8036 O 788.005 -1.57989 -0.830772 0
M  V30 8037 C 785.105 -3.04405 -1.48966 0
M  V30 8038 C 784.278 -4.25971 -0.993371 0
M  V30 8039 C 783.337 -4.85861 -2.02052 0
M  V30 8040 O 782.363 -5.46382 -1.59547 0
M  V30 8041 N 783.565 -4.74101 -3.34975 0
M  V30 8042 H 786.33 -2.97989 0.319748 0
M  V30 8043 H 783.891 -1.58772 0.316714 0
M  V30 8044 H 785.883 -3.41348 -2.17403 0
M  V30 8045 H 784.453 -2.35815 -2.05207 0
M  V30 8046 H 783.673 -3.93971 -0.134424 0
M  V30 8047 H 784.961 -5.0476 -0.639934 0
M  V30 8048 H 784.359 -4.26002 -3.72208 0
M  V30 8049 H 782.916 -5.15274 -3.9917 0
M  V30 8050 N 786.349 -0.21828 -1.56081 0
M  V30 8051 C 787.259 0.704602 -2.23769 0
M  V30 8052 C 788.275 1.21633 -1.24425 0
M  V30 8053 O 789.451 1.25862 -1.57228 0
M  V30 8054 C 786.516 1.89725 -2.90182 0
M  V30 8055 C 785.577 1.42782 -4.0486 0
M  V30 8056 C 784.81 2.56361 -4.68097 0
M  V30 8057 O 785.033 3.74417 -4.30312 0
M  V30 8058 O 783.967 2.2775 -5.57148 0
M  V30 8059 H 787.793 0.158007 -3.03289 0
M  V30 8060 H 785.378 0.0120279 -1.49395 0
M  V30 8061 H 787.26 2.59382 -3.32113 0
M  V30 8062 H 785.935 2.432 -2.13624 0
M  V30 8063 H 784.842 0.699359 -3.67505 0
M  V30 8064 H 786.175 0.939474 -4.83151 0
M  V30 8065 N 787.827 1.57504 0.0551401 0
M  V30 8066 C 789.104 1.79155 0.785048 0
M  V30 8067 C 789.484 0.809995 1.94942 0
M  V30 8068 O 788.832 -0.153432 2.27984 0
M  V30 8069 C 789.042 3.26134 1.24247 0
M  V30 8070 C 790.39 3.90419 1.66908 0
M  V30 8071 O 791.414 3.30126 1.33772 0
M  V30 8072 O 790.273 4.96523 2.28314 0
M  V30 8073 H 787.367 0.735825 0.377479 0
M  V30 8074 H 789.913 1.69666 0.0339285 0
M  V30 8075 H 788.685 3.89145 0.410089 0
M  V30 8076 H 788.308 3.40411 2.05441 0
M  V30 8077 N 789.305 -0.326896 1.54172 0
M  V30 8078 C 790.268 -1.38515 1.8261 0
M  V30 8079 C 791.268 -1.44872 0.697771 0
M  V30 8080 O 792.458 -1.44957 0.966078 0
M  V30 8081 C 789.59 -2.77281 1.98313 0
M  V30 8082 H 790.783 -1.14556 2.77159 0
M  V30 8083 H 788.336 -0.562199 1.45839 0
M  V30 8084 H 789.071 -3.065 1.05964 0
M  V30 8085 H 788.856 -2.74061 2.80416 0
M  V30 8086 H 790.346 -3.53845 2.21773 0
M  V30 8087 N 790.784 -1.46188 -0.588786 0
M  V30 8088 C 791.714 -1.59148 -1.70863 0
M  V30 8089 C 792.695 -0.442083 -1.64255 0
M  V30 8090 O 793.88 -0.667575 -1.82365 0
M  V30 8091 C 791.01 -1.5757 -3.09498 0
M  V30 8092 C 789.964 -2.71418 -3.30932 0
M  V30 8093 C 789.29 -2.549 -4.70032 0
M  V30 8094 C 790.59 -4.1329 -3.19356 0
M  V30 8095 H 792.284 -2.52889 -1.60274 0
M  V30 8096 H 789.83 -1.21707 -0.769638 0
M  V30 8097 H 791.783 -1.65231 -3.87655 0
M  V30 8098 H 790.507 -0.603705 -3.20972 0
M  V30 8099 H 789.166 -2.63216 -2.55172 0
M  V30 8100 H 788.814 -1.55797 -4.78264 0
M  V30 8101 H 788.514 -3.31257 -4.85327 0
M  V30 8102 H 790.038 -2.64443 -5.50366 0
M  V30 8103 H 791.452 -4.22636 -3.87365 0
M  V30 8104 H 789.849 -4.90187 -3.46175 0
M  V30 8105 H 790.919 -4.33874 -2.16522 0
M  V30 8106 N 792.262 0.832906 -1.33792 0
M  V30 8107 C 793.49 1.62048 -1.28639 0
M  V30 8108 C 793.905 1.88269 0.141522 0
M  V30 8109 O 793.262 1.46706 1.08553 0
M  V30 8110 C 793.313 2.96722 -2.0649 0
M  V30 8111 O 793.034 2.7165 -3.43712 0
M  V30 8112 C 794.535 3.91144 -2.08617 0
M  V30 8113 H 791.755 0.504032 -0.442937 0
M  V30 8114 H 794.299 1.03704 -1.76255 0
M  V30 8115 H 792.454 3.51652 -1.62541 0
M  V30 8116 H 792.868 3.57453 -3.83833 0
M  V30 8117 H 794.342 4.82837 -2.67531 0
M  V30 8118 H 794.819 4.25766 -1.07796 0
M  V30 8119 H 795.425 3.42152 -2.52611 0
M  V30 8120 N 793.74 1.17359 1.05189 0
M  V30 8121 C 794.988 0.960087 1.77839 0
M  V30 8122 C 795.309 -0.512554 1.88143 0
M  V30 8123 O 794.579 -1.3721 1.39822 0
M  V30 8124 H 793.159 0.352234 0.658741 0
M  V30 8125 H 795.821 1.47834 1.27008 0
M  V30 8126 H 794.917 1.38843 2.79516 0
M  V30 8127 N 795.218 -1.23913 0.973828 0
M  V30 8128 C 796.443 -1.96735 0.656511 0
M  V30 8129 C 796.868 -1.71682 -0.768571 0
M  V30 8130 O 796.226 -0.984267 -1.52256 0
M  V30 8131 C 796.274 -3.48004 0.944735 0
M  V30 8132 O 795.378 -4.12387 0.0333357 0
M  V30 8133 H 794.719 -0.616119 0.247575 0
M  V30 8134 H 797.249 -1.57525 1.30564 0
M  V30 8135 H 797.259 -3.98424 0.87876 0
M  V30 8136 H 795.934 -3.65567 1.98328 0
M  V30 8137 H 794.511 -3.72585 0.153157 0
M  V30 8138 N 796.696 -0.74468 -1.38897 0
M  V30 8139 C 798.112 -0.421302 -1.53939 0
M  V30 8140 C 798.312 1.06668 -1.70951 0
M  V30 8141 O 797.368 1.85278 -1.71547 0
M  V30 8142 C 798.681 -1.21278 -2.75159 0
M  V30 8143 C 800.229 -1.20196 -2.89001 0
M  V30 8144 C 800.704 -1.97621 -4.13171 0
M  V30 8145 N 802.195 -1.94836 -4.2023 0
M  V30 8146 C 802.93 -2.51545 -5.15279 0
M  V30 8147 N 802.426 -3.1693 -6.16058 0
M  V30 8148 N 804.219 -2.41524 -5.07565 0
M  V30 8149 H 796.37 -1.70914 -1.26103 0
M  V30 8150 H 798.633 -0.724058 -0.611919 0
M  V30 8151 H 798.339 -2.26609 -2.68963 0
M  V30 8152 H 798.213 -0.823677 -3.68097 0
M  V30 8153 H 800.6 -0.156742 -2.94683 0
M  V30 8154 H 800.681 -1.63051 -1.97099 0
M  V30 8155 H 800.325 -3.02149 -4.0825 0
M  V30 8156 H 800.255 -1.52166 -5.04136 0
M  V30 8157 H 802.746 -1.4721 -3.48048 0
M  V30 8158 H 803.059 -3.57644 -6.85062 0
M  V30 8159 H 801.404 -3.21023 -6.16417 0
M  V30 8160 H 804.595 -1.90077 -4.27771 0
M  V30 8161 H 804.768 -2.86016 -5.81462 0
M  V30 8162 N 798.174 1.49689 -0.493057 0
M  V30 8163 C 799.42 2.02727 0.0543518 0
M  V30 8164 C 799.753 1.37264 1.37376 0
M  V30 8165 O 799.028 0.505644 1.87812 0
M  V30 8166 C 799.311 3.59456 0.215226 0
M  V30 8167 C 799.164 4.35459 -1.12675 0
M  V30 8168 C 800.483 4.29511 0.959586 0
M  V30 8169 H 797.602 0.736773 0.0182786 0
M  V30 8170 H 800.244 1.78792 -0.642924 0
M  V30 8171 H 798.394 3.79981 0.809122 0
M  V30 8172 H 800.066 4.2645 -1.75891 0
M  V30 8173 H 798.309 3.9833 -1.71801 0
M  V30 8174 H 798.98 5.43454 -0.967578 0
M  V30 8175 H 801.456 4.13594 0.455977 0
M  V30 8176 H 800.332 5.38939 1.04098 0
M  V30 8177 H 800.593 3.94202 2.00144 0
M  V30 8178 N 799.652 0.226554 1.55963 0
M  V30 8179 C 800.898 -0.397608 1.99476 0
M  V30 8180 C 801.253 -1.57031 1.11172 0
M  V30 8181 O 800.546 -1.90907 0.162757 0
M  V30 8182 C 800.74 -0.87642 3.46488 0
M  V30 8183 C 800.569 0.248344 4.49014 0
M  V30 8184 C 799.339 0.71638 5.00196 0
M  V30 8185 C 801.537 1.06835 5.03081 0
M  V30 8186 N 799.519 1.81568 5.86435 0
M  V30 8187 C 800.89 2.01641 5.86294 0
M  V30 8188 C 802.945 1.10722 4.85433 0
M  V30 8189 C 801.648 3.0002 6.53743 0
M  V30 8190 C 803.674 2.07921 5.53645 0
M  V30 8191 C 803.036 3.01466 6.3663 0
M  V30 8192 H 799.135 -0.112024 0.773935 0
M  V30 8193 H 801.719 0.339472 1.91718 0
M  V30 8194 H 799.89 -1.58285 3.54684 0
M  V30 8195 H 801.622 -1.47382 3.76909 0
M  V30 8196 H 798.377 0.30409 4.72623 0
M  V30 8197 H 798.801 2.36748 6.34255 0
M  V30 8198 H 803.443 0.397909 4.20923 0
M  V30 8199 H 801.161 3.71911 7.17432 0
M  V30 8200 H 804.747 2.11609 5.41953 0
M  V30 8201 H 803.627 3.75451 6.88481 0
M  V30 8202 N 801.13 -1.57531 -0.0467866 0
M  V30 8203 C 802.078 -2.06455 -1.0714 0
M  V30 8204 C 803.072 -0.974744 -1.38546 0
M  V30 8205 O 804.278 -1.15974 -1.37659 0
M  V30 8206 H 800.653 -0.658607 -0.362962 0
M  V30 8207 H 802.624 -2.91613 -0.632813 0
M  V30 8208 C 801.373 -2.54481 -2.36927 0
M  V30 8209 H 800.696 -3.37946 -2.13617 0
M  V30 8210 H 802.136 -2.92442 -3.07007 0
M  V30 8211 C 800.595 -1.43836 -3.04652 0
M  V30 8212 O 801.125 -0.794531 -3.93764 0
M  V30 8213 N 799.331 -1.17727 -2.65686 0
M  V30 8214 H 798.878 -1.70265 -1.93307 0
M  V30 8215 H 798.836 -0.439051 -3.11319 0
M  V30 8216 N 802.608 0.318715 -1.54344 0
M  V30 8217 C 803.556 1.41254 -1.84798 0
M  V30 8218 C 804.55 1.53325 -0.720256 0
M  V30 8219 O 805.756 1.55653 -0.903992 0
M  V30 8220 H 802.131 0.471468 -0.585851 0
M  V30 8221 H 804.102 1.12795 -2.7626 0
M  V30 8222 C 802.851 2.77395 -2.09637 0
M  V30 8223 H 802.174 2.68881 -2.95876 0
M  V30 8224 H 803.614 3.52987 -2.34896 0
M  V30 8225 C 802.073 3.24948 -0.889398 0
M  V30 8226 O 802.603 4.01573 -0.101063 0
M  V30 8227 N 800.809 2.82051 -0.699684 0
M  V30 8228 H 800.356 2.19858 -1.3424 0
M  V30 8229 H 800.314 3.1422 0.106368 0
M  V30 8230 N 804.086 1.46499 0.581025 0
M  V30 8231 C 805.311 1.55708 1.37002 0
M  V30 8232 C 805.736 0.19942 1.8704 0
M  V30 8233 O 805.094 -0.820731 1.61659 0
M  V30 8234 C 805.142 2.56716 2.53238 0
M  V30 8235 O 804.246 2.10336 3.54729 0
M  V30 8236 H 803.587 0.523912 0.407937 0
M  V30 8237 H 806.117 1.92085 0.704602 0
M  V30 8238 H 806.127 2.76378 3.00132 0
M  V30 8239 H 804.802 3.55307 2.16171 0
M  V30 8240 H 803.379 2.00669 3.14303 0
M  V30 8241 N 805.565 -0.825799 1.34232 0
M  V30 8242 C 806.79 -1.61883 1.29648 0
M  V30 8243 C 807.215 -1.87669 -0.127295 0
M  V30 8244 O 806.573 -1.45016 -1.08813 0
M  V30 8245 C 806.621 -2.93846 2.09014 0
M  V30 8246 O 805.725 -3.85778 1.4577 0
M  V30 8247 H 805.066 -0.492454 0.445405 0
M  V30 8248 H 807.596 -1.02641 1.76992 0
M  V30 8249 H 807.606 -3.43435 2.20264 0
M  V30 8250 H 806.281 -2.74401 3.12533 0
M  V30 8251 H 804.858 -3.4429 1.43245 0
M  V30 8252 N 807.043 -1.17915 -1.04565 0
M  V30 8253 C 808.271 -0.99616 -1.8134 0
M  V30 8254 C 808.686 0.455509 -1.83223 0
M  V30 8255 O 808.043 1.31636 -1.26405 0
M  V30 8256 C 808.094 -1.53758 -3.27171 0
M  V30 8257 O 807.815 -2.93241 -3.25486 0
M  V30 8258 C 809.316 -1.40007 -4.2061 0
M  V30 8259 H 806.536 -0.352055 -0.571225 0
M  V30 8260 H 809.08 -1.56349 -1.31815 0
M  V30 8261 H 807.235 -1.01213 -3.73945 0
M  V30 8262 H 807.649 -3.18392 -4.16805 0
M  V30 8263 H 809.123 -1.82695 -5.2089 0
M  V30 8264 H 809.6 -0.348054 -4.37819 0
M  V30 8265 H 810.206 -1.916 -3.79697 0
M  V30 8266 N 808.521 1.23394 -0.980386 0
M  V30 8267 C 809.767 1.92094 -0.650223 0
M  V30 8268 C 810.1 1.76309 0.814173 0
M  V30 8269 O 809.375 1.12406 1.5873 0
M  V30 8270 C 809.658 3.44713 -1.04139 0
M  V30 8271 C 809.511 3.69606 -2.56342 0
M  V30 8272 C 810.83 4.36191 -0.585296 0
M  V30 8273 H 807.949 0.697618 -0.237695 0
M  V30 8274 H 810.591 1.45517 -1.22167 0
M  V30 8275 H 808.741 3.84513 -0.55515 0
M  V30 8276 H 810.413 3.39288 -3.1254 0
M  V30 8277 H 808.656 3.14318 -2.98976 0
M  V30 8278 H 809.327 4.76441 -2.78762 0
M  V30 8279 H 811.803 4.03836 -1.00276 0
M  V30 8280 H 810.679 5.41679 -0.887428 0
M  V30 8281 H 810.94 4.39097 0.51438 0
M  V30 8282 N 809.999 0.752036 1.385 0
M  V30 8283 C 810.947 0.112634 2.32327 0
M  V30 8284 C 811.941 -0.707037 1.53939 0
M  V30 8285 O 813.147 -0.606309 1.69481 0
M  V30 8286 H 809.522 0.0176275 0.751793 0
M  V30 8287 H 811.493 0.920074 2.83861 0
M  V30 8288 C 810.242 -0.767458 3.39124 0
M  V30 8289 H 809.565 -0.146122 3.99533 0
M  V30 8290 H 811.005 -1.18216 4.07187 0
M  V30 8291 C 809.464 -1.90938 2.77568 0
M  V30 8292 O 809.994 -3.00342 2.66754 0
M  V30 8293 N 808.2 -1.70396 2.35401 0
M  V30 8294 H 807.747 -0.81413 2.44397 0
M  V30 8295 H 807.705 -2.46972 1.94557 0
M  V30 8296 N 811.477 -1.49425 0.500989 0
M  V30 8297 C 812.44 -2.27646 -0.266416 0
M  V30 8298 C 813.44 -1.3366 -0.893961 0
M  V30 8299 O 814.63 -1.5682 -0.758495 0
M  V30 8300 C 811.762 -3.11618 -1.38227 0
M  V30 8301 H 812.955 -2.96945 0.419973 0
M  V30 8302 H 810.508 -1.5419 0.255954 0
M  V30 8303 H 811.243 -2.46885 -2.10281 0
M  V30 8304 H 811.028 -3.80721 -0.937746 0
M  V30 8305 H 812.518 -3.70698 -1.92283 0
M  V30 8306 N 812.955 -0.234822 -1.55841 0
M  V30 8307 C 814.201 0.393843 -1.98939 0
M  V30 8308 C 814.534 1.58466 -1.1226 0
M  V30 8309 O 813.809 1.93635 -0.183242 0
M  V30 8310 C 814.092 0.815492 -3.50745 0
M  V30 8311 C 813.945 -0.379878 -4.48193 0
M  V30 8312 C 815.264 1.66687 -4.07312 0
M  V30 8313 H 812.383 0.141681 -0.723253 0
M  V30 8314 H 815.025 -0.333716 -1.87046 0
M  V30 8315 H 813.175 1.43541 -3.6101 0
M  V30 8316 H 814.847 -1.0182 -4.49923 0
M  V30 8317 H 813.09 -1.02507 -4.21515 0
M  V30 8318 H 813.761 -0.0417069 -5.51984 0
M  V30 8319 H 816.237 1.14369 -4.00074 0
M  V30 8320 H 815.113 1.93078 -5.13821 0
M  V30 8321 H 815.374 2.63468 -3.55017 0
M  V30 8322 N 814.433 1.57553 0.0384317 0
M  V30 8323 C 815.844 1.77258 0.586211 0
M  V30 8324 C 816.195 0.864706 1.76117 0
M  V30 8325 O 815.32 0.057141 2.16325 0
M  V30 8326 C 815.915 3.21453 1.07021 0
M  V30 8327 C 814.474 3.42387 1.56358 0
M  V30 8328 C 813.621 2.72801 0.497508 0
M  V30 8329 H 816.572 1.57585 -0.187796 0
M  V30 8330 H 816.593 3.27451 1.93794 0
M  V30 8331 H 816.105 3.87505 0.214851 0
M  V30 8332 H 814.206 2.81497 2.44111 0
M  V30 8333 H 814.319 4.50968 1.61754 0
M  V30 8334 H 812.683 2.36305 0.95038 0
M  V30 8335 H 813.466 3.41529 -0.348234 0
M  V30 8336 N 815.911 -0.310526 1.54511 0
M  V30 8337 C 817.157 -1.04846 1.73595 0
M  V30 8338 C 817.49 -1.87244 0.515118 0
M  V30 8339 O 816.765 -1.88282 -0.48786 0
M  V30 8340 C 817.048 -1.96237 3.01932 0
M  V30 8341 C 816.901 -1.17082 4.34295 0
M  V30 8342 C 818.22 -2.9556 3.26086 0
M  V30 8343 H 815.339 -0.37976 0.631626 0
M  V30 8344 H 817.981 -0.32394 1.87218 0
M  V30 8345 H 816.131 -2.58015 2.90449 0
M  V30 8346 H 817.803 -0.576643 4.57682 0
M  V30 8347 H 816.046 -0.473336 4.3121 0
M  V30 8348 H 816.717 -1.84257 5.20339 0
M  V30 8349 H 819.193 -2.43908 3.37117 0
M  V30 8350 H 818.069 -3.5668 4.17218 0
M  V30 8351 H 818.33 -3.68715 2.4393 0
M  V30 8352 N 817.389 -1.46805 -0.573248 0
M  V30 8353 C 818.352 -1.57655 -1.66366 0
M  V30 8354 C 819.352 -0.452905 -1.5429 0
M  V30 8355 O 820.542 -0.717502 -1.58737 0
M  V30 8356 C 817.674 -1.50584 -3.05839 0
M  V30 8357 H 818.867 -2.54842 -1.581 0
M  V30 8358 H 816.42 -1.34756 -0.791868 0
M  V30 8359 H 817.155 -0.547127 -3.19651 0
M  V30 8360 H 816.94 -2.32118 -3.16012 0
M  V30 8361 H 818.43 -1.61282 -3.85199 0
M  V30 8362 N 818.867 0.818669 -1.34668 0
M  V30 8363 C 820.278 1.39177 -1.24446 0
M  V30 8364 C 820.629 1.9578 0.128268 0
M  V30 8365 O 819.754 1.90382 1.02877 0
M  V30 8366 C 820.349 2.53012 -2.25323 0
M  V30 8367 C 818.908 3.06218 -2.18878 0
M  V30 8368 C 818.055 1.79112 -2.11694 0
M  V30 8369 H 821.006 0.622709 -1.45973 0
M  V30 8370 H 821.027 3.31226 -1.8727 0
M  V30 8371 H 820.539 2.11784 -3.25221 0
M  V30 8372 H 818.64 3.51939 -1.22351 0
M  V30 8373 H 818.753 3.65019 -3.10319 0
M  V30 8374 H 817.117 2.0018 -1.57481 0
M  V30 8375 H 817.9 1.40053 -3.13433 0
M  V30 8376 N 820.346 1.18468 1.03938 0
M  V30 8377 C 821.757 0.984808 1.58614 0
M  V30 8378 C 822.108 -0.465165 1.90606 0
M  V30 8379 O 821.233 -1.34274 1.69704 0
M  V30 8380 C 821.828 1.78135 2.8819 0
M  V30 8381 C 820.387 1.62579 3.39478 0
M  V30 8382 C 819.534 1.77501 2.13046 0
M  V30 8383 H 822.485 1.32993 0.865944 0
M  V30 8384 H 822.506 1.27119 3.58638 0
M  V30 8385 H 822.018 2.83661 2.64874 0
M  V30 8386 H 820.119 0.59595 3.67803 0
M  V30 8387 H 820.232 2.42463 4.13217 0
M  V30 8388 H 818.596 1.2046 2.24414 0
M  V30 8389 H 819.379 2.84464 1.92185 0
M  V30 8390 N 821.824 -1.22873 0.986916 0
M  V30 8391 C 823.07 -1.91746 0.660401 0
M  V30 8392 C 823.403 -1.76738 -0.804812 0
M  V30 8393 O 822.678 -1.13246 -1.58131 0
M  V30 8394 C 822.961 -3.44156 1.05966 0
M  V30 8395 C 822.814 -3.68242 2.58298 0
M  V30 8396 C 824.133 -4.35874 0.60842 0
M  V30 8397 H 821.252 -0.696347 0.241391 0
M  V30 8398 H 823.894 -1.44867 1.22937 0
M  V30 8399 H 822.044 -3.84213 0.575534 0
M  V30 8400 H 823.716 -3.37626 3.14335 0
M  V30 8401 H 821.959 -3.12728 3.00638 0
M  V30 8402 H 822.63 -4.74956 2.81285 0
M  V30 8403 H 825.106 -4.03299 1.02417 0
M  V30 8404 H 823.982 -5.41201 0.916142 0
M  V30 8405 H 824.243 -4.39364 -0.491086 0
M  V30 8406 N 823.302 -0.75937 -1.38099 0
M  V30 8407 C 824.542 -0.323116 -2.0183 0
M  V30 8408 C 824.906 1.07658 -1.58977 0
M  V30 8409 O 826.107 1.61227 -2.1508 0
M  V30 8410 C 824.378 -0.448234 -3.54578 0
M  V30 8411 S 825.937 -0.0954152 -4.38696 0
M  V30 8412 H 822.755 -0.125013 -0.699923 0
M  V30 8413 H 825.357 -0.991262 -1.68506 0
M  V30 8414 H 824.061 -1.46778 -3.83255 0
M  V30 8415 H 823.592 0.236895 -3.92686 0
M  V30 8416 H 825.607 1.11312 -4.83554 0
M  V30 8417 N 824.78 1.49157 -0.508906 0
M  V30 8418 C 826.057 1.95363 0.0961913 0
M  V30 8419 C 826.437 1.45064 1.53362 0
M  V30 8420 O 825.785 0.667835 2.18523 0
M  V30 8421 C 825.995 3.49 0.000688881 0
M  V30 8422 C 827.343 4.24257 0.170632 0
M  V30 8423 O 828.367 3.5612 0.0754994 0
M  V30 8424 O 827.226 5.45267 0.366957 0
M  V30 8425 H 824.32 0.821984 0.0909489 0
M  V30 8426 H 826.866 1.59769 -0.572007 0
M  V30 8427 H 825.638 3.78269 -1.00143 0
M  V30 8428 H 825.261 3.91233 0.708682 0
M  V30 8429 N 826.258 0.243083 1.55714 0
M  V30 8430 C 827.504 -0.383287 1.99145 0
M  V30 8431 C 827.837 -1.57868 1.13098 0
M  V30 8432 O 827.112 -1.93535 0.193509 0
M  V30 8433 C 827.395 -0.796879 3.51172 0
M  V30 8434 C 827.248 0.403642 4.47985 0
M  V30 8435 C 828.567 -1.64525 4.08191 0
M  V30 8436 H 825.686 -0.137843 0.723995 0
M  V30 8437 H 828.328 0.343631 1.86867 0
M  V30 8438 H 826.478 -1.41625 3.61766 0
M  V30 8439 H 828.15 1.04204 4.49376 0
M  V30 8440 H 826.393 1.04741 4.20965 0
M  V30 8441 H 827.064 0.0709794 5.51954 0
M  V30 8442 H 829.54 -1.12246 4.00674 0
M  V30 8443 H 828.416 -1.9035 5.14838 0
M  V30 8444 H 828.677 -2.61582 3.56409 0
M  V30 8445 N 827.736 -1.57571 -0.0300757 0
M  V30 8446 C 828.699 -2.05468 -1.01565 0
M  V30 8447 C 829.699 -0.958628 -1.29101 0
M  V30 8448 O 830.889 -1.22228 -1.24121 0
M  V30 8449 C 828.021 -2.47077 -2.34874 0
M  V30 8450 H 829.214 -2.93797 -0.601936 0
M  V30 8451 H 826.767 -1.53828 -0.276878 0
M  V30 8452 H 827.502 -1.61901 -2.80996 0
M  V30 8453 H 827.287 -3.27097 -2.16218 0
M  V30 8454 H 828.777 -2.84564 -3.05635 0
M  V30 8455 N 829.214 0.302327 -1.54673 0
M  V30 8456 C 830.63 0.647911 -1.45857 0
M  V30 8457 C 830.83 1.90773 -0.64869 0
M  V30 8458 O 829.886 2.52018 -0.155865 0
M  V30 8459 C 831.199 0.802144 -2.89804 0
M  V30 8460 C 832.747 0.898114 -2.99838 0
M  V30 8461 C 833.222 1.08436 -4.44978 0
M  V30 8462 N 834.713 1.15059 -4.48682 0
M  V30 8463 C 835.448 1.31296 -5.58166 0
M  V30 8464 N 834.944 1.4444 -6.77576 0
M  V30 8465 N 836.737 1.34174 -5.45851 0
M  V30 8466 H 828.888 -0.525428 -2.05798 0
M  V30 8467 H 831.151 -0.173423 -0.932002 0
M  V30 8468 H 830.857 -0.0526531 -3.51661 0
M  V30 8469 H 830.731 1.69155 -3.37145 0
M  V30 8470 H 833.118 1.7434 -2.38096 0
M  V30 8471 H 833.199 -0.0152752 -2.55795 0
M  V30 8472 H 832.843 0.243843 -5.07314 0
M  V30 8473 H 832.773 2.01195 -4.8665 0
M  V30 8474 H 835.264 1.0626 -3.62653 0
M  V30 8475 H 835.577 1.56582 -7.56771 0
M  V30 8476 H 833.922 1.41499 -6.80443 0
M  V30 8477 H 837.113 1.23516 -4.5151 0
M  V30 8478 H 837.286 1.46485 -6.31226 0
M  V30 8479 N 830.692 1.47107 0.565454 0
M  V30 8480 C 831.92 1.56909 1.3486 0
M  V30 8481 C 832.335 0.216312 1.87557 0
M  V30 8482 O 831.692 -0.789168 1.64555 0
M  V30 8483 C 831.743 2.58776 2.52423 0
M  V30 8484 O 831.464 3.888 2.01906 0
M  V30 8485 C 832.965 2.78683 3.44747 0
M  V30 8486 H 830.185 0.530096 0.411387 0
M  V30 8487 H 832.729 1.92658 0.685782 0
M  V30 8488 H 830.884 2.25983 3.1466 0
M  V30 8489 H 831.298 4.44393 2.78595 0
M  V30 8490 H 832.772 3.53842 4.23674 0
M  V30 8491 H 833.249 1.86208 3.97773 0
M  V30 8492 H 833.855 3.12641 2.88333 0
M  V30 8493 N 832.17 -0.811516 1.35101 0
M  V30 8494 C 833.102 -1.93102 1.23468 0
M  V30 8495 C 834.115 -1.62021 0.159095 0
M  V30 8496 O 835.304 -1.73682 0.411945 0
M  V30 8497 C 832.404 -3.27345 0.877404 0
M  V30 8498 C 831.577 -3.86368 2.05033 0
M  V30 8499 C 830.636 -4.99009 1.66963 0
M  V30 8500 O 829.662 -5.16698 2.38772 0
M  V30 8501 N 830.864 -5.7749 0.590394 0
M  V30 8502 H 833.629 -2.0361 2.19916 0
M  V30 8503 H 831.19 -0.988687 1.28205 0
M  V30 8504 H 833.182 -4.00163 0.604298 0
M  V30 8505 H 831.752 -3.126 0.00275267 0
M  V30 8506 H 830.972 -3.05804 2.48752 0
M  V30 8507 H 832.26 -4.22533 2.83449 0
M  V30 8508 H 831.658 -5.657 -0.00633259 0
M  V30 8509 H 830.215 -6.50708 0.377055 0
M  V30 8510 N 833.648 -1.19017 -1.03309 0
M  V30 8511 C 835.059 -0.993206 -1.5809 0
M  V30 8512 C 835.41 0.45505 -1.9085 0
M  V30 8513 O 834.535 1.33372 -1.70414 0
M  V30 8514 C 835.13 -1.79661 -2.87241 0
M  V30 8515 C 833.689 -1.64377 -3.38611 0
M  V30 8516 C 832.836 -1.78628 -2.12102 0
M  V30 8517 H 835.787 -1.3345 -0.858879 0
M  V30 8518 H 835.808 -1.29019 -3.57958 0
M  V30 8519 H 835.32 -2.85061 -2.63366 0
M  V30 8520 H 833.421 -0.615447 -3.67482 0
M  V30 8521 H 833.534 -2.44651 -4.11926 0
M  V30 8522 H 831.898 -1.21648 -2.23772 0
M  V30 8523 H 832.681 -2.8548 -1.90673 0
M  V30 8524 N 835.127 1.22348 -0.993418 0
M  V30 8525 C 836.355 1.95125 -0.688021 0
M  V30 8526 C 836.77 1.73377 0.747388 0
M  V30 8527 O 836.127 1.03317 1.50439 0
M  V30 8528 C 836.178 3.47819 -0.985097 0
M  V30 8529 O 835.899 3.68838 -2.3641 0
M  V30 8530 C 837.4 4.37779 -0.697474 0
M  V30 8531 H 834.62 0.62087 -0.254481 0
M  V30 8532 H 837.164 1.55485 -1.32833 0
M  V30 8533 H 835.319 3.85426 -0.390583 0
M  V30 8534 H 835.733 4.63032 -2.46377 0
M  V30 8535 H 837.207 5.43666 -0.955604 0
M  V30 8536 H 837.684 4.37651 0.368524 0
M  V30 8537 H 838.29 4.05799 -1.27306 0
M  V30 8538 N 836.605 0.766683 1.37694 0
M  V30 8539 C 838.016 0.394761 1.82479 0
M  V30 8540 C 838.367 -1.07842 1.63904 0
M  V30 8541 O 837.492 -1.83479 1.14737 0
M  V30 8542 C 838.087 0.70974 3.31283 0
M  V30 8543 C 836.646 0.390936 3.74364 0
M  V30 8544 C 835.793 0.956192 2.60293 0
M  V30 8545 H 838.744 0.961756 1.26238 0
M  V30 8546 H 838.765 -0.00742144 3.80499 0
M  V30 8547 H 838.277 1.782 3.4477 0
M  V30 8548 H 836.378 -0.674213 3.66449 0
M  V30 8549 H 836.491 0.895645 4.70654 0
M  V30 8550 H 834.855 0.380744 2.51838 0
M  V30 8551 H 835.638 2.03375 2.76575 0
M  V30 8552 N 838.083 -1.48885 0.516809 0
M  V30 8553 C 839.308 -2.0739 -0.0205201 0
M  V30 8554 C 839.733 -1.37259 -1.28614 0
M  V30 8555 O 839.091 -0.434304 -1.76021 0
M  V30 8556 C 839.139 -3.59793 -0.24104 0
M  V30 8557 O 838.243 -3.90957 -1.31251 0
M  V30 8558 H 837.584 -0.663167 0.0332564 0
M  V30 8559 H 840.114 -1.91477 0.720956 0
M  V30 8560 H 840.124 -4.0531 -0.467737 0
M  V30 8561 H 838.799 -4.10244 0.68356 0
M  V30 8562 H 837.376 -3.57234 -1.06951 0
M  V30 8563 N 839.561 -0.251338 -1.55583 0
M  V30 8564 C 840.471 0.656978 -2.25213 0
M  V30 8565 C 841.487 1.18966 -1.26977 0
M  V30 8566 O 842.663 1.22499 -1.59862 0
M  V30 8567 C 839.728 1.83527 -2.94141 0
M  V30 8568 C 838.789 1.34162 -4.07798 0
M  V30 8569 C 838.022 2.46375 -4.73429 0
M  V30 8570 O 838.245 3.65205 -4.38157 0
M  V30 8571 O 837.179 2.15881 -5.61853 0
M  V30 8572 H 841.005 0.0936395 -3.03556 0
M  V30 8573 H 838.59 -0.0196638 -1.49387 0
M  V30 8574 H 840.472 2.52279 -3.3754 0
M  V30 8575 H 839.147 2.38614 -2.18735 0
M  V30 8576 H 838.054 0.621249 -3.68906 0
M  V30 8577 H 839.387 0.836779 -4.85035 0
M  V30 8578 N 841.039 1.57585 0.0217189 0
M  V30 8579 C 841.986 2.07036 1.02004 0
M  V30 8580 C 842.956 0.96106 1.35473 0
M  V30 8581 O 844.141 1.23211 1.45684 0
M  V30 8582 C 841.281 2.56056 2.31364 0
M  V30 8583 C 840.394 3.80805 2.03989 0
M  V30 8584 C 839.529 4.18409 3.27272 0
M  V30 8585 C 838.568 5.36055 2.95486 0
M  V30 8586 N 837.705 5.69056 4.11242 0
M  V30 8587 H 842.545 2.92073 0.591396 0
M  V30 8588 H 840.082 1.44403 0.280384 0
M  V30 8589 H 842.04 2.82548 3.06957 0
M  V30 8590 H 840.67 1.73925 2.71937 0
M  V30 8591 H 839.722 3.61354 1.1886 0
M  V30 8592 H 841.034 4.66512 1.76546 0
M  V30 8593 H 840.188 4.46068 4.11228 0
M  V30 8594 H 838.927 3.31369 3.57835 0
M  V30 8595 H 837.932 5.08142 2.09933 0
M  V30 8596 H 839.157 6.24755 2.66193 0
M  V30 8597 H 837.103 4.84974 4.41742 0
M  V30 8598 H 837.02 6.49288 3.87247 0
M  V30 8599 H 838.288 6.01295 4.96049 0
M  V30 8600 N 842.517 -0.29412 1.54831 0
M  V30 8601 C 843.48 -1.3461 1.85507 0
M  V30 8602 C 844.48 -1.43359 0.728343 0
M  V30 8603 O 845.67 -1.42875 0.996609 0
M  V30 8604 C 842.802 -2.73012 2.0415 0
M  V30 8605 H 843.995 -1.08651 2.79526 0
M  V30 8606 H 841.548 -0.531138 1.46999 0
M  V30 8607 H 842.283 -3.04183 1.12441 0
M  V30 8608 H 842.068 -2.68051 2.86166 0
M  V30 8609 H 843.558 -3.49061 2.29229 0
M  V30 8610 N 843.995 -1.47404 -0.557645 0
M  V30 8611 C 844.958 -1.59411 -1.64684 0
M  V30 8612 C 845.958 -0.469244 -1.53801 0
M  V30 8613 O 847.148 -0.734298 -1.57967 0
M  V30 8614 C 844.28 -1.5382 -3.04224 0
M  V30 8615 H 845.473 -2.56504 -1.55389 0
M  V30 8616 H 843.026 -1.35588 -0.777531 0
M  V30 8617 H 843.761 -0.581 -3.19053 0
M  V30 8618 H 843.546 -2.35456 -3.13533 0
M  V30 8619 H 845.036 -1.65358 -3.83466 0
M  V30 8620 N 845.473 0.80434 -1.35529 0
M  V30 8621 C 846.721 1.55845 -1.28673 0
M  V30 8622 C 847.042 1.94511 0.137976 0
M  V30 8623 O 846.312 1.63775 1.07492 0
M  V30 8624 H 844.892 0.577931 -0.473291 0
M  V30 8625 H 847.554 0.959293 -1.69657 0
M  V30 8626 H 846.65 2.47285 -1.90411 0
M  V30 8627 N 846.951 1.19563 1.02676 0
M  V30 8628 C 848.197 1.00105 1.76371 0
M  V30 8629 C 848.53 -0.466823 1.88506 0
M  V30 8630 O 847.805 -1.34665 1.40341 0
M  V30 8631 C 848.088 1.67321 3.18866 0
M  V30 8632 C 847.941 3.21486 3.1459 0
M  V30 8633 C 849.26 1.39794 4.17308 0
M  V30 8634 H 846.379 0.365075 0.640226 0
M  V30 8635 H 849.021 1.47433 1.19848 0
M  V30 8636 H 847.171 1.27081 3.67128 0
M  V30 8637 H 848.843 3.70953 2.7421 0
M  V30 8638 H 847.086 3.5292 2.52249 0
M  V30 8639 H 847.757 3.63665 4.15273 0
M  V30 8640 H 850.233 1.74685 3.77657 0
M  V30 8641 H 849.109 1.89371 5.15199 0
M  V30 8642 H 849.37 0.323505 4.40915 0
M  V30 8643 N 848.429 -1.21819 0.999893 0
M  V30 8644 C 849.359 -2.26282 0.576096 0
M  V30 8645 C 850.34 -1.65317 -0.400537 0
M  V30 8646 O 851.525 -1.92028 -0.28964 0
M  V30 8647 C 848.655 -3.47147 -0.103145 0
M  V30 8648 C 847.609 -4.20594 0.792745 0
M  V30 8649 C 846.935 -5.34696 -0.0198026 0
M  V30 8650 C 848.235 -4.78533 2.09293 0
M  V30 8651 H 849.929 -2.61984 1.4493 0
M  V30 8652 H 847.475 -1.25935 0.698316 0
M  V30 8653 H 849.428 -4.1939 -0.411068 0
M  V30 8654 H 848.152 -3.1056 -1.01094 0
M  V30 8655 H 846.811 -3.50194 1.08442 0
M  V30 8656 H 846.459 -4.94352 -0.928729 0
M  V30 8657 H 846.159 -5.84764 0.576661 0
M  V30 8658 H 847.683 -6.09752 -0.321659 0
M  V30 8659 H 849.097 -5.42682 1.8485 0
M  V30 8660 H 847.494 -5.38968 2.63881 0
M  V30 8661 H 848.564 -3.98197 2.76708 0
M  V30 8662 N 849.908 -0.773975 -1.37286 0
M  V30 8663 C 850.818 -0.162571 -2.34036 0
M  V30 8664 C 851.834 0.677022 -1.60289 0
M  V30 8665 O 853.01 0.596423 -1.92366 0
M  V30 8666 C 850.075 0.70457 -3.39465 0
M  V30 8667 C 849.136 -0.151738 -4.29032 0
M  V30 8668 C 848.369 0.674111 -5.29426 0
M  V30 8669 O 848.592 1.91107 -5.37433 0
M  V30 8670 O 847.526 0.0821398 -6.01844 0
M  V30 8671 H 851.352 -0.962119 -2.88057 0
M  V30 8672 H 848.937 -0.53517 -1.39486 0
M  V30 8673 H 850.819 1.19954 -4.03967 0
M  V30 8674 H 849.494 1.48227 -2.87768 0
M  V30 8675 H 848.401 -0.693118 -3.67623 0
M  V30 8676 H 849.734 -0.892575 -4.84039 0
M  V30 8677 N 851.386 1.48609 -0.524698 0
M  V30 8678 C 852.634 2.02097 0.0112991 0
M  V30 8679 C 852.955 1.40455 1.35268 0
M  V30 8680 O 852.225 0.56807 1.87483 0
M  V30 8681 H 850.805 0.746966 0.00716426 0
M  V30 8682 H 853.467 1.82378 -0.687329 0
M  V30 8683 H 852.563 3.11855 0.123531 0
M  V30 8684 N 852.864 0.259585 1.55447 0
M  V30 8685 C 853.827 -0.621359 2.20617 0
M  V30 8686 C 854.827 -1.09317 1.17925 0
M  V30 8687 O 856.017 -0.995842 1.42929 0
M  V30 8688 C 853.149 -1.85546 2.85982 0
M  V30 8689 H 854.342 -0.0525833 2.99854 0
M  V30 8690 H 851.895 0.0101055 1.56297 0
M  V30 8691 H 852.63 -2.46515 2.10715 0
M  V30 8692 H 852.415 -1.52523 3.61219 0
M  V30 8693 H 853.905 -2.48227 3.35817 0
M  V30 8694 N 854.342 -1.57594 -0.0133615 0
M  V30 8695 C 855.272 -2.10611 -1.00823 0
M  V30 8696 C 856.253 -1.01217 -1.36708 0
M  V30 8697 O 857.438 -1.28827 -1.45318 0
M  V30 8698 C 854.568 -2.59844 -2.30431 0
M  V30 8699 C 853.522 -3.73644 -2.08745 0
M  V30 8700 C 852.848 -4.09141 -3.4425 0
M  V30 8701 C 854.148 -5.01454 -1.46086 0
M  V30 8702 H 855.842 -2.93985 -0.566849 0
M  V30 8703 H 853.388 -1.41423 -0.271219 0
M  V30 8704 H 855.341 -2.95557 -3.00373 0
M  V30 8705 H 854.065 -1.73573 -2.76658 0
M  V30 8706 H 852.724 -3.38303 -1.41232 0
M  V30 8707 H 852.372 -3.19914 -3.88155 0
M  V30 8708 H 852.072 -4.85802 -3.3056 0
M  V30 8709 H 853.596 -4.47402 -4.15528 0
M  V30 8710 H 855.01 -5.35024 -2.05966 0
M  V30 8711 H 853.407 -5.82832 -1.42924 0
M  V30 8712 H 854.477 -4.83003 -0.428471 0
M  V30 8713 N 855.82 0.285905 -1.54985 0
M  V30 8714 C 857.068 1.01718 -1.74636 0
M  V30 8715 C 857.389 1.87277 -0.543342 0
M  V30 8716 O 856.659 1.90847 0.442078 0
M  V30 8717 H 855.239 0.378549 -0.643979 0
M  V30 8718 H 857.901 0.313247 -1.92366 0
M  V30 8719 H 856.997 1.66159 -2.64192 0
M  V30 8720 N 857.298 1.47698 0.54982 0
M  V30 8721 C 858.709 1.48474 1.13191 0
M  V30 8722 C 859.06 0.243504 1.94683 0
M  V30 8723 O 858.185 -0.651009 2.06375 0
M  V30 8724 C 858.78 2.69022 2.05944 0
M  V30 8725 C 857.339 2.72733 2.5941 0
M  V30 8726 C 856.486 2.41691 1.35944 0
M  V30 8727 H 859.437 1.55101 0.336048 0
M  V30 8728 H 859.458 2.46412 2.89934 0
M  V30 8729 H 858.97 3.59345 1.46605 0
M  V30 8730 H 857.071 1.86568 3.22526 0
M  V30 8731 H 857.184 3.73628 2.99899 0
M  V30 8732 H 855.548 1.92428 1.66864 0
M  V30 8733 H 856.331 3.34231 0.783869 0
M  V30 8734 N 858.776 -0.797141 1.35954 0
M  V30 8735 C 859.726 -1.89899 1.26184 0
M  V30 8736 C 860.71 -1.60152 0.155007 0
M  V30 8737 O 861.902 -1.72715 0.387108 0
M  V30 8738 C 859.031 -3.2699 1.04559 0
M  V30 8739 C 858.117 -3.62772 2.19675 0
M  V30 8740 N 858.508 -3.6992 3.44953 0
M  V30 8741 C 856.806 -3.92786 2.1127 0
M  V30 8742 C 857.507 -4.01718 4.20711 0
M  V30 8743 N 856.483 -4.16298 3.49567 0
M  V30 8744 H 860.285 -1.9364 2.2109 0
M  V30 8745 H 857.799 -0.992246 1.28562 0
M  V30 8746 H 859.796 -4.0578 0.956474 0
M  V30 8747 H 858.456 -3.24529 0.105467 0
M  V30 8748 H 859.467 -3.52759 3.79185 0
M  V30 8749 H 856.144 -3.98295 1.25168 0
M  V30 8750 H 857.534 -4.14237 5.29016 0
M  V30 8751 N 860.254 -1.20106 -1.0204 0
M  V30 8752 C 861.5 -1.01039 -1.75838 0
M  V30 8753 C 861.833 0.456819 -1.88751 0
M  V30 8754 O 861.108 1.33919 -1.41053 0
M  V30 8755 C 861.391 -1.69009 -3.17975 0
M  V30 8756 C 861.244 -3.2315 -3.1288 0
M  V30 8757 C 862.563 -1.42005 -4.16561 0
M  V30 8758 H 859.682 -0.368465 -0.638281 0
M  V30 8759 H 862.324 -1.48066 -1.19064 0
M  V30 8760 H 860.474 -1.29026 -3.66449 0
M  V30 8761 H 862.146 -3.72402 -2.72239 0
M  V30 8762 H 860.389 -3.54253 -2.50374 0
M  V30 8763 H 861.06 -3.65862 -4.13339 0
M  V30 8764 H 863.536 -1.76685 -3.76725 0
M  V30 8765 H 862.412 -1.92101 -5.14187 0
M  V30 8766 H 862.673 -0.346884 -4.40737 0
M  V30 8767 N 861.732 1.21287 -1.00634 0
M  V30 8768 C 862.978 1.90671 -0.690822 0
M  V30 8769 C 863.311 1.77996 0.776592 0
M  V30 8770 O 862.586 1.15748 1.5631 0
M  V30 8771 C 862.869 3.42426 -1.11428 0
M  V30 8772 C 862.722 3.64086 -2.64124 0
M  V30 8773 C 864.041 4.34851 -0.677686 0
M  V30 8774 H 861.16 0.692419 -0.252439 0
M  V30 8775 H 863.802 1.42893 -1.25226 0
M  V30 8776 H 861.952 3.83249 -0.636586 0
M  V30 8777 H 863.624 3.32582 -3.19667 0
M  V30 8778 H 861.867 3.07906 -3.05576 0
M  V30 8779 H 862.538 4.7042 -2.88806 0
M  V30 8780 H 865.014 4.01619 -1.0882 0
M  V30 8781 H 863.89 5.39675 -1.00213 0
M  V30 8782 H 864.151 4.4009 0.421125 0
M  V30 8783 N 863.21 0.781244 1.36873 0
M  V30 8784 C 864.438 0.361566 2.03716 0
M  V30 8785 C 864.853 -1.01937 1.58916 0
M  V30 8786 O 864.21 -1.65237 0.774783 0
M  V30 8787 C 864.261 0.406391 3.59208 0
M  V30 8788 O 863.982 1.73286 4.02372 0
M  V30 8789 C 865.483 -0.0236894 4.43294 0
M  V30 8790 H 862.703 0.150133 0.653988 0
M  V30 8791 H 865.247 1.05781 1.75016 0
M  V30 8792 H 863.402 -0.241364 3.86647 0
M  V30 8793 H 863.816 1.67804 4.96933 0
M  V30 8794 H 865.29 0.0588205 5.51969 0
M  V30 8795 H 865.767 -1.07529 4.25833 0
M  V30 8796 H 866.373 0.59624 4.211 0
M  V30 8797 N 864.689 -1.48329 0.532571 0
M  V30 8798 C 865.637 -2.31336 -0.242133 0
M  V30 8799 C 866.631 -1.41391 -0.933006 0
M  V30 8800 O 867.837 -1.58284 -0.857096 0
M  V30 8801 H 864.212 -0.745724 -0.0969536 0
M  V30 8802 H 866.183 -2.94555 0.477504 0
M  V30 8803 C 864.932 -3.23501 -1.27446 0
M  V30 8804 H 864.255 -3.92659 -0.752261 0
M  V30 8805 H 865.695 -3.84461 -1.78789 0
M  V30 8806 C 864.154 -2.45288 -2.30944 0
M  V30 8807 O 864.684 -2.17955 -3.37429 0
M  V30 8808 N 862.89 -2.06737 -2.04226 0
M  V30 8809 H 862.437 -2.29166 -1.17647 0
M  V30 8810 H 862.395 -1.54719 -2.73696 0
M  V30 8811 N 866.167 -0.267825 -1.55308 0
M  V30 8812 C 867.097 0.616585 -2.25212 0
M  V30 8813 C 868.078 1.16472 -1.23969 0
M  V30 8814 O 869.263 1.20021 -1.52672 0
M  V30 8815 C 866.393 1.80412 -2.96764 0
M  V30 8816 C 865.347 1.38784 -4.04874 0
M  V30 8817 C 864.673 2.65789 -4.63961 0
M  V30 8818 C 865.973 0.543415 -5.19465 0
M  V30 8819 H 867.667 0.0336257 -2.99381 0
M  V30 8820 H 865.213 0.0147328 -1.43992 0
M  V30 8821 H 867.166 2.42866 -3.44375 0
M  V30 8822 H 865.89 2.4128 -2.20118 0
M  V30 8823 H 864.549 0.786541 -3.58063 0
M  V30 8824 H 864.197 3.24899 -3.83992 0
M  V30 8825 H 863.897 2.38651 -5.36954 0
M  V30 8826 H 865.421 3.29104 -5.14318 0
M  V30 8827 H 866.835 1.07277 -5.63174 0
M  V30 8828 H 865.232 0.367219 -5.98975 0
M  V30 8829 H 866.302 -0.439534 -4.82904 0
M  V30 8830 N 867.645 1.57599 0.00500368 0
M  V30 8831 C 868.875 1.94344 0.700998 0
M  V30 8832 C 869.283 0.868011 1.68114 0
M  V30 8833 O 868.626 -0.16214 1.82983 0
M  V30 8834 C 868.688 3.27046 1.49268 0
M  V30 8835 C 868.352 4.51992 0.674684 0
M  V30 8836 C 869.349 5.19888 -0.0354833 0
M  V30 8837 C 867.034 4.98432 0.622129 0
M  V30 8838 C 869.028 6.3252 -0.787246 0
M  V30 8839 C 866.715 6.10954 -0.133362 0
M  V30 8840 C 867.713 6.77855 -0.836788 0
M  V30 8841 O 867.401 7.88221 -1.57996 0
M  V30 8842 H 867.133 0.645572 0.20053 0
M  V30 8843 H 869.687 2.0536 -0.040718 0
M  V30 8844 H 867.917 3.12424 2.27877 0
M  V30 8845 H 869.606 3.4894 2.07355 0
M  V30 8846 H 870.372 4.85 -0.00400159 0
M  V30 8847 H 866.251 4.46189 1.15917 0
M  V30 8848 H 869.795 6.84671 -1.33683 0
M  V30 8849 H 865.692 6.45285 -0.166682 0
M  V30 8850 H 866.46 8.0471 -1.49615 0
M  V30 8851 N 869.123 -0.277682 1.55134 0
M  V30 8852 C 870.053 -1.34742 1.90701 0
M  V30 8853 C 871.034 -1.51757 0.768354 0
M  V30 8854 O 872.219 -1.64879 1.02609 0
M  V30 8855 C 869.349 -2.70775 2.17481 0
M  V30 8856 C 868.303 -2.68497 3.33307 0
M  V30 8857 C 867.629 -4.08037 3.45557 0
M  V30 8858 C 868.929 -2.28178 4.69821 0
M  V30 8859 H 870.623 -1.05224 2.803 0
M  V30 8860 H 868.169 -0.504738 1.34864 0
M  V30 8861 H 870.122 -3.45719 2.40949 0
M  V30 8862 H 868.846 -3.01867 1.24676 0
M  V30 8863 H 867.505 -1.9601 3.09799 0
M  V30 8864 H 867.153 -4.36344 2.50226 0
M  V30 8865 H 866.853 -4.07409 4.23429 0
M  V30 8866 H 868.377 -4.84726 3.71312 0
M  V30 8867 H 869.791 -2.92843 4.92865 0
M  V30 8868 H 868.188 -2.3872 5.50575 0
M  V30 8869 H 869.258 -1.23308 4.6896 0
M  V30 8870 N 870.601 -1.47988 -0.541979 0
M  V30 8871 C 871.831 -1.58804 -1.32155 0
M  V30 8872 C 872.239 -0.242893 -1.87634 0
M  V30 8873 O 871.582 0.776239 -1.66494 0
M  V30 8874 C 871.644 -2.56567 -2.51821 0
M  V30 8875 C 871.308 -4.01915 -2.17517 0
M  V30 8876 C 872.305 -4.89954 -1.73901 0
M  V30 8877 C 869.99 -4.47365 -2.28408 0
M  V30 8878 C 871.984 -6.21467 -1.41625 0
M  V30 8879 C 869.671 -5.78902 -1.95745 0
M  V30 8880 C 870.669 -6.65775 -1.52423 0
M  V30 8881 O 870.357 -7.94866 -1.20183 0
M  V30 8882 H 870.089 -0.538536 -0.408601 0
M  V30 8883 H 872.643 -1.94446 -0.661818 0
M  V30 8884 H 870.873 -2.16023 -3.20735 0
M  V30 8885 H 872.562 -2.57347 -3.13891 0
M  V30 8886 H 873.328 -4.56082 -1.64966 0
M  V30 8887 H 869.207 -3.79942 -2.61084 0
M  V30 8888 H 872.751 -6.8923 -1.07738 0
M  V30 8889 H 868.648 -6.12311 -2.04316 0
M  V30 8890 H 869.416 -8.07509 -1.33683 0
M  V30 8891 N 872.079 0.78992 -1.36375 0
M  V30 8892 C 873.49 1.36506 -1.2737 0
M  V30 8893 C 873.841 1.96008 0.086711 0
M  V30 8894 O 872.966 1.92521 0.988159 0
M  V30 8895 C 873.561 2.48175 -2.30639 0
M  V30 8896 C 872.12 3.01506 -2.25325 0
M  V30 8897 C 871.267 1.74581 -2.15445 0
M  V30 8898 H 874.218 0.591606 -1.47261 0
M  V30 8899 H 874.239 3.27179 -1.94253 0
M  V30 8900 H 873.751 2.04838 -3.2964 0
M  V30 8901 H 871.852 3.49265 -1.29788 0
M  V30 8902 H 871.965 3.58355 -3.17992 0
M  V30 8903 H 870.329 1.96794 -1.61692 0
M  V30 8904 H 871.112 1.33373 -3.16333 0
M  V30 8905 N 873.557 1.20646 1.01402 0
M  V30 8906 C 874.806 1.01242 1.7445 0
M  V30 8907 C 875.119 -0.455732 1.90217 0
M  V30 8908 O 876.325 -0.768951 2.60383 0
M  V30 8909 C 874.781 1.76275 3.13776 0
M  V30 8910 C 874.389 3.27201 3.06013 0
M  V30 8911 C 876.133 1.65248 3.91016 0
M  V30 8912 C 874.04 3.9476 4.40362 0
M  V30 8913 H 872.97 0.375202 0.654018 0
M  V30 8914 H 875.621 1.44292 1.13367 0
M  V30 8915 H 874.003 1.26013 3.75415 0
M  V30 8916 H 875.177 3.84695 2.53665 0
M  V30 8917 H 873.492 3.38669 2.42265 0
M  V30 8918 H 876.089 2.13061 4.90417 0
M  V30 8919 H 876.432 0.609128 4.1182 0
M  V30 8920 H 876.965 2.12937 3.3601 0
M  V30 8921 H 873.704 4.99258 4.24761 0
M  V30 8922 H 873.224 3.42054 4.92706 0
M  V30 8923 H 874.903 3.99159 5.09196 0
M  V30 8924 N 875.035 -1.20752 1.01276 0
M  V30 8925 C 875.982 -2.234 0.579732 0
M  V30 8926 C 876.952 -1.61256 -0.398206 0
M  V30 8927 O 878.137 -1.8845 -0.29851 0
M  V30 8928 C 875.277 -3.45008 -0.0797006 0
M  V30 8929 C 874.39 -4.21597 0.942343 0
M  V30 8930 C 873.525 -5.30591 0.254364 0
M  V30 8931 C 872.564 -5.98919 1.26343 0
M  V30 8932 N 871.701 -6.99511 0.602384 0
M  V30 8933 H 876.541 -2.59801 1.45971 0
M  V30 8934 H 874.078 -1.27663 0.730787 0
M  V30 8935 H 876.036 -4.1444 -0.479125 0
M  V30 8936 H 874.666 -3.09312 -0.923354 0
M  V30 8937 H 873.718 -3.51268 1.45996 0
M  V30 8938 H 875.03 -4.68576 1.70992 0
M  V30 8939 H 874.184 -6.06368 -0.200763 0
M  V30 8940 H 872.923 -4.84639 -0.545553 0
M  V30 8941 H 871.928 -5.21906 1.72898 0
M  V30 8942 H 873.153 -6.46957 2.06456 0
M  V30 8943 H 871.099 -6.55759 -0.177734 0
M  V30 8944 H 871.016 -7.44597 1.30809 0
M  V30 8945 H 872.284 -7.79313 0.17072 0
M  V30 8946 N 876.513 -0.788492 -1.36457 0
M  V30 8947 C 877.738 -0.371224 -2.04051 0
M  V30 8948 C 878.163 1.004 -1.59064 0
M  V30 8949 O 877.521 1.64663 -0.758679 0
M  V30 8950 C 877.569 -0.442275 -3.57877 0
M  V30 8951 O 876.673 0.55113 -4.08701 0
M  V30 8952 H 876.014 -0.157808 -0.644975 0
M  V30 8953 H 878.544 -1.06935 -1.74431 0
M  V30 8954 H 878.554 -0.305548 -4.06854 0
M  V30 8955 H 877.229 -1.44547 -3.89973 0
M  V30 8956 H 875.806 0.37614 -3.70998 0
M  V30 8957 N 877.991 1.48044 -0.54043 0
M  V30 8958 C 879.231 2.04396 -0.012296 0
M  V30 8959 C 879.595 1.40748 1.30591 0
M  V30 8960 O 880.796 1.88048 1.92072 0
M  V30 8961 C 879.067 3.5727 0.0964302 0
M  V30 8962 S 880.626 4.35041 0.573117 0
M  V30 8963 H 877.444 0.710795 -0.0170735 0
M  V30 8964 H 880.046 1.81625 -0.723362 0
M  V30 8965 H 878.75 4.01124 -0.86762 0
M  V30 8966 H 878.281 3.84511 0.83156 0
M  V30 8967 H 880.296 4.6099 1.83583 0
M  V30 8968 N 879.47 0.276058 1.55163 0
M  V30 8969 C 880.433 -0.597924 2.21263 0
M  V30 8970 C 881.433 -1.0806 1.19078 0
M  V30 8971 O 882.623 -0.980626 1.43977 0
M  V30 8972 C 879.755 -1.82503 2.87933 0
M  V30 8973 H 880.948 -0.0207769 2.99893 0
M  V30 8974 H 878.501 0.0266823 1.56277 0
M  V30 8975 H 879.236 -2.44266 2.13318 0
M  V30 8976 H 879.021 -1.48683 3.62816 0
M  V30 8977 H 880.511 -2.44651 3.38431 0
M  V30 8978 N 880.948 -1.576 0.00335426 0
M  V30 8979 C 881.911 -2.07576 -0.971838 0
M  V30 8980 C 882.911 -0.985796 -1.27038 0
M  V30 8981 O 884.101 -1.24833 -1.21501 0
M  V30 8982 C 881.233 -2.52003 -2.29581 0
M  V30 8983 H 882.426 -2.95008 -0.539481 0
M  V30 8984 H 879.979 -1.54381 -0.244186 0
M  V30 8985 H 880.714 -1.67825 -2.77498 0
M  V30 8986 H 880.499 -3.31609 -2.09231 0
M  V30 8987 H 881.989 -2.90983 -2.99531 0
M  V30 8988 N 882.426 0.269451 -1.5528 0
M  V30 8989 C 883.673 1.00058 -1.76053 0
M  V30 8990 C 884.001 1.86156 -0.563592 0
M  V30 8991 O 883.256 1.90366 0.453806 0
M  V30 8992 C 883.555 1.91 -3.02082 0
M  V30 8993 C 883.221 1.20623 -4.34466 0
M  V30 8994 C 881.883 1.01165 -4.70446 0
M  V30 8995 C 884.235 0.705695 -5.164 0
M  V30 8996 C 881.563 0.303865 -5.85913 0
M  V30 8997 C 883.915 0.0114838 -6.32599 0
M  V30 8998 C 882.579 -0.19478 -6.67216 0
M  V30 8999 H 881.849 0.366138 -0.644223 0
M  V30 9000 H 884.496 0.272563 -1.8955 0
M  V30 9001 H 882.801 2.70435 -2.835 0
M  V30 9002 H 884.498 2.47698 -3.15352 0
M  V30 9003 H 881.088 1.36781 -4.06188 0
M  V30 9004 H 885.272 0.84364 -4.89077 0
M  V30 9005 H 880.528 0.133368 -6.11255 0
M  V30 9006 H 884.702 -0.384111 -6.9534 0
M  V30 9007 H 882.329 -0.745201 -7.56539 0
M  V30 9008 N 883.904 1.48273 0.534124 0
M  V30 9009 C 884.814 1.65162 1.66609 0
M  V30 9010 C 885.83 0.534177 1.65598 0
M  V30 9011 O 887.006 0.804715 1.84625 0
M  V30 9012 C 884.071 1.68354 3.03081 0
M  V30 9013 C 883.132 2.91696 3.1498 0
M  V30 9014 C 882.365 2.94725 4.44941 0
M  V30 9015 O 882.588 2.06285 5.31792 0
M  V30 9016 O 881.522 3.8685 4.61119 0
M  V30 9017 H 885.348 2.60991 1.55298 0
M  V30 9018 H 882.933 1.31626 0.706749 0
M  V30 9019 H 884.815 1.72998 3.84252 0
M  V30 9020 H 883.49 0.756978 3.14725 0
M  V30 9021 H 882.397 2.92586 2.33119 0
M  V30 9022 H 883.73 3.83722 3.0825 0
M  V30 9023 N 885.382 -0.782676 1.36792 0
M  V30 9024 C 886.628 -1.54311 1.3159 0
M  V30 9025 C 886.961 -1.93928 -0.102696 0
M  V30 9026 O 886.236 -1.63233 -1.05761 0
M  V30 9027 C 886.519 -2.81561 2.24489 0
M  V30 9028 C 886.372 -2.48268 3.75078 0
M  V30 9029 C 887.691 -3.83428 2.16034 0
M  V30 9030 H 884.81 -0.559828 0.479335 0
M  V30 9031 H 887.452 -0.898717 1.67401 0
M  V30 9032 H 885.602 -3.36549 1.9408 0
M  V30 9033 H 887.274 -1.99279 4.16036 0
M  V30 9034 H 885.517 -1.81116 3.94182 0
M  V30 9035 H 886.188 -3.39183 4.35499 0
M  V30 9036 H 888.664 -3.37905 2.42815 0
M  V30 9037 H 887.54 -4.70204 2.83194 0
M  V30 9038 H 887.801 -4.26887 1.14976 0
M  V30 9039 N 886.86 -1.21182 -1.00761 0
M  V30 9040 C 888.088 -1.05335 -1.78079 0
M  V30 9041 C 888.503 0.396988 -1.84579 0
M  V30 9042 O 887.86 1.27548 -1.30529 0
M  V30 9043 C 887.911 -1.64089 -3.22113 0
M  V30 9044 O 887.632 -3.03448 -3.15992 0
M  V30 9045 C 889.133 -1.53318 -4.15943 0
M  V30 9046 H 886.353 -0.37005 -0.559736 0
M  V30 9047 H 888.897 -1.60463 -1.26775 0
M  V30 9048 H 887.052 -1.13059 -3.70535 0
M  V30 9049 H 887.466 -3.31492 -4.06465 0
M  V30 9050 H 888.94 -1.99174 -5.14814 0
M  V30 9051 H 889.417 -0.487166 -4.3649 0
M  V30 9052 H 890.023 -2.03582 -3.73409 0
M  V30 9053 N 888.338 1.20213 -1.01915 0
M  V30 9054 C 889.754 1.41696 -0.734459 0
M  V30 9055 C 889.954 1.89504 0.684867 0
M  V30 9056 O 889.01 2.06556 1.45227 0
M  V30 9057 C 890.323 2.43644 -1.76233 0
M  V30 9058 C 891.871 2.57406 -1.78076 0
M  V30 9059 C 892.346 3.626 -2.79796 0
M  V30 9060 N 893.837 3.70086 -2.78551 0
M  V30 9061 C 894.572 4.51145 -3.53915 0
M  V30 9062 N 894.068 5.35988 -4.38963 0
M  V30 9063 N 895.861 4.45702 -3.425 0
M  V30 9064 H 888.012 0.874976 -1.93541 0
M  V30 9065 H 890.275 0.446647 -0.836188 0
M  V30 9066 H 889.981 2.15519 -2.77929 0
M  V30 9067 H 889.855 3.42672 -1.57657 0
M  V30 9068 H 892.242 2.8486 -0.770634 0
M  V30 9069 H 892.323 1.58565 -2.00725 0
M  V30 9070 H 891.967 3.35889 -3.80973 0
M  V30 9071 H 891.897 4.61069 -2.54407 0
M  V30 9072 H 894.388 3.09484 -2.1686 0
M  V30 9073 H 894.701 5.94932 -4.9323 0
M  V30 9074 H 893.046 5.35482 -4.4304 0
M  V30 9075 H 896.237 3.78456 -2.75478 0
M  V30 9076 H 896.41 5.08637 -4.01487 0
M  V30 9077 N 889.816 0.795718 1.36037 0
M  V30 9078 C 891.062 0.380668 1.99806 0
M  V30 9079 C 891.417 -1.03783 1.62009 0
M  V30 9080 O 890.71 -1.70819 0.867831 0
M  V30 9081 C 890.904 0.489038 3.54038 0
M  V30 9082 C 890.733 1.91652 4.06817 0
M  V30 9083 C 889.503 2.54252 4.36674 0
M  V30 9084 C 891.701 2.87956 4.26129 0
M  V30 9085 N 889.683 3.88523 4.75314 0
M  V30 9086 C 891.054 4.07074 4.67644 0
M  V30 9087 C 893.109 2.8493 4.08313 0
M  V30 9088 C 891.812 5.23583 4.93208 0
M  V30 9089 C 893.838 4.00632 4.35027 0
M  V30 9090 C 893.2 5.18496 4.76804 0
M  V30 9091 H 889.299 0.186842 0.759351 0
M  V30 9092 H 891.883 1.03465 1.64933 0
M  V30 9093 H 890.054 -0.134893 3.88166 0
M  V30 9094 H 891.786 0.0496256 4.0467 0
M  V30 9095 H 888.541 2.05685 4.26604 0
M  V30 9096 H 888.965 4.57623 4.98909 0
M  V30 9097 H 893.607 1.94964 3.75165 0
M  V30 9098 H 891.325 6.14129 5.25234 0
M  V30 9099 H 894.911 3.99659 4.22805 0
M  V30 9100 H 893.791 6.06538 4.97073 0
M  V30 9101 N 891.294 -1.47756 0.548274 0
M  V30 9102 C 892.705 -1.8636 0.112547 0
M  V30 9103 C 893.056 -1.45589 -1.31523 0
M  V30 9104 O 892.181 -0.854874 -1.98799 0
M  V30 9105 C 892.776 -3.38224 0.197473 0
M  V30 9106 C 891.335 -3.75954 -0.183163 0
M  V30 9107 C 890.482 -2.7181 0.549059 0
M  V30 9108 H 893.433 -1.394 0.758506 0
M  V30 9109 H 893.454 -3.75957 -0.586217 0
M  V30 9110 H 892.966 -3.67868 1.23673 0
M  V30 9111 H 891.067 -3.51926 -1.22387 0
M  V30 9112 H 891.18 -4.78801 0.169178 0
M  V30 9113 H 889.544 -2.54699 -0.00682862 0
M  V30 9114 H 890.327 -3.04296 1.5893 0
M  V30 9115 N 892.772 -0.284283 -1.55015 0
M  V30 9116 C 894.018 0.330352 -2.00091 0
M  V30 9117 C 894.351 1.54814 -1.17244 0
M  V30 9118 O 893.626 1.92954 -0.244753 0
M  V30 9119 C 893.909 0.703492 -3.53161 0
M  V30 9120 C 893.762 -0.522275 -4.46758 0
M  V30 9121 C 895.081 1.53645 -4.12409 0
M  V30 9122 H 892.2 0.118599 -0.727395 0
M  V30 9123 H 894.842 -0.393054 -1.8589 0
M  V30 9124 H 892.992 1.31983 -3.65394 0
M  V30 9125 H 894.664 -1.16082 -4.46456 0
M  V30 9126 H 892.907 -1.15865 -4.1804 0
M  V30 9127 H 893.578 -0.217295 -5.51572 0
M  V30 9128 H 896.054 1.01583 -4.0351 0
M  V30 9129 H 894.93 1.76633 -5.19704 0
M  V30 9130 H 895.191 2.5204 -3.63219 0
M  V30 9131 N 894.251 1.57596 -0.0117121 0
M  V30 9132 C 895.499 1.90694 0.669342 0
M  V30 9133 C 895.82 0.886999 1.73659 0
M  V30 9134 O 895.09 -0.0739779 1.9576 0
M  V30 9135 H 893.67 0.703846 0.250219 0
M  V30 9136 H 896.332 1.94821 -0.0554057 0
M  V30 9137 H 895.428 2.90802 1.13316 0
M  V30 9138 N 895.729 -0.261212 1.5542 0
M  V30 9139 C 896.677 -1.34298 1.89913 0
M  V30 9140 C 897.671 -1.50547 0.776665 0
M  V30 9141 O 898.877 -1.52191 0.961139 0
M  V30 9142 H 895.252 -0.4494 0.602946 0
M  V30 9143 H 897.223 -1.02464 2.80256 0
M  V30 9144 C 895.972 -2.69423 2.19788 0
M  V30 9145 H 895.295 -2.57715 3.05652 0
M  V30 9146 H 896.735 -3.44026 2.47835 0
M  V30 9147 C 895.194 -3.21423 1.00939 0
M  V30 9148 O 895.724 -4.00921 0.250034 0
M  V30 9149 N 893.93 -2.7926 0.803883 0
M  V30 9150 H 893.477 -2.14724 1.42308 0
M  V30 9151 H 893.435 -3.14398 0.0103257 0
M  V30 9152 N 897.207 -1.48554 -0.526253 0
M  V30 9153 C 898.139 -1.59446 -1.6465 0
M  V30 9154 C 899.152 -0.478525 -1.55608 0
M  V30 9155 O 900.341 -0.74953 -1.62001 0
M  V30 9156 C 897.441 -1.51164 -3.03319 0
M  V30 9157 C 896.614 -2.77861 -3.37805 0
M  V30 9158 C 895.673 -2.62982 -4.5577 0
M  V30 9159 O 894.699 -3.36876 -4.58806 0
M  V30 9160 N 895.901 -1.72847 -5.5417 0
M  V30 9161 H 898.666 -2.56055 -1.55743 0
M  V30 9162 H 896.227 -1.45325 -0.713606 0
M  V30 9163 H 898.219 -1.389 -3.80117 0
M  V30 9164 H 896.789 -0.625147 -3.06285 0
M  V30 9165 H 896.009 -3.04663 -2.50149 0
M  V30 9166 H 897.297 -3.61908 -3.57632 0
M  V30 9167 H 896.695 -1.12022 -5.54498 0
M  V30 9168 H 895.252 -1.6652 -6.3017 0
M  V30 9169 N 898.685 0.775411 -1.37205 0
M  V30 9170 C 899.933 1.53081 -1.3195 0
M  V30 9171 C 900.254 1.9476 0.0966864 0
M  V30 9172 O 899.524 1.66019 1.03993 0
M  V30 9173 H 898.104 0.567762 -0.485444 0
M  V30 9174 H 900.766 0.92309 -1.71654 0
M  V30 9175 H 899.862 2.4319 -1.95614 0
M  V30 9176 N 900.163 1.21714 1.00117 0
M  V30 9177 C 901.093 1.00397 2.10815 0
M  V30 9178 C 902.074 -0.0723502 1.69946 0
M  V30 9179 O 903.259 0.0882398 1.93999 0
M  V30 9180 C 900.389 0.572001 3.42557 0
M  V30 9181 C 899.343 1.59331 3.97237 0
M  V30 9182 C 898.669 1.01746 5.2493 0
M  V30 9183 C 899.969 2.98117 4.28863 0
M  V30 9184 H 901.663 1.92983 2.28906 0
M  V30 9185 H 899.209 0.929273 1.10002 0
M  V30 9186 H 901.162 0.410018 4.19401 0
M  V30 9187 H 899.886 -0.38951 3.24269 0
M  V30 9188 H 898.545 1.74293 3.22518 0
M  V30 9189 H 898.193 0.0475491 5.02978 0
M  V30 9190 H 897.893 1.69969 5.62481 0
M  V30 9191 H 899.417 0.866881 6.04415 0
M  V30 9192 H 900.831 2.86578 4.96534 0
M  V30 9193 H 899.228 3.63389 4.77565 0
M  V30 9194 H 900.298 3.48674 3.36979 0
M  V30 9195 N 901.641 -1.19671 1.02551 0
M  V30 9196 C 902.571 -2.25009 0.623965 0
M  V30 9197 C 903.552 -1.66129 -0.36538 0
M  V30 9198 O 904.737 -1.92599 -0.248842 0
M  V30 9199 C 901.867 -3.47287 -0.0294869 0
M  V30 9200 C 900.821 -4.18818 0.881781 0
M  V30 9201 C 900.147 -5.34618 0.0936189 0
M  V30 9202 C 901.447 -4.73986 2.19396 0
M  V30 9203 H 903.141 -2.58851 1.50454 0
M  V30 9204 H 900.687 -1.24425 0.724872 0
M  V30 9205 H 902.64 -4.20168 -0.322016 0
M  V30 9206 H 901.364 -3.12635 -0.944838 0
M  V30 9207 H 900.023 -3.47815 1.15845 0
M  V30 9208 H 899.671 -4.9621 -0.823661 0
M  V30 9209 H 899.371 -5.83409 0.700568 0
M  V30 9210 H 900.895 -6.10297 -0.192249 0
M  V30 9211 H 902.309 -5.38639 1.96319 0
M  V30 9212 H 900.706 -5.3325 2.75254 0
M  V30 9213 H 901.776 -3.92238 2.85092 0
M  V30 9214 N 903.119 -0.802921 -1.35613 0
M  V30 9215 C 904.349 -0.393359 -2.02821 0
M  V30 9216 C 904.757 0.999282 -1.60658 0
M  V30 9217 O 904.1 1.65463 -0.797977 0
M  V30 9218 C 904.162 -0.393102 -3.57344 0
M  V30 9219 C 903.826 -1.73563 -4.22759 0
M  V30 9220 C 904.823 -2.69333 -4.44698 0
M  V30 9221 C 902.508 -2.01863 -4.59953 0
M  V30 9222 C 904.502 -3.91589 -5.02928 0
M  V30 9223 C 902.189 -3.24383 -5.17898 0
M  V30 9224 C 903.187 -4.19064 -5.39328 0
M  V30 9225 O 902.875 -5.39422 -5.96053 0
M  V30 9226 H 902.607 -0.158431 -0.657172 0
M  V30 9227 H 905.161 -1.08682 -1.74291 0
M  V30 9228 H 903.391 0.356934 -3.85049 0
M  V30 9229 H 905.08 -0.00635596 -4.059 0
M  V30 9230 H 905.846 -2.48759 -4.16346 0
M  V30 9231 H 901.725 -1.28979 -4.42589 0
M  V30 9232 H 905.269 -4.65502 -5.1957 0
M  V30 9233 H 901.166 -3.44829 -5.45677 0
M  V30 9234 H 901.934 -5.40669 -6.14507 0
M  V30 9235 N 904.597 1.47463 -0.556102 0
M  V30 9236 C 905.874 1.9557 0.0339892 0
M  V30 9237 C 906.254 1.49869 1.48669 0
M  V30 9238 O 905.602 0.737019 2.16288 0
M  V30 9239 C 905.812 3.48826 -0.110343 0
M  V30 9240 C 907.16 4.24585 0.0355716 0
M  V30 9241 O 908.184 3.5618 -0.0378356 0
M  V30 9242 O 907.043 5.46158 0.193299 0
M  V30 9243 H 904.137 0.824461 0.0647521 0
M  V30 9244 H 906.683 1.57868 -0.622547 0
M  V30 9245 H 905.455 3.74891 -1.12126 0
M  V30 9246 H 905.078 3.9329 0.583855 0
M  V30 9247 N 906.075 0.2925 1.54862 0
M  V30 9248 C 907.491 -0.0611461 1.59483 0
M  V30 9249 C 907.691 -1.53141 1.30958 0
M  V30 9250 O 906.747 -2.28291 1.07887 0
M  V30 9251 C 908.06 0.329143 2.98893 0
M  V30 9252 C 909.608 0.2772 3.1177 0
M  V30 9253 C 910.083 0.642185 4.53475 0
M  V30 9254 N 911.574 0.594396 4.5937 0
M  V30 9255 C 912.309 0.849385 5.67074 0
M  V30 9256 N 911.805 1.1699 6.82851 0
M  V30 9257 N 913.598 0.777016 5.56704 0
M  V30 9258 H 905.749 1.25079 1.71665 0
M  V30 9259 H 908.012 0.506516 0.80134 0
M  V30 9260 H 907.718 1.35233 3.24661 0
M  V30 9261 H 907.592 -0.321442 3.75828 0
M  V30 9262 H 909.979 -0.736725 2.85756 0
M  V30 9263 H 910.06 0.962289 2.3701 0
M  V30 9264 H 909.704 1.65388 4.80218 0
M  V30 9265 H 909.634 -0.0648831 5.2656 0
M  V30 9266 H 912.125 0.357256 3.76208 0
M  V30 9267 H 912.438 1.35067 7.60905 0
M  V30 9268 H 910.783 1.20785 6.84424 0
M  V30 9269 H 913.974 0.526333 4.65132 0
M  V30 9270 H 914.147 0.979113 6.4056 0
M  V30 9271 N 907.553 -1.57587 0.0200696 0
M  V30 9272 C 908.778 -1.96124 -0.674547 0
M  V30 9273 C 909.203 -0.896068 -1.65385 0
M  V30 9274 O 908.561 0.143925 -1.80728 0
M  V30 9275 C 908.609 -3.3376 -1.36517 0
M  V30 9276 O 907.713 -3.29483 -2.48022 0
M  V30 9277 H 907.054 -0.639719 -0.177919 0
M  V30 9278 H 909.584 -2.04447 0.0792317 0
M  V30 9279 H 909.594 -3.69785 -1.72403 0
M  V30 9280 H 908.269 -4.10832 -0.647265 0
M  V30 9281 H 906.846 -3.05162 -2.14314 0
M  V30 9282 N 909.032 0.252966 -1.55557 0
M  V30 9283 C 910.278 0.979092 -1.78284 0
M  V30 9284 C 910.633 1.83194 -0.588009 0
M  V30 9285 O 909.926 1.86965 0.418899 0
M  V30 9286 C 910.12 1.87785 -3.04091 0
M  V30 9287 C 909.949 1.11349 -4.35697 0
M  V30 9288 C 908.719 0.821038 -4.98585 0
M  V30 9289 C 910.917 0.494039 -5.11922 0
M  V30 9290 N 908.899 0.0319767 -6.13892 0
M  V30 9291 C 910.27 -0.159888 -6.19794 0
M  V30 9292 C 912.325 0.403894 -4.96259 0
M  V30 9293 C 911.028 -0.895295 -7.13706 0
M  V30 9294 C 913.054 -0.317968 -5.90545 0
M  V30 9295 C 912.416 -0.960555 -6.9782 0
M  V30 9296 H 908.515 0.339586 -0.704419 0
M  V30 9297 H 911.099 0.252801 -1.93052 0
M  V30 9298 H 909.27 2.57623 -2.90663 0
M  V30 9299 H 911.002 2.53908 -3.15139 0
M  V30 9300 H 907.757 1.13132 -4.59889 0
M  V30 9301 H 908.181 -0.35047 -6.76092 0
M  V30 9302 H 912.823 0.886366 -4.13405 0
M  V30 9303 H 910.541 -1.38939 -7.96066 0
M  V30 9304 H 914.127 -0.388302 -5.80503 0
M  V30 9305 H 913.007 -1.51022 -7.69521 0
M  V30 9306 N 910.51 1.48831 0.518367 0
M  V30 9307 C 911.443 1.588 1.63884 0
M  V30 9308 C 912.421 0.437847 1.56594 0
M  V30 9309 O 913.605 0.651042 1.769 0
M  V30 9310 C 910.732 1.52681 3.02335 0
M  V30 9311 C 909.778 2.7268 3.27945 0
M  V30 9312 S 910.611 4.34536 3.12951 0
M  V30 9313 C 911.767 4.31034 4.53828 0
M  V30 9314 H 912 2.53587 1.5518 0
M  V30 9315 H 909.533 1.37507 0.702218 0
M  V30 9316 H 911.491 1.49837 3.82177 0
M  V30 9317 H 910.152 0.592107 3.08469 0
M  V30 9318 H 909.345 2.64569 4.28974 0
M  V30 9319 H 908.947 2.72847 2.55794 0
M  V30 9320 H 911.239 4.01683 5.45579 0
M  V30 9321 H 912.182 5.32282 4.66991 0
M  V30 9322 H 912.59 3.61343 4.33695 0
M  V30 9323 N 911.988 -0.768124 1.37614 0
M  V30 9324 C 913.234 -1.52907 1.33219 0
M  V30 9325 C 913.567 -1.94026 -0.0821218 0
M  V30 9326 O 912.842 -1.64345 -1.04023 0
M  V30 9327 C 913.125 -2.79164 2.27463 0
M  V30 9328 C 912.978 -2.44276 3.7769 0
M  V30 9329 C 914.297 -3.81115 2.20089 0
M  V30 9330 H 911.416 -0.554712 0.485246 0
M  V30 9331 H 914.058 -0.880911 1.68345 0
M  V30 9332 H 912.208 -3.34472 1.97639 0
M  V30 9333 H 913.88 -1.94855 4.18126 0
M  V30 9334 H 912.123 -1.76925 3.96081 0
M  V30 9335 H 912.794 -3.34544 4.39072 0
M  V30 9336 H 915.27 -3.35311 2.46386 0
M  V30 9337 H 914.146 -4.67174 2.88166 0
M  V30 9338 H 914.407 -4.25644 1.19498 0
M  V30 9339 N 913.466 -1.22244 -0.994698 0
M  V30 9340 C 914.712 -1.04746 -1.73655 0
M  V30 9341 C 915.045 0.41668 -1.89677 0
M  V30 9342 O 914.32 1.30897 -1.43862 0
M  V30 9343 C 914.603 -1.75716 -3.14318 0
M  V30 9344 C 914.456 -3.29714 -3.05955 0
M  V30 9345 C 915.775 -1.50809 -4.13455 0
M  V30 9346 H 912.894 -0.381921 -0.630322 0
M  V30 9347 H 915.536 -1.50559 -1.15897 0
M  V30 9348 H 913.686 -1.3677 -3.63629 0
M  V30 9349 H 915.358 -3.78093 -2.64279 0
M  V30 9350 H 913.601 -3.59484 -2.42804 0
M  V30 9351 H 914.272 -3.74547 -4.05485 0
M  V30 9352 H 916.748 -1.84636 -3.72892 0
M  V30 9353 H 915.624 -2.02964 -5.09997 0
M  V30 9354 H 915.885 -0.440292 -4.39902 0
M  V30 9355 N 914.944 1.19125 -1.03184 0
M  V30 9356 C 915.892 2.24492 -0.608781 0
M  V30 9357 C 916.886 1.65529 0.360065 0
M  V30 9358 O 918.092 1.78546 0.22832 0
M  V30 9359 H 914.467 0.73048 -0.178616 0
M  V30 9360 H 916.438 2.5749 -1.50803 0
M  V30 9361 C 915.187 3.47693 0.0215126 0
M  V30 9362 H 914.51 3.93354 -0.715024 0
M  V30 9363 H 915.95 4.23072 0.280429 0
M  V30 9364 C 914.409 3.12088 1.26896 0
M  V30 9365 O 914.939 3.25013 2.36071 0
M  V30 9366 N 913.145 2.66494 1.15886 0
M  V30 9367 H 912.692 2.56176 0.270463 0
M  V30 9368 H 912.65 2.43042 1.99444 0
M  V30 9369 N 916.422 0.810101 1.35185 0
M  V30 9370 C 917.372 0.195541 2.2716 0
M  V30 9371 C 918.356 -0.632691 1.47939 0
M  V30 9372 O 919.548 -0.489372 1.701 0
M  V30 9373 C 916.677 -0.652164 3.37049 0
M  V30 9374 C 915.763 0.185989 4.23692 0
M  V30 9375 N 916.154 1.25073 4.90092 0
M  V30 9376 C 914.452 -0.0318033 4.45989 0
M  V30 9377 C 915.153 1.76272 5.54349 0
M  V30 9378 N 914.129 1.06861 5.32993 0
M  V30 9379 H 917.931 1.01018 2.75994 0
M  V30 9380 H 915.445 0.651612 1.48754 0
M  V30 9381 H 917.442 -1.10851 4.01893 0
M  V30 9382 H 916.102 -1.46511 2.89767 0
M  V30 9383 H 917.113 1.63341 4.91467 0
M  V30 9384 H 913.79 -0.813607 4.09496 0
M  V30 9385 H 915.18 2.65278 6.17315 0
M  V30 9386 N 917.9 -1.47166 0.563914 0
M  V30 9387 C 918.848 -2.31798 -0.193009 0
M  V30 9388 C 919.842 -1.43338 -0.902805 0
M  V30 9389 O 921.048 -1.60067 -0.823328 0
M  V30 9390 H 917.423 -0.747613 -0.0811139 0
M  V30 9391 H 919.394 -2.93476 0.539876 0
M  V30 9392 C 918.143 -3.26131 -1.20555 0
M  V30 9393 H 917.466 -3.94166 -0.668803 0
M  V30 9394 H 918.906 -3.88167 -1.70593 0
M  V30 9395 C 917.365 -2.50132 -2.25689 0
M  V30 9396 O 917.895 -2.25064 -3.3273 0
M  V30 9397 N 916.101 -2.11022 -1.99795 0
M  V30 9398 H 915.648 -2.3161 -1.1276 0
M  V30 9399 H 915.606 -1.60489 -2.70353 0
M  V30 9400 N 919.378 -0.300708 -1.54705 0
M  V30 9401 C 920.626 0.308044 -1.99739 0
M  V30 9402 C 920.947 1.54433 -1.19061 0
M  V30 9403 O 920.217 1.93794 -0.286507 0
M  V30 9404 H 918.797 0.116811 -0.73781 0
M  V30 9405 H 921.459 -0.41197 -1.90496 0
M  V30 9406 H 920.555 0.580287 -3.06658 0
M  V30 9407 N 920.856 1.57574 -0.0284266 0
M  V30 9408 C 922.102 1.92056 0.651327 0
M  V30 9409 C 922.435 0.905092 1.71819 0
M  V30 9410 O 921.71 -0.0722703 1.94366 0
M  V30 9411 C 921.993 3.37021 1.26841 0
M  V30 9412 C 921.846 4.49304 0.211157 0
M  V30 9413 C 923.165 3.81936 2.18662 0
M  V30 9414 H 920.284 0.698428 0.235304 0
M  V30 9415 H 922.926 1.89807 -0.0855435 0
M  V30 9416 H 921.076 3.39068 1.89644 0
M  V30 9417 H 922.748 4.5939 -0.419379 0
M  V30 9418 H 920.991 4.31317 -0.463445 0
M  V30 9419 H 921.662 5.47764 0.682518 0
M  V30 9420 H 924.138 3.8162 1.65847 0
M  V30 9421 H 923.014 4.84064 2.58792 0
M  V30 9422 H 923.275 3.174 3.07749 0
M  V30 9423 N 922.334 -0.244713 1.55689 0
M  V30 9424 C 923.574 -0.979776 1.79387 0
M  V30 9425 C 923.938 -1.8244 0.598298 0
M  V30 9426 O 925.139 -2.59141 0.7141 0
M  V30 9427 C 923.41 -1.81573 3.07841 0
M  V30 9428 S 924.969 -2.60959 3.52769 0
M  V30 9429 H 921.787 -0.329526 0.630027 0
M  V30 9430 H 924.389 -0.247435 1.93928 0
M  V30 9431 H 923.093 -1.18497 3.92921 0
M  V30 9432 H 922.624 -2.59078 2.96044 0
M  V30 9433 H 924.639 -3.83987 3.14275 0
M  V30 9434 N 923.813 -1.49104 -0.510467 0
M  V30 9435 C 924.743 -1.67981 -1.62187 0
M  V30 9436 C 925.724 -0.528529 -1.6168 0
M  V30 9437 O 926.909 -0.763305 -1.7857 0
M  V30 9438 C 924.039 -1.73755 -3.0071 0
M  V30 9439 C 922.993 -2.88579 -3.1608 0
M  V30 9440 C 922.319 -2.79457 -4.5586 0
M  V30 9441 C 923.619 -4.29638 -2.97 0
M  V30 9442 H 925.313 -2.61029 -1.46643 0
M  V30 9443 H 922.859 -1.25615 -0.704042 0
M  V30 9444 H 924.812 -1.85548 -3.78352 0
M  V30 9445 H 923.536 -0.772996 -3.17321 0
M  V30 9446 H 922.195 -2.76372 -2.40861 0
M  V30 9447 H 921.843 -1.80929 -4.69333 0
M  V30 9448 H 921.543 -3.56518 -4.67086 0
M  V30 9449 H 923.067 -2.93245 -5.35574 0
M  V30 9450 H 924.481 -4.42575 -3.64418 0
M  V30 9451 H 922.878 -5.07847 -3.19704 0
M  V30 9452 H 923.948 -4.44741 -1.93219 0
M  V30 9453 N 925.291 0.760815 -1.38019 0
M  V30 9454 C 926.516 1.55513 -1.37224 0
M  V30 9455 C 926.941 1.88062 0.037611 0
M  V30 9456 O 926.299 1.50042 1.0177 0
M  V30 9457 C 926.347 2.83539 -2.22796 0
M  V30 9458 O 925.451 3.78384 -1.64009 0
M  V30 9459 H 924.792 0.470642 -0.468393 0
M  V30 9460 H 927.322 0.940792 -1.81687 0
M  V30 9461 H 927.332 3.32535 -2.36399 0
M  V30 9462 H 926.007 2.59178 -3.25269 0
M  V30 9463 H 924.584 3.37063 -1.59508 0
M  V30 9464 N 926.769 1.22769 0.988202 0
M  V30 9465 C 927.701 0.959757 2.08138 0
M  V30 9466 C 928.714 -0.0633787 1.62677 0
M  V30 9467 O 929.903 0.171203 1.77677 0
M  V30 9468 C 927.003 0.422724 3.36253 0
M  V30 9469 C 926.176 1.50419 4.10722 0
M  V30 9470 C 925.235 0.973407 5.17118 0
M  V30 9471 O 924.261 1.66066 5.44436 0
M  V30 9472 N 925.463 -0.202787 5.80146 0
M  V30 9473 H 928.228 1.9009 2.31702 0
M  V30 9474 H 925.789 1.13522 1.15431 0
M  V30 9475 H 927.781 0.0528514 4.04665 0
M  V30 9476 H 926.351 -0.423642 3.09716 0
M  V30 9477 H 925.571 2.04718 3.36874 0
M  V30 9478 H 926.859 2.23169 4.57245 0
M  V30 9479 H 926.257 -0.777856 5.60327 0
M  V30 9480 H 924.814 -0.513998 6.4977 0
M  V30 9481 N 928.247 -1.18576 1.03814 0
M  V30 9482 C 929.194 -2.2212 0.626988 0
M  V30 9483 C 930.164 -1.62064 -0.363912 0
M  V30 9484 O 931.349 -1.89041 -0.258469 0
M  V30 9485 C 928.489 -3.45099 -0.00650133 0
M  V30 9486 C 927.602 -4.19503 1.03156 0
M  V30 9487 C 926.737 -5.29932 0.366852 0
M  V30 9488 C 925.776 -5.96104 1.39018 0
M  V30 9489 N 924.913 -6.98076 0.750625 0
M  V30 9490 H 929.753 -2.56646 1.51449 0
M  V30 9491 H 927.29 -1.26084 0.757702 0
M  V30 9492 H 929.248 -4.15363 -0.391108 0
M  V30 9493 H 927.878 -3.11201 -0.857536 0
M  V30 9494 H 926.93 -3.48092 1.53414 0
M  V30 9495 H 928.242 -4.64843 1.80893 0
M  V30 9496 H 927.396 -6.06657 -0.0720979 0
M  V30 9497 H 926.135 -4.85687 -0.442631 0
M  V30 9498 H 925.14 -5.18122 1.8393 0
M  V30 9499 H 926.365 -6.42432 2.20132 0
M  V30 9500 H 924.311 -6.55989 -0.0385981 0
M  V30 9501 H 924.228 -7.41655 1.46574 0
M  V30 9502 H 925.496 -7.78776 0.335986 0
M  V30 9503 N 929.725 -0.817259 -1.34754 0
M  V30 9504 C 930.657 -0.192695 -2.28389 0
M  V30 9505 C 931.67 0.614167 -1.50771 0
M  V30 9506 O 932.859 0.444776 -1.7287 0
M  V30 9507 C 929.959 0.748929 -3.30521 0
M  V30 9508 C 929.132 -0.0138762 -4.37398 0
M  V30 9509 C 928.191 0.847825 -5.19325 0
M  V30 9510 O 927.217 0.29487 -5.68436 0
M  V30 9511 N 928.419 2.16843 -5.38479 0
M  V30 9512 H 931.184 -0.997122 -2.82626 0
M  V30 9513 H 928.745 -0.673696 -1.47217 0
M  V30 9514 H 930.737 1.32987 -3.82226 0
M  V30 9515 H 929.307 1.45412 -2.7672 0
M  V30 9516 H 928.527 -0.776093 -3.86485 0
M  V30 9517 H 929.815 -0.539191 -5.05935 0
M  V30 9518 H 929.213 2.64148 -5.00242 0
M  V30 9519 H 927.77 2.69835 -5.93323 0
M  V30 9520 N 931.203 1.46865 -0.571711 0
M  V30 9521 C 932.113 2.33979 0.170571 0
M  V30 9522 C 933.129 1.49083 0.897239 0
M  V30 9523 O 934.305 1.81979 0.862888 0
M  V30 9524 C 931.37 3.26063 1.17831 0
M  V30 9525 C 930.431 4.26855 0.457499 0
M  V30 9526 C 929.664 5.14539 1.41722 0
M  V30 9527 O 929.887 5.04945 2.65305 0
M  V30 9528 O 928.821 5.94612 0.9338 0
M  V30 9529 H 932.647 2.98781 -0.544396 0
M  V30 9530 H 930.232 1.4566 -0.332198 0
M  V30 9531 H 932.114 3.82903 1.75965 0
M  V30 9532 H 930.789 2.63871 1.87493 0
M  V30 9533 H 929.696 3.73734 -0.165406 0
M  V30 9534 H 931.029 4.91802 -0.197953 0
M  V30 9535 N 932.681 0.308908 1.54543 0
M  V30 9536 C 934.092 -0.182144 1.85809 0
M  V30 9537 C 934.443 -1.52796 1.23076 0
M  V30 9538 O 933.568 -2.09775 0.531358 0
M  V30 9539 C 934.163 -0.337275 3.37117 0
M  V30 9540 C 932.722 -0.772545 3.68387 0
M  V30 9541 C 931.869 0.114451 2.77064 0
M  V30 9542 H 934.82 0.529671 1.496 0
M  V30 9543 H 934.841 -1.17058 3.62046 0
M  V30 9544 H 934.353 0.642382 3.82747 0
M  V30 9545 H 932.454 -1.76247 3.2828 0
M  V30 9546 H 932.567 -0.586453 4.75497 0
M  V30 9547 H 930.931 -0.407581 2.51418 0
M  V30 9548 H 931.714 1.09061 3.25516 0
M  V30 9549 N 934.159 -1.57557 0.0367827 0
M  V30 9550 C 935.575 -1.56366 -0.31967 0
M  V30 9551 C 935.775 -1.04313 -1.72398 0
M  V30 9552 O 934.831 -0.693278 -2.42796 0
M  V30 9553 C 936.144 -3.00267 -0.161274 0
M  V30 9554 C 937.692 -3.12128 -0.233464 0
M  V30 9555 C 938.167 -4.57882 -0.103767 0
M  V30 9556 N 939.658 -4.62922 -0.160506 0
M  V30 9557 C 940.393 -5.73338 -0.0840493 0
M  V30 9558 N 939.889 -6.92786 0.043933 0
M  V30 9559 N 941.682 -5.61929 -0.138592 0
M  V30 9560 H 933.833 -1.8972 0.954996 0
M  V30 9561 H 936.096 -0.87304 0.369467 0
M  V30 9562 H 935.802 -3.42331 0.80639 0
M  V30 9563 H 935.676 -3.65599 -0.928304 0
M  V30 9564 H 938.063 -2.69972 -1.19159 0
M  V30 9565 H 938.144 -2.49503 0.564075 0
M  V30 9566 H 937.788 -5.0072 0.850973 0
M  V30 9567 H 937.718 -5.18496 -0.920268 0
M  V30 9568 H 940.209 -3.7701 -0.259257 0
M  V30 9569 H 940.522 -7.72741 0.095372 0
M  V30 9570 H 938.867 -6.94955 0.0788211 0
M  V30 9571 H 942.058 -4.67499 -0.237031 0
M  V30 9572 H 942.231 -6.47956 -0.075546 0
M  V30 9573 N 935.637 0.236453 -1.55816 0
M  V30 9574 C 936.567 1.29639 -1.94206 0
M  V30 9575 C 937.548 1.49667 -0.808319 0
M  V30 9576 O 938.733 1.621 -1.06945 0
M  V30 9577 C 935.863 2.64914 -2.24584 0
M  V30 9578 C 934.817 2.59565 -3.40308 0
M  V30 9579 C 934.143 3.98732 -3.56254 0
M  V30 9580 C 935.443 2.15642 -4.75706 0
M  V30 9581 H 937.137 0.977552 -2.82992 0
M  V30 9582 H 934.683 0.468804 -1.36155 0
M  V30 9583 H 936.636 3.39209 -2.50031 0
M  V30 9584 H 935.36 2.98455 -1.32636 0
M  V30 9585 H 934.019 1.87728 -3.14887 0
M  V30 9586 H 933.667 4.29556 -2.61707 0
M  V30 9587 H 933.367 3.96039 -4.34082 0
M  V30 9588 H 934.891 4.74711 -3.84033 0
M  V30 9589 H 936.305 2.79673 -5.00456 0
M  V30 9590 H 934.702 2.24039 -5.56711 0
M  V30 9591 H 935.772 1.10831 -4.72064 0
M  V30 9592 N 937.115 1.49373 0.502552 0
M  V30 9593 C 938.355 1.60398 1.26696 0
M  V30 9594 C 938.719 0.283599 1.89894 0
M  V30 9595 O 939.92 0.269022 2.6745 0
M  V30 9596 C 938.191 2.72998 2.30666 0
M  V30 9597 S 939.75 3.03964 3.16466 0
M  V30 9598 H 936.568 0.565781 0.430596 0
M  V30 9599 H 939.17 1.87024 0.569418 0
M  V30 9600 H 937.874 3.67458 1.82765 0
M  V30 9601 H 937.405 2.4836 3.05091 0
M  V30 9602 H 939.42 2.45367 4.31288 0
M  V30 9603 N 938.594 -0.753485 1.38421 0
M  V30 9604 C 939.524 -1.8808 1.38377 0
M  V30 9605 C 940.505 -1.68258 0.249664 0
M  V30 9606 O 941.69 -1.88848 0.45276 0
M  V30 9607 C 938.82 -3.25608 1.20818 0
M  V30 9608 C 937.774 -3.60032 2.31433 0
M  V30 9609 C 937.1 -4.96297 1.9898 0
M  V30 9610 C 938.4 -3.64898 3.73694 0
M  V30 9611 H 940.094 -1.88375 2.32713 0
M  V30 9612 H 937.64 -0.90489 1.12017 0
M  V30 9613 H 939.593 -4.04127 1.19412 0
M  V30 9614 H 938.317 -3.25793 0.229433 0
M  V30 9615 H 936.976 -2.83831 2.32025 0
M  V30 9616 H 936.624 -4.93043 0.995889 0
M  V30 9617 H 936.324 -5.20298 2.73063 0
M  V30 9618 H 937.848 -5.77196 1.99193 0
M  V30 9619 H 939.262 -4.33531 3.75132 0
M  V30 9620 H 937.659 -4.00407 4.46983 0
M  V30 9621 H 938.729 -2.65124 4.06002 0
M  V30 9622 N 940.072 -1.23292 -0.981677 0
M  V30 9623 C 941.321 -1.05832 -1.71705 0
M  V30 9624 C 941.634 0.40514 -1.91358 0
M  V30 9625 O 942.84 0.699645 -2.6233 0
M  V30 9626 C 941.296 -1.84532 -3.08992 0
M  V30 9627 C 940.904 -3.35199 -2.9723 0
M  V30 9628 C 942.648 -1.75557 -3.86497 0
M  V30 9629 C 940.555 -4.06296 -4.29741 0
M  V30 9630 H 939.485 -0.39241 -0.64384 0
M  V30 9631 H 942.136 -1.47247 -1.09502 0
M  V30 9632 H 940.518 -1.35923 -3.71942 0
M  V30 9633 H 941.692 -3.91286 -2.43377 0
M  V30 9634 H 940.007 -3.44973 -2.332 0
M  V30 9635 H 942.604 -2.25989 -4.84596 0
M  V30 9636 H 942.947 -0.718101 -4.1006 0
M  V30 9637 H 943.48 -2.21771 -3.30246 0
M  V30 9638 H 940.219 -5.10344 -4.11375 0
M  V30 9639 H 939.739 -3.54997 -4.83464 0
M  V30 9640 H 941.418 -4.12519 -4.98434 0
M  V30 9641 N 941.55 1.18024 -1.04442 0
M  V30 9642 C 942.482 2.21294 -0.596799 0
M  V30 9643 C 943.495 1.59305 0.33552 0
M  V30 9644 O 944.684 1.7803 0.129443 0
M  V30 9645 C 941.784 3.38578 0.147648 0
M  V30 9646 C 940.957 4.30143 -0.793484 0
M  V30 9647 C 940.016 5.2612 -0.0916561 0
M  V30 9648 O 939.042 5.64586 -0.72331 0
M  V30 9649 N 940.244 5.68512 1.17364 0
M  V30 9650 H 943.009 2.6032 -1.48504 0
M  V30 9651 H 940.57 1.32847 -0.925374 0
M  V30 9652 H 942.562 3.99812 0.627098 0
M  V30 9653 H 941.132 2.98212 0.937466 0
M  V30 9654 H 940.352 3.66456 -1.45272 0
M  V30 9655 H 941.64 4.88216 -1.43258 0
M  V30 9656 H 941.038 5.39322 1.70729 0
M  V30 9657 H 939.595 6.31925 1.5973 0
M  V30 9658 N 943.028 0.824394 1.34319 0
M  V30 9659 C 944.439 0.471802 1.8064 0
M  V30 9660 C 944.79 -1.00793 1.6833 0
M  V30 9661 O 943.915 -1.78447 1.22416 0
M  V30 9662 C 944.51 0.849609 3.27974 0
M  V30 9663 C 943.069 0.549365 3.72369 0
M  V30 9664 C 942.216 1.06573 2.56003 0
M  V30 9665 H 945.167 1.01443 1.22045 0
M  V30 9666 H 945.188 0.153968 3.80188 0
M  V30 9667 H 944.7 1.92663 3.36902 0
M  V30 9668 H 942.801 -0.518182 3.68979 0
M  V30 9669 H 942.914 1.09446 4.66432 0
M  V30 9670 H 941.278 0.487214 2.49997 0
M  V30 9671 H 942.061 2.14923 2.677 0
M  V30 9672 N 944.506 -1.46559 0.579492 0
M  V30 9673 C 945.753 -2.02399 0.0638418 0
M  V30 9674 C 946.081 -1.45135 -1.29484 0
M  V30 9675 O 945.336 -0.605061 -1.86112 0
M  V30 9676 C 945.635 -3.57357 -0.0552803 0
M  V30 9677 C 945.301 -4.33646 1.23539 0
M  V30 9678 C 943.963 -4.54207 1.589 0
M  V30 9679 C 946.315 -4.77476 2.08965 0
M  V30 9680 C 943.643 -5.1585 2.79492 0
M  V30 9681 C 945.995 -5.4045 3.2878 0
M  V30 9682 C 944.659 -5.5924 3.64427 0
M  V30 9683 H 943.929 -0.740632 0.0233614 0
M  V30 9684 H 946.576 -1.75968 0.755482 0
M  V30 9685 H 944.881 -3.82907 -0.83003 0
M  V30 9686 H 946.578 -3.98237 -0.469964 0
M  V30 9687 H 943.168 -4.17937 0.9501 0
M  V30 9688 H 947.352 -4.61349 1.8295 0
M  V30 9689 H 942.608 -5.28589 3.07252 0
M  V30 9690 H 946.782 -5.73371 3.95245 0
M  V30 9691 H 944.409 -6.06775 4.57961 0
M  V30 9692 N 945.984 -0.3171 -1.54377 0
M  V30 9693 C 947.233 0.288271 -1.99629 0
M  V30 9694 C 947.546 1.53754 -1.2091 0
M  V30 9695 O 948.752 2.2185 -1.56508 0
M  V30 9696 C 947.208 0.564188 -3.5545 0
M  V30 9697 C 946.816 -0.667659 -4.42997 0
M  V30 9698 C 948.56 1.12987 -4.09187 0
M  V30 9699 C 946.467 -0.364003 -5.90279 0
M  V30 9700 H 945.397 0.111492 -0.745711 0
M  V30 9701 H 948.048 -0.428317 -1.78431 0
M  V30 9702 H 946.43 1.34079 -3.72611 0
M  V30 9703 H 947.604 -1.44335 -4.37612 0
M  V30 9704 H 945.919 -1.1531 -4.00116 0
M  V30 9705 H 948.516 1.37157 -5.1681 0
M  V30 9706 H 948.859 2.07722 -3.60773 0
M  V30 9707 H 949.392 0.414595 -3.95634 0
M  V30 9708 H 946.131 -1.28035 -6.42874 0
M  V30 9709 H 945.651 0.374102 -5.98632 0
M  V30 9710 H 947.33 0.0285433 -6.46994 0
M  V30 9711 N 947.462 1.57535 -0.0451378 0
M  V30 9712 C 948.739 1.83785 0.669523 0
M  V30 9713 C 949.119 0.932331 1.89396 0
M  V30 9714 O 948.467 -0.00813229 2.28499 0
M  V30 9715 C 948.677 3.33376 1.03255 0
M  V30 9716 C 950.025 4.00243 1.41741 0
M  V30 9717 O 951.049 3.37965 1.12507 0
M  V30 9718 O 949.908 5.10038 1.96275 0
M  V30 9719 H 947.002 0.758342 0.329919 0
M  V30 9720 H 949.548 1.69538 -0.0740415 0
M  V30 9721 H 948.32 3.90965 0.161777 0
M  V30 9722 H 947.943 3.52787 1.83376 0
M  V30 9723 N 948.94 -0.228186 1.55939 0
M  V30 9724 C 949.87 -1.28607 1.94891 0
M  V30 9725 C 950.851 -1.49236 0.816245 0
M  V30 9726 O 952.036 -1.61531 1.07803 0
M  V30 9727 C 949.166 -2.63719 2.25986 0
M  V30 9728 C 948.12 -2.57757 3.4168 0
M  V30 9729 C 947.446 -3.96837 3.58364 0
M  V30 9730 C 948.746 -2.13116 4.76843 0
M  V30 9731 H 950.44 -0.962531 2.83506 0
M  V30 9732 H 947.986 -0.461577 1.36402 0
M  V30 9733 H 949.939 -3.37878 2.51826 0
M  V30 9734 H 948.663 -2.97747 1.34217 0
M  V30 9735 H 947.322 -1.86055 3.15878 0
M  V30 9736 H 946.97 -4.28162 2.63982 0
M  V30 9737 H 946.67 -3.93731 4.36176 0
M  V30 9738 H 948.194 -4.72668 3.86545 0
M  V30 9739 H 949.608 -2.77015 5.01932 0
M  V30 9740 H 948.005 -2.21083 5.57891 0
M  V30 9741 H 949.075 -1.08326 4.72645 0
M  V30 9742 N 950.418 -1.49637 -0.494624 0
M  V30 9743 C 951.834 -1.36541 -0.826361 0
M  V30 9744 C 952.034 -0.403386 -1.97421 0
M  V30 9745 O 951.09 0.162614 -2.51976 0
M  V30 9746 C 952.403 -2.77401 -1.16057 0
M  V30 9747 C 953.951 -2.86148 -1.26841 0
M  V30 9748 C 954.426 -4.27789 -1.63587 0
M  V30 9749 N 955.917 -4.3063 -1.70624 0
M  V30 9750 C 956.652 -5.37198 -2.00514 0
M  V30 9751 N 956.148 -6.54004 -2.28584 0
M  V30 9752 N 957.941 -5.2462 -2.01818 0
M  V30 9753 H 950.092 -2.10776 0.26219 0
M  V30 9754 H 952.355 -0.946419 0.0547235 0
M  V30 9755 H 952.061 -3.49526 -0.390434 0
M  V30 9756 H 951.935 -3.1317 -2.10249 0
M  V30 9757 H 954.322 -2.14256 -2.02925 0
M  V30 9758 H 954.403 -2.53953 -0.30684 0
M  V30 9759 H 954.047 -5.00209 -0.880507 0
M  V30 9760 H 953.977 -4.57453 -2.60854 0
M  V30 9761 H 956.468 -3.46393 -1.51065 0
M  V30 9762 H 956.781 -7.31041 -2.50598 0
M  V30 9763 H 955.126 -6.57219 -2.26027 0
M  V30 9764 H 958.317 -4.32371 -1.79369 0
M  V30 9765 H 958.49 -6.07765 -2.24778 0
M  V30 9766 N 951.896 0.746133 -1.38819 0
M  V30 9767 C 952.828 1.86991 -1.3254 0
M  V30 9768 C 953.841 1.61077 -0.236216 0
M  V30 9769 O 955.03 1.71518 -0.494341 0
M  V30 9770 C 952.13 3.22786 -1.03258 0
M  V30 9771 C 951.303 3.76145 -2.23234 0
M  V30 9772 C 950.362 4.90474 -1.90581 0
M  V30 9773 O 949.388 5.04717 -2.63153 0
M  V30 9774 N 950.59 5.74015 -0.86525 0
M  V30 9775 H 953.355 1.92885 -2.2938 0
M  V30 9776 H 950.916 0.926392 -1.32776 0
M  V30 9777 H 952.908 3.96824 -0.794533 0
M  V30 9778 H 951.478 3.12231 -0.151895 0
M  V30 9779 H 950.698 2.93587 -2.63059 0
M  V30 9780 H 951.986 4.08528 -3.03285 0
M  V30 9781 H 951.384 5.65086 -0.263577 0
M  V30 9782 H 949.941 6.48168 -0.687087 0
M  V30 9783 N 953.375 1.23811 0.975125 0
M  V30 9784 C 954.791 1.0019 1.24234 0
M  V30 9785 C 954.991 -0.293811 1.99346 0
M  V30 9786 O 954.047 -1.01189 2.31337 0
M  V30 9787 C 955.36 2.21218 2.03674 0
M  V30 9788 C 956.908 2.25764 2.16793 0
M  V30 9789 C 957.383 3.46394 2.99626 0
M  V30 9790 N 958.874 3.46665 3.07209 0
M  V30 9791 C 959.609 4.3666 3.71639 0
M  V30 9792 N 959.105 5.36899 4.37849 0
M  V30 9793 N 960.898 4.2439 3.68578 0
M  V30 9794 H 953.049 2.07087 0.472076 0
M  V30 9795 H 955.312 0.90838 0.271201 0
M  V30 9796 H 955.018 3.15277 1.55862 0
M  V30 9797 H 954.892 2.22733 3.04417 0
M  V30 9798 H 957.279 1.32242 2.63811 0
M  V30 9799 H 957.36 2.28279 1.15422 0
M  V30 9800 H 957.004 4.40227 2.53304 0
M  V30 9801 H 956.934 3.41121 4.01178 0
M  V30 9802 H 959.425 2.74142 2.60105 0
M  V30 9803 H 959.738 6.01816 4.84807 0
M  V30 9804 H 958.083 5.40793 4.36541 0
M  V30 9805 H 961.274 3.4532 3.16025 0
M  V30 9806 H 961.447 4.94727 4.18508 0
M  V30 9807 N 954.853 -1.17469 1.05066 0
M  V30 9808 C 956.102 -1.87032 0.755114 0
M  V30 9809 C 956.415 -1.81844 -0.720572 0
M  V30 9810 O 957.621 -2.46866 -1.13002 0
M  V30 9811 C 956.077 -3.35581 1.30052 0
M  V30 9812 C 955.685 -3.49274 2.80556 0
M  V30 9813 C 957.429 -4.1048 1.08196 0
M  V30 9814 C 955.336 -4.91838 3.28404 0
M  V30 9815 H 954.266 -0.70057 0.278779 0
M  V30 9816 H 956.917 -1.32663 1.26779 0
M  V30 9817 H 955.299 -3.89479 0.715667 0
M  V30 9818 H 956.473 -3.05598 3.44886 0
M  V30 9819 H 954.788 -2.87793 3.00939 0
M  V30 9820 H 957.385 -5.15652 1.41447 0
M  V30 9821 H 957.728 -4.16295 0.0196603 0
M  V30 9822 H 958.261 -3.62784 1.63195 0
M  V30 9823 H 955 -4.91196 4.34058 0
M  V30 9824 H 954.52 -5.36189 2.68815 0
M  V30 9825 H 956.199 -5.60602 3.23009 0
M  V30 9826 N 956.331 -0.831506 -1.3388 0
M  V30 9827 C 957.264 -0.2046 -2.27281 0
M  V30 9828 C 958.242 0.643992 -1.49303 0
M  V30 9829 O 959.426 0.605863 -1.78498 0
M  V30 9830 C 956.553 0.713409 -3.31101 0
M  V30 9831 C 955.599 -0.0587654 -4.2646 0
M  V30 9832 S 956.432 -1.41172 -5.16557 0
M  V30 9833 C 957.588 -0.498807 -6.23909 0
M  V30 9834 H 957.821 -0.996442 -2.80104 0
M  V30 9835 H 955.354 -0.62786 -1.41058 0
M  V30 9836 H 957.312 1.23748 -3.91403 0
M  V30 9837 H 955.973 1.47885 -2.77108 0
M  V30 9838 H 955.166 0.639466 -4.99927 0
M  V30 9839 H 954.768 -0.513665 -3.70456 0
M  V30 9840 H 957.06 0.306268 -6.76807 0
M  V30 9841 H 958.003 -1.20342 -6.97799 0
M  V30 9842 H 958.411 -0.0834242 -5.64438 0
M  V30 9843 N 957.809 1.4625 -0.587256 0
M  V30 9844 C 959.055 2.02662 -0.0746851 0
M  V30 9845 C 959.388 1.45723 1.28368 0
M  V30 9846 O 958.663 0.624062 1.84216 0
M  V30 9847 C 958.946 3.60097 -0.0138109 0
M  V30 9848 C 958.799 4.27412 -1.4014 0
M  V30 9849 C 960.118 4.34744 0.684491 0
M  V30 9850 H 957.237 0.736444 -0.0286144 0
M  V30 9851 H 959.879 1.74341 -0.755328 0
M  V30 9852 H 958.029 3.84357 0.56583 0
M  V30 9853 H 959.701 4.14401 -2.02656 0
M  V30 9854 H 957.944 3.86598 -1.96785 0
M  V30 9855 H 958.615 5.362 -1.31124 0
M  V30 9856 H 961.091 4.15657 0.192023 0
M  V30 9857 H 959.967 5.44468 0.696127 0
M  V30 9858 H 960.228 4.06132 1.74669 0
M  V30 9859 N 959.287 0.325282 1.54207 0
M  V30 9860 C 960.536 -0.27768 1.99779 0
M  V30 9861 C 960.849 -1.5311 1.21723 0
M  V30 9862 O 962.055 -2.21017 1.57682 0
M  V30 9863 C 960.511 -0.545329 3.55745 0
M  V30 9864 C 960.119 0.691143 4.42637 0
M  V30 9865 C 961.863 -1.10815 4.09781 0
M  V30 9866 C 959.77 0.395302 5.90077 0
M  V30 9867 H 958.7 -0.107536 0.746292 0
M  V30 9868 H 961.351 0.437773 1.78202 0
M  V30 9869 H 959.733 -1.32101 3.73317 0
M  V30 9870 H 960.907 1.46653 4.3684 0
M  V30 9871 H 959.222 1.1743 3.99499 0
M  V30 9872 H 961.819 -1.34414 5.1753 0
M  V30 9873 H 962.162 -2.05806 3.6187 0
M  V30 9874 H 962.695 -0.393608 3.95848 0
M  V30 9875 H 959.434 1.31443 6.42186 0
M  V30 9876 H 958.954 -0.34235 5.98822 0
M  V30 9877 H 960.633 0.00576877 6.47 0
M  V30 9878 N 960.765 -1.57509 0.0534917 0
M  V30 9879 C 961.712 -2.11667 -0.920101 0
M  V30 9880 C 962.682 -1.0246 -1.30733 0
M  V30 9881 O 963.867 -1.30021 -1.39639 0
M  V30 9882 C 961.007 -2.66803 -2.18883 0
M  V30 9883 C 960.12 -3.90104 -1.85588 0
M  V30 9884 C 959.255 -4.33547 -3.06937 0
M  V30 9885 C 958.294 -5.49542 -2.69573 0
M  V30 9886 N 957.431 -5.88029 -3.83623 0
M  V30 9887 H 962.271 -2.94562 -0.451371 0
M  V30 9888 H 959.808 -1.45576 -0.211168 0
M  V30 9889 H 961.766 -2.96871 -2.93127 0
M  V30 9890 H 960.396 -1.86702 -2.63329 0
M  V30 9891 H 959.448 -3.66613 -1.01484 0
M  V30 9892 H 960.76 -4.74404 -1.54087 0
M  V30 9893 H 959.914 -4.6518 -3.89477 0
M  V30 9894 H 958.653 -3.48064 -3.41618 0
M  V30 9895 H 957.658 -5.17579 -1.8545 0
M  V30 9896 H 958.883 -6.36743 -2.36082 0
M  V30 9897 H 956.829 -5.05498 -4.181 0
M  V30 9898 H 956.746 -6.67025 -3.55828 0
M  V30 9899 H 958.014 -6.24277 -4.66796 0
M  V30 9900 N 962.243 0.219913 -1.56058 0
M  V30 9901 C 963.206 1.25606 -1.91718 0
M  V30 9902 C 964.206 1.39721 -0.795912 0
M  V30 9903 O 965.396 1.37958 -1.06364 0
M  V30 9904 C 962.528 2.62961 -2.16943 0
M  V30 9905 H 963.721 0.951909 -2.84392 0
M  V30 9906 H 961.274 0.460398 -1.49365 0
M  V30 9907 H 962.009 2.98472 -1.26826 0
M  V30 9908 H 961.794 2.54093 -2.98629 0
M  V30 9909 H 963.284 3.37727 -2.45622 0
M  V30 9910 N 963.721 1.49897 0.486681 0
M  V30 9911 C 964.668 1.67619 1.58658 0
M  V30 9912 C 965.638 0.517537 1.57831 0
M  V30 9913 O 966.823 0.746272 1.756 0
M  V30 9914 C 963.963 1.762 2.96728 0
M  V30 9915 C 963.076 3.03465 3.07462 0
M  V30 9916 C 962.211 3.02937 4.36351 0
M  V30 9917 C 961.25 4.24721 4.4077 0
M  V30 9918 N 960.387 4.22021 5.61108 0
M  V30 9919 H 965.227 2.61528 1.42853 0
M  V30 9920 H 962.764 1.29657 0.694807 0
M  V30 9921 H 964.722 1.79156 3.76774 0
M  V30 9922 H 963.352 0.857452 3.11203 0
M  V30 9923 H 962.404 3.10054 2.20387 0
M  V30 9924 H 963.716 3.93454 3.06586 0
M  V30 9925 H 962.87 3.04536 5.24731 0
M  V30 9926 H 961.609 2.10751 4.39813 0
M  V30 9927 H 960.614 4.23352 3.5079 0
M  V30 9928 H 961.839 5.18116 4.39013 0
M  V30 9929 H 959.785 3.3268 5.65385 0
M  V30 9930 H 959.702 5.05761 5.61909 0
M  V30 9931 H 960.97 4.27743 6.51656 0
M  V30 9932 N 965.199 -0.738761 1.39212 0
M  V30 9933 C 966.447 -1.49529 1.35962 0
M  V30 9934 C 966.768 -1.94948 -0.0450152 0
M  V30 9935 O 966.038 -1.68717 -0.995552 0
M  V30 9936 H 964.618 -0.554692 0.500326 0
M  V30 9937 H 967.28 -0.877255 1.74041 0
M  V30 9938 H 966.376 -2.37919 2.01993 0
M  V30 9939 N 966.677 -1.24326 -0.968545 0
M  V30 9940 C 967.61 -0.978121 -2.06175 0
M  V30 9941 C 968.588 0.0878107 -1.62363 0
M  V30 9942 O 969.772 -0.0489472 -1.88436 0
M  V30 9943 C 966.899 -0.475884 -3.3534 0
M  V30 9944 C 965.945 -1.53023 -3.98103 0
M  V30 9945 S 966.778 -3.11131 -4.35841 0
M  V30 9946 C 967.934 -2.62608 -5.68144 0
M  V30 9947 H 968.167 -1.9038 -2.28348 0
M  V30 9948 H 965.7 -1.07701 -1.10633 0
M  V30 9949 H 967.658 -0.192739 -4.10047 0
M  V30 9950 H 966.319 0.429067 -3.11156 0
M  V30 9951 H 965.512 -1.12922 -4.91187 0
M  V30 9952 H 965.114 -1.76334 -3.29822 0
M  V30 9953 H 967.406 -2.05367 -6.45624 0
M  V30 9954 H 968.349 -3.54277 -6.13101 0
M  V30 9955 H 968.757 -2.03063 -5.26712 0
M  V30 9956 N 968.156 1.1691 -1.05688 0
M  V30 9957 C 969.066 2.24735 -0.67315 0
M  V30 9958 C 970.082 1.71252 0.308043 0
M  V30 9959 O 971.258 2.00772 0.158889 0
M  V30 9960 C 968.323 3.4665 -0.059026 0
M  V30 9961 C 967.384 4.15198 -1.0913 0
M  V30 9962 C 966.617 5.31292 -0.50639 0
M  V30 9963 O 966.84 5.663 0.682692 0
M  V30 9964 O 965.774 5.88923 -1.2431 0
M  V30 9965 H 969.6 2.59855 -1.57191 0
M  V30 9966 H 967.185 1.24306 -0.828751 0
M  V30 9967 H 969.067 4.20455 0.282018 0
M  V30 9968 H 967.742 3.13316 0.813304 0
M  V30 9969 H 966.649 3.43389 -1.48442 0
M  V30 9970 H 967.982 4.52571 -1.93495 0
M  V30 9971 N 969.634 0.838594 1.33437 0
M  V30 9972 C 971.045 0.490934 1.8013 0
M  V30 9973 C 971.396 -0.990024 1.6939 0
M  V30 9974 O 970.521 -1.77139 1.24302 0
M  V30 9975 C 971.116 0.884347 3.27055 0
M  V30 9976 C 969.675 0.588829 3.71766 0
M  V30 9977 C 968.822 1.09282 2.54858 0
M  V30 9978 H 971.773 1.02732 1.20962 0
M  V30 9979 H 971.794 0.194283 3.80004 0
M  V30 9980 H 971.306 1.96225 3.34839 0
M  V30 9981 H 969.407 -0.479018 3.69508 0
M  V30 9982 H 969.52 1.14387 4.65245 0
M  V30 9983 H 967.884 0.513702 2.49466 0
M  V30 9984 H 968.667 2.1775 2.65405 0
M  V30 9985 N 971.112 -1.45937 0.595003 0
M  V30 9986 C 972.361 -2.01529 0.0829531 0
M  V30 9987 C 972.674 -1.47071 -1.28955 0
M  V30 9988 O 973.88 -1.94561 -1.89363 0
M  V30 9989 C 972.336 -3.59767 0.0976597 0
M  V30 9990 C 971.944 -4.23223 1.46924 0
M  V30 9991 C 973.688 -4.22972 -0.359805 0
M  V30 9992 C 971.595 -5.73576 1.44101 0
M  V30 9993 H 970.525 -0.753508 0.0272425 0
M  V30 9994 H 973.176 -1.67541 0.748473 0
M  V30 9995 H 971.558 -3.90888 -0.634268 0
M  V30 9996 H 972.732 -4.03695 2.22187 0
M  V30 9997 H 971.047 -3.72161 1.86775 0
M  V30 9998 H 973.644 -5.33202 -0.39991 0
M  V30 9999 H 973.987 -3.92765 -1.37991 0
M  V30 10000 H 974.52 -3.96523 0.31845 0
M  V30 10001 H 971.259 -6.08462 2.43831 0
M  V30 10002 H 970.779 -5.95332 0.730767 0
M  V30 10003 H 972.458 -6.36531 1.1592 0
M  V30 10004 N 972.59 -0.333456 -1.54032 0
M  V30 10005 C 973.5 0.536674 -2.28379 0
M  V30 10006 C 974.516 1.12068 -1.33104 0
M  V30 10007 O 975.692 1.13853 -1.66131 0
M  V30 10008 C 972.757 1.67677 -3.03456 0
M  V30 10009 C 971.818 1.12357 -4.14336 0
M  V30 10010 C 971.051 2.20933 -4.85823 0
M  V30 10011 O 971.274 3.41466 -4.569 0
M  V30 10012 O 970.208 1.85795 -5.72507 0
M  V30 10013 H 974.034 -0.0674003 -3.03625 0
M  V30 10014 H 971.619 -0.098823 -1.49073 0
M  V30 10015 H 973.501 2.34032 -3.50438 0
M  V30 10016 H 972.176 2.26684 -2.31076 0
M  V30 10017 H 971.083 0.424827 -3.7168 0
M  V30 10018 H 972.416 0.578497 -4.88789 0
M  V30 10019 N 974.068 1.57479 -0.061844 0
M  V30 10020 C 975.314 1.93395 0.610443 0
M  V30 10021 C 975.647 0.941334 1.6986 0
M  V30 10022 O 974.922 -0.0310262 1.94475 0
M  V30 10023 C 975.205 3.39636 1.19664 0
M  V30 10024 C 975.058 4.49651 0.115805 0
M  V30 10025 C 976.377 3.86488 2.10512 0
M  V30 10026 H 973.496 0.703262 0.220436 0
M  V30 10027 H 976.138 1.89583 -0.125785 0
M  V30 10028 H 974.288 3.43015 1.82409 0
M  V30 10029 H 975.96 4.58397 -0.516728 0
M  V30 10030 H 974.203 4.30237 -0.55483 0
M  V30 10031 H 974.874 5.49089 0.566176 0
M  V30 10032 H 977.35 3.85052 1.57715 0
M  V30 10033 H 976.226 4.89444 2.48466 0
M  V30 10034 H 976.487 3.23856 3.00948 0
M  V30 10035 N 975.546 -0.211634 1.56173 0
M  V30 10036 C 976.957 -0.777776 1.69728 0
M  V30 10037 C 977.308 -1.84566 0.66558 0
M  V30 10038 O 976.433 -2.15639 -0.181338 0
M  V30 10039 C 977.028 -1.41757 3.07718 0
M  V30 10040 C 975.587 -1.93098 3.23094 0
M  V30 10041 C 974.734 -0.794785 2.65666 0
M  V30 10042 H 977.685 0.0131839 1.58695 0
M  V30 10043 H 977.706 -2.28662 3.04128 0
M  V30 10044 H 977.218 -0.640114 3.82785 0
M  V30 10045 H 975.319 -2.73615 2.52914 0
M  V30 10046 H 975.432 -2.10414 4.30422 0
M  V30 10047 H 973.796 -1.20473 2.24407 0
M  V30 10048 H 974.579 -0.0298408 3.43287 0
M  V30 10049 N 977.024 -1.50153 -0.478725 0
M  V30 10050 C 977.954 -1.71384 -1.58587 0
M  V30 10051 C 978.935 -0.562705 -1.60523 0
M  V30 10052 O 980.12 -0.80101 -1.76911 0
M  V30 10053 C 977.25 -1.80094 -2.96957 0
M  V30 10054 C 976.204 -2.95218 -3.09888 0
M  V30 10055 C 975.53 -2.89063 -4.49829 0
M  V30 10056 C 976.83 -4.35841 -2.8782 0
M  V30 10057 H 978.524 -2.64081 -1.41073 0
M  V30 10058 H 976.07 -1.27081 -0.677239 0
M  V30 10059 H 978.023 -1.93531 -3.74331 0
M  V30 10060 H 976.747 -0.840131 -3.1561 0
M  V30 10061 H 975.406 -2.81419 -2.34944 0
M  V30 10062 H 975.054 -1.90844 -4.6539 0
M  V30 10063 H 974.754 -3.66345 -4.59418 0
M  V30 10064 H 976.278 -3.04539 -5.29234 0
M  V30 10065 H 977.692 -4.50205 -3.54948 0
M  V30 10066 H 976.089 -5.14515 -3.0886 0
M  V30 10067 H 977.159 -4.48739 -1.83742 0
M  V30 10068 N 978.502 0.731368 -1.39602 0
M  V30 10069 C 979.412 1.87579 -1.40894 0
M  V30 10070 C 980.428 1.71336 -0.303319 0
M  V30 10071 O 981.604 1.93875 -0.545377 0
M  V30 10072 C 978.669 3.23211 -1.25442 0
M  V30 10073 C 977.73 3.51822 -2.46008 0
M  V30 10074 C 976.963 4.80982 -2.31284 0
M  V30 10075 O 977.186 5.54958 -1.31824 0
M  V30 10076 O 976.12 5.09574 -3.20341 0
M  V30 10077 H 979.946 1.89444 -2.3737 0
M  V30 10078 H 977.531 0.879675 -1.20756 0
M  V30 10079 H 979.413 4.04257 -1.18972 0
M  V30 10080 H 978.088 3.22108 -0.320637 0
M  V30 10081 H 976.995 2.70847 -2.58055 0
M  V30 10082 H 978.328 3.57707 -3.38093 0
M  V30 10083 N 979.98 1.24838 0.961938 0
M  V30 10084 C 980.89 1.06304 2.09133 0
M  V30 10085 C 981.906 0.00221475 1.74 0
M  V30 10086 O 983.082 0.201611 2.00388 0
M  V30 10087 C 980.147 0.676117 3.40043 0
M  V30 10088 C 979.208 1.81407 3.89089 0
M  V30 10089 C 978.441 1.44551 5.13752 0
M  V30 10090 O 978.664 0.337894 5.69398 0
M  V30 10091 O 977.598 2.27316 5.57325 0
M  V30 10092 H 981.424 2.01001 2.27667 0
M  V30 10093 H 979.009 1.0371 1.07539 0
M  V30 10094 H 980.891 0.472124 4.18747 0
M  V30 10095 H 979.566 -0.241667 3.22797 0
M  V30 10096 H 978.473 2.07286 3.11421 0
M  V30 10097 H 979.806 2.71083 4.10822 0
M  V30 10098 N 981.458 -1.16348 1.06306 0
M  V30 10099 C 982.406 -2.22799 0.668087 0
M  V30 10100 C 983.4 -1.66426 -0.316051 0
M  V30 10101 O 984.606 -1.79089 -0.180902 0
M  V30 10102 H 980.981 -0.725487 0.19792 0
M  V30 10103 H 982.952 -2.53401 1.57577 0
M  V30 10104 C 981.701 -3.47628 0.0706797 0
M  V30 10105 H 981.024 -3.9132 0.819064 0
M  V30 10106 H 982.464 -4.23666 -0.16816 0
M  V30 10107 C 980.923 -3.15343 -1.18577 0
M  V30 10108 O 981.453 -3.31158 -2.27371 0
M  V30 10109 N 979.659 -2.69472 -1.08779 0
M  V30 10110 H 979.206 -2.56803 -0.202447 0
M  V30 10111 H 979.164 -2.48244 -1.92931 0
M  V30 10112 N 982.937 -0.845659 -1.3299 0
M  V30 10113 C 984.162 -0.457435 -2.02293 0
M  V30 10114 C 984.587 0.935634 -1.63179 0
M  V30 10115 O 983.945 1.61297 -0.827835 0
M  V30 10116 C 983.993 -0.593665 -3.5568 0
M  V30 10117 O 983.097 0.37729 -4.10671 0
M  V30 10118 H 982.438 -0.185022 -0.637701 0
M  V30 10119 H 984.968 -1.14237 -1.69738 0
M  V30 10120 H 984.978 -0.477834 -4.05192 0
M  V30 10121 H 983.653 -1.60957 -3.83491 0
M  V30 10122 H 982.23 0.218448 -3.7226 0
M  V30 10123 N 984.415 1.45619 -0.602734 0
M  V30 10124 C 985.325 2.34288 0.120902 0
M  V30 10125 C 986.341 1.50952 0.865414 0
M  V30 10126 O 987.517 1.83768 0.824094 0
M  V30 10127 C 984.582 3.28489 1.10888 0
M  V30 10128 C 983.643 4.2773 0.366853 0
M  V30 10129 C 982.876 5.17429 1.30776 0
M  V30 10130 O 983.099 5.10459 2.54535 0
M  V30 10131 O 982.033 5.96459 0.807464 0
M  V30 10132 H 985.859 2.97559 -0.60765 0
M  V30 10133 H 983.444 1.44922 -0.363019 0
M  V30 10134 H 985.326 3.86549 1.67803 0
M  V30 10135 H 984.001 2.67789 1.81854 0
M  V30 10136 H 982.908 3.73299 -0.244643 0
M  V30 10137 H 984.241 4.91271 -0.302226 0
M  V30 10138 N 985.893 0.34162 1.53853 0
M  V30 10139 C 987.309 -0.0103769 1.59597 0
M  V30 10140 C 987.509 -1.48897 1.35764 0
M  V30 10141 O 986.565 -2.24743 1.15095 0
M  V30 10142 C 987.878 0.424067 2.97695 0
M  V30 10143 C 989.426 0.376247 3.1073 0
M  V30 10144 C 989.901 0.786129 4.51203 0
M  V30 10145 N 991.392 0.74024 4.57247 0
M  V30 10146 C 992.127 1.02937 5.64085 0
M  V30 10147 N 991.623 1.38655 6.78783 0
M  V30 10148 N 993.416 0.953734 5.5395 0
M  V30 10149 H 985.567 1.30477 1.67599 0
M  V30 10150 H 987.83 0.531753 0.78482 0
M  V30 10151 H 987.536 1.45493 3.20195 0
M  V30 10152 H 987.41 -0.201713 3.7666 0
M  V30 10153 H 989.797 -0.645441 2.87955 0
M  V30 10154 H 989.878 1.0372 2.33828 0
M  V30 10155 H 989.522 1.80582 4.74713 0
M  V30 10156 H 989.452 0.102671 5.265 0
M  V30 10157 H 991.943 0.476763 3.7488 0
M  V30 10158 H 992.256 1.59206 7.56223 0
M  V30 10159 H 990.601 1.42498 6.80235 0
M  V30 10160 H 993.792 0.674044 4.63222 0
M  V30 10161 H 993.965 1.18241 6.37121 0
M  V30 10162 N 987.371 -1.57444 0.0701946 0
M  V30 10163 C 988.599 -1.97754 -0.608358 0
M  V30 10164 C 989.014 -0.948496 -1.63245 0
M  V30 10165 O 988.371 0.065046 -1.82384 0
M  V30 10166 C 988.422 -3.38142 -1.27836 0
M  V30 10167 O 988.143 -4.37104 -0.295255 0
M  V30 10168 C 989.644 -3.93318 -2.04489 0
M  V30 10169 H 986.864 -0.650398 -0.164997 0
M  V30 10170 H 989.408 -2.04006 0.142124 0
M  V30 10171 H 987.563 -3.32982 -1.97994 0
M  V30 10172 H 987.977 -5.18732 -0.77574 0
M  V30 10173 H 989.451 -4.93774 -2.46762 0
M  V30 10174 H 989.928 -3.29774 -2.90079 0
M  V30 10175 H 990.534 -4.01875 -1.39201 0
M  V30 10176 N 988.849 0.203349 -1.56283 0
M  V30 10177 C 989.781 1.27592 -1.90402 0
M  V30 10178 C 990.794 1.4213 -0.79391 0
M  V30 10179 O 991.983 1.42703 -1.07229 0
M  V30 10180 C 989.083 2.64919 -2.11356 0
M  V30 10181 C 988.256 2.72095 -3.42466 0
M  V30 10182 C 987.315 3.9056 -3.52631 0
M  V30 10183 O 986.341 3.78048 -4.25521 0
M  V30 10184 N 987.543 5.0566 -2.85111 0
M  V30 10185 H 990.308 0.986423 -2.83001 0
M  V30 10186 H 987.869 0.39331 -1.5705 0
M  V30 10187 H 989.861 3.42581 -2.15453 0
M  V30 10188 H 988.431 2.86391 -1.25295 0
M  V30 10189 H 987.651 1.8077 -3.50308 0
M  V30 10190 H 988.939 2.73874 -4.28801 0
M  V30 10191 H 988.337 5.18723 -2.25705 0
M  V30 10192 H 986.894 5.81299 -2.94847 0
M  V30 10193 N 990.327 1.50405 0.470755 0
M  V30 10194 C 991.576 1.60652 1.21959 0
M  V30 10195 C 991.889 0.312521 1.93087 0
M  V30 10196 O 993.095 0.293901 2.69905 0
M  V30 10197 C 991.551 2.83581 2.21607 0
M  V30 10198 C 991.159 4.19858 1.5628 0
M  V30 10199 C 992.903 3.03173 2.9713 0
M  V30 10200 C 990.81 5.33974 2.54217 0
M  V30 10201 H 989.74 0.598264 0.458907 0
M  V30 10202 H 992.391 1.76836 0.490041 0
M  V30 10203 H 990.773 2.60957 2.97855 0
M  V30 10204 H 991.947 4.52738 0.85819 0
M  V30 10205 H 990.262 4.05873 0.930366 0
M  V30 10206 H 992.859 3.856 3.70428 0
M  V30 10207 H 993.202 2.14914 3.56536 0
M  V30 10208 H 993.735 3.2598 2.27995 0
M  V30 10209 H 990.474 6.24388 1.99549 0
M  V30 10210 H 989.994 5.05511 3.22829 0
M  V30 10211 H 991.673 5.64561 3.16039 0
M  V30 10212 N 991.805 -0.723954 1.39988 0
M  V30 10213 C 993.221 -1.03095 1.21834 0
M  V30 10214 C 993.421 -2.01309 0.0876647 0
M  V30 10215 O 992.477 -2.46277 -0.55714 0
M  V30 10216 C 993.79 -1.58267 2.5568 0
M  V30 10217 C 995.338 -1.70293 2.6262 0
M  V30 10218 C 995.813 -2.28872 3.96713 0
M  V30 10219 N 997.304 -2.36269 3.98411 0
M  V30 10220 C 998.039 -2.82557 4.98948 0
M  V30 10221 N 997.535 -3.28661 6.0988 0
M  V30 10222 N 999.328 -2.81866 4.86321 0
M  V30 10223 H 991.479 -0.0727891 2.12275 0
M  V30 10224 H 993.742 -0.0949029 0.943238 0
M  V30 10225 H 993.448 -0.935642 3.39026 0
M  V30 10226 H 993.322 -2.56914 2.76179 0
M  V30 10227 H 995.709 -2.34115 1.7965 0
M  V30 10228 H 995.79 -0.70268 2.45959 0
M  V30 10229 H 995.434 -1.65675 4.80119 0
M  V30 10230 H 995.364 -3.29595 4.107 0
M  V30 10231 H 997.855 -2.03697 3.18302 0
M  V30 10232 H 998.168 -3.62524 6.82493 0
M  V30 10233 H 996.513 -3.26641 6.13458 0
M  V30 10234 H 999.704 -2.45179 3.98754 0
M  V30 10235 H 999.877 -3.17626 5.64817 0
M  V30 10236 N 993.283 -1.25346 -0.955304 0
M  V30 10237 C 994.215 -1.0146 -2.0552 0
M  V30 10238 C 995.228 0.0202256 -1.62787 0
M  V30 10239 O 996.417 -0.218251 -1.77161 0
M  V30 10240 C 993.517 -0.511727 -3.35014 0
M  V30 10241 C 992.69 -1.61256 -4.0659 0
M  V30 10242 C 991.749 -1.11017 -5.14356 0
M  V30 10243 O 990.775 -1.80443 -5.39842 0
M  V30 10244 N 991.977 0.0489001 -5.80479 0
M  V30 10245 H 994.742 -1.96166 -2.26581 0
M  V30 10246 H 992.303 -1.16543 -1.12381 0
M  V30 10247 H 994.295 -0.160123 -4.04383 0
M  V30 10248 H 992.865 0.341377 -3.1073 0
M  V30 10249 H 992.085 -2.13577 -3.31328 0
M  V30 10250 H 993.373 -2.35213 -4.51168 0
M  V30 10251 H 992.771 0.629021 -5.62192 0
M  V30 10252 H 991.328 0.341542 -6.50905 0
M  V30 10253 N 994.761 1.15782 -1.06922 0
M  V30 10254 C 995.986 1.90896 -0.810771 0
M  V30 10255 C 996.411 1.77246 0.629714 0
M  V30 10256 O 995.769 1.10215 1.43953 0
M  V30 10257 C 995.817 3.39397 -1.21829 0
M  V30 10258 O 994.921 4.10818 -0.360934 0
M  V30 10259 H 994.262 0.594497 -0.295752 0
M  V30 10260 H 996.792 1.46652 -1.42669 0
M  V30 10261 H 996.802 3.90181 -1.19259 0
M  V30 10262 H 995.477 3.4865 -2.2675 0
M  V30 10263 H 994.054 3.7019 -0.448748 0
M  V30 10264 N 996.239 0.8527 1.3254 0
M  V30 10265 C 997.655 0.542298 1.50104 0
M  V30 10266 C 997.855 -0.927465 1.78886 0
M  V30 10267 O 996.911 -1.7106 1.85728 0
M  V30 10268 C 998.224 1.4276 2.64651 0
M  V30 10269 C 999.772 1.42782 2.78536 0
M  V30 10270 C 1000.25 2.29828 3.9616 0
M  V30 10271 N 1001.74 2.27613 4.03418 0
M  V30 10272 C 1002.47 2.91696 4.93661 0
M  V30 10273 N 1001.97 3.64883 5.88925 0
M  V30 10274 N 1003.76 2.81094 4.86768 0
M  V30 10275 H 995.913 1.80395 1.12123 0
M  V30 10276 H 998.176 0.770394 0.552446 0
M  V30 10277 H 997.882 2.47266 2.50105 0
M  V30 10278 H 997.756 1.11358 3.60388 0
M  V30 10279 H 1000.14 0.390417 2.92506 0
M  V30 10280 H 1000.22 1.78198 1.83519 0
M  V30 10281 H 999.868 3.33635 3.82949 0
M  V30 10282 H 999.798 1.91746 4.9045 0
M  V30 10283 H 1002.29 1.74402 3.3525 0
M  V30 10284 H 1002.6 4.10952 6.54476 0
M  V30 10285 H 1000.95 3.68991 5.88957 0
M  V30 10286 H 1004.14 2.23469 4.11314 0
M  V30 10287 H 1004.31 3.31318 5.56895 0
M  V30 10288 N 997.718 -1.45297 0.610449 0
M  V30 10289 C 998.964 -2.02518 0.106917 0
M  V30 10290 C 999.297 -1.47747 -1.26034 0
M  V30 10291 O 998.572 -0.65329 -1.832 0
M  V30 10292 C 998.855 -3.6003 0.0710975 0
M  V30 10293 C 998.708 -4.25128 1.46922 0
M  V30 10294 C 1000.03 -4.35778 -0.61524 0
M  V30 10295 H 997.146 -0.735896 0.040327 0
M  V30 10296 H 999.788 -1.73117 0.782968 0
M  V30 10297 H 997.938 -3.85209 -0.504611 0
M  V30 10298 H 999.61 -4.11125 2.09223 0
M  V30 10299 H 997.853 -3.83418 2.02911 0
M  V30 10300 H 998.524 -5.34046 1.39637 0
M  V30 10301 H 1001 -4.1591 -0.125871 0
M  V30 10302 H 999.876 -5.45506 -0.609419 0
M  V30 10303 H 1000.14 -4.08859 -1.68186 0
M  V30 10304 N 999.196 -0.349774 -1.5367 0
M  V30 10305 C 1000.44 0.245095 -2.02925 0
M  V30 10306 C 1000.8 1.4727 -1.23189 0
M  V30 10307 O 1002 2.14215 -1.62374 0
M  V30 10308 C 1000.27 0.545392 -3.53214 0
M  V30 10309 S 1001.83 1.11619 -4.24366 0
M  V30 10310 H 998.649 0.0725368 -0.70729 0
M  V30 10311 H 1001.25 -0.488979 -1.89286 0
M  V30 10312 H 999.955 -0.355786 -4.08855 0
M  V30 10313 H 999.486 1.30897 -3.70985 0
M  V30 10314 H 1001.5 2.40151 -4.34214 0
M  V30 10315 N 1000.67 1.57404 -0.0785433 0
M  V30 10316 C 1001.64 2.11977 0.871693 0
M  V30 10317 C 1002.64 1.04529 1.2219 0
M  V30 10318 O 1003.83 1.30488 1.15406 0
M  V30 10319 C 1000.96 2.6267 2.17296 0
M  V30 10320 H 1002.15 2.97246 0.398115 0
M  V30 10321 H 999.705 1.5537 0.170251 0
M  V30 10322 H 1000.44 1.80873 2.69175 0
M  V30 10323 H 1000.22 3.41214 1.93171 0
M  V30 10324 H 1001.71 3.04943 2.85306 0
M  V30 10325 N 1002.15 -0.195058 1.56388 0
M  V30 10326 C 1003.43 -0.941335 1.71459 0
M  V30 10327 C 1003.81 -2.01375 0.633336 0
M  V30 10328 O 1003.16 -2.25715 -0.35567 0
M  V30 10329 C 1003.37 -1.52772 3.13786 0
M  V30 10330 C 1004.71 -2.00983 3.7402 0
M  V30 10331 O 1005.74 -1.62614 3.16915 0
M  V30 10332 O 1004.6 -2.71586 4.7424 0
M  V30 10333 H 1001.69 -0.441451 0.699321 0
M  V30 10334 H 1004.24 -0.184752 1.68691 0
M  V30 10335 H 1003.01 -0.754699 3.83953 0
M  V30 10336 H 1002.63 -2.34914 3.20782 0
M  V30 10337 N 1003.63 -1.50653 -0.462772 0
M  V30 10338 C 1005.05 -1.38263 -0.797213 0
M  V30 10339 C 1005.25 -0.445172 -1.96521 0
M  V30 10340 O 1004.3 0.10913 -2.52264 0
M  V30 10341 C 1005.61 -2.798 -1.10146 0
M  V30 10342 C 1007.16 -2.88774 -1.20742 0
M  V30 10343 C 1007.64 -4.31163 -1.54476 0
M  V30 10344 N 1009.13 -4.34152 -1.61451 0
M  V30 10345 C 1009.86 -5.4133 -1.89074 0
M  V30 10346 N 1009.36 -6.58705 -2.1466 0
M  V30 10347 N 1011.15 -5.28783 -1.90645 0
M  V30 10348 H 1003.3 -2.10172 0.30684 0
M  V30 10349 H 1005.57 -0.945046 0.0747862 0
M  V30 10350 H 1005.27 -3.50276 -0.316207 0
M  V30 10351 H 1005.15 -3.17559 -2.03559 0
M  V30 10352 H 1007.53 -2.18512 -1.98334 0
M  V30 10353 H 1007.61 -2.54547 -0.252904 0
M  V30 10354 H 1007.26 -5.01965 -0.774207 0
M  V30 10355 H 1007.19 -4.62883 -2.51092 0
M  V30 10356 H 1009.68 -3.49519 -1.43684 0
M  V30 10357 H 1009.99 -7.36192 -2.35035 0
M  V30 10358 H 1008.34 -6.61866 -2.12035 0
M  V30 10359 H 1011.53 -4.36078 -1.70158 0
M  V30 10360 H 1011.7 -6.12396 -2.11836 0
M  V30 10361 N 1005.11 0.71652 -1.4037 0
M  V30 10362 C 1006.35 1.47857 -1.38803 0
M  V30 10363 C 1006.69 1.94197 0.0100536 0
M  V30 10364 O 1005.96 1.68093 0.978521 0
M  V30 10365 C 1006.25 2.7053 -2.37667 0
M  V30 10366 C 1006.1 2.3009 -3.86496 0
M  V30 10367 C 1007.42 3.72684 -2.34082 0
M  V30 10368 H 1004.54 0.53632 -0.505499 0
M  V30 10369 H 1007.18 0.817824 -1.71498 0
M  V30 10370 H 1005.33 3.26906 -2.09916 0
M  V30 10371 H 1007 1.79202 -4.2507 0
M  V30 10372 H 1005.24 1.62102 -4.02375 0
M  V30 10373 H 1005.91 3.18018 -4.51186 0
M  V30 10374 H 1008.39 3.25935 -2.58661 0
M  V30 10375 H 1007.27 4.56157 -3.05306 0
M  V30 10376 H 1007.53 4.20916 -1.35213 0
M  V30 10377 N 1006.59 1.25851 0.948643 0
M  V30 10378 C 1007.81 1.13813 1.73382 0
M  V30 10379 C 1008.24 -0.303615 1.85633 0
M  V30 10380 O 1007.59 -1.21997 1.34114 0
M  V30 10381 C 1007.64 1.80388 3.12238 0
M  V30 10382 O 1006.75 1.08759 3.978 0
M  V30 10383 H 1006.09 0.397006 0.532243 0
M  V30 10384 H 1008.62 1.66529 1.18866 0
M  V30 10385 H 1008.63 1.86913 3.62667 0
M  V30 10386 H 1007.3 2.85278 3.02637 0
M  V30 10387 H 1005.88 1.10157 3.56258 0
M  V30 10388 N 1008.06 -1.15214 1.07534 0
M  V30 10389 C 1009.29 -1.89922 0.820804 0
M  V30 10390 C 1009.71 -1.78114 -0.626177 0
M  V30 10391 O 1009.06 -1.13435 -1.42964 0
M  V30 10392 C 1009.12 -3.40207 1.22236 0
M  V30 10393 O 1008.84 -3.51676 2.61257 0
M  V30 10394 C 1010.34 -4.31934 0.997393 0
M  V30 10395 H 1007.56 -0.601865 0.296647 0
M  V30 10396 H 1010.1 -1.45965 1.43229 0
M  V30 10397 H 1008.26 -3.8182 0.655167 0
M  V30 10398 H 1008.67 -4.44959 2.77689 0
M  V30 10399 H 1010.14 -5.35791 1.32785 0
M  V30 10400 H 1010.62 -4.3915 -0.0661599 0
M  V30 10401 H 1011.23 -3.96066 1.54958 0
M  V30 10402 N 1009.54 -0.859717 -1.32086 0
M  V30 10403 C 1010.77 -0.479028 -2.0097 0
M  V30 10404 C 1011.18 0.930242 -1.64752 0
M  V30 10405 O 1010.52 1.6193 -0.867437 0
M  V30 10406 C 1010.59 -0.54431 -3.55355 0
M  V30 10407 C 1010.25 -1.91337 -4.15017 0
M  V30 10408 C 1011.25 -2.87951 -4.32874 0
M  V30 10409 C 1008.93 -2.21189 -4.50977 0
M  V30 10410 C 1010.93 -4.12567 -4.85867 0
M  V30 10411 C 1008.61 -3.46057 -5.03674 0
M  V30 10412 C 1009.61 -4.41562 -5.21068 0
M  V30 10413 O 1009.3 -5.64218 -5.72637 0
M  V30 10414 H 1009.03 -0.186161 -0.649861 0
M  V30 10415 H 1011.58 -1.15976 -1.69525 0
M  V30 10416 H 1009.81 0.1933 -3.86217 0
M  V30 10417 H 1011.5 -0.178506 -4.05507 0
M  V30 10418 H 1012.27 -2.66194 -4.05421 0
M  V30 10419 H 1008.15 -1.47635 -4.36721 0
M  V30 10420 H 1011.69 -4.8712 -4.99359 0
M  V30 10421 H 1007.59 -3.67662 -5.30561 0
M  V30 10422 H 1008.36 -5.66246 -5.91023 0
M  V30 10423 N 1011.02 1.44971 -0.618145 0
M  V30 10424 C 1012.3 1.95539 -0.0489895 0
M  V30 10425 C 1012.68 1.5604 1.42179 0
M  V30 10426 O 1012.03 0.82809 2.12967 0
M  V30 10427 C 1012.24 3.48044 -0.258193 0
M  V30 10428 C 1013.58 4.24354 -0.144541 0
M  V30 10429 O 1014.61 3.55699 -0.18887 0
M  V30 10430 O 1013.47 5.46486 -0.038519 0
M  V30 10431 H 1010.56 0.826466 0.0297256 0
M  V30 10432 H 1013.11 1.55086 -0.688944 0
M  V30 10433 H 1011.88 3.69798 -1.27926 0
M  V30 10434 H 1011.5 3.95412 0.416522 0
M  V30 10435 N 1012.5 0.357919 1.53482 0
M  V30 10436 C 1013.74 -0.23433 2.03052 0
M  V30 10437 C 1014.1 -1.46614 1.23969 0
M  V30 10438 O 1015.3 -2.13351 1.63508 0
M  V30 10439 C 1013.57 -0.526653 3.53498 0
M  V30 10440 S 1015.13 -1.09366 4.24952 0
M  V30 10441 H 1011.95 -0.0687848 0.707665 0
M  V30 10442 H 1014.55 0.499011 1.89024 0
M  V30 10443 H 1013.26 0.377463 4.0866 0
M  V30 10444 H 1012.79 -1.28927 3.71674 0
M  V30 10445 H 1014.8 -2.37845 4.35481 0
M  V30 10446 N 1013.98 -1.5736 0.0868897 0
M  V30 10447 C 1015.22 -1.9367 -0.577598 0
M  V30 10448 C 1015.55 -0.968844 -1.69229 0
M  V30 10449 O 1014.82 -0.0195061 -1.9589 0
M  V30 10450 H 1013.4 -0.714983 -0.216353 0
M  V30 10451 H 1016.06 -1.94335 0.148294 0
M  V30 10452 H 1015.15 -2.95877 -0.993128 0
M  V30 10453 N 1015.45 0.186762 -1.56489 0
M  V30 10454 C 1016.36 1.25169 -1.98419 0
M  V30 10455 C 1017.38 1.49329 -0.893124 0
M  V30 10456 O 1018.56 1.61781 -1.19954 0
M  V30 10457 C 1015.62 2.57422 -2.32239 0
M  V30 10458 C 1014.68 2.4126 -3.55095 0
M  V30 10459 C 1013.92 3.67206 -3.87292 0
M  V30 10460 O 1014.14 4.71731 -3.20665 0
M  V30 10461 O 1013.07 3.62238 -4.80695 0
M  V30 10462 H 1016.9 0.925834 -2.89244 0
M  V30 10463 H 1014.48 0.392421 -1.44154 0
M  V30 10464 H 1016.37 3.35466 -2.5503 0
M  V30 10465 H 1015.04 2.89618 -1.44579 0
M  V30 10466 H 1013.95 1.61299 -3.37541 0
M  V30 10467 H 1015.28 2.13994 -4.43247 0
M  V30 10468 N 1016.93 1.50896 0.454776 0
M  V30 10469 C 1017.88 1.70947 1.55067 0
M  V30 10470 C 1018.85 0.550899 1.56698 0
M  V30 10471 O 1020.03 0.783352 1.73978 0
M  V30 10472 C 1017.17 1.82455 2.92924 0
M  V30 10473 C 1016.29 3.09919 3.00956 0
M  V30 10474 C 1015.42 3.12125 4.29827 0
M  V30 10475 C 1014.46 4.33975 4.31662 0
M  V30 10476 N 1013.6 4.33828 5.5203 0
M  V30 10477 H 1018.44 2.645 1.37273 0
M  V30 10478 H 1015.98 1.31101 0.667148 0
M  V30 10479 H 1017.93 1.87108 3.72889 0
M  V30 10480 H 1016.56 0.92327 3.09315 0
M  V30 10481 H 1015.62 3.14659 2.13761 0
M  V30 10482 H 1016.93 3.99869 2.98172 0
M  V30 10483 H 1016.08 3.15598 5.18154 0
M  V30 10484 H 1014.82 2.20033 4.35243 0
M  V30 10485 H 1013.83 4.30697 3.41731 0
M  V30 10486 H 1015.05 5.27312 4.27924 0
M  V30 10487 H 1013 3.44598 5.58201 0
M  V30 10488 H 1012.91 5.17566 5.51055 0
M  V30 10489 H 1014.18 4.4147 6.42437 0
M  V30 10490 N 1018.41 -0.709066 1.40748 0
M  V30 10491 C 1019.66 -1.4646 1.38681 0
M  V30 10492 C 1019.97 -1.95599 -0.0056209 0
M  V30 10493 O 1021.18 -2.71091 -0.148907 0
M  V30 10494 C 1019.63 -2.64771 2.43771 0
M  V30 10495 C 1019.24 -2.22474 3.88856 0
M  V30 10496 C 1020.99 -3.42475 2.50821 0
M  V30 10497 C 1018.89 -3.37663 4.85528 0
M  V30 10498 H 1017.82 -0.550084 0.515678 0
M  V30 10499 H 1020.47 -0.771074 1.66513 0
M  V30 10500 H 1018.86 -3.36325 2.09048 0
M  V30 10501 H 1020.03 -1.58297 4.32757 0
M  V30 10502 H 1018.35 -1.57798 3.85342 0
M  V30 10503 H 1020.94 -4.28201 3.20232 0
M  V30 10504 H 1021.29 -3.86738 1.54076 0
M  V30 10505 H 1021.82 -2.77969 2.84567 0
M  V30 10506 H 1018.56 -2.98426 5.83628 0
M  V30 10507 H 1018.08 -4.00734 4.46287 0
M  V30 10508 H 1019.76 -4.03636 5.05655 0
M  V30 10509 N 1019.89 -1.26353 -0.941956 0
M  V30 10510 C 1021.11 -1.14731 -1.72776 0
M  V30 10511 C 1021.54 0.293766 -1.85792 0
M  V30 10512 O 1020.9 1.21284 -1.34759 0
M  V30 10513 C 1020.95 -1.82041 -3.11277 0
M  V30 10514 O 1020.05 -1.10867 -3.97218 0
M  V30 10515 H 1019.39 -0.399823 -0.53013 0
M  V30 10516 H 1021.92 -1.67157 -1.17981 0
M  V30 10517 H 1021.93 -1.88834 -3.61671 0
M  V30 10518 H 1020.61 -2.86879 -3.0112 0
M  V30 10519 H 1019.18 -1.12044 -3.55669 0
M  V30 10520 N 1021.37 1.14642 -1.08144 0
M  V30 10521 C 1022.59 1.90025 -0.830972 0
M  V30 10522 C 1023.02 1.77904 0.610879 0
M  V30 10523 O 1022.38 1.11735 1.42776 0
M  V30 10524 C 1022.42 3.38085 -1.25422 0
M  V30 10525 O 1021.53 4.10412 -0.404486 0
M  V30 10526 H 1020.87 0.591327 -0.302041 0
M  V30 10527 H 1023.4 1.4513 -1.44216 0
M  V30 10528 H 1023.41 3.88894 -1.23391 0
M  V30 10529 H 1022.08 3.46226 -2.30435 0
M  V30 10530 H 1020.66 3.69693 -0.487987 0
M  V30 10531 N 1022.85 0.866709 1.31628 0
M  V30 10532 C 1024.09 0.486046 1.97507 0
M  V30 10533 C 1024.45 -0.95049 1.67283 0
M  V30 10534 O 1023.74 -1.65979 0.957158 0
M  V30 10535 C 1023.93 0.676018 3.50948 0
M  V30 10536 C 1023.76 2.12947 3.96086 0
M  V30 10537 C 1022.53 2.77041 4.22583 0
M  V30 10538 C 1024.73 3.10139 4.10266 0
M  V30 10539 N 1022.71 4.13172 4.54051 0
M  V30 10540 C 1024.08 4.3129 4.45409 0
M  V30 10541 C 1026.14 3.06173 3.92635 0
M  V30 10542 C 1024.84 5.4899 4.6476 0
M  V30 10543 C 1026.87 4.23128 4.13178 0
M  V30 10544 C 1026.23 5.43041 4.48649 0
M  V30 10545 H 1022.33 0.226831 0.748379 0
M  V30 10546 H 1024.91 1.12063 1.59217 0
M  V30 10547 H 1023.08 0.071055 3.88335 0
M  V30 10548 H 1024.82 0.264062 4.03838 0
M  V30 10549 H 1021.57 2.28009 4.15101 0
M  V30 10550 H 1021.99 4.83426 4.7395 0
M  V30 10551 H 1026.64 2.14576 3.64303 0
M  V30 10552 H 1024.35 6.41108 4.91942 0
M  V30 10553 H 1027.94 4.21509 4.01026 0
M  V30 10554 H 1026.82 6.32034 4.64223 0
M  V30 10555 N 1024.32 -1.44642 0.625825 0
M  V30 10556 C 1025.25 -2.33397 -0.0692188 0
M  V30 10557 C 1026.23 -1.47898 -0.840241 0
M  V30 10558 O 1027.42 -1.7663 -0.807176 0
M  V30 10559 C 1024.55 -3.30888 -1.055 0
M  V30 10560 C 1023.5 -4.26164 -0.395968 0
M  V30 10561 C 1022.83 -5.13483 -1.49128 0
M  V30 10562 C 1024.13 -5.17663 0.694433 0
M  V30 10563 H 1025.82 -2.91763 0.671925 0
M  V30 10564 H 1023.37 -1.40294 0.324573 0
M  V30 10565 H 1025.32 -3.91861 -1.54993 0
M  V30 10566 H 1024.05 -2.7072 -1.82696 0
M  V30 10567 H 1022.71 -3.66516 0.0782691 0
M  V30 10568 H 1022.35 -4.49672 -2.25399 0
M  V30 10569 H 1022.05 -5.78038 -1.05573 0
M  V30 10570 H 1023.58 -5.77327 -1.98813 0
M  V30 10571 H 1024.99 -5.72602 0.282818 0
M  V30 10572 H 1023.39 -5.90793 1.05281 0
M  V30 10573 H 1024.46 -4.58994 1.56372 0
M  V30 10574 N 1025.8 -0.366053 -1.5329 0
M  V30 10575 C 1027.03 0.226839 -2.06156 0
M  V30 10576 C 1027.45 1.41637 -1.23776 0
M  V30 10577 O 1026.81 1.7947 -0.256948 0
M  V30 10578 C 1026.86 0.597956 -3.55608 0
M  V30 10579 O 1025.96 1.69512 -3.75951 0
M  V30 10580 H 1025.3 0.0329156 -0.663184 0
M  V30 10581 H 1027.83 -0.526793 -1.97702 0
M  V30 10582 H 1027.84 0.868831 -3.98642 0
M  V30 10583 H 1026.52 -0.271838 -4.15011 0
M  V30 10584 H 1025.09 1.41976 -3.44815 0
M  V30 10585 N 1027.28 1.57312 -0.0952337 0
M  V30 10586 C 1028.51 1.98697 0.57682 0
M  V30 10587 C 1028.92 0.974347 1.61716 0
M  V30 10588 O 1028.28 -0.036022 1.82464 0
M  V30 10589 C 1028.33 3.40133 1.2244 0
M  V30 10590 O 1028.05 4.37518 0.225678 0
M  V30 10591 C 1029.55 3.96522 1.98205 0
M  V30 10592 H 1026.77 0.65294 0.154629 0
M  V30 10593 H 1029.32 2.03754 -0.174562 0
M  V30 10594 H 1027.47 3.3609 1.92671 0
M  V30 10595 H 1027.89 5.199 0.693116 0
M  V30 10596 H 1029.36 4.97637 2.38875 0
M  V30 10597 H 1029.84 3.34347 2.84796 0
M  V30 10598 H 1030.44 4.04038 1.3279 0
M  V30 10599 N 1028.76 -0.17846 1.56586 0
M  V30 10600 C 1030 -0.896235 1.81587 0
M  V30 10601 C 1030.33 -1.82553 0.671168 0
M  V30 10602 O 1029.59 -1.92688 -0.342046 0
M  V30 10603 C 1029.89 -1.73063 3.12704 0
M  V30 10604 C 1029.55 -0.950877 4.4076 0
M  V30 10605 C 1028.21 -0.735647 4.75544 0
M  V30 10606 C 1030.57 -0.403419 5.19636 0
M  V30 10607 C 1027.89 0.0382562 5.86688 0
M  V30 10608 C 1030.25 0.357359 6.3159 0
M  V30 10609 C 1028.91 0.583455 6.64945 0
M  V30 10610 H 1028.18 -0.327956 0.664474 0
M  V30 10611 H 1030.83 -0.161586 1.90817 0
M  V30 10612 H 1029.13 -2.53446 2.98785 0
M  V30 10613 H 1030.83 -2.28891 3.29257 0
M  V30 10614 H 1027.42 -1.12866 4.13472 0
M  V30 10615 H 1031.6 -0.557059 4.93164 0
M  V30 10616 H 1026.86 0.223237 6.10992 0
M  V30 10617 H 1031.03 0.788861 6.91918 0
M  V30 10618 H 1028.66 1.18502 7.50907 0
M  V30 10619 N 1030.24 -1.51135 -0.446768 0
M  V30 10620 C 1031.48 -1.63336 -1.19698 0
M  V30 10621 C 1031.81 -0.345099 -1.91414 0
M  V30 10622 O 1031.07 0.670365 -1.8386 0
M  V30 10623 C 1031.36 -2.78034 -2.2457 0
M  V30 10624 C 1031.03 -4.17652 -1.69934 0
M  V30 10625 C 1029.69 -4.55636 -1.54756 0
M  V30 10626 C 1032.04 -5.04813 -1.29665 0
M  V30 10627 C 1029.37 -5.78496 -0.977689 0
M  V30 10628 C 1031.72 -6.28244 -0.741112 0
M  V30 10629 C 1030.39 -6.65009 -0.576156 0
M  V30 10630 H 1029.66 -0.597689 -0.438006 0
M  V30 10631 H 1032.31 -1.85141 -0.48939 0
M  V30 10632 H 1030.61 -2.50413 -3.01331 0
M  V30 10633 H 1032.31 -2.84675 -2.8242 0
M  V30 10634 H 1028.9 -3.87699 -1.82722 0
M  V30 10635 H 1033.08 -4.76081 -1.40216 0
M  V30 10636 H 1028.34 -6.05636 -0.837563 0
M  V30 10637 H 1032.51 -6.95129 -0.42053 0
M  V30 10638 H 1030.14 -7.60085 -0.132443 0
M  V30 10639 N 1031.71 0.701592 -1.41122 0
M  V30 10640 C 1032.96 1.45871 -1.39879 0
M  V30 10641 C 1033.28 1.94999 -0.00668769 0
M  V30 10642 O 1032.55 1.71298 0.95047 0
M  V30 10643 H 1031.13 0.541231 -0.514857 0
M  V30 10644 H 1033.79 0.830803 -1.76306 0
M  V30 10645 H 1032.89 2.32479 -2.0823 0
M  V30 10646 N 1033.19 1.2685 0.935242 0
M  V30 10647 C 1034.61 1.04091 1.20984 0
M  V30 10648 C 1034.81 -0.230242 2.0018 0
M  V30 10649 O 1033.86 -0.93778 2.3444 0
M  V30 10650 C 1035.18 2.27586 1.96533 0
M  V30 10651 C 1036.72 2.32547 2.09501 0
M  V30 10652 C 1037.2 3.55751 2.88454 0
M  V30 10653 N 1038.69 3.56263 2.96025 0
M  V30 10654 C 1039.43 4.48262 3.57559 0
M  V30 10655 N 1038.92 5.50557 4.20546 0
M  V30 10656 N 1040.71 4.35901 3.5489 0
M  V30 10657 H 1032.87 2.08484 0.405954 0
M  V30 10658 H 1035.13 0.916548 0.242164 0
M  V30 10659 H 1034.83 3.20076 1.45753 0
M  V30 10660 H 1034.71 2.32305 2.97177 0
M  V30 10661 H 1037.1 1.40568 2.5947 0
M  V30 10662 H 1037.18 2.31836 1.08101 0
M  V30 10663 H 1036.82 4.48063 2.3917 0
M  V30 10664 H 1036.75 3.53711 3.90123 0
M  V30 10665 H 1039.24 2.82278 2.51252 0
M  V30 10666 H 1039.55 6.16935 4.65415 0
M  V30 10667 H 1037.9 5.54407 4.19115 0
M  V30 10668 H 1041.09 3.552 3.04879 0
M  V30 10669 H 1041.26 5.07792 4.02557 0
M  V30 10670 N 1034.67 -1.14067 1.0875 0
M  V30 10671 C 1036.08 -1.66747 0.839778 0
M  V30 10672 C 1036.43 -1.85711 -0.632909 0
M  V30 10673 O 1035.56 -1.57084 -1.48841 0
M  V30 10674 C 1036.15 -3.02896 1.51787 0
M  V30 10675 C 1034.71 -3.52596 1.3173 0
M  V30 10676 C 1033.86 -2.27994 1.57841 0
M  V30 10677 H 1036.81 -0.980838 1.24761 0
M  V30 10678 H 1036.83 -3.68526 0.947057 0
M  V30 10679 H 1036.34 -2.89062 2.58969 0
M  V30 10680 H 1034.44 -3.71647 0.266339 0
M  V30 10681 H 1034.56 -4.33151 2.04736 0
M  V30 10682 H 1032.92 -2.34241 1.00015 0
M  V30 10683 H 1033.7 -2.16732 2.66237 0
M  V30 10684 N 1036.15 -0.873678 -1.31166 0
M  V30 10685 C 1037.39 -0.493006 -1.98365 0
M  V30 10686 C 1037.75 0.937973 -1.67529 0
M  V30 10687 O 1038.95 1.42419 -2.2797 0
M  V30 10688 C 1037.22 -0.747128 -3.49504 0
M  V30 10689 S 1038.78 -0.466869 -4.36309 0
M  V30 10690 H 1035.6 -0.183882 -0.68681 0
M  V30 10691 H 1038.2 -1.13051 -1.59499 0
M  V30 10692 H 1036.91 -1.78731 -3.69437 0
M  V30 10693 H 1036.44 -0.096761 -3.93281 0
M  V30 10694 H 1038.45 0.699298 -4.91248 0
M  V30 10695 N 1037.63 1.44308 -0.633487 0
M  V30 10696 C 1038.58 2.27814 0.0919619 0
M  V30 10697 C 1039.56 1.38798 0.813882 0
M  V30 10698 O 1040.75 1.62587 0.699601 0
M  V30 10699 C 1037.88 3.26158 1.07125 0
M  V30 10700 C 1036.97 4.22663 0.348831 0
M  V30 10701 N 1037.36 5.01938 -0.623854 0
M  V30 10702 C 1035.66 4.42041 0.592958 0
M  V30 10703 C 1036.36 5.72129 -1.05088 0
M  V30 10704 N 1035.33 5.42205 -0.389183 0
M  V30 10705 H 1039.14 2.86515 -0.654721 0
M  V30 10706 H 1036.65 1.55773 -0.459178 0
M  V30 10707 H 1038.65 3.84742 1.60559 0
M  V30 10708 H 1037.31 2.69019 1.81821 0
M  V30 10709 H 1038.32 5.08119 -1.00176 0
M  V30 10710 H 1034.99 3.95997 1.32261 0
M  V30 10711 H 1036.38 6.45797 -1.85461 0
M  V30 10712 N 1039.1 0.374177 1.53094 0
M  V30 10713 C 1040.03 -0.459976 2.28925 0
M  V30 10714 C 1041.02 -1.07656 1.31698 0
M  V30 10715 O 1042.2 -1.09219 1.60577 0
M  V30 10716 C 1039.33 -1.5954 3.08487 0
M  V30 10717 C 1038.28 -1.10563 4.13473 0
M  V30 10718 C 1037.61 -2.33196 4.81169 0
M  V30 10719 C 1038.91 -0.184275 5.21975 0
M  V30 10720 H 1040.6 0.172692 2.98902 0
M  V30 10721 H 1038.15 0.0844956 1.43752 0
M  V30 10722 H 1040.1 -2.18565 3.60288 0
M  V30 10723 H 1038.83 -2.25543 2.36216 0
M  V30 10724 H 1037.49 -0.53801 3.62631 0
M  V30 10725 H 1037.13 -2.97675 4.05461 0
M  V30 10726 H 1036.83 -2.01094 5.52119 0
M  V30 10727 H 1038.36 -2.92892 5.35767 0
M  V30 10728 H 1039.77 -0.682262 5.69226 0
M  V30 10729 H 1038.17 0.0462746 6.00082 0
M  V30 10730 H 1039.24 0.771152 4.78729 0
M  V30 10731 N 1040.58 -1.57259 0.103575 0
M  V30 10732 C 1041.83 -1.93832 -0.55786 0
M  V30 10733 C 1042.14 -0.988087 -1.68808 0
M  V30 10734 O 1043.35 -1.24786 -2.41124 0
M  V30 10735 C 1041.81 -3.44433 -1.04373 0
M  V30 10736 C 1041.41 -4.47963 0.0571971 0
M  V30 10737 C 1043.16 -3.89953 -1.67742 0
M  V30 10738 C 1041.07 -5.89727 -0.444505 0
M  V30 10739 H 1040 -0.723536 -0.212161 0
M  V30 10740 H 1042.65 -1.82606 0.180944 0
M  V30 10741 H 1041.03 -3.50841 -1.83648 0
M  V30 10742 H 1042.2 -4.53209 0.83298 0
M  V30 10743 H 1040.52 -4.12104 0.596588 0
M  V30 10744 H 1043.11 -4.93272 -2.06365 0
M  V30 10745 H 1043.46 -3.2907 -2.54988 0
M  V30 10746 H 1043.99 -3.86281 -0.950342 0
M  V30 10747 H 1040.73 -6.5433 0.391543 0
M  V30 10748 H 1040.25 -5.87935 -1.18711 0
M  V30 10749 H 1041.93 -6.40558 -0.910739 0
M  V30 10750 N 1042.06 0.170153 -1.56679 0
M  V30 10751 C 1043.01 1.21064 -1.965 0
M  V30 10752 C 1043.98 1.43928 -0.829092 0
M  V30 10753 O 1045.16 1.56649 -1.08931 0
M  V30 10754 C 1042.3 2.54468 -2.33109 0
M  V30 10755 C 1041.42 2.38974 -3.59883 0
M  V30 10756 C 1040.55 3.65252 -3.857 0
M  V30 10757 C 1039.59 3.44696 -5.05817 0
M  V30 10758 N 1038.73 4.63047 -5.27761 0
M  V30 10759 H 1043.57 0.864055 -2.85198 0
M  V30 10760 H 1041.1 0.415243 -1.41117 0
M  V30 10761 H 1043.06 3.32222 -2.52358 0
M  V30 10762 H 1041.69 2.8712 -1.4752 0
M  V30 10763 H 1040.74 1.5239 -3.48542 0
M  V30 10764 H 1042.06 2.19731 -4.47794 0
M  V30 10765 H 1041.21 4.51441 -4.05322 0
M  V30 10766 H 1039.95 3.87475 -2.96166 0
M  V30 10767 H 1038.95 2.56893 -4.86092 0
M  V30 10768 H 1040.18 3.23894 -5.96883 0
M  V30 10769 H 1038.12 4.85487 -4.41179 0
M  V30 10770 H 1038.04 4.46722 -6.09898 0
M  V30 10771 H 1039.31 5.50516 -5.51863 0
M  V30 10772 N 1043.54 1.5137 0.438746 0
M  V30 10773 C 1044.47 1.68774 1.55074 0
M  V30 10774 C 1045.48 0.568436 1.52554 0
M  V30 10775 O 1046.67 0.842707 1.57355 0
M  V30 10776 C 1043.77 1.68592 2.9399 0
M  V30 10777 C 1042.95 2.97084 3.2103 0
M  V30 10778 C 1042 2.89108 4.39663 0
M  V30 10779 O 1041.03 3.63052 4.38385 0
M  V30 10780 N 1042.23 2.04863 5.4315 0
M  V30 10781 H 1045 2.647 1.40549 0
M  V30 10782 H 1042.56 1.49238 0.627663 0
M  V30 10783 H 1044.55 1.60826 3.71372 0
M  V30 10784 H 1043.12 0.802657 3.02119 0
M  V30 10785 H 1042.34 3.18729 2.3196 0
M  V30 10786 H 1043.63 3.82143 3.35923 0
M  V30 10787 H 1043.03 1.4416 5.47023 0
M  V30 10788 H 1041.58 2.02977 6.1939 0
M  V30 10789 N 1045.02 -0.694098 1.41492 0
M  V30 10790 C 1046.24 -1.48789 1.44488 0
M  V30 10791 C 1046.67 -1.88028 0.0521588 0
M  V30 10792 O 1046.02 -1.54727 -0.944952 0
M  V30 10793 C 1046.07 -2.72586 2.3607 0
M  V30 10794 O 1045.18 -3.70128 1.81876 0
M  V30 10795 H 1044.52 -0.447758 0.490315 0
M  V30 10796 H 1047.05 -0.853036 1.85969 0
M  V30 10797 H 1047.06 -3.20877 2.51995 0
M  V30 10798 H 1045.73 -2.43363 3.37264 0
M  V30 10799 H 1044.31 -3.29069 1.75408 0
M  V30 10800 N 1046.49 -1.27344 -0.928501 0
M  V30 10801 C 1047.72 -1.16557 -1.7155 0
M  V30 10802 C 1048.14 0.274044 -1.86093 0
M  V30 10803 O 1047.5 1.19847 -1.36038 0
M  V30 10804 C 1047.55 -1.85332 -3.09329 0
M  V30 10805 O 1046.65 -1.15074 -3.9602 0
M  V30 10806 H 1046 -0.405423 -0.525859 0
M  V30 10807 H 1048.53 -1.68399 -1.16202 0
M  V30 10808 H 1048.54 -1.92659 -3.59648 0
M  V30 10809 H 1047.21 -2.90056 -2.98061 0
M  V30 10810 H 1045.79 -1.1581 -3.54461 0
M  V30 10811 N 1047.97 1.13488 -1.09353 0
M  V30 10812 C 1048.92 2.20949 -0.726923 0
M  V30 10813 C 1049.91 1.67205 0.271816 0
M  V30 10814 O 1051.12 1.79505 0.133356 0
M  V30 10815 H 1047.5 0.719985 -0.217086 0
M  V30 10816 H 1049.47 2.49134 -1.6424 0
M  V30 10817 C 1048.22 3.47319 -0.162822 0
M  V30 10818 H 1047.54 3.89011 -0.922527 0
M  V30 10819 H 1048.98 4.23963 0.0557734 0
M  V30 10820 C 1047.44 3.18376 1.10175 0
M  V30 10821 O 1047.97 3.3707 2.18511 0
M  V30 10822 N 1046.17 2.72262 1.01597 0
M  V30 10823 H 1045.72 2.5725 0.134289 0
M  V30 10824 H 1045.68 2.53272 1.86281 0
M  V30 10825 N 1049.45 0.880621 1.30701 0
M  V30 10826 C 1050.68 0.510909 2.01009 0
M  V30 10827 C 1051.1 -0.892041 1.65603 0
M  V30 10828 O 1050.46 -1.59045 0.870309 0
M  V30 10829 C 1050.51 0.687759 3.53981 0
M  V30 10830 O 1049.61 -0.268275 4.11526 0
M  V30 10831 H 1048.95 0.201864 0.632572 0
M  V30 10832 H 1051.48 1.18697 1.6665 0
M  V30 10833 H 1051.49 0.585095 4.03783 0
M  V30 10834 H 1050.17 1.71068 3.79089 0
M  V30 10835 H 1048.74 -0.119673 3.72708 0
M  V30 10836 N 1050.93 -1.4397 0.641131 0
M  V30 10837 C 1051.86 -2.28997 -0.0963315 0
M  V30 10838 C 1052.87 -1.4184 -0.799071 0
M  V30 10839 O 1054.06 -1.65896 -0.658846 0
M  V30 10840 C 1051.16 -3.18465 -1.15903 0
M  V30 10841 C 1050.34 -4.34093 -0.536828 0
M  V30 10842 C 1049.4 -5.04522 -1.4948 0
M  V30 10843 O 1048.42 -5.60202 -1.00807 0
M  V30 10844 N 1049.62 -5.06899 -2.82901 0
M  V30 10845 H 1052.39 -2.9293 0.633422 0
M  V30 10846 H 1049.95 -1.54527 0.48302 0
M  V30 10847 H 1051.94 -3.62445 -1.80044 0
M  V30 10848 H 1050.51 -2.56214 -1.79089 0
M  V30 10849 H 1049.73 -3.9318 0.283414 0
M  V30 10850 H 1051.02 -5.08698 -0.101966 0
M  V30 10851 H 1050.42 -4.63012 -3.25017 0
M  V30 10852 H 1048.97 -5.54637 -3.42376 0
M  V30 10853 N 1052.41 -0.382291 -1.52893 0
M  V30 10854 C 1053.82 -0.031941 -1.59568 0
M  V30 10855 C 1054.02 1.45245 -1.39664 0
M  V30 10856 O 1053.08 2.21612 -1.21013 0
M  V30 10857 C 1054.39 -0.502846 -2.96466 0
M  V30 10858 C 1055.94 -0.4585 -3.09624 0
M  V30 10859 C 1056.42 -0.905481 -4.4896 0
M  V30 10860 N 1057.91 -0.861211 -4.55124 0
M  V30 10861 C 1058.64 -1.17856 -5.61157 0
M  V30 10862 N 1058.14 -1.56603 -6.74868 0
M  V30 10863 N 1059.93 -1.10027 -5.51226 0
M  V30 10864 H 1052.08 -1.34875 -1.64081 0
M  V30 10865 H 1054.34 -0.552375 -0.770446 0
M  V30 10866 H 1054.05 -1.53931 -3.16225 0
M  V30 10867 H 1053.92 0.101777 -3.77063 0
M  V30 10868 H 1056.31 0.568868 -2.89565 0
M  V30 10869 H 1056.39 -1.09884 -2.30996 0
M  V30 10870 H 1056.04 -1.93105 -4.69759 0
M  V30 10871 H 1055.97 -0.242227 -5.26043 0
M  V30 10872 H 1058.46 -0.575988 -3.73485 0
M  V30 10873 H 1058.77 -1.792 -7.51736 0
M  V30 10874 H 1057.12 -1.60484 -6.76217 0
M  V30 10875 H 1060.31 -0.796623 -4.61272 0
M  V30 10876 H 1060.48 -1.35091 -6.33762 0
M  V30 10877 N 1053.89 1.57202 -0.111913 0
M  V30 10878 C 1054.83 2.16186 0.858286 0
M  V30 10879 C 1055.83 1.10917 1.28039 0
M  V30 10880 O 1057.03 1.29233 1.25295 0
M  V30 10881 H 1053.41 0.691777 0.29487 0
M  V30 10882 H 1055.38 2.96499 0.336265 0
M  V30 10883 C 1054.13 2.77024 2.10127 0
M  V30 10884 H 1053.45 3.5772 1.78539 0
M  V30 10885 H 1054.89 3.21841 2.76033 0
M  V30 10886 C 1053.35 1.73752 2.88638 0
M  V30 10887 O 1053.88 1.18659 3.83774 0
M  V30 10888 N 1052.09 1.43855 2.52496 0
M  V30 10889 H 1051.63 1.88846 1.75199 0
M  V30 10890 H 1051.59 0.749985 3.05324 0
M  V30 10891 N 1055.36 -0.161842 1.56767 0
M  V30 10892 C 1056.33 -1.18404 1.96247 0
M  V30 10893 C 1057.33 -1.3667 0.84722 0
M  V30 10894 O 1058.52 -1.33915 1.11411 0
M  V30 10895 C 1055.65 -2.54728 2.26553 0
M  V30 10896 H 1056.84 -0.845703 2.87729 0
M  V30 10897 H 1054.39 -0.404645 1.50971 0
M  V30 10898 H 1055.13 -2.93559 1.37816 0
M  V30 10899 H 1054.91 -2.42834 3.07854 0
M  V30 10900 H 1056.4 -3.28378 2.57987 0
M  V30 10901 N 1056.84 -1.516 -0.430713 0
M  V30 10902 C 1057.79 -1.73392 -1.52328 0
M  V30 10903 C 1058.76 -0.575758 -1.55802 0
M  V30 10904 O 1059.94 -0.810931 -1.72709 0
M  V30 10905 C 1057.08 -1.87092 -2.89984 0
M  V30 10906 C 1056.2 -3.14668 -2.95987 0
M  V30 10907 C 1055.33 -3.18923 -4.24807 0
M  V30 10908 C 1054.37 -4.40787 -4.24703 0
M  V30 10909 N 1053.51 -4.42556 -5.45059 0
M  V30 10910 H 1058.35 -2.6665 -1.33048 0
M  V30 10911 H 1055.88 -1.32146 -0.646207 0
M  V30 10912 H 1057.84 -1.93017 -3.69865 0
M  V30 10913 H 1056.47 -0.972363 -3.07807 0
M  V30 10914 H 1055.52 -3.1802 -2.08728 0
M  V30 10915 H 1056.84 -4.04562 -2.91772 0
M  V30 10916 H 1055.99 -3.23801 -5.13067 0
M  V30 10917 H 1054.73 -2.2693 -4.31688 0
M  V30 10918 H 1053.73 -4.36079 -3.34836 0
M  V30 10919 H 1054.96 -5.34053 -4.19481 0
M  V30 10920 H 1052.91 -3.53435 -5.52648 0
M  V30 10921 H 1052.82 -5.26267 -5.42751 0
M  V30 10922 H 1054.09 -4.51634 -6.35332 0
M  V30 10923 N 1058.32 0.686584 -1.41858 0
M  V30 10924 C 1059.27 1.80038 -1.44413 0
M  V30 10925 C 1060.24 1.63415 -0.297427 0
M  V30 10926 O 1061.42 1.84138 -0.499789 0
M  V30 10927 C 1058.56 3.17988 -1.34082 0
M  V30 10928 C 1057.67 3.45979 -2.58693 0
M  V30 10929 C 1056.81 4.73592 -2.4059 0
M  V30 10930 C 1055.85 4.94581 -3.60633 0
M  V30 10931 N 1054.99 6.13426 -3.41545 0
M  V30 10932 H 1059.83 1.77189 -2.396 0
M  V30 10933 H 1057.36 0.865158 -1.18968 0
M  V30 10934 H 1059.32 3.97689 -1.26092 0
M  V30 10935 H 1057.95 3.1999 -0.424975 0
M  V30 10936 H 1057 2.60617 -2.77097 0
M  V30 10937 H 1058.31 3.57386 -3.47961 0
M  V30 10938 H 1057.47 5.61364 -2.30119 0
M  V30 10939 H 1056.21 4.64448 -1.48794 0
M  V30 10940 H 1055.21 4.05254 -3.71549 0
M  V30 10941 H 1056.44 5.05578 -4.53395 0
M  V30 10942 H 1054.38 6.05477 -2.52456 0
M  V30 10943 H 1054.3 6.25641 -4.24393 0
M  V30 10944 H 1055.57 7.03908 -3.34864 0
M  V30 10945 N 1059.8 1.27835 0.921735 0
M  V30 10946 C 1060.74 1.11075 2.02314 0
M  V30 10947 C 1061.71 0.0101195 1.66097 0
M  V30 10948 O 1062.9 0.173564 1.90009 0
M  V30 10949 C 1060.04 0.770251 3.36394 0
M  V30 10950 C 1059.15 1.94912 3.8553 0
M  V30 10951 C 1058.29 1.54996 5.08084 0
M  V30 10952 C 1057.33 2.69595 5.49531 0
M  V30 10953 N 1056.46 2.30227 6.6328 0
M  V30 10954 H 1061.3 2.05319 2.15982 0
M  V30 10955 H 1058.84 1.022 1.058 0
M  V30 10956 H 1060.8 0.553624 4.1351 0
M  V30 10957 H 1059.43 -0.135238 3.22517 0
M  V30 10958 H 1058.48 2.27811 3.04641 0
M  V30 10959 H 1059.79 2.80858 4.12214 0
M  V30 10960 H 1058.95 1.29493 5.9272 0
M  V30 10961 H 1057.69 0.661676 4.83191 0
M  V30 10962 H 1056.69 2.95806 4.63442 0
M  V30 10963 H 1057.92 3.59054 5.76417 0
M  V30 10964 H 1055.86 1.43858 6.40032 0
M  V30 10965 H 1055.78 3.09711 6.89649 0
M  V30 10966 H 1057.05 2.07987 7.5124 0
M  V30 10967 N 1061.28 -1.12907 1.09954 0
M  V30 10968 C 1062.23 -2.16558 0.713204 0
M  V30 10969 C 1063.21 -1.5853 -0.27515 0
M  V30 10970 O 1064.4 -1.76797 -0.0846643 0
M  V30 10971 C 1061.53 -3.43009 0.141224 0
M  V30 10972 C 1060.62 -4.08032 1.15632 0
M  V30 10973 N 1061.01 -4.48139 2.34531 0
M  V30 10974 C 1059.31 -4.34743 0.995701 0
M  V30 10975 C 1060.01 -4.98885 2.99147 0
M  V30 10976 N 1058.98 -4.9408 2.26684 0
M  V30 10977 H 1062.78 -2.45328 1.61838 0
M  V30 10978 H 1060.3 -1.29759 0.976539 0
M  V30 10979 H 1062.3 -4.16617 -0.153598 0
M  V30 10980 H 1060.96 -3.15711 -0.758729 0
M  V30 10981 H 1061.97 -4.40668 2.72089 0
M  V30 10982 H 1058.64 -4.17227 0.150888 0
M  V30 10983 H 1060.03 -5.3967 4.00257 0
M  V30 10984 N 1062.75 -0.88754 -1.30232 0
M  V30 10985 C 1064 -0.506277 -1.95656 0
M  V30 10986 C 1064.32 0.948191 -1.70395 0
M  V30 10987 O 1063.59 1.66701 -1.02895 0
M  V30 10988 H 1062.17 -0.184235 -0.723924 0
M  V30 10989 H 1064.83 -1.13118 -1.58715 0
M  V30 10990 H 1063.93 -0.678673 -3.04632 0
M  V30 10991 N 1064.23 1.43628 -0.648757 0
M  V30 10992 C 1065.18 2.30755 0.0455536 0
M  V30 10993 C 1066.15 1.44495 0.819168 0
M  V30 10994 O 1067.33 1.73372 0.79667 0
M  V30 10995 C 1064.47 3.30017 1.00908 0
M  V30 10996 C 1063.59 4.31376 0.232039 0
M  V30 10997 C 1062.72 5.17723 1.18897 0
M  V30 10998 C 1061.76 6.10778 0.402096 0
M  V30 10999 N 1060.9 6.89763 1.31038 0
M  V30 11000 H 1065.74 2.89581 -0.70332 0
M  V30 11001 H 1063.28 1.42662 -0.3586 0
M  V30 11002 H 1065.23 3.86072 1.58128 0
M  V30 11003 H 1063.86 2.72851 1.72488 0
M  V30 11004 H 1062.92 3.77652 -0.456373 0
M  V30 11005 H 1064.23 4.9735 -0.380023 0
M  V30 11006 H 1063.38 5.78381 1.83194 0
M  V30 11007 H 1062.12 4.51864 1.83494 0
M  V30 11008 H 1061.13 5.49212 -0.254255 0
M  V30 11009 H 1062.35 6.78678 -0.239411 0
M  V30 11010 H 1060.3 6.26557 1.94324 0
M  V30 11011 H 1060.21 7.52243 0.752774 0
M  V30 11012 H 1061.48 7.54931 1.94164 0
M  V30 11013 N 1065.71 0.390394 1.52688 0
M  V30 11014 C 1066.99 -0.249068 1.94008 0
M  V30 11015 C 1067.37 -1.64263 1.32593 0
M  V30 11016 O 1066.72 -2.23086 0.494448 0
M  V30 11017 C 1066.93 -0.274318 3.4792 0
M  V30 11018 C 1068.27 -0.502743 4.21613 0
M  V30 11019 O 1069.3 -0.35448 3.54432 0
M  V30 11020 O 1068.16 -0.79334 5.40711 0
M  V30 11021 H 1065.25 -0.155116 0.812323 0
M  V30 11022 H 1067.8 0.44498 1.63762 0
M  V30 11023 H 1066.57 0.701766 3.84956 0
M  V30 11024 H 1066.19 -1.01324 3.84473 0
M  V30 11025 N 1067.19 -1.57141 0.120249 0
M  V30 11026 C 1068.12 -2.12454 -0.859987 0
M  V30 11027 C 1069.13 -1.06755 -1.22911 0
M  V30 11028 O 1070.32 -1.34124 -1.17784 0
M  V30 11029 C 1067.42 -2.61024 -2.16147 0
M  V30 11030 C 1066.6 -3.90835 -1.96385 0
M  V30 11031 C 1065.65 -4.2499 -3.10274 0
M  V30 11032 O 1064.68 -4.93786 -2.83133 0
M  V30 11033 N 1065.88 -3.82411 -4.36741 0
M  V30 11034 H 1068.65 -2.97186 -0.387402 0
M  V30 11035 H 1066.21 -1.61773 -0.0641376 0
M  V30 11036 H 1068.2 -2.80903 -2.91334 0
M  V30 11037 H 1066.77 -1.81166 -2.5475 0
M  V30 11038 H 1065.99 -3.79853 -1.05383 0
M  V30 11039 H 1067.28 -4.75712 -1.80487 0
M  V30 11040 H 1066.68 -3.26926 -4.61666 0
M  V30 11041 H 1065.23 -4.07395 -5.08795 0
M  V30 11042 N 1068.67 0.153526 -1.5685 0
M  V30 11043 C 1069.6 1.19162 -2.00805 0
M  V30 11044 C 1070.58 1.45172 -0.886518 0
M  V30 11045 O 1071.76 1.56203 -1.15387 0
M  V30 11046 C 1068.89 2.52637 -2.38311 0
M  V30 11047 C 1067.85 2.41161 -3.53589 0
M  V30 11048 C 1067.17 3.79287 -3.76889 0
M  V30 11049 C 1068.47 1.90122 -4.86468 0
M  V30 11050 H 1070.17 0.82617 -2.87776 0
M  V30 11051 H 1067.71 0.395972 -1.38449 0
M  V30 11052 H 1069.67 3.25478 -2.6766 0
M  V30 11053 H 1068.39 2.91005 -1.4827 0
M  V30 11054 H 1067.05 1.70772 -3.24395 0
M  V30 11055 H 1066.7 4.15079 -2.84109 0
M  V30 11056 H 1066.4 3.72472 -4.54465 0
M  V30 11057 H 1067.92 4.53687 -4.08657 0
M  V30 11058 H 1069.33 2.52752 -5.14577 0
M  V30 11059 H 1067.73 1.94214 -5.67804 0
M  V30 11060 H 1068.8 0.856517 -4.77275 0
M  V30 11061 N 1070.14 1.51827 0.422667 0
M  V30 11062 C 1071.56 1.57533 1.00201 0
M  V30 11063 C 1071.91 0.407623 1.91919 0
M  V30 11064 O 1071.03 -0.473763 2.1115 0
M  V30 11065 C 1071.63 2.85508 1.82403 0
M  V30 11066 C 1070.19 2.93737 2.35362 0
M  V30 11067 C 1069.33 2.52343 1.14971 0
M  V30 11068 H 1072.28 1.57391 0.20339 0
M  V30 11069 H 1072.3 2.70097 2.68007 0
M  V30 11070 H 1071.82 3.70477 1.15623 0
M  V30 11071 H 1069.92 2.13231 3.05554 0
M  V30 11072 H 1070.03 3.977 2.67155 0
M  V30 11073 H 1068.39 2.05878 1.49955 0
M  V30 11074 H 1069.18 3.39672 0.497786 0
M  V30 11075 N 1071.62 -0.679052 1.4222 0
M  V30 11076 C 1072.87 -1.43627 1.42182 0
M  V30 11077 C 1073.19 -1.94964 0.0377095 0
M  V30 11078 O 1072.46 -1.72788 -0.923098 0
M  V30 11079 H 1071.04 -0.532972 0.523402 0
M  V30 11080 H 1073.7 -0.802649 1.77605 0
M  V30 11081 H 1072.8 -2.29137 2.11902 0
M  V30 11082 N 1073.1 -1.28322 -0.914942 0
M  V30 11083 C 1074.33 -1.18254 -1.69775 0
M  V30 11084 C 1074.74 0.258978 -1.87015 0
M  V30 11085 O 1074.1 1.17514 -1.3963 0
M  V30 11086 C 1074.15 -1.8753 -3.09054 0
M  V30 11087 O 1073.87 -3.26051 -2.92613 0
M  V30 11088 C 1075.37 -1.83749 -4.03424 0
M  V30 11089 H 1072.59 -0.41055 -0.530744 0
M  V30 11090 H 1075.14 -1.69425 -1.14523 0
M  V30 11091 H 1073.29 -1.40233 -3.61128 0
M  V30 11092 H 1073.71 -3.60729 -3.80756 0
M  V30 11093 H 1075.18 -2.36813 -4.98622 0
M  V30 11094 H 1075.66 -0.809601 -4.31674 0
M  V30 11095 H 1076.26 -2.3072 -3.57279 0
M  V30 11096 N 1074.58 1.12322 -1.10551 0
M  V30 11097 C 1075.51 2.17221 -0.699299 0
M  V30 11098 C 1076.49 1.59809 0.299973 0
M  V30 11099 O 1077.67 1.87451 0.198589 0
M  V30 11100 C 1074.8 3.38685 -0.0320136 0
M  V30 11101 C 1073.85 4.14732 -0.99495 0
M  V30 11102 S 1074.68 4.72879 -2.51288 0
M  V30 11103 C 1075.84 5.97676 -1.85834 0
M  V30 11104 H 1076.07 2.51342 -1.5879 0
M  V30 11105 H 1073.6 1.23802 -0.92263 0
M  V30 11106 H 1075.56 4.09034 0.346656 0
M  V30 11107 H 1074.22 3.02842 0.833407 0
M  V30 11108 H 1073.41 5.01754 -0.475331 0
M  V30 11109 H 1073.02 3.50098 -1.31559 0
M  V30 11110 H 1075.31 6.6698 -1.18927 0
M  V30 11111 H 1076.25 6.54266 -2.70817 0
M  V30 11112 H 1076.66 5.48793 -1.32237 0
M  V30 11113 N 1076.06 0.894434 1.2976 0
M  V30 11114 C 1077.02 0.373094 2.26143 0
M  V30 11115 C 1078.02 -0.489756 1.5316 0
M  V30 11116 O 1079.21 -0.29556 1.71674 0
M  V30 11117 C 1076.34 -0.467234 3.37683 0
M  V30 11118 H 1077.53 1.22427 2.73773 0
M  V30 11119 H 1075.09 0.672112 1.41111 0
M  V30 11120 H 1075.82 -1.33861 2.95384 0
M  V30 11121 H 1075.61 0.150954 3.91809 0
M  V30 11122 H 1077.1 -0.823469 4.094 0
M  V30 11123 N 1077.53 -1.43282 0.656365 0
M  V30 11124 C 1078.76 -2.06125 0.178879 0
M  V30 11125 C 1079.18 -1.49216 -1.15672 0
M  V30 11126 O 1078.53 -0.624693 -1.71475 0
M  V30 11127 C 1078.59 -3.614 0.0851785 0
M  V30 11128 O 1078.31 -4.16194 1.36798 0
M  V30 11129 C 1079.81 -4.41325 -0.41801 0
M  V30 11130 H 1077.03 -0.664753 0.0913504 0
M  V30 11131 H 1079.57 -1.83733 0.897901 0
M  V30 11132 H 1077.73 -3.82966 -0.584421 0
M  V30 11133 H 1078.14 -5.09892 1.22924 0
M  V30 11134 H 1079.61 -5.50303 -0.432519 0
M  V30 11135 H 1080.09 -4.14577 -1.44991 0
M  V30 11136 H 1080.7 -4.24735 0.219208 0
M  V30 11137 N 1079.01 -0.398486 -1.52479 0
M  V30 11138 C 1079.94 0.423498 -2.29627 0
M  V30 11139 C 1080.92 1.05547 -1.33394 0
M  V30 11140 O 1082.11 1.0665 -1.62294 0
M  V30 11141 C 1079.24 1.54612 -3.10986 0
M  V30 11142 C 1078.19 1.03971 -4.15179 0
M  V30 11143 C 1077.52 2.25512 -4.84818 0
M  V30 11144 C 1078.82 0.10121 -5.22202 0
M  V30 11145 H 1080.51 -0.220222 -2.98589 0
M  V30 11146 H 1078.06 -0.107355 -1.43599 0
M  V30 11147 H 1080.01 2.12806 -3.63719 0
M  V30 11148 H 1078.74 2.21756 -2.39774 0
M  V30 11149 H 1077.4 0.480251 -3.63441 0
M  V30 11150 H 1077.04 2.91187 -4.10145 0
M  V30 11151 H 1076.74 1.92285 -5.55248 0
M  V30 11152 H 1078.27 2.84331 -5.40359 0
M  V30 11153 H 1079.68 0.591617 -5.70239 0
M  V30 11154 H 1078.08 -0.141737 -5.99933 0
M  V30 11155 H 1079.15 -0.847216 -4.77441 0
M  V30 11156 N 1080.49 1.57075 -0.12858 0
M  V30 11157 C 1081.72 2.00305 0.537839 0
M  V30 11158 C 1082.14 1.00787 1.58819 0
M  V30 11159 O 1081.5 -0.0190839 1.8129 0
M  V30 11160 C 1081.55 3.42371 1.13201 0
M  V30 11161 O 1080.65 3.45786 2.24735 0
M  V30 11162 H 1079.99 0.650456 0.133428 0
M  V30 11163 H 1082.52 2.03415 -0.219882 0
M  V30 11164 H 1082.53 3.80783 1.4652 0
M  V30 11165 H 1081.21 4.14315 0.362713 0
M  V30 11166 H 1079.78 3.19201 1.92783 0
M  V30 11167 N 1081.97 -0.145205 1.5693 0
M  V30 11168 C 1082.9 -1.18096 2.01434 0
M  V30 11169 C 1083.88 -1.447 0.894204 0
M  V30 11170 O 1085.07 -1.55589 1.16214 0
M  V30 11171 C 1082.2 -2.51369 2.39647 0
M  V30 11172 C 1081.15 -2.39283 3.54863 0
M  V30 11173 C 1080.48 -3.77283 3.78895 0
M  V30 11174 C 1081.78 -1.8754 4.87469 0
M  V30 11175 H 1083.47 -0.810897 2.8821 0
M  V30 11176 H 1081.02 -0.388624 1.38657 0
M  V30 11177 H 1082.97 -3.24054 2.69382 0
M  V30 11178 H 1081.69 -2.90214 1.49811 0
M  V30 11179 H 1080.35 -1.6905 3.25296 0
M  V30 11180 H 1080 -4.13567 2.86307 0
M  V30 11181 H 1079.7 -3.70057 4.56433 0
M  V30 11182 H 1081.22 -4.51514 4.11057 0
M  V30 11183 H 1082.64 -2.50019 5.1591 0
M  V30 11184 H 1081.03 -1.912 5.68826 0
M  V30 11185 H 1082.1 -0.831194 4.77723 0
M  V30 11186 N 1083.45 -1.52049 -0.414609 0
M  V30 11187 C 1084.69 -1.66084 -1.16379 0
M  V30 11188 C 1085.03 -0.386932 -1.90306 0
M  V30 11189 O 1084.3 0.614441 -1.8454 0
M  V30 11190 C 1084.58 -2.87927 -2.16264 0
M  V30 11191 C 1084.44 -4.25353 -1.46269 0
M  V30 11192 C 1085.76 -3.05289 -3.16996 0
M  V30 11193 H 1082.88 -0.604414 -0.421726 0
M  V30 11194 H 1085.52 -1.8459 -0.450177 0
M  V30 11195 H 1083.67 -2.7228 -2.77121 0
M  V30 11196 H 1085.34 -4.52717 -0.885743 0
M  V30 11197 H 1083.58 -4.27006 -0.76472 0
M  V30 11198 H 1084.25 -5.06644 -2.19126 0
M  V30 11199 H 1086.73 -3.19798 -2.66212 0
M  V30 11200 H 1085.61 -3.92065 -3.84156 0
M  V30 11201 H 1085.87 -2.1836 -3.84411 0
M  V30 11202 N 1084.93 0.6715 -1.42579 0
M  V30 11203 C 1085.87 1.80623 -1.46554 0
M  V30 11204 C 1086.87 1.65934 -0.340932 0
M  V30 11205 O 1088.07 1.72502 -0.514098 0
M  V30 11206 H 1084.45 0.595619 -0.459067 0
M  V30 11207 H 1086.42 1.74388 -2.42139 0
M  V30 11208 C 1085.17 3.18794 -1.38801 0
M  V30 11209 H 1084.49 3.30725 -2.24635 0
M  V30 11210 H 1085.93 3.98201 -1.45645 0
M  V30 11211 C 1084.39 3.36742 -0.103219 0
M  V30 11212 O 1084.92 3.92761 0.842715 0
M  V30 11213 N 1083.13 2.90594 -0.0193034 0
M  V30 11214 H 1082.67 2.45192 -0.78986 0
M  V30 11215 H 1082.63 3.0298 0.839686 0
M  V30 11216 N 1086.4 1.28806 0.908124 0
M  V30 11217 C 1087.31 1.15079 2.04436 0
M  V30 11218 C 1088.33 0.076012 1.73834 0
M  V30 11219 O 1089.51 0.286421 1.99353 0
M  V30 11220 C 1086.57 0.819733 3.3687 0
M  V30 11221 C 1085.63 1.97746 3.81045 0
M  V30 11222 C 1084.86 1.66211 5.07158 0
M  V30 11223 O 1085.09 0.579092 5.67453 0
M  V30 11224 O 1084.02 2.5075 5.47182 0
M  V30 11225 H 1087.85 2.10477 2.18937 0
M  V30 11226 H 1085.43 1.08177 1.03044 0
M  V30 11227 H 1087.31 0.649304 4.16368 0
M  V30 11228 H 1085.99 -0.10454 3.23531 0
M  V30 11229 H 1084.9 2.20308 3.02349 0
M  V30 11230 H 1086.23 2.88264 3.98955 0
M  V30 11231 N 1087.88 -1.11734 1.11145 0
M  V30 11232 C 1088.84 -2.15868 0.770303 0
M  V30 11233 C 1089.84 -1.59438 -0.208842 0
M  V30 11234 O 1091.03 -1.74193 0.0152516 0
M  V30 11235 C 1088.17 -3.40603 0.142303 0
M  V30 11236 H 1089.36 -2.4756 1.69276 0
M  V30 11237 H 1086.91 -1.26867 0.912929 0
M  V30 11238 H 1087.65 -3.14517 -0.790526 0
M  V30 11239 H 1087.43 -3.8284 0.847087 0
M  V30 11240 H 1088.92 -4.17523 -0.0803608 0
M  V30 11241 N 1089.36 -0.901303 -1.29284 0
M  V30 11242 C 1090.29 -0.337552 -2.26701 0
M  V30 11243 C 1091.3 0.517039 -1.54371 0
M  V30 11244 O 1092.49 0.333937 -1.75349 0
M  V30 11245 C 1089.59 0.537214 -3.34615 0
M  V30 11246 C 1088.77 -0.292017 -4.36424 0
M  V30 11247 C 1087.83 0.515837 -5.23666 0
M  V30 11248 O 1086.85 -0.0672303 -5.6916 0
M  V30 11249 N 1088.05 1.82159 -5.51179 0
M  V30 11250 H 1090.82 -1.17484 -2.75713 0
M  V30 11251 H 1088.38 -0.765957 -1.42635 0
M  V30 11252 H 1090.37 1.0841 -3.8991 0
M  V30 11253 H 1088.94 1.2752 -2.85408 0
M  V30 11254 H 1088.16 -1.02031 -3.80767 0
M  V30 11255 H 1089.45 -0.859855 -5.01482 0
M  V30 11256 H 1088.85 2.318 -5.16028 0
M  V30 11257 H 1087.4 2.31556 -6.09282 0
M  V30 11258 N 1090.84 1.42931 -0.663954 0
M  V30 11259 C 1092.07 2.05729 -0.189532 0
M  V30 11260 C 1092.48 1.49914 1.15423 0
M  V30 11261 O 1091.82 0.629324 1.72584 0
M  V30 11262 C 1091.88 3.59482 -0.0354748 0
M  V30 11263 C 1091.54 4.37935 -1.30622 0
M  V30 11264 C 1092.54 4.69297 -2.23733 0
M  V30 11265 C 1090.23 4.77761 -1.5508 0
M  V30 11266 C 1092.22 5.39407 -3.39586 0
M  V30 11267 C 1089.91 5.47613 -2.71224 0
M  V30 11268 C 1090.91 5.7836 -3.63302 0
M  V30 11269 O 1090.59 6.46783 -4.77417 0
M  V30 11270 H 1090.33 0.669678 -0.0922342 0
M  V30 11271 H 1092.88 1.84243 -0.907943 0
M  V30 11272 H 1091.11 3.79584 0.738412 0
M  V30 11273 H 1092.8 4.03947 0.397679 0
M  V30 11274 H 1093.56 4.39038 -2.06084 0
M  V30 11275 H 1089.44 4.53229 -0.842863 0
M  V30 11276 H 1092.99 5.63323 -4.11476 0
M  V30 11277 H 1088.88 5.77289 -2.88804 0
M  V30 11278 H 1089.65 6.6527 -4.76821 0
M  V30 11279 N 1092.32 0.406567 1.52266 0
M  V30 11280 C 1093.25 -0.411314 2.29849 0
M  V30 11281 C 1094.23 -1.04838 1.33952 0
M  V30 11282 O 1095.41 -1.05788 1.62857 0
M  V30 11283 C 1092.54 -1.52961 3.11802 0
M  V30 11284 C 1091.5 -1.01768 4.15725 0
M  V30 11285 C 1090.82 -2.22938 4.86007 0
M  V30 11286 C 1092.12 -0.073515 5.22248 0
M  V30 11287 H 1093.82 0.236054 2.98468 0
M  V30 11288 H 1091.36 0.114968 1.4354 0
M  V30 11289 H 1093.31 -2.10874 3.64843 0
M  V30 11290 H 1092.04 -2.20482 2.40947 0
M  V30 11291 H 1090.7 -0.46097 3.6369 0
M  V30 11292 H 1090.35 -2.89007 4.11684 0
M  V30 11293 H 1090.05 -1.89338 5.5626 0
M  V30 11294 H 1091.57 -2.81462 5.41859 0
M  V30 11295 H 1092.98 -0.561367 5.70545 0
M  V30 11296 H 1091.38 0.173551 5.99849 0
M  V30 11297 H 1092.45 0.872524 4.76985 0
M  V30 11298 N 1093.79 -1.57004 0.136909 0
M  V30 11299 C 1094.72 -2.19262 -0.802902 0
M  V30 11300 C 1095.71 -1.13786 -1.26439 0
M  V30 11301 O 1096.89 -1.42091 -1.32377 0
M  V30 11302 C 1094.02 -2.80624 -2.04615 0
M  V30 11303 C 1092.97 -3.91839 -1.72181 0
M  V30 11304 C 1092.3 -4.4009 -3.03686 0
M  V30 11305 C 1093.6 -5.13095 -0.976249 0
M  V30 11306 H 1095.29 -2.98049 -0.28406 0
M  V30 11307 H 1092.84 -1.43364 -0.135189 0
M  V30 11308 H 1094.79 -3.22842 -2.70834 0
M  V30 11309 H 1093.52 -1.99153 -2.58855 0
M  V30 11310 H 1092.18 -3.50224 -1.08344 0
M  V30 11311 H 1091.82 -3.55454 -3.55896 0
M  V30 11312 H 1091.52 -5.15098 -2.82751 0
M  V30 11313 H 1093.05 -4.84971 -3.70993 0
M  V30 11314 H 1094.46 -5.5222 -1.54033 0
M  V30 11315 H 1092.86 -5.93801 -0.867214 0
M  V30 11316 H 1093.93 -4.84888 0.0338488 0
M  V30 11317 N 1095.27 0.136881 -1.57004 0
M  V30 11318 C 1096.52 0.846257 -1.83088 0
M  V30 11319 C 1096.83 1.81876 -0.719765 0
M  V30 11320 O 1098.04 2.57302 -0.866494 0
M  V30 11321 C 1096.5 1.55559 -3.24545 0
M  V30 11322 C 1096.1 0.624989 -4.43619 0
M  V30 11323 C 1097.85 2.25115 -3.59893 0
M  V30 11324 C 1095.76 1.33653 -5.761 0
M  V30 11325 H 1094.69 0.319768 -0.682836 0
M  V30 11326 H 1097.34 0.0989741 -1.83233 0
M  V30 11327 H 1095.72 2.34887 -3.18817 0
M  V30 11328 H 1096.89 -0.133783 -4.60606 0
M  V30 11329 H 1095.21 0.0373216 -4.16383 0
M  V30 11330 H 1097.8 2.79008 -4.56134 0
M  V30 11331 H 1098.15 3.02084 -2.86446 0
M  V30 11332 H 1098.68 1.52696 -3.67327 0
M  V30 11333 H 1095.42 0.608495 -6.5267 0
M  V30 11334 H 1094.94 2.06776 -5.63031 0
M  V30 11335 H 1096.62 1.87467 -6.19246 0
M  V30 11336 N 1096.75 1.52266 0.40654 0
M  V30 11337 C 1097.7 1.76409 1.516 0
M  V30 11338 C 1098.69 0.631311 1.57197 0
M  V30 11339 O 1099.9 0.813413 1.60573 0
M  V30 11340 H 1096.27 0.557904 0.50423 0
M  V30 11341 H 1098.24 2.69351 1.28424 0
M  V30 11342 C 1096.99 1.93415 2.88939 0
M  V30 11343 H 1096.32 2.8 2.85377 0
M  V30 11344 H 1097.76 2.14306 3.65854 0
M  V30 11345 C 1096.22 0.701938 3.29506 0
M  V30 11346 O 1096.75 -0.128965 4.01493 0
M  V30 11347 N 1094.95 0.537089 2.85594 0
M  V30 11348 H 1094.5 1.21435 2.27181 0
M  V30 11349 H 1094.46 -0.286055 3.13096 0
M  V30 11350 N 1098.23 -0.663929 1.42933 0
M  V30 11351 C 1099.46 -1.45192 1.474 0
M  V30 11352 C 1099.87 -1.88592 0.0886014 0
M  V30 11353 O 1099.23 -1.58824 -0.898962 0
M  V30 11354 C 1099.28 -2.69394 2.41059 0
M  V30 11355 O 1099 -2.27812 3.7421 0
M  V30 11356 C 1100.5 -3.62855 2.54659 0
M  V30 11357 H 1097.72 -0.446394 0.500973 0
M  V30 11358 H 1100.27 -0.814875 1.87563 0
M  V30 11359 H 1098.42 -3.29262 2.0412 0
M  V30 11360 H 1098.83 -3.08095 4.24474 0
M  V30 11361 H 1100.31 -4.46698 3.24291 0
M  V30 11362 H 1100.79 -4.09487 1.58799 0
M  V30 11363 H 1101.39 -3.08874 2.92364 0
M  V30 11364 N 1099.71 -1.29285 -0.901281 0
M  V30 11365 C 1100.93 -1.20169 -1.69039 0
M  V30 11366 C 1101.36 0.234509 -1.86632 0
M  V30 11367 O 1100.71 1.16935 -1.38549 0
M  V30 11368 C 1100.76 -1.91852 -3.05328 0
M  V30 11369 O 1099.87 -1.23448 -3.9349 0
M  V30 11370 H 1099.21 -0.416486 -0.517141 0
M  V30 11371 H 1101.74 -1.70826 -1.12603 0
M  V30 11372 H 1101.75 -2.00244 -3.5548 0
M  V30 11373 H 1100.42 -2.96313 -2.91841 0
M  V30 11374 H 1099 -1.23303 -3.51924 0
M  V30 11375 N 1101.18 1.11143 -1.11736 0
M  V30 11376 C 1102.41 1.87285 -0.891007 0
M  V30 11377 C 1102.83 1.79758 0.553971 0
M  V30 11378 O 1102.19 1.16221 1.39149 0
M  V30 11379 C 1102.24 3.33924 -1.36114 0
M  V30 11380 O 1101.34 4.08917 -0.534851 0
M  V30 11381 H 1100.69 0.581418 -0.320701 0
M  V30 11382 H 1103.22 1.40469 -1.4876 0
M  V30 11383 H 1103.23 3.84772 -1.35701 0
M  V30 11384 H 1101.9 3.38719 -2.41334 0
M  V30 11385 H 1100.48 3.67954 -0.605355 0
M  V30 11386 N 1102.66 0.908147 1.28804 0
M  V30 11387 C 1103.91 0.534332 1.94494 0
M  V30 11388 C 1104.22 -0.92552 1.72318 0
M  V30 11389 O 1105.43 -1.40724 2.32183 0
M  V30 11390 C 1103.89 0.904748 3.48342 0
M  V30 11391 C 1103.49 2.38394 3.79305 0
M  V30 11392 C 1105.24 0.601249 4.2022 0
M  V30 11393 C 1103.15 2.69478 5.26437 0
M  V30 11394 H 1102.08 0.196107 0.728051 0
M  V30 11395 H 1104.73 1.1063 1.46401 0
M  V30 11396 H 1103.11 0.261624 3.95135 0
M  V30 11397 H 1104.28 3.07333 3.43341 0
M  V30 11398 H 1102.6 2.65733 3.20586 0
M  V30 11399 H 1105.19 0.810225 5.28526 0
M  V30 11400 H 1105.54 -0.460669 4.13743 0
M  V30 11401 H 1106.07 1.20259 3.79187 0
M  V30 11402 H 1102.81 3.74501 5.37986 0
M  V30 11403 H 1102.33 2.05171 5.63618 0
M  V30 11404 H 1104.01 2.56187 5.94119 0
M  V30 11405 N 1104.14 -1.42577 0.671525 0
M  V30 11406 C 1105.07 -2.33499 0.00506984 0
M  V30 11407 C 1106.05 -1.50497 -0.792763 0
M  V30 11408 O 1107.24 -1.79109 -0.750574 0
M  V30 11409 C 1104.37 -3.34077 -0.949194 0
M  V30 11410 C 1103.32 -4.27208 -0.260187 0
M  V30 11411 C 1102.65 -5.17968 -1.32716 0
M  V30 11412 C 1103.95 -5.15192 0.858772 0
M  V30 11413 H 1105.64 -2.89477 0.764407 0
M  V30 11414 H 1103.19 -1.39191 0.369043 0
M  V30 11415 H 1105.14 -3.96594 -1.42448 0
M  V30 11416 H 1103.86 -2.76396 -1.73991 0
M  V30 11417 H 1102.52 -3.66082 0.194834 0
M  V30 11418 H 1102.17 -4.56615 -2.10979 0
M  V30 11419 H 1101.87 -5.81104 -0.871293 0
M  V30 11420 H 1103.39 -5.83359 -1.80345 0
M  V30 11421 H 1104.81 -5.71412 0.464844 0
M  V30 11422 H 1103.21 -5.87144 1.24023 0
M  V30 11423 H 1104.28 -4.53787 1.70895 0
M  V30 11424 N 1105.62 -0.414636 -1.52048 0
M  V30 11425 C 1106.53 0.414861 -2.30903 0
M  V30 11426 C 1107.54 1.04855 -1.38858 0
M  V30 11427 O 1108.72 1.04886 -1.71933 0
M  V30 11428 C 1105.79 1.51356 -3.11917 0
M  V30 11429 C 1104.85 0.902359 -4.19709 0
M  V30 11430 C 1104.08 1.9487 -4.96852 0
M  V30 11431 O 1104.3 3.16766 -4.74358 0
M  V30 11432 O 1103.24 1.55186 -5.8155 0
M  V30 11433 H 1107.06 -0.228251 -3.02841 0
M  V30 11434 H 1104.65 -0.177704 -1.48339 0
M  V30 11435 H 1106.53 2.15127 -3.62351 0
M  V30 11436 H 1105.2 2.14117 -2.42767 0
M  V30 11437 H 1104.11 0.22721 -3.73409 0
M  V30 11438 H 1105.44 0.318587 -4.91168 0
M  V30 11439 N 1107.1 1.56929 -0.145233 0
M  V30 11440 C 1108.03 2.19685 0.791263 0
M  V30 11441 C 1109.01 1.14455 1.25833 0
M  V30 11442 O 1110.19 1.42791 1.31622 0
M  V30 11443 C 1107.32 2.81705 2.03124 0
M  V30 11444 C 1106.28 3.92746 1.70101 0
M  V30 11445 C 1105.6 4.41694 3.01347 0
M  V30 11446 C 1106.9 5.13606 0.949025 0
M  V30 11447 H 1108.6 2.98196 0.26825 0
M  V30 11448 H 1106.14 1.43434 0.127584 0
M  V30 11449 H 1108.1 3.24273 2.69119 0
M  V30 11450 H 1106.82 2.00523 2.57795 0
M  V30 11451 H 1105.48 3.50794 1.06486 0
M  V30 11452 H 1105.13 3.57336 3.54006 0
M  V30 11453 H 1104.83 5.1659 2.80016 0
M  V30 11454 H 1106.35 4.86931 3.68416 0
M  V30 11455 H 1107.76 5.53029 1.51102 0
M  V30 11456 H 1106.16 5.94252 0.835711 0
M  V30 11457 H 1107.23 4.84863 -0.0595631 0
M  V30 11458 N 1108.58 -0.128553 1.57075 0
M  V30 11459 C 1109.53 -1.16373 1.96065 0
M  V30 11460 C 1110.51 -1.37579 0.834323 0
M  V30 11461 O 1111.7 -1.38831 1.09795 0
M  V30 11462 C 1108.83 -2.49276 2.36043 0
M  V30 11463 C 1107.92 -2.31586 3.55287 0
M  V30 11464 N 1108.31 -1.83688 4.71267 0
M  V30 11465 C 1106.61 -2.62275 3.60732 0
M  V30 11466 C 1107.31 -1.79479 5.53319 0
M  V30 11467 N 1106.28 -2.23474 4.95541 0
M  V30 11468 H 1110.08 -0.785792 2.832 0
M  V30 11469 H 1107.6 -0.33641 1.58877 0
M  V30 11470 H 1109.6 -3.24134 2.62188 0
M  V30 11471 H 1108.26 -2.87837 1.50267 0
M  V30 11472 H 1109.27 -1.53376 4.94668 0
M  V30 11473 H 1105.94 -3.04586 2.85541 0
M  V30 11474 H 1107.33 -1.43781 6.56336 0
M  V30 11475 N 1110.05 -1.5248 -0.398459 0
M  V30 11476 C 1111.47 -1.4152 -0.737854 0
M  V30 11477 C 1111.67 -0.528122 -1.94456 0
M  V30 11478 O 1110.73 0.00203799 -2.525 0
M  V30 11479 C 1112.04 -2.8422 -0.9818 0
M  V30 11480 C 1113.59 -2.93635 -1.08386 0
M  V30 11481 C 1114.06 -4.37327 -1.3605 0
M  V30 11482 N 1115.55 -4.40609 -1.42892 0
M  V30 11483 C 1116.29 -5.48863 -1.65944 0
M  V30 11484 N 1115.78 -6.67217 -1.86529 0
M  V30 11485 N 1117.58 -5.36393 -1.68046 0
M  V30 11486 H 1109.73 -2.08681 0.395705 0
M  V30 11487 H 1111.99 -0.941023 0.114801 0
M  V30 11488 H 1111.7 -3.51302 -0.167358 0
M  V30 11489 H 1111.57 -3.25907 -1.89907 0
M  V30 11490 H 1113.96 -2.26728 -1.88888 0
M  V30 11491 H 1114.04 -2.5539 -0.144714 0
M  V30 11492 H 1113.68 -5.04797 -0.56061 0
M  V30 11493 H 1113.61 -4.73116 -2.31233 0
M  V30 11494 H 1116.1 -3.55298 -1.2873 0
M  V30 11495 H 1116.42 -7.45498 -2.03599 0
M  V30 11496 H 1114.76 -6.70263 -1.83773 0
M  V30 11497 H 1117.95 -4.42903 -1.51509 0
M  V30 11498 H 1118.13 -6.2083 -1.85672 0
M  V30 11499 N 1111.53 0.65634 -1.43283 0
M  V30 11500 C 1112.46 1.78184 -1.44164 0
M  V30 11501 C 1113.48 1.59249 -0.338177 0
M  V30 11502 O 1114.67 1.68027 -0.60242 0
M  V30 11503 C 1111.77 3.15566 -1.23577 0
M  V30 11504 C 1110.94 3.61187 -2.46704 0
M  V30 11505 C 1110 4.77361 -2.21388 0
M  V30 11506 O 1109.02 4.8696 -2.94718 0
M  V30 11507 N 1110.23 5.67351 -1.22855 0
M  V30 11508 H 1112.99 1.77907 -2.41183 0
M  V30 11509 H 1110.55 0.840076 -1.38399 0
M  V30 11510 H 1112.54 3.90968 -1.04529 0
M  V30 11511 H 1111.11 3.10633 -0.350155 0
M  V30 11512 H 1110.33 2.76263 -2.81198 0
M  V30 11513 H 1111.62 3.88413 -3.28652 0
M  V30 11514 H 1111.02 5.62265 -0.622417 0
M  V30 11515 H 1109.58 6.42487 -1.09791 0
M  V30 11516 N 1113.01 1.29761 0.894412 0
M  V30 11517 C 1113.94 1.17902 2.01547 0
M  V30 11518 C 1114.92 0.0719402 1.69948 0
M  V30 11519 O 1116.11 0.252338 1.92554 0
M  V30 11520 C 1113.24 0.860262 3.36477 0
M  V30 11521 C 1112.19 1.92424 3.82305 0
M  V30 11522 C 1111.52 1.45868 5.14419 0
M  V30 11523 C 1112.82 3.33391 4.02054 0
M  V30 11524 H 1114.51 2.11688 2.11727 0
M  V30 11525 H 1112.06 1.01916 1.01731 0
M  V30 11526 H 1114.01 0.763987 4.14417 0
M  V30 11527 H 1112.73 -0.113289 3.26403 0
M  V30 11528 H 1111.39 2.00999 3.06586 0
M  V30 11529 H 1111.04 0.473654 5.00765 0
M  V30 11530 H 1110.74 2.17028 5.46052 0
M  V30 11531 H 1112.26 1.37601 5.94894 0
M  V30 11532 H 1113.68 3.27628 4.7046 0
M  V30 11533 H 1112.07 4.02555 4.4505 0
M  V30 11534 H 1113.14 3.75978 3.06216 0
M  V30 11535 N 1114.49 -1.10549 1.12324 0
M  V30 11536 C 1115.44 -2.18944 0.785248 0
M  V30 11537 C 1116.43 -1.67867 -0.227389 0
M  V30 11538 O 1117.64 -1.79796 -0.0857162 0
M  V30 11539 H 1114.01 -0.713976 0.236098 0
M  V30 11540 H 1115.98 -2.44692 1.70788 0
M  V30 11541 C 1114.73 -3.46765 0.25485 0
M  V30 11542 H 1114.05 -3.86428 1.02534 0
M  V30 11543 H 1115.49 -4.23962 0.0566526 0
M  V30 11544 C 1113.95 -3.21185 -1.01695 0
M  V30 11545 O 1114.48 -3.42745 -2.09497 0
M  V30 11546 N 1112.69 -2.7486 -0.943423 0
M  V30 11547 H 1112.24 -2.57515 -0.0660366 0
M  V30 11548 H 1112.19 -2.58122 -1.795 0
M  V30 11549 N 1115.97 -0.914965 -1.28321 0
M  V30 11550 C 1117.19 -0.564654 -1.99046 0
M  V30 11551 C 1117.61 0.854345 -1.68364 0
M  V30 11552 O 1116.97 1.56605 -0.937068 0
M  V30 11553 C 1117.02 -0.765663 -3.53299 0
M  V30 11554 O 1116.74 -2.12883 -3.829 0
M  V30 11555 C 1118.24 -0.422347 -4.41283 0
M  V30 11556 H 1115.46 -0.215158 -0.635569 0
M  V30 11557 H 1118 -1.2285 -1.63487 0
M  V30 11558 H 1116.16 -0.148795 -3.87114 0
M  V30 11559 H 1116.57 -2.1694 -4.77533 0
M  V30 11560 H 1118.05 -0.613757 -5.48577 0
M  V30 11561 H 1118.52 0.641484 -4.3449 0
M  V30 11562 H 1119.13 -1.01681 -4.12966 0
M  V30 11563 N 1117.44 1.42219 -0.679077 0
M  V30 11564 C 1118.67 2.06333 -0.210097 0
M  V30 11565 C 1119.09 1.50703 1.12562 0
M  V30 11566 O 1118.45 0.627241 1.70104 0
M  V30 11567 C 1118.5 3.60243 -0.160322 0
M  V30 11568 O 1117.6 4.03122 0.869872 0
M  V30 11569 H 1116.94 0.655362 -0.106754 0
M  V30 11570 H 1119.47 1.82278 -0.929294 0
M  V30 11571 H 1119.48 4.07997 0.014384 0
M  V30 11572 H 1118.16 4.00106 -1.13526 0
M  V30 11573 H 1116.74 3.66907 0.66586 0
M  V30 11574 N 1118.92 0.422693 1.51826 0
M  V30 11575 C 1120.2 -0.20786 1.94492 0
M  V30 11576 C 1120.58 -1.61414 1.36047 0
M  V30 11577 O 1119.93 -2.21987 0.541657 0
M  V30 11578 C 1120.14 -0.200457 3.48424 0
M  V30 11579 C 1121.48 -0.413199 4.22585 0
M  V30 11580 O 1122.51 -0.27922 3.55104 0
M  V30 11581 O 1121.37 -0.678469 5.42272 0
M  V30 11582 H 1118.46 -0.137851 0.81543 0
M  V30 11583 H 1121.01 0.479617 1.62781 0
M  V30 11584 H 1119.78 0.783263 3.83381 0
M  V30 11585 H 1119.4 -0.931464 3.86535 0
M  V30 11586 N 1120.4 -1.5685 0.153553 0
M  V30 11587 C 1121.31 -2.20664 -0.796528 0
M  V30 11588 C 1122.33 -1.19289 -1.26674 0
M  V30 11589 O 1123.5 -1.51889 -1.32256 0
M  V30 11590 C 1120.57 -2.82088 -2.01561 0
M  V30 11591 C 1119.63 -3.9861 -1.59401 0
M  V30 11592 C 1118.86 -4.57096 -2.75498 0
M  V30 11593 O 1119.08 -4.14462 -3.9189 0
M  V30 11594 O 1118.02 -5.47254 -2.50593 0
M  V30 11595 H 1121.84 -3.02376 -0.283282 0
M  V30 11596 H 1119.43 -1.49218 -0.0737927 0
M  V30 11597 H 1121.31 -3.21103 -2.72893 0
M  V30 11598 H 1119.99 -2.03385 -2.51826 0
M  V30 11599 H 1118.89 -3.64299 -0.850725 0
M  V30 11600 H 1120.23 -4.78853 -1.13845 0
M  V30 11601 N 1121.88 0.120221 -1.57141 0
M  V30 11602 C 1122.83 1.16654 -2.01233 0
M  V30 11603 C 1123.82 1.42943 -0.909053 0
M  V30 11604 O 1125.03 1.4292 -1.09426 0
M  V30 11605 H 1121.4 0.393289 -0.640958 0
M  V30 11606 H 1123.37 0.768156 -2.88343 0
M  V30 11607 C 1122.12 2.4854 -2.43152 0
M  V30 11608 H 1121.44 2.29149 -3.27614 0
M  V30 11609 H 1122.88 3.20315 -2.77802 0
M  V30 11610 C 1121.34 3.1103 -1.29468 0
M  V30 11611 O 1121.87 3.97042 -0.609982 0
M  V30 11612 N 1120.08 2.70888 -1.05205 0
M  V30 11613 H 1119.63 2.01039 -1.61062 0
M  V30 11614 H 1119.58 3.13028 -0.293347 0
M  V30 11615 N 1123.36 1.52689 0.390367 0
M  V30 11616 C 1124.6 1.67335 1.13329 0
M  V30 11617 C 1124.93 0.415068 1.90531 0
M  V30 11618 O 1124.2 -0.570504 1.87409 0
M  V30 11619 H 1122.78 0.616821 0.421356 0
M  V30 11620 H 1125.44 1.89799 0.443 0
M  V30 11621 H 1124.53 2.52314 1.83696 0
M  V30 11622 N 1124.83 -0.648732 1.43629 0
M  V30 11623 C 1125.78 -1.76145 1.49136 0
M  V30 11624 C 1126.75 -1.62569 0.340649 0
M  V30 11625 O 1127.94 -1.82748 0.548435 0
M  V30 11626 C 1125.08 -3.14321 1.42466 0
M  V30 11627 C 1124.19 -3.38999 2.67776 0
M  V30 11628 C 1123.32 -4.67047 2.53062 0
M  V30 11629 C 1122.36 -4.84845 3.7362 0
M  V30 11630 N 1121.5 -6.04155 3.57689 0
M  V30 11631 H 1126.34 -1.70774 2.44213 0
M  V30 11632 H 1123.88 -0.833311 1.2122 0
M  V30 11633 H 1125.84 -3.94206 1.36592 0
M  V30 11634 H 1124.47 -3.18751 0.509666 0
M  V30 11635 H 1123.52 -2.53179 2.83909 0
M  V30 11636 H 1124.83 -3.48035 3.57314 0
M  V30 11637 H 1123.98 -5.55066 2.44922 0
M  V30 11638 H 1122.72 -4.60339 1.61056 0
M  V30 11639 H 1121.73 -3.95261 3.82163 0
M  V30 11640 H 1122.95 -4.9338 4.6664 0
M  V30 11641 H 1120.9 -5.9857 2.6842 0
M  V30 11642 H 1120.82 -6.14169 4.40832 0
M  V30 11643 H 1122.08 -6.94782 3.53409 0
M  V30 11644 N 1126.31 -1.30234 -0.887518 0
M  V30 11645 C 1127.22 -1.18316 -2.02579 0
M  V30 11646 C 1128.24 -0.103658 -1.73691 0
M  V30 11647 O 1129.41 -0.3181 -1.98872 0
M  V30 11648 C 1126.48 -0.873222 -3.35523 0
M  V30 11649 C 1125.54 -2.03783 -3.7785 0
M  V30 11650 C 1124.77 -1.74258 -5.0445 0
M  V30 11651 O 1125 -0.669295 -5.6646 0
M  V30 11652 O 1123.93 -2.59423 -5.43124 0
M  V30 11653 H 1127.76 -2.13933 -2.15561 0
M  V30 11654 H 1125.34 -1.09803 -1.0131 0
M  V30 11655 H 1127.22 -0.715463 -4.15282 0
M  V30 11656 H 1125.9 0.053056 -3.23657 0
M  V30 11657 H 1124.81 -2.2509 -2.98806 0
M  V30 11658 H 1126.14 -2.94574 -3.94318 0
M  V30 11659 N 1127.79 1.09952 -1.12909 0
M  V30 11660 C 1128.7 2.19999 -0.81471 0
M  V30 11661 C 1129.72 1.72864 0.19851 0
M  V30 11662 O 1130.89 2.01376 0.0308832 0
M  V30 11663 C 1127.96 3.45573 -0.279363 0
M  V30 11664 C 1127.02 4.07417 -1.35314 0
M  V30 11665 C 1126.25 5.26996 -0.843247 0
M  V30 11666 O 1126.47 5.69495 0.321164 0
M  V30 11667 O 1125.41 5.79826 -1.61511 0
M  V30 11668 H 1129.23 2.49333 -1.73398 0
M  V30 11669 H 1126.82 1.18784 -0.906128 0
M  V30 11670 H 1128.7 4.21398 0.0140531 0
M  V30 11671 H 1127.38 3.17854 0.612401 0
M  V30 11672 H 1126.28 3.33253 -1.6998 0
M  V30 11673 H 1127.62 4.39349 -2.21885 0
M  V30 11674 N 1129.27 0.921757 1.27833 0
M  V30 11675 C 1130.2 0.433466 2.29441 0
M  V30 11676 C 1131.18 -0.503133 1.62489 0
M  V30 11677 O 1132.36 -0.409156 1.89841 0
M  V30 11678 C 1129.49 -0.320029 3.45822 0
M  V30 11679 C 1128.45 0.528178 4.24728 0
M  V30 11680 C 1127.77 -0.354132 5.33526 0
M  V30 11681 C 1129.07 1.78959 4.90684 0
M  V30 11682 H 1130.77 1.28263 2.70535 0
M  V30 11683 H 1128.31 0.618197 1.30055 0
M  V30 11684 H 1130.27 -0.672526 4.15999 0
M  V30 11685 H 1128.99 -1.20317 3.0363 0
M  V30 11686 H 1127.65 0.863302 3.5629 0
M  V30 11687 H 1127.3 -1.23605 4.87576 0
M  V30 11688 H 1127 0.209855 5.87225 0
M  V30 11689 H 1128.52 -0.702333 6.06547 0
M  V30 11690 H 1129.94 1.50552 5.53179 0
M  V30 11691 H 1128.33 2.29661 5.54415 0
M  V30 11692 H 1129.4 2.51265 4.14721 0
M  V30 11693 N 1130.75 -1.41857 0.686609 0
M  V30 11694 C 1131.99 -2.01368 0.213801 0
M  V30 11695 C 1132.32 -1.5434 -1.18361 0
M  V30 11696 O 1131.58 -0.741447 -1.81111 0
M  V30 11697 C 1131.88 -3.56783 0.209951 0
M  V30 11698 C 1131.54 -4.23288 1.55365 0
M  V30 11699 C 1130.2 -4.41169 1.92154 0
M  V30 11700 C 1132.56 -4.6066 2.43807 0
M  V30 11701 C 1129.88 -4.93697 3.16986 0
M  V30 11702 C 1132.24 -5.14573 3.67963 0
M  V30 11703 C 1130.9 -5.30667 4.04906 0
M  V30 11704 H 1130.17 -0.736858 0.0782352 0
M  V30 11705 H 1132.82 -1.69879 0.88393 0
M  V30 11706 H 1131.12 -3.88009 -0.543712 0
M  V30 11707 H 1132.82 -4.00625 -0.173267 0
M  V30 11708 H 1129.41 -4.09738 1.2575 0
M  V30 11709 H 1133.59 -4.46507 2.16668 0
M  V30 11710 H 1128.85 -5.04342 3.45615 0
M  V30 11711 H 1133.02 -5.42473 4.36687 0
M  V30 11712 H 1130.65 -5.71133 5.01709 0
M  V30 11713 N 1132.22 -0.430739 -1.51599 0
M  V30 11714 C 1133.45 0.139197 -2.06932 0
M  V30 11715 C 1133.87 1.3626 -1.29672 0
M  V30 11716 O 1133.23 1.78219 -0.332836 0
M  V30 11717 C 1133.28 0.446593 -3.57824 0
M  V30 11718 O 1132.38 1.53414 -3.82803 0
M  V30 11719 H 1131.73 0.00475812 -0.663983 0
M  V30 11720 H 1134.26 -0.610171 -1.9529 0
M  V30 11721 H 1134.27 0.698972 -4.01968 0
M  V30 11722 H 1132.94 -0.447613 -4.13484 0
M  V30 11723 H 1131.52 1.27224 -3.50526 0
M  V30 11724 N 1133.7 1.56767 -0.161869 0
M  V30 11725 C 1134.63 2.20511 0.767918 0
M  V30 11726 C 1135.61 1.15783 1.24612 0
M  V30 11727 O 1136.8 1.44179 1.301 0
M  V30 11728 C 1133.93 2.83844 2.00125 0
M  V30 11729 C 1132.88 3.94528 1.65926 0
M  V30 11730 C 1132.21 4.44866 2.96646 0
M  V30 11731 C 1133.51 5.14583 0.894497 0
M  V30 11732 H 1135.2 2.98464 0.236607 0
M  V30 11733 H 1132.75 1.43561 0.112363 0
M  V30 11734 H 1134.7 3.27109 2.65664 0
M  V30 11735 H 1133.43 2.03246 2.55654 0
M  V30 11736 H 1132.08 3.51904 1.02759 0
M  V30 11737 H 1131.73 3.61071 3.50196 0
M  V30 11738 H 1131.43 5.19531 2.74521 0
M  V30 11739 H 1132.96 4.90812 3.6323 0
M  V30 11740 H 1134.37 5.54601 1.45228 0
M  V30 11741 H 1132.77 5.95105 0.772636 0
M  V30 11742 H 1133.84 4.84773 -0.110986 0
M  V30 11743 N 1135.18 -0.111886 1.57202 0
M  V30 11744 C 1136.13 -1.13688 2.00858 0
M  V30 11745 C 1137.1 -1.40752 0.881939 0
M  V30 11746 O 1138.28 -1.52498 1.14669 0
M  V30 11747 C 1135.42 -2.45641 2.42393 0
M  V30 11748 C 1134.54 -2.25452 3.68504 0
M  V30 11749 C 1133.67 -3.50686 3.9899 0
M  V30 11750 C 1132.71 -3.25685 5.18262 0
M  V30 11751 N 1131.85 -4.4314 5.44583 0
M  V30 11752 H 1136.69 -0.757611 2.88209 0
M  V30 11753 H 1134.22 -0.362582 1.42561 0
M  V30 11754 H 1136.18 -3.22627 2.64514 0
M  V30 11755 H 1134.81 -2.81447 1.58074 0
M  V30 11756 H 1133.86 -1.39349 3.53958 0
M  V30 11757 H 1135.18 -2.0296 4.55641 0
M  V30 11758 H 1134.33 -4.36087 4.21797 0
M  V30 11759 H 1133.07 -3.76216 3.10343 0
M  V30 11760 H 1132.07 -2.38675 4.95292 0
M  V30 11761 H 1133.3 -3.01518 6.08493 0
M  V30 11762 H 1131.24 -4.68778 4.58893 0
M  V30 11763 H 1131.16 -4.23778 6.26058 0
M  V30 11764 H 1132.43 -5.29654 5.71915 0
M  V30 11765 N 1136.66 -1.52894 -0.382264 0
M  V30 11766 C 1137.94 -1.58853 -1.14127 0
M  V30 11767 C 1138.32 -0.38582 -2.07544 0
M  V30 11768 O 1137.66 0.625323 -2.19777 0
M  V30 11769 C 1137.87 -2.93068 -1.89504 0
M  V30 11770 C 1139.22 -3.47048 -2.44629 0
M  V30 11771 O 1140.25 -2.94987 -1.99652 0
M  V30 11772 O 1139.1 -4.3802 -3.26804 0
M  V30 11773 H 1136.2 -0.640969 -0.522578 0
M  V30 11774 H 1138.74 -1.65231 -0.386873 0
M  V30 11775 H 1137.52 -3.72047 -1.2123 0
M  V30 11776 H 1137.14 -2.90106 -2.7189 0
M  V30 11777 N 1138.14 0.641106 -1.43971 0
M  V30 11778 C 1139.07 1.76489 -1.52885 0
M  V30 11779 C 1140.05 1.65742 -0.38258 0
M  V30 11780 O 1141.23 1.84653 -0.601397 0
M  V30 11781 C 1138.36 3.14977 -1.4631 0
M  V30 11782 C 1137.32 3.40502 -2.59311 0
M  V30 11783 C 1136.64 4.78916 -2.37789 0
M  V30 11784 C 1137.94 3.34048 -4.01509 0
M  V30 11785 H 1139.64 1.69286 -2.46946 0
M  V30 11786 H 1137.18 0.813015 -1.18853 0
M  V30 11787 H 1139.14 3.9336 -1.51149 0
M  V30 11788 H 1137.86 3.2294 -0.487599 0
M  V30 11789 H 1136.52 2.64495 -2.53846 0
M  V30 11790 H 1136.17 4.8357 -1.38454 0
M  V30 11791 H 1135.87 4.96954 -3.13545 0
M  V30 11792 H 1137.39 5.59541 -2.4443 0
M  V30 11793 H 1138.81 4.0235 -4.08396 0
M  V30 11794 H 1137.2 3.63622 -4.77388 0
M  V30 11795 H 1138.27 2.32022 -4.25786 0
M  V30 11796 N 1139.62 1.30703 0.880598 0
M  V30 11797 C 1140.84 1.22843 1.67106 0
M  V30 11798 C 1141.27 -0.204788 1.86982 0
M  V30 11799 O 1140.62 -1.14716 1.40392 0
M  V30 11800 C 1140.67 1.96685 3.02237 0
M  V30 11801 O 1139.78 1.29693 3.91476 0
M  V30 11802 H 1139.12 0.424661 0.51045 0
M  V30 11803 H 1141.65 1.72596 1.09871 0
M  V30 11804 H 1141.66 2.05874 3.52249 0
M  V30 11805 H 1140.33 3.00919 2.8709 0
M  V30 11806 H 1138.91 1.28886 3.49918 0
M  V30 11807 N 1141.09 -1.09351 1.1349 0
M  V30 11808 C 1142.02 -2.18037 0.835588 0
M  V30 11809 C 1143 -1.68856 -0.205373 0
M  V30 11810 O 1144.19 -1.94094 -0.0641357 0
M  V30 11811 C 1141.32 -3.45987 0.301661 0
M  V30 11812 C 1140.27 -4.08507 1.27696 0
M  V30 11813 C 1139.6 -5.31292 0.602758 0
M  V30 11814 C 1140.9 -4.50916 2.63575 0
M  V30 11815 H 1142.59 -2.43332 1.74441 0
M  V30 11816 H 1140.14 -1.1695 0.840166 0
M  V30 11817 H 1142.09 -4.21324 0.079928 0
M  V30 11818 H 1140.82 -3.20217 -0.642552 0
M  V30 11819 H 1139.48 -3.3519 1.4847 0
M  V30 11820 H 1139.12 -5.01802 -0.346953 0
M  V30 11821 H 1138.82 -5.74075 1.25345 0
M  V30 11822 H 1140.35 -6.09351 0.390325 0
M  V30 11823 H 1141.76 -5.17474 2.46765 0
M  V30 11824 H 1140.16 -5.04586 3.24827 0
M  V30 11825 H 1141.23 -3.63279 3.2118 0
M  V30 11826 N 1142.57 -0.928524 -1.27343 0
M  V30 11827 C 1143.99 -0.62889 -1.46687 0
M  V30 11828 C 1144.19 0.821592 -1.83989 0
M  V30 11829 O 1143.24 1.59941 -1.95385 0
M  V30 11830 C 1144.56 -1.57947 -2.55878 0
M  V30 11831 C 1146.1 -1.58778 -2.69738 0
M  V30 11832 C 1146.58 -2.52535 -3.82087 0
M  V30 11833 N 1148.07 -2.50747 -3.89462 0
M  V30 11834 C 1148.81 -3.19981 -4.75814 0
M  V30 11835 N 1148.3 -3.98598 -5.66649 0
M  V30 11836 N 1150.09 -3.08996 -4.69551 0
M  V30 11837 H 1142.25 -1.86625 -1.01414 0
M  V30 11838 H 1144.51 -0.801293 -0.50659 0
M  V30 11839 H 1144.21 -2.61427 -2.35264 0
M  V30 11840 H 1144.09 -1.3218 -3.53282 0
M  V30 11841 H 1146.48 -0.560292 -2.89732 0
M  V30 11842 H 1146.56 -1.88594 -1.72817 0
M  V30 11843 H 1146.2 -3.55395 -3.62846 0
M  V30 11844 H 1146.13 -2.20015 -4.78436 0
M  V30 11845 H 1148.62 -1.93651 -3.24511 0
M  V30 11846 H 1148.93 -4.4841 -6.29403 0
M  V30 11847 H 1147.28 -4.02701 -5.66442 0
M  V30 11848 H 1150.47 -2.4707 -3.97585 0
M  V30 11849 H 1150.64 -3.63223 -5.36631 0
M  V30 11850 N 1144.05 1.41491 -0.694123 0
M  V30 11851 C 1145.3 2.01252 -0.224477 0
M  V30 11852 C 1145.62 1.54965 1.17541 0
M  V30 11853 O 1144.88 0.751041 1.80715 0
M  V30 11854 C 1145.18 3.56666 -0.228869 0
M  V30 11855 C 1144.84 4.22458 -1.57608 0
M  V30 11856 C 1143.51 4.40144 -1.94491 0
M  V30 11857 C 1145.86 4.5936 -2.46247 0
M  V30 11858 C 1143.19 4.92009 -3.196 0
M  V30 11859 C 1145.54 5.12615 -3.70687 0
M  V30 11860 C 1144.2 5.28512 -4.07715 0
M  V30 11861 H 1143.47 0.736433 -0.0821419 0
M  V30 11862 H 1146.12 1.69408 -0.892926 0
M  V30 11863 H 1144.42 3.88292 0.523128 0
M  V30 11864 H 1146.12 4.00712 0.152019 0
M  V30 11865 H 1142.71 4.09065 -1.27921 0
M  V30 11866 H 1146.9 4.45352 -2.19032 0
M  V30 11867 H 1142.15 5.02502 -3.48285 0
M  V30 11868 H 1146.33 5.4015 -4.39558 0
M  V30 11869 H 1143.95 5.68464 -5.0473 0
M  V30 11870 N 1145.53 0.438773 1.51369 0
M  V30 11871 C 1146.94 0.0911416 1.5934 0
M  V30 11872 C 1147.14 -1.39962 1.44958 0
M  V30 11873 O 1146.2 -2.16968 1.29155 0
M  V30 11874 C 1147.51 0.612531 2.94395 0
M  V30 11875 C 1149.06 0.573098 3.07709 0
M  V30 11876 C 1149.54 1.07149 4.4529 0
M  V30 11877 N 1151.03 1.02953 4.51614 0
M  V30 11878 C 1151.76 1.38602 5.56397 0
M  V30 11879 N 1151.26 1.81543 6.68591 0
M  V30 11880 N 1153.05 1.30409 5.46763 0
M  V30 11881 H 1145.2 1.40872 1.58962 0
M  V30 11882 H 1147.46 0.580589 0.749414 0
M  V30 11883 H 1147.17 1.65562 3.10294 0
M  V30 11884 H 1147.04 0.0382375 3.77181 0
M  V30 11885 H 1149.43 -0.461006 2.91477 0
M  V30 11886 H 1149.51 1.18381 2.26759 0
M  V30 11887 H 1149.16 2.10406 4.62268 0
M  V30 11888 H 1149.09 0.437297 5.24781 0
M  V30 11889 H 1151.58 0.714208 3.7109 0
M  V30 11890 H 1151.89 2.06977 7.44567 0
M  V30 11891 H 1150.24 1.8547 6.69795 0
M  V30 11892 H 1153.43 0.967272 4.57997 0
M  V30 11893 H 1153.6 1.5852 6.28312 0
M  V30 11894 N 1147.01 -1.56678 0.170181 0
M  V30 11895 C 1147.97 -2.16698 -0.746622 0
M  V30 11896 C 1148.97 -1.11475 -1.15888 0
M  V30 11897 O 1150.16 -1.36994 -1.07602 0
M  V30 11898 C 1147.29 -2.74892 -2.01612 0
M  V30 11899 H 1148.48 -2.99061 -0.224135 0
M  V30 11900 H 1146.04 -1.56098 -0.0793761 0
M  V30 11901 H 1146.77 -1.96259 -2.58172 0
M  V30 11902 H 1146.56 -3.51896 -1.72949 0
M  V30 11903 H 1148.05 -3.21058 -2.67042 0
M  V30 11904 N 1148.48 0.103547 -1.57259 0
M  V30 11905 C 1149.43 1.14513 -2.02459 0
M  V30 11906 C 1150.43 1.4197 -0.924163 0
M  V30 11907 O 1151.63 1.41751 -1.10936 0
M  V30 11908 H 1148.01 0.386469 -0.645094 0
M  V30 11909 H 1149.98 0.737531 -2.89142 0
M  V30 11910 C 1148.73 2.45948 -2.45775 0
M  V30 11911 H 1148.05 2.25662 -3.30026 0
M  V30 11912 H 1149.49 3.17351 -2.81184 0
M  V30 11913 C 1147.95 3.09639 -1.32759 0
M  V30 11914 O 1148.48 3.96372 -0.652059 0
M  V30 11915 N 1146.68 2.69757 -1.08072 0
M  V30 11916 H 1146.23 1.9932 -1.63185 0
M  V30 11917 H 1146.19 3.127 -0.326532 0
M  V30 11918 N 1149.96 1.53094 0.37415 0
M  V30 11919 C 1151.21 1.68082 1.11495 0
M  V30 11920 C 1151.52 0.434685 1.90709 0
M  V30 11921 O 1152.73 0.464956 2.67489 0
M  V30 11922 C 1151.19 2.97101 2.03124 0
M  V30 11923 C 1150.79 4.28947 1.29262 0
M  V30 11924 C 1152.54 3.21456 2.77248 0
M  V30 11925 C 1150.44 5.4906 2.19743 0
M  V30 11926 H 1149.37 0.626238 0.419931 0
M  V30 11927 H 1152.03 1.79594 0.376588 0
M  V30 11928 H 1150.41 2.79371 2.80656 0
M  V30 11929 H 1151.58 4.57279 0.568528 0
M  V30 11930 H 1149.9 4.10968 0.670362 0
M  V30 11931 H 1152.49 4.08377 3.45155 0
M  V30 11932 H 1152.84 2.37153 3.42146 0
M  V30 11933 H 1153.37 3.3982 2.06803 0
M  V30 11934 H 1150.11 6.35815 1.59437 0
M  V30 11935 H 1149.63 5.25019 2.90027 0
M  V30 11936 H 1151.31 5.83517 2.79495 0
M  V30 11937 N 1151.44 -0.633461 1.44309 0
M  V30 11938 C 1152.69 -1.38902 1.4625 0
M  V30 11939 C 1153 -1.95354 0.0980699 0
M  V30 11940 O 1154.21 -2.715 -0.0049983 0
M  V30 11941 C 1152.66 -2.51477 2.57463 0
M  V30 11942 C 1152.27 -2.01549 4.00103 0
M  V30 11943 C 1154.02 -3.28698 2.68622 0
M  V30 11944 C 1151.92 -3.11452 5.02744 0
M  V30 11945 H 1150.85 -0.521976 0.544112 0
M  V30 11946 H 1153.5 -0.681725 1.70367 0
M  V30 11947 H 1151.89 -3.24771 2.26582 0
M  V30 11948 H 1153.06 -1.35135 4.4054 0
M  V30 11949 H 1151.37 -1.3715 3.93165 0
M  V30 11950 H 1153.97 -4.10624 3.42479 0
M  V30 11951 H 1154.31 -3.78027 1.7436 0
M  V30 11952 H 1154.85 -2.62494 2.98901 0
M  V30 11953 H 1151.59 -2.6707 5.98627 0
M  V30 11954 H 1151.11 -3.76514 4.66902 0
M  V30 11955 H 1152.79 -3.76265 5.2634 0
M  V30 11956 N 1152.92 -1.31168 -0.873655 0
M  V30 11957 C 1154.17 -1.20003 -1.62118 0
M  V30 11958 C 1154.48 0.241505 -1.94103 0
M  V30 11959 O 1155.69 0.474801 -2.67316 0
M  V30 11960 C 1154.14 -2.10055 -2.92241 0
M  V30 11961 C 1153.75 -3.59183 -2.67752 0
M  V30 11962 C 1155.49 -2.07681 -3.70228 0
M  V30 11963 C 1153.4 -4.41255 -3.93761 0
M  V30 11964 H 1152.33 -0.445564 -0.608267 0
M  V30 11965 H 1154.98 -1.55997 -0.966287 0
M  V30 11966 H 1153.36 -1.66956 -3.59085 0
M  V30 11967 H 1154.54 -4.10504 -2.09339 0
M  V30 11968 H 1152.85 -3.63496 -2.03125 0
M  V30 11969 H 1155.45 -2.66246 -4.637 0
M  V30 11970 H 1155.79 -1.06304 -4.02499 0
M  V30 11971 H 1156.33 -2.48961 -3.10263 0
M  V30 11972 H 1153.07 -5.43372 -3.66643 0
M  V30 11973 H 1152.59 -3.94694 -4.51638 0
M  V30 11974 H 1154.26 -4.53278 -4.6168 0
M  V30 11975 N 1154.4 1.08748 -1.14068 0
M  V30 11976 C 1155.34 2.17667 -0.819981 0
M  V30 11977 C 1156.34 1.68207 0.200654 0
M  V30 11978 O 1157.54 1.79909 0.0571014 0
M  V30 11979 H 1153.92 0.710129 -0.247427 0
M  V30 11980 H 1155.89 2.41944 -1.74659 0
M  V30 11981 C 1154.64 3.46315 -0.309985 0
M  V30 11982 H 1153.96 3.84748 -1.08669 0
M  V30 11983 H 1155.4 4.23818 -0.124094 0
M  V30 11984 C 1153.86 3.22762 0.965724 0
M  V30 11985 O 1154.39 3.46034 2.04018 0
M  V30 11986 N 1152.6 2.76326 0.899576 0
M  V30 11987 H 1152.14 2.57588 0.0250598 0
M  V30 11988 H 1152.1 2.60945 1.75371 0
M  V30 11989 N 1155.87 0.935264 1.26849 0
M  V30 11990 C 1157.12 0.578545 1.93642 0
M  V30 11991 C 1157.44 -0.884296 1.73796 0
M  V30 11992 O 1156.71 -1.62768 1.09011 0
M  V30 11993 H 1155.29 0.210976 0.716588 0
M  V30 11994 H 1157.96 1.1893 1.54407 0
M  V30 11995 H 1157.05 0.791268 3.01903 0
M  V30 11996 N 1157.35 -1.41121 0.701616 0
M  V30 11997 C 1158.3 -2.30765 0.040121 0
M  V30 11998 C 1159.27 -1.47436 -0.764975 0
M  V30 11999 O 1160.45 -1.76209 -0.731775 0
M  V30 12000 C 1157.59 -3.33535 -0.885903 0
M  V30 12001 C 1156.71 -4.3194 -0.0717765 0
M  V30 12002 C 1155.84 -5.21779 -0.995996 0
M  V30 12003 C 1154.88 -6.11849 -0.175133 0
M  V30 12004 N 1154.02 -6.94151 -1.05348 0
M  V30 12005 H 1158.86 -2.86772 0.810312 0
M  V30 12006 H 1156.4 -1.41233 0.411301 0
M  V30 12007 H 1158.35 -3.91675 -1.4369 0
M  V30 12008 H 1156.98 -2.79065 -1.62243 0
M  V30 12009 H 1156.04 -3.75698 0.596221 0
M  V30 12010 H 1157.35 -4.95597 0.56435 0
M  V30 12011 H 1156.5 -5.84782 -1.61601 0
M  V30 12012 H 1155.24 -4.58363 -1.66597 0
M  V30 12013 H 1154.25 -5.4789 0.457916 0
M  V30 12014 H 1155.47 -6.77322 0.491133 0
M  V30 12015 H 1153.42 -6.33338 -1.70936 0
M  V30 12016 H 1153.33 -7.54518 -0.473065 0
M  V30 12017 H 1154.6 -7.61617 -1.66012 0
M  V30 12018 N 1158.83 -0.446794 -1.51134 0
M  V30 12019 C 1160.25 -0.0995905 -1.59289 0
M  V30 12020 C 1160.45 1.39191 -1.45699 0
M  V30 12021 O 1159.5 2.1628 -1.30303 0
M  V30 12022 C 1160.82 -0.628135 -2.94066 0
M  V30 12023 C 1162.36 -0.589409 -3.074 0
M  V30 12024 C 1162.84 -1.09509 -4.44715 0
M  V30 12025 N 1164.33 -1.05347 -4.51061 0
M  V30 12026 C 1165.06 -1.41551 -5.55654 0
M  V30 12027 N 1164.56 -1.85086 -6.67619 0
M  V30 12028 N 1166.35 -1.33307 -5.46064 0
M  V30 12029 H 1158.5 -1.41713 -1.58213 0
M  V30 12030 H 1160.77 -0.584555 -0.746324 0
M  V30 12031 H 1160.47 -1.67205 -3.09411 0
M  V30 12032 H 1160.35 -0.0582398 -3.77155 0
M  V30 12033 H 1162.73 0.445541 -2.91717 0
M  V30 12034 H 1162.82 -1.19582 -2.26128 0
M  V30 12035 H 1162.46 -2.12855 -4.61146 0
M  V30 12036 H 1162.39 -0.465122 -5.24542 0
M  V30 12037 H 1164.88 -0.733877 -3.70706 0
M  V30 12038 H 1165.19 -2.10923 -7.43459 0
M  V30 12039 H 1163.54 -1.8902 -6.68802 0
M  V30 12040 H 1166.73 -0.991547 -4.57478 0
M  V30 12041 H 1166.9 -1.6185 -6.27462 0
M  V30 12042 N 1160.31 1.56586 -0.178487 0
M  V30 12043 C 1161.27 2.17091 0.73512 0
M  V30 12044 C 1162.27 1.12088 1.15295 0
M  V30 12045 O 1163.46 1.37563 1.06874 0
M  V30 12046 C 1160.59 2.75957 2.00151 0
M  V30 12047 H 1161.79 2.99176 0.208272 0
M  V30 12048 H 1159.34 1.56138 0.0710967 0
M  V30 12049 H 1160.07 1.97626 2.57127 0
M  V30 12050 H 1159.86 3.52809 1.7108 0
M  V30 12051 H 1161.35 3.2247 2.65335 0
M  V30 12052 N 1161.79 -0.095206 1.57312 0
M  V30 12053 C 1163.03 -0.798719 1.86083 0
M  V30 12054 C 1163.36 -1.78739 0.766991 0
M  V30 12055 O 1162.62 -1.9423 -0.239425 0
M  V30 12056 C 1162.92 -1.56244 3.21438 0
M  V30 12057 C 1162.58 -0.715903 4.4518 0
M  V30 12058 C 1161.24 -0.482537 4.78774 0
M  V30 12059 C 1163.6 -0.127404 5.21044 0
M  V30 12060 C 1160.92 0.349193 5.8566 0
M  V30 12061 C 1163.28 0.691649 6.28808 0
M  V30 12062 C 1161.94 0.935107 6.60918 0
M  V30 12063 H 1161.21 -0.292272 0.680924 0
M  V30 12064 H 1163.86 -0.0602105 1.91405 0
M  V30 12065 H 1162.16 -2.37251 3.118 0
M  V30 12066 H 1163.86 -2.11116 3.40927 0
M  V30 12067 H 1160.45 -0.907902 4.18874 0
M  V30 12068 H 1164.63 -0.29486 4.95423 0
M  V30 12069 H 1159.89 0.546797 6.0895 0
M  V30 12070 H 1164.06 1.15452 6.86763 0
M  V30 12071 H 1161.69 1.58139 7.4357 0
M  V30 12072 N 1163.26 -1.53291 -0.366026 0
M  V30 12073 C 1164.17 -1.82656 -1.47221 0
M  V30 12074 C 1165.19 -0.71491 -1.58635 0
M  V30 12075 O 1166.37 -1.00492 -1.74538 0
M  V30 12076 C 1163.43 -2.00995 -2.82492 0
M  V30 12077 C 1162.49 -3.24895 -2.8061 0
M  V30 12078 C 1161.73 -3.4235 -4.09429 0
M  V30 12079 O 1161.95 -2.6411 -5.05571 0
M  V30 12080 O 1160.88 -4.35702 -4.15268 0
M  V30 12081 H 1164.71 -2.76634 -1.2533 0
M  V30 12082 H 1162.29 -1.38665 -0.556084 0
M  V30 12083 H 1164.18 -2.14632 -3.62645 0
M  V30 12084 H 1162.85 -1.10207 -3.04362 0
M  V30 12085 H 1161.76 -3.16682 -1.99157 0
M  V30 12086 H 1163.09 -4.15604 -2.63694 0
M  V30 12087 N 1164.74 0.6258 -1.44643 0
M  V30 12088 C 1165.65 1.76611 -1.5442 0
M  V30 12089 C 1166.67 1.68614 -0.429576 0
M  V30 12090 O 1167.84 1.89296 -0.687686 0
M  V30 12091 C 1164.91 3.13015 -1.49071 0
M  V30 12092 C 1163.97 3.32604 -2.71428 0
M  V30 12093 C 1163.2 4.62501 -2.66325 0
M  V30 12094 O 1163.43 5.43651 -1.72626 0
M  V30 12095 O 1162.36 4.84408 -3.57258 0
M  V30 12096 H 1166.19 1.71315 -2.50769 0
M  V30 12097 H 1163.77 0.787677 -1.26949 0
M  V30 12098 H 1165.65 3.94318 -1.48631 0
M  V30 12099 H 1164.33 3.18842 -0.558686 0
M  V30 12100 H 1163.24 2.50959 -2.77435 0
M  V30 12101 H 1164.57 3.31642 -3.63695 0
M  V30 12102 N 1166.22 1.31629 0.866686 0
M  V30 12103 C 1167.13 1.21524 2.00671 0
M  V30 12104 C 1168.15 0.131277 1.73504 0
M  V30 12105 O 1169.32 0.349699 1.98341 0
M  V30 12106 C 1166.39 0.926491 3.34091 0
M  V30 12107 C 1165.45 2.09769 3.7456 0
M  V30 12108 C 1164.68 1.82262 5.01614 0
M  V30 12109 O 1164.9 0.759329 5.65323 0
M  V30 12110 O 1163.84 2.68031 5.38928 0
M  V30 12111 H 1167.66 2.17335 2.1213 0
M  V30 12112 H 1165.25 1.11401 0.995499 0
M  V30 12113 H 1167.13 0.78144 4.14091 0
M  V30 12114 H 1165.81 -0.00155829 3.237 0
M  V30 12115 H 1164.71 2.29816 2.95187 0
M  V30 12116 H 1166.05 3.0081 3.89582 0
M  V30 12117 N 1167.7 -1.08142 1.14644 0
M  V30 12118 C 1168.65 -2.15133 0.835845 0
M  V30 12119 C 1169.62 -1.64795 -0.207785 0
M  V30 12120 O 1170.8 -1.90644 -0.07711 0
M  V30 12121 C 1167.94 -3.4359 0.322456 0
M  V30 12122 C 1167.05 -4.07761 1.42671 0
M  V30 12123 C 1166.19 -5.24022 0.870281 0
M  V30 12124 C 1165.23 -5.8014 1.95202 0
M  V30 12125 N 1164.37 -6.87743 1.41257 0
M  V30 12126 H 1169.21 -2.41042 1.75222 0
M  V30 12127 H 1166.74 -1.18288 0.874428 0
M  V30 12128 H 1168.7 -4.17199 0.00657059 0
M  V30 12129 H 1167.33 -3.17958 -0.557014 0
M  V30 12130 H 1166.38 -3.31885 1.85893 0
M  V30 12131 H 1167.69 -4.45485 2.24375 0
M  V30 12132 H 1166.85 -6.04582 0.506459 0
M  V30 12133 H 1165.59 -4.87695 0.0223118 0
M  V30 12134 H 1164.59 -4.98232 2.32476 0
M  V30 12135 H 1165.82 -6.18525 2.80363 0
M  V30 12136 H 1163.76 -6.5337 0.586826 0
M  V30 12137 H 1163.68 -7.24308 2.16596 0
M  V30 12138 H 1164.95 -7.72028 1.07674 0
M  V30 12139 N 1169.18 -0.941978 -1.26351 0
M  V30 12140 C 1170.42 -0.600372 -1.94338 0
M  V30 12141 C 1170.78 0.851343 -1.7254 0
M  V30 12142 O 1170.07 1.60116 -1.0523 0
M  V30 12143 C 1170.27 -0.879481 -3.4641 0
M  V30 12144 C 1170.09 -2.35678 -3.82996 0
M  V30 12145 C 1168.86 -3.01208 -4.05712 0
M  V30 12146 C 1171.06 -3.33531 -3.91486 0
M  V30 12147 N 1169.04 -4.38942 -4.29189 0
M  V30 12148 C 1170.42 -4.56525 -4.19506 0
M  V30 12149 C 1172.47 -3.28544 -3.74117 0
M  V30 12150 C 1171.17 -5.75153 -4.31962 0
M  V30 12151 C 1173.2 -4.46498 -3.87806 0
M  V30 12152 C 1172.56 -5.68275 -4.16225 0
M  V30 12153 H 1168.66 -0.270078 -0.733881 0
M  V30 12154 H 1171.24 -1.21155 -1.52413 0
M  V30 12155 H 1169.42 -0.297345 -3.8726 0
M  V30 12156 H 1171.15 -0.499062 -4.01611 0
M  V30 12157 H 1167.9 -2.51823 -4.01101 0
M  V30 12158 H 1168.33 -5.10236 -4.44959 0
M  V30 12159 H 1172.97 -2.35451 -3.51173 0
M  V30 12160 H 1170.69 -6.68699 -4.53727 0
M  V30 12161 H 1174.27 -4.44173 -3.75768 0
M  V30 12162 H 1173.15 -6.58024 -4.26584 0
M  V30 12163 N 1170.66 1.40747 -0.709091 0
M  V30 12164 C 1171.93 1.94831 -0.173246 0
M  V30 12165 C 1172.31 1.64766 1.31967 0
M  V30 12166 O 1171.66 0.961853 2.07269 0
M  V30 12167 C 1171.87 3.45697 -0.479013 0
M  V30 12168 C 1173.22 4.22576 -0.414122 0
M  V30 12169 O 1174.24 3.53778 -0.414699 0
M  V30 12170 O 1173.1 5.45135 -0.385986 0
M  V30 12171 H 1170.2 0.826683 -0.0228947 0
M  V30 12172 H 1172.74 1.50391 -0.786178 0
M  V30 12173 H 1171.51 3.60914 -1.51185 0
M  V30 12174 H 1171.14 3.97261 0.164211 0
M  V30 12175 N 1172.13 0.454803 1.50895 0
M  V30 12176 C 1173.04 -0.353495 2.31921 0
M  V30 12177 C 1174.06 -1.01136 1.41589 0
M  V30 12178 O 1175.24 -1.00291 1.74653 0
M  V30 12179 C 1172.3 -1.43032 3.15821 0
M  V30 12180 C 1171.36 -0.790763 4.21954 0
M  V30 12181 C 1170.59 -1.81628 5.01843 0
M  V30 12182 O 1170.82 -3.04078 4.8259 0
M  V30 12183 O 1169.75 -1.39713 5.8546 0
M  V30 12184 H 1173.58 0.308463 3.02129 0
M  V30 12185 H 1171.16 0.216971 1.47816 0
M  V30 12186 H 1173.04 -2.05444 3.67927 0
M  V30 12187 H 1171.72 -2.07605 2.48358 0
M  V30 12188 H 1170.63 -0.128127 3.73881 0
M  V30 12189 H 1171.96 -0.188251 4.9184 0
M  V30 12190 N 1173.61 -1.56489 0.186789 0
M  V30 12191 C 1174.86 -1.96517 -0.45433 0
M  V30 12192 C 1175.17 -1.07618 -1.63333 0
M  V30 12193 O 1176.38 -1.37392 -2.3417 0
M  V30 12194 C 1174.84 -3.49482 -0.859685 0
M  V30 12195 C 1174.44 -4.47031 0.294572 0
M  V30 12196 C 1176.19 -3.98296 -1.46835 0
M  V30 12197 C 1174.09 -5.91254 -0.131279 0
M  V30 12198 H 1173.02 -0.733765 -0.17351 0
M  V30 12199 H 1175.68 -1.8139 0.277485 0
M  V30 12200 H 1174.06 -3.60082 -1.64793 0
M  V30 12201 H 1175.23 -4.48156 1.07205 0
M  V30 12202 H 1173.55 -4.08362 0.814197 0
M  V30 12203 H 1176.14 -5.03518 -1.79928 0
M  V30 12204 H 1176.49 -3.42123 -2.37186 0
M  V30 12205 H 1177.02 -3.90776 -0.744247 0
M  V30 12206 H 1173.76 -6.51334 0.737839 0
M  V30 12207 H 1173.28 -5.93401 -0.873786 0
M  V30 12208 H 1174.96 -6.44485 -0.569913 0
M  V30 12209 N 1175.09 0.086862 -1.5736 0
M  V30 12210 C 1176.31 0.806017 -1.91097 0
M  V30 12211 C 1176.74 1.71082 -0.78183 0
M  V30 12212 O 1176.1 1.79335 0.266175 0
M  V30 12213 C 1176.15 1.5884 -3.23732 0
M  V30 12214 O 1175.25 2.69798 -3.11902 0
M  V30 12215 H 1174.59 0.220899 -0.626179 0
M  V30 12216 H 1177.12 0.059619 -2.04513 0
M  V30 12217 H 1177.13 1.97088 -3.5724 0
M  V30 12218 H 1175.81 0.924426 -4.05496 0
M  V30 12219 H 1174.38 2.34519 -2.89923 0
M  V30 12220 N 1176.57 1.53483 0.357892 0
M  V30 12221 C 1177.82 1.69256 1.09706 0
M  V30 12222 C 1178.13 0.454888 1.90237 0
M  V30 12223 O 1179.34 0.4933 2.66981 0
M  V30 12224 C 1177.79 2.99238 1.99961 0
M  V30 12225 C 1177.4 4.30293 1.24706 0
M  V30 12226 C 1179.14 3.24378 2.73823 0
M  V30 12227 C 1177.05 5.5136 2.13907 0
M  V30 12228 H 1175.98 0.630657 0.413265 0
M  V30 12229 H 1178.63 1.79983 0.357518 0
M  V30 12230 H 1177.01 2.82332 2.77677 0
M  V30 12231 H 1178.19 4.57857 0.519995 0
M  V30 12232 H 1176.5 4.11656 0.626736 0
M  V30 12233 H 1179.1 4.12015 3.40805 0
M  V30 12234 H 1179.44 2.40769 3.39612 0
M  V30 12235 H 1179.98 3.41994 2.03187 0
M  V30 12236 H 1176.71 6.3747 1.52684 0
M  V30 12237 H 1176.23 5.28065 2.84442 0
M  V30 12238 H 1177.91 5.86448 2.7329 0
M  V30 12239 N 1178.05 -0.61812 1.44973 0
M  V30 12240 C 1179.29 -1.37468 1.48145 0
M  V30 12241 C 1179.61 -1.94628 0.120366 0
M  V30 12242 O 1178.88 -1.76548 -0.848982 0
M  V30 12243 H 1177.46 -0.510293 0.545536 0
M  V30 12244 H 1180.13 -0.726598 1.8085 0
M  V30 12245 H 1179.22 -2.19944 2.2143 0
M  V30 12246 N 1179.52 -1.32087 -0.859693 0
M  V30 12247 C 1180.75 -1.25486 -1.6513 0
M  V30 12248 C 1181.17 0.175015 -1.87284 0
M  V30 12249 O 1180.53 1.12468 -1.42199 0
M  V30 12250 C 1180.58 -2.01469 -2.9907 0
M  V30 12251 O 1179.68 -1.35904 -3.89363 0
M  V30 12252 H 1179.02 -0.432728 -0.503629 0
M  V30 12253 H 1181.55 -1.74322 -1.07112 0
M  V30 12254 H 1181.56 -2.11452 -3.4893 0
M  V30 12255 H 1180.24 -3.05448 -2.82266 0
M  V30 12256 H 1178.82 -1.34437 -3.47823 0
M  V30 12257 N 1181 1.07532 -1.15215 0
M  V30 12258 C 1181.93 2.1668 -0.870171 0
M  V30 12259 C 1182.91 1.69161 0.178483 0
M  V30 12260 O 1184.1 1.94172 0.0332489 0
M  V30 12261 C 1181.23 3.45464 -0.356666 0
M  V30 12262 C 1180.18 4.06424 -1.34179 0
M  V30 12263 C 1179.51 5.30266 -0.687206 0
M  V30 12264 C 1180.81 4.46666 -2.70715 0
M  V30 12265 H 1182.5 2.40526 -1.7829 0
M  V30 12266 H 1180.05 1.15598 -0.858665 0
M  V30 12267 H 1182 4.21144 -0.146947 0
M  V30 12268 H 1180.72 3.21199 0.591527 0
M  V30 12269 H 1179.38 3.32786 -1.53783 0
M  V30 12270 H 1179.03 5.0229 0.267077 0
M  V30 12271 H 1178.73 5.72009 -1.34462 0
M  V30 12272 H 1180.26 6.08653 -0.487218 0
M  V30 12273 H 1181.67 5.13483 -2.54966 0
M  V30 12274 H 1180.07 4.99355 -3.32813 0
M  V30 12275 H 1181.14 3.58123 -3.26919 0
M  V30 12276 N 1182.48 0.948665 1.2585 0
M  V30 12277 C 1183.9 0.652147 1.45668 0
M  V30 12278 C 1184.1 -0.792217 1.85273 0
M  V30 12279 O 1183.15 -1.56812 1.97905 0
M  V30 12280 C 1184.47 1.61998 2.53332 0
M  V30 12281 C 1186.01 1.6305 2.67178 0
M  V30 12282 C 1186.49 2.58582 3.78021 0
M  V30 12283 N 1187.98 2.56911 3.85423 0
M  V30 12284 C 1188.71 3.27511 4.70664 0
M  V30 12285 N 1188.21 4.07563 5.60236 0
M  V30 12286 N 1190 3.16427 4.64576 0
M  V30 12287 H 1182.15 1.88215 0.984325 0
M  V30 12288 H 1184.42 0.809251 0.493778 0
M  V30 12289 H 1184.12 2.65137 2.31075 0
M  V30 12290 H 1184 1.37784 3.51134 0
M  V30 12291 H 1186.38 0.606315 2.88804 0
M  V30 12292 H 1186.47 1.9132 1.69795 0
M  V30 12293 H 1186.11 3.61122 3.57146 0
M  V30 12294 H 1186.04 2.27598 4.74875 0
M  V30 12295 H 1188.53 1.9879 3.21389 0
M  V30 12296 H 1188.84 4.58367 6.22189 0
M  V30 12297 H 1187.19 4.11662 5.59964 0
M  V30 12298 H 1190.38 2.53364 3.93604 0
M  V30 12299 H 1190.55 3.71714 5.30785 0
M  V30 12300 N 1183.96 -1.40369 0.716545 0
M  V30 12301 C 1185.21 -2.00869 0.256466 0
M  V30 12302 C 1185.53 -1.56816 -1.15061 0
M  V30 12303 O 1184.79 -0.779696 -1.79497 0
M  V30 12304 C 1185.09 -3.56257 0.285583 0
M  V30 12305 C 1184.75 -4.19897 1.64309 0
M  V30 12306 C 1183.42 -4.36994 2.01469 0
M  V30 12307 C 1185.77 -4.55385 2.53524 0
M  V30 12308 C 1183.1 -4.86862 3.27387 0
M  V30 12309 C 1185.45 -5.06653 3.78795 0
M  V30 12310 C 1184.11 -5.21959 4.16071 0
M  V30 12311 H 1183.38 -0.735033 0.0938475 0
M  V30 12312 H 1186.03 -1.67966 0.919765 0
M  V30 12313 H 1184.33 -3.89075 -0.461287 0
M  V30 12314 H 1186.03 -4.00903 -0.0882496 0
M  V30 12315 H 1182.62 -4.06978 1.34413 0
M  V30 12316 H 1186.8 -4.41811 2.2609 0
M  V30 12317 H 1182.06 -4.96897 3.56235 0
M  V30 12318 H 1186.23 -5.33089 4.48095 0
M  V30 12319 H 1183.86 -5.60362 5.1371 0
M  V30 12320 N 1185.44 -0.462799 -1.50652 0
M  V30 12321 C 1186.37 0.371837 -2.26164 0
M  V30 12322 C 1187.38 0.96432 -1.31167 0
M  V30 12323 O 1188.57 0.854134 -1.56738 0
M  V30 12324 C 1185.67 1.53469 -3.0216 0
M  V30 12325 C 1184.84 1.0565 -4.24449 0
M  V30 12326 C 1183.9 2.09243 -4.82808 0
M  V30 12327 O 1182.93 1.67641 -5.43953 0
M  V30 12328 N 1184.13 3.41976 -4.69076 0
M  V30 12329 H 1186.9 -0.275476 -2.98431 0
M  V30 12330 H 1184.46 -0.293109 -1.59225 0
M  V30 12331 H 1186.45 2.22446 -3.38083 0
M  V30 12332 H 1185.02 2.08685 -2.32743 0
M  V30 12333 H 1184.24 0.192895 -3.93728 0
M  V30 12334 H 1185.53 0.714796 -5.03754 0
M  V30 12335 H 1184.92 3.78491 -4.20429 0
M  V30 12336 H 1183.48 4.06775 -5.09291 0
M  V30 12337 N 1186.91 1.56388 -0.195085 0
M  V30 12338 C 1188.16 1.97872 0.444344 0
M  V30 12339 C 1188.49 1.0819 1.61271 0
M  V30 12340 O 1187.77 0.133904 1.94039 0
M  V30 12341 C 1188.05 3.48556 0.90449 0
M  V30 12342 C 1187.9 4.49015 -0.265693 0
M  V30 12343 C 1189.22 4.02938 1.76999 0
M  V30 12344 H 1186.34 0.719413 0.160041 0
M  V30 12345 H 1188.98 1.87835 -0.286005 0
M  V30 12346 H 1187.13 3.5724 1.52682 0
M  V30 12347 H 1188.81 4.52368 -0.903363 0
M  V30 12348 H 1187.05 4.23987 -0.917462 0
M  V30 12349 H 1187.72 5.51912 0.0987834 0
M  V30 12350 H 1190.2 3.97033 1.24514 0
M  V30 12351 H 1189.07 5.08741 2.06092 0
M  V30 12352 H 1189.33 3.48197 2.72418 0
M  V30 12353 N 1188.39 -0.0785156 1.57404 0
M  V30 12354 C 1189.32 -1.09446 2.06262 0
M  V30 12355 C 1190.3 -1.40777 0.954772 0
M  V30 12356 O 1191.49 -1.5052 1.22708 0
M  V30 12357 C 1188.62 -2.40979 2.50093 0
M  V30 12358 C 1187.57 -2.24017 3.64692 0
M  V30 12359 C 1186.9 -3.60873 3.94556 0
M  V30 12360 C 1188.2 -1.66696 4.94985 0
M  V30 12361 H 1189.89 -0.687928 2.9139 0
M  V30 12362 H 1187.44 -0.329466 1.4018 0
M  V30 12363 H 1189.39 -3.12337 2.82884 0
M  V30 12364 H 1188.12 -2.83599 1.61985 0
M  V30 12365 H 1186.77 -1.55101 3.32174 0
M  V30 12366 H 1186.42 -4.01051 3.0359 0
M  V30 12367 H 1186.12 -3.50365 4.71718 0
M  V30 12368 H 1187.65 -4.33673 4.29837 0
M  V30 12369 H 1189.06 -2.27913 5.2605 0
M  V30 12370 H 1187.46 -1.66902 5.76423 0
M  V30 12371 H 1188.53 -0.627827 4.80818 0
M  V30 12372 N 1189.87 -1.5367 -0.349747 0
M  V30 12373 C 1191.12 -1.70281 -1.08853 0
M  V30 12374 C 1191.44 -0.465438 -1.89364 0
M  V30 12375 O 1190.71 0.520615 -1.88856 0
M  V30 12376 H 1189.29 -0.627775 -0.404854 0
M  V30 12377 H 1191.95 -1.90906 -0.392523 0
M  V30 12378 H 1191.05 -2.57096 -1.76941 0
M  V30 12379 N 1191.35 0.610423 -1.45298 0
M  V30 12380 C 1192.76 1.19234 -1.43667 0
M  V30 12381 C 1193.11 1.95523 -0.162794 0
M  V30 12382 O 1192.24 2.03507 0.735789 0
M  V30 12383 C 1192.83 2.16892 -2.60276 0
M  V30 12384 C 1191.39 2.70465 -2.61774 0
M  V30 12385 C 1190.54 1.45821 -2.35863 0
M  V30 12386 H 1193.49 0.399895 -1.53579 0
M  V30 12387 H 1193.51 2.99875 -2.34212 0
M  V30 12388 H 1193.02 1.61339 -3.52975 0
M  V30 12389 H 1191.12 3.29965 -1.73072 0
M  V30 12390 H 1191.23 3.15092 -3.60907 0
M  V30 12391 H 1189.6 1.74678 -1.85364 0
M  V30 12392 H 1190.38 0.921403 -3.30704 0
M  V30 12393 N 1192.83 1.32541 0.852676 0
M  V30 12394 C 1194.07 1.24532 1.62083 0
M  V30 12395 C 1194.43 -0.189531 1.91062 0
M  V30 12396 O 1195.63 -0.393382 2.65906 0
M  V30 12397 C 1193.9 2.0828 2.90438 0
M  V30 12398 S 1195.46 2.17317 3.81207 0
M  V30 12399 H 1192.28 0.443261 0.555915 0
M  V30 12400 H 1194.88 1.67413 1.00961 0
M  V30 12401 H 1193.59 3.11587 2.67099 0
M  V30 12402 H 1193.12 1.66184 3.56576 0
M  V30 12403 H 1195.13 1.32412 4.78207 0
M  V30 12404 N 1194.3 -1.0692 1.15784 0
M  V30 12405 C 1195.25 -2.12473 0.826994 0
M  V30 12406 C 1196.24 -1.59766 -0.19073 0
M  V30 12407 O 1197.43 -1.76998 0.00917115 0
M  V30 12408 C 1194.56 -3.41779 0.322847 0
M  V30 12409 C 1193.65 -4.01329 1.37098 0
M  V30 12410 N 1194.04 -4.35077 2.57957 0
M  V30 12411 C 1192.33 -4.28854 1.22475 0
M  V30 12412 C 1193.04 -4.82326 3.25171 0
M  V30 12413 N 1192.01 -4.81369 2.52556 0
M  V30 12414 H 1195.81 -2.36404 1.74614 0
M  V30 12415 H 1193.33 -1.244 1.04395 0
M  V30 12416 H 1195.32 -4.16845 0.0674576 0
M  V30 12417 H 1193.98 -3.19289 -0.590311 0
M  V30 12418 H 1195 -4.25626 2.95065 0
M  V30 12419 H 1191.67 -4.15841 0.371839 0
M  V30 12420 H 1193.06 -5.17695 4.28301 0
M  V30 12421 N 1195.78 -0.955326 -1.25345 0
M  V30 12422 C 1197.2 -0.659863 -1.4532 0
M  V30 12423 C 1197.4 0.78238 -1.85691 0
M  V30 12424 O 1196.45 1.5576 -1.98734 0
M  V30 12425 C 1197.77 -1.63339 -2.5247 0
M  V30 12426 C 1199.32 -1.64464 -2.66309 0
M  V30 12427 C 1199.79 -2.60583 -3.76644 0
M  V30 12428 N 1201.28 -2.58951 -3.84055 0
M  V30 12429 C 1202.02 -3.30002 -4.6892 0
M  V30 12430 N 1201.51 -4.10528 -5.58067 0
M  V30 12431 N 1203.31 -3.18886 -4.62891 0
M  V30 12432 H 1195.46 -1.88734 -0.97433 0
M  V30 12433 H 1197.72 -0.811858 -0.48948 0
M  V30 12434 H 1197.43 -2.66358 -2.29665 0
M  V30 12435 H 1197.3 -1.39644 -3.50399 0
M  V30 12436 H 1199.69 -0.621622 -2.88479 0
M  V30 12437 H 1199.77 -1.92218 -1.68778 0
M  V30 12438 H 1199.41 -3.63011 -3.55226 0
M  V30 12439 H 1199.34 -2.30113 -4.73662 0
M  V30 12440 H 1201.83 -2.00491 -3.20331 0
M  V30 12441 H 1202.15 -4.6166 -6.1975 0
M  V30 12442 H 1200.49 -4.14626 -5.57773 0
M  V30 12443 H 1203.68 -2.55447 -3.92255 0
M  V30 12444 H 1203.85 -3.74524 -5.28806 0
M  V30 12445 N 1197.26 1.39987 -0.723979 0
M  V30 12446 C 1198.5 2.02587 -0.271647 0
M  V30 12447 C 1198.87 1.56186 1.11669 0
M  V30 12448 O 1200.07 2.10907 1.66648 0
M  V30 12449 C 1198.34 3.55604 -0.357851 0
M  V30 12450 S 1199.9 4.38797 0.0162614 0
M  V30 12451 H 1196.71 0.702878 -0.10716 0
M  V30 12452 H 1199.32 1.70974 -0.948057 0
M  V30 12453 H 1198.02 3.86866 -1.36977 0
M  V30 12454 H 1197.55 3.91956 0.336754 0
M  V30 12455 H 1199.57 4.80564 1.23582 0
M  V30 12456 N 1198.74 0.470782 1.50404 0
M  V30 12457 C 1199.67 -0.359838 2.26358 0
M  V30 12458 C 1200.68 -0.95735 1.31676 0
M  V30 12459 O 1201.87 -0.84581 1.57189 0
M  V30 12460 C 1198.97 -1.51864 3.02969 0
M  V30 12461 C 1198.15 -1.03397 4.25003 0
M  V30 12462 C 1197.21 -2.06679 4.83911 0
M  V30 12463 O 1196.23 -1.64754 5.44835 0
M  V30 12464 N 1197.43 -3.39484 4.70883 0
M  V30 12465 H 1200.2 0.291299 2.98281 0
M  V30 12466 H 1197.76 0.301549 1.59067 0
M  V30 12467 H 1199.75 -2.2065 3.39258 0
M  V30 12468 H 1198.32 -2.07448 2.33846 0
M  V30 12469 H 1197.54 -0.172012 3.93825 0
M  V30 12470 H 1198.83 -0.68807 5.04126 0
M  V30 12471 H 1198.23 -3.76256 4.22431 0
M  V30 12472 H 1196.78 -4.04068 5.11441 0
M  V30 12473 N 1200.22 -1.56282 0.203376 0
M  V30 12474 C 1201.15 -2.15395 -0.753684 0
M  V30 12475 C 1202.13 -1.09303 -1.20381 0
M  V30 12476 O 1203.31 -1.37461 -1.28984 0
M  V30 12477 C 1200.44 -2.71954 -2.01888 0
M  V30 12478 C 1199.49 -3.9071 -1.71021 0
M  V30 12479 S 1200.32 -5.28695 -0.850999 0
M  V30 12480 C 1201.47 -5.88681 -2.12615 0
M  V30 12481 H 1201.71 -2.96237 -0.251196 0
M  V30 12482 H 1199.24 -1.54396 -0.0117238 0
M  V30 12483 H 1201.2 -3.05183 -2.74542 0
M  V30 12484 H 1199.86 -1.91138 -2.49249 0
M  V30 12485 H 1199.05 -4.28723 -2.64977 0
M  V30 12486 H 1198.65 -3.58533 -1.06442 0
M  V30 12487 H 1200.95 -6.03548 -3.07792 0
M  V30 12488 H 1201.89 -6.85096 -1.79021 0
M  V30 12489 H 1202.3 -5.17356 -2.2584 0
M  V30 12490 N 1201.7 0.070167 -1.57444 0
M  V30 12491 C 1202.94 0.767842 -1.86513 0
M  V30 12492 C 1203.26 1.78659 -0.796257 0
M  V30 12493 O 1204.46 2.53395 -0.974845 0
M  V30 12494 C 1202.92 1.41654 -3.30851 0
M  V30 12495 C 1202.53 0.436273 -4.45871 0
M  V30 12496 C 1204.27 2.09649 -3.69117 0
M  V30 12497 C 1202.18 1.09098 -5.8125 0
M  V30 12498 H 1201.11 0.290519 -0.695784 0
M  V30 12499 H 1203.76 0.0211697 -1.83488 0
M  V30 12500 H 1202.14 2.21153 -3.28493 0
M  V30 12501 H 1203.32 -0.329022 -4.59624 0
M  V30 12502 H 1201.63 -0.139314 -4.16167 0
M  V30 12503 H 1204.23 2.59411 -4.67558 0
M  V30 12504 H 1204.57 2.89663 -2.99 0
M  V30 12505 H 1205.1 1.36979 -3.73472 0
M  V30 12506 H 1201.84 0.331128 -6.54663 0
M  V30 12507 H 1201.36 1.8271 -5.71294 0
M  V30 12508 H 1203.04 1.61034 -6.2664 0
M  V30 12509 N 1203.17 1.53854 0.341593 0
M  V30 12510 C 1204.41 1.72909 1.09004 0
M  V30 12511 C 1204.78 0.48304 1.85824 0
M  V30 12512 O 1205.98 0.550651 2.63099 0
M  V30 12513 C 1204.25 2.95884 2.00468 0
M  V30 12514 S 1205.81 3.3576 2.82508 0
M  V30 12515 H 1202.63 0.608187 0.368279 0
M  V30 12516 H 1205.23 1.92001 0.368222 0
M  V30 12517 H 1203.93 3.84742 1.42836 0
M  V30 12518 H 1203.46 2.79263 2.77084 0
M  V30 12519 H 1205.48 2.89647 4.02888 0
M  V30 12520 N 1204.65 -0.602709 1.4562 0
M  V30 12521 C 1205.9 -1.35769 1.49163 0
M  V30 12522 C 1206.21 -1.95102 0.139485 0
M  V30 12523 O 1207.42 -2.71449 0.0525919 0
M  V30 12524 C 1205.88 -2.45959 2.62739 0
M  V30 12525 C 1205.48 -1.93017 4.04288 0
M  V30 12526 C 1207.23 -3.22926 2.75534 0
M  V30 12527 C 1205.13 -3.00718 5.09237 0
M  V30 12528 H 1204.06 -0.510317 0.555061 0
M  V30 12529 H 1206.72 -0.645434 1.71774 0
M  V30 12530 H 1205.1 -3.19892 2.3342 0
M  V30 12531 H 1206.27 -1.2576 4.43307 0
M  V30 12532 H 1204.59 -1.2878 3.95986 0
M  V30 12533 H 1207.18 -4.03267 3.51112 0
M  V30 12534 H 1207.53 -3.74243 1.82339 0
M  V30 12535 H 1208.06 -2.56095 3.04402 0
M  V30 12536 H 1204.8 -2.54312 6.04157 0
M  V30 12537 H 1204.32 -3.66526 4.74783 0
M  V30 12538 H 1206 -3.65016 5.34202 0
M  V30 12539 N 1206.13 -1.32992 -0.845635 0
M  V30 12540 C 1207.41 -1.14671 -1.58461 0
M  V30 12541 C 1207.79 0.289498 -2.09106 0
M  V30 12542 O 1207.13 1.28751 -1.88773 0
M  V30 12543 C 1207.34 -2.18206 -2.72373 0
M  V30 12544 C 1208.69 -2.5201 -3.41726 0
M  V30 12545 O 1209.72 -2.16821 -2.82608 0
M  V30 12546 O 1208.58 -3.12368 -4.48429 0
M  V30 12547 H 1205.67 -0.443088 -0.698285 0
M  V30 12548 H 1208.22 -1.44552 -0.888978 0
M  V30 12549 H 1206.99 -3.14707 -2.32541 0
M  V30 12550 H 1206.61 -1.89372 -3.49605 0
M  V30 12551 N 1207.61 1.06304 -1.1635 0
M  V30 12552 C 1208.54 2.13732 -0.827721 0
M  V30 12553 C 1209.55 1.61962 0.164983 0
M  V30 12554 O 1210.74 1.784 -0.0597591 0
M  V30 12555 C 1207.84 3.38239 -0.211623 0
M  V30 12556 C 1207.01 4.19325 -1.2444 0
M  V30 12557 C 1206.07 5.22193 -0.648127 0
M  V30 12558 O 1205.1 5.53755 -1.31695 0
M  V30 12559 N 1206.3 5.77742 0.565179 0
M  V30 12560 H 1209.07 2.43136 -1.75228 0
M  V30 12561 H 1206.63 1.22304 -1.06081 0
M  V30 12562 H 1208.62 4.04204 0.200306 0
M  V30 12563 H 1207.19 3.06461 0.616491 0
M  V30 12564 H 1206.41 3.49017 -1.83251 0
M  V30 12565 H 1207.7 4.70306 -1.94138 0
M  V30 12566 H 1207.1 5.54366 1.12673 0
M  V30 12567 H 1205.65 6.45284 0.919321 0
M  V30 12568 N 1209.09 0.96196 1.24836 0
M  V30 12569 C 1210.02 0.445329 2.24832 0
M  V30 12570 C 1211.03 -0.442797 1.56663 0
M  V30 12571 O 1212.22 -0.249896 1.76742 0
M  V30 12572 C 1209.32 -0.376953 3.36797 0
M  V30 12573 C 1208.49 0.499908 4.34534 0
M  V30 12574 C 1207.55 -0.265402 5.2553 0
M  V30 12575 O 1206.58 0.338707 5.68191 0
M  V30 12576 N 1207.78 -1.55654 5.59243 0
M  V30 12577 H 1210.54 1.30505 2.69793 0
M  V30 12578 H 1208.11 0.833137 1.38818 0
M  V30 12579 H 1210.1 -0.896831 3.94638 0
M  V30 12580 H 1208.67 -1.13757 2.91167 0
M  V30 12581 H 1207.89 1.20082 3.75465 0
M  V30 12582 H 1209.18 1.09814 4.96808 0
M  V30 12583 H 1208.57 -2.06916 5.265 0
M  V30 12584 H 1207.13 -2.02223 6.19636 0
M  V30 12585 N 1210.56 -1.39601 0.731392 0
M  V30 12586 C 1211.79 -2.04887 0.28789 0
M  V30 12587 C 1212.21 -1.55138 -1.076 0
M  V30 12588 O 1211.56 -0.71471 -1.67923 0
M  V30 12589 C 1211.61 -3.6044 0.276629 0
M  V30 12590 O 1211.34 -4.08358 1.58668 0
M  V30 12591 C 1212.84 -4.4292 -0.183485 0
M  V30 12592 H 1210.06 -0.658976 0.126459 0
M  V30 12593 H 1212.6 -1.78716 0.994031 0
M  V30 12594 H 1210.76 -3.85526 -0.380597 0
M  V30 12595 H 1211.17 -5.02659 1.4978 0
M  V30 12596 H 1212.64 -5.51822 -0.140207 0
M  V30 12597 H 1213.12 -4.2168 -1.22811 0
M  V30 12598 H 1213.73 -4.22976 0.444042 0
M  V30 12599 N 1212.04 -0.478751 -1.50152 0
M  V30 12600 C 1213.29 0.0734397 -2.01967 0
M  V30 12601 C 1213.61 1.39523 -1.36229 0
M  V30 12602 O 1212.88 1.89141 -0.510149 0
M  V30 12603 H 1211.46 0.0301305 -0.746392 0
M  V30 12604 H 1214.12 -0.630921 -1.84406 0
M  V30 12605 H 1213.22 0.21937 -3.11328 0
M  V30 12606 N 1213.52 1.56172 -0.211661 0
M  V30 12607 C 1214.45 2.17107 0.734657 0
M  V30 12608 C 1215.47 1.1374 1.16478 0
M  V30 12609 O 1216.65 1.40763 1.09764 0
M  V30 12610 C 1213.75 2.73182 2.00561 0
M  V30 12611 C 1212.93 4.0162 1.73264 0
M  V30 12612 C 1211.99 4.42357 2.84968 0
M  V30 12613 O 1211.01 5.09453 2.53863 0
M  V30 12614 N 1212.21 4.07223 4.13702 0
M  V30 12615 H 1214.98 2.98939 0.213475 0
M  V30 12616 H 1212.54 1.61872 -0.0302898 0
M  V30 12617 H 1214.53 2.97411 2.74461 0
M  V30 12618 H 1213.1 1.9571 2.43754 0
M  V30 12619 H 1212.32 3.85351 0.830575 0
M  V30 12620 H 1213.61 4.85426 1.52445 0
M  V30 12621 H 1213.01 3.53286 4.4182 0
M  V30 12622 H 1211.57 4.36366 4.84178 0
M  V30 12623 N 1215 -0.0618163 1.57479 0
M  V30 12624 C 1216.41 -0.416827 1.54061 0
M  V30 12625 C 1216.61 -1.78584 0.933277 0
M  V30 12626 O 1215.67 -2.46656 0.54009 0
M  V30 12627 C 1216.98 -0.348728 2.98671 0
M  V30 12628 C 1218.53 -0.428194 3.10057 0
M  V30 12629 C 1219.01 -0.389898 4.56337 0
M  V30 12630 N 1220.5 -0.449677 4.61012 0
M  V30 12631 C 1221.23 -0.442418 5.71691 0
M  V30 12632 N 1220.73 -0.389381 6.91705 0
M  V30 12633 N 1222.52 -0.489719 5.59963 0
M  V30 12634 H 1214.67 0.834487 1.9532 0
M  V30 12635 H 1216.94 0.314149 0.894435 0
M  V30 12636 H 1216.64 0.590738 3.46703 0
M  V30 12637 H 1216.52 -1.15511 3.59078 0
M  V30 12638 H 1218.9 -1.35808 2.61992 0
M  V30 12639 H 1218.98 0.406946 2.52542 0
M  V30 12640 H 1218.63 0.536186 5.05062 0
M  V30 12641 H 1218.56 -1.24271 5.11727 0
M  V30 12642 H 1221.05 -0.49451 3.74651 0
M  V30 12643 H 1221.36 -0.388042 7.71825 0
M  V30 12644 H 1219.71 -0.355918 6.94088 0
M  V30 12645 H 1222.9 -0.528915 4.65102 0
M  V30 12646 H 1223.07 -0.480592 6.46215 0
M  V30 12647 N 1216.48 -1.54033 -0.333429 0
M  V30 12648 C 1217.42 -1.83441 -1.43011 0
M  V30 12649 C 1218.42 -0.705592 -1.54006 0
M  V30 12650 O 1219.62 -0.889098 -1.56509 0
M  V30 12651 H 1216 -0.581326 -0.477037 0
M  V30 12652 H 1217.97 -2.75172 -1.15426 0
M  V30 12653 C 1216.72 -2.0698 -2.79382 0
M  V30 12654 H 1216.04 -2.93297 -2.71692 0
M  V30 12655 H 1217.48 -2.31517 -3.55212 0
M  V30 12656 C 1215.94 -0.85835 -3.25782 0
M  V30 12657 O 1216.47 -0.062739 -4.01651 0
M  V30 12658 N 1214.68 -0.672738 -2.82706 0
M  V30 12659 H 1214.22 -1.32136 -2.21128 0
M  V30 12660 H 1214.18 0.136347 -3.14104 0
M  V30 12661 N 1217.95 0.594978 -1.45938 0
M  V30 12662 C 1218.89 1.71909 -1.51591 0
M  V30 12663 C 1219.9 1.57671 -0.405416 0
M  V30 12664 O 1221.09 1.65321 -0.673144 0
M  V30 12665 C 1218.19 3.10041 -1.3685 0
M  V30 12666 C 1217.36 3.50399 -2.61801 0
M  V30 12667 C 1216.42 4.67542 -2.41435 0
M  V30 12668 O 1215.45 4.74022 -3.15106 0
M  V30 12669 N 1216.65 5.6163 -1.46808 0
M  V30 12670 H 1219.41 1.67518 -2.48511 0
M  V30 12671 H 1216.97 0.78062 -1.41838 0
M  V30 12672 H 1218.97 3.86183 -1.21017 0
M  V30 12673 H 1217.54 3.08868 -0.481589 0
M  V30 12674 H 1216.76 2.64088 -2.92662 0
M  V30 12675 H 1218.04 3.74125 -3.44831 0
M  V30 12676 H 1217.44 5.5912 -0.860333 0
M  V30 12677 H 1216 6.37252 -1.36942 0
M  V30 12678 N 1219.43 1.33438 0.838571 0
M  V30 12679 C 1220.38 1.20285 1.93689 0
M  V30 12680 C 1221.37 0.105686 1.60553 0
M  V30 12681 O 1222.56 0.333814 1.73824 0
M  V30 12682 C 1219.69 0.944544 3.3005 0
M  V30 12683 C 1218.77 2.08416 3.69356 0
M  V30 12684 N 1219.16 3.33415 3.80353 0
M  V30 12685 C 1217.46 1.99092 3.99097 0
M  V30 12686 C 1218.16 4.08159 4.14465 0
M  V30 12687 N 1217.14 3.36601 4.2685 0
M  V30 12688 H 1220.94 2.1503 2.00348 0
M  V30 12689 H 1218.46 1.2545 1.03131 0
M  V30 12690 H 1220.45 0.831242 4.08529 0
M  V30 12691 H 1219.11 0.00562273 3.247 0
M  V30 12692 H 1220.12 3.68159 3.64252 0
M  V30 12693 H 1216.8 1.12861 4.01956 0
M  V30 12694 H 1218.19 5.16027 4.30308 0
M  V30 12695 N 1220.91 -1.05686 1.16912 0
M  V30 12696 C 1222.16 -1.78862 0.955839 0
M  V30 12697 C 1222.49 -1.87257 -0.514645 0
M  V30 12698 O 1221.76 -1.36869 -1.38193 0
M  V30 12699 C 1222.05 -3.23021 1.59152 0
M  V30 12700 C 1221.9 -3.22669 3.13376 0
M  V30 12701 C 1223.22 -4.2073 1.29128 0
M  V30 12702 H 1220.34 -0.64931 0.348663 0
M  V30 12703 H 1222.98 -1.23561 1.44335 0
M  V30 12704 H 1221.13 -3.70243 1.17697 0
M  V30 12705 H 1222.8 -2.83562 3.63855 0
M  V30 12706 H 1221.05 -2.61149 3.46386 0
M  V30 12707 H 1221.72 -4.24394 3.52979 0
M  V30 12708 H 1224.19 -3.8198 1.65017 0
M  V30 12709 H 1223.07 -5.19851 1.76198 0
M  V30 12710 H 1223.33 -4.41595 0.21119 0
M  V30 12711 N 1222.39 -0.968567 -1.24324 0
M  V30 12712 C 1223.64 -0.630928 -1.9242 0
M  V30 12713 C 1223.96 0.834001 -1.75712 0
M  V30 12714 O 1223.22 1.61558 -1.10442 0
M  V30 12715 C 1223.52 -0.952762 -3.44467 0
M  V30 12716 C 1223.18 -2.40597 -3.81345 0
M  V30 12717 C 1221.85 -2.80316 -3.91122 0
M  V30 12718 C 1224.2 -3.34906 -3.99359 0
M  V30 12719 C 1221.53 -4.13383 -4.16331 0
M  V30 12720 C 1223.88 -4.67602 -4.26065 0
M  V30 12721 C 1222.54 -5.07097 -4.34061 0
M  V30 12722 H 1221.81 -0.230873 -0.704116 0
M  V30 12723 H 1224.46 -1.22022 -1.47591 0
M  V30 12724 H 1222.76 -0.281244 -3.90789 0
M  V30 12725 H 1224.46 -0.6699 -3.95365 0
M  V30 12726 H 1221.05 -2.088 -3.743 0
M  V30 12727 H 1225.23 -3.05404 -3.91206 0
M  V30 12728 H 1220.49 -4.43606 -4.20742 0
M  V30 12729 H 1224.66 -5.40646 -4.38948 0
M  V30 12730 H 1222.29 -6.10229 -4.53349 0
M  V30 12731 N 1223.87 1.39211 -0.738786 0
M  V30 12732 C 1224.8 2.29117 -0.0616489 0
M  V30 12733 C 1225.81 1.47008 0.699462 0
M  V30 12734 O 1227 1.70041 0.542998 0
M  V30 12735 C 1224.1 3.25692 0.936893 0
M  V30 12736 C 1223.27 4.3676 0.236515 0
M  V30 12737 C 1222.33 5.1362 1.1437 0
M  V30 12738 O 1221.36 5.65816 0.619762 0
M  V30 12739 N 1222.56 5.25184 2.4731 0
M  V30 12740 H 1225.33 2.8787 -0.833711 0
M  V30 12741 H 1222.89 1.50832 -0.588323 0
M  V30 12742 H 1224.88 3.73987 1.54648 0
M  V30 12743 H 1223.45 2.67943 1.61014 0
M  V30 12744 H 1222.67 3.90293 -0.553594 0
M  V30 12745 H 1223.96 5.08192 -0.248707 0
M  V30 12746 H 1223.35 4.84302 2.92349 0
M  V30 12747 H 1221.91 5.76905 3.03355 0
M  V30 12748 N 1225.34 0.486708 1.49896 0
M  V30 12749 C 1226.29 -0.299294 2.28851 0
M  V30 12750 C 1227.26 -0.973251 1.346 0
M  V30 12751 O 1228.45 -0.982678 1.63548 0
M  V30 12752 C 1225.59 -1.36624 3.16904 0
M  V30 12753 C 1224.7 -0.705492 4.262 0
M  V30 12754 C 1223.83 -1.75165 5.01488 0
M  V30 12755 C 1222.87 -1.072 6.0264 0
M  V30 12756 N 1222.01 -2.06172 6.71147 0
M  V30 12757 H 1226.85 0.380272 2.95564 0
M  V30 12758 H 1224.39 0.199377 1.45743 0
M  V30 12759 H 1226.35 -1.99666 3.66319 0
M  V30 12760 H 1224.98 -2.01476 2.52205 0
M  V30 12761 H 1224.03 0.0378757 3.80381 0
M  V30 12762 H 1225.34 -0.169774 4.98511 0
M  V30 12763 H 1224.49 -2.45749 5.547 0
M  V30 12764 H 1223.23 -2.3212 4.28919 0
M  V30 12765 H 1222.24 -0.351868 5.48673 0
M  V30 12766 H 1223.46 -0.509139 6.77189 0
M  V30 12767 H 1221.41 -2.62115 6.01358 0
M  V30 12768 H 1221.33 -1.57627 7.39385 0
M  V30 12769 H 1222.59 -2.76088 7.28969 0
M  V30 12770 N 1226.82 -1.56058 0.219941 0
M  V30 12771 C 1227.75 -2.2321 -0.685547 0
M  V30 12772 C 1228.73 -1.20328 -1.20229 0
M  V30 12773 O 1229.92 -1.48909 -1.24659 0
M  V30 12774 C 1227.05 -2.91076 -1.89452 0
M  V30 12775 C 1226 -4.00415 -1.51169 0
M  V30 12776 C 1225.33 -4.55569 -2.79931 0
M  V30 12777 C 1226.63 -5.17549 -0.702896 0
M  V30 12778 H 1228.32 -2.99136 -0.125671 0
M  V30 12779 H 1225.87 -1.43879 -0.0590043 0
M  V30 12780 H 1227.82 -3.36744 -2.53341 0
M  V30 12781 H 1226.55 -2.12594 -2.47934 0
M  V30 12782 H 1225.21 -3.55475 -0.896275 0
M  V30 12783 H 1224.85 -3.73819 -3.36553 0
M  V30 12784 H 1224.55 -5.29361 -2.55049 0
M  V30 12785 H 1226.08 -5.03955 -3.44764 0
M  V30 12786 H 1227.49 -5.59608 -1.24544 0
M  V30 12787 H 1225.89 -5.97563 -0.551234 0
M  V30 12788 H 1226.96 -4.84027 0.29083 0
M  V30 12789 N 1228.3 0.053464 -1.57509 0
M  V30 12790 C 1229.53 0.765301 -1.92764 0
M  V30 12791 C 1229.95 1.69385 -0.817943 0
M  V30 12792 O 1229.31 1.7986 0.228075 0
M  V30 12793 C 1229.36 1.51938 -3.27028 0
M  V30 12794 O 1228.46 2.63121 -3.17555 0
M  V30 12795 H 1227.8 0.207567 -0.630723 0
M  V30 12796 H 1230.33 0.0162254 -2.04594 0
M  V30 12797 H 1230.34 1.89466 -3.6134 0
M  V30 12798 H 1229.02 0.838207 -4.07366 0
M  V30 12799 H 1227.59 2.28316 -2.94832 0
M  V30 12800 N 1229.78 1.54207 0.325255 0
M  V30 12801 C 1230.69 1.86495 1.42326 0
M  V30 12802 C 1231.71 0.756718 1.56684 0
M  V30 12803 O 1232.88 1.05084 1.71812 0
M  V30 12804 C 1229.95 2.08414 2.77064 0
M  V30 12805 C 1229.01 3.32221 2.71897 0
M  V30 12806 C 1228.24 3.53085 4.00209 0
M  V30 12807 O 1228.46 2.77421 4.98391 0
M  V30 12808 O 1227.4 4.46559 4.0357 0
M  V30 12809 H 1231.22 2.79859 1.17951 0
M  V30 12810 H 1228.81 1.40091 0.519124 0
M  V30 12811 H 1230.69 2.24171 3.56827 0
M  V30 12812 H 1229.37 1.18238 3.01333 0
M  V30 12813 H 1228.27 3.21851 1.90691 0
M  V30 12814 H 1229.61 4.22449 2.52582 0
M  V30 12815 N 1231.26 -0.58723 1.46251 0
M  V30 12816 C 1232.48 -1.37661 1.55126 0
M  V30 12817 C 1232.91 -1.87123 0.191489 0
M  V30 12818 O 1232.27 -1.6131 -0.827576 0
M  V30 12819 C 1232.31 -2.54324 2.5564 0
M  V30 12820 O 1231.42 -3.55617 2.0883 0
M  V30 12821 H 1230.76 -0.410154 0.522178 0
M  V30 12822 H 1233.29 -0.712738 1.91784 0
M  V30 12823 H 1233.3 -3.01301 2.75103 0
M  V30 12824 H 1231.97 -2.17675 3.54387 0
M  V30 12825 H 1230.55 -3.15151 1.99335 0
M  V30 12826 N 1232.74 -1.33881 -0.831482 0
M  V30 12827 C 1234.15 -1.13376 -1.1233 0
M  V30 12828 C 1234.35 0.0704402 -2.01377 0
M  V30 12829 O 1233.41 0.748516 -2.4115 0
M  V30 12830 C 1234.72 -2.42484 -1.77826 0
M  V30 12831 C 1236.27 -2.4846 -1.90359 0
M  V30 12832 C 1236.74 -3.77548 -2.59272 0
M  V30 12833 N 1238.23 -3.7866 -2.66778 0
M  V30 12834 C 1238.97 -4.75258 -3.20807 0
M  V30 12835 N 1238.47 -5.82234 -3.75466 0
M  V30 12836 N 1240.26 -4.62724 -3.19128 0
M  V30 12837 H 1232.41 -2.11051 -0.238998 0
M  V30 12838 H 1234.67 -0.932893 -0.168565 0
M  V30 12839 H 1234.38 -3.30647 -1.19857 0
M  V30 12840 H 1234.25 -2.55186 -2.77777 0
M  V30 12841 H 1236.64 -1.60742 -2.47479 0
M  V30 12842 H 1236.72 -2.39693 -0.893359 0
M  V30 12843 H 1236.36 -4.65651 -2.02808 0
M  V30 12844 H 1236.29 -3.83594 -3.60781 0
M  V30 12845 H 1238.79 -3.01351 -2.28026 0
M  V30 12846 H 1239.1 -6.51968 -4.14918 0
M  V30 12847 H 1237.44 -5.85959 -3.73733 0
M  V30 12848 H 1240.63 -3.78303 -2.75688 0
M  V30 12849 H 1240.81 -5.38175 -3.60932 0
M  V30 12850 N 1234.21 1.05064 -1.1747 0
M  V30 12851 C 1235.12 2.16346 -0.907286 0
M  V30 12852 C 1236.14 1.7355 0.125013 0
M  V30 12853 O 1237.32 2.01326 -0.0545551 0
M  V30 12854 C 1234.38 3.44077 -0.425681 0
M  V30 12855 C 1233.44 4.01311 -1.52473 0
M  V30 12856 C 1232.67 5.22946 -1.06601 0
M  V30 12857 O 1232.9 5.70345 0.0793329 0
M  V30 12858 O 1231.83 5.72454 -1.85958 0
M  V30 12859 H 1235.66 2.41754 -1.83817 0
M  V30 12860 H 1233.24 1.14834 -0.955693 0
M  V30 12861 H 1235.12 4.21078 -0.164689 0
M  V30 12862 H 1233.8 3.20166 0.477037 0
M  V30 12863 H 1232.71 3.25744 -1.83961 0
M  V30 12864 H 1234.04 4.29543 -2.4032 0
M  V30 12865 N 1235.69 0.975146 1.23809 0
M  V30 12866 C 1236.92 0.658978 1.96125 0
M  V30 12867 C 1237.33 -0.773044 1.72248 0
M  V30 12868 O 1236.69 -1.51956 1.01072 0
M  V30 12869 C 1236.74 0.933355 3.49243 0
M  V30 12870 O 1236.46 2.30909 3.72307 0
M  V30 12871 C 1237.96 0.632408 4.38766 0
M  V30 12872 H 1235.18 0.245237 0.62458 0
M  V30 12873 H 1237.73 1.3051 1.5744 0
M  V30 12874 H 1235.88 0.333323 3.85963 0
M  V30 12875 H 1236.3 2.39476 4.66638 0
M  V30 12876 H 1237.77 0.874791 5.45024 0
M  V30 12877 H 1238.25 -0.433453 4.37056 0
M  V30 12878 H 1238.85 1.21268 4.07645 0
M  V30 12879 N 1237.17 -1.38817 0.746158 0
M  V30 12880 C 1238.12 -2.30521 0.113517 0
M  V30 12881 C 1239.09 -1.49795 -0.717682 0
M  V30 12882 O 1240.27 -1.78448 -0.675345 0
M  V30 12883 C 1237.41 -3.36185 -0.779343 0
M  V30 12884 C 1236.52 -4.3195 0.0656784 0
M  V30 12885 C 1235.66 -5.24684 -0.829492 0
M  V30 12886 C 1234.7 -6.12097 0.0196112 0
M  V30 12887 N 1233.84 -6.97152 -0.832107 0
M  V30 12888 H 1238.68 -2.84048 0.901136 0
M  V30 12889 H 1236.21 -1.39853 0.456025 0
M  V30 12890 H 1238.17 -3.96048 -1.31156 0
M  V30 12891 H 1236.8 -2.84085 -1.53282 0
M  V30 12892 H 1235.85 -3.73611 0.715445 0
M  V30 12893 H 1237.16 -4.93551 0.721735 0
M  V30 12894 H 1236.32 -5.89627 -1.42915 0
M  V30 12895 H 1235.06 -4.63431 -1.5193 0
M  V30 12896 H 1234.06 -5.46156 0.631991 0
M  V30 12897 H 1235.29 -6.75416 0.706369 0
M  V30 12898 H 1233.23 -6.38456 -1.507 0
M  V30 12899 H 1233.15 -7.55642 -0.232782 0
M  V30 12900 H 1234.42 -7.66513 -1.41697 0
M  V30 12901 N 1238.65 -0.49465 -1.49636 0
M  V30 12902 C 1239.89 0.0521945 -2.02733 0
M  V30 12903 C 1240.23 1.3723 -1.37411 0
M  V30 12904 O 1239.5 1.87758 -0.507642 0
M  V30 12905 C 1239.78 0.2114 -3.59479 0
M  V30 12906 C 1239.64 -1.13138 -4.35339 0
M  V30 12907 C 1240.96 0.955015 -4.29613 0
M  V30 12908 H 1238.08 0.0174946 -0.736792 0
M  V30 12909 H 1240.72 -0.644827 -1.78723 0
M  V30 12910 H 1238.87 0.805078 -3.80067 0
M  V30 12911 H 1240.54 -1.76345 -4.26263 0
M  V30 12912 H 1238.78 -1.72224 -3.98147 0
M  V30 12913 H 1239.45 -0.97336 -5.4335 0
M  V30 12914 H 1241.93 0.451575 -4.13642 0
M  V30 12915 H 1240.81 1.03524 -5.39049 0
M  V30 12916 H 1241.07 1.99724 -3.94414 0
M  V30 12917 N 1240.13 1.55939 -0.228214 0
M  V30 12918 C 1241.07 2.21957 0.69556 0
M  V30 12919 C 1242.07 1.20109 1.19458 0
M  V30 12920 O 1243.27 1.38171 1.15364 0
M  V30 12921 H 1239.65 0.711744 0.242744 0
M  V30 12922 H 1241.62 2.98177 0.115403 0
M  V30 12923 C 1240.37 2.91847 1.88999 0
M  V30 12924 H 1239.69 3.69978 1.51512 0
M  V30 12925 H 1241.13 3.4143 2.51399 0
M  V30 12926 C 1239.59 1.94683 2.74954 0
M  V30 12927 O 1240.12 1.468 3.73915 0
M  V30 12928 N 1238.33 1.62188 2.41129 0
M  V30 12929 H 1237.87 2.01322 1.60709 0
M  V30 12930 H 1237.83 0.9744 2.98919 0
M  V30 12931 N 1241.6 -0.0451101 1.57535 0
M  V30 12932 C 1242.85 -0.739114 1.88529 0
M  V30 12933 C 1243.18 -1.76208 0.823468 0
M  V30 12934 O 1242.43 -1.94893 -0.177512 0
M  V30 12935 C 1242.73 -1.45938 3.26247 0
M  V30 12936 C 1242.4 -0.57391 4.47233 0
M  V30 12937 C 1241.06 -0.329974 4.80067 0
M  V30 12938 C 1243.41 0.0384272 5.21186 0
M  V30 12939 C 1240.74 0.535339 5.84253 0
M  V30 12940 C 1243.09 0.891349 6.26289 0
M  V30 12941 C 1241.76 1.1449 6.57608 0
M  V30 12942 H 1241.03 -0.270461 0.689878 0
M  V30 12943 H 1243.67 0.000714103 1.915 0
M  V30 12944 H 1241.98 -2.27212 3.1919 0
M  V30 12945 H 1243.68 -2.00162 3.47471 0
M  V30 12946 H 1240.27 -0.774181 4.2155 0
M  V30 12947 H 1244.45 -0.137096 4.96111 0
M  V30 12948 H 1239.71 0.740253 6.06902 0
M  V30 12949 H 1243.88 1.37243 6.82743 0
M  V30 12950 H 1241.51 1.81715 7.38162 0
M  V30 12951 N 1243.08 -1.54377 -0.317073 0
M  V30 12952 C 1244.33 -1.72551 -1.05216 0
M  V30 12953 C 1244.65 -0.5055 -1.88334 0
M  V30 12954 O 1243.92 0.480439 -1.89917 0
M  V30 12955 H 1242.5 -0.636222 -0.391447 0
M  V30 12956 H 1245.16 -1.91696 -0.35194 0
M  V30 12957 H 1244.26 -2.60791 -1.71448 0
M  V30 12958 N 1244.56 0.579466 -1.4656 0
M  V30 12959 C 1245.49 1.7031 -1.51887 0
M  V30 12960 C 1246.47 1.58271 -0.372721 0
M  V30 12961 O 1247.66 1.79441 -0.577336 0
M  V30 12962 C 1244.78 3.0839 -1.40048 0
M  V30 12963 C 1243.83 3.3894 -2.58886 0
M  V30 12964 S 1244.66 3.30652 -4.21224 0
M  V30 12965 C 1245.82 4.71264 -4.119 0
M  V30 12966 H 1246.05 1.65533 -2.46954 0
M  V30 12967 H 1243.58 0.758477 -1.34486 0
M  V30 12968 H 1245.54 3.88046 -1.33905 0
M  V30 12969 H 1244.2 3.10653 -0.464048 0
M  V30 12970 H 1243.4 4.39547 -2.46605 0
M  V30 12971 H 1243 2.66858 -2.62036 0
M  V30 12972 H 1245.29 5.61722 -3.7878 0
M  V30 12973 H 1246.23 4.88602 -5.12517 0
M  V30 12974 H 1246.64 4.48266 -3.43101 0
M  V30 12975 N 1246.04 1.3432 0.824371 0
M  V30 12976 C 1247.27 1.29481 1.60992 0
M  V30 12977 C 1247.68 -0.133581 1.88728 0
M  V30 12978 O 1247.02 -1.09065 1.4782 0
M  V30 12979 C 1247.08 2.01604 2.97651 0
M  V30 12980 C 1246.75 3.50866 2.92817 0
M  V30 12981 C 1247.74 4.458 2.67504 0
M  V30 12982 C 1245.43 3.93258 3.12495 0
M  V30 12983 C 1247.42 5.81101 2.61918 0
M  V30 12984 C 1245.11 5.28659 3.06533 0
M  V30 12985 C 1246.11 6.22392 2.81278 0
M  V30 12986 O 1245.79 7.55311 2.75246 0
M  V30 12987 H 1245.53 0.446931 0.507177 0
M  V30 12988 H 1248.08 1.77484 1.03386 0
M  V30 12989 H 1246.31 1.48212 3.5717 0
M  V30 12990 H 1248 1.90073 3.58646 0
M  V30 12991 H 1248.77 4.1437 2.52037 0
M  V30 12992 H 1244.64 3.20699 3.31169 0
M  V30 12993 H 1248.19 6.54233 2.42125 0
M  V30 12994 H 1244.09 5.59709 3.21553 0
M  V30 12995 H 1244.85 7.6503 2.90984 0
M  V30 12996 N 1247.52 -1.0444 1.18026 0
M  V30 12997 C 1248.45 -2.14297 0.927314 0
M  V30 12998 C 1249.43 -1.69575 -0.13357 0
M  V30 12999 O 1250.61 -1.94191 0.0182439 0
M  V30 13000 C 1247.74 -3.44397 0.448134 0
M  V30 13001 C 1246.7 -4.02723 1.44907 0
M  V30 13002 C 1246.02 -5.28257 0.827555 0
M  V30 13003 C 1247.32 -4.39331 2.82463 0
M  V30 13004 H 1249.02 -2.35715 1.84605 0
M  V30 13005 H 1246.56 -1.13281 0.889012 0
M  V30 13006 H 1248.52 -4.20606 0.258554 0
M  V30 13007 H 1247.24 -3.22654 -0.506159 0
M  V30 13008 H 1245.9 -3.28591 1.62552 0
M  V30 13009 H 1245.55 -5.02822 -0.13381 0
M  V30 13010 H 1245.25 -5.68242 1.49581 0
M  V30 13011 H 1246.77 -6.07147 0.64842 0
M  V30 13012 H 1248.18 -5.06543 2.68491 0
M  V30 13013 H 1246.58 -4.90355 3.45936 0
M  V30 13014 H 1247.65 -3.4933 3.36299 0
M  V30 13015 N 1248.99 -0.981699 -1.2329 0
M  V30 13016 C 1249.93 -0.467781 -2.23354 0
M  V30 13017 C 1250.91 0.465814 -1.55785 0
M  V30 13018 O 1252.09 0.393959 -1.84337 0
M  V30 13019 C 1249.22 0.323133 -3.37155 0
M  V30 13020 C 1248.26 -0.554796 -4.22876 0
M  V30 13021 S 1249.1 -2.00343 -4.96612 0
M  V30 13022 C 1250.25 -1.22169 -6.13861 0
M  V30 13023 H 1250.48 -1.31573 -2.66601 0
M  V30 13024 H 1248.02 -0.787793 -1.3279 0
M  V30 13025 H 1249.98 0.773448 -4.03148 0
M  V30 13026 H 1248.64 1.14622 -2.92439 0
M  V30 13027 H 1247.83 0.0531667 -5.03972 0
M  V30 13028 H 1247.43 -0.94141 -3.61958 0
M  V30 13029 H 1249.72 -0.483668 -6.75771 0
M  V30 13030 H 1250.67 -2.00752 -6.79046 0
M  V30 13031 H 1251.07 -0.739905 -5.5963 0
M  V30 13032 N 1250.47 1.3842 -0.753509 0
M  V30 13033 C 1251.42 2.27774 -0.101443 0
M  V30 13034 C 1252.41 1.45196 0.693322 0
M  V30 13035 O 1253.6 1.67931 0.55929 0
M  V30 13036 C 1250.73 3.34064 0.790977 0
M  V30 13037 C 1249.81 4.24099 -0.010633 0
M  V30 13038 N 1250.2 4.94845 -1.047 0
M  V30 13039 C 1248.5 4.45476 0.216193 0
M  V30 13040 C 1249.2 5.61164 -1.53199 0
M  V30 13041 N 1248.18 5.36956 -0.847304 0
M  V30 13042 H 1251.98 2.79935 -0.895188 0
M  V30 13043 H 1249.5 1.51321 -0.589545 0
M  V30 13044 H 1251.49 3.96965 1.27375 0
M  V30 13045 H 1250.15 2.83461 1.58367 0
M  V30 13046 H 1251.16 4.97801 -1.42879 0
M  V30 13047 H 1247.84 4.05781 0.982238 0
M  V30 13048 H 1249.23 6.27756 -2.39525 0
M  V30 13049 N 1251.95 0.502579 1.49372 0
M  V30 13050 C 1252.91 -0.263993 2.27675 0
M  V30 13051 C 1253.91 -0.892538 1.33755 0
M  V30 13052 O 1255.1 -0.756826 1.56901 0
M  V30 13053 C 1252.24 -1.37895 3.11765 0
M  V30 13054 H 1253.43 0.423132 2.969 0
M  V30 13055 H 1250.98 0.257595 1.54163 0
M  V30 13056 H 1251.72 -2.10018 2.47109 0
M  V30 13057 H 1251.5 -0.933694 3.80821 0
M  V30 13058 H 1252.99 -1.91889 3.70902 0
M  V30 13059 N 1253.43 -1.55816 0.23648 0
M  V30 13060 C 1254.65 -2.03534 -0.398575 0
M  V30 13061 C 1255.08 -1.11488 -1.51499 0
M  V30 13062 O 1254.44 -0.105848 -1.80991 0
M  V30 13063 C 1254.48 -3.49356 -0.893467 0
M  V30 13064 O 1253.59 -3.60446 -2.00381 0
M  V30 13065 H 1252.93 -0.658102 -0.0883021 0
M  V30 13066 H 1255.46 -2.01417 0.359488 0
M  V30 13067 H 1255.47 -3.89972 -1.19941 0
M  V30 13068 H 1254.14 -4.1583 -0.0764388 0
M  V30 13069 H 1252.72 -3.31723 -1.70336 0
M  V30 13070 N 1254.91 0.036755 -1.57557 0
M  V30 13071 C 1255.84 1.03939 -2.09091 0
M  V30 13072 C 1256.82 1.38196 -0.991761 0
M  V30 13073 O 1258 1.47214 -1.26656 0
M  V30 13074 C 1255.13 2.34263 -2.56394 0
M  V30 13075 C 1254.09 2.14269 -3.70504 0
M  V30 13076 C 1253.41 3.50286 -4.03985 0
M  V30 13077 C 1254.71 1.53514 -4.9923 0
M  V30 13078 H 1256.41 0.610429 -2.93111 0
M  V30 13079 H 1253.95 0.292183 -1.41005 0
M  V30 13080 H 1255.91 3.04727 -2.91066 0
M  V30 13081 H 1254.63 2.79205 -1.69447 0
M  V30 13082 H 1253.29 1.46239 -3.36169 0
M  V30 13083 H 1252.94 3.92861 -3.14116 0
M  V30 13084 H 1252.64 3.37735 -4.80842 0
M  V30 13085 H 1254.16 4.22124 -4.41184 0
M  V30 13086 H 1255.57 2.13885 -5.31908 0
M  V30 13087 H 1253.97 1.51561 -5.80646 0
M  V30 13088 H 1255.04 0.500126 -4.82314 0
M  V30 13089 N 1256.39 1.54543 0.308881 0
M  V30 13090 C 1257.66 1.64118 1.06418 0
M  V30 13091 C 1258.04 0.484402 2.05467 0
M  V30 13092 O 1257.39 -0.519752 2.2251 0
M  V30 13093 C 1257.6 3.01776 1.75306 0
M  V30 13094 C 1258.95 3.58324 2.27792 0
M  V30 13095 O 1259.97 3.04177 1.85351 0
M  V30 13096 O 1258.83 4.53113 3.05533 0
M  V30 13097 H 1255.93 0.665172 0.491401 0
M  V30 13098 H 1258.47 1.66889 0.307598 0
M  V30 13099 H 1257.24 3.77407 1.03341 0
M  V30 13100 H 1256.87 3.02748 2.57739 0
M  V30 13101 N 1257.86 -0.571685 1.46866 0
M  V30 13102 C 1258.79 -1.68994 1.61131 0
M  V30 13103 C 1259.77 -1.63728 0.461222 0
M  V30 13104 O 1260.96 -1.81574 0.688813 0
M  V30 13105 C 1258.09 -3.07638 1.61172 0
M  V30 13106 C 1257.04 -3.27742 2.75262 0
M  V30 13107 C 1256.37 -4.67025 2.60368 0
M  V30 13108 C 1257.67 -3.14511 4.16989 0
M  V30 13109 H 1259.36 -1.57311 2.54742 0
M  V30 13110 H 1256.91 -0.755382 1.22597 0
M  V30 13111 H 1258.86 -3.857 1.69744 0
M  V30 13112 H 1257.59 -3.20245 0.641122 0
M  V30 13113 H 1256.25 -2.52083 2.66176 0
M  V30 13114 H 1255.89 -4.76413 1.61368 0
M  V30 13115 H 1255.59 -4.81428 3.36899 0
M  V30 13116 H 1257.12 -5.47242 2.70848 0
M  V30 13117 H 1258.53 -3.82407 4.27128 0
M  V30 13118 H 1256.93 -3.40431 4.94193 0
M  V30 13119 H 1258 -2.11443 4.36371 0
M  V30 13120 N 1259.34 -1.34755 -0.817236 0
M  V30 13121 C 1260.57 -1.30676 -1.61054 0
M  V30 13122 C 1260.99 0.115343 -1.87746 0
M  V30 13123 O 1260.35 1.07887 -1.45705 0
M  V30 13124 C 1260.4 -2.10881 -2.92509 0
M  V30 13125 O 1259.5 -1.48223 -3.84842 0
M  V30 13126 H 1258.84 -0.448531 -0.489608 0
M  V30 13127 H 1261.37 -1.77642 -1.01512 0
M  V30 13128 H 1261.38 -2.22446 -3.42026 0
M  V30 13129 H 1260.06 -3.14274 -2.72406 0
M  V30 13130 H 1258.63 -1.45434 -3.4337 0
M  V30 13131 N 1260.82 1.03812 -1.18578 0
M  V30 13132 C 1262.04 1.8124 -1.00831 0
M  V30 13133 C 1262.47 1.82917 0.43853 0
M  V30 13134 O 1261.83 1.24835 1.31476 0
M  V30 13135 C 1261.88 3.24592 -1.57075 0
M  V30 13136 O 1260.98 4.04688 -0.793824 0
M  V30 13137 H 1260.32 0.559846 -0.357028 0
M  V30 13138 H 1262.85 1.30724 -1.57393 0
M  V30 13139 H 1262.86 3.75363 -1.59896 0
M  V30 13140 H 1261.54 3.22686 -2.62387 0
M  V30 13141 H 1260.11 3.63359 -0.838134 0
M  V30 13142 N 1262.3 0.988223 1.22768 0
M  V30 13143 C 1263.71 0.697281 1.7319 0
M  V30 13144 C 1264.06 -0.786111 1.79763 0
M  V30 13145 O 1263.18 -1.61465 1.44077 0
M  V30 13146 C 1263.78 1.25905 3.14537 0
M  V30 13147 C 1262.34 1.01759 3.62384 0
M  V30 13148 C 1261.49 1.38207 2.40404 0
M  V30 13149 H 1264.44 1.16114 1.08181 0
M  V30 13150 H 1264.46 0.635315 3.75159 0
M  V30 13151 H 1263.97 2.33869 3.09721 0
M  V30 13152 H 1262.07 -0.045627 3.72572 0
M  V30 13153 H 1262.18 1.67767 4.48766 0
M  V30 13154 H 1260.55 0.800607 2.4179 0
M  V30 13155 H 1261.33 2.47165 2.38253 0
M  V30 13156 N 1263.78 -1.38018 0.760839 0
M  V30 13157 C 1265.02 -2.01795 0.325264 0
M  V30 13158 C 1265.38 -1.59092 -1.07489 0
M  V30 13159 O 1266.58 -2.15251 -1.60998 0
M  V30 13160 C 1264.85 -3.5453 0.452007 0
M  V30 13161 S 1266.41 -4.38686 0.100084 0
M  V30 13162 H 1263.23 -0.69979 0.125758 0
M  V30 13163 H 1265.83 -1.684 0.993054 0
M  V30 13164 H 1264.53 -3.83099 1.47186 0
M  V30 13165 H 1264.07 -3.92711 -0.232716 0
M  V30 13166 H 1266.08 -4.83672 -1.10797 0
M  V30 13167 N 1265.25 -0.510493 -1.49103 0
M  V30 13168 C 1266.5 0.0306436 -2.02477 0
M  V30 13169 C 1266.83 1.36113 -1.38937 0
M  V30 13170 O 1266.08 1.88731 -0.517584 0
M  V30 13171 C 1266.38 0.221921 -3.5671 0
M  V30 13172 C 1266.05 -1.03176 -4.38937 0
M  V30 13173 C 1264.71 -1.37539 -4.61125 0
M  V30 13174 C 1267.06 -1.86464 -4.86704 0
M  V30 13175 C 1264.39 -2.55124 -5.28326 0
M  V30 13176 C 1266.74 -3.03211 -5.55199 0
M  V30 13177 C 1265.41 -3.37943 -5.75631 0
M  V30 13178 H 1264.68 0.0112133 -0.740915 0
M  V30 13179 H 1267.32 -0.672574 -1.79301 0
M  V30 13180 H 1265.63 1.00775 -3.78618 0
M  V30 13181 H 1267.33 0.655223 -3.95611 0
M  V30 13182 H 1263.92 -0.754105 -4.21914 0
M  V30 13183 H 1268.1 -1.61229 -4.69381 0
M  V30 13184 H 1263.36 -2.8226 -5.42346 0
M  V30 13185 H 1267.53 -3.68068 -5.91185 0
M  V30 13186 H 1265.16 -4.29158 -6.27477 0
M  V30 13187 N 1266.73 1.55688 -0.24474 0
M  V30 13188 C 1267.66 2.24272 0.64995 0
M  V30 13189 C 1268.64 1.22226 1.183 0
M  V30 13190 O 1269.83 1.50873 1.22274 0
M  V30 13191 C 1266.96 2.94053 1.84798 0
M  V30 13192 C 1265.91 4.02769 1.44779 0
M  V30 13193 C 1265.24 4.59965 2.72647 0
M  V30 13194 C 1266.54 5.18601 0.62047 0
M  V30 13195 H 1268.23 2.99298 0.0780654 0
M  V30 13196 H 1265.78 1.43955 0.0361069 0
M  V30 13197 H 1267.73 3.40732 2.47951 0
M  V30 13198 H 1266.45 2.16511 2.44521 0
M  V30 13199 H 1265.11 3.56856 0.839609 0
M  V30 13200 H 1264.76 3.79126 3.30564 0
M  V30 13201 H 1264.46 5.33352 2.46596 0
M  V30 13202 H 1265.99 5.09376 3.36703 0
M  V30 13203 H 1267.4 5.61519 1.15625 0
M  V30 13204 H 1265.8 5.98364 0.456097 0
M  V30 13205 H 1266.87 4.83503 -0.367798 0
M  V30 13206 N 1268.21 -0.0283989 1.57574 0
M  V30 13207 C 1269.43 -0.734537 1.93957 0
M  V30 13208 C 1269.86 -1.68062 0.844787 0
M  V30 13209 O 1269.22 -1.802 -0.199432 0
M  V30 13210 C 1269.27 -1.46716 3.29404 0
M  V30 13211 O 1268.37 -2.58036 3.217 0
M  V30 13212 H 1267.71 -0.197507 0.633946 0
M  V30 13213 H 1270.24 0.0163258 2.04593 0
M  V30 13214 H 1270.25 -1.83693 3.64309 0
M  V30 13215 H 1268.93 -0.773292 4.08648 0
M  V30 13216 H 1267.5 -2.23597 2.98427 0
M  V30 13217 N 1269.69 -1.54705 -0.300681 0
M  V30 13218 C 1270.93 -1.74259 -1.03738 0
M  V30 13219 C 1271.27 -0.52703 -1.86912 0
M  V30 13220 O 1270.54 0.475862 -1.88589 0
M  V30 13221 C 1270.82 -3.03175 -1.94311 0
M  V30 13222 C 1270.68 -4.35031 -1.14315 0
M  V30 13223 C 1272 -3.27962 -2.93478 0
M  V30 13224 H 1269.12 -0.634031 -0.37573 0
M  V30 13225 H 1271.76 -1.87421 -0.312012 0
M  V30 13226 H 1269.91 -2.92086 -2.5616 0
M  V30 13227 H 1271.58 -4.5804 -0.547489 0
M  V30 13228 H 1269.82 -4.31503 -0.44587 0
M  V30 13229 H 1270.49 -5.21502 -1.80941 0
M  V30 13230 H 1272.97 -3.38663 -2.41757 0
M  V30 13231 H 1271.85 -4.19481 -3.54016 0
M  V30 13232 H 1272.11 -2.46273 -3.67154 0
M  V30 13233 N 1271.17 0.563888 -1.47167 0
M  V30 13234 C 1272.41 1.31875 -1.53145 0
M  V30 13235 C 1272.74 1.94047 -0.192518 0
M  V30 13236 O 1272.01 1.79577 0.782872 0
M  V30 13237 H 1270.59 0.489694 -0.5641 0
M  V30 13238 H 1273.25 0.658976 -1.83422 0
M  V30 13239 H 1272.34 2.11574 -2.2944 0
M  V30 13240 N 1272.64 1.35187 0.810078 0
M  V30 13241 C 1273.87 1.31528 1.60359 0
M  V30 13242 C 1274.29 -0.105385 1.87805 0
M  V30 13243 O 1273.65 -1.07113 1.46276 0
M  V30 13244 C 1273.7 2.12429 2.91386 0
M  V30 13245 O 1272.8 1.50262 3.84051 0
M  V30 13246 H 1272.15 0.451122 0.487222 0
M  V30 13247 H 1274.68 1.78178 1.00568 0
M  V30 13248 H 1274.69 2.24257 3.40841 0
M  V30 13249 H 1273.36 3.15714 2.70735 0
M  V30 13250 H 1271.94 1.47253 3.42594 0
M  V30 13251 N 1274.12 -1.03182 1.19127 0
M  V30 13252 C 1275.05 -2.11462 0.884098 0
M  V30 13253 C 1276.07 -1.62342 -0.121984 0
M  V30 13254 O 1277.26 -1.78179 0.107038 0
M  V30 13255 C 1274.36 -3.37559 0.301227 0
M  V30 13256 C 1273.53 -4.15878 1.35514 0
M  V30 13257 C 1272.59 -5.20291 0.786349 0
M  V30 13258 O 1271.61 -5.50069 1.46331 0
M  V30 13259 N 1272.82 -5.79038 -0.411803 0
M  V30 13260 H 1275.58 -2.38405 1.81613 0
M  V30 13261 H 1273.14 -1.19449 1.09287 0
M  V30 13262 H 1275.13 -4.04593 -0.0930685 0
M  V30 13263 H 1273.7 -3.07987 -0.535022 0
M  V30 13264 H 1272.92 -3.44036 1.9244 0
M  V30 13265 H 1274.21 -4.64993 2.06539 0
M  V30 13266 H 1273.61 -5.57158 -0.979353 0
M  V30 13267 H 1272.17 -6.47495 -0.747912 0
M  V30 13268 N 1275.6 -0.99472 -1.22242 0
M  V30 13269 C 1276.85 -0.672596 -1.91322 0
M  V30 13270 C 1277.18 0.793542 -1.77247 0
M  V30 13271 O 1276.45 1.57407 -1.14251 0
M  V30 13272 C 1276.74 -1.08155 -3.43474 0
M  V30 13273 C 1276.59 -2.60638 -3.6659 0
M  V30 13274 C 1277.91 -0.636161 -4.35478 0
M  V30 13275 H 1275.03 -0.24582 -0.694796 0
M  V30 13276 H 1277.67 -1.23857 -1.44082 0
M  V30 13277 H 1275.82 -0.599987 -3.83839 0
M  V30 13278 H 1277.49 -3.16479 -3.35617 0
M  V30 13279 H 1275.74 -3.02624 -3.10808 0
M  V30 13280 H 1276.41 -2.84304 -4.73155 0
M  V30 13281 H 1278.88 -1.04982 -4.02639 0
M  V30 13282 H 1277.76 -0.950584 -5.40606 0
M  V30 13283 H 1278.02 0.4631 -4.39668 0
M  V30 13284 N 1277.08 1.37613 -0.768148 0
M  V30 13285 C 1278.01 2.3291 -0.165911 0
M  V30 13286 C 1278.99 1.556 0.687205 0
M  V30 13287 O 1280.17 1.83854 0.625407 0
M  V30 13288 C 1277.3 3.39822 0.7168 0
M  V30 13289 C 1276.26 4.27986 -0.0347264 0
M  V30 13290 C 1275.58 5.2588 0.967192 0
M  V30 13291 C 1276.88 5.08052 -1.21164 0
M  V30 13292 H 1278.58 2.83524 -0.962006 0
M  V30 13293 H 1276.12 1.36318 -0.464051 0
M  V30 13294 H 1278.08 4.05464 1.14789 0
M  V30 13295 H 1276.8 2.87725 1.54538 0
M  V30 13296 H 1275.46 3.6387 -0.446557 0
M  V30 13297 H 1275.11 4.70064 1.79022 0
M  V30 13298 H 1274.81 5.85726 0.468913 0
M  V30 13299 H 1276.33 5.94397 1.3973 0
M  V30 13300 H 1277.75 5.66853 -0.857373 0
M  V30 13301 H 1276.14 5.77206 -1.64176 0
M  V30 13302 H 1277.21 4.40936 -2.0175 0
M  V30 13303 N 1278.56 0.518393 1.4883 0
M  V30 13304 C 1279.97 0.0749773 1.86549 0
M  V30 13305 C 1280.32 -1.34429 1.4291 0
M  V30 13306 O 1279.44 -2.00481 0.814648 0
M  V30 13307 C 1280.04 0.129289 3.38553 0
M  V30 13308 C 1278.6 -0.258871 3.75509 0
M  V30 13309 C 1277.74 0.494185 2.72861 0
M  V30 13310 H 1280.7 0.730266 1.409 0
M  V30 13311 H 1280.72 -0.661844 3.747 0
M  V30 13312 H 1280.23 1.16237 3.70285 0
M  V30 13313 H 1278.33 -1.29453 3.49389 0
M  V30 13314 H 1278.44 0.0726769 4.79045 0
M  V30 13315 H 1276.81 -0.0581428 2.54634 0
M  V30 13316 H 1277.59 1.52767 3.07436 0
M  V30 13317 N 1280.03 -1.55556 0.252993 0
M  V30 13318 C 1281.28 -1.99385 -0.370599 0
M  V30 13319 C 1281.61 -1.14101 -1.57145 0
M  V30 13320 O 1280.89 -0.205828 -1.93408 0
M  V30 13321 C 1281.17 -3.51672 -0.774503 0
M  V30 13322 C 1281.02 -4.47719 0.432159 0
M  V30 13323 C 1282.34 -4.0923 -1.61923 0
M  V30 13324 H 1279.46 -0.724858 -0.133231 0
M  V30 13325 H 1282.1 -1.86644 0.355522 0
M  V30 13326 H 1280.25 -3.62661 -1.39318 0
M  V30 13327 H 1281.93 -4.48704 1.07063 0
M  V30 13328 H 1280.17 -4.2029 1.07419 0
M  V30 13329 H 1280.84 -5.51898 0.106123 0
M  V30 13330 H 1283.32 -4.01381 -1.09693 0
M  V30 13331 H 1282.19 -5.16039 -1.87068 0
M  V30 13332 H 1282.45 -3.58067 -2.59307 0
M  V30 13333 N 1281.51 0.0200419 -1.57587 0
M  V30 13334 C 1282.44 1.01715 -2.10181 0
M  V30 13335 C 1283.42 1.37136 -1.00636 0
M  V30 13336 O 1284.61 1.45862 -1.2821 0
M  V30 13337 C 1281.74 2.31531 -2.58865 0
M  V30 13338 C 1280.69 2.10327 -3.72755 0
M  V30 13339 C 1280.02 3.45981 -4.07678 0
M  V30 13340 C 1281.32 1.4821 -5.0083 0
M  V30 13341 H 1283.01 0.579307 -2.93742 0
M  V30 13342 H 1280.56 0.277211 -1.41307 0
M  V30 13343 H 1282.51 3.01623 -2.94281 0
M  V30 13344 H 1281.24 2.77392 -1.72399 0
M  V30 13345 H 1279.89 1.42665 -3.37701 0
M  V30 13346 H 1279.54 3.89508 -3.18265 0
M  V30 13347 H 1279.24 3.32616 -4.84397 0
M  V30 13348 H 1280.77 4.17421 -4.45637 0
M  V30 13349 H 1282.18 2.08232 -5.34146 0
M  V30 13350 H 1280.58 1.45393 -5.82221 0
M  V30 13351 H 1281.65 0.448942 -4.82817 0
M  V30 13352 N 1282.99 1.54862 0.292472 0
M  V30 13353 C 1283.94 1.86403 1.36098 0
M  V30 13354 C 1284.91 0.713694 1.49985 0
M  V30 13355 O 1286.09 0.963134 1.64707 0
M  V30 13356 C 1283.23 2.1244 2.71962 0
M  V30 13357 C 1282.35 3.40038 2.66454 0
M  V30 13358 C 1281.48 3.55875 3.94368 0
M  V30 13359 C 1280.52 4.77235 3.83293 0
M  V30 13360 N 1279.66 4.89832 5.03 0
M  V30 13361 H 1284.5 2.77546 1.085 0
M  V30 13362 H 1282.03 1.37427 0.524607 0
M  V30 13363 H 1283.99 2.25533 3.50985 0
M  V30 13364 H 1282.62 1.24554 2.97802 0
M  V30 13365 H 1281.67 3.35521 1.79248 0
M  V30 13366 H 1282.99 4.29188 2.54163 0
M  V30 13367 H 1282.14 3.68679 4.8183 0
M  V30 13368 H 1280.88 2.64874 4.09503 0
M  V30 13369 H 1279.88 4.64455 2.94214 0
M  V30 13370 H 1281.11 5.69651 3.69695 0
M  V30 13371 H 1279.05 4.01756 5.18582 0
M  V30 13372 H 1278.97 5.72996 4.93165 0
M  V30 13373 H 1280.24 5.07001 5.92089 0
M  V30 13374 N 1284.47 -0.556076 1.47464 0
M  V30 13375 C 1285.38 -1.69043 1.62671 0
M  V30 13376 C 1286.39 -1.66372 0.509535 0
M  V30 13377 O 1287.57 -1.85799 0.777218 0
M  V30 13378 C 1284.64 -3.05546 1.63836 0
M  V30 13379 C 1283.7 -3.19275 2.86988 0
M  V30 13380 C 1282.93 -4.49267 2.88088 0
M  V30 13381 O 1283.15 -5.34796 1.98368 0
M  V30 13382 O 1282.09 -4.66811 3.79962 0
M  V30 13383 H 1285.91 -1.59155 2.58657 0
M  V30 13384 H 1283.5 -0.726211 1.30562 0
M  V30 13385 H 1285.38 -3.86778 1.67275 0
M  V30 13386 H 1284.05 -3.15814 0.710173 0
M  V30 13387 H 1282.96 -2.37437 2.89093 0
M  V30 13388 H 1284.29 -3.13912 3.79104 0
M  V30 13389 N 1285.95 -1.35615 -0.802897 0
M  V30 13390 C 1286.9 -1.28877 -1.93632 0
M  V30 13391 C 1287.89 -0.183014 -1.68408 0
M  V30 13392 O 1289.1 -0.349218 -1.7658 0
M  V30 13393 H 1285.47 -0.400883 -0.636236 0
M  V30 13394 H 1287.44 -2.24624 -1.96435 0
M  V30 13395 C 1286.19 -1.08136 -3.30457 0
M  V30 13396 H 1285.51 -1.92463 -3.50426 0
M  V30 13397 H 1286.95 -1.07464 -4.10155 0
M  V30 13398 C 1285.41 0.214635 -3.36216 0
M  V30 13399 O 1285.94 1.20916 -3.8307 0
M  V30 13400 N 1284.15 0.25468 -2.89482 0
M  V30 13401 H 1283.7 -0.555239 -2.51545 0
M  V30 13402 H 1283.65 1.12152 -2.93716 0
M  V30 13403 N 1287.43 1.02549 -1.19673 0
M  V30 13404 C 1288.67 1.76265 -1.00293 0
M  V30 13405 C 1289 1.88555 0.464816 0
M  V30 13406 O 1288.28 1.40484 1.34515 0
M  V30 13407 C 1288.56 3.18688 -1.6766 0
M  V30 13408 C 1288.42 3.14247 -3.21821 0
M  V30 13409 C 1289.73 4.17159 -1.40238 0
M  V30 13410 H 1286.85 0.639837 -0.365756 0
M  V30 13411 H 1289.5 1.19691 -1.4756 0
M  V30 13412 H 1287.65 3.66992 -1.27472 0
M  V30 13413 H 1289.32 2.73815 -3.71245 0
M  V30 13414 H 1287.56 2.51874 -3.53188 0
M  V30 13415 H 1288.23 4.14886 -3.64107 0
M  V30 13416 H 1290.71 3.77471 -1.75086 0
M  V30 13417 H 1289.58 5.14997 -1.89919 0
M  V30 13418 H 1289.84 4.4088 -0.328197 0
M  V30 13419 N 1288.9 1.00119 1.21713 0
M  V30 13420 C 1289.81 0.567582 2.27631 0
M  V30 13421 C 1290.83 -0.387593 1.69628 0
M  V30 13422 O 1292.01 -0.252372 1.99813 0
M  V30 13423 C 1289.07 -0.102745 3.46548 0
M  V30 13424 C 1288.13 0.896433 4.19836 0
M  V30 13425 C 1287.36 0.258 5.33076 0
M  V30 13426 O 1287.59 -0.946118 5.62499 0
M  V30 13427 O 1286.52 0.967021 5.94081 0
M  V30 13428 H 1290.35 1.44898 2.66905 0
M  V30 13429 H 1287.93 0.769862 1.28037 0
M  V30 13430 H 1289.81 -0.477846 4.18682 0
M  V30 13431 H 1288.49 -0.958576 3.09181 0
M  V30 13432 H 1287.4 1.32262 3.49939 0
M  V30 13433 H 1288.73 1.72173 4.61104 0
M  V30 13434 N 1290.38 -1.37203 0.775435 0
M  V30 13435 C 1291.63 -1.99207 0.340756 0
M  V30 13436 C 1291.95 -1.61861 -1.08747 0
M  V30 13437 O 1291.22 -0.88583 -1.74728 0
M  V30 13438 H 1289.8 -0.736803 0.123004 0
M  V30 13439 H 1292.46 -1.67625 0.994379 0
M  V30 13440 H 1291.56 -3.09243 0.421346 0
M  V30 13441 N 1291.86 -0.526279 -1.48553 0
M  V30 13442 C 1292.81 0.258285 -2.26532 0
M  V30 13443 C 1293.79 0.913187 -1.32475 0
M  V30 13444 O 1294.99 0.816606 -1.57037 0
M  V30 13445 C 1292.11 1.30686 -3.17452 0
M  V30 13446 C 1291.2 0.656933 -4.18981 0
M  V30 13447 N 1291.59 -0.255186 -5.05156 0
M  V30 13448 C 1289.89 0.914575 -4.36522 0
M  V30 13449 C 1290.59 -0.629753 -5.78281 0
M  V30 13450 N 1289.57 0.00829904 -5.43599 0
M  V30 13451 H 1293.37 -0.44348 -2.90535 0
M  V30 13452 H 1290.88 -0.344054 -1.58714 0
M  V30 13453 H 1292.88 1.8826 -3.71973 0
M  V30 13454 H 1291.54 2.01004 -2.55005 0
M  V30 13455 H 1292.55 -0.627564 -5.14084 0
M  V30 13456 H 1289.23 1.6086 -3.85266 0
M  V30 13457 H 1290.62 -1.37746 -6.57629 0
M  V30 13458 N 1293.34 1.5542 -0.261239 0
M  V30 13459 C 1294.61 1.91243 0.41056 0
M  V30 13460 C 1294.99 1.1838 1.74784 0
M  V30 13461 O 1294.34 0.306013 2.26442 0
M  V30 13462 C 1294.55 3.44404 0.56453 0
M  V30 13463 C 1295.9 4.15927 0.853827 0
M  V30 13464 O 1296.92 3.50222 0.649861 0
M  V30 13465 O 1295.78 5.32175 1.24308 0
M  V30 13466 H 1292.88 0.796491 0.222555 0
M  V30 13467 H 1295.42 1.66912 -0.306367 0
M  V30 13468 H 1294.2 3.89478 -0.377134 0
M  V30 13469 H 1293.82 3.74644 1.33145 0
M  V30 13470 N 1294.82 -0.0116844 1.57596 0
M  V30 13471 C 1295.75 -1.00599 2.10718 0
M  V30 13472 C 1296.73 -1.36601 1.01362 0
M  V30 13473 O 1297.91 -1.4518 1.28982 0
M  V30 13474 C 1295.04 -2.30155 2.60089 0
M  V30 13475 C 1294 -2.08347 3.73866 0
M  V30 13476 C 1293.32 -3.43814 4.09507 0
M  V30 13477 C 1294.62 -1.45552 5.01609 0
M  V30 13478 H 1296.32 -0.563721 2.94045 0
M  V30 13479 H 1293.86 -0.269714 1.41452 0
M  V30 13480 H 1295.81 -3.00058 2.95877 0
M  V30 13481 H 1294.54 -2.76473 1.73868 0
M  V30 13482 H 1293.2 -1.40872 3.38453 0
M  V30 13483 H 1292.85 -3.87814 3.20326 0
M  V30 13484 H 1292.55 -3.30043 4.86154 0
M  V30 13485 H 1294.07 -4.15052 4.47844 0
M  V30 13486 H 1295.48 -2.05396 5.35243 0
M  V30 13487 H 1293.88 -1.42304 5.82983 0
M  V30 13488 H 1294.95 -0.423331 4.83049 0
M  V30 13489 N 1296.29 -1.55015 -0.284256 0
M  V30 13490 C 1297.7 -1.65915 -0.856104 0
M  V30 13491 C 1298.06 -0.578758 -1.8747 0
M  V30 13492 O 1297.18 0.281733 -2.14558 0
M  V30 13493 C 1297.78 -3.0077 -1.55957 0
M  V30 13494 C 1296.33 -3.13735 -2.0796 0
M  V30 13495 C 1295.48 -2.61669 -0.917849 0
M  V30 13496 H 1298.43 -1.58583 -0.0608587 0
M  V30 13497 H 1298.45 -2.9313 -2.42601 0
M  V30 13498 H 1297.97 -3.79382 -0.81798 0
M  V30 13499 H 1296.07 -2.39875 -2.85115 0
M  V30 13500 H 1296.18 -4.20138 -2.30263 0
M  V30 13501 H 1294.54 -2.18542 -1.3081 0
M  V30 13502 H 1295.33 -3.42774 -0.189946 0
M  V30 13503 N 1297.77 0.548248 -1.47757 0
M  V30 13504 C 1298.73 1.63666 -1.60456 0
M  V30 13505 C 1299.73 1.53499 -0.479028 0
M  V30 13506 O 1300.92 1.57497 -0.744342 0
M  V30 13507 C 1298.06 3.03239 -1.55754 0
M  V30 13508 H 1299.25 1.53752 -2.57488 0
M  V30 13509 H 1296.8 0.768881 -1.36081 0
M  V30 13510 H 1297.54 3.18677 -0.601303 0
M  V30 13511 H 1297.32 3.12027 -2.37448 0
M  V30 13512 H 1298.81 3.82406 -1.67797 0
M  V30 13513 N 1299.25 1.36039 0.795694 0
M  V30 13514 C 1300.47 1.33222 1.58955 0
M  V30 13515 C 1300.9 -0.0854596 1.87906 0
M  V30 13516 O 1300.26 -1.05555 1.47403 0
M  V30 13517 C 1300.31 2.15508 2.89117 0
M  V30 13518 O 1299.41 1.54327 3.82436 0
M  V30 13519 H 1298.75 0.456264 0.48241 0
M  V30 13520 H 1301.28 1.79234 0.986726 0
M  V30 13521 H 1301.29 2.2786 3.38444 0
M  V30 13522 H 1299.97 3.18568 2.67371 0
M  V30 13523 H 1298.54 1.50879 3.41013 0
M  V30 13524 N 1300.73 -1.01913 1.20215 0
M  V30 13525 C 1301.64 -2.13864 0.964328 0
M  V30 13526 C 1302.65 -1.73821 -0.0789556 0
M  V30 13527 O 1303.83 -2.01111 0.107914 0
M  V30 13528 C 1300.9 -3.42827 0.516757 0
M  V30 13529 C 1299.96 -3.97127 1.63059 0
M  V30 13530 C 1299.19 -5.19935 1.20428 0
M  V30 13531 O 1299.41 -5.70355 0.0719119 0
M  V30 13532 O 1298.35 -5.67322 2.01071 0
M  V30 13533 H 1302.17 -2.36795 1.90162 0
M  V30 13534 H 1299.76 -1.1226 0.985803 0
M  V30 13535 H 1301.64 -4.20493 0.276272 0
M  V30 13536 H 1300.31 -3.21318 -0.391983 0
M  V30 13537 H 1299.22 -3.20752 1.92533 0
M  V30 13538 H 1300.55 -4.2302 2.51624 0
M  V30 13539 N 1302.21 -1.00763 -1.2118 0
M  V30 13540 C 1303.15 -0.570257 -2.23644 0
M  V30 13541 C 1304.12 0.405039 -1.61086 0
M  V30 13542 O 1305.31 0.306496 -1.88322 0
M  V30 13543 C 1302.45 0.094325 -3.44971 0
M  V30 13544 C 1301.56 -0.924463 -4.21993 0
M  V30 13545 C 1300.7 -0.231869 -5.30694 0
M  V30 13546 C 1299.74 -1.23803 -5.99449 0
M  V30 13547 N 1298.87 -0.572725 -6.9976 0
M  V30 13548 H 1303.71 -1.44869 -2.60417 0
M  V30 13549 H 1301.25 -0.725369 -1.27972 0
M  V30 13550 H 1303.21 0.496689 -4.14233 0
M  V30 13551 H 1301.84 0.936457 -3.08918 0
M  V30 13552 H 1300.89 -1.44505 -3.51884 0
M  V30 13553 H 1302.2 -1.69004 -4.69296 0
M  V30 13554 H 1301.36 0.226465 -6.06277 0
M  V30 13555 H 1300.09 0.566092 -4.84403 0
M  V30 13556 H 1299.1 -1.70684 -5.22635 0
M  V30 13557 H 1300.32 -2.03711 -6.47826 0
M  V30 13558 H 1298.27 0.205531 -6.55678 0
M  V30 13559 H 1298.19 -1.27651 -7.45145 0
M  V30 13560 H 1299.46 -0.137683 -7.79378 0
M  V30 13561 N 1303.68 1.3679 -0.7827 0
M  V30 13562 C 1304.63 2.27508 -0.149734 0
M  V30 13563 C 1305.62 1.46634 0.662368 0
M  V30 13564 O 1306.81 1.6908 0.523544 0
M  V30 13565 C 1303.94 3.35666 0.719939 0
M  V30 13566 C 1303.03 4.23981 -0.100588 0
M  V30 13567 N 1303.42 4.92513 -1.15173 0
M  V30 13568 C 1301.71 4.45834 0.121653 0
M  V30 13569 C 1302.42 5.57788 -1.65067 0
M  V30 13570 N 1301.39 5.35038 -0.96101 0
M  V30 13571 H 1305.19 2.77973 -0.954365 0
M  V30 13572 H 1302.71 1.50037 -0.62151 0
M  V30 13573 H 1304.7 3.99578 1.18926 0
M  V30 13574 H 1303.36 2.86756 1.52319 0
M  V30 13575 H 1304.38 4.94658 -1.53406 0
M  V30 13576 H 1301.05 4.07773 0.895945 0
M  V30 13577 H 1302.44 6.22534 -2.52787 0
M  V30 13578 N 1305.16 0.53415 1.48272 0
M  V30 13579 C 1306.09 -0.263508 2.2768 0
M  V30 13580 C 1307.11 -0.90064 1.35618 0
M  V30 13581 O 1308.3 -0.778379 1.60635 0
M  V30 13582 C 1305.4 -1.38878 3.09138 0
M  V30 13583 C 1304.57 -0.852784 4.29006 0
M  V30 13584 C 1303.63 -1.85969 4.92242 0
M  V30 13585 O 1302.65 -1.41497 5.51332 0
M  V30 13586 N 1303.86 -3.19207 4.84858 0
M  V30 13587 H 1306.62 0.417548 2.96777 0
M  V30 13588 H 1304.18 0.368743 1.57645 0
M  V30 13589 H 1306.17 -2.06062 3.48311 0
M  V30 13590 H 1304.74 -1.97343 2.42434 0
M  V30 13591 H 1303.96 -0.0048227 3.942 0
M  V30 13592 H 1305.25 -0.473634 5.06591 0
M  V30 13593 H 1304.65 -3.58001 4.38009 0
M  V30 13594 H 1303.21 -3.82013 5.28119 0
M  V30 13595 N 1306.64 -1.55279 0.269478 0
M  V30 13596 C 1307.92 -1.91458 -0.400412 0
M  V30 13597 C 1308.3 -1.19306 -1.74153 0
M  V30 13598 O 1307.65 -0.318017 -2.26276 0
M  V30 13599 C 1307.86 -3.44698 -0.546258 0
M  V30 13600 C 1309.2 -4.16374 -0.831758 0
M  V30 13601 O 1310.23 -3.50561 -0.631279 0
M  V30 13602 O 1309.09 -5.32826 -1.21484 0
M  V30 13603 H 1306.18 -0.79766 -0.218328 0
M  V30 13604 H 1308.73 -1.66747 0.315214 0
M  V30 13605 H 1307.5 -3.89273 0.397784 0
M  V30 13606 H 1307.12 -3.75345 -1.31157 0
M  V30 13607 N 1308.12 0.00332656 -1.576 0
M  V30 13608 C 1309.36 0.68989 -1.90705 0
M  V30 13609 C 1309.7 1.73608 -0.870291 0
M  V30 13610 O 1308.97 1.94181 0.111416 0
M  V30 13611 C 1309.26 1.33605 -3.34397 0
M  V30 13612 C 1309.11 0.301638 -4.48787 0
M  V30 13613 C 1310.43 2.26313 -3.77453 0
M  V30 13614 H 1307.55 0.249328 -0.693545 0
M  V30 13615 H 1310.19 -0.0472847 -1.89941 0
M  V30 13616 H 1308.34 1.96437 -3.35179 0
M  V30 13617 H 1310.01 -0.326738 -4.60141 0
M  V30 13618 H 1308.25 -0.376451 -4.32163 0
M  V30 13619 H 1308.92 0.792741 -5.46278 0
M  V30 13620 H 1311.4 1.73502 -3.78201 0
M  V30 13621 H 1310.28 2.68492 -4.78752 0
M  V30 13622 H 1310.54 3.14082 -3.11135 0
M  V30 13623 N 1309.6 1.55164 0.276031 0
M  V30 13624 C 1310.82 1.79649 1.02635 0
M  V30 13625 C 1311.24 0.568289 1.80044 0
M  V30 13626 O 1310.6 -0.462569 1.7654 0
M  V30 13627 C 1310.65 3.01974 1.98731 0
M  V30 13628 O 1310.37 4.2005 1.24459 0
M  V30 13629 C 1311.87 3.39039 2.856 0
M  V30 13630 H 1309.09 0.598529 0.303321 0
M  V30 13631 H 1311.63 2.02171 0.307733 0
M  V30 13632 H 1309.79 2.81586 2.6606 0
M  V30 13633 H 1310.2 4.89185 1.89205 0
M  V30 13634 H 1311.68 4.27809 3.48831 0
M  V30 13635 H 1312.15 2.58306 3.55211 0
M  V30 13636 H 1312.76 3.61674 2.23767 0
M  V30 13637 N 1311.07 -0.540404 1.48045 0
M  V30 13638 C 1312.3 -1.32656 1.59427 0
M  V30 13639 C 1312.72 -1.86419 0.250924 0
M  V30 13640 O 1312.08 -1.63861 -0.775838 0
M  V30 13641 C 1312.13 -2.46062 2.63602 0
M  V30 13642 O 1311.23 -3.48794 2.20038 0
M  V30 13643 H 1310.58 -0.393334 0.534962 0
M  V30 13644 H 1313.11 -0.651363 1.93955 0
M  V30 13645 H 1313.12 -2.92396 2.84549 0
M  V30 13646 H 1311.79 -2.06291 3.61133 0
M  V30 13647 H 1310.37 -3.0865 2.0926 0
M  V30 13648 O 1312.59 -1.46241 -0.685264 0
M  V30 13649 H 1313.28 -1.40107 -1.33753 0
M  V30 END ATOM
M  V30 BEGIN BOND
M  V30 END BOND
M  V30 END CTAB
M  END
$$$$
