drugbank_target|Q96FQ6 Protein S100-A16 (DB11093; DB11348; DB14481)
 OpenBabel12092121053D

  0  0  0     0  0            999 V3000
M  V30 BEGIN CTAB
M  V30 COUNTS 1656 1669 0 0 0
M  V30 BEGIN ATOM
M  V30 1 H -0.908 1.98254 -0.117106 0
M  V30 2 N 0 1.576 0 0
M  V30 3 C 0.933 2.03868 1.02534 0
M  V30 4 C 1.911 0.928543 1.3348 0
M  V30 5 O 3.095 1.19667 1.45644 0
M  V30 6 C 0.222 2.43627 2.35294 0
M  V30 7 C -0.732 3.65373 2.2001 0
M  V30 8 S 0.101 5.13292 1.52614 0
M  V30 9 C 1.257 5.56322 2.86805 0
M  V30 10 H 1.49 2.90518 0.631377 0
M  V30 11 H -0.977 1.52953 0.210867 0
M  V30 12 H 0.981 2.67203 3.11629 0
M  V30 13 H -0.358 1.57376 2.7183 0
M  V30 14 H -1.165 3.90944 3.18086 0
M  V30 15 H -1.563 3.418 1.51819 0
M  V30 16 H 0.729 5.58782 3.83104 0
M  V30 17 H 1.672 6.56266 2.65933 0
M  V30 18 H 2.08 4.83886 2.90714 0
M  V30 19 N 1.4781 -0.272755 1.55222 0
M  V30 20 C 2.7031 -1.02683 1.80197 0
M  V30 21 C 3.1281 -1.79142 0.573551 0
M  V30 22 O 2.4861 -1.74917 -0.476849 0
M  V30 23 C 2.5341 -1.9609 3.02624 0
M  V30 24 O 1.6381 -3.04863 2.77727 0
M  V30 25 H 0.9791 -0.293557 0.595584 0
M  V30 26 H 3.5091 -0.30159 2.02365 0
M  V30 27 H 3.5191 -2.38039 3.31363 0
M  V30 28 H 2.1941 -1.39851 3.91682 0
M  V30 29 H 0.7711 -2.67228 2.60084 0
M  V30 30 N 2.9562 -1.48159 -0.537278 0
M  V30 31 C 4.2332 -1.46291 -1.29839 0
M  V30 32 C 4.6132 -0.170613 -2.10409 0
M  V30 33 O 3.9612 0.847746 -2.12192 0
M  V30 34 C 4.1712 -2.72055 -2.18603 0
M  V30 35 C 5.5192 -3.20087 -2.7898 0
M  V30 36 O 6.5432 -2.72921 -2.28894 0
M  V30 37 O 5.4022 -4.02138 -3.70064 0
M  V30 38 H 2.4962 -0.583906 -0.585647 0
M  V30 39 H 5.0422 -1.60384 -0.554534 0
M  V30 40 H 3.8142 -3.57628 -1.58801 0
M  V30 41 H 3.4372 -2.60646 -3.00249 0
M  V30 42 N 4.4343 0.785586 -1.36625 0
M  V30 43 C 5.6743 1.55678 -1.32453 0
M  V30 44 C 6.0383 1.91769 0.0941089 0
M  V30 45 O 7.2393 2.67536 0.26042 0
M  V30 46 C 5.5103 2.79701 -2.22491 0
M  V30 47 S 7.0693 3.69907 -2.36038 0
M  V30 48 H 3.8873 0.533141 -0.470405 0
M  V30 49 H 6.4893 0.924953 -1.72235 0
M  V30 50 H 5.1933 2.51244 -3.24507 0
M  V30 51 H 4.7243 3.47854 -1.83742 0
M  V30 52 H 6.7393 4.71016 -1.56072 0
M  V30 53 N 5.9124 1.20967 1.01018 0
M  V30 54 C 7.1424 1.04803 1.78044 0
M  V30 55 C 7.5504 -0.405462 1.84804 0
M  V30 56 O 6.8934 -1.2932 1.30468 0
M  V30 57 C 6.9554 1.56377 3.23707 0
M  V30 58 C 6.6194 3.04767 3.40538 0
M  V30 59 C 7.6164 4.02366 3.29239 0
M  V30 60 C 5.3014 3.43862 3.66147 0
M  V30 61 C 7.2954 5.37049 3.43304 0
M  V30 62 C 4.9824 4.78699 3.79855 0
M  V30 63 C 5.9804 5.75101 3.68439 0
M  V30 64 O 5.6684 7.07493 3.81719 0
M  V30 65 H 5.4004 0.368778 0.56655 0
M  V30 66 H 7.9544 1.60642 1.27997 0
M  V30 67 H 6.1844 0.949297 3.74867 0
M  V30 68 H 7.8734 1.36136 3.8239 0
M  V30 69 H 8.6394 3.73506 3.09384 0
M  V30 70 H 4.5184 2.69364 3.74118 0
M  V30 71 H 8.0624 6.12277 3.34309 0
M  V30 72 H 3.9594 5.07247 3.99213 0
M  V30 73 H 4.7274 7.1483 3.98697 0
M  V30 74 N 7.3905 -1.2043 1.01659 0
M  V30 75 C 8.6185 -1.93777 0.725132 0
M  V30 76 C 9.0335 -1.74772 -0.714166 0
M  V30 77 O 8.3905 -1.06169 -1.4844 0
M  V30 78 C 8.4415 -3.45876 1.05129 0
M  V30 79 O 8.1625 -3.6426 2.43406 0
M  V30 80 C 9.6635 -4.36368 0.780891 0
M  V30 81 H 6.8835 -0.615901 0.266284 0
M  V30 82 H 9.4275 -1.52922 1.35776 0
M  V30 83 H 7.5825 -3.8461 0.464065 0
M  V30 84 H 7.9965 -4.58246 2.55169 0
M  V30 85 H 9.4705 -5.41743 1.05918 0
M  V30 86 H 9.9475 -4.38275 -0.284937 0
M  V30 87 H 10.5535 -4.03296 1.35027 0
M  V30 88 N 8.8686 -0.792821 -1.36206 0
M  V30 89 C 9.7786 -0.194808 -2.3379 0
M  V30 90 C 10.7946 0.654869 -1.61206 0
M  V30 91 O 11.9706 0.569856 -1.9317 0
M  V30 92 C 9.0356 0.657721 -3.40404 0
M  V30 93 C 8.0966 -0.210849 -4.28782 0
M  V30 94 C 7.3296 0.601086 -5.30304 0
M  V30 95 O 7.5526 1.83682 -5.40016 0
M  V30 96 O 6.4866 -0.000808277 -6.019 0
M  V30 97 H 10.3126 -1.00172 -2.86704 0
M  V30 98 H 7.8976 -0.554341 -1.38735 0
M  V30 99 H 9.7796 1.14375 -4.05581 0
M  V30 100 H 8.4546 1.44247 -2.89784 0
M  V30 101 H 7.3616 -0.743714 -3.66633 0
M  V30 102 H 8.6946 -0.959195 -4.82763 0
M  V30 103 N 10.3467 1.47872 -0.545128 0
M  V30 104 C 11.2767 2.32661 0.197793 0
M  V30 105 C 12.2577 1.43041 0.920504 0
M  V30 106 O 13.4427 1.71912 0.90333 0
M  V30 107 C 10.5727 3.24569 1.23582 0
M  V30 108 C 9.5267 4.23333 0.630323 0
M  V30 109 C 8.8527 5.0448 1.77211 0
M  V30 110 C 10.1527 5.20704 -0.407974 0
M  V30 111 H 11.8467 2.95024 -0.510045 0
M  V30 112 H 9.3927 1.4187 -0.246731 0
M  V30 113 H 11.3457 3.8272 1.76362 0
M  V30 114 H 10.0697 2.60236 1.97344 0
M  V30 115 H 8.7287 3.6639 0.123922 0
M  V30 116 H 8.3767 4.36561 2.49847 0
M  V30 117 H 8.0767 5.71339 1.37281 0
M  V30 118 H 9.6007 5.65487 2.3034 0
M  V30 119 H 11.0147 5.7329 0.033305 0
M  V30 120 H 9.4117 5.95699 -0.725486 0
M  V30 121 H 10.4817 4.66917 -1.30828 0
M  V30 122 N 11.8248 0.280983 1.55075 0
M  V30 123 C 12.7348 -0.61388 2.26426 0
M  V30 124 C 13.7508 -1.16521 1.29224 0
M  V30 125 O 14.9268 -1.19426 1.62171 0
M  V30 126 C 11.9918 -1.7788 2.9759 0
M  V30 127 C 11.0528 -1.26355 4.10284 0
M  V30 128 C 10.2858 -2.37295 4.78045 0
M  V30 129 O 10.5088 -3.56777 4.45047 0
M  V30 130 O 9.4428 -2.05119 5.65871 0
M  V30 131 H 13.2688 -0.0356932 3.03679 0
M  V30 132 H 10.8538 0.0481686 1.49322 0
M  V30 133 H 12.7358 -2.45791 3.42293 0
M  V30 134 H 11.4108 -2.34397 2.23249 0
M  V30 135 H 10.3178 -0.550735 3.70024 0
M  V30 136 H 11.6508 -0.744065 4.86543 0
M  V30 137 N 13.3029 -1.57598 0.00835791 0
M  V30 138 C 14.2499 -2.08945 -0.980346 0
M  V30 139 C 15.2199 -0.986738 -1.33614 0
M  V30 140 O 16.4049 -1.25968 -1.43306 0
M  V30 141 C 13.5449 -2.60425 -2.26435 0
M  V30 142 C 12.6579 -3.84628 -1.96685 0
M  V30 143 C 11.7929 -4.24579 -3.19228 0
M  V30 144 C 10.8319 -5.41596 -2.85202 0
M  V30 145 N 9.9689 -5.768 -4.00307 0
M  V30 146 H 14.8089 -2.93148 -0.535551 0
M  V30 147 H 12.3459 -1.44912 -0.252776 0
M  V30 148 H 14.3039 -2.88354 -3.01509 0
M  V30 149 H 12.9339 -1.79083 -2.68568 0
M  V30 150 H 11.9859 -3.63556 -1.11942 0
M  V30 151 H 13.2979 -4.69796 -1.67611 0
M  V30 152 H 12.4519 -4.53834 -4.02641 0
M  V30 153 H 11.1909 -3.38137 -3.51447 0
M  V30 154 H 10.1959 -5.12056 -2.00198 0
M  V30 155 H 11.4209 -6.29721 -2.54222 0
M  V30 156 H 9.3669 -4.93316 -4.32407 0
M  V30 157 H 9.2839 -6.5656 -3.74786 0
M  V30 158 H 10.5519 -6.10652 -4.84484 0
M  V30 159 N 14.781 0.264519 -1.55364 0
M  V30 160 C 15.744 1.31046 -1.88042 0
M  V30 161 C 16.744 1.41943 -0.755569 0
M  V30 162 O 17.934 1.40947 -1.02369 0
M  V30 163 C 15.066 2.69067 -2.09323 0
M  V30 164 H 16.259 1.03297 -2.81549 0
M  V30 165 H 13.812 0.502989 -1.47986 0
M  V30 166 H 14.547 3.01982 -1.18226 0
M  V30 167 H 14.332 2.62542 -2.91229 0
M  V30 168 H 15.822 3.44623 -2.35848 0
M  V30 169 N 16.2591 1.48442 0.529413 0
M  V30 170 C 17.5051 1.5672 1.28711 0
M  V30 171 C 17.8381 0.2406 1.92704 0
M  V30 172 O 17.1131 -0.753454 1.79313 0
M  V30 173 C 17.3961 2.70587 2.37603 0
M  V30 174 C 17.2491 4.12953 1.78297 0
M  V30 175 C 18.5681 2.80212 3.39366 0
M  V30 176 H 15.6871 0.570474 0.466613 0
M  V30 177 H 18.3291 1.80617 0.589706 0
M  V30 178 H 16.4791 2.50342 2.97088 0
M  V30 179 H 18.1511 4.44639 1.22858 0
M  V30 180 H 16.3941 4.19927 1.0883 0
M  V30 181 H 17.0651 4.88448 2.57144 0
M  V30 182 H 19.5411 2.98553 2.89836 0
M  V30 183 H 18.4171 3.61611 4.12951 0
M  V30 184 H 18.6781 1.88393 3.99951 0
M  V30 185 N 17.7372 -0.778329 1.37039 0
M  V30 186 C 18.9862 -1.53189 1.3121 0
M  V30 187 C 19.2992 -1.95328 -0.103095 0
M  V30 188 O 20.5052 -2.70012 -0.283826 0
M  V30 189 C 18.9612 -2.76591 2.30272 0
M  V30 190 C 18.5692 -2.41577 3.77286 0
M  V30 191 C 20.3132 -3.5455 2.33441 0
M  V30 192 C 18.2202 -3.61441 4.68096 0
M  V30 193 H 17.1502 -0.5751 0.487622 0
M  V30 194 H 19.8012 -0.853101 1.62464 0
M  V30 195 H 18.1832 -3.46326 1.92027 0
M  V30 196 H 19.3572 -1.79668 4.2433 0
M  V30 197 H 17.6722 -1.76806 3.76999 0
M  V30 198 H 20.2692 -4.43628 2.98493 0
M  V30 199 H 20.6122 -3.93936 1.34611 0
M  V30 200 H 21.1452 -2.91805 2.7036 0
M  V30 201 H 17.8842 -3.27142 5.6803 0
M  V30 202 H 17.4042 -4.22478 4.25761 0
M  V30 203 H 19.0832 -4.28335 4.8491 0
M  V30 204 N 19.2153 -1.21501 -1.00376 0
M  V30 205 C 20.4613 -1.03452 -1.74429 0
M  V30 206 C 20.7943 0.430764 -1.89362 0
M  V30 207 O 20.0693 1.31962 -1.42886 0
M  V30 208 C 20.3523 -1.73375 -3.15615 0
M  V30 209 C 20.2053 -3.27431 -3.08397 0
M  V30 210 C 21.5243 -1.47732 -4.14564 0
M  V30 211 H 18.6433 -0.377226 -0.633143 0
M  V30 212 H 21.2853 -1.49693 -1.17013 0
M  V30 213 H 19.4353 -1.34064 -3.64636 0
M  V30 214 H 21.1073 -3.76119 -2.67081 0
M  V30 215 H 19.3503 -3.5767 -2.45468 0
M  V30 216 H 20.0213 -3.71524 -4.08258 0
M  V30 217 H 22.4973 -1.8186 -3.74254 0
M  V30 218 H 21.3733 -1.99169 -5.11491 0
M  V30 219 H 21.6343 -0.407589 -4.40217 0
M  V30 220 N 20.6934 1.19889 -1.02296 0
M  V30 221 C 21.6234 2.25141 -0.619174 0
M  V30 222 C 22.6044 1.66051 0.368915 0
M  V30 223 O 23.7894 1.92546 0.252941 0
M  V30 224 C 20.9194 3.4728 0.0368783 0
M  V30 225 C 19.8734 4.19005 -0.872865 0
M  V30 226 C 19.1994 5.34637 -0.0822402 0
M  V30 227 C 20.4994 4.74452 -2.18387 0
M  V30 228 H 22.1934 2.59171 -1.49903 0
M  V30 229 H 19.7394 1.24579 -0.722222 0
M  V30 230 H 21.6924 4.20098 0.330958 0
M  V30 231 H 20.4164 3.12433 0.95149 0
M  V30 232 H 19.0754 3.48061 -1.15105 0
M  V30 233 H 18.7234 4.96034 0.83422 0
M  V30 234 H 18.4234 5.83557 -0.688149 0
M  V30 235 H 19.9474 6.10255 0.205238 0
M  V30 236 H 21.3614 5.39055 -1.95172 0
M  V30 237 H 19.7584 5.33834 -2.74119 0
M  V30 238 H 20.8284 3.92844 -2.84257 0
M  V30 239 N 22.1715 0.800033 1.35784 0
M  V30 240 C 23.4175 0.377901 1.99248 0
M  V30 241 C 23.7505 -1.05052 1.63333 0
M  V30 242 O 23.0255 -1.72768 0.893385 0
M  V30 243 C 23.3085 0.553922 3.55814 0
M  V30 244 C 23.1615 2.0268 4.01548 0
M  V30 245 C 24.4805 -0.0244802 4.40093 0
M  V30 246 H 21.5995 0.138782 0.723815 0
M  V30 247 H 24.2415 1.00835 1.61035 0
M  V30 248 H 22.3915 0.0172398 3.88496 0
M  V30 249 H 24.0635 2.62536 3.79305 0
M  V30 250 H 22.3065 2.5256 3.52698 0
M  V30 251 H 22.9775 2.10087 5.10458 0
M  V30 252 H 25.4535 0.433775 4.13833 0
M  V30 253 H 24.3295 0.128637 5.48749 0
M  V30 254 H 24.5905 -1.11758 4.27741 0
M  V30 255 N 23.6496 -1.47581 0.552962 0
M  V30 256 C 24.5596 -2.33743 -0.200353 0
M  V30 257 C 25.5756 -1.47928 -0.916151 0
M  V30 258 O 26.7516 -1.80865 -0.885993 0
M  V30 259 C 23.8166 -3.24536 -1.21973 0
M  V30 260 C 22.8776 -4.26238 -0.511819 0
M  V30 261 C 22.1106 -5.12693 -1.48263 0
M  V30 262 O 22.3336 -5.01525 -2.71714 0
M  V30 263 O 21.2676 -5.93375 -1.00945 0
M  V30 264 H 25.0936 -2.9945 0.506304 0
M  V30 265 H 22.6786 -1.46071 0.313622 0
M  V30 266 H 24.5606 -3.80631 -1.80827 0
M  V30 267 H 23.2356 -2.61462 -1.90839 0
M  V30 268 H 22.1426 -3.73914 0.117799 0
M  V30 269 H 23.4756 -4.92014 0.135308 0
M  V30 270 N 25.1277 -0.289203 -1.54924 0
M  V30 271 C 26.0757 0.607966 -2.24514 0
M  V30 272 C 27.0697 1.14655 -1.24702 0
M  V30 273 O 28.2757 1.09856 -1.4259 0
M  V30 274 H 24.6507 0.21464 -0.720718 0
M  V30 275 H 26.6217 -0.00164182 -2.984 0
M  V30 276 C 25.3707 1.77406 -2.99036 0
M  V30 277 H 24.6937 1.36884 -3.75637 0
M  V30 278 H 26.1337 2.37814 -3.51028 0
M  V30 279 C 24.5927 2.67107 -2.05318 0
M  V30 280 O 25.1227 3.6787 -1.61353 0
M  V30 281 N 23.3287 2.34582 -1.71521 0
M  V30 282 H 22.8757 1.52688 -2.07471 0
M  V30 283 H 22.8337 2.94867 -1.0909 0
M  V30 284 N 26.6058 1.57591 -0.0167156 0
M  V30 285 C 27.8528 1.91283 0.664597 0
M  V30 286 C 28.1808 0.891949 1.72842 0
M  V30 287 O 27.4358 -0.100931 1.9544 0
M  V30 288 C 27.7348 3.3172 1.33029 0
M  V30 289 C 27.4008 4.4914 0.398047 0
M  V30 290 C 26.0628 4.80992 0.141421 0
M  V30 291 C 28.4148 5.20634 -0.242825 0
M  V30 292 C 25.7428 5.81703 -0.764092 0
M  V30 293 C 28.0948 6.22311 -1.13632 0
M  V30 294 C 26.7588 6.52611 -1.40196 0
M  V30 295 H 26.0288 0.699956 0.243193 0
M  V30 296 H 28.6758 1.9135 -0.0758267 0
M  V30 297 H 26.9808 3.27856 2.14517 0
M  V30 298 H 28.6778 3.55055 1.86379 0
M  V30 299 H 25.2678 4.24262 0.608238 0
M  V30 300 H 29.4518 4.96267 -0.0576019 0
M  V30 301 H 24.7078 6.03532 -0.977732 0
M  V30 302 H 28.8818 6.76834 -1.63917 0
M  V30 303 H 26.5088 7.30467 -2.10529 0
M  V30 304 N 28.0839 -0.256276 1.55502 0
M  V30 305 C 29.3139 -1.00196 1.80677 0
M  V30 306 C 29.7219 -1.79805 0.588797 0
M  V30 307 O 29.0649 -1.78055 -0.451883 0
M  V30 308 C 29.1269 -1.99515 2.99055 0
M  V30 309 C 28.7909 -1.38688 4.35448 0
M  V30 310 C 29.7879 -0.794079 5.138 0
M  V30 311 C 27.4729 -1.40906 4.82132 0
M  V30 312 C 29.4669 -0.231562 6.36979 0
M  V30 313 C 27.1539 -0.842684 6.05262 0
M  V30 314 C 28.1519 -0.254953 6.82524 0
M  V30 315 O 27.8399 0.3027 8.0333 0
M  V30 316 H 27.5719 -0.300919 0.60533 0
M  V30 317 H 30.1259 -0.287307 2.03381 0
M  V30 318 H 28.3559 -2.74785 2.72084 0
M  V30 319 H 30.0449 -2.60349 3.11405 0
M  V30 320 H 30.8109 -0.769519 4.78856 0
M  V30 321 H 26.6899 -1.85591 4.21992 0
M  V30 322 H 30.2339 0.227816 6.97228 0
M  V30 323 H 26.1309 -0.86454 6.39684 0
M  V30 324 H 26.8989 0.193662 8.18271 0
M  V30 325 N 29.562 -1.4872 -0.521534 0
M  V30 326 C 30.509 -1.63871 -1.62527 0
M  V30 327 C 31.479 -0.480559 -1.58996 0
M  V30 328 O 32.664 -0.705085 -1.77294 0
M  V30 329 C 29.804 -1.69227 -3.00759 0
M  V30 330 C 28.917 -2.96207 -3.14461 0
M  V30 331 C 28.052 -2.92671 -4.43303 0
M  V30 332 C 27.091 -4.14318 -4.50563 0
M  V30 333 N 26.228 -4.0881 -5.70805 0
M  V30 334 H 31.068 -2.58123 -1.48918 0
M  V30 335 H 28.605 -1.28 -0.724878 0
M  V30 336 H 30.563 -1.70314 -3.80853 0
M  V30 337 H 29.193 -0.784586 -3.1312 0
M  V30 338 H 28.245 -3.04826 -2.27564 0
M  V30 339 H 29.557 -3.86192 -3.15686 0
M  V30 340 H 28.711 -2.92206 -5.31696 0
M  V30 341 H 27.45 -2.00429 -4.44612 0
M  V30 342 H 26.455 -4.15049 -3.60575 0
M  V30 343 H 27.68 -5.07729 -4.50986 0
M  V30 344 H 25.626 -3.19394 -5.72995 0
M  V30 345 H 25.543 -4.92509 -5.7356 0
M  V30 346 H 26.811 -4.12418 -6.61462 0
M  V30 347 N 31.0401 0.771051 -1.3745 0
M  V30 348 C 32.2701 1.55789 -1.35696 0
M  V30 349 C 32.6781 1.89107 0.0594523 0
M  V30 350 O 32.0211 1.51984 1.03183 0
M  V30 351 C 32.0831 2.89515 -2.13123 0
M  V30 352 C 31.7471 2.78829 -3.62082 0
M  V30 353 C 32.7441 2.49812 -4.5595 0
M  V30 354 C 30.4291 2.9683 -4.05213 0
M  V30 355 C 32.4231 2.38923 -5.90927 0
M  V30 356 C 30.1101 2.85562 -5.40276 0
M  V30 357 C 31.1081 2.56649 -6.32946 0
M  V30 358 O 30.7961 2.45408 -7.65526 0
M  V30 359 H 30.5281 0.489257 -0.466481 0
M  V30 360 H 33.0821 0.963446 -1.81403 0
M  V30 361 H 31.3121 3.51081 -1.62107 0
M  V30 362 H 33.0011 3.50915 -2.03994 0
M  V30 363 H 33.7671 2.3559 -4.23937 0
M  V30 364 H 29.6461 3.18335 -3.33442 0
M  V30 365 H 33.1901 2.16277 -6.63227 0
M  V30 366 H 29.0871 2.99351 -5.71891 0
M  V30 367 H 29.8551 2.60753 -7.75855 0
M  V30 368 N 32.5182 1.22032 0.997298 0
M  V30 369 C 33.7642 1.04376 1.73878 0
M  V30 370 C 34.0972 -0.420716 1.89588 0
M  V30 371 O 33.3722 -1.31202 1.43583 0
M  V30 372 C 33.6552 1.75047 3.14691 0
M  V30 373 C 33.5082 3.29062 3.06656 0
M  V30 374 C 34.8272 1.49928 4.13775 0
M  V30 375 H 31.9462 0.380578 0.631133 0
M  V30 376 H 34.5882 1.50312 1.16217 0
M  V30 377 H 32.7382 1.35996 3.63919 0
M  V30 378 H 34.4102 3.7753 2.65083 0
M  V30 379 H 32.6532 3.58967 2.43568 0
M  V30 380 H 33.3242 3.73683 4.06282 0
M  V30 381 H 35.8002 1.83842 3.73285 0
M  V30 382 H 34.6762 2.01878 5.10428 0
M  V30 383 H 34.9372 0.430929 4.39995 0
M  V30 384 N 33.9963 -1.19345 1.0293 0
M  V30 385 C 35.2213 -1.93538 0.745511 0
M  V30 386 C 35.6463 -1.75007 -0.689511 0
M  V30 387 O 35.0043 -1.05265 -1.47611 0
M  V30 388 C 35.0523 -3.43336 1.10239 0
M  V30 389 O 34.1563 -4.11806 0.221289 0
M  V30 390 H 33.4973 -0.604193 0.275404 0
M  V30 391 H 36.0273 -1.5141 1.37609 0
M  V30 392 H 36.0373 -3.94004 1.05947 0
M  V30 393 H 34.7123 -3.56146 2.14786 0
M  V30 394 H 33.2893 -3.715 0.322842 0
M  V30 395 N 35.4744 -0.807222 -1.35358 0
M  V30 396 C 36.4214 -0.216037 -2.29787 0
M  V30 397 C 37.3914 0.650278 -1.52842 0
M  V30 398 O 38.5764 0.595227 -1.81278 0
M  V30 399 C 35.7164 0.628893 -3.39321 0
M  V30 400 C 34.8294 -0.257927 -4.31229 0
M  V30 401 C 33.9644 0.595069 -5.27856 0
M  V30 402 C 33.0034 -0.292111 -6.11403 0
M  V30 403 N 32.1404 0.520895 -7.00165 0
M  V30 404 H 36.9804 -1.02671 -2.79755 0
M  V30 405 H 34.5174 -0.517839 -1.37684 0
M  V30 406 H 36.4754 1.13393 -4.01494 0
M  V30 407 H 35.1054 1.40482 -2.90628 0
M  V30 408 H 34.1574 -0.881076 -3.70056 0
M  V30 409 H 35.4694 -0.940759 -4.89848 0
M  V30 410 H 34.6234 1.16522 -5.95405 0
M  V30 411 H 33.3624 1.31146 -4.69736 0
M  V30 412 H 32.3674 -0.874525 -5.428 0
M  V30 413 H 33.5924 -1.00638 -6.71602 0
M  V30 414 H 31.5384 1.22125 -6.44532 0
M  V30 415 H 31.4554 -0.103877 -7.55929 0
M  V30 416 H 32.7234 1.0743 -7.72062 0
M  V30 417 N 36.9525 1.47285 -0.560781 0
M  V30 418 C 38.1825 2.06555 -0.0429638 0
M  V30 419 C 38.5905 1.41339 1.25777 0
M  V30 420 O 37.9335 0.505182 1.76617 0
M  V30 421 C 37.9955 3.58827 0.219887 0
M  V30 422 C 37.6595 4.46105 -0.991944 0
M  V30 423 C 38.6565 4.84 -1.89843 0
M  V30 424 C 36.3415 4.87567 -1.20762 0
M  V30 425 C 38.3355 5.6216 -3.00425 0
M  V30 426 C 36.0225 5.65491 -2.31653 0
M  V30 427 C 37.0205 6.02699 -3.21315 0
M  V30 428 O 36.7085 6.79052 -4.30283 0
M  V30 429 H 36.4405 0.674537 -0.0444468 0
M  V30 430 H 38.9945 1.90225 -0.774818 0
M  V30 431 H 37.2245 3.73383 1.00609 0
M  V30 432 H 38.9135 4.00103 0.683522 0
M  V30 433 H 39.6795 4.52564 -1.74387 0
M  V30 434 H 35.5585 4.5807 -0.518893 0
M  V30 435 H 39.1025 5.9112 -3.70436 0
M  V30 436 H 34.9995 5.9634 -2.47081 0
M  V30 437 H 35.7675 6.9745 -4.28376 0
M  V30 438 N 38.4306 0.297415 1.54768 0
M  V30 439 C 39.6556 -0.318435 2.04941 0
M  V30 440 C 40.0806 -1.4701 1.17345 0
M  V30 441 O 39.4386 -1.80436 0.176758 0
M  V30 442 C 39.4866 -0.755749 3.52592 0
M  V30 443 O 38.5906 -1.86088 3.68028 0
M  V30 444 H 37.9316 -0.062421 0.661059 0
M  V30 445 H 40.4616 0.438215 1.99852 0
M  V30 446 H 40.4716 -1.04552 3.94376 0
M  V30 447 H 39.1466 0.0867233 4.1581 0
M  V30 448 H 37.7236 -1.57193 3.38149 0
M  V30 449 N 39.9087 -1.5758 0.0250728 0
M  V30 450 C 40.8387 -2.13007 -0.956575 0
M  V30 451 C 41.8197 -1.0452 -1.342 0
M  V30 452 O 43.0047 -1.32332 -1.42133 0
M  V30 453 C 40.1347 -2.65386 -2.24026 0
M  V30 454 C 39.0887 -3.78623 -1.99571 0
M  V30 455 C 38.4147 -4.17414 -3.3417 0
M  V30 456 C 39.7147 -5.04867 -1.33814 0
M  V30 457 H 41.4087 -2.9528 -0.494991 0
M  V30 458 H 38.9547 -1.42042 -0.236651 0
M  V30 459 H 40.9077 -3.02794 -2.93076 0
M  V30 460 H 39.6317 -1.80268 -2.72343 0
M  V30 461 H 38.2907 -3.41646 -1.32941 0
M  V30 462 H 37.9387 -3.29284 -3.80238 0
M  V30 463 H 37.6387 -4.93719 -3.18615 0
M  V30 464 H 39.1627 -4.57402 -4.04495 0
M  V30 465 H 40.5767 -5.39888 -1.92857 0
M  V30 466 H 38.9737 -5.86144 -1.28669 0
M  V30 467 H 40.0437 -4.83904 -0.310561 0
M  V30 468 N 41.3868 0.248026 -1.55636 0
M  V30 469 C 42.6328 0.97767 -1.77678 0
M  V30 470 C 42.9658 1.85016 -0.590135 0
M  V30 471 O 42.2408 1.90095 0.411611 0
M  V30 472 C 42.5238 1.83914 -3.09593 0
M  V30 473 C 42.3768 0.99491 -4.38659 0
M  V30 474 C 43.6958 2.82183 -3.37729 0
M  V30 475 H 40.8148 0.354005 -0.646413 0
M  V30 476 H 43.4568 0.248253 -1.88371 0
M  V30 477 H 41.6068 2.46104 -3.00608 0
M  V30 478 H 43.2788 0.391789 -4.59633 0
M  V30 479 H 41.5218 0.299231 -4.32767 0
M  V30 480 H 42.1928 1.63145 -5.2734 0
M  V30 481 H 44.6688 2.30129 -3.4667 0
M  V30 482 H 43.5448 3.39582 -4.31249 0
M  V30 483 H 43.8058 3.58588 -2.58586 0
M  V30 484 N 42.8649 1.48995 0.513639 0
M  V30 485 C 43.8119 1.6473 1.61656 0
M  V30 486 C 44.7819 0.488984 1.58739 0
M  V30 487 O 45.9669 0.714478 1.76918 0
M  V30 488 C 43.1069 1.7082 2.99858 0
M  V30 489 C 42.2199 2.9787 3.12885 0
M  V30 490 C 41.3549 2.95017 4.41744 0
M  V30 491 C 40.3939 4.16702 4.48359 0
M  V30 492 N 39.5309 4.11832 5.68629 0
M  V30 493 H 44.3709 2.58909 1.47547 0
M  V30 494 H 41.9079 1.28382 0.71808 0
M  V30 495 H 43.8659 1.72331 3.79944 0
M  V30 496 H 42.4959 0.801181 3.12699 0
M  V30 497 H 41.5479 3.06029 2.25944 0
M  V30 498 H 42.8599 3.8786 3.13633 0
M  V30 499 H 42.0139 2.95021 5.30139 0
M  V30 500 H 40.7529 2.02784 4.43542 0
M  V30 501 H 39.7579 4.16955 3.58369 0
M  V30 502 H 40.9829 5.10113 4.48287 0
M  V30 503 H 38.9289 3.22428 5.71293 0
M  V30 504 H 38.8459 4.95543 5.7094 0
M  V30 505 H 40.1139 4.1592 6.59266 0
M  V30 506 N 44.343 -0.763751 1.37857 0
M  V30 507 C 45.291 -1.89864 1.34367 0
M  V30 508 C 46.285 -1.67816 0.231143 0
M  V30 509 O 47.491 -1.75508 0.399617 0
M  V30 510 H 43.866 -0.624501 0.41893 0
M  V30 511 H 45.837 -1.89925 2.30155 0
M  V30 512 C 44.586 -3.27227 1.1755 0
M  V30 513 H 43.909 -3.44773 2.02414 0
M  V30 514 H 45.349 -4.06911 1.1916 0
M  V30 515 C 43.808 -3.36692 -0.118311 0
M  V30 516 O 44.338 -3.86374 -1.09902 0
M  V30 517 N 42.544 -2.90092 -0.171717 0
M  V30 518 H 42.091 -2.49853 0.627012 0
M  V30 519 H 42.049 -2.96806 -1.03699 0
M  V30 520 N 45.8211 -1.22559 -0.990812 0
M  V30 521 C 46.7681 -0.997519 -2.0813 0
M  V30 522 C 47.7381 0.0814702 -1.659 0
M  V30 523 O 48.9231 -0.0685424 -1.90677 0
M  V30 524 C 46.0631 -0.583615 -3.40129 0
M  V30 525 C 45.1761 -1.7336 -3.9569 0
M  V30 526 C 44.3111 -1.26748 -5.15857 0
M  V30 527 C 43.3501 -2.38888 -5.63559 0
M  V30 528 N 42.4871 -1.93308 -6.74964 0
M  V30 529 H 47.3271 -1.93099 -2.26973 0
M  V30 530 H 44.8641 -0.962114 -1.11273 0
M  V30 531 H 46.8221 -0.324801 -4.15934 0
M  V30 532 H 45.4521 0.312845 -3.2128 0
M  V30 533 H 44.5041 -2.10669 -3.16738 0
M  V30 534 H 45.8161 -2.57704 -4.27071 0
M  V30 535 H 44.9701 -0.966173 -5.98957 0
M  V30 536 H 43.7091 -0.394272 -4.86104 0
M  V30 537 H 42.7141 -2.69805 -4.79046 0
M  V30 538 H 43.9391 -3.26728 -5.95336 0
M  V30 539 H 41.8851 -1.08352 -6.4699 0
M  V30 540 H 41.8021 -2.71217 -7.05675 0
M  V30 541 H 43.0701 -1.66252 -7.61564 0
M  V30 542 N 47.2992 1.18797 -1.03562 0
M  V30 543 C 48.5482 1.87978 -0.731235 0
M  V30 544 C 48.8612 1.80911 0.743671 0
M  V30 545 O 50.0672 2.45407 1.16137 0
M  V30 546 C 48.5232 3.3721 -1.25768 0
M  V30 547 C 48.1312 3.52818 -2.76085 0
M  V30 548 C 49.8752 4.11825 -1.0296 0
M  V30 549 C 47.7822 4.9598 -3.22114 0
M  V30 550 H 46.7122 0.704063 -0.269835 0
M  V30 551 H 49.3632 1.34266 -1.25079 0
M  V30 552 H 47.7452 3.90359 -0.666011 0
M  V30 553 H 48.9192 3.09965 -3.40966 0
M  V30 554 H 47.2342 2.91602 -2.97249 0
M  V30 555 H 49.8312 5.17411 -1.34869 0
M  V30 556 H 50.1742 4.16287 0.0333546 0
M  V30 557 H 50.7072 3.64833 -1.58562 0
M  V30 558 H 47.4462 4.96684 -4.27768 0
M  V30 559 H 46.9662 5.39569 -2.61965 0
M  V30 560 H 48.6452 5.6467 -3.15844 0
M  V30 561 N 48.7773 0.814389 1.34928 0
M  V30 562 C 50.0023 0.410097 2.03305 0
M  V30 563 C 50.4273 -0.973464 1.60951 0
M  V30 564 O 49.7853 -1.63185 0.789964 0
M  V30 565 C 49.8333 0.51049 3.56968 0
M  V30 566 O 48.9373 -0.473035 4.09678 0
M  V30 567 H 48.2783 0.170088 0.641846 0
M  V30 568 H 50.8083 1.10244 1.72358 0
M  V30 569 H 50.8183 0.383135 4.06197 0
M  V30 570 H 49.4933 1.51963 3.87144 0
M  V30 571 H 48.0703 -0.305272 3.71648 0
M  V30 572 N 50.2554 -1.46986 0.568584 0
M  V30 573 C 51.2024 -2.30153 -0.172707 0
M  V30 574 C 52.1724 -1.39759 -0.897586 0
M  V30 575 O 53.3574 -1.68716 -0.891044 0
M  V30 576 C 50.4974 -3.23952 -1.1895 0
M  V30 577 C 49.6104 -4.29441 -0.469517 0
M  V30 578 C 48.7454 -5.1038 -1.47259 0
M  V30 579 C 47.7844 -6.07632 -0.738225 0
M  V30 580 N 46.9214 -6.8149 -1.68868 0
M  V30 581 H 51.7614 -2.93019 0.542596 0
M  V30 582 H 49.2984 -1.44422 0.279401 0
M  V30 583 H 51.2564 -3.76767 -1.79173 0
M  V30 584 H 49.8864 -2.62926 -1.87269 0
M  V30 585 H 48.9384 -3.79594 0.247467 0
M  V30 586 H 50.2504 -4.98689 0.105241 0
M  V30 587 H 49.4044 -5.67402 -2.14803 0
M  V30 588 H 48.1434 -4.4106 -2.08128 0
M  V30 589 H 47.1484 -5.49778 -0.0489293 0
M  V30 590 H 48.3734 -6.78966 -0.135129 0
M  V30 591 H 46.3194 -6.14891 -2.28573 0
M  V30 592 H 46.2364 -7.46948 -1.16636 0
M  V30 593 H 47.5044 -7.43078 -2.3549 0
M  V30 594 N 51.7335 -0.305618 -1.54608 0
M  V30 595 C 52.9585 0.307562 -2.05107 0
M  V30 596 C 53.3835 1.46385 -1.18123 0
M  V30 597 O 52.7415 1.8034 -0.186324 0
M  V30 598 C 52.7895 0.73704 -3.52987 0
M  V30 599 O 51.8935 1.84134 -3.6901 0
M  V30 600 H 51.2345 0.0589143 -0.661381 0
M  V30 601 H 53.7645 -0.448807 -1.99617 0
M  V30 602 H 53.7745 1.02459 -3.94925 0
M  V30 603 H 52.4495 -0.108773 -4.15758 0
M  V30 604 H 51.0265 1.55398 -3.38978 0
M  V30 605 N 53.2116 1.57565 -0.0334293 0
M  V30 606 C 54.4366 1.96689 0.657895 0
M  V30 607 C 54.8616 0.910057 1.64619 0
M  V30 608 O 54.2196 -0.128598 1.80843 0
M  V30 609 C 54.2676 3.34905 1.33683 0
M  V30 610 O 53.3716 3.31574 2.45219 0
M  V30 611 H 52.7126 0.641205 0.172489 0
M  V30 612 H 55.2426 2.04372 -0.0965621 0
M  V30 613 H 55.2526 3.71234 1.69262 0
M  V30 614 H 53.9276 4.11366 0.612411 0
M  V30 615 H 52.5046 3.06968 2.11719 0
M  V30 616 N 54.6897 -0.239769 1.55765 0
M  V30 617 C 55.9367 -0.966801 1.7793 0
M  V30 618 C 56.2647 -1.85046 0.599015 0
M  V30 619 O 55.5197 -1.91197 -0.417395 0
M  V30 620 C 55.8187 -1.852 3.05672 0
M  V30 621 C 55.4847 -1.1231 4.36689 0
M  V30 622 C 54.1467 -0.921689 4.72291 0
M  V30 623 C 56.4987 -0.607019 5.17653 0
M  V30 624 C 53.8267 -0.191996 5.86386 0
M  V30 625 C 56.1787 0.109241 6.32506 0
M  V30 626 C 54.8427 0.322073 6.66723 0
M  V30 627 H 54.1127 -0.353778 0.651093 0
M  V30 628 H 56.7597 -0.23634 1.90036 0
M  V30 629 H 55.0647 -2.64975 2.8861 0
M  V30 630 H 56.7617 -2.41635 3.20021 0
M  V30 631 H 53.3517 -1.29004 4.08725 0
M  V30 632 H 57.5357 -0.750153 4.90598 0
M  V30 633 H 52.7917 -0.0166949 6.11398 0
M  V30 634 H 56.9657 0.516737 6.9448 0
M  V30 635 H 54.5927 0.88944 7.54979 0
M  V30 636 N 56.1678 -1.49265 -0.50573 0
M  V30 637 C 57.5838 -1.35923 -0.836486 0
M  V30 638 C 57.7838 -0.388704 -1.97715 0
M  V30 639 O 56.8398 0.181336 -2.51848 0
M  V30 640 C 58.1528 -2.76531 -1.18115 0
M  V30 641 C 59.7008 -2.85197 -1.28964 0
M  V30 642 C 60.1758 -4.26561 -1.66761 0
M  V30 643 N 61.6668 -4.2935 -1.73819 0
M  V30 644 C 62.4018 -5.35693 -2.045 0
M  V30 645 N 61.8978 -6.52287 -2.33438 0
M  V30 646 N 63.6908 -5.23105 -2.05711 0
M  V30 647 H 55.8418 -2.10965 0.246519 0
M  V30 648 H 58.1048 -0.9468 0.0476887 0
M  V30 649 H 57.8108 -3.49226 -0.416398 0
M  V30 650 H 57.6848 -3.11599 -2.1257 0
M  V30 651 H 60.0718 -2.12742 -2.04511 0
M  V30 652 H 60.1528 -2.53718 -0.325704 0
M  V30 653 H 59.7968 -4.99541 -0.917656 0
M  V30 654 H 59.7268 -4.55502 -2.64246 0
M  V30 655 H 62.2178 -3.4526 -1.53635 0
M  V30 656 H 62.5308 -7.29158 -2.56024 0
M  V30 657 H 60.8758 -6.55521 -2.30905 0
M  V30 658 H 64.0668 -4.31026 -1.82577 0
M  V30 659 H 64.2398 -6.06078 -2.29289 0
M  V30 660 N 57.6459 0.756429 -1.3826 0
M  V30 661 C 58.5559 1.9009 -1.37488 0
M  V30 662 C 59.5719 1.71855 -0.272366 0
M  V30 663 O 60.7479 1.94827 -0.510318 0
M  V30 664 C 57.8129 3.25421 -1.19592 0
M  V30 665 C 56.8739 3.56202 -2.39622 0
M  V30 666 C 56.1069 4.85075 -2.2257 0
M  V30 667 O 56.3299 5.57246 -1.21793 0
M  V30 668 O 55.2639 5.15269 -3.11098 0
M  V30 669 H 59.0899 1.93695 -2.33914 0
M  V30 670 H 56.6749 0.901313 -1.1915 0
M  V30 671 H 58.5569 4.06337 -1.11661 0
M  V30 672 H 57.2319 3.22634 -0.262486 0
M  V30 673 H 56.1389 2.75458 -2.53128 0
M  V30 674 H 57.4719 3.63747 -3.31586 0
M  V30 675 N 59.124 1.23083 0.984299 0
M  V30 676 C 60.057 0.951786 2.07404 0
M  V30 677 C 61.035 -0.10848 1.62238 0
M  V30 678 O 62.219 0.0249467 1.88483 0
M  V30 679 C 59.346 0.433142 3.35919 0
M  V30 680 C 58.392 1.47941 4.0002 0
M  V30 681 S 59.225 3.05556 4.39768 0
M  V30 682 C 60.381 2.55351 5.71442 0
M  V30 683 H 60.614 1.87456 2.30754 0
M  V30 684 H 58.147 1.06284 1.11996 0
M  V30 685 H 60.105 0.140506 4.10259 0
M  V30 686 H 58.766 -0.468656 3.10584 0
M  V30 687 H 57.959 1.06658 4.92585 0
M  V30 688 H 57.561 1.7212 3.3204 0
M  V30 689 H 59.853 1.97128 6.48187 0
M  V30 690 H 60.796 3.46441 6.17563 0
M  V30 691 H 61.204 1.96339 5.29255 0
M  V30 692 N 60.6021 -1.18246 1.0419 0
M  V30 693 C 61.5321 -2.24127 0.654914 0
M  V30 694 C 62.5131 -1.66617 -0.342451 0
M  V30 695 O 63.6981 -1.92924 -0.222277 0
M  V30 696 C 60.8281 -3.47295 0.0183757 0
M  V30 697 C 59.7821 -4.17563 0.939414 0
M  V30 698 C 59.1081 -5.34438 0.167286 0
M  V30 699 C 60.4081 -4.70917 2.25908 0
M  V30 700 H 62.1021 -2.56753 1.54007 0
M  V30 701 H 59.6481 -1.23414 0.74195 0
M  V30 702 H 61.6011 -4.20572 -0.264082 0
M  V30 703 H 60.3251 -3.13907 -0.901664 0
M  V30 704 H 58.9841 -3.46186 1.20628 0
M  V30 705 H 58.6321 -4.97298 -0.7552 0
M  V30 706 H 58.3321 -5.82388 0.780901 0
M  V30 707 H 59.8561 -6.10504 -0.108125 0
M  V30 708 H 61.2701 -5.35882 2.03724 0
M  V30 709 H 59.6671 -5.29406 2.82577 0
M  V30 710 H 60.7371 -3.88272 2.9047 0
M  V30 711 N 62.0802 -0.821533 -1.34494 0
M  V30 712 C 63.0122 -0.199946 -2.28326 0
M  V30 713 C 64.0252 0.609377 -1.50965 0
M  V30 714 O 65.2142 0.439285 -1.7301 0
M  V30 715 C 62.3142 0.738431 -3.30757 0
M  V30 716 C 61.4872 -0.0277632 -4.37391 0
M  V30 717 C 60.5462 0.831332 -5.19591 0
M  V30 718 O 59.5722 0.276822 -5.68526 0
M  V30 719 N 60.7742 2.15132 -5.39165 0
M  V30 720 H 63.5392 -1.00609 -2.82308 0
M  V30 721 H 61.1002 -0.678366 -1.47003 0
M  V30 722 H 63.0922 1.31773 -3.82646 0
M  V30 723 H 61.6622 1.44533 -2.7718 0
M  V30 724 H 60.8822 -0.788359 -3.86236 0
M  V30 725 H 62.1702 -0.555251 -5.05761 0
M  V30 726 H 61.5682 2.62559 -5.01078 0
M  V30 727 H 60.1252 2.6795 -5.94177 0
M  V30 728 N 63.5583 1.46682 -0.576371 0
M  V30 729 C 64.5053 2.30241 0.160499 0
M  V30 730 C 65.4753 1.40233 0.890162 0
M  V30 731 O 66.6603 1.69186 0.882084 0
M  V30 732 C 63.8003 3.24578 1.1723 0
M  V30 733 C 62.9133 4.29684 0.446736 0
M  V30 734 C 62.0483 5.11154 1.44551 0
M  V30 735 C 61.0873 6.08015 0.70599 0
M  V30 736 N 60.2243 6.82376 1.65251 0
M  V30 737 H 65.0643 2.92727 -0.558127 0
M  V30 738 H 62.6013 1.44272 -0.287056 0
M  V30 739 H 64.5593 3.77711 1.77172 0
M  V30 740 H 63.1893 2.63916 1.85872 0
M  V30 741 H 62.2413 3.79458 -0.267594 0
M  V30 742 H 63.5533 4.98626 -0.131686 0
M  V30 743 H 62.7073 5.68533 2.11791 0
M  V30 744 H 61.4463 4.42158 2.05786 0
M  V30 745 H 60.4513 5.49796 0.0197725 0
M  V30 746 H 61.6763 6.79028 0.09912 0
M  V30 747 H 59.6223 6.16094 2.25308 0
M  V30 748 H 59.5393 7.47556 1.12673 0
M  V30 749 H 60.8073 7.44316 2.31546 0
M  V30 750 N 65.0364 0.313813 1.54444 0
M  V30 751 C 65.9464 -0.565714 2.27677 0
M  V30 752 C 66.9624 -1.13754 1.31666 0
M  V30 753 O 68.1384 -1.15959 1.64668 0
M  V30 754 C 65.2034 -1.71528 3.01296 0
M  V30 755 C 64.2644 -1.17624 4.12872 0
M  V30 756 C 63.4974 -2.27102 4.8297 0
M  V30 757 O 63.7204 -3.47256 4.52514 0
M  V30 758 O 62.6544 -1.9307 5.70094 0
M  V30 759 H 66.4804 0.0287296 3.03686 0
M  V30 760 H 64.0654 0.0798312 1.49187 0
M  V30 761 H 65.9474 -2.38476 3.4743 0
M  V30 762 H 64.6224 -2.29608 2.2817 0
M  V30 763 H 63.5294 -0.472124 3.71109 0
M  V30 764 H 64.8624 -0.640695 4.88012 0
M  V30 765 N 66.5145 -1.57545 0.0417849 0
M  V30 766 C 67.4445 -2.14009 -0.933929 0
M  V30 767 C 68.4255 -1.05938 -1.33083 0
M  V30 768 O 69.6105 -1.33833 -1.40721 0
M  V30 769 C 66.7405 -2.67747 -2.21199 0
M  V30 770 C 65.6945 -3.80718 -1.95544 0
M  V30 771 C 65.0205 -4.20935 -3.29724 0
M  V30 772 C 66.3205 -5.06258 -1.28452 0
M  V30 773 H 68.0145 -2.95788 -0.463645 0
M  V30 774 H 65.5605 -1.42285 -0.221573 0
M  V30 775 H 67.5135 -3.05886 -2.89848 0
M  V30 776 H 66.2375 -1.83147 -2.70416 0
M  V30 777 H 64.8965 -3.43037 -1.2931 0
M  V30 778 H 64.5445 -3.33298 -3.76724 0
M  V30 779 H 64.2445 -4.9707 -3.13361 0
M  V30 780 H 65.7685 -4.61666 -3.9962 0
M  V30 781 H 67.1825 -5.41903 -1.8712 0
M  V30 782 H 65.5795 -5.87475 -1.22445 0
M  V30 783 H 66.6495 -4.84207 -0.259219 0
M  V30 784 N 67.9926 0.231505 -1.5589 0
M  V30 785 C 68.9406 1.30649 -1.92441 0
M  V30 786 C 69.9346 1.49037 -0.805254 0
M  V30 787 O 71.1406 1.50329 -0.990007 0
M  V30 788 H 67.5156 0.437812 -0.611412 0
M  V30 789 H 69.4866 0.970973 -2.82161 0
M  V30 790 C 68.2356 2.65179 -2.24889 0
M  V30 791 H 67.5586 2.51835 -3.10514 0
M  V30 792 H 68.9986 3.39234 -2.54355 0
M  V30 793 C 67.4576 3.19439 -1.07054 0
M  V30 794 O 67.9876 4.00371 -0.326499 0
M  V30 795 N 66.1936 2.77675 -0.85703 0
M  V30 796 H 65.7406 2.11969 -1.46379 0
M  V30 797 H 65.6986 3.14321 -0.0703223 0
M  V30 798 N 69.4707 1.49531 0.497807 0
M  V30 799 C 70.4207 1.62829 1.59596 0
M  V30 800 C 71.4047 0.483824 1.53453 0
M  V30 801 O 72.5967 0.736937 1.60929 0
M  V30 802 C 69.7257 1.7011 2.98191 0
M  V30 803 C 68.8117 2.90144 3.09317 0
M  V30 804 N 69.2027 4.1418 2.90324 0
M  V30 805 C 67.5007 2.88148 3.40422 0
M  V30 806 C 68.2017 4.94886 3.05717 0
M  V30 807 N 67.1777 4.28314 3.34736 0
M  V30 808 H 70.9797 2.56446 1.4357 0
M  V30 809 H 68.4937 1.46347 0.704001 0
M  V30 810 H 70.4907 1.77735 3.77115 0
M  V30 811 H 69.1507 0.776315 3.15283 0
M  V30 812 H 70.1617 4.44109 2.66436 0
M  V30 813 H 66.8387 2.05061 3.63671 0
M  V30 814 H 68.2287 6.03432 2.95499 0
M  V30 815 N 70.9488 -0.749086 1.3866 0
M  V30 816 C 71.8818 -1.87111 1.30631 0
M  V30 817 C 72.8598 -1.61572 0.18251 0
M  V30 818 O 74.0438 -1.85019 0.360592 0
M  V30 819 C 71.1708 -3.22815 1.02511 0
M  V30 820 C 70.2168 -3.67234 2.1689 0
M  V30 821 S 71.0498 -3.78245 3.79066 0
M  V30 822 C 72.2058 -5.16761 3.53142 0
M  V30 823 H 72.4388 -1.93636 2.25594 0
M  V30 824 H 69.9718 -0.912525 1.24549 0
M  V30 825 H 71.9298 -4.01181 0.869701 0
M  V30 826 H 70.5908 -3.13964 0.0925884 0
M  V30 827 H 69.7838 -4.65677 1.92771 0
M  V30 828 H 69.3858 -2.96034 2.28561 0
M  V30 829 H 71.6778 -6.02656 3.09534 0
M  V30 830 H 72.6208 -5.45902 4.50995 0
M  V30 831 H 73.0288 -4.85771 2.87554 0
M  V30 832 N 72.4269 -1.23603 -0.977757 0
M  V30 833 C 73.3569 -1.04401 -2.0886 0
M  V30 834 C 74.3379 0.0399052 -1.70053 0
M  V30 835 O 75.5229 -0.125246 -1.93796 0
M  V30 836 C 72.6529 -0.637269 -3.41403 0
M  V30 837 C 71.6069 -1.66883 -3.94124 0
M  V30 838 C 70.9329 -1.11745 -5.22893 0
M  V30 839 C 72.2329 -3.06247 -4.23096 0
M  V30 840 H 73.9269 -1.97316 -2.25182 0
M  V30 841 H 71.4729 -0.950096 -1.08209 0
M  V30 842 H 73.4259 -0.48998 -4.18542 0
M  V30 843 H 72.1499 0.327557 -3.24953 0
M  V30 844 H 70.8089 -1.80416 -3.19133 0
M  V30 845 H 70.4569 -0.143527 -5.02795 0
M  V30 846 H 70.1569 -1.80672 -5.59134 0
M  V30 847 H 71.6809 -0.982067 -6.02651 0
M  V30 848 H 73.0949 -2.96001 -4.90975 0
M  V30 849 H 71.4919 -3.72436 -4.70544 0
M  V30 850 H 72.5619 -3.55041 -3.30263 0
M  V30 851 N 73.905 1.17692 -1.04816 0
M  V30 852 C 75.13 1.92327 -0.776207 0
M  V30 853 C 75.555 1.76082 0.661581 0
M  V30 854 O 74.913 1.076 1.45917 0
M  V30 855 C 74.961 3.41539 -1.15687 0
M  V30 856 O 74.065 4.11402 -0.286775 0
M  V30 857 H 73.406 0.599735 -0.284981 0
M  V30 858 H 75.936 1.49201 -1.4 0
M  V30 859 H 75.946 3.92269 -1.12202 0
M  V30 860 H 74.621 3.52684 -2.20425 0
M  V30 861 H 73.198 3.70939 -0.381903 0
M  V30 862 N 75.3831 0.828654 1.34056 0
M  V30 863 C 76.6601 0.341809 1.9259 0
M  V30 864 C 77.0401 -1.17158 1.75605 0
M  V30 865 O 76.3881 -1.98132 1.13824 0
M  V30 866 C 76.5981 0.777453 3.4023 0
M  V30 867 C 77.9461 0.779579 4.17382 0
M  V30 868 O 78.9701 0.7204 3.48839 0
M  V30 869 O 77.8291 0.857996 5.39723 0
M  V30 870 H 74.9231 0.0946085 0.821571 0
M  V30 871 H 77.4691 0.913827 1.42994 0
M  V30 872 H 76.2411 1.8196 3.46419 0
M  V30 873 H 75.8641 0.181444 3.97186 0
M  V30 874 N 76.8612 -1.46375 0.584142 0
M  V30 875 C 78.0892 -2.06761 0.0759296 0
M  V30 876 C 78.5042 -1.43266 -1.22965 0
M  V30 877 O 77.8612 -0.538458 -1.74376 0
M  V30 878 C 77.9122 -3.61375 -0.0950384 0
M  V30 879 O 77.6332 -4.22495 1.15887 0
M  V30 880 C 79.1342 -4.38693 -0.637434 0
M  V30 881 H 76.3542 -0.668479 0.0581075 0
M  V30 882 H 78.8982 -1.8798 0.805218 0
M  V30 883 H 77.0532 -3.79578 -0.774554 0
M  V30 884 H 77.4672 -5.15385 0.973598 0
M  V30 885 H 78.9412 -5.47464 -0.706237 0
M  V30 886 H 79.4182 -4.06836 -1.65472 0
M  V30 887 H 80.0242 -4.25299 0.00725967 0
M  V30 888 N 78.3393 -0.321999 -1.54275 0
M  V30 889 C 79.5873 0.280489 -2.00144 0
M  V30 890 C 79.9083 1.52777 -1.21178 0
M  V30 891 O 79.1783 1.9338 -0.313187 0
M  V30 892 H 77.7583 0.106632 -0.73935 0
M  V30 893 H 80.4203 -0.438184 -1.8991 0
M  V30 894 H 79.5163 0.537972 -3.07428 0
M  V30 895 N 79.8174 1.5752 -0.0501392 0
M  V30 896 C 80.7654 2.12651 0.942459 0
M  V30 897 C 81.7594 1.05807 1.32292 0
M  V30 898 O 82.9654 1.24217 1.3027 0
M  V30 899 H 79.3404 0.679673 0.321789 0
M  V30 900 H 81.3114 2.94951 0.452356 0
M  V30 901 C 80.0604 2.68565 2.20836 0
M  V30 902 H 79.3834 3.50439 1.92439 0
M  V30 903 H 80.8234 3.10761 2.8845 0
M  V30 904 C 79.2824 1.62291 2.95234 0
M  V30 905 O 79.8124 1.03508 3.88135 0
M  V30 906 N 78.0184 1.33836 2.57946 0
M  V30 907 H 77.5654 1.81826 1.82475 0
M  V30 908 H 77.5234 0.629595 3.08032 0
M  V30 909 N 81.2955 -0.223234 1.56011 0
M  V30 910 C 82.7115 -0.572856 1.48965 0
M  V30 911 C 82.9115 -1.87225 0.74492 0
M  V30 912 O 81.9675 -2.50899 0.283896 0
M  V30 913 C 83.2805 -0.653646 2.9351 0
M  V30 914 C 84.8285 -0.744386 3.0402 0
M  V30 915 C 85.3035 -0.856535 4.49919 0
M  V30 916 N 86.7945 -0.9208 4.53955 0
M  V30 917 C 87.5295 -1.02726 5.64123 0
M  V30 918 N 87.0255 -1.09777 6.84047 0
M  V30 919 N 88.8185 -1.06226 5.51971 0
M  V30 920 H 80.9695 0.629462 2.02858 0
M  V30 921 H 83.2325 0.220621 0.921971 0
M  V30 922 H 82.9385 0.231518 3.50937 0
M  V30 923 H 82.8125 -1.51781 3.45315 0
M  V30 924 H 85.1995 -1.61999 2.46658 0
M  V30 925 H 85.2805 0.14541 2.55386 0
M  V30 926 H 84.9245 0.0146069 5.07898 0
M  V30 927 H 84.8545 -1.76172 4.96257 0
M  V30 928 H 87.3455 -0.876694 3.6759 0
M  V30 929 H 87.6585 -1.17872 7.63758 0
M  V30 930 H 86.0035 -1.06693 6.86762 0
M  V30 931 H 89.1945 -1.00382 4.5721 0
M  V30 932 H 89.3675 -1.14177 6.37862 0
M  V30 933 N 82.7736 -1.49793 -0.48987 0
M  V30 934 C 83.7206 -1.67281 -1.59014 0
M  V30 935 C 84.6906 -0.514177 -1.57941 0
M  V30 936 O 85.8756 -0.742533 -1.75759 0
M  V30 937 C 83.0156 -1.75569 -2.97102 0
M  V30 938 C 82.1286 -3.0281 -3.08107 0
M  V30 939 C 81.2636 -3.02008 -4.36995 0
M  V30 940 C 80.3026 -4.23782 -4.41673 0
M  V30 941 N 79.4396 -4.20826 -5.62005 0
M  V30 942 H 84.2796 -2.61224 -1.43409 0
M  V30 943 H 81.8166 -1.29508 -0.697565 0
M  V30 944 H 83.7746 -1.78354 -3.77155 0
M  V30 945 H 82.4046 -0.850827 -3.11385 0
M  V30 946 H 81.4566 -3.09584 -2.21047 0
M  V30 947 H 82.7686 -3.92801 -3.07423 0
M  V30 948 H 81.9226 -3.03418 -5.25378 0
M  V30 949 H 80.6616 -2.09815 -4.4026 0
M  V30 950 H 79.6666 -4.22604 -3.5169 0
M  V30 951 H 80.8916 -5.17181 -4.40115 0
M  V30 952 H 78.8376 -3.31476 -5.66091 0
M  V30 953 H 78.7546 -5.04564 -5.62984 0
M  V30 954 H 80.0226 -4.26355 -6.52565 0
M  V30 955 N 84.2517 0.741722 -1.39055 0
M  V30 956 C 85.2147 1.83733 -1.37021 0
M  V30 957 C 86.2147 1.58542 -0.268534 0
M  V30 958 O 87.4047 1.66067 -0.526076 0
M  V30 959 C 84.5367 3.2141 -1.13617 0
M  V30 960 H 85.7297 1.86941 -2.34506 0
M  V30 961 H 83.2827 0.944676 -1.24521 0
M  V30 962 H 84.0177 3.23865 -0.167863 0
M  V30 963 H 83.8027 3.4109 -1.93391 0
M  V30 964 H 85.2927 4.01477 -1.14918 0
M  V30 965 N 85.7298 1.2412 0.971189 0
M  V30 966 C 86.6928 1.03156 2.04674 0
M  V30 967 C 87.6928 -0.00990322 1.60797 0
M  V30 968 O 88.8828 0.230729 1.72665 0
M  V30 969 C 86.0148 0.562765 3.36223 0
M  V30 970 H 87.2078 1.98614 2.24705 0
M  V30 971 H 84.7608 1.06293 1.14593 0
M  V30 972 H 85.4958 -0.395176 3.21883 0
M  V30 973 H 85.2808 1.31441 3.69413 0
M  V30 974 H 86.7708 0.437015 4.15307 0
M  V30 975 N 87.2079 -1.17134 1.05439 0
M  V30 976 C 88.4849 -1.83411 0.679699 0
M  V30 977 C 88.8649 -1.9368 -0.839726 0
M  V30 978 O 88.2129 -1.47325 -1.74664 0
M  V30 979 C 88.4229 -3.20918 1.37159 0
M  V30 980 C 89.7709 -3.96796 1.51123 0
M  V30 981 O 90.7949 -3.30406 1.3308 0
M  V30 982 O 89.6539 -5.15778 1.80651 0
M  V30 983 H 86.7479 -0.79154 0.239569 0
M  V30 984 H 89.2939 -1.24411 1.15413 0
M  V30 985 H 88.0659 -3.08428 2.40807 0
M  V30 986 H 87.6889 -3.87587 0.886674 0
M  V30 987 N 88.686 -0.835752 -1.33615 0
M  V30 988 C 89.633 -0.26473 -2.29277 0
M  V30 989 C 90.603 0.617712 -1.54187 0
M  V30 990 O 91.788 0.556641 -1.825 0
M  V30 991 C 88.928 0.556777 -3.40579 0
M  V30 992 C 88.041 -0.349339 -4.30585 0
M  V30 993 C 87.176 0.482969 -5.29 0
M  V30 994 C 86.215 -0.421732 -6.10645 0
M  V30 995 N 85.352 0.372262 -7.01112 0
M  V30 996 H 90.192 -1.08582 -2.77514 0
M  V30 997 H 87.729 -0.546927 -1.36554 0
M  V30 998 H 89.687 1.04852 -4.03809 0
M  V30 999 H 88.317 1.34286 -2.93542 0
M  V30 1000 H 87.369 -0.959372 -3.68104 0
M  V30 1001 H 88.681 -1.04445 -4.87742 0
M  V30 1002 H 87.835 1.03866 -5.97743 0
M  V30 1003 H 86.574 1.21153 -4.72412 0
M  V30 1004 H 85.579 -0.989464 -5.40823 0
M  V30 1005 H 86.804 -1.14861 -6.69316 0
M  V30 1006 H 84.75 1.08426 -6.46977 0
M  V30 1007 H 84.667 -0.264198 -7.55538 0
M  V30 1008 H 85.935 0.910293 -7.74167 0
M  V30 1009 N 90.1641 1.46063 -0.591896 0
M  V30 1010 C 91.0941 2.33172 0.123673 0
M  V30 1011 C 92.0751 1.45897 0.87453 0
M  V30 1012 O 93.2601 1.74698 0.848181 0
M  V30 1013 C 90.3901 3.28336 1.13194 0
M  V30 1014 C 89.3441 4.25124 0.495324 0
M  V30 1015 C 88.6701 5.09863 1.61071 0
M  V30 1016 C 89.9701 5.19143 -0.573425 0
M  V30 1017 H 91.6641 2.93252 -0.603646 0
M  V30 1018 H 89.2101 1.41014 -0.291741 0
M  V30 1019 H 91.1631 3.88137 1.64097 0
M  V30 1020 H 89.8871 2.66383 1.88965 0
M  V30 1021 H 88.5461 3.66599 0.00729452 0
M  V30 1022 H 88.1941 4.44288 2.35832 0
M  V30 1023 H 87.8941 5.75417 1.19035 0
M  V30 1024 H 89.4181 5.72529 2.12233 0
M  V30 1025 H 90.8321 5.73106 -0.1491 0
M  V30 1026 H 89.2291 5.93089 -0.914636 0
M  V30 1027 H 90.2991 4.62519 -1.45617 0
M  V30 1028 N 91.6422 0.330177 1.54103 0
M  V30 1029 C 92.8912 -0.271336 1.99867 0
M  V30 1030 C 93.2042 -1.52723 1.22209 0
M  V30 1031 O 94.4102 -2.20515 1.58383 0
M  V30 1032 C 92.8662 -0.534032 3.55916 0
M  V30 1033 C 92.4742 0.705193 4.42415 0
M  V30 1034 C 94.2182 -1.09514 4.1013 0
M  V30 1035 C 92.1252 0.414035 5.89949 0
M  V30 1036 H 91.0552 -0.105166 0.74663 0
M  V30 1037 H 93.7062 0.443429 1.78062 0
M  V30 1038 H 92.0882 -1.30915 3.73734 0
M  V30 1039 H 93.2622 1.4804 4.36372 0
M  V30 1040 H 91.5772 1.18698 3.99124 0
M  V30 1041 H 94.1742 -1.3277 5.17954 0
M  V30 1042 H 94.5172 -2.04656 3.62521 0
M  V30 1043 H 95.0502 -0.381038 3.95971 0
M  V30 1044 H 91.7892 1.33481 6.41766 0
M  V30 1045 H 91.3092 -0.323336 5.98928 0
M  V30 1046 H 92.9882 0.0263105 6.46995 0
M  V30 1047 N 93.1203 -1.57491 0.0584922 0
M  V30 1048 C 94.0523 -2.08916 -0.942694 0
M  V30 1049 C 95.0653 -1.0185 -1.27006 0
M  V30 1050 O 96.2543 -1.29398 -1.22957 0
M  V30 1051 C 93.3543 -2.52341 -2.26224 0
M  V30 1052 C 92.5273 -3.82827 -2.1157 0
M  V30 1053 C 91.5863 -4.12487 -3.26712 0
M  V30 1054 O 90.6123 -4.82295 -3.02292 0
M  V30 1055 N 91.8143 -3.64978 -4.5141 0
M  V30 1056 H 94.5793 -2.95437 -0.503722 0
M  V30 1057 H 92.1403 -1.61397 -0.12757 0
M  V30 1058 H 94.1323 -2.69254 -3.02133 0
M  V30 1059 H 92.7023 -1.7103 -2.61663 0
M  V30 1060 H 91.9223 -3.75425 -1.20208 0
M  V30 1061 H 93.2103 -4.68263 -1.99015 0
M  V30 1062 H 92.6083 -3.08558 -4.7414 0
M  V30 1063 H 91.1653 -3.87115 -5.2439 0
M  V30 1064 N 94.5984 0.214957 -1.56127 0
M  V30 1065 C 95.5464 1.28601 -1.93816 0
M  V30 1066 C 96.5404 1.48175 -0.821016 0
M  V30 1067 O 97.7464 1.49271 -1.0059 0
M  V30 1068 H 94.1214 0.431302 -0.616022 0
M  V30 1069 H 96.0924 0.940991 -2.83175 0
M  V30 1070 C 94.8414 2.62779 -2.27689 0
M  V30 1071 H 94.1644 2.48527 -3.13168 0
M  V30 1072 H 95.6044 3.36517 -2.57939 0
M  V30 1073 C 94.0634 3.18285 -1.10436 0
M  V30 1074 O 94.5934 4.00002 -0.368945 0
M  V30 1075 N 92.7994 2.7675 -0.886433 0
M  V30 1076 H 92.3464 2.10404 -1.48619 0
M  V30 1077 H 92.3044 3.14229 -0.103656 0
M  V30 1078 N 96.0765 1.50051 0.48192 0
M  V30 1079 C 97.0065 1.71046 1.58951 0
M  V30 1080 C 97.9875 0.559288 1.60642 0
M  V30 1081 O 99.1725 0.797243 1.77081 0
M  V30 1082 C 96.3025 1.79462 2.97339 0
M  V30 1083 C 95.2565 2.94558 3.10515 0
M  V30 1084 C 94.5825 2.88105 4.50444 0
M  V30 1085 C 95.8825 4.35227 2.88747 0
M  V30 1086 H 97.5765 2.6378 1.41635 0
M  V30 1087 H 95.1225 1.26936 0.679942 0
M  V30 1088 H 97.0755 1.92734 3.74742 0
M  V30 1089 H 95.7995 0.833412 3.15788 0
M  V30 1090 H 94.4585 2.80918 2.35543 0
M  V30 1091 H 94.1065 1.89853 4.65795 0
M  V30 1092 H 93.8065 3.65366 4.60197 0
M  V30 1093 H 95.3305 3.03412 5.29881 0
M  V30 1094 H 96.7445 4.49449 3.55905 0
M  V30 1095 H 95.1415 5.13856 3.09955 0
M  V30 1096 H 96.2115 4.48347 1.84696 0
M  V30 1097 N 97.5546 -0.734337 1.39446 0
M  V30 1098 C 98.8316 -1.48579 1.27215 0
M  V30 1099 C 99.2116 -2.1077 -0.117968 0
M  V30 1100 O 98.5596 -1.98646 -1.12924 0
M  V30 1101 C 98.7696 -2.53667 2.39696 0
M  V30 1102 C 100.118 -3.20031 2.79044 0
M  V30 1103 O 101.142 -2.6398 2.39151 0
M  V30 1104 O 100.001 -4.21455 3.47905 0
M  V30 1105 H 97.0946 -0.659816 0.49857 0
M  V30 1106 H 99.6406 -0.768106 1.51322 0
M  V30 1107 H 98.4126 -2.06096 3.32626 0
M  V30 1108 H 98.0356 -3.32994 2.17258 0
M  V30 1109 N 99.0327 -1.24633 -0.964593 0
M  V30 1110 C 99.9957 -1.0424 -2.04124 0
M  V30 1111 C 100.996 0.00137563 -1.608 0
M  V30 1112 O 102.186 -0.239883 -1.7254 0
M  V30 1113 C 99.3177 -0.580588 -3.3592 0
M  V30 1114 H 100.511 -1.99803 -2.23649 0
M  V30 1115 H 98.0637 -1.06899 -1.14027 0
M  V30 1116 H 98.7987 0.3781 -3.22088 0
M  V30 1117 H 98.5837 -1.33398 -3.6871 0
M  V30 1118 H 100.074 -0.459034 -4.15069 0
M  V30 1119 N 100.511 1.16574 -1.06058 0
M  V30 1120 C 101.459 2.22941 -0.663343 0
M  V30 1121 C 102.453 1.66358 0.319593 0
M  V30 1122 O 103.659 1.7905 0.184713 0
M  V30 1123 H 100.034 0.725907 -0.196376 0
M  V30 1124 H 102.005 2.53736 -1.57037 0
M  V30 1125 C 100.754 3.47642 -0.0632808 0
M  V30 1126 H 100.077 3.91493 -0.810733 0
M  V30 1127 H 101.517 4.2363 0.177177 0
M  V30 1128 C 99.9758 3.1509 1.19248 0
M  V30 1129 O 100.506 3.30673 2.28075 0
M  V30 1130 N 98.7118 2.6924 1.09353 0
M  V30 1131 H 98.2588 2.5676 0.207912 0
M  V30 1132 H 98.2168 2.47833 1.93458 0
M  V30 1133 N 101.989 0.842826 1.3317 0
M  V30 1134 C 102.939 0.250877 2.26616 0
M  V30 1135 C 103.923 -0.596427 1.49437 0
M  V30 1136 O 105.115 -0.447747 1.71243 0
M  V30 1137 C 102.244 -0.569779 3.38539 0
M  V30 1138 C 101.33 0.289254 4.23112 0
M  V30 1139 N 101.721 1.36987 4.86897 0
M  V30 1140 C 100.019 0.0769631 4.45934 0
M  V30 1141 C 100.72 1.89737 5.49886 0
M  V30 1142 N 99.6959 1.19827 5.30229 0
M  V30 1143 H 103.498 1.07718 2.73448 0
M  V30 1144 H 101.012 0.687693 1.47121 0
M  V30 1145 H 103.009 -1.01018 4.04476 0
M  V30 1146 H 101.669 -1.39401 2.93253 0
M  V30 1147 H 102.68 1.75277 4.87338 0
M  V30 1148 H 99.3569 -0.713507 4.11358 0
M  V30 1149 H 100.747 2.80253 6.10662 0
M  V30 1150 N 103.467 -1.45747 0.599634 0
M  V30 1151 C 104.744 -1.95585 0.0240846 0
M  V30 1152 C 105.124 -1.54217 -1.44154 0
M  V30 1153 O 104.472 -0.800903 -2.14004 0
M  V30 1154 C 104.682 -3.48344 0.21385 0
M  V30 1155 C 106.03 -4.24504 0.0904902 0
M  V30 1156 O 107.054 -3.55911 0.143558 0
M  V30 1157 O 105.913 -5.46491 -0.0310766 0
M  V30 1158 H 103.007 -0.82602 -0.0402478 0
M  V30 1159 H 105.553 -1.55951 0.669139 0
M  V30 1160 H 104.325 -3.71397 1.23206 0
M  V30 1161 H 103.948 -3.9485 -0.466842 0
M  V30 1162 N 104.945 -0.338344 -1.53925 0
M  V30 1163 C 106.193 0.259245 -2.0043 0
M  V30 1164 C 106.514 1.51484 -1.22791 0
M  V30 1165 O 105.784 1.93037 -0.33368 0
M  V30 1166 H 104.364 0.0987845 -0.740439 0
M  V30 1167 H 107.026 -0.458302 -1.89435 0
M  V30 1168 H 106.122 0.505334 -3.07982 0
M  V30 1169 N 106.423 1.57458 -0.0668435 0
M  V30 1170 C 107.839 1.56947 0.289772 0
M  V30 1171 C 108.039 1.07584 1.70376 0
M  V30 1172 O 107.095 0.739486 2.41429 0
M  V30 1173 C 108.408 3.0052 0.103943 0
M  V30 1174 C 109.956 3.12517 0.173857 0
M  V30 1175 C 110.431 4.57997 0.0163682 0
M  V30 1176 N 111.922 4.63144 0.0721352 0
M  V30 1177 C 112.657 5.73394 -0.0253794 0
M  V30 1178 N 112.153 6.92576 -0.176133 0
M  V30 1179 N 113.946 5.62091 0.0313305 0
M  V30 1180 H 106.097 1.87863 -0.991027 0
M  V30 1181 H 108.36 0.86583 -0.38606 0
M  V30 1182 H 108.066 3.40729 -0.871572 0
M  V30 1183 H 107.94 3.67304 0.858366 0
M  V30 1184 H 110.327 2.72197 1.13985 0
M  V30 1185 H 110.408 2.48381 -0.611586 0
M  V30 1186 H 110.052 4.99005 -0.946374 0
M  V30 1187 H 109.982 5.20158 0.821153 0
M  V30 1188 H 112.473 3.77436 0.187263 0
M  V30 1189 H 112.786 7.72418 -0.242821 0
M  V30 1190 H 111.131 6.94678 -0.211429 0
M  V30 1191 H 114.322 4.67867 0.147773 0
M  V30 1192 H 114.495 6.47982 -0.048121 0
M  V30 1193 N 107.901 -0.206675 1.56239 0
M  V30 1194 C 109.15 -0.926964 1.79138 0
M  V30 1195 C 109.463 -1.84901 0.638043 0
M  V30 1196 O 110.669 -2.60906 0.751033 0
M  V30 1197 C 109.125 -1.6986 3.17294 0
M  V30 1198 C 108.733 -0.821956 4.40395 0
M  V30 1199 C 110.477 -2.40922 3.4951 0
M  V30 1200 C 108.384 -1.59179 5.69575 0
M  V30 1201 H 107.314 -0.349864 0.667915 0
M  V30 1202 H 109.965 -0.180487 1.8261 0
M  V30 1203 H 108.347 -2.48853 3.08039 0
M  V30 1204 H 109.521 -0.0715019 4.60745 0
M  V30 1205 H 107.836 -0.222741 4.15804 0
M  V30 1206 H 110.433 -2.99047 4.43255 0
M  V30 1207 H 110.776 -3.14542 2.72707 0
M  V30 1208 H 111.309 -1.68905 3.60161 0
M  V30 1209 H 108.048 -0.898589 6.49312 0
M  V30 1210 H 107.568 -2.31648 5.53262 0
M  V30 1211 H 109.247 -2.14862 6.10281 0
M  V30 1212 N 109.379 -1.50304 -0.473955 0
M  V30 1213 C 110.604 -1.65175 -1.25427 0
M  V30 1214 C 111.029 -0.333673 -1.85117 0
M  V30 1215 O 110.387 0.702114 -1.67153 0
M  V30 1216 C 110.435 -2.74295 -2.34082 0
M  V30 1217 O 109.539 -2.35349 -3.38651 0
M  V30 1218 H 108.88 -0.551944 -0.369126 0
M  V30 1219 H 111.41 -1.96662 -0.564364 0
M  V30 1220 H 111.42 -2.97285 -2.79438 0
M  V30 1221 H 110.095 -3.69959 -1.90008 0
M  V30 1222 H 108.672 -2.22794 -2.99027 0
M  V30 1223 N 110.857 0.726932 -1.39834 0
M  V30 1224 C 112.104 1.48664 -1.37496 0
M  V30 1225 C 112.432 1.94482 0.0264678 0
M  V30 1226 O 111.687 1.67692 1.00886 0
M  V30 1227 C 111.986 2.73495 -2.30077 0
M  V30 1228 C 111.652 2.46502 -3.77555 0
M  V30 1229 C 110.314 2.3885 -4.17737 0
M  V30 1230 C 112.666 2.23604 -4.70798 0
M  V30 1231 C 109.994 2.06352 -5.49214 0
M  V30 1232 C 112.346 1.92622 -6.02561 0
M  V30 1233 C 111.01 1.83444 -6.41798 0
M  V30 1234 H 110.28 0.544001 -0.503135 0
M  V30 1235 H 112.927 0.833657 -1.72402 0
M  V30 1236 H 111.232 3.43575 -1.88317 0
M  V30 1237 H 112.929 3.31549 -2.25558 0
M  V30 1238 H 109.519 2.5334 -3.45712 0
M  V30 1239 H 113.703 2.28479 -4.40581 0
M  V30 1240 H 108.959 1.97776 -5.78528 0
M  V30 1241 H 113.133 1.73914 -6.74334 0
M  V30 1242 H 110.76 1.58029 -7.43593 0
M  V30 1243 N 112.336 1.25143 0.95797 0
M  V30 1244 C 113.613 1.00472 1.67823 0
M  V30 1245 C 113.993 -0.470056 2.058 0
M  V30 1246 O 113.341 -1.44663 1.76875 0
M  V30 1247 C 113.551 1.9372 2.90299 0
M  V30 1248 C 114.899 2.21371 3.62326 0
M  V30 1249 O 115.923 1.91451 3.00375 0
M  V30 1250 O 114.782 2.72231 4.7387 0
M  V30 1251 H 111.876 0.380752 0.734137 0
M  V30 1252 H 114.422 1.36283 1.01119 0
M  V30 1253 H 113.194 2.93316 2.59001 0
M  V30 1254 H 112.817 1.58286 3.64735 0
M  V30 1255 N 113.814 -1.1601 1.06675 0
M  V30 1256 C 114.724 -2.24156 0.692179 0
M  V30 1257 C 115.74 -1.71507 -0.293513 0
M  V30 1258 O 116.916 -2.009 -0.141861 0
M  V30 1259 C 113.981 -3.46587 0.0884131 0
M  V30 1260 C 113.042 -4.14257 1.12646 0
M  V30 1261 C 112.275 -5.30844 0.551416 0
M  V30 1262 O 112.498 -5.66858 -0.634656 0
M  V30 1263 O 111.432 -5.87848 1.29298 0
M  V30 1264 H 115.258 -2.58513 1.59388 0
M  V30 1265 H 112.843 -1.23599 0.83926 0
M  V30 1266 H 114.725 -4.20679 -0.246361 0
M  V30 1267 H 113.4 -3.13994 -0.786712 0
M  V30 1268 H 112.307 -3.42118 1.51348 0
M  V30 1269 H 113.64 -4.50914 1.97325 0
M  V30 1270 N 115.292 -0.849877 -1.32721 0
M  V30 1271 C 116.522 -0.46408 -2.0132 0
M  V30 1272 C 116.93 0.94246 -1.64056 0
M  V30 1273 O 116.273 1.6257 -0.855379 0
M  V30 1274 C 116.335 -0.517887 -3.5575 0
M  V30 1275 C 115.999 -1.88248 -4.16427 0
M  V30 1276 C 116.996 -2.84726 -4.35002 0
M  V30 1277 C 114.681 -2.17832 -4.52609 0
M  V30 1278 C 116.675 -4.08945 -4.8892 0
M  V30 1279 C 114.362 -3.42304 -5.06232 0
M  V30 1280 C 115.36 -4.37677 -5.24335 0
M  V30 1281 O 115.048 -5.59946 -5.76815 0
M  V30 1282 H 114.78 -0.181327 -0.651227 0
M  V30 1283 H 117.334 -1.14713 -1.70382 0
M  V30 1284 H 115.564 0.221997 -3.86062 0
M  V30 1285 H 117.253 -0.148366 -4.05629 0
M  V30 1286 H 118.019 -2.63174 -4.07388 0
M  V30 1287 H 113.898 -1.44385 -4.37806 0
M  V30 1288 H 117.442 -4.83396 -5.02966 0
M  V30 1289 H 113.339 -3.63709 -5.33278 0
M  V30 1290 H 114.107 -5.61838 -5.95214 0
M  V30 1291 N 116.77 1.45427 -0.607355 0
M  V30 1292 C 118.016 2.03097 -0.111035 0
M  V30 1293 C 118.371 1.46735 1.24445 0
M  V30 1294 O 117.664 0.632478 1.8086 0
M  V30 1295 C 117.858 3.57398 -0.0129263 0
M  V30 1296 C 117.687 4.28726 -1.35735 0
M  V30 1297 C 116.457 4.66659 -1.93798 0
M  V30 1298 C 118.655 4.60699 -2.28607 0
M  V30 1299 N 116.637 5.22845 -3.21723 0
M  V30 1300 C 118.008 5.17716 -3.41131 0
M  V30 1301 C 120.063 4.42638 -2.27982 0
M  V30 1302 C 118.766 5.58576 -4.53194 0
M  V30 1303 C 120.792 4.84531 -3.39093 0
M  V30 1304 C 120.154 5.4164 -4.50339 0
M  V30 1305 H 116.253 0.777476 -0.083994 0
M  V30 1306 H 118.837 1.77249 -0.805655 0
M  V30 1307 H 117.008 3.82907 0.650914 0
M  V30 1308 H 118.74 4.01722 0.490033 0
M  V30 1309 H 115.495 4.50207 -1.47007 0
M  V30 1310 H 115.919 5.55438 -3.87063 0
M  V30 1311 H 120.561 3.97798 -1.43235 0
M  V30 1312 H 118.279 6.02382 -5.38667 0
M  V30 1313 H 121.865 4.72289 -3.39757 0
M  V30 1314 H 120.745 5.73461 -5.34895 0
M  V30 1315 N 118.248 0.346503 1.53744 0
M  V30 1316 C 119.476 -0.25041 2.05379 0
M  V30 1317 C 119.891 -1.43979 1.22129 0
M  V30 1318 O 119.248 -1.80677 0.257321 0
M  V30 1319 C 119.299 -0.662575 3.55376 0
M  V30 1320 O 119.02 0.479515 4.35468 0
M  V30 1321 C 120.521 -1.31989 4.23195 0
M  V30 1322 H 117.741 -0.0478198 0.669294 0
M  V30 1323 H 120.285 0.499346 1.9831 0
M  V30 1324 H 118.44 -1.36227 3.62658 0
M  V30 1325 H 118.854 0.15037 5.24284 0
M  V30 1326 H 120.328 -1.55902 5.29527 0
M  V30 1327 H 120.805 -2.27436 3.75725 0
M  V30 1328 H 121.411 -0.662154 4.20114 0
M  V30 1329 N 119.726 -1.57421 0.075193 0
M  V30 1330 C 120.656 -2.15942 -0.888324 0
M  V30 1331 C 121.637 -1.08737 -1.30806 0
M  V30 1332 O 122.822 -1.36787 -1.37851 0
M  V30 1333 C 119.952 -2.72379 -2.1547 0
M  V30 1334 C 118.906 -3.8478 -1.87425 0
M  V30 1335 C 118.232 -4.27834 -3.20721 0
M  V30 1336 C 119.532 -5.08869 -1.17684 0
M  V30 1337 H 121.226 -2.96705 -0.400799 0
M  V30 1338 H 118.772 -1.42723 -0.191342 0
M  V30 1339 H 120.725 -3.11965 -2.83295 0
M  V30 1340 H 119.449 -1.88841 -2.6647 0
M  V30 1341 H 118.108 -3.45703 -1.22004 0
M  V30 1342 H 117.756 -3.41214 -3.6957 0
M  V30 1343 H 117.456 -5.03605 -3.02746 0
M  V30 1344 H 118.98 -4.70039 -3.89738 0
M  V30 1345 H 120.394 -5.4575 -1.75584 0
M  V30 1346 H 118.791 -5.8994 -1.09956 0
M  V30 1347 H 119.861 -4.84648 -0.156453 0
M  V30 1348 N 121.204 0.198386 -1.56346 0
M  V30 1349 C 122.453 0.917451 -1.79627 0
M  V30 1350 C 122.766 1.8456 -0.64784 0
M  V30 1351 O 123.972 2.60504 -0.764859 0
M  V30 1352 C 122.428 1.68175 -3.18191 0
M  V30 1353 C 122.036 0.798589 -4.40825 0
M  V30 1354 C 123.78 2.39065 -3.50782 0
M  V30 1355 C 121.687 1.56157 -5.70411 0
M  V30 1356 H 120.617 0.346317 -0.669762 0
M  V30 1357 H 123.268 0.170801 -1.82703 0
M  V30 1358 H 121.65 2.47216 -3.09354 0
M  V30 1359 H 122.824 0.0470665 -4.60776 0
M  V30 1360 H 121.139 0.200686 -4.15916 0
M  V30 1361 H 123.736 2.96692 -4.44835 0
M  V30 1362 H 124.079 3.13091 -2.74371 0
M  V30 1363 H 124.612 1.66993 -3.61052 0
M  V30 1364 H 121.351 0.864142 -6.49779 0
M  V30 1365 H 120.871 2.2871 -5.54483 0
M  V30 1366 H 122.55 2.11622 -6.11412 0
M  V30 1367 N 122.682 1.50554 0.465978 0
M  V30 1368 C 123.93 1.61479 1.21528 0
M  V30 1369 C 124.251 0.319596 1.92363 0
M  V30 1370 O 123.521 -0.663194 1.84333 0
M  V30 1371 H 122.101 0.595055 0.451573 0
M  V30 1372 H 124.763 1.87355 0.53704 0
M  V30 1373 H 123.859 2.42846 1.96042 0
M  V30 1374 N 124.16 -0.719506 1.40217 0
M  V30 1375 C 125.408 -1.47641 1.3801 0
M  V30 1376 C 125.729 -1.94992 -0.018145 0
M  V30 1377 O 124.999 -1.70073 -0.972207 0
M  V30 1378 H 123.579 -0.547744 0.507923 0
M  V30 1379 H 126.241 -0.853187 1.75233 0
M  V30 1380 H 125.337 -2.35112 2.05253 0
M  V30 1381 N 125.638 -1.25649 -0.95132 0
M  V30 1382 C 126.887 -1.09988 -1.69073 0
M  V30 1383 C 127.2 0.358355 -1.92289 0
M  V30 1384 O 128.406 0.635466 -2.63958 0
M  V30 1385 C 126.862 -1.92012 -3.044 0
M  V30 1386 C 126.47 -3.42347 -2.88968 0
M  V30 1387 C 128.214 -1.8493 -3.82101 0
M  V30 1388 C 126.121 -4.16655 -4.19705 0
M  V30 1389 H 125.051 -0.407993 -0.63408 0
M  V30 1390 H 127.702 -1.49873 -1.05879 0
M  V30 1391 H 126.084 -1.44952 -3.68517 0
M  V30 1392 H 127.258 -3.97104 -2.33762 0
M  V30 1393 H 125.573 -3.50557 -2.24719 0
M  V30 1394 H 128.17 -2.37739 -4.78941 0
M  V30 1395 H 128.513 -0.817883 -4.08187 0
M  V30 1396 H 129.046 -2.29758 -3.2474 0
M  V30 1397 H 125.785 -5.20224 -3.98807 0
M  V30 1398 H 125.305 -3.66681 -4.74663 0
M  V30 1399 H 126.984 -4.24551 -4.88227 0
M  V30 1400 N 127.117 1.15442 -1.07289 0
M  V30 1401 C 128.345 1.90096 -0.81676 0
M  V30 1402 C 128.76 1.7798 0.629966 0
M  V30 1403 O 128.117 1.1313 1.43206 0
M  V30 1404 C 128.168 3.40466 -1.21512 0
M  V30 1405 O 127.889 3.52232 -2.60508 0
M  V30 1406 C 129.39 4.32145 -0.988198 0
M  V30 1407 H 126.61 0.602495 -0.295366 0
M  V30 1408 H 129.154 1.4627 -1.42918 0
M  V30 1409 H 127.309 3.81958 -0.647039 0
M  V30 1410 H 127.723 4.45549 -2.76742 0
M  V30 1411 H 129.197 5.36072 -1.31645 0
M  V30 1412 H 129.674 4.39135 0.0755063 0
M  V30 1413 H 130.28 3.96395 -1.54115 0
M  V30 1414 N 128.595 0.856903 1.32268 0
M  V30 1415 C 129.843 0.460474 1.96784 0
M  V30 1416 C 130.164 -0.987701 1.68135 0
M  V30 1417 O 129.434 -1.69058 0.989765 0
M  V30 1418 H 128.014 0.167289 0.728027 0
M  V30 1419 H 130.676 1.09383 1.61312 0
M  V30 1420 H 129.772 0.60739 3.06133 0
M  V30 1421 N 130.073 -1.45103 0.615059 0
M  V30 1422 C 131.484 -1.85654 0.197383 0
M  V30 1423 C 131.835 -1.51433 -1.24749 0
M  V30 1424 O 130.96 -0.944608 -1.94695 0
M  V30 1425 C 131.555 -3.36972 0.351448 0
M  V30 1426 C 130.114 -3.76398 -0.011593 0
M  V30 1427 C 129.261 -2.69024 0.672394 0
M  V30 1428 H 132.212 -1.35797 0.821263 0
M  V30 1429 H 132.233 -3.78239 -0.414227 0
M  V30 1430 H 131.745 -3.61847 1.40314 0
M  V30 1431 H 129.846 -3.5714 -1.06217 0
M  V30 1432 H 129.959 -4.77532 0.387265 0
M  V30 1433 H 128.323 -2.54465 0.109284 0
M  V30 1434 H 129.106 -2.96735 1.72636 0
M  V30 1435 N 131.551 -0.354651 -1.53558 0
M  V30 1436 C 132.8 0.239504 -2.00273 0
M  V30 1437 C 133.113 1.50759 -1.24623 0
M  V30 1438 O 134.319 2.17968 -1.61871 0
M  V30 1439 C 132.775 0.477341 -3.5672 0
M  V30 1440 C 132.383 -0.775488 -4.41237 0
M  V30 1441 C 134.127 1.02975 -4.11821 0
M  V30 1442 C 132.034 -0.507838 -5.89216 0
M  V30 1443 H 130.964 0.0932743 -0.748208 0
M  V30 1444 H 133.615 -0.471701 -1.77334 0
M  V30 1445 H 131.997 1.24953 -3.7577 0
M  V30 1446 H 133.171 -1.54963 -4.33962 0
M  V30 1447 H 131.486 -1.25033 -3.97185 0
M  V30 1448 H 134.083 1.24513 -5.2 0
M  V30 1449 H 134.426 1.98862 -3.65731 0
M  V30 1450 H 134.959 0.317994 -3.96527 0
M  V30 1451 H 131.698 -1.43674 -6.39561 0
M  V30 1452 H 131.218 0.228011 -5.99366 0
M  V30 1453 H 132.897 -0.129238 -6.46871 0
M  V30 1454 N 133.029 1.57378 -0.0835403 0
M  V30 1455 C 133.992 2.12252 0.864959 0
M  V30 1456 C 134.992 1.04916 1.21858 0
M  V30 1457 O 136.182 1.30853 1.14991 0
M  V30 1458 C 133.314 2.63358 2.16461 0
M  V30 1459 H 134.507 2.97371 0.388676 0
M  V30 1460 H 132.06 1.55423 0.165317 0
M  V30 1461 H 132.795 1.81727 2.686 0
M  V30 1462 H 132.58 3.41826 1.92087 0
M  V30 1463 H 134.07 3.05847 2.84337 0
M  V30 1464 N 134.507 -0.190092 1.56449 0
M  V30 1465 C 135.454 -1.23557 1.94942 0
M  V30 1466 C 136.424 -1.44972 0.810696 0
M  V30 1467 O 137.609 -1.58023 1.06927 0
M  V30 1468 C 134.749 -2.57416 2.2985 0
M  V30 1469 C 133.862 -2.43537 3.5681 0
M  V30 1470 C 132.997 -3.70134 3.81017 0
M  V30 1471 C 132.036 -3.51109 5.01387 0
M  V30 1472 N 131.173 -4.6973 5.21822 0
M  V30 1473 H 136.013 -0.900304 2.84075 0
M  V30 1474 H 133.55 -0.43318 1.40577 0
M  V30 1475 H 135.508 -3.35409 2.48106 0
M  V30 1476 H 134.138 -2.88975 1.43852 0
M  V30 1477 H 133.19 -1.56816 3.46573 0
M  V30 1478 H 134.502 -2.25415 4.4496 0
M  V30 1479 H 133.656 -4.56566 3.9954 0
M  V30 1480 H 132.395 -3.91215 2.91207 0
M  V30 1481 H 131.4 -2.63063 4.82782 0
M  V30 1482 H 132.625 -3.31468 5.9271 0
M  V30 1483 H 130.571 -4.91065 4.34961 0
M  V30 1484 H 130.488 -4.54452 6.0416 0
M  V30 1485 H 131.756 -5.57499 5.44808 0
M  V30 1486 N 135.985 -1.50799 -0.457987 0
M  V30 1487 C 136.915 -1.73553 -1.5621 0
M  V30 1488 C 137.896 -0.584774 -1.59732 0
M  V30 1489 O 139.081 -0.825314 -1.7579 0
M  V30 1490 C 136.211 -1.84169 -2.94447 0
M  V30 1491 C 135.165 -2.99461 -3.0579 0
M  V30 1492 C 134.491 -2.95235 -4.45803 0
M  V30 1493 C 135.791 -4.39766 -2.81786 0
M  V30 1494 H 137.485 -2.66 -1.37421 0
M  V30 1495 H 135.031 -1.28002 -0.659662 0
M  V30 1496 H 136.984 -1.98672 -3.71628 0
M  V30 1497 H 135.708 -0.883545 -3.14422 0
M  V30 1498 H 134.367 -2.8463 -2.31044 0
M  V30 1499 H 134.015 -1.97239 -4.62715 0
M  V30 1500 H 133.715 -3.72642 -4.54326 0
M  V30 1501 H 135.239 -3.11803 -5.24987 0
M  V30 1502 H 136.653 -4.55054 -3.4871 0
M  V30 1503 H 135.05 -5.18722 -3.0174 0
M  V30 1504 H 136.12 -4.51229 -1.7754 0
M  V30 1505 N 137.463 0.71206 -1.40597 0
M  V30 1506 C 138.712 1.46754 -1.38369 0
M  V30 1507 C 139.025 1.95598 0.0097839 0
M  V30 1508 O 140.231 2.71059 0.154677 0
M  V30 1509 C 138.687 2.65289 -2.43207 0
M  V30 1510 C 138.295 2.23301 -3.88382 0
M  V30 1511 C 140.039 3.43008 -2.50091 0
M  V30 1512 C 137.946 3.38696 -4.84808 0
M  V30 1513 H 136.876 0.55118 -0.514506 0
M  V30 1514 H 139.527 0.774616 -1.66349 0
M  V30 1515 H 137.909 3.36769 -2.08332 0
M  V30 1516 H 139.083 1.59218 -4.32419 0
M  V30 1517 H 137.398 1.58618 -3.85006 0
M  V30 1518 H 139.995 4.28881 -3.1932 0
M  V30 1519 H 140.338 3.87065 -1.53253 0
M  V30 1520 H 140.871 2.78574 -2.83974 0
M  V30 1521 H 137.61 2.99668 -5.82992 0
M  V30 1522 H 137.13 4.01683 -4.45433 0
M  V30 1523 H 138.809 4.04712 -5.04794 0
M  V30 1524 N 138.941 1.26152 0.944643 0
M  V30 1525 C 139.891 1.04081 2.02857 0
M  V30 1526 C 140.875 -0.0256555 1.6088 0
M  V30 1527 O 142.067 0.190884 1.75968 0
M  V30 1528 C 139.196 0.672118 3.36656 0
M  V30 1529 C 138.282 1.77586 3.85128 0
M  V30 1530 N 138.673 3.01272 4.06287 0
M  V30 1531 C 136.971 1.65867 4.1401 0
M  V30 1532 C 137.672 3.72983 4.46384 0
M  V30 1533 N 136.648 3.00653 4.52889 0
M  V30 1534 H 140.45 1.97968 2.17223 0
M  V30 1535 H 137.964 1.16618 1.13022 0
M  V30 1536 H 139.961 0.495166 4.13949 0
M  V30 1537 H 138.621 -0.259307 3.23663 0
M  V30 1538 H 139.632 3.37213 3.93075 0
M  V30 1539 H 136.309 0.796907 4.09824 0
M  V30 1540 H 137.699 4.792 4.70975 0
M  V30 1541 N 140.419 -1.14872 1.07899 0
M  V30 1542 C 141.329 -2.2341 0.715915 0
M  V30 1543 C 142.345 -1.71808 -0.275306 0
M  V30 1544 O 143.521 -2.01039 -0.120545 0
M  V30 1545 C 140.586 -3.46474 0.125168 0
M  V30 1546 C 139.647 -4.13039 1.17034 0
M  V30 1547 C 138.88 -5.30229 0.607688 0
M  V30 1548 O 139.103 -5.675 -0.574497 0
M  V30 1549 O 138.037 -5.86444 1.35526 0
M  V30 1550 H 141.863 -2.56808 1.62121 0
M  V30 1551 H 139.448 -1.22702 0.852322 0
M  V30 1552 H 141.33 -4.20917 -0.201729 0
M  V30 1553 H 140.005 -3.14811 -0.753364 0
M  V30 1554 H 138.912 -3.40493 1.54968 0
M  V30 1555 H 140.245 -4.48796 2.02097 0
M  V30 1556 N 141.898 -0.863906 -1.31812 0
M  V30 1557 C 142.83 -0.272485 -2.27575 0
M  V30 1558 C 143.843 0.56104 -1.52827 0
M  V30 1559 O 145.032 0.384021 -1.7432 0
M  V30 1560 C 142.132 0.63283 -3.32939 0
M  V30 1561 C 141.305 -0.166902 -4.37081 0
M  V30 1562 C 140.364 0.665608 -5.21973 0
M  V30 1563 O 139.39 0.0958091 -5.69119 0
M  V30 1564 N 140.592 1.9787 -5.45736 0
M  V30 1565 H 143.357 -1.0954 -2.78964 0
M  V30 1566 H 140.918 -0.724791 -1.4477 0
M  V30 1567 H 142.91 1.19532 -3.86645 0
M  V30 1568 H 141.48 1.35642 -2.81638 0
M  V30 1569 H 140.7 -0.910838 -3.83533 0
M  V30 1570 H 141.988 -0.715874 -5.03739 0
M  V30 1571 H 141.386 2.46484 -5.09178 0
M  V30 1572 H 139.943 2.48911 -6.024 0
M  V30 1573 N 143.376 1.44774 -0.622745 0
M  V30 1574 C 144.286 2.34433 0.0886031 0
M  V30 1575 C 145.302 1.52131 0.844529 0
M  V30 1576 O 146.478 1.84886 0.798691 0
M  V30 1577 C 143.543 3.29986 1.0635 0
M  V30 1578 C 142.604 4.28195 0.307873 0
M  V30 1579 C 141.837 5.19183 1.23633 0
M  V30 1580 O 142.06 5.13918 2.47476 0
M  V30 1581 O 140.994 5.97515 0.725189 0
M  V30 1582 H 144.82 2.96693 -0.648599 0
M  V30 1583 H 142.405 1.44408 -0.382957 0
M  V30 1584 H 144.287 3.88825 1.6246 0
M  V30 1585 H 142.962 2.70269 1.78146 0
M  V30 1586 H 141.869 3.72927 -0.296064 0
M  V30 1587 H 143.202 4.90808 -0.3699 0
M  V30 1588 N 144.854 0.36279 1.53368 0
M  V30 1589 C 145.786 -0.519668 2.23231 0
M  V30 1590 C 146.799 -1.04844 1.24546 0
M  V30 1591 O 147.988 -0.955296 1.50786 0
M  V30 1592 C 145.088 -1.72995 2.9142 0
M  V30 1593 C 144.261 -1.33316 4.16588 0
M  V30 1594 C 143.32 -2.40521 4.68013 0
M  V30 1595 O 142.346 -2.03027 5.3176 0
M  V30 1596 N 143.548 -3.72065 4.45587 0
M  V30 1597 H 146.313 0.078751 2.99597 0
M  V30 1598 H 143.874 0.187833 1.60807 0
M  V30 1599 H 145.866 -2.44184 3.22733 0
M  V30 1600 H 144.436 -2.2353 2.18525 0
M  V30 1601 H 143.656 -0.451236 3.91609 0
M  V30 1602 H 144.944 -1.04432 4.97967 0
M  V30 1603 H 144.342 -4.05304 3.94646 0
M  V30 1604 H 142.899 -4.39366 4.81457 0
M  V30 1605 N 146.332 -1.57332 0.0918853 0
M  V30 1606 C 147.264 -2.10869 -0.898168 0
M  V30 1607 C 148.277 -1.04521 -1.24817 0
M  V30 1608 O 149.466 -1.31977 -1.20184 0
M  V30 1609 C 146.566 -2.57083 -2.2082 0
M  V30 1610 C 145.739 -3.87229 -2.03402 0
M  V30 1611 C 144.798 -4.19324 -3.17889 0
M  V30 1612 O 143.824 -4.88598 -2.91994 0
M  V30 1613 N 145.026 -3.74471 -4.43567 0
M  V30 1614 H 147.791 -2.96439 -0.440943 0
M  V30 1615 H 145.352 -1.61631 -0.0933064 0
M  V30 1616 H 147.344 -2.75602 -2.96354 0
M  V30 1617 H 145.914 -1.76541 -2.57977 0
M  V30 1618 H 145.134 -3.7789 -1.12218 0
M  V30 1619 H 146.422 -4.72379 -1.89038 0
M  V30 1620 H 145.82 -3.18546 -4.67488 0
M  V30 1621 H 144.377 -3.98151 -5.16061 0
M  V30 1622 N 147.81 0.181792 -1.56548 0
M  V30 1623 C 149.035 0.920019 -1.85877 0
M  V30 1624 C 149.46 1.75494 -0.677021 0
M  V30 1625 O 148.818 1.77399 0.374056 0
M  V30 1626 C 148.866 1.78112 -3.13542 0
M  V30 1627 O 147.97 2.88152 -2.95029 0
M  V30 1628 H 147.311 0.258334 -0.611686 0
M  V30 1629 H 149.841 0.183092 -2.03779 0
M  V30 1630 H 149.851 2.18314 -3.44678 0
M  V30 1631 H 148.526 1.16777 -3.99169 0
M  V30 1632 H 147.103 2.51609 -2.75222 0
M  V30 1633 N 149.288 1.51039 0.449983 0
M  V30 1634 C 150.513 1.6715 1.22783 0
M  V30 1635 C 150.938 0.363081 1.84563 0
M  V30 1636 O 150.296 -0.675433 1.68249 0
M  V30 1637 C 150.344 2.77985 2.29689 0
M  V30 1638 O 149.448 2.40707 3.34864 0
M  V30 1639 H 148.789 0.557746 0.360299 0
M  V30 1640 H 151.319 1.97535 0.533005 0
M  V30 1641 H 151.329 3.01693 2.74673 0
M  V30 1642 H 150.004 3.72935 1.84098 0
M  V30 1643 H 148.581 2.27523 2.95445 0
M  V30 1644 N 150.766 -0.704594 1.40972 0
M  V30 1645 C 151.991 -1.49858 1.43378 0
M  V30 1646 C 152.416 -1.88061 0.038184 0
M  V30 1647 O 151.774 -1.5402 -0.956425 0
M  V30 1648 C 151.822 -2.74333 2.34038 0
M  V30 1649 O 150.926 -3.7147 1.7912 0
M  V30 1650 H 150.267 -0.45139 0.486974 0
M  V30 1651 H 152.797 -0.866832 1.8533 0
M  V30 1652 H 152.807 -3.22741 2.49604 0
M  V30 1653 H 151.482 -2.45863 3.35446 0
M  V30 1654 H 150.059 -3.30363 1.72958 0
M  V30 1655 O 152.283 -1.37539 -0.846478 0
M  V30 1656 H 152.974 -1.24057 -1.4876 0
M  V30 END ATOM
M  V30 BEGIN BOND
M  V30 END BOND
M  V30 END CTAB
M  END
$$$$
