drugbank_target|Q96FI4 Endonuclease 8-like 1 (DB01592; DB09130; DB14488; DB14489; DB14490; DB14491; DB14501)
 OpenBabel12092120283D

  0  0  0     0  0            999 V3000
M  V30 BEGIN CTAB
M  V30 COUNTS 6187 6263 0 0 0
M  V30 BEGIN ATOM
M  V30 1 H -0.908 1.98254 -0.117106 0
M  V30 2 N 0 1.576 0 0
M  V30 3 C 0.933 2.03868 1.02534 0
M  V30 4 C 1.911 0.928543 1.3348 0
M  V30 5 O 3.095 1.19667 1.45644 0
M  V30 6 C 0.222 2.43627 2.35294 0
M  V30 7 C -0.732 3.65373 2.2001 0
M  V30 8 S 0.101 5.13292 1.52614 0
M  V30 9 C 1.257 5.56322 2.86805 0
M  V30 10 H 1.49 2.90518 0.631377 0
M  V30 11 H -0.977 1.52953 0.210867 0
M  V30 12 H 0.981 2.67203 3.11629 0
M  V30 13 H -0.358 1.57376 2.7183 0
M  V30 14 H -1.165 3.90944 3.18086 0
M  V30 15 H -1.563 3.418 1.51819 0
M  V30 16 H 0.729 5.58782 3.83104 0
M  V30 17 H 1.672 6.56266 2.65933 0
M  V30 18 H 2.08 4.83886 2.90714 0
M  V30 19 N 1.4781 -0.272755 1.55222 0
M  V30 20 C 2.8891 -0.84378 1.66545 0
M  V30 21 C 3.2401 -1.87035 0.592641 0
M  V30 22 O 2.3651 -2.14761 -0.265818 0
M  V30 23 C 2.9601 -1.53723 3.01918 0
M  V30 24 C 1.5191 -2.05628 3.15268 0
M  V30 25 C 0.6661 -0.898424 2.62343 0
M  V30 26 H 3.6171 -0.0490998 1.58624 0
M  V30 27 H 3.6381 -2.40421 2.94921 0
M  V30 28 H 3.1501 -0.78983 3.79978 0
M  V30 29 H 1.2511 -2.83329 2.41983 0
M  V30 30 H 1.3641 -2.27142 4.21833 0
M  V30 31 H -0.2719 -1.29186 2.19506 0
M  V30 32 H 0.5111 -0.164528 3.42906 0
M  V30 33 N 2.9562 -1.48159 -0.537278 0
M  V30 34 C 3.8662 -1.64807 -1.6696 0
M  V30 35 C 4.8822 -0.530651 -1.65711 0
M  V30 36 O 6.0582 -0.800784 -1.84796 0
M  V30 37 C 3.1232 -1.67708 -3.03438 0
M  V30 38 C 2.1842 -2.91025 -3.156 0
M  V30 39 C 1.4172 -2.93778 -4.45567 0
M  V30 40 O 1.6402 -2.05153 -5.3223 0
M  V30 41 O 0.5742 -3.85868 -4.61941 0
M  V30 42 H 4.4002 -2.6066 -1.55853 0
M  V30 43 H 1.9852 -1.31475 -0.709549 0
M  V30 44 H 3.8672 -1.7218 -3.84619 0
M  V30 45 H 2.5422 -0.750278 -3.14885 0
M  V30 46 H 1.4492 -2.92089 -2.33741 0
M  V30 47 H 2.7822 -3.83065 -3.09066 0
M  V30 48 N 4.4343 0.785586 -1.36625 0
M  V30 49 C 5.6823 1.54057 -1.30808 0
M  V30 50 C 6.0033 1.94683 0.111157 0
M  V30 51 O 5.2733 1.65241 1.05224 0
M  V30 52 H 3.8533 0.571354 -0.481211 0
M  V30 53 H 6.5153 0.935821 -1.70963 0
M  V30 54 H 5.6113 2.44637 -1.93801 0
M  V30 55 N 5.9124 1.20967 1.01018 0
M  V30 56 C 7.3234 1.02319 1.56165 0
M  V30 57 C 7.6744 -0.418546 1.91684 0
M  V30 58 O 6.7994 -1.30096 1.72928 0
M  V30 59 C 7.3944 1.85109 2.8376 0
M  V30 60 C 5.9534 1.70809 3.35412 0
M  V30 61 C 5.1004 1.82643 2.08655 0
M  V30 62 H 8.0514 1.35065 0.833255 0
M  V30 63 H 8.0724 1.35827 3.55431 0
M  V30 64 H 7.5844 2.90035 2.57878 0
M  V30 65 H 5.6854 0.685464 3.66241 0
M  V30 66 H 5.7984 2.52467 4.07182 0
M  V30 67 H 4.1624 1.25896 2.21409 0
M  V30 68 H 4.9454 2.89066 1.85191 0
M  V30 69 N 7.3905 -1.2043 1.01659 0
M  V30 70 C 8.3005 -2.2689 0.596484 0
M  V30 71 C 9.3165 -1.70107 -0.36599 0
M  V30 72 O 10.4925 -2.00117 -0.226942 0
M  V30 73 C 7.5575 -3.4665 -0.0586659 0
M  V30 74 C 6.6185 -4.18662 0.949751 0
M  V30 75 C 5.8515 -5.32705 0.32577 0
M  V30 76 O 6.0745 -5.63656 -0.874509 0
M  V30 77 O 5.0085 -5.92803 1.04249 0
M  V30 78 H 8.8345 -2.65041 1.4828 0
M  V30 79 H 6.4195 -1.27048 0.786082 0
M  V30 80 H 8.3015 -4.19256 -0.424564 0
M  V30 81 H 6.9765 -3.10375 -0.91918 0
M  V30 82 H 5.8835 -3.48229 1.36702 0
M  V30 83 H 7.2165 -4.58878 1.78023 0
M  V30 84 N 8.8686 -0.792821 -1.36206 0
M  V30 85 C 9.7986 -0.207853 -2.32573 0
M  V30 86 C 10.7796 0.659055 -1.56813 0
M  V30 87 O 11.9646 0.592176 -1.84951 0
M  V30 88 C 9.0946 0.655449 -3.41059 0
M  V30 89 C 8.0486 -0.111842 -4.27854 0
M  V30 90 C 7.3746 0.872274 -5.27537 0
M  V30 91 C 8.6746 -1.30299 -5.05786 0
M  V30 92 H 10.3686 -1.01294 -2.81744 0
M  V30 93 H 7.9146 -0.48854 -1.3546 0
M  V30 94 H 9.8676 1.07464 -4.07467 0
M  V30 95 H 8.5916 1.49328 -2.90463 0
M  V30 96 H 7.2506 -0.512053 -3.63006 0
M  V30 97 H 6.8986 1.70523 -4.73214 0
M  V30 98 H 6.5986 0.363291 -5.86476 0
M  V30 99 H 8.1226 1.28996 -5.96818 0
M  V30 100 H 9.5366 -0.959379 -5.65216 0
M  V30 101 H 7.9336 -1.7455 -5.74154 0
M  V30 102 H 9.0036 -2.09663 -4.37229 0
M  V30 103 N 10.3467 1.47872 -0.545128 0
M  V30 104 C 11.2967 2.26842 0.229456 0
M  V30 105 C 12.2807 1.33626 0.896267 0
M  V30 106 O 13.4727 1.58063 0.79657 0
M  V30 107 C 10.6017 3.19089 1.26638 0
M  V30 108 C 9.6877 4.19783 0.603598 0
M  V30 109 N 10.0787 5.0479 -0.319405 0
M  V30 110 C 8.3767 4.3765 0.858989 0
M  V30 111 C 9.0777 5.77433 -0.703241 0
M  V30 112 N 8.0537 5.43566 -0.0608309 0
M  V30 113 H 11.8557 2.89947 -0.480391 0
M  V30 114 H 9.3697 1.58263 -0.364209 0
M  V30 115 H 11.3667 3.74337 1.83515 0
M  V30 116 H 10.0267 2.5754 1.97745 0
M  V30 117 H 11.0377 5.13244 -0.692889 0
M  V30 118 H 7.7147 3.87281 1.55948 0
M  V30 119 H 9.1047 6.55824 -1.46098 0
M  V30 120 N 11.8248 0.280983 1.55075 0
M  V30 121 C 12.7548 -0.597469 2.25727 0
M  V30 122 C 13.7358 -1.15417 1.24952 0
M  V30 123 O 14.9208 -1.18722 1.53684 0
M  V30 124 C 12.0508 -1.7789 2.98283 0
M  V30 125 C 11.0048 -1.35347 4.06036 0
M  V30 126 C 10.3308 -2.61846 4.66198 0
M  V30 127 C 11.6308 -0.499354 5.19907 0
M  V30 128 H 13.3248 -0.00824265 2.99399 0
M  V30 129 H 10.8708 -0.0025244 1.44 0
M  V30 130 H 12.8238 -2.39937 3.46422 0
M  V30 131 H 11.5478 -2.39405 2.22155 0
M  V30 132 H 10.2068 -0.756156 3.58717 0
M  V30 133 H 9.8548 -3.21632 3.86732 0
M  V30 134 H 9.5548 -2.3409 5.38958 0
M  V30 135 H 11.0788 -3.24732 5.1709 0
M  V30 136 H 12.4928 -1.02498 5.64063 0
M  V30 137 H 10.8898 -0.316424 5.99265 0
M  V30 138 H 11.9598 0.480459 4.82514 0
M  V30 139 N 13.3029 -1.57598 0.00835791 0
M  V30 140 C 14.2659 -2.07884 -0.965242 0
M  V30 141 C 15.2659 -0.989825 -1.26725 0
M  V30 142 O 16.4559 -1.25218 -1.21104 0
M  V30 143 C 13.5879 -2.52731 -2.28779 0
M  V30 144 H 14.7809 -2.95178 -0.530112 0
M  V30 145 H 12.3339 -1.54458 -0.239283 0
M  V30 146 H 13.0689 -1.68705 -2.76964 0
M  V30 147 H 12.8539 -3.32272 -2.08177 0
M  V30 148 H 14.3439 -2.91933 -2.98605 0
M  V30 149 N 14.781 0.264519 -1.55364 0
M  V30 150 C 16.006 1.01726 -1.80739 0
M  V30 151 C 16.431 1.78836 -0.583044 0
M  V30 152 O 15.789 1.75167 0.467566 0
M  V30 153 C 15.837 1.94482 -3.03659 0
M  V30 154 O 14.941 3.03386 -2.7934 0
M  V30 155 H 14.282 0.290395 -0.597132 0
M  V30 156 H 16.812 0.290854 -2.02522 0
M  V30 157 H 16.822 2.36278 -3.32621 0
M  V30 158 H 15.497 1.37772 -3.92418 0
M  V30 159 H 14.074 2.65844 -2.61498 0
M  V30 160 N 16.2591 1.48442 0.529413 0
M  V30 161 C 17.1911 1.59095 1.64989 0
M  V30 162 C 18.2041 0.475212 1.5571 0
M  V30 163 O 19.3931 0.746081 1.6216 0
M  V30 164 C 16.4931 1.50518 3.0364 0
M  V30 165 C 15.6661 2.77142 3.38395 0
M  V30 166 C 14.7251 2.62012 4.56329 0
M  V30 167 O 13.7511 3.35898 4.59522 0
M  V30 168 N 14.9531 1.71667 5.54536 0
M  V30 169 H 17.7181 2.55723 1.56287 0
M  V30 170 H 15.2791 1.45173 0.716697 0
M  V30 171 H 17.2711 1.38091 3.80412 0
M  V30 172 H 15.8411 0.618627 3.06418 0
M  V30 173 H 15.0611 3.0413 2.50796 0
M  V30 174 H 16.3491 3.61146 3.58401 0
M  V30 175 H 15.7471 1.10841 5.54735 0
M  V30 176 H 14.3041 1.65178 6.30523 0
M  V30 177 N 17.7372 -0.778329 1.37039 0
M  V30 178 C 18.9842 -1.53665 1.31884 0
M  V30 179 C 19.3122 -1.9425 -0.0986303 0
M  V30 180 O 18.5672 -1.63832 -1.07041 0
M  V30 181 C 18.8662 -2.81845 2.19768 0
M  V30 182 C 18.5322 -2.60345 3.68146 0
M  V30 183 C 17.1942 -2.5419 4.08584 0
M  V30 184 C 19.5462 -2.40923 4.62175 0
M  V30 185 C 16.8742 -2.26594 5.41177 0
M  V30 186 C 19.2262 -2.14852 5.94997 0
M  V30 187 C 17.8902 -2.07137 6.34547 0
M  V30 188 H 17.1602 -0.562299 0.482598 0
M  V30 189 H 19.8072 -0.897069 1.69189 0
M  V30 190 H 18.1122 -3.50328 1.75436 0
M  V30 191 H 19.8092 -3.39692 2.13097 0
M  V30 192 H 16.3992 -2.65996 3.36072 0
M  V30 193 H 20.5832 -2.44673 4.31797 0
M  V30 194 H 15.8392 -2.19111 5.70789 0
M  V30 195 H 20.0132 -1.98822 6.67415 0
M  V30 196 H 17.6402 -1.85518 7.37216 0
M  V30 197 N 19.2153 -1.21501 -1.00376 0
M  V30 198 C 20.4613 -1.03452 -1.74429 0
M  V30 199 C 20.7943 0.430764 -1.89362 0
M  V30 200 O 20.0693 1.31962 -1.42886 0
M  V30 201 C 20.3523 -1.73375 -3.15615 0
M  V30 202 C 20.2053 -3.27431 -3.08397 0
M  V30 203 C 21.5243 -1.47732 -4.14564 0
M  V30 204 H 18.6433 -0.377226 -0.633143 0
M  V30 205 H 21.2853 -1.49693 -1.17013 0
M  V30 206 H 19.4353 -1.34064 -3.64636 0
M  V30 207 H 21.1073 -3.76119 -2.67081 0
M  V30 208 H 19.3503 -3.5767 -2.45468 0
M  V30 209 H 20.0213 -3.71524 -4.08258 0
M  V30 210 H 22.4973 -1.8186 -3.74254 0
M  V30 211 H 21.3733 -1.99169 -5.11491 0
M  V30 212 H 21.6343 -0.407589 -4.40217 0
M  V30 213 N 20.6934 1.19889 -1.02296 0
M  V30 214 C 21.6414 2.24938 -0.592081 0
M  V30 215 C 22.6354 1.65257 0.372357 0
M  V30 216 O 23.8414 1.78371 0.241583 0
M  V30 217 H 20.2164 0.731787 -0.173182 0
M  V30 218 H 22.1874 2.58603 -1.48885 0
M  V30 219 C 20.9364 3.47668 0.047351 0
M  V30 220 H 20.2594 3.93875 -0.685772 0
M  V30 221 H 21.6994 4.22852 0.311862 0
M  V30 222 C 20.1584 3.11136 1.29212 0
M  V30 223 O 20.6884 3.2325 2.38479 0
M  V30 224 N 18.8944 2.65625 1.17863 0
M  V30 225 H 18.4414 2.55968 0.289493 0
M  V30 226 H 18.3994 2.41553 2.01245 0
M  V30 227 N 22.1715 0.800033 1.35784 0
M  V30 228 C 23.0815 0.207204 2.33683 0
M  V30 229 C 24.0975 -0.64631 1.61551 0
M  V30 230 O 25.2735 -0.559604 1.93469 0
M  V30 231 C 22.3385 -0.639659 3.40748 0
M  V30 232 C 21.3995 0.233585 4.28664 0
M  V30 233 C 20.6325 -0.572954 5.30616 0
M  V30 234 O 20.8555 -1.80816 5.40982 0
M  V30 235 O 19.7895 0.0327285 6.01891 0
M  V30 236 H 23.6155 1.01692 2.86169 0
M  V30 237 H 21.2005 0.561691 1.38439 0
M  V30 238 H 23.0825 -1.12223 4.06182 0
M  V30 239 H 21.7575 -1.42708 2.90544 0
M  V30 240 H 20.6645 0.763147 3.66233 0
M  V30 241 H 21.9975 0.984784 4.82248 0
M  V30 242 N 23.6496 -1.47581 0.552962 0
M  V30 243 C 24.6126 -2.28439 -0.186605 0
M  V30 244 C 25.6126 -1.36706 -0.84665 0
M  V30 245 O 26.8026 -1.59378 -0.703164 0
M  V30 246 C 23.9346 -3.16264 -1.2724 0
M  V30 247 H 25.1276 -2.95294 0.523609 0
M  V30 248 H 22.6806 -1.532 0.309745 0
M  V30 249 H 23.4156 -2.54091 -2.01514 0
M  V30 250 H 23.2006 -3.83769 -0.803968 0
M  V30 251 H 24.6906 -3.77198 -1.79196 0
M  V30 252 N 25.1277 -0.289203 -1.54924 0
M  V30 253 C 26.3677 0.324536 -2.01807 0
M  V30 254 C 26.7317 1.5199 -1.17316 0
M  V30 255 O 27.9327 2.20422 -1.53843 0
M  V30 256 C 26.2037 0.683578 -3.50802 0
M  V30 257 S 27.7627 1.28185 -4.19659 0
M  V30 258 H 24.5807 0.100236 -0.703899 0
M  V30 259 H 27.1827 -0.414325 -1.91059 0
M  V30 260 H 25.8867 -0.195073 -4.09936 0
M  V30 261 H 25.4177 1.45354 -3.65562 0
M  V30 262 H 27.4327 2.57006 -4.24456 0
M  V30 263 N 26.6058 1.57591 -0.0167156 0
M  V30 264 C 28.0218 1.55946 0.339557 0
M  V30 265 C 28.2218 1.02109 1.73713 0
M  V30 266 O 27.2778 0.662303 2.43659 0
M  V30 267 C 28.5908 3.00037 0.199499 0
M  V30 268 C 30.1388 3.11805 0.273193 0
M  V30 269 C 30.6138 4.57713 0.162068 0
M  V30 270 N 32.1048 4.6268 0.219444 0
M  V30 271 C 32.8398 5.73185 0.157054 0
M  V30 272 N 32.3358 6.92786 0.0442936 0
M  V30 273 N 34.1288 5.61707 0.21014 0
M  V30 274 H 26.2798 1.90921 -0.930758 0
M  V30 275 H 28.5428 0.877674 -0.358319 0
M  V30 276 H 28.2488 3.4333 -0.76273 0
M  V30 277 H 28.1228 3.64387 0.974786 0
M  V30 278 H 30.5098 2.68433 1.22587 0
M  V30 279 H 30.5908 2.50201 -0.532256 0
M  V30 280 H 30.2348 5.01763 -0.78714 0
M  V30 281 H 30.1648 5.17283 0.986222 0
M  V30 282 H 32.6558 3.76649 0.307246 0
M  V30 283 H 32.9688 7.728 0.00304069 0
M  V30 284 H 31.3138 6.94999 0.00968457 0
M  V30 285 H 34.5048 4.6716 0.296546 0
M  V30 286 H 34.6778 6.47807 0.158054 0
M  V30 287 N 28.0839 -0.256276 1.55502 0
M  V30 288 C 29.0469 -1.30047 1.88734 0
M  V30 289 C 30.0469 -1.4154 0.763086 0
M  V30 290 O 31.2369 -1.40403 1.03115 0
M  V30 291 C 28.3689 -2.67953 2.10747 0
M  V30 292 H 29.5619 -1.01802 2.82093 0
M  V30 293 H 27.1149 -0.495134 1.4825 0
M  V30 294 H 27.8499 -3.01351 1.19825 0
M  V30 295 H 27.6349 -2.60993 2.92617 0
M  V30 296 H 29.1249 -3.43368 2.37673 0
M  V30 297 N 29.562 -1.4872 -0.521534 0
M  V30 298 C 30.492 -1.66771 -1.63431 0
M  V30 299 C 31.473 -0.516499 -1.62069 0
M  V30 300 O 32.658 -0.750013 -1.79132 0
M  V30 301 C 29.788 -1.71515 -3.01993 0
M  V30 302 C 28.742 -2.86222 -3.18216 0
M  V30 303 C 28.068 -2.76061 -4.57924 0
M  V30 304 C 29.368 -4.27419 -3.00184 0
M  V30 305 H 31.062 -2.59932 -1.48579 0
M  V30 306 H 28.608 -1.25089 -0.713358 0
M  V30 307 H 30.561 -1.82731 -3.7972 0
M  V30 308 H 29.285 -0.749393 -3.17886 0
M  V30 309 H 27.944 -2.74575 -2.42908 0
M  V30 310 H 27.592 -1.77437 -4.70665 0
M  V30 311 H 27.292 -3.53037 -4.69722 0
M  V30 312 H 28.816 -2.89256 -5.37739 0
M  V30 313 H 30.23 -4.39855 -3.67697 0
M  V30 314 H 28.627 -5.05458 -3.2347 0
M  V30 315 H 29.697 -4.43293 -1.96518 0
M  V30 316 N 31.0401 0.771051 -1.3745 0
M  V30 317 C 32.2861 1.5319 -1.32894 0
M  V30 318 C 32.6191 1.94008 0.0862511 0
M  V30 319 O 31.8941 1.64124 1.04373 0
M  V30 320 C 32.1771 2.79648 -2.26868 0
M  V30 321 C 32.0301 2.45079 -3.77169 0
M  V30 322 C 33.3491 3.81583 -2.19277 0
M  V30 323 H 30.4681 0.555744 -0.484064 0
M  V30 324 H 33.1101 0.884492 -1.68157 0
M  V30 325 H 31.2601 3.34891 -1.96926 0
M  V30 326 H 32.9321 1.95745 -4.1771 0
M  V30 327 H 31.1751 1.77767 -3.95704 0
M  V30 328 H 31.8461 3.35478 -4.38359 0
M  V30 329 H 34.3221 3.35835 -2.45671 0
M  V30 330 H 33.1981 4.67787 -2.87171 0
M  V30 331 H 33.4591 4.25897 -1.18592 0
M  V30 332 N 32.5182 1.22032 0.997298 0
M  V30 333 C 33.7652 1.04222 1.73621 0
M  V30 334 C 34.0932 -0.423264 1.89839 0
M  V30 335 O 33.3482 -1.3302 1.43542 0
M  V30 336 C 33.6472 1.69345 3.14733 0
M  V30 337 C 33.3132 3.19226 3.18442 0
M  V30 338 C 31.9752 3.60124 3.19161 0
M  V30 339 C 34.3272 4.15181 3.15078 0
M  V30 340 C 31.6552 4.95467 3.14212 0
M  V30 341 C 34.0072 5.50495 3.1167 0
M  V30 342 C 32.6712 5.90779 3.10703 0
M  V30 343 H 31.9412 0.381374 0.635323 0
M  V30 344 H 34.5882 1.51732 1.16831 0
M  V30 345 H 32.8932 1.14147 3.74803 0
M  V30 346 H 34.5902 1.53059 3.7064 0
M  V30 347 H 31.1802 2.86659 3.18629 0
M  V30 348 H 35.3642 3.84605 3.13676 0
M  V30 349 H 30.6202 5.25916 3.11805 0
M  V30 350 H 34.7942 6.24576 3.08022 0
M  V30 351 H 32.4212 6.9562 3.06622 0
M  V30 352 N 33.9963 -1.19345 1.0293 0
M  V30 353 C 35.2443 -1.88665 0.724574 0
M  V30 354 C 35.5653 -1.80036 -0.749144 0
M  V30 355 O 34.8353 -1.2111 -1.53978 0
M  V30 356 H 33.4153 -0.698406 0.265025 0
M  V30 357 H 36.0773 -1.44885 1.30362 0
M  V30 358 H 35.1733 -2.94987 1.01926 0
M  V30 359 N 35.4744 -0.807222 -1.35358 0
M  V30 360 C 36.7224 -0.387122 -1.98358 0
M  V30 361 C 37.0434 1.04942 -1.64354 0
M  V30 362 O 36.3134 1.72615 -0.926339 0
M  V30 363 H 34.8934 -0.140154 -0.733734 0
M  V30 364 H 37.5554 -1.0332 -1.6526 0
M  V30 365 H 36.6514 -0.493352 -3.08176 0
M  V30 366 N 36.9525 1.47285 -0.560781 0
M  V30 367 C 38.1925 2.0436 -0.0404627 0
M  V30 368 C 38.5565 1.42534 1.28639 0
M  V30 369 O 39.7575 1.90677 1.89462 0
M  V30 370 C 38.0285 3.57369 0.0471856 0
M  V30 371 S 39.5875 4.3579 0.513109 0
M  V30 372 H 36.4055 0.710492 -0.0268674 0
M  V30 373 H 39.0075 1.80611 -0.748323 0
M  V30 374 H 37.7115 3.9989 -0.922817 0
M  V30 375 H 37.2425 3.8562 0.778491 0
M  V30 376 H 39.2575 4.63476 1.77212 0
M  V30 377 N 38.4306 0.297415 1.54768 0
M  V30 378 C 39.6766 -0.313376 2.00364 0
M  V30 379 C 40.0096 -1.53815 1.18553 0
M  V30 380 O 39.2846 -1.92739 0.261103 0
M  V30 381 C 39.5676 -0.673525 3.53745 0
M  V30 382 C 39.4206 0.560133 4.46299 0
M  V30 383 C 40.7396 -1.50143 4.13697 0
M  V30 384 H 37.8586 -0.112428 0.728374 0
M  V30 385 H 40.5006 0.4088 1.8555 0
M  V30 386 H 38.6506 -1.28881 3.665 0
M  V30 387 H 40.3226 1.19863 4.45455 0
M  V30 388 H 38.5656 1.19405 4.17043 0
M  V30 389 H 39.2366 0.26405 5.51368 0
M  V30 390 H 41.7126 -0.981588 4.04356 0
M  V30 391 H 40.5886 -1.72221 5.21182 0
M  V30 392 H 40.8496 -2.48952 3.65343 0
M  V30 393 N 39.9087 -1.5758 0.0250728 0
M  V30 394 C 40.8187 -2.1343 -0.973905 0
M  V30 395 C 41.8347 -1.08556 -1.35984 0
M  V30 396 O 43.0107 -1.40592 -1.44207 0
M  V30 397 C 40.0757 -2.64703 -2.23904 0
M  V30 398 C 39.1367 -3.84276 -1.91391 0
M  V30 399 C 38.3697 -4.33095 -3.11873 0
M  V30 400 O 38.5927 -3.81107 -4.24398 0
M  V30 401 O 37.5267 -5.24984 -2.94406 0
M  V30 402 H 41.3527 -2.99057 -0.529036 0
M  V30 403 H 38.9377 -1.48118 -0.195288 0
M  V30 404 H 40.8197 -2.97769 -2.98181 0
M  V30 405 H 39.4947 -1.82161 -2.6758 0
M  V30 406 H 38.4017 -3.56143 -1.14511 0
M  V30 407 H 39.7347 -4.67968 -1.52534 0
M  V30 408 N 41.3868 0.248026 -1.55636 0
M  V30 409 C 42.3338 1.30707 -1.90222 0
M  V30 410 C 43.3038 1.47881 -0.756332 0
M  V30 411 O 44.4888 1.61883 -1.00988 0
M  V30 412 C 41.6288 2.65769 -2.20138 0
M  V30 413 C 40.7418 2.56612 -3.47526 0
M  V30 414 C 39.8768 3.8402 -3.67017 0
M  V30 415 C 38.9158 3.69476 -4.8801 0
M  V30 416 N 38.0528 4.88774 -5.04029 0
M  V30 417 H 42.8928 1.00512 -2.80538 0
M  V30 418 H 40.4298 0.485055 -1.38873 0
M  V30 419 H 42.3878 3.44386 -2.35487 0
M  V30 420 H 41.0178 2.94115 -1.33027 0
M  V30 421 H 40.0698 1.69571 -3.40514 0
M  V30 422 H 41.3818 2.41774 -4.36287 0
M  V30 423 H 40.5358 4.7108 -3.8232 0
M  V30 424 H 39.2748 4.01754 -2.76487 0
M  V30 425 H 38.2798 2.80799 -4.72686 0
M  V30 426 H 39.5048 3.53238 -5.8 0
M  V30 427 H 37.4508 5.0687 -4.16435 0
M  V30 428 H 37.3678 4.76562 -5.86877 0
M  V30 429 H 38.6358 5.77335 -5.23741 0
M  V30 430 N 42.8649 1.48995 0.513639 0
M  V30 431 C 44.0899 1.61792 1.29762 0
M  V30 432 C 44.5149 0.284475 1.85936 0
M  V30 433 O 43.8729 -0.746185 1.65232 0
M  V30 434 C 43.9209 2.67993 2.41272 0
M  V30 435 O 43.0249 2.26287 3.44772 0
M  V30 436 H 42.3659 0.541963 0.38363 0
M  V30 437 H 44.8959 1.95097 0.616307 0
M  V30 438 H 44.9059 2.89772 2.87221 0
M  V30 439 H 43.5809 3.64791 1.9975 0
M  V30 440 H 42.1579 2.14788 3.04829 0
M  V30 441 N 44.343 -0.763751 1.37857 0
M  V30 442 C 45.568 -1.55805 1.36893 0
M  V30 443 C 45.993 -1.88054 -0.0416135 0
M  V30 444 O 45.351 -1.49825 -1.02089 0
M  V30 445 C 45.399 -2.84012 2.22192 0
M  V30 446 O 44.503 -3.78732 1.63204 0
M  V30 447 H 43.844 -0.471638 0.46739 0
M  V30 448 H 46.374 -0.944657 1.81487 0
M  V30 449 H 46.384 -3.33037 2.35691 0
M  V30 450 H 45.059 -2.59869 3.24716 0
M  V30 451 H 43.636 -3.37402 1.58791 0
M  V30 452 N 45.8211 -1.22559 -0.990812 0
M  V30 453 C 47.0671 -1.05297 -1.73322 0
M  V30 454 C 47.4001 0.410655 -1.89808 0
M  V30 455 O 46.6751 1.30439 -1.44277 0
M  V30 456 C 46.9581 -1.76713 -3.13759 0
M  V30 457 C 46.8111 -3.30684 -3.04907 0
M  V30 458 C 48.1301 -1.52121 -4.12974 0
M  V30 459 H 45.2491 -0.38392 -0.629106 0
M  V30 460 H 47.8911 -1.50926 -1.15418 0
M  V30 461 H 46.0411 -1.37924 -3.63193 0
M  V30 462 H 47.7131 -3.7893 -2.63077 0
M  V30 463 H 45.9561 -3.60253 -2.41661 0
M  V30 464 H 46.6271 -3.75833 -4.04294 0
M  V30 465 H 49.1031 -1.85819 -3.72304 0
M  V30 466 H 47.9791 -2.04582 -5.0935 0
M  V30 467 H 48.2401 -0.454257 -4.3976 0
M  V30 468 N 47.2992 1.18797 -1.03562 0
M  V30 469 C 48.5242 1.9314 -0.755764 0
M  V30 470 C 48.9492 1.7537 0.68022 0
M  V30 471 O 48.3072 1.06046 1.47051 0
M  V30 472 C 48.3552 3.42747 -1.12058 0
M  V30 473 O 47.4592 4.11683 -0.243124 0
M  V30 474 H 46.8002 0.602724 -0.278604 0
M  V30 475 H 49.3302 1.50678 -1.3841 0
M  V30 476 H 49.3402 3.93437 -1.08035 0
M  V30 477 H 48.0152 3.55002 -2.16672 0
M  V30 478 H 46.5922 3.71323 -0.342539 0
M  V30 479 N 48.7773 0.814389 1.34928 0
M  V30 480 C 50.1933 0.499084 1.51596 0
M  V30 481 C 50.3933 -0.978319 1.76157 0
M  V30 482 O 49.4493 -1.76309 1.80752 0
M  V30 483 C 50.7623 1.35121 2.68631 0
M  V30 484 C 52.3103 1.34746 2.82511 0
M  V30 485 C 52.7853 2.18388 4.0258 0
M  V30 486 N 54.2763 2.15966 4.09772 0
M  V30 487 C 55.0113 2.77437 5.01813 0
M  V30 488 N 54.5073 3.47866 5.99134 0
M  V30 489 N 56.3003 2.67037 4.94619 0
M  V30 490 H 48.4513 1.7711 1.17243 0
M  V30 491 H 50.7143 0.754256 0.574284 0
M  V30 492 H 50.4203 2.40001 2.57085 0
M  V30 493 H 50.2943 1.00991 3.63429 0
M  V30 494 H 52.6813 0.30648 2.93504 0
M  V30 495 H 52.7623 1.72869 1.88547 0
M  V30 496 H 52.4063 3.2253 3.92347 0
M  V30 497 H 52.3363 1.77621 4.9574 0
M  V30 498 H 54.8273 1.64729 3.40107 0
M  V30 499 H 55.1403 3.92038 6.65977 0
M  V30 500 H 53.4853 3.51972 5.99284 0
M  V30 501 H 56.6763 2.11597 4.17546 0
M  V30 502 H 56.8493 3.15232 5.66156 0
M  V30 503 N 50.2554 -1.46986 0.568584 0
M  V30 504 C 51.2034 -2.31858 -0.185649 0
M  V30 505 C 52.1974 -1.43624 -0.898249 0
M  V30 506 O 53.4034 -1.60327 -0.818242 0
M  V30 507 H 49.7784 -0.747866 -0.0787399 0
M  V30 508 H 51.7494 -2.93303 0.549191 0
M  V30 509 C 50.4984 -3.26513 -1.19519 0
M  V30 510 H 49.8214 -3.94377 -0.656285 0
M  V30 511 H 51.2614 -3.88707 -1.6936 0
M  V30 512 C 49.7204 -2.50847 -2.24894 0
M  V30 513 O 50.2504 -2.26119 -3.32014 0
M  V30 514 N 48.4564 -2.11656 -1.99124 0
M  V30 515 H 48.0034 -2.31966 -1.12024 0
M  V30 516 H 47.9614 -1.61347 -2.69842 0
M  V30 517 N 51.7335 -0.305618 -1.54608 0
M  V30 518 C 53.1445 0.186098 -1.8577 0
M  V30 519 C 53.4955 1.53058 -1.22751 0
M  V30 520 O 52.6205 2.09888 -0.526893 0
M  V30 521 C 53.2155 0.344449 -3.37044 0
M  V30 522 C 51.7745 0.780384 -3.68221 0
M  V30 523 C 50.9215 -0.108554 -2.77087 0
M  V30 524 H 53.8725 -0.526485 -1.49712 0
M  V30 525 H 53.8935 1.17828 -3.61796 0
M  V30 526 H 53.4055 -0.634235 -3.82883 0
M  V30 527 H 51.5065 1.76945 -3.27904 0
M  V30 528 H 51.6195 0.596572 -4.75371 0
M  V30 529 H 49.9835 0.412931 -2.5133 0
M  V30 530 H 50.7665 -1.08368 -3.25747 0
M  V30 531 N 53.2116 1.57565 -0.0334293 0
M  V30 532 C 54.1216 2.13943 0.962572 0
M  V30 533 C 55.1376 1.09276 1.35406 0
M  V30 534 O 56.3136 1.41355 1.4346 0
M  V30 535 C 53.3786 2.65887 2.22497 0
M  V30 536 C 52.4396 3.85286 1.8935 0
M  V30 537 C 51.6726 4.34743 3.09571 0
M  V30 538 O 51.8956 3.83352 4.22371 0
M  V30 539 O 50.8296 5.26538 2.91618 0
M  V30 540 H 54.6556 2.99333 0.513169 0
M  V30 541 H 52.2406 1.4822 0.18743 0
M  V30 542 H 54.1226 2.99346 2.96598 0
M  V30 543 H 52.7976 1.83578 2.6661 0
M  V30 544 H 51.7046 3.56746 1.1262 0
M  V30 545 H 53.0376 4.68771 1.5005 0
M  V30 546 N 54.6897 -0.239769 1.55765 0
M  V30 547 C 55.9357 -0.968234 1.78194 0
M  V30 548 C 56.2687 -1.84701 0.599938 0
M  V30 549 O 55.5437 -1.9031 -0.401524 0
M  V30 550 C 55.8267 -1.8227 3.10564 0
M  V30 551 C 55.6797 -0.971633 4.3918 0
M  V30 552 C 56.9987 -2.80388 3.39221 0
M  V30 553 H 54.1177 -0.350572 0.648281 0
M  V30 554 H 56.7597 -0.238259 1.885 0
M  V30 555 H 54.9097 -2.44507 3.01908 0
M  V30 556 H 56.5817 -0.367408 4.59835 0
M  V30 557 H 54.8247 -0.276276 4.32919 0
M  V30 558 H 55.4957 -1.60346 5.28198 0
M  V30 559 H 57.9717 -2.28287 3.47885 0
M  V30 560 H 56.8477 -3.3729 4.33044 0
M  V30 561 H 57.1087 -3.57212 2.60484 0
M  V30 562 N 56.1678 -1.49265 -0.50573 0
M  V30 563 C 57.5788 -1.51769 -1.08734 0
M  V30 564 C 57.9298 -0.301192 -1.93874 0
M  V30 565 O 57.0548 0.589456 -2.08217 0
M  V30 566 C 57.6498 -2.75017 -1.97867 0
M  V30 567 C 56.2088 -2.80314 -2.51199 0
M  V30 568 C 55.3558 -2.4562 -1.28709 0
M  V30 569 H 58.3068 -1.56031 -0.289855 0
M  V30 570 H 58.3278 -2.5491 -2.82491 0
M  V30 571 H 57.8398 -3.63539 -1.35873 0
M  V30 572 H 55.9408 -1.96061 -3.16845 0
M  V30 573 H 56.0538 -3.82366 -2.88675 0
M  V30 574 H 54.4178 -1.97297 -1.61078 0
M  V30 575 H 55.2008 -3.36411 -0.6843 0
M  V30 576 N 57.6459 0.756429 -1.3826 0
M  V30 577 C 58.8929 1.51547 -1.34312 0
M  V30 578 C 59.2209 1.94382 0.0677144 0
M  V30 579 O 58.4759 1.65514 1.04421 0
M  V30 580 C 58.7749 2.78313 -2.24224 0
M  V30 581 C 58.4409 2.54455 -3.72241 0
M  V30 582 C 57.1029 2.47657 -4.12576 0
M  V30 583 C 59.4549 2.3354 -4.65949 0
M  V30 584 C 56.7829 2.17956 -5.44713 0
M  V30 585 C 59.1349 2.05359 -5.9834 0
M  V30 586 C 57.7989 1.97016 -6.37762 0
M  V30 587 H 57.0689 0.55455 -0.491482 0
M  V30 588 H 59.7159 0.870039 -1.70595 0
M  V30 589 H 58.0209 3.47492 -1.80987 0
M  V30 590 H 59.7179 3.36259 -2.18474 0
M  V30 591 H 56.3079 2.60616 -3.40261 0
M  V30 592 H 60.4919 2.37772 -4.35635 0
M  V30 593 H 55.7479 2.10003 -5.74203 0
M  V30 594 H 59.9219 1.88179 -6.70494 0
M  V30 595 H 57.5489 1.73766 -7.40074 0
M  V30 596 N 59.124 1.23083 0.984299 0
M  V30 597 C 60.034 1.02515 2.11016 0
M  V30 598 C 61.05 -0.0291702 1.73976 0
M  V30 599 O 62.226 0.165434 2.00719 0
M  V30 600 C 59.291 0.614673 3.41208 0
M  V30 601 C 58.352 1.74359 3.92297 0
M  V30 602 C 57.585 1.35261 5.16275 0
M  V30 603 O 57.808 0.235136 5.69915 0
M  V30 604 O 56.742 2.17227 5.61334 0
M  V30 605 H 60.568 1.96862 2.31255 0
M  V30 606 H 58.153 1.01753 1.09392 0
M  V30 607 H 60.035 0.396518 4.1953 0
M  V30 608 H 58.71 -0.299851 3.22308 0
M  V30 609 H 57.617 2.01635 3.1511 0
M  V30 610 H 58.95 2.63629 4.15645 0
M  V30 611 N 60.6021 -1.18246 1.0419 0
M  V30 612 C 61.8271 -1.92736 0.765996 0
M  V30 613 C 62.2521 -1.75728 -0.67091 0
M  V30 614 O 61.6101 -1.06825 -1.46486 0
M  V30 615 C 61.6581 -3.42148 1.13875 0
M  V30 616 O 60.7621 -4.11548 0.264954 0
M  V30 617 H 60.1031 -0.601238 0.281797 0
M  V30 618 H 62.6331 -1.49942 1.39207 0
M  V30 619 H 62.6431 -3.92858 1.1012 0
M  V30 620 H 61.3181 -3.53848 2.18551 0
M  V30 621 H 59.8951 -3.71137 0.362226 0
M  V30 622 N 62.0802 -0.821533 -1.34494 0
M  V30 623 C 63.3052 -0.420873 -2.03085 0
M  V30 624 C 63.7302 0.964915 -1.61465 0
M  V30 625 O 63.0882 1.62763 -0.798607 0
M  V30 626 C 63.1362 -0.529414 -3.56693 0
M  V30 627 O 62.2402 0.451302 -4.09923 0
M  V30 628 H 61.5812 -0.173489 -0.640935 0
M  V30 629 H 64.1112 -1.11157 -1.71771 0
M  V30 630 H 64.1212 -0.404671 -4.05988 0
M  V30 631 H 62.7962 -1.54014 -3.86332 0
M  V30 632 H 61.3732 0.285558 -3.71805 0
M  V30 633 N 63.5583 1.46682 -0.576371 0
M  V30 634 C 64.5213 2.28707 0.150239 0
M  V30 635 C 65.5213 1.38035 0.824794 0
M  V30 636 O 66.7113 1.60476 0.677719 0
M  V30 637 C 63.8433 3.18248 1.22192 0
M  V30 638 H 65.0363 2.94423 -0.570521 0
M  V30 639 H 62.5893 1.52688 -0.334078 0
M  V30 640 H 63.3243 2.57265 1.97447 0
M  V30 641 H 63.1093 3.85 0.742812 0
M  V30 642 H 64.5993 3.80001 1.73172 0
M  V30 643 N 65.0364 0.313813 1.54444 0
M  V30 644 C 66.2664 -0.293491 2.04505 0
M  V30 645 C 66.6744 -1.47086 1.19005 0
M  V30 646 O 66.0174 -1.82481 0.211257 0
M  V30 647 C 66.0794 -0.800455 3.50475 0
M  V30 648 C 65.7434 0.253322 4.56297 0
M  V30 649 C 66.7404 1.08612 5.08428 0
M  V30 650 C 64.4254 0.398708 5.00715 0
M  V30 651 C 66.4194 2.05013 6.0353 0
M  V30 652 C 64.1064 1.36614 5.95634 0
M  V30 653 C 65.1044 2.19033 6.46926 0
M  V30 654 O 64.7924 3.14134 7.39983 0
M  V30 655 H 64.5244 -0.0658325 0.672787 0
M  V30 656 H 67.0784 0.455177 2.00293 0
M  V30 657 H 65.3084 -1.59987 3.52053 0
M  V30 658 H 66.9974 -1.32504 3.83663 0
M  V30 659 H 67.7634 0.984736 4.74898 0
M  V30 660 H 63.6424 -0.23289 4.60411 0
M  V30 661 H 67.1864 2.69382 6.4349 0
M  V30 662 H 63.0834 1.4682 6.28581 0
M  V30 663 H 63.8514 3.0926 7.57826 0
M  V30 664 N 66.5145 -1.57545 0.0417849 0
M  V30 665 C 67.9305 -1.56467 -0.314704 0
M  V30 666 C 68.1305 -1.04859 -1.72066 0
M  V30 667 O 67.1865 -0.700983 -2.42575 0
M  V30 668 C 68.4995 -3.00317 -0.15174 0
M  V30 669 C 70.0475 -3.12201 -0.223553 0
M  V30 670 C 70.5225 -4.57913 -0.0892295 0
M  V30 671 N 72.0135 -4.6297 -0.145808 0
M  V30 672 C 72.7485 -5.73362 -0.0658459 0
M  V30 673 N 72.2445 -6.92769 0.0659282 0
M  V30 674 N 74.0375 -5.6197 -0.12075 0
M  V30 675 H 66.1885 -1.89416 0.961014 0
M  V30 676 H 68.4515 -0.871862 0.372237 0
M  V30 677 H 68.1575 -3.42073 0.817254 0
M  V30 678 H 68.0315 -3.65892 -0.916692 0
M  V30 679 H 70.4185 -2.70349 -1.18301 0
M  V30 680 H 70.4995 -2.49323 0.571994 0
M  V30 681 H 70.1435 -5.00448 0.866867 0
M  V30 682 H 70.0735 -5.18786 -0.903802 0
M  V30 683 H 72.5645 -3.7709 -0.247286 0
M  V30 684 H 72.8775 -7.72707 0.119905 0
M  V30 685 H 71.2225 -6.94927 0.100885 0
M  V30 686 H 74.4135 -4.67572 -0.222187 0
M  V30 687 H 74.5865 -6.47977 -0.0549735 0
M  V30 688 N 67.9926 0.231505 -1.5589 0
M  V30 689 C 69.2416 0.955346 -1.7764 0
M  V30 690 C 69.5546 1.85893 -0.608546 0
M  V30 691 O 70.7606 2.62067 -0.70943 0
M  V30 692 C 69.2166 1.74886 -3.14552 0
M  V30 693 C 68.8246 0.891915 -4.39032 0
M  V30 694 C 70.5686 2.46452 -3.45633 0
M  V30 695 C 68.4756 1.68221 -5.66971 0
M  V30 696 H 67.4056 0.360446 -0.662265 0
M  V30 697 H 70.0566 0.209516 -1.823 0
M  V30 698 H 68.4386 2.53723 -3.04041 0
M  V30 699 H 69.6126 0.144793 -4.60572 0
M  V30 700 H 67.9276 0.288863 -4.15397 0
M  V30 701 H 70.5246 3.06061 -4.38441 0
M  V30 702 H 70.8676 3.18841 -2.67668 0
M  V30 703 H 71.4006 1.74613 -3.57428 0
M  V30 704 H 68.1396 1.00178 -6.478 0
M  V30 705 H 67.6596 2.4042 -5.49507 0
M  V30 706 H 69.3386 2.24544 -6.06786 0
M  V30 707 N 69.4707 1.49531 0.497807 0
M  V30 708 C 70.6957 1.63159 1.28039 0
M  V30 709 C 71.1207 0.30418 1.85624 0
M  V30 710 O 70.4787 -0.728618 1.66015 0
M  V30 711 C 70.5267 2.70537 2.38416 0
M  V30 712 O 69.6307 2.29931 3.42353 0
M  V30 713 H 68.9717 0.546001 0.377861 0
M  V30 714 H 71.5017 1.9574 0.59558 0
M  V30 715 H 71.5117 2.92802 2.84132 0
M  V30 716 H 70.1867 3.6689 1.95869 0
M  V30 717 H 68.7637 2.18009 3.02533 0
M  V30 718 N 70.9488 -0.749086 1.3866 0
M  V30 719 C 71.9118 -1.84457 1.36045 0
M  V30 720 C 72.9118 -1.58682 0.260122 0
M  V30 721 O 74.1018 -1.66343 0.517261 0
M  V30 722 C 71.2338 -3.22008 1.11911 0
M  V30 723 H 72.4268 -1.88182 2.33512 0
M  V30 724 H 69.9798 -0.951266 1.24019 0
M  V30 725 H 70.7148 -3.2395 0.150686 0
M  V30 726 H 70.4998 -3.42111 1.91579 0
M  V30 727 H 71.9898 -4.0208 1.12788 0
M  V30 728 N 72.4269 -1.23603 -0.977757 0
M  V30 729 C 73.6519 -1.09735 -1.75991 0
M  V30 730 C 74.0769 0.346858 -1.84874 0
M  V30 731 O 73.4349 1.25093 -1.3123 0
M  V30 732 C 73.4829 -1.73051 -3.16363 0
M  V30 733 O 72.5869 -0.994452 -4.0023 0
M  V30 734 H 71.9279 -0.384476 -0.541364 0
M  V30 735 H 74.4579 -1.6371 -1.2272 0
M  V30 736 H 74.4679 -1.78398 -3.66931 0
M  V30 737 H 73.1429 -2.78137 -3.09213 0
M  V30 738 H 71.7199 -1.01812 -3.58732 0
M  V30 739 N 73.905 1.17692 -1.04816 0
M  V30 740 C 74.868 2.19787 -0.650117 0
M  V30 741 C 75.868 1.58044 0.296427 0
M  V30 742 O 77.058 1.74012 0.0808097 0
M  V30 743 C 74.19 3.40869 0.0456987 0
M  V30 744 H 75.383 2.56516 -1.5537 0
M  V30 745 H 72.936 1.31708 -0.841594 0
M  V30 746 H 73.671 3.09681 0.962726 0
M  V30 747 H 73.456 3.86928 -0.634727 0
M  V30 748 H 74.946 4.16445 0.310432 0
M  V30 749 N 75.3831 0.828654 1.34056 0
M  V30 750 C 76.7991 0.515135 1.51058 0
M  V30 751 C 76.9991 -0.959581 1.77184 0
M  V30 752 O 76.0551 -1.74382 1.82612 0
M  V30 753 C 77.3681 1.37963 2.67183 0
M  V30 754 C 78.9161 1.37735 2.81066 0
M  V30 755 C 79.3911 2.22645 4.00241 0
M  V30 756 N 80.8821 2.203 4.07458 0
M  V30 757 C 81.6171 2.82744 4.98842 0
M  V30 758 N 81.1131 3.54201 5.9541 0
M  V30 759 N 82.9061 2.72268 4.91759 0
M  V30 760 H 75.0571 1.78343 1.15358 0
M  V30 761 H 77.3201 0.760304 0.566252 0
M  V30 762 H 77.0261 2.42714 2.54525 0
M  V30 763 H 76.9001 1.0484 3.62338 0
M  V30 764 H 79.2871 0.337593 2.93163 0
M  V30 765 H 79.3681 1.74859 1.86703 0
M  V30 766 H 79.0121 3.26674 3.88905 0
M  V30 767 H 78.9421 1.82869 4.93829 0
M  V30 768 H 81.4331 1.68327 3.38341 0
M  V30 769 H 81.7461 3.9908 6.61782 0
M  V30 770 H 80.0911 3.58308 5.95517 0
M  V30 771 H 83.2821 2.16014 4.15278 0
M  V30 772 H 83.4551 3.21219 5.62781 0
M  V30 773 N 76.8612 -1.46375 0.584142 0
M  V30 774 C 78.1092 -2.01978 0.0701287 0
M  V30 775 C 78.4302 -1.4579 -1.295 0
M  V30 776 O 77.7002 -0.64314 -1.85042 0
M  V30 777 H 76.2802 -0.746648 0.0229345 0
M  V30 778 H 78.9422 -1.79461 0.760245 0
M  V30 779 H 78.0382 -3.121 0.0022064 0
M  V30 780 N 78.3393 -0.321999 -1.54275 0
M  V30 781 C 79.2863 0.544664 -2.24281 0
M  V30 782 C 80.2563 1.1129 -1.23303 0
M  V30 783 O 81.4413 1.15354 -1.51981 0
M  V30 784 C 78.5813 1.70045 -3.00298 0
M  V30 785 C 77.6943 1.16159 -4.1609 0
M  V30 786 C 76.8293 2.28293 -4.79641 0
M  V30 787 C 75.8683 1.71648 -5.8754 0
M  V30 788 N 75.0053 2.77438 -6.44959 0
M  V30 789 H 79.8453 -0.0588907 -2.97942 0
M  V30 790 H 77.3823 -0.0408345 -1.47043 0
M  V30 791 H 79.3403 2.38054 -3.42616 0
M  V30 792 H 77.9703 2.27531 -2.28975 0
M  V30 793 H 77.0223 0.373092 -3.78566 0
M  V30 794 H 78.3343 0.707087 -4.93763 0
M  V30 795 H 77.4883 3.0421 -5.2492 0
M  V30 796 H 76.2273 2.77079 -4.01346 0
M  V30 797 H 75.2323 0.942282 -5.41665 0
M  V30 798 H 76.4573 1.23741 -6.67731 0
M  V30 799 H 74.4033 3.25519 -5.69538 0
M  V30 800 H 74.3203 2.36547 -7.1804 0
M  V30 801 H 75.5883 3.53189 -6.94894 0
M  V30 802 N 79.8174 1.5752 -0.0501392 0
M  V30 803 C 80.7274 2.14952 0.939827 0
M  V30 804 C 81.7434 1.10706 1.34239 0
M  V30 805 O 82.9194 1.42869 1.41952 0
M  V30 806 C 79.9844 2.68232 2.19665 0
M  V30 807 C 79.0454 3.87272 1.85253 0
M  V30 808 C 78.2784 4.38002 3.04943 0
M  V30 809 O 78.5014 3.87811 4.18281 0
M  V30 810 O 77.4354 5.29602 2.86017 0
M  V30 811 H 81.2614 2.9986 0.481392 0
M  V30 812 H 78.8464 1.4841 0.171699 0
M  V30 813 H 80.7284 3.02475 2.93406 0
M  V30 814 H 79.4034 1.86395 2.64648 0
M  V30 815 H 78.3104 3.5792 1.0883 0
M  V30 816 H 79.6434 4.70336 1.4507 0
M  V30 817 N 81.2955 -0.223234 1.56011 0
M  V30 818 C 82.2255 -1.27988 1.95298 0
M  V30 819 C 83.2065 -1.48976 0.820979 0
M  V30 820 O 84.3915 -1.61188 1.08315 0
M  V30 821 C 81.5215 -2.63 2.26822 0
M  V30 822 C 80.4755 -2.56671 3.42497 0
M  V30 823 C 79.8015 -3.95697 3.59622 0
M  V30 824 C 81.1015 -2.11601 4.77517 0
M  V30 825 H 82.7955 -0.953525 2.8381 0
M  V30 826 H 80.3415 -0.457244 1.36548 0
M  V30 827 H 82.2945 -3.37077 2.52898 0
M  V30 828 H 81.0185 -2.9732 1.35161 0
M  V30 829 H 79.6775 -1.85051 3.16467 0
M  V30 830 H 79.3255 -4.27322 2.6534 0
M  V30 831 H 79.0255 -3.92345 4.37424 0
M  V30 832 H 80.5495 -4.71438 3.88044 0
M  V30 833 H 81.9635 -2.7542 5.02809 0
M  V30 834 H 80.3605 -2.19311 5.5859 0
M  V30 835 H 81.4305 -1.06824 4.72987 0
M  V30 836 N 82.7736 -1.49793 -0.48987 0
M  V30 837 C 84.1896 -1.36803 -0.822022 0
M  V30 838 C 84.3896 -0.409652 -1.97292 0
M  V30 839 O 83.4456 0.154614 -2.52026 0
M  V30 840 C 84.7586 -2.77768 -1.15175 0
M  V30 841 C 86.3066 -2.86549 -1.25931 0
M  V30 842 C 86.7816 -4.28306 -1.62228 0
M  V30 843 N 88.2726 -4.31169 -1.69256 0
M  V30 844 C 89.0076 -5.37832 -1.98807 0
M  V30 845 N 88.5036 -6.54726 -2.26507 0
M  V30 846 N 90.2966 -5.25258 -2.00152 0
M  V30 847 H 82.4476 -2.10691 0.268881 0
M  V30 848 H 84.7106 -0.946241 0.057728 0
M  V30 849 H 84.4166 -3.49648 -0.379335 0
M  V30 850 H 84.2906 -3.13836 -2.09253 0
M  V30 851 H 86.6776 -2.14899 -2.02243 0
M  V30 852 H 86.7586 -2.54049 -0.298776 0
M  V30 853 H 86.4026 -5.00486 -0.864622 0
M  V30 854 H 86.3326 -4.58279 -2.594 0
M  V30 855 H 88.8236 -3.4687 -1.49965 0
M  V30 856 H 89.1366 -7.31833 -2.48276 0
M  V30 857 H 87.4816 -6.57933 -2.23939 0
M  V30 858 H 90.6726 -4.32938 -1.77996 0
M  V30 859 H 90.8456 -6.08476 -2.22848 0
M  V30 860 N 84.2517 0.741722 -1.39055 0
M  V30 861 C 85.1817 1.869 -1.39966 0
M  V30 862 C 86.1627 1.6804 -0.26392 0
M  V30 863 O 87.3477 1.88458 -0.468755 0
M  V30 864 C 84.4777 3.24572 -1.23574 0
M  V30 865 C 83.4317 3.58056 -2.34477 0
M  V30 866 C 82.7577 4.94593 -2.0318 0
M  V30 867 C 84.0577 3.61716 -3.76774 0
M  V30 868 H 85.7517 1.86395 -2.34302 0
M  V30 869 H 83.2977 0.895361 -1.1278 0
M  V30 870 H 85.2507 4.031 -1.22834 0
M  V30 871 H 83.9747 3.25587 -0.257045 0
M  V30 872 H 82.6337 2.81854 -2.34423 0
M  V30 873 H 82.2817 4.92181 -1.03765 0
M  V30 874 H 81.9817 5.17964 -2.77465 0
M  V30 875 H 83.5057 5.75486 -2.04079 0
M  V30 876 H 84.9197 4.30335 -3.78794 0
M  V30 877 H 83.3167 3.96603 -4.50362 0
M  V30 878 H 84.3867 2.61672 -4.08235 0
M  V30 879 N 85.7298 1.2412 0.971189 0
M  V30 880 C 86.9788 1.07284 1.70801 0
M  V30 881 C 87.2918 -0.388902 1.91695 0
M  V30 882 O 88.4978 -0.677379 2.62914 0
M  V30 883 C 86.9538 1.87145 3.07416 0
M  V30 884 C 86.5618 3.37707 2.94377 0
M  V30 885 C 88.3058 1.78828 3.84995 0
M  V30 886 C 86.2128 4.09925 4.26281 0
M  V30 887 H 85.1428 0.397854 0.64049 0
M  V30 888 H 87.7938 1.4817 1.0825 0
M  V30 889 H 86.1758 1.39071 3.70777 0
M  V30 890 H 87.3498 3.93335 2.4005 0
M  V30 891 H 85.6648 3.46938 2.30267 0
M  V30 892 H 88.2618 2.30089 4.82662 0
M  V30 893 H 88.6048 0.75284 4.09436 0
M  V30 894 H 89.1378 2.24563 3.28354 0
M  V30 895 H 85.8768 5.13813 4.07033 0
M  V30 896 H 85.3968 3.59083 4.80437 0
M  V30 897 H 87.0758 4.1673 4.94919 0
M  V30 898 N 87.2079 -1.17134 1.05439 0
M  V30 899 C 88.1379 -2.2342 0.678649 0
M  V30 900 C 89.1189 -1.66971 -0.32476 0
M  V30 901 O 90.3039 -1.93149 -0.201802 0
M  V30 902 C 87.4339 -3.47256 0.0552099 0
M  V30 903 C 86.3879 -4.16543 0.98365 0
M  V30 904 C 85.7139 -5.34231 0.223961 0
M  V30 905 C 87.0139 -4.68495 2.3089 0
M  V30 906 H 88.7079 -2.55105 1.56722 0
M  V30 907 H 86.2539 -1.2262 0.754998 0
M  V30 908 H 88.2069 -4.20828 -0.21946 0
M  V30 909 H 86.9309 -3.14846 -0.868319 0
M  V30 910 H 85.5899 -3.44887 1.24293 0
M  V30 911 H 85.2379 -4.98071 -0.702412 0
M  V30 912 H 84.9379 -5.81527 0.842627 0
M  V30 913 H 86.4619 -6.10585 -0.0433671 0
M  V30 914 H 87.8759 -5.33691 2.09396 0
M  V30 915 H 86.2729 -5.26379 2.88176 0
M  V30 916 H 87.3429 -3.85169 2.94572 0
M  V30 917 N 88.686 -0.835752 -1.33615 0
M  V30 918 C 89.911 -0.442389 -2.02627 0
M  V30 919 C 90.336 0.947735 -1.62479 0
M  V30 920 O 89.694 1.61907 -0.815826 0
M  V30 921 C 89.742 -0.567216 -3.56111 0
M  V30 922 O 88.846 0.407799 -4.10379 0
M  V30 923 H 88.187 -0.180278 -0.639059 0
M  V30 924 H 90.717 -1.12972 -1.70583 0
M  V30 925 H 90.727 -0.447708 -4.05536 0
M  V30 926 H 89.402 -1.58103 -3.84677 0
M  V30 927 H 87.979 0.246107 -3.72087 0
M  V30 928 N 90.1641 1.46063 -0.591896 0
M  V30 929 C 91.5751 1.85944 -0.167822 0
M  V30 930 C 91.9261 1.49429 1.27143 0
M  V30 931 O 91.0511 0.913515 1.96173 0
M  V30 932 C 91.6461 3.37489 -0.297794 0
M  V30 933 C 90.2051 3.76332 0.0714732 0
M  V30 934 C 89.3521 2.7006 -0.629509 0
M  V30 935 H 92.3031 1.37087 -0.799555 0
M  V30 936 H 92.3241 3.77532 0.474349 0
M  V30 937 H 91.8361 3.64034 -1.3454 0
M  V30 938 H 89.9371 3.55405 1.11886 0
M  V30 939 H 90.0501 4.78088 -0.311245 0
M  V30 940 H 88.4141 2.54607 -0.0687867 0
M  V30 941 H 89.1971 2.99444 -1.67894 0
M  V30 942 N 91.6422 0.330177 1.54103 0
M  V30 943 C 92.5722 -0.525353 2.27513 0
M  V30 944 C 93.5532 -1.11383 1.2856 0
M  V30 945 O 94.7382 -1.13773 1.57383 0
M  V30 946 C 91.8682 -1.6831 3.03791 0
M  V30 947 C 90.8222 -1.2236 4.10137 0
M  V30 948 C 90.1482 -2.46882 4.74293 0
M  V30 949 C 91.4482 -0.333697 5.21233 0
M  V30 950 H 93.1422 0.087013 2.99274 0
M  V30 951 H 90.6882 0.0432893 1.43935 0
M  V30 952 H 92.6412 -2.28795 3.5388 0
M  V30 953 H 91.3652 -2.32216 2.29659 0
M  V30 954 H 90.0242 -0.64165 3.60941 0
M  V30 955 H 89.6722 -3.09165 3.96769 0
M  V30 956 H 89.3722 -2.16825 5.46133 0
M  V30 957 H 90.8962 -3.08117 5.27159 0
M  V30 958 H 92.3102 -0.845013 5.67038 0
M  V30 959 H 90.7072 -0.125612 5.99969 0
M  V30 960 H 91.7772 0.633724 4.80741 0
M  V30 961 N 93.1203 -1.57491 0.0584922 0
M  V30 962 C 94.5313 -1.80526 -0.476138 0
M  V30 963 C 94.8823 -0.971334 -1.70469 0
M  V30 964 O 94.0073 -0.190012 -2.15564 0
M  V30 965 C 94.6023 -3.27424 -0.870587 0
M  V30 966 C 93.1613 -3.51351 -1.35015 0
M  V30 967 C 92.3083 -2.75343 -0.32887 0
M  V30 968 H 95.2593 -1.56133 0.284312 0
M  V30 969 H 95.2803 -3.38745 -1.73299 0
M  V30 970 H 94.7923 -3.88093 0.0237627 0
M  V30 971 H 92.8933 -2.95971 -2.26345 0
M  V30 972 H 93.0063 -4.60059 -1.33726 0
M  V30 973 H 91.3703 -2.417 -0.803321 0
M  V30 974 H 92.1533 -3.38743 0.557521 0
M  V30 975 N 94.5984 0.214957 -1.56127 0
M  V30 976 C 95.8464 0.936518 -1.79091 0
M  V30 977 C 96.1674 1.84606 -0.628148 0
M  V30 978 O 95.4374 1.92664 0.35462 0
M  V30 979 H 94.0174 0.3488 -0.660566 0
M  V30 980 H 96.6794 0.22523 -1.93594 0
M  V30 981 H 95.7754 1.53943 -2.71492 0
M  V30 982 N 96.0765 1.50051 0.48192 0
M  V30 983 C 97.0395 1.67584 1.5636 0
M  V30 984 C 98.0395 0.546894 1.51214 0
M  V30 985 O 99.2295 0.813725 1.54026 0
M  V30 986 C 96.3615 1.691 2.96003 0
M  V30 987 H 97.5545 2.64078 1.42136 0
M  V30 988 H 95.1075 1.39369 0.707533 0
M  V30 989 H 95.8425 0.742589 3.15684 0
M  V30 990 H 95.6275 2.51105 3.01146 0
M  V30 991 H 97.1175 1.84656 3.74556 0
M  V30 992 N 97.5546 -0.734337 1.39446 0
M  V30 993 C 98.4866 -1.85861 1.34121 0
M  V30 994 C 99.4996 -1.60871 0.249864 0
M  V30 995 O 100.689 -1.71093 0.508865 0
M  V30 996 C 97.7886 -3.21899 1.05991 0
M  V30 997 C 96.9616 -3.74239 2.26415 0
M  V30 998 C 96.0206 -4.88841 1.94733 0
M  V30 999 O 95.0466 -5.02468 2.67422 0
M  V30 1000 N 96.2486 -5.73261 0.913884 0
M  V30 1001 H 99.0136 -1.90934 2.31007 0
M  V30 1002 H 96.5746 -0.915102 1.33557 0
M  V30 1003 H 98.5666 -3.96136 0.828147 0
M  V30 1004 H 97.1366 -3.12091 0.178361 0
M  V30 1005 H 96.3566 -2.91347 2.65539 0
M  V30 1006 H 97.6446 -4.05942 3.06738 0
M  V30 1007 H 97.0426 -5.64842 0.311476 0
M  V30 1008 H 95.5996 -6.47563 0.742015 0
M  V30 1009 N 99.0327 -1.24633 -0.964593 0
M  V30 1010 C 100.444 -1.08045 -1.5226 0
M  V30 1011 C 100.795 0.347116 -1.93105 0
M  V30 1012 O 99.9197 1.23588 -1.77637 0
M  V30 1013 C 100.515 -1.95514 -2.76695 0
M  V30 1014 C 99.0737 -1.8314 -3.28841 0
M  V30 1015 C 98.2207 -1.90262 -2.01732 0
M  V30 1016 H 101.172 -1.38064 -0.782553 0
M  V30 1017 H 101.193 -1.48925 -3.50145 0
M  V30 1018 H 100.705 -2.99407 -2.46936 0
M  V30 1019 H 98.8057 -0.82092 -3.63444 0
M  V30 1020 H 98.9187 -2.67406 -3.97531 0
M  V30 1021 H 97.2827 -1.34027 -2.16584 0
M  V30 1022 H 98.0657 -2.9574 -1.74334 0
M  V30 1023 N 100.511 1.16574 -1.06058 0
M  V30 1024 C 101.443 2.2045 -0.627239 0
M  V30 1025 C 102.456 1.59752 0.313534 0
M  V30 1026 O 103.645 1.78192 0.104896 0
M  V30 1027 C 100.745 3.3875 0.100974 0
M  V30 1028 C 99.9178 4.29008 -0.852687 0
M  V30 1029 C 98.9768 5.25944 -0.164152 0
M  V30 1030 O 98.0028 5.63535 -0.801047 0
M  V30 1031 N 99.2048 5.70075 1.09518 0
M  V30 1032 H 101.97 2.58249 -1.52077 0
M  V30 1033 H 99.5308 1.3156 -0.943594 0
M  V30 1034 H 101.523 4.00638 0.57194 0
M  V30 1035 H 100.093 2.99476 0.89628 0
M  V30 1036 H 99.3128 3.64419 -1.50308 0
M  V30 1037 H 100.601 4.86195 -1.49972 0
M  V30 1038 H 99.9988 5.41624 1.6328 0
M  V30 1039 H 98.5558 6.34067 1.51006 0
M  V30 1040 N 101.989 0.842826 1.3317 0
M  V30 1041 C 102.921 0.236245 2.27979 0
M  V30 1042 C 103.934 -0.585282 1.51915 0
M  V30 1043 O 105.123 -0.411705 1.73687 0
M  V30 1044 C 102.223 -0.685717 3.3189 0
M  V30 1045 C 101.396 0.0973448 4.37292 0
M  V30 1046 C 100.455 -0.748565 5.20848 0
M  V30 1047 O 99.4809 -0.186339 5.68895 0
M  V30 1048 N 100.683 -2.06527 5.42519 0
M  V30 1049 H 103.448 1.05088 2.80672 0
M  V30 1050 H 101.009 0.701667 1.45905 0
M  V30 1051 H 103.001 -1.25669 3.84694 0
M  V30 1052 H 101.571 -1.40105 2.79445 0
M  V30 1053 H 100.791 0.849706 3.84933 0
M  V30 1054 H 102.079 0.635643 5.04814 0
M  V30 1055 H 101.477 -2.54554 5.05192 0
M  V30 1056 H 100.034 -2.58464 5.98364 0
M  V30 1057 N 103.467 -1.45747 0.599634 0
M  V30 1058 C 104.377 -2.34262 -0.125888 0
M  V30 1059 C 105.393 -1.50768 -0.868625 0
M  V30 1060 O 106.569 -1.83592 -0.828003 0
M  V30 1061 C 103.634 -3.28252 -1.11587 0
M  V30 1062 C 102.695 -4.27651 -0.375956 0
M  V30 1063 C 101.928 -5.1715 -1.31877 0
M  V30 1064 O 102.151 -5.09916 -2.55621 0
M  V30 1065 O 101.085 -5.96286 -0.820157 0
M  V30 1066 H 104.911 -2.97688 0.601315 0
M  V30 1067 H 102.496 -1.44999 0.359934 0
M  V30 1068 H 104.378 -3.86191 -1.68626 0
M  V30 1069 H 103.053 -2.67401 -1.82424 0
M  V30 1070 H 101.96 -3.7335 0.236698 0
M  V30 1071 H 103.293 -4.91334 0.29177 0
M  V30 1072 N 104.945 -0.338344 -1.53925 0
M  V30 1073 C 106.356 0.146651 -1.86123 0
M  V30 1074 C 106.707 1.5042 -1.2597 0
M  V30 1075 O 105.832 2.08723 -0.571294 0
M  V30 1076 C 106.427 0.272879 -3.37699 0
M  V30 1077 C 104.986 0.702103 -3.69794 0
M  V30 1078 C 104.133 -0.167304 -2.76795 0
M  V30 1079 H 107.084 -0.558123 -1.48562 0
M  V30 1080 H 107.105 1.10128 -3.64214 0
M  V30 1081 H 106.617 -0.715307 -3.81451 0
M  V30 1082 H 104.718 1.6995 -3.31584 0
M  V30 1083 H 104.831 0.495604 -4.7653 0
M  V30 1084 H 103.195 0.359527 -2.5215 0
M  V30 1085 H 103.978 -1.15253 -3.23375 0
M  V30 1086 N 106.423 1.57458 -0.0668435 0
M  V30 1087 C 107.353 2.15468 0.899764 0
M  V30 1088 C 108.334 1.08042 1.31381 0
M  V30 1089 O 109.519 1.36054 1.38574 0
M  V30 1090 C 106.649 2.71232 2.16911 0
M  V30 1091 C 105.603 3.83781 1.89463 0
M  V30 1092 C 104.929 4.26127 3.22986 0
M  V30 1093 C 106.229 5.08238 1.20381 0
M  V30 1094 H 107.923 2.96488 0.416529 0
M  V30 1095 H 105.469 1.4262 0.198908 0
M  V30 1096 H 107.422 3.10458 2.84945 0
M  V30 1097 H 106.146 1.87426 2.67468 0
M  V30 1098 H 104.805 3.45051 1.23836 0
M  V30 1099 H 104.453 3.39249 3.71374 0
M  V30 1100 H 104.153 5.01993 3.05413 0
M  V30 1101 H 105.677 4.67966 3.92225 0
M  V30 1102 H 107.091 5.44811 1.78475 0
M  V30 1103 H 105.488 5.89349 1.13083 0
M  V30 1104 H 106.558 4.84558 0.182153 0
M  V30 1105 N 107.901 -0.206675 1.56239 0
M  V30 1106 C 108.864 -1.23976 1.92776 0
M  V30 1107 C 109.864 -1.39041 0.807729 0
M  V30 1108 O 111.054 -1.37051 1.0753 0
M  V30 1109 C 108.186 -2.61112 2.19165 0
M  V30 1110 H 109.379 -0.927764 2.85189 0
M  V30 1111 H 106.932 -0.447718 1.4975 0
M  V30 1112 H 107.667 -2.97386 1.29352 0
M  V30 1113 H 107.452 -2.51552 3.00772 0
M  V30 1114 H 108.942 -3.35633 2.48476 0
M  V30 1115 N 109.379 -1.50304 -0.473955 0
M  V30 1116 C 110.309 -1.71886 -1.58042 0
M  V30 1117 C 111.29 -0.567799 -1.60344 0
M  V30 1118 O 112.475 -0.806623 -1.76656 0
M  V30 1119 C 109.605 -1.81036 -2.96384 0
M  V30 1120 C 108.559 -2.962 -3.08949 0
M  V30 1121 C 107.885 -2.9049 -4.48909 0
M  V30 1122 C 109.185 -4.36752 -2.86434 0
M  V30 1123 H 110.879 -2.64527 -1.40234 0
M  V30 1124 H 108.425 -1.27295 -0.673201 0
M  V30 1125 H 110.378 -1.94719 -3.73714 0
M  V30 1126 H 109.102 -0.850147 -3.15341 0
M  V30 1127 H 107.761 -2.82164 -2.3405 0
M  V30 1128 H 107.409 -1.92321 -4.64781 0
M  V30 1129 H 107.109 -3.67802 -4.58253 0
M  V30 1130 H 108.633 -3.06218 -5.28264 0
M  V30 1131 H 110.047 -4.5133 -3.53517 0
M  V30 1132 H 108.444 -5.15493 -3.07225 0
M  V30 1133 H 109.514 -4.49321 -1.82316 0
M  V30 1134 N 110.857 0.726932 -1.39834 0
M  V30 1135 C 112.103 1.48884 -1.377 0
M  V30 1136 C 112.436 1.94185 0.0244852 0
M  V30 1137 O 111.711 1.67361 0.990986 0
M  V30 1138 C 111.994 2.72288 -2.3565 0
M  V30 1139 C 111.847 2.32956 -3.84775 0
M  V30 1140 C 113.166 3.74414 -2.31306 0
M  V30 1141 H 110.285 0.540062 -0.5015 0
M  V30 1142 H 112.927 0.830547 -1.70886 0
M  V30 1143 H 111.077 3.28457 -2.07481 0
M  V30 1144 H 112.749 1.82356 -4.23726 0
M  V30 1145 H 110.992 1.65088 -4.01159 0
M  V30 1146 H 111.663 3.21362 -4.4881 0
M  V30 1147 H 114.139 3.27849 -2.56231 0
M  V30 1148 H 113.015 4.58414 -3.01907 0
M  V30 1149 H 113.276 4.21909 -1.32081 0
M  V30 1150 N 112.336 1.25143 0.95797 0
M  V30 1151 C 113.583 1.09692 1.70217 0
M  V30 1152 C 113.911 -0.362654 1.91089 0
M  V30 1153 O 113.166 -1.28386 1.47701 0
M  V30 1154 C 113.465 1.79272 3.09187 0
M  V30 1155 C 113.131 3.29196 3.08125 0
M  V30 1156 C 111.793 3.70096 3.07543 0
M  V30 1157 C 114.145 4.24995 3.0171 0
M  V30 1158 C 111.473 5.05213 2.9829 0
M  V30 1159 C 113.825 5.60132 2.93999 0
M  V30 1160 C 112.489 6.00365 2.9175 0
M  V30 1161 H 111.759 0.401393 0.622868 0
M  V30 1162 H 114.406 1.55372 1.11945 0
M  V30 1163 H 112.711 1.26014 3.70982 0
M  V30 1164 H 114.408 1.64773 3.65583 0
M  V30 1165 H 110.998 2.96651 3.09348 0
M  V30 1166 H 115.182 3.9439 3.01281 0
M  V30 1167 H 110.438 5.35569 2.94916 0
M  V30 1168 H 114.612 6.3406 2.87996 0
M  V30 1169 H 112.239 7.05023 2.84336 0
M  V30 1170 N 113.814 -1.1601 1.06675 0
M  V30 1171 C 115.23 -1.38622 0.790948 0
M  V30 1172 C 115.43 -1.92109 -0.607965 0
M  V30 1173 O 114.486 -2.12239 -1.36787 0
M  V30 1174 C 115.799 -2.36347 1.85905 0
M  V30 1175 C 117.347 -2.50023 1.88301 0
M  V30 1176 C 117.822 -3.51033 2.94176 0
M  V30 1177 N 119.313 -3.58563 2.93235 0
M  V30 1178 C 120.048 -4.36521 3.71803 0
M  V30 1179 N 119.544 -5.17869 4.602 0
M  V30 1180 N 121.337 -4.31541 3.60178 0
M  V30 1181 H 113.488 -0.796294 1.96908 0
M  V30 1182 H 115.751 -0.412597 0.853503 0
M  V30 1183 H 115.457 -2.04147 2.86386 0
M  V30 1184 H 115.331 -3.36042 1.71334 0
M  V30 1185 H 117.718 -2.81524 0.884769 0
M  V30 1186 H 117.799 -1.5035 2.06951 0
M  V30 1187 H 117.443 -3.20268 3.94196 0
M  V30 1188 H 117.373 -4.50445 2.72776 0
M  V30 1189 H 119.864 -3.00496 2.29152 0
M  V30 1190 H 120.177 -5.74578 5.16797 0
M  V30 1191 H 118.522 -5.17199 4.64253 0
M  V30 1192 H 121.713 -3.67051 2.90502 0
M  V30 1193 H 121.886 -4.9205 4.21653 0
M  V30 1194 N 115.292 -0.849877 -1.32721 0
M  V30 1195 C 116.539 -0.450923 -1.97416 0
M  V30 1196 C 116.867 0.992376 -1.67279 0
M  V30 1197 O 116.122 1.71048 -0.950845 0
M  V30 1198 C 116.421 -0.631272 -3.51781 0
M  V30 1199 C 116.087 -2.04432 -4.01894 0
M  V30 1200 C 114.749 -2.4308 -4.1529 0
M  V30 1201 C 117.101 -2.96679 -4.28522 0
M  V30 1202 C 114.429 -3.73257 -4.52654 0
M  V30 1203 C 116.781 -4.26349 -4.67343 0
M  V30 1204 C 115.445 -4.64939 -4.78945 0
M  V30 1205 H 114.715 -0.165004 -0.722395 0
M  V30 1206 H 117.362 -1.07901 -1.58207 0
M  V30 1207 H 115.667 0.0800767 -3.91718 0
M  V30 1208 H 117.364 -0.302709 -3.99856 0
M  V30 1209 H 113.954 -1.73419 -3.91949 0
M  V30 1210 H 118.138 -2.68054 -4.17685 0
M  V30 1211 H 113.394 -4.02946 -4.59831 0
M  V30 1212 H 117.568 -4.97895 -4.86902 0
M  V30 1213 H 115.195 -5.65855 -5.07654 0
M  V30 1214 N 116.77 1.45427 -0.607355 0
M  V30 1215 C 118.018 2.01841 -0.102253 0
M  V30 1216 C 118.339 1.47832 1.27164 0
M  V30 1217 O 117.609 0.672497 1.83995 0
M  V30 1218 H 116.189 0.746188 -0.0348101 0
M  V30 1219 H 118.851 1.78229 -0.7887 0
M  V30 1220 H 117.947 3.12057 -0.0518585 0
M  V30 1221 N 118.248 0.346503 1.53744 0
M  V30 1222 C 119.181 -0.552023 2.21423 0
M  V30 1223 C 120.159 -1.09798 1.19929 0
M  V30 1224 O 121.343 -1.1577 1.4876 0
M  V30 1225 C 118.47 -1.75972 2.89398 0
M  V30 1226 C 117.516 -1.34295 4.04805 0
M  V30 1227 S 118.349 -0.360263 5.34287 0
M  V30 1228 C 119.505 -1.57473 6.05767 0
M  V30 1229 H 119.738 0.0228119 2.97291 0
M  V30 1230 H 117.271 0.130579 1.53847 0
M  V30 1231 H 119.229 -2.45256 3.2918 0
M  V30 1232 H 117.89 -2.30578 2.1329 0
M  V30 1233 H 117.083 -2.24349 4.51313 0
M  V30 1234 H 116.685 -0.729555 3.66815 0
M  V30 1235 H 118.977 -2.50875 6.29339 0
M  V30 1236 H 119.92 -1.15138 6.98676 0
M  V30 1237 H 120.328 -1.77212 5.35963 0
M  V30 1238 N 119.726 -1.57421 0.075193 0
M  V30 1239 C 120.951 -1.98364 -0.605515 0
M  V30 1240 C 121.376 -0.953383 -1.62149 0
M  V30 1241 O 120.734 0.0806053 -1.81121 0
M  V30 1242 C 120.782 -3.38332 -1.24756 0
M  V30 1243 O 119.886 -3.37959 -2.36342 0
M  V30 1244 H 119.227 -0.645553 -0.155428 0
M  V30 1245 H 121.757 -2.04044 0.150714 0
M  V30 1246 H 121.767 -3.75591 -1.5936 0
M  V30 1247 H 120.442 -4.12846 -0.503129 0
M  V30 1248 H 119.019 -3.12474 -2.03506 0
M  V30 1249 N 121.204 0.198386 -1.56346 0
M  V30 1250 C 122.452 0.91747 -1.80075 0
M  V30 1251 C 122.773 1.83929 -0.647692 0
M  V30 1252 O 122.043 1.93029 0.334166 0
M  V30 1253 H 120.623 0.341774 -0.664228 0
M  V30 1254 H 123.285 0.204684 -1.93822 0
M  V30 1255 H 122.381 1.51055 -2.7311 0
M  V30 1256 N 122.682 1.50554 0.465978 0
M  V30 1257 C 123.907 1.65838 1.24549 0
M  V30 1258 C 124.332 0.343486 1.84937 0
M  V30 1259 O 123.69 -0.69324 1.67523 0
M  V30 1260 C 123.738 2.75533 2.32624 0
M  V30 1261 O 122.842 2.37142 3.37398 0
M  V30 1262 H 122.183 0.553893 0.366194 0
M  V30 1263 H 124.713 1.96959 0.553927 0
M  V30 1264 H 124.723 2.98763 2.77857 0
M  V30 1265 H 123.398 3.70962 1.88043 0
M  V30 1266 H 121.975 2.24377 2.97841 0
M  V30 1267 N 124.16 -0.719506 1.40217 0
M  V30 1268 C 125.407 -1.47933 1.38283 0
M  V30 1269 C 125.735 -1.94493 -0.0161536 0
M  V30 1270 O 124.99 -1.68224 -0.999956 0
M  V30 1271 C 125.289 -2.72271 2.31524 0
M  V30 1272 C 124.955 -2.44496 3.78857 0
M  V30 1273 C 123.617 -2.36631 4.18998 0
M  V30 1274 C 125.969 -2.21104 4.71977 0
M  V30 1275 C 123.297 -2.03437 5.503 0
M  V30 1276 C 125.649 -1.89423 6.03574 0
M  V30 1277 C 124.313 -1.80038 6.42762 0
M  V30 1278 H 123.583 -0.541325 0.506012 0
M  V30 1279 H 126.23 -0.824502 1.72842 0
M  V30 1280 H 124.535 -3.42572 1.90137 0
M  V30 1281 H 126.232 -3.30348 2.27313 0
M  V30 1282 H 122.822 -2.51503 3.47051 0
M  V30 1283 H 127.006 -2.26139 4.41786 0
M  V30 1284 H 122.262 -1.94705 5.79569 0
M  V30 1285 H 126.436 -1.70336 6.75247 0
M  V30 1286 H 124.063 -1.54083 7.44421 0
M  V30 1287 N 125.638 -1.25649 -0.95132 0
M  V30 1288 C 126.57 -1.02112 -2.05197 0
M  V30 1289 C 127.583 0.0150571 -1.62793 0
M  V30 1290 O 128.772 -0.223874 -1.77091 0
M  V30 1291 C 125.872 -0.522361 -3.3485 0
M  V30 1292 C 125.045 -1.62546 -4.06076 0
M  V30 1293 C 124.104 -1.12649 -5.14001 0
M  V30 1294 O 123.13 -1.82156 -5.39266 0
M  V30 1295 N 124.332 0.03047 -5.80492 0
M  V30 1296 H 127.097 -1.96885 -2.25957 0
M  V30 1297 H 124.658 -1.16899 -1.1201 0
M  V30 1298 H 126.65 -0.172961 -4.0433 0
M  V30 1299 H 125.22 0.33151 -3.10837 0
M  V30 1300 H 124.44 -2.14628 -3.30649 0
M  V30 1301 H 125.728 -2.36644 -4.50419 0
M  V30 1302 H 125.126 0.611169 -5.62389 0
M  V30 1303 H 123.683 0.320875 -6.5101 0
M  V30 1304 N 127.117 1.15442 -1.07289 0
M  V30 1305 C 128.047 2.22312 -0.714107 0
M  V30 1306 C 129.028 1.67467 0.298155 0
M  V30 1307 O 130.213 1.93445 0.171048 0
M  V30 1308 C 127.343 3.47124 -0.110448 0
M  V30 1309 C 126.297 4.14926 -1.04979 0
M  V30 1310 C 125.623 5.33807 -0.308924 0
M  V30 1311 C 126.923 4.64762 -2.38314 0
M  V30 1312 H 128.617 2.5258 -1.6076 0
M  V30 1313 H 126.163 1.21404 -0.77441 0
M  V30 1314 H 128.116 4.21124 0.152482 0
M  V30 1315 H 126.84 3.16187 0.81812 0
M  V30 1316 H 125.499 3.42866 -1.29764 0
M  V30 1317 H 125.147 4.99126 0.623084 0
M  V30 1318 H 124.847 5.80113 -0.935036 0
M  V30 1319 H 126.371 6.10576 -0.0537771 0
M  V30 1320 H 127.785 5.30292 -2.1786 0
M  V30 1321 H 126.182 5.21728 -2.96514 0
M  V30 1322 H 127.252 3.80434 -3.00663 0
M  V30 1323 N 128.595 0.856903 1.32268 0
M  V30 1324 C 129.841 0.462069 1.97466 0
M  V30 1325 C 130.174 -0.980298 1.67642 0
M  V30 1326 O 129.449 -1.68824 0.965858 0
M  V30 1327 C 129.732 0.704336 3.53145 0
M  V30 1328 C 129.585 2.19529 3.9259 0
M  V30 1329 C 130.904 0.1622 4.39801 0
M  V30 1330 H 128.023 0.169357 0.717278 0
M  V30 1331 H 130.665 1.07574 1.56614 0
M  V30 1332 H 128.815 0.181999 3.88073 0
M  V30 1333 H 130.487 2.78387 3.67829 0
M  V30 1334 H 128.73 2.67292 3.41668 0
M  V30 1335 H 129.401 2.31549 5.01088 0
M  V30 1336 H 131.877 0.608905 4.11621 0
M  V30 1337 H 130.753 0.361265 5.4771 0
M  V30 1338 H 131.014 -0.935158 4.32096 0
M  V30 1339 N 130.073 -1.45103 0.615059 0
M  V30 1340 C 131.484 -1.85654 0.197383 0
M  V30 1341 C 131.835 -1.51433 -1.24749 0
M  V30 1342 O 130.96 -0.944608 -1.94695 0
M  V30 1343 C 131.555 -3.36972 0.351448 0
M  V30 1344 C 130.114 -3.76398 -0.011593 0
M  V30 1345 C 129.261 -2.69024 0.672394 0
M  V30 1346 H 132.212 -1.35797 0.821263 0
M  V30 1347 H 132.233 -3.78239 -0.414227 0
M  V30 1348 H 131.745 -3.61847 1.40314 0
M  V30 1349 H 129.846 -3.5714 -1.06217 0
M  V30 1350 H 129.959 -4.77532 0.387265 0
M  V30 1351 H 128.323 -2.54465 0.109284 0
M  V30 1352 H 129.106 -2.96735 1.72636 0
M  V30 1353 N 131.551 -0.354651 -1.53558 0
M  V30 1354 C 132.967 -0.00315426 -1.596 0
M  V30 1355 C 133.167 1.47741 -1.37021 0
M  V30 1356 O 132.223 2.23759 -1.16996 0
M  V30 1357 C 133.536 -0.44929 -2.97325 0
M  V30 1358 C 135.084 -0.402578 -3.104 0
M  V30 1359 C 135.559 -0.824355 -4.5052 0
M  V30 1360 N 137.05 -0.778979 -4.56603 0
M  V30 1361 C 137.785 -1.07715 -5.63192 0
M  V30 1362 N 137.281 -1.44405 -6.77583 0
M  V30 1363 N 139.074 -1.00066 -5.53121 0
M  V30 1364 H 131.225 -1.31893 -1.66487 0
M  V30 1365 H 133.488 -0.538388 -0.780284 0
M  V30 1366 H 133.194 -1.48202 -3.1895 0
M  V30 1367 H 133.068 0.169772 -3.76818 0
M  V30 1368 H 135.455 0.621004 -2.88492 0
M  V30 1369 H 135.536 -1.05699 -2.32941 0
M  V30 1370 H 135.18 -1.846 -4.73165 0
M  V30 1371 H 135.11 -0.147304 -5.26394 0
M  V30 1372 H 137.601 -0.508528 -3.74463 0
M  V30 1373 H 137.914 -1.65612 -7.54846 0
M  V30 1374 H 136.259 -1.4826 -6.79002 0
M  V30 1375 H 139.45 -0.713293 -4.62633 0
M  V30 1376 H 139.623 -1.23638 -6.36096 0
M  V30 1377 N 133.029 1.57378 -0.0835403 0
M  V30 1378 C 133.939 2.16897 0.894021 0
M  V30 1379 C 134.955 1.13528 1.31861 0
M  V30 1380 O 136.131 1.45848 1.3889 0
M  V30 1381 C 133.196 2.72831 2.13925 0
M  V30 1382 C 132.257 3.91115 1.76997 0
M  V30 1383 C 131.49 4.44371 2.95584 0
M  V30 1384 O 131.713 3.96596 4.09961 0
M  V30 1385 O 130.647 5.35549 2.74719 0
M  V30 1386 H 134.473 3.00814 0.417679 0
M  V30 1387 H 132.058 1.48741 0.140181 0
M  V30 1388 H 133.94 3.0863 2.86924 0
M  V30 1389 H 132.615 1.91967 2.60635 0
M  V30 1390 H 131.522 3.60148 1.01214 0
M  V30 1391 H 132.855 4.73307 1.3506 0
M  V30 1392 N 134.507 -0.190092 1.56449 0
M  V30 1393 C 135.417 -1.25591 1.98152 0
M  V30 1394 C 136.433 -1.49519 0.889944 0
M  V30 1395 O 137.609 -1.62036 1.19609 0
M  V30 1396 C 134.674 -2.57916 2.3169 0
M  V30 1397 C 133.735 -2.42015 3.5458 0
M  V30 1398 C 132.968 -3.6803 3.8651 0
M  V30 1399 O 133.191 -4.72413 3.1966 0
M  V30 1400 O 132.125 -3.6326 4.79923 0
M  V30 1401 H 135.951 -0.931988 2.89046 0
M  V30 1402 H 133.536 -0.395488 1.4407 0
M  V30 1403 H 135.418 -3.36008 2.54316 0
M  V30 1404 H 134.093 -2.89925 1.43963 0
M  V30 1405 H 133 -1.62017 3.37196 0
M  V30 1406 H 134.333 -2.14937 4.4279 0
M  V30 1407 N 135.985 -1.50799 -0.457987 0
M  V30 1408 C 136.915 -1.73553 -1.5621 0
M  V30 1409 C 137.896 -0.584774 -1.59732 0
M  V30 1410 O 139.081 -0.825314 -1.7579 0
M  V30 1411 C 136.211 -1.84169 -2.94447 0
M  V30 1412 C 135.165 -2.99461 -3.0579 0
M  V30 1413 C 134.491 -2.95235 -4.45803 0
M  V30 1414 C 135.791 -4.39766 -2.81786 0
M  V30 1415 H 137.485 -2.66 -1.37421 0
M  V30 1416 H 135.031 -1.28002 -0.659662 0
M  V30 1417 H 136.984 -1.98672 -3.71628 0
M  V30 1418 H 135.708 -0.883545 -3.14422 0
M  V30 1419 H 134.367 -2.8463 -2.31044 0
M  V30 1420 H 134.015 -1.97239 -4.62715 0
M  V30 1421 H 133.715 -3.72642 -4.54326 0
M  V30 1422 H 135.239 -3.11803 -5.24987 0
M  V30 1423 H 136.653 -4.55054 -3.4871 0
M  V30 1424 H 135.05 -5.18722 -3.0174 0
M  V30 1425 H 136.12 -4.51229 -1.7754 0
M  V30 1426 N 137.463 0.71206 -1.40597 0
M  V30 1427 C 138.874 1.29135 -1.34837 0
M  V30 1428 C 139.225 1.96186 -0.0235395 0
M  V30 1429 O 138.35 1.97768 0.878444 0
M  V30 1430 C 138.945 2.34827 -2.44217 0
M  V30 1431 C 137.504 2.88371 -2.41907 0
M  V30 1432 C 136.651 1.62202 -2.24913 0
M  V30 1433 H 139.602 0.507944 -1.50352 0
M  V30 1434 H 139.623 3.15749 -2.12327 0
M  V30 1435 H 139.135 1.85996 -3.40627 0
M  V30 1436 H 137.236 3.41422 -1.49204 0
M  V30 1437 H 137.349 3.39925 -3.37621 0
M  V30 1438 H 135.713 1.874 -1.72492 0
M  V30 1439 H 136.496 1.15391 -3.23326 0
M  V30 1440 N 138.941 1.26152 0.944643 0
M  V30 1441 C 140.357 1.03189 1.21754 0
M  V30 1442 C 140.557 -0.245112 2.00004 0
M  V30 1443 O 139.613 -0.955176 2.33736 0
M  V30 1444 C 140.926 2.26119 1.98219 0
M  V30 1445 C 142.474 2.30984 2.11224 0
M  V30 1446 C 142.949 3.53597 2.91089 0
M  V30 1447 N 144.44 3.54053 2.98664 0
M  V30 1448 C 145.175 4.45593 3.60881 0
M  V30 1449 N 144.671 5.47416 4.24626 0
M  V30 1450 N 146.464 4.33252 3.58119 0
M  V30 1451 H 138.615 2.08177 0.421437 0
M  V30 1452 H 140.878 0.914723 0.248969 0
M  V30 1453 H 140.584 3.18984 1.48128 0
M  V30 1454 H 140.458 2.3009 2.98895 0
M  V30 1455 H 142.845 1.38635 2.60508 0
M  V30 1456 H 142.926 2.31026 1.09821 0
M  V30 1457 H 142.57 4.46273 2.42493 0
M  V30 1458 H 142.5 3.50802 3.92741 0
M  V30 1459 H 144.991 2.80403 2.53343 0
M  V30 1460 H 145.304 6.13459 4.69987 0
M  V30 1461 H 143.649 5.51278 4.23223 0
M  V30 1462 H 146.84 3.52924 3.0751 0
M  V30 1463 H 147.013 5.04786 4.06319 0
M  V30 1464 N 140.419 -1.14872 1.07899 0
M  V30 1465 C 141.369 -2.17809 0.674027 0
M  V30 1466 C 142.353 -1.58008 -0.303699 0
M  V30 1467 O 143.545 -1.76616 -0.11654 0
M  V30 1468 C 140.674 -3.43208 0.0793318 0
M  V30 1469 C 139.76 -4.10051 1.08253 0
M  V30 1470 N 140.151 -4.52296 2.2641 0
M  V30 1471 C 138.449 -4.36469 0.917124 0
M  V30 1472 C 139.15 -5.04199 2.901 0
M  V30 1473 N 138.126 -4.98088 2.17736 0
M  V30 1474 H 141.928 -2.48207 1.57386 0
M  V30 1475 H 139.442 -1.315 0.952976 0
M  V30 1476 H 141.439 -4.16272 -0.228719 0
M  V30 1477 H 140.099 -3.14291 -0.815551 0
M  V30 1478 H 141.11 -4.45504 2.64096 0
M  V30 1479 H 137.787 -4.17432 0.0756078 0
M  V30 1480 H 139.177 -5.46802 3.90458 0
M  V30 1481 N 141.898 -0.863906 -1.31812 0
M  V30 1482 C 142.861 -0.320212 -2.26952 0
M  V30 1483 C 143.861 0.525369 -1.51975 0
M  V30 1484 O 145.051 0.335547 -1.70938 0
M  V30 1485 C 142.183 0.545919 -3.365 0
M  V30 1486 H 143.376 -1.16004 -2.76556 0
M  V30 1487 H 140.929 -0.638995 -1.42641 0
M  V30 1488 H 141.664 1.40718 -2.92179 0
M  V30 1489 H 141.449 -0.0594674 -3.92055 0
M  V30 1490 H 142.939 0.918796 -4.07367 0
M  V30 1491 N 143.376 1.44774 -0.622745 0
M  V30 1492 C 144.326 2.2774 0.108889 0
M  V30 1493 C 145.31 1.38189 0.824175 0
M  V30 1494 O 146.502 1.62063 0.711664 0
M  V30 1495 C 143.631 3.25353 1.09546 0
M  V30 1496 C 142.717 4.22392 0.380232 0
M  V30 1497 N 143.108 5.02388 -0.586535 0
M  V30 1498 C 141.406 4.41588 0.625792 0
M  V30 1499 C 142.107 5.72894 -1.00834 0
M  V30 1500 N 141.083 5.42479 -0.348878 0
M  V30 1501 H 144.885 2.86993 -0.63341 0
M  V30 1502 H 142.399 1.5611 -0.447589 0
M  V30 1503 H 144.396 3.83538 1.63414 0
M  V30 1504 H 143.056 2.6766 1.83815 0
M  V30 1505 H 144.067 5.0885 -0.963975 0
M  V30 1506 H 140.744 3.95003 1.352 0
M  V30 1507 H 142.134 6.47158 -1.80656 0
M  V30 1508 N 144.854 0.36279 1.53368 0
M  V30 1509 C 145.784 -0.476976 2.28576 0
M  V30 1510 C 146.765 -1.08631 1.30894 0
M  V30 1511 O 147.95 -1.10409 1.59761 0
M  V30 1512 C 145.08 -1.61828 3.07293 0
M  V30 1513 C 144.034 -1.13633 4.1264 0
M  V30 1514 C 143.36 -2.36766 4.79423 0
M  V30 1515 C 144.66 -0.223061 5.21823 0
M  V30 1516 H 146.354 0.150474 2.99022 0
M  V30 1517 H 143.9 0.0738103 1.43811 0
M  V30 1518 H 145.853 -2.21237 3.58653 0
M  V30 1519 H 144.577 -2.27292 2.34533 0
M  V30 1520 H 143.236 -0.564945 3.62221 0
M  V30 1521 H 142.884 -3.0068 4.03238 0
M  V30 1522 H 142.584 -2.05192 5.50609 0
M  V30 1523 H 144.108 -2.96865 5.33576 0
M  V30 1524 H 145.522 -0.724545 5.68703 0
M  V30 1525 H 143.919 0.001678 6.001 0
M  V30 1526 H 144.989 0.735553 4.79289 0
M  V30 1527 N 146.332 -1.57332 0.0918853 0
M  V30 1528 C 147.748 -1.57389 -0.264766 0
M  V30 1529 C 147.948 -1.10281 -1.68643 0
M  V30 1530 O 147.004 -0.777801 -2.40222 0
M  V30 1531 C 148.317 -3.00648 -0.0561195 0
M  V30 1532 C 149.865 -3.12754 -0.124116 0
M  V30 1533 C 150.34 -4.57965 0.0564972 0
M  V30 1534 N 151.831 -4.632 0.00155611 0
M  V30 1535 C 152.566 -5.73281 0.116598 0
M  V30 1536 N 152.062 -6.92208 0.286294 0
M  V30 1537 N 153.855 -5.6207 0.0580973 0
M  V30 1538 H 146.006 -1.86262 1.02079 0
M  V30 1539 H 148.269 -0.859579 0.399786 0
M  V30 1540 H 147.975 -3.393 0.925669 0
M  V30 1541 H 147.849 -3.68623 -0.799823 0
M  V30 1542 H 150.236 -2.73976 -1.09641 0
M  V30 1543 H 150.317 -2.47377 0.651024 0
M  V30 1544 H 149.961 -4.97436 1.02564 0
M  V30 1545 H 149.891 -5.21399 -0.738297 0
M  V30 1546 H 152.382 -3.77686 -0.127192 0
M  V30 1547 H 152.695 -7.71934 0.365676 0
M  V30 1548 H 151.04 -6.94254 0.32192 0
M  V30 1549 H 154.231 -4.68043 -0.0733204 0
M  V30 1550 H 154.404 -6.47824 0.151203 0
M  V30 1551 N 147.81 0.181792 -1.56548 0
M  V30 1552 C 149.057 0.900097 -1.81396 0
M  V30 1553 C 149.385 1.82695 -0.667281 0
M  V30 1554 O 148.64 1.92614 0.346146 0
M  V30 1555 C 148.939 1.73728 -3.12335 0
M  V30 1556 C 148.605 0.960255 -4.40556 0
M  V30 1557 C 147.267 0.745766 -4.75386 0
M  V30 1558 C 149.619 0.414477 -5.19549 0
M  V30 1559 C 146.947 -0.0257694 -5.86694 0
M  V30 1560 C 149.299 -0.343916 -6.31664 0
M  V30 1561 C 147.963 -0.569301 -6.65068 0
M  V30 1562 H 147.233 0.329369 -0.663775 0
M  V30 1563 H 149.88 0.165647 -1.90782 0
M  V30 1564 H 148.185 2.54081 -2.98245 0
M  V30 1565 H 149.882 2.29591 -3.28769 0
M  V30 1566 H 146.472 1.13746 -4.13231 0
M  V30 1567 H 150.656 0.567554 -4.93044 0
M  V30 1568 H 145.912 -0.210233 -6.11038 0
M  V30 1569 H 150.086 -0.774133 -6.92084 0
M  V30 1570 H 147.713 -1.16903 -7.51158 0
M  V30 1571 N 149.288 1.51039 0.449983 0
M  V30 1572 C 150.518 1.66627 1.22143 0
M  V30 1573 C 150.926 0.357776 1.85786 0
M  V30 1574 O 150.269 -0.672424 1.70951 0
M  V30 1575 C 150.331 2.71562 2.35573 0
M  V30 1576 C 149.995 4.14526 1.92399 0
M  V30 1577 C 150.992 4.99717 1.43453 0
M  V30 1578 C 148.677 4.60559 2.00475 0
M  V30 1579 C 150.671 6.28998 1.03155 0
M  V30 1580 C 148.358 5.8984 1.59788 0
M  V30 1581 C 149.356 6.73886 1.11208 0
M  V30 1582 O 149.044 8.0075 0.710935 0
M  V30 1583 H 148.776 0.562635 0.374724 0
M  V30 1584 H 151.33 1.98146 0.541036 0
M  V30 1585 H 149.56 2.3533 3.06849 0
M  V30 1586 H 151.249 2.76156 2.97478 0
M  V30 1587 H 152.015 4.65361 1.36618 0
M  V30 1588 H 147.894 3.95273 2.37235 0
M  V30 1589 H 151.438 6.9455 0.651663 0
M  V30 1590 H 147.335 6.23713 1.66289 0
M  V30 1591 H 148.103 8.142 0.837913 0
M  V30 1592 N 150.766 -0.704594 1.40972 0
M  V30 1593 C 151.994 -1.49354 1.43182 0
M  V30 1594 C 152.409 -1.88768 0.0345508 0
M  V30 1595 O 151.766 -1.56184 -0.944081 0
M  V30 1596 C 151.817 -2.76187 2.33244 0
M  V30 1597 O 151.538 -2.38436 3.67532 0
M  V30 1598 C 153.039 -3.7 2.44162 0
M  V30 1599 H 150.259 -0.460559 0.487982 0
M  V30 1600 H 152.803 -0.868261 1.85153 0
M  V30 1601 H 150.958 -3.34974 1.94606 0
M  V30 1602 H 151.372 -3.20126 4.15475 0
M  V30 1603 H 152.846 -4.55803 3.11364 0
M  V30 1604 H 153.323 -4.13867 1.47006 0
M  V30 1605 H 153.929 -3.17121 2.83398 0
M  V30 1606 N 152.244 -1.26651 -0.937939 0
M  V30 1607 C 153.207 -1.08546 -2.01867 0
M  V30 1608 C 154.207 -0.0327327 -1.60767 0
M  V30 1609 O 155.397 -0.276427 -1.71993 0
M  V30 1610 C 152.529 -0.651711 -3.34613 0
M  V30 1611 H 153.722 -2.04502 -2.1936 0
M  V30 1612 H 151.275 -1.09294 -1.11734 0
M  V30 1613 H 152.01 0.309696 -3.22818 0
M  V30 1614 H 151.795 -1.41189 -3.65798 0
M  V30 1615 H 153.285 -0.546973 -4.14002 0
M  V30 1616 N 153.722 1.14298 -1.08507 0
M  V30 1617 C 155.133 1.66926 -0.836227 0
M  V30 1618 C 155.484 1.85576 0.63686 0
M  V30 1619 O 154.609 1.56767 1.49175 0
M  V30 1620 C 155.204 3.03219 -1.51142 0
M  V30 1621 C 153.763 3.52876 -1.30979 0
M  V30 1622 C 152.91 2.2833 -1.57356 0
M  V30 1623 H 155.861 0.983491 -1.24552 0
M  V30 1624 H 155.882 3.68726 -0.939211 0
M  V30 1625 H 155.394 2.89612 -2.58353 0
M  V30 1626 H 153.495 3.71703 -0.258429 0
M  V30 1627 H 153.608 4.33586 -2.03814 0
M  V30 1628 H 151.972 2.34454 -0.995164 0
M  V30 1629 H 152.755 2.17298 -2.65775 0
M  V30 1630 N 155.201 0.870884 1.31352 0
M  V30 1631 C 156.612 0.534714 1.78879 0
M  V30 1632 C 156.963 -0.948423 1.71754 0
M  V30 1633 O 156.088 -1.74055 1.28584 0
M  V30 1634 C 156.683 0.963839 3.24801 0
M  V30 1635 C 155.242 0.679311 3.70219 0
M  V30 1636 C 154.389 1.15465 2.52117 0
M  V30 1637 H 157.34 1.05651 1.18421 0
M  V30 1638 H 157.361 0.286892 3.79417 0
M  V30 1639 H 156.873 2.04332 3.29955 0
M  V30 1640 H 154.974 -0.388769 3.70566 0
M  V30 1641 H 155.087 1.25698 4.62317 0
M  V30 1642 H 153.451 0.574383 2.48139 0
M  V30 1643 H 154.234 2.24157 2.60016 0
M  V30 1644 N 156.679 -1.44442 0.630414 0
M  V30 1645 C 157.927 -2.01653 0.134351 0
M  V30 1646 C 158.248 -1.49836 -1.24796 0
M  V30 1647 O 157.518 -0.701684 -1.82902 0
M  V30 1648 H 156.098 -0.74554 0.0466769 0
M  V30 1649 H 158.76 -1.76952 0.816955 0
M  V30 1650 H 157.856 -3.11935 0.101498 0
M  V30 1651 N 158.157 -0.370918 -1.53173 0
M  V30 1652 C 159.568 0.107139 -1.86392 0
M  V30 1653 C 159.919 1.47714 -1.29132 0
M  V30 1654 O 159.044 2.07464 -0.615439 0
M  V30 1655 C 159.639 0.201187 -3.38202 0
M  V30 1656 C 158.198 0.623507 -3.712 0
M  V30 1657 C 157.345 -0.225978 -2.76378 0
M  V30 1658 H 160.296 -0.58951 -1.47345 0
M  V30 1659 H 160.317 1.02377 -3.66468 0
M  V30 1660 H 159.829 -0.796058 -3.79848 0
M  V30 1661 H 157.93 1.62879 -3.35114 0
M  V30 1662 H 158.043 0.394414 -4.77474 0
M  V30 1663 H 156.407 0.305962 -2.52856 0
M  V30 1664 H 157.19 -1.22086 -3.20858 0
M  V30 1665 N 159.635 1.57281 -0.100228 0
M  V30 1666 C 161.051 1.57527 0.256416 0
M  V30 1667 C 161.251 1.11173 1.68056 0
M  V30 1668 O 160.307 0.79053 2.39806 0
M  V30 1669 C 161.62 3.00673 0.0401747 0
M  V30 1670 C 163.168 3.12815 0.107528 0
M  V30 1671 C 163.643 4.57929 -0.0807834 0
M  V30 1672 N 165.134 4.63193 -0.0261207 0
M  V30 1673 C 165.869 5.73212 -0.146999 0
M  V30 1674 N 165.365 6.92047 -0.322999 0
M  V30 1675 N 167.158 5.62031 -0.0879044 0
M  V30 1676 H 159.309 1.85718 -1.03065 0
M  V30 1677 H 161.572 0.857446 -0.404339 0
M  V30 1678 H 161.278 3.38804 -0.943649 0
M  V30 1679 H 161.152 3.69042 0.780262 0
M  V30 1680 H 163.539 2.74554 1.08186 0
M  V30 1681 H 163.62 2.47028 -0.664134 0
M  V30 1682 H 163.264 4.96886 -1.05201 0
M  V30 1683 H 163.194 5.21783 0.710635 0
M  V30 1684 H 165.685 3.77748 0.107161 0
M  V30 1685 H 165.998 7.7173 -0.406608 0
M  V30 1686 H 164.343 6.94074 -0.358733 0
M  V30 1687 H 167.534 4.68075 0.048498 0
M  V30 1688 H 167.707 6.47734 -0.185557 0
M  V30 1689 N 161.113 -0.173488 1.56642 0
M  V30 1690 C 162.043 -1.2171 1.99271 0
M  V30 1691 C 163.024 -1.46289 0.867959 0
M  V30 1692 O 164.209 -1.5766 1.13388 0
M  V30 1693 C 161.339 -2.55651 2.35074 0
M  V30 1694 C 160.293 -2.45645 3.50489 0
M  V30 1695 C 159.619 -3.84056 3.72028 0
M  V30 1696 C 160.919 -1.96302 4.84007 0
M  V30 1697 H 162.613 -0.86275 2.867 0
M  V30 1698 H 160.159 -0.413571 1.37933 0
M  V30 1699 H 162.112 -3.2886 2.63494 0
M  V30 1700 H 160.836 -2.92869 1.44552 0
M  V30 1701 H 159.495 -1.7489 3.22194 0
M  V30 1702 H 159.143 -4.18664 2.788 0
M  V30 1703 H 158.843 -3.7823 4.49684 0
M  V30 1704 H 160.367 -4.58854 4.02846 0
M  V30 1705 H 161.781 -2.59284 5.11317 0
M  V30 1706 H 160.178 -2.01429 5.65284 0
M  V30 1707 H 161.248 -0.917226 4.76146 0
M  V30 1708 N 162.591 -1.51276 -0.441967 0
M  V30 1709 C 163.554 -1.7167 -1.51862 0
M  V30 1710 C 164.554 -0.586793 -1.49711 0
M  V30 1711 O 165.744 -0.854276 -1.51815 0
M  V30 1712 C 162.876 -1.76889 -2.91416 0
M  V30 1713 H 164.069 -2.67754 -1.35084 0
M  V30 1714 H 161.622 -1.41196 -0.670333 0
M  V30 1715 H 162.357 -0.826026 -3.13604 0
M  V30 1716 H 162.142 -2.59001 -2.94382 0
M  V30 1717 H 163.632 -1.94522 -3.69528 0
M  V30 1718 N 164.069 0.697108 -1.41344 0
M  V30 1719 C 164.999 1.82353 -1.45841 0
M  V30 1720 C 165.98 1.67115 -0.317247 0
M  V30 1721 O 167.165 1.86871 -0.528474 0
M  V30 1722 C 164.295 3.20476 -1.33838 0
M  V30 1723 C 163.249 3.50415 -2.4575 0
M  V30 1724 C 162.575 4.87878 -2.18813 0
M  V30 1725 C 163.875 3.49546 -3.88091 0
M  V30 1726 H 165.569 1.78846 -2.40113 0
M  V30 1727 H 163.115 0.859028 -1.15571 0
M  V30 1728 H 165.068 3.98988 -1.35596 0
M  V30 1729 H 163.792 3.24604 -0.360498 0
M  V30 1730 H 162.451 2.74253 -2.43271 0
M  V30 1731 H 162.099 4.8863 -1.19371 0
M  V30 1732 H 161.799 5.08875 -2.93803 0
M  V30 1733 H 163.323 5.68702 -2.22284 0
M  V30 1734 H 164.737 4.18066 -3.92293 0
M  V30 1735 H 163.134 3.82075 -4.62751 0
M  V30 1736 H 164.204 2.48552 -4.16353 0
M  V30 1737 N 165.547 1.27147 0.931209 0
M  V30 1738 C 166.787 1.14511 1.69312 0
M  V30 1739 C 167.151 -0.304638 1.89568 0
M  V30 1740 O 168.352 -0.553343 2.63043 0
M  V30 1741 C 166.623 1.90349 3.02493 0
M  V30 1742 S 168.182 1.93884 3.93642 0
M  V30 1743 H 165 0.408858 0.581684 0
M  V30 1744 H 167.602 1.61006 1.10893 0
M  V30 1745 H 166.306 2.94877 2.85439 0
M  V30 1746 H 165.837 1.44333 3.65966 0
M  V30 1747 H 167.852 1.03273 4.85334 0
M  V30 1748 N 167.025 -1.13721 1.09112 0
M  V30 1749 C 168.272 -1.84924 0.825192 0
M  V30 1750 C 168.6 -1.83347 -0.649151 0
M  V30 1751 O 167.855 -1.26449 -1.49362 0
M  V30 1752 C 168.154 -3.32861 1.30146 0
M  V30 1753 C 167.82 -3.54621 2.78486 0
M  V30 1754 C 166.482 -3.60268 3.18999 0
M  V30 1755 C 168.834 -3.62855 3.74146 0
M  V30 1756 C 166.162 -3.71679 4.53951 0
M  V30 1757 C 168.514 -3.75793 5.08883 0
M  V30 1758 C 167.178 -3.79692 5.4899 0
M  V30 1759 H 166.448 -0.676684 0.301959 0
M  V30 1760 H 169.095 -1.3428 1.36533 0
M  V30 1761 H 167.4 -3.85835 0.681064 0
M  V30 1762 H 169.097 -3.86395 1.07236 0
M  V30 1763 H 165.687 -3.50879 2.46134 0
M  V30 1764 H 169.871 -3.57775 3.43963 0
M  V30 1765 H 165.127 -3.72963 4.84467 0
M  V30 1766 H 169.301 -3.81107 5.82864 0
M  V30 1767 H 166.928 -3.88287 6.53558 0
M  V30 1768 N 168.503 -0.877838 -1.30888 0
M  V30 1769 C 169.749 -0.493426 -1.96706 0
M  V30 1770 C 170.082 0.953504 -1.6918 0
M  V30 1771 O 169.357 1.67266 -0.992594 0
M  V30 1772 C 169.64 -0.760429 -3.51979 0
M  V30 1773 C 169.493 -2.25747 -3.89048 0
M  V30 1774 C 170.812 -0.232148 -4.39487 0
M  V30 1775 H 167.931 -0.180746 -0.714493 0
M  V30 1776 H 170.573 -1.10052 -1.54882 0
M  V30 1777 H 168.723 -0.243715 -3.87735 0
M  V30 1778 H 170.395 -2.84204 -3.63354 0
M  V30 1779 H 168.638 -2.72694 -3.37373 0
M  V30 1780 H 169.309 -2.39491 -4.97341 0
M  V30 1781 H 171.785 -0.674314 -4.106 0
M  V30 1782 H 170.661 -0.448355 -5.47066 0
M  V30 1783 H 170.922 0.866297 -4.33529 0
M  V30 1784 N 169.982 1.44106 -0.638065 0
M  V30 1785 C 171.259 1.95453 -0.0759321 0
M  V30 1786 C 171.639 1.57984 1.40015 0
M  V30 1787 O 170.987 0.857361 2.11806 0
M  V30 1788 C 171.197 3.47655 -0.306132 0
M  V30 1789 C 172.545 4.24114 -0.203008 0
M  V30 1790 O 173.569 3.55405 -0.237871 0
M  V30 1791 O 172.428 5.46381 -0.113827 0
M  V30 1792 H 169.522 0.826797 0.0183332 0
M  V30 1793 H 172.068 1.54122 -0.710251 0
M  V30 1794 H 170.84 3.68 -1.3301 0
M  V30 1795 H 170.463 3.95949 0.361991 0
M  V30 1796 N 171.46 0.379036 1.52974 0
M  V30 1797 C 172.709 -0.207612 2.00629 0
M  V30 1798 C 173.022 -1.48758 1.27006 0
M  V30 1799 O 174.228 -2.15365 1.65318 0
M  V30 1800 C 172.684 -0.42053 3.57435 0
M  V30 1801 C 172.292 0.845587 4.39948 0
M  V30 1802 C 174.036 -0.964102 4.13407 0
M  V30 1803 C 171.943 0.601513 5.88333 0
M  V30 1804 H 170.873 -0.0813591 0.749598 0
M  V30 1805 H 173.524 0.499853 1.76561 0
M  V30 1806 H 171.906 -1.18959 3.7771 0
M  V30 1807 H 173.08 1.61848 4.31442 0
M  V30 1808 H 171.395 1.31336 3.95145 0
M  V30 1809 H 173.992 -1.16225 5.21916 0
M  V30 1810 H 174.335 -1.93019 3.68849 0
M  V30 1811 H 174.868 -0.25487 3.96983 0
M  V30 1812 H 171.607 1.53831 6.37194 0
M  V30 1813 H 171.127 -0.132628 5.99653 0
M  V30 1814 H 172.806 0.232134 6.46583 0
M  V30 1815 N 172.938 -1.57226 0.108567 0
M  V30 1816 C 174.354 -1.5766 -0.248058 0
M  V30 1817 C 174.554 -1.12063 -1.67464 0
M  V30 1818 O 173.61 -0.803236 -2.39383 0
M  V30 1819 C 174.923 -3.0069 -0.0242287 0
M  V30 1820 C 176.471 -3.12868 -0.0909372 0
M  V30 1821 C 176.946 -4.57879 0.105067 0
M  V30 1822 N 178.437 -4.63172 0.0506846 0
M  V30 1823 C 179.172 -5.73126 0.177396 0
M  V30 1824 N 178.668 -6.91866 0.359696 0
M  V30 1825 N 180.461 -5.61977 0.117709 0
M  V30 1826 H 172.612 -1.85169 1.04049 0
M  V30 1827 H 174.875 -0.85529 0.40888 0
M  V30 1828 H 174.581 -3.38299 0.961604 0
M  V30 1829 H 174.455 -3.6945 -0.76068 0
M  V30 1830 H 176.842 -2.75124 -1.06729 0
M  V30 1831 H 176.923 -2.46672 0.677225 0
M  V30 1832 H 176.567 -4.96321 1.07834 0
M  V30 1833 H 176.497 -5.22153 -0.682954 0
M  V30 1834 H 178.988 -3.778 -0.0871266 0
M  V30 1835 H 179.301 -7.71503 0.447529 0
M  V30 1836 H 177.646 -6.93874 0.395536 0
M  V30 1837 H 180.837 -4.68094 -0.0236741 0
M  V30 1838 H 181.01 -6.47627 0.219905 0
M  V30 1839 N 174.416 0.165178 -1.56732 0
M  V30 1840 C 175.832 0.517174 -1.50988 0
M  V30 1841 C 176.032 1.84331 -0.813894 0
M  V30 1842 O 175.088 2.49672 -0.37682 0
M  V30 1843 C 176.401 0.544261 -2.95733 0
M  V30 1844 C 177.949 0.631039 -3.06573 0
M  V30 1845 C 178.424 0.68896 -4.52788 0
M  V30 1846 N 179.915 0.751683 -4.5706 0
M  V30 1847 C 180.65 0.817177 -5.67547 0
M  V30 1848 N 180.146 0.843129 -6.8765 0
M  V30 1849 N 181.939 0.856668 -5.55534 0
M  V30 1850 H 174.09 -0.704318 -2.00382 0
M  V30 1851 H 176.353 -0.254687 -0.913148 0
M  V30 1852 H 176.059 -0.361607 -3.49836 0
M  V30 1853 H 175.933 1.3886 -3.5071 0
M  V30 1854 H 178.32 1.52733 -2.52501 0
M  V30 1855 H 178.401 -0.240095 -2.54671 0
M  V30 1856 H 178.045 -0.2031 -5.07494 0
M  V30 1857 H 177.975 1.57633 -5.02454 0
M  V30 1858 H 180.466 0.739661 -3.70591 0
M  V30 1859 H 180.779 0.894448 -7.67606 0
M  V30 1860 H 179.124 0.811304 -6.90248 0
M  V30 1861 H 182.315 0.833437 -4.60621 0
M  V30 1862 H 182.488 0.904247 -6.4166 0
M  V30 1863 N 175.894 1.51508 0.433938 0
M  V30 1864 C 177.141 1.64345 1.18309 0
M  V30 1865 C 177.469 0.361315 1.91115 0
M  V30 1866 O 176.724 -0.654753 1.84422 0
M  V30 1867 C 177.023 2.79928 2.22205 0
M  V30 1868 C 176.689 4.19078 1.66387 0
M  V30 1869 C 175.351 4.56932 1.50887 0
M  V30 1870 C 177.703 5.05894 1.25381 0
M  V30 1871 C 175.031 5.79305 0.928608 0
M  V30 1872 C 177.383 6.2885 0.687823 0
M  V30 1873 C 176.047 6.65473 0.519755 0
M  V30 1874 H 175.317 0.601381 0.432923 0
M  V30 1875 H 177.964 1.85549 0.473676 0
M  V30 1876 H 176.269 2.52959 2.99197 0
M  V30 1877 H 177.966 2.87059 2.79997 0
M  V30 1878 H 174.556 3.89234 1.79428 0
M  V30 1879 H 178.74 4.77253 1.36175 0
M  V30 1880 H 173.996 6.06324 0.786186 0
M  V30 1881 H 178.17 6.95461 0.361581 0
M  V30 1882 H 175.797 7.6017 0.0679979 0
M  V30 1883 N 177.372 -0.689602 1.41712 0
M  V30 1884 C 178.62 -1.4468 1.4111 0
M  V30 1885 C 178.941 -1.94986 0.0232196 0
M  V30 1886 O 178.211 -1.72097 -0.935913 0
M  V30 1887 H 176.791 -0.536847 0.519427 0
M  V30 1888 H 179.453 -0.815825 1.77004 0
M  V30 1889 H 178.549 -2.30706 2.10193 0
M  V30 1890 N 178.85 -1.27639 -0.924453 0
M  V30 1891 C 180.266 -1.05113 -1.20097 0
M  V30 1892 C 180.466 0.213262 -2.00368 0
M  V30 1893 O 179.522 0.91787 -2.35226 0
M  V30 1894 C 180.835 -2.29244 -1.94596 0
M  V30 1895 C 182.383 -2.34315 -2.07522 0
M  V30 1896 C 182.858 -3.58183 -2.85427 0
M  V30 1897 N 184.349 -3.5876 -2.92994 0
M  V30 1898 C 185.084 -4.51277 -3.53746 0
M  V30 1899 N 184.58 -5.54102 -4.15863 0
M  V30 1900 N 186.373 -4.38894 -3.51181 0
M  V30 1901 H 178.524 -2.08821 -0.388264 0
M  V30 1902 H 180.787 -0.918568 -0.234385 0
M  V30 1903 H 180.493 -3.21301 -1.43034 0
M  V30 1904 H 180.367 -2.34816 -2.95197 0
M  V30 1905 H 182.754 -1.42762 -2.58269 0
M  V30 1906 H 182.835 -2.32744 -1.06131 0
M  V30 1907 H 182.479 -4.50074 -2.35363 0
M  V30 1908 H 182.409 -3.57006 -3.8711 0
M  V30 1909 H 184.9 -2.84398 -2.4885 0
M  V30 1910 H 185.213 -6.20859 -4.60168 0
M  V30 1911 H 183.558 -5.57941 -4.144 0
M  V30 1912 H 186.749 -3.57772 -3.01856 0
M  V30 1913 H 186.922 -5.11186 -3.98237 0
M  V30 1914 N 180.328 1.1314 -1.09713 0
M  V30 1915 C 181.574 1.84967 -0.846104 0
M  V30 1916 C 181.929 1.82082 0.621601 0
M  V30 1917 O 181.222 1.2501 1.452 0
M  V30 1918 C 181.416 3.32167 -1.3191 0
M  V30 1919 C 181.245 3.49386 -2.83125 0
M  V30 1920 C 180.015 3.63456 -3.51038 0
M  V30 1921 C 182.213 3.45179 -3.81256 0
M  V30 1922 N 180.195 3.68966 -4.9065 0
M  V30 1923 C 181.566 3.57094 -5.06837 0
M  V30 1924 C 183.621 3.28598 -3.74069 0
M  V30 1925 C 182.324 3.5414 -6.26081 0
M  V30 1926 C 184.35 3.26953 -4.92804 0
M  V30 1927 C 183.712 3.39422 -6.17229 0
M  V30 1928 H 179.811 0.692899 -0.362512 0
M  V30 1929 H 182.395 1.35506 -1.39808 0
M  V30 1930 H 180.566 3.80186 -0.794535 0
M  V30 1931 H 182.298 3.91815 -1.01308 0
M  V30 1932 H 179.053 3.65256 -3.01471 0
M  V30 1933 H 179.477 3.75404 -5.63383 0
M  V30 1934 H 184.119 3.17858 -2.78794 0
M  V30 1935 H 181.837 3.63653 -7.21653 0
M  V30 1936 H 185.423 3.15316 -4.88945 0
M  V30 1937 H 184.303 3.38114 -7.07565 0
M  V30 1938 N 181.806 0.884767 1.30421 0
M  V30 1939 C 183.083 0.423185 1.90967 0
M  V30 1940 C 183.463 -1.09605 1.80416 0
M  V30 1941 O 182.811 -1.93126 1.22125 0
M  V30 1942 C 183.021 0.921056 3.36627 0
M  V30 1943 C 184.369 0.955903 4.137 0
M  V30 1944 O 185.393 0.867706 3.4547 0
M  V30 1945 O 184.252 1.08614 5.35598 0
M  V30 1946 H 181.346 0.129369 0.816819 0
M  V30 1947 H 183.892 0.973653 1.3899 0
M  V30 1948 H 182.664 1.96489 3.3839 0
M  V30 1949 H 182.287 0.349741 3.96059 0
M  V30 1950 N 183.284 -1.43765 0.645699 0
M  V30 1951 C 184.214 -2.33471 -0.0370477 0
M  V30 1952 C 185.195 -1.49042 -0.819779 0
M  V30 1953 O 186.38 -1.77726 -0.782758 0
M  V30 1954 C 183.51 -3.32311 -1.0093 0
M  V30 1955 C 182.464 -4.2667 -0.337201 0
M  V30 1956 C 181.79 -5.1549 -1.42037 0
M  V30 1957 C 183.09 -5.16657 0.765706 0
M  V30 1958 H 184.784 -2.90809 0.712069 0
M  V30 1959 H 182.33 -1.39834 0.343876 0
M  V30 1960 H 184.283 -3.9396 -1.49578 0
M  V30 1961 H 183.007 -2.73213 -1.78948 0
M  V30 1962 H 181.666 -3.66374 0.128771 0
M  V30 1963 H 181.314 -4.52735 -2.1918 0
M  V30 1964 H 181.014 -5.79438 -0.975966 0
M  V30 1965 H 182.538 -5.80012 -1.90838 0
M  V30 1966 H 183.952 -5.72158 0.361702 0
M  V30 1967 H 182.349 -5.89286 1.13413 0
M  V30 1968 H 183.419 -4.56796 1.62683 0
M  V30 1969 N 184.763 -0.387143 -1.52771 0
M  V30 1970 C 186.011 0.195349 -2.01154 0
M  V30 1971 C 186.332 1.475 -1.27549 0
M  V30 1972 O 185.602 1.91878 -0.394924 0
M  V30 1973 H 184.182 0.075178 -0.743207 0
M  V30 1974 H 186.844 -0.518337 -1.87881 0
M  V30 1975 H 185.94 0.407096 -3.09434 0
M  V30 1976 N 186.241 1.57166 -0.116904 0
M  V30 1977 C 187.489 1.94737 0.540533 0
M  V30 1978 C 187.81 1.00096 1.67349 0
M  V30 1979 O 187.08 0.0568854 1.95817 0
M  V30 1980 H 185.66 0.718981 0.202669 0
M  V30 1981 H 188.322 1.94017 -0.185353 0
M  V30 1982 H 187.418 2.97719 0.936483 0
M  V30 1983 N 187.719 -0.156864 1.56817 0
M  V30 1984 C 188.666 -1.19394 1.97519 0
M  V30 1985 C 189.636 -1.4322 0.841265 0
M  V30 1986 O 190.821 -1.55719 1.10255 0
M  V30 1987 C 187.961 -2.52483 2.35258 0
M  V30 1988 C 187.074 -2.35914 3.61896 0
M  V30 1989 C 186.209 -3.61969 3.88782 0
M  V30 1990 C 185.248 -3.40395 5.08722 0
M  V30 1991 N 184.385 -4.58556 5.31668 0
M  V30 1992 H 189.225 -0.839845 2.85921 0
M  V30 1993 H 186.762 -0.403264 1.41464 0
M  V30 1994 H 188.72 -3.30071 2.55165 0
M  V30 1995 H 187.35 -2.85859 1.49949 0
M  V30 1996 H 186.402 -1.49429 3.49821 0
M  V30 1997 H 187.714 -2.15926 4.49641 0
M  V30 1998 H 186.868 -4.47989 4.09135 0
M  V30 1999 H 185.607 -3.84951 2.9944 0
M  V30 2000 H 184.612 -2.52763 4.88253 0
M  V30 2001 H 185.837 -3.18822 5.99608 0
M  V30 2002 H 183.783 -4.81729 4.45279 0
M  V30 2003 H 183.7 -4.41535 6.13664 0
M  V30 2004 H 184.968 -5.45817 5.5651 0
M  V30 2005 N 189.197 -1.51736 -0.425897 0
M  V30 2006 C 190.443 -1.66174 -1.17294 0
M  V30 2007 C 190.798 -0.37876 -1.88635 0
M  V30 2008 O 190.091 0.626021 -1.81084 0
M  V30 2009 C 190.285 -2.81103 -2.20717 0
M  V30 2010 C 190.114 -4.20453 -1.59529 0
M  V30 2011 C 188.884 -4.86225 -1.37525 0
M  V30 2012 C 191.082 -5.03146 -1.06528 0
M  V30 2013 N 189.064 -6.09657 -0.720537 0
M  V30 2014 C 190.435 -6.17674 -0.536506 0
M  V30 2015 C 192.49 -4.88594 -0.958127 0
M  V30 2016 C 191.193 -7.19245 0.0888917 0
M  V30 2017 C 193.219 -5.90383 -0.346608 0
M  V30 2018 C 192.581 -7.04191 0.171564 0
M  V30 2019 H 188.68 -0.661871 -0.416475 0
M  V30 2020 H 191.264 -1.88997 -0.467801 0
M  V30 2021 H 189.435 -2.59924 -2.88607 0
M  V30 2022 H 191.167 -2.84662 -2.87663 0
M  V30 2023 H 187.922 -4.44293 -1.64015 0
M  V30 2024 H 188.346 -6.75756 -0.410292 0
M  V30 2025 H 192.988 -4.0085 -1.34459 0
M  V30 2026 H 190.706 -8.06628 0.48746 0
M  V30 2027 H 194.292 -5.81194 -0.265451 0
M  V30 2028 H 193.172 -7.81606 0.637309 0
M  V30 2029 N 190.675 0.682077 -1.42076 0
M  V30 2030 C 191.607 1.80755 -1.40926 0
M  V30 2031 C 192.62 1.59833 -0.309398 0
M  V30 2032 O 193.809 1.69087 -0.572014 0
M  V30 2033 C 190.909 3.17744 -1.17865 0
M  V30 2034 C 190.082 3.65578 -2.40149 0
M  V30 2035 C 189.141 4.81277 -2.12742 0
M  V30 2036 O 188.167 4.92197 -2.85887 0
M  V30 2037 N 189.369 5.69474 -1.12602 0
M  V30 2038 H 192.134 1.82229 -2.37935 0
M  V30 2039 H 189.695 0.864903 -1.36861 0
M  V30 2040 H 191.687 3.9279 -0.9746 0
M  V30 2041 H 190.257 3.11214 -0.294068 0
M  V30 2042 H 189.477 2.81291 -2.76169 0
M  V30 2043 H 190.765 3.94278 -3.21593 0
M  V30 2044 H 190.163 5.63297 -0.520899 0
M  V30 2045 H 188.72 6.44363 -0.981842 0
M  V30 2046 N 192.153 1.28127 0.917671 0
M  V30 2047 C 193.564 1.13622 1.48145 0
M  V30 2048 C 193.915 -0.275207 1.9426 0
M  V30 2049 O 193.04 -1.1691 1.82102 0
M  V30 2050 C 193.635 2.05648 2.69248 0
M  V30 2051 C 192.194 1.95219 3.21818 0
M  V30 2052 C 191.341 1.97618 1.94532 0
M  V30 2053 H 194.292 1.40874 0.730772 0
M  V30 2054 H 194.313 1.61818 3.44377 0
M  V30 2055 H 193.825 3.08365 2.35653 0
M  V30 2056 H 191.926 0.955244 3.60147 0
M  V30 2057 H 192.039 2.81976 3.87333 0
M  V30 2058 H 190.403 1.41973 2.11461 0
M  V30 2059 H 191.186 3.02007 1.63238 0
M  V30 2060 N 193.631 -1.12557 1.10312 0
M  V30 2061 C 194.879 -1.83675 0.843091 0
M  V30 2062 C 195.2 -1.84435 -0.633131 0
M  V30 2063 O 194.47 -1.30657 -1.45964 0
M  V30 2064 H 193.05 -0.680138 0.308904 0
M  V30 2065 H 195.712 -1.36301 1.39313 0
M  V30 2066 H 194.808 -2.87908 1.2048 0
M  V30 2067 N 195.109 -0.891671 -1.2995 0
M  V30 2068 C 196.525 -0.58662 -1.48428 0
M  V30 2069 C 196.725 0.873951 -1.81561 0
M  V30 2070 O 195.781 1.65471 -1.90724 0
M  V30 2071 C 197.094 -1.50553 -2.60296 0
M  V30 2072 C 198.642 -1.50988 -2.74175 0
M  V30 2073 C 199.117 -2.41488 -3.89163 0
M  V30 2074 N 200.608 -2.39489 -3.96483 0
M  V30 2075 C 201.343 -3.06223 -4.84784 0
M  V30 2076 N 200.839 -3.82206 -5.77833 0
M  V30 2077 N 202.632 -2.95421 -4.78208 0
M  V30 2078 H 194.783 -1.83644 -1.06718 0
M  V30 2079 H 197.046 -0.786455 -0.529332 0
M  V30 2080 H 196.752 -2.54581 -2.42654 0
M  V30 2081 H 196.626 -1.22008 -3.56923 0
M  V30 2082 H 199.013 -0.47708 -2.91218 0
M  V30 2083 H 199.094 -1.83567 -1.78148 0
M  V30 2084 H 198.738 -3.44857 -3.72876 0
M  V30 2085 H 198.668 -2.06222 -4.84541 0
M  V30 2086 H 201.159 -1.84278 -3.29924 0
M  V30 2087 H 201.472 -4.302 -6.41988 0
M  V30 2088 H 199.817 -3.86313 -5.77743 0
M  V30 2089 H 203.008 -2.35581 -4.04499 0
M  V30 2090 H 203.181 -3.47704 -5.46814 0
M  V30 2091 N 196.587 1.43421 -0.653314 0
M  V30 2092 C 197.835 2.01414 -0.166415 0
M  V30 2093 C 198.156 1.51803 1.22397 0
M  V30 2094 O 197.426 0.730693 1.81763 0
M  V30 2095 H 196.006 0.744703 -0.0585319 0
M  V30 2096 H 198.668 1.75629 -0.845003 0
M  V30 2097 H 197.764 3.11734 -0.151111 0
M  V30 2098 N 198.065 0.39524 1.52563 0
M  V30 2099 C 199.476 -0.0774719 1.86539 0
M  V30 2100 C 199.827 -1.45641 1.31466 0
M  V30 2101 O 198.952 -2.06459 0.648367 0
M  V30 2102 C 199.547 -0.147356 3.38479 0
M  V30 2103 C 198.106 -0.564373 3.72145 0
M  V30 2104 C 197.253 0.269919 2.75983 0
M  V30 2105 H 200.204 0.612876 1.46388 0
M  V30 2106 H 200.225 -0.965343 3.68051 0
M  V30 2107 H 199.737 0.856387 3.78534 0
M  V30 2108 H 197.838 -1.57527 3.37663 0
M  V30 2109 H 197.951 -0.318402 4.78041 0
M  V30 2110 H 196.315 -0.265696 2.5331 0
M  V30 2111 H 197.098 1.27175 3.18875 0
M  V30 2112 N 199.544 -1.57102 0.125237 0
M  V30 2113 C 200.784 -1.97294 -0.534259 0
M  V30 2114 C 201.148 -1.0074 -1.63449 0
M  V30 2115 O 202.349 -1.29893 -2.35332 0
M  V30 2116 C 200.62 -3.41705 -1.04748 0
M  V30 2117 S 202.179 -4.03913 -1.71463 0
M  V30 2118 H 198.997 -0.689517 -0.173458 0
M  V30 2119 H 201.599 -1.94349 0.211797 0
M  V30 2120 H 200.303 -4.09723 -0.235649 0
M  V30 2121 H 199.834 -3.48315 -1.82867 0
M  V30 2122 H 201.849 -3.95182 -3.00077 0
M  V30 2123 N 201.022 0.148545 -1.56898 0
M  V30 2124 C 202.268 0.862694 -1.83536 0
M  V30 2125 C 202.601 1.80889 -0.706604 0
M  V30 2126 O 201.876 1.92328 0.289885 0
M  V30 2127 C 202.159 1.63853 -3.20662 0
M  V30 2128 C 202.012 0.713925 -4.44098 0
M  V30 2129 C 203.331 2.60133 -3.54991 0
M  V30 2130 H 200.45 0.312179 -0.667618 0
M  V30 2131 H 203.092 0.127953 -1.89569 0
M  V30 2132 H 201.242 2.26489 -3.1565 0
M  V30 2133 H 202.914 0.098686 -4.61194 0
M  V30 2134 H 201.157 0.0234019 -4.33794 0
M  V30 2135 H 201.828 1.29278 -5.36648 0
M  V30 2136 H 204.304 2.07616 -3.60603 0
M  V30 2137 H 203.18 3.11468 -4.51972 0
M  V30 2138 H 203.441 3.41417 -2.80868 0
M  V30 2139 N 202.5 1.5196 0.417844 0
M  V30 2140 C 203.43 1.77634 1.51554 0
M  V30 2141 C 204.411 0.626918 1.58126 0
M  V30 2142 O 205.596 0.871632 1.7354 0
M  V30 2143 C 202.726 1.91911 2.8946 0
M  V30 2144 C 201.68 3.07463 2.97743 0
M  V30 2145 C 201.006 3.06951 4.37819 0
M  V30 2146 C 202.306 4.47082 2.70027 0
M  V30 2147 H 204 2.6955 1.3032 0
M  V30 2148 H 201.546 1.29706 0.625492 0
M  V30 2149 H 203.499 2.08455 3.6623 0
M  V30 2150 H 202.223 0.966598 3.11969 0
M  V30 2151 H 200.882 2.90656 2.23416 0
M  V30 2152 H 200.53 2.09438 4.57323 0
M  V30 2153 H 200.23 3.84556 4.44286 0
M  V30 2154 H 201.754 3.25613 5.16535 0
M  V30 2155 H 203.168 4.6414 3.36522 0
M  V30 2156 H 201.565 5.2654 2.87881 0
M  V30 2157 H 202.635 4.55777 1.65514 0
M  V30 2158 N 203.978 -0.674533 1.42435 0
M  V30 2159 C 204.91 -1.80005 1.41883 0
M  V30 2160 C 205.923 -1.59667 0.31787 0
M  V30 2161 O 207.112 -1.68781 0.580973 0
M  V30 2162 C 204.212 -3.17114 1.19549 0
M  V30 2163 C 203.385 -3.64299 2.42084 0
M  V30 2164 C 202.444 -4.80142 2.15291 0
M  V30 2165 O 201.47 -4.90673 2.88493 0
M  V30 2166 N 202.672 -5.68869 1.1562 0
M  V30 2167 H 205.437 -1.80964 2.38898 0
M  V30 2168 H 202.998 -0.857633 1.37318 0
M  V30 2169 H 204.99 -3.92267 0.995417 0
M  V30 2170 H 203.56 -3.11053 0.310569 0
M  V30 2171 H 202.78 -2.79822 2.77657 0
M  V30 2172 H 204.068 -3.92567 3.23679 0
M  V30 2173 H 203.466 -5.63012 0.550765 0
M  V30 2174 H 202.023 -6.43833 1.016 0
M  V30 2175 N 205.456 -1.28612 -0.910864 0
M  V30 2176 C 206.366 -1.14643 -2.0468 0
M  V30 2177 C 207.382 -0.0723121 -1.7385 0
M  V30 2178 O 208.558 -0.282178 -1.99413 0
M  V30 2179 C 205.623 -0.812561 -3.37044 0
M  V30 2180 C 204.684 -1.96935 -3.81465 0
M  V30 2181 C 203.917 -1.65131 -5.07511 0
M  V30 2182 O 204.14 -0.567013 -5.67575 0
M  V30 2183 O 203.074 -2.49585 -5.47714 0
M  V30 2184 H 206.9 -2.1001 -2.19384 0
M  V30 2185 H 204.485 -1.07958 -1.03274 0
M  V30 2186 H 206.367 -0.640441 -4.16505 0
M  V30 2187 H 205.042 0.111426 -3.23508 0
M  V30 2188 H 203.949 -2.19664 -3.02818 0
M  V30 2189 H 205.282 -2.87414 -3.99567 0
M  V30 2190 N 206.934 1.1197 -1.10907 0
M  V30 2191 C 208.164 1.8713 -0.875553 0
M  V30 2192 C 208.572 1.8016 0.577843 0
M  V30 2193 O 207.915 1.17699 1.41042 0
M  V30 2194 C 207.977 3.37005 -1.2517 0
M  V30 2195 C 207.641 3.67748 -2.71313 0
M  V30 2196 C 208.638 3.65698 -3.69542 0
M  V30 2197 C 206.323 3.96928 -3.07821 0
M  V30 2198 C 208.317 3.92395 -5.023 0
M  V30 2199 C 206.004 4.23284 -4.40765 0
M  V30 2200 C 207.002 4.21005 -5.37814 0
M  V30 2201 O 206.69 4.46704 -6.68364 0
M  V30 2202 H 206.422 0.598786 -0.313737 0
M  V30 2203 H 208.976 1.42568 -1.47863 0
M  V30 2204 H 207.206 3.82146 -0.591741 0
M  V30 2205 H 208.895 3.93519 -0.994877 0
M  V30 2206 H 209.661 3.43211 -3.42682 0
M  V30 2207 H 205.54 3.97841 -2.32902 0
M  V30 2208 H 209.084 3.90531 -5.78041 0
M  V30 2209 H 204.981 4.45246 -4.67361 0
M  V30 2210 H 205.749 4.64299 -6.74069 0
M  V30 2211 N 208.412 0.89855 1.29475 0
M  V30 2212 C 209.344 0.332726 2.26772 0
M  V30 2213 C 210.357 -0.520323 1.54261 0
M  V30 2214 O 211.546 -0.337668 1.75277 0
M  V30 2215 C 208.646 -0.544334 3.345 0
M  V30 2216 C 207.819 0.282728 4.36485 0
M  V30 2217 C 206.878 -0.526982 5.23555 0
M  V30 2218 O 205.904 0.0551165 5.69173 0
M  V30 2219 N 207.106 -1.83331 5.5079 0
M  V30 2220 H 209.871 1.16897 2.75962 0
M  V30 2221 H 207.432 0.762919 1.42798 0
M  V30 2222 H 209.424 -1.09239 3.89678 0
M  V30 2223 H 207.994 -1.28127 2.85136 0
M  V30 2224 H 207.214 1.01221 3.80983 0
M  V30 2225 H 208.502 0.84918 5.01664 0
M  V30 2226 H 207.9 -2.32898 5.15534 0
M  V30 2227 H 206.457 -2.32852 6.08788 0
M  V30 2228 N 209.89 -1.43072 0.660911 0
M  V30 2229 C 210.822 -2.29108 -0.0647641 0
M  V30 2230 C 211.835 -1.42928 -0.779448 0
M  V30 2231 O 213.024 -1.66788 -0.635921 0
M  V30 2232 C 210.124 -3.20032 -1.11503 0
M  V30 2233 C 209.297 -4.34792 -0.476955 0
M  V30 2234 C 208.356 -5.06534 -1.42513 0
M  V30 2235 O 207.382 -5.61538 -0.930771 0
M  V30 2236 N 208.584 -5.1075 -2.75889 0
M  V30 2237 H 211.349 -2.92029 0.673731 0
M  V30 2238 H 208.91 -1.53846 0.50427 0
M  V30 2239 H 210.902 -3.64892 -1.75032 0
M  V30 2240 H 209.472 -2.58658 -1.75541 0
M  V30 2241 H 208.692 -3.92752 0.337572 0
M  V30 2242 H 209.98 -5.0879 -0.0318525 0
M  V30 2243 H 209.378 -4.67447 -3.18606 0
M  V30 2244 H 207.935 -5.59302 -3.347 0
M  V30 2245 N 211.368 -0.403325 -1.52352 0
M  V30 2246 C 212.615 0.174347 -2.01748 0
M  V30 2247 C 212.943 1.45636 -1.2892 0
M  V30 2248 O 212.198 1.9193 -0.382258 0
M  V30 2249 C 212.497 0.474665 -3.54234 0
M  V30 2250 C 212.163 -0.717458 -4.45155 0
M  V30 2251 C 210.825 -1.04447 -4.69728 0
M  V30 2252 C 213.177 -1.51432 -4.98716 0
M  V30 2253 C 210.505 -2.16963 -5.45109 0
M  V30 2254 C 212.857 -2.6302 -5.75329 0
M  V30 2255 C 211.521 -2.96213 -5.98175 0
M  V30 2256 H 210.791 0.0637981 -0.738248 0
M  V30 2257 H 213.438 -0.543553 -1.83624 0
M  V30 2258 H 211.743 1.27406 -3.70506 0
M  V30 2259 H 213.44 0.934496 -3.89959 0
M  V30 2260 H 210.03 -0.452596 -4.26204 0
M  V30 2261 H 214.214 -1.27491 -4.79645 0
M  V30 2262 H 209.47 -2.43034 -5.61021 0
M  V30 2263 H 213.644 -3.25158 -6.15829 0
M  V30 2264 H 211.271 -3.83516 -6.56368 0
M  V30 2265 N 212.846 1.57033 -0.133567 0
M  V30 2266 C 214.262 1.58035 0.222944 0
M  V30 2267 C 214.462 1.14713 1.6566 0
M  V30 2268 O 213.518 0.841218 2.38075 0
M  V30 2269 C 214.831 3.00691 -0.0236116 0
M  V30 2270 C 216.379 3.12973 0.0411512 0
M  V30 2271 C 216.854 4.57654 -0.177899 0
M  V30 2272 N 218.345 4.63033 -0.124365 0
M  V30 2273 C 219.08 5.72771 -0.268553 0
M  V30 2274 N 218.576 6.91206 -0.46972 0
M  V30 2275 N 220.369 5.61718 -0.2071 0
M  V30 2276 H 212.52 1.8349 -1.06981 0
M  V30 2277 H 214.783 0.848677 -0.422436 0
M  V30 2278 H 214.489 3.36726 -1.0153 0
M  V30 2279 H 214.363 3.70614 0.701808 0
M  V30 2280 H 216.75 2.76787 1.02338 0
M  V30 2281 H 216.831 2.45564 -0.716383 0
M  V30 2282 H 216.475 4.94542 -1.15717 0
M  V30 2283 H 216.405 5.23173 0.599797 0
M  V30 2284 H 218.896 3.7789 0.027011 0
M  V30 2285 H 219.209 7.70693 -0.570212 0
M  V30 2286 H 217.554 6.93156 -0.505876 0
M  V30 2287 H 220.745 4.68072 -0.0507986 0
M  V30 2288 H 220.918 6.47195 -0.322909 0
M  V30 2289 N 214.325 -0.140222 1.56975 0
M  V30 2290 C 215.235 -1.19223 2.02047 0
M  V30 2291 C 216.251 -1.46612 0.937062 0
M  V30 2292 O 217.427 -1.58148 1.24704 0
M  V30 2293 C 214.492 -2.50414 2.39778 0
M  V30 2294 C 213.553 -2.30612 3.621 0
M  V30 2295 C 212.786 -3.55547 3.98023 0
M  V30 2296 O 213.009 -4.62004 3.34528 0
M  V30 2297 O 211.943 -3.47808 4.91237 0
M  V30 2298 H 215.769 -0.839559 2.91865 0
M  V30 2299 H 213.354 -0.349453 1.45256 0
M  V30 2300 H 215.236 -3.27747 2.64877 0
M  V30 2301 H 213.911 -2.85198 1.53114 0
M  V30 2302 H 212.818 -1.51207 3.4218 0
M  V30 2303 H 214.151 -2.00741 4.49404 0
M  V30 2304 N 215.803 -1.52179 -0.40978 0
M  V30 2305 C 216.751 -1.76086 -1.51975 0
M  V30 2306 C 217.745 -0.627964 -1.57331 0
M  V30 2307 O 218.951 -0.809993 -1.60745 0
M  V30 2308 H 215.326 -0.556829 -0.505416 0
M  V30 2309 H 217.297 -2.69077 -1.28996 0
M  V30 2310 C 216.046 -1.92799 -2.8935 0
M  V30 2311 H 215.369 -2.79392 -2.85972 0
M  V30 2312 H 216.809 -2.13527 -3.66309 0
M  V30 2313 C 215.268 -0.694923 -3.29655 0
M  V30 2314 O 215.798 0.13751 -4.01465 0
M  V30 2315 N 214.004 -0.53101 -2.85707 0
M  V30 2316 H 213.551 -1.20952 -2.27439 0
M  V30 2317 H 213.509 0.292718 -3.13034 0
M  V30 2318 N 217.281 0.66697 -1.42791 0
M  V30 2319 C 218.527 1.4291 -1.43891 0
M  V30 2320 C 218.86 1.94114 -0.0578972 0
M  V30 2321 O 218.135 1.71414 0.91911 0
M  V30 2322 C 218.418 2.62049 -2.46987 0
M  V30 2323 C 218.271 2.16426 -3.94309 0
M  V30 2324 C 219.59 3.64266 -2.46978 0
M  V30 2325 H 216.709 0.518306 -0.523954 0
M  V30 2326 H 219.351 0.757321 -1.74255 0
M  V30 2327 H 217.501 3.19361 -2.21225 0
M  V30 2328 H 219.173 1.64221 -4.31079 0
M  V30 2329 H 217.416 1.47925 -4.078 0
M  V30 2330 H 218.087 3.02038 -4.62036 0
M  V30 2331 H 220.563 3.16686 -2.69906 0
M  V30 2332 H 219.439 4.45196 -3.21079 0
M  V30 2333 H 219.7 4.15927 -1.49857 0
M  V30 2334 N 218.759 1.29093 0.90403 0
M  V30 2335 C 219.689 1.16401 2.02418 0
M  V30 2336 C 220.67 0.0593085 1.69997 0
M  V30 2337 O 221.855 0.238021 1.92736 0
M  V30 2338 C 218.985 0.835233 3.37107 0
M  V30 2339 C 217.939 1.89578 3.83724 0
M  V30 2340 C 217.265 1.42041 5.15489 0
M  V30 2341 C 218.565 3.30394 4.04521 0
M  V30 2342 H 220.259 2.10109 2.13295 0
M  V30 2343 H 217.805 1.01157 1.02486 0
M  V30 2344 H 219.758 0.733169 4.14973 0
M  V30 2345 H 218.482 -0.137543 3.2631 0
M  V30 2346 H 217.141 1.98715 3.08071 0
M  V30 2347 H 216.789 0.436426 5.01103 0
M  V30 2348 H 216.489 2.12964 5.4765 0
M  V30 2349 H 218.013 1.33176 5.959 0
M  V30 2350 H 219.427 3.24123 4.72882 0
M  V30 2351 H 217.824 3.99237 4.48029 0
M  V30 2352 H 218.894 3.73692 3.09002 0
M  V30 2353 N 220.237 -1.11381 1.11499 0
M  V30 2354 C 221.653 -1.35143 0.849031 0
M  V30 2355 C 221.853 -1.94515 -0.525938 0
M  V30 2356 O 220.909 -2.1785 -1.27662 0
M  V30 2357 C 222.222 -2.28249 1.95762 0
M  V30 2358 C 223.77 -2.41812 1.98736 0
M  V30 2359 C 224.245 -3.3824 3.088 0
M  V30 2360 N 225.736 -3.45803 3.08179 0
M  V30 2361 C 226.471 -4.20358 3.89982 0
M  V30 2362 N 225.967 -4.97884 4.8175 0
M  V30 2363 N 227.76 -4.15877 3.78157 0
M  V30 2364 H 219.911 -0.712062 2.00109 0
M  V30 2365 H 222.174 -0.376025 0.870235 0
M  V30 2366 H 221.88 -1.91817 2.94787 0
M  V30 2367 H 221.754 -3.28473 1.85433 0
M  V30 2368 H 224.141 -2.77518 1.00338 0
M  V30 2369 H 224.222 -1.41437 2.13141 0
M  V30 2370 H 223.866 -3.03261 4.07425 0
M  V30 2371 H 223.796 -4.38471 2.91635 0
M  V30 2372 H 226.287 -2.90506 2.41691 0
M  V30 2373 H 226.6 -5.52142 5.40702 0
M  V30 2374 H 224.945 -4.97043 4.85771 0
M  V30 2375 H 228.136 -3.544 3.05808 0
M  V30 2376 H 228.309 -4.73723 4.42143 0
M  V30 2377 N 221.715 -0.905404 -1.28997 0
M  V30 2378 C 222.663 -0.377431 -2.29517 0
M  V30 2379 C 223.657 0.526461 -1.61012 0
M  V30 2380 O 224.863 0.40863 -1.753 0
M  V30 2381 H 221.238 -0.103437 -0.744852 0
M  V30 2382 H 223.209 -1.23848 -2.71485 0
M  V30 2383 C 221.958 0.374833 -3.45674 0
M  V30 2384 H 221.281 -0.311474 -3.98585 0
M  V30 2385 H 222.721 0.70903 -4.1803 0
M  V30 2386 C 221.18 1.57963 -2.97572 0
M  V30 2387 O 221.71 2.67886 -2.99333 0
M  V30 2388 N 219.916 1.42375 -2.53333 0
M  V30 2389 H 219.463 0.529466 -2.521 0
M  V30 2390 H 219.421 2.23117 -2.21509 0
M  V30 2391 N 223.193 1.4272 -0.668489 0
M  V30 2392 C 224.123 2.335 -0.000100175 0
M  V30 2393 C 225.104 1.50328 0.795964 0
M  V30 2394 O 226.289 1.78949 0.754385 0
M  V30 2395 C 223.419 3.33874 0.956302 0
M  V30 2396 C 222.373 4.27152 0.269278 0
M  V30 2397 C 221.699 5.17684 1.33818 0
M  V30 2398 C 222.999 5.15373 -0.847805 0
M  V30 2399 H 224.693 2.89639 -0.758244 0
M  V30 2400 H 222.239 1.39269 -0.366079 0
M  V30 2401 H 224.192 3.9629 1.43292 0
M  V30 2402 H 222.916 2.76025 1.74579 0
M  V30 2403 H 221.575 3.66123 -0.187042 0
M  V30 2404 H 221.223 4.56165 2.1195 0
M  V30 2405 H 220.923 5.80918 0.883659 0
M  V30 2406 H 222.447 5.82974 1.81586 0
M  V30 2407 H 223.861 5.7151 -0.452681 0
M  V30 2408 H 222.258 5.87407 -1.22773 0
M  V30 2409 H 223.328 4.5415 -1.69929 0
M  V30 2410 N 224.671 0.411399 1.52136 0
M  V30 2411 C 225.634 -0.401089 2.25663 0
M  V30 2412 C 226.634 -0.971732 1.28117 0
M  V30 2413 O 227.824 -0.850254 1.52041 0
M  V30 2414 C 224.956 -1.56483 3.02863 0
M  V30 2415 H 226.149 0.24295 2.98914 0
M  V30 2416 H 223.702 0.163968 1.55438 0
M  V30 2417 H 224.437 -2.24567 2.33967 0
M  V30 2418 H 224.222 -1.16211 3.74483 0
M  V30 2419 H 225.712 -2.13951 3.58629 0
M  V30 2420 N 226.149 -1.5696 0.141893 0
M  V30 2421 C 227.426 -1.87553 -0.555281 0
M  V30 2422 C 227.806 -1.04699 -1.83306 0
M  V30 2423 O 227.154 -0.132346 -2.28116 0
M  V30 2424 C 227.364 -3.39093 -0.825664 0
M  V30 2425 C 228.712 -4.08199 -1.16869 0
M  V30 2426 O 229.736 -3.44242 -0.915185 0
M  V30 2427 O 228.595 -5.21139 -1.6455 0
M  V30 2428 H 225.689 -0.777188 -0.282679 0
M  V30 2429 H 228.235 -1.68763 0.17812 0
M  V30 2430 H 227.007 -3.91221 0.0788633 0
M  V30 2431 H 226.63 -3.63393 -1.61343 0
M  V30 2432 N 227.627 0.131896 -1.57047 0
M  V30 2433 C 228.574 1.16236 -1.99393 0
M  V30 2434 C 229.544 1.41863 -0.863943 0
M  V30 2435 O 230.729 1.53946 -1.12718 0
M  V30 2436 C 227.869 2.48708 -2.39245 0
M  V30 2437 C 226.982 2.30127 -3.65603 0
M  V30 2438 C 226.117 3.55738 -3.94492 0
M  V30 2439 C 225.156 3.32259 -5.14073 0
M  V30 2440 N 224.293 4.50039 -5.38896 0
M  V30 2441 H 229.133 0.794251 -2.87221 0
M  V30 2442 H 226.67 0.380707 -1.42088 0
M  V30 2443 H 228.628 3.25969 -2.60384 0
M  V30 2444 H 227.258 2.83437 -1.54478 0
M  V30 2445 H 226.31 1.43845 -3.52154 0
M  V30 2446 H 227.622 2.08746 -4.5302 0
M  V30 2447 H 226.776 4.41423 -4.1621 0
M  V30 2448 H 225.515 3.80138 -3.05526 0
M  V30 2449 H 224.52 2.44963 -4.92212 0
M  V30 2450 H 225.745 3.09242 -6.04604 0
M  V30 2451 H 223.691 4.74584 -4.52886 0
M  V30 2452 H 223.608 4.31716 -6.2061 0
M  V30 2453 H 224.876 5.36895 -5.65123 0
M  V30 2454 N 229.106 1.52395 0.401703 0
M  V30 2455 C 230.069 1.75636 1.47257 0
M  V30 2456 C 231.069 0.62628 1.48103 0
M  V30 2457 O 232.259 0.894227 1.49497 0
M  V30 2458 C 229.391 1.84553 2.86624 0
M  V30 2459 H 230.584 2.71241 1.27938 0
M  V30 2460 H 228.137 1.42923 0.632662 0
M  V30 2461 H 228.872 0.908882 3.11303 0
M  V30 2462 H 228.657 2.66715 2.87412 0
M  V30 2463 H 230.147 2.04251 3.64241 0
M  V30 2464 N 230.584 -0.659388 1.43143 0
M  V30 2465 C 231.831 -1.41935 1.44433 0
M  V30 2466 C 232.159 -1.94387 0.0663522 0
M  V30 2467 O 231.414 -1.72314 -0.927706 0
M  V30 2468 C 231.713 -2.62206 2.42864 0
M  V30 2469 C 231.379 -2.28208 3.88886 0
M  V30 2470 C 230.041 -2.18647 4.28657 0
M  V30 2471 C 232.393 -2.00887 4.8093 0
M  V30 2472 C 229.721 -1.79914 5.58433 0
M  V30 2473 C 232.073 -1.63653 6.11065 0
M  V30 2474 C 230.737 -1.52614 6.49819 0
M  V30 2475 H 230.007 -0.519376 0.528517 0
M  V30 2476 H 232.654 -0.750453 1.76183 0
M  V30 2477 H 230.959 -3.34199 2.04495 0
M  V30 2478 H 232.656 -3.2041 2.41119 0
M  V30 2479 H 229.246 -2.36557 3.57406 0
M  V30 2480 H 233.43 -2.07198 4.5098 0
M  V30 2481 H 228.686 -1.69948 5.87305 0
M  V30 2482 H 232.86 -1.41543 6.81864 0
M  V30 2483 H 230.487 -1.22371 7.50286 0
M  V30 2484 N 232.062 -1.29571 -0.897171 0
M  V30 2485 C 233.339 -1.08365 -1.62839 0
M  V30 2486 C 233.719 0.371331 -2.07808 0
M  V30 2487 O 233.067 1.3606 -1.83576 0
M  V30 2488 C 233.277 -2.0735 -2.80726 0
M  V30 2489 C 234.625 -2.38406 -3.51351 0
M  V30 2490 O 235.649 -2.05564 -2.90898 0
M  V30 2491 O 234.508 -2.9453 -4.60341 0
M  V30 2492 H 231.602 -0.415345 -0.715134 0
M  V30 2493 H 234.148 -1.40952 -0.945018 0
M  V30 2494 H 232.92 -3.05339 -2.44711 0
M  V30 2495 H 232.543 -1.75507 -3.56767 0
M  V30 2496 N 233.54 1.10788 -1.12088 0
M  V30 2497 C 234.956 1.34691 -0.856186 0
M  V30 2498 C 235.156 1.94791 0.515615 0
M  V30 2499 O 234.212 2.18524 1.26505 0
M  V30 2500 C 235.525 2.27208 -1.9697 0
M  V30 2501 C 237.073 2.40755 -2.00016 0
M  V30 2502 C 237.548 3.36598 -3.1059 0
M  V30 2503 N 239.039 3.44164 -3.10008 0
M  V30 2504 C 239.774 4.18284 -3.92206 0
M  V30 2505 N 239.27 4.95322 -4.84384 0
M  V30 2506 N 241.063 4.13865 -3.80357 0
M  V30 2507 H 233.214 0.70144 -2.00483 0
M  V30 2508 H 235.477 0.371405 -0.872217 0
M  V30 2509 H 235.183 1.90251 -2.958 0
M  V30 2510 H 235.057 3.27485 -1.87172 0
M  V30 2511 H 237.444 2.76982 -1.01808 0
M  V30 2512 H 237.525 1.40305 -2.13888 0
M  V30 2513 H 237.169 3.01096 -4.09028 0
M  V30 2514 H 237.099 4.36918 -2.93956 0
M  V30 2515 H 239.59 2.8922 -2.43228 0
M  V30 2516 H 239.903 5.49267 -5.43623 0
M  V30 2517 H 238.248 4.94459 -4.884 0
M  V30 2518 H 241.439 3.52773 -3.07683 0
M  V30 2519 H 241.612 4.71372 -4.44649 0
M  V30 2520 N 235.018 0.912232 1.28515 0
M  V30 2521 C 236.429 0.591352 1.77087 0
M  V30 2522 C 236.78 -0.8933 1.74684 0
M  V30 2523 O 235.905 -1.69876 1.34056 0
M  V30 2524 C 236.5 1.06668 3.2157 0
M  V30 2525 C 235.059 0.79675 3.67871 0
M  V30 2526 C 234.206 1.23427 2.48316 0
M  V30 2527 H 237.157 1.09365 1.15 0
M  V30 2528 H 237.178 0.407455 3.78312 0
M  V30 2529 H 236.69 2.14726 3.23287 0
M  V30 2530 H 234.791 -0.270679 3.71616 0
M  V30 2531 H 234.904 1.40343 4.58084 0
M  V30 2532 H 233.268 0.653036 2.46186 0
M  V30 2533 H 234.051 2.32316 2.52753 0
M  V30 2534 N 236.496 -1.42363 0.676048 0
M  V30 2535 C 237.745 -2.00745 0.196037 0
M  V30 2536 C 238.058 -1.54083 -1.20489 0
M  V30 2537 O 239.264 -2.04891 -1.78134 0
M  V30 2538 C 237.72 -3.58651 0.299616 0
M  V30 2539 C 237.328 -4.143 1.70468 0
M  V30 2540 C 239.072 -4.24326 -0.121619 0
M  V30 2541 C 236.979 -5.64574 1.76096 0
M  V30 2542 H 235.909 -0.750787 0.0695301 0
M  V30 2543 H 238.56 -1.63072 0.841412 0
M  V30 2544 H 236.942 -3.93833 -0.413673 0
M  V30 2545 H 238.116 -3.90575 2.44515 0
M  V30 2546 H 236.431 -3.61081 2.07387 0
M  V30 2547 H 239.028 -5.34607 -0.0997362 0
M  V30 2548 H 239.371 -3.99897 -1.15708 0
M  V30 2549 H 239.904 -3.94108 0.540706 0
M  V30 2550 H 236.643 -5.93804 2.77628 0
M  V30 2551 H 236.163 -5.90286 1.06406 0
M  V30 2552 H 237.842 -6.29013 1.51496 0
M  V30 2553 N 237.974 -0.419461 -1.51915 0
M  V30 2554 C 239.214 0.152336 -2.03832 0
M  V30 2555 C 239.578 1.41501 -1.29775 0
M  V30 2556 O 240.779 2.06591 -1.7197 0
M  V30 2557 C 239.05 0.383812 -3.55333 0
M  V30 2558 S 240.609 0.921577 -4.29013 0
M  V30 2559 H 237.427 0.0402193 -0.709862 0
M  V30 2560 H 240.029 -0.574758 -1.8686 0
M  V30 2561 H 238.733 -0.541794 -4.06808 0
M  V30 2562 H 238.264 1.13849 -3.76566 0
M  V30 2563 H 240.279 2.20108 -4.4471 0
M  V30 2564 N 239.452 1.56882 -0.150215 0
M  V30 2565 C 240.362 2.20494 0.801222 0
M  V30 2566 C 241.378 1.19019 1.26927 0
M  V30 2567 O 242.554 1.51607 1.32579 0
M  V30 2568 C 239.619 2.81659 2.02161 0
M  V30 2569 C 238.68 3.9827 1.60249 0
M  V30 2570 C 237.913 4.56508 2.7647 0
M  V30 2571 O 238.136 4.13627 3.92771 0
M  V30 2572 O 237.07 5.46719 2.51757 0
M  V30 2573 H 240.896 3.02315 0.289717 0
M  V30 2574 H 238.481 1.49202 0.0769684 0
M  V30 2575 H 240.363 3.20522 2.73576 0
M  V30 2576 H 239.038 2.02849 2.52258 0
M  V30 2577 H 237.945 3.64117 0.858477 0
M  V30 2578 H 239.278 4.78609 1.14864 0
M  V30 2579 N 240.93 -0.123565 1.57115 0
M  V30 2580 C 241.893 -1.13583 1.99076 0
M  V30 2581 C 242.893 -1.34564 0.880296 0
M  V30 2582 O 244.083 -1.31158 1.14644 0
M  V30 2583 C 241.215 -2.49128 2.32698 0
M  V30 2584 H 242.408 -0.775287 2.89706 0
M  V30 2585 H 239.961 -0.36771 1.51913 0
M  V30 2586 H 240.696 -2.90111 1.44934 0
M  V30 2587 H 240.481 -2.35255 3.13684 0
M  V30 2588 H 241.971 -3.2199 2.65918 0
M  V30 2589 N 242.408 -1.52605 -0.393616 0
M  V30 2590 C 243.338 -1.80022 -1.48709 0
M  V30 2591 C 244.319 -0.651995 -1.57108 0
M  V30 2592 O 245.504 -0.89913 -1.72132 0
M  V30 2593 C 242.634 -1.96492 -2.86371 0
M  V30 2594 C 241.588 -3.12161 -2.92813 0
M  V30 2595 C 240.914 -3.13877 -4.3288 0
M  V30 2596 C 242.214 -4.51322 -2.6288 0
M  V30 2597 H 243.908 -2.71589 -1.26015 0
M  V30 2598 H 241.454 -1.30684 -0.604778 0
M  V30 2599 H 243.407 -2.14255 -3.62867 0
M  V30 2600 H 242.131 -1.01611 -3.10391 0
M  V30 2601 H 240.79 -2.94173 -2.18764 0
M  V30 2602 H 240.438 -2.16687 -4.53933 0
M  V30 2603 H 240.138 -3.91576 -4.38112 0
M  V30 2604 H 241.662 -3.33789 -5.1129 0
M  V30 2605 H 243.076 -4.69435 -3.29096 0
M  V30 2606 H 241.473 -5.31053 -2.79468 0
M  V30 2607 H 242.543 -4.58353 -1.58242 0
M  V30 2608 N 243.887 0.651787 -1.4349 0
M  V30 2609 C 244.817 1.77621 -1.51569 0
M  V30 2610 C 245.798 1.66022 -0.370253 0
M  V30 2611 O 246.983 1.85095 -0.587658 0
M  V30 2612 C 244.113 3.16056 -1.43966 0
M  V30 2613 C 243.067 3.4242 -2.56774 0
M  V30 2614 C 242.393 4.8067 -2.34223 0
M  V30 2615 C 243.693 3.37023 -3.99015 0
M  V30 2616 H 245.387 1.71117 -2.45681 0
M  V30 2617 H 242.933 0.821825 -1.18246 0
M  V30 2618 H 244.886 3.94472 -1.48221 0
M  V30 2619 H 243.61 3.23293 -0.463586 0
M  V30 2620 H 242.269 2.66375 -2.51873 0
M  V30 2621 H 241.917 4.84585 -1.34856 0
M  V30 2622 H 241.617 4.9927 -3.09844 0
M  V30 2623 H 243.141 5.61342 -2.40265 0
M  V30 2624 H 244.555 4.05374 -4.05395 0
M  V30 2625 H 242.952 3.67159 -4.74673 0
M  V30 2626 H 244.022 2.3518 -4.2405 0
M  V30 2627 N 245.365 1.30045 0.890287 0
M  V30 2628 C 246.642 1.09227 1.62262 0
M  V30 2629 C 247.022 -0.360305 2.08002 0
M  V30 2630 O 246.37 -1.35084 1.84295 0
M  V30 2631 C 246.58 2.08835 2.79623 0
M  V30 2632 C 247.928 2.40266 3.50082 0
M  V30 2633 O 248.952 2.07104 2.89804 0
M  V30 2634 O 247.811 2.96967 4.58773 0
M  V30 2635 H 244.905 0.419132 0.712922 0
M  V30 2636 H 247.451 1.41451 0.937529 0
M  V30 2637 H 246.223 3.06633 2.43089 0
M  V30 2638 H 245.846 1.77397 3.55832 0
M  V30 2639 N 246.843 -1.10192 1.12674 0
M  V30 2640 C 247.775 -2.16418 0.754701 0
M  V30 2641 C 248.788 -1.61309 -0.21986 0
M  V30 2642 O 249.977 -1.785 -0.000826841 0
M  V30 2643 C 247.077 -3.38762 0.096698 0
M  V30 2644 C 246.25 -4.23307 1.10136 0
M  V30 2645 C 245.309 -5.24092 0.470513 0
M  V30 2646 O 244.335 -5.57906 1.12824 0
M  V30 2647 N 245.537 -5.75491 -0.760948 0
M  V30 2648 H 248.302 -2.48943 1.66875 0
M  V30 2649 H 245.863 -1.25834 1.01869 0
M  V30 2650 H 247.855 -4.03291 -0.337384 0
M  V30 2651 H 246.425 -3.04192 -0.720153 0
M  V30 2652 H 245.645 -3.55036 1.71299 0
M  V30 2653 H 246.933 -4.76624 1.78064 0
M  V30 2654 H 246.331 -5.50222 -1.31424 0
M  V30 2655 H 244.888 -6.41792 -1.13781 0
M  V30 2656 N 248.321 -0.919034 -1.28029 0
M  V30 2657 C 249.737 -0.617972 -1.4715 0
M  V30 2658 C 249.937 0.835242 -1.83374 0
M  V30 2659 O 248.993 1.61388 -1.94191 0
M  V30 2660 C 250.306 -1.56041 -2.57044 0
M  V30 2661 C 251.854 -1.56769 -2.7091 0
M  V30 2662 C 252.329 -2.49688 -3.83953 0
M  V30 2663 N 253.82 -2.47845 -3.91314 0
M  V30 2664 C 254.555 -3.16437 -4.78179 0
M  V30 2665 N 254.051 -3.94376 -5.69596 0
M  V30 2666 N 255.844 -3.05498 -4.71834 0
M  V30 2667 H 247.995 -1.85866 -1.02798 0
M  V30 2668 H 250.258 -0.797506 -0.512531 0
M  V30 2669 H 249.964 -2.59671 -2.372 0
M  V30 2670 H 249.838 -1.29551 -3.54255 0
M  V30 2671 H 252.225 -0.538745 -2.90141 0
M  V30 2672 H 252.306 -1.87305 -1.74214 0
M  V30 2673 H 251.95 -3.52688 -3.65477 0
M  V30 2674 H 251.88 -2.16453 -4.80058 0
M  V30 2675 H 254.371 -1.91234 -3.25941 0
M  V30 2676 H 254.684 -4.43721 -6.32718 0
M  V30 2677 H 253.029 -3.98481 -5.69419 0
M  V30 2678 H 256.22 -2.44108 -3.99411 0
M  V30 2679 H 256.393 -3.59225 -5.39316 0
M  V30 2680 N 249.799 1.42003 -0.683588 0
M  V30 2681 C 251.046 2.01413 -0.209514 0
M  V30 2682 C 251.374 1.54088 1.1869 0
M  V30 2683 O 250.629 0.737591 1.81268 0
M  V30 2684 C 250.928 3.56827 -0.202357 0
M  V30 2685 C 250.594 4.23617 -1.54464 0
M  V30 2686 C 249.256 4.41577 -1.91215 0
M  V30 2687 C 251.608 4.61178 -2.42826 0
M  V30 2688 C 248.936 4.9437 -3.15935 0
M  V30 2689 C 251.288 5.15355 -3.66867 0
M  V30 2690 C 249.952 5.31528 -4.03776 0
M  V30 2691 H 249.222 0.737023 -0.0766668 0
M  V30 2692 H 251.869 1.70067 -0.880312 0
M  V30 2693 H 250.174 3.87892 0.551969 0
M  V30 2694 H 251.871 4.00588 0.181793 0
M  V30 2695 H 248.461 4.10004 -1.24877 0
M  V30 2696 H 252.645 4.46968 -2.15717 0
M  V30 2697 H 247.901 5.05076 -3.44541 0
M  V30 2698 H 252.075 5.43402 -4.35531 0
M  V30 2699 H 249.702 5.72199 -5.00492 0
M  V30 2700 N 251.277 0.427512 1.51691 0
M  V30 2701 C 252.524 -0.142229 2.02 0
M  V30 2702 C 252.852 -1.43566 1.31221 0
M  V30 2703 O 252.107 -1.91298 0.412744 0
M  V30 2704 C 252.406 -0.418249 3.54944 0
M  V30 2705 C 252.072 0.788187 4.43958 0
M  V30 2706 C 250.734 1.11906 4.68007 0
M  V30 2707 C 253.086 1.59347 4.96244 0
M  V30 2708 C 250.414 2.25608 5.41588 0
M  V30 2709 C 252.766 2.7214 5.71072 0
M  V30 2710 C 251.43 3.05692 5.93387 0
M  V30 2711 H 250.7 -0.0520451 0.73917 0
M  V30 2712 H 253.347 0.572697 1.82736 0
M  V30 2713 H 251.652 -1.21496 3.72486 0
M  V30 2714 H 253.349 -0.872339 3.91397 0
M  V30 2715 H 249.939 0.520344 4.2543 0
M  V30 2716 H 254.123 1.35106 4.77556 0
M  V30 2717 H 249.379 2.51929 5.57083 0
M  V30 2718 H 253.553 3.34914 6.10578 0
M  V30 2719 H 251.18 3.9391 6.50184 0
M  V30 2720 N 252.755 -1.56801 0.158532 0
M  V30 2721 C 253.703 -2.18638 -0.793729 0
M  V30 2722 C 254.697 -1.14669 -1.24689 0
M  V30 2723 O 255.903 -1.32895 -1.21403 0
M  V30 2724 H 252.278 -0.700226 -0.274204 0
M  V30 2725 H 254.249 -2.97367 -0.248095 0
M  V30 2726 C 252.998 -2.83139 -2.0181 0
M  V30 2727 H 252.321 -3.62863 -1.67841 0
M  V30 2728 H 253.761 -3.29894 -2.66357 0
M  V30 2729 C 252.22 -1.82244 -2.83353 0
M  V30 2730 O 252.75 -1.3 -3.80083 0
M  V30 2731 N 250.956 -1.51288 -2.48114 0
M  V30 2732 H 250.503 -1.93964 -1.69516 0
M  V30 2733 H 250.461 -0.840296 -3.02963 0
M  V30 2734 N 254.233 0.115231 -1.57178 0
M  V30 2735 C 255.481 0.820727 -1.84685 0
M  V30 2736 C 255.802 1.80237 -0.744279 0
M  V30 2737 O 255.072 1.94529 0.231375 0
M  V30 2738 H 253.652 0.306084 -0.681411 0
M  V30 2739 H 256.314 0.101656 -1.94635 0
M  V30 2740 H 255.41 1.36366 -2.80733 0
M  V30 2741 N 255.711 1.52812 0.385517 0
M  V30 2742 C 256.96 1.67249 1.12741 0
M  V30 2743 C 257.273 0.4205 1.91027 0
M  V30 2744 O 258.479 0.445064 2.67827 0
M  V30 2745 C 256.935 2.95583 2.05326 0
M  V30 2746 C 256.543 4.27974 1.32447 0
M  V30 2747 C 258.287 3.19386 2.7963 0
M  V30 2748 C 256.194 5.47412 2.23818 0
M  V30 2749 H 255.124 0.6231 0.424573 0
M  V30 2750 H 257.775 1.79309 0.389924 0
M  V30 2751 H 256.157 2.77277 2.82725 0
M  V30 2752 H 257.331 4.56844 0.602495 0
M  V30 2753 H 255.646 4.10459 0.700885 0
M  V30 2754 H 258.243 4.05801 3.48181 0
M  V30 2755 H 258.586 2.34604 3.43899 0
M  V30 2756 H 259.119 3.38274 2.09322 0
M  V30 2757 H 255.858 6.34612 1.64157 0
M  V30 2758 H 255.378 5.22849 2.93921 0
M  V30 2759 H 257.057 5.81423 2.83824 0
M  V30 2760 N 257.189 -0.644168 1.43834 0
M  V30 2761 C 258.437 -1.40117 1.45642 0
M  V30 2762 C 258.758 -1.94814 0.0852413 0
M  V30 2763 O 258.028 -1.74988 -0.880688 0
M  V30 2764 H 256.608 -0.52005 0.536243 0
M  V30 2765 H 259.27 -0.7591 1.7951 0
M  V30 2766 H 258.366 -2.23902 2.17427 0
M  V30 2767 N 258.668 -1.30515 -0.883378 0
M  V30 2768 C 259.616 -1.16941 -2.01066 0
M  V30 2769 C 260.61 -0.0809148 -1.69207 0
M  V30 2770 O 261.816 -0.241877 -1.78367 0
M  V30 2771 H 258.191 -0.361705 -0.659298 0
M  V30 2772 H 260.162 -2.12344 -2.09649 0
M  V30 2773 C 258.911 -0.879694 -3.36388 0
M  V30 2774 H 258.234 -1.70936 -3.61415 0
M  V30 2775 H 259.674 -0.82483 -4.159 0
M  V30 2776 C 258.133 0.417409 -3.34304 0
M  V30 2777 O 258.663 1.43843 -3.75063 0
M  V30 2778 N 256.869 0.429141 -2.87414 0
M  V30 2779 H 256.416 -0.402222 -2.5444 0
M  V30 2780 H 256.374 1.29696 -2.86403 0
M  V30 2781 N 260.146 1.09593 -1.13257 0
M  V30 2782 C 261.376 1.85231 -0.915049 0
M  V30 2783 C 261.784 1.81345 0.539498 0
M  V30 2784 O 261.127 1.20664 1.38513 0
M  V30 2785 C 261.189 3.34275 -1.3229 0
M  V30 2786 C 260.853 3.6191 -2.79052 0
M  V30 2787 C 261.85 3.57777 -3.77216 0
M  V30 2788 C 259.535 3.90309 -3.16171 0
M  V30 2789 C 261.529 3.81652 -5.1051 0
M  V30 2790 C 259.216 4.13839 -4.49644 0
M  V30 2791 C 260.214 4.09502 -5.46623 0
M  V30 2792 O 259.902 4.32426 -6.77689 0
M  V30 2793 H 259.634 0.591997 -0.326367 0
M  V30 2794 H 262.188 1.394 -1.50854 0
M  V30 2795 H 260.418 3.80805 -0.672667 0
M  V30 2796 H 262.107 3.9132 -1.07812 0
M  V30 2797 H 262.873 3.35865 -3.49885 0
M  V30 2798 H 258.752 3.92811 -2.41289 0
M  V30 2799 H 262.296 3.78182 -5.86195 0
M  V30 2800 H 258.193 4.35232 -4.767 0
M  V30 2801 H 258.961 4.49896 -6.83766 0
M  V30 2802 N 261.624 0.925811 1.2754 0
M  V30 2803 C 262.554 0.440748 2.29303 0
M  V30 2804 C 263.535 -0.497971 1.62648 0
M  V30 2805 O 264.72 -0.403126 1.8997 0
M  V30 2806 C 261.85 -0.309048 3.45922 0
M  V30 2807 C 260.804 0.54166 4.24559 0
M  V30 2808 C 260.13 -0.337191 5.33636 0
M  V30 2809 C 261.43 1.80516 4.90114 0
M  V30 2810 H 263.124 1.29121 2.70126 0
M  V30 2811 H 260.67 0.622323 1.29858 0
M  V30 2812 H 262.623 -0.659315 4.1621 0
M  V30 2813 H 261.347 -1.19352 3.04011 0
M  V30 2814 H 260.006 0.874609 3.56014 0
M  V30 2815 H 259.654 -1.22056 4.87966 0
M  V30 2816 H 259.354 0.228497 5.87156 0
M  V30 2817 H 260.878 -0.683072 6.06767 0
M  V30 2818 H 262.292 1.52307 5.52698 0
M  V30 2819 H 260.689 2.3142 5.53683 0
M  V30 2820 H 261.759 2.52581 4.13921 0
M  V30 2821 N 263.102 -1.41638 0.69111 0
M  V30 2822 C 264.518 -1.55435 0.362224 0
M  V30 2823 C 264.718 -1.66754 -1.13117 0
M  V30 2824 O 263.774 -1.64348 -1.91692 0
M  V30 2825 C 265.087 -2.79588 1.10684 0
M  V30 2826 C 266.635 -2.9338 1.09075 0
M  V30 2827 C 267.11 -4.20414 1.81703 0
M  V30 2828 N 268.601 -4.27362 1.7865 0
M  V30 2829 C 269.336 -5.24507 2.31689 0
M  V30 2830 N 268.832 -6.27708 2.93179 0
M  V30 2831 N 270.625 -5.16416 2.2197 0
M  V30 2832 H 262.776 -1.32536 1.65976 0
M  V30 2833 H 265.039 -0.639115 0.700168 0
M  V30 2834 H 264.745 -2.77419 2.16175 0
M  V30 2835 H 264.619 -3.70973 0.682545 0
M  V30 2836 H 267.006 -2.95067 0.0441238 0
M  V30 2837 H 267.087 -2.0318 1.55407 0
M  V30 2838 H 266.731 -4.19488 2.86343 0
M  V30 2839 H 266.661 -5.09578 1.32808 0
M  V30 2840 H 269.152 -3.53415 1.33815 0
M  V30 2841 H 269.465 -6.98217 3.31229 0
M  V30 2842 H 267.81 -6.28223 2.97255 0
M  V30 2843 H 271.001 -4.34716 1.73607 0
M  V30 2844 H 271.174 -5.91958 2.63609 0
M  V30 2845 N 264.58 -0.43555 -1.51462 0
M  V30 2846 C 265.543 0.365137 -2.26273 0
M  V30 2847 C 266.543 0.951227 -1.29647 0
M  V30 2848 O 267.733 0.825958 -1.53374 0
M  V30 2849 C 264.865 1.51645 -3.05314 0
M  V30 2850 H 266.058 -0.290474 -2.9849 0
M  V30 2851 H 263.611 -0.188676 -1.55157 0
M  V30 2852 H 264.346 2.20816 -2.3751 0
M  V30 2853 H 264.131 1.10238 -3.76284 0
M  V30 2854 H 265.621 2.08218 -3.61987 0
M  V30 2855 N 266.058 1.56714 -0.166846 0
M  V30 2856 C 266.968 2.21331 0.777791 0
M  V30 2857 C 267.984 1.20358 1.25658 0
M  V30 2858 O 269.16 1.53005 1.30964 0
M  V30 2859 C 266.225 2.83787 1.99163 0
M  V30 2860 C 265.286 3.99947 1.56016 0
M  V30 2861 C 264.519 4.59415 2.71613 0
M  V30 2862 O 264.742 4.17769 3.88362 0
M  V30 2863 O 263.676 5.49359 2.45945 0
M  V30 2864 H 267.502 3.02605 0.257636 0
M  V30 2865 H 265.087 1.49275 0.0611393 0
M  V30 2866 H 266.969 3.23405 2.70161 0
M  V30 2867 H 265.644 2.05513 2.50092 0
M  V30 2868 H 264.551 3.65007 0.819809 0
M  V30 2869 H 265.884 4.79801 1.09782 0
M  V30 2870 N 267.536 -0.106894 1.57237 0
M  V30 2871 C 268.785 -0.811163 1.8467 0
M  V30 2872 C 269.098 -1.80469 0.754342 0
M  V30 2873 O 270.304 -2.55601 0.915439 0
M  V30 2874 C 268.76 -1.49337 3.27454 0
M  V30 2875 C 268.368 -0.540217 4.44731 0
M  V30 2876 C 270.112 -2.18206 3.64124 0
M  V30 2877 C 268.019 -1.22634 5.78545 0
M  V30 2878 H 266.949 -0.306679 0.688813 0
M  V30 2879 H 269.6 -0.0639887 1.83388 0
M  V30 2880 H 267.982 -2.2876 3.23241 0
M  V30 2881 H 269.156 0.221659 4.60267 0
M  V30 2882 H 267.471 0.042146 4.16379 0
M  V30 2883 H 270.068 -2.70253 4.61376 0
M  V30 2884 H 270.411 -2.96562 2.92158 0
M  V30 2885 H 270.944 -1.45658 3.70174 0
M  V30 2886 H 267.683 -0.483832 6.53712 0
M  V30 2887 H 267.203 -1.95993 5.66874 0
M  V30 2888 H 268.882 -1.75615 6.2271 0
M  V30 2889 N 269.014 -1.53014 -0.377408 0
M  V30 2890 C 269.944 -1.81589 -1.46791 0
M  V30 2891 C 270.925 -0.668622 -1.56408 0
M  V30 2892 O 272.11 -0.917337 -1.71168 0
M  V30 2893 C 269.24 -1.99519 -2.8427 0
M  V30 2894 C 268.194 -3.15249 -2.89486 0
M  V30 2895 C 267.52 -3.18451 -4.29527 0
M  V30 2896 C 268.82 -4.54084 -2.58079 0
M  V30 2897 H 270.514 -2.7291 -1.23127 0
M  V30 2898 H 268.06 -1.31319 -0.590883 0
M  V30 2899 H 270.013 -2.18092 -3.60575 0
M  V30 2900 H 268.737 -1.04897 -3.09296 0
M  V30 2901 H 267.396 -2.96477 -2.15631 0
M  V30 2902 H 267.044 -2.2149 -4.5161 0
M  V30 2903 H 266.744 -3.962 -4.33934 0
M  V30 2904 H 268.268 -3.39193 -5.07721 0
M  V30 2905 H 269.682 -4.72899 -3.24098 0
M  V30 2906 H 268.079 -5.33987 -2.7382 0
M  V30 2907 H 269.149 -4.60006 -1.53372 0
M  V30 2908 N 270.492 0.636531 -1.44174 0
M  V30 2909 C 271.722 1.42146 -1.49927 0
M  V30 2910 C 272.13 1.88812 -0.121063 0
M  V30 2911 O 271.473 1.61126 0.882267 0
M  V30 2912 C 271.535 2.67883 -2.39748 0
M  V30 2913 C 271.199 2.43048 -3.8701 0
M  V30 2914 C 272.196 2.05216 -4.77684 0
M  V30 2915 C 269.881 2.56856 -4.3166 0
M  V30 2916 C 271.875 1.81512 -6.11009 0
M  V30 2917 C 269.562 2.32766 -5.65034 0
M  V30 2918 C 270.56 1.95152 -6.54526 0
M  V30 2919 O 270.248 1.71326 -7.85431 0
M  V30 2920 H 269.98 0.442567 -0.51099 0
M  V30 2921 H 272.534 0.786158 -1.8976 0
M  V30 2922 H 270.764 3.34032 -1.94832 0
M  V30 2923 H 272.453 3.29874 -2.36513 0
M  V30 2924 H 273.219 1.94111 -4.44462 0
M  V30 2925 H 269.098 2.85104 -3.62266 0
M  V30 2926 H 272.642 1.52077 -6.80822 0
M  V30 2927 H 268.539 2.43479 -5.97819 0
M  V30 2928 H 269.307 1.85616 -7.97176 0
M  V30 2929 N 271.97 1.30982 0.876444 0
M  V30 2930 C 273.386 1.09498 1.16113 0
M  V30 2931 C 273.586 -0.13875 2.01022 0
M  V30 2932 O 272.642 -0.829935 2.38471 0
M  V30 2933 C 273.955 2.36308 1.85954 0
M  V30 2934 C 275.503 2.41856 1.98683 0
M  V30 2935 C 275.978 3.6853 2.71937 0
M  V30 2936 N 277.469 3.69387 2.79477 0
M  V30 2937 C 278.204 4.64096 3.36753 0
M  V30 2938 N 277.7 5.69155 3.95012 0
M  V30 2939 N 279.493 4.51626 3.3465 0
M  V30 2940 H 271.644 2.10118 0.310494 0
M  V30 2941 H 273.907 0.926634 0.200131 0
M  V30 2942 H 273.613 3.26388 1.31011 0
M  V30 2943 H 273.487 2.4561 2.86278 0
M  V30 2944 H 275.874 1.52249 2.52793 0
M  V30 2945 H 275.955 2.36523 0.9742 0
M  V30 2946 H 275.599 4.58499 2.18496 0
M  V30 2947 H 275.529 3.71127 3.73593 0
M  V30 2948 H 278.02 2.93438 2.38123 0
M  V30 2949 H 278.333 6.3751 4.36808 0
M  V30 2950 H 276.678 5.72937 3.93406 0
M  V30 2951 H 279.869 3.68728 2.8837 0
M  V30 2952 H 280.042 5.25614 3.7899 0
M  V30 2953 N 273.449 -1.08991 1.13837 0
M  V30 2954 C 274.379 -2.17771 0.842507 0
M  V30 2955 C 275.36 -1.6892 -0.20001 0
M  V30 2956 O 276.545 -1.94113 -0.0579731 0
M  V30 2957 C 273.675 -3.4589 0.312644 0
M  V30 2958 C 272.629 -4.08099 1.28992 0
M  V30 2959 C 271.955 -5.31098 0.619623 0
M  V30 2960 C 273.255 -4.50077 2.65005 0
M  V30 2961 H 274.949 -2.42777 1.75213 0
M  V30 2962 H 272.495 -1.16682 0.843875 0
M  V30 2963 H 274.448 -4.21297 0.0933043 0
M  V30 2964 H 273.172 -3.20419 -0.632382 0
M  V30 2965 H 271.831 -3.34717 1.49533 0
M  V30 2966 H 271.479 -5.0191 -0.33102 0
M  V30 2967 H 271.179 -5.73674 1.27167 0
M  V30 2968 H 272.703 -6.09224 0.409669 0
M  V30 2969 H 274.117 -5.16688 2.48407 0
M  V30 2970 H 272.514 -5.03553 3.26427 0
M  V30 2971 H 273.584 -3.62257 3.22332 0
M  V30 2972 N 274.927 -0.932562 -1.27047 0
M  V30 2973 C 275.874 -0.434072 -2.26681 0
M  V30 2974 C 276.844 0.501639 -1.58344 0
M  V30 2975 O 278.029 0.419734 -1.86126 0
M  V30 2976 C 275.169 0.30261 -3.43771 0
M  V30 2977 C 274.282 -0.667774 -4.26808 0
M  V30 2978 C 273.417 0.0892393 -5.31125 0
M  V30 2979 C 272.456 -0.873532 -6.05835 0
M  V30 2980 N 271.593 -0.148832 -7.01942 0
M  V30 2981 H 276.433 -1.28868 -2.68695 0
M  V30 2982 H 273.97 -0.646713 -1.32121 0
M  V30 2983 H 275.928 0.746092 -4.10474 0
M  V30 2984 H 274.558 1.12142 -3.02695 0
M  V30 2985 H 273.61 -1.22978 -3.59973 0
M  V30 2986 H 274.922 -1.40337 -4.78651 0
M  V30 2987 H 274.076 0.592409 -6.03801 0
M  V30 2988 H 272.815 0.85777 -4.80097 0
M  V30 2989 H 271.82 -1.38791 -5.31994 0
M  V30 2990 H 273.045 -1.64193 -6.58952 0
M  V30 2991 H 270.991 0.601365 -6.53238 0
M  V30 2992 H 270.908 -0.82391 -7.51497 0
M  V30 2993 H 272.176 0.333527 -7.78786 0
M  V30 2994 N 276.405 1.4127 -0.698611 0
M  V30 2995 C 277.654 2.00408 -0.227949 0
M  V30 2996 C 277.967 1.55981 1.18023 0
M  V30 2997 O 279.173 2.07699 1.74852 0
M  V30 2998 C 277.629 3.58129 -0.356636 0
M  V30 2999 C 277.237 4.11536 -1.77037 0
M  V30 3000 C 278.981 4.24466 0.0540969 0
M  V30 3001 C 276.888 5.61701 -1.85055 0
M  V30 3002 H 275.818 0.749586 -0.0814657 0
M  V30 3003 H 278.469 1.61713 -0.867249 0
M  V30 3004 H 276.851 3.94442 0.350965 0
M  V30 3005 H 278.025 3.86636 -2.50698 0
M  V30 3006 H 276.34 3.57736 -2.13105 0
M  V30 3007 H 278.937 5.34698 0.0146723 0
M  V30 3008 H 279.28 4.01687 1.09332 0
M  V30 3009 H 279.813 3.93198 -0.603337 0
M  V30 3010 H 276.552 5.89312 -2.8704 0
M  V30 3011 H 276.072 5.88519 -1.15783 0
M  V30 3012 H 277.751 6.26524 -1.61484 0
M  V30 3013 N 277.883 0.443576 1.51229 0
M  V30 3014 C 279.294 -0.0180867 1.86691 0
M  V30 3015 C 279.645 -1.41384 1.36033 0
M  V30 3016 O 278.77 -2.04291 0.713722 0
M  V30 3017 C 279.365 -0.039597 3.38777 0
M  V30 3018 C 277.924 -0.445692 3.73752 0
M  V30 3019 C 277.071 0.357584 2.74985 0
M  V30 3020 H 280.022 0.659138 1.44364 0
M  V30 3021 H 280.043 -0.847761 3.70936 0
M  V30 3022 H 279.555 0.976382 3.75617 0
M  V30 3023 H 277.656 -1.46704 3.42503 0
M  V30 3024 H 277.769 -0.166155 4.78812 0
M  V30 3025 H 276.133 -0.184973 2.54027 0
M  V30 3026 H 276.916 1.37256 3.14668 0
M  V30 3027 N 279.361 -1.56624 0.175154 0
M  V30 3028 C 280.772 -1.83561 -0.340916 0
M  V30 3029 C 281.123 -1.09511 -1.62794 0
M  V30 3030 O 280.248 -0.349389 -2.13561 0
M  V30 3031 C 280.843 -3.32979 -0.625313 0
M  V30 3032 C 279.402 -3.60399 -1.08581 0
M  V30 3033 C 278.549 -2.77024 -0.123722 0
M  V30 3034 H 281.5 -1.53593 0.399344 0
M  V30 3035 H 281.521 -3.50666 -1.47694 0
M  V30 3036 H 281.033 -3.86847 0.311575 0
M  V30 3037 H 279.134 -3.11945 -2.03767 0
M  V30 3038 H 279.247 -4.68711 -0.992317 0
M  V30 3039 H 277.611 -2.46993 -0.621821 0
M  V30 3040 H 278.394 -3.33674 0.807256 0
M  V30 3041 N 280.839 0.0985539 -1.57292 0
M  V30 3042 C 282.086 0.802678 -1.85912 0
M  V30 3043 C 282.414 1.78901 -0.763186 0
M  V30 3044 O 281.669 1.94178 0.243559 0
M  V30 3045 C 281.968 1.56927 -3.21105 0
M  V30 3046 C 281.634 0.725376 -4.45027 0
M  V30 3047 C 280.296 0.492726 -4.78671 0
M  V30 3048 C 282.648 0.138493 -5.21016 0
M  V30 3049 C 279.976 -0.336727 -5.85733 0
M  V30 3050 C 282.328 -0.678264 -6.28953 0
M  V30 3051 C 280.992 -0.921039 -6.61115 0
M  V30 3052 H 280.262 0.293721 -0.680301 0
M  V30 3053 H 282.909 0.0642841 -1.91392 0
M  V30 3054 H 281.214 2.37914 -3.11294 0
M  V30 3055 H 282.911 2.11841 -3.40477 0
M  V30 3056 H 279.501 0.916815 -4.18679 0
M  V30 3057 H 283.685 0.305404 -4.95359 0
M  V30 3058 H 278.941 -0.533836 -6.09065 0
M  V30 3059 H 283.115 -1.1399 -6.87007 0
M  V30 3060 H 280.742 -1.56556 -7.43905 0
M  V30 3061 N 282.317 1.53212 0.369288 0
M  V30 3062 C 283.227 1.82342 1.47609 0
M  V30 3063 C 284.243 0.711532 1.58787 0
M  V30 3064 O 285.419 1.0012 1.74751 0
M  V30 3065 C 282.484 2.00393 2.8292 0
M  V30 3066 C 281.545 3.24297 2.81301 0
M  V30 3067 C 280.778 3.41478 4.10157 0
M  V30 3068 O 281.001 2.63033 5.06132 0
M  V30 3069 O 279.935 4.34817 4.16194 0
M  V30 3070 H 283.761 2.76366 1.25918 0
M  V30 3071 H 281.346 1.38547 0.559034 0
M  V30 3072 H 283.228 2.13859 3.63101 0
M  V30 3073 H 281.903 1.09559 3.04596 0
M  V30 3074 H 280.81 3.16257 1.99831 0
M  V30 3075 H 282.143 4.15041 2.64578 0
M  V30 3076 N 283.795 -0.628877 1.44509 0
M  V30 3077 C 284.742 -1.74074 1.51549 0
M  V30 3078 C 285.712 -1.62084 0.363021 0
M  V30 3079 O 286.897 -1.81975 0.573567 0
M  V30 3080 C 284.037 -3.12328 1.46784 0
M  V30 3081 C 283.15 -3.35277 2.72422 0
M  V30 3082 C 282.285 -4.63515 2.59475 0
M  V30 3083 C 281.324 -4.7965 3.80266 0
M  V30 3084 N 280.461 -5.99168 3.65981 0
M  V30 3085 H 285.301 -1.67392 2.46544 0
M  V30 3086 H 282.838 -0.816527 1.22357 0
M  V30 3087 H 284.796 -3.92286 1.42012 0
M  V30 3088 H 283.426 -3.18018 0.553544 0
M  V30 3089 H 282.478 -2.49242 2.87372 0
M  V30 3090 H 283.79 -3.43078 3.62076 0
M  V30 3091 H 282.944 -5.51638 2.52548 0
M  V30 3092 H 281.683 -4.58076 1.67384 0
M  V30 3093 H 280.688 -3.89957 3.87574 0
M  V30 3094 H 281.913 -4.86902 4.73395 0
M  V30 3095 H 279.859 -5.94814 2.76644 0
M  V30 3096 H 279.776 -6.08035 4.49254 0
M  V30 3097 H 281.044 -6.89846 3.6295 0
M  V30 3098 N 285.273 -1.31445 -0.869486 0
M  V30 3099 C 286.236 -1.19094 -1.9583 0
M  V30 3100 C 287.236 -0.117906 -1.60367 0
M  V30 3101 O 288.426 -0.367208 -1.70286 0
M  V30 3102 C 285.558 -0.828165 -3.30688 0
M  V30 3103 H 286.751 -2.15842 -2.08212 0
M  V30 3104 H 284.304 -1.15063 -1.05784 0
M  V30 3105 H 285.039 0.138142 -3.24006 0
M  V30 3106 H 284.824 -1.6038 -3.578 0
M  V30 3107 H 286.314 -0.765658 -4.10521 0
M  V30 3108 N 286.751 1.08385 -1.14413 0
M  V30 3109 C 288.167 1.32844 -0.884563 0
M  V30 3110 C 288.367 1.95841 0.474181 0
M  V30 3111 O 287.423 2.21158 1.21842 0
M  V30 3112 C 288.736 2.22978 -2.01745 0
M  V30 3113 C 290.284 2.36458 -2.05077 0
M  V30 3114 C 290.759 3.29934 -3.1766 0
M  V30 3115 N 292.25 3.37511 -3.17239 0
M  V30 3116 C 292.985 4.09871 -4.0099 0
M  V30 3117 N 292.481 4.84936 -4.94781 0
M  V30 3118 N 294.274 4.05704 -3.89051 0
M  V30 3119 H 286.425 0.658756 -2.01926 0
M  V30 3120 H 288.688 0.352821 -0.879899 0
M  V30 3121 H 288.394 1.83934 -2.99769 0
M  V30 3122 H 288.268 3.23441 -1.94077 0
M  V30 3123 H 290.655 2.7476 -1.0766 0
M  V30 3124 H 290.736 1.35736 -2.16816 0
M  V30 3125 H 290.38 2.92352 -4.15322 0
M  V30 3126 H 290.31 4.30584 -3.03158 0
M  V30 3127 H 292.801 2.83996 -2.49308 0
M  V30 3128 H 293.114 5.37612 -5.55151 0
M  V30 3129 H 291.459 4.83988 -4.98779 0
M  V30 3130 H 294.65 3.46167 -3.15097 0
M  V30 3131 H 294.823 4.61834 -4.54547 0
M  V30 3132 N 288.23 0.939286 1.26551 0
M  V30 3133 C 289.455 0.602008 1.98471 0
M  V30 3134 C 289.88 -0.815624 1.69497 0
M  V30 3135 O 289.238 -1.54912 0.941905 0
M  V30 3136 C 289.286 0.848407 3.50477 0
M  V30 3137 O 288.39 -0.0804009 4.12322 0
M  V30 3138 H 287.731 0.23049 0.622712 0
M  V30 3139 H 290.261 1.2617 1.61066 0
M  V30 3140 H 290.271 0.768553 4.00696 0
M  V30 3141 H 288.946 1.88171 3.70897 0
M  V30 3142 H 287.523 0.0503508 3.72866 0
M  V30 3143 N 289.708 -1.40897 0.706093 0
M  V30 3144 C 290.954 -2.01352 0.241889 0
M  V30 3145 C 291.287 -1.55832 -1.15888 0
M  V30 3146 O 290.562 -0.774145 -1.7843 0
M  V30 3147 C 290.845 -3.58752 0.311311 0
M  V30 3148 C 290.698 -4.1437 1.74978 0
M  V30 3149 C 292.017 -4.38914 -0.322922 0
M  V30 3150 H 289.136 -0.731562 0.0893687 0
M  V30 3151 H 291.778 -1.67504 0.896802 0
M  V30 3152 H 289.928 -3.87718 -0.246302 0
M  V30 3153 H 291.6 -3.96239 2.36205 0
M  V30 3154 H 289.843 -3.69016 2.28057 0
M  V30 3155 H 290.514 -5.23532 1.74981 0
M  V30 3156 H 292.99 -4.15822 0.152089 0
M  V30 3157 H 291.866 -5.48358 -0.243855 0
M  V30 3158 H 292.127 -4.19176 -1.40513 0
M  V30 3159 N 291.186 -0.45159 -1.50991 0
M  V30 3160 C 292.116 0.342898 -2.30969 0
M  V30 3161 C 293.097 1.00815 -1.37005 0
M  V30 3162 O 294.282 1.00907 -1.65926 0
M  V30 3163 C 291.412 1.43637 -3.16205 0
M  V30 3164 C 290.366 0.893818 -4.18563 0
M  V30 3165 C 289.692 2.08411 -4.92411 0
M  V30 3166 C 290.992 -0.0815568 -5.22236 0
M  V30 3167 H 292.686 -0.324556 -2.97636 0
M  V30 3168 H 290.232 -0.157531 -1.43136 0
M  V30 3169 H 292.185 1.9995 -3.70942 0
M  V30 3170 H 290.909 2.13232 -2.47386 0
M  V30 3171 H 289.568 0.352798 -3.64898 0
M  V30 3172 H 289.216 2.76658 -4.20082 0
M  V30 3173 H 288.916 1.72741 -5.61636 0
M  V30 3174 H 290.44 2.65251 -5.49976 0
M  V30 3175 H 291.854 0.391742 -5.7196 0
M  V30 3176 H 290.251 -0.351551 -5.99069 0
M  V30 3177 H 291.321 -1.01374 -4.74185 0
M  V30 3178 N 292.664 1.56529 -0.183458 0
M  V30 3179 C 293.574 2.22144 0.754272 0
M  V30 3180 C 294.59 1.21684 1.24374 0
M  V30 3181 O 295.766 1.54385 1.29333 0
M  V30 3182 C 292.831 2.85884 1.96141 0
M  V30 3183 C 291.892 4.01579 1.51765 0
M  V30 3184 C 291.125 4.6227 2.66725 0
M  V30 3185 O 291.348 4.21865 3.83909 0
M  V30 3186 O 290.282 5.51936 2.40104 0
M  V30 3187 H 294.108 3.02861 0.225527 0
M  V30 3188 H 291.693 1.49331 0.0453032 0
M  V30 3189 H 293.575 3.26253 2.66715 0
M  V30 3190 H 292.25 2.08154 2.47899 0
M  V30 3191 H 291.157 3.65856 0.781049 0
M  V30 3192 H 292.49 4.80938 1.04686 0
M  V30 3193 N 294.142 -0.090211 1.57342 0
M  V30 3194 C 295.105 -1.09335 2.01441 0
M  V30 3195 C 296.105 -1.32666 0.908641 0
M  V30 3196 O 297.295 -1.28697 1.174 0
M  V30 3197 C 294.427 -2.44136 2.3793 0
M  V30 3198 H 295.62 -0.713662 2.91285 0
M  V30 3199 H 293.173 -0.335404 1.52659 0
M  V30 3200 H 293.908 -2.86972 1.51055 0
M  V30 3201 H 293.693 -2.28548 3.18603 0
M  V30 3202 H 295.183 -3.16277 2.72688 0
M  V30 3203 N 295.62 -1.53406 -0.361157 0
M  V30 3204 C 296.55 -1.83136 -1.44857 0
M  V30 3205 C 297.531 -0.685174 -1.5569 0
M  V30 3206 O 298.716 -0.93544 -1.70186 0
M  V30 3207 C 295.846 -2.02522 -2.82138 0
M  V30 3208 C 294.8 -3.18302 -2.86126 0
M  V30 3209 C 294.126 -3.22989 -4.26125 0
M  V30 3210 C 295.426 -4.56796 -2.53248 0
M  V30 3211 H 297.12 -2.74201 -1.20226 0
M  V30 3212 H 294.666 -1.31938 -0.576922 0
M  V30 3213 H 296.619 -2.21904 -3.58241 0
M  V30 3214 H 295.343 -1.08172 -3.08166 0
M  V30 3215 H 294.002 -2.98747 -2.12475 0
M  V30 3216 H 293.65 -2.26267 -4.49235 0
M  V30 3217 H 293.35 -4.00781 -4.29708 0
M  V30 3218 H 294.874 -3.44559 -5.04094 0
M  V30 3219 H 296.288 -4.7631 -3.19064 0
M  V30 3220 H 294.685 -5.36862 -2.68141 0
M  V30 3221 H 295.755 -4.61606 -1.48484 0
M  V30 3222 N 297.098 0.621204 -1.44841 0
M  V30 3223 C 298.03 1.74615 -1.48466 0
M  V30 3224 C 299.043 1.58377 -0.37691 0
M  V30 3225 O 300.232 1.66508 -0.643215 0
M  V30 3226 C 297.332 3.12459 -1.31236 0
M  V30 3227 C 296.505 3.55064 -2.55438 0
M  V30 3228 C 295.564 4.71821 -2.32963 0
M  V30 3229 O 294.59 4.79628 -3.06505 0
M  V30 3230 N 295.792 5.64186 -1.36654 0
M  V30 3231 H 298.557 1.71973 -2.45449 0
M  V30 3232 H 296.118 0.806077 -1.40407 0
M  V30 3233 H 298.11 3.88302 -1.14032 0
M  V30 3234 H 296.68 3.09686 -0.4258 0
M  V30 3235 H 295.9 2.69324 -2.87851 0
M  V30 3236 H 297.188 3.80284 -3.38026 0
M  V30 3237 H 296.586 5.6058 -0.759344 0
M  V30 3238 H 295.143 6.39618 -1.25425 0
M  V30 3239 N 298.576 1.31904 0.862503 0
M  V30 3240 C 299.508 1.16005 1.97675 0
M  V30 3241 C 300.521 0.0971234 1.6251 0
M  V30 3242 O 301.71 0.345337 1.75128 0
M  V30 3243 C 298.81 0.751791 3.30456 0
M  V30 3244 C 297.983 1.90133 3.93914 0
M  V30 3245 C 297.042 1.4779 5.05019 0
M  V30 3246 O 296.068 2.18872 5.25437 0
M  V30 3247 N 297.27 0.369491 5.79323 0
M  V30 3248 H 300.035 2.11982 2.11857 0
M  V30 3249 H 297.596 1.24337 1.03691 0
M  V30 3250 H 299.588 0.451084 4.02178 0
M  V30 3251 H 298.158 -0.116593 3.12382 0
M  V30 3252 H 297.378 2.36896 3.15078 0
M  V30 3253 H 298.666 2.67111 4.33047 0
M  V30 3254 H 298.064 -0.222299 5.65263 0
M  V30 3255 H 296.621 0.128354 6.51674 0
M  V30 3256 N 300.054 -1.07777 1.14986 0
M  V30 3257 C 301.004 -2.13082 0.811181 0
M  V30 3258 C 301.988 -1.59619 -0.202597 0
M  V30 3259 O 303.18 -1.77 -0.00398275 0
M  V30 3260 C 300.309 -3.42009 0.297439 0
M  V30 3261 C 299.395 -4.02337 1.34112 0
M  V30 3262 N 299.786 -4.36982 2.54716 0
M  V30 3263 C 298.084 -4.29752 1.19285 0
M  V30 3264 C 298.785 -4.84729 3.21578 0
M  V30 3265 N 297.761 -4.83233 2.48972 0
M  V30 3266 H 301.563 -2.37696 1.72853 0
M  V30 3267 H 299.077 -1.25173 1.03468 0
M  V30 3268 H 301.074 -4.16884 0.0364777 0
M  V30 3269 H 299.734 -3.18841 -0.614022 0
M  V30 3270 H 300.745 -4.27807 2.91894 0
M  V30 3271 H 297.422 -4.16106 0.340926 0
M  V30 3272 H 298.812 -5.20863 4.24442 0
M  V30 3273 N 301.532 -0.945985 -1.26051 0
M  V30 3274 C 302.948 -0.649045 -1.45807 0
M  V30 3275 C 303.148 0.796158 -1.85104 0
M  V30 3276 O 302.204 1.57233 -1.97571 0
M  V30 3277 C 303.517 -1.61458 -2.53677 0
M  V30 3278 C 305.065 -1.62481 -2.67524 0
M  V30 3279 C 305.54 -2.57776 -3.7857 0
M  V30 3280 N 307.031 -2.5609 -3.85969 0
M  V30 3281 C 307.766 -3.26508 -4.7136 0
M  V30 3282 N 307.262 -4.0637 -5.61102 0
M  V30 3283 N 309.055 -3.15437 -4.65248 0
M  V30 3284 H 301.206 -1.88005 -0.988328 0
M  V30 3285 H 303.469 -0.808198 -0.4955 0
M  V30 3286 H 303.175 -2.64644 -2.31638 0
M  V30 3287 H 303.049 -1.37036 -3.51427 0
M  V30 3288 H 305.436 -0.600167 -2.88933 0
M  V30 3289 H 305.517 -1.90958 -1.70202 0
M  V30 3290 H 305.161 -3.60361 -3.57913 0
M  V30 3291 H 305.091 -2.26587 -4.75359 0
M  V30 3292 H 307.582 -1.98105 -3.21812 0
M  V30 3293 H 307.895 -4.57042 -6.23164 0
M  V30 3294 H 306.24 -4.10469 -5.60839 0
M  V30 3295 H 309.431 -2.52525 -3.94143 0
M  V30 3296 H 309.604 -3.70584 -5.31575 0
M  V30 3297 N 303.011 1.40521 -0.713556 0
M  V30 3298 C 304.422 1.83853 -0.324807 0
M  V30 3299 C 304.773 1.59667 1.14021 0
M  V30 3300 O 303.898 1.07649 1.87725 0
M  V30 3301 C 304.493 3.33751 -0.582746 0
M  V30 3302 C 303.052 3.75584 -0.247727 0
M  V30 3303 C 302.199 2.63753 -0.856121 0
M  V30 3304 H 305.15 1.29817 -0.91286 0
M  V30 3305 H 305.171 3.80194 0.152682 0
M  V30 3306 H 304.683 3.51322 -1.64908 0
M  V30 3307 H 302.784 3.63608 0.813624 0
M  V30 3308 H 302.897 4.7373 -0.715307 0
M  V30 3309 H 301.261 2.53108 -0.28432 0
M  V30 3310 H 302.044 2.84137 -1.92668 0
M  V30 3311 N 304.489 0.459591 1.5075 0
M  V30 3312 C 305.714 -0.0996819 2.0716 0
M  V30 3313 C 306.139 -1.33761 1.32249 0
M  V30 3314 O 305.497 -1.77551 0.366786 0
M  V30 3315 C 305.545 -0.378226 3.58611 0
M  V30 3316 O 304.649 -1.46081 3.85661 0
M  V30 3317 H 303.99 0.00791392 0.663953 0
M  V30 3318 H 306.52 0.647329 1.9409 0
M  V30 3319 H 306.53 -0.622135 4.03229 0
M  V30 3320 H 305.205 0.526439 4.12555 0
M  V30 3321 H 303.782 -1.20511 3.5289 0
M  V30 3322 N 305.967 -1.56429 0.191757 0
M  V30 3323 C 307.378 -1.83912 -0.321428 0
M  V30 3324 C 307.729 -1.11231 -1.61623 0
M  V30 3325 O 306.854 -0.37202 -2.13178 0
M  V30 3326 C 307.449 -3.33624 -0.589961 0
M  V30 3327 C 306.008 -3.6153 -1.04753 0
M  V30 3328 C 305.155 -2.7714 -0.0943327 0
M  V30 3329 H 308.106 -1.53161 0.415612 0
M  V30 3330 H 308.127 -3.52213 -1.43966 0
M  V30 3331 H 307.639 -3.86495 0.352588 0
M  V30 3332 H 305.74 -3.14089 -2.00447 0
M  V30 3333 H 305.853 -4.69737 -0.942549 0
M  V30 3334 H 304.217 -2.47638 -0.595589 0
M  V30 3335 H 305 -3.32799 0.842601 0
M  V30 3336 N 307.445 0.0818655 -1.57387 0
M  V30 3337 C 308.355 1.11642 -2.06333 0
M  V30 3338 C 309.371 1.43033 -0.99083 0
M  V30 3339 O 310.547 1.53411 -1.30488 0
M  V30 3340 C 307.612 2.41342 -2.48907 0
M  V30 3341 C 306.673 2.17014 -3.7041 0
M  V30 3342 C 305.906 3.4053 -4.10944 0
M  V30 3343 O 306.129 4.4927 -3.51444 0
M  V30 3344 O 305.063 3.29336 -5.03807 0
M  V30 3345 H 308.889 0.730657 -2.9478 0
M  V30 3346 H 306.474 0.295301 -1.46452 0
M  V30 3347 H 308.356 3.17691 -2.76858 0
M  V30 3348 H 307.031 2.79319 -1.63593 0
M  V30 3349 H 305.938 1.38403 -3.47556 0
M  V30 3350 H 307.271 1.83923 -4.56545 0
M  V30 3351 N 308.923 1.53595 0.353017 0
M  V30 3352 C 309.853 1.83902 1.43883 0
M  V30 3353 C 310.834 0.693421 1.55324 0
M  V30 3354 O 312.019 0.944452 1.69687 0
M  V30 3355 C 309.149 2.04016 2.8106 0
M  V30 3356 C 308.103 3.19814 2.84434 0
M  V30 3357 C 307.429 3.25244 4.24406 0
M  V30 3358 C 308.729 4.58133 2.50822 0
M  V30 3359 H 310.423 2.74835 1.1877 0
M  V30 3360 H 307.969 1.32242 0.569917 0
M  V30 3361 H 309.922 2.238 3.57059 0
M  V30 3362 H 308.646 1.09804 3.07588 0
M  V30 3363 H 307.305 2.9987 2.10887 0
M  V30 3364 H 306.953 2.28646 4.48029 0
M  V30 3365 H 306.653 4.03054 4.27576 0
M  V30 3366 H 308.177 3.47228 5.0226 0
M  V30 3367 H 309.591 4.77995 3.16534 0
M  V30 3368 H 307.988 5.38276 2.6529 0
M  V30 3369 H 309.058 4.62387 1.46034 0
M  V30 3370 N 310.401 -0.613514 1.45168 0
M  V30 3371 C 311.629 -1.39946 1.5239 0
M  V30 3372 C 312.044 -1.88167 0.154531 0
M  V30 3373 O 311.401 -1.61872 -0.842843 0
M  V30 3374 C 311.452 -2.60795 2.50337 0
M  V30 3375 O 311.173 -2.1458 3.81952 0
M  V30 3376 C 312.674 -3.53723 2.67198 0
M  V30 3377 H 309.894 -0.428593 0.516284 0
M  V30 3378 H 312.438 -0.748753 1.903 0
M  V30 3379 H 310.593 -3.21919 2.15515 0
M  V30 3380 H 311.007 -2.93055 4.34993 0
M  V30 3381 H 312.481 -4.35079 3.39721 0
M  V30 3382 H 312.958 -4.0368 1.73029 0
M  V30 3383 H 313.564 -2.98456 3.02992 0
M  V30 3384 N 311.879 -1.3236 -0.855495 0
M  V30 3385 C 312.809 -1.23833 -1.97958 0
M  V30 3386 C 313.79 -0.122361 -1.69659 0
M  V30 3387 O 314.975 -0.30939 -1.9172 0
M  V30 3388 C 312.105 -0.959772 -3.33775 0
M  V30 3389 C 311.059 -2.03689 -3.76424 0
M  V30 3390 C 310.385 -1.61075 -5.09862 0
M  V30 3391 C 311.685 -3.4518 -3.9198 0
M  V30 3392 H 313.379 -2.1788 -2.0535 0
M  V30 3393 H 310.925 -1.04891 -0.986605 0
M  V30 3394 H 312.878 -0.886678 -4.11966 0
M  V30 3395 H 311.602 0.0163404 -3.26596 0
M  V30 3396 H 310.261 -2.10012 -3.00484 0
M  V30 3397 H 309.909 -0.622107 -4.99138 0
M  V30 3398 H 309.609 -2.33143 -5.39368 0
M  V30 3399 H 311.133 -1.55201 -5.90546 0
M  V30 3400 H 312.547 -3.4145 -4.60526 0
M  V30 3401 H 310.944 -4.1559 -4.32903 0
M  V30 3402 H 312.014 -3.84903 -2.94919 0
M  V30 3403 N 313.357 1.07166 -1.15556 0
M  V30 3404 C 314.582 1.84053 -0.955988 0
M  V30 3405 C 315.007 1.81586 0.490739 0
M  V30 3406 O 314.365 1.21018 1.34997 0
M  V30 3407 C 314.413 3.28957 -1.47714 0
M  V30 3408 O 313.517 4.06795 -0.677593 0
M  V30 3409 H 312.858 0.569842 -0.340847 0
M  V30 3410 H 315.388 1.35178 -1.53584 0
M  V30 3411 H 315.398 3.79788 -1.4908 0
M  V30 3412 H 314.073 3.30068 -2.53037 0
M  V30 3413 H 312.65 3.6561 -0.733721 0
M  V30 3414 N 314.835 0.952656 1.25548 0
M  V30 3415 C 315.767 0.428609 2.25157 0
M  V30 3416 C 316.78 -0.454428 1.56329 0
M  V30 3417 O 317.969 -0.263023 1.76552 0
M  V30 3418 C 315.069 -0.401972 3.36508 0
M  V30 3419 C 314.242 0.467601 4.34893 0
M  V30 3420 C 313.301 -0.30445 5.25319 0
M  V30 3421 O 312.327 0.296473 5.68427 0
M  V30 3422 N 313.529 -1.59805 5.5807 0
M  V30 3423 H 316.294 1.28497 2.70756 0
M  V30 3424 H 313.855 0.822798 1.39433 0
M  V30 3425 H 315.847 -0.926134 3.9396 0
M  V30 3426 H 314.417 -1.15918 2.90313 0
M  V30 3427 H 313.637 1.17288 3.76347 0
M  V30 3428 H 314.925 1.06119 4.97611 0
M  V30 3429 H 314.323 -2.10823 5.24948 0
M  V30 3430 H 312.88 -2.06822 6.18116 0
M  V30 3431 N 316.313 -1.40141 0.720998 0
M  V30 3432 C 317.26 -2.30688 0.071919 0
M  V30 3433 C 318.23 -1.48476 -0.744584 0
M  V30 3434 O 319.415 -1.77201 -0.707423 0
M  V30 3435 C 316.555 -3.34724 -0.839855 0
M  V30 3436 C 315.668 -4.31998 -0.0122438 0
M  V30 3437 C 314.803 -5.23102 -0.923995 0
M  V30 3438 C 313.842 -6.12033 -0.0907969 0
M  V30 3439 N 312.979 -6.95537 -0.957718 0
M  V30 3440 H 317.819 -2.85628 0.849755 0
M  V30 3441 H 315.356 -1.40653 0.430726 0
M  V30 3442 H 317.314 -3.93618 -1.38279 0
M  V30 3443 H 315.944 -2.81274 -1.58381 0
M  V30 3444 H 314.996 -3.74841 0.64794 0
M  V30 3445 H 316.308 -4.94772 0.632595 0
M  V30 3446 H 315.462 -5.86953 -1.53527 0
M  V30 3447 H 314.201 -4.60615 -1.60264 0
M  V30 3448 H 313.206 -5.47207 0.533377 0
M  V30 3449 H 314.431 -6.76581 0.584428 0
M  V30 3450 H 312.377 -6.35633 -1.62192 0
M  V30 3451 H 312.294 -7.55099 -0.36904 0
M  V30 3452 H 313.562 -7.63832 -1.555 0
M  V30 3453 N 317.792 -0.46758 -1.50504 0
M  V30 3454 C 319.041 0.0902868 -2.01498 0
M  V30 3455 C 319.354 1.411 -1.35463 0
M  V30 3456 O 320.56 2.0536 -1.77594 0
M  V30 3457 C 319.016 0.21142 -3.59278 0
M  V30 3458 C 318.624 -1.10065 -4.34269 0
M  V30 3459 C 320.368 0.721433 -4.18325 0
M  V30 3460 C 318.275 -0.943505 -5.83825 0
M  V30 3461 H 317.205 0.037517 -0.753066 0
M  V30 3462 H 319.856 -0.601943 -1.73346 0
M  V30 3463 H 318.238 0.967352 -3.84003 0
M  V30 3464 H 319.412 -1.86726 -4.21272 0
M  V30 3465 H 317.727 -1.5415 -3.86816 0
M  V30 3466 H 320.324 0.85598 -5.27804 0
M  V30 3467 H 320.667 1.71186 -3.79475 0
M  V30 3468 H 321.2 0.0229843 -3.97793 0
M  V30 3469 H 317.939 -1.90719 -6.27141 0
M  V30 3470 H 317.459 -0.217213 -5.99407 0
M  V30 3471 H 319.138 -0.608715 -6.4413 0
M  V30 3472 N 319.27 1.56325 -0.20005 0
M  V30 3473 C 320.686 1.58839 0.155716 0
M  V30 3474 C 320.886 1.21636 1.60645 0
M  V30 3475 O 319.942 0.941437 2.34293 0
M  V30 3476 C 321.255 3.0032 -0.151124 0
M  V30 3477 C 322.803 3.12866 -0.0916284 0
M  V30 3478 C 323.278 4.56488 -0.371845 0
M  V30 3479 N 324.769 4.62089 -0.320641 0
M  V30 3480 C 325.504 5.71116 -0.511243 0
M  V30 3481 N 325 6.88592 -0.762461 0
M  V30 3482 N 326.793 5.60335 -0.445157 0
M  V30 3483 H 318.944 1.78788 -1.14668 0
M  V30 3484 H 321.207 0.829996 -0.458051 0
M  V30 3485 H 320.913 3.32117 -1.15721 0
M  V30 3486 H 320.787 3.73257 0.543986 0
M  V30 3487 H 323.174 2.80878 0.905065 0
M  V30 3488 H 323.255 2.42304 -0.81989 0
M  V30 3489 H 322.899 4.89189 -1.36588 0
M  V30 3490 H 322.829 5.25246 0.377362 0
M  V30 3491 H 325.32 3.77665 -0.13329 0
M  V30 3492 H 325.633 7.67581 -0.896576 0
M  V30 3493 H 323.978 6.90387 -0.799412 0
M  V30 3494 H 327.169 4.67436 -0.249278 0
M  V30 3495 H 327.342 6.45243 -0.597116 0
M  V30 3496 N 320.748 -0.0735177 1.57428 0
M  V30 3497 C 321.976 -0.785969 1.9139 0
M  V30 3498 C 322.391 -1.71207 0.795847 0
M  V30 3499 O 321.748 -1.81033 -0.230915 0
M  V30 3500 C 321.799 -1.58107 3.25091 0
M  V30 3501 O 321.52 -0.6922 4.32597 0
M  V30 3502 C 323.021 -2.39467 3.73055 0
M  V30 3503 H 320.241 -0.223558 0.632663 0
M  V30 3504 H 322.785 -0.044302 2.04452 0
M  V30 3505 H 320.94 -2.27503 3.13562 0
M  V30 3506 H 321.354 -1.24504 5.09508 0
M  V30 3507 H 322.828 -2.90716 4.69242 0
M  V30 3508 H 323.305 -3.18913 3.01979 0
M  V30 3509 H 323.911 -1.7523 3.87523 0
M  V30 3510 N 322.226 -1.5378 -0.344866 0
M  V30 3511 C 323.173 -1.81676 -1.42346 0
M  V30 3512 C 324.143 -0.662376 -1.52321 0
M  V30 3513 O 325.328 -0.906675 -1.67881 0
M  V30 3514 C 322.468 -2.03087 -2.79015 0
M  V30 3515 C 321.581 -3.30799 -2.77842 0
M  V30 3516 C 320.716 -3.42285 -4.0622 0
M  V30 3517 C 319.755 -4.6395 -3.9927 0
M  V30 3518 N 318.892 -4.72477 -5.19336 0
M  V30 3519 H 323.732 -2.73703 -1.17858 0
M  V30 3520 H 321.269 -1.35568 -0.570949 0
M  V30 3521 H 323.227 -2.1349 -3.58438 0
M  V30 3522 H 321.857 -1.14375 -3.01858 0
M  V30 3523 H 320.909 -3.29244 -1.90533 0
M  V30 3524 H 322.221 -4.20314 -2.68584 0
M  V30 3525 H 321.375 -3.52113 -4.94066 0
M  V30 3526 H 320.114 -2.50823 -4.18258 0
M  V30 3527 H 319.119 -4.54201 -3.09809 0
M  V30 3528 H 320.344 -5.56775 -3.88817 0
M  V30 3529 H 318.29 -3.83924 -5.3192 0
M  V30 3530 H 318.207 -5.55927 -5.12329 0
M  V30 3531 H 319.475 -4.86613 -6.08957 0
M  V30 3532 N 323.704 0.605807 -1.45491 0
M  V30 3533 C 324.634 1.72709 -1.57143 0
M  V30 3534 C 325.615 1.6476 -0.422884 0
M  V30 3535 O 326.8 1.83132 -0.646247 0
M  V30 3536 C 323.93 3.11316 -1.53948 0
M  V30 3537 C 322.884 3.34077 -2.67537 0
M  V30 3538 C 322.21 4.72975 -2.49397 0
M  V30 3539 C 323.51 3.24158 -4.09535 0
M  V30 3540 H 325.204 1.63214 -2.51001 0
M  V30 3541 H 322.75 0.78379 -1.208 0
M  V30 3542 H 324.703 3.89557 -1.60696 0
M  V30 3543 H 323.427 3.21655 -0.566205 0
M  V30 3544 H 322.086 2.58227 -2.6022 0
M  V30 3545 H 321.734 4.8005 -1.50205 0
M  V30 3546 H 321.434 4.8916 -3.25571 0
M  V30 3547 H 322.958 5.53414 -2.58002 0
M  V30 3548 H 324.372 3.92271 -4.18086 0
M  V30 3549 H 322.769 3.51872 -4.86113 0
M  V30 3550 H 323.839 2.2157 -4.31317 0
M  V30 3551 N 325.182 1.32811 0.848464 0
M  V30 3552 C 326.114 1.18095 1.96433 0
M  V30 3553 C 327.127 0.114354 1.62398 0
M  V30 3554 O 328.316 0.363892 1.74751 0
M  V30 3555 C 325.416 0.786798 3.2964 0
M  V30 3556 C 324.589 1.943 3.91875 0
M  V30 3557 C 323.648 1.53138 5.03423 0
M  V30 3558 O 322.674 2.24432 5.23086 0
M  V30 3559 N 323.876 0.430915 5.78898 0
M  V30 3560 H 326.641 2.14218 2.09597 0
M  V30 3561 H 324.202 1.2543 1.02367 0
M  V30 3562 H 326.194 0.493715 4.01677 0
M  V30 3563 H 324.764 -0.0834541 3.12489 0
M  V30 3564 H 323.984 2.40224 3.12547 0
M  V30 3565 H 325.272 2.71689 4.30189 0
M  V30 3566 H 324.67 -0.162333 5.65467 0
M  V30 3567 H 323.227 0.197466 6.51501 0
M  V30 3568 N 326.66 -1.06551 1.16123 0
M  V30 3569 C 327.608 -2.16063 0.861371 0
M  V30 3570 C 328.602 -1.6856 -0.168517 0
M  V30 3571 O 329.808 -1.79986 -0.0227579 0
M  V30 3572 H 326.183 -0.705278 0.260934 0
M  V30 3573 H 328.154 -2.38567 1.79244 0
M  V30 3574 C 326.903 -3.45661 0.376018 0
M  V30 3575 H 326.226 -3.82604 1.15992 0
M  V30 3576 H 327.666 -4.23504 0.204951 0
M  V30 3577 C 326.125 -3.24546 -0.903954 0
M  V30 3578 O 326.655 -3.49865 -1.97377 0
M  V30 3579 N 324.861 -2.77992 -0.846679 0
M  V30 3580 H 324.408 -2.57589 0.0241017 0
M  V30 3581 H 324.366 -2.64244 -1.70359 0
M  V30 3582 N 328.138 -0.959301 -1.25041 0
M  V30 3583 C 329.549 -0.65667 -1.74771 0
M  V30 3584 C 329.9 0.827852 -1.77879 0
M  V30 3585 O 329.025 1.64783 -1.40269 0
M  V30 3586 C 329.62 -1.1853 -3.1739 0
M  V30 3587 C 328.179 -0.932734 -3.6466 0
M  V30 3588 C 327.326 -1.32558 -2.43564 0
M  V30 3589 H 330.277 -1.13558 -1.10862 0
M  V30 3590 H 330.298 -0.547582 -3.76539 0
M  V30 3591 H 329.81 -2.26576 -3.15095 0
M  V30 3592 H 327.911 0.13257 -3.72364 0
M  V30 3593 H 328.024 -1.57248 -4.52559 0
M  V30 3594 H 326.388 -0.743956 -2.43593 0
M  V30 3595 H 327.171 -2.41537 -2.43957 0
M  V30 3596 N 329.616 1.39756 -0.72842 0
M  V30 3597 C 330.893 1.94574 -0.200079 0
M  V30 3598 C 331.273 1.66569 1.29684 0
M  V30 3599 O 330.621 0.990326 2.05924 0
M  V30 3600 C 330.831 3.45004 -0.526608 0
M  V30 3601 C 332.179 4.21965 -0.472318 0
M  V30 3602 O 333.203 3.53173 -0.463413 0
M  V30 3603 O 332.062 5.44552 -0.461075 0
M  V30 3604 H 329.156 0.826289 -0.0342851 0
M  V30 3605 H 331.702 1.49293 -0.806829 0
M  V30 3606 H 330.474 3.58796 -1.56144 0
M  V30 3607 H 330.097 3.97449 0.109449 0
M  V30 3608 N 331.094 0.475555 1.50254 0
M  V30 3609 C 332.024 -0.30611 2.31485 0
M  V30 3610 C 333.005 -0.986228 1.38591 0
M  V30 3611 O 334.19 -0.982541 1.67511 0
M  V30 3612 C 331.32 -1.38588 3.1845 0
M  V30 3613 C 330.274 -0.827115 4.19932 0
M  V30 3614 C 329.6 -2.00551 4.95665 0
M  V30 3615 C 330.9 0.16463 5.2204 0
M  V30 3616 H 332.594 0.371866 2.97082 0
M  V30 3617 H 330.14 0.180282 1.42867 0
M  V30 3618 H 332.093 -1.94023 3.74076 0
M  V30 3619 H 330.817 -2.09269 2.50747 0
M  V30 3620 H 329.476 -0.294702 3.65414 0
M  V30 3621 H 329.124 -2.6994 4.2443 0
M  V30 3622 H 328.824 -1.63784 5.64313 0
M  V30 3623 H 330.348 -2.56468 5.54127 0
M  V30 3624 H 331.762 -0.300699 5.72511 0
M  V30 3625 H 330.159 0.446813 5.98434 0
M  V30 3626 H 331.229 1.08905 4.72512 0
M  V30 3627 N 332.573 -1.56217 0.208337 0
M  V30 3628 C 333.503 -2.22694 -0.702116 0
M  V30 3629 C 334.484 -1.19432 -1.2112 0
M  V30 3630 O 335.669 -1.47978 -1.25762 0
M  V30 3631 C 332.799 -2.8966 -1.9161 0
M  V30 3632 C 331.753 -3.9928 -1.5414 0
M  V30 3633 C 331.079 -4.53476 -2.83308 0
M  V30 3634 C 332.379 -5.17012 -0.741339 0
M  V30 3635 H 334.073 -2.99034 -0.147898 0
M  V30 3636 H 331.619 -1.43831 -0.0696951 0
M  V30 3637 H 333.572 -3.34852 -2.55836 0
M  V30 3638 H 332.296 -2.10746 -2.49507 0
M  V30 3639 H 330.955 -3.54799 -0.922668 0
M  V30 3640 H 330.603 -3.71308 -3.39322 0
M  V30 3641 H 330.303 -5.27451 -2.58976 0
M  V30 3642 H 331.827 -5.01378 -3.485 0
M  V30 3643 H 333.241 -5.58667 -1.28699 0
M  V30 3644 H 331.638 -5.97137 -0.595627 0
M  V30 3645 H 332.708 -4.8423 0.254851 0
M  V30 3646 N 334.051 0.0651679 -1.57465 0
M  V30 3647 C 334.961 1.09448 -2.07505 0
M  V30 3648 C 335.977 1.41974 -1.00595 0
M  V30 3649 O 337.153 1.52018 -1.32107 0
M  V30 3650 C 334.218 2.38689 -2.51453 0
M  V30 3651 C 333.279 2.13073 -3.72691 0
M  V30 3652 C 332.512 3.36152 -4.14533 0
M  V30 3653 O 332.735 4.45517 -3.56189 0
M  V30 3654 O 331.669 3.23974 -5.07272 0
M  V30 3655 H 335.495 0.69935 -2.95538 0
M  V30 3656 H 333.08 0.279752 -1.46757 0
M  V30 3657 H 334.962 3.14736 -2.80212 0
M  V30 3658 H 333.637 2.77568 -1.66546 0
M  V30 3659 H 332.544 1.34709 -3.49005 0
M  V30 3660 H 333.877 1.79071 -4.5847 0
M  V30 3661 N 335.529 1.53961 0.336706 0
M  V30 3662 C 336.459 1.85417 1.41925 0
M  V30 3663 C 337.44 0.709856 1.5458 0
M  V30 3664 O 338.625 0.962396 1.68676 0
M  V30 3665 C 335.755 2.06985 2.78881 0
M  V30 3666 C 334.709 3.22813 2.81026 0
M  V30 3667 C 334.035 3.29727 4.20932 0
M  V30 3668 C 335.335 4.60767 2.45949 0
M  V30 3669 H 337.029 2.76079 1.15848 0
M  V30 3670 H 334.575 1.32839 0.555859 0
M  V30 3671 H 336.528 2.27575 3.54665 0
M  V30 3672 H 335.252 1.13061 3.06406 0
M  V30 3673 H 333.911 3.0209 2.07695 0
M  V30 3674 H 333.559 2.33385 4.45579 0
M  V30 3675 H 333.259 4.07566 4.23277 0
M  V30 3676 H 334.783 3.52536 4.98549 0
M  V30 3677 H 336.197 4.81325 3.11446 0
M  V30 3678 H 334.594 5.4106 2.59566 0
M  V30 3679 H 335.664 4.6391 1.41122 0
M  V30 3680 N 337.007 -0.598083 1.45811 0
M  V30 3681 C 338.247 -1.36802 1.5187 0
M  V30 3682 C 338.611 -1.9133 0.160224 0
M  V30 3683 O 339.812 -2.6863 0.0955302 0
M  V30 3684 C 338.083 -2.47835 2.57513 0
M  V30 3685 S 339.642 -3.35458 2.82866 0
M  V30 3686 H 336.46 -0.466278 0.536755 0
M  V30 3687 H 339.062 -0.689152 1.82951 0
M  V30 3688 H 337.766 -2.06141 3.54872 0
M  V30 3689 H 337.297 -3.20512 2.28114 0
M  V30 3690 H 339.312 -4.46251 2.16967 0
M  V30 3691 N 338.485 -1.33259 -0.841409 0
M  V30 3692 C 339.435 -1.19872 -1.93945 0
M  V30 3693 C 340.419 -0.102269 -1.60575 0
M  V30 3694 O 341.611 -0.330114 -1.73894 0
M  V30 3695 C 338.74 -0.937517 -3.30251 0
M  V30 3696 C 337.826 -2.07629 -3.69799 0
M  V30 3697 N 338.217 -3.32604 -3.81062 0
M  V30 3698 C 336.515 -1.98242 -3.9952 0
M  V30 3699 C 337.216 -4.07275 -4.15333 0
M  V30 3700 N 336.192 -3.35691 -4.27566 0
M  V30 3701 H 339.994 -2.14604 -2.00805 0
M  V30 3702 H 337.508 -1.2523 -1.03398 0
M  V30 3703 H 339.505 -0.822545 -4.08705 0
M  V30 3704 H 338.165 0.00128798 -3.247 0
M  V30 3705 H 339.176 -3.67382 -3.65035 0
M  V30 3706 H 335.853 -1.12005 -4.02195 0
M  V30 3707 H 337.243 -5.1511 -4.31406 0
M  V30 3708 N 339.963 1.05934 -1.16686 0
M  V30 3709 C 341.188 1.83029 -0.975455 0
M  V30 3710 C 341.613 1.82096 0.471452 0
M  V30 3711 O 340.971 1.22443 1.33706 0
M  V30 3712 C 341.019 3.27372 -1.51195 0
M  V30 3713 O 340.123 4.06054 -0.720701 0
M  V30 3714 H 339.464 0.566194 -0.346872 0
M  V30 3715 H 341.994 1.33541 -1.55009 0
M  V30 3716 H 342.004 3.78186 -1.53099 0
M  V30 3717 H 340.679 3.27366 -2.56523 0
M  V30 3718 H 339.256 3.64812 -0.772458 0
M  V30 3719 N 341.441 0.965919 1.2453 0
M  V30 3720 C 342.687 0.62776 1.92839 0
M  V30 3721 C 343.02 -0.834694 1.75347 0
M  V30 3722 O 342.295 -1.60031 1.10546 0
M  V30 3723 C 342.578 1.00109 3.45905 0
M  V30 3724 C 342.431 2.52011 3.72573 0
M  V30 3725 C 343.75 0.53435 4.36844 0
M  V30 3726 H 340.869 0.229537 0.700344 0
M  V30 3727 H 343.511 1.2046 1.46933 0
M  V30 3728 H 341.661 0.510238 3.85135 0
M  V30 3729 H 343.333 3.08559 3.42912 0
M  V30 3730 H 341.576 2.95287 3.17786 0
M  V30 3731 H 342.247 2.73183 4.79661 0
M  V30 3732 H 344.723 0.955565 4.04979 0
M  V30 3733 H 343.599 0.824152 5.42678 0
M  V30 3734 H 343.86 -0.565589 4.38467 0
M  V30 3735 N 342.919 -1.39368 0.735821 0
M  V30 3736 C 344.33 -1.83313 0.354015 0
M  V30 3737 C 344.681 -1.61461 -1.11466 0
M  V30 3738 O 343.806 -1.10621 -1.85989 0
M  V30 3739 C 344.401 -3.32781 0.635769 0
M  V30 3740 C 342.96 -3.75142 0.307448 0
M  V30 3741 C 342.107 -2.62358 0.897974 0
M  V30 3742 H 345.058 -1.28349 0.933398 0
M  V30 3743 H 345.079 -3.80388 -0.0921773 0
M  V30 3744 H 344.591 -3.48654 1.70476 0
M  V30 3745 H 342.692 -3.64857 -0.755674 0
M  V30 3746 H 342.805 -4.72532 0.790583 0
M  V30 3747 H 341.169 -2.52624 0.324551 0
M  V30 3748 H 341.952 -2.81036 1.97164 0
M  V30 3749 N 344.397 -0.483516 -1.5 0
M  V30 3750 C 345.344 0.304164 -2.28787 0
M  V30 3751 C 346.314 0.976114 -1.34392 0
M  V30 3752 O 347.499 0.986156 -1.63339 0
M  V30 3753 C 344.639 1.37298 -3.16612 0
M  V30 3754 C 343.752 0.714561 -4.26049 0
M  V30 3755 C 342.887 1.76232 -5.01114 0
M  V30 3756 C 341.926 1.08483 -6.0241 0
M  V30 3757 N 341.063 2.076 -6.70706 0
M  V30 3758 H 345.903 -0.373981 -2.95644 0
M  V30 3759 H 343.44 -0.196275 -1.45785 0
M  V30 3760 H 345.398 2.00445 -3.65893 0
M  V30 3761 H 344.028 2.02012 -2.51776 0
M  V30 3762 H 343.08 -0.0297798 -3.80388 0
M  V30 3763 H 344.392 0.180383 -4.98474 0
M  V30 3764 H 343.546 2.46929 -5.54176 0
M  V30 3765 H 342.285 2.33033 -4.28424 0
M  V30 3766 H 341.29 0.363545 -5.48597 0
M  V30 3767 H 342.515 0.523551 -6.77079 0
M  V30 3768 H 340.461 2.63394 -6.00799 0
M  V30 3769 H 340.378 1.59201 -7.39047 0
M  V30 3770 H 341.646 2.77639 -7.2838 0
M  V30 3771 N 345.875 1.56104 -0.216619 0
M  V30 3772 C 346.785 2.23694 0.706982 0
M  V30 3773 C 347.801 1.24295 1.21765 0
M  V30 3774 O 348.977 1.57094 1.2603 0
M  V30 3775 C 346.042 2.8998 1.90033 0
M  V30 3776 C 345.103 4.04708 1.43213 0
M  V30 3777 C 344.336 4.67824 2.56859 0
M  V30 3778 O 344.559 4.29913 3.74874 0
M  V30 3779 O 343.493 5.56905 2.28343 0
M  V30 3780 H 347.319 3.03272 0.161235 0
M  V30 3781 H 344.904 1.49394 0.0136177 0
M  V30 3782 H 346.786 3.31837 2.59735 0
M  V30 3783 H 345.461 2.13365 2.43428 0
M  V30 3784 H 344.368 3.6743 0.70327 0
M  V30 3785 H 345.701 4.83051 0.944615 0
M  V30 3786 N 347.353 -0.0568162 1.57498 0
M  V30 3787 C 348.599 -0.75422 1.88253 0
M  V30 3788 C 348.932 -1.76461 0.810865 0
M  V30 3789 O 348.207 -1.93691 -0.177259 0
M  V30 3790 C 348.49 -1.44878 3.2967 0
M  V30 3791 C 348.343 -0.453789 4.47505 0
M  V30 3792 C 349.662 -2.38994 3.69554 0
M  V30 3793 H 346.781 -0.272724 0.684683 0
M  V30 3794 H 349.423 -0.0172113 1.89992 0
M  V30 3795 H 347.573 -2.077 3.28318 0
M  V30 3796 H 349.245 0.170371 4.60985 0
M  V30 3797 H 347.488 0.229552 4.33192 0
M  V30 3798 H 348.159 -0.977699 5.43273 0
M  V30 3799 H 350.635 -1.86239 3.72095 0
M  V30 3800 H 349.511 -2.84587 4.69363 0
M  V30 3801 H 349.772 -3.24461 3.00296 0
M  V30 3802 N 348.832 -1.54138 -0.328536 0
M  V30 3803 C 350.078 -1.7236 -1.06865 0
M  V30 3804 C 350.411 -0.493231 -1.87832 0
M  V30 3805 O 349.686 0.5098 -1.877 0
M  V30 3806 C 349.969 -2.99621 -1.99747 0
M  V30 3807 C 349.822 -4.32899 -1.22143 0
M  V30 3808 C 351.141 -3.22615 -2.99345 0
M  V30 3809 H 348.26 -0.627151 -0.387105 0
M  V30 3810 H 350.902 -1.86827 -0.345767 0
M  V30 3811 H 349.052 -2.87418 -2.61387 0
M  V30 3812 H 350.724 -4.56978 -0.630017 0
M  V30 3813 H 348.967 -4.30628 -0.523628 0
M  V30 3814 H 349.638 -5.18154 -1.90318 0
M  V30 3815 H 352.114 -3.34248 -2.47826 0
M  V30 3816 H 350.99 -4.13027 -3.61524 0
M  V30 3817 H 351.251 -2.3961 -3.71536 0
M  V30 3818 N 350.31 0.590341 -1.46126 0
M  V30 3819 C 351.242 1.71427 -1.52136 0
M  V30 3820 C 352.255 1.57542 -0.41042 0
M  V30 3821 O 353.444 1.65106 -0.678389 0
M  V30 3822 C 350.544 3.09605 -1.37834 0
M  V30 3823 C 349.717 3.49566 -2.62912 0
M  V30 3824 C 348.776 4.66773 -2.42918 0
M  V30 3825 O 347.802 4.73019 -3.1661 0
M  V30 3826 N 349.004 5.61161 -1.4859 0
M  V30 3827 H 351.769 1.66728 -2.49042 0
M  V30 3828 H 349.33 0.776113 -1.42085 0
M  V30 3829 H 351.322 3.85796 -1.22243 0
M  V30 3830 H 349.892 3.08714 -0.491393 0
M  V30 3831 H 349.112 2.63158 -2.93499 0
M  V30 3832 H 350.4 3.73028 -3.46017 0
M  V30 3833 H 349.798 5.58844 -0.87808 0
M  V30 3834 H 348.355 6.36814 -1.38965 0
M  V30 3835 N 351.788 1.33704 0.83433 0
M  V30 3836 C 352.718 1.26967 1.95963 0
M  V30 3837 C 353.699 0.149337 1.69443 0
M  V30 3838 O 354.884 0.339852 1.91203 0
M  V30 3839 C 352.014 1.01275 3.32206 0
M  V30 3840 C 350.968 2.09652 3.73136 0
M  V30 3841 C 350.294 1.69166 5.07235 0
M  V30 3842 C 351.594 3.51372 3.86439 0
M  V30 3843 H 353.288 2.2112 2.01857 0
M  V30 3844 H 350.834 1.06447 0.969793 0
M  V30 3845 H 352.787 0.952106 4.10503 0
M  V30 3846 H 351.511 0.0356203 3.26581 0
M  V30 3847 H 350.17 2.14766 2.97104 0
M  V30 3848 H 349.818 0.701437 4.98085 0
M  V30 3849 H 349.518 2.41694 5.35591 0
M  V30 3850 H 351.042 1.64576 5.88003 0
M  V30 3851 H 352.456 3.48734 4.55036 0
M  V30 3852 H 350.853 4.22425 4.26236 0
M  V30 3853 H 351.923 3.89546 2.88759 0
M  V30 3854 N 353.266 -1.05314 1.17247 0
M  V30 3855 C 354.514 -1.77941 0.958194 0
M  V30 3856 C 354.835 -1.88089 -0.514556 0
M  V30 3857 O 354.105 -1.39676 -1.37359 0
M  V30 3858 H 352.685 -0.659116 0.351533 0
M  V30 3859 H 355.347 -1.27166 1.47699 0
M  V30 3860 H 354.443 -2.79663 1.38546 0
M  V30 3861 N 354.744 -0.972509 -1.24016 0
M  V30 3862 C 355.992 -0.635776 -1.91839 0
M  V30 3863 C 356.313 0.832312 -1.76345 0
M  V30 3864 O 355.583 1.5946 -1.13795 0
M  V30 3865 H 354.163 -0.232157 -0.710009 0
M  V30 3866 H 356.825 -1.23462 -1.50809 0
M  V30 3867 H 355.921 -0.880545 -2.99421 0
M  V30 3868 N 356.222 1.38976 -0.743202 0
M  V30 3869 C 357.169 2.30544 -0.10861 0
M  V30 3870 C 358.139 1.49642 0.720869 0
M  V30 3871 O 359.324 1.78304 0.679142 0
M  V30 3872 C 356.464 3.36018 0.786496 0
M  V30 3873 C 355.577 4.31963 -0.0564849 0
M  V30 3874 C 354.712 5.24506 0.840657 0
M  V30 3875 C 353.751 6.121 -0.00658363 0
M  V30 3876 N 352.888 6.96973 0.846943 0
M  V30 3877 H 357.728 2.8424 -0.895088 0
M  V30 3878 H 355.265 1.3995 -0.453048 0
M  V30 3879 H 357.223 3.95768 1.31999 0
M  V30 3880 H 355.853 2.83758 1.53887 0
M  V30 3881 H 354.905 3.73763 -0.707492 0
M  V30 3882 H 356.217 4.93703 -0.711229 0
M  V30 3883 H 355.371 5.89322 1.4417 0
M  V30 3884 H 354.11 4.63107 1.52916 0
M  V30 3885 H 353.115 5.46289 -0.620366 0
M  V30 3886 H 354.34 6.75565 -0.691992 0
M  V30 3887 H 352.286 6.38133 1.52059 0
M  V30 3888 H 352.203 7.5559 0.248864 0
M  V30 3889 H 353.471 7.6621 1.43328 0
M  V30 3890 N 357.7 0.491464 1.49741 0
M  V30 3891 C 358.948 -0.0563141 2.02022 0
M  V30 3892 C 359.269 -1.38363 1.37407 0
M  V30 3893 O 358.539 -1.88702 0.526166 0
M  V30 3894 H 357.119 -0.0238014 0.746621 0
M  V30 3895 H 359.781 0.646533 1.83864 0
M  V30 3896 H 358.877 -0.192967 3.11503 0
M  V30 3897 N 359.178 -1.55987 0.224894 0
M  V30 3898 C 360.408 -2.02489 -0.41007 0
M  V30 3899 C 360.816 -1.10391 -1.53657 0
M  V30 3900 O 360.159 -0.106458 -1.83391 0
M  V30 3901 C 360.221 -3.45319 -0.999757 0
M  V30 3902 C 359.885 -4.56999 -0.00827976 0
M  V30 3903 C 360.882 -5.13812 0.793314 0
M  V30 3904 C 358.567 -5.02176 0.111442 0
M  V30 3905 C 360.561 -6.14276 1.7013 0
M  V30 3906 C 358.248 -6.02477 1.02296 0
M  V30 3907 C 359.246 -6.58403 1.81643 0
M  V30 3908 O 358.934 -7.56751 2.71262 0
M  V30 3909 H 358.666 -0.667915 -0.104235 0
M  V30 3910 H 361.22 -2.0257 0.339782 0
M  V30 3911 H 359.45 -3.42318 -1.79876 0
M  V30 3912 H 361.139 -3.7545 -1.54248 0
M  V30 3913 H 361.905 -4.79756 0.711288 0
M  V30 3914 H 357.784 -4.58323 -0.49605 0
M  V30 3915 H 361.328 -6.57854 2.32107 0
M  V30 3916 H 357.225 -6.35954 1.10599 0
M  V30 3917 H 357.993 -7.74286 2.65375 0
M  V30 3918 N 360.656 0.0484629 -1.57525 0
M  V30 3919 C 361.904 0.741657 -1.88 0
M  V30 3920 C 362.225 1.76918 -0.820054 0
M  V30 3921 O 361.495 1.95335 0.148661 0
M  V30 3922 H 360.075 0.276908 -0.69378 0
M  V30 3923 H 362.737 0.019013 -1.94891 0
M  V30 3924 H 361.833 1.24336 -2.86264 0
M  V30 3925 N 362.134 1.5431 0.320358 0
M  V30 3926 C 363.359 1.76954 1.08175 0
M  V30 3927 C 363.784 0.518193 1.80821 0
M  V30 3928 O 363.142 -0.530411 1.73368 0
M  V30 3929 C 363.19 2.96451 2.05303 0
M  V30 3930 O 362.294 2.68221 3.13259 0
M  V30 3931 H 361.635 0.586275 0.311733 0
M  V30 3932 H 364.165 2.01342 0.363676 0
M  V30 3933 H 364.175 3.23887 2.48116 0
M  V30 3934 H 362.85 3.87196 1.51829 0
M  V30 3935 H 361.427 2.51744 2.75099 0
M  V30 3936 N 363.613 -0.582584 1.46437 0
M  V30 3937 C 364.523 -1.71949 1.59595 0
M  V30 3938 C 365.539 -1.67264 0.479443 0
M  V30 3939 O 366.715 -1.87171 0.743579 0
M  V30 3940 C 363.78 -3.08452 1.58298 0
M  V30 3941 C 362.841 -3.244 2.81182 0
M  V30 3942 C 362.074 -4.54391 2.79937 0
M  V30 3943 O 362.297 -5.38287 1.8869 0
M  V30 3944 O 361.231 -4.73588 3.71481 0
M  V30 3945 H 365.057 -1.63795 2.55744 0
M  V30 3946 H 362.642 -0.749643 1.29231 0
M  V30 3947 H 364.524 -3.89732 1.60271 0
M  V30 3948 H 363.199 -3.17043 0.653094 0
M  V30 3949 H 362.106 -2.42613 2.84763 0
M  V30 3950 H 363.439 -3.20699 3.7338 0
M  V30 3951 N 365.091 -1.34144 -0.827227 0
M  V30 3952 C 366.316 -1.29476 -1.62021 0
M  V30 3953 C 366.741 0.129292 -1.87655 0
M  V30 3954 O 366.099 1.08967 -1.449 0
M  V30 3955 C 366.147 -2.08702 -2.94068 0
M  V30 3956 O 365.251 -1.45359 -3.85933 0
M  V30 3957 H 364.592 -0.444881 -0.492927 0
M  V30 3958 H 367.122 -1.76882 -1.02829 0
M  V30 3959 H 367.132 -2.19898 -3.43669 0
M  V30 3960 H 365.807 -3.12241 -2.74734 0
M  V30 3961 H 364.384 -1.42879 -3.44442 0
M  V30 3962 N 366.569 1.04691 -1.17803 0
M  V30 3963 C 367.817 1.7743 -0.967617 0
M  V30 3964 C 368.138 1.88359 0.504574 0
M  V30 3965 O 367.408 1.40402 1.36617 0
M  V30 3966 H 365.988 0.657242 -0.355024 0
M  V30 3967 H 368.65 1.2638 -1.48371 0
M  V30 3968 H 367.746 2.78924 -1.40027 0
M  V30 3969 N 368.047 0.979072 1.23499 0
M  V30 3970 C 368.957 0.526431 2.28617 0
M  V30 3971 C 369.973 -0.418126 1.68901 0
M  V30 3972 O 371.149 -0.288372 1.99325 0
M  V30 3973 C 368.214 -0.165235 3.46306 0
M  V30 3974 C 367.275 0.82056 4.21385 0
M  V30 3975 C 366.508 0.161807 5.33455 0
M  V30 3976 O 366.731 -1.04742 5.60701 0
M  V30 3977 O 365.665 0.859708 5.95729 0
M  V30 3978 H 369.491 1.4006 2.69475 0
M  V30 3979 H 367.076 0.746643 1.29405 0
M  V30 3980 H 368.958 -0.553287 4.17752 0
M  V30 3981 H 367.633 -1.01419 3.07402 0
M  V30 3982 H 366.54 1.25929 3.52268 0
M  V30 3983 H 367.873 1.63828 4.64135 0
M  V30 3984 N 369.525 -1.3858 0.750561 0
M  V30 3985 C 370.435 -2.34278 0.122825 0
M  V30 3986 C 371.451 -1.59116 -0.704131 0
M  V30 3987 O 372.627 -1.91326 -0.628987 0
M  V30 3988 C 369.692 -3.38221 -0.762086 0
M  V30 3989 C 368.753 -4.29227 0.078896 0
M  V30 3990 C 367.986 -5.28205 -0.763874 0
M  V30 3991 O 368.209 -5.34112 -2.00201 0
M  V30 3992 O 367.143 -6.01618 -0.18428 0
M  V30 3993 H 370.969 -2.89649 0.913088 0
M  V30 3994 H 368.554 -1.40374 0.511417 0
M  V30 3995 H 370.436 -4.01872 -1.26793 0
M  V30 3996 H 369.111 -2.85211 -1.5309 0
M  V30 3997 H 368.018 -3.68747 0.630621 0
M  V30 3998 H 369.351 -4.85484 0.810289 0
M  V30 3999 N 371.003 -0.499398 -1.49478 0
M  V30 4000 C 372.28 0.108629 -1.95298 0
M  V30 4001 C 372.66 1.54282 -1.44084 0
M  V30 4002 O 372.008 2.18944 -0.653908 0
M  V30 4003 C 372.218 0.0229111 -3.48992 0
M  V30 4004 C 373.566 0.197643 -4.2414 0
M  V30 4005 O 374.59 0.0981735 -3.56065 0
M  V30 4006 O 373.449 0.401669 -5.45022 0
M  V30 4007 H 370.543 0.096181 -0.821388 0
M  V30 4008 H 373.089 -0.561822 -1.6013 0
M  V30 4009 H 371.861 -0.977321 -3.78899 0
M  V30 4010 H 371.484 0.733579 -3.90774 0
M  V30 4011 N 372.481 1.55866 -0.233164 0
M  V30 4012 C 373.728 1.98603 0.395374 0
M  V30 4013 C 374.056 1.12105 1.58942 0
M  V30 4014 O 373.311 0.168656 1.94972 0
M  V30 4015 C 373.61 3.46856 0.861724 0
M  V30 4016 C 373.276 4.50348 -0.223066 0
M  V30 4017 C 371.938 4.78371 -0.521038 0
M  V30 4018 C 374.29 5.12355 -0.956124 0
M  V30 4019 C 371.618 5.6568 -1.55638 0
M  V30 4020 C 373.97 6.00786 -1.98089 0
M  V30 4021 C 372.634 6.27148 -2.28565 0
M  V30 4022 H 371.904 0.726739 0.144677 0
M  V30 4023 H 374.551 1.88491 -0.338114 0
M  V30 4024 H 372.856 3.5423 1.67418 0
M  V30 4025 H 374.553 3.77302 1.35809 0
M  V30 4026 H 371.143 4.28596 0.0193234 0
M  V30 4027 H 375.327 4.90765 -0.739166 0
M  V30 4028 H 370.583 5.84365 -1.798 0
M  V30 4029 H 374.757 6.4788 -2.55391 0
M  V30 4030 H 372.384 6.94597 -3.08932 0
M  V30 4031 N 373.959 -0.0401083 1.57549 0
M  V30 4032 C 374.922 -1.02871 2.04817 0
M  V30 4033 C 375.922 -1.29708 0.950388 0
M  V30 4034 O 377.112 -1.24897 1.21435 0
M  V30 4035 C 374.244 -2.36443 2.45576 0
M  V30 4036 H 375.437 -0.620631 2.93408 0
M  V30 4037 H 372.99 -0.286667 1.53649 0
M  V30 4038 H 373.725 -2.82021 1.60108 0
M  V30 4039 H 373.51 -2.18296 3.25713 0
M  V30 4040 H 375 -3.07441 2.82612 0
M  V30 4041 N 375.437 -1.54477 -0.31217 0
M  V30 4042 C 376.4 -1.83923 -1.36766 0
M  V30 4043 C 377.4 -0.711563 -1.44199 0
M  V30 4044 O 378.59 -0.979866 -1.44029 0
M  V30 4045 C 375.722 -2.0095 -2.75376 0
M  V30 4046 H 376.915 -2.78239 -1.11906 0
M  V30 4047 H 374.468 -1.46369 -0.548257 0
M  V30 4048 H 375.203 -1.08883 -3.05475 0
M  V30 4049 H 374.988 -2.83018 -2.71373 0
M  V30 4050 H 376.478 -2.2514 -3.51713 0
M  V30 4051 N 376.915 0.57481 -1.46744 0
M  V30 4052 C 378.162 1.33272 -1.52462 0
M  V30 4053 C 378.49 1.93669 -0.179572 0
M  V30 4054 O 377.745 1.7743 0.825664 0
M  V30 4055 C 378.044 2.476 -2.57738 0
M  V30 4056 C 377.71 2.05146 -4.01529 0
M  V30 4057 C 376.372 1.93284 -4.40676 0
M  V30 4058 C 378.724 1.72506 -4.91824 0
M  V30 4059 C 376.052 1.47049 -5.67973 0
M  V30 4060 C 378.404 1.27748 -6.19567 0
M  V30 4061 C 377.068 1.14468 -6.57612 0
M  V30 4062 H 376.338 0.487678 -0.557899 0
M  V30 4063 H 378.985 0.646456 -1.80259 0
M  V30 4064 H 377.29 3.21708 -2.23632 0
M  V30 4065 H 378.987 3.05807 -2.5939 0
M  V30 4066 H 375.577 2.15316 -3.7059 0
M  V30 4067 H 379.761 1.80552 -4.62293 0
M  V30 4068 H 375.017 1.35417 -5.96215 0
M  V30 4069 H 379.191 1.01547 -6.88957 0
M  V30 4070 H 376.818 0.78419 -7.56145 0
M  V30 4071 N 378.394 1.34581 0.820102 0
M  V30 4072 C 379.81 1.14325 1.11364 0
M  V30 4073 C 380.01 -0.0533648 2.01429 0
M  V30 4074 O 379.066 -0.728044 2.41776 0
M  V30 4075 C 380.379 2.43983 1.75764 0
M  V30 4076 C 381.927 2.50065 1.88246 0
M  V30 4077 C 382.402 3.79732 2.56061 0
M  V30 4078 N 383.893 3.80908 2.63558 0
M  V30 4079 C 384.628 4.77961 3.16766 0
M  V30 4080 N 384.124 5.85397 3.70517 0
M  V30 4081 N 385.917 4.65413 3.15194 0
M  V30 4082 H 378.068 2.11246 0.221096 0
M  V30 4083 H 380.331 0.934289 0.160649 0
M  V30 4084 H 380.037 3.31651 1.1705 0
M  V30 4085 H 379.911 2.57531 2.75604 0
M  V30 4086 H 382.298 1.62834 2.46108 0
M  V30 4087 H 382.379 2.40442 0.873006 0
M  V30 4088 H 382.023 4.67354 1.98853 0
M  V30 4089 H 381.953 3.86639 3.57516 0
M  V30 4090 H 384.444 3.03274 2.25463 0
M  V30 4091 H 384.757 6.55463 4.09376 0
M  V30 4092 H 383.102 5.89107 3.68752 0
M  V30 4093 H 386.293 3.80627 2.72471 0
M  V30 4094 H 386.466 5.41216 3.56356 0
M  V30 4095 N 379.872 -1.04064 1.18357 0
M  V30 4096 C 380.835 -2.10243 0.912707 0
M  V30 4097 C 381.835 -1.60477 -0.101928 0
M  V30 4098 O 383.025 -1.73703 0.131517 0
M  V30 4099 C 380.157 -3.38893 0.369387 0
M  V30 4100 H 381.35 -2.35706 1.85426 0
M  V30 4101 H 378.903 -1.20489 0.995594 0
M  V30 4102 H 379.638 -3.19094 -0.578776 0
M  V30 4103 H 379.423 -3.76331 1.1008 0
M  V30 4104 H 380.913 -4.17128 0.198575 0
M  V30 4105 N 381.35 -0.985608 -1.22978 0
M  V30 4106 C 382.596 -0.667998 -1.92118 0
M  V30 4107 C 382.951 0.790454 -1.75413 0
M  V30 4108 O 382.244 1.56336 -1.10768 0
M  V30 4109 C 382.438 -1.00014 -3.43121 0
M  V30 4110 C 382.267 -2.48933 -3.74516 0
M  V30 4111 C 381.037 -3.15218 -3.94925 0
M  V30 4112 C 383.235 -3.47024 -3.79577 0
M  V30 4113 N 381.217 -4.53689 -4.13569 0
M  V30 4114 C 382.588 -4.70923 -4.03276 0
M  V30 4115 C 384.643 -3.41432 -3.62393 0
M  V30 4116 C 383.346 -5.89914 -4.11574 0
M  V30 4117 C 385.372 -4.59793 -3.71947 0
M  V30 4118 C 384.734 -5.82489 -3.96088 0
M  V30 4119 H 380.833 -0.295589 -0.723983 0
M  V30 4120 H 383.417 -1.26413 -1.4808 0
M  V30 4121 H 381.588 -0.432655 -3.85983 0
M  V30 4122 H 383.32 -0.63927 -3.99619 0
M  V30 4123 H 380.075 -2.65702 -3.92045 0
M  V30 4124 H 380.499 -5.25492 -4.26834 0
M  V30 4125 H 385.141 -2.47594 -3.4272 0
M  V30 4126 H 382.859 -6.84164 -4.30053 0
M  V30 4127 H 386.445 -4.57048 -3.59998 0
M  V30 4128 H 385.325 -6.72546 -4.033 0
M  V30 4129 N 382.828 1.3818 -0.7579 0
M  V30 4130 C 383.758 2.33027 -0.148597 0
M  V30 4131 C 384.739 1.55085 0.69875 0
M  V30 4132 O 385.924 1.83384 0.639053 0
M  V30 4133 C 383.054 3.3928 0.742034 0
M  V30 4134 C 382.008 4.28 -0.00291946 0
M  V30 4135 C 381.334 5.25146 1.00625 0
M  V30 4136 C 382.634 5.08938 -1.17385 0
M  V30 4137 H 384.328 2.84231 -0.940909 0
M  V30 4138 H 381.874 1.36659 -0.453908 0
M  V30 4139 H 383.827 4.046 1.17799 0
M  V30 4140 H 382.551 2.86569 1.56671 0
M  V30 4141 H 381.21 3.64192 -0.419504 0
M  V30 4142 H 380.858 4.68721 1.8251 0
M  V30 4143 H 380.558 5.85361 0.512428 0
M  V30 4144 H 382.082 5.93342 1.44143 0
M  V30 4145 H 383.496 5.67474 -0.815224 0
M  V30 4146 H 381.893 5.7841 -1.59882 0
M  V30 4147 H 382.963 4.42424 -1.98468 0
M  V30 4148 N 384.306 0.507319 1.49211 0
M  V30 4149 C 385.722 0.163682 1.58758 0
M  V30 4150 C 385.922 -1.33208 1.51188 0
M  V30 4151 O 384.978 -2.10855 1.38911 0
M  V30 4152 C 386.291 0.746095 2.91297 0
M  V30 4153 C 387.839 0.712773 3.04776 0
M  V30 4154 C 388.314 1.27336 4.39943 0
M  V30 4155 N 389.805 1.23433 4.46451 0
M  V30 4156 C 390.54 1.63821 5.495 0
M  V30 4157 N 390.036 2.11832 6.5962 0
M  V30 4158 N 391.829 1.55198 5.4025 0
M  V30 4159 H 383.98 1.47972 1.52375 0
M  V30 4160 H 386.243 0.614147 0.722168 0
M  V30 4161 H 385.949 1.79534 3.02424 0
M  V30 4162 H 385.823 0.210137 3.76614 0
M  V30 4163 H 388.21 -0.327656 2.93275 0
M  V30 4164 H 388.291 1.28595 2.21127 0
M  V30 4165 H 387.935 2.3126 4.52196 0
M  V30 4166 H 387.865 0.676066 5.22242 0
M  V30 4167 H 390.356 0.882627 3.67448 0
M  V30 4168 H 390.669 2.40703 7.34358 0
M  V30 4169 H 389.014 2.1581 6.60644 0
M  V30 4170 H 392.205 1.17505 4.53112 0
M  V30 4171 H 392.378 1.86997 6.20432 0
M  V30 4172 N 385.784 -1.5574 0.241426 0
M  V30 4173 C 387.024 -2.00714 -0.38644 0
M  V30 4174 C 387.388 -1.12586 -1.55526 0
M  V30 4175 O 388.589 -1.46992 -2.25048 0
M  V30 4176 C 386.86 -3.48534 -0.791128 0
M  V30 4177 S 388.419 -4.15519 -1.41029 0
M  V30 4178 H 385.237 -0.700484 -0.121834 0
M  V30 4179 H 387.839 -1.92243 0.355377 0
M  V30 4180 H 386.543 -4.10342 0.0689225 0
M  V30 4181 H 386.074 -3.6092 -1.56526 0
M  V30 4182 H 388.089 -4.16352 -2.69936 0
M  V30 4183 N 387.262 0.0317525 -1.57568 0
M  V30 4184 C 388.492 0.733884 -1.93126 0
M  V30 4185 C 388.9 1.69563 -0.839352 0
M  V30 4186 O 388.243 1.82681 0.193175 0
M  V30 4187 C 388.305 1.54798 -3.24465 0
M  V30 4188 C 387.969 0.751304 -4.50782 0
M  V30 4189 C 388.966 0.0527632 -5.19873 0
M  V30 4190 C 386.651 0.706639 -4.97305 0
M  V30 4191 C 388.645 -0.679774 -6.33765 0
M  V30 4192 C 386.332 -0.0296449 -6.11093 0
M  V30 4193 C 387.33 -0.721614 -6.79177 0
M  V30 4194 O 387.018 -1.44595 -7.90789 0
M  V30 4195 H 386.75 0.211459 -0.642076 0
M  V30 4196 H 389.304 -0.00585615 -2.05399 0
M  V30 4197 H 387.534 2.33147 -3.08512 0
M  V30 4198 H 389.223 2.13247 -3.4537 0
M  V30 4199 H 389.989 0.0783188 -4.84937 0
M  V30 4200 H 385.868 1.23474 -4.44157 0
M  V30 4201 H 389.412 -1.22042 -6.86842 0
M  V30 4202 H 385.309 -0.0571331 -6.45475 0
M  V30 4203 H 386.077 -1.35935 -8.07133 0
M  V30 4204 N 388.74 1.54641 0.303973 0
M  V30 4205 C 389.988 1.73437 1.0375 0
M  V30 4206 C 390.309 0.521449 1.87899 0
M  V30 4207 O 389.579 -0.46432 1.90318 0
M  V30 4208 H 388.159 0.639518 0.386039 0
M  V30 4209 H 390.821 1.91988 0.335675 0
M  V30 4210 H 389.917 2.62235 1.69231 0
M  V30 4211 N 390.218 -0.567019 1.47046 0
M  V30 4212 C 391.151 -1.69016 1.53326 0
M  V30 4213 C 392.129 -1.57949 0.386126 0
M  V30 4214 O 393.313 -1.78945 0.592529 0
M  V30 4215 C 390.44 -3.07191 1.42658 0
M  V30 4216 C 389.486 -3.36733 2.6175 0
M  V30 4217 S 390.319 -3.27069 4.24012 0
M  V30 4218 C 391.475 -4.67755 4.1588 0
M  V30 4219 H 391.708 -1.63434 2.48348 0
M  V30 4220 H 389.241 -0.747048 1.35124 0
M  V30 4221 H 391.199 -3.86897 1.37191 0
M  V30 4222 H 389.86 -3.10249 0.490369 0
M  V30 4223 H 389.053 -4.37441 2.50323 0
M  V30 4224 H 388.655 -2.64627 2.64289 0
M  V30 4225 H 390.947 -5.58491 3.83529 0
M  V30 4226 H 391.89 -4.84239 5.16641 0
M  V30 4227 H 392.298 -4.45341 3.46889 0
M  V30 4228 N 391.696 -1.35014 -0.812953 0
M  V30 4229 C 393.107 -1.25035 -1.38648 0
M  V30 4230 C 393.458 0.119967 -1.95833 0
M  V30 4231 O 392.583 1.02069 -1.90816 0
M  V30 4232 C 393.178 -2.26394 -2.52054 0
M  V30 4233 C 391.737 -2.20175 -3.05287 0
M  V30 4234 C 390.884 -2.12451 -1.78213 0
M  V30 4235 H 393.835 -1.46235 -0.616516 0
M  V30 4236 H 393.856 -1.88672 -3.30429 0
M  V30 4237 H 393.368 -3.26116 -2.10404 0
M  V30 4238 H 391.469 -1.23841 -3.51417 0
M  V30 4239 H 391.582 -3.11863 -3.63701 0
M  V30 4240 H 389.946 -1.58328 -1.9951 0
M  V30 4241 H 390.729 -3.14024 -1.38723 0
M  V30 4242 N 393.175 1.03435 -1.18907 0
M  V30 4243 C 394.423 1.76394 -0.986382 0
M  V30 4244 C 394.744 1.88883 0.484567 0
M  V30 4245 O 394.014 1.41843 1.3512 0
M  V30 4246 H 392.594 0.65344 -0.361975 0
M  V30 4247 H 395.256 1.248 -1.49703 0
M  V30 4248 H 394.352 2.77424 -1.42978 0
M  V30 4249 N 394.653 0.992116 1.22453 0
M  V30 4250 C 395.586 0.486701 2.22949 0
M  V30 4251 C 396.564 -0.45259 1.56174 0
M  V30 4252 O 397.748 -0.378317 1.84665 0
M  V30 4253 C 394.875 -0.294537 3.37417 0
M  V30 4254 C 393.921 0.590628 4.22391 0
M  V30 4255 S 394.754 2.04546 4.94895 0
M  V30 4256 C 395.91 1.27369 6.12803 0
M  V30 4257 H 396.143 1.33828 2.65475 0
M  V30 4258 H 393.676 0.799023 1.32117 0
M  V30 4259 H 395.634 -0.739241 4.03789 0
M  V30 4260 H 394.295 -1.12139 2.934 0
M  V30 4261 H 393.488 -0.0104375 5.03999 0
M  V30 4262 H 393.09 0.972064 3.61147 0
M  V30 4263 H 395.382 0.540943 6.75337 0
M  V30 4264 H 396.325 2.06502 6.7732 0
M  V30 4265 H 396.733 0.787324 5.58983 0
M  V30 4266 N 396.131 -1.37776 0.765217 0
M  V30 4267 C 397.356 -2.04651 0.336537 0
M  V30 4268 C 397.781 -1.57337 -1.03086 0
M  V30 4269 O 397.139 -0.730621 -1.65927 0
M  V30 4270 C 397.187 -3.58577 0.381468 0
M  V30 4271 O 396.291 -4.07706 -0.62042 0
M  V30 4272 H 395.632 -0.64756 0.146838 0
M  V30 4273 H 398.162 -1.76221 1.03959 0
M  V30 4274 H 398.172 -4.07314 0.236448 0
M  V30 4275 H 396.847 -3.9237 1.37907 0
M  V30 4276 H 395.424 -3.70306 -0.439056 0
M  V30 4277 N 397.609 -0.515225 -1.4894 0
M  V30 4278 C 398.834 0.022727 -2.07388 0
M  V30 4279 C 399.259 1.2876 -1.37122 0
M  V30 4280 O 398.617 1.76067 -0.432431 0
M  V30 4281 C 398.665 0.244869 -3.59768 0
M  V30 4282 O 397.769 1.31667 -3.90817 0
M  V30 4283 H 397.11 -0.0325506 -0.663202 0
M  V30 4284 H 399.64 -0.718918 -1.91553 0
M  V30 4285 H 399.65 0.47205 -4.0526 0
M  V30 4286 H 398.325 -0.679194 -4.10317 0
M  V30 4287 H 396.902 1.07331 -3.5712 0
M  V30 4288 N 399.087 1.5561 -0.249682 0
M  V30 4289 C 400.017 2.24477 0.642826 0
M  V30 4290 C 400.998 1.22601 1.17911 0
M  V30 4291 O 402.183 1.5126 1.21795 0
M  V30 4292 C 399.313 2.94638 1.83863 0
M  V30 4293 C 398.267 4.03227 1.435 0
M  V30 4294 C 397.593 4.60828 2.71186 0
M  V30 4295 C 398.893 5.18796 0.604002 0
M  V30 4296 H 400.587 2.99321 0.0685625 0
M  V30 4297 H 398.133 1.43965 0.0315363 0
M  V30 4298 H 400.086 3.41517 2.46868 0
M  V30 4299 H 398.81 2.17287 2.43832 0
M  V30 4300 H 397.469 3.57121 0.828275 0
M  V30 4301 H 397.117 3.80174 3.29358 0
M  V30 4302 H 396.817 5.34132 2.44901 0
M  V30 4303 H 398.341 5.10442 3.35084 0
M  V30 4304 H 399.755 5.61883 1.13842 0
M  V30 4305 H 398.152 5.98506 0.437097 0
M  V30 4306 H 399.222 4.83384 -0.383147 0
M  V30 4307 N 400.565 -0.0233959 1.57583 0
M  V30 4308 C 401.497 -1.04994 2.03737 0
M  V30 4309 C 402.51 -1.32125 0.951152 0
M  V30 4310 O 403.699 -1.29512 1.22837 0
M  V30 4311 C 400.799 -2.39026 2.40249 0
M  V30 4312 C 399.972 -2.31171 3.7132 0
M  V30 4313 C 399.031 -3.47698 3.94959 0
M  V30 4314 O 398.057 -3.26937 4.65941 0
M  V30 4315 N 399.259 -4.6976 3.41037 0
M  V30 4316 H 402.024 -0.656507 2.92421 0
M  V30 4317 H 399.585 -0.211235 1.60516 0
M  V30 4318 H 401.577 -3.15712 2.53196 0
M  V30 4319 H 400.147 -2.70194 1.57207 0
M  V30 4320 H 399.367 -1.39547 3.68674 0
M  V30 4321 H 400.655 -2.23071 4.57293 0
M  V30 4322 H 400.053 -4.89528 2.83512 0
M  V30 4323 H 398.61 -5.43791 3.59353 0
M  V30 4324 N 402.043 -1.548 -0.295768 0
M  V30 4325 C 403.32 -1.65014 -1.05023 0
M  V30 4326 C 403.7 -0.501805 -2.05049 0
M  V30 4327 O 403.048 0.500869 -2.22943 0
M  V30 4328 C 403.258 -3.03252 -1.72741 0
M  V30 4329 C 404.606 -3.60242 -2.24746 0
M  V30 4330 O 405.63 -3.05737 -1.82765 0
M  V30 4331 O 404.489 -4.55687 -3.01681 0
M  V30 4332 H 401.583 -0.669314 -0.485744 0
M  V30 4333 H 404.129 -1.67144 -0.293438 0
M  V30 4334 H 402.901 -3.7827 -1.00138 0
M  V30 4335 H 402.524 -3.04922 -2.55163 0
M  V30 4336 N 403.521 0.559213 -1.47345 0
M  V30 4337 C 404.937 0.884943 -1.32819 0
M  V30 4338 C 405.137 1.98988 -0.317173 0
M  V30 4339 O 404.193 2.51031 0.272011 0
M  V30 4340 C 405.506 1.28007 -2.72093 0
M  V30 4341 C 407.054 1.39161 -2.80363 0
M  V30 4342 C 407.529 1.82031 -4.20272 0
M  V30 4343 N 409.02 1.89185 -4.22804 0
M  V30 4344 C 409.755 2.2368 -5.27973 0
M  V30 4345 N 409.251 2.56802 -6.43447 0
M  V30 4346 N 411.044 2.24436 -5.15349 0
M  V30 4347 H 403.195 -0.170304 -2.11716 0
M  V30 4348 H 405.458 -0.0135247 -0.947904 0
M  V30 4349 H 405.164 0.542027 -3.47498 0
M  V30 4350 H 405.038 2.23665 -3.03733 0
M  V30 4351 H 407.425 2.12048 -2.05231 0
M  V30 4352 H 407.506 0.41696 -2.52379 0
M  V30 4353 H 407.15 1.09715 -4.95908 0
M  V30 4354 H 407.08 2.80495 -4.45679 0
M  V30 4355 H 409.571 1.65982 -3.39497 0
M  V30 4356 H 409.884 2.82144 -7.19454 0
M  V30 4357 H 408.229 2.54387 -6.46771 0
M  V30 4358 H 411.42 1.97998 -4.24163 0
M  V30 4359 H 411.593 2.50989 -5.97418 0
M  V30 4360 N 404.999 1.35443 0.805782 0
M  V30 4361 C 405.949 1.24972 1.90699 0
M  V30 4362 C 406.933 0.144806 1.60247 0
M  V30 4363 O 408.125 0.376102 1.72958 0
M  V30 4364 C 405.254 1.02475 3.27649 0
M  V30 4365 C 404.34 2.17361 3.64164 0
M  V30 4366 N 404.731 3.42591 3.72109 0
M  V30 4367 C 403.029 2.08765 3.94123 0
M  V30 4368 C 403.73 4.18144 4.04389 0
M  V30 4369 N 402.706 3.4691 4.18515 0
M  V30 4370 H 406.508 2.19852 1.95044 0
M  V30 4371 H 404.022 1.27928 1.00041 0
M  V30 4372 H 406.019 0.930617 4.06381 0
M  V30 4373 H 404.679 0.0848009 3.24589 0
M  V30 4374 H 405.69 3.76932 3.55166 0
M  V30 4375 H 402.367 1.22629 3.99084 0
M  V30 4376 H 403.757 5.26367 4.17597 0
M  V30 4377 N 406.477 -1.02803 1.19454 0
M  V30 4378 C 407.725 -1.75869 0.995722 0
M  V30 4379 C 408.046 -1.89138 -0.474543 0
M  V30 4380 O 407.316 -1.42558 -1.34366 0
M  V30 4381 H 405.896 -0.651511 0.365435 0
M  V30 4382 H 408.558 -1.24004 1.50363 0
M  V30 4383 H 407.654 -2.76661 1.44447 0
M  V30 4384 N 407.956 -0.998596 -1.21925 0
M  V30 4385 C 409.372 -0.710303 -1.42923 0
M  V30 4386 C 409.572 0.716933 -1.88314 0
M  V30 4387 O 408.628 1.48712 -2.04062 0
M  V30 4388 C 409.941 -1.72072 -2.466 0
M  V30 4389 C 411.489 -1.73681 -2.60392 0
M  V30 4390 C 411.964 -2.73601 -3.67296 0
M  V30 4391 N 413.455 -2.7223 -3.7476 0
M  V30 4392 C 414.19 -3.46206 -4.57087 0
M  V30 4393 N 413.686 -4.29802 -5.43362 0
M  V30 4394 N 415.479 -3.34886 -4.51451 0
M  V30 4395 H 407.63 -1.92028 -0.9077 0
M  V30 4396 H 409.893 -0.828487 -0.460775 0
M  V30 4397 H 409.599 -2.74231 -2.20206 0
M  V30 4398 H 409.473 -1.51818 -3.45299 0
M  V30 4399 H 411.86 -0.722173 -2.86127 0
M  V30 4400 H 411.941 -1.98005 -1.61949 0
M  V30 4401 H 411.585 -3.75217 -3.42307 0
M  V30 4402 H 411.515 -2.46545 -4.65321 0
M  V30 4403 H 414.006 -2.11576 -3.1312 0
M  V30 4404 H 414.319 -4.83061 -6.03218 0
M  V30 4405 H 412.664 -4.33887 -5.42925 0
M  V30 4406 H 415.855 -2.69015 -3.83078 0
M  V30 4407 H 416.028 -3.92796 -5.15379 0
M  V30 4408 N 409.434 1.37368 -0.772513 0
M  V30 4409 C 410.662 2.03942 -0.348588 0
M  V30 4410 C 411.077 1.58264 1.02947 0
M  V30 4411 O 410.434 0.764246 1.65727 0
M  V30 4412 C 410.485 3.5946 -0.38351 0
M  V30 4413 O 410.206 4.03468 -1.70721 0
M  V30 4414 C 411.707 4.4327 0.0519152 0
M  V30 4415 H 408.927 0.654931 -0.145966 0
M  V30 4416 H 411.471 1.75686 -1.04665 0
M  V30 4417 H 409.626 3.86486 0.265978 0
M  V30 4418 H 410.04 4.97991 -1.64636 0
M  V30 4419 H 411.514 5.51995 -0.0236733 0
M  V30 4420 H 411.991 4.2514 1.10238 0
M  V30 4421 H 412.597 4.21471 -0.569415 0
M  V30 4422 N 410.912 0.523116 1.48665 0
M  V30 4423 C 412.161 -0.01544 2.01694 0
M  V30 4424 C 412.474 -1.35975 1.40606 0
M  V30 4425 O 413.68 -1.98627 1.85093 0
M  V30 4426 C 412.136 -0.0779303 3.59816 0
M  V30 4427 C 411.744 1.26107 4.29885 0
M  V30 4428 C 413.488 -0.565678 4.20714 0
M  V30 4429 C 411.395 1.15954 5.79921 0
M  V30 4430 H 410.325 -0.00954163 0.75394 0
M  V30 4431 H 412.976 0.665865 1.70993 0
M  V30 4432 H 411.358 -0.824165 3.87329 0
M  V30 4433 H 412.532 2.02233 4.14051 0
M  V30 4434 H 410.847 1.68401 3.80828 0
M  V30 4435 H 413.444 -0.6595 5.30617 0
M  V30 4436 H 413.787 -1.56984 3.85567 0
M  V30 4437 H 414.32 0.12467 3.97605 0
M  V30 4438 H 411.059 2.13864 6.19631 0
M  V30 4439 H 410.579 0.439529 5.98187 0
M  V30 4440 H 412.258 0.847361 6.41427 0
M  V30 4441 N 412.39 -1.55475 0.257931 0
M  V30 4442 C 413.636 -2.00237 -0.357338 0
M  V30 4443 C 413.991 -1.14313 -1.54759 0
M  V30 4444 O 413.284 -0.201187 -1.90541 0
M  V30 4445 C 413.478 -3.48183 -0.806433 0
M  V30 4446 C 413.307 -4.48422 0.338758 0
M  V30 4447 C 412.077 -4.98651 0.817011 0
M  V30 4448 C 414.275 -5.00827 1.16949 0
M  V30 4449 N 412.257 -5.82658 1.93346 0
M  V30 4450 C 413.628 -5.82113 2.13413 0
M  V30 4451 C 415.683 -4.83104 1.2048 0
M  V30 4452 C 414.386 -6.47566 3.13131 0
M  V30 4453 C 416.412 -5.49343 2.19034 0
M  V30 4454 C 415.774 -6.30427 3.14232 0
M  V30 4455 H 411.873 -0.776034 -0.0964083 0
M  V30 4456 H 414.457 -1.90995 0.37803 0
M  V30 4457 H 412.628 -3.57801 -1.51107 0
M  V30 4458 H 414.36 -3.79802 -1.39758 0
M  V30 4459 H 411.115 -4.71914 0.39925 0
M  V30 4460 H 411.539 -6.29356 2.49478 0
M  V30 4461 H 416.181 -4.20036 0.482634 0
M  V30 4462 H 413.899 -7.09793 3.8629 0
M  V30 4463 H 417.485 -5.37579 2.22485 0
M  V30 4464 H 416.365 -6.80777 3.89246 0
M  V30 4465 N 413.868 0.0150385 -1.57593 0
M  V30 4466 C 415.115 0.703001 -1.89906 0
M  V30 4467 C 415.443 1.74604 -0.856944 0
M  V30 4468 O 414.698 1.95197 0.140287 0
M  V30 4469 C 414.997 1.39686 -3.28972 0
M  V30 4470 C 414.663 0.488457 -4.48246 0
M  V30 4471 C 413.325 0.2383 -4.8061 0
M  V30 4472 C 415.677 -0.137881 -5.21018 0
M  V30 4473 C 413.005 -0.646738 -5.83125 0
M  V30 4474 C 415.357 -1.0107 -6.24474 0
M  V30 4475 C 414.021 -1.27019 -6.55303 0
M  V30 4476 H 413.291 0.257246 -0.694914 0
M  V30 4477 H 415.938 -0.037259 -1.91464 0
M  V30 4478 H 414.243 2.21079 -3.23468 0
M  V30 4479 H 415.94 1.93495 -3.51227 0
M  V30 4480 H 412.53 0.693593 -4.22951 0
M  V30 4481 H 416.714 0.0423953 -4.96282 0
M  V30 4482 H 411.97 -0.855937 -6.05379 0
M  V30 4483 H 416.144 -1.50247 -6.79999 0
M  V30 4484 H 413.771 -1.95769 -7.3456 0
M  V30 4485 N 415.346 1.54954 0.287554 0
M  V30 4486 C 416.278 1.83224 1.37701 0
M  V30 4487 C 417.291 0.715898 1.46215 0
M  V30 4488 O 418.48 0.993565 1.48292 0
M  V30 4489 C 415.58 1.96723 2.75959 0
M  V30 4490 C 414.753 3.27253 2.90215 0
M  V30 4491 C 413.812 3.30998 4.09056 0
M  V30 4492 O 412.838 4.04457 4.00503 0
M  V30 4493 N 414.04 2.57353 5.20336 0
M  V30 4494 H 416.805 2.77254 1.138 0
M  V30 4495 H 414.366 1.54694 0.477652 0
M  V30 4496 H 416.358 1.96615 3.5373 0
M  V30 4497 H 414.928 1.09626 2.92747 0
M  V30 4498 H 414.148 3.40022 1.99447 0
M  V30 4499 H 415.436 4.13365 2.96659 0
M  V30 4500 H 414.834 1.97327 5.30169 0
M  V30 4501 H 413.391 2.62984 5.96391 0
M  V30 4502 N 416.824 -0.551391 1.4764 0
M  V30 4503 C 418.072 -1.30572 1.54258 0
M  V30 4504 C 418.393 -1.93877 0.208963 0
M  V30 4505 O 417.663 -1.80234 -0.767619 0
M  V30 4506 H 416.243 -0.484894 0.568231 0
M  V30 4507 H 418.905 -0.643402 1.83974 0
M  V30 4508 H 418.001 -2.09621 2.31226 0
M  V30 4509 N 418.302 -1.35869 -0.798587 0
M  V30 4510 C 419.579 -1.20145 -1.54352 0
M  V30 4511 C 419.959 0.216161 -2.0999 0
M  V30 4512 O 419.307 1.22068 -1.93162 0
M  V30 4513 C 419.517 -2.27602 -2.64572 0
M  V30 4514 C 420.865 -2.63811 -3.32699 0
M  V30 4515 O 421.889 -2.26576 -2.74849 0
M  V30 4516 O 420.748 -3.27866 -4.37226 0
M  V30 4517 H 417.842 -0.467248 -0.682355 0
M  V30 4518 H 420.388 -1.47574 -0.837859 0
M  V30 4519 H 419.16 -3.2265 -2.21388 0
M  V30 4520 H 418.783 -2.01488 -3.42766 0
M  V30 4521 N 419.78 1.02168 -1.19998 0
M  V30 4522 C 421.191 1.57135 -1.00825 0
M  V30 4523 C 421.542 1.91276 0.436818 0
M  V30 4524 O 420.667 1.71679 1.3174 0
M  V30 4525 C 421.262 2.85514 -1.82393 0
M  V30 4526 C 419.821 3.37027 -1.67601 0
M  V30 4527 C 418.968 2.10388 -1.80644 0
M  V30 4528 H 421.919 0.846106 -1.34264 0
M  V30 4529 H 421.94 3.56711 -1.32429 0
M  V30 4530 H 421.452 2.60634 -2.87561 0
M  V30 4531 H 419.553 3.66878 -0.650485 0
M  V30 4532 H 419.666 4.09572 -2.4857 0
M  V30 4533 H 418.03 2.22601 -1.23778 0
M  V30 4534 H 418.813 1.8794 -2.87286 0
M  V30 4535 N 421.258 1.00505 1.21394 0
M  V30 4536 C 422.506 0.686415 1.90086 0
M  V30 4537 C 422.827 -0.785264 1.7849 0
M  V30 4538 O 422.097 -1.56387 1.17983 0
M  V30 4539 H 420.677 0.2509 0.703604 0
M  V30 4540 H 423.339 1.27417 1.47482 0
M  V30 4541 H 422.435 0.959621 2.96981 0
M  V30 4542 N 422.737 -1.36956 0.779787 0
M  V30 4543 C 424.148 -1.82094 0.412156 0
M  V30 4544 C 424.499 -1.64926 -1.06273 0
M  V30 4545 O 423.624 -1.16483 -1.82375 0
M  V30 4546 C 424.219 -3.3059 0.741319 0
M  V30 4547 C 422.778 -3.73974 0.426641 0
M  V30 4548 C 421.925 -2.59368 0.980987 0
M  V30 4549 H 424.876 -1.25314 0.973758 0
M  V30 4550 H 424.897 -3.80489 0.028887 0
M  V30 4551 H 424.409 -3.43054 1.81482 0
M  V30 4552 H 422.51 -3.67076 -0.639215 0
M  V30 4553 H 422.623 -4.69778 0.940515 0
M  V30 4554 H 420.987 -2.51463 0.404757 0
M  V30 4555 H 421.77 -2.74621 2.06005 0
M  V30 4556 N 424.215 -0.530993 -1.48385 0
M  V30 4557 C 425.145 0.219985 -2.32461 0
M  V30 4558 C 426.126 0.934111 -1.42156 0
M  V30 4559 O 427.311 0.919694 -1.71042 0
M  V30 4560 C 424.441 1.26674 -3.23375 0
M  V30 4561 C 423.395 0.67069 -4.22712 0
M  V30 4562 C 422.721 1.82017 -5.02766 0
M  V30 4563 C 424.021 -0.358268 -5.2107 0
M  V30 4564 H 425.715 -0.48187 -2.95497 0
M  V30 4565 H 423.261 -0.233182 -1.42099 0
M  V30 4566 H 425.214 1.80006 -3.81019 0
M  V30 4567 H 423.938 1.99818 -2.58341 0
M  V30 4568 H 422.597 0.158878 -3.66256 0
M  V30 4569 H 422.245 2.54002 -4.34157 0
M  V30 4570 H 421.945 1.42727 -5.70003 0
M  V30 4571 H 423.469 2.35725 -5.63264 0
M  V30 4572 H 424.883 0.0880081 -5.73232 0
M  V30 4573 H 423.28 -0.66861 -5.96364 0
M  V30 4574 H 424.35 -1.26367 -4.68145 0
M  V30 4575 N 425.693 1.55336 -0.266172 0
M  V30 4576 C 426.656 2.20878 0.612001 0
M  V30 4577 C 427.656 1.18388 1.08816 0
M  V30 4578 O 428.846 1.4335 0.989774 0
M  V30 4579 C 425.978 2.86765 1.84332 0
M  V30 4580 H 427.171 2.99873 0.0398718 0
M  V30 4581 H 424.724 1.56291 -0.0167309 0
M  V30 4582 H 425.459 2.11759 2.45619 0
M  V30 4583 H 425.244 3.61862 1.5099 0
M  V30 4584 H 426.734 3.36867 2.46801 0
M  V30 4585 N 427.171 -0.0066808 1.57599 0
M  V30 4586 C 428.582 -0.550379 1.78403 0
M  V30 4587 C 428.933 -1.74339 0.900014 0
M  V30 4588 O 428.058 -2.16166 0.100713 0
M  V30 4589 C 428.653 -1.00523 3.23544 0
M  V30 4590 C 427.212 -1.49428 3.45468 0
M  V30 4591 C 426.359 -0.442444 2.73748 0
M  V30 4592 H 429.31 0.219508 1.57175 0
M  V30 4593 H 429.331 -1.87157 3.31289 0
M  V30 4594 H 428.843 -0.136735 3.87859 0
M  V30 4595 H 426.944 -2.3839 2.86358 0
M  V30 4596 H 427.057 -1.52635 4.54136 0
M  V30 4597 H 425.421 -0.902578 2.38171 0
M  V30 4598 H 426.204 0.416973 3.40758 0
M  V30 4599 N 428.649 -1.55105 -0.279332 0
M  V30 4600 C 429.596 -1.8755 -1.34513 0
M  V30 4601 C 430.566 -0.726384 -1.49375 0
M  V30 4602 O 431.751 -0.977063 -1.63884 0
M  V30 4603 C 428.891 -2.14738 -2.70151 0
M  V30 4604 C 428.004 -3.42285 -2.63562 0
M  V30 4605 C 427.139 -3.59206 -3.91337 0
M  V30 4606 C 426.178 -4.80467 -3.79233 0
M  V30 4607 N 425.315 -4.94079 -4.98829 0
M  V30 4608 H 430.155 -2.78456 -1.06143 0
M  V30 4609 H 427.692 -1.37867 -0.512936 0
M  V30 4610 H 429.65 -2.28501 -3.49061 0
M  V30 4611 H 428.28 -1.27075 -2.96735 0
M  V30 4612 H 427.332 -3.37029 -1.76397 0
M  V30 4613 H 428.644 -4.31328 -2.50515 0
M  V30 4614 H 427.798 -3.72751 -4.78687 0
M  V30 4615 H 426.537 -2.68337 -4.07243 0
M  V30 4616 H 425.542 -4.66932 -2.90266 0
M  V30 4617 H 426.767 -5.72765 -3.64852 0
M  V30 4618 H 424.713 -4.06139 -5.15158 0
M  V30 4619 H 424.63 -5.77156 -4.8829 0
M  V30 4620 H 425.898 -5.12003 -5.8777 0
M  V30 4621 N 430.127 0.543554 -1.4793 0
M  V30 4622 C 431.375 1.29752 -1.54948 0
M  V30 4623 C 431.696 1.93764 -0.219242 0
M  V30 4624 O 430.966 1.80639 0.75805 0
M  V30 4625 H 429.546 0.481874 -0.570795 0
M  V30 4626 H 432.208 0.633636 -1.84312 0
M  V30 4627 H 431.304 2.08392 -2.32334 0
M  V30 4628 N 431.605 1.3629 0.791371 0
M  V30 4629 C 433.021 1.16661 1.08914 0
M  V30 4630 C 433.221 -0.0106266 2.01497 0
M  V30 4631 O 432.277 -0.676596 2.43266 0
M  V30 4632 C 433.59 2.47656 1.70549 0
M  V30 4633 C 435.138 2.54002 1.82899 0
M  V30 4634 C 435.613 3.85078 2.47949 0
M  V30 4635 N 437.104 3.86413 2.5542 0
M  V30 4636 C 437.839 4.84572 3.06557 0
M  V30 4637 N 437.335 5.93124 3.58016 0
M  V30 4638 N 439.128 4.71994 3.05251 0
M  V30 4639 H 431.279 2.11668 0.176238 0
M  V30 4640 H 433.542 0.937486 0.140796 0
M  V30 4641 H 433.248 3.34059 1.09989 0
M  V30 4642 H 433.122 2.63319 2.70079 0
M  V30 4643 H 435.509 1.68018 2.42598 0
M  V30 4644 H 435.59 2.42239 0.821808 0
M  V30 4645 H 435.234 4.71467 1.88895 0
M  V30 4646 H 435.164 3.94135 3.49235 0
M  V30 4647 H 437.655 3.07988 2.18979 0
M  V30 4648 H 437.968 6.63999 3.95381 0
M  V30 4649 H 436.313 5.96796 3.56173 0
M  V30 4650 H 439.504 3.86321 2.64336 0
M  V30 4651 H 439.677 5.48653 3.44796 0
M  V30 4652 N 433.083 -1.0153 1.20538 0
M  V30 4653 C 434.03 -2.10098 0.955383 0
M  V30 4654 C 435 -1.65702 -0.114878 0
M  V30 4655 O 436.185 -1.90776 0.0301118 0
M  V30 4656 C 433.325 -3.41236 0.514969 0
M  V30 4657 C 432.438 -3.99102 1.65353 0
M  V30 4658 C 431.573 -5.18306 1.16329 0
M  V30 4659 C 430.612 -5.68258 2.27485 0
M  V30 4660 N 429.749 -6.78722 1.7967 0
M  V30 4661 H 434.589 -2.30818 1.88486 0
M  V30 4662 H 432.126 -1.13189 0.939499 0
M  V30 4663 H 434.084 -4.16504 0.240935 0
M  V30 4664 H 432.714 -3.20585 -0.377512 0
M  V30 4665 H 431.766 -3.20918 2.04245 0
M  V30 4666 H 433.078 -4.32177 2.49047 0
M  V30 4667 H 432.232 -6.00782 0.845302 0
M  V30 4668 H 430.971 -4.86799 0.296254 0
M  V30 4669 H 429.976 -4.84385 2.60099 0
M  V30 4670 H 431.201 -6.01798 3.14667 0
M  V30 4671 H 429.147 -6.49042 0.95295 0
M  V30 4672 H 429.064 -7.10996 2.56944 0
M  V30 4673 H 430.332 -7.64759 1.50875 0
M  V30 4674 N 434.561 -1.01147 -1.20859 0
M  V30 4675 C 435.786 -0.716698 -1.94623 0
M  V30 4676 C 436.211 0.715415 -1.73964 0
M  V30 4677 O 435.569 1.49157 -1.03062 0
M  V30 4678 C 435.617 -1.0513 -3.44935 0
M  V30 4679 O 434.721 -0.160131 -4.12089 0
M  V30 4680 H 434.062 -0.266404 -0.608214 0
M  V30 4681 H 436.592 -1.35346 -1.53436 0
M  V30 4682 H 436.602 -1.00086 -3.95533 0
M  V30 4683 H 435.277 -2.09475 -3.59295 0
M  V30 4684 H 433.854 -0.267657 -3.71938 0
M  V30 4685 N 436.039 1.36541 -0.78704 0
M  V30 4686 C 437.455 1.52571 -0.46844 0
M  V30 4687 C 437.655 1.7415 1.01361 0
M  V30 4688 O 436.711 1.77163 1.79915 0
M  V30 4689 C 438.024 2.71299 -1.29682 0
M  V30 4690 C 439.572 2.85169 -1.29027 0
M  V30 4691 C 440.047 4.06898 -2.10233 0
M  V30 4692 N 441.538 4.1404 -2.07666 0
M  V30 4693 C 442.273 5.07301 -2.67271 0
M  V30 4694 N 441.769 6.06021 -3.35724 0
M  V30 4695 N 443.562 4.99898 -2.57018 0
M  V30 4696 H 435.713 1.20788 -1.74711 0
M  V30 4697 H 437.976 0.589364 -0.742532 0
M  V30 4698 H 437.682 2.61868 -2.34773 0
M  V30 4699 H 437.556 3.6539 -0.936479 0
M  V30 4700 H 439.943 2.94062 -0.247284 0
M  V30 4701 H 440.024 1.91992 -1.69035 0
M  V30 4702 H 439.668 3.98766 -3.1456 0
M  V30 4703 H 439.598 4.99218 -1.67597 0
M  V30 4704 H 442.089 3.43357 -1.57843 0
M  V30 4705 H 442.402 6.73741 -3.78541 0
M  V30 4706 H 440.747 6.06253 -3.39826 0
M  V30 4707 H 443.938 4.21724 -2.03142 0
M  V30 4708 H 444.111 5.72392 -3.03761 0
M  V30 4709 N 437.518 0.538854 1.48102 0
M  V30 4710 C 438.465 -0.219042 2.29758 0
M  V30 4711 C 439.435 -0.925562 1.37922 0
M  V30 4712 O 440.62 -0.924855 1.66886 0
M  V30 4713 C 437.76 -1.25452 3.2149 0
M  V30 4714 C 436.873 -0.555943 4.28408 0
M  V30 4715 C 436.008 -1.57512 5.0731 0
M  V30 4716 C 435.047 -0.860498 6.06021 0
M  V30 4717 N 434.184 -1.82564 6.77949 0
M  V30 4718 H 439.024 0.483449 2.94052 0
M  V30 4719 H 436.561 0.250247 1.44956 0
M  V30 4720 H 438.519 -1.86727 3.7308 0
M  V30 4721 H 437.149 -1.92528 2.591 0
M  V30 4722 H 436.201 0.170938 3.80016 0
M  V30 4723 H 437.513 0.00474616 4.988 0
M  V30 4724 H 436.667 -2.26191 5.62959 0
M  V30 4725 H 435.406 -2.16972 4.36778 0
M  V30 4726 H 434.411 -0.159686 5.49568 0
M  V30 4727 H 435.636 -0.271897 6.78555 0
M  V30 4728 H 433.582 -2.40915 6.10161 0
M  V30 4729 H 433.499 -1.31662 7.44447 0
M  V30 4730 H 434.767 -2.50414 7.38182 0
M  V30 4731 N 438.996 -1.55193 0.274407 0
M  V30 4732 C 439.943 -2.225 -0.613374 0
M  V30 4733 C 440.913 -1.19823 -1.15029 0
M  V30 4734 O 442.098 -1.48362 -1.19973 0
M  V30 4735 C 439.238 -2.94927 -1.79199 0
M  V30 4736 C 438.351 -4.12322 -1.28899 0
M  V30 4737 C 437.486 -4.72394 -2.42934 0
M  V30 4738 C 436.525 -5.81984 -1.89634 0
M  V30 4739 N 435.662 -6.36123 -2.9714 0
M  V30 4740 H 440.502 -2.97982 -0.032756 0
M  V30 4741 H 438.039 -1.47099 -0.00440146 0
M  V30 4742 H 439.997 -3.35134 -2.48478 0
M  V30 4743 H 438.627 -2.2187 -2.34465 0
M  V30 4744 H 437.679 -3.7724 -0.489327 0
M  V30 4745 H 438.991 -4.91355 -0.858587 0
M  V30 4746 H 438.145 -5.15317 -3.20208 0
M  V30 4747 H 436.884 -3.92636 -2.8929 0
M  V30 4748 H 435.889 -5.38511 -1.1084 0
M  V30 4749 H 437.114 -6.6361 -1.44215 0
M  V30 4750 H 435.06 -5.59259 -3.42878 0
M  V30 4751 H 434.977 -7.10427 -2.58515 0
M  V30 4752 H 436.245 -6.83704 -3.74391 0
M  V30 4753 N 440.474 -0.00167713 -1.576 0
M  V30 4754 C 441.421 0.989195 -2.08527 0
M  V30 4755 C 442.391 1.34031 -0.981065 0
M  V30 4756 O 443.576 1.43839 -1.2536 0
M  V30 4757 C 440.716 2.27537 -2.59463 0
M  V30 4758 C 439.829 1.98314 -3.83791 0
M  V30 4759 C 438.964 3.21025 -4.23222 0
M  V30 4760 C 438.003 2.87495 -5.40382 0
M  V30 4761 N 437.14 4.02749 -5.75098 0
M  V30 4762 H 441.98 0.547973 -2.92919 0
M  V30 4763 H 439.517 0.258917 -1.44803 0
M  V30 4764 H 441.475 3.02729 -2.87073 0
M  V30 4765 H 440.105 2.69325 -1.77943 0
M  V30 4766 H 439.157 1.13482 -3.63078 0
M  V30 4767 H 440.469 1.69601 -4.69081 0
M  V30 4768 H 439.623 4.04561 -4.52123 0
M  V30 4769 H 438.362 3.52877 -3.36644 0
M  V30 4770 H 437.367 2.02367 -5.11202 0
M  V30 4771 H 438.592 2.56889 -6.28637 0
M  V30 4772 H 436.538 4.34494 -4.91478 0
M  V30 4773 H 436.455 3.77566 -6.54966 0
M  V30 4774 H 437.723 4.87068 -6.08592 0
M  V30 4775 N 441.952 1.55251 0.271103 0
M  V30 4776 C 443.177 1.80306 1.02491 0
M  V30 4777 C 443.602 0.575457 1.79081 0
M  V30 4778 O 442.96 -0.474987 1.74967 0
M  V30 4779 C 443.008 3.02832 1.95768 0
M  V30 4780 O 442.112 2.78051 3.04568 0
M  V30 4781 H 441.453 0.595896 0.292923 0
M  V30 4782 H 443.983 2.02397 0.299436 0
M  V30 4783 H 443.993 3.31616 2.37686 0
M  V30 4784 H 442.668 3.9183 1.39434 0
M  V30 4785 H 441.245 2.60369 2.66951 0
M  V30 4786 N 443.43 -0.535701 1.48216 0
M  V30 4787 C 444.377 -1.64083 1.62312 0
M  V30 4788 C 445.347 -1.59448 0.465365 0
M  V30 4789 O 446.532 -1.77959 0.688135 0
M  V30 4790 C 443.672 -3.0236 1.66349 0
M  V30 4791 C 442.785 -3.17273 2.93193 0
M  V30 4792 C 441.92 -4.46075 2.88427 0
M  V30 4793 C 440.959 -4.54496 4.1 0
M  V30 4794 N 440.096 -5.7468 4.03345 0
M  V30 4795 H 444.936 -1.51374 2.5669 0
M  V30 4796 H 442.473 -0.737059 1.27302 0
M  V30 4797 H 444.431 -3.82461 1.66672 0
M  V30 4798 H 443.061 -3.13854 0.754672 0
M  V30 4799 H 442.113 -2.30462 3.02641 0
M  V30 4800 H 443.425 -3.19357 3.83162 0
M  V30 4801 H 442.579 -5.3446 2.87119 0
M  V30 4802 H 441.318 -4.46504 1.96177 0
M  V30 4803 H 440.323 -3.64519 4.11589 0
M  V30 4804 H 441.548 -4.5581 5.03402 0
M  V30 4805 H 439.494 -5.76017 3.13912 0
M  V30 4806 H 439.411 -5.78234 4.87013 0
M  V30 4807 H 440.679 -6.65367 4.06087 0
M  V30 4808 N 444.908 -1.36708 -0.784132 0
M  V30 4809 C 445.871 -1.31307 -1.87859 0
M  V30 4810 C 446.871 -0.219654 -1.59293 0
M  V30 4811 O 448.061 -0.47476 -1.67606 0
M  V30 4812 C 445.193 -1.03679 -3.24751 0
M  V30 4813 H 446.386 -2.28647 -1.94064 0
M  V30 4814 H 443.939 -1.21558 -0.98252 0
M  V30 4815 H 444.674 -0.0681936 -3.24228 0
M  V30 4816 H 444.459 -1.82811 -3.46876 0
M  V30 4817 H 445.949 -1.02518 -4.04821 0
M  V30 4818 N 446.386 1.0089 -1.21074 0
M  V30 4819 C 447.614 1.78191 -1.05145 0
M  V30 4820 C 448.029 1.84537 0.398952 0
M  V30 4821 O 447.386 1.30393 1.27687 0
M  V30 4822 C 447.437 3.22288 -1.63746 0
M  V30 4823 O 447.158 3.16315 -3.03111 0
M  V30 4824 C 448.659 4.16106 -1.52875 0
M  V30 4825 H 445.879 0.560129 -0.369454 0
M  V30 4826 H 448.423 1.26945 -1.60328 0
M  V30 4827 H 446.578 3.70655 -1.12664 0
M  V30 4828 H 446.992 4.06817 -3.31059 0
M  V30 4829 H 448.466 5.15026 -1.98626 0
M  V30 4830 H 448.943 4.36541 -0.482521 0
M  V30 4831 H 449.549 3.73625 -2.03185 0
M  V30 4832 N 447.864 1.01787 1.20321 0
M  V30 4833 C 448.796 0.547357 2.22568 0
M  V30 4834 C 449.809 -0.370922 1.58518 0
M  V30 4835 O 450.998 -0.169067 1.77698 0
M  V30 4836 C 448.098 -0.223031 3.38165 0
M  V30 4837 C 447.271 0.697472 4.31803 0
M  V30 4838 C 446.33 -0.025562 5.26194 0
M  V30 4839 O 445.356 0.597367 5.66057 0
M  V30 4840 N 446.558 -1.29999 5.65757 0
M  V30 4841 H 449.323 1.42668 2.63564 0
M  V30 4842 H 446.884 0.895552 1.34876 0
M  V30 4843 H 448.876 -0.716002 3.98316 0
M  V30 4844 H 447.446 -1.00366 2.9605 0
M  V30 4845 H 446.666 1.37073 3.69601 0
M  V30 4846 H 447.954 1.32347 4.91286 0
M  V30 4847 H 447.352 -1.827 5.35385 0
M  V30 4848 H 445.909 -1.73766 6.28211 0
M  V30 4849 N 449.342 -1.36122 0.79427 0
M  V30 4850 C 450.272 -2.32551 0.210328 0
M  V30 4851 C 451.253 -1.56884 -0.657386 0
M  V30 4852 O 452.438 -1.85014 -0.590207 0
M  V30 4853 C 449.568 -3.41128 -0.651819 0
M  V30 4854 C 448.522 -4.27842 0.116395 0
M  V30 4855 C 447.848 -5.2763 -0.86666 0
M  V30 4856 C 449.148 -5.05647 1.30837 0
M  V30 4857 H 450.842 -2.81636 1.01594 0
M  V30 4858 H 448.388 -1.35407 0.489981 0
M  V30 4859 H 450.341 -4.07581 -1.07031 0
M  V30 4860 H 449.065 -2.90622 -1.49019 0
M  V30 4861 H 447.724 -3.62952 0.515915 0
M  V30 4862 H 447.372 -4.73395 -1.70019 0
M  V30 4863 H 447.072 -5.86514 -0.35705 0
M  V30 4864 H 448.596 -5.96955 -1.28361 0
M  V30 4865 H 450.01 -5.65113 0.965393 0
M  V30 4866 H 448.407 -5.73967 1.75161 0
M  V30 4867 H 449.477 -4.37006 2.10128 0
M  V30 4868 N 450.82 -0.546701 -1.47814 0
M  V30 4869 C 452.045 -0.021268 -2.07389 0
M  V30 4870 C 452.47 1.25822 -1.39822 0
M  V30 4871 O 451.828 1.75111 -0.46968 0
M  V30 4872 C 451.876 0.168502 -3.60206 0
M  V30 4873 O 450.98 1.23347 -3.93522 0
M  V30 4874 H 450.321 -0.0466108 -0.662362 0
M  V30 4875 H 452.851 -0.759387 -1.89985 0
M  V30 4876 H 452.861 0.385982 -4.0617 0
M  V30 4877 H 451.536 -0.766075 -4.08784 0
M  V30 4878 H 450.113 0.997319 -3.59316 0
M  V30 4879 N 452.299 1.55045 -0.282633 0
M  V30 4880 C 453.71 1.85473 0.213655 0
M  V30 4881 C 454.061 1.20465 1.54863 0
M  V30 4882 O 453.186 0.495676 2.10647 0
M  V30 4883 C 453.781 3.36496 0.394445 0
M  V30 4884 C 452.34 3.67022 0.834961 0
M  V30 4885 C 451.487 2.77218 -0.0674081 0
M  V30 4886 H 454.438 1.50478 -0.504202 0
M  V30 4887 H 454.459 3.60007 1.23186 0
M  V30 4888 H 453.971 3.83782 -0.577326 0
M  V30 4889 H 452.072 3.25241 1.81794 0
M  V30 4890 H 452.185 4.74433 0.667075 0
M  V30 4891 H 450.549 2.5069 0.450196 0
M  V30 4892 H 451.332 3.2732 -1.0352 0
M  V30 4893 N 453.777 0.010035 1.57597 0
M  V30 4894 C 454.687 -0.994226 2.12491 0
M  V30 4895 C 455.703 -1.37013 1.07254 0
M  V30 4896 O 456.879 -1.45542 1.3921 0
M  V30 4897 C 453.944 -2.2642 2.62555 0
M  V30 4898 C 453.005 -1.95049 3.82432 0
M  V30 4899 C 452.238 -3.15991 4.30099 0
M  V30 4900 O 452.461 -4.28015 3.7704 0
M  V30 4901 O 451.395 -2.99403 5.22151 0
M  V30 4902 H 455.221 -0.557549 2.98538 0
M  V30 4903 H 452.806 -0.209413 1.47925 0
M  V30 4904 H 454.688 -3.01009 2.9491 0
M  V30 4905 H 453.363 -2.69306 1.796 0
M  V30 4906 H 452.27 -1.17904 3.55034 0
M  V30 4907 H 453.603 -1.56992 4.66491 0
M  V30 4908 N 455.255 -1.55392 -0.262866 0
M  V30 4909 C 456.532 -1.67204 -1.01499 0
M  V30 4910 C 456.912 -0.545186 -2.03939 0
M  V30 4911 O 456.26 0.453467 -2.23955 0
M  V30 4912 C 456.47 -3.06847 -1.6627 0
M  V30 4913 C 457.818 -3.64928 -2.17054 0
M  V30 4914 O 458.842 -3.09545 -1.76239 0
M  V30 4915 O 457.701 -4.61984 -2.91947 0
M  V30 4916 H 454.795 -0.679467 -0.471438 0
M  V30 4917 H 457.341 -1.67729 -0.257918 0
M  V30 4918 H 456.113 -3.80309 -0.920915 0
M  V30 4919 H 455.736 -3.10266 -2.48638 0
M  V30 4920 N 456.733 0.527833 -1.48498 0
M  V30 4921 C 458.149 0.856571 -1.34666 0
M  V30 4922 C 458.349 1.98271 -0.35931 0
M  V30 4923 O 457.405 2.51551 0.218703 0
M  V30 4924 C 458.718 1.22207 -2.74747 0
M  V30 4925 C 460.266 1.33183 -2.83251 0
M  V30 4926 C 460.741 1.73075 -4.24039 0
M  V30 4927 N 462.232 1.80174 -4.26722 0
M  V30 4928 C 462.967 2.1243 -5.32598 0
M  V30 4929 N 462.463 2.43096 -6.4875 0
M  V30 4930 N 464.256 2.13454 -5.19994 0
M  V30 4931 H 456.407 -0.215174 -2.11307 0
M  V30 4932 H 458.67 -0.0336281 -0.947403 0
M  V30 4933 H 458.376 0.468195 -3.4857 0
M  V30 4934 H 458.25 2.17173 -3.08409 0
M  V30 4935 H 460.637 2.07647 -2.09683 0
M  V30 4936 H 460.718 0.363333 -2.53206 0
M  V30 4937 H 460.362 0.991712 -4.98124 0
M  V30 4938 H 460.292 2.70979 -4.51529 0
M  V30 4939 H 462.783 1.58744 -3.42942 0
M  V30 4940 H 463.096 2.6682 -7.25277 0
M  V30 4941 H 461.441 2.40611 -6.52021 0
M  V30 4942 H 464.632 1.88956 -4.28268 0
M  V30 4943 H 464.805 2.38261 -6.02608 0
M  V30 4944 N 458.211 1.37122 0.776871 0
M  V30 4945 C 459.457 1.32243 1.53752 0
M  V30 4946 C 459.79 -0.0944745 1.9397 0
M  V30 4947 O 459.065 -1.05068 1.6368 0
M  V30 4948 C 459.348 2.25681 2.80607 0
M  V30 4949 C 459.201 3.76127 2.46676 0
M  V30 4950 C 460.52 2.17657 3.82509 0
M  V30 4951 H 457.639 0.481704 0.557791 0
M  V30 4952 H 460.281 1.6778 0.891612 0
M  V30 4953 H 458.431 1.95505 3.35723 0
M  V30 4954 H 460.103 4.16877 1.97513 0
M  V30 4955 H 458.346 3.94946 1.79443 0
M  V30 4956 H 459.017 4.36933 3.37333 0
M  V30 4957 H 461.493 2.44245 3.36873 0
M  V30 4958 H 460.369 2.85185 4.69 0
M  V30 4959 H 460.63 1.16785 4.26396 0
M  V30 4960 N 459.689 -1.00246 1.21608 0
M  V30 4961 C 460.599 -2.12515 0.993709 0
M  V30 4962 C 461.615 -1.73913 -0.0549939 0
M  V30 4963 O 462.791 -2.00943 0.135619 0
M  V30 4964 C 459.856 -3.42083 0.563953 0
M  V30 4965 C 458.917 -3.94843 1.68516 0
M  V30 4966 C 458.15 -5.18226 1.27582 0
M  V30 4967 O 458.373 -5.70201 0.150506 0
M  V30 4968 O 457.307 -5.64497 2.0887 0
M  V30 4969 H 461.133 -2.34152 1.93407 0
M  V30 4970 H 458.718 -1.10891 1.00118 0
M  V30 4971 H 460.6 -4.20073 0.334194 0
M  V30 4972 H 459.275 -3.21828 -0.347665 0
M  V30 4973 H 458.182 -3.18068 1.96935 0
M  V30 4974 H 459.515 -4.19512 2.5743 0
M  V30 4975 N 461.167 -1.02423 -1.1978 0
M  V30 4976 C 462.444 -0.632802 -1.85081 0
M  V30 4977 C 462.824 0.888745 -1.9148 0
M  V30 4978 O 462.172 1.78357 -1.42832 0
M  V30 4979 C 462.382 -1.28947 -3.24305 0
M  V30 4980 C 463.73 -1.40976 -4.00513 0
M  V30 4981 O 464.754 -1.24628 -3.33686 0
M  V30 4982 O 463.613 -1.67467 -5.20209 0
M  V30 4983 H 460.707 -0.219348 -0.79738 0
M  V30 4984 H 463.253 -1.12209 -1.27307 0
M  V30 4985 H 462.025 -2.3288 -3.14456 0
M  V30 4986 H 461.648 -0.787748 -3.89718 0
M  V30 4987 N 462.645 1.35699 -0.801477 0
M  V30 4988 C 463.608 2.28199 -0.213994 0
M  V30 4989 C 464.608 1.49359 0.595691 0
M  V30 4990 O 465.798 1.69186 0.414921 0
M  V30 4991 C 462.93 3.33587 0.702297 0
M  V30 4992 H 464.123 2.81666 -1.02976 0
M  V30 4993 H 461.676 1.45467 -0.571759 0
M  V30 4994 H 462.411 2.85297 1.54195 0
M  V30 4995 H 462.196 3.91906 0.123484 0
M  V30 4996 H 463.686 4.02638 1.10783 0
M  V30 4997 N 464.123 0.554532 1.47522 0
M  V30 4998 C 465.053 -0.182974 2.32782 0
M  V30 4999 C 466.034 -0.911377 1.43624 0
M  V30 5000 O 467.219 -0.892366 1.72483 0
M  V30 5001 C 464.349 -1.21513 3.25349 0
M  V30 5002 C 463.303 -0.603355 4.23726 0
M  V30 5003 C 462.629 -1.73995 5.05598 0
M  V30 5004 C 463.929 0.441121 5.20434 0
M  V30 5005 H 465.623 0.52882 2.94693 0
M  V30 5006 H 463.169 0.255759 1.41711 0
M  V30 5007 H 465.122 -1.73922 3.83835 0
M  V30 5008 H 463.846 -1.95683 2.61487 0
M  V30 5009 H 462.505 -0.10059 3.66462 0
M  V30 5010 H 462.153 -2.47063 4.38143 0
M  V30 5011 H 461.853 -1.3364 5.72201 0
M  V30 5012 H 463.377 -2.26735 5.66942 0
M  V30 5013 H 464.791 0.00319931 5.733 0
M  V30 5014 H 463.188 0.763402 5.95224 0
M  V30 5015 H 464.258 1.33799 4.66075 0
M  V30 5016 N 465.601 -1.54893 0.290851 0
M  V30 5017 C 467.012 -1.85584 -0.203816 0
M  V30 5018 C 467.363 -1.21285 -1.54222 0
M  V30 5019 O 466.488 -0.506841 -2.10381 0
M  V30 5020 C 467.083 -3.367 -0.376595 0
M  V30 5021 C 465.642 -3.6746 -0.815485 0
M  V30 5022 C 464.789 -2.77178 0.0821087 0
M  V30 5023 H 467.74 -1.50208 0.512175 0
M  V30 5024 H 467.761 -3.60656 -1.21275 0
M  V30 5025 H 467.273 -3.8347 0.59767 0
M  V30 5026 H 465.374 -3.26201 -1.80066 0
M  V30 5027 H 465.487 -4.7478 -0.641905 0
M  V30 5028 H 463.851 -2.50925 -0.436895 0
M  V30 5029 H 464.634 -3.26767 1.05254 0
M  V30 5030 N 467.08 -0.0183926 -1.57589 0
M  V30 5031 C 468.491 0.521927 -1.79256 0
M  V30 5032 C 468.842 1.72885 -0.927636 0
M  V30 5033 O 467.967 2.15978 -0.135091 0
M  V30 5034 C 468.562 0.953632 -3.25102 0
M  V30 5035 C 467.121 1.43913 -3.47801 0
M  V30 5036 C 466.268 0.398837 -2.74417 0
M  V30 5037 H 469.219 -0.244485 -1.56805 0
M  V30 5038 H 469.24 1.81863 -3.34224 0
M  V30 5039 H 468.752 0.0750123 -3.88028 0
M  V30 5040 H 466.853 2.33804 -2.90115 0
M  V30 5041 H 466.966 1.45391 -4.56507 0
M  V30 5042 H 465.33 0.864572 -2.39577 0
M  V30 5043 H 466.113 -0.471132 -3.40052 0
M  V30 5044 N 468.558 1.5553 0.254621 0
M  V30 5045 C 469.783 1.81383 1.00573 0
M  V30 5046 C 470.208 0.594419 1.78461 0
M  V30 5047 O 469.566 -0.456403 1.75461 0
M  V30 5048 C 469.614 3.04892 1.92545 0
M  V30 5049 O 468.718 2.81266 3.01601 0
M  V30 5050 H 468.059 0.598969 0.286587 0
M  V30 5051 H 470.589 2.02703 0.277952 0
M  V30 5052 H 470.599 3.34119 2.34155 0
M  V30 5053 H 469.274 3.93287 1.3527 0
M  V30 5054 H 467.851 2.63185 2.64174 0
M  V30 5055 N 470.036 -0.519951 1.48776 0
M  V30 5056 C 470.983 -1.62352 1.64044 0
M  V30 5057 C 471.953 -1.58945 0.482251 0
M  V30 5058 O 473.138 -1.77219 0.706971 0
M  V30 5059 C 470.278 -3.00579 1.69547 0
M  V30 5060 C 469.391 -3.14145 2.96541 0
M  V30 5061 C 468.526 -4.42991 2.93142 0
M  V30 5062 C 467.565 -4.50122 4.14797 0
M  V30 5063 N 466.702 -5.7037 4.09418 0
M  V30 5064 H 471.542 -1.48643 2.58281 0
M  V30 5065 H 469.079 -0.723516 1.28077 0
M  V30 5066 H 471.037 -3.80671 1.70719 0
M  V30 5067 H 469.667 -3.13036 0.787918 0
M  V30 5068 H 468.719 -2.27239 3.05068 0
M  V30 5069 H 470.031 -3.15275 3.86527 0
M  V30 5070 H 469.185 -5.31385 2.92772 0
M  V30 5071 H 467.924 -4.44398 2.00902 0
M  V30 5072 H 466.929 -3.60133 4.15433 0
M  V30 5073 H 468.154 -4.50445 5.08208 0
M  V30 5074 H 466.1 -5.72655 3.20004 0
M  V30 5075 H 466.017 -5.73036 4.93119 0
M  V30 5076 H 467.285 -6.61023 4.13121 0
M  V30 5077 N 471.514 -1.37532 -0.769588 0
M  V30 5078 C 472.477 -1.33292 -1.86456 0
M  V30 5079 C 473.477 -0.236537 -1.59051 0
M  V30 5080 O 474.667 -0.492511 -1.67093 0
M  V30 5081 C 471.799 -1.07118 -3.23633 0
M  V30 5082 H 472.992 -2.30692 -1.91628 0
M  V30 5083 H 470.545 -1.22593 -0.969572 0
M  V30 5084 H 471.28 -0.102578 -3.24138 0
M  V30 5085 H 471.065 -1.86479 -3.44917 0
M  V30 5086 H 472.555 -1.06806 -4.03711 0
M  V30 5087 N 472.992 0.995999 -1.22138 0
M  V30 5088 C 474.403 1.54961 -1.04135 0
M  V30 5089 C 474.754 1.92159 0.396147 0
M  V30 5090 O 473.879 1.74435 1.28069 0
M  V30 5091 C 474.474 2.81581 -1.88408 0
M  V30 5092 C 473.033 3.33396 -1.74712 0
M  V30 5093 C 472.18 2.06509 -1.85066 0
M  V30 5094 H 475.131 0.817436 -1.36028 0
M  V30 5095 H 475.152 3.53822 -1.39966 0
M  V30 5096 H 474.664 2.54476 -2.93025 0
M  V30 5097 H 472.765 3.65416 -0.728159 0
M  V30 5098 H 472.878 4.04208 -2.57202 0
M  V30 5099 H 471.242 2.19925 -1.28472 0
M  V30 5100 H 472.025 1.81804 -2.91208 0
M  V30 5101 N 474.47 1.03057 1.19235 0
M  V30 5102 C 475.695 0.74757 1.93458 0
M  V30 5103 C 476.12 -0.687648 1.7508 0
M  V30 5104 O 475.478 -1.47499 1.05422 0
M  V30 5105 C 475.526 1.10604 3.43219 0
M  V30 5106 O 474.63 0.225671 4.11782 0
M  V30 5107 H 473.971 0.276047 0.603899 0
M  V30 5108 H 476.501 1.3777 1.51263 0
M  V30 5109 H 476.511 1.06366 3.93891 0
M  V30 5110 H 475.186 2.15165 3.55917 0
M  V30 5111 H 473.763 0.326795 3.71465 0
M  V30 5112 N 475.948 -1.35272 0.808662 0
M  V30 5113 C 477.364 -1.51806 0.492653 0
M  V30 5114 C 477.564 -1.7574 -0.985778 0
M  V30 5115 O 476.62 -1.80003 -1.77074 0
M  V30 5116 C 477.933 -2.69202 1.33981 0
M  V30 5117 C 479.481 -2.8308 1.33547 0
M  V30 5118 C 479.956 -4.03502 2.16679 0
M  V30 5119 N 481.447 -4.10684 2.14227 0
M  V30 5120 C 482.182 -5.02984 2.75308 0
M  V30 5121 N 481.678 -6.00603 3.45323 0
M  V30 5122 N 483.471 -4.95746 2.64938 0
M  V30 5123 H 475.622 -1.17993 1.76611 0
M  V30 5124 H 477.885 -0.577476 0.751814 0
M  V30 5125 H 477.591 -2.581 2.38909 0
M  V30 5126 H 477.465 -3.63854 0.994491 0
M  V30 5127 H 479.852 -2.93631 0.294036 0
M  V30 5128 H 479.933 -1.89278 1.72068 0
M  V30 5129 H 479.577 -3.93711 3.20864 0
M  V30 5130 H 479.507 -4.96489 1.75517 0
M  V30 5131 H 481.998 -3.40802 1.63285 0
M  V30 5132 H 482.311 -6.67633 3.89212 0
M  V30 5133 H 480.656 -6.0077 3.49428 0
M  V30 5134 H 483.847 -4.18439 2.09825 0
M  V30 5135 H 484.02 -5.67487 3.12829 0
M  V30 5136 N 477.426 -0.562348 -1.47226 0
M  V30 5137 C 478.654 -0.0452275 -2.06851 0
M  V30 5138 C 479.069 1.25078 -1.41424 0
M  V30 5139 O 478.426 1.75156 -0.512513 0
M  V30 5140 C 478.477 0.148674 -3.61194 0
M  V30 5141 O 478.198 -1.09602 -4.24169 0
M  V30 5142 C 479.699 0.702488 -4.37699 0
M  V30 5143 H 476.919 -0.0481775 -0.669268 0
M  V30 5144 H 479.463 -0.777223 -1.89155 0
M  V30 5145 H 477.618 0.830817 -3.78386 0
M  V30 5146 H 478.032 -0.896982 -5.16773 0
M  V30 5147 H 479.506 0.78743 -5.46355 0
M  V30 5148 H 479.983 1.71493 -4.04335 0
M  V30 5149 H 480.589 0.0558772 -4.25263 0
M  V30 5150 N 478.904 1.54736 -0.299062 0
M  V30 5151 C 480.32 1.59507 0.0543849 0
M  V30 5152 C 480.52 1.31606 1.52585 0
M  V30 5153 O 479.576 1.08853 2.27832 0
M  V30 5154 C 480.889 2.98751 -0.34181 0
M  V30 5155 C 482.437 3.1165 -0.290414 0
M  V30 5156 C 482.912 4.53199 -0.661402 0
M  V30 5157 N 484.403 4.59114 -0.613863 0
M  V30 5158 C 485.138 5.66709 -0.873417 0
M  V30 5159 N 484.634 6.82349 -1.19884 0
M  V30 5160 N 486.427 5.56369 -0.800608 0
M  V30 5161 H 478.578 1.71133 -1.25806 0
M  V30 5162 H 480.841 0.799186 -0.509908 0
M  V30 5163 H 480.547 3.24085 -1.36608 0
M  V30 5164 H 480.421 3.75961 0.305508 0
M  V30 5165 H 482.808 2.86066 0.724605 0
M  V30 5166 H 482.889 2.366 -0.972327 0
M  V30 5167 H 482.533 4.79513 -1.67422 0
M  V30 5168 H 482.463 5.26583 0.0425612 0
M  V30 5169 H 484.954 3.76053 -0.3732 0
M  V30 5170 H 485.267 7.60326 -1.38291 0
M  V30 5171 H 483.612 6.83906 -1.23685 0
M  V30 5172 H 486.803 4.64904 -0.546045 0
M  V30 5173 H 486.976 6.40139 -1.00626 0
M  V30 5174 N 480.382 0.0267497 1.57577 0
M  V30 5175 C 481.798 -0.32962 1.56159 0
M  V30 5176 C 481.998 -1.73059 1.03213 0
M  V30 5177 O 481.054 -2.43233 0.677804 0
M  V30 5178 C 482.367 -0.18039 3.00158 0
M  V30 5179 C 483.915 -0.253334 3.11973 0
M  V30 5180 C 484.39 -0.132921 4.57807 0
M  V30 5181 N 485.881 -0.189979 4.6281 0
M  V30 5182 C 486.616 -0.120554 5.73273 0
M  V30 5183 N 486.112 -0.000180315 6.928 0
M  V30 5184 N 487.905 -0.174369 5.61829 0
M  V30 5185 H 480.056 0.942896 1.90324 0
M  V30 5186 H 482.319 0.3639 0.875375 0
M  V30 5187 H 482.025 0.784576 3.42837 0
M  V30 5188 H 481.899 -0.951565 3.65 0
M  V30 5189 H 484.286 -1.20876 2.69208 0
M  V30 5190 H 484.367 0.548177 2.49857 0
M  V30 5191 H 484.011 0.819073 5.01252 0
M  V30 5192 H 483.941 -0.953264 5.179 0
M  V30 5193 H 486.432 -0.283257 3.76837 0
M  V30 5194 H 486.745 0.0461666 7.72786 0
M  V30 5195 H 485.09 0.034569 6.94991 0
M  V30 5196 H 488.281 -0.266794 4.67339 0
M  V30 5197 H 488.454 -0.116802 6.47895 0
M  V30 5198 N 481.861 -1.55662 -0.24637 0
M  V30 5199 C 482.824 -1.89558 -1.28842 0
M  V30 5200 C 483.824 -0.772082 -1.41052 0
M  V30 5201 O 485.014 -1.04007 -1.39743 0
M  V30 5202 C 482.146 -2.12449 -2.66605 0
M  V30 5203 H 483.339 -2.82735 -1.00004 0
M  V30 5204 H 480.892 -1.48562 -0.485684 0
M  V30 5205 H 481.627 -1.21742 -3.00582 0
M  V30 5206 H 481.412 -2.94273 -2.59125 0
M  V30 5207 H 482.902 -2.39854 -3.41847 0
M  V30 5208 N 483.339 0.512053 -1.4905 0
M  V30 5209 C 484.286 1.6148 -1.64902 0
M  V30 5210 C 485.256 1.58687 -0.490673 0
M  V30 5211 O 486.441 1.76842 -0.71636 0
M  V30 5212 C 483.581 2.99676 -1.71139 0
M  V30 5213 C 482.694 3.12568 -2.98203 0
M  V30 5214 C 481.829 4.4143 -2.95487 0
M  V30 5215 C 480.868 4.47916 -4.17179 0
M  V30 5216 N 480.005 5.68191 -4.12437 0
M  V30 5217 H 484.845 1.47271 -2.59066 0
M  V30 5218 H 482.382 0.716713 -1.28459 0
M  V30 5219 H 484.34 3.79761 -1.72736 0
M  V30 5220 H 482.97 3.12614 -0.804508 0
M  V30 5221 H 482.022 2.25618 -3.06269 0
M  V30 5222 H 483.334 3.1322 -3.88194 0
M  V30 5223 H 482.488 5.29825 -2.95585 0
M  V30 5224 H 481.227 4.43326 -2.03256 0
M  V30 5225 H 480.232 3.57925 -4.17337 0
M  V30 5226 H 481.457 4.47744 -5.1059 0
M  V30 5227 H 479.403 5.7095 -3.23036 0
M  V30 5228 H 479.32 5.70413 -4.96151 0
M  V30 5229 H 480.588 6.58823 -4.16621 0
M  V30 5230 N 484.817 1.37938 0.762283 0
M  V30 5231 C 486.233 1.18945 1.06415 0
M  V30 5232 C 486.433 0.0321163 2.01474 0
M  V30 5233 O 485.489 -0.624844 2.44647 0
M  V30 5234 C 486.802 2.51218 1.65258 0
M  V30 5235 C 488.35 2.57824 1.7747 0
M  V30 5236 C 488.825 3.90251 2.39725 0
M  V30 5237 N 490.316 3.91744 2.47166 0
M  V30 5238 C 491.051 4.90966 2.96209 0
M  V30 5239 N 490.547 6.00585 3.45354 0
M  V30 5240 N 492.34 4.78363 2.9517 0
M  V30 5241 H 484.491 2.11994 0.131301 0
M  V30 5242 H 486.754 0.940262 0.120879 0
M  V30 5243 H 486.46 3.36317 1.02878 0
M  V30 5244 H 486.334 2.68989 2.64433 0
M  V30 5245 H 488.721 1.73126 2.3898 0
M  V30 5246 H 488.802 2.43928 0.770241 0
M  V30 5247 H 488.446 4.75368 1.78852 0
M  V30 5248 H 488.376 4.01454 3.40796 0
M  V30 5249 H 490.867 3.12563 2.12397 0
M  V30 5250 H 491.18 6.72236 3.81207 0
M  V30 5251 H 489.525 6.04217 3.43434 0
M  V30 5252 H 492.716 3.91841 2.56082 0
M  V30 5253 H 492.889 5.55843 3.33081 0
M  V30 5254 N 486.295 -0.989507 1.22664 0
M  V30 5255 C 487.572 -1.70326 0.961688 0
M  V30 5256 C 487.952 -2.04537 -0.522279 0
M  V30 5257 O 487.3 -1.73136 -1.49118 0
M  V30 5258 C 487.51 -2.95135 1.86269 0
M  V30 5259 C 488.858 -3.67842 2.12078 0
M  V30 5260 O 489.882 -3.0515 1.83745 0
M  V30 5261 O 488.741 -4.80644 2.60083 0
M  V30 5262 H 485.835 -0.743589 0.361946 0
M  V30 5263 H 488.381 -1.04555 1.33665 0
M  V30 5264 H 487.153 -2.66382 2.8663 0
M  V30 5265 H 486.776 -3.68645 1.48952 0
M  V30 5266 N 487.773 -1.03688 -1.18687 0
M  V30 5267 C 488.703 -0.645407 -2.24403 0
M  V30 5268 C 489.684 0.349511 -1.66471 0
M  V30 5269 O 490.869 0.230453 -1.92828 0
M  V30 5270 C 487.999 -0.00365337 -3.473 0
M  V30 5271 C 486.953 -0.921705 -4.17958 0
M  V30 5272 C 486.279 -0.144629 -5.34504 0
M  V30 5273 C 487.579 -2.23909 -4.71871 0
M  V30 5274 H 489.273 -1.52917 -2.57404 0
M  V30 5275 H 486.819 -0.736711 -1.23728 0
M  V30 5276 H 488.772 0.281908 -4.20456 0
M  V30 5277 H 487.496 0.914963 -3.13522 0
M  V30 5278 H 486.155 -1.19159 -3.46694 0
M  V30 5279 H 485.803 0.776274 -4.96974 0
M  V30 5280 H 485.503 -0.756206 -5.82714 0
M  V30 5281 H 487.027 0.134004 -6.10453 0
M  V30 5282 H 488.441 -2.0145 -5.36741 0
M  V30 5283 H 486.838 -2.8033 -5.30599 0
M  V30 5284 H 487.908 -2.88822 -3.895 0
M  V30 5285 N 489.251 1.34841 -0.815825 0
M  V30 5286 C 490.662 1.80937 -0.46029 0
M  V30 5287 C 491.013 1.67685 1.01863 0
M  V30 5288 O 490.138 1.21277 1.79223 0
M  V30 5289 C 490.733 3.28509 -0.828708 0
M  V30 5290 C 489.292 3.72712 -0.525644 0
M  V30 5291 C 488.439 2.56676 -1.04941 0
M  V30 5292 H 491.39 1.22688 -1.00664 0
M  V30 5293 H 491.411 3.80279 -0.129757 0
M  V30 5294 H 490.923 3.38122 -1.90513 0
M  V30 5295 H 489.024 3.68642 0.541666 0
M  V30 5296 H 489.137 4.67119 -1.06474 0
M  V30 5297 H 487.501 2.50302 -0.471286 0
M  V30 5298 H 488.284 2.69063 -2.13214 0
M  V30 5299 N 490.729 0.570148 1.46925 0
M  V30 5300 C 491.676 -0.170257 2.30171 0
M  V30 5301 C 492.646 -0.896099 1.39855 0
M  V30 5302 O 493.831 -0.889248 1.68811 0
M  V30 5303 C 490.971 -1.18605 3.24079 0
M  V30 5304 C 490.084 -0.464947 4.29491 0
M  V30 5305 C 489.219 -1.46716 5.10537 0
M  V30 5306 C 488.258 -0.731758 6.0771 0
M  V30 5307 N 487.395 -1.68142 6.81669 0
M  V30 5308 H 492.235 0.545713 2.92961 0
M  V30 5309 H 489.772 0.280938 1.44392 0
M  V30 5310 H 491.73 -1.78771 3.76957 0
M  V30 5311 H 490.36 -1.86989 2.63125 0
M  V30 5312 H 489.412 0.251506 3.79568 0
M  V30 5313 H 490.724 0.110548 4.98677 0
M  V30 5314 H 489.878 -2.14199 5.6763 0
M  V30 5315 H 488.617 -2.07658 4.41282 0
M  V30 5316 H 487.622 -0.0430787 5.49783 0
M  V30 5317 H 488.847 -0.127904 6.7898 0
M  V30 5318 H 486.793 -2.27918 6.15134 0
M  V30 5319 H 486.71 -1.15841 7.47072 0
M  V30 5320 H 487.978 -2.347 7.43328 0
M  V30 5321 N 492.207 -1.54576 0.307264 0
M  V30 5322 C 493.623 -1.59534 -0.0459251 0
M  V30 5323 C 493.823 -1.32414 -1.51884 0
M  V30 5324 O 492.879 -1.1006 -2.27251 0
M  V30 5325 C 494.192 -2.98566 0.357649 0
M  V30 5326 C 495.74 -3.11491 0.306937 0
M  V30 5327 C 496.215 -4.52842 0.685427 0
M  V30 5328 N 497.706 -4.58782 0.638203 0
M  V30 5329 C 498.441 -5.66238 0.903458 0
M  V30 5330 N 497.937 -6.81703 1.23501 0
M  V30 5331 N 499.73 -5.55937 0.830102 0
M  V30 5332 H 491.881 -1.70464 1.26712 0
M  V30 5333 H 494.144 -0.79647 0.514139 0
M  V30 5334 H 493.85 -3.23356 1.38325 0
M  V30 5335 H 493.724 -3.76117 -0.285565 0
M  V30 5336 H 496.111 -2.86446 -0.709424 0
M  V30 5337 H 496.192 -2.36081 0.984861 0
M  V30 5338 H 495.836 -4.78618 1.69963 0
M  V30 5339 H 495.766 -5.26598 -0.0146346 0
M  V30 5340 H 498.257 -3.75849 0.393138 0
M  V30 5341 H 498.57 -7.59582 1.42322 0
M  V30 5342 H 496.915 -6.8324 1.27311 0
M  V30 5343 H 500.106 -4.64608 0.570693 0
M  V30 5344 H 500.279 -6.39597 1.04019 0
M  V30 5345 N 493.685 -0.035106 -1.57561 0
M  V30 5346 C 494.913 0.652258 -1.9635 0
M  V30 5347 C 495.328 1.65317 -0.911897 0
M  V30 5348 O 494.685 1.82194 0.105657 0
M  V30 5349 C 494.736 1.35337 -3.35211 0
M  V30 5350 O 494.457 0.392548 -4.36338 0
M  V30 5351 C 495.958 2.13199 -3.88666 0
M  V30 5352 H 493.178 0.179444 -0.646561 0
M  V30 5353 H 495.722 -0.0966459 -2.04271 0
M  V30 5354 H 493.877 2.05362 -3.28489 0
M  V30 5355 H 494.291 0.891097 -5.16875 0
M  V30 5356 H 495.765 2.577 -4.88154 0
M  V30 5357 H 496.242 2.97353 -3.23231 0
M  V30 5358 H 496.848 1.48118 -3.98674 0
M  V30 5359 N 495.163 1.55791 0.238111 0
M  V30 5360 C 496.126 1.90239 1.27835 0
M  V30 5361 C 497.126 0.779552 1.4064 0
M  V30 5362 O 498.316 1.04747 1.3919 0
M  V30 5363 C 495.448 2.13859 2.65475 0
M  V30 5364 H 496.641 2.83262 0.985034 0
M  V30 5365 H 494.194 1.48818 0.477799 0
M  V30 5366 H 494.929 1.23334 2.99932 0
M  V30 5367 H 494.714 2.95643 2.57561 0
M  V30 5368 H 496.204 2.41664 3.40571 0
M  V30 5369 N 496.642 -0.504142 1.49319 0
M  V30 5370 C 497.87 -1.28256 1.62351 0
M  V30 5371 C 498.285 -1.86502 0.293682 0
M  V30 5372 O 497.642 -1.67678 -0.720449 0
M  V30 5373 C 497.693 -2.41507 2.68992 0
M  V30 5374 O 497.414 -1.85656 3.96817 0
M  V30 5375 C 498.915 -3.32929 2.927 0
M  V30 5376 H 496.135 -0.389115 0.546654 0
M  V30 5377 H 498.679 -0.605531 1.95329 0
M  V30 5378 H 496.834 -3.05046 2.38801 0
M  V30 5379 H 497.248 -2.59981 4.55533 0
M  V30 5380 H 498.722 -4.0868 3.71058 0
M  V30 5381 H 499.199 -3.89733 2.02496 0
M  V30 5382 H 499.805 -2.75158 3.24296 0
M  V30 5383 N 498.12 -1.38341 -0.754957 0
M  V30 5384 C 499.052 -1.31347 -1.87831 0
M  V30 5385 C 500.065 -0.225955 -1.61224 0
M  V30 5386 O 501.254 -0.48341 -1.7183 0
M  V30 5387 C 498.354 -1.01201 -3.23437 0
M  V30 5388 C 497.527 -2.20834 -3.77559 0
M  V30 5389 C 496.586 -1.87454 -4.91678 0
M  V30 5390 O 495.612 -2.59934 -5.06382 0
M  V30 5391 N 496.814 -0.828682 -5.74555 0
M  V30 5392 H 499.579 -2.28147 -1.94342 0
M  V30 5393 H 497.14 -1.32184 -0.934828 0
M  V30 5394 H 499.132 -0.769249 -3.97322 0
M  V30 5395 H 497.702 -0.132011 -3.12321 0
M  V30 5396 H 496.922 -2.61184 -2.95256 0
M  V30 5397 H 498.21 -3.00678 -4.10451 0
M  V30 5398 H 497.608 -0.227591 -5.65242 0
M  V30 5399 H 496.165 -0.645802 -6.48593 0
M  V30 5400 N 499.598 0.982988 -1.23187 0
M  V30 5401 C 501.014 1.2487 -0.993967 0
M  V30 5402 C 501.214 1.99155 0.306498 0
M  V30 5403 O 500.27 2.30688 1.0266 0
M  V30 5404 C 501.583 2.05078 -2.19917 0
M  V30 5405 C 503.131 2.18227 -2.2438 0
M  V30 5406 C 503.606 3.01825 -3.44479 0
M  V30 5407 N 505.097 3.09411 -3.44702 0
M  V30 5408 C 505.832 3.74412 -4.34285 0
M  V30 5409 N 505.328 4.41259 -5.341 0
M  V30 5410 N 507.121 3.71273 -4.22035 0
M  V30 5411 H 499.272 0.485253 -2.06783 0
M  V30 5412 H 501.535 0.276979 -0.906635 0
M  V30 5413 H 501.241 1.57867 -3.14279 0
M  V30 5414 H 501.115 3.05829 -2.2079 0
M  V30 5415 H 503.502 2.64648 -1.30559 0
M  V30 5416 H 503.583 1.16873 -2.2754 0
M  V30 5417 H 503.227 2.56102 -4.38605 0
M  V30 5418 H 503.157 4.03342 -3.38559 0
M  V30 5419 H 505.648 2.61845 -2.7248 0
M  V30 5420 H 505.961 4.88629 -5.98717 0
M  V30 5421 H 504.306 4.39975 -5.38002 0
M  V30 5422 H 507.497 3.18217 -3.43301 0
M  V30 5423 H 507.67 4.21649 -4.92053 0
M  V30 5424 N 501.076 1.04316 1.18135 0
M  V30 5425 C 502.487 0.775505 1.69832 0
M  V30 5426 C 502.838 -0.703348 1.8316 0
M  V30 5427 O 501.963 -1.54729 1.51287 0
M  V30 5428 C 502.558 1.40112 3.0847 0
M  V30 5429 C 501.117 1.18172 3.57368 0
M  V30 5430 C 500.264 1.49022 2.33854 0
M  V30 5431 H 503.215 1.20925 1.02775 0
M  V30 5432 H 503.236 0.805672 3.71873 0
M  V30 5433 H 502.748 2.47744 2.98738 0
M  V30 5434 H 500.849 0.124258 3.72393 0
M  V30 5435 H 500.962 1.8805 4.40652 0
M  V30 5436 H 499.326 0.909995 2.37889 0
M  V30 5437 H 500.109 2.57768 2.26738 0
M  V30 5438 N 502.554 -1.34406 0.822964 0
M  V30 5439 C 503.464 -2.33298 0.246838 0
M  V30 5440 C 504.48 -1.62625 -0.618797 0
M  V30 5441 O 505.656 -1.94391 -0.526685 0
M  V30 5442 C 502.721 -3.41785 -0.581731 0
M  V30 5443 C 501.782 -4.28206 0.306309 0
M  V30 5444 C 501.015 -5.31512 -0.48281 0
M  V30 5445 O 501.238 -5.43973 -1.71607 0
M  V30 5446 O 500.172 -6.01749 0.134884 0
M  V30 5447 H 503.998 -2.84401 1.06534 0
M  V30 5448 H 501.583 -1.37466 0.585108 0
M  V30 5449 H 503.465 -4.08028 -1.05313 0
M  V30 5450 H 502.14 -2.92925 -1.37756 0
M  V30 5451 H 501.047 -3.64885 0.825199 0
M  V30 5452 H 502.38 -4.80507 1.06649 0
M  V30 5453 N 504.032 -0.577932 -1.46621 0
M  V30 5454 C 505.28 -0.061566 -2.02006 0
M  V30 5455 C 505.601 1.30117 -1.4524 0
M  V30 5456 O 504.871 1.85313 -0.63529 0
M  V30 5457 H 503.451 -0.0197692 -0.746738 0
M  V30 5458 H 506.113 -0.752631 -1.79782 0
M  V30 5459 H 505.209 0.0110238 -3.12098 0
M  V30 5460 N 505.51 1.54411 -0.315457 0
M  V30 5461 C 506.738 2.04833 0.291738 0
M  V30 5462 C 507.153 1.19203 1.46411 0
M  V30 5463 O 506.51 0.220867 1.81159 0
M  V30 5464 C 506.561 3.53969 0.73404 0
M  V30 5465 O 506.282 4.36346 -0.391682 0
M  V30 5466 C 507.783 4.2045 1.40489 0
M  V30 5467 H 505.003 0.668195 0.0612947 0
M  V30 5468 H 507.547 1.99276 -0.45929 0
M  V30 5469 H 505.702 3.5984 1.43506 0
M  V30 5470 H 506.116 5.24481 -0.0447088 0
M  V30 5471 H 507.59 5.26278 1.66539 0
M  V30 5472 H 508.067 3.71067 2.3496 0
M  V30 5473 H 508.673 4.18694 0.746662 0
M  V30 5474 N 506.988 0.0434614 1.5754 0
M  V30 5475 C 508.213 -0.645358 1.97104 0
M  V30 5476 C 508.638 -1.64037 0.920521 0
M  V30 5477 O 507.996 -1.80922 -0.11708 0
M  V30 5478 C 508.044 -1.31547 3.35749 0
M  V30 5479 O 507.148 -2.43103 3.33129 0
M  V30 5480 H 506.489 -0.168403 0.64229 0
M  V30 5481 H 509.019 0.109573 2.04306 0
M  V30 5482 H 509.029 -1.66895 3.72304 0
M  V30 5483 H 507.704 -0.586205 4.11748 0
M  V30 5484 H 506.281 -2.0976 3.0831 0
M  V30 5485 N 508.466 -1.55915 -0.229846 0
M  V30 5486 C 509.396 -1.94754 -1.28815 0
M  V30 5487 C 510.377 -0.814657 -1.49323 0
M  V30 5488 O 511.562 -1.07631 -1.61645 0
M  V30 5489 C 508.692 -2.25705 -2.63959 0
M  V30 5490 C 507.646 -3.41406 -2.5812 0
M  V30 5491 C 506.972 -3.57941 -3.97218 0
M  V30 5492 C 508.272 -4.76616 -2.13623 0
M  V30 5493 H 509.966 -2.83404 -0.965547 0
M  V30 5494 H 507.512 -1.36353 -0.463028 0
M  V30 5495 H 509.465 -2.51467 -3.38146 0
M  V30 5496 H 508.189 -1.339 -2.9789 0
M  V30 5497 H 506.848 -3.1568 -1.86391 0
M  V30 5498 H 506.496 -2.63526 -4.28443 0
M  V30 5499 H 506.196 -4.35757 -3.94195 0
M  V30 5500 H 507.72 -3.86042 -4.73079 0
M  V30 5501 H 509.134 -5.01637 -2.77549 0
M  V30 5502 H 507.531 -5.57655 -2.21677 0
M  V30 5503 H 508.601 -4.7253 -1.08829 0
M  V30 5504 N 509.944 0.496216 -1.49584 0
M  V30 5505 C 510.876 1.61404 -1.62731 0
M  V30 5506 C 511.889 1.54613 -0.50978 0
M  V30 5507 O 513.078 1.60458 -0.782017 0
M  V30 5508 C 510.178 3.00212 -1.57245 0
M  V30 5509 C 509.351 3.32138 -2.84611 0
M  V30 5510 C 508.41 4.5038 -2.72112 0
M  V30 5511 O 507.436 4.51926 -3.46051 0
M  V30 5512 N 508.638 5.50575 -1.83977 0
M  V30 5513 H 511.403 1.50552 -2.59141 0
M  V30 5514 H 508.964 0.684182 -1.46733 0
M  V30 5515 H 510.956 3.77241 -1.4653 0
M  V30 5516 H 509.526 3.04964 -0.686729 0
M  V30 5517 H 508.746 2.4396 -3.09641 0
M  V30 5518 H 510.034 3.50268 -3.69039 0
M  V30 5519 H 509.432 5.52128 -1.23171 0
M  V30 5520 H 507.989 6.26687 -1.79182 0
M  V30 5521 N 511.423 1.38739 0.74761 0
M  V30 5522 C 512.355 1.32341 1.87132 0
M  V30 5523 C 513.368 0.234502 1.61102 0
M  V30 5524 O 514.557 0.492516 1.71571 0
M  V30 5525 C 511.657 1.02915 3.22896 0
M  V30 5526 C 510.83 2.22834 3.76383 0
M  V30 5527 C 509.889 1.90059 4.90677 0
M  V30 5528 O 508.915 2.62615 5.04997 0
M  V30 5529 N 510.117 0.859141 5.74107 0
M  V30 5530 H 512.882 2.29175 1.93129 0
M  V30 5531 H 510.443 1.32678 0.927805 0
M  V30 5532 H 512.435 0.79031 3.96908 0
M  V30 5533 H 511.005 0.148572 3.12247 0
M  V30 5534 H 510.225 2.62747 2.93867 0
M  V30 5535 H 511.513 3.02851 4.08851 0
M  V30 5536 H 510.911 0.257564 5.65113 0
M  V30 5537 H 509.468 0.680189 6.48241 0
M  V30 5538 N 512.901 -0.976442 1.23707 0
M  V30 5539 C 514.178 -1.69296 0.979699 0
M  V30 5540 C 514.558 -2.0508 -0.500555 0
M  V30 5541 O 513.906 -1.74708 -1.47273 0
M  V30 5542 C 514.116 -2.93143 1.89389 0
M  V30 5543 C 515.464 -3.65572 2.15968 0
M  V30 5544 O 516.488 -3.03184 1.86971 0
M  V30 5545 O 515.347 -4.77859 2.65167 0
M  V30 5546 H 512.441 -0.739708 0.369812 0
M  V30 5547 H 514.987 -1.03131 1.34767 0
M  V30 5548 H 513.759 -2.63327 2.89439 0
M  V30 5549 H 513.382 -3.67044 1.52854 0
M  V30 5550 N 514.379 -1.04941 -1.1758 0
M  V30 5551 C 515.79 -0.784501 -1.69418 0
M  V30 5552 C 516.141 0.693625 -1.8353 0
M  V30 5553 O 515.266 1.53925 -1.52106 0
M  V30 5554 C 515.861 -1.41746 -3.07723 0
M  V30 5555 C 514.42 -1.20066 -3.56737 0
M  V30 5556 C 513.567 -1.5026 -2.33061 0
M  V30 5557 H 516.518 -1.21469 -1.02133 0
M  V30 5558 H 516.539 -0.825381 -3.7144 0
M  V30 5559 H 516.051 -2.49325 -2.9742 0
M  V30 5560 H 514.152 -0.144006 -3.72322 0
M  V30 5561 H 514.265 -1.90384 -4.39648 0
M  V30 5562 H 512.629 -0.922598 -2.37403 0
M  V30 5563 H 513.412 -2.58967 -2.25368 0
M  V30 5564 N 515.857 1.33968 -0.830081 0
M  V30 5565 C 516.767 2.33164 -0.259207 0
M  V30 5566 C 517.783 1.62951 0.610164 0
M  V30 5567 O 518.959 1.94668 0.516369 0
M  V30 5568 C 516.024 3.42088 0.563598 0
M  V30 5569 C 515.085 4.28037 -0.329014 0
M  V30 5570 C 514.318 5.3176 0.454616 0
M  V30 5571 O 514.541 5.44876 1.6872 0
M  V30 5572 O 513.475 6.01669 -0.166794 0
M  V30 5573 H 517.301 2.83832 -1.08041 0
M  V30 5574 H 514.886 1.37154 -0.59239 0
M  V30 5575 H 516.768 4.08581 1.03147 0
M  V30 5576 H 515.443 2.93651 1.36201 0
M  V30 5577 H 514.35 3.64443 -0.844538 0
M  V30 5578 H 515.683 4.79934 -1.09196 0
M  V30 5579 N 517.335 0.585699 1.46312 0
M  V30 5580 C 518.298 -0.135673 2.28798 0
M  V30 5581 C 519.298 -0.815988 1.38558 0
M  V30 5582 O 520.488 -0.667487 1.60904 0
M  V30 5583 C 517.62 -1.20163 3.1902 0
M  V30 5584 H 518.813 0.589257 2.94054 0
M  V30 5585 H 516.366 0.343794 1.52472 0
M  V30 5586 H 517.101 -1.95804 2.58517 0
M  V30 5587 H 516.886 -0.718282 3.85465 0
M  V30 5588 H 518.376 -1.70749 3.81096 0
M  V30 5589 N 518.813 -1.54241 0.323641 0
M  V30 5590 C 520.224 -1.85975 -0.164405 0
M  V30 5591 C 520.575 -1.24529 -1.51615 0
M  V30 5592 O 519.7 -0.551351 -2.09258 0
M  V30 5593 C 520.295 -3.37424 -0.305091 0
M  V30 5594 C 518.854 -3.69107 -0.737358 0
M  V30 5595 C 518.001 -2.76942 0.140884 0
M  V30 5596 H 520.952 -1.49088 0.543922 0
M  V30 5597 H 520.973 -3.63147 -1.13598 0
M  V30 5598 H 520.485 -3.82116 0.678876 0
M  V30 5599 H 518.586 -3.29947 -1.73107 0
M  V30 5600 H 518.699 -4.76035 -0.541053 0
M  V30 5601 H 517.063 -2.51795 -0.383572 0
M  V30 5602 H 517.846 -3.24461 1.12162 0
M  V30 5603 N 520.291 -0.0518155 -1.57515 0
M  V30 5604 C 521.519 0.631395 -1.9703 0
M  V30 5605 C 521.934 1.64341 -0.92938 0
M  V30 5606 O 521.291 1.82296 0.0863266 0
M  V30 5607 C 521.342 1.31774 -3.36627 0
M  V30 5608 O 521.063 0.346247 -4.3673 0
M  V30 5609 C 522.564 2.09065 -3.90905 0
M  V30 5610 H 519.784 0.172576 -0.648428 0
M  V30 5611 H 522.328 -0.118306 -2.04158 0
M  V30 5612 H 520.483 2.01867 -3.30649 0
M  V30 5613 H 520.897 0.836226 -5.17791 0
M  V30 5614 H 522.371 2.52508 -4.9086 0
M  V30 5615 H 522.848 2.93908 -3.26366 0
M  V30 5616 H 523.454 1.43882 -4.00223 0
M  V30 5617 N 521.769 1.56035 0.221574 0
M  V30 5618 C 523.015 1.79312 0.947372 0
M  V30 5619 C 523.348 0.621453 1.83988 0
M  V30 5620 O 522.623 -0.379287 1.90766 0
M  V30 5621 C 522.906 3.1267 1.78633 0
M  V30 5622 C 522.759 4.40284 0.920312 0
M  V30 5623 C 524.078 3.4247 2.7641 0
M  V30 5624 H 521.197 0.652328 0.342982 0
M  V30 5625 H 523.839 1.88765 0.216244 0
M  V30 5626 H 521.989 3.04741 2.40967 0
M  V30 5627 H 523.661 4.60232 0.313718 0
M  V30 5628 H 521.904 4.33212 0.225734 0
M  V30 5629 H 522.575 5.30033 1.54171 0
M  V30 5630 H 525.051 3.50526 2.24211 0
M  V30 5631 H 523.927 4.3695 3.32213 0
M  V30 5632 H 524.188 2.64635 3.54148 0
M  V30 5633 N 523.247 -0.488276 1.49845 0
M  V30 5634 C 524.658 -1.06955 1.53028 0
M  V30 5635 C 525.009 -1.9351 0.323797 0
M  V30 5636 O 524.134 -2.08891 -0.565116 0
M  V30 5637 C 524.729 -1.94643 2.77307 0
M  V30 5638 C 523.288 -2.4791 2.83227 0
M  V30 5639 C 522.435 -1.25833 2.47106 0
M  V30 5640 H 525.386 -0.271626 1.56358 0
M  V30 5641 H 525.407 -2.79496 2.5819 0
M  V30 5642 H 524.919 -1.31621 3.65099 0
M  V30 5643 H 523.02 -3.14535 1.99745 0
M  V30 5644 H 523.133 -2.84193 3.85709 0
M  V30 5645 H 521.497 -1.58764 1.99163 0
M  V30 5646 H 522.28 -0.644993 3.37186 0
M  V30 5647 N 524.725 -1.39134 -0.740242 0
M  V30 5648 C 525.672 -1.37434 -1.8542 0
M  V30 5649 C 526.642 -0.234822 -1.64432 0
M  V30 5650 O 527.827 -0.429125 -1.85912 0
M  V30 5651 C 524.967 -1.21844 -3.22875 0
M  V30 5652 C 524.08 -2.45296 -3.55603 0
M  V30 5653 C 523.215 -2.22334 -4.82432 0
M  V30 5654 C 522.254 -3.41488 -5.07988 0
M  V30 5655 N 521.391 -3.17877 -6.26018 0
M  V30 5656 H 526.231 -2.3266 -1.86207 0
M  V30 5657 H 523.768 -1.15578 -0.909946 0
M  V30 5658 H 525.726 -1.10818 -4.02213 0
M  V30 5659 H 524.356 -0.3025 -3.21379 0
M  V30 5660 H 523.408 -2.66945 -2.71006 0
M  V30 5661 H 524.72 -3.34063 -3.7041 0
M  V30 5662 H 523.874 -2.0852 -5.69741 0
M  V30 5663 H 522.613 -1.30954 -4.6979 0
M  V30 5664 H 521.618 -3.55807 -4.19144 0
M  V30 5665 H 522.843 -4.33763 -5.22519 0
M  V30 5666 H 520.789 -2.29156 -6.14673 0
M  V30 5667 H 520.706 -4.00198 -6.41387 0
M  V30 5668 H 521.974 -3.07746 -7.16179 0
M  V30 5669 N 526.204 0.969867 -1.24223 0
M  V30 5670 C 527.151 2.06407 -1.0327 0
M  V30 5671 C 528.121 1.66014 0.0533 0
M  V30 5672 O 529.306 1.90533 -0.100896 0
M  V30 5673 C 526.446 3.3909 -0.641262 0
M  V30 5674 C 525.559 3.9269 -1.80051 0
M  V30 5675 C 524.694 5.13631 -1.35486 0
M  V30 5676 C 523.733 5.59423 -2.48419 0
M  V30 5677 N 522.87 6.71586 -2.04737 0
M  V30 5678 H 527.71 2.23663 -1.96923 0
M  V30 5679 H 525.247 1.09624 -0.980862 0
M  V30 5680 H 527.205 4.15323 -0.395351 0
M  V30 5681 H 525.835 3.21765 0.258269 0
M  V30 5682 H 524.887 3.13116 -2.16014 0
M  V30 5683 H 526.199 4.22636 -2.64916 0
M  V30 5684 H 525.353 5.97231 -1.0677 0
M  V30 5685 H 524.092 4.85364 -0.476722 0
M  V30 5686 H 523.097 4.74398 -2.77897 0
M  V30 5687 H 524.322 5.89705 -3.36786 0
M  V30 5688 H 522.268 6.45058 -1.19318 0
M  V30 5689 H 522.185 7.0097 -2.83156 0
M  V30 5690 H 523.453 7.58633 -1.79154 0
M  V30 5691 N 527.682 1.05563 1.17022 0
M  V30 5692 C 528.93 0.76642 1.87004 0
M  V30 5693 C 529.251 -0.708854 1.8166 0
M  V30 5694 O 528.521 -1.51242 1.2451 0
M  V30 5695 H 527.101 0.280516 0.692329 0
M  V30 5696 H 529.763 1.33557 1.41945 0
M  V30 5697 H 528.859 1.08472 2.92644 0
M  V30 5698 N 529.16 -1.33526 0.837174 0
M  V30 5699 C 530.576 -1.50727 0.524743 0
M  V30 5700 C 530.776 -1.77792 -0.948279 0
M  V30 5701 O 529.832 -1.83719 -1.73216 0
M  V30 5702 C 531.145 -2.66299 1.39661 0
M  V30 5703 C 532.693 -2.80183 1.39521 0
M  V30 5704 C 533.168 -3.98815 2.25189 0
M  V30 5705 N 534.659 -4.06047 2.2289 0
M  V30 5706 C 535.394 -4.97032 2.85915 0
M  V30 5707 N 534.89 -5.93143 3.57985 0
M  V30 5708 N 536.683 -4.90015 2.75394 0
M  V30 5709 H 528.834 -1.1422 1.79074 0
M  V30 5710 H 531.097 -0.561399 0.763894 0
M  V30 5711 H 530.803 -2.52974 2.4433 0
M  V30 5712 H 530.677 -3.61663 1.07145 0
M  V30 5713 H 533.064 -2.92942 0.356253 0
M  V30 5714 H 533.145 -1.85586 1.76044 0
M  V30 5715 H 532.789 -3.86817 3.29143 0
M  V30 5716 H 532.719 -4.92654 1.86009 0
M  V30 5717 H 535.21 -3.37262 1.70478 0
M  V30 5718 H 535.523 -6.59227 4.03286 0
M  V30 5719 H 533.868 -5.93223 3.62093 0
M  V30 5720 H 537.059 -4.13894 2.18654 0
M  V30 5721 H 537.232 -5.60724 3.24796 0
M  V30 5722 N 530.638 -0.59345 -1.46 0
M  V30 5723 C 532.054 -0.255965 -1.57534 0
M  V30 5724 C 532.254 1.24167 -1.58697 0
M  V30 5725 O 531.31 2.02398 -1.50968 0
M  V30 5726 C 532.623 -0.91466 -2.86451 0
M  V30 5727 C 534.171 -0.889253 -3.00102 0
M  V30 5728 C 534.646 -1.52769 -4.3177 0
M  V30 5729 N 536.137 -1.49253 -4.38495 0
M  V30 5730 C 536.872 -1.9558 -5.39014 0
M  V30 5731 N 536.368 -2.49929 -6.46148 0
M  V30 5732 N 538.161 -1.86432 -5.30282 0
M  V30 5733 H 530.312 -1.56604 -1.43489 0
M  V30 5734 H 532.575 -0.655207 -0.685133 0
M  V30 5735 H 532.281 -1.96861 -2.91442 0
M  V30 5736 H 532.155 -0.429356 -3.74748 0
M  V30 5737 H 534.542 0.156111 -2.94687 0
M  V30 5738 H 534.623 -1.41268 -2.13253 0
M  V30 5739 H 534.267 -2.57231 -4.37944 0
M  V30 5740 H 534.197 -0.979398 -5.17412 0
M  V30 5741 H 536.688 -1.09536 -3.61677 0
M  V30 5742 H 537.001 -2.83109 -7.19075 0
M  V30 5743 H 535.346 -2.53961 -6.46938 0
M  V30 5744 H 538.537 -1.43722 -4.4549 0
M  V30 5745 H 538.71 -2.22852 -6.08474 0
M  V30 5746 N 532.116 1.54067 -0.331816 0
M  V30 5747 C 533.063 2.24623 0.530372 0
M  V30 5748 C 534.033 1.24009 1.10503 0
M  V30 5749 O 535.218 1.52712 1.14384 0
M  V30 5750 C 532.358 3.01374 1.68129 0
M  V30 5751 C 531.471 4.16821 1.13507 0
M  V30 5752 C 530.606 4.81085 2.25234 0
M  V30 5753 C 529.645 5.88621 1.67903 0
M  V30 5754 N 528.782 6.46713 2.73326 0
M  V30 5755 H 533.622 2.97898 -0.0778607 0
M  V30 5756 H 531.159 1.47014 -0.0501965 0
M  V30 5757 H 533.117 3.44125 2.35868 0
M  V30 5758 H 531.747 2.30419 2.26069 0
M  V30 5759 H 530.799 3.78796 0.348979 0
M  V30 5760 H 532.111 4.94203 0.675633 0
M  V30 5761 H 531.265 5.26846 3.00862 0
M  V30 5762 H 530.004 4.03102 2.74518 0
M  V30 5763 H 529.009 5.42254 0.907773 0
M  V30 5764 H 530.234 6.68506 1.19487 0
M  V30 5765 H 528.18 5.71599 3.21886 0
M  V30 5766 H 528.097 7.19532 2.3197 0
M  V30 5767 H 529.365 6.97129 3.48758 0
M  V30 5768 N 533.594 0.0601682 1.57485 0
M  V30 5769 C 534.842 -0.610386 1.92662 0
M  V30 5770 C 535.163 -1.70849 0.939981 0
M  V30 5771 O 534.433 -1.95895 -0.0137455 0
M  V30 5772 H 533.013 -0.228457 0.711208 0
M  V30 5773 H 535.675 0.115288 1.94559 0
M  V30 5774 H 534.771 -1.0432 2.94149 0
M  V30 5775 N 535.072 -1.5615 -0.213296 0
M  V30 5776 C 536.488 -1.49327 -0.56336 0
M  V30 5777 C 536.688 -0.756826 -1.86747 0
M  V30 5778 O 535.744 -0.299866 -2.50713 0
M  V30 5779 C 537.057 -2.9392 -0.634944 0
M  V30 5780 C 538.605 -3.04487 -0.725013 0
M  V30 5781 C 539.08 -4.50456 -0.82787 0
M  V30 5782 N 540.571 -4.54533 -0.891876 0
M  V30 5783 C 541.306 -5.64766 -0.991315 0
M  V30 5784 N 540.802 -6.84733 -1.05419 0
M  V30 5785 N 542.595 -5.52637 -1.02709 0
M  V30 5786 H 534.746 -2.02453 0.642366 0
M  V30 5787 H 537.009 -0.920548 0.226487 0
M  V30 5788 H 536.715 -3.50783 0.253859 0
M  V30 5789 H 536.589 -3.46274 -1.49579 0
M  V30 5790 H 538.976 -2.47685 -1.60425 0
M  V30 5791 H 539.057 -2.55289 0.161669 0
M  V30 5792 H 538.701 -5.07878 0.0469464 0
M  V30 5793 H 538.631 -4.97369 -1.73009 0
M  V30 5794 H 541.122 -3.68141 -0.85327 0
M  V30 5795 H 541.435 -7.64493 -1.13007 0
M  V30 5796 H 539.78 -6.87427 -1.02318 0
M  V30 5797 H 542.971 -4.5784 -0.974687 0
M  V30 5798 H 543.144 -6.38576 -1.10113 0
M  V30 5799 N 536.55 0.480323 -1.50102 0
M  V30 5800 C 537.482 1.59669 -1.64433 0
M  V30 5801 C 538.495 1.54063 -0.52615 0
M  V30 5802 O 539.684 1.59619 -0.798992 0
M  V30 5803 C 536.784 2.98527 -1.6042 0
M  V30 5804 C 535.957 3.291 -2.88117 0
M  V30 5805 C 535.016 4.47468 -2.76873 0
M  V30 5806 O 534.042 4.4823 -3.50825 0
M  V30 5807 N 535.244 5.48593 -1.89806 0
M  V30 5808 H 538.009 1.47795 -2.60723 0
M  V30 5809 H 535.57 0.66858 -1.4745 0
M  V30 5810 H 537.562 3.75666 -1.50523 0
M  V30 5811 H 536.132 3.04218 -0.719036 0
M  V30 5812 H 535.352 2.40662 -3.12211 0
M  V30 5813 H 536.64 3.46334 -3.72734 0
M  V30 5814 H 536.038 5.50791 -1.2902 0
M  V30 5815 H 534.595 6.24752 -1.85819 0
M  V30 5816 N 538.028 1.39524 0.732853 0
M  V30 5817 C 538.991 1.38189 1.82857 0
M  V30 5818 C 539.991 0.278624 1.58368 0
M  V30 5819 O 541.181 0.536639 1.65728 0
M  V30 5820 C 538.313 1.15661 3.2068 0
M  V30 5821 H 539.506 2.35692 1.85444 0
M  V30 5822 H 537.059 1.2512 0.936728 0
M  V30 5823 H 537.794 0.188482 3.23752 0
M  V30 5824 H 537.579 1.95559 3.39852 0
M  V30 5825 H 539.069 1.17472 4.00737 0
M  V30 5826 N 539.506 -0.963266 1.24736 0
M  V30 5827 C 540.469 -2.04013 1.04457 0
M  V30 5828 C 541.469 -1.608 0.000335555 0
M  V30 5829 O 542.659 -1.72515 0.241719 0
M  V30 5830 C 539.791 -3.35858 0.584162 0
M  V30 5831 H 540.984 -2.23436 2.00041 0
M  V30 5832 H 538.537 -1.13914 1.07021 0
M  V30 5833 H 539.272 -3.22128 -0.374673 0
M  V30 5834 H 539.057 -3.68568 1.3379 0
M  V30 5835 H 540.547 -4.1502 0.463451 0
M  V30 5836 N 540.985 -1.06182 -1.16461 0
M  V30 5837 C 542.21 -0.798599 -1.91408 0
M  V30 5838 C 542.635 0.640987 -1.76842 0
M  V30 5839 O 541.993 1.44652 -1.09296 0
M  V30 5840 C 542.041 -1.19665 -3.40165 0
M  V30 5841 O 541.145 -0.334768 -4.11039 0
M  V30 5842 H 540.486 -0.291961 -0.596368 0
M  V30 5843 H 543.016 -1.41732 -1.47557 0
M  V30 5844 H 543.026 -1.16772 -3.90933 0
M  V30 5845 H 541.701 -2.24526 -3.50087 0
M  V30 5846 H 540.278 -0.425168 -3.70468 0
M  V30 5847 N 542.463 1.3308 -0.844243 0
M  V30 5848 C 543.711 1.97215 -0.441676 0
M  V30 5849 C 544.032 1.67185 1.0037 0
M  V30 5850 O 543.302 0.973588 1.69994 0
M  V30 5851 H 541.882 0.72959 -0.160335 0
M  V30 5852 H 544.544 1.62348 -1.07838 0
M  V30 5853 H 543.64 3.06698 -0.57815 0
M  V30 5854 N 543.941 0.601185 1.45683 0
M  V30 5855 C 544.891 -0.142686 2.27553 0
M  V30 5856 C 545.875 -0.844598 1.3695 0
M  V30 5857 O 547.067 -0.735644 1.60988 0
M  V30 5858 C 544.196 -1.14364 3.23691 0
M  V30 5859 C 543.282 -0.442894 4.21781 0
M  V30 5860 N 543.673 0.51189 5.03203 0
M  V30 5861 C 541.971 -0.691277 4.4061 0
M  V30 5862 C 542.672 0.92318 5.74328 0
M  V30 5863 N 541.648 0.268308 5.42937 0
M  V30 5864 H 545.45 0.590736 2.87902 0
M  V30 5865 H 542.964 0.424365 1.56757 0
M  V30 5866 H 544.961 -1.6909 3.8107 0
M  V30 5867 H 543.621 -1.87768 2.64902 0
M  V30 5868 H 544.632 0.888329 5.10225 0
M  V30 5869 H 541.309 -1.41049 3.92952 0
M  V30 5870 H 542.699 1.71029 6.49768 0
M  V30 5871 N 545.419 -1.53889 0.339982 0
M  V30 5872 C 546.659 -2.02765 -0.258011 0
M  V30 5873 C 547.023 -1.22249 -1.48051 0
M  V30 5874 O 548.224 -1.61007 -2.15245 0
M  V30 5875 C 546.495 -3.5286 -0.567872 0
M  V30 5876 S 548.054 -4.23647 -1.14318 0
M  V30 5877 H 544.872 -0.706814 -0.0770389 0
M  V30 5878 H 547.474 -1.89594 0.476917 0
M  V30 5879 H 546.178 -4.09073 0.329745 0
M  V30 5880 H 545.709 -3.70144 -1.33256 0
M  V30 5881 H 547.724 -4.32676 -2.42911 0
M  V30 5882 N 546.897 -0.0685191 -1.57451 0
M  V30 5883 C 548.313 0.288101 -1.56978 0
M  V30 5884 C 548.513 1.70262 -1.07765 0
M  V30 5885 O 547.569 2.4135 -0.742054 0
M  V30 5886 C 548.882 0.100745 -3.00531 0
M  V30 5887 C 550.43 0.170531 -3.12535 0
M  V30 5888 C 550.905 0.0114944 -4.57999 0
M  V30 5889 N 552.396 0.0672065 -4.63151 0
M  V30 5890 C 553.131 -0.0314813 -5.73391 0
M  V30 5891 N 552.627 -0.183503 -6.92557 0
M  V30 5892 N 554.42 0.0253489 -5.62094 0
M  V30 5893 H 546.571 -0.993026 -1.87757 0
M  V30 5894 H 548.834 -0.386981 -0.865419 0
M  V30 5895 H 548.54 -0.875197 -3.40636 0
M  V30 5896 H 548.414 0.854457 -3.67395 0
M  V30 5897 H 550.801 1.13696 -2.72318 0
M  V30 5898 H 550.882 -0.614229 -2.48316 0
M  V30 5899 H 550.526 -0.951684 -4.98904 0
M  V30 5900 H 550.456 0.815617 -5.20245 0
M  V30 5901 H 552.947 0.183246 -3.77455 0
M  V30 5902 H 553.26 -0.251041 -7.72392 0
M  V30 5903 H 551.605 -0.218822 -6.94655 0
M  V30 5904 H 554.796 0.142794 -4.67882 0
M  V30 5905 H 554.969 -0.0550166 -6.47977 0
M  V30 5906 N 548.375 1.56261 0.205012 0
M  V30 5907 C 549.786 1.70056 0.770574 0
M  V30 5908 C 550.137 0.673398 1.84282 0
M  V30 5909 O 549.262 -0.172196 2.15714 0
M  V30 5910 C 549.857 3.08316 1.40451 0
M  V30 5911 C 548.416 3.2391 1.91727 0
M  V30 5912 C 547.563 2.66001 0.783516 0
M  V30 5913 H 550.514 1.58688 -0.019911 0
M  V30 5914 H 550.535 3.05094 2.27371 0
M  V30 5915 H 550.047 3.83053 0.623882 0
M  V30 5916 H 548.148 2.54072 2.7254 0
M  V30 5917 H 548.261 4.3131 2.08588 0
M  V30 5918 H 546.625 2.24915 1.19521 0
M  V30 5919 H 547.408 3.43297 0.0152883 0
M  V30 5920 N 549.853 -0.472356 1.50355 0
M  V30 5921 C 551.269 -0.806001 1.37753 0
M  V30 5922 C 551.469 -1.968 0.432649 0
M  V30 5923 O 550.525 -2.52189 -0.12519 0
M  V30 5924 C 551.838 -1.11926 2.79093 0
M  V30 5925 C 553.386 -1.22579 2.87999 0
M  V30 5926 C 553.861 -1.57218 4.3017 0
M  V30 5927 N 555.352 -1.64212 4.33115 0
M  V30 5928 C 556.087 -1.92517 5.40116 0
M  V30 5929 N 555.583 -2.1885 6.57325 0
M  V30 5930 N 557.376 -1.94008 5.27558 0
M  V30 5931 H 549.527 0.293451 2.10363 0
M  V30 5932 H 551.79 0.0687672 0.945503 0
M  V30 5933 H 551.496 -0.338504 3.50067 0
M  V30 5934 H 551.37 -2.05577 3.16256 0
M  V30 5935 H 553.757 -1.99722 2.17245 0
M  V30 5936 H 553.838 -0.269107 2.54381 0
M  V30 5937 H 553.482 -0.806154 5.01461 0
M  V30 5938 H 553.412 -2.54034 4.61275 0
M  V30 5939 H 555.903 -1.45906 3.48597 0
M  V30 5940 H 556.216 -2.39718 7.3468 0
M  V30 5941 H 554.561 -2.16245 6.60502 0
M  V30 5942 H 557.752 -1.72931 4.34986 0
M  V30 5943 H 557.925 -2.15731 6.11035 0
M  V30 5944 N 551.331 -1.39911 -0.725443 0
M  V30 5945 C 552.278 -1.39393 -1.83952 0
M  V30 5946 C 553.248 -0.252249 -1.64173 0
M  V30 5947 O 554.433 -0.44882 -1.85446 0
M  V30 5948 C 551.573 -1.25262 -3.21564 0
M  V30 5949 C 550.686 -2.49054 -3.52982 0
M  V30 5950 C 549.821 -2.27439 -4.80047 0
M  V30 5951 C 548.86 -3.46857 -5.04338 0
M  V30 5952 N 547.997 -3.24499 -6.22611 0
M  V30 5953 H 552.837 -2.34622 -1.83729 0
M  V30 5954 H 550.374 -1.16537 -0.897636 0
M  V30 5955 H 552.332 -1.15077 -4.01015 0
M  V30 5956 H 550.962 -0.33657 -3.21041 0
M  V30 5957 H 550.014 -2.69805 -2.6816 0
M  V30 5958 H 551.326 -3.37973 -3.66846 0
M  V30 5959 H 550.48 -2.14551 -5.67497 0
M  V30 5960 H 549.219 -1.35929 -4.68374 0
M  V30 5961 H 548.224 -3.60232 -4.15346 0
M  V30 5962 H 549.449 -4.3928 -5.17889 0
M  V30 5963 H 547.395 -2.35663 -6.12208 0
M  V30 5964 H 547.312 -4.06978 -6.37106 0
M  V30 5965 H 548.58 -3.15325 -7.12875 0
M  V30 5966 N 552.809 0.956637 -1.25245 0
M  V30 5967 C 554.055 1.70352 -1.10036 0
M  V30 5968 C 554.388 1.90869 0.358156 0
M  V30 5969 O 553.663 1.47819 1.26411 0
M  V30 5970 C 553.946 3.08766 -1.85298 0
M  V30 5971 C 553.799 2.95672 -3.38966 0
M  V30 5972 C 555.118 4.08622 -1.63451 0
M  V30 5973 H 552.237 0.618279 -0.401123 0
M  V30 5974 H 554.879 1.11212 -1.54051 0
M  V30 5975 H 553.029 3.59252 -1.47887 0
M  V30 5976 H 554.701 2.52527 -3.86041 0
M  V30 5977 H 552.944 2.31634 -3.6678 0
M  V30 5978 H 553.615 3.93776 -3.86839 0
M  V30 5979 H 556.091 3.67038 -1.96015 0
M  V30 5980 H 554.967 5.03514 -2.18551 0
M  V30 5981 H 555.228 4.3834 -0.575357 0
M  V30 5982 N 554.287 1.06798 1.15896 0
M  V30 5983 C 555.234 0.683314 2.20453 0
M  V30 5984 C 556.204 -0.32255 1.62938 0
M  V30 5985 O 557.389 -0.210276 1.89638 0
M  V30 5986 C 554.529 0.0813266 3.45004 0
M  V30 5987 C 553.642 1.13799 4.16742 0
M  V30 5988 C 552.777 0.501598 5.28826 0
M  V30 5989 C 551.816 1.54144 5.92373 0
M  V30 5990 N 550.953 0.928038 6.9594 0
M  V30 5991 H 555.793 1.57932 2.52708 0
M  V30 5992 H 553.33 0.789544 1.24115 0
M  V30 5993 H 555.288 -0.285274 4.16224 0
M  V30 5994 H 553.918 -0.77806 3.13283 0
M  V30 5995 H 552.97 1.62223 3.44075 0
M  V30 5996 H 554.282 1.92664 4.60089 0
M  V30 5997 H 553.436 0.0823162 6.06644 0
M  V30 5998 H 552.175 -0.318883 4.86656 0
M  V30 5999 H 551.18 1.97056 5.13273 0
M  V30 6000 H 552.405 2.3641 6.36621 0
M  V30 6001 H 550.351 0.12836 6.55874 0
M  V30 6002 H 550.268 1.65401 7.37685 0
M  V30 6003 H 551.536 0.534071 7.77668 0
M  V30 6004 N 555.766 -1.3263 0.851289 0
M  V30 6005 C 556.729 -2.27247 0.298541 0
M  V30 6006 C 557.729 -1.51467 -0.539847 0
M  V30 6007 O 558.919 -1.7061 -0.351843 0
M  V30 6008 C 556.051 -3.35964 -0.578004 0
M  V30 6009 H 557.244 -2.7765 1.13359 0
M  V30 6010 H 554.797 -1.43245 0.625354 0
M  V30 6011 H 555.532 -2.90823 -1.435 0
M  V30 6012 H 555.317 -3.92094 0.0220539 0
M  V30 6013 H 556.807 -4.06472 -0.957626 0
M  V30 6014 N 557.244 -0.608902 -1.45362 0
M  V30 6015 C 558.521 -0.0365378 -1.95566 0
M  V30 6016 C 558.901 1.43169 -1.55131 0
M  V30 6017 O 558.249 2.1349 -0.814513 0
M  V30 6018 C 558.459 -0.236026 -3.48201 0
M  V30 6019 C 559.807 -0.117518 -4.24437 0
M  V30 6020 O 560.831 -0.166217 -3.55812 0
M  V30 6021 O 559.69 -0.00372127 -5.465 0
M  V30 6022 H 556.784 0.0349874 -0.82626 0
M  V30 6023 H 559.33 -0.679055 -1.55521 0
M  V30 6024 H 558.102 -1.25569 -3.70605 0
M  V30 6025 H 557.725 0.441691 -3.95139 0
M  V30 6026 N 558.722 1.53707 -0.348139 0
M  V30 6027 C 559.971 2.0017 0.247992 0
M  V30 6028 C 560.284 1.23983 1.51286 0
M  V30 6029 O 561.49 1.60946 2.18652 0
M  V30 6030 C 559.946 3.56515 0.492459 0
M  V30 6031 C 559.554 4.41562 -0.756777 0
M  V30 6032 C 561.298 4.11381 1.0472 0
M  V30 6033 C 559.205 5.89426 -0.482856 0
M  V30 6034 H 558.135 0.747806 0.0964452 0
M  V30 6035 H 560.786 1.77532 -0.464179 0
M  V30 6036 H 559.168 3.75236 1.26545 0
M  V30 6037 H 560.342 4.34615 -1.53122 0
M  V30 6038 H 558.657 3.97711 -1.23348 0
M  V30 6039 H 561.254 5.19468 1.26717 0
M  V30 6040 H 561.597 3.64885 2.00411 0
M  V30 6041 H 562.13 3.96389 0.334801 0
M  V30 6042 H 558.869 6.40164 -1.40962 0
M  V30 6043 H 558.389 5.99264 0.253416 0
M  V30 6044 H 560.068 6.4692 -0.101816 0
M  V30 6045 N 560.2 0.0768682 1.57412 0
M  V30 6046 C 561.611 -0.455037 1.8107 0
M  V30 6047 C 561.962 -1.69323 0.991162 0
M  V30 6048 O 561.087 -2.15328 0.215156 0
M  V30 6049 C 561.682 -0.832316 3.28417 0
M  V30 6050 C 560.241 -1.30906 3.52903 0
M  V30 6051 C 559.388 -0.296714 2.75708 0
M  V30 6052 H 562.339 0.302514 1.5579 0
M  V30 6053 H 562.36 -1.69333 3.40744 0
M  V30 6054 H 561.872 0.0690532 3.88039 0
M  V30 6055 H 559.973 -2.22875 2.98592 0
M  V30 6056 H 560.086 -1.28348 4.61588 0
M  V30 6057 H 558.45 -0.775059 2.42621 0
M  V30 6058 H 559.233 0.597015 3.38069 0
M  V30 6059 N 561.678 -1.56367 -0.196722 0
M  V30 6060 C 562.903 -1.84991 -0.937714 0
M  V30 6061 C 563.328 -0.660244 -1.76132 0
M  V30 6062 O 562.686 0.390967 -1.77034 0
M  V30 6063 C 562.734 -3.11828 -1.81096 0
M  V30 6064 O 561.838 -2.92266 -2.90955 0
M  V30 6065 H 561.179 -0.609193 -0.264159 0
M  V30 6066 H 563.709 -2.03595 -0.202529 0
M  V30 6067 H 563.719 -3.42579 -2.21594 0
M  V30 6068 H 562.394 -3.98037 -1.2058 0
M  V30 6069 H 560.971 -2.72809 -2.54224 0
M  V30 6070 N 563.156 0.464375 -1.50603 0
M  V30 6071 C 564.086 1.56944 -1.72889 0
M  V30 6072 C 565.067 1.59979 -0.577997 0
M  V30 6073 O 566.252 1.76138 -0.817855 0
M  V30 6074 C 563.382 2.95225 -1.8292 0
M  V30 6075 C 562.336 3.07056 -2.98162 0
M  V30 6076 C 561.662 4.47051 -2.93343 0
M  V30 6077 C 562.962 2.83648 -4.38567 0
M  V30 6078 H 564.656 1.38547 -2.65415 0
M  V30 6079 H 562.202 0.665082 -1.27721 0
M  V30 6080 H 564.155 3.72467 -1.97095 0
M  V30 6081 H 562.879 3.14793 -0.870209 0
M  V30 6082 H 561.538 2.32248 -2.83648 0
M  V30 6083 H 561.186 4.63547 -1.95276 0
M  V30 6084 H 560.886 4.55902 -3.70712 0
M  V30 6085 H 562.41 5.26304 -3.09575 0
M  V30 6086 H 563.824 3.50636 -4.53572 0
M  V30 6087 H 562.221 3.03937 -5.17438 0
M  V30 6088 H 563.291 1.79451 -4.50472 0
M  V30 6089 N 564.634 1.40294 0.718013 0
M  V30 6090 C 565.544 1.42678 1.86226 0
M  V30 6091 C 566.56 0.319655 1.71039 0
M  V30 6092 O 567.736 0.563852 1.93346 0
M  V30 6093 C 564.801 1.2852 3.21999 0
M  V30 6094 C 563.862 2.49354 3.49458 0
M  V30 6095 C 563.095 2.35863 4.78753 0
M  V30 6096 O 563.318 1.37114 5.53675 0
M  V30 6097 O 562.252 3.25189 5.06494 0
M  V30 6098 H 566.078 2.39167 1.87171 0
M  V30 6099 H 563.663 1.2159 0.868112 0
M  V30 6100 H 565.545 1.22824 4.03103 0
M  V30 6101 H 564.22 0.351359 3.21787 0
M  V30 6102 H 563.127 2.60628 2.68373 0
M  V30 6103 H 564.46 3.41491 3.54464 0
M  V30 6104 N 566.112 -0.949982 1.2575 0
M  V30 6105 C 567.523 -1.50989 1.09815 0
M  V30 6106 C 567.874 -1.93497 -0.324556 0
M  V30 6107 O 566.999 -1.79068 -1.21506 0
M  V30 6108 C 567.594 -2.74394 1.98729 0
M  V30 6109 C 566.153 -3.26682 1.86965 0
M  V30 6110 C 565.3 -1.99498 1.92603 0
M  V30 6111 H 568.251 -0.766387 1.38968 0
M  V30 6112 H 568.272 -3.48383 1.53001 0
M  V30 6113 H 567.784 -2.43425 3.02268 0
M  V30 6114 H 565.885 -3.62461 0.863279 0
M  V30 6115 H 565.998 -3.94383 2.72027 0
M  V30 6116 H 564.362 -2.15005 1.36546 0
M  V30 6117 H 565.145 -1.70871 2.97755 0
M  V30 6118 N 567.59 -1.07411 -1.15328 0
M  V30 6119 C 568.5 -0.706438 -2.23711 0
M  V30 6120 C 569.516 0.282586 -1.7169 0
M  V30 6121 O 570.692 0.129066 -2.00986 0
M  V30 6122 C 567.757 -0.11048 -3.46524 0
M  V30 6123 C 566.818 -1.15282 -4.13532 0
M  V30 6124 C 566.051 -0.585205 -5.30482 0
M  V30 6125 O 566.274 0.598549 -5.67251 0
M  V30 6126 O 565.208 -1.33039 -5.87013 0
M  V30 6127 H 569.034 -1.61031 -2.57493 0
M  V30 6128 H 566.619 -0.847113 -1.23062 0
M  V30 6129 H 568.501 0.21957 -4.20828 0
M  V30 6130 H 567.176 0.766703 -3.14489 0
M  V30 6131 H 566.083 -1.53523 -3.41147 0
M  V30 6132 H 567.416 -2.00192 -4.49649 0
M  V30 6133 N 569.068 1.32177 -0.85831 0
M  V30 6134 C 570.316 1.96735 -0.462568 0
M  V30 6135 C 570.637 1.6824 0.985911 0
M  V30 6136 O 569.907 0.991564 1.68952 0
M  V30 6137 H 568.487 0.727849 -0.168064 0
M  V30 6138 H 571.149 1.61195 -1.09554 0
M  V30 6139 H 570.245 3.06068 -0.610647 0
M  V30 6140 N 570.547 0.616602 1.45037 0
M  V30 6141 C 571.775 0.121968 2.0654 0
M  V30 6142 C 572.19 -1.19743 1.45969 0
M  V30 6143 O 571.547 -1.73133 0.577168 0
M  V30 6144 C 571.598 -0.0145171 3.61497 0
M  V30 6145 O 571.319 1.25269 4.19809 0
M  V30 6146 C 572.82 -0.539555 4.40004 0
M  V30 6147 H 570.04 0.0729837 0.667019 0
M  V30 6148 H 572.584 0.846891 1.8614 0
M  V30 6149 H 570.739 -0.689809 3.81209 0
M  V30 6150 H 571.153 1.08816 5.13088 0
M  V30 6151 H 572.627 -0.584112 5.48901 0
M  V30 6152 H 573.104 -1.56368 4.10421 0
M  V30 6153 H 573.71 0.101995 4.25178 0
M  V30 6154 N 572.025 -1.5352 0.356285 0
M  V30 6155 C 573.25 -2.06007 -0.239961 0
M  V30 6156 C 573.675 -1.22872 -1.42422 0
M  V30 6157 O 573.033 -0.245516 -1.7963 0
M  V30 6158 C 573.081 -3.5522 -0.620587 0
M  V30 6159 O 572.185 -3.74864 -1.71902 0
M  V30 6160 H 571.526 -0.662961 -0.0371377 0
M  V30 6161 H 574.056 -1.98033 0.514194 0
M  V30 6162 H 574.066 -3.98081 -0.894197 0
M  V30 6163 H 572.741 -4.15175 0.245407 0
M  V30 6164 H 571.318 -3.43904 -1.44169 0
M  V30 6165 N 573.503 -0.0852151 -1.57369 0
M  V30 6166 C 574.466 0.8627 -2.12344 0
M  V30 6167 C 575.466 1.21746 -1.05046 0
M  V30 6168 O 576.656 1.14852 -1.30976 0
M  V30 6169 C 573.788 2.1618 -2.63589 0
M  V30 6170 H 574.981 0.385511 -2.97412 0
M  V30 6171 H 572.534 0.163663 -1.55441 0
M  V30 6172 H 573.269 2.68406 -1.82013 0
M  V30 6173 H 573.054 1.91723 -3.4203 0
M  V30 6174 H 574.544 2.84011 -3.06149 0
M  V30 6175 N 574.981 1.5647 0.188427 0
M  V30 6176 C 576.206 1.85486 0.927891 0
M  V30 6177 C 576.631 0.669575 1.75779 0
M  V30 6178 O 575.989 -0.381573 1.77239 0
M  V30 6179 C 576.037 3.12784 1.7944 0
M  V30 6180 O 575.141 2.93805 2.894 0
M  V30 6181 H 574.482 0.610585 0.260925 0
M  V30 6182 H 577.012 2.037 0.191729 0
M  V30 6183 H 577.022 3.43749 2.19774 0
M  V30 6184 H 575.697 3.98671 1.18468 0
M  V30 6185 H 574.274 2.74153 2.52774 0
M  V30 6186 O 576.498 -0.333583 1.58017 0
M  V30 6187 H 577.189 -0.982643 1.66925 0
M  V30 END ATOM
M  V30 BEGIN BOND
M  V30 END BOND
M  V30 END CTAB
M  END
$$$$
