drugbank_target|Q96GA7 Serine dehydratase-like (DB00114)
 OpenBabel12092120063D

  0  0  0     0  0            999 V3000
M  V30 BEGIN CTAB
M  V30 COUNTS 4918 4963 0 0 0
M  V30 BEGIN ATOM
M  V30 1 H -0.908 1.98254 -0.117106 0
M  V30 2 N 0 1.576 0 0
M  V30 3 C 0.933 2.03868 1.02534 0
M  V30 4 C 1.911 0.928543 1.3348 0
M  V30 5 O 3.095 1.19667 1.45644 0
M  V30 6 C 0.222 2.43627 2.35294 0
M  V30 7 C -0.732 3.65373 2.2001 0
M  V30 8 S 0.101 5.13292 1.52614 0
M  V30 9 C 1.257 5.56322 2.86805 0
M  V30 10 H 1.49 2.90518 0.631377 0
M  V30 11 H -0.977 1.52953 0.210867 0
M  V30 12 H 0.981 2.67203 3.11629 0
M  V30 13 H -0.358 1.57376 2.7183 0
M  V30 14 H -1.165 3.90944 3.18086 0
M  V30 15 H -1.563 3.418 1.51819 0
M  V30 16 H 0.729 5.58782 3.83104 0
M  V30 17 H 1.672 6.56266 2.65933 0
M  V30 18 H 2.08 4.83886 2.90714 0
M  V30 19 N 1.4781 -0.272755 1.55222 0
M  V30 20 C 2.7551 -1.02562 1.66555 0
M  V30 21 C 3.1351 -2.04282 0.532189 0
M  V30 22 O 2.4831 -2.23662 -0.467717 0
M  V30 23 C 2.6931 -1.6822 3.05782 0
M  V30 24 C 4.0411 -2.19373 3.63539 0
M  V30 25 O 5.0651 -1.78206 3.08417 0
M  V30 26 O 3.9241 -2.94883 4.60115 0
M  V30 27 H 1.0181 -0.475755 0.676451 0
M  V30 28 H 3.5641 -0.268593 1.67561 0
M  V30 29 H 2.3361 -0.945112 3.79715 0
M  V30 30 H 1.9591 -2.50609 3.08676 0
M  V30 31 N 2.9562 -1.48159 -0.537278 0
M  V30 32 C 4.2042 -1.55497 -1.29094 0
M  V30 33 C 4.5252 -0.227454 -1.93669 0
M  V30 34 O 3.7952 0.750386 -1.80959 0
M  V30 35 H 2.3752 -0.572832 -0.47945 0
M  V30 36 H 5.0372 -1.84579 -0.625818 0
M  V30 37 H 4.1332 -2.33216 -2.07405 0
M  V30 38 N 4.4343 0.785586 -1.36625 0
M  V30 39 C 5.8453 1.36101 -1.27803 0
M  V30 40 C 6.1963 1.96035 0.0804875 0
M  V30 41 O 5.3213 1.92834 0.982042 0
M  V30 42 C 5.9163 2.47442 -2.31426 0
M  V30 43 C 4.4753 3.00789 -2.26281 0
M  V30 44 C 3.6223 1.73896 -2.15999 0
M  V30 45 H 6.5733 0.586928 -1.47448 0
M  V30 46 H 6.5943 3.2656 -1.95291 0
M  V30 47 H 6.1063 2.03791 -3.30289 0
M  V30 48 H 4.2073 3.48851 -1.30896 0
M  V30 49 H 4.3203 3.57343 -3.19128 0
M  V30 50 H 2.6843 1.9628 -1.62316 0
M  V30 51 H 3.4673 1.32368 -3.16755 0
M  V30 52 N 5.9124 1.20967 1.01018 0
M  V30 53 C 7.1584 1.02526 1.74975 0
M  V30 54 C 7.4914 -0.4408 1.89131 0
M  V30 55 O 6.7664 -1.32718 1.42184 0
M  V30 56 C 7.0494 1.71699 3.1653 0
M  V30 57 C 6.9024 3.25791 3.10129 0
M  V30 58 C 8.2214 1.45531 4.15342 0
M  V30 59 H 5.3404 0.373863 0.635134 0
M  V30 60 H 7.9824 1.49071 1.17805 0
M  V30 61 H 6.1324 1.32128 3.65341 0
M  V30 62 H 7.8044 3.74697 2.69072 0
M  V30 63 H 6.0474 3.56363 2.47362 0
M  V30 64 H 6.7184 3.69353 4.10222 0
M  V30 65 H 9.1944 1.79872 3.75213 0
M  V30 66 H 8.0704 1.96453 5.1254 0
M  V30 67 H 8.3314 0.384237 4.40427 0
M  V30 68 N 7.3905 -1.2043 1.01659 0
M  V30 69 C 8.3535 -2.21433 0.591616 0
M  V30 70 C 9.3535 -1.57203 -0.338226 0
M  V30 71 O 10.5435 -1.73737 -0.126918 0
M  V30 72 C 7.6755 -3.40628 -0.136058 0
M  V30 73 H 8.8685 -2.60545 1.48514 0
M  V30 74 H 6.4215 -1.33893 0.806379 0
M  V30 75 H 7.1565 -3.07019 -1.04449 0
M  V30 76 H 6.9415 -3.88475 0.531917 0
M  V30 77 H 8.4315 -4.15475 -0.420735 0
M  V30 78 N 8.8686 -0.792821 -1.36206 0
M  V30 79 C 9.7786 -0.194808 -2.3379 0
M  V30 80 C 10.7946 0.654869 -1.61206 0
M  V30 81 O 11.9706 0.569856 -1.9317 0
M  V30 82 C 9.0356 0.657721 -3.40404 0
M  V30 83 C 8.0966 -0.210849 -4.28782 0
M  V30 84 C 7.3296 0.601086 -5.30304 0
M  V30 85 O 7.5526 1.83682 -5.40016 0
M  V30 86 O 6.4866 -0.000808277 -6.019 0
M  V30 87 H 10.3126 -1.00172 -2.86704 0
M  V30 88 H 7.8976 -0.554341 -1.38735 0
M  V30 89 H 9.7796 1.14375 -4.05581 0
M  V30 90 H 8.4546 1.44247 -2.89784 0
M  V30 91 H 7.3616 -0.743714 -3.66633 0
M  V30 92 H 8.6946 -0.959195 -4.82763 0
M  V30 93 N 10.3467 1.47872 -0.545128 0
M  V30 94 C 11.2967 2.26842 0.229456 0
M  V30 95 C 12.2807 1.33626 0.896267 0
M  V30 96 O 13.4727 1.58063 0.79657 0
M  V30 97 C 10.6017 3.19089 1.26638 0
M  V30 98 C 9.6877 4.19783 0.603598 0
M  V30 99 N 10.0787 5.0479 -0.319405 0
M  V30 100 C 8.3767 4.3765 0.858989 0
M  V30 101 C 9.0777 5.77433 -0.703241 0
M  V30 102 N 8.0537 5.43566 -0.0608309 0
M  V30 103 H 11.8557 2.89947 -0.480391 0
M  V30 104 H 9.3697 1.58263 -0.364209 0
M  V30 105 H 11.3667 3.74337 1.83515 0
M  V30 106 H 10.0267 2.5754 1.97745 0
M  V30 107 H 11.0377 5.13244 -0.692889 0
M  V30 108 H 7.7147 3.87281 1.55948 0
M  V30 109 H 9.1047 6.55824 -1.46098 0
M  V30 110 N 11.8248 0.280983 1.55075 0
M  V30 111 C 12.7878 -0.590896 2.21452 0
M  V30 112 C 13.7878 -1.07682 1.19421 0
M  V30 113 O 14.9778 -0.97605 1.44288 0
M  V30 114 C 12.1098 -1.81587 2.88511 0
M  V30 115 H 13.3028 -0.0112554 2.99898 0
M  V30 116 H 10.8558 0.0316438 1.56268 0
M  V30 117 H 11.5908 -2.43587 2.14093 0
M  V30 118 H 11.3758 -1.4753 3.63287 0
M  V30 119 H 12.8658 -2.43575 3.39206 0
M  V30 120 N 13.3029 -1.57598 0.00835791 0
M  V30 121 C 14.2499 -2.08945 -0.980346 0
M  V30 122 C 15.2199 -0.986738 -1.33614 0
M  V30 123 O 16.4049 -1.25968 -1.43306 0
M  V30 124 C 13.5449 -2.60425 -2.26435 0
M  V30 125 C 12.6579 -3.84628 -1.96685 0
M  V30 126 C 11.7929 -4.24579 -3.19228 0
M  V30 127 C 10.8319 -5.41596 -2.85202 0
M  V30 128 N 9.9689 -5.768 -4.00307 0
M  V30 129 H 14.8089 -2.93148 -0.535551 0
M  V30 130 H 12.3459 -1.44912 -0.252776 0
M  V30 131 H 14.3039 -2.88354 -3.01509 0
M  V30 132 H 12.9339 -1.79083 -2.68568 0
M  V30 133 H 11.9859 -3.63556 -1.11942 0
M  V30 134 H 13.2979 -4.69796 -1.67611 0
M  V30 135 H 12.4519 -4.53834 -4.02641 0
M  V30 136 H 11.1909 -3.38137 -3.51447 0
M  V30 137 H 10.1959 -5.12056 -2.00198 0
M  V30 138 H 11.4209 -6.29721 -2.54222 0
M  V30 139 H 9.3669 -4.93316 -4.32407 0
M  V30 140 H 9.2839 -6.5656 -3.74786 0
M  V30 141 H 10.5519 -6.10652 -4.84484 0
M  V30 142 N 14.781 0.264519 -1.55364 0
M  V30 143 C 15.713 1.34965 -1.85248 0
M  V30 144 C 16.726 1.45136 -0.737525 0
M  V30 145 O 17.915 1.46801 -1.01547 0
M  V30 146 C 15.015 2.73008 -2.00797 0
M  V30 147 C 14.188 2.85324 -3.31525 0
M  V30 148 C 13.247 4.04097 -3.37034 0
M  V30 149 O 12.273 3.94455 -4.10358 0
M  V30 150 N 13.475 5.16458 -2.65049 0
M  V30 151 H 16.24 1.09672 -2.78913 0
M  V30 152 H 13.801 0.454635 -1.55386 0
M  V30 153 H 15.793 3.50772 -2.01844 0
M  V30 154 H 14.363 2.91087 -1.1396 0
M  V30 155 H 13.583 1.94377 -3.42945 0
M  V30 156 H 14.871 2.9049 -4.17724 0
M  V30 157 H 14.269 5.27181 -2.05175 0
M  V30 158 H 12.826 5.92422 -2.71809 0
M  V30 159 N 16.2591 1.48442 0.529413 0
M  V30 160 C 17.1691 1.6569 1.66084 0
M  V30 161 C 18.1851 0.539432 1.65427 0
M  V30 162 O 19.3611 0.810572 1.84368 0
M  V30 163 C 16.4261 1.69315 3.02545 0
M  V30 164 C 15.4871 2.92694 3.14052 0
M  V30 165 C 14.7201 2.96137 4.44003 0
M  V30 166 O 14.9431 2.07973 5.31134 0
M  V30 167 O 13.8771 3.88312 4.59888 0
M  V30 168 H 17.7031 2.61483 1.54469 0
M  V30 169 H 15.2881 1.3185 0.702567 0
M  V30 170 H 17.1701 1.74217 3.83701 0
M  V30 171 H 15.8451 0.766966 3.14483 0
M  V30 172 H 14.7521 2.93324 2.32189 0
M  V30 173 H 16.0851 3.84699 3.0703 0
M  V30 174 N 17.7372 -0.778329 1.37039 0
M  V30 175 C 19.1482 -1.35421 1.28523 0
M  V30 176 C 19.4992 -1.96075 -0.0700901 0
M  V30 177 O 18.6242 -1.93352 -0.971801 0
M  V30 178 C 19.2192 -2.46211 2.32735 0
M  V30 179 C 17.7782 -2.99585 2.27873 0
M  V30 180 C 16.9252 -1.72748 2.16918 0
M  V30 181 H 19.8762 -0.5791 1.47757 0
M  V30 182 H 19.8972 -3.2552 1.9702 0
M  V30 183 H 19.4092 -2.02036 3.31365 0
M  V30 184 H 17.5102 -3.48152 1.32745 0
M  V30 185 H 17.6232 -3.55646 3.21018 0
M  V30 186 H 15.9872 -1.95416 1.63354 0
M  V30 187 H 16.7702 -1.30686 3.17452 0
M  V30 188 N 19.2153 -1.21501 -1.00376 0
M  V30 189 C 20.4623 -1.03299 -1.74171 0
M  V30 190 C 20.7903 0.433326 -1.89612 0
M  V30 191 O 20.0453 1.33779 -1.42834 0
M  V30 192 C 20.3443 -1.67673 -3.15627 0
M  V30 193 C 20.0103 -3.17533 -3.2013 0
M  V30 194 C 18.6723 -3.58427 -3.21067 0
M  V30 195 C 21.0243 -4.13504 -3.17275 0
M  V30 196 C 18.3523 -4.93794 -3.16835 0
M  V30 197 C 20.7043 -5.48834 -3.14585 0
M  V30 198 C 19.3683 -5.89123 -3.13831 0
M  V30 199 H 18.6383 -0.377999 -0.637336 0
M  V30 200 H 21.2853 -1.51111 -1.17634 0
M  V30 201 H 19.5903 -1.12158 -3.75404 0
M  V30 202 H 21.2873 -1.51091 -3.71446 0
M  V30 203 H 17.8773 -2.84965 -3.20145 0
M  V30 204 H 22.0613 -3.82936 -3.15711 0
M  V30 205 H 17.3173 -5.24255 -3.1459 0
M  V30 206 H 21.4913 -6.22934 -3.1133 0
M  V30 207 H 19.1183 -6.93984 -3.10307 0
M  V30 208 N 20.6934 1.19889 -1.02296 0
M  V30 209 C 21.6434 2.20777 -0.56934 0
M  V30 210 C 22.6274 1.56379 0.378741 0
M  V30 211 O 23.8194 1.75859 0.200673 0
M  V30 212 C 20.9484 3.43196 0.0845077 0
M  V30 213 C 20.0344 4.14749 -0.88566 0
M  V30 214 N 20.4254 4.62584 -2.04573 0
M  V30 215 C 18.7234 4.40347 -0.707835 0
M  V30 216 C 19.4244 5.17466 -2.65714 0
M  V30 217 N 18.4004 5.0791 -1.93723 0
M  V30 218 H 22.2024 2.55434 -1.45365 0
M  V30 219 H 19.7164 1.35897 -0.88915 0
M  V30 220 H 21.7134 4.14707 0.427067 0
M  V30 221 H 20.3734 3.10042 0.964574 0
M  V30 222 H 21.3844 4.57597 -2.4254 0
M  V30 223 H 18.0614 4.17317 0.12364 0
M  V30 224 H 19.4514 5.64808 -3.63925 0
M  V30 225 N 22.1715 0.800033 1.35784 0
M  V30 226 C 23.4175 0.377901 1.99248 0
M  V30 227 C 23.7505 -1.05052 1.63333 0
M  V30 228 O 23.0255 -1.72768 0.893385 0
M  V30 229 C 23.3085 0.553922 3.55814 0
M  V30 230 C 23.1615 2.0268 4.01548 0
M  V30 231 C 24.4805 -0.0244802 4.40093 0
M  V30 232 H 21.5995 0.138782 0.723815 0
M  V30 233 H 24.2415 1.00835 1.61035 0
M  V30 234 H 22.3915 0.0172398 3.88496 0
M  V30 235 H 24.0635 2.62536 3.79305 0
M  V30 236 H 22.3065 2.5256 3.52698 0
M  V30 237 H 22.9775 2.10087 5.10458 0
M  V30 238 H 25.4535 0.433775 4.13833 0
M  V30 239 H 24.3295 0.128637 5.48749 0
M  V30 240 H 24.5905 -1.11758 4.27741 0
M  V30 241 N 23.6496 -1.47581 0.552962 0
M  V30 242 C 24.8956 -2.02782 0.0273648 0
M  V30 243 C 25.2286 -1.42687 -1.31734 0
M  V30 244 O 24.5036 -0.580897 -1.85623 0
M  V30 245 C 24.7866 -3.60031 -0.0702371 0
M  V30 246 C 24.6396 -4.30566 1.30126 0
M  V30 247 C 25.9586 -4.33028 -0.785771 0
M  V30 248 H 23.0776 -0.736912 0.0114185 0
M  V30 249 H 25.7196 -1.76056 0.714432 0
M  V30 250 H 23.8696 -3.82932 -0.655382 0
M  V30 251 H 25.5416 -4.19018 1.92929 0
M  V30 252 H 23.7846 -3.91086 1.87709 0
M  V30 253 H 24.4556 -5.39114 1.18573 0
M  V30 254 H 26.9316 -4.15095 -0.288982 0
M  V30 255 H 25.8076 -5.42695 -0.823013 0
M  V30 256 H 26.0686 -4.01945 -1.841 0
M  V30 257 N 25.1277 -0.289203 -1.54924 0
M  V30 258 C 26.3557 0.326463 -2.04308 0
M  V30 259 C 26.7707 1.48413 -1.16701 0
M  V30 260 O 26.1277 1.81507 -0.190087 0
M  V30 261 C 26.1787 0.794014 -3.52672 0
M  V30 262 O 25.8997 -0.317564 -4.36948 0
M  V30 263 C 27.4007 1.47605 -4.18004 0
M  V30 264 H 24.6207 0.0726272 -0.667058 0
M  V30 265 H 27.1647 -0.425401 -2.00026 0
M  V30 266 H 25.3197 1.49593 -3.57352 0
M  V30 267 H 25.7337 0.0443186 -5.24481 0
M  V30 268 H 27.2077 1.75447 -5.23376 0
M  V30 269 H 27.6847 2.41224 -3.67025 0
M  V30 270 H 28.2907 0.81762 -4.17367 0
M  V30 271 N 26.6058 1.57591 -0.0167156 0
M  V30 272 C 28.0168 1.79201 0.523834 0
M  V30 273 C 28.3678 0.925796 1.72984 0
M  V30 274 O 27.4928 0.132792 2.15992 0
M  V30 275 C 28.0878 3.25 0.957091 0
M  V30 276 C 26.6468 3.47648 1.44283 0
M  V30 277 C 25.7938 2.74374 0.401757 0
M  V30 278 H 28.7448 1.56831 -0.242816 0
M  V30 279 H 28.7658 3.34031 1.82219 0
M  V30 280 H 28.2778 3.88019 0.0791415 0
M  V30 281 H 26.3788 2.89866 2.34113 0
M  V30 282 H 26.4918 4.56352 1.45877 0
M  V30 283 H 24.8558 2.39485 0.867121 0
M  V30 284 H 25.6388 3.40102 -0.467513 0
M  V30 285 N 28.0839 -0.256276 1.55502 0
M  V30 286 C 29.0139 -1.32102 1.92539 0
M  V30 287 C 29.9949 -1.50684 0.789194 0
M  V30 288 O 31.1799 -1.63449 1.04872 0
M  V30 289 C 28.3099 -2.67752 2.21192 0
M  V30 290 C 27.2639 -2.63878 3.36975 0
M  V30 291 C 26.5899 -4.03236 3.51147 0
M  V30 292 C 27.8899 -2.21682 4.72921 0
M  V30 293 H 29.5839 -1.01351 2.81724 0
M  V30 294 H 27.1299 -0.486105 1.35547 0
M  V30 295 H 29.0829 -3.42365 2.45691 0
M  V30 296 H 27.8069 -3.0012 1.28824 0
M  V30 297 H 26.4659 -1.91722 3.12471 0
M  V30 298 H 26.1139 -4.32854 2.56216 0
M  V30 299 H 25.8139 -4.01535 4.29003 0
M  V30 300 H 27.3379 -4.79563 3.77957 0
M  V30 301 H 28.7519 -2.86023 4.96854 0
M  V30 302 H 27.1489 -2.3111 5.53812 0
M  V30 303 H 28.2189 -1.16833 4.70615 0
M  V30 304 N 29.562 -1.4872 -0.521534 0
M  V30 305 C 30.492 -1.66771 -1.63431 0
M  V30 306 C 31.473 -0.516499 -1.62069 0
M  V30 307 O 32.658 -0.750013 -1.79132 0
M  V30 308 C 29.788 -1.71515 -3.01993 0
M  V30 309 C 28.742 -2.86222 -3.18216 0
M  V30 310 C 28.068 -2.76061 -4.57924 0
M  V30 311 C 29.368 -4.27419 -3.00184 0
M  V30 312 H 31.062 -2.59932 -1.48579 0
M  V30 313 H 28.608 -1.25089 -0.713358 0
M  V30 314 H 30.561 -1.82731 -3.7972 0
M  V30 315 H 29.285 -0.749393 -3.17886 0
M  V30 316 H 27.944 -2.74575 -2.42908 0
M  V30 317 H 27.592 -1.77437 -4.70665 0
M  V30 318 H 27.292 -3.53037 -4.69722 0
M  V30 319 H 28.816 -2.89256 -5.37739 0
M  V30 320 H 30.23 -4.39855 -3.67697 0
M  V30 321 H 28.627 -5.05458 -3.2347 0
M  V30 322 H 29.697 -4.43293 -1.96518 0
M  V30 323 N 31.0401 0.771051 -1.3745 0
M  V30 324 C 31.9501 1.91538 -1.35464 0
M  V30 325 C 32.9661 1.72134 -0.254123 0
M  V30 326 O 34.1421 1.95358 -0.489626 0
M  V30 327 C 31.2071 3.26671 -1.16134 0
M  V30 328 C 30.2681 3.58723 -2.35831 0
M  V30 329 C 29.5011 4.87409 -2.17413 0
M  V30 330 O 29.7241 5.58506 -1.15876 0
M  V30 331 O 28.6581 5.18539 -3.05615 0
M  V30 332 H 32.4841 1.96165 -2.31847 0
M  V30 333 H 30.0691 0.9139 -1.18187 0
M  V30 334 H 31.9511 4.07499 -1.07345 0
M  V30 335 H 30.6261 3.22894 -0.228251 0
M  V30 336 H 29.5331 2.78127 -2.50192 0
M  V30 337 H 30.8661 3.67243 -3.27709 0
M  V30 338 N 32.5182 1.22032 0.997298 0
M  V30 339 C 33.7432 1.06921 1.77715 0
M  V30 340 C 34.1682 -0.376226 1.84299 0
M  V30 341 O 33.5262 -1.27165 1.29223 0
M  V30 342 C 33.5742 1.67996 3.19076 0
M  V30 343 O 32.6782 0.930653 4.01762 0
M  V30 344 H 32.0192 0.375814 0.547412 0
M  V30 345 H 34.5492 1.61737 1.25309 0
M  V30 346 H 34.5592 1.72538 3.69723 0
M  V30 347 H 33.2342 2.73182 3.13599 0
M  V30 348 H 31.8112 0.960917 3.60307 0
M  V30 349 N 33.9963 -1.19345 1.0293 0
M  V30 350 C 35.2423 -1.89585 0.736824 0
M  V30 351 C 35.5973 -1.78148 -0.726703 0
M  V30 352 O 34.8903 -1.16332 -1.52242 0
M  V30 353 C 35.0843 -3.39292 1.12319 0
M  V30 354 C 34.9133 -3.65298 2.62273 0
M  V30 355 C 33.6833 -3.83304 3.29251 0
M  V30 356 C 35.8813 -3.6682 3.60482 0
M  V30 357 N 33.8633 -3.96944 4.68304 0
M  V30 358 C 35.2343 -3.86037 4.85155 0
M  V30 359 C 37.2893 -3.49848 3.54275 0
M  V30 360 C 35.9923 -3.9004 6.04369 0
M  V30 361 C 38.0183 -3.55129 4.72903 0
M  V30 362 C 37.3803 -3.74831 5.9639 0
M  V30 363 H 33.4793 -0.712856 0.321497 0
M  V30 364 H 36.0633 -1.43427 1.31669 0
M  V30 365 H 34.2343 -3.84172 0.571524 0
M  V30 366 H 35.9663 -3.97055 0.78292 0
M  V30 367 H 32.7213 -3.82211 2.79663 0
M  V30 368 H 33.1453 -4.07613 5.40538 0
M  V30 369 H 37.7873 -3.33572 2.59788 0
M  V30 370 H 35.5053 -4.05108 6.99223 0
M  V30 371 H 39.0913 -3.43287 4.69729 0
M  V30 372 H 37.9713 -3.78792 6.86649 0
M  V30 373 N 35.4744 -0.807222 -1.35358 0
M  V30 374 C 36.4374 -0.223665 -2.28106 0
M  V30 375 C 37.4374 0.589354 -1.4961 0
M  V30 376 O 38.6274 0.407745 -1.69361 0
M  V30 377 C 35.7594 0.688149 -3.33882 0
M  V30 378 H 36.9524 -1.04169 -2.81227 0
M  V30 379 H 34.5054 -0.577921 -1.45223 0
M  V30 380 H 35.2404 1.52984 -2.85948 0
M  V30 381 H 35.0254 0.10687 -3.91954 0
M  V30 382 H 36.5154 1.09075 -4.03104 0
M  V30 383 N 36.9525 1.47285 -0.560781 0
M  V30 384 C 37.8825 2.32857 0.173105 0
M  V30 385 C 38.8635 1.44009 0.905281 0
M  V30 386 O 40.0485 1.7286 0.885046 0
M  V30 387 C 37.1785 3.25861 1.20133 0
M  V30 388 C 36.1325 4.23978 0.585388 0
M  V30 389 C 35.4585 5.06332 1.7185 0
M  V30 390 C 36.7585 5.20242 -0.463178 0
M  V30 391 H 38.4525 2.94466 -0.541307 0
M  V30 392 H 35.9985 1.41601 -0.261764 0
M  V30 393 H 37.9515 3.84569 1.72293 0
M  V30 394 H 36.6755 2.62315 1.94573 0
M  V30 395 H 35.3345 3.66501 0.085054 0
M  V30 396 H 34.9825 4.39186 2.45203 0
M  V30 397 H 34.6825 5.72762 1.31213 0
M  V30 398 H 36.2065 5.67899 2.24329 0
M  V30 399 H 37.6205 5.73293 -0.027502 0
M  V30 400 H 36.0175 5.94896 -0.788627 0
M  V30 401 H 37.0875 4.65504 -1.35773 0
M  V30 402 N 38.4306 0.297415 1.54768 0
M  V30 403 C 39.6556 -0.318435 2.04941 0
M  V30 404 C 40.0806 -1.4701 1.17345 0
M  V30 405 O 39.4386 -1.80436 0.176758 0
M  V30 406 C 39.4866 -0.755749 3.52592 0
M  V30 407 O 38.5906 -1.86088 3.68028 0
M  V30 408 H 37.9316 -0.062421 0.661059 0
M  V30 409 H 40.4616 0.438215 1.99852 0
M  V30 410 H 40.4716 -1.04552 3.94376 0
M  V30 411 H 39.1466 0.0867233 4.1581 0
M  V30 412 H 37.7236 -1.57193 3.38149 0
M  V30 413 N 39.9087 -1.5758 0.0250728 0
M  V30 414 C 40.8407 -2.06869 -0.986796 0
M  V30 415 C 41.8537 -0.991332 -1.29137 0
M  V30 416 O 43.0427 -1.26761 -1.25674 0
M  V30 417 C 40.1427 -2.47486 -2.31525 0
M  V30 418 C 39.3157 -3.78253 -2.19643 0
M  V30 419 C 38.3747 -4.05464 -3.35388 0
M  V30 420 O 37.4007 -4.75774 -3.12454 0
M  V30 421 N 38.6027 -3.55321 -4.59051 0
M  V30 422 H 41.3677 -2.94302 -0.566276 0
M  V30 423 H 38.9287 -1.6109 -0.161776 0
M  V30 424 H 40.9207 -2.62785 -3.07776 0
M  V30 425 H 39.4907 -1.65441 -2.65232 0
M  V30 426 H 38.7107 -3.7279 -1.28144 0
M  V30 427 H 39.9987 -4.63936 -2.08903 0
M  V30 428 H 39.3967 -2.98431 -4.80578 0
M  V30 429 H 37.9537 -3.75905 -5.32483 0
M  V30 430 N 41.3868 0.248026 -1.55636 0
M  V30 431 C 42.6328 0.97767 -1.77678 0
M  V30 432 C 42.9658 1.85016 -0.590135 0
M  V30 433 O 42.2408 1.90095 0.411611 0
M  V30 434 C 42.5238 1.83914 -3.09593 0
M  V30 435 C 42.3768 0.99491 -4.38659 0
M  V30 436 C 43.6958 2.82183 -3.37729 0
M  V30 437 H 40.8148 0.354005 -0.646413 0
M  V30 438 H 43.4568 0.248253 -1.88371 0
M  V30 439 H 41.6068 2.46104 -3.00608 0
M  V30 440 H 43.2788 0.391789 -4.59633 0
M  V30 441 H 41.5218 0.299231 -4.32767 0
M  V30 442 H 42.1928 1.63145 -5.2734 0
M  V30 443 H 44.6688 2.30129 -3.4667 0
M  V30 444 H 43.5448 3.39582 -4.31249 0
M  V30 445 H 43.8058 3.58588 -2.58586 0
M  V30 446 N 42.8649 1.48995 0.513639 0
M  V30 447 C 43.8279 1.64229 1.59879 0
M  V30 448 C 44.8279 0.514696 1.5234 0
M  V30 449 O 46.0179 0.78087 1.55718 0
M  V30 450 C 43.1499 1.62783 2.99524 0
M  V30 451 H 44.3429 2.61004 1.47705 0
M  V30 452 H 41.8959 1.37837 0.736936 0
M  V30 453 H 42.6309 0.675461 3.17188 0
M  V30 454 H 42.4159 2.4466 3.06404 0
M  V30 455 H 43.9059 1.76669 3.78388 0
M  V30 456 N 44.343 -0.763751 1.37857 0
M  V30 457 C 45.591 -1.51957 1.33243 0
M  V30 458 C 45.912 -1.94835 -0.0801709 0
M  V30 459 O 45.182 -1.66894 -1.02582 0
M  V30 460 H 43.762 -0.563626 0.49024 0
M  V30 461 H 46.424 -0.908504 1.7243 0
M  V30 462 H 45.52 -2.41523 1.97669 0
M  V30 463 N 45.8211 -1.22559 -0.990812 0
M  V30 464 C 46.7541 -0.940773 -2.07905 0
M  V30 465 C 47.7321 0.117082 -1.62178 0
M  V30 466 O 48.9161 -0.0149506 -1.88494 0
M  V30 467 C 46.0431 -0.415321 -3.36144 0
M  V30 468 C 45.0891 -1.45818 -4.00799 0
M  V30 469 S 45.9221 -3.03219 -4.41382 0
M  V30 470 C 47.0781 -2.52317 -5.72789 0
M  V30 471 H 47.3111 -1.8623 -2.31745 0
M  V30 472 H 44.8441 -1.05688 -1.12558 0
M  V30 473 H 46.8021 -0.118747 -4.10328 0
M  V30 474 H 45.4631 0.485121 -3.10331 0
M  V30 475 H 44.6561 -1.04044 -4.93144 0
M  V30 476 H 44.2581 -1.70356 -3.32949 0
M  V30 477 H 46.5501 -1.93688 -6.49224 0
M  V30 478 H 47.4931 -3.43161 -6.19392 0
M  V30 479 H 47.9011 -1.93529 -5.30289 0
M  V30 480 N 47.2992 1.18797 -1.03562 0
M  V30 481 C 48.7102 1.70322 -0.764676 0
M  V30 482 C 49.0612 1.82708 0.714996 0
M  V30 483 O 48.1862 1.50299 1.55689 0
M  V30 484 C 48.7812 3.09356 -1.38145 0
M  V30 485 C 47.3402 3.58114 -1.15895 0
M  V30 486 C 46.4872 2.34798 -1.4753 0
M  V30 487 H 49.4382 1.03543 -1.20268 0
M  V30 488 H 49.4592 3.72378 -0.781977 0
M  V30 489 H 48.9712 3.00309 -2.45837 0
M  V30 490 H 47.0722 3.72464 -0.100544 0
M  V30 491 H 47.1852 4.4184 -1.8524 0
M  V30 492 H 45.5492 2.38464 -0.894829 0
M  V30 493 H 46.3322 2.28375 -2.56319 0
M  V30 494 N 48.7773 0.814389 1.34928 0
M  V30 495 C 50.0233 0.399013 1.98836 0
M  V30 496 C 50.3563 -1.03314 1.64438 0
M  V30 497 O 49.6313 -1.71811 0.911659 0
M  V30 498 C 49.9143 0.591629 3.55207 0
M  V30 499 C 49.7673 2.06928 3.99376 0
M  V30 500 C 51.0863 0.022199 4.40094 0
M  V30 501 H 48.2053 0.146451 0.722303 0
M  V30 502 H 50.8473 1.02537 1.59957 0
M  V30 503 H 48.9973 0.0584441 3.88456 0
M  V30 504 H 50.6693 2.66544 3.76499 0
M  V30 505 H 48.9123 2.56287 3.49999 0
M  V30 506 H 49.5833 2.1549 5.08201 0
M  V30 507 H 52.0593 0.477643 4.13349 0
M  V30 508 H 50.9353 0.186832 5.48582 0
M  V30 509 H 51.1963 -1.07215 4.28902 0
M  V30 510 N 50.2554 -1.46986 0.568584 0
M  V30 511 C 51.5024 -2.02441 0.0487986 0
M  V30 512 C 51.8304 -1.44169 -1.30559 0
M  V30 513 O 51.0854 -0.591213 -1.86556 0
M  V30 514 C 51.3844 -3.57306 -0.081836 0
M  V30 515 C 51.0504 -4.34552 1.20313 0
M  V30 516 C 49.7124 -4.55376 1.5552 0
M  V30 517 C 52.0644 -4.79016 2.05411 0
M  V30 518 C 49.3924 -5.17913 2.7565 0
M  V30 519 C 51.7444 -5.42879 3.24754 0
M  V30 520 C 50.4084 -5.61933 3.60261 0
M  V30 521 H 49.6784 -0.740785 0.0178567 0
M  V30 522 H 52.3254 -1.76525 0.742384 0
M  V30 523 H 50.6304 -3.8228 -0.858463 0
M  V30 524 H 52.3274 -3.97876 -0.499546 0
M  V30 525 H 48.9174 -4.18631 0.919014 0
M  V30 526 H 53.1014 -4.62696 1.79516 0
M  V30 527 H 48.3574 -5.30858 3.03315 0
M  V30 528 H 52.5314 -5.76293 3.90973 0
M  V30 529 H 50.1584 -6.10161 4.53439 0
M  V30 530 N 51.7335 -0.305618 -1.54608 0
M  V30 531 C 52.6635 0.561482 -2.26649 0
M  V30 532 C 53.6445 1.13415 -1.26772 0
M  V30 533 O 54.8295 1.16262 -1.55553 0
M  V30 534 C 51.9595 1.73122 -3.01075 0
M  V30 535 C 50.9135 1.2887 -4.08138 0
M  V30 536 C 50.2395 2.54396 -4.70305 0
M  V30 537 C 51.5395 0.416578 -5.20636 0
M  V30 538 H 53.2335 -0.0393902 -2.99374 0
M  V30 539 H 50.7795 -0.020385 -1.43986 0
M  V30 540 H 52.7325 2.34396 -3.50195 0
M  V30 541 H 51.4565 2.3584 -2.25936 0
M  V30 542 H 50.1155 0.698991 -3.59875 0
M  V30 543 H 49.7635 3.15439 -3.918 0
M  V30 544 H 49.4635 2.25486 -5.42614 0
M  V30 545 H 50.9875 3.16464 -5.2219 0
M  V30 546 H 52.4015 0.935116 -5.65622 0
M  V30 547 H 50.7985 0.221046 -5.99693 0
M  V30 548 H 51.8685 -0.557162 -4.81688 0
M  V30 549 N 53.2116 1.57565 -0.0334293 0
M  V30 550 C 54.1586 2.10478 0.946981 0
M  V30 551 C 55.1286 1.00787 1.32027 0
M  V30 552 O 56.3136 1.28232 1.41284 0
M  V30 553 C 53.4536 2.63994 2.22263 0
M  V30 554 C 52.5666 3.87709 1.90541 0
M  V30 555 C 51.7016 4.29604 3.12433 0
M  V30 556 C 50.7406 5.46065 2.76549 0
M  V30 557 N 49.8776 5.83096 3.9108 0
M  V30 558 H 54.7176 2.93963 0.488846 0
M  V30 559 H 52.2546 1.45296 0.22969 0
M  V30 560 H 54.2126 2.93114 2.96884 0
M  V30 561 H 52.8426 1.83333 2.65685 0
M  V30 562 H 51.8946 3.65291 1.06144 0
M  V30 563 H 53.2066 4.72403 1.60116 0
M  V30 564 H 52.3606 4.60182 3.9537 0
M  V30 565 H 51.0996 3.43685 3.46023 0
M  V30 566 H 50.1046 5.15176 1.92026 0
M  V30 567 H 51.3296 6.33685 2.44171 0
M  V30 568 H 49.2756 5.00132 4.24504 0
M  V30 569 H 49.1926 6.6244 3.64293 0
M  V30 570 H 50.4606 6.18282 4.74708 0
M  V30 571 N 54.6897 -0.239769 1.55765 0
M  V30 572 C 55.9297 -0.974076 1.79697 0
M  V30 573 C 56.2937 -1.82249 0.604088 0
M  V30 574 O 57.4947 -2.58913 0.722324 0
M  V30 575 C 55.7657 -1.80595 3.08416 0
M  V30 576 S 57.3247 -2.59838 3.53596 0
M  V30 577 H 54.1427 -0.327524 0.63107 0
M  V30 578 H 56.7447 -0.241277 1.94005 0
M  V30 579 H 55.4487 -1.17249 3.93295 0
M  V30 580 H 54.9797 -2.58137 2.96865 0
M  V30 581 H 56.9947 -3.82987 3.15492 0
M  V30 582 N 56.1678 -1.49265 -0.50573 0
M  V30 583 C 57.0778 -1.68312 -1.63427 0
M  V30 584 C 58.0938 -0.565682 -1.64548 0
M  V30 585 O 59.2698 -0.839801 -1.83055 0
M  V30 586 C 56.3348 -1.74107 -2.99813 0
M  V30 587 C 55.3958 -2.97653 -3.09356 0
M  V30 588 C 54.6288 -3.03163 -4.39236 0
M  V30 589 O 54.8518 -2.16396 -5.27758 0
M  V30 590 O 53.7858 -3.9558 -4.53652 0
M  V30 591 H 57.6118 -2.63907 -1.50289 0
M  V30 592 H 55.1968 -1.32951 -0.681502 0
M  V30 593 H 57.0788 -1.803 -3.80881 0
M  V30 594 H 55.7538 -0.816901 -3.13223 0
M  V30 595 H 54.6608 -2.96981 -2.27493 0
M  V30 596 H 55.9938 -3.89535 -3.00871 0
M  V30 597 N 57.6459 0.756429 -1.3826 0
M  V30 598 C 58.5939 1.89149 -1.35372 0
M  V30 599 C 59.5879 1.67691 -0.24004 0
M  V30 600 O 60.7939 1.75294 -0.408919 0
M  V30 601 H 57.1689 0.622271 -0.422236 0
M  V30 602 H 59.1399 1.88701 -2.31159 0
M  V30 603 C 57.8889 3.26599 -1.19284 0
M  V30 604 H 57.2119 3.43695 -2.0424 0
M  V30 605 H 58.6519 4.06274 -1.21316 0
M  V30 606 C 57.1109 3.3675 0.100454 0
M  V30 607 O 57.6409 3.86951 1.07851 0
M  V30 608 N 55.8469 2.90179 0.15633 0
M  V30 609 H 55.3939 2.49517 -0.640253 0
M  V30 610 H 55.3519 2.97352 1.02123 0
M  V30 611 N 59.124 1.23083 0.984299 0
M  V30 612 C 60.37 1.06214 1.72761 0
M  V30 613 C 60.703 -0.400584 1.90024 0
M  V30 614 O 59.978 -1.29672 1.44967 0
M  V30 615 C 60.261 1.78375 3.12817 0
M  V30 616 C 60.114 3.32296 3.03149 0
M  V30 617 C 61.433 1.54309 4.12161 0
M  V30 618 H 58.552 0.387251 0.627061 0
M  V30 619 H 61.194 1.51536 1.14616 0
M  V30 620 H 59.344 1.39848 3.62457 0
M  V30 621 H 61.016 3.8032 2.61064 0
M  V30 622 H 59.259 3.6153 2.39747 0
M  V30 623 H 59.93 3.77972 4.02295 0
M  V30 624 H 62.406 1.87791 3.71314 0
M  V30 625 H 61.282 2.07281 5.08258 0
M  V30 626 H 61.543 0.477572 4.39513 0
M  V30 627 N 60.6021 -1.18246 1.0419 0
M  V30 628 C 61.5341 -2.2142 0.592088 0
M  V30 629 C 62.5471 -1.59233 -0.338909 0
M  V30 630 O 63.7361 -1.78002 -0.133231 0
M  V30 631 C 60.8361 -3.38546 -0.154854 0
M  V30 632 C 60.0091 -4.3031 0.784328 0
M  V30 633 C 59.0681 -5.26138 0.0804583 0
M  V30 634 O 58.0941 -5.64738 0.711292 0
M  V30 635 N 59.2961 -5.68261 -1.18574 0
M  V30 636 H 62.0611 -2.60636 1.47949 0
M  V30 637 H 59.6221 -1.33044 0.922544 0
M  V30 638 H 61.6141 -3.99678 -0.635606 0
M  V30 639 H 60.1841 -2.98012 -0.943811 0
M  V30 640 H 59.4041 -3.66764 1.44491 0
M  V30 641 H 60.6921 -4.8852 1.42218 0
M  V30 642 H 60.0901 -5.38957 -1.71876 0
M  V30 643 H 58.6471 -6.31584 -1.61074 0
M  V30 644 N 62.0802 -0.821533 -1.34494 0
M  V30 645 C 63.4912 -0.467956 -1.8074 0
M  V30 646 C 63.8422 1.01151 -1.68116 0
M  V30 647 O 62.9672 1.78707 -1.22036 0
M  V30 648 C 63.5622 -0.842627 -3.28154 0
M  V30 649 C 62.1212 -0.541439 -3.72485 0
M  V30 650 C 61.2682 -1.06028 -2.56229 0
M  V30 651 H 64.2192 -1.01183 -1.22261 0
M  V30 652 H 64.2402 -0.145876 -3.8022 0
M  V30 653 H 63.7522 -1.91945 -3.37311 0
M  V30 654 H 61.8532 0.526034 -3.68868 0
M  V30 655 H 61.9662 -1.08453 -4.66663 0
M  V30 656 H 60.3302 -0.481892 -2.501 0
M  V30 657 H 61.1132 -2.14352 -2.68157 0
M  V30 658 N 63.5583 1.46682 -0.576371 0
M  V30 659 C 64.7833 2.07304 -0.0630475 0
M  V30 660 C 65.2083 1.42329 1.2298 0
M  V30 661 O 64.5663 0.504865 1.74129 0
M  V30 662 C 64.6143 3.60472 0.095895 0
M  V30 663 O 63.7183 3.95927 1.15394 0
M  V30 664 H 63.0593 0.661288 -0.0599463 0
M  V30 665 H 65.5893 1.88417 -0.797511 0
M  V30 666 H 65.5993 4.06865 0.304071 0
M  V30 667 H 64.2743 4.07157 -0.84828 0
M  V30 668 H 62.8513 3.61252 0.924724 0
M  V30 669 N 65.0364 0.313813 1.54444 0
M  V30 670 C 66.2844 -0.291099 1.99993 0
M  V30 671 C 66.6054 -1.53418 1.20366 0
M  V30 672 O 65.8754 -1.93544 0.302927 0
M  V30 673 H 64.4554 -0.110552 0.738774 0
M  V30 674 H 67.1174 0.428106 1.9014 0
M  V30 675 H 66.2134 -0.554268 3.07139 0
M  V30 676 N 66.5145 -1.57545 0.0417849 0
M  V30 677 C 67.7395 -1.97035 -0.647455 0
M  V30 678 C 68.1645 -0.918775 -1.64135 0
M  V30 679 O 67.5225 0.119006 -1.80909 0
M  V30 680 C 67.5705 -3.35609 -1.31905 0
M  V30 681 O 66.6745 -3.3287 -2.43457 0
M  V30 682 H 66.0155 -0.64211 -0.169086 0
M  V30 683 H 68.5455 -2.04318 0.107399 0
M  V30 684 H 68.5555 -3.72126 -1.67291 0
M  V30 685 H 67.2305 -4.11685 -0.590586 0
M  V30 686 H 65.8075 -3.08087 -2.10088 0
M  V30 687 N 67.9926 0.231505 -1.5589 0
M  V30 688 C 69.2396 0.957352 -1.78441 0
M  V30 689 C 69.5676 1.84726 -0.60882 0
M  V30 690 O 68.8226 1.91416 0.40725 0
M  V30 691 C 69.1216 1.83577 -3.0665 0
M  V30 692 C 68.7876 1.09993 -4.37278 0
M  V30 693 C 67.4496 0.896629 -4.72773 0
M  V30 694 C 69.8016 0.579558 -5.17968 0
M  V30 695 C 67.1296 0.160896 -5.86479 0
M  V30 696 C 69.4816 -0.142783 -6.32439 0
M  V30 697 C 68.1456 -0.357427 -6.66542 0
M  V30 698 H 67.4156 0.35032 -0.65296 0
M  V30 699 H 70.0626 0.226259 -1.90159 0
M  V30 700 H 68.3676 2.63441 -2.90011 0
M  V30 701 H 70.0646 2.39934 -3.21298 0
M  V30 702 H 66.6546 1.26835 -4.09403 0
M  V30 703 H 70.8386 0.724125 -4.90989 0
M  V30 704 H 66.0946 -0.0157293 -6.11398 0
M  V30 705 H 70.2686 -0.553559 -6.94196 0
M  V30 706 H 67.8956 -0.929466 -7.54497 0
M  V30 707 N 69.4707 1.49531 0.497807 0
M  V30 708 C 70.4177 1.66436 1.59899 0
M  V30 709 C 71.3877 0.505793 1.58212 0
M  V30 710 O 72.5727 0.733202 1.7615 0
M  V30 711 C 69.7127 1.7399 2.98029 0
M  V30 712 C 68.8257 3.01172 3.09708 0
M  V30 713 C 67.9607 2.99686 4.38591 0
M  V30 714 C 66.9997 4.21434 4.43914 0
M  V30 715 N 66.1367 4.1784 5.64229 0
M  V30 716 H 70.9767 2.60459 1.44793 0
M  V30 717 H 68.5137 1.29137 0.704423 0
M  V30 718 H 70.4717 1.76352 3.78095 0
M  V30 719 H 69.1017 0.834301 3.11832 0
M  V30 720 H 68.1537 3.08408 2.22685 0
M  V30 721 H 69.4657 3.91165 3.09502 0
M  V30 722 H 68.6197 3.00628 5.2698 0
M  V30 723 H 67.3587 2.07477 4.41367 0
M  V30 724 H 66.3637 4.20733 3.53926 0
M  V30 725 H 67.5887 5.14839 4.42851 0
M  V30 726 H 65.5347 3.28469 5.67841 0
M  V30 727 H 65.4517 5.01571 5.65652 0
M  V30 728 H 66.7197 4.22889 6.54817 0
M  V30 729 N 70.9488 -0.749086 1.3866 0
M  V30 730 C 72.1978 -1.50371 1.3443 0
M  V30 731 C 72.5108 -1.95503 -0.0616397 0
M  V30 732 O 73.7168 -2.70554 -0.226489 0
M  V30 733 C 72.1728 -2.71644 2.36088 0
M  V30 734 C 71.7808 -2.3352 3.82325 0
M  V30 735 C 73.5248 -3.49518 2.40909 0
M  V30 736 C 71.4318 -3.51431 4.75658 0
M  V30 737 H 70.3618 -0.564628 0.499712 0
M  V30 738 H 73.0128 -0.818449 1.64237 0
M  V30 739 H 71.3948 -3.42175 1.9933 0
M  V30 740 H 72.5688 -1.70627 4.28046 0
M  V30 741 H 70.8838 -1.6877 3.80665 0
M  V30 742 H 73.4808 -4.37197 3.07836 0
M  V30 743 H 73.8238 -3.90992 1.42937 0
M  V30 744 H 74.3568 -2.86005 2.76489 0
M  V30 745 H 71.0958 -3.15019 5.74842 0
M  V30 746 H 70.6158 -4.13352 4.34627 0
M  V30 747 H 72.2948 -4.17953 4.93887 0
M  V30 748 N 72.4269 -1.23603 -0.977757 0
M  V30 749 C 73.8429 -0.999251 -1.24447 0
M  V30 750 C 74.0429 0.298053 -1.99283 0
M  V30 751 O 73.0989 1.01681 -2.31122 0
M  V30 752 C 74.4119 -2.20784 -2.04144 0
M  V30 753 C 75.9599 -2.25303 -2.17273 0
M  V30 754 C 76.4349 -3.45755 -3.00362 0
M  V30 755 N 77.9259 -3.4601 -3.07947 0
M  V30 756 C 78.6609 -4.35868 -3.72568 0
M  V30 757 N 78.1569 -5.35966 -4.38991 0
M  V30 758 N 79.9499 -4.23605 -3.6948 0
M  V30 759 H 72.1009 -2.06986 -0.476483 0
M  V30 760 H 74.3639 -0.907801 -0.273134 0
M  V30 761 H 74.0699 -3.14945 -1.56533 0
M  V30 762 H 73.9439 -2.22085 -3.04891 0
M  V30 763 H 76.3309 -1.3168 -2.64092 0
M  V30 764 H 76.4119 -2.28033 -1.15907 0
M  V30 765 H 76.0559 -4.39687 -2.5424 0
M  V30 766 H 75.9859 -3.40266 -4.01904 0
M  V30 767 H 78.4769 -2.73588 -2.60688 0
M  V30 768 H 78.7899 -6.00783 -4.86086 0
M  V30 769 H 77.1349 -5.39863 -4.37691 0
M  V30 770 H 80.3259 -3.44647 -3.16759 0
M  V30 771 H 80.4989 -4.93836 -4.1956 0
M  V30 772 N 73.905 1.17692 -1.04816 0
M  V30 773 C 75.153 1.87488 -0.754497 0
M  V30 774 C 75.474 1.81205 0.720407 0
M  V30 775 O 74.744 1.23544 1.52032 0
M  V30 776 H 73.324 0.694101 -0.276102 0
M  V30 777 H 75.986 1.42793 -1.32651 0
M  V30 778 H 75.082 2.93328 -1.06606 0
M  V30 779 N 75.3831 0.828654 1.34056 0
M  V30 780 C 76.6321 0.415828 1.97367 0
M  V30 781 C 76.9451 -1.02796 1.6641 0
M  V30 782 O 78.1511 -1.54497 2.23255 0
M  V30 783 C 76.6071 0.692601 3.53173 0
M  V30 784 C 76.2151 2.15038 3.93017 0
M  V30 785 C 77.9591 0.346222 4.23086 0
M  V30 786 C 75.8661 2.37174 5.41758 0
M  V30 787 H 74.7961 0.151755 0.738571 0
M  V30 788 H 77.4471 1.01581 1.52819 0
M  V30 789 H 75.8291 0.0223764 3.95994 0
M  V30 790 H 77.0031 2.86024 3.61285 0
M  V30 791 H 75.3181 2.45875 3.36057 0
M  V30 792 H 77.9151 0.48937 5.32456 0
M  V30 793 H 78.2581 -0.709842 4.10204 0
M  V30 794 H 78.7911 0.971258 3.85761 0
M  V30 795 H 75.5301 3.41308 5.59633 0
M  V30 796 H 75.0501 1.70738 5.74986 0
M  V30 797 H 76.7291 2.19818 6.08514 0
M  V30 798 N 76.8612 -1.46375 0.584142 0
M  V30 799 C 78.1092 -2.01978 0.0701287 0
M  V30 800 C 78.4302 -1.4579 -1.295 0
M  V30 801 O 77.7002 -0.64314 -1.85042 0
M  V30 802 H 76.2802 -0.746648 0.0229345 0
M  V30 803 H 78.9422 -1.79461 0.760245 0
M  V30 804 H 78.0382 -3.121 0.0022064 0
M  V30 805 N 78.3393 -0.321999 -1.54275 0
M  V30 806 C 79.2893 0.560185 -2.21011 0
M  V30 807 C 80.2733 1.08283 -1.19011 0
M  V30 808 O 81.4653 1.02011 -1.44647 0
M  V30 809 C 78.5943 1.72137 -2.97025 0
M  V30 810 C 77.6803 1.21369 -4.06363 0
M  V30 811 N 78.0713 0.425566 -5.04007 0
M  V30 812 C 76.3693 1.49255 -4.20284 0
M  V30 813 C 77.0703 0.152601 -5.815 0
M  V30 814 N 76.0463 0.738294 -5.38563 0
M  V30 815 H 79.8483 -0.049265 -2.93859 0
M  V30 816 H 77.3623 -0.127779 -1.61897 0
M  V30 817 H 79.3593 2.36512 -3.43319 0
M  V30 818 H 78.0193 2.33431 -2.25699 0
M  V30 819 H 79.0303 0.068551 -5.17855 0
M  V30 820 H 75.7073 2.11145 -3.60172 0
M  V30 821 H 77.0973 -0.481764 -6.70171 0
M  V30 822 N 79.8174 1.5752 -0.0501392 0
M  V30 823 C 81.0644 1.9265 0.623874 0
M  V30 824 C 81.3924 0.928411 1.70912 0
M  V30 825 O 80.6474 -0.0594525 1.9561 0
M  V30 826 C 80.9464 3.34467 1.25963 0
M  V30 827 C 80.6124 4.49883 0.302689 0
M  V30 828 C 79.2744 4.81184 0.0393636 0
M  V30 829 C 81.6264 5.20002 -0.353205 0
M  V30 830 C 78.9544 5.79951 -0.887308 0
M  V30 831 C 81.3064 6.1976 -1.26806 0
M  V30 832 C 79.9704 6.49491 -1.54007 0
M  V30 833 H 79.2404 0.704957 0.228292 0
M  V30 834 H 81.8874 1.91146 -0.116398 0
M  V30 835 H 80.1924 3.32333 2.07514 0
M  V30 836 H 81.8894 3.58928 1.78806 0
M  V30 837 H 78.4794 4.25457 0.518109 0
M  V30 838 H 82.6634 4.96033 -0.162854 0
M  V30 839 H 77.9194 6.01322 -1.10553 0
M  V30 840 H 82.0934 6.73205 -1.78236 0
M  V30 841 H 79.7204 7.25837 -2.25976 0
M  V30 842 N 81.2955 -0.223234 1.56011 0
M  V30 843 C 82.5355 -0.954962 1.8072 0
M  V30 844 C 82.8995 -1.81598 0.623384 0
M  V30 845 O 84.1005 -2.58132 0.749745 0
M  V30 846 C 82.3715 -1.77313 3.10314 0
M  V30 847 S 83.9305 -2.56073 3.56332 0
M  V30 848 H 80.7485 -0.320812 0.634508 0
M  V30 849 H 83.3505 -0.220686 1.9425 0
M  V30 850 H 82.0545 -1.13071 3.94516 0
M  V30 851 H 81.5855 -2.54974 2.99586 0
M  V30 852 H 83.6005 -3.79619 3.19536 0
M  V30 853 N 82.7736 -1.49793 -0.48987 0
M  V30 854 C 83.7056 -1.63413 -1.60713 0
M  V30 855 C 84.7186 -0.516329 -1.54395 0
M  V30 856 O 85.9076 -0.788812 -1.60125 0
M  V30 857 C 83.0076 -1.58516 -2.99543 0
M  V30 858 C 82.1806 -2.86016 -3.30928 0
M  V30 859 C 81.2396 -2.74018 -4.49222 0
M  V30 860 O 80.2656 -3.47964 -4.50455 0
M  V30 861 N 81.4676 -1.86309 -5.4979 0
M  V30 862 H 84.2326 -2.59777 -1.49452 0
M  V30 863 H 81.7936 -1.47022 -0.677955 0
M  V30 864 H 83.7856 -1.48128 -3.76617 0
M  V30 865 H 82.3556 -0.69965 -3.0467 0
M  V30 866 H 81.5756 -3.10672 -2.42645 0
M  V30 867 H 82.8636 -3.70521 -3.487 0
M  V30 868 H 82.2616 -1.2551 -5.51601 0
M  V30 869 H 80.8186 -1.81837 -6.25922 0
M  V30 870 N 84.2517 0.741722 -1.39055 0
M  V30 871 C 85.1617 1.88621 -1.39496 0
M  V30 872 C 86.1777 1.71557 -0.290578 0
M  V30 873 O 87.3537 1.94275 -0.530954 0
M  V30 874 C 84.4187 3.24134 -1.23037 0
M  V30 875 C 83.4797 3.5364 -2.43387 0
M  V30 876 C 82.7127 4.82687 -2.27703 0
M  V30 877 O 82.9357 5.55922 -1.27696 0
M  V30 878 O 81.8697 5.1194 -3.16545 0
M  V30 879 H 85.6957 1.91203 -2.35956 0
M  V30 880 H 83.2807 0.888625 -1.20099 0
M  V30 881 H 85.1627 4.0513 -1.15964 0
M  V30 882 H 83.8377 3.22337 -0.296691 0
M  V30 883 H 82.7447 2.72758 -2.56035 0
M  V30 884 H 84.0777 3.60209 -3.35425 0
M  V30 885 N 85.7298 1.2412 0.971189 0
M  V30 886 C 86.6628 0.97373 2.06382 0
M  V30 887 C 87.6408 -0.0912662 1.62344 0
M  V30 888 O 88.8248 0.0449365 1.88446 0
M  V30 889 C 85.9518 0.468746 3.35441 0
M  V30 890 C 84.9978 1.52176 3.98428 0
M  V30 891 S 85.8308 3.10203 4.36503 0
M  V30 892 C 86.9868 2.61398 5.68702 0
M  V30 893 H 87.2198 1.89893 2.28753 0
M  V30 894 H 84.7528 1.07466 1.10862 0
M  V30 895 H 86.7108 0.184012 4.10087 0
M  V30 896 H 85.3718 -0.435688 3.11064 0
M  V30 897 H 84.5648 1.11876 4.91426 0
M  V30 898 H 84.1668 1.75632 3.30196 0
M  V30 899 H 86.4588 2.03992 6.4606 0
M  V30 900 H 87.4018 3.52972 6.13854 0
M  V30 901 H 87.8098 2.01941 5.27143 0
M  V30 902 N 87.2079 -1.17134 1.05439 0
M  V30 903 C 88.1709 -2.19439 0.661764 0
M  V30 904 C 89.1709 -1.58199 -0.288042 0
M  V30 905 O 90.3609 -1.74053 -0.0715803 0
M  V30 906 C 87.4929 -3.40889 -0.0276209 0
M  V30 907 H 88.6859 -2.55688 1.56728 0
M  V30 908 H 86.2389 -1.31259 0.848567 0
M  V30 909 H 86.9739 -3.10187 -0.94629 0
M  V30 910 H 86.7589 -3.86586 0.655238 0
M  V30 911 H 88.2489 -4.16603 -0.288342 0
M  V30 912 N 88.686 -0.835752 -1.33615 0
M  V30 913 C 89.633 -0.26473 -2.29277 0
M  V30 914 C 90.603 0.617712 -1.54187 0
M  V30 915 O 91.788 0.556641 -1.825 0
M  V30 916 C 88.928 0.556777 -3.40579 0
M  V30 917 C 88.041 -0.349339 -4.30585 0
M  V30 918 C 87.176 0.482969 -5.29 0
M  V30 919 C 86.215 -0.421732 -6.10645 0
M  V30 920 N 85.352 0.372262 -7.01112 0
M  V30 921 H 90.192 -1.08582 -2.77514 0
M  V30 922 H 87.729 -0.546927 -1.36554 0
M  V30 923 H 89.687 1.04852 -4.03809 0
M  V30 924 H 88.317 1.34286 -2.93542 0
M  V30 925 H 87.369 -0.959372 -3.68104 0
M  V30 926 H 88.681 -1.04445 -4.87742 0
M  V30 927 H 87.835 1.03866 -5.97743 0
M  V30 928 H 86.574 1.21153 -4.72412 0
M  V30 929 H 85.579 -0.989464 -5.40823 0
M  V30 930 H 86.804 -1.14861 -6.69316 0
M  V30 931 H 84.75 1.08426 -6.46977 0
M  V30 932 H 84.667 -0.264198 -7.55538 0
M  V30 933 H 85.935 0.910293 -7.74167 0
M  V30 934 N 90.1641 1.46063 -0.591896 0
M  V30 935 C 91.1111 2.30399 0.136069 0
M  V30 936 C 92.0811 1.41169 0.875238 0
M  V30 937 O 93.2661 1.70112 0.86409 0
M  V30 938 C 90.4061 3.25804 1.13781 0
M  V30 939 C 89.5191 4.30134 0.401137 0
M  V30 940 C 88.6541 5.12659 1.39121 0
M  V30 941 C 87.6931 6.0873 0.641462 0
M  V30 942 N 86.8301 6.8409 1.58004 0
M  V30 943 H 91.6701 2.92118 -0.589144 0
M  V30 944 H 89.2071 1.43959 -0.302342 0
M  V30 945 H 91.1651 3.79569 1.73156 0
M  V30 946 H 89.7951 2.65872 1.83062 0
M  V30 947 H 88.8471 3.79152 -0.307826 0
M  V30 948 H 90.1591 4.98458 -0.184565 0
M  V30 949 H 89.3131 5.70747 2.05749 0
M  V30 950 H 88.0521 4.44316 2.01084 0
M  V30 951 H 87.0571 5.49786 -0.0385419 0
M  V30 952 H 88.2821 6.79095 0.0270945 0
M  V30 953 H 86.2281 6.18449 2.18761 0
M  V30 954 H 86.1451 7.48709 1.04738 0
M  V30 955 H 87.4131 7.4673 2.23639 0
M  V30 956 N 91.6422 0.330177 1.54103 0
M  V30 957 C 92.8902 -0.269871 2.0029 0
M  V30 958 C 93.2112 -1.52133 1.21986 0
M  V30 959 O 92.4812 -1.93212 0.323438 0
M  V30 960 H 91.0612 -0.10271 0.739905 0
M  V30 961 H 93.7232 0.448249 1.89675 0
M  V30 962 H 92.8192 -0.52166 3.07709 0
M  V30 963 N 93.1203 -1.57491 0.0584922 0
M  V30 964 C 94.3603 -1.94851 -0.617458 0
M  V30 965 C 94.7243 -0.937165 -1.67575 0
M  V30 966 O 95.9253 -1.19795 -2.40629 0
M  V30 967 C 94.1963 -3.36955 -1.19147 0
M  V30 968 S 95.7553 -3.96277 -1.8844 0
M  V30 969 H 92.5733 -0.681539 -0.202547 0
M  V30 970 H 95.1753 -1.95073 0.129176 0
M  V30 971 H 93.8793 -4.08355 -0.409215 0
M  V30 972 H 93.4103 -3.40245 -1.97476 0
M  V30 973 H 95.4253 -3.82099 -3.16568 0
M  V30 974 N 94.5984 0.214957 -1.56127 0
M  V30 975 C 96.0144 0.564948 -1.49267 0
M  V30 976 C 96.2144 1.86827 -0.754838 0
M  V30 977 O 95.2704 2.50745 -0.297198 0
M  V30 978 C 96.5834 0.638071 -2.93852 0
M  V30 979 C 98.1314 0.728253 -3.0441 0
M  V30 980 C 98.6064 0.832663 -4.50367 0
M  V30 981 N 100.097 0.896712 -4.54437 0
M  V30 982 C 100.832 0.997324 -5.6466 0
M  V30 983 N 100.328 1.06147 -6.8462 0
M  V30 984 N 102.121 1.03297 -5.52527 0
M  V30 985 H 94.2724 -0.640211 -2.02522 0
M  V30 986 H 96.5354 -0.225507 -0.920788 0
M  V30 987 H 96.2414 -0.250126 -3.50809 0
M  V30 988 H 96.1154 1.49947 -3.46115 0
M  V30 989 H 98.5024 1.60689 -2.47514 0
M  V30 990 H 98.5834 -0.158952 -2.55306 0
M  V30 991 H 98.2274 -0.0415417 -5.07883 0
M  V30 992 H 98.1574 1.73538 -4.97184 0
M  V30 993 H 100.648 0.857188 -3.6805 0
M  V30 994 H 100.961 1.1382 -7.64372 0
M  V30 995 H 99.3064 1.03049 -6.87318 0
M  V30 996 H 102.497 0.979558 -4.57736 0
M  V30 997 H 102.67 1.10793 -6.38458 0
M  V30 998 N 96.0765 1.50051 0.48192 0
M  V30 999 C 97.0265 1.64512 1.5786 0
M  V30 1000 C 98.0105 0.500073 1.52932 0
M  V30 1001 O 99.2025 0.753964 1.60139 0
M  V30 1002 C 96.3315 1.73263 2.9637 0
M  V30 1003 C 95.4175 2.93409 3.06222 0
M  V30 1004 N 95.8085 4.17236 2.85915 0
M  V30 1005 C 94.1065 2.91742 3.37346 0
M  V30 1006 C 94.8075 4.981 3.00451 0
M  V30 1007 N 93.7835 4.3184 3.30174 0
M  V30 1008 H 97.5855 2.57955 1.40842 0
M  V30 1009 H 95.0995 1.47086 0.688439 0
M  V30 1010 H 97.0965 1.81724 3.75209 0
M  V30 1011 H 95.7565 0.809711 3.14442 0
M  V30 1012 H 96.7675 4.46909 2.6171 0
M  V30 1013 H 93.4445 2.08907 3.61475 0
M  V30 1014 H 94.8345 6.06532 2.89082 0
M  V30 1015 N 97.5546 -0.734337 1.39446 0
M  V30 1016 C 98.4846 -1.86155 1.40955 0
M  V30 1017 C 99.4656 -1.67898 0.272827 0
M  V30 1018 O 100.651 -1.88207 0.478743 0
M  V30 1019 C 97.7806 -3.23912 1.25294 0
M  V30 1020 C 96.7346 -3.56808 2.36373 0
M  V30 1021 C 96.0606 -4.93508 2.058 0
M  V30 1022 C 97.3606 -3.59713 3.78687 0
M  V30 1023 H 99.0546 -1.8515 2.35287 0
M  V30 1024 H 96.6006 -0.889367 1.13253 0
M  V30 1025 H 98.5536 -4.02443 1.2497 0
M  V30 1026 H 97.2776 -3.25446 0.274308 0
M  V30 1027 H 95.9366 -2.80606 2.35914 0
M  V30 1028 H 95.5846 -4.91623 1.06374 0
M  V30 1029 H 95.2846 -5.16486 2.80208 0
M  V30 1030 H 96.8086 -5.74396 2.07128 0
M  V30 1031 H 98.2226 -4.2832 3.81071 0
M  V30 1032 H 96.6196 -3.94209 4.52459 0
M  V30 1033 H 97.6896 -2.59504 4.09617 0
M  V30 1034 N 99.0327 -1.24633 -0.964593 0
M  V30 1035 C 100.279 -1.08949 -1.71049 0
M  V30 1036 C 100.612 0.370302 -1.90637 0
M  V30 1037 O 99.8867 1.27349 -1.47011 0
M  V30 1038 C 100.17 -1.83329 -3.0994 0
M  V30 1039 C 100.023 -3.37077 -2.97824 0
M  V30 1040 C 101.342 -1.60846 -4.09654 0
M  V30 1041 H 98.4607 -0.397178 -0.620821 0
M  V30 1042 H 101.103 -1.5334 -1.12191 0
M  V30 1043 H 99.2527 -1.45597 -3.60186 0
M  V30 1044 H 100.925 -3.84425 -2.5498 0
M  V30 1045 H 99.1677 -3.65298 -2.33965 0
M  V30 1046 H 99.8387 -3.84324 -3.96231 0
M  V30 1047 H 102.315 -1.93674 -3.68279 0
M  V30 1048 H 101.191 -2.1534 -5.04896 0
M  V30 1049 H 101.452 -0.547434 -4.38698 0
M  V30 1050 N 100.511 1.16574 -1.06058 0
M  V30 1051 C 101.751 1.88723 -0.78504 0
M  V30 1052 C 102.115 1.79706 0.676006 0
M  V30 1053 O 103.316 2.46757 1.06603 0
M  V30 1054 C 101.587 3.34338 -1.26304 0
M  V30 1055 S 103.146 4.24366 -1.1162 0
M  V30 1056 H 99.9638 0.651448 -0.284846 0
M  V30 1057 H 102.566 1.40732 -1.35701 0
M  V30 1058 H 101.27 3.38439 -2.32136 0
M  V30 1059 H 100.801 3.87378 -0.685719 0
M  V30 1060 H 102.816 4.96179 -0.0456539 0
M  V30 1061 N 101.989 0.842826 1.3317 0
M  V30 1062 C 103.214 0.453129 2.02389 0
M  V30 1063 C 103.639 -0.939105 1.6298 0
M  V30 1064 O 102.997 -1.61472 0.8244 0
M  V30 1065 C 103.045 0.586094 3.55805 0
M  V30 1066 O 102.149 -0.386029 4.10589 0
M  V30 1067 H 101.49 0.183664 0.638094 0
M  V30 1068 H 104.02 1.13875 1.69981 0
M  V30 1069 H 104.03 0.469209 4.05293 0
M  V30 1070 H 102.705 1.6014 3.83833 0
M  V30 1071 H 101.282 -0.226371 3.72212 0
M  V30 1072 N 103.467 -1.45747 0.599634 0
M  V30 1073 C 104.692 -2.07178 0.0960198 0
M  V30 1074 C 105.117 -1.44268 -1.207 0
M  V30 1075 O 104.475 -0.532503 -1.73303 0
M  V30 1076 C 104.523 -3.60579 -0.0385348 0
M  V30 1077 O 103.627 -3.97713 -1.0908 0
M  V30 1078 H 102.968 -0.660251 0.0704593 0
M  V30 1079 H 105.498 -1.87124 0.827385 0
M  V30 1080 H 105.508 -4.07298 -0.239304 0
M  V30 1081 H 104.183 -4.05756 0.912947 0
M  V30 1082 H 102.76 -3.62678 -0.867135 0
M  V30 1083 N 104.945 -0.338344 -1.53925 0
M  V30 1084 C 106.193 0.259245 -2.0043 0
M  V30 1085 C 106.514 1.51484 -1.22791 0
M  V30 1086 O 105.784 1.93037 -0.33368 0
M  V30 1087 H 104.364 0.0987845 -0.740439 0
M  V30 1088 H 107.026 -0.458302 -1.89435 0
M  V30 1089 H 106.122 0.505334 -3.07982 0
M  V30 1090 N 106.423 1.57458 -0.0668435 0
M  V30 1091 C 107.671 1.92919 0.602214 0
M  V30 1092 C 107.992 0.947215 1.70449 0
M  V30 1093 O 107.262 -0.00544117 1.95899 0
M  V30 1094 H 105.842 0.71217 0.22544 0
M  V30 1095 H 108.504 1.94508 -0.123535 0
M  V30 1096 H 107.6 2.94589 1.03073 0
M  V30 1097 N 107.901 -0.206675 1.56239 0
M  V30 1098 C 108.849 -1.27571 1.94495 0
M  V30 1099 C 109.843 -1.47737 0.828862 0
M  V30 1100 O 111.049 -1.48735 1.0138 0
M  V30 1101 H 107.424 -0.428029 0.6183 0
M  V30 1102 H 109.395 -0.925961 2.8367 0
M  V30 1103 C 108.144 -2.61568 2.29079 0
M  V30 1104 H 107.467 -2.46863 3.14482 0
M  V30 1105 H 108.907 -3.35144 2.5972 0
M  V30 1106 C 107.366 -3.17695 1.12123 0
M  V30 1107 O 107.896 -3.99801 0.390153 0
M  V30 1108 N 106.102 -2.76276 0.901097 0
M  V30 1109 H 105.649 -2.09613 1.49733 0
M  V30 1110 H 105.607 -3.1417 0.120319 0
M  V30 1111 N 109.379 -1.50304 -0.473955 0
M  V30 1112 C 110.342 -1.6841 -1.55469 0
M  V30 1113 C 111.342 -0.554905 -1.50922 0
M  V30 1114 O 112.532 -0.821882 -1.53593 0
M  V30 1115 C 109.664 -1.70667 -2.95102 0
M  V30 1116 H 110.857 -2.64828 -1.40733 0
M  V30 1117 H 108.41 -1.39742 -0.700132 0
M  V30 1118 H 109.145 -0.75932 -3.15285 0
M  V30 1119 H 108.93 -2.52698 -2.9981 0
M  V30 1120 H 110.42 -1.8664 -3.73571 0
M  V30 1121 N 110.857 0.726932 -1.39834 0
M  V30 1122 C 112.105 1.4837 -1.37225 0
M  V30 1123 C 112.426 1.94979 0.0284857 0
M  V30 1124 O 111.696 1.69555 0.981213 0
M  V30 1125 H 110.276 0.55043 -0.505011 0
M  V30 1126 H 112.938 0.862468 -1.74778 0
M  V30 1127 H 112.034 2.36198 -2.04003 0
M  V30 1128 N 112.336 1.25143 0.95797 0
M  V30 1129 C 113.585 1.0909 1.69654 0
M  V30 1130 C 113.898 -0.368548 1.92097 0
M  V30 1131 O 115.104 -0.649455 2.63618 0
M  V30 1132 C 113.56 1.90395 3.05414 0
M  V30 1133 C 113.168 3.4081 2.90779 0
M  V30 1134 C 114.912 1.82901 3.83076 0
M  V30 1135 C 112.819 4.14423 4.21909 0
M  V30 1136 H 111.749 0.404625 0.636235 0
M  V30 1137 H 114.4 1.4931 1.06672 0
M  V30 1138 H 112.782 1.42996 3.69281 0
M  V30 1139 H 113.956 3.95859 2.35865 0
M  V30 1140 H 112.271 3.49361 2.26575 0
M  V30 1141 H 114.868 2.35196 4.80195 0
M  V30 1142 H 115.211 0.796224 4.08615 0
M  V30 1143 H 115.744 2.28033 3.25954 0
M  V30 1144 H 112.483 5.18102 4.01561 0
M  V30 1145 H 112.003 3.64159 4.76601 0
M  V30 1146 H 113.682 4.21956 4.90471 0
M  V30 1147 N 113.814 -1.1601 1.06675 0
M  V30 1148 C 114.777 -2.18724 0.685001 0
M  V30 1149 C 115.777 -1.58496 -0.271246 0
M  V30 1150 O 116.967 -1.74119 -0.0531156 0
M  V30 1151 C 114.099 -3.40899 0.00853648 0
M  V30 1152 H 115.292 -2.54011 1.59431 0
M  V30 1153 H 112.845 -1.30352 0.862441 0
M  V30 1154 H 113.58 -3.11173 -0.913337 0
M  V30 1155 H 113.365 -3.8587 0.696204 0
M  V30 1156 H 114.855 -4.16886 -0.24414 0
M  V30 1157 N 115.292 -0.849877 -1.32721 0
M  V30 1158 C 116.255 -0.296122 -2.27279 0
M  V30 1159 C 117.255 0.541458 -1.5141 0
M  V30 1160 O 118.445 0.353658 -1.70572 0
M  V30 1161 C 115.577 0.581579 -3.35902 0
M  V30 1162 H 116.77 -1.13064 -2.77771 0
M  V30 1163 H 114.323 -0.62383 -1.43311 0
M  V30 1164 H 115.058 1.43809 -2.9067 0
M  V30 1165 H 114.843 -0.0178814 -3.92096 0
M  V30 1166 H 116.333 0.961951 -4.0637 0
M  V30 1167 N 116.77 1.45427 -0.607355 0
M  V30 1168 C 117.733 2.28974 0.101693 0
M  V30 1169 C 118.733 1.39754 0.795329 0
M  V30 1170 O 119.923 1.61878 0.643527 0
M  V30 1171 C 117.055 3.20768 1.15414 0
M  V30 1172 H 118.248 2.93147 -0.632844 0
M  V30 1173 H 115.801 1.51945 -0.366391 0
M  V30 1174 H 116.536 2.61395 1.91945 0
M  V30 1175 H 116.321 3.86489 0.66098 0
M  V30 1176 H 117.811 3.83589 1.65073 0
M  V30 1177 N 118.248 0.346503 1.53744 0
M  V30 1178 C 119.478 -0.250047 2.05081 0
M  V30 1179 C 119.886 -1.44529 1.22098 0
M  V30 1180 O 119.229 -1.81992 0.249917 0
M  V30 1181 C 119.291 -0.725934 3.52094 0
M  V30 1182 C 118.955 0.350053 4.55657 0
M  V30 1183 C 119.952 1.19372 5.0601 0
M  V30 1184 C 117.637 0.504827 4.99757 0
M  V30 1185 C 119.631 2.17768 5.99046 0
M  V30 1186 C 117.318 1.49218 5.92602 0
M  V30 1187 C 118.316 2.32706 6.42135 0
M  V30 1188 O 118.004 3.2976 7.33153 0
M  V30 1189 H 117.736 -0.0515469 0.674032 0
M  V30 1190 H 120.29 0.497559 1.99282 0
M  V30 1191 H 118.52 -1.52483 3.55367 0
M  V30 1192 H 120.209 -1.24336 3.86388 0
M  V30 1193 H 120.975 1.08525 4.72702 0
M  V30 1194 H 116.854 -0.135178 4.60802 0
M  V30 1195 H 120.398 2.82971 6.37631 0
M  V30 1196 H 116.295 1.6012 6.25325 0
M  V30 1197 H 117.063 3.25265 7.51096 0
M  V30 1198 N 119.726 -1.57421 0.075193 0
M  V30 1199 C 120.689 -2.11791 -0.876203 0
M  V30 1200 C 121.689 -1.04268 -1.22412 0
M  V30 1201 O 122.879 -1.30242 -1.15684 0
M  V30 1202 C 120.011 -2.62207 -2.17854 0
M  V30 1203 H 121.204 -2.9716 -0.40444 0
M  V30 1204 H 118.757 -1.55333 -0.173557 0
M  V30 1205 H 119.492 -1.803 -2.6956 0
M  V30 1206 H 119.277 -3.40802 -1.93897 0
M  V30 1207 H 120.767 -3.04335 -2.85955 0
M  V30 1208 N 121.204 0.198386 -1.56346 0
M  V30 1209 C 122.167 1.22952 -1.93431 0
M  V30 1210 C 123.167 1.38611 -0.815092 0
M  V30 1211 O 124.357 1.36479 -1.08255 0
M  V30 1212 C 121.489 2.59946 -2.20546 0
M  V30 1213 H 122.682 0.912626 -2.85677 0
M  V30 1214 H 120.235 0.43977 -1.49986 0
M  V30 1215 H 120.97 2.96696 -1.30927 0
M  V30 1216 H 120.755 2.49953 -3.02102 0
M  V30 1217 H 122.245 3.3431 -2.50253 0
M  V30 1218 N 122.682 1.50554 0.465978 0
M  V30 1219 C 124.098 1.38093 0.800154 0
M  V30 1220 C 124.298 0.440988 1.96615 0
M  V30 1221 O 123.354 -0.114499 2.5224 0
M  V30 1222 C 124.667 2.79565 1.10742 0
M  V30 1223 C 126.215 2.88516 1.21357 0
M  V30 1224 C 126.69 4.30833 1.55393 0
M  V30 1225 N 128.181 4.33807 1.62375 0
M  V30 1226 C 128.916 5.40927 1.90225 0
M  V30 1227 N 128.412 6.58247 2.16062 0
M  V30 1228 N 130.205 5.28376 1.9177 0
M  V30 1229 H 122.356 2.10237 -0.302366 0
M  V30 1230 H 124.619 0.945203 -0.0727746 0
M  V30 1231 H 124.325 3.50208 0.323661 0
M  V30 1232 H 124.199 3.17125 2.04234 0
M  V30 1233 H 126.586 2.1809 1.98799 0
M  V30 1234 H 126.667 2.54492 0.258321 0
M  V30 1235 H 126.311 5.01799 0.784889 0
M  V30 1236 H 126.241 4.62347 2.52076 0
M  V30 1237 H 128.732 3.49212 1.44427 0
M  V30 1238 H 129.045 7.3569 2.36601 0
M  V30 1239 H 127.39 6.61413 2.13444 0
M  V30 1240 H 130.581 4.35715 1.71085 0
M  V30 1241 H 130.754 6.11944 2.13139 0
M  V30 1242 N 124.16 -0.719506 1.40217 0
M  V30 1243 C 125.107 -1.83359 1.40172 0
M  V30 1244 C 126.077 -1.64065 0.259206 0
M  V30 1245 O 127.262 -1.85254 0.456677 0
M  V30 1246 C 124.402 -3.2103 1.26624 0
M  V30 1247 C 123.515 -3.51923 2.50548 0
M  V30 1248 C 122.65 -4.79079 2.29471 0
M  V30 1249 C 121.689 -5.02863 3.48992 0
M  V30 1250 N 120.826 -6.2123 3.27135 0
M  V30 1251 H 125.666 -1.82733 2.35399 0
M  V30 1252 H 123.203 -0.892688 1.16917 0
M  V30 1253 H 125.161 -4.00524 1.16776 0
M  V30 1254 H 123.791 -3.20895 0.350176 0
M  V30 1255 H 122.843 -2.67014 2.70939 0
M  V30 1256 H 124.155 -3.6541 3.39525 0
M  V30 1257 H 123.309 -5.66582 2.16955 0
M  V30 1258 H 122.048 -4.67794 1.37913 0
M  V30 1259 H 121.053 -4.13816 3.6199 0
M  V30 1260 H 122.278 -5.16023 4.41472 0
M  V30 1261 H 120.224 -6.11204 2.38256 0
M  V30 1262 H 120.141 -6.35375 4.09675 0
M  V30 1263 H 121.409 -7.11532 3.18344 0
M  V30 1264 N 125.638 -1.25649 -0.95132 0
M  V30 1265 C 126.568 -1.08808 -2.06599 0
M  V30 1266 C 127.549 0.00382547 -1.701 0
M  V30 1267 O 128.734 -0.166325 -1.93486 0
M  V30 1268 C 125.864 -0.709542 -3.39975 0
M  V30 1269 C 124.818 -1.75206 -3.90496 0
M  V30 1270 C 124.144 -1.22811 -5.20405 0
M  V30 1271 C 125.444 -3.15153 -4.16504 0
M  V30 1272 H 127.138 -2.02048 -2.20946 0
M  V30 1273 H 124.684 -0.972835 -1.06169 0
M  V30 1274 H 126.637 -0.578649 -4.17408 0
M  V30 1275 H 125.361 0.258556 -3.25575 0
M  V30 1276 H 124.02 -1.87145 -3.15234 0
M  V30 1277 H 123.668 -0.250145 -5.02378 0
M  V30 1278 H 123.368 -1.92492 -5.55176 0
M  V30 1279 H 124.892 -1.10968 -6.00432 0
M  V30 1280 H 126.306 -3.06349 -4.84586 0
M  V30 1281 H 124.703 -3.82333 -4.62538 0
M  V30 1282 H 125.773 -3.61966 -3.22658 0
M  V30 1283 N 127.117 1.15442 -1.07289 0
M  V30 1284 C 128.365 1.85845 -0.794096 0
M  V30 1285 C 128.686 1.82692 0.681809 0
M  V30 1286 O 127.956 1.26741 1.49377 0
M  V30 1287 H 126.536 0.688089 -0.290763 0
M  V30 1288 H 129.198 1.39947 -1.3565 0
M  V30 1289 H 128.294 2.91001 -1.12804 0
M  V30 1290 N 128.595 0.856903 1.32268 0
M  V30 1291 C 129.844 0.457599 1.96441 0
M  V30 1292 C 130.157 -0.992426 1.68553 0
M  V30 1293 O 131.363 -1.49727 2.26482 0
M  V30 1294 C 129.819 0.767358 3.51624 0
M  V30 1295 C 129.427 2.23326 3.88367 0
M  V30 1296 C 131.171 0.435887 4.22256 0
M  V30 1297 C 129.078 2.48613 5.36606 0
M  V30 1298 H 128.008 0.167387 0.735185 0
M  V30 1299 H 130.659 1.048 1.5063 0
M  V30 1300 H 129.041 0.106367 3.95857 0
M  V30 1301 H 130.215 2.93623 3.55137 0
M  V30 1302 H 128.53 2.52948 3.30766 0
M  V30 1303 H 131.127 0.602202 5.31298 0
M  V30 1304 H 131.47 -0.622672 4.11617 0
M  V30 1305 H 132.003 1.05286 3.83614 0
M  V30 1306 H 128.742 3.53101 5.52268 0
M  V30 1307 H 128.262 1.82896 5.71235 0
M  V30 1308 H 129.941 2.32676 6.03714 0
M  V30 1309 N 130.073 -1.45103 0.615059 0
M  V30 1310 C 131.484 -1.85654 0.197383 0
M  V30 1311 C 131.835 -1.51433 -1.24749 0
M  V30 1312 O 130.96 -0.944608 -1.94695 0
M  V30 1313 C 131.555 -3.36972 0.351448 0
M  V30 1314 C 130.114 -3.76398 -0.011593 0
M  V30 1315 C 129.261 -2.69024 0.672394 0
M  V30 1316 H 132.212 -1.35797 0.821263 0
M  V30 1317 H 132.233 -3.78239 -0.414227 0
M  V30 1318 H 131.745 -3.61847 1.40314 0
M  V30 1319 H 129.846 -3.5714 -1.06217 0
M  V30 1320 H 129.959 -4.77532 0.387265 0
M  V30 1321 H 128.323 -2.54465 0.109284 0
M  V30 1322 H 129.106 -2.96735 1.72636 0
M  V30 1323 N 131.551 -0.354651 -1.53558 0
M  V30 1324 C 132.514 0.484566 -2.24019 0
M  V30 1325 C 133.514 1.01861 -1.24422 0
M  V30 1326 O 134.704 0.906097 -1.4878 0
M  V30 1327 C 131.836 1.67615 -2.96847 0
M  V30 1328 H 133.029 -0.131843 -2.9961 0
M  V30 1329 H 130.582 -0.106165 -1.55939 0
M  V30 1330 H 131.317 2.33095 -2.25471 0
M  V30 1331 H 131.102 1.30029 -3.69912 0
M  V30 1332 H 132.592 2.27114 -3.50441 0
M  V30 1333 N 133.029 1.57378 -0.0835403 0
M  V30 1334 C 134.257 1.98263 0.59157 0
M  V30 1335 C 134.672 0.962302 1.62435 0
M  V30 1336 O 134.029 -0.049581 1.82433 0
M  V30 1337 C 134.08 3.39214 1.24965 0
M  V30 1338 O 133.801 4.37339 0.258186 0
M  V30 1339 C 135.302 3.95038 2.01147 0
M  V30 1340 H 132.522 0.651773 0.159477 0
M  V30 1341 H 135.066 2.03878 -0.159415 0
M  V30 1342 H 133.221 3.34649 1.95164 0
M  V30 1343 H 133.635 5.19371 0.731734 0
M  V30 1344 H 135.109 4.95848 2.42567 0
M  V30 1345 H 135.586 3.32222 2.87272 0
M  V30 1346 H 136.192 4.0304 1.35789 0
M  V30 1347 N 134.507 -0.190092 1.56449 0
M  V30 1348 C 135.756 -0.907912 1.80111 0
M  V30 1349 C 136.069 -1.84214 0.657619 0
M  V30 1350 O 137.275 -2.60094 0.778663 0
M  V30 1351 C 135.731 -1.66485 3.19078 0
M  V30 1352 C 135.339 -0.7752 4.41242 0
M  V30 1353 C 137.083 -2.37201 3.52045 0
M  V30 1354 C 134.99 -1.53129 5.71231 0
M  V30 1355 H 133.92 -0.34276 0.671589 0
M  V30 1356 H 136.571 -0.161109 1.82791 0
M  V30 1357 H 134.953 -2.45572 3.10661 0
M  V30 1358 H 136.127 -0.0226298 4.60794 0
M  V30 1359 H 134.442 -0.178627 4.16017 0
M  V30 1360 H 137.039 -2.94329 4.46402 0
M  V30 1361 H 137.382 -3.11632 2.76028 0
M  V30 1362 H 137.915 -1.65075 3.61932 0
M  V30 1363 H 134.654 -0.82967 6.50228 0
M  V30 1364 H 134.174 -2.25767 5.55688 0
M  V30 1365 H 135.853 -2.08377 6.12526 0
M  V30 1366 N 135.985 -1.50799 -0.457987 0
M  V30 1367 C 137.231 -1.62683 -1.21088 0
M  V30 1368 C 137.564 -0.332268 -1.91336 0
M  V30 1369 O 136.839 0.667043 -1.82704 0
M  V30 1370 C 137.122 -2.81615 -2.24422 0
M  V30 1371 C 136.975 -4.20989 -1.58392 0
M  V30 1372 C 138.294 -2.96085 -3.2561 0
M  V30 1373 H 135.413 -0.592087 -0.438864 0
M  V30 1374 H 138.055 -1.83225 -0.50286 0
M  V30 1375 H 136.205 -2.64231 -2.84806 0
M  V30 1376 H 137.877 -4.49994 -1.01504 0
M  V30 1377 H 136.12 -4.24641 -0.886704 0
M  V30 1378 H 136.791 -5.0016 -2.33547 0
M  V30 1379 H 139.267 -3.12042 -2.75262 0
M  V30 1380 H 138.143 -3.80902 -3.95228 0
M  V30 1381 H 138.404 -2.0726 -3.90507 0
M  V30 1382 N 137.463 0.71206 -1.40597 0
M  V30 1383 C 138.393 1.83889 -1.43899 0
M  V30 1384 C 139.374 1.67442 -0.299504 0
M  V30 1385 O 140.559 1.87421 -0.508624 0
M  V30 1386 C 137.689 3.21877 -1.30431 0
M  V30 1387 C 136.643 3.53002 -2.42019 0
M  V30 1388 C 135.969 4.90172 -2.13626 0
M  V30 1389 C 137.269 3.53643 -3.84362 0
M  V30 1390 H 138.963 1.81383 -2.38203 0
M  V30 1391 H 136.509 0.871237 -1.14654 0
M  V30 1392 H 138.462 4.00404 -1.31357 0
M  V30 1393 H 137.186 3.24968 -0.326049 0
M  V30 1394 H 135.845 2.76818 -2.40349 0
M  V30 1395 H 135.493 4.89869 -1.14182 0
M  V30 1396 H 135.193 5.11962 -2.88389 0
M  V30 1397 H 136.717 5.71028 -2.1624 0
M  V30 1398 H 138.131 4.22203 -3.87837 0
M  V30 1399 H 136.528 3.86961 -4.58673 0
M  V30 1400 H 137.598 2.52954 -4.13693 0
M  V30 1401 N 138.941 1.26152 0.944643 0
M  V30 1402 C 140.352 1.10454 1.50522 0
M  V30 1403 C 140.703 -0.31635 1.93633 0
M  V30 1404 O 139.828 -1.20746 1.79581 0
M  V30 1405 C 140.423 1.99891 2.73549 0
M  V30 1406 C 138.982 1.88348 3.25886 0
M  V30 1407 C 138.129 1.93447 1.9868 0
M  V30 1408 H 141.08 1.39292 0.760489 0
M  V30 1409 H 141.101 1.54477 3.47732 0
M  V30 1410 H 140.613 3.03297 2.42141 0
M  V30 1411 H 138.714 0.878636 3.62092 0
M  V30 1412 H 138.827 2.73696 3.93227 0
M  V30 1413 H 137.191 1.37456 2.14425 0
M  V30 1414 H 137.974 2.98476 1.69607 0
M  V30 1415 N 140.419 -1.14872 1.07899 0
M  V30 1416 C 141.329 -2.2341 0.715915 0
M  V30 1417 C 142.345 -1.71808 -0.275306 0
M  V30 1418 O 143.521 -2.01039 -0.120545 0
M  V30 1419 C 140.586 -3.46474 0.125168 0
M  V30 1420 C 139.647 -4.13039 1.17034 0
M  V30 1421 C 138.88 -5.30229 0.607688 0
M  V30 1422 O 139.103 -5.675 -0.574497 0
M  V30 1423 O 138.037 -5.86444 1.35526 0
M  V30 1424 H 141.863 -2.56808 1.62121 0
M  V30 1425 H 139.448 -1.22702 0.852322 0
M  V30 1426 H 141.33 -4.20917 -0.201729 0
M  V30 1427 H 140.005 -3.14811 -0.753364 0
M  V30 1428 H 138.912 -3.40493 1.54968 0
M  V30 1429 H 140.245 -4.48796 2.02097 0
M  V30 1430 N 141.898 -0.863906 -1.31812 0
M  V30 1431 C 143.123 -0.48527 -2.01643 0
M  V30 1432 C 143.548 0.913058 -1.64453 0
M  V30 1433 O 142.906 1.6014 -0.849985 0
M  V30 1434 C 142.954 -0.642625 -3.54828 0
M  V30 1435 O 142.058 0.320659 -4.11151 0
M  V30 1436 H 141.399 -0.193793 -0.635091 0
M  V30 1437 H 143.929 -1.16565 -1.68148 0
M  V30 1438 H 143.939 -0.533628 -4.04495 0
M  V30 1439 H 142.614 -1.66227 -3.81237 0
M  V30 1440 H 141.191 0.167126 -3.72525 0
M  V30 1441 N 143.376 1.44774 -0.622745 0
M  V30 1442 C 144.604 2.06487 -0.130722 0
M  V30 1443 C 145.019 1.46476 1.19123 0
M  V30 1444 O 144.376 0.584502 1.72887 0
M  V30 1445 C 144.427 3.615 -0.000807207 0
M  V30 1446 O 144.148 4.19274 -1.27048 0
M  V30 1447 C 145.649 4.40229 0.520898 0
M  V30 1448 H 142.869 0.666704 -0.0758106 0
M  V30 1449 H 145.413 1.85779 -0.854774 0
M  V30 1450 H 143.568 3.81498 0.673643 0
M  V30 1451 H 143.982 5.12622 -1.1099 0
M  V30 1452 H 145.456 5.49144 0.560838 0
M  V30 1453 H 145.933 4.1108 1.54627 0
M  V30 1454 H 146.539 4.25131 -0.120018 0
M  V30 1455 N 144.854 0.36279 1.53368 0
M  V30 1456 C 146.079 -0.231226 2.06107 0
M  V30 1457 C 146.504 -1.419 1.23474 0
M  V30 1458 O 145.862 -1.79524 0.253128 0
M  V30 1459 C 145.91 -0.605523 3.5548 0
M  V30 1460 O 145.014 -1.70312 3.7559 0
M  V30 1461 H 144.355 -0.034327 0.663112 0
M  V30 1462 H 146.885 0.522584 1.97814 0
M  V30 1463 H 146.895 -0.877314 3.98456 0
M  V30 1464 H 145.57 0.263004 4.15068 0
M  V30 1465 H 144.147 -1.4271 3.44512 0
M  V30 1466 N 146.332 -1.57332 0.0918853 0
M  V30 1467 C 147.262 -2.16872 -0.865371 0
M  V30 1468 C 148.243 -1.10118 -1.29646 0
M  V30 1469 O 149.428 -1.38242 -1.36392 0
M  V30 1470 C 146.558 -2.74649 -2.12569 0
M  V30 1471 C 145.512 -3.86747 -1.83333 0
M  V30 1472 C 144.838 -4.31212 -3.16166 0
M  V30 1473 C 146.138 -5.10089 -1.1228 0
M  V30 1474 H 147.832 -2.97114 -0.369307 0
M  V30 1475 H 145.378 -1.42918 -0.176194 0
M  V30 1476 H 147.331 -3.14952 -2.7997 0
M  V30 1477 H 146.055 -1.91657 -2.64452 0
M  V30 1478 H 144.714 -3.46978 -1.18331 0
M  V30 1479 H 144.362 -3.45115 -3.6593 0
M  V30 1480 H 144.062 -5.06788 -2.97388 0
M  V30 1481 H 145.586 -4.74146 -3.84731 0
M  V30 1482 H 147 -5.47582 -1.69785 0
M  V30 1483 H 145.397 -5.91073 -1.03693 0
M  V30 1484 H 146.467 -4.84786 -0.105041 0
M  V30 1485 N 147.81 0.181792 -1.56548 0
M  V30 1486 C 148.742 1.24956 -1.92142 0
M  V30 1487 C 149.755 1.41022 -0.813422 0
M  V30 1488 O 150.944 1.41212 -1.09186 0
M  V30 1489 C 148.044 2.61981 -2.14987 0
M  V30 1490 C 147.217 2.6735 -3.46183 0
M  V30 1491 C 146.276 3.85664 -3.5798 0
M  V30 1492 O 145.302 3.72148 -4.30691 0
M  V30 1493 N 146.504 5.01683 -2.92053 0
M  V30 1494 H 149.269 0.947329 -2.84334 0
M  V30 1495 H 146.83 0.371629 -1.57577 0
M  V30 1496 H 148.822 3.3958 -2.20154 0
M  V30 1497 H 147.392 2.84637 -1.2923 0
M  V30 1498 H 146.612 1.75925 -3.52766 0
M  V30 1499 H 147.9 2.67939 -4.32534 0
M  V30 1500 H 147.298 5.15564 -2.32832 0
M  V30 1501 H 145.855 5.77181 -3.0283 0
M  V30 1502 N 149.288 1.51039 0.449983 0
M  V30 1503 C 150.534 1.63322 1.20223 0
M  V30 1504 C 150.867 0.34241 1.91158 0
M  V30 1505 O 150.142 -0.657344 1.83055 0
M  V30 1506 C 150.425 2.82801 2.22925 0
M  V30 1507 C 150.278 4.21823 1.56157 0
M  V30 1508 C 151.597 2.97807 3.24035 0
M  V30 1509 H 148.716 0.594407 0.435718 0
M  V30 1510 H 151.358 1.83489 0.493136 0
M  V30 1511 H 149.508 2.65738 2.834 0
M  V30 1512 H 151.18 4.50526 0.991162 0
M  V30 1513 H 149.423 4.25105 0.864172 0
M  V30 1514 H 150.094 5.01391 2.30891 0
M  V30 1515 H 152.57 3.13497 2.73603 0
M  V30 1516 H 151.446 3.82992 3.93202 0
M  V30 1517 H 151.707 2.09328 3.89402 0
M  V30 1518 N 150.766 -0.704594 1.40972 0
M  V30 1519 C 152.012 -1.46675 1.40051 0
M  V30 1520 C 152.345 -1.94199 0.00641102 0
M  V30 1521 O 151.62 -1.68916 -0.964235 0
M  V30 1522 C 151.903 -2.68505 2.39952 0
M  V30 1523 C 151.756 -2.26805 3.88432 0
M  V30 1524 C 153.075 -3.70686 2.37233 0
M  V30 1525 H 150.194 -0.532015 0.510028 0
M  V30 1526 H 152.836 -0.803255 1.72185 0
M  V30 1527 H 150.986 -3.25114 2.1268 0
M  V30 1528 H 152.658 -1.75592 4.26574 0
M  V30 1529 H 150.901 -1.58685 4.03734 0
M  V30 1530 H 151.572 -3.14181 4.53866 0
M  V30 1531 H 154.048 -3.23731 2.61415 0
M  V30 1532 H 152.924 -4.53553 3.09162 0
M  V30 1533 H 153.185 -4.19754 1.38777 0
M  V30 1534 N 152.244 -1.26651 -0.937939 0
M  V30 1535 C 153.176 -1.04283 -2.04102 0
M  V30 1536 C 154.189 -0.00221014 -1.628 0
M  V30 1537 O 155.378 -0.242645 -1.76843 0
M  V30 1538 C 152.478 -0.557846 -3.34277 0
M  V30 1539 C 151.651 -1.66843 -4.04329 0
M  V30 1540 C 150.71 -1.18095 -5.12777 0
M  V30 1541 O 149.736 -1.87865 -5.37304 0
M  V30 1542 N 150.938 -0.0311006 -5.80492 0
M  V30 1543 H 153.703 -1.9927 -2.23856 0
M  V30 1544 H 151.264 -1.1808 -1.10764 0
M  V30 1545 H 153.256 -0.215836 -4.04124 0
M  V30 1546 H 151.826 0.298523 -3.11171 0
M  V30 1547 H 151.046 -2.18123 -3.28353 0
M  V30 1548 H 152.334 -2.41408 -4.47883 0
M  V30 1549 H 151.732 0.551486 -5.63005 0
M  V30 1550 H 150.289 0.251809 -6.51313 0
M  V30 1551 N 153.722 1.14298 -1.08507 0
M  V30 1552 C 155.138 1.37347 -0.812901 0
M  V30 1553 C 155.338 1.93052 0.577325 0
M  V30 1554 O 154.394 2.14389 1.33393 0
M  V30 1555 C 155.707 2.33359 -1.89642 0
M  V30 1556 C 157.255 2.46996 -1.92255 0
M  V30 1557 C 157.73 3.46309 -2.99724 0
M  V30 1558 N 159.221 3.53853 -2.98902 0
M  V30 1559 C 159.956 4.3055 -3.787 0
M  V30 1560 N 159.452 5.10482 -4.6838 0
M  V30 1561 N 161.245 4.25757 -3.66998 0
M  V30 1562 H 153.396 0.764867 -1.9815 0
M  V30 1563 H 155.659 0.398966 -0.859959 0
M  V30 1564 H 155.365 1.99565 -2.89597 0
M  V30 1565 H 155.239 3.33274 -1.76659 0
M  V30 1566 H 157.626 2.80081 -0.929445 0
M  V30 1567 H 157.707 1.47039 -2.09316 0
M  V30 1568 H 157.351 3.13957 -3.99241 0
M  V30 1569 H 157.281 4.46049 -2.79907 0
M  V30 1570 H 159.772 2.96812 -2.33904 0
M  V30 1571 H 160.085 5.66284 -5.25873 0
M  V30 1572 H 158.43 5.09747 -4.72422 0
M  V30 1573 H 161.621 3.62383 -2.96304 0
M  V30 1574 H 161.794 4.85279 -4.29427 0
M  V30 1575 N 155.201 0.870884 1.31352 0
M  V30 1576 C 156.131 0.343096 2.30966 0
M  V30 1577 C 157.112 -0.566507 1.60389 0
M  V30 1578 O 158.297 -0.483336 1.88089 0
M  V30 1579 C 155.427 -0.455487 3.443 0
M  V30 1580 C 154.381 0.361103 4.26474 0
M  V30 1581 C 153.707 -0.563221 5.31725 0
M  V30 1582 C 155.007 1.59566 4.97329 0
M  V30 1583 H 156.701 1.17548 2.75359 0
M  V30 1584 H 154.247 0.566686 1.32381 0
M  V30 1585 H 156.2 -0.83525 4.13039 0
M  V30 1586 H 154.924 -1.32139 2.98675 0
M  V30 1587 H 153.583 0.722825 3.59403 0
M  V30 1588 H 153.231 -1.42643 4.82351 0
M  V30 1589 H 152.931 -0.0207409 5.87596 0
M  V30 1590 H 154.455 -0.939808 6.03324 0
M  V30 1591 H 155.869 1.28728 5.58661 0
M  V30 1592 H 154.266 2.07728 5.63 0
M  V30 1593 H 155.336 2.34798 4.24262 0
M  V30 1594 N 156.679 -1.44442 0.630414 0
M  V30 1595 C 157.611 -2.2892 -0.113347 0
M  V30 1596 C 158.624 -1.41243 -0.80959 0
M  V30 1597 O 159.813 -1.65402 -0.671156 0
M  V30 1598 C 156.913 -3.17594 -1.18266 0
M  V30 1599 C 156.086 -4.33682 -0.569073 0
M  V30 1600 C 155.145 -5.03397 -1.53226 0
M  V30 1601 O 154.171 -5.59438 -1.04967 0
M  V30 1602 N 155.373 -5.04783 -2.86661 0
M  V30 1603 H 158.138 -2.93392 0.611636 0
M  V30 1604 H 155.699 -1.54881 0.471523 0
M  V30 1605 H 157.691 -3.61097 -1.82732 0
M  V30 1606 H 156.261 -2.54876 -1.80988 0
M  V30 1607 H 155.481 -3.9338 0.254187 0
M  V30 1608 H 156.769 -5.08608 -0.139767 0
M  V30 1609 H 156.167 -4.60584 -3.28449 0
M  V30 1610 H 154.724 -5.52077 -3.46489 0
M  V30 1611 N 158.157 -0.370918 -1.53173 0
M  V30 1612 C 159.405 0.216673 -2.00935 0
M  V30 1613 C 159.726 1.48845 -1.25977 0
M  V30 1614 O 158.996 1.92286 -0.374551 0
M  V30 1615 H 157.576 0.0830565 -0.742368 0
M  V30 1616 H 160.238 -0.49838 -1.8842 0
M  V30 1617 H 159.334 0.439893 -3.08984 0
M  V30 1618 N 159.635 1.57281 -0.100228 0
M  V30 1619 C 160.545 2.17833 0.870965 0
M  V30 1620 C 161.561 1.14921 1.30649 0
M  V30 1621 O 162.737 1.47313 1.37335 0
M  V30 1622 C 159.802 2.75085 2.1102 0
M  V30 1623 C 158.863 3.9297 1.72838 0
M  V30 1624 C 158.096 4.47482 2.90854 0
M  V30 1625 O 158.319 4.00922 4.05731 0
M  V30 1626 O 157.253 5.38433 2.69023 0
M  V30 1627 H 161.079 3.0124 0.38575 0
M  V30 1628 H 158.664 1.48881 0.124397 0
M  V30 1629 H 160.546 3.11656 2.83634 0
M  V30 1630 H 159.221 1.94721 2.58584 0
M  V30 1631 H 158.128 3.61201 0.973883 0
M  V30 1632 H 159.461 4.74713 1.30033 0
M  V30 1633 N 161.113 -0.173488 1.56642 0
M  V30 1634 C 162.361 -0.888706 1.81512 0
M  V30 1635 C 162.682 -1.82875 0.676872 0
M  V30 1636 O 161.952 -1.93536 -0.303414 0
M  V30 1637 H 160.532 -0.331164 0.669582 0
M  V30 1638 H 163.194 -0.173823 1.94123 0
M  V30 1639 H 162.29 -1.46691 2.75478 0
M  V30 1640 N 162.591 -1.51276 -0.441967 0
M  V30 1641 C 163.554 -1.7167 -1.51862 0
M  V30 1642 C 164.554 -0.586793 -1.49711 0
M  V30 1643 O 165.744 -0.854276 -1.51815 0
M  V30 1644 C 162.876 -1.76889 -2.91416 0
M  V30 1645 H 164.069 -2.67754 -1.35084 0
M  V30 1646 H 161.622 -1.41196 -0.670333 0
M  V30 1647 H 162.357 -0.826026 -3.13604 0
M  V30 1648 H 162.142 -2.59001 -2.94382 0
M  V30 1649 H 163.632 -1.94522 -3.69528 0
M  V30 1650 N 164.069 0.697108 -1.41344 0
M  V30 1651 C 164.979 1.84088 -1.45427 0
M  V30 1652 C 165.995 1.70545 -0.34501 0
M  V30 1653 O 167.171 1.92488 -0.592492 0
M  V30 1654 C 164.236 3.20056 -1.33286 0
M  V30 1655 C 163.297 3.45718 -2.54514 0
M  V30 1656 C 162.53 4.75199 -2.42944 0
M  V30 1657 O 162.753 5.51579 -1.45318 0
M  V30 1658 O 161.687 5.0161 -3.32672 0
M  V30 1659 H 165.513 1.836 -2.41919 0
M  V30 1660 H 163.098 0.849966 -1.22866 0
M  V30 1661 H 164.98 4.01236 -1.28794 0
M  V30 1662 H 163.655 3.2123 -0.39909 0
M  V30 1663 H 162.562 2.64474 -2.64583 0
M  V30 1664 H 163.895 3.49356 -3.46715 0
M  V30 1665 N 165.547 1.27147 0.931209 0
M  V30 1666 C 166.793 1.13446 1.68101 0
M  V30 1667 C 167.126 -0.319628 1.91552 0
M  V30 1668 O 166.401 -1.23407 1.50336 0
M  V30 1669 C 166.684 1.91482 3.0497 0
M  V30 1670 C 166.537 3.44855 2.88782 0
M  V30 1671 C 167.856 1.71651 4.05246 0
M  V30 1672 H 164.975 0.413498 0.610072 0
M  V30 1673 H 167.617 1.56261 1.08086 0
M  V30 1674 H 165.767 1.55095 3.56199 0
M  V30 1675 H 167.439 3.9105 2.44698 0
M  V30 1676 H 165.682 3.71373 2.24198 0
M  V30 1677 H 166.353 3.94694 3.85902 0
M  V30 1678 H 168.829 2.0337 3.63015 0
M  V30 1679 H 167.705 2.28651 4.99009 0
M  V30 1680 H 167.966 0.663555 4.37092 0
M  V30 1681 N 167.025 -1.13721 1.09112 0
M  V30 1682 C 167.957 -2.1871 0.685467 0
M  V30 1683 C 168.97 -1.60527 -0.271068 0
M  V30 1684 O 170.159 -1.78407 -0.0576148 0
M  V30 1685 C 167.259 -3.38898 -0.0111255 0
M  V30 1686 C 166.432 -4.26597 0.966131 0
M  V30 1687 C 165.491 -5.25324 0.303539 0
M  V30 1688 O 164.517 -5.61213 0.950177 0
M  V30 1689 N 165.719 -5.72779 -0.943651 0
M  V30 1690 H 168.484 -2.54126 1.58871 0
M  V30 1691 H 166.045 -1.29012 0.978143 0
M  V30 1692 H 168.037 -4.02014 -0.465517 0
M  V30 1693 H 166.607 -3.01747 -0.816565 0
M  V30 1694 H 165.827 -3.60306 1.59917 0
M  V30 1695 H 167.115 -4.82048 1.6281 0
M  V30 1696 H 166.513 -5.45762 -1.48862 0
M  V30 1697 H 165.07 -6.37847 -1.34142 0
M  V30 1698 N 168.503 -0.877838 -1.30888 0
M  V30 1699 C 169.433 -0.35534 -2.3078 0
M  V30 1700 C 170.414 0.557994 -1.60687 0
M  V30 1701 O 171.599 0.473355 -1.88343 0
M  V30 1702 C 168.729 0.437221 -3.44537 0
M  V30 1703 C 167.683 -0.383715 -4.26276 0
M  V30 1704 C 167.009 0.535014 -5.32017 0
M  V30 1705 C 168.309 -1.62201 -4.96476 0
M  V30 1706 H 170.003 -1.19007 -2.74732 0
M  V30 1707 H 167.549 -0.573698 -1.32078 0
M  V30 1708 H 169.502 0.813334 -4.13477 0
M  V30 1709 H 168.226 1.30553 -2.99372 0
M  V30 1710 H 166.885 -0.741874 -3.59015 0
M  V30 1711 H 166.533 1.40083 -4.831 0
M  V30 1712 H 166.233 -0.0104211 -5.87599 0
M  V30 1713 H 167.757 0.907799 -6.03814 0
M  V30 1714 H 169.171 -1.31689 -5.5797 0
M  V30 1715 H 167.568 -2.10711 -5.61891 0
M  V30 1716 H 168.638 -2.37044 -4.23011 0
M  V30 1717 N 169.982 1.44106 -0.638065 0
M  V30 1718 C 171.21 2.06336 -0.152615 0
M  V30 1719 C 171.625 1.47731 1.17563 0
M  V30 1720 O 170.982 0.602806 1.72257 0
M  V30 1721 C 171.033 3.61479 -0.0391491 0
M  V30 1722 O 170.754 4.17903 -1.31487 0
M  V30 1723 C 172.255 4.40757 0.474176 0
M  V30 1724 H 169.475 0.665862 -0.0828776 0
M  V30 1725 H 172.019 1.84862 -0.87443 0
M  V30 1726 H 170.174 3.82191 0.633142 0
M  V30 1727 H 170.588 5.11416 -1.16421 0
M  V30 1728 H 172.062 5.49707 0.502562 0
M  V30 1729 H 172.539 4.12697 1.50258 0
M  V30 1730 H 173.145 4.24979 -0.165102 0
M  V30 1731 N 171.46 0.379036 1.52974 0
M  V30 1732 C 172.708 -0.206014 2.01047 0
M  V30 1733 C 173.029 -1.48175 1.26765 0
M  V30 1734 O 172.299 -1.92085 0.384743 0
M  V30 1735 H 170.879 -0.0791184 0.742798 0
M  V30 1736 H 173.541 0.508366 1.88153 0
M  V30 1737 H 172.637 -0.423501 3.09213 0
M  V30 1738 N 172.938 -1.57226 0.108567 0
M  V30 1739 C 173.885 -2.14756 -0.845481 0
M  V30 1740 C 174.855 -1.06971 -1.27068 0
M  V30 1741 O 176.04 -1.34827 -1.35005 0
M  V30 1742 C 173.18 -2.74298 -2.09415 0
M  V30 1743 C 172.293 -3.96358 -1.71826 0
M  V30 1744 C 171.428 -4.44021 -2.9158 0
M  V30 1745 C 170.467 -5.58637 -2.50181 0
M  V30 1746 N 169.604 -6.01091 -3.62814 0
M  V30 1747 H 174.444 -2.95961 -0.348035 0
M  V30 1748 H 171.981 -1.46226 -0.160106 0
M  V30 1749 H 173.939 -3.06945 -2.82561 0
M  V30 1750 H 172.569 -1.95801 -2.56636 0
M  V30 1751 H 171.621 -3.69939 -0.885947 0
M  V30 1752 H 172.933 -4.79504 -1.37394 0
M  V30 1753 H 172.087 -4.78522 -3.72963 0
M  V30 1754 H 170.826 -3.59803 -3.29231 0
M  V30 1755 H 169.831 -5.23751 -1.67228 0
M  V30 1756 H 171.056 -6.44613 -2.13659 0
M  V30 1757 H 169.002 -5.19817 -4.00158 0
M  V30 1758 H 168.919 -6.79066 -3.32273 0
M  V30 1759 H 170.187 -6.40227 -4.44668 0
M  V30 1760 N 174.416 0.165178 -1.56732 0
M  V30 1761 C 175.662 0.882112 -1.82611 0
M  V30 1762 C 175.995 1.81628 -0.687378 0
M  V30 1763 O 175.27 1.92009 0.310267 0
M  V30 1764 C 175.553 1.67245 -3.18906 0
M  V30 1765 C 175.406 0.760987 -4.43316 0
M  V30 1766 C 176.725 2.63884 -3.52212 0
M  V30 1767 H 173.844 0.319242 -0.664269 0
M  V30 1768 H 176.486 0.148052 -1.89422 0
M  V30 1769 H 174.636 2.29824 -3.1323 0
M  V30 1770 H 176.308 0.147596 -4.61064 0
M  V30 1771 H 174.551 0.0694102 -4.33744 0
M  V30 1772 H 175.222 1.34962 -5.35247 0
M  V30 1773 H 177.698 2.11429 -3.58381 0
M  V30 1774 H 176.574 3.16245 -4.48643 0
M  V30 1775 H 176.835 3.44377 -2.77231 0
M  V30 1776 N 175.894 1.51508 0.433938 0
M  V30 1777 C 177.14 1.65549 1.18173 0
M  V30 1778 C 177.495 0.368751 1.88833 0
M  V30 1779 O 176.788 -0.635616 1.8075 0
M  V30 1780 C 176.982 2.79928 2.22205 0
M  V30 1781 C 176.811 4.19601 1.61756 0
M  V30 1782 C 175.581 4.85489 1.40101 0
M  V30 1783 C 177.779 5.02574 1.09194 0
M  V30 1784 N 175.761 6.09266 0.752859 0
M  V30 1785 C 177.132 6.17381 0.569255 0
M  V30 1786 C 179.187 4.88079 0.984025 0
M  V30 1787 C 177.89 7.19282 -0.0507472 0
M  V30 1788 C 179.916 5.90191 0.377912 0
M  V30 1789 C 179.278 7.04272 -0.134216 0
M  V30 1790 H 175.377 0.659653 0.419979 0
M  V30 1791 H 177.961 1.88746 0.477818 0
M  V30 1792 H 176.132 2.5839 2.89982 0
M  V30 1793 H 177.864 2.83132 2.89168 0
M  V30 1794 H 174.619 4.43417 1.66369 0
M  V30 1795 H 175.043 6.75528 0.446123 0
M  V30 1796 H 179.685 4.00131 1.36583 0
M  V30 1797 H 177.403 8.06876 -0.444676 0
M  V30 1798 H 180.989 5.81045 0.296269 0
M  V30 1799 H 179.869 7.81933 -0.59585 0
M  V30 1800 N 177.372 -0.689602 1.41712 0
M  V30 1801 C 178.649 -1.44457 1.31877 0
M  V30 1802 C 179.029 -2.11039 -0.0508537 0
M  V30 1803 O 178.377 -2.02138 -1.06547 0
M  V30 1804 C 178.587 -2.45913 2.47645 0
M  V30 1805 C 179.935 -3.10991 2.89084 0
M  V30 1806 O 180.959 -2.56238 2.47428 0
M  V30 1807 O 179.818 -4.10174 3.61137 0
M  V30 1808 H 176.912 -0.64362 0.519309 0
M  V30 1809 H 179.458 -0.719576 1.53689 0
M  V30 1810 H 178.23 -1.95409 3.39015 0
M  V30 1811 H 177.853 -3.25913 2.27742 0
M  V30 1812 N 178.85 -1.27639 -0.924453 0
M  V30 1813 C 179.76 -1.12466 -2.05885 0
M  V30 1814 C 180.776 -0.053869 -1.73917 0
M  V30 1815 O 181.952 -0.261012 -1.99702 0
M  V30 1816 C 179.017 -0.776768 -3.37886 0
M  V30 1817 C 178.078 -1.92878 -3.83532 0
M  V30 1818 C 177.311 -1.59739 -5.09234 0
M  V30 1819 O 177.534 -0.506782 -5.68144 0
M  V30 1820 O 176.468 -2.43761 -5.50331 0
M  V30 1821 H 180.294 -2.07671 -2.21599 0
M  V30 1822 H 177.879 -1.06857 -1.04413 0
M  V30 1823 H 179.761 -0.596229 -4.17161 0
M  V30 1824 H 178.436 0.145732 -3.23372 0
M  V30 1825 H 177.343 -2.1644 -3.0513 0
M  V30 1826 H 178.676 -2.8316 -4.02593 0
M  V30 1827 N 180.328 1.1314 -1.09713 0
M  V30 1828 C 181.291 2.16831 -0.742751 0
M  V30 1829 C 182.291 1.59159 0.229129 0
M  V30 1830 O 183.481 1.74199 0.00693237 0
M  V30 1831 C 180.613 3.40756 -0.0989168 0
M  V30 1832 H 181.806 2.49695 -1.66109 0
M  V30 1833 H 179.359 1.2802 -0.896699 0
M  V30 1834 H 180.094 3.13485 0.830514 0
M  V30 1835 H 179.879 3.83888 -0.798265 0
M  V30 1836 H 181.369 4.17386 0.133524 0
M  V30 1837 N 181.806 0.884767 1.30421 0
M  V30 1838 C 182.754 0.340869 2.30089 0
M  V30 1839 C 183.748 -0.55201 1.60154 0
M  V30 1840 O 184.954 -0.436467 1.74628 0
M  V30 1841 H 181.329 0.0915739 0.746404 0
M  V30 1842 H 183.3 1.19513 2.73421 0
M  V30 1843 C 182.049 -0.429779 3.45034 0
M  V30 1844 H 181.372 0.248024 3.9903 0
M  V30 1845 H 182.812 -0.775445 4.16849 0
M  V30 1846 C 181.271 -1.62677 2.95022 0
M  V30 1847 O 181.801 -2.72614 2.95033 0
M  V30 1848 N 180.007 -1.46387 2.51036 0
M  V30 1849 H 179.554 -0.569506 2.51226 0
M  V30 1850 H 179.512 -2.26612 2.17932 0
M  V30 1851 N 183.284 -1.43765 0.645699 0
M  V30 1852 C 184.214 -2.33471 -0.0370477 0
M  V30 1853 C 185.195 -1.49042 -0.819779 0
M  V30 1854 O 186.38 -1.77726 -0.782758 0
M  V30 1855 C 183.51 -3.32311 -1.0093 0
M  V30 1856 C 182.464 -4.2667 -0.337201 0
M  V30 1857 C 181.79 -5.1549 -1.42037 0
M  V30 1858 C 183.09 -5.16657 0.765706 0
M  V30 1859 H 184.784 -2.90809 0.712069 0
M  V30 1860 H 182.33 -1.39834 0.343876 0
M  V30 1861 H 184.283 -3.9396 -1.49578 0
M  V30 1862 H 183.007 -2.73213 -1.78948 0
M  V30 1863 H 181.666 -3.66374 0.128771 0
M  V30 1864 H 181.314 -4.52735 -2.1918 0
M  V30 1865 H 181.014 -5.79438 -0.975966 0
M  V30 1866 H 182.538 -5.80012 -1.90838 0
M  V30 1867 H 183.952 -5.72158 0.361702 0
M  V30 1868 H 182.349 -5.89286 1.13413 0
M  V30 1869 H 183.419 -4.56796 1.62683 0
M  V30 1870 N 184.763 -0.387143 -1.52771 0
M  V30 1871 C 186.179 -0.037007 -1.59557 0
M  V30 1872 C 186.379 1.44801 -1.40124 0
M  V30 1873 O 185.435 2.21227 -1.21716 0
M  V30 1874 C 186.748 -0.512256 -2.96305 0
M  V30 1875 C 188.296 -0.468328 -3.09476 0
M  V30 1876 C 188.771 -0.919731 -4.4867 0
M  V30 1877 N 190.262 -0.875656 -4.54848 0
M  V30 1878 C 190.997 -1.19637 -5.6078 0
M  V30 1879 N 190.493 -1.58745 -6.74368 0
M  V30 1880 N 192.286 -1.11776 -5.50874 0
M  V30 1881 H 184.437 -1.35395 -1.63652 0
M  V30 1882 H 186.7 -0.554818 -0.768688 0
M  V30 1883 H 186.406 -1.54935 -3.15734 0
M  V30 1884 H 186.28 0.089805 -3.77093 0
M  V30 1885 H 188.667 0.559671 -2.89744 0
M  V30 1886 H 188.748 -1.10616 -2.30646 0
M  V30 1887 H 188.392 -1.94595 -4.69143 0
M  V30 1888 H 188.322 -0.258927 -5.25963 0
M  V30 1889 H 190.813 -0.587843 -3.733 0
M  V30 1890 H 191.126 -1.81586 -7.51163 0
M  V30 1891 H 189.471 -1.6263 -6.75705 0
M  V30 1892 H 192.662 -0.811264 -4.61016 0
M  V30 1893 H 192.835 -1.37103 -6.3333 0
M  V30 1894 N 186.241 1.57166 -0.116904 0
M  V30 1895 C 187.204 2.14039 0.819742 0
M  V30 1896 C 188.204 1.07477 1.19605 0
M  V30 1897 O 189.394 1.33263 1.1219 0
M  V30 1898 C 186.526 2.67891 2.10826 0
M  V30 1899 H 187.719 2.98128 0.325511 0
M  V30 1900 H 185.272 1.55739 0.132312 0
M  V30 1901 H 186.007 1.87384 2.64685 0
M  V30 1902 H 185.792 3.45823 1.84793 0
M  V30 1903 H 187.282 3.11809 2.77785 0
M  V30 1904 N 187.719 -0.156864 1.56817 0
M  V30 1905 C 188.651 -1.21883 1.94106 0
M  V30 1906 C 189.664 -1.3971 0.835754 0
M  V30 1907 O 190.853 -1.39457 1.11418 0
M  V30 1908 C 187.953 -2.58527 2.19127 0
M  V30 1909 C 187.126 -2.61809 3.50393 0
M  V30 1910 C 186.185 -3.7992 3.64071 0
M  V30 1911 O 185.211 -3.65249 4.36557 0
M  V30 1912 N 186.413 -4.96973 2.99997 0
M  V30 1913 H 189.178 -0.901974 2.85805 0
M  V30 1914 H 186.739 -0.346513 1.58148 0
M  V30 1915 H 188.731 -3.36034 2.25529 0
M  V30 1916 H 187.301 -2.82545 1.33742 0
M  V30 1917 H 186.521 -1.7029 3.5552 0
M  V30 1918 H 187.809 -2.61024 4.36742 0
M  V30 1919 H 187.207 -5.11794 2.41004 0
M  V30 1920 H 185.764 -5.7229 3.11974 0
M  V30 1921 N 189.197 -1.51736 -0.425897 0
M  V30 1922 C 190.107 -1.76738 -1.54275 0
M  V30 1923 C 191.123 -0.65211 -1.61318 0
M  V30 1924 O 192.299 -0.935654 -1.78346 0
M  V30 1925 C 189.364 -1.89755 -2.90162 0
M  V30 1926 C 188.425 -3.13633 -2.93143 0
M  V30 1927 C 187.658 -3.2602 -4.22548 0
M  V30 1928 O 187.881 -2.44067 -5.15546 0
M  V30 1929 O 186.815 -4.19071 -4.32046 0
M  V30 1930 H 190.641 -2.71502 -1.36089 0
M  V30 1931 H 188.226 -1.36376 -0.610069 0
M  V30 1932 H 190.108 -2.00236 -3.70788 0
M  V30 1933 H 188.783 -0.981785 -3.08452 0
M  V30 1934 H 187.69 -3.08622 -2.11431 0
M  V30 1935 H 189.023 -4.04936 -2.798 0
M  V30 1936 N 190.675 0.682077 -1.42076 0
M  V30 1937 C 191.605 1.80796 -1.47767 0
M  V30 1938 C 192.586 1.6677 -0.334954 0
M  V30 1939 O 193.771 1.863 -0.548264 0
M  V30 1940 C 190.901 3.19038 -1.37229 0
M  V30 1941 C 189.855 3.47789 -2.49453 0
M  V30 1942 C 189.181 4.8553 -2.23975 0
M  V30 1943 C 190.481 3.45411 -3.91776 0
M  V30 1944 H 192.175 1.7629 -2.41997 0
M  V30 1945 H 189.721 0.846721 -1.16476 0
M  V30 1946 H 191.674 3.97528 -1.39821 0
M  V30 1947 H 190.398 3.24204 -0.394907 0
M  V30 1948 H 189.057 2.71657 -2.46166 0
M  V30 1949 H 188.705 4.87337 -1.24547 0
M  V30 1950 H 188.405 5.0573 -2.99184 0
M  V30 1951 H 189.929 5.66312 -2.28304 0
M  V30 1952 H 191.343 4.13882 -3.96705 0
M  V30 1953 H 189.74 3.77145 -4.66778 0
M  V30 1954 H 190.81 2.44122 -4.18966 0
M  V30 1955 N 192.153 1.28127 0.917671 0
M  V30 1956 C 193.116 1.11744 2.00115 0
M  V30 1957 C 194.116 0.0583052 1.60694 0
M  V30 1958 O 195.306 0.303755 1.71531 0
M  V30 1959 C 192.438 0.704862 3.33533 0
M  V30 1960 H 193.631 2.07966 2.16079 0
M  V30 1961 H 191.184 1.11058 1.09981 0
M  V30 1962 H 191.919 -0.258299 3.2327 0
M  V30 1963 H 191.704 1.4699 3.63505 0
M  V30 1964 H 193.194 0.612768 4.1308 0
M  V30 1965 N 193.631 -1.12557 1.10312 0
M  V30 1966 C 194.578 -2.18247 0.750781 0
M  V30 1967 C 195.548 -1.63853 -0.272293 0
M  V30 1968 O 196.733 -1.90195 -0.151862 0
M  V30 1969 C 193.873 -3.44591 0.187379 0
M  V30 1970 C 192.986 -4.13046 1.2656 0
M  V30 1971 C 192.121 -5.27034 0.663978 0
M  V30 1972 C 191.16 -5.87353 1.72287 0
M  V30 1973 N 190.297 -6.92757 1.1416 0
M  V30 1974 H 195.137 -2.47732 1.65628 0
M  V30 1975 H 192.674 -1.21629 0.827337 0
M  V30 1976 H 194.632 -4.16904 -0.157148 0
M  V30 1977 H 193.262 -3.15527 -0.681355 0
M  V30 1978 H 192.314 -3.38924 1.72727 0
M  V30 1979 H 193.626 -4.53947 2.06721 0
M  V30 1980 H 192.78 -6.06104 0.268824 0
M  V30 1981 H 191.519 -4.87407 -0.169082 0
M  V30 1982 H 190.524 -5.06971 2.12746 0
M  V30 1983 H 191.749 -6.29051 2.55875 0
M  V30 1984 H 189.695 -6.5517 0.329984 0
M  V30 1985 H 189.612 -7.3225 1.88007 0
M  V30 1986 H 190.88 -7.75658 0.772956 0
M  V30 1987 N 195.109 -0.891671 -1.2995 0
M  V30 1988 C 196.525 -0.58662 -1.48428 0
M  V30 1989 C 196.725 0.873951 -1.81561 0
M  V30 1990 O 195.781 1.65471 -1.90724 0
M  V30 1991 C 197.094 -1.50553 -2.60296 0
M  V30 1992 C 198.642 -1.50988 -2.74175 0
M  V30 1993 C 199.117 -2.41488 -3.89163 0
M  V30 1994 N 200.608 -2.39489 -3.96483 0
M  V30 1995 C 201.343 -3.06223 -4.84784 0
M  V30 1996 N 200.839 -3.82206 -5.77833 0
M  V30 1997 N 202.632 -2.95421 -4.78208 0
M  V30 1998 H 194.783 -1.83644 -1.06718 0
M  V30 1999 H 197.046 -0.786455 -0.529332 0
M  V30 2000 H 196.752 -2.54581 -2.42654 0
M  V30 2001 H 196.626 -1.22008 -3.56923 0
M  V30 2002 H 199.013 -0.47708 -2.91218 0
M  V30 2003 H 199.094 -1.83567 -1.78148 0
M  V30 2004 H 198.738 -3.44857 -3.72876 0
M  V30 2005 H 198.668 -2.06222 -4.84541 0
M  V30 2006 H 201.159 -1.84278 -3.29924 0
M  V30 2007 H 201.472 -4.302 -6.41988 0
M  V30 2008 H 199.817 -3.86313 -5.77743 0
M  V30 2009 H 203.008 -2.35581 -4.04499 0
M  V30 2010 H 203.181 -3.47704 -5.46814 0
M  V30 2011 N 196.587 1.43421 -0.653314 0
M  V30 2012 C 197.864 1.95361 -0.0966581 0
M  V30 2013 C 198.244 1.59461 1.38331 0
M  V30 2014 O 197.592 0.879777 2.10884 0
M  V30 2015 C 197.802 3.47311 -0.342988 0
M  V30 2016 C 199.15 4.23875 -0.24798 0
M  V30 2017 O 200.174 3.55133 -0.275553 0
M  V30 2018 O 199.033 5.4623 -0.171771 0
M  V30 2019 H 196.127 0.826945 0.00956291 0
M  V30 2020 H 198.673 1.5336 -0.726558 0
M  V30 2021 H 197.445 3.66569 -1.36906 0
M  V30 2022 H 197.068 3.9631 0.319975 0
M  V30 2023 N 198.065 0.39524 1.52563 0
M  V30 2024 C 199.313 -0.184678 2.01254 0
M  V30 2025 C 199.634 -1.46822 1.28329 0
M  V30 2026 O 198.904 -1.91666 0.405094 0
M  V30 2027 H 197.484 -0.0712355 0.743596 0
M  V30 2028 H 200.146 0.528293 1.87603 0
M  V30 2029 H 199.242 -0.390681 3.09645 0
M  V30 2030 N 199.544 -1.57102 0.125237 0
M  V30 2031 C 200.79 -1.96488 -0.525753 0
M  V30 2032 C 201.145 -1.00786 -1.6389 0
M  V30 2033 O 200.438 -0.038979 -1.9156 0
M  V30 2034 C 200.632 -3.40096 -1.09862 0
M  V30 2035 C 200.461 -4.4968 -0.0425004 0
M  V30 2036 C 199.231 -5.03781 0.391463 0
M  V30 2037 C 201.429 -5.08936 0.740829 0
M  V30 2038 N 199.411 -5.96948 1.4327 0
M  V30 2039 C 200.782 -5.98105 1.6331 0
M  V30 2040 C 202.837 -4.91576 0.791029 0
M  V30 2041 C 201.54 -6.71774 2.57122 0
M  V30 2042 C 203.566 -5.6593 1.71688 0
M  V30 2043 C 202.928 -6.5479 2.59672 0
M  V30 2044 H 199.027 -0.765072 -0.161831 0
M  V30 2045 H 201.611 -1.93511 0.214801 0
M  V30 2046 H 199.782 -3.43707 -1.80887 0
M  V30 2047 H 201.514 -3.66591 -1.71444 0
M  V30 2048 H 198.269 -4.736 -0.00213584 0
M  V30 2049 H 198.693 -6.48236 1.95243 0
M  V30 2050 H 203.335 -4.22615 0.124915 0
M  V30 2051 H 201.053 -7.39977 3.24744 0
M  V30 2052 H 204.639 -5.54501 1.76125 0
M  V30 2053 H 203.519 -7.11316 3.30149 0
M  V30 2054 N 201.022 0.148545 -1.56898 0
M  V30 2055 C 201.932 1.20293 -2.01412 0
M  V30 2056 C 202.948 1.47107 -0.929273 0
M  V30 2057 O 204.124 1.58807 -1.23863 0
M  V30 2058 C 201.189 2.51682 -2.38447 0
M  V30 2059 C 200.25 2.32529 -3.60872 0
M  V30 2060 C 199.483 3.57653 -3.96132 0
M  V30 2061 O 199.706 4.63771 -3.32073 0
M  V30 2062 O 198.64 3.50408 -4.89385 0
M  V30 2063 H 202.466 0.855025 -2.91416 0
M  V30 2064 H 200.051 0.357151 -1.45068 0
M  V30 2065 H 201.933 3.29147 -2.63135 0
M  V30 2066 H 200.608 2.86006 -1.51599 0
M  V30 2067 H 199.515 1.53019 -3.41373 0
M  V30 2068 H 200.848 2.03121 -4.48333 0
M  V30 2069 N 202.5 1.5196 0.417844 0
M  V30 2070 C 203.448 1.75278 1.52907 0
M  V30 2071 C 204.442 0.619611 1.57662 0
M  V30 2072 O 205.648 0.801457 1.61173 0
M  V30 2073 H 202.023 0.554141 0.508362 0
M  V30 2074 H 203.994 2.68389 1.30422 0
M  V30 2075 C 202.743 1.91262 2.90369 0
M  V30 2076 H 202.066 2.77872 2.8745 0
M  V30 2077 H 203.506 2.11581 3.67436 0
M  V30 2078 C 201.965 0.677431 3.30019 0
M  V30 2079 O 202.495 -0.158799 4.01386 0
M  V30 2080 N 200.701 0.515851 2.85985 0
M  V30 2081 H 200.248 1.19744 2.28077 0
M  V30 2082 H 200.206 -0.309315 3.12875 0
M  V30 2083 N 203.978 -0.674533 1.42435 0
M  V30 2084 C 205.224 -1.43671 1.43131 0
M  V30 2085 C 205.557 -1.94142 0.0476021 0
M  V30 2086 O 204.832 -1.70924 -0.928188 0
M  V30 2087 C 205.115 -2.63355 2.45594 0
M  V30 2088 C 204.968 -2.18514 3.93156 0
M  V30 2089 C 206.287 -3.65571 2.45043 0
M  V30 2090 H 203.406 -0.521077 0.521198 0
M  V30 2091 H 206.048 -0.766551 1.7385 0
M  V30 2092 H 204.198 -3.2053 2.19528 0
M  V30 2093 H 205.87 -1.66504 4.30202 0
M  V30 2094 H 204.113 -1.50086 4.07009 0
M  V30 2095 H 204.784 -3.04484 4.60428 0
M  V30 2096 H 207.26 -3.18113 2.68223 0
M  V30 2097 H 206.136 -4.46893 3.18713 0
M  V30 2098 H 206.397 -4.16716 1.47649 0
M  V30 2099 N 205.456 -1.28612 -0.910864 0
M  V30 2100 C 206.867 -1.14406 -1.47541 0
M  V30 2101 C 207.218 0.264901 -1.94403 0
M  V30 2102 O 206.343 1.15942 -1.82719 0
M  V30 2103 C 206.938 -2.07073 -2.68153 0
M  V30 2104 C 205.497 -1.96923 -3.20778 0
M  V30 2105 C 204.644 -1.98646 -1.93481 0
M  V30 2106 H 207.595 -1.41259 -0.723291 0
M  V30 2107 H 207.616 -1.63642 -3.43514 0
M  V30 2108 H 207.128 -3.09611 -2.34015 0
M  V30 2109 H 205.229 -0.97433 -3.59635 0
M  V30 2110 H 205.342 -2.84026 -3.85832 0
M  V30 2111 H 203.706 -1.43093 -2.10705 0
M  V30 2112 H 204.489 -3.02868 -1.61634 0
M  V30 2113 N 206.934 1.1197 -1.10907 0
M  V30 2114 C 208.345 1.65114 -0.871446 0
M  V30 2115 C 208.696 1.86885 0.597353 0
M  V30 2116 O 207.821 1.59896 1.45816 0
M  V30 2117 C 208.416 2.99944 -1.5754 0
M  V30 2118 C 206.975 3.50018 -1.38435 0
M  V30 2119 C 206.122 2.24941 -1.62164 0
M  V30 2120 H 209.073 0.956851 -1.2661 0
M  V30 2121 H 209.094 3.66651 -1.01721 0
M  V30 2122 H 208.606 2.84067 -2.64438 0
M  V30 2123 H 206.707 3.71071 -0.337214 0
M  V30 2124 H 206.82 4.29165 -2.12965 0
M  V30 2125 H 205.184 2.3229 -1.04467 0
M  V30 2126 H 205.967 2.11612 -2.70324 0
M  V30 2127 N 208.412 0.89855 1.29475 0
M  V30 2128 C 209.659 0.523882 1.95606 0
M  V30 2129 C 209.987 -0.929608 1.70847 0
M  V30 2130 O 209.242 -1.67401 1.01367 0
M  V30 2131 C 209.541 0.761398 3.49195 0
M  V30 2132 C 209.207 2.19207 3.94029 0
M  V30 2133 C 207.869 2.58326 4.05982 0
M  V30 2134 C 210.221 3.12379 4.17216 0
M  V30 2135 C 207.549 3.898 4.38489 0
M  V30 2136 C 209.901 4.43401 4.51197 0
M  V30 2137 C 208.565 4.82394 4.61359 0
M  V30 2138 H 207.835 0.191702 0.715773 0
M  V30 2139 H 210.482 1.13699 1.54094 0
M  V30 2140 H 208.787 0.0653622 3.91745 0
M  V30 2141 H 210.484 0.450904 3.98457 0
M  V30 2142 H 207.074 1.87846 3.85242 0
M  V30 2143 H 211.258 2.83371 4.07449 0
M  V30 2144 H 206.514 4.19734 4.44559 0
M  V30 2145 H 210.688 5.15623 4.68087 0
M  V30 2146 H 208.315 5.84306 4.86303 0
M  V30 2147 N 209.89 -1.43072 0.660911 0
M  V30 2148 C 211.167 -1.95307 0.107017 0
M  V30 2149 C 211.547 -1.60192 -1.37484 0
M  V30 2150 O 210.895 -0.890949 -2.10415 0
M  V30 2151 C 211.105 -3.47124 0.361402 0
M  V30 2152 C 212.453 -4.23738 0.270455 0
M  V30 2153 O 213.477 -3.54981 0.294382 0
M  V30 2154 O 212.336 -5.46131 0.200737 0
M  V30 2155 H 209.43 -0.826984 -0.00517729 0
M  V30 2156 H 211.976 -1.52972 0.734681 0
M  V30 2157 H 210.748 -3.65837 1.38848 0
M  V30 2158 H 210.371 -3.96475 -0.298953 0
M  V30 2159 N 211.368 -0.403325 -1.52352 0
M  V30 2160 C 212.318 0.442244 -2.2367 0
M  V30 2161 C 213.302 1.01823 -1.24583 0
M  V30 2162 O 214.494 0.942005 -1.49851 0
M  V30 2163 C 211.623 1.5615 -3.05732 0
M  V30 2164 C 210.709 0.996575 -4.12225 0
M  V30 2165 N 211.1 0.157804 -5.05554 0
M  V30 2166 C 209.398 1.26767 -4.27605 0
M  V30 2167 C 210.099 -0.155853 -5.81491 0
M  V30 2168 N 209.075 0.451775 -5.41719 0
M  V30 2169 H 212.877 -0.204964 -2.93184 0
M  V30 2170 H 210.391 -0.213418 -1.60992 0
M  V30 2171 H 212.388 2.17981 -3.55373 0
M  V30 2172 H 211.048 2.21139 -2.37755 0
M  V30 2173 H 212.059 -0.206049 -5.1749 0
M  V30 2174 H 208.736 1.91757 -3.70858 0
M  V30 2175 H 210.126 -0.836329 -6.66675 0
M  V30 2176 N 212.846 1.57033 -0.133567 0
M  V30 2177 C 214.257 1.82593 0.389464 0
M  V30 2178 C 214.608 1.05156 1.6564 0
M  V30 2179 O 213.733 0.292644 2.14412 0
M  V30 2180 C 214.328 3.31204 0.713377 0
M  V30 2181 C 212.887 3.57393 1.18098 0
M  V30 2182 C 212.034 2.76598 0.197126 0
M  V30 2183 H 214.985 1.54598 -0.358481 0
M  V30 2184 H 215.006 3.46627 1.56939 0
M  V30 2185 H 214.518 3.87537 -0.2089 0
M  V30 2186 H 212.619 3.06433 2.11966 0
M  V30 2187 H 212.732 4.65915 1.11624 0
M  V30 2188 H 211.096 2.45257 0.687088 0
M  V30 2189 H 211.879 3.35697 -0.718504 0
M  V30 2190 N 214.325 -0.140222 1.56975 0
M  V30 2191 C 215.255 -1.17456 2.01808 0
M  V30 2192 C 216.236 -1.44415 0.898794 0
M  V30 2193 O 217.421 -1.5522 1.16707 0
M  V30 2194 C 214.551 -2.50607 2.40444 0
M  V30 2195 C 213.505 -2.38155 3.55621 0
M  V30 2196 C 212.831 -3.76078 3.80091 0
M  V30 2197 C 214.131 -1.85991 4.88062 0
M  V30 2198 H 215.825 -0.801743 2.88466 0
M  V30 2199 H 213.371 -0.38422 1.38779 0
M  V30 2200 H 215.324 -3.23197 2.7041 0
M  V30 2201 H 214.048 -2.89737 1.50732 0
M  V30 2202 H 212.707 -1.68016 3.25832 0
M  V30 2203 H 212.355 -4.12656 2.87618 0
M  V30 2204 H 212.055 -3.68606 4.57606 0
M  V30 2205 H 213.579 -4.50206 4.12488 0
M  V30 2206 H 214.993 -2.4838 5.16701 0
M  V30 2207 H 213.39 -1.89393 5.6943 0
M  V30 2208 H 214.46 -0.816023 4.77984 0
M  V30 2209 N 215.803 -1.52179 -0.40978 0
M  V30 2210 C 217.052 -1.65434 -1.15388 0
M  V30 2211 C 217.365 -0.390056 -1.91671 0
M  V30 2212 O 218.571 -0.402399 -2.68501 0
M  V30 2213 C 217.027 -2.92279 -2.10003 0
M  V30 2214 C 216.635 -4.25813 -1.39239 0
M  V30 2215 C 218.379 -3.14897 -2.84675 0
M  V30 2216 C 216.286 -5.43782 -2.32498 0
M  V30 2217 H 215.216 -0.616267 -0.434432 0
M  V30 2218 H 217.867 -1.78666 -0.418401 0
M  V30 2219 H 216.249 -2.72744 -2.871 0
M  V30 2220 H 217.423 -4.55828 -0.675099 0
M  V30 2221 H 215.738 -4.09292 -0.766097 0
M  V30 2222 H 218.335 -4.0021 -3.54593 0
M  V30 2223 H 218.678 -2.29103 -3.47588 0
M  V30 2224 H 219.211 -3.34901 -2.14677 0
M  V30 2225 H 215.95 -6.3192 -1.74233 0
M  V30 2226 H 215.47 -5.18106 -3.02201 0
M  V30 2227 H 217.149 -5.76834 -2.93038 0
M  V30 2228 N 217.281 0.66697 -1.42791 0
M  V30 2229 C 218.527 1.42754 -1.44889 0
M  V30 2230 C 218.882 1.92283 -0.0669755 0
M  V30 2231 O 218.175 1.68494 0.912154 0
M  V30 2232 C 218.369 2.6349 -2.4147 0
M  V30 2233 C 218.198 2.25776 -3.88915 0
M  V30 2234 C 216.968 2.1476 -4.57391 0
M  V30 2235 C 219.166 1.86927 -4.79127 0
M  V30 2236 N 217.148 1.70232 -5.89826 0
M  V30 2237 C 218.519 1.53378 -6.00729 0
M  V30 2238 C 220.574 1.73989 -4.66511 0
M  V30 2239 C 219.277 1.08187 -7.11117 0
M  V30 2240 C 221.303 1.30203 -5.76889 0
M  V30 2241 C 220.665 0.975818 -6.97608 0
M  V30 2242 H 216.764 0.518559 -0.585338 0
M  V30 2243 H 219.348 0.768906 -1.78874 0
M  V30 2244 H 217.519 3.27033 -2.09533 0
M  V30 2245 H 219.251 3.30123 -2.34096 0
M  V30 2246 H 216.006 2.3408 -4.11708 0
M  V30 2247 H 216.43 1.50369 -6.6009 0
M  V30 2248 H 221.072 1.97853 -3.7365 0
M  V30 2249 H 218.79 0.830701 -8.03819 0
M  V30 2250 H 222.376 1.20701 -5.69142 0
M  V30 2251 H 221.256 0.642157 -7.81566 0
M  V30 2252 N 218.759 1.29093 0.90403 0
M  V30 2253 C 219.706 1.13853 2.00764 0
M  V30 2254 C 220.676 0.0330084 1.66067 0
M  V30 2255 O 221.861 0.199733 1.89752 0
M  V30 2256 C 219.001 0.816537 3.35301 0
M  V30 2257 C 218.114 2.00206 3.82807 0
M  V30 2258 C 217.249 1.61983 5.059 0
M  V30 2259 C 216.288 2.77143 5.45764 0
M  V30 2260 N 215.425 2.39346 6.60044 0
M  V30 2261 H 220.265 2.08276 2.13132 0
M  V30 2262 H 217.802 1.03648 1.04381 0
M  V30 2263 H 219.76 0.610557 4.12708 0
M  V30 2264 H 218.39 -0.090779 3.22672 0
M  V30 2265 H 217.442 2.31988 3.01473 0
M  V30 2266 H 218.754 2.86512 4.08304 0
M  V30 2267 H 217.908 1.37649 5.90879 0
M  V30 2268 H 216.647 0.728202 4.82233 0
M  V30 2269 H 215.652 3.02165 4.59322 0
M  V30 2270 H 216.877 3.66964 5.71414 0
M  V30 2271 H 214.823 1.52665 6.37989 0
M  V30 2272 H 214.74 3.19185 6.85315 0
M  V30 2273 H 216.008 2.1832 7.48303 0
M  V30 2274 N 220.237 -1.11381 1.11499 0
M  V30 2275 C 221.485 -1.8277 0.862524 0
M  V30 2276 C 221.806 -1.85097 -0.613534 0
M  V30 2277 O 221.076 -1.32198 -1.4457 0
M  V30 2278 H 219.656 -0.676823 0.316101 0
M  V30 2279 H 222.318 -1.34816 1.4075 0
M  V30 2280 H 221.414 -2.86614 1.23527 0
M  V30 2281 N 221.715 -0.905404 -1.28997 0
M  V30 2282 C 222.665 -0.358713 -2.25161 0
M  V30 2283 C 223.649 0.524449 -1.52113 0
M  V30 2284 O 224.841 0.365534 -1.73184 0
M  V30 2285 C 221.97 0.407609 -3.40872 0
M  V30 2286 C 221.056 -0.490797 -4.21251 0
M  V30 2287 N 221.447 -1.60061 -4.79806 0
M  V30 2288 C 219.745 -0.289636 -4.45059 0
M  V30 2289 C 220.446 -2.15757 -5.40207 0
M  V30 2290 N 219.422 -1.44988 -5.23908 0
M  V30 2291 H 223.224 -1.20642 -2.67998 0
M  V30 2292 H 220.738 -0.757103 -1.43672 0
M  V30 2293 H 222.735 0.816046 -4.08835 0
M  V30 2294 H 221.395 1.25251 -2.9957 0
M  V30 2295 H 222.406 -1.98329 -4.7842 0
M  V30 2296 H 219.083 0.51643 -4.14294 0
M  V30 2297 H 220.473 -3.09069 -5.96595 0
M  V30 2298 N 223.193 1.4272 -0.668489 0
M  V30 2299 C 224.156 2.292 0.00448567 0
M  V30 2300 C 225.156 1.43001 0.735339 0
M  V30 2301 O 226.346 1.64461 0.57429 0
M  V30 2302 C 223.478 3.25375 1.01705 0
M  V30 2303 H 224.671 2.90199 -0.756608 0
M  V30 2304 H 222.224 1.50254 -0.430506 0
M  V30 2305 H 222.959 2.69301 1.80686 0
M  V30 2306 H 222.744 3.88944 0.496463 0
M  V30 2307 H 224.234 3.90245 1.48655 0
M  V30 2308 N 224.671 0.411399 1.52136 0
M  V30 2309 C 225.896 -0.165538 2.06738 0
M  V30 2310 C 226.321 -1.379 1.27926 0
M  V30 2311 O 225.679 -1.78628 0.310114 0
M  V30 2312 C 225.727 -0.492124 3.57226 0
M  V30 2313 O 224.831 -1.58276 3.80818 0
M  V30 2314 H 224.172 -0.0132132 0.663869 0
M  V30 2315 H 226.702 0.585253 1.96051 0
M  V30 2316 H 226.712 -0.750104 4.01045 0
M  V30 2317 H 225.387 0.394922 4.14021 0
M  V30 2318 H 223.964 -1.31677 3.48877 0
M  V30 2319 N 226.149 -1.5696 0.141893 0
M  V30 2320 C 227.079 -2.19516 -0.795936 0
M  V30 2321 C 228.06 -1.14187 -1.26077 0
M  V30 2322 O 229.245 -1.42511 -1.31925 0
M  V30 2323 C 226.375 -2.81272 -2.03723 0
M  V30 2324 C 225.329 -3.92384 -1.70936 0
M  V30 2325 C 224.655 -4.41052 -3.02287 0
M  V30 2326 C 225.955 -5.13403 -0.959954 0
M  V30 2327 H 227.649 -2.98138 -0.274596 0
M  V30 2328 H 225.195 -1.43406 -0.130636 0
M  V30 2329 H 227.148 -3.237 -2.69808 0
M  V30 2330 H 225.872 -1.99973 -2.58221 0
M  V30 2331 H 224.531 -3.50566 -1.07232 0
M  V30 2332 H 224.179 -3.56582 -3.54765 0
M  V30 2333 H 223.879 -5.15993 -2.81114 0
M  V30 2334 H 225.403 -4.86146 -3.69451 0
M  V30 2335 H 226.817 -5.52706 -1.52279 0
M  V30 2336 H 225.214 -5.94073 -0.848357 0
M  V30 2337 H 226.284 -4.84875 0.0492434 0
M  V30 2338 N 227.627 0.131896 -1.57047 0
M  V30 2339 C 228.873 0.843179 -1.84441 0
M  V30 2340 C 229.206 1.80129 -0.725749 0
M  V30 2341 O 228.481 1.92624 0.269469 0
M  V30 2342 C 228.764 1.60442 -3.22382 0
M  V30 2343 C 228.617 0.666782 -4.4483 0
M  V30 2344 C 229.936 2.56354 -3.5773 0
M  V30 2345 H 227.055 0.305081 -0.670891 0
M  V30 2346 H 229.697 0.107839 -1.89694 0
M  V30 2347 H 227.847 2.23128 -3.18035 0
M  V30 2348 H 229.519 0.0497646 -4.61273 0
M  V30 2349 H 227.762 -0.022609 -4.33794 0
M  V30 2350 H 228.433 1.23579 -5.37989 0
M  V30 2351 H 230.909 2.0378 -3.62785 0
M  V30 2352 H 229.785 3.06657 -4.5525 0
M  V30 2353 H 230.046 3.38419 -2.84473 0
M  V30 2354 N 229.106 1.52395 0.401703 0
M  V30 2355 C 230.038 1.72505 1.50912 0
M  V30 2356 C 231.051 0.605468 1.51122 0
M  V30 2357 O 232.24 0.880828 1.55254 0
M  V30 2358 C 229.34 1.75711 2.89791 0
M  V30 2359 C 228.513 3.04824 3.1369 0
M  V30 2360 C 227.572 2.99743 4.32482 0
M  V30 2361 O 226.598 3.73635 4.29402 0
M  V30 2362 N 227.8 2.18047 5.37992 0
M  V30 2363 H 230.565 2.68049 1.34052 0
M  V30 2364 H 228.126 1.50724 0.591084 0
M  V30 2365 H 230.118 1.69834 3.6734 0
M  V30 2366 H 228.688 0.876092 3.00072 0
M  V30 2367 H 227.908 3.2429 2.24119 0
M  V30 2368 H 229.196 3.90221 3.26504 0
M  V30 2369 H 228.594 1.57456 5.43345 0
M  V30 2370 H 227.151 2.18021 6.14256 0
M  V30 2371 N 230.584 -0.659388 1.43143 0
M  V30 2372 C 231.494 -1.80167 1.50256 0
M  V30 2373 C 232.51 -1.69571 0.390106 0
M  V30 2374 O 233.686 -1.90849 0.643319 0
M  V30 2375 C 230.751 -3.16409 1.41725 0
M  V30 2376 C 229.812 -3.38848 2.63591 0
M  V30 2377 C 229.045 -4.68591 2.55458 0
M  V30 2378 O 229.268 -5.47532 1.59891 0
M  V30 2379 O 228.202 -4.92614 3.45854 0
M  V30 2380 H 232.028 -1.77121 2.46702 0
M  V30 2381 H 229.613 -0.817092 1.25076 0
M  V30 2382 H 231.495 -3.9768 1.39387 0
M  V30 2383 H 230.17 -3.20059 0.484118 0
M  V30 2384 H 229.077 -2.57366 2.71502 0
M  V30 2385 H 230.41 -3.4004 3.55856 0
M  V30 2386 N 232.062 -1.29571 -0.897171 0
M  V30 2387 C 232.992 -1.17473 -2.01798 0
M  V30 2388 C 233.973 -0.068323 -1.69963 0
M  V30 2389 O 235.158 -0.248239 -1.92607 0
M  V30 2390 C 232.288 -0.853099 -3.36659 0
M  V30 2391 C 231.242 -1.9161 -3.82713 0
M  V30 2392 C 230.568 -1.44773 -5.14728 0
M  V30 2393 C 231.868 -3.32535 -4.02763 0
M  V30 2394 H 233.562 -2.11237 -2.12177 0
M  V30 2395 H 231.108 -1.01699 -1.01948 0
M  V30 2396 H 233.061 -0.755165 -4.14578 0
M  V30 2397 H 231.785 0.120236 -3.26379 0
M  V30 2398 H 230.444 -2.00346 -3.07013 0
M  V30 2399 H 230.092 -0.462995 -5.00865 0
M  V30 2400 H 229.792 -2.15865 -5.46513 0
M  V30 2401 H 231.316 -1.36334 -5.95185 0
M  V30 2402 H 232.73 -3.26626 -4.71156 0
M  V30 2403 H 231.127 -4.01607 -4.45905 0
M  V30 2404 H 232.197 -3.75326 -3.07016 0
M  V30 2405 N 233.54 1.10788 -1.12088 0
M  V30 2406 C 234.487 2.17025 -0.785407 0
M  V30 2407 C 235.457 1.64265 0.246191 0
M  V30 2408 O 236.642 1.90412 0.121584 0
M  V30 2409 C 233.782 3.44249 -0.242177 0
M  V30 2410 C 232.895 4.1098 -1.33115 0
M  V30 2411 C 232.03 5.25911 -0.747741 0
M  V30 2412 C 231.069 5.84538 -1.81609 0
M  V30 2413 N 230.206 6.90853 -1.25167 0
M  V30 2414 H 235.046 2.45066 -1.69548 0
M  V30 2415 H 232.583 1.20297 -0.846582 0
M  V30 2416 H 234.541 4.17101 0.0908026 0
M  V30 2417 H 233.171 3.16571 0.631072 0
M  V30 2418 H 232.223 3.36133 -1.78097 0
M  V30 2419 H 233.535 4.50601 -2.13917 0
M  V30 2420 H 232.689 6.056 -0.365216 0
M  V30 2421 H 231.428 4.87614 0.0915188 0
M  V30 2422 H 230.433 5.03522 -2.20785 0
M  V30 2423 H 231.658 6.249 -2.6585 0
M  V30 2424 H 229.604 6.54562 -0.434174 0
M  V30 2425 H 229.521 7.29166 -1.99633 0
M  V30 2426 H 230.789 7.7433 -0.896259 0
M  V30 2427 N 235.018 0.912232 1.28515 0
M  V30 2428 C 235.981 0.404223 2.25607 0
M  V30 2429 C 236.981 -0.468602 1.53821 0
M  V30 2430 O 238.171 -0.271873 1.72065 0
M  V30 2431 C 235.303 -0.420653 3.38295 0
M  V30 2432 H 236.496 1.26188 2.7206 0
M  V30 2433 H 234.049 0.691495 1.40171 0
M  V30 2434 H 234.784 -1.29777 2.97201 0
M  V30 2435 H 234.569 0.204935 3.91564 0
M  V30 2436 H 236.059 -0.766971 4.10496 0
M  V30 2437 N 236.496 -1.42363 0.676048 0
M  V30 2438 C 237.742 -2.0182 0.199125 0
M  V30 2439 C 238.075 -1.53339 -1.19168 0
M  V30 2440 O 237.35 -0.736124 -1.80032 0
M  V30 2441 C 237.633 -3.59331 0.235144 0
M  V30 2442 C 237.486 -4.17989 1.66149 0
M  V30 2443 C 238.805 -4.3813 -0.41595 0
M  V30 2444 H 235.924 -0.733293 0.0738311 0
M  V30 2445 H 238.566 -1.69368 0.86107 0
M  V30 2446 H 236.716 -3.87109 -0.328487 0
M  V30 2447 H 238.388 -4.0116 2.27747 0
M  V30 2448 H 236.631 -3.7377 2.20178 0
M  V30 2449 H 237.302 -5.27126 1.63837 0
M  V30 2450 H 239.778 -4.16051 0.0638529 0
M  V30 2451 H 238.654 -5.47717 -0.360115 0
M  V30 2452 H 238.915 -4.16101 -1.49373 0
M  V30 2453 N 237.974 -0.419461 -1.51915 0
M  V30 2454 C 238.904 0.391813 -2.30189 0
M  V30 2455 C 239.885 1.03699 -1.34836 0
M  V30 2456 O 241.07 1.04403 -1.63748 0
M  V30 2457 C 238.2 1.50312 -3.13087 0
M  V30 2458 C 237.154 0.9824 -4.16573 0
M  V30 2459 C 236.48 2.18809 -4.8788 0
M  V30 2460 C 237.78 0.0292356 -5.22292 0
M  V30 2461 H 239.474 -0.26135 -2.98257 0
M  V30 2462 H 237.02 -0.127134 -1.43438 0
M  V30 2463 H 238.973 2.07773 -3.66617 0
M  V30 2464 H 237.697 2.18431 -2.42807 0
M  V30 2465 H 236.356 0.430119 -3.64068 0
M  V30 2466 H 236.004 2.85507 -4.14119 0
M  V30 2467 H 235.704 1.84615 -5.57845 0
M  V30 2468 H 237.228 2.76858 -5.44226 0
M  V30 2469 H 238.642 0.512976 -5.71 0
M  V30 2470 H 237.039 -0.2244 -5.9968 0
M  V30 2471 H 238.109 -0.912931 -4.76228 0
M  V30 2472 N 239.452 1.56882 -0.150215 0
M  V30 2473 C 240.868 1.58263 0.20617 0
M  V30 2474 C 241.068 1.16464 1.64434 0
M  V30 2475 O 240.124 0.866422 2.3717 0
M  V30 2476 C 241.437 3.00649 -0.0555025 0
M  V30 2477 C 242.985 3.12999 0.00795388 0
M  V30 2478 C 243.46 4.5744 -0.226429 0
M  V30 2479 N 244.951 4.62875 -0.173469 0
M  V30 2480 C 245.686 5.72454 -0.329288 0
M  V30 2481 N 245.182 6.90669 -0.543005 0
M  V30 2482 N 246.975 5.61467 -0.266666 0
M  V30 2483 H 239.126 1.82345 -1.08922 0
M  V30 2484 H 241.389 0.844149 -0.431413 0
M  V30 2485 H 241.095 3.3563 -1.05096 0
M  V30 2486 H 240.969 3.71337 0.66246 0
M  V30 2487 H 243.356 2.77857 0.993966 0
M  V30 2488 H 243.437 2.4479 -0.742388 0
M  V30 2489 H 243.081 4.93287 -1.20956 0
M  V30 2490 H 243.011 5.2378 0.544274 0
M  V30 2491 H 245.502 3.77898 -0.0130709 0
M  V30 2492 H 245.815 7.70045 -0.651922 0
M  V30 2493 H 244.16 6.92581 -0.579366 0
M  V30 2494 H 247.351 4.67992 -0.100441 0
M  V30 2495 H 247.524 6.46816 -0.391535 0
M  V30 2496 N 240.93 -0.123565 1.57115 0
M  V30 2497 C 242.158 -0.846461 1.88793 0
M  V30 2498 C 242.573 -1.73652 0.740976 0
M  V30 2499 O 241.93 -1.80207 -0.288393 0
M  V30 2500 C 241.981 -1.6837 3.19897 0
M  V30 2501 O 241.702 -0.829477 4.30176 0
M  V30 2502 C 243.203 -2.51214 3.65248 0
M  V30 2503 H 240.423 -0.243573 0.625231 0
M  V30 2504 H 242.967 -0.109324 2.04208 0
M  V30 2505 H 241.122 -2.37364 3.06165 0
M  V30 2506 H 241.536 -1.40651 5.0529 0
M  V30 2507 H 243.01 -3.05497 4.59756 0
M  V30 2508 H 243.487 -3.28359 2.9168 0
M  V30 2509 H 244.093 -1.8747 3.81752 0
M  V30 2510 N 242.408 -1.52605 -0.393616 0
M  V30 2511 C 243.819 -1.59417 -0.971761 0
M  V30 2512 C 244.17 -0.444173 -1.91106 0
M  V30 2513 O 243.295 0.433382 -2.12016 0
M  V30 2514 C 243.89 -2.88936 -1.76921 0
M  V30 2515 C 242.449 -2.98175 -2.29714 0
M  V30 2516 C 241.596 -2.54491 -1.10135 0
M  V30 2517 H 244.547 -1.57751 -0.173317 0
M  V30 2518 H 244.568 -2.75163 -2.62804 0
M  V30 2519 H 244.08 -3.72616 -1.08532 0
M  V30 2520 H 242.181 -2.19024 -3.01429 0
M  V30 2521 H 242.294 -4.02726 -2.59517 0
M  V30 2522 H 240.658 -2.08702 -1.45999 0
M  V30 2523 H 241.441 -3.4056 -0.432874 0
M  V30 2524 N 243.887 0.651787 -1.4349 0
M  V30 2525 C 245.298 1.233 -1.40193 0
M  V30 2526 C 245.649 1.9591 -0.106727 0
M  V30 2527 O 244.774 2.01316 0.793773 0
M  V30 2528 C 245.369 2.24257 -2.53957 0
M  V30 2529 C 243.928 2.77852 -2.5392 0
M  V30 2530 C 243.075 1.52517 -2.3159 0
M  V30 2531 H 246.026 0.443717 -1.52371 0
M  V30 2532 H 246.047 3.0646 -2.25528 0
M  V30 2533 H 245.559 1.71382 -3.4821 0
M  V30 2534 H 243.66 3.34786 -1.63551 0
M  V30 2535 H 243.773 3.25299 -3.51735 0
M  V30 2536 H 242.137 1.79915 -1.80285 0
M  V30 2537 H 242.92 1.01574 -3.27929 0
M  V30 2538 N 245.365 1.30045 0.890287 0
M  V30 2539 C 246.613 1.18327 1.63839 0
M  V30 2540 C 246.934 -0.263455 1.93212 0
M  V30 2541 O 246.204 -1.17856 1.56482 0
M  V30 2542 H 244.784 0.434933 0.607324 0
M  V30 2543 H 247.446 1.631 1.06698 0
M  V30 2544 H 246.542 1.74024 2.59079 0
M  V30 2545 N 246.843 -1.10192 1.12674 0
M  V30 2546 C 247.806 -2.14786 0.799979 0
M  V30 2547 C 248.806 -1.59711 -0.18685 0
M  V30 2548 O 249.996 -1.74156 0.0392558 0
M  V30 2549 C 247.128 -3.40374 0.189228 0
M  V30 2550 H 248.321 -2.45203 1.72671 0
M  V30 2551 H 245.874 -1.25597 0.930326 0
M  V30 2552 H 246.609 -3.15577 -0.747107 0
M  V30 2553 H 246.394 -3.81637 0.899766 0
M  V30 2554 H 247.884 -4.17594 -0.0228143 0
M  V30 2555 N 248.321 -0.919034 -1.28029 0
M  V30 2556 C 249.251 -0.428581 -2.29533 0
M  V30 2557 C 250.232 0.50659 -1.62381 0
M  V30 2558 O 251.417 0.413195 -1.89753 0
M  V30 2559 C 248.547 0.327388 -3.45753 0
M  V30 2560 C 247.501 -0.519137 -4.2484 0
M  V30 2561 C 246.827 0.365486 -5.33449 0
M  V30 2562 C 248.127 -1.77914 -4.91064 0
M  V30 2563 H 249.821 -1.27687 -2.70807 0
M  V30 2564 H 247.367 -0.615428 -1.30186 0
M  V30 2565 H 249.32 0.681378 -4.15855 0
M  V30 2566 H 248.044 1.20963 -3.03374 0
M  V30 2567 H 246.703 -0.855717 -3.56473 0
M  V30 2568 H 246.351 1.24642 -4.87312 0
M  V30 2569 H 246.051 -0.197356 -5.87268 0
M  V30 2570 H 247.575 0.715241 -6.06396 0
M  V30 2571 H 248.989 -1.49374 -5.53498 0
M  V30 2572 H 247.386 -2.2848 -5.54903 0
M  V30 2573 H 248.456 -2.50382 -4.15255 0
M  V30 2574 N 249.799 1.42003 -0.683588 0
M  V30 2575 C 251.045 2.01712 -0.209825 0
M  V30 2576 C 251.378 1.53968 1.18353 0
M  V30 2577 O 250.653 0.745661 1.79639 0
M  V30 2578 C 250.936 3.59202 -0.254197 0
M  V30 2579 C 250.789 4.17102 -1.68363 0
M  V30 2580 C 252.108 4.38344 0.392709 0
M  V30 2581 H 249.227 0.732891 -0.0777189 0
M  V30 2582 H 251.869 1.68909 -0.87004 0
M  V30 2583 H 250.019 3.87278 0.307954 0
M  V30 2584 H 251.691 3.99946 -2.29871 0
M  V30 2585 H 249.934 3.72597 -2.22157 0
M  V30 2586 H 250.605 5.26249 -1.6663 0
M  V30 2587 H 253.081 4.16011 -0.0859162 0
M  V30 2588 H 251.957 5.47901 0.331063 0
M  V30 2589 H 252.218 4.16887 1.47164 0
M  V30 2590 N 251.277 0.427512 1.51691 0
M  V30 2591 C 252.207 -0.3796 2.30394 0
M  V30 2592 C 253.188 -1.02982 1.35384 0
M  V30 2593 O 254.373 -1.03534 1.643 0
M  V30 2594 C 251.503 -1.48649 3.1388 0
M  V30 2595 C 250.457 -0.960294 4.17088 0
M  V30 2596 C 249.783 -2.16219 4.89033 0
M  V30 2597 C 251.083 -0.00153679 5.223 0
M  V30 2598 H 252.777 0.277164 2.98114 0
M  V30 2599 H 250.323 0.134739 1.43368 0
M  V30 2600 H 252.276 -2.05826 3.67714 0
M  V30 2601 H 251 -2.1714 2.43962 0
M  V30 2602 H 249.659 -0.410806 3.64291 0
M  V30 2603 H 249.307 -2.83307 4.15628 0
M  V30 2604 H 249.007 -1.81654 5.58816 0
M  V30 2605 H 250.531 -2.73968 5.45687 0
M  V30 2606 H 251.945 -0.482687 5.71264 0
M  V30 2607 H 250.342 0.256199 5.99553 0
M  V30 2608 H 251.412 0.938174 4.75738 0
M  V30 2609 N 252.755 -1.56801 0.158532 0
M  V30 2610 C 253.718 -2.16138 -0.762705 0
M  V30 2611 C 254.718 -1.1061 -1.16713 0
M  V30 2612 O 255.908 -1.36191 -1.08617 0
M  V30 2613 C 253.04 -2.73386 -2.03649 0
M  V30 2614 H 254.233 -2.98886 -0.246354 0
M  V30 2615 H 251.786 -1.56035 -0.0909744 0
M  V30 2616 H 252.521 -1.94335 -2.59623 0
M  V30 2617 H 252.306 -3.50601 -1.75559 0
M  V30 2618 H 253.796 -3.19065 -2.6942 0
M  V30 2619 N 254.233 0.115231 -1.57178 0
M  V30 2620 C 255.479 0.82357 -1.85325 0
M  V30 2621 C 255.812 1.79349 -0.744814 0
M  V30 2622 O 255.087 1.92899 0.249024 0
M  V30 2623 C 255.37 1.57014 -3.24066 0
M  V30 2624 C 255.223 0.619565 -4.45513 0
M  V30 2625 C 256.542 2.52545 -3.60429 0
M  V30 2626 H 253.661 0.297948 -0.674089 0
M  V30 2627 H 256.303 0.0877138 -1.89797 0
M  V30 2628 H 254.453 2.19742 -3.20383 0
M  V30 2629 H 256.125 0.000837639 -4.613 0
M  V30 2630 H 254.368 -0.0686174 -4.33746 0
M  V30 2631 H 255.039 1.17866 -5.3927 0
M  V30 2632 H 257.515 1.9992 -3.64926 0
M  V30 2633 H 256.391 3.01811 -4.58477 0
M  V30 2634 H 256.652 3.35383 -2.88047 0
M  V30 2635 N 255.711 1.52812 0.385517 0
M  V30 2636 C 256.959 1.67694 1.12797 0
M  V30 2637 C 257.28 0.421115 1.90399 0
M  V30 2638 O 256.55 -0.564551 1.87589 0
M  V30 2639 H 255.13 0.618155 0.419396 0
M  V30 2640 H 257.792 1.89938 0.436972 0
M  V30 2641 H 256.888 2.52896 1.82894 0
M  V30 2642 N 257.189 -0.644168 1.43834 0
M  V30 2643 C 258.437 -1.40117 1.45642 0
M  V30 2644 C 258.758 -1.94814 0.0852413 0
M  V30 2645 O 258.028 -1.74988 -0.880688 0
M  V30 2646 H 256.608 -0.52005 0.536243 0
M  V30 2647 H 259.27 -0.7591 1.7951 0
M  V30 2648 H 258.366 -2.23902 2.17427 0
M  V30 2649 N 258.668 -1.30515 -0.883378 0
M  V30 2650 C 259.916 -1.19194 -1.63209 0
M  V30 2651 C 260.237 0.253205 -1.93349 0
M  V30 2652 O 259.507 1.17025 -1.57105 0
M  V30 2653 H 258.087 -0.438148 -0.605009 0
M  V30 2654 H 260.749 -1.63663 -1.05832 0
M  V30 2655 H 259.845 -1.75396 -2.58153 0
M  V30 2656 N 260.146 1.09593 -1.13257 0
M  V30 2657 C 261.394 1.81375 -0.891492 0
M  V30 2658 C 261.715 1.86049 0.584009 0
M  V30 2659 O 260.985 1.34481 1.42449 0
M  V30 2660 H 259.565 0.671708 -0.326828 0
M  V30 2661 H 262.227 1.3256 -1.42877 0
M  V30 2662 H 261.323 2.84612 -1.28071 0
M  V30 2663 N 261.624 0.925811 1.2754 0
M  V30 2664 C 262.554 0.440748 2.29303 0
M  V30 2665 C 263.535 -0.497971 1.62648 0
M  V30 2666 O 264.72 -0.403126 1.8997 0
M  V30 2667 C 261.85 -0.309048 3.45922 0
M  V30 2668 C 260.804 0.54166 4.24559 0
M  V30 2669 C 260.13 -0.337191 5.33636 0
M  V30 2670 C 261.43 1.80516 4.90114 0
M  V30 2671 H 263.124 1.29121 2.70126 0
M  V30 2672 H 260.67 0.622323 1.29858 0
M  V30 2673 H 262.623 -0.659315 4.1621 0
M  V30 2674 H 261.347 -1.19352 3.04011 0
M  V30 2675 H 260.006 0.874609 3.56014 0
M  V30 2676 H 259.654 -1.22056 4.87966 0
M  V30 2677 H 259.354 0.228497 5.87156 0
M  V30 2678 H 260.878 -0.683072 6.06767 0
M  V30 2679 H 262.292 1.52307 5.52698 0
M  V30 2680 H 260.689 2.3142 5.53683 0
M  V30 2681 H 261.759 2.52581 4.13921 0
M  V30 2682 N 263.102 -1.41638 0.69111 0
M  V30 2683 C 264.032 -2.3347 0.037248 0
M  V30 2684 C 265.013 -1.51575 -0.771947 0
M  V30 2685 O 266.198 -1.80126 -0.72582 0
M  V30 2686 C 263.328 -3.35354 -0.903064 0
M  V30 2687 C 262.282 -4.27526 -0.201288 0
M  V30 2688 C 261.608 -5.19747 -1.25565 0
M  V30 2689 C 262.908 -5.13959 0.929689 0
M  V30 2690 H 264.602 -2.88397 0.804227 0
M  V30 2691 H 262.148 -1.38669 0.388189 0
M  V30 2692 H 264.101 -3.98519 -1.36969 0
M  V30 2693 H 262.825 -2.78767 -1.70166 0
M  V30 2694 H 261.484 -3.65779 0.245265 0
M  V30 2695 H 261.132 -4.59479 -2.04666 0
M  V30 2696 H 260.832 -5.8225 -0.791128 0
M  V30 2697 H 262.356 -5.85789 -1.72288 0
M  V30 2698 H 263.77 -5.70718 0.543546 0
M  V30 2699 H 262.167 -5.85379 1.32103 0
M  V30 2700 H 263.237 -4.51389 1.77133 0
M  V30 2701 N 264.58 -0.43555 -1.51462 0
M  V30 2702 C 265.543 0.365137 -2.26273 0
M  V30 2703 C 266.543 0.951227 -1.29647 0
M  V30 2704 O 267.733 0.825958 -1.53374 0
M  V30 2705 C 264.865 1.51645 -3.05314 0
M  V30 2706 H 266.058 -0.290474 -2.9849 0
M  V30 2707 H 263.611 -0.188676 -1.55157 0
M  V30 2708 H 264.346 2.20816 -2.3751 0
M  V30 2709 H 264.131 1.10238 -3.76284 0
M  V30 2710 H 265.621 2.08218 -3.61987 0
M  V30 2711 N 266.058 1.56714 -0.166846 0
M  V30 2712 C 267.306 1.96358 0.478305 0
M  V30 2713 C 267.627 1.0537 1.6408 0
M  V30 2714 O 266.897 0.119154 1.95537 0
M  V30 2715 H 265.477 0.725065 0.179692 0
M  V30 2716 H 268.139 1.93329 -0.246985 0
M  V30 2717 H 267.235 3.00547 0.841292 0
M  V30 2718 N 267.536 -0.106894 1.57237 0
M  V30 2719 C 268.782 -0.81373 1.85759 0
M  V30 2720 C 269.115 -1.78952 0.754315 0
M  V30 2721 O 268.39 -1.93029 -0.23879 0
M  V30 2722 C 268.673 -1.55293 3.24894 0
M  V30 2723 C 268.526 -0.595929 4.45835 0
M  V30 2724 C 269.845 -2.5063 3.61763 0
M  V30 2725 H 266.964 -0.294369 0.67566 0
M  V30 2726 H 269.606 -0.0776472 1.89841 0
M  V30 2727 H 267.756 -2.1804 3.21544 0
M  V30 2728 H 269.428 0.0236262 4.61294 0
M  V30 2729 H 267.671 0.0916191 4.33703 0
M  V30 2730 H 268.342 -1.15004 5.39887 0
M  V30 2731 H 270.818 -1.97982 3.65981 0
M  V30 2732 H 269.694 -2.99376 4.60071 0
M  V30 2733 H 269.955 -3.3385 2.89821 0
M  V30 2734 N 269.014 -1.53014 -0.377408 0
M  V30 2735 C 270.26 -1.68872 -1.12294 0
M  V30 2736 C 270.593 -0.433224 -1.89306 0
M  V30 2737 O 269.868 0.569258 -1.85983 0
M  V30 2738 C 270.151 -2.93115 -2.09179 0
M  V30 2739 C 270.004 -4.28794 -1.35853 0
M  V30 2740 C 271.323 -3.12928 -3.09458 0
M  V30 2741 H 268.442 -0.614518 -0.406862 0
M  V30 2742 H 271.084 -1.85633 -0.40503 0
M  V30 2743 H 269.234 -2.78956 -2.70399 0
M  V30 2744 H 270.906 -4.54742 -0.775082 0
M  V30 2745 H 269.149 -4.28744 -0.660364 0
M  V30 2746 H 269.82 -5.11837 -2.06706 0
M  V30 2747 H 272.296 -3.26194 -2.58334 0
M  V30 2748 H 271.172 -4.01316 -3.74482 0
M  V30 2749 H 271.433 -2.27669 -3.78971 0
M  V30 2750 N 270.492 0.636531 -1.44174 0
M  V30 2751 C 271.455 1.73063 -1.50273 0
M  V30 2752 C 272.455 1.56113 -0.385397 0
M  V30 2753 O 273.645 1.61707 -0.64781 0
M  V30 2754 C 270.777 3.12096 -1.37145 0
M  V30 2755 H 271.97 1.69031 -2.47727 0
M  V30 2756 H 269.523 0.849706 -1.31186 0
M  V30 2757 H 270.258 3.21728 -0.407636 0
M  V30 2758 H 270.043 3.25805 -2.18159 0
M  V30 2759 H 271.533 3.91846 -1.44382 0
M  V30 2760 N 271.97 1.30982 0.876444 0
M  V30 2761 C 273.218 1.20058 1.62575 0
M  V30 2762 C 273.539 -0.242947 1.93481 0
M  V30 2763 O 272.809 -1.1619 1.57724 0
M  V30 2764 H 271.389 0.44135 0.602677 0
M  V30 2765 H 274.051 1.64222 1.04962 0
M  V30 2766 H 273.147 1.76762 2.57219 0
M  V30 2767 N 273.449 -1.08991 1.13837 0
M  V30 2768 C 274.379 -2.17771 0.842507 0
M  V30 2769 C 275.36 -1.6892 -0.20001 0
M  V30 2770 O 276.545 -1.94113 -0.0579731 0
M  V30 2771 C 273.675 -3.4589 0.312644 0
M  V30 2772 C 272.629 -4.08099 1.28992 0
M  V30 2773 C 271.955 -5.31098 0.619623 0
M  V30 2774 C 273.255 -4.50077 2.65005 0
M  V30 2775 H 274.949 -2.42777 1.75213 0
M  V30 2776 H 272.495 -1.16682 0.843875 0
M  V30 2777 H 274.448 -4.21297 0.0933043 0
M  V30 2778 H 273.172 -3.20419 -0.632382 0
M  V30 2779 H 271.831 -3.34717 1.49533 0
M  V30 2780 H 271.479 -5.0191 -0.33102 0
M  V30 2781 H 271.179 -5.73674 1.27167 0
M  V30 2782 H 272.703 -6.09224 0.409669 0
M  V30 2783 H 274.117 -5.16688 2.48407 0
M  V30 2784 H 272.514 -5.03553 3.26427 0
M  V30 2785 H 273.584 -3.62257 3.22332 0
M  V30 2786 N 274.927 -0.932562 -1.27047 0
M  V30 2787 C 275.857 -0.452902 -2.29066 0
M  V30 2788 C 276.838 0.489338 -1.62909 0
M  V30 2789 O 278.023 0.393046 -1.90181 0
M  V30 2790 C 275.153 0.290698 -3.46081 0
M  V30 2791 C 274.107 -0.564168 -4.24265 0
M  V30 2792 C 273.433 0.308886 -5.33807 0
M  V30 2793 C 274.733 -1.83112 -4.89149 0
M  V30 2794 H 276.427 -1.30552 -2.69437 0
M  V30 2795 H 273.973 -0.629201 -1.29526 0
M  V30 2796 H 275.926 0.637233 -4.16554 0
M  V30 2797 H 274.65 1.17738 -3.0464 0
M  V30 2798 H 273.309 -0.893477 -3.55545 0
M  V30 2799 H 272.957 1.19467 -4.88607 0
M  V30 2800 H 272.657 -0.259633 -5.87026 0
M  V30 2801 H 274.181 0.650884 -6.07121 0
M  V30 2802 H 275.595 -1.55236 -5.51883 0
M  V30 2803 H 273.992 -2.34353 -5.52448 0
M  V30 2804 H 275.062 -2.54772 -4.12576 0
M  V30 2805 N 276.405 1.4127 -0.698611 0
M  V30 2806 C 277.315 2.34573 -0.0357891 0
M  V30 2807 C 278.331 1.56393 0.762701 0
M  V30 2808 O 279.507 1.8886 0.699564 0
M  V30 2809 C 276.572 3.35159 0.887089 0
M  V30 2810 C 275.633 4.29225 0.0804634 0
M  V30 2811 C 274.866 5.25006 0.959387 0
M  V30 2812 O 275.089 5.26314 2.19886 0
M  V30 2813 O 274.023 6.00519 0.407439 0
M  V30 2814 H 277.849 2.92838 -0.804957 0
M  V30 2815 H 275.434 1.42175 -0.458966 0
M  V30 2816 H 277.316 3.9689 1.41621 0
M  V30 2817 H 275.991 2.79333 1.6357 0
M  V30 2818 H 274.898 3.70833 -0.493328 0
M  V30 2819 H 276.231 4.88157 -0.629547 0
M  V30 2820 N 277.883 0.443576 1.51229 0
M  V30 2821 C 279.129 -0.120975 2.02439 0
M  V30 2822 C 279.462 -1.41815 1.32674 0
M  V30 2823 O 278.737 -1.89373 0.443622 0
M  V30 2824 C 279.02 -0.333291 3.58554 0
M  V30 2825 C 278.873 0.982968 4.38928 0
M  V30 2826 C 280.192 -1.10028 4.26124 0
M  V30 2827 H 277.311 -0.0424923 0.735774 0
M  V30 2828 H 279.953 0.583794 1.80809 0
M  V30 2829 H 278.103 -0.933614 3.77115 0
M  V30 2830 H 279.775 1.61775 4.32003 0
M  V30 2831 H 278.018 1.58611 4.03763 0
M  V30 2832 H 278.689 0.788379 5.46341 0
M  V30 2833 H 281.165 -0.591711 4.11871 0
M  V30 2834 H 280.041 -1.21761 5.35225 0
M  V30 2835 H 280.302 -2.12996 3.87408 0
M  V30 2836 N 279.361 -1.56624 0.175154 0
M  V30 2837 C 280.609 -1.96609 -0.467885 0
M  V30 2838 C 280.93 -1.06238 -1.63519 0
M  V30 2839 O 280.2 -0.129523 -1.95471 0
M  V30 2840 H 278.78 -0.726008 -0.175845 0
M  V30 2841 H 281.442 -1.93195 0.257234 0
M  V30 2842 H 280.538 -3.00989 -0.825342 0
M  V30 2843 N 280.839 0.0985539 -1.57292 0
M  V30 2844 C 282.085 0.798769 -1.87059 0
M  V30 2845 C 282.44 1.76514 -0.76555 0
M  V30 2846 O 281.733 1.90181 0.232752 0
M  V30 2847 C 281.927 1.56927 -3.21105 0
M  V30 2848 C 281.756 0.679026 -4.44544 0
M  V30 2849 C 280.526 0.326071 -5.04247 0
M  V30 2850 C 282.724 -0.0124715 -5.14298 0
M  V30 2851 N 280.706 -0.572702 -6.11223 0
M  V30 2852 C 282.077 -0.769446 -6.15207 0
M  V30 2853 C 284.132 -0.0867545 -4.97824 0
M  V30 2854 C 282.835 -1.59376 -7.01421 0
M  V30 2855 C 284.861 -0.897955 -5.84543 0
M  V30 2856 C 284.223 -1.64306 -6.84969 0
M  V30 2857 H 280.322 0.268568 -0.734435 0
M  V30 2858 H 282.906 0.0614664 -1.94603 0
M  V30 2859 H 281.077 2.27748 -3.1462 0
M  V30 2860 H 282.809 2.21641 -3.38611 0
M  V30 2861 H 279.564 0.67295 -4.68795 0
M  V30 2862 H 279.988 -1.01454 -6.69355 0
M  V30 2863 H 284.63 0.474963 -4.20124 0
M  V30 2864 H 282.348 -2.16655 -7.78515 0
M  V30 2865 H 285.934 -0.958059 -5.73858 0
M  V30 2866 H 284.814 -2.26065 -7.50909 0
M  V30 2867 N 282.317 1.53212 0.369288 0
M  V30 2868 C 283.249 1.75668 1.47219 0
M  V30 2869 C 284.262 0.637387 1.49804 0
M  V30 2870 O 285.451 0.913561 1.5335 0
M  V30 2871 C 282.551 1.81818 2.85999 0
M  V30 2872 C 281.724 3.11409 3.07153 0
M  V30 2873 C 280.783 3.08849 4.26026 0
M  V30 2874 O 279.809 3.82659 4.2138 0
M  V30 2875 N 281.011 2.29409 5.33246 0
M  V30 2876 H 283.776 2.70832 1.28337 0
M  V30 2877 H 281.337 1.51944 0.55898 0
M  V30 2878 H 283.329 1.77588 3.63655 0
M  V30 2879 H 281.899 0.939544 2.98146 0
M  V30 2880 H 281.119 3.28971 2.1719 0
M  V30 2881 H 282.407 3.97059 3.18154 0
M  V30 2882 H 281.805 1.68946 5.39883 0
M  V30 2883 H 280.362 2.31001 6.09493 0
M  V30 2884 N 283.795 -0.628877 1.44509 0
M  V30 2885 C 284.745 -1.7345 1.47983 0
M  V30 2886 C 285.729 -1.5715 0.345373 0
M  V30 2887 O 286.921 -1.66848 0.590829 0
M  V30 2888 C 284.05 -3.12143 1.42904 0
M  V30 2889 C 283.136 -3.33906 2.61472 0
M  V30 2890 N 283.527 -3.26024 3.86706 0
M  V30 2891 C 281.825 -3.64709 2.56716 0
M  V30 2892 C 282.526 -3.48536 4.65722 0
M  V30 2893 N 281.502 -3.71517 3.96832 0
M  V30 2894 H 285.304 -1.65818 2.42655 0
M  V30 2895 H 282.818 -0.831419 1.39503 0
M  V30 2896 H 284.815 -3.91433 1.43476 0
M  V30 2897 H 283.475 -3.2094 0.492717 0
M  V30 2898 H 284.486 -3.04893 4.18641 0
M  V30 2899 H 281.163 -3.80473 1.71891 0
M  V30 2900 H 282.553 -3.48016 5.74747 0
M  V30 2901 N 285.273 -1.31445 -0.869486 0
M  V30 2902 C 286.519 -1.21337 -1.62496 0
M  V30 2903 C 286.852 0.227872 -1.92858 0
M  V30 2904 O 286.127 1.16094 -1.56053 0
M  V30 2905 C 286.41 -2.05814 -2.95487 0
M  V30 2906 C 286.263 -3.5824 -2.72 0
M  V30 2907 C 287.582 -1.9079 -3.96594 0
M  V30 2908 H 284.701 -0.442135 -0.589649 0
M  V30 2909 H 287.343 -1.6124 -1.00507 0
M  V30 2910 H 285.493 -1.71913 -3.48394 0
M  V30 2911 H 287.165 -4.0228 -2.25762 0
M  V30 2912 H 285.408 -3.81647 -2.06224 0
M  V30 2913 H 286.079 -4.12657 -3.66631 0
M  V30 2914 H 288.555 -2.20459 -3.52898 0
M  V30 2915 H 287.431 -2.52199 -4.87531 0
M  V30 2916 H 287.692 -0.871341 -4.33428 0
M  V30 2917 N 286.751 1.08385 -1.14413 0
M  V30 2918 C 288.162 1.62258 -0.923535 0
M  V30 2919 C 288.513 1.88691 0.537595 0
M  V30 2920 O 287.638 1.64454 1.40655 0
M  V30 2921 C 288.233 2.94781 -1.67002 0
M  V30 2922 C 286.792 3.45437 -1.495 0
M  V30 2923 C 285.939 2.19668 -1.69238 0
M  V30 2924 H 288.89 0.916086 -1.2959 0
M  V30 2925 H 288.911 3.63229 -1.13334 0
M  V30 2926 H 288.423 2.7551 -2.73342 0
M  V30 2927 H 286.524 3.6981 -0.455097 0
M  V30 2928 H 286.637 4.22173 -2.2651 0
M  V30 2929 H 285.001 2.28849 -1.11804 0
M  V30 2930 H 285.784 2.02905 -2.7692 0
M  V30 2931 N 288.23 0.939286 1.26551 0
M  V30 2932 C 289.479 0.581601 1.93133 0
M  V30 2933 C 289.792 -0.883224 1.74524 0
M  V30 2934 O 290.998 -1.3502 2.35546 0
M  V30 2935 C 289.454 0.989425 3.46032 0
M  V30 2936 C 289.062 2.47573 3.73379 0
M  V30 2937 C 290.806 0.703544 4.18629 0
M  V30 2938 C 288.713 2.82235 5.19709 0
M  V30 2939 H 287.643 0.213803 0.723052 0
M  V30 2940 H 290.294 1.14167 1.4366 0
M  V30 2941 H 288.676 0.357902 3.94379 0
M  V30 2942 H 289.85 3.15614 3.35744 0
M  V30 2943 H 288.165 2.73471 3.1401 0
M  V30 2944 H 290.762 0.938869 5.26393 0
M  V30 2945 H 291.105 -0.359639 4.14744 0
M  V30 2946 H 291.638 1.2947 3.76141 0
M  V30 2947 H 288.377 3.87509 5.28694 0
M  V30 2948 H 287.897 2.18854 5.58447 0
M  V30 2949 H 289.576 2.70599 5.87695 0
M  V30 2950 N 289.708 -1.40897 0.706093 0
M  V30 2951 C 290.957 -2.00284 0.238574 0
M  V30 2952 C 291.27 -1.56604 -1.17194 0
M  V30 2953 O 292.476 -2.08624 -1.73748 0
M  V30 2954 C 290.932 -3.57934 0.375623 0
M  V30 2955 C 290.54 -4.10591 1.79217 0
M  V30 2956 C 292.284 -4.24488 -0.0315857 0
M  V30 2957 C 290.191 -5.60712 1.88032 0
M  V30 2958 H 289.121 -0.749144 0.0854398 0
M  V30 2959 H 291.772 -1.61251 0.875813 0
M  V30 2960 H 290.154 -3.94622 -0.330042 0
M  V30 2961 H 291.328 -3.85301 2.52745 0
M  V30 2962 H 289.643 -3.56601 2.15 0
M  V30 2963 H 292.24 -5.34698 0.0136842 0
M  V30 2964 H 292.583 -4.02261 -1.072 0
M  V30 2965 H 293.116 -3.92873 0.624181 0
M  V30 2966 H 289.855 -5.87781 2.90161 0
M  V30 2967 H 289.375 -5.87896 1.18903 0
M  V30 2968 H 291.054 -6.25658 1.64805 0
M  V30 2969 N 291.186 -0.45159 -1.50991 0
M  V30 2970 C 292.149 0.341117 -2.26647 0
M  V30 2971 C 293.149 0.937422 -1.30649 0
M  V30 2972 O 294.339 0.809644 -1.54241 0
M  V30 2973 C 291.471 1.48398 -3.06905 0
M  V30 2974 H 292.664 -0.322117 -2.98165 0
M  V30 2975 H 290.217 -0.205122 -1.54948 0
M  V30 2976 H 290.952 2.18284 -2.39838 0
M  V30 2977 H 290.737 1.06241 -3.77432 0
M  V30 2978 H 292.227 2.04367 -3.64176 0
M  V30 2979 N 292.664 1.56529 -0.183458 0
M  V30 2980 C 293.597 2.14417 0.781052 0
M  V30 2981 C 294.575 1.07761 1.21763 0
M  V30 2982 O 295.759 1.35807 1.30724 0
M  V30 2983 C 292.886 2.69361 2.05335 0
M  V30 2984 C 291.932 3.885 1.75982 0
M  V30 2985 S 292.765 5.27568 0.918256 0
M  V30 2986 C 293.921 5.85926 2.20095 0
M  V30 2987 H 294.154 2.95893 0.2889 0
M  V30 2988 H 291.687 1.54368 0.0313844 0
M  V30 2989 H 293.645 3.01662 2.78406 0
M  V30 2990 H 292.306 1.87949 2.51663 0
M  V30 2991 H 291.499 4.25314 2.70415 0
M  V30 2992 H 291.101 3.57149 1.10999 0
M  V30 2993 H 293.393 5.99579 3.15453 0
M  V30 2994 H 294.336 6.82761 1.87731 0
M  V30 2995 H 294.744 5.14438 2.32409 0
M  V30 2996 N 294.142 -0.090211 1.57342 0
M  V30 2997 C 295.052 -1.12735 2.05738 0
M  V30 2998 C 296.068 -1.43557 0.983231 0
M  V30 2999 O 297.244 -1.54101 1.29672 0
M  V30 3000 C 294.309 -2.42659 2.47624 0
M  V30 3001 C 293.37 -2.18975 3.69254 0
M  V30 3002 C 292.603 -3.42704 4.09133 0
M  V30 3003 O 292.826 -4.51127 3.49057 0
M  V30 3004 O 291.76 -3.32003 5.02053 0
M  V30 3005 H 295.586 -0.746279 2.94388 0
M  V30 3006 H 293.171 -0.303064 1.46294 0
M  V30 3007 H 295.053 -3.19155 2.7517 0
M  V30 3008 H 293.728 -2.80182 1.62109 0
M  V30 3009 H 292.635 -1.40244 3.46818 0
M  V30 3010 H 293.968 -1.86342 4.55563 0
M  V30 3011 N 295.62 -1.53406 -0.361157 0
M  V30 3012 C 296.848 -1.73717 -1.12383 0
M  V30 3013 C 297.263 -0.468161 -1.82904 0
M  V30 3014 O 296.62 0.559198 -1.73722 0
M  V30 3015 C 296.671 -2.90558 -2.15078 0
M  V30 3016 O 296.392 -4.12549 -1.47428 0
M  V30 3017 C 297.893 -3.22777 -3.03858 0
M  V30 3018 H 295.113 -0.580896 -0.335858 0
M  V30 3019 H 297.657 -2.00167 -0.418728 0
M  V30 3020 H 295.812 -2.66489 -2.8118 0
M  V30 3021 H 296.226 -4.78009 -2.15887 0
M  V30 3022 H 297.7 -4.07927 -3.71887 0
M  V30 3023 H 298.177 -2.38329 -3.68912 0
M  V30 3024 H 298.783 -3.48787 -2.43367 0
M  V30 3025 N 297.098 0.621204 -1.44841 0
M  V30 3026 C 298.048 1.72663 -1.48901 0
M  V30 3027 C 299.032 1.56964 -0.353702 0
M  V30 3028 O 300.224 1.66532 -0.599669 0
M  V30 3029 C 297.353 3.11381 -1.44557 0
M  V30 3030 C 296.439 3.32514 -2.6324 0
M  V30 3031 N 296.83 3.23969 -3.8843 0
M  V30 3032 C 295.128 3.63343 -2.58647 0
M  V30 3033 C 295.829 3.46062 -4.67564 0
M  V30 3034 N 294.805 3.69407 -3.98797 0
M  V30 3035 H 298.607 1.64529 -2.43531 0
M  V30 3036 H 296.121 0.82401 -1.39942 0
M  V30 3037 H 298.118 3.90667 -1.4555 0
M  V30 3038 H 296.778 3.20674 -0.509731 0
M  V30 3039 H 297.789 3.02669 -4.20252 0
M  V30 3040 H 294.466 3.79556 -1.73906 0
M  V30 3041 H 295.856 3.44963 -5.76585 0
M  V30 3042 N 298.576 1.31904 0.862503 0
M  V30 3043 C 299.824 1.21776 1.61292 0
M  V30 3044 C 300.145 -0.222413 1.93727 0
M  V30 3045 O 299.415 -1.1451 1.58947 0
M  V30 3046 H 297.995 0.447717 0.597962 0
M  V30 3047 H 300.657 1.65326 1.03215 0
M  V30 3048 H 299.753 1.7948 2.5533 0
M  V30 3049 N 300.054 -1.07777 1.14986 0
M  V30 3050 C 301.017 -2.13041 0.845358 0
M  V30 3051 C 302.017 -1.60071 -0.152931 0
M  V30 3052 O 303.207 -1.74033 0.0761879 0
M  V30 3053 C 300.339 -3.39896 0.261383 0
M  V30 3054 H 301.532 -2.41485 1.77834 0
M  V30 3055 H 299.085 -1.23595 0.956757 0
M  V30 3056 H 299.82 -3.17091 -0.68 0
M  V30 3057 H 299.605 -3.79642 0.980514 0
M  V30 3058 H 301.095 -4.17548 0.0657687 0
M  V30 3059 N 301.532 -0.945985 -1.26051 0
M  V30 3060 C 302.482 -0.430164 -2.23905 0
M  V30 3061 C 303.466 0.47579 -1.53704 0
M  V30 3062 O 304.658 0.310252 -1.7426 0
M  V30 3063 C 301.787 0.298957 -3.41996 0
M  V30 3064 C 300.873 -0.624566 -4.19476 0
M  V30 3065 N 301.264 -1.75245 -4.74471 0
M  V30 3066 C 299.562 -0.431082 -4.43912 0
M  V30 3067 C 300.263 -2.32834 -5.3307 0
M  V30 3068 N 299.239 -1.61583 -5.1903 0
M  V30 3069 H 303.041 -1.29107 -2.64024 0
M  V30 3070 H 300.555 -0.802428 -1.41191 0
M  V30 3071 H 302.552 0.685565 -4.11225 0
M  V30 3072 H 301.212 1.15657 -3.03403 0
M  V30 3073 H 302.223 -2.13449 -4.71868 0
M  V30 3074 H 298.9 0.384364 -4.15727 0
M  V30 3075 H 300.29 -3.27893 -5.86461 0
M  V30 3076 N 303.011 1.40521 -0.713556 0
M  V30 3077 C 304.251 2.02783 -0.256584 0
M  V30 3078 C 304.615 1.55352 1.12827 0
M  V30 3079 O 305.816 2.09663 1.68211 0
M  V30 3080 C 304.087 3.5586 -0.331414 0
M  V30 3081 S 305.646 4.38773 0.0488703 0
M  V30 3082 H 302.464 0.703655 -0.101934 0
M  V30 3083 H 305.066 1.71674 -0.935325 0
M  V30 3084 H 303.77 3.87874 -1.34098 0
M  V30 3085 H 303.301 3.91695 0.365873 0
M  V30 3086 H 305.316 4.79633 1.2715 0
M  V30 3087 N 304.489 0.459591 1.5075 0
M  V30 3088 C 305.736 -0.0993495 2.02256 0
M  V30 3089 C 306.064 -1.40751 1.34237 0
M  V30 3090 O 305.319 -1.90379 0.453228 0
M  V30 3091 C 305.618 -0.342866 3.55752 0
M  V30 3092 C 305.284 0.88218 4.42186 0
M  V30 3093 C 303.946 1.21808 4.65528 0
M  V30 3094 C 306.298 1.69837 4.92752 0
M  V30 3095 C 303.626 2.37045 5.36681 0
M  V30 3096 C 305.978 2.84192 5.65171 0
M  V30 3097 C 304.642 3.1821 5.8677 0
M  V30 3098 H 303.912 -0.0363545 0.740108 0
M  V30 3099 H 306.559 0.611329 1.8148 0
M  V30 3100 H 304.864 -1.13567 3.7498 0
M  V30 3101 H 306.561 -0.789121 3.93159 0
M  V30 3102 H 303.151 0.610467 4.2423 0
M  V30 3103 H 307.335 1.45205 4.74583 0
M  V30 3104 H 302.591 2.63689 5.51614 0
M  V30 3105 H 306.765 3.4779 6.03337 0
M  V30 3106 H 304.392 4.07613 6.41682 0
M  V30 3107 N 305.967 -1.56429 0.191757 0
M  V30 3108 C 306.915 -2.20273 -0.747174 0
M  V30 3109 C 307.909 -1.17288 -1.22229 0
M  V30 3110 O 309.115 -1.35441 -1.18557 0
M  V30 3111 H 305.49 -0.705885 -0.259289 0
M  V30 3112 H 307.461 -2.97826 -0.184963 0
M  V30 3113 C 306.21 -2.87356 -1.95759 0
M  V30 3114 H 305.533 -3.66341 -1.60106 0
M  V30 3115 H 306.973 -3.3547 -2.59299 0
M  V30 3116 C 305.432 -1.88213 -2.79423 0
M  V30 3117 O 305.962 -1.38033 -3.7724 0
M  V30 3118 N 304.168 -1.56516 -2.44849 0
M  V30 3119 H 303.715 -1.97516 -1.65364 0
M  V30 3120 H 303.673 -0.904369 -3.01112 0
M  V30 3121 N 307.445 0.0818655 -1.57387 0
M  V30 3122 C 308.408 1.08265 -2.02018 0
M  V30 3123 C 309.408 1.32183 -0.915664 0
M  V30 3124 O 310.598 1.28073 -1.18081 0
M  V30 3125 C 307.73 2.42871 -2.39221 0
M  V30 3126 H 308.923 0.698204 -2.91659 0
M  V30 3127 H 306.476 0.327303 -1.52835 0
M  V30 3128 H 307.211 2.86167 -1.52575 0
M  V30 3129 H 306.996 2.26855 -3.19811 0
M  V30 3130 H 308.486 3.14826 -2.74362 0
M  V30 3131 N 308.923 1.53595 0.353017 0
M  V30 3132 C 309.886 1.80232 1.41594 0
M  V30 3133 C 310.886 0.673081 1.46035 0
M  V30 3134 O 312.076 0.941335 1.46576 0
M  V30 3135 C 309.208 1.93578 2.80607 0
M  V30 3136 H 310.401 2.75174 1.19244 0
M  V30 3137 H 307.954 1.44864 0.586872 0
M  V30 3138 H 308.689 1.00746 3.08254 0
M  V30 3139 H 308.474 2.75724 2.78781 0
M  V30 3140 H 309.964 2.15735 3.57558 0
M  V30 3141 N 310.401 -0.613514 1.45168 0
M  V30 3142 C 311.65 -1.36874 1.4815 0
M  V30 3143 C 311.963 -1.952 0.124982 0
M  V30 3144 O 313.169 -2.71481 0.0324176 0
M  V30 3145 C 311.625 -2.47905 2.60904 0
M  V30 3146 C 311.233 -1.96016 4.02842 0
M  V30 3147 C 312.977 -3.24965 2.73126 0
M  V30 3148 C 310.884 -3.04494 5.06988 0
M  V30 3149 H 309.814 -0.514428 0.551253 0
M  V30 3150 H 312.465 -0.658182 1.7129 0
M  V30 3151 H 310.847 -3.21618 2.31037 0
M  V30 3152 H 312.021 -1.29051 4.4236 0
M  V30 3153 H 310.336 -1.31719 3.95018 0
M  V30 3154 H 312.933 -4.05865 3.48106 0
M  V30 3155 H 313.276 -3.75588 1.79553 0
M  V30 3156 H 313.809 -2.5835 3.0249 0
M  V30 3157 H 310.548 -2.58795 6.0225 0
M  V30 3158 H 310.068 -3.70044 4.72046 0
M  V30 3159 H 311.747 -3.68976 5.31475 0
M  V30 3160 N 311.879 -1.3236 -0.855495 0
M  V30 3161 C 313.107 -1.2587 -1.64208 0
M  V30 3162 C 313.522 0.173457 -1.88002 0
M  V30 3163 O 312.879 1.11027 -1.44842 0
M  V30 3164 C 312.93 -2.01424 -3.00184 0
M  V30 3165 O 312.651 -3.39051 -2.77445 0
M  V30 3166 C 314.152 -2.01948 -3.94629 0
M  V30 3167 H 311.372 -0.434318 -0.511477 0
M  V30 3168 H 313.916 -1.74469 -1.0668 0
M  V30 3169 H 312.071 -1.56549 -3.5436 0
M  V30 3170 H 312.485 -3.77711 -3.63916 0
M  V30 3171 H 313.959 -2.59297 -4.87308 0
M  V30 3172 H 314.436 -1.00554 -4.27534 0
M  V30 3173 H 315.042 -2.46767 -3.4639 0
M  V30 3174 N 313.357 1.07166 -1.15556 0
M  V30 3175 C 314.32 2.12589 -0.856644 0
M  V30 3176 C 315.32 1.6015 0.14444 0
M  V30 3177 O 316.51 1.7399 -0.0854163 0
M  V30 3178 C 313.642 3.39753 -0.279405 0
M  V30 3179 H 314.835 2.40539 -1.79112 0
M  V30 3180 H 312.388 1.23086 -0.963298 0
M  V30 3181 H 313.123 3.17447 0.663174 0
M  V30 3182 H 312.908 3.79117 -1.00063 0
M  V30 3183 H 314.398 4.17507 -0.0879113 0
M  V30 3184 N 314.835 0.952656 1.25548 0
M  V30 3185 C 316.083 0.605176 1.92826 0
M  V30 3186 C 316.404 -0.860261 1.74999 0
M  V30 3187 O 315.674 -1.6125 1.11244 0
M  V30 3188 H 314.254 0.220832 0.713612 0
M  V30 3189 H 316.916 1.21047 1.52754 0
M  V30 3190 H 316.012 0.832798 3.00784 0
M  V30 3191 N 316.313 -1.40141 0.720998 0
M  V30 3192 C 317.26 -2.30688 0.071919 0
M  V30 3193 C 318.23 -1.48476 -0.744584 0
M  V30 3194 O 319.415 -1.77201 -0.707423 0
M  V30 3195 C 316.555 -3.34724 -0.839855 0
M  V30 3196 C 315.668 -4.31998 -0.0122438 0
M  V30 3197 C 314.803 -5.23102 -0.923995 0
M  V30 3198 C 313.842 -6.12033 -0.0907969 0
M  V30 3199 N 312.979 -6.95537 -0.957718 0
M  V30 3200 H 317.819 -2.85628 0.849755 0
M  V30 3201 H 315.356 -1.40653 0.430726 0
M  V30 3202 H 317.314 -3.93618 -1.38279 0
M  V30 3203 H 315.944 -2.81274 -1.58381 0
M  V30 3204 H 314.996 -3.74841 0.64794 0
M  V30 3205 H 316.308 -4.94772 0.632595 0
M  V30 3206 H 315.462 -5.86953 -1.53527 0
M  V30 3207 H 314.201 -4.60615 -1.60264 0
M  V30 3208 H 313.206 -5.47207 0.533377 0
M  V30 3209 H 314.431 -6.76581 0.584428 0
M  V30 3210 H 312.377 -6.35633 -1.62192 0
M  V30 3211 H 312.294 -7.55099 -0.36904 0
M  V30 3212 H 313.562 -7.63832 -1.555 0
M  V30 3213 N 317.792 -0.46758 -1.50504 0
M  V30 3214 C 318.722 0.318381 -2.31319 0
M  V30 3215 C 319.703 0.993564 -1.38066 0
M  V30 3216 O 320.888 0.991411 -1.66987 0
M  V30 3217 C 318.018 1.40275 -3.17711 0
M  V30 3218 C 316.972 0.849373 -4.19487 0
M  V30 3219 C 316.298 2.03177 -4.94594 0
M  V30 3220 C 317.598 -0.136942 -5.2212 0
M  V30 3221 H 319.292 -0.356106 -2.97275 0
M  V30 3222 H 316.838 -0.172703 -1.42961 0
M  V30 3223 H 318.791 1.96004 -3.73042 0
M  V30 3224 H 317.515 2.10596 -2.49634 0
M  V30 3225 H 316.174 0.314076 -3.65252 0
M  V30 3226 H 315.822 2.72187 -4.22993 0
M  V30 3227 H 315.522 1.66774 -5.63436 0
M  V30 3228 H 317.046 2.59403 -5.52759 0
M  V30 3229 H 318.46 0.331056 -5.72343 0
M  V30 3230 H 316.857 -0.41507 -5.98663 0
M  V30 3231 H 317.927 -1.06398 -4.73083 0
M  V30 3232 N 319.27 1.56325 -0.20005 0
M  V30 3233 C 320.516 1.98012 0.438059 0
M  V30 3234 C 320.849 1.08702 1.60927 0
M  V30 3235 O 320.124 0.140064 1.93995 0
M  V30 3236 C 320.407 3.48841 0.893419 0
M  V30 3237 C 320.26 4.48928 -0.279947 0
M  V30 3238 C 321.579 4.03498 1.75719 0
M  V30 3239 H 318.698 0.719918 0.157757 0
M  V30 3240 H 321.34 1.87743 -0.291968 0
M  V30 3241 H 319.49 3.57723 1.51547 0
M  V30 3242 H 321.162 4.52079 -0.91772 0
M  V30 3243 H 319.405 4.23694 -0.930919 0
M  V30 3244 H 320.076 5.5194 0.0812601 0
M  V30 3245 H 322.552 3.97427 1.23253 0
M  V30 3246 H 321.428 5.09393 2.04476 0
M  V30 3247 H 321.689 3.4906 2.71311 0
M  V30 3248 N 320.748 -0.0735177 1.57428 0
M  V30 3249 C 321.976 -0.785969 1.9139 0
M  V30 3250 C 322.391 -1.71207 0.795847 0
M  V30 3251 O 321.748 -1.81033 -0.230915 0
M  V30 3252 C 321.799 -1.58107 3.25091 0
M  V30 3253 O 321.52 -0.6922 4.32597 0
M  V30 3254 C 323.021 -2.39467 3.73055 0
M  V30 3255 H 320.241 -0.223558 0.632663 0
M  V30 3256 H 322.785 -0.044302 2.04452 0
M  V30 3257 H 320.94 -2.27503 3.13562 0
M  V30 3258 H 321.354 -1.24504 5.09508 0
M  V30 3259 H 322.828 -2.90716 4.69242 0
M  V30 3260 H 323.305 -3.18913 3.01979 0
M  V30 3261 H 323.911 -1.7523 3.87523 0
M  V30 3262 N 322.226 -1.5378 -0.344866 0
M  V30 3263 C 323.156 -1.84662 -1.42906 0
M  V30 3264 C 324.137 -0.701648 -1.54955 0
M  V30 3265 O 325.322 -0.953438 -1.69184 0
M  V30 3266 C 322.452 -2.05503 -2.79974 0
M  V30 3267 C 321.406 -3.21318 -2.82734 0
M  V30 3268 C 320.732 -3.2749 -4.22675 0
M  V30 3269 C 322.032 -4.59456 -2.48389 0
M  V30 3270 H 323.726 -2.75461 -1.17311 0
M  V30 3271 H 321.272 -1.32542 -0.562896 0
M  V30 3272 H 323.225 -2.25691 -3.55867 0
M  V30 3273 H 321.949 -1.11434 -3.07002 0
M  V30 3274 H 320.608 -3.00984 -2.09294 0
M  V30 3275 H 320.256 -2.31019 -4.4681 0
M  V30 3276 H 319.956 -4.05316 -4.25433 0
M  V30 3277 H 321.48 -3.49887 -5.00412 0
M  V30 3278 H 322.894 -4.79667 -3.13995 0
M  V30 3279 H 321.291 -5.39675 -2.62432 0
M  V30 3280 H 322.361 -4.63155 -1.4358 0
M  V30 3281 N 323.704 0.605807 -1.45491 0
M  V30 3282 C 325.115 1.18777 -1.44045 0
M  V30 3283 C 325.466 1.95471 -0.169001 0
M  V30 3284 O 324.591 2.0374 0.729324 0
M  V30 3285 C 325.186 2.16064 -2.60963 0
M  V30 3286 C 323.745 2.69633 -2.62631 0
M  V30 3287 C 322.892 1.45072 -2.36325 0
M  V30 3288 H 325.843 0.395017 -1.53705 0
M  V30 3289 H 325.864 2.9913 -2.35163 0
M  V30 3290 H 325.376 1.60217 -3.53486 0
M  V30 3291 H 323.477 3.29414 -1.74119 0
M  V30 3292 H 323.59 3.13944 -3.61906 0
M  V30 3293 H 321.954 1.74089 -1.85917 0
M  V30 3294 H 322.737 0.910899 -3.30995 0
M  V30 3295 N 325.182 1.32811 0.848464 0
M  V30 3296 C 326.459 1.14334 1.58704 0
M  V30 3297 C 326.839 -0.293948 2.09043 0
M  V30 3298 O 326.187 -1.29153 1.88499 0
M  V30 3299 C 326.397 2.17626 2.72837 0
M  V30 3300 C 327.745 2.51282 3.42261 0
M  V30 3301 O 328.769 2.16219 2.83068 0
M  V30 3302 O 327.628 3.11413 4.49093 0
M  V30 3303 H 324.722 0.441601 0.699226 0
M  V30 3304 H 327.268 1.44362 0.892053 0
M  V30 3305 H 326.04 3.14211 2.3321 0
M  V30 3306 H 325.663 1.88628 3.50008 0
M  V30 3307 N 326.66 -1.06551 1.16123 0
M  V30 3308 C 327.909 -1.78687 0.935622 0
M  V30 3309 C 328.222 -1.88056 -0.538001 0
M  V30 3310 O 329.428 -2.56794 -0.88143 0
M  V30 3311 C 327.884 -3.21143 1.62466 0
M  V30 3312 C 327.492 -3.19949 3.13587 0
M  V30 3313 C 329.236 -3.9783 1.48092 0
M  V30 3314 C 327.143 -4.57108 3.75241 0
M  V30 3315 H 326.073 -0.669712 0.346412 0
M  V30 3316 H 328.724 -1.19534 1.39226 0
M  V30 3317 H 327.106 -3.80539 1.09572 0
M  V30 3318 H 328.28 -2.70151 3.73303 0
M  V30 3319 H 326.595 -2.5676 3.27816 0
M  V30 3320 H 329.192 -4.99217 1.91538 0
M  V30 3321 H 329.535 -4.14078 0.429507 0
M  V30 3322 H 330.068 -3.4495 1.98127 0
M  V30 3323 H 326.807 -4.46065 4.80319 0
M  V30 3324 H 326.327 -5.07111 3.20309 0
M  V30 3325 H 328.006 -5.26069 3.76644 0
M  V30 3326 N 328.138 -0.959301 -1.25041 0
M  V30 3327 C 329.366 -0.633949 -1.96948 0
M  V30 3328 C 329.781 0.794916 -1.7125 0
M  V30 3329 O 329.138 1.53231 -0.991287 0
M  V30 3330 C 329.189 -0.888805 -3.50403 0
M  V30 3331 O 328.91 -2.26149 -3.75218 0
M  V30 3332 C 330.411 -0.576482 -4.39536 0
M  V30 3333 H 327.631 -0.237263 -0.627652 0
M  V30 3334 H 330.175 -1.28495 -1.59089 0
M  V30 3335 H 328.33 -0.284145 -3.86357 0
M  V30 3336 H 328.744 -2.33514 -4.6965 0
M  V30 3337 H 330.218 -0.805314 -5.46094 0
M  V30 3338 H 330.695 0.489075 -4.36468 0
M  V30 3339 H 331.301 -1.16067 -4.09156 0
M  V30 3340 N 329.616 1.39756 -0.72842 0
M  V30 3341 C 330.841 2.05472 -0.282159 0
M  V30 3342 C 331.266 1.54549 1.07221 0
M  V30 3343 O 330.624 0.686372 1.67805 0
M  V30 3344 C 330.672 3.59462 -0.286264 0
M  V30 3345 O 329.776 4.05918 0.728298 0
M  V30 3346 H 329.117 0.651226 -0.129618 0
M  V30 3347 H 331.647 1.78915 -0.992499 0
M  V30 3348 H 331.657 4.07798 -0.128373 0
M  V30 3349 H 330.332 3.95889 -1.27456 0
M  V30 3350 H 328.909 3.69012 0.537081 0
M  V30 3351 N 331.094 0.475555 1.50254 0
M  V30 3352 C 332.34 -0.0780073 2.0265 0
M  V30 3353 C 332.673 -1.38968 1.35652 0
M  V30 3354 O 331.948 -1.8839 0.483691 0
M  V30 3355 C 332.231 -0.257161 3.59181 0
M  V30 3356 C 332.084 1.07585 4.36744 0
M  V30 3357 C 333.403 -1.00965 4.28362 0
M  V30 3358 H 330.522 -0.0268758 0.73651 0
M  V30 3359 H 333.164 0.622015 1.7953 0
M  V30 3360 H 331.314 -0.853412 3.79011 0
M  V30 3361 H 332.986 1.70902 4.28474 0
M  V30 3362 H 331.229 1.6714 4.00308 0
M  V30 3363 H 331.9 0.904088 5.44546 0
M  V30 3364 H 334.376 -0.504214 4.13034 0
M  V30 3365 H 333.252 -1.10381 5.37687 0
M  V30 3366 H 333.513 -2.04731 3.91839 0
M  V30 3367 N 332.573 -1.56217 0.208337 0
M  V30 3368 C 333.536 -2.18455 -0.693557 0
M  V30 3369 C 334.536 -1.14268 -1.13135 0
M  V30 3370 O 335.726 -1.39577 -1.0423 0
M  V30 3371 C 332.858 -2.79727 -1.94848 0
M  V30 3372 H 334.051 -2.99519 -0.15114 0
M  V30 3373 H 331.604 -1.56245 -0.041287 0
M  V30 3374 H 332.339 -2.02497 -2.53309 0
M  V30 3375 H 332.124 -3.56009 -1.64316 0
M  V30 3376 H 333.614 -3.27475 -2.59133 0
M  V30 3377 N 334.051 0.0651679 -1.57465 0
M  V30 3378 C 334.998 1.07675 -2.04144 0
M  V30 3379 C 335.968 1.38071 -0.923335 0
M  V30 3380 O 337.153 1.49026 -1.19146 0
M  V30 3381 C 334.293 2.38337 -2.49579 0
M  V30 3382 C 333.406 2.14413 -3.75035 0
M  V30 3383 C 332.541 3.38686 -4.09225 0
M  V30 3384 C 331.58 3.10156 -5.27702 0
M  V30 3385 N 330.717 4.26778 -5.57499 0
M  V30 3386 H 335.557 0.671716 -2.90331 0
M  V30 3387 H 333.094 0.3201 -1.43575 0
M  V30 3388 H 335.052 3.14632 -2.73975 0
M  V30 3389 H 333.682 2.7663 -1.6636 0
M  V30 3390 H 332.734 1.2878 -3.57939 0
M  V30 3391 H 334.046 1.89344 -4.61466 0
M  V30 3392 H 333.2 4.23373 -4.34558 0
M  V30 3393 H 331.939 3.66837 -3.21374 0
M  V30 3394 H 330.944 2.23866 -5.02159 0
M  V30 3395 H 332.169 2.8332 -6.17176 0
M  V30 3396 H 330.115 4.54948 -4.72608 0
M  V30 3397 H 330.032 4.05005 -6.38362 0
M  V30 3398 H 331.3 5.12443 -5.87386 0
M  V30 3399 N 335.529 1.53961 0.336706 0
M  V30 3400 C 336.754 1.75797 1.10046 0
M  V30 3401 C 337.179 0.498985 1.81361 0
M  V30 3402 O 336.537 -0.548769 1.72795 0
M  V30 3403 C 336.585 2.94257 2.08436 0
M  V30 3404 O 335.689 2.64883 3.16087 0
M  V30 3405 H 335.03 0.582936 0.317934 0
M  V30 3406 H 337.56 2.00945 0.38501 0
M  V30 3407 H 337.57 3.21237 2.51537 0
M  V30 3408 H 336.245 3.85564 1.55927 0
M  V30 3409 H 334.822 2.48812 2.77753 0
M  V30 3410 N 337.007 -0.598083 1.45811 0
M  V30 3411 C 337.937 -1.71873 1.58057 0
M  V30 3412 C 338.918 -1.64533 0.431615 0
M  V30 3413 O 340.103 -1.82787 0.65595 0
M  V30 3414 C 337.233 -3.10495 1.55597 0
M  V30 3415 C 336.187 -3.32654 2.69305 0
M  V30 3416 C 335.513 -4.71646 2.51902 0
M  V30 3417 C 336.813 -3.21981 4.11248 0
M  V30 3418 H 338.507 -1.61881 2.51863 0
M  V30 3419 H 336.053 -0.777372 1.21214 0
M  V30 3420 H 338.006 -3.88699 1.6276 0
M  V30 3421 H 336.73 -3.2135 0.583255 0
M  V30 3422 H 335.389 -2.56843 2.61586 0
M  V30 3423 H 335.037 -4.79246 1.52748 0
M  V30 3424 H 334.737 -4.87426 3.2816 0
M  V30 3425 H 336.261 -5.52038 2.60933 0
M  V30 3426 H 337.675 -3.90049 4.20161 0
M  V30 3427 H 336.072 -3.49289 4.87972 0
M  V30 3428 H 337.142 -2.1928 4.32486 0
M  V30 3429 N 338.485 -1.33259 -0.841409 0
M  V30 3430 C 339.733 -1.24326 -1.59334 0
M  V30 3431 C 340.054 0.191564 -1.94057 0
M  V30 3432 O 339.324 1.11967 -1.60749 0
M  V30 3433 H 337.904 -0.457174 -0.590763 0
M  V30 3434 H 340.566 -1.66947 -1.00571 0
M  V30 3435 H 339.662 -1.8352 -2.52442 0
M  V30 3436 N 339.963 1.05934 -1.16686 0
M  V30 3437 C 340.926 2.11669 -0.879144 0
M  V30 3438 C 341.926 1.60294 0.127445 0
M  V30 3439 O 343.116 1.7389 -0.103865 0
M  V30 3440 C 340.248 3.39438 -0.315425 0
M  V30 3441 H 341.441 2.38626 -1.81653 0
M  V30 3442 H 338.994 1.22058 -0.976299 0
M  V30 3443 H 339.729 3.18132 0.629468 0
M  V30 3444 H 339.514 3.78034 -1.04079 0
M  V30 3445 H 341.004 4.17391 -0.132189 0
M  V30 3446 N 341.441 0.965919 1.2453 0
M  V30 3447 C 342.388 0.49402 2.25451 0
M  V30 3448 C 343.358 -0.45948 1.59618 0
M  V30 3449 O 344.543 -0.370238 1.87173 0
M  V30 3450 C 341.683 -0.211359 3.44452 0
M  V30 3451 C 340.796 0.7807 4.24887 0
M  V30 3452 C 339.931 0.0516105 5.31175 0
M  V30 3453 C 338.97 1.03385 6.03306 0
M  V30 3454 N 338.107 0.334887 7.01301 0
M  V30 3455 H 342.947 1.35946 2.65184 0
M  V30 3456 H 340.484 0.681515 1.3036 0
M  V30 3457 H 342.442 -0.637 4.12308 0
M  V30 3458 H 341.072 -1.04077 3.05562 0
M  V30 3459 H 340.124 1.32479 3.56586 0
M  V30 3460 H 341.436 1.52978 4.74762 0
M  V30 3461 H 340.59 -0.432114 6.05159 0
M  V30 3462 H 339.329 -0.730179 4.82203 0
M  V30 3463 H 338.334 1.52847 5.28127 0
M  V30 3464 H 339.559 1.81606 6.54367 0
M  V30 3465 H 337.505 -0.427959 6.54603 0
M  V30 3466 H 337.422 1.02287 7.49048 0
M  V30 3467 H 338.69 -0.126928 7.79397 0
M  V30 3468 N 342.919 -1.39368 0.735821 0
M  V30 3469 C 344.147 -2.04795 0.294393 0
M  V30 3470 C 344.562 -1.55478 -1.07107 0
M  V30 3471 O 343.919 -0.720038 -1.67695 0
M  V30 3472 C 343.97 -3.6035 0.288071 0
M  V30 3473 O 343.691 -4.07852 1.59963 0
M  V30 3474 C 345.192 -4.42976 -0.169422 0
M  V30 3475 H 342.412 -0.658571 0.128551 0
M  V30 3476 H 344.956 -1.78399 0.999701 0
M  V30 3477 H 343.111 -3.85645 -0.368355 0
M  V30 3478 H 343.525 -5.02181 1.51375 0
M  V30 3479 H 344.999 -5.51864 -0.122687 0
M  V30 3480 H 345.476 -4.22068 -1.21472 0
M  V30 3481 H 346.082 -4.22832 0.457469 0
M  V30 3482 N 344.397 -0.483516 -1.5 0
M  V30 3483 C 345.643 0.0672592 -2.02688 0
M  V30 3484 C 345.976 1.38247 -1.36387 0
M  V30 3485 O 345.251 1.88131 -0.493675 0
M  V30 3486 C 345.534 0.238109 -3.59312 0
M  V30 3487 C 345.387 -1.099 -4.36168 0
M  V30 3488 C 346.706 0.986916 -4.28892 0
M  V30 3489 H 343.825 0.0229696 -0.736642 0
M  V30 3490 H 346.467 -0.631527 -1.79197 0
M  V30 3491 H 344.617 0.8333 -3.79458 0
M  V30 3492 H 346.289 -1.73172 -4.27562 0
M  V30 3493 H 344.532 -1.69261 -3.99416 0
M  V30 3494 H 345.203 -0.932954 -5.44059 0
M  V30 3495 H 347.679 0.482302 -4.13295 0
M  V30 3496 H 346.555 1.07527 -5.38265 0
M  V30 3497 H 346.816 2.0265 -3.92919 0
M  V30 3498 N 345.875 1.56104 -0.216619 0
M  V30 3499 C 346.838 2.18819 0.681962 0
M  V30 3500 C 347.838 1.14866 1.12528 0
M  V30 3501 O 349.028 1.40128 1.03488 0
M  V30 3502 C 346.16 2.80756 1.93362 0
M  V30 3503 H 347.353 2.99595 0.135254 0
M  V30 3504 H 344.906 1.56265 0.0330003 0
M  V30 3505 H 345.641 2.03837 2.52232 0
M  V30 3506 H 345.426 3.56876 1.62426 0
M  V30 3507 H 346.916 3.28844 2.57393 0
M  V30 3508 N 347.353 -0.0568162 1.57498 0
M  V30 3509 C 348.316 -1.05038 2.03715 0
M  V30 3510 C 349.316 -1.30709 0.936577 0
M  V30 3511 O 350.506 -1.26178 1.20103 0
M  V30 3512 C 347.638 -2.39034 2.43055 0
M  V30 3513 H 348.831 -0.651715 2.92733 0
M  V30 3514 H 346.384 -0.302947 1.53336 0
M  V30 3515 H 347.119 -2.83703 1.57108 0
M  V30 3516 H 346.904 -2.21739 3.2338 0
M  V30 3517 H 348.394 -3.10421 2.79336 0
M  V30 3518 N 348.832 -1.54138 -0.328536 0
M  V30 3519 C 350.248 -1.44736 -0.672574 0
M  V30 3520 C 350.448 -0.616217 -1.91846 0
M  V30 3521 O 349.504 -0.113067 -2.52247 0
M  V30 3522 C 350.817 -2.884 -0.851217 0
M  V30 3523 C 352.365 -2.98271 -0.948877 0
M  V30 3524 C 352.84 -4.43074 -1.15973 0
M  V30 3525 N 354.331 -4.46665 -1.22658 0
M  V30 3526 C 355.066 -5.55857 -1.40751 0
M  V30 3527 N 354.562 -6.75026 -1.5592 0
M  V30 3528 N 356.355 -5.43495 -1.4342 0
M  V30 3529 H 348.506 -2.06661 0.490421 0
M  V30 3530 H 350.769 -0.934812 0.157579 0
M  V30 3531 H 350.475 -3.51699 -0.00704236 0
M  V30 3532 H 350.349 -3.34225 -1.74853 0
M  V30 3533 H 352.736 -2.35102 -1.78356 0
M  V30 3534 H 352.817 -2.55785 -0.0281435 0
M  V30 3535 H 352.461 -5.06827 -0.329915 0
M  V30 3536 H 352.391 -4.83165 -2.09426 0
M  V30 3537 H 354.882 -3.60797 -1.124 0
M  V30 3538 H 355.195 -7.54004 -1.69404 0
M  V30 3539 H 353.54 -6.77944 -1.53027 0
M  V30 3540 H 356.731 -4.49349 -1.31162 0
M  V30 3541 H 356.904 -6.28649 -1.57178 0
M  V30 3542 N 350.31 0.590341 -1.46126 0
M  V30 3543 C 351.273 1.68194 -1.55703 0
M  V30 3544 C 352.273 1.54808 -0.434868 0
M  V30 3545 O 353.463 1.59564 -0.698928 0
M  V30 3546 C 350.595 3.07575 -1.47005 0
M  V30 3547 H 351.788 1.61064 -2.52979 0
M  V30 3548 H 349.341 0.807541 -1.33823 0
M  V30 3549 H 350.076 3.20268 -0.509785 0
M  V30 3550 H 349.861 3.187 -2.28414 0
M  V30 3551 H 351.351 3.87055 -1.56776 0
M  V30 3552 N 351.788 1.33704 0.83433 0
M  V30 3553 C 352.718 1.26967 1.95963 0
M  V30 3554 C 353.699 0.149337 1.69443 0
M  V30 3555 O 354.884 0.339852 1.91203 0
M  V30 3556 C 352.014 1.01275 3.32206 0
M  V30 3557 C 350.968 2.09652 3.73136 0
M  V30 3558 C 350.294 1.69166 5.07235 0
M  V30 3559 C 351.594 3.51372 3.86439 0
M  V30 3560 H 353.288 2.2112 2.01857 0
M  V30 3561 H 350.834 1.06447 0.969793 0
M  V30 3562 H 352.787 0.952106 4.10503 0
M  V30 3563 H 351.511 0.0356203 3.26581 0
M  V30 3564 H 350.17 2.14766 2.97104 0
M  V30 3565 H 349.818 0.701437 4.98085 0
M  V30 3566 H 349.518 2.41694 5.35591 0
M  V30 3567 H 351.042 1.64576 5.88003 0
M  V30 3568 H 352.456 3.48734 4.55036 0
M  V30 3569 H 350.853 4.22425 4.26236 0
M  V30 3570 H 351.923 3.89546 2.88759 0
M  V30 3571 N 353.266 -1.05314 1.17247 0
M  V30 3572 C 354.176 -2.16538 0.90268 0
M  V30 3573 C 355.192 -1.73523 -0.128707 0
M  V30 3574 O 356.368 -2.01337 0.0502701 0
M  V30 3575 C 353.433 -3.44167 0.418356 0
M  V30 3576 C 352.494 -4.01635 1.51618 0
M  V30 3577 C 351.727 -5.23171 1.05487 0
M  V30 3578 O 351.95 -5.70327 -0.0914715 0
M  V30 3579 O 350.884 -5.72848 1.8474 0
M  V30 3580 H 354.71 -2.42145 1.83302 0
M  V30 3581 H 352.295 -1.15037 0.953246 0
M  V30 3582 H 354.177 -4.21112 0.155726 0
M  V30 3583 H 352.852 -3.20063 -0.48385 0
M  V30 3584 H 351.759 -3.26135 1.83268 0
M  V30 3585 H 353.092 -4.30053 2.39405 0
M  V30 3586 N 354.744 -0.972509 -1.24016 0
M  V30 3587 C 355.984 -0.644951 -1.93958 0
M  V30 3588 C 356.348 0.80559 -1.74282 0
M  V30 3589 O 357.549 1.2436 -2.38302 0
M  V30 3590 C 355.82 -1.01521 -3.42678 0
M  V30 3591 S 357.379 -0.802927 -4.31391 0
M  V30 3592 H 354.197 -0.236452 -0.670531 0
M  V30 3593 H 356.799 -1.25048 -1.50277 0
M  V30 3594 H 355.503 -2.06769 -3.54506 0
M  V30 3595 H 355.034 -0.400648 -3.91355 0
M  V30 3596 H 357.049 0.317256 -4.95185 0
M  V30 3597 N 356.222 1.38976 -0.743202 0
M  V30 3598 C 357.155 2.28128 -0.0572165 0
M  V30 3599 C 358.133 1.44827 0.739182 0
M  V30 3600 O 359.317 1.74207 0.720009 0
M  V30 3601 C 356.444 3.25796 0.926001 0
M  V30 3602 C 355.49 4.25947 0.217099 0
M  V30 3603 S 356.323 5.24604 -1.07477 0
M  V30 3604 C 357.479 6.25829 -0.0943545 0
M  V30 3605 H 357.712 2.85961 -0.813246 0
M  V30 3606 H 355.245 1.44822 -0.535341 0
M  V30 3607 H 357.203 3.82583 1.48797 0
M  V30 3608 H 355.864 2.66966 1.65493 0
M  V30 3609 H 355.057 4.94746 0.961372 0
M  V30 3610 H 354.659 3.73002 -0.273059 0
M  V30 3611 H 356.951 6.73411 0.743239 0
M  V30 3612 H 357.894 7.0412 -0.749713 0
M  V30 3613 H 358.302 5.63797 0.281706 0
M  V30 3614 N 357.7 0.491464 1.49741 0
M  V30 3615 C 358.632 -0.328609 2.26832 0
M  V30 3616 C 359.645 -0.939113 1.32983 0
M  V30 3617 O 360.834 -0.824067 1.58339 0
M  V30 3618 C 357.934 -1.47675 3.05033 0
M  V30 3619 C 357.107 -0.975305 4.26388 0
M  V30 3620 C 356.166 -1.99991 4.86714 0
M  V30 3621 O 355.192 -1.57229 5.47054 0
M  V30 3622 N 356.394 -3.32962 4.75517 0
M  V30 3623 H 359.159 0.332377 2.97851 0
M  V30 3624 H 356.72 0.323441 1.58636 0
M  V30 3625 H 358.712 -2.15954 3.42266 0
M  V30 3626 H 357.282 -2.04206 2.36683 0
M  V30 3627 H 356.502 -0.117723 3.94024 0
M  V30 3628 H 357.79 -0.618531 5.05026 0
M  V30 3629 H 357.188 -3.70399 4.27576 0
M  V30 3630 H 355.745 -3.96982 5.16961 0
M  V30 3631 N 359.178 -1.55987 0.224894 0
M  V30 3632 C 360.424 -1.98684 -0.406502 0
M  V30 3633 C 360.757 -1.11248 -1.59177 0
M  V30 3634 O 360.032 -0.170909 -1.93748 0
M  V30 3635 C 360.315 -3.50218 -0.837808 0
M  V30 3636 C 360.168 -4.48426 0.351332 0
M  V30 3637 C 361.487 -4.06243 -1.69278 0
M  V30 3638 H 358.606 -0.722337 -0.146283 0
M  V30 3639 H 361.248 -1.87255 0.321799 0
M  V30 3640 H 359.398 -3.60089 -1.45837 0
M  V30 3641 H 361.07 -4.50562 0.989526 0
M  V30 3642 H 359.313 -4.22159 0.998207 0
M  V30 3643 H 359.984 -5.52 0.00655905 0
M  V30 3644 H 362.46 -3.99337 -1.16914 0
M  V30 3645 H 361.336 -5.12581 -1.96346 0
M  V30 3646 H 361.597 -3.53332 -2.65723 0
M  V30 3647 N 360.656 0.0484629 -1.57525 0
M  V30 3648 C 361.896 0.748196 -1.90214 0
M  V30 3649 C 362.26 1.73545 -0.821347 0
M  V30 3650 O 363.461 2.48201 -1.03198 0
M  V30 3651 C 361.732 1.41727 -3.28098 0
M  V30 3652 S 363.291 2.14884 -3.82584 0
M  V30 3653 H 360.109 0.248307 -0.666232 0
M  V30 3654 H 362.711 0.00343188 -1.955 0
M  V30 3655 H 361.415 0.685244 -4.04639 0
M  V30 3656 H 360.946 2.20099 -3.26068 0
M  V30 3657 H 362.961 3.41755 -3.59747 0
M  V30 3658 N 362.134 1.5431 0.320358 0
M  V30 3659 C 363.081 1.83918 1.39438 0
M  V30 3660 C 364.051 0.686525 1.51248 0
M  V30 3661 O 365.236 0.933269 1.66417 0
M  V30 3662 C 362.376 2.075 2.75749 0
M  V30 3663 C 361.489 3.35177 2.72544 0
M  V30 3664 C 360.624 3.48704 4.00723 0
M  V30 3665 C 359.663 4.70244 3.91838 0
M  V30 3666 N 358.8 4.80679 5.11754 0
M  V30 3667 H 363.64 2.75544 1.13489 0
M  V30 3668 H 361.177 1.36459 0.549309 0
M  V30 3669 H 363.135 2.19166 3.54996 0
M  V30 3670 H 361.765 1.19163 3 0
M  V30 3671 H 360.817 3.32233 1.85271 0
M  V30 3672 H 362.129 4.24534 2.61863 0
M  V30 3673 H 361.283 3.59928 4.88402 0
M  V30 3674 H 360.022 2.57445 4.14214 0
M  V30 3675 H 359.027 4.59072 3.02544 0
M  V30 3676 H 360.252 5.6289 3.7991 0
M  V30 3677 H 358.198 3.92337 5.25745 0
M  V30 3678 H 358.115 5.64007 5.0342 0
M  V30 3679 H 359.383 4.96239 6.01138 0
M  V30 3680 N 363.613 -0.582584 1.46437 0
M  V30 3681 C 364.862 -1.337 1.5102 0
M  V30 3682 C 365.175 -1.94891 0.166359 0
M  V30 3683 O 366.381 -2.71351 0.0899954 0
M  V30 3684 C 364.837 -2.42315 2.66104 0
M  V30 3685 C 364.445 -1.87427 4.06909 0
M  V30 3686 C 366.189 -3.19099 2.79958 0
M  V30 3687 C 364.096 -2.93672 5.13333 0
M  V30 3688 H 363.026 -0.502619 0.562041 0
M  V30 3689 H 365.677 -0.621701 1.72647 0
M  V30 3690 H 364.059 -3.16645 2.37807 0
M  V30 3691 H 365.233 -1.19639 4.44998 0
M  V30 3692 H 363.548 -1.2331 3.97723 0
M  V30 3693 H 366.145 -3.9839 3.56636 0
M  V30 3694 H 366.488 -3.71695 1.87479 0
M  V30 3695 H 367.021 -2.51875 3.07902 0
M  V30 3696 H 363.76 -2.45962 6.07604 0
M  V30 3697 H 363.28 -3.59948 4.79789 0
M  V30 3698 H 364.959 -3.5762 5.39182 0
M  V30 3699 N 365.091 -1.34144 -0.827227 0
M  V30 3700 C 366.041 -1.21923 -1.92663 0
M  V30 3701 C 367.025 -0.119294 -1.60457 0
M  V30 3702 O 368.217 -0.348539 -1.73534 0
M  V30 3703 C 365.346 -0.972492 -3.29238 0
M  V30 3704 C 364.432 -2.1154 -3.67576 0
M  V30 3705 N 364.823 -3.36627 -3.77512 0
M  V30 3706 C 363.121 -2.02468 -3.97395 0
M  V30 3707 C 363.822 -4.11658 -4.1099 0
M  V30 3708 N 362.798 -3.40207 -4.23981 0
M  V30 3709 H 366.6 -2.16721 -1.98517 0
M  V30 3710 H 364.114 -1.2632 -1.02064 0
M  V30 3711 H 366.111 -0.865847 -4.0781 0
M  V30 3712 H 364.771 -0.0331509 -3.24683 0
M  V30 3713 H 365.782 -3.71234 -3.61118 0
M  V30 3714 H 362.459 -1.16265 -4.00985 0
M  V30 3715 H 363.849 -5.19657 -4.25918 0
M  V30 3716 N 366.569 1.04691 -1.17803 0
M  V30 3717 C 367.794 1.81984 -0.994813 0
M  V30 3718 C 368.219 1.82586 0.452112 0
M  V30 3719 O 367.577 1.23854 1.324 0
M  V30 3720 C 367.625 3.2575 -1.54659 0
M  V30 3721 O 366.729 4.05267 -0.763728 0
M  V30 3722 H 366.07 0.562483 -0.352857 0
M  V30 3723 H 368.6 1.3189 -1.56417 0
M  V30 3724 H 368.61 3.76541 -1.57102 0
M  V30 3725 H 367.285 3.24627 -2.59981 0
M  V30 3726 H 365.862 3.63972 -0.811108 0
M  V30 3727 N 368.047 0.979072 1.23499 0
M  V30 3728 C 368.957 0.526431 2.28617 0
M  V30 3729 C 369.973 -0.418126 1.68901 0
M  V30 3730 O 371.149 -0.288372 1.99325 0
M  V30 3731 C 368.214 -0.165235 3.46306 0
M  V30 3732 C 367.275 0.82056 4.21385 0
M  V30 3733 C 366.508 0.161807 5.33455 0
M  V30 3734 O 366.731 -1.04742 5.60701 0
M  V30 3735 O 365.665 0.859708 5.95729 0
M  V30 3736 H 369.491 1.4006 2.69475 0
M  V30 3737 H 367.076 0.746643 1.29405 0
M  V30 3738 H 368.958 -0.553287 4.17752 0
M  V30 3739 H 367.633 -1.01419 3.07402 0
M  V30 3740 H 366.54 1.25929 3.52268 0
M  V30 3741 H 367.873 1.63828 4.64135 0
M  V30 3742 N 369.525 -1.3858 0.750561 0
M  V30 3743 C 370.771 -2.00481 0.305825 0
M  V30 3744 C 371.104 -1.5944 -1.10872 0
M  V30 3745 O 370.379 -0.83052 -1.75877 0
M  V30 3746 C 370.662 -3.5758 0.425287 0
M  V30 3747 C 370.515 -4.08594 1.88072 0
M  V30 3748 C 371.834 -4.39719 -0.183122 0
M  V30 3749 H 368.953 -0.728348 0.112598 0
M  V30 3750 H 371.595 -1.64566 0.949638 0
M  V30 3751 H 369.745 -3.88306 -0.122828 0
M  V30 3752 H 371.417 -3.88523 2.48691 0
M  V30 3753 H 369.66 -3.61574 2.39681 0
M  V30 3754 H 370.331 -5.177 1.91548 0
M  V30 3755 H 372.807 -4.15128 0.284303 0
M  V30 3756 H 371.683 -5.48856 -0.0692757 0
M  V30 3757 H 371.944 -4.23434 -1.27106 0
M  V30 3758 N 371.003 -0.499398 -1.49478 0
M  V30 3759 C 372.249 0.0457576 -2.02748 0
M  V30 3760 C 372.582 1.36793 -1.37846 0
M  V30 3761 O 371.857 1.87596 -0.513601 0
M  V30 3762 C 372.14 0.199986 -3.59544 0
M  V30 3763 C 371.993 -1.1452 -4.34977 0
M  V30 3764 C 373.312 0.94137 -4.29914 0
M  V30 3765 H 370.431 0.0151552 -0.736844 0
M  V30 3766 H 373.073 -0.650498 -1.78518 0
M  V30 3767 H 371.223 0.793007 -3.8032 0
M  V30 3768 H 372.895 -1.77697 -4.25701 0
M  V30 3769 H 371.138 -1.73488 -3.97598 0
M  V30 3770 H 371.809 -0.990607 -5.43039 0
M  V30 3771 H 374.285 0.43844 -4.13784 0
M  V30 3772 H 373.161 1.01812 -5.39375 0
M  V30 3773 H 373.422 1.98471 -3.95046 0
M  V30 3774 N 372.481 1.55866 -0.233164 0
M  V30 3775 C 373.391 2.24431 0.683217 0
M  V30 3776 C 374.407 1.2558 1.2044 0
M  V30 3777 O 375.583 1.58422 1.24356 0
M  V30 3778 C 372.648 2.91979 1.86947 0
M  V30 3779 C 371.709 4.06204 1.38912 0
M  V30 3780 C 370.942 4.70522 2.51883 0
M  V30 3781 O 371.165 4.33865 3.70293 0
M  V30 3782 O 370.099 5.59296 2.22423 0
M  V30 3783 H 373.925 3.03426 0.129059 0
M  V30 3784 H 371.51 1.494 -0.0022283 0
M  V30 3785 H 373.392 3.34573 2.56201 0
M  V30 3786 H 372.067 2.15935 2.41151 0
M  V30 3787 H 370.974 3.68155 0.664259 0
M  V30 3788 H 372.307 4.84025 0.893328 0
M  V30 3789 N 373.959 -0.0401083 1.57549 0
M  V30 3790 C 375.236 -0.767917 1.79896 0
M  V30 3791 C 375.616 -1.9416 0.82856 0
M  V30 3792 O 374.964 -2.2812 -0.131671 0
M  V30 3793 C 375.174 -1.2113 3.27305 0
M  V30 3794 C 376.522 -1.63175 3.91994 0
M  V30 3795 O 377.546 -1.30616 3.31388 0
M  V30 3796 O 376.405 -2.23565 4.98679 0
M  V30 3797 H 373.499 -0.370441 0.739393 0
M  V30 3798 H 376.045 -0.017737 1.69691 0
M  V30 3799 H 374.817 -0.372937 3.89519 0
M  V30 3800 H 374.44 -2.02183 3.42356 0
M  V30 3801 N 375.437 -1.54477 -0.31217 0
M  V30 3802 C 376.665 -1.77205 -1.068 0
M  V30 3803 C 377.08 -0.526114 -1.81321 0
M  V30 3804 O 376.437 0.503647 -1.75413 0
M  V30 3805 C 376.488 -2.97253 -2.05725 0
M  V30 3806 O 376.209 -4.1703 -1.34228 0
M  V30 3807 C 377.71 -3.32281 -2.93435 0
M  V30 3808 H 374.93 -0.591287 -0.317208 0
M  V30 3809 H 377.474 -2.01398 -0.354834 0
M  V30 3810 H 375.629 -2.753 -2.72559 0
M  V30 3811 H 376.043 -4.84636 -2.00571 0
M  V30 3812 H 377.517 -4.19551 -3.58721 0
M  V30 3813 H 377.994 -2.49945 -3.61143 0
M  V30 3814 H 378.6 -3.56353 -2.32147 0
M  V30 3815 N 376.915 0.57481 -1.46744 0
M  V30 3816 C 377.825 1.711 -1.60505 0
M  V30 3817 C 378.841 1.67008 -0.488307 0
M  V30 3818 O 380.017 1.86774 -0.753495 0
M  V30 3819 C 377.082 3.07608 -1.59932 0
M  V30 3820 C 376.143 3.22904 -2.82898 0
M  V30 3821 C 375.376 4.529 -2.82343 0
M  V30 3822 O 375.599 5.37278 -1.91542 0
M  V30 3823 O 374.533 4.71611 -3.73987 0
M  V30 3824 H 378.359 1.62436 -2.56609 0
M  V30 3825 H 375.944 0.742779 -1.29627 0
M  V30 3826 H 377.826 3.88877 -1.62336 0
M  V30 3827 H 376.501 3.16692 -0.669898 0
M  V30 3828 H 375.408 2.41099 -2.86046 0
M  V30 3829 H 376.741 3.18715 -3.75076 0
M  V30 3830 N 378.394 1.34581 0.820102 0
M  V30 3831 C 379.357 1.2628 1.91275 0
M  V30 3832 C 380.357 0.177344 1.59819 0
M  V30 3833 O 381.547 0.430156 1.68806 0
M  V30 3834 C 378.679 0.950327 3.27386 0
M  V30 3835 H 379.872 2.23421 2.00057 0
M  V30 3836 H 377.425 1.1891 1.0144 0
M  V30 3837 H 378.16 -0.0177938 3.24295 0
M  V30 3838 H 377.945 1.73549 3.51601 0
M  V30 3839 H 379.435 0.917492 4.07396 0
M  V30 3840 N 379.872 -1.04064 1.18357 0
M  V30 3841 C 381.118 -1.77528 0.980397 0
M  V30 3842 C 381.451 -1.87948 -0.48879 0
M  V30 3843 O 380.726 -1.3876 -1.36293 0
M  V30 3844 C 381.009 -3.20797 1.63588 0
M  V30 3845 C 380.862 -3.1832 3.17793 0
M  V30 3846 C 382.181 -4.18911 1.34914 0
M  V30 3847 H 379.3 -0.644443 0.357578 0
M  V30 3848 H 381.942 -1.2156 1.46024 0
M  V30 3849 H 380.092 -3.68586 1.22788 0
M  V30 3850 H 381.764 -2.78521 3.67728 0
M  V30 3851 H 380.007 -2.56351 3.49952 0
M  V30 3852 H 380.678 -4.19489 3.58794 0
M  V30 3853 H 383.154 -3.7967 1.70265 0
M  V30 3854 H 382.03 -5.17374 1.83346 0
M  V30 3855 H 382.291 -4.41262 0.272027 0
M  V30 3856 N 381.35 -0.985608 -1.22978 0
M  V30 3857 C 382.575 -0.675254 -1.961 0
M  V30 3858 C 383 0.752154 -1.72407 0
M  V30 3859 O 382.358 1.5131 -0.998751 0
M  V30 3860 C 382.406 -0.977899 -3.47087 0
M  V30 3861 O 381.51 -0.072685 -4.12336 0
M  V30 3862 H 380.851 -0.253443 -0.613728 0
M  V30 3863 H 383.381 -1.32061 -1.56272 0
M  V30 3864 H 383.391 -0.916739 -3.97567 0
M  V30 3865 H 382.066 -2.01807 -3.63657 0
M  V30 3866 H 380.643 -0.188703 -3.72422 0
M  V30 3867 N 382.828 1.3818 -0.7579 0
M  V30 3868 C 383.791 2.28764 -0.141286 0
M  V30 3869 C 384.791 1.47388 0.642907 0
M  V30 3870 O 385.981 1.67781 0.468536 0
M  V30 3871 C 383.113 3.31184 0.808069 0
M  V30 3872 H 384.306 2.848 -0.939633 0
M  V30 3873 H 381.859 1.47212 -0.525191 0
M  V30 3874 H 382.594 2.80247 1.63193 0
M  V30 3875 H 382.379 3.91314 0.248104 0
M  V30 3876 H 383.869 3.98909 1.23536 0
M  V30 3877 N 384.306 0.507319 1.49211 0
M  V30 3878 C 385.552 -0.0350047 2.0277 0
M  V30 3879 C 385.885 -1.3606 1.38569 0
M  V30 3880 O 385.16 -1.87321 0.523542 0
M  V30 3881 C 385.443 -0.180916 3.59645 0
M  V30 3882 C 385.296 1.16825 4.34364 0
M  V30 3883 C 386.615 -0.918558 4.30407 0
M  V30 3884 H 383.734 -0.0112473 0.736914 0
M  V30 3885 H 386.376 0.659956 1.7817 0
M  V30 3886 H 384.526 -0.772826 3.80736 0
M  V30 3887 H 386.198 1.79952 4.24753 0
M  V30 3888 H 384.441 1.75594 3.96673 0
M  V30 3889 H 385.112 1.01939 5.42506 0
M  V30 3890 H 387.588 -0.41649 4.1401 0
M  V30 3891 H 386.464 -0.989505 5.39907 0
M  V30 3892 H 386.725 -1.96373 3.96093 0
M  V30 3893 N 385.784 -1.5574 0.241426 0
M  V30 3894 C 386.716 -2.18469 -0.693091 0
M  V30 3895 C 387.729 -1.15942 -1.14286 0
M  V30 3896 O 388.918 -1.42832 -1.07058 0
M  V30 3897 C 386.018 -2.7696 -1.95311 0
M  V30 3898 C 385.191 -4.04853 -1.65568 0
M  V30 3899 C 384.25 -4.47715 -2.76474 0
M  V30 3900 O 383.276 -5.14205 -2.44094 0
M  V30 3901 N 384.478 -4.15044 -4.05855 0
M  V30 3902 H 387.243 -2.99292 -0.156388 0
M  V30 3903 H 384.804 -1.61784 0.0611752 0
M  V30 3904 H 386.796 -3.02594 -2.68736 0
M  V30 3905 H 385.366 -2.00326 -2.39975 0
M  V30 3906 H 384.586 -3.86865 -0.756886 0
M  V30 3907 H 385.874 -4.88246 -1.43153 0
M  V30 3908 H 385.272 -3.61654 -4.34998 0
M  V30 3909 H 383.829 -4.45526 -4.75762 0
M  V30 3910 N 387.262 0.0317525 -1.57568 0
M  V30 3911 C 388.194 1.06073 -2.03178 0
M  V30 3912 C 389.207 1.32627 -0.944132 0
M  V30 3913 O 390.396 1.30162 -1.22148 0
M  V30 3914 C 387.496 2.40297 -2.38978 0
M  V30 3915 C 386.669 2.33137 -3.70089 0
M  V30 3916 C 385.728 3.49787 -3.9311 0
M  V30 3917 O 384.754 3.29403 -4.64201 0
M  V30 3918 N 385.956 4.71562 -3.38541 0
M  V30 3919 H 388.721 0.672006 -2.92069 0
M  V30 3920 H 386.282 0.219745 -1.60402 0
M  V30 3921 H 388.274 3.1705 -2.51518 0
M  V30 3922 H 386.844 2.71024 -1.55771 0
M  V30 3923 H 386.064 1.415 -3.67928 0
M  V30 3924 H 387.352 2.25493 -4.56104 0
M  V30 3925 H 386.75 4.91024 -2.80912 0
M  V30 3926 H 385.307 5.45689 -3.56464 0
M  V30 3927 N 388.74 1.54641 0.303973 0
M  V30 3928 C 389.67 1.88386 1.3796 0
M  V30 3929 C 390.651 0.742485 1.5304 0
M  V30 3930 O 391.836 0.997959 1.66597 0
M  V30 3931 C 388.966 2.12854 2.74427 0
M  V30 3932 C 387.92 3.28702 2.74115 0
M  V30 3933 C 387.246 3.38582 4.13844 0
M  V30 3934 C 388.546 4.65881 2.3612 0
M  V30 3935 H 390.24 2.78474 1.09966 0
M  V30 3936 H 387.786 1.33988 0.527556 0
M  V30 3937 H 389.739 2.35047 3.49758 0
M  V30 3938 H 388.463 1.19535 3.03939 0
M  V30 3939 H 387.122 3.06428 2.0124 0
M  V30 3940 H 386.77 2.42784 4.40528 0
M  V30 3941 H 386.47 4.16453 4.14537 0
M  V30 3942 H 387.994 3.63031 4.90959 0
M  V30 3943 H 389.408 4.87823 3.01167 0
M  V30 3944 H 387.805 5.46444 2.48031 0
M  V30 3945 H 388.875 4.66799 1.3125 0
M  V30 3946 N 390.218 -0.567019 1.47046 0
M  V30 3947 C 391.148 -1.68482 1.61667 0
M  V30 3948 C 392.129 -1.6358 0.466418 0
M  V30 3949 O 393.314 -1.81354 0.694574 0
M  V30 3950 C 390.444 -3.07124 1.62148 0
M  V30 3951 C 389.398 -3.26867 2.76301 0
M  V30 3952 C 388.724 -4.66196 2.61849 0
M  V30 3953 C 390.024 -3.13186 4.17986 0
M  V30 3954 H 391.718 -1.56502 2.5524 0
M  V30 3955 H 389.264 -0.751486 1.22836 0
M  V30 3956 H 391.217 -3.8516 1.70968 0
M  V30 3957 H 389.941 -3.2004 0.651287 0
M  V30 3958 H 388.6 -2.51237 2.66975 0
M  V30 3959 H 388.248 -4.75898 1.62879 0
M  V30 3960 H 387.948 -4.80356 3.38425 0
M  V30 3961 H 389.472 -5.46379 2.72584 0
M  V30 3962 H 390.886 -3.81049 4.2834 0
M  V30 3963 H 389.283 -3.3886 4.95272 0
M  V30 3964 H 390.353 -2.10057 4.3704 0
M  V30 3965 N 391.696 -1.35014 -0.812953 0
M  V30 3966 C 392.973 -1.18502 -1.55617 0
M  V30 3967 C 393.353 0.238421 -2.09749 0
M  V30 3968 O 392.701 1.2411 -1.91857 0
M  V30 3969 C 392.911 -2.24783 -2.66971 0
M  V30 3970 C 394.259 -2.60268 -3.35478 0
M  V30 3971 O 395.283 -2.23648 -2.77236 0
M  V30 3972 O 394.142 -3.2321 -4.40678 0
M  V30 3973 H 391.236 -0.459984 -0.687272 0
M  V30 3974 H 393.782 -1.46677 -0.853464 0
M  V30 3975 H 392.554 -3.20284 -2.24798 0
M  V30 3976 H 392.177 -1.97841 -3.44884 0
M  V30 3977 N 393.175 1.03435 -1.18907 0
M  V30 3978 C 394.452 1.73778 -0.89781 0
M  V30 3979 C 394.832 2.02458 0.597832 0
M  V30 3980 O 394.18 1.67482 1.55441 0
M  V30 3981 C 394.39 3.01845 -1.75187 0
M  V30 3982 C 395.738 3.7546 -1.9828 0
M  V30 3983 O 396.762 3.11759 -1.72293 0
M  V30 3984 O 395.621 4.89966 -2.42065 0
M  V30 3985 H 392.715 0.75651 -0.334098 0
M  V30 3986 H 395.261 1.09444 -1.29693 0
M  V30 3987 H 394.033 2.76836 -2.76545 0
M  V30 3988 H 393.656 3.73919 -1.35167 0
M  V30 3989 N 394.653 0.992116 1.22453 0
M  V30 3990 C 395.563 0.55065 2.28046 0
M  V30 3991 C 396.579 -0.400189 1.69335 0
M  V30 3992 O 397.755 -0.267215 1.99619 0
M  V30 3993 C 394.82 -0.128496 3.46462 0
M  V30 3994 C 393.881 0.865208 4.20491 0
M  V30 3995 C 393.114 0.218377 5.33253 0
M  V30 3996 O 393.337 -0.987894 5.6178 0
M  V30 3997 O 392.271 0.922845 5.94783 0
M  V30 3998 H 396.097 1.4291 2.67975 0
M  V30 3999 H 393.682 0.760326 1.28606 0
M  V30 4000 H 395.564 -0.508947 4.18315 0
M  V30 4001 H 394.239 -0.981526 3.0846 0
M  V30 4002 H 393.146 1.29658 3.50913 0
M  V30 4003 H 394.479 1.68741 4.62371 0
M  V30 4004 N 396.131 -1.37776 0.765217 0
M  V30 4005 C 397.547 -1.53297 0.444108 0
M  V30 4006 C 397.747 -1.72515 -1.04119 0
M  V30 4007 O 396.803 -1.74278 -1.82711 0
M  V30 4008 C 398.116 -2.73328 1.25349 0
M  V30 4009 C 399.664 -2.87185 1.24473 0
M  V30 4010 C 400.139 -4.10191 2.03733 0
M  V30 4011 N 401.63 -4.17291 2.01053 0
M  V30 4012 C 402.365 -5.11488 2.59166 0
M  V30 4013 N 401.861 -6.11285 3.26041 0
M  V30 4014 N 403.654 -5.03924 2.49032 0
M  V30 4015 H 395.805 -1.23552 1.72768 0
M  V30 4016 H 398.068 -0.601103 0.733062 0
M  V30 4017 H 397.774 -2.6557 2.30577 0
M  V30 4018 H 397.648 -3.66834 0.87823 0
M  V30 4019 H 400.035 -2.94418 0.20047 0
M  V30 4020 H 400.116 -1.94657 1.65959 0
M  V30 4021 H 399.76 -4.0372 3.08176 0
M  V30 4022 H 399.69 -5.01821 1.59633 0
M  V30 4023 H 402.181 -3.45825 1.5236 0
M  V30 4024 H 402.494 -6.79678 3.67774 0
M  V30 4025 H 400.839 -6.11583 3.30138 0
M  V30 4026 H 404.03 -4.24902 1.96407 0
M  V30 4027 H 404.203 -5.77152 2.94617 0
M  V30 4028 N 397.609 -0.515225 -1.4894 0
M  V30 4029 C 398.542 0.302518 -2.26186 0
M  V30 4030 C 399.52 0.957895 -1.31389 0
M  V30 4031 O 400.704 0.985198 -1.60705 0
M  V30 4032 C 397.831 1.42719 -3.07163 0
M  V30 4033 C 396.877 0.884736 -4.17223 0
M  V30 4034 S 397.71 -0.235767 -5.34981 0
M  V30 4035 C 398.866 0.891731 -6.19515 0
M  V30 4036 H 399.099 -0.353076 -2.95196 0
M  V30 4037 H 396.632 -0.300753 -1.51443 0
M  V30 4038 H 398.59 2.07152 -3.54398 0
M  V30 4039 H 397.251 2.05445 -2.37595 0
M  V30 4040 H 396.444 1.72801 -4.73451 0
M  V30 4041 H 396.046 0.317362 -3.72651 0
M  V30 4042 H 398.338 1.79377 -6.53322 0
M  V30 4043 H 399.281 0.367751 -7.07144 0
M  V30 4044 H 399.689 1.16548 -5.52338 0
M  V30 4045 N 399.087 1.5561 -0.249682 0
M  V30 4046 C 400.017 2.24477 0.642826 0
M  V30 4047 C 400.998 1.22601 1.17911 0
M  V30 4048 O 402.183 1.5126 1.21795 0
M  V30 4049 C 399.313 2.94638 1.83863 0
M  V30 4050 C 398.267 4.03227 1.435 0
M  V30 4051 C 397.593 4.60828 2.71186 0
M  V30 4052 C 398.893 5.18796 0.604002 0
M  V30 4053 H 400.587 2.99321 0.0685625 0
M  V30 4054 H 398.133 1.43965 0.0315363 0
M  V30 4055 H 400.086 3.41517 2.46868 0
M  V30 4056 H 398.81 2.17287 2.43832 0
M  V30 4057 H 397.469 3.57121 0.828275 0
M  V30 4058 H 397.117 3.80174 3.29358 0
M  V30 4059 H 396.817 5.34132 2.44901 0
M  V30 4060 H 398.341 5.10442 3.35084 0
M  V30 4061 H 399.755 5.61883 1.13842 0
M  V30 4062 H 398.152 5.98506 0.437097 0
M  V30 4063 H 399.222 4.83384 -0.383147 0
M  V30 4064 N 400.565 -0.0233959 1.57583 0
M  V30 4065 C 401.811 -0.714119 1.89811 0
M  V30 4066 C 402.144 -1.74702 0.848113 0
M  V30 4067 O 401.419 -1.94023 -0.136135 0
M  V30 4068 C 401.702 -1.37853 3.32669 0
M  V30 4069 C 401.555 -0.358764 4.48367 0
M  V30 4070 C 402.874 -2.31101 3.7454 0
M  V30 4071 H 399.993 -0.25814 0.690314 0
M  V30 4072 H 402.635 0.0230927 1.89986 0
M  V30 4073 H 400.785 -2.00689 3.3265 0
M  V30 4074 H 402.457 0.268115 4.6052 0
M  V30 4075 H 400.7 0.321387 4.32608 0
M  V30 4076 H 401.371 -0.862242 5.45224 0
M  V30 4077 H 403.847 -1.78304 3.75961 0
M  V30 4078 H 402.723 -2.74567 4.75294 0
M  V30 4079 H 402.984 -3.18018 3.0711 0
M  V30 4080 N 402.043 -1.548 -0.295768 0
M  V30 4081 C 402.953 -1.89177 -1.38742 0
M  V30 4082 C 403.969 -0.786481 -1.55211 0
M  V30 4083 O 405.145 -1.08344 -1.69775 0
M  V30 4084 C 402.21 -2.13663 -2.73036 0
M  V30 4085 C 401.271 -3.37349 -2.65508 0
M  V30 4086 C 400.504 -3.60658 -3.93398 0
M  V30 4087 O 400.727 -2.86882 -4.93006 0
M  V30 4088 O 399.661 -4.54179 -3.94975 0
M  V30 4089 H 403.487 -2.82059 -1.12589 0
M  V30 4090 H 401.072 -1.41056 -0.492295 0
M  V30 4091 H 402.954 -2.3094 -3.52484 0
M  V30 4092 H 401.629 -1.23967 -2.99022 0
M  V30 4093 H 400.536 -3.25431 -1.84514 0
M  V30 4094 H 401.869 -4.27192 -2.44474 0
M  V30 4095 N 403.521 0.559213 -1.47345 0
M  V30 4096 C 404.932 1.14134 -1.47751 0
M  V30 4097 C 405.283 1.94834 -0.231103 0
M  V30 4098 O 404.408 2.05957 0.664137 0
M  V30 4099 C 405.003 2.07653 -2.67705 0
M  V30 4100 C 403.562 2.61141 -2.71076 0
M  V30 4101 C 402.709 1.3748 -2.40821 0
M  V30 4102 H 405.66 0.345917 -1.54884 0
M  V30 4103 H 405.681 2.91497 -2.44561 0
M  V30 4104 H 405.193 1.4889 -3.58404 0
M  V30 4105 H 403.294 3.23707 -1.84511 0
M  V30 4106 H 403.407 3.02272 -3.7171 0
M  V30 4107 H 401.771 1.68086 -1.91362 0
M  V30 4108 H 402.554 0.805135 -3.33725 0
M  V30 4109 N 404.999 1.35443 0.805782 0
M  V30 4110 C 405.962 1.28301 1.89925 0
M  V30 4111 C 406.962 0.194285 1.59622 0
M  V30 4112 O 408.152 0.448036 1.6834 0
M  V30 4113 C 405.284 0.984997 3.2636 0
M  V30 4114 H 406.477 2.2553 1.97677 0
M  V30 4115 H 404.03 1.19979 1.00173 0
M  V30 4116 H 404.765 0.016603 3.24296 0
M  V30 4117 H 404.55 1.77269 3.4974 0
M  V30 4118 H 406.04 0.960651 4.064 0
M  V30 4119 N 406.477 -1.02803 1.19454 0
M  V30 4120 C 407.717 -1.77769 1.00883 0
M  V30 4121 C 408.081 -1.86596 -0.45233 0
M  V30 4122 O 409.282 -2.57895 -0.757877 0
M  V30 4123 C 407.553 -3.16486 1.66046 0
M  V30 4124 S 409.112 -4.07632 1.62424 0
M  V30 4125 H 405.93 -0.611949 0.361993 0
M  V30 4126 H 408.532 -1.23175 1.51816 0
M  V30 4127 H 407.236 -3.0768 2.7159 0
M  V30 4128 H 406.767 -3.76156 1.15196 0
M  V30 4129 H 408.782 -4.91937 0.64903 0
M  V30 4130 N 407.956 -0.998596 -1.21925 0
M  V30 4131 C 409.204 -0.676325 -1.90448 0
M  V30 4132 C 409.525 0.794719 -1.78071 0
M  V30 4133 O 408.795 1.5701 -1.17152 0
M  V30 4134 H 407.375 -0.247165 -0.704925 0
M  V30 4135 H 410.037 -1.26633 -1.48156 0
M  V30 4136 H 409.133 -0.943858 -2.97486 0
M  V30 4137 N 409.434 1.37368 -0.772513 0
M  V30 4138 C 410.397 2.28601 -0.165541 0
M  V30 4139 C 411.397 1.48062 0.627238 0
M  V30 4140 O 412.587 1.68268 0.450715 0
M  V30 4141 C 409.719 3.32023 0.772897 0
M  V30 4142 H 410.912 2.83787 -0.969787 0
M  V30 4143 H 408.465 1.46647 -0.540775 0
M  V30 4144 H 409.2 2.81962 1.60212 0
M  V30 4145 H 408.985 3.91555 0.206585 0
M  V30 4146 H 410.475 4.00197 1.19298 0
M  V30 4147 N 410.912 0.523116 1.48665 0
M  V30 4148 C 411.875 -0.232592 2.28017 0
M  V30 4149 C 412.875 -0.874021 1.34972 0
M  V30 4150 O 414.065 -0.735132 1.57929 0
M  V30 4151 C 411.197 -1.33586 3.13636 0
M  V30 4152 H 412.39 0.464008 2.96289 0
M  V30 4153 H 409.943 0.278816 1.53793 0
M  V30 4154 H 410.678 -2.06593 2.4998 0
M  V30 4155 H 410.463 -0.881125 3.82071 0
M  V30 4156 H 411.953 -1.86759 3.73511 0
M  V30 4157 N 412.39 -1.55475 0.257931 0
M  V30 4158 C 413.32 -2.24815 -0.630912 0
M  V30 4159 C 414.301 -1.23224 -1.17259 0
M  V30 4160 O 415.486 -1.51904 -1.20991 0
M  V30 4161 C 412.616 -2.95609 -1.82298 0
M  V30 4162 C 411.57 -4.03982 -1.41359 0
M  V30 4163 C 410.896 -4.6226 -2.68738 0
M  V30 4164 C 412.196 -5.19109 -0.57648 0
M  V30 4165 H 413.89 -2.99354 -0.0526878 0
M  V30 4166 H 411.436 -1.4398 -0.023901 0
M  V30 4167 H 413.389 -3.42822 -2.45054 0
M  V30 4168 H 412.113 -2.18577 -2.42676 0
M  V30 4169 H 410.772 -3.57555 -0.809324 0
M  V30 4170 H 410.42 -3.81915 -3.27338 0
M  V30 4171 H 410.12 -5.35424 -2.42065 0
M  V30 4172 H 411.644 -5.12212 -3.32372 0
M  V30 4173 H 413.058 -5.62479 -1.10861 0
M  V30 4174 H 411.455 -5.98729 -0.405351 0
M  V30 4175 H 412.525 -4.83174 0.408776 0
M  V30 4176 N 413.868 0.0150385 -1.57593 0
M  V30 4177 C 414.831 0.995996 -2.06428 0
M  V30 4178 C 415.831 1.2818 -0.970903 0
M  V30 4179 O 417.021 1.22949 -1.23406 0
M  V30 4180 C 414.153 2.32506 -2.49307 0
M  V30 4181 H 415.346 0.573873 -2.94358 0
M  V30 4182 H 412.899 0.262186 -1.54085 0
M  V30 4183 H 413.634 2.79438 -1.64575 0
M  V30 4184 H 413.419 2.13087 -3.29145 0
M  V30 4185 H 414.909 3.02906 -2.87468 0
M  V30 4186 N 415.346 1.54954 0.287554 0
M  V30 4187 C 416.309 1.86076 1.33823 0
M  V30 4188 C 417.309 0.734414 1.43049 0
M  V30 4189 O 418.499 1.00266 1.42452 0
M  V30 4190 C 415.631 2.05305 2.72144 0
M  V30 4191 H 416.824 2.79984 1.07465 0
M  V30 4192 H 414.377 1.47223 0.524902 0
M  V30 4193 H 415.112 1.1373 3.03704 0
M  V30 4194 H 414.897 2.873 2.66836 0
M  V30 4195 H 416.387 2.30706 3.48087 0
M  V30 4196 N 416.824 -0.551391 1.4764 0
M  V30 4197 C 418.073 -1.30467 1.53822 0
M  V30 4198 C 418.386 -1.94495 0.207661 0
M  V30 4199 O 419.592 -2.71099 0.147533 0
M  V30 4200 C 418.048 -2.36616 2.71184 0
M  V30 4201 C 417.656 -1.78754 4.10793 0
M  V30 4202 C 419.4 -3.13088 2.86663 0
M  V30 4203 C 417.307 -2.82717 5.19447 0
M  V30 4204 H 416.237 -0.490584 0.572576 0
M  V30 4205 H 418.888 -0.58494 1.73927 0
M  V30 4206 H 417.27 -3.11529 2.4447 0
M  V30 4207 H 418.444 -1.10173 4.47435 0
M  V30 4208 H 416.759 -1.14846 4.00249 0
M  V30 4209 H 419.356 -3.90736 3.65007 0
M  V30 4210 H 419.699 -3.67635 1.95321 0
M  V30 4211 H 420.232 -2.45288 3.13175 0
M  V30 4212 H 416.971 -2.33018 6.12685 0
M  V30 4213 H 416.491 -3.4969 4.87316 0
M  V30 4214 H 418.17 -3.46102 5.46646 0
M  V30 4215 N 418.302 -1.35869 -0.798587 0
M  V30 4216 C 419.532 -1.32529 -1.58491 0
M  V30 4217 C 419.94 0.0975405 -1.88948 0
M  V30 4218 O 419.283 1.06224 -1.49874 0
M  V30 4219 C 419.345 -2.07247 -2.9375 0
M  V30 4220 C 419.009 -3.56391 -2.86068 0
M  V30 4221 C 420.006 -4.50824 -2.58947 0
M  V30 4222 C 417.691 -3.9915 -3.04933 0
M  V30 4223 C 419.685 -5.85993 -2.5078 0
M  V30 4224 C 417.372 -5.34413 -2.96389 0
M  V30 4225 C 418.37 -6.27646 -2.69349 0
M  V30 4226 O 418.058 -7.60426 -2.60782 0
M  V30 4227 H 417.79 -0.456529 -0.498556 0
M  V30 4228 H 420.344 -1.79425 -0.999799 0
M  V30 4229 H 418.574 -1.55001 -3.54276 0
M  V30 4230 H 420.263 -1.96883 -3.54954 0
M  V30 4231 H 421.029 -4.19104 -2.44084 0
M  V30 4232 H 416.908 -3.26961 -3.24989 0
M  V30 4233 H 420.452 -6.58735 -2.29595 0
M  V30 4234 H 416.349 -5.65743 -3.10813 0
M  V30 4235 H 417.117 -7.70444 -2.76331 0
M  V30 4236 N 419.78 1.02168 -1.19998 0
M  V30 4237 C 421.005 1.79833 -1.03319 0
M  V30 4238 C 421.43 1.83504 0.413281 0
M  V30 4239 O 420.788 1.26635 1.29743 0
M  V30 4240 C 420.836 3.22396 -1.61533 0
M  V30 4241 O 419.94 4.03555 -0.849519 0
M  V30 4242 H 419.281 0.554872 -0.364709 0
M  V30 4243 H 421.811 1.28542 -1.59179 0
M  V30 4244 H 421.821 3.73124 -1.65054 0
M  V30 4245 H 420.496 3.19039 -2.66809 0
M  V30 4246 H 419.073 3.62169 -0.888129 0
M  V30 4247 N 421.258 1.00505 1.21394 0
M  V30 4248 C 422.506 0.686415 1.90086 0
M  V30 4249 C 422.827 -0.785264 1.7849 0
M  V30 4250 O 422.097 -1.56387 1.17983 0
M  V30 4251 H 420.677 0.2509 0.703604 0
M  V30 4252 H 423.339 1.27417 1.47482 0
M  V30 4253 H 422.435 0.959621 2.96981 0
M  V30 4254 N 422.737 -1.36956 0.779787 0
M  V30 4255 C 423.667 -2.32761 0.185651 0
M  V30 4256 C 424.648 -1.56177 -0.673989 0
M  V30 4257 O 425.833 -1.84378 -0.609797 0
M  V30 4258 C 422.963 -3.40418 -0.687964 0
M  V30 4259 C 421.917 -4.27941 0.0710102 0
M  V30 4260 C 421.243 -5.26681 -0.922573 0
M  V30 4261 C 422.543 -5.07006 1.25467 0
M  V30 4262 H 424.237 -2.82698 0.986008 0
M  V30 4263 H 421.783 -1.3592 0.475592 0
M  V30 4264 H 423.736 -4.06423 -1.11348 0
M  V30 4265 H 422.46 -2.89025 -1.52093 0
M  V30 4266 H 421.119 -3.63478 0.47739 0
M  V30 4267 H 420.767 -4.71565 -1.7503 0
M  V30 4268 H 420.467 -5.86103 -0.419237 0
M  V30 4269 H 421.991 -5.9556 -1.34686 0
M  V30 4270 H 423.405 -5.66105 0.905401 0
M  V30 4271 H 421.802 -5.75793 1.69063 0
M  V30 4272 H 422.872 -4.3921 2.05481 0
M  V30 4273 N 424.215 -0.530993 -1.48385 0
M  V30 4274 C 425.145 0.219985 -2.32461 0
M  V30 4275 C 426.126 0.934111 -1.42156 0
M  V30 4276 O 427.311 0.919694 -1.71042 0
M  V30 4277 C 424.441 1.26674 -3.23375 0
M  V30 4278 C 423.395 0.67069 -4.22712 0
M  V30 4279 C 422.721 1.82017 -5.02766 0
M  V30 4280 C 424.021 -0.358268 -5.2107 0
M  V30 4281 H 425.715 -0.48187 -2.95497 0
M  V30 4282 H 423.261 -0.233182 -1.42099 0
M  V30 4283 H 425.214 1.80006 -3.81019 0
M  V30 4284 H 423.938 1.99818 -2.58341 0
M  V30 4285 H 422.597 0.158878 -3.66256 0
M  V30 4286 H 422.245 2.54002 -4.34157 0
M  V30 4287 H 421.945 1.42727 -5.70003 0
M  V30 4288 H 423.469 2.35725 -5.63264 0
M  V30 4289 H 424.883 0.0880081 -5.73232 0
M  V30 4290 H 423.28 -0.66861 -5.96364 0
M  V30 4291 H 424.35 -1.26367 -4.68145 0
M  V30 4292 N 425.693 1.55336 -0.266172 0
M  V30 4293 C 427.109 1.59356 0.0882065 0
M  V30 4294 C 427.309 1.2834 1.55342 0
M  V30 4295 O 426.365 1.03996 2.30089 0
M  V30 4296 C 427.678 2.99409 -0.278364 0
M  V30 4297 C 429.226 3.12196 -0.224243 0
M  V30 4298 C 429.701 4.545 -0.565123 0
M  V30 4299 N 431.192 4.60313 -0.51634 0
M  V30 4300 C 431.927 5.68434 -0.753013 0
M  V30 4301 N 431.423 6.84738 -1.05383 0
M  V30 4302 N 433.216 5.57942 -0.682414 0
M  V30 4303 H 425.367 1.73764 -1.22147 0
M  V30 4304 H 427.63 0.809822 -0.492841 0
M  V30 4305 H 427.336 3.2691 -1.29703 0
M  V30 4306 H 427.21 3.75228 0.385186 0
M  V30 4307 H 429.597 2.84464 0.78512 0
M  V30 4308 H 429.678 2.38609 -0.921922 0
M  V30 4309 H 429.322 4.82956 -1.57213 0
M  V30 4310 H 429.252 5.26374 0.154248 0
M  V30 4311 H 431.743 3.7676 -0.29335 0
M  V30 4312 H 432.056 7.63088 -1.22133 0
M  V30 4313 H 430.401 6.86375 -1.09151 0
M  V30 4314 H 433.592 4.65958 -0.44731 0
M  V30 4315 H 433.765 6.4213 -0.870248 0
M  V30 4316 N 427.171 -0.0066808 1.57599 0
M  V30 4317 C 428.587 -0.36267 1.55425 0
M  V30 4318 C 428.787 -1.75209 0.995187 0
M  V30 4319 O 427.843 -2.44616 0.626058 0
M  V30 4320 C 429.156 -0.244017 2.99708 0
M  V30 4321 C 430.704 -0.319451 3.11366 0
M  V30 4322 C 431.179 -0.229998 4.57422 0
M  V30 4323 N 432.67 -0.288105 4.62303 0
M  V30 4324 C 433.405 -0.242127 5.72889 0
M  V30 4325 N 432.901 -0.147133 6.92644 0
M  V30 4326 N 434.694 -0.293502 5.61333 0
M  V30 4327 H 426.845 0.902314 1.92281 0
M  V30 4328 H 429.108 0.34525 0.882896 0
M  V30 4329 H 428.814 0.711678 3.44424 0
M  V30 4330 H 428.688 -1.02877 3.629 0
M  V30 4331 H 431.075 -1.26559 2.66584 0
M  V30 4332 H 431.156 0.495055 2.50964 0
M  V30 4333 H 430.8 0.712566 5.02877 0
M  V30 4334 H 430.73 -1.0629 5.15761 0
M  V30 4335 H 433.221 -0.363126 3.76151 0
M  V30 4336 H 433.534 -0.117763 7.7271 0
M  V30 4337 H 431.879 -0.112857 6.94908 0
M  V30 4338 H 435.07 -0.365864 4.66668 0
M  V30 4339 H 435.243 -0.254204 6.47501 0
M  V30 4340 N 428.649 -1.55105 -0.279332 0
M  V30 4341 C 429.579 -1.90557 -1.34945 0
M  V30 4342 C 430.56 -0.766738 -1.51839 0
M  V30 4343 O 431.745 -1.02434 -1.64988 0
M  V30 4344 C 428.875 -2.17193 -2.71006 0
M  V30 4345 C 427.829 -3.33021 -2.68851 0
M  V30 4346 C 427.155 -3.45123 -4.08405 0
M  V30 4347 C 428.455 -4.69578 -2.28678 0
M  V30 4348 H 430.149 -2.80188 -1.05522 0
M  V30 4349 H 427.695 -1.34811 -0.506173 0
M  V30 4350 H 429.648 -2.40581 -3.45975 0
M  V30 4351 H 428.372 -1.24355 -3.01999 0
M  V30 4352 H 427.031 -3.0959 -1.9634 0
M  V30 4353 H 426.679 -2.49762 -4.3661 0
M  V30 4354 H 426.379 -4.22995 -4.07859 0
M  V30 4355 H 427.903 -3.70796 -4.85121 0
M  V30 4356 H 429.317 -4.92553 -2.93368 0
M  V30 4357 H 427.714 -5.5032 -2.39306 0
M  V30 4358 H 428.784 -4.68828 -1.23807 0
M  V30 4359 N 430.127 0.543554 -1.4793 0
M  V30 4360 C 431.059 1.665 -1.57513 0
M  V30 4361 C 432.072 1.56156 -0.460333 0
M  V30 4362 O 433.261 1.62865 -0.730573 0
M  V30 4363 C 430.361 3.05063 -1.47614 0
M  V30 4364 C 429.534 3.41024 -2.739 0
M  V30 4365 C 428.593 4.58809 -2.57645 0
M  V30 4366 O 427.619 4.62707 -3.31498 0
M  V30 4367 N 428.821 5.56149 -1.66368 0
M  V30 4368 H 431.586 1.5872 -2.5422 0
M  V30 4369 H 429.147 0.730517 -1.44482 0
M  V30 4370 H 431.139 3.81712 -1.34455 0
M  V30 4371 H 429.709 3.06994 -0.589359 0
M  V30 4372 H 428.929 2.53687 -3.01723 0
M  V30 4373 H 430.217 3.61831 -3.57709 0
M  V30 4374 H 429.615 5.55767 -1.05543 0
M  V30 4375 H 428.172 6.32071 -1.59154 0
M  V30 4376 N 431.605 1.3629 0.791371 0
M  V30 4377 C 432.568 1.30309 1.88553 0
M  V30 4378 C 433.568 0.211204 1.59407 0
M  V30 4379 O 434.758 0.465865 1.67855 0
M  V30 4380 C 431.89 1.01956 3.25297 0
M  V30 4381 H 433.083 2.27614 1.95273 0
M  V30 4382 H 430.636 1.21035 0.988953 0
M  V30 4383 H 431.371 0.050998 3.2426 0
M  V30 4384 H 431.156 1.80968 3.4784 0
M  V30 4385 H 432.646 1.0037 4.05359 0
M  V30 4386 N 433.083 -1.0153 1.20538 0
M  V30 4387 C 433.993 -2.13557 0.971113 0
M  V30 4388 C 435.009 -1.73845 -0.0734366 0
M  V30 4389 O 436.185 -2.01075 0.114299 0
M  V30 4390 C 433.25 -3.42661 0.527639 0
M  V30 4391 C 432.311 -3.96608 1.64319 0
M  V30 4392 C 431.544 -5.1955 1.22078 0
M  V30 4393 O 431.767 -5.70329 0.0900198 0
M  V30 4394 O 430.701 -5.66681 2.02871 0
M  V30 4395 H 434.527 -2.3619 1.90913 0
M  V30 4396 H 432.112 -1.11946 0.989362 0
M  V30 4397 H 433.994 -4.20404 0.289621 0
M  V30 4398 H 432.669 -3.21441 -0.381779 0
M  V30 4399 H 431.576 -3.20139 1.93551 0
M  V30 4400 H 432.909 -4.22219 2.52966 0
M  V30 4401 N 434.561 -1.01147 -1.20859 0
M  V30 4402 C 435.809 -0.696486 -1.89719 0
M  V30 4403 C 436.13 0.775788 -1.78904 0
M  V30 4404 O 435.4 1.55759 -1.18811 0
M  V30 4405 H 433.98 -0.254628 -0.702263 0
M  V30 4406 H 436.642 -1.28197 -1.46804 0
M  V30 4407 H 435.738 -0.975357 -2.96468 0
M  V30 4408 N 436.039 1.36541 -0.78704 0
M  V30 4409 C 437.279 2.01138 -0.363714 0
M  V30 4410 C 437.643 1.61114 1.04433 0
M  V30 4411 O 438.844 2.18285 1.56861 0
M  V30 4412 C 437.115 3.53603 -0.519582 0
M  V30 4413 S 438.674 4.38415 -0.183782 0
M  V30 4414 H 435.492 0.697263 -0.13909 0
M  V30 4415 H 438.094 1.66475 -1.02501 0
M  V30 4416 H 436.798 3.8022 -1.5447 0
M  V30 4417 H 436.329 3.93084 0.15773 0
M  V30 4418 H 438.344 4.85698 1.01547 0
M  V30 4419 N 437.518 0.538854 1.48102 0
M  V30 4420 C 438.448 -0.207654 2.32575 0
M  V30 4421 C 439.429 -0.926559 1.4265 0
M  V30 4422 O 440.614 -0.91061 1.71527 0
M  V30 4423 C 437.744 -1.24957 3.24042 0
M  V30 4424 C 436.698 -0.648263 4.23062 0
M  V30 4425 C 436.024 -1.79348 5.03725 0
M  V30 4426 C 437.324 0.385897 5.20872 0
M  V30 4427 H 439.018 0.497534 2.95237 0
M  V30 4428 H 436.564 0.240715 1.41974 0
M  V30 4429 H 438.517 -1.77983 3.81969 0
M  V30 4430 H 437.241 -1.98446 2.59397 0
M  V30 4431 H 435.9 -0.139452 3.66335 0
M  V30 4432 H 435.548 -2.51696 4.35498 0
M  V30 4433 H 435.248 -1.39702 5.70751 0
M  V30 4434 H 436.772 -2.32735 5.64506 0
M  V30 4435 H 438.186 -0.057607 5.73271 0
M  V30 4436 H 436.583 0.700227 5.96001 0
M  V30 4437 H 437.653 1.28848 4.67468 0
M  V30 4438 N 438.996 -1.55193 0.274407 0
M  V30 4439 C 440.407 -1.85358 -0.223488 0
M  V30 4440 C 440.758 -1.19642 -1.555 0
M  V30 4441 O 439.883 -0.484498 -2.10907 0
M  V30 4442 C 440.478 -3.36282 -0.412285 0
M  V30 4443 C 439.037 -3.66574 -0.854413 0
M  V30 4444 C 438.184 -2.7725 0.0527056 0
M  V30 4445 H 441.135 -1.50743 0.496215 0
M  V30 4446 H 441.156 -3.59349 -1.25094 0
M  V30 4447 H 440.668 -3.84083 0.556965 0
M  V30 4448 H 438.769 -3.24273 -1.83516 0
M  V30 4449 H 438.882 -4.74073 -0.692226 0
M  V30 4450 H 437.246 -2.50447 -0.463484 0
M  V30 4451 H 438.029 -3.27865 1.01783 0
M  V30 4452 N 440.474 -0.00167713 -1.576 0
M  V30 4453 C 441.885 0.54091 -1.78693 0
M  V30 4454 C 442.236 1.7386 -0.909247 0
M  V30 4455 O 441.361 2.16109 -0.112176 0
M  V30 4456 C 441.956 0.98806 -3.24072 0
M  V30 4457 C 440.515 1.47594 -3.46256 0
M  V30 4458 C 439.662 0.42792 -2.73978 0
M  V30 4459 H 442.613 -0.22784 -1.57056 0
M  V30 4460 H 442.634 1.85398 -3.32277 0
M  V30 4461 H 442.146 0.116164 -3.87926 0
M  V30 4462 H 440.247 2.36868 -2.87618 0
M  V30 4463 H 440.36 1.50225 -4.54939 0
M  V30 4464 H 438.724 0.889934 -2.38647 0
M  V30 4465 H 439.507 -0.435038 -3.40532 0
M  V30 4466 N 441.952 1.55251 0.271103 0
M  V30 4467 C 443.177 1.80306 1.02491 0
M  V30 4468 C 443.602 0.575457 1.79081 0
M  V30 4469 O 442.96 -0.474987 1.74967 0
M  V30 4470 C 443.008 3.02832 1.95768 0
M  V30 4471 O 442.112 2.78051 3.04568 0
M  V30 4472 H 441.453 0.595896 0.292923 0
M  V30 4473 H 443.983 2.02397 0.299436 0
M  V30 4474 H 443.993 3.31616 2.37686 0
M  V30 4475 H 442.668 3.9183 1.39434 0
M  V30 4476 H 441.245 2.60369 2.66951 0
M  V30 4477 N 443.43 -0.535701 1.48216 0
M  V30 4478 C 444.36 -1.65014 1.65204 0
M  V30 4479 C 445.341 -1.62554 0.501011 0
M  V30 4480 O 446.526 -1.7984 0.732886 0
M  V30 4481 C 443.656 -3.03616 1.68626 0
M  V30 4482 C 442.61 -3.20932 2.83172 0
M  V30 4483 C 441.936 -4.60537 2.71679 0
M  V30 4484 C 443.236 -3.04249 4.24535 0
M  V30 4485 H 444.93 -1.51053 2.58502 0
M  V30 4486 H 442.476 -0.725262 1.24402 0
M  V30 4487 H 444.429 -3.81446 1.79099 0
M  V30 4488 H 443.153 -3.18587 0.719026 0
M  V30 4489 H 441.812 -2.45517 2.72244 0
M  V30 4490 H 441.46 -4.72336 1.72937 0
M  V30 4491 H 441.16 -4.73069 3.48538 0
M  V30 4492 H 442.684 -5.40475 2.84112 0
M  V30 4493 H 444.098 -3.71877 4.36326 0
M  V30 4494 H 442.495 -3.28278 5.02348 0
M  V30 4495 H 443.565 -2.00739 4.41397 0
M  V30 4496 N 444.908 -1.36708 -0.784132 0
M  V30 4497 C 446.136 -1.34398 -1.57305 0
M  V30 4498 C 446.551 0.0735577 -1.88657 0
M  V30 4499 O 445.908 1.03193 -1.50524 0
M  V30 4500 C 445.959 -2.17053 -2.89085 0
M  V30 4501 O 445.68 -3.53281 -2.59083 0
M  V30 4502 C 447.181 -2.22583 -3.83369 0
M  V30 4503 H 444.401 -0.460819 -0.487736 0
M  V30 4504 H 446.945 -1.79879 -0.972819 0
M  V30 4505 H 445.1 -1.75113 -3.45564 0
M  V30 4506 H 445.514 -3.9647 -3.43383 0
M  V30 4507 H 446.988 -2.84763 -4.72878 0
M  V30 4508 H 447.465 -1.23075 -4.21603 0
M  V30 4509 H 448.071 -2.64781 -3.32823 0
M  V30 4510 N 446.386 1.0089 -1.21074 0
M  V30 4511 C 447.611 1.78727 -1.05221 0
M  V30 4512 C 448.036 1.83932 0.393795 0
M  V30 4513 O 447.394 1.28004 1.28393 0
M  V30 4514 C 447.442 3.20665 -1.64944 0
M  V30 4515 O 446.546 4.02632 -0.892273 0
M  V30 4516 H 445.887 0.550973 -0.370574 0
M  V30 4517 H 448.417 1.26847 -1.60534 0
M  V30 4518 H 448.427 3.71352 -1.69002 0
M  V30 4519 H 447.102 3.16191 -2.70177 0
M  V30 4520 H 445.679 3.61207 -0.926492 0
M  V30 4521 N 447.864 1.01787 1.20321 0
M  V30 4522 C 449.11 0.708985 1.90003 0
M  V30 4523 C 449.443 -0.759572 1.78729 0
M  V30 4524 O 448.718 -1.55198 1.17234 0
M  V30 4525 C 449.001 1.1469 3.41348 0
M  V30 4526 C 448.854 2.67586 3.61549 0
M  V30 4527 C 450.173 0.71915 4.34185 0
M  V30 4528 H 447.292 0.259034 0.689978 0
M  V30 4529 H 449.934 1.26584 1.41692 0
M  V30 4530 H 448.084 0.673128 3.82624 0
M  V30 4531 H 449.756 3.22826 3.29517 0
M  V30 4532 H 447.999 3.085 3.04976 0
M  V30 4533 H 448.67 2.93281 4.67643 0
M  V30 4534 H 451.146 1.12647 4.00562 0
M  V30 4535 H 450.022 1.05358 5.38694 0
M  V30 4536 H 450.283 -0.379111 4.40472 0
M  V30 4537 N 449.342 -1.36122 0.79427 0
M  V30 4538 C 450.588 -1.99406 0.369452 0
M  V30 4539 C 450.921 -1.62886 -1.05743 0
M  V30 4540 O 450.196 -0.886053 -1.73145 0
M  V30 4541 C 450.479 -3.56046 0.538833 0
M  V30 4542 C 450.332 -4.02404 2.00976 0
M  V30 4543 C 451.651 -4.40079 -0.0431359 0
M  V30 4544 H 448.77 -0.724397 0.135712 0
M  V30 4545 H 451.412 -1.61461 1.00151 0
M  V30 4546 H 449.562 -3.885 0.000771004 0
M  V30 4547 H 451.234 -3.80415 2.60926 0
M  V30 4548 H 449.477 -3.53765 2.51063 0
M  V30 4549 H 450.148 -5.11344 2.07922 0
M  V30 4550 H 452.624 -4.14013 0.416228 0
M  V30 4551 H 451.5 -5.48799 0.105374 0
M  V30 4552 H 451.761 -4.27264 -1.13571 0
M  V30 4553 N 450.82 -0.546701 -1.47814 0
M  V30 4554 C 452.066 -0.0187684 -2.02791 0
M  V30 4555 C 452.399 1.32338 -1.42128 0
M  V30 4556 O 451.674 1.85867 -0.573023 0
M  V30 4557 C 451.957 0.0854985 -3.59998 0
M  V30 4558 C 451.81 -1.283 -4.31114 0
M  V30 4559 C 453.129 0.80412 -4.32691 0
M  V30 4560 H 450.248 -0.0082946 -0.736953 0
M  V30 4561 H 452.89 -0.706962 -1.76358 0
M  V30 4562 H 451.04 0.671609 -3.82651 0
M  V30 4563 H 452.712 -1.91151 -4.19832 0
M  V30 4564 H 450.955 -1.86049 -3.91878 0
M  V30 4565 H 451.626 -1.16287 -5.39612 0
M  V30 4566 H 454.102 0.306576 -4.14969 0
M  V30 4567 H 452.978 0.846011 -5.42341 0
M  V30 4568 H 453.239 1.85802 -4.01161 0
M  V30 4569 N 452.299 1.55045 -0.282633 0
M  V30 4570 C 453.548 1.98938 0.332667 0
M  V30 4571 C 453.861 1.17455 1.56409 0
M  V30 4572 O 455.067 1.51527 2.25282 0
M  V30 4573 C 453.523 3.54105 0.643226 0
M  V30 4574 C 453.131 4.44374 -0.568814 0
M  V30 4575 C 454.875 4.06569 1.22074 0
M  V30 4576 C 452.782 5.90943 -0.232426 0
M  V30 4577 H 451.712 0.743043 0.128075 0
M  V30 4578 H 454.363 1.79341 -0.388464 0
M  V30 4579 H 452.745 3.69532 1.42346 0
M  V30 4580 H 453.919 4.40718 -1.34551 0
M  V30 4581 H 452.234 4.02585 -1.06369 0
M  V30 4582 H 454.831 5.13626 1.48635 0
M  V30 4583 H 455.174 3.56057 2.15707 0
M  V30 4584 H 455.707 3.94612 0.502621 0
M  V30 4585 H 452.446 6.45567 -1.13683 0
M  V30 4586 H 451.966 5.9765 0.507357 0
M  V30 4587 H 453.645 6.4677 0.172657 0
M  V30 4588 N 453.777 0.010035 1.57597 0
M  V30 4589 C 455.023 -0.673697 1.91283 0
M  V30 4590 C 455.356 -1.72863 0.884979 0
M  V30 4591 O 454.631 -1.94268 -0.0949487 0
M  V30 4592 C 454.914 -1.30766 3.35518 0
M  V30 4593 C 454.767 -0.263578 4.49027 0
M  V30 4594 C 456.086 -2.23105 3.79358 0
M  V30 4595 H 453.205 -0.243439 0.695634 0
M  V30 4596 H 455.847 0.0633864 1.89894 0
M  V30 4597 H 453.997 -1.93588 3.36832 0
M  V30 4598 H 455.669 0.365738 4.59848 0
M  V30 4599 H 453.912 0.413077 4.31829 0
M  V30 4600 H 454.583 -0.746398 5.4693 0
M  V30 4601 H 457.059 -1.70289 3.79659 0
M  V30 4602 H 455.935 -2.64424 4.81011 0
M  V30 4603 H 456.196 -3.11433 3.13787 0
M  V30 4604 N 455.255 -1.55392 -0.262866 0
M  V30 4605 C 456.495 -1.78231 -1.00064 0
M  V30 4606 C 456.859 -0.576966 -1.83126 0
M  V30 4607 O 458.06 -0.683809 -2.59957 0
M  V30 4608 C 456.331 -3.05701 -1.85153 0
M  V30 4609 S 457.89 -3.49699 -2.65058 0
M  V30 4610 H 454.708 -0.626138 -0.336856 0
M  V30 4611 H 457.31 -1.93626 -0.27005 0
M  V30 4612 H 456.014 -3.91511 -1.23074 0
M  V30 4613 H 455.545 -2.93 -2.62515 0
M  V30 4614 H 457.56 -3.09772 -3.87629 0
M  V30 4615 N 456.733 0.527833 -1.48498 0
M  V30 4616 C 457.981 1.28101 -1.56316 0
M  V30 4617 C 458.302 1.9352 -0.239781 0
M  V30 4618 O 457.572 1.81433 0.738849 0
M  V30 4619 H 456.152 0.475793 -0.575873 0
M  V30 4620 H 458.814 0.614052 -1.84974 0
M  V30 4621 H 457.91 2.05916 -2.34532 0
M  V30 4622 N 458.211 1.37122 0.776871 0
M  V30 4623 C 459.459 1.31787 1.53221 0
M  V30 4624 C 459.78 -0.0987589 1.9475 0
M  V30 4625 O 459.05 -1.0417 1.65908 0
M  V30 4626 H 457.63 0.484839 0.568278 0
M  V30 4627 H 460.292 1.71556 0.924917 0
M  V30 4628 H 459.388 1.95355 2.43398 0
M  V30 4629 N 459.689 -1.00246 1.21608 0
M  V30 4630 C 460.637 -2.11193 0.97469 0
M  V30 4631 C 461.631 -1.69216 -0.0789303 0
M  V30 4632 O 462.837 -1.79853 0.0726806 0
M  V30 4633 H 459.212 -0.690455 0.297953 0
M  V30 4634 H 461.183 -2.2873 1.91638 0
M  V30 4635 C 459.932 -3.43182 0.558717 0
M  V30 4636 H 459.255 -3.75918 1.3611 0
M  V30 4637 H 460.695 -4.21823 0.429154 0
M  V30 4638 C 459.154 -3.28882 -0.730648 0
M  V30 4639 O 459.684 -3.59835 -1.78554 0
M  V30 4640 N 457.89 -2.8209 -0.698131 0
M  V30 4641 H 457.437 -2.57099 0.16061 0
M  V30 4642 H 457.395 -2.72903 -1.56113 0
M  V30 4643 N 461.167 -1.02423 -1.1978 0
M  V30 4644 C 462.115 -0.594474 -2.24875 0
M  V30 4645 C 463.109 0.370598 -1.65296 0
M  V30 4646 O 464.315 0.239684 -1.78397 0
M  V30 4647 H 460.69 -0.173961 -0.731602 0
M  V30 4648 H 462.661 -1.4916 -2.58445 0
M  V30 4649 C 461.41 0.0436512 -3.47673 0
M  V30 4650 H 460.733 -0.689963 -3.93801 0
M  V30 4651 H 462.173 0.307362 -4.22884 0
M  V30 4652 C 460.632 1.28881 -3.11274 0
M  V30 4653 O 461.162 2.38135 -3.23503 0
M  V30 4654 N 459.368 1.1758 -2.6575 0
M  V30 4655 H 458.915 0.286769 -2.55999 0
M  V30 4656 H 458.873 2.00988 -2.41767 0
M  V30 4657 N 462.645 1.35699 -0.801477 0
M  V30 4658 C 463.894 1.98165 -0.375979 0
M  V30 4659 C 464.207 1.64306 1.06127 0
M  V30 4660 O 465.413 2.20097 1.58964 0
M  V30 4661 C 463.869 3.54497 -0.621305 0
M  V30 4662 C 463.477 3.9727 -2.07076 0
M  V30 4663 C 465.221 4.23697 -0.26091 0
M  V30 4664 C 463.128 5.46427 -2.26211 0
M  V30 4665 H 462.058 0.741478 -0.136844 0
M  V30 4666 H 464.709 1.54834 -0.984814 0
M  V30 4667 H 463.091 3.95958 0.0574112 0
M  V30 4668 H 464.265 3.66974 -2.78687 0
M  V30 4669 H 462.58 3.40943 -2.39054 0
M  V30 4670 H 465.177 5.33334 -0.381994 0
M  V30 4671 H 465.52 4.0869 0.792344 0
M  V30 4672 H 466.053 3.87639 -0.893339 0
M  V30 4673 H 462.792 5.66396 -3.29963 0
M  V30 4674 H 462.312 5.78309 -1.59119 0
M  V30 4675 H 463.991 6.12819 -2.07513 0
M  V30 4676 N 464.123 0.554532 1.47522 0
M  V30 4677 C 465.071 -0.207765 2.3167 0
M  V30 4678 C 466.065 -0.911914 1.4276 0
M  V30 4679 O 467.271 -0.833504 1.59539 0
M  V30 4680 H 463.646 -0.0858726 0.747081 0
M  V30 4681 H 465.617 0.521178 2.93813 0
M  V30 4682 C 464.366 -1.2263 3.25357 0
M  V30 4683 H 463.689 -0.693887 3.93732 0
M  V30 4684 H 465.129 -1.73062 3.87073 0
M  V30 4685 C 463.588 -2.27278 2.4869 0
M  V30 4686 O 464.118 -3.34156 2.22941 0
M  V30 4687 N 462.324 -2.01134 2.09746 0
M  V30 4688 H 461.871 -1.14232 2.30887 0
M  V30 4689 H 461.829 -2.71369 1.58765 0
M  V30 4690 N 465.601 -1.54893 0.290851 0
M  V30 4691 C 466.826 -2.04804 -0.32712 0
M  V30 4692 C 467.251 -1.16721 -1.47506 0
M  V30 4693 O 466.609 -0.169107 -1.8051 0
M  V30 4694 C 466.657 -3.52268 -0.770689 0
M  V30 4695 O 465.761 -3.67236 -1.87647 0
M  V30 4696 H 465.102 -0.660789 -0.0652227 0
M  V30 4697 H 467.632 -2.00036 0.429739 0
M  V30 4698 H 467.642 -3.9393 -1.06223 0
M  V30 4699 H 466.317 -4.15843 0.069096 0
M  V30 4700 H 464.894 -3.37479 -1.58626 0
M  V30 4701 N 467.08 -0.0183926 -1.57589 0
M  V30 4702 C 468.496 0.337897 -1.55982 0
M  V30 4703 C 468.696 1.73604 -1.02294 0
M  V30 4704 O 467.752 2.43589 -0.664895 0
M  V30 4705 C 469.065 0.196305 -3.00059 0
M  V30 4706 C 470.613 0.269875 -3.11834 0
M  V30 4707 C 471.088 0.157197 -4.5773 0
M  V30 4708 N 472.579 0.214521 -4.62703 0
M  V30 4709 C 473.314 0.150955 -5.73201 0
M  V30 4710 N 472.81 0.0369212 -6.9279 0
M  V30 4711 N 474.603 0.204162 -5.61729 0
M  V30 4712 H 466.754 -0.93279 -1.90821 0
M  V30 4713 H 469.017 -0.359253 -0.877292 0
M  V30 4714 H 468.723 -0.766383 -3.43248 0
M  V30 4715 H 468.597 0.970908 -3.6449 0
M  V30 4716 H 470.984 1.22302 -2.68563 0
M  V30 4717 H 471.065 -0.534918 -2.50144 0
M  V30 4718 H 470.709 -0.792479 -5.01679 0
M  V30 4719 H 470.639 0.980717 -5.17387 0
M  V30 4720 H 473.13 0.303238 -3.76681 0
M  V30 4721 H 473.443 -0.00518321 -7.728 0
M  V30 4722 H 471.788 0.0022886 -6.95 0
M  V30 4723 H 474.979 0.291575 -4.67191 0
M  V30 4724 H 475.152 0.15116 -6.47824 0
M  V30 4725 N 468.558 1.5553 0.254621 0
M  V30 4726 C 469.468 1.92789 1.33677 0
M  V30 4727 C 470.484 0.827356 1.53071 0
M  V30 4728 O 471.66 1.12807 1.66843 0
M  V30 4729 C 468.725 2.20827 2.67275 0
M  V30 4730 C 467.786 3.4427 2.5647 0
M  V30 4731 C 467.019 3.70961 3.83697 0
M  V30 4732 O 467.242 2.99852 4.85227 0
M  V30 4733 O 466.176 4.64491 3.82794 0
M  V30 4734 H 470.002 2.84945 1.05071 0
M  V30 4735 H 467.587 1.42312 0.454723 0
M  V30 4736 H 469.469 2.40204 3.46237 0
M  V30 4737 H 468.144 1.31851 2.9563 0
M  V30 4738 H 467.051 3.30209 1.75821 0
M  V30 4739 H 468.384 4.33524 2.33062 0
M  V30 4740 N 470.036 -0.519951 1.48776 0
M  V30 4741 C 470.966 -1.63253 1.66945 0
M  V30 4742 C 471.947 -1.62014 0.518224 0
M  V30 4743 O 473.132 -1.79053 0.751919 0
M  V30 4744 C 470.262 -3.0181 1.71836 0
M  V30 4745 C 469.216 -3.17911 2.8656 0
M  V30 4746 C 468.542 -4.5763 2.76548 0
M  V30 4747 C 469.842 -2.99729 4.27738 0
M  V30 4748 H 471.536 -1.48302 2.6009 0
M  V30 4749 H 469.082 -0.712026 1.25165 0
M  V30 4750 H 471.035 -3.79525 1.83135 0
M  V30 4751 H 469.759 -3.17806 0.752775 0
M  V30 4752 H 468.418 -2.42616 2.74833 0
M  V30 4753 H 468.066 -4.70476 1.77937 0
M  V30 4754 H 467.766 -4.69346 3.53536 0
M  V30 4755 H 469.29 -5.37431 2.89828 0
M  V30 4756 H 470.704 -3.67228 4.40246 0
M  V30 4757 H 469.101 -3.22932 5.05801 0
M  V30 4758 H 470.171 -1.96047 4.43502 0
M  V30 4759 N 471.514 -1.37532 -0.769588 0
M  V30 4760 C 472.446 -1.29347 -1.89214 0
M  V30 4761 C 473.459 -0.208842 -1.61455 0
M  V30 4762 O 474.648 -0.465158 -1.72333 0
M  V30 4763 C 471.748 -0.977649 -3.24492 0
M  V30 4764 C 470.921 -2.16817 -3.7988 0
M  V30 4765 C 469.98 -1.82229 -4.93639 0
M  V30 4766 O 469.006 -2.54548 -5.09111 0
M  V30 4767 N 470.208 -0.767696 -5.75401 0
M  V30 4768 H 472.973 -2.26073 -1.96751 0
M  V30 4769 H 470.534 -1.31185 -0.948795 0
M  V30 4770 H 472.526 -0.727065 -3.98115 0
M  V30 4771 H 471.096 -0.0988777 -3.12444 0
M  V30 4772 H 470.316 -2.58038 -2.9801 0
M  V30 4773 H 471.604 -2.96308 -4.13617 0
M  V30 4774 H 471.002 -0.167626 -5.65452 0
M  V30 4775 H 469.559 -0.576973 -6.49241 0
M  V30 4776 N 472.992 0.995999 -1.22138 0
M  V30 4777 C 473.955 2.06711 -0.990109 0
M  V30 4778 C 474.955 1.60744 0.0422978 0
M  V30 4779 O 476.145 1.73095 -0.195895 0
M  V30 4780 C 473.277 3.37288 -0.49491 0
M  V30 4781 H 474.47 2.28661 -1.94047 0
M  V30 4782 H 472.023 1.16711 -1.03963 0
M  V30 4783 H 472.758 3.21022 0.459948 0
M  V30 4784 H 472.543 3.71986 -1.23971 0
M  V30 4785 H 474.033 4.16103 -0.353253 0
M  V30 4786 N 474.47 1.03057 1.19235 0
M  V30 4787 C 475.4 0.633497 2.24742 0
M  V30 4788 C 476.381 -0.358335 1.66283 0
M  V30 4789 O 477.566 -0.240676 1.92703 0
M  V30 4790 C 474.696 -0.0147648 3.47297 0
M  V30 4791 C 473.65 0.899527 4.18441 0
M  V30 4792 C 472.976 0.116281 5.34574 0
M  V30 4793 C 474.276 2.21404 4.73051 0
M  V30 4794 H 475.97 1.5155 2.58211 0
M  V30 4795 H 473.516 0.73014 1.24117 0
M  V30 4796 H 475.469 -0.304202 4.20301 0
M  V30 4797 H 474.193 -0.931577 3.13032 0
M  V30 4798 H 472.852 1.17319 3.47321 0
M  V30 4799 H 472.5 -0.802619 4.96555 0
M  V30 4800 H 472.2 0.725293 5.83107 0
M  V30 4801 H 473.724 -0.166376 6.10373 0
M  V30 4802 H 475.138 1.98601 5.37802 0
M  V30 4803 H 473.535 2.77512 5.32078 0
M  V30 4804 H 474.605 2.86752 3.91026 0
M  V30 4805 N 475.948 -1.35272 0.808662 0
M  V30 4806 C 476.895 -2.29764 0.218482 0
M  V30 4807 C 477.865 -1.52911 -0.648652 0
M  V30 4808 O 479.05 -1.81341 -0.593297 0
M  V30 4809 C 476.19 -3.39388 -0.625282 0
M  V30 4810 C 475.303 -4.31202 0.262516 0
M  V30 4811 C 474.438 -5.27919 -0.589451 0
M  V30 4812 C 473.477 -6.11371 0.298617 0
M  V30 4813 N 472.614 -7.0022 -0.513443 0
M  V30 4814 H 477.454 -2.79645 1.02968 0
M  V30 4815 H 474.991 -1.37629 0.519303 0
M  V30 4816 H 476.949 -4.01615 -1.12966 0
M  V30 4817 H 475.579 -2.90777 -1.40173 0
M  V30 4818 H 474.631 -3.69962 0.885013 0
M  V30 4819 H 475.943 -4.89748 0.945971 0
M  V30 4820 H 475.097 -5.95529 -1.15888 0
M  V30 4821 H 473.836 -4.69875 -1.30647 0
M  V30 4822 H 472.841 -5.42707 0.880301 0
M  V30 4823 H 474.066 -6.71494 1.01352 0
M  V30 4824 H 472.012 -6.44662 -1.21439 0
M  V30 4825 H 471.929 -7.55917 0.111922 0
M  V30 4826 H 473.197 -7.72175 -1.06608 0
M  V30 4827 N 477.426 -0.562348 -1.47226 0
M  V30 4828 C 478.654 -0.0452275 -2.06851 0
M  V30 4829 C 479.069 1.25078 -1.41424 0
M  V30 4830 O 478.426 1.75156 -0.512513 0
M  V30 4831 C 478.477 0.148674 -3.61194 0
M  V30 4832 O 478.198 -1.09602 -4.24169 0
M  V30 4833 C 479.699 0.702488 -4.37699 0
M  V30 4834 H 476.919 -0.0481775 -0.669268 0
M  V30 4835 H 479.463 -0.777223 -1.89155 0
M  V30 4836 H 477.618 0.830817 -3.78386 0
M  V30 4837 H 478.032 -0.896982 -5.16773 0
M  V30 4838 H 479.506 0.78743 -5.46355 0
M  V30 4839 H 479.983 1.71493 -4.04335 0
M  V30 4840 H 480.589 0.0558772 -4.25263 0
M  V30 4841 N 478.904 1.54736 -0.299062 0
M  V30 4842 C 479.854 2.20155 0.592932 0
M  V30 4843 C 480.838 1.1739 1.10038 0
M  V30 4844 O 482.03 1.43116 1.04147 0
M  V30 4845 C 479.159 2.94437 1.76527 0
M  V30 4846 C 478.245 4.04516 1.27388 0
M  V30 4847 N 478.636 5.03319 0.500339 0
M  V30 4848 C 476.934 4.18022 1.55478 0
M  V30 4849 C 477.635 5.81209 0.238909 0
M  V30 4850 N 476.611 5.37408 0.818163 0
M  V30 4851 H 480.413 2.93899 -0.00563596 0
M  V30 4852 H 477.927 1.62068 -0.103732 0
M  V30 4853 H 479.924 3.3977 2.41582 0
M  V30 4854 H 478.584 2.22209 2.36756 0
M  V30 4855 H 479.595 5.17696 0.145419 0
M  V30 4856 H 476.272 3.56998 2.16469 0
M  V30 4857 H 477.662 6.70812 -0.382223 0
M  V30 4858 N 480.382 0.0267497 1.57577 0
M  V30 4859 C 481.312 -0.954308 2.13108 0
M  V30 4860 C 482.293 -1.34088 1.04663 0
M  V30 4861 O 483.478 -1.41992 1.32484 0
M  V30 4862 C 480.608 -2.23744 2.65624 0
M  V30 4863 C 479.562 -1.99168 3.78835 0
M  V30 4864 C 478.888 -3.33726 4.17769 0
M  V30 4865 C 480.188 -1.33277 5.0501 0
M  V30 4866 H 481.882 -0.491848 2.95332 0
M  V30 4867 H 479.428 -0.23514 1.42067 0
M  V30 4868 H 481.381 -2.92754 3.03106 0
M  V30 4869 H 480.105 -2.72151 1.80558 0
M  V30 4870 H 478.764 -1.32577 3.41788 0
M  V30 4871 H 478.412 -3.79888 3.29688 0
M  V30 4872 H 478.112 -3.18089 4.94058 0
M  V30 4873 H 479.636 -4.04008 4.57832 0
M  V30 4874 H 481.05 -1.92283 5.40093 0
M  V30 4875 H 479.447 -1.28045 5.8628 0
M  V30 4876 H 480.517 -0.305411 4.83937 0
M  V30 4877 N 481.861 -1.55662 -0.24637 0
M  V30 4878 C 483.109 -1.77168 -0.972411 0
M  V30 4879 C 483.43 -0.590827 -1.85834 0
M  V30 4880 O 482.7 0.393365 -1.9191 0
M  V30 4881 H 481.28 -0.653405 -0.362038 0
M  V30 4882 H 483.942 -1.93101 -0.264189 0
M  V30 4883 H 483.038 -2.68335 -1.59382 0
M  V30 4884 N 483.339 0.512053 -1.4905 0
M  V30 4885 C 484.271 1.63121 -1.6101 0
M  V30 4886 C 485.284 1.55145 -0.493352 0
M  V30 4887 O 486.473 1.61278 -0.764955 0
M  V30 4888 C 483.573 3.01863 -1.54052 0
M  V30 4889 C 482.746 3.35138 -2.81072 0
M  V30 4890 C 481.805 4.5324 -2.67319 0
M  V30 4891 O 480.831 4.55571 -3.41238 0
M  V30 4892 N 482.033 5.52495 -1.78127 0
M  V30 4893 H 484.798 1.53292 -2.5753 0
M  V30 4894 H 482.359 0.699706 -1.45999 0
M  V30 4895 H 484.351 3.78774 -1.42521 0
M  V30 4896 H 482.921 3.05675 -0.654345 0
M  V30 4897 H 482.141 2.4723 -3.07036 0
M  V30 4898 H 483.429 3.54162 -3.65304 0
M  V30 4899 H 482.827 5.53403 -1.17308 0
M  V30 4900 H 481.384 6.28553 -1.72525 0
M  V30 4901 N 484.817 1.37938 0.762283 0
M  V30 4902 C 486.063 1.33866 1.52341 0
M  V30 4903 C 486.396 -0.0738961 1.94059 0
M  V30 4904 O 485.671 -1.03326 1.64785 0
M  V30 4905 C 485.954 2.28644 2.78197 0
M  V30 4906 C 485.807 3.78722 2.42672 0
M  V30 4907 C 487.126 2.21702 3.80179 0
M  V30 4908 H 484.245 0.487593 0.55265 0
M  V30 4909 H 486.887 1.68717 0.873767 0
M  V30 4910 H 485.037 1.99055 3.33631 0
M  V30 4911 H 486.709 4.18948 1.93081 0
M  V30 4912 H 484.952 3.96827 1.75244 0
M  V30 4913 H 485.623 4.40486 3.3268 0
M  V30 4914 H 488.099 2.47805 3.34263 0
M  V30 4915 H 486.975 2.90143 4.65949 0
M  V30 4916 H 487.236 1.21301 4.25133 0
M  V30 4917 O 486.334 -0.902626 1.33921 0
M  V30 4918 H 487.025 -1.53762 1.178 0
M  V30 END ATOM
M  V30 BEGIN BOND
M  V30 END BOND
M  V30 END CTAB
M  END
$$$$
