drugbank_target|Q96GR2 Long-chain-fatty-acid--CoA ligase ACSBG1 (DB08326)
 OpenBabel12092120503D

  0  0  0     0  0            999 V3000
M  V30 BEGIN CTAB
M  V30 COUNTS 11382 11507 0 0 0
M  V30 BEGIN ATOM
M  V30 1 H -0.908 1.98254 -0.117106 0
M  V30 2 N 0 1.576 0 0
M  V30 3 C 0.933 2.03868 1.02534 0
M  V30 4 C 1.911 0.928543 1.3348 0
M  V30 5 O 3.095 1.19667 1.45644 0
M  V30 6 C 0.222 2.43627 2.35294 0
M  V30 7 C -0.732 3.65373 2.2001 0
M  V30 8 S 0.101 5.13292 1.52614 0
M  V30 9 C 1.257 5.56322 2.86805 0
M  V30 10 H 1.49 2.90518 0.631377 0
M  V30 11 H -0.977 1.52953 0.210867 0
M  V30 12 H 0.981 2.67203 3.11629 0
M  V30 13 H -0.358 1.57376 2.7183 0
M  V30 14 H -1.165 3.90944 3.18086 0
M  V30 15 H -1.563 3.418 1.51819 0
M  V30 16 H 0.729 5.58782 3.83104 0
M  V30 17 H 1.672 6.56266 2.65933 0
M  V30 18 H 2.08 4.83886 2.90714 0
M  V30 19 N 1.4781 -0.272755 1.55222 0
M  V30 20 C 2.8891 -0.84378 1.66545 0
M  V30 21 C 3.2401 -1.87035 0.592641 0
M  V30 22 O 2.3651 -2.14761 -0.265818 0
M  V30 23 C 2.9601 -1.53723 3.01918 0
M  V30 24 C 1.5191 -2.05628 3.15268 0
M  V30 25 C 0.6661 -0.898424 2.62343 0
M  V30 26 H 3.6171 -0.0490998 1.58624 0
M  V30 27 H 3.6381 -2.40421 2.94921 0
M  V30 28 H 3.1501 -0.78983 3.79978 0
M  V30 29 H 1.2511 -2.83329 2.41983 0
M  V30 30 H 1.3641 -2.27142 4.21833 0
M  V30 31 H -0.2719 -1.29186 2.19506 0
M  V30 32 H 0.5111 -0.164528 3.42906 0
M  V30 33 N 2.9562 -1.48159 -0.537278 0
M  V30 34 C 4.3722 -1.34118 -0.865129 0
M  V30 35 C 4.5722 -0.346678 -1.98495 0
M  V30 36 O 3.6282 0.234715 -2.51407 0
M  V30 37 C 4.9412 -2.73963 -1.23954 0
M  V30 38 C 6.4892 -2.82397 -1.34984 0
M  V30 39 C 6.9642 -4.22928 -1.75772 0
M  V30 40 N 8.4552 -4.25566 -1.82887 0
M  V30 41 C 9.1902 -5.31235 -2.15817 0
M  V30 42 N 8.6862 -6.47189 -2.47222 0
M  V30 43 N 10.4792 -5.18624 -2.16761 0
M  V30 44 H 2.6302 -2.1144 0.201715 0
M  V30 45 H 4.8932 -0.947598 0.0275949 0
M  V30 46 H 4.5992 -3.48264 -0.490381 0
M  V30 47 H 4.4732 -3.0702 -2.19132 0
M  V30 48 H 6.8602 -2.08356 -2.08978 0
M  V30 49 H 6.9412 -2.5297 -0.379448 0
M  V30 50 H 6.5852 -4.97482 -1.02341 0
M  V30 51 H 6.5152 -4.49794 -2.73848 0
M  V30 52 H 9.0062 -3.41924 -1.60924 0
M  V30 53 H 9.3192 -7.23564 -2.71433 0
M  V30 54 H 7.6642 -6.50476 -2.44757 0
M  V30 55 H 10.8552 -4.27056 -1.91679 0
M  V30 56 H 11.0282 -6.01078 -2.42093 0
M  V30 57 N 4.4343 0.785586 -1.36625 0
M  V30 58 C 5.3823 1.91978 -1.31329 0
M  V30 59 C 6.3763 1.68162 -0.204416 0
M  V30 60 O 7.5823 1.76122 -0.371645 0
M  V30 61 H 3.9573 0.631087 -0.408942 0
M  V30 62 H 5.9283 1.93562 -2.27104 0
M  V30 63 C 4.6773 3.29055 -1.12329 0
M  V30 64 H 4.0003 3.4795 -1.96903 0
M  V30 65 H 5.4403 4.08756 -1.12671 0
M  V30 66 C 3.8993 3.36461 0.171861 0
M  V30 67 O 4.4293 3.84576 1.16035 0
M  V30 68 N 2.6353 2.89782 0.217846 0
M  V30 69 H 2.1823 2.50819 -0.587183 0
M  V30 70 H 2.1403 2.95119 1.08408 0
M  V30 71 N 5.9124 1.20967 1.01018 0
M  V30 72 C 7.1374 1.0503 1.78839 0
M  V30 73 C 7.5624 -0.395752 1.8389 0
M  V30 74 O 6.9204 -1.28529 1.27867 0
M  V30 75 C 6.9684 1.64602 3.2084 0
M  V30 76 O 6.0724 0.887988 4.02726 0
M  V30 77 H 5.4134 0.369987 0.551367 0
M  V30 78 H 7.9434 1.60399 1.27018 0
M  V30 79 H 7.9534 1.68607 3.71532 0
M  V30 80 H 6.6284 2.69841 3.16479 0
M  V30 81 H 5.2054 0.922648 3.61305 0
M  V30 82 N 7.3905 -1.2043 1.01659 0
M  V30 83 C 8.6385 -1.89423 0.704522 0
M  V30 84 C 8.9595 -1.79231 -0.768197 0
M  V30 85 O 8.2295 -1.1947 -1.55254 0
M  V30 86 H 6.8095 -0.701178 0.257602 0
M  V30 87 H 9.4715 -1.4626 1.28818 0
M  V30 88 H 8.5675 -2.96052 0.987916 0
M  V30 89 N 8.8686 -0.792821 -1.36206 0
M  V30 90 C 9.8316 -0.199459 -2.2833 0
M  V30 91 C 10.8316 0.605189 -1.48977 0
M  V30 92 O 12.0216 0.425685 -1.68919 0
M  V30 93 C 9.1536 0.723523 -3.33134 0
M  V30 94 H 10.3466 -1.01181 -2.82316 0
M  V30 95 H 7.8996 -0.562485 -1.45828 0
M  V30 96 H 8.6346 1.56008 -2.84309 0
M  V30 97 H 8.4196 0.148436 -3.91819 0
M  V30 98 H 9.9096 1.13344 -4.01924 0
M  V30 99 N 10.3467 1.47872 -0.545128 0
M  V30 100 C 11.5947 2.02093 -0.016553 0
M  V30 101 C 11.9157 1.42305 1.3332 0
M  V30 102 O 11.1857 0.593853 1.86682 0
M  V30 103 H 9.7657 0.746993 -0.00313038 0
M  V30 104 H 12.4277 1.81414 -0.712397 0
M  V30 105 H 11.5237 3.11996 0.0805422 0
M  V30 106 N 11.8248 0.280983 1.55075 0
M  V30 107 C 13.0548 -0.336804 2.03836 0
M  V30 108 C 13.4628 -1.49577 1.15859 0
M  V30 109 O 12.8058 -1.82888 0.172503 0
M  V30 110 C 12.8678 -0.874616 3.48699 0
M  V30 111 C 12.5318 0.156478 4.56732 0
M  V30 112 C 13.5288 0.978032 5.10618 0
M  V30 113 C 11.2138 0.292409 5.01448 0
M  V30 114 C 13.2078 1.92165 6.07743 0
M  V30 115 C 10.8948 1.23949 5.98398 0
M  V30 116 C 11.8928 2.05261 6.51427 0
M  V30 117 O 11.5808 2.98367 7.4648 0
M  V30 118 H 11.3128 -0.0800885 0.671239 0
M  V30 119 H 13.8668 0.412589 2.01213 0
M  V30 120 H 12.0968 -1.67418 3.4858 0
M  V30 121 H 13.7858 -1.40612 3.80766 0
M  V30 122 H 14.5518 0.883782 4.7688 0
M  V30 123 H 10.4308 -0.330498 4.59814 0
M  V30 124 H 13.9748 2.55672 6.49059 0
M  V30 125 H 9.8718 1.33454 6.31554 0
M  V30 126 H 10.6398 2.93116 7.64215 0
M  V30 127 N 13.3029 -1.57598 0.00835791 0
M  V30 128 C 14.5509 -1.90551 -0.6734 0
M  V30 129 C 14.8719 -0.883301 -1.73847 0
M  V30 130 O 14.1419 0.0781442 -1.95744 0
M  V30 131 H 12.7219 -0.703312 -0.251717 0
M  V30 132 H 15.3839 -1.94833 0.0512592 0
M  V30 133 H 14.4799 -2.9056 -1.13935 0
M  V30 134 N 14.781 0.264519 -1.55364 0
M  V30 135 C 16.021 1.00254 -1.78125 0
M  V30 136 C 16.385 1.83187 -0.575017 0
M  V30 137 O 17.586 2.60029 -0.681042 0
M  V30 138 C 15.857 1.85478 -3.05504 0
M  V30 139 S 17.416 2.6543 -3.49417 0
M  V30 140 H 14.234 0.337522 -0.625779 0
M  V30 141 H 16.836 0.272111 -1.93597 0
M  V30 142 H 15.54 1.23491 -3.9138 0
M  V30 143 H 15.071 2.62827 -2.92721 0
M  V30 144 H 17.086 3.87958 -3.09359 0
M  V30 145 N 16.2591 1.48442 0.529413 0
M  V30 146 C 17.6701 1.5002 1.11134 0
M  V30 147 C 18.0211 0.27031 1.94329 0
M  V30 148 O 17.1461 -0.622507 2.07253 0
M  V30 149 C 17.7411 2.71834 2.02217 0
M  V30 150 C 16.3001 2.76283 2.55627 0
M  V30 151 C 15.4471 2.43542 1.326 0
M  V30 152 H 18.3981 1.5555 0.314641 0
M  V30 153 H 18.4191 2.50384 2.8651 0
M  V30 154 H 17.9311 3.61331 1.41639 0
M  V30 155 H 16.0321 1.90995 3.19924 0
M  V30 156 H 16.1451 3.77725 2.94721 0
M  V30 157 H 14.5091 1.94709 1.64196 0
M  V30 158 H 15.2921 3.3528 0.737734 0
M  V30 159 N 17.7372 -0.778329 1.37039 0
M  V30 160 C 18.6872 -1.88142 1.28789 0
M  V30 161 C 19.6712 -1.59923 0.177063 0
M  V30 162 O 20.8632 -1.72165 0.410873 0
M  V30 163 C 17.9922 -3.25518 1.09055 0
M  V30 164 C 17.0782 -3.5971 2.24654 0
M  V30 165 N 17.4692 -3.65131 3.50018 0
M  V30 166 C 15.7672 -3.89837 2.16663 0
M  V30 167 C 16.4682 -3.95882 4.26207 0
M  V30 168 N 15.4442 -4.11441 3.55271 0
M  V30 169 H 19.2462 -1.90575 2.23737 0
M  V30 170 H 16.7602 -0.974435 1.29917 0
M  V30 171 H 18.7572 -4.04423 1.0123 0
M  V30 172 H 17.4172 -3.24353 0.15018 0
M  V30 173 H 18.4282 -3.475 3.84011 0
M  V30 174 H 15.1052 -3.96533 1.30645 0
M  V30 175 H 16.4952 -4.06907 5.34674 0
M  V30 176 N 19.2153 -1.21501 -1.00376 0
M  V30 177 C 20.4633 -1.03095 -1.73827 0
M  V30 178 C 20.7843 0.436341 -1.90055 0
M  V30 179 O 20.0543 1.31466 -1.45236 0
M  V30 180 H 18.6343 -0.378487 -0.644016 0
M  V30 181 H 21.2963 -1.52831 -1.20949 0
M  V30 182 H 20.3923 -1.49991 -2.73695 0
M  V30 183 N 20.6934 1.19889 -1.02296 0
M  V30 184 C 21.9704 1.85148 -0.630832 0
M  V30 185 C 22.3504 1.91385 0.890782 0
M  V30 186 O 21.6984 1.42642 1.78509 0
M  V30 187 C 21.9084 3.24442 -1.28602 0
M  V30 188 C 23.2564 4.00663 -1.4055 0
M  V30 189 O 24.2804 3.33818 -1.24273 0
M  V30 190 O 23.1394 5.20387 -1.66913 0
M  V30 191 H 20.2334 0.797613 -0.218499 0
M  V30 192 H 22.7794 1.27427 -1.12074 0
M  V30 193 H 21.5514 3.14704 -2.32545 0
M  V30 194 H 21.1744 3.89802 -0.7836 0
M  V30 195 N 22.1715 0.800033 1.35784 0
M  V30 196 C 23.5825 0.439142 1.81462 0
M  V30 197 C 23.9335 -1.03813 1.66485 0
M  V30 198 O 23.0585 -1.80626 1.19177 0
M  V30 199 C 23.6535 0.790314 3.29453 0
M  V30 200 C 22.2125 0.482111 3.733 0
M  V30 201 C 21.3595 1.01938 2.57883 0
M  V30 202 H 24.3105 0.992254 1.23855 0
M  V30 203 H 24.3315 0.0853677 3.80404 0
M  V30 204 H 23.8435 1.86554 3.40322 0
M  V30 205 H 21.9445 -0.584652 3.67984 0
M  V30 206 H 22.0575 1.01015 4.6833 0
M  V30 207 H 20.4215 0.442043 2.50835 0
M  V30 208 H 21.2045 2.10059 2.71533 0
M  V30 209 N 23.6496 -1.47581 0.552962 0
M  V30 210 C 24.8746 -2.07378 0.0300593 0
M  V30 211 C 25.2996 -1.40355 -1.25229 0
M  V30 212 O 24.6576 -0.477099 -1.7491 0
M  V30 213 C 24.7056 -3.60274 -0.153231 0
M  V30 214 O 23.8096 -3.94041 -1.21678 0
M  V30 215 H 23.1506 -0.662158 0.0494182 0
M  V30 216 H 25.6806 -1.89662 0.767434 0
M  V30 217 H 25.6906 -4.0633 -0.368761 0
M  V30 218 H 24.3656 -4.08455 0.783397 0
M  V30 219 H 22.9426 -3.59735 -0.982079 0
M  V30 220 N 25.1277 -0.289203 -1.54924 0
M  V30 221 C 26.0607 0.633823 -2.19221 0
M  V30 222 C 27.0387 1.14174 -1.15772 0
M  V30 223 O 28.2227 1.21211 -1.44361 0
M  V30 224 C 25.3497 1.86592 -2.82668 0
M  V30 225 C 24.3957 1.49227 -3.99542 0
M  V30 226 S 25.2287 0.558312 -5.32582 0
M  V30 227 C 26.3847 1.79847 -5.99505 0
M  V30 228 H 26.6177 0.0875416 -2.97171 0
M  V30 229 H 24.1507 -0.0733899 -1.54225 0
M  V30 230 H 26.1087 2.57305 -3.19851 0
M  V30 231 H 24.7697 2.38335 -2.04585 0
M  V30 232 H 23.9627 2.40945 -4.42676 0
M  V30 233 H 23.5647 0.865193 -3.63855 0
M  V30 234 H 25.8567 2.7406 -6.19595 0
M  V30 235 H 26.7997 1.4099 -6.93922 0
M  V30 236 H 27.2077 1.96982 -5.29016 0
M  V30 237 N 26.6058 1.57591 -0.0167156 0
M  V30 238 C 27.5358 2.12496 0.967858 0
M  V30 239 C 28.5168 1.03807 1.34752 0
M  V30 240 O 29.7018 1.31577 1.42833 0
M  V30 241 C 26.8318 2.64194 2.25431 0
M  V30 242 C 25.7858 3.77559 2.01576 0
M  V30 243 C 25.1118 4.15636 3.36379 0
M  V30 244 C 26.4118 5.04151 1.36489 0
M  V30 245 H 28.1058 2.95013 0.510643 0
M  V30 246 H 25.6518 1.41915 0.244181 0
M  V30 247 H 27.6048 3.01236 2.94678 0
M  V30 248 H 26.3288 1.78821 2.73296 0
M  V30 249 H 24.9878 3.40937 1.34751 0
M  V30 250 H 24.6358 3.27263 3.81979 0
M  V30 251 H 24.3358 4.92022 3.21229 0
M  V30 252 H 25.8598 4.5525 4.06915 0
M  V30 253 H 27.2738 5.38857 1.95718 0
M  V30 254 H 25.6708 5.85453 1.31776 0
M  V30 255 H 26.7408 4.83733 0.336219 0
M  V30 256 N 28.0839 -0.256276 1.55502 0
M  V30 257 C 29.3609 -1.00789 1.67633 0
M  V30 258 C 29.7409 -2.03706 0.553826 0
M  V30 259 O 29.0889 -2.24145 -0.443969 0
M  V30 260 C 29.2989 -1.64968 3.07549 0
M  V30 261 C 30.6469 -2.15505 3.65845 0
M  V30 262 O 31.6709 -1.74925 3.1029 0
M  V30 263 O 30.5299 -2.89986 4.63217 0
M  V30 264 H 27.6239 -0.468553 0.681459 0
M  V30 265 H 30.1699 -0.250806 1.67836 0
M  V30 266 H 28.9419 -0.904785 3.80696 0
M  V30 267 H 28.5649 -2.47321 3.11317 0
M  V30 268 N 29.562 -1.4872 -0.521534 0
M  V30 269 C 30.787 -1.61101 -1.30618 0
M  V30 270 C 31.212 -0.274611 -1.86085 0
M  V30 271 O 30.57 0.754937 -1.64834 0
M  V30 272 C 30.618 -2.66709 -2.4269 0
M  V30 273 O 29.722 -2.24456 -3.45967 0
M  V30 274 H 29.063 -0.539921 -0.386499 0
M  V30 275 H 31.593 -1.94767 -0.626645 0
M  V30 276 H 31.603 -2.88245 -2.88754 0
M  V30 277 H 30.278 -3.63727 -2.01682 0
M  V30 278 H 28.855 -2.13168 -3.05964 0
M  V30 279 N 31.0401 0.771051 -1.3745 0
M  V30 280 C 32.4561 1.07171 -1.18265 0
M  V30 281 C 32.6561 2.01491 -0.019287 0
M  V30 282 O 31.7121 2.44244 0.640408 0
M  V30 283 C 33.0251 1.66854 -2.50161 0
M  V30 284 C 34.5731 1.79109 -2.56689 0
M  V30 285 C 35.0481 2.42205 -3.88717 0
M  V30 286 N 36.5391 2.49655 -3.90162 0
M  V30 287 C 37.2741 2.9933 -4.8907 0
M  V30 288 N 36.7701 3.49172 -5.98374 0
M  V30 289 N 38.5631 2.9821 -4.76474 0
M  V30 290 H 30.7141 0.144796 -2.11906 0
M  V30 291 H 32.9771 0.126863 -0.939473 0
M  V30 292 H 32.6831 1.05017 -3.35655 0
M  V30 293 H 32.5571 2.6614 -2.673 0
M  V30 294 H 34.9441 2.40077 -1.71601 0
M  V30 295 H 35.0251 0.785757 -2.43433 0
M  V30 296 H 34.6691 1.81875 -4.74219 0
M  V30 297 H 34.5991 3.43345 -3.99276 0
M  V30 298 H 37.0901 2.14383 -3.11205 0
M  V30 299 H 37.4031 3.8548 -6.69795 0
M  V30 300 H 35.7481 3.47275 -6.02018 0
M  V30 301 H 38.9391 2.58572 -3.90203 0
M  V30 302 H 39.1121 3.36613 -5.53711 0
M  V30 303 N 32.5182 1.22032 0.997298 0
M  V30 304 C 33.4282 1.00271 2.12092 0
M  V30 305 C 34.4442 -0.047621 1.73935 0
M  V30 306 O 35.6202 0.144136 2.00884 0
M  V30 307 C 32.6852 0.578449 3.4184 0
M  V30 308 C 31.7462 1.70189 3.94125 0
M  V30 309 C 30.9792 1.29778 5.17681 0
M  V30 310 O 31.2022 0.174676 5.70132 0
M  V30 311 O 30.1362 2.11261 5.63607 0
M  V30 312 H 33.9622 1.94398 2.3333 0
M  V30 313 H 31.5472 1.00587 1.10465 0
M  V30 314 H 33.4292 0.351998 4.19927 0
M  V30 315 H 32.1042 -0.334019 3.21972 0
M  V30 316 H 31.0112 1.98282 3.1723 0
M  V30 317 H 32.3442 2.59206 4.18417 0
M  V30 318 N 33.9963 -1.19345 1.0293 0
M  V30 319 C 35.2243 -1.92997 0.745644 0
M  V30 320 C 35.6393 -1.75519 -0.695589 0
M  V30 321 O 34.9963 -1.07737 -1.47306 0
M  V30 322 C 35.0473 -3.44741 1.08792 0
M  V30 323 O 34.7683 -3.61658 2.47256 0
M  V30 324 C 36.2693 -4.35515 0.827129 0
M  V30 325 H 33.4893 -0.613042 0.272801 0
M  V30 326 H 36.0333 -1.51473 1.3739 0
M  V30 327 H 34.1883 -3.84097 0.504832 0
M  V30 328 H 34.6023 -4.55514 2.60015 0
M  V30 329 H 36.0763 -5.40589 1.11658 0
M  V30 330 H 36.5533 -4.38552 -0.238436 0
M  V30 331 H 37.1593 -4.01841 1.39297 0
M  V30 332 N 35.4744 -0.807222 -1.35358 0
M  V30 333 C 36.8854 -0.44876 -1.81226 0
M  V30 334 C 37.2364 1.02929 -1.67033 0
M  V30 335 O 36.3614 1.79991 -1.20133 0
M  V30 336 C 36.9564 -0.807774 -3.2903 0
M  V30 337 C 35.5154 -0.501901 -3.73039 0
M  V30 338 C 34.6624 -1.03304 -2.57339 0
M  V30 339 H 37.6134 -0.998808 -1.23327 0
M  V30 340 H 37.6344 -0.10554 -3.80354 0
M  V30 341 H 37.1464 -1.88357 -3.39328 0
M  V30 342 H 35.2474 0.565128 -3.68289 0
M  V30 343 H 35.3604 -1.03497 -4.67787 0
M  V30 344 H 33.7244 -0.455339 -2.50597 0
M  V30 345 H 34.5074 -2.11496 -2.70415 0
M  V30 346 N 36.9525 1.47285 -0.560781 0
M  V30 347 C 37.8845 2.28118 0.222438 0
M  V30 348 C 38.8975 1.37219 0.876056 0
M  V30 349 O 40.0865 1.62011 0.749307 0
M  V30 350 C 37.1865 3.1159 1.33285 0
M  V30 351 C 36.3595 4.30473 0.77534 0
M  V30 352 C 35.4185 4.95513 1.77069 0
M  V30 353 O 34.4445 5.53792 1.31539 0
M  V30 354 N 35.6465 4.90531 3.10418 0
M  V30 355 H 38.4115 2.95976 -0.470958 0
M  V30 356 H 35.9725 1.56955 -0.39709 0
M  V30 357 H 37.9645 3.51967 1.99752 0
M  V30 358 H 36.5345 2.45951 1.92943 0
M  V30 359 H 35.7545 3.94144 -0.0662113 0
M  V30 360 H 37.0425 5.07362 0.382272 0
M  V30 361 H 36.4405 4.44389 3.5005 0
M  V30 362 H 34.9975 5.34917 3.72434 0
M  V30 363 N 38.4306 0.297415 1.54768 0
M  V30 364 C 39.3406 -0.58983 2.27064 0
M  V30 365 C 40.3566 -1.15144 1.30453 0
M  V30 366 O 41.5326 -1.17699 1.63428 0
M  V30 367 C 38.5976 -1.74714 2.9946 0
M  V30 368 C 37.6586 -1.21997 4.11601 0
M  V30 369 C 36.8916 -2.32212 4.80535 0
M  V30 370 O 37.1146 -3.52036 4.48806 0
M  V30 371 O 36.0486 -1.99106 5.68014 0
M  V30 372 H 39.8746 -0.00348199 3.037 0
M  V30 373 H 37.4596 0.0640035 1.49263 0
M  V30 374 H 39.3416 -2.42147 3.44881 0
M  V30 375 H 38.0166 -2.32016 2.25722 0
M  V30 376 H 36.9236 -0.511458 3.70587 0
M  V30 377 H 38.2566 -0.692419 4.87305 0
M  V30 378 N 39.9087 -1.5758 0.0250728 0
M  V30 379 C 41.1337 -1.96337 -0.668317 0
M  V30 380 C 41.5587 -0.901314 -1.651 0
M  V30 381 O 40.9167 0.138187 -1.80773 0
M  V30 382 C 40.9647 -3.34191 -1.35457 0
M  V30 383 O 40.0687 -3.30269 -2.46974 0
M  V30 384 H 39.4097 -0.640281 -0.175887 0
M  V30 385 H 41.9397 -2.0442 0.0857224 0
M  V30 386 H 41.9497 -3.70331 -1.71228 0
M  V30 387 H 40.6247 -4.11036 -0.634218 0
M  V30 388 H 39.2017 -3.05841 -2.13344 0
M  V30 389 N 41.3868 0.248026 -1.55636 0
M  V30 390 C 42.8028 0.596483 -1.48035 0
M  V30 391 C 43.0028 1.88386 -0.715039 0
M  V30 392 O 42.0588 2.51319 -0.243944 0
M  V30 393 C 43.3718 0.700258 -2.92433 0
M  V30 394 C 44.9198 0.792659 -3.02797 0
M  V30 395 C 45.3948 0.928005 -4.485 0
M  V30 396 N 46.8858 0.992903 -4.52433 0
M  V30 397 C 47.6208 1.11687 -5.62418 0
M  V30 398 N 47.1168 1.20645 -6.82214 0
M  V30 399 N 48.9098 1.14994 -5.50212 0
M  V30 400 H 41.0608 -0.597109 -2.03834 0
M  V30 401 H 43.3238 -0.205925 -0.925364 0
M  V30 402 H 43.0298 -0.175658 -3.51261 0
M  V30 403 H 42.9038 1.57255 -3.42857 0
M  V30 404 H 45.2908 1.65903 -2.4405 0
M  V30 405 H 45.3718 -0.104762 -2.55585 0
M  V30 406 H 45.0158 0.0661971 -5.07857 0
M  V30 407 H 44.9458 1.84045 -4.93391 0
M  V30 408 H 47.4368 0.935064 -3.66149 0
M  V30 409 H 47.7498 1.30008 -7.61786 0
M  V30 410 H 46.0948 1.17605 -6.84977 0
M  V30 411 H 49.2858 1.07643 -4.55555 0
M  V30 412 H 49.4588 1.24311 -6.35965 0
M  V30 413 N 42.8649 1.48995 0.513639 0
M  V30 414 C 43.7969 1.60836 1.63293 0
M  V30 415 C 44.8099 0.491701 1.55197 0
M  V30 416 O 45.9989 0.763238 1.6136 0
M  V30 417 C 43.0989 1.53731 3.02027 0
M  V30 418 C 42.2719 2.80715 3.35437 0
M  V30 419 C 41.3309 2.66837 4.53525 0
M  V30 420 O 40.3569 3.40753 4.55934 0
M  V30 421 N 41.5589 1.77539 5.52684 0
M  V30 422 H 44.3239 2.57366 1.53566 0
M  V30 423 H 41.8849 1.45925 0.701259 0
M  V30 424 H 43.8769 1.42118 3.78926 0
M  V30 425 H 42.4469 0.651092 3.05744 0
M  V30 426 H 41.6669 3.06772 2.47557 0
M  V30 427 H 42.9549 3.64927 3.54551 0
M  V30 428 H 42.3529 1.16719 5.53528 0
M  V30 429 H 40.9099 1.71856 6.28736 0
M  V30 430 N 44.343 -0.763751 1.37857 0
M  V30 431 C 45.62 -1.51244 1.24035 0
M  V30 432 C 46 -2.10472 -0.162649 0
M  V30 433 O 45.348 -1.96206 -1.17112 0
M  V30 434 C 45.558 -2.58694 2.34261 0
M  V30 435 C 46.906 -3.25878 2.72193 0
M  V30 436 O 47.93 -2.68993 2.33497 0
M  V30 437 O 46.789 -4.2874 3.38887 0
M  V30 438 H 43.883 -0.670243 0.484462 0
M  V30 439 H 46.429 -0.800031 1.49658 0
M  V30 440 H 45.201 -2.13105 3.2818 0
M  V30 441 H 44.824 -3.37527 2.10146 0
M  V30 442 N 45.8211 -1.22559 -0.990812 0
M  V30 443 C 46.7541 -0.940773 -2.07905 0
M  V30 444 C 47.7321 0.117082 -1.62178 0
M  V30 445 O 48.9161 -0.0149506 -1.88494 0
M  V30 446 C 46.0431 -0.415321 -3.36144 0
M  V30 447 C 45.0891 -1.45818 -4.00799 0
M  V30 448 S 45.9221 -3.03219 -4.41382 0
M  V30 449 C 47.0781 -2.52317 -5.72789 0
M  V30 450 H 47.3111 -1.8623 -2.31745 0
M  V30 451 H 44.8441 -1.05688 -1.12558 0
M  V30 452 H 46.8021 -0.118747 -4.10328 0
M  V30 453 H 45.4631 0.485121 -3.10331 0
M  V30 454 H 44.6561 -1.04044 -4.93144 0
M  V30 455 H 44.2581 -1.70356 -3.32949 0
M  V30 456 H 46.5501 -1.93688 -6.49224 0
M  V30 457 H 47.4931 -3.43161 -6.19392 0
M  V30 458 H 47.9011 -1.93529 -5.30289 0
M  V30 459 N 47.2992 1.18797 -1.03562 0
M  V30 460 C 48.5482 1.87978 -0.731235 0
M  V30 461 C 48.8612 1.80911 0.743671 0
M  V30 462 O 50.0672 2.45407 1.16137 0
M  V30 463 C 48.5232 3.3721 -1.25768 0
M  V30 464 C 48.1312 3.52818 -2.76085 0
M  V30 465 C 49.8752 4.11825 -1.0296 0
M  V30 466 C 47.7822 4.9598 -3.22114 0
M  V30 467 H 46.7122 0.704063 -0.269835 0
M  V30 468 H 49.3632 1.34266 -1.25079 0
M  V30 469 H 47.7452 3.90359 -0.666011 0
M  V30 470 H 48.9192 3.09965 -3.40966 0
M  V30 471 H 47.2342 2.91602 -2.97249 0
M  V30 472 H 49.8312 5.17411 -1.34869 0
M  V30 473 H 50.1742 4.16287 0.0333546 0
M  V30 474 H 50.7072 3.64833 -1.58562 0
M  V30 475 H 47.4462 4.96684 -4.27768 0
M  V30 476 H 46.9662 5.39569 -2.61965 0
M  V30 477 H 48.6452 5.6467 -3.15844 0
M  V30 478 N 48.7773 0.814389 1.34928 0
M  V30 479 C 50.0233 0.399013 1.98836 0
M  V30 480 C 50.3563 -1.03314 1.64438 0
M  V30 481 O 49.6313 -1.71811 0.911659 0
M  V30 482 C 49.9143 0.591629 3.55207 0
M  V30 483 C 49.7673 2.06928 3.99376 0
M  V30 484 C 51.0863 0.022199 4.40094 0
M  V30 485 H 48.2053 0.146451 0.722303 0
M  V30 486 H 50.8473 1.02537 1.59957 0
M  V30 487 H 48.9973 0.0584441 3.88456 0
M  V30 488 H 50.6693 2.66544 3.76499 0
M  V30 489 H 48.9123 2.56287 3.49999 0
M  V30 490 H 49.5833 2.1549 5.08201 0
M  V30 491 H 52.0593 0.477643 4.13349 0
M  V30 492 H 50.9353 0.186832 5.48582 0
M  V30 493 H 51.1963 -1.07215 4.28902 0
M  V30 494 N 50.2554 -1.46986 0.568584 0
M  V30 495 C 51.6714 -1.57946 0.229189 0
M  V30 496 C 51.8714 -1.56567 -1.26843 0
M  V30 497 O 50.9274 -1.47511 -2.04931 0
M  V30 498 C 52.2404 -2.87963 0.865909 0
M  V30 499 C 53.7884 -3.01568 0.838188 0
M  V30 500 C 54.2634 -4.34301 1.45419 0
M  V30 501 N 55.7544 -4.40965 1.41788 0
M  V30 502 C 56.4894 -5.42256 1.86403 0
M  V30 503 N 55.9854 -6.50297 2.38926 0
M  V30 504 N 57.7784 -5.3337 1.77405 0
M  V30 505 H 49.9294 -1.46126 1.54146 0
M  V30 506 H 52.1924 -0.696156 0.643484 0
M  V30 507 H 51.8984 -2.94742 1.91886 0
M  V30 508 H 51.7724 -3.75423 0.365687 0
M  V30 509 H 54.1594 -2.94379 -0.206106 0
M  V30 510 H 54.2404 -2.1562 1.37629 0
M  V30 511 H 53.8844 -4.42247 2.49761 0
M  V30 512 H 53.8144 -5.19 0.891435 0
M  V30 513 H 56.3054 -3.63484 1.03381 0
M  V30 514 H 56.6184 -7.23777 2.70863 0
M  V30 515 H 54.9634 -6.51155 2.42944 0
M  V30 516 H 58.1544 -4.47865 1.3614 0
M  V30 517 H 58.3274 -6.12169 2.12492 0
M  V30 518 N 51.7335 -0.305618 -1.54608 0
M  V30 519 C 52.9615 0.304775 -2.04643 0
M  V30 520 C 53.3765 1.47167 -1.18268 0
M  V30 521 O 52.7335 1.81296 -0.209328 0
M  V30 522 C 52.7845 0.756564 -3.53495 0
M  V30 523 O 52.5055 -0.36389 -4.36586 0
M  V30 524 C 54.0065 1.43163 -4.19546 0
M  V30 525 H 51.2265 0.0655481 -0.667791 0
M  V30 526 H 53.7705 -0.446592 -1.99564 0
M  V30 527 H 51.9255 1.45794 -3.58919 0
M  V30 528 H 52.3395 -0.0113121 -5.24499 0
M  V30 529 H 53.8135 1.69886 -5.25207 0
M  V30 530 H 54.2905 2.37318 -3.69563 0
M  V30 531 H 54.8965 0.773307 -4.18211 0
M  V30 532 N 53.2116 1.57565 -0.0334293 0
M  V30 533 C 54.4396 1.9628 0.654347 0
M  V30 534 C 54.8546 0.910138 1.65414 0
M  V30 535 O 54.2116 -0.107595 1.82183 0
M  V30 536 C 54.2626 3.35067 1.35693 0
M  V30 537 O 53.9836 4.36296 0.397191 0
M  V30 538 C 55.4846 3.88439 2.13613 0
M  V30 539 H 52.7046 0.646369 0.180132 0
M  V30 540 H 55.2486 2.04282 -0.0944721 0
M  V30 541 H 53.4036 3.2827 2.05712 0
M  V30 542 H 53.8176 5.1678 0.896597 0
M  V30 543 H 55.2916 4.8788 2.58219 0
M  V30 544 H 55.7686 3.22914 2.97696 0
M  V30 545 H 56.3746 3.98516 1.48543 0
M  V30 546 N 54.6897 -0.239769 1.55765 0
M  V30 547 C 55.6217 -1.32001 1.87372 0
M  V30 548 C 56.6347 -1.43944 0.760522 0
M  V30 549 O 57.8237 -1.45167 1.0387 0
M  V30 550 C 54.9237 -2.69779 2.05115 0
M  V30 551 C 54.0967 -2.80014 3.36022 0
M  V30 552 C 53.1557 -3.98684 3.4342 0
M  V30 553 O 52.1817 -3.87877 4.16582 0
M  V30 554 N 53.3837 -5.12176 2.73232 0
M  V30 555 H 56.1487 -1.0522 2.80622 0
M  V30 556 H 53.7097 -0.429857 1.56089 0
M  V30 557 H 55.7017 -3.47517 2.07399 0
M  V30 558 H 54.2717 -2.89237 1.18577 0
M  V30 559 H 53.4917 -1.88896 3.45994 0
M  V30 560 H 54.7797 -2.83808 4.22292 0
M  V30 561 H 54.1777 -5.2385 2.13536 0
M  V30 562 H 52.7347 -5.88022 2.81199 0
M  V30 563 N 56.1678 -1.49265 -0.50573 0
M  V30 564 C 57.0778 -1.68312 -1.63427 0
M  V30 565 C 58.0938 -0.565682 -1.64548 0
M  V30 566 O 59.2698 -0.839801 -1.83055 0
M  V30 567 C 56.3348 -1.74107 -2.99813 0
M  V30 568 C 55.3958 -2.97653 -3.09356 0
M  V30 569 C 54.6288 -3.03163 -4.39236 0
M  V30 570 O 54.8518 -2.16396 -5.27758 0
M  V30 571 O 53.7858 -3.9558 -4.53652 0
M  V30 572 H 57.6118 -2.63907 -1.50289 0
M  V30 573 H 55.1968 -1.32951 -0.681502 0
M  V30 574 H 57.0788 -1.803 -3.80881 0
M  V30 575 H 55.7538 -0.816901 -3.13223 0
M  V30 576 H 54.6608 -2.96981 -2.27493 0
M  V30 577 H 55.9938 -3.89535 -3.00871 0
M  V30 578 N 57.6459 0.756429 -1.3826 0
M  V30 579 C 58.5929 1.87011 -1.35261 0
M  V30 580 C 59.5629 1.64695 -0.215616 0
M  V30 581 O 60.7479 1.864 -0.407399 0
M  V30 582 C 57.8879 3.24275 -1.18068 0
M  V30 583 C 57.0009 3.58442 -2.41129 0
M  V30 584 C 56.1359 4.84994 -2.16689 0
M  V30 585 C 55.1749 5.11939 -3.35537 0
M  V30 586 N 54.3119 6.29685 -3.10549 0
M  V30 587 H 59.1519 1.8891 -2.30472 0
M  V30 588 H 56.6889 0.923373 -1.14509 0
M  V30 589 H 58.6469 4.03479 -1.06116 0
M  V30 590 H 57.2769 3.21711 -0.264973 0
M  V30 591 H 56.3289 2.74103 -2.63764 0
M  V30 592 H 57.6409 3.74283 -3.29717 0
M  V30 593 H 56.7949 5.72135 -2.01857 0
M  V30 594 H 55.5339 4.71286 -1.25462 0
M  V30 595 H 54.5389 4.23268 -3.50891 0
M  V30 596 H 55.7639 5.27546 -4.27635 0
M  V30 597 H 53.7099 6.17306 -2.21967 0
M  V30 598 H 53.6269 6.46014 -3.92686 0
M  V30 599 H 54.8949 7.19722 -2.99367 0
M  V30 600 N 59.124 1.23083 0.984299 0
M  V30 601 C 60.054 1.03292 2.09411 0
M  V30 602 C 61.035 -0.048923 1.7003 0
M  V30 603 O 62.22 0.114967 1.93859 0
M  V30 604 C 59.35 0.619155 3.41736 0
M  V30 605 C 58.304 1.64791 3.95004 0
M  V30 606 C 57.63 1.0897 5.23478 0
M  V30 607 C 58.93 3.03999 4.24714 0
M  V30 608 H 60.624 1.96119 2.26225 0
M  V30 609 H 58.17 0.944344 1.08711 0
M  V30 610 H 60.123 0.467777 4.18796 0
M  V30 611 H 58.847 -0.344786 3.24775 0
M  V30 612 H 57.506 1.78721 3.20085 0
M  V30 613 H 57.154 0.11686 5.02864 0
M  V30 614 H 56.854 1.77704 5.60085 0
M  V30 615 H 58.378 0.950093 6.03163 0
M  V30 616 H 59.792 2.93393 4.92538 0
M  V30 617 H 58.189 3.69936 4.72512 0
M  V30 618 H 59.259 3.53285 3.32142 0
M  V30 619 N 60.6021 -1.18246 1.0419 0
M  V30 620 C 61.5491 -2.2192 0.634037 0
M  V30 621 C 62.5191 -1.62179 -0.358765 0
M  V30 622 O 63.7041 -1.89122 -0.252466 0
M  V30 623 C 60.8441 -3.451 0.00445535 0
M  V30 624 C 59.9571 -4.19174 1.04487 0
M  V30 625 C 59.0921 -5.29813 0.383676 0
M  V30 626 C 58.1311 -5.9566 1.4091 0
M  V30 627 N 57.2681 -6.97834 0.772784 0
M  V30 628 H 62.1081 -2.56164 1.52263 0
M  V30 629 H 59.6451 -1.25843 0.761701 0
M  V30 630 H 61.6031 -4.15485 -0.377919 0
M  V30 631 H 60.2331 -3.11472 -0.847652 0
M  V30 632 H 59.2851 -3.47604 1.54518 0
M  V30 633 H 60.5971 -4.64267 1.82368 0
M  V30 634 H 59.7511 -6.06677 -0.0528366 0
M  V30 635 H 58.4901 -4.85825 -0.427208 0
M  V30 636 H 57.4951 -5.17535 1.85574 0
M  V30 637 H 58.7201 -6.4173 2.22171 0
M  V30 638 H 56.6661 -6.55998 -0.0177708 0
M  V30 639 H 56.5831 -7.41186 1.48928 0
M  V30 640 H 57.8511 -7.78665 0.36071 0
M  V30 641 N 62.0802 -0.821533 -1.34494 0
M  V30 642 C 63.3082 -0.421884 -2.02553 0
M  V30 643 C 63.7232 0.971745 -1.61872 0
M  V30 644 O 63.0802 1.62864 -0.823496 0
M  V30 645 C 63.1312 -0.51285 -3.57844 0
M  V30 646 O 62.8522 -1.85155 -3.97051 0
M  V30 647 C 64.3532 -0.107921 -4.43169 0
M  V30 648 H 61.5732 -0.169482 -0.649243 0
M  V30 649 H 64.1172 -1.1093 -1.71798 0
M  V30 650 H 62.2722 0.126474 -3.87193 0
M  V30 651 H 62.6862 -1.82482 -4.91732 0
M  V30 652 H 64.1602 -0.222657 -5.51551 0
M  V30 653 H 64.6372 0.948401 -4.28838 0
M  V30 654 H 65.2432 -0.720989 -4.19144 0
M  V30 655 N 63.5583 1.46682 -0.576371 0
M  V30 656 C 64.7833 2.07304 -0.0630475 0
M  V30 657 C 65.2083 1.42329 1.2298 0
M  V30 658 O 64.5663 0.504865 1.74129 0
M  V30 659 C 64.6143 3.60472 0.095895 0
M  V30 660 O 63.7183 3.95927 1.15394 0
M  V30 661 H 63.0593 0.661288 -0.0599463 0
M  V30 662 H 65.5893 1.88417 -0.797511 0
M  V30 663 H 65.5993 4.06865 0.304071 0
M  V30 664 H 64.2743 4.07157 -0.84828 0
M  V30 665 H 62.8513 3.61252 0.924724 0
M  V30 666 N 65.0364 0.313813 1.54444 0
M  V30 667 C 66.2614 -0.296681 2.05267 0
M  V30 668 C 66.6864 -1.45757 1.18897 0
M  V30 669 O 66.0444 -1.80239 0.195886 0
M  V30 670 C 66.0924 -0.71831 3.53373 0
M  V30 671 O 65.1964 -1.82175 3.69981 0
M  V30 672 H 64.5374 -0.0554061 0.661684 0
M  V30 673 H 67.0674 0.459387 1.99376 0
M  V30 674 H 67.0774 -1.00364 3.95463 0
M  V30 675 H 65.7524 0.130821 4.15694 0
M  V30 676 H 64.3294 -1.53598 3.39797 0
M  V30 677 N 66.5145 -1.57545 0.0417849 0
M  V30 678 C 67.4445 -2.14009 -0.933929 0
M  V30 679 C 68.4255 -1.05938 -1.33083 0
M  V30 680 O 69.6105 -1.33833 -1.40721 0
M  V30 681 C 66.7405 -2.67747 -2.21199 0
M  V30 682 C 65.6945 -3.80718 -1.95544 0
M  V30 683 C 65.0205 -4.20935 -3.29724 0
M  V30 684 C 66.3205 -5.06258 -1.28452 0
M  V30 685 H 68.0145 -2.95788 -0.463645 0
M  V30 686 H 65.5605 -1.42285 -0.221573 0
M  V30 687 H 67.5135 -3.05886 -2.89848 0
M  V30 688 H 66.2375 -1.83147 -2.70416 0
M  V30 689 H 64.8965 -3.43037 -1.2931 0
M  V30 690 H 64.5445 -3.33298 -3.76724 0
M  V30 691 H 64.2445 -4.9707 -3.13361 0
M  V30 692 H 65.7685 -4.61666 -3.9962 0
M  V30 693 H 67.1825 -5.41903 -1.8712 0
M  V30 694 H 65.5795 -5.87475 -1.22445 0
M  V30 695 H 66.6495 -4.84207 -0.259219 0
M  V30 696 N 67.9926 0.231505 -1.5589 0
M  V30 697 C 69.2206 0.974505 -1.82513 0
M  V30 698 C 69.6356 1.78344 -0.619591 0
M  V30 699 O 68.9926 1.77792 0.411848 0
M  V30 700 C 69.0436 1.90007 -3.07538 0
M  V30 701 O 68.7646 1.12385 -4.2344 0
M  V30 702 C 70.2656 2.75779 -3.47075 0
M  V30 703 H 67.4856 0.286065 -0.606966 0
M  V30 704 H 70.0296 0.249739 -2.02969 0
M  V30 705 H 68.1846 2.57891 -2.89086 0
M  V30 706 H 68.5986 1.75125 -4.944 0
M  V30 707 H 70.0726 3.36443 -4.37619 0
M  V30 708 H 70.5496 3.47672 -2.68367 0
M  V30 709 H 71.1556 2.13323 -3.67931 0
M  V30 710 N 69.4707 1.49531 0.497807 0
M  V30 711 C 70.7477 1.49682 1.25915 0
M  V30 712 C 71.1277 0.226339 2.09883 0
M  V30 713 O 70.4757 -0.791189 2.14365 0
M  V30 714 C 70.6857 2.77755 2.11313 0
M  V30 715 C 72.0337 3.27371 2.70395 0
M  V30 716 O 73.0577 2.78894 2.21578 0
M  V30 717 O 71.9167 4.11808 3.59272 0
M  V30 718 H 69.0107 0.599228 0.56996 0
M  V30 719 H 71.5567 1.61798 0.511816 0
M  V30 720 H 70.3287 3.61713 1.49264 0
M  V30 721 H 69.9517 2.68515 2.93233 0
M  V30 722 N 70.9488 -0.749086 1.3866 0
M  V30 723 C 72.3648 -1.05276 1.19955 0
M  V30 724 C 72.5648 -2.01435 0.05134 0
M  V30 725 O 71.6208 -2.45232 -0.60147 0
M  V30 726 C 72.9338 -1.62853 2.52783 0
M  V30 727 C 74.4818 -1.75002 2.59506 0
M  V30 728 C 74.9568 -2.35991 3.92521 0
M  V30 729 N 76.4478 -2.43416 3.94085 0
M  V30 730 C 77.1828 -2.91511 4.9377 0
M  V30 731 N 76.6788 -3.39608 6.03853 0
M  V30 732 N 78.4718 -2.90592 4.81157 0
M  V30 733 H 70.6228 -0.111066 2.12109 0
M  V30 734 H 72.8858 -0.111901 0.941373 0
M  V30 735 H 72.5918 -0.99664 3.37283 0
M  V30 736 H 72.4658 -2.61854 2.715 0
M  V30 737 H 74.8528 -2.37317 1.75398 0
M  V30 738 H 74.9338 -0.74693 2.44652 0
M  V30 739 H 74.5778 -1.74308 4.77053 0
M  V30 740 H 74.5078 -3.3695 4.04688 0
M  V30 741 H 76.9988 -2.09405 3.14576 0
M  V30 742 H 77.3118 -3.74775 6.75843 0
M  V30 743 H 75.6568 -3.37653 6.07466 0
M  V30 744 H 78.8478 -2.52332 3.94267 0
M  V30 745 H 79.0208 -3.27762 5.58996 0
M  V30 746 N 72.4269 -1.23603 -0.977757 0
M  V30 747 C 73.3589 -0.977369 -2.07317 0
M  V30 748 C 74.3719 0.0495845 -1.62724 0
M  V30 749 O 75.5609 -0.186261 -1.77526 0
M  V30 750 C 72.6609 -0.451216 -3.35883 0
M  V30 751 C 71.8339 -1.53896 -4.09432 0
M  V30 752 C 70.8929 -1.01721 -5.16274 0
M  V30 753 O 69.9189 -1.70676 -5.43009 0
M  V30 754 N 71.1209 0.153594 -5.80297 0
M  V30 755 H 73.8859 -1.92047 -2.30082 0
M  V30 756 H 71.4469 -1.14497 -1.14465 0
M  V30 757 H 73.4389 -0.0871574 -4.04606 0
M  V30 758 H 72.0089 0.397368 -3.10064 0
M  V30 759 H 71.2289 -2.07566 -3.35127 0
M  V30 760 H 72.5169 -2.27037 -4.55337 0
M  V30 761 H 71.9149 0.730323 -5.60966 0
M  V30 762 H 70.4719 0.458892 -6.50183 0
M  V30 763 N 73.905 1.17692 -1.04816 0
M  V30 764 C 75.316 1.69501 -0.782698 0
M  V30 765 C 75.667 1.83456 0.695577 0
M  V30 766 O 74.792 1.51942 1.54086 0
M  V30 767 C 75.387 3.07874 -1.41419 0
M  V30 768 C 73.946 3.56864 -1.19686 0
M  V30 769 C 73.093 2.3322 -1.50012 0
M  V30 770 H 76.044 1.02262 -1.2136 0
M  V30 771 H 76.065 3.71528 -0.821428 0
M  V30 772 H 75.577 2.97685 -2.49009 0
M  V30 773 H 73.678 3.72337 -0.140043 0
M  V30 774 H 73.791 4.39851 -1.89916 0
M  V30 775 H 72.155 2.37501 -0.920071 0
M  V30 776 H 72.938 2.25644 -2.58727 0
M  V30 777 N 75.3831 0.828654 1.34056 0
M  V30 778 C 76.3131 0.269443 2.3194 0
M  V30 779 C 77.2941 -0.617247 1.58506 0
M  V30 780 O 78.4791 -0.542931 1.86456 0
M  V30 781 C 75.6091 -0.564793 3.42677 0
M  V30 782 C 74.5631 0.225241 4.27407 0
M  V30 783 C 73.8891 -0.7321 5.29664 0
M  V30 784 C 75.1891 1.43663 5.02154 0
M  V30 785 H 76.8831 1.08728 2.7896 0
M  V30 786 H 74.4291 0.524283 1.34117 0
M  V30 787 H 76.3821 -0.966233 4.10173 0
M  V30 788 H 75.1061 -1.41574 2.9432 0
M  V30 789 H 73.7651 0.608117 3.61521 0
M  V30 790 H 73.4131 -1.57916 4.77568 0
M  V30 791 H 73.1131 -0.20767 5.87233 0
M  V30 792 H 74.6371 -1.13128 6.00029 0
M  V30 793 H 76.0511 1.1089 5.62473 0
M  V30 794 H 74.4481 1.89711 5.69324 0
M  V30 795 H 75.5181 2.21181 4.31517 0
M  V30 796 N 76.8612 -1.46375 0.584142 0
M  V30 797 C 78.0862 -2.07268 0.0740405 0
M  V30 798 C 78.5112 -1.42979 -1.22223 0
M  V30 799 O 77.8692 -0.514092 -1.73859 0
M  V30 800 C 77.9172 -3.60518 -0.0767769 0
M  V30 801 O 77.0212 -3.96533 -1.13292 0
M  V30 802 H 76.3622 -0.660961 0.0634524 0
M  V30 803 H 78.8922 -1.87991 0.807492 0
M  V30 804 H 78.9022 -4.07021 -0.282489 0
M  V30 805 H 77.5772 -4.06702 0.86986 0
M  V30 806 H 76.1542 -3.61738 -0.905553 0
M  V30 807 N 78.3393 -0.321999 -1.54275 0
M  V30 808 C 79.2863 0.544664 -2.24281 0
M  V30 809 C 80.2563 1.1129 -1.23303 0
M  V30 810 O 81.4413 1.15354 -1.51981 0
M  V30 811 C 78.5813 1.70045 -3.00298 0
M  V30 812 C 77.6943 1.16159 -4.1609 0
M  V30 813 C 76.8293 2.28293 -4.79641 0
M  V30 814 C 75.8683 1.71648 -5.8754 0
M  V30 815 N 75.0053 2.77438 -6.44959 0
M  V30 816 H 79.8453 -0.0588907 -2.97942 0
M  V30 817 H 77.3823 -0.0408345 -1.47043 0
M  V30 818 H 79.3403 2.38054 -3.42616 0
M  V30 819 H 77.9703 2.27531 -2.28975 0
M  V30 820 H 77.0223 0.373092 -3.78566 0
M  V30 821 H 78.3343 0.707087 -4.93763 0
M  V30 822 H 77.4883 3.0421 -5.2492 0
M  V30 823 H 76.2273 2.77079 -4.01346 0
M  V30 824 H 75.2323 0.942282 -5.41665 0
M  V30 825 H 76.4573 1.23741 -6.67731 0
M  V30 826 H 74.4033 3.25519 -5.69538 0
M  V30 827 H 74.3203 2.36547 -7.1804 0
M  V30 828 H 75.5883 3.53189 -6.94894 0
M  V30 829 N 79.8174 1.5752 -0.0501392 0
M  V30 830 C 80.7274 2.14952 0.939827 0
M  V30 831 C 81.7434 1.10706 1.34239 0
M  V30 832 O 82.9194 1.42869 1.41952 0
M  V30 833 C 79.9844 2.68232 2.19665 0
M  V30 834 C 79.0454 3.87272 1.85253 0
M  V30 835 C 78.2784 4.38002 3.04943 0
M  V30 836 O 78.5014 3.87811 4.18281 0
M  V30 837 O 77.4354 5.29602 2.86017 0
M  V30 838 H 81.2614 2.9986 0.481392 0
M  V30 839 H 78.8464 1.4841 0.171699 0
M  V30 840 H 80.7284 3.02475 2.93406 0
M  V30 841 H 79.4034 1.86395 2.64648 0
M  V30 842 H 78.3104 3.5792 1.0883 0
M  V30 843 H 79.6434 4.70336 1.4507 0
M  V30 844 N 81.2955 -0.223234 1.56011 0
M  V30 845 C 82.5205 -0.968978 1.83373 0
M  V30 846 C 82.9455 -1.77227 0.630254 0
M  V30 847 O 82.3035 -1.76345 -0.420959 0
M  V30 848 C 82.3515 -1.86363 3.08709 0
M  V30 849 O 81.4555 -2.95873 2.87285 0
M  V30 850 H 80.7965 -0.274461 0.604622 0
M  V30 851 H 83.3265 -0.237056 2.03222 0
M  V30 852 H 83.3365 -2.27376 3.38768 0
M  V30 853 H 82.0115 -1.27319 3.95933 0
M  V30 854 H 80.5885 -2.58818 2.68454 0
M  V30 855 N 82.7736 -1.49793 -0.48987 0
M  V30 856 C 83.7036 -1.70201 -1.59856 0
M  V30 857 C 84.6846 -0.55076 -1.60937 0
M  V30 858 O 85.8696 -0.787841 -1.77501 0
M  V30 859 C 82.9996 -1.77882 -2.98287 0
M  V30 860 C 81.9536 -2.92907 -3.12073 0
M  V30 861 C 81.2796 -2.85712 -4.51965 0
M  V30 862 C 82.5796 -4.3369 -2.91051 0
M  V30 863 H 84.2736 -2.63025 -1.43032 0
M  V30 864 H 81.8196 -1.26574 -0.686664 0
M  V30 865 H 83.7726 -1.90744 -3.75759 0
M  V30 866 H 82.4966 -0.816653 -3.16225 0
M  V30 867 H 81.1556 -2.79665 -2.37029 0
M  V30 868 H 80.8036 -1.8738 -4.66795 0
M  V30 869 H 80.5036 -3.62921 -4.62128 0
M  V30 870 H 82.0276 -3.00598 -5.31482 0
M  V30 871 H 83.4416 -4.47555 -3.58284 0
M  V30 872 H 81.8386 -5.12205 -3.12675 0
M  V30 873 H 82.9086 -4.47362 -1.87071 0
M  V30 874 N 84.2517 0.741722 -1.39055 0
M  V30 875 C 85.1997 1.87702 -1.3737 0
M  V30 876 C 86.1937 1.67427 -0.257812 0
M  V30 877 O 87.3997 1.7485 -0.427489 0
M  V30 878 H 83.7747 0.617757 -0.428812 0
M  V30 879 H 85.7457 1.86239 -2.33147 0
M  V30 880 C 84.4947 3.25315 -1.22741 0
M  V30 881 H 83.8177 3.41509 -2.07873 0
M  V30 882 H 85.2577 4.04964 -1.25618 0
M  V30 883 C 83.7167 3.36838 0.0647316 0
M  V30 884 O 84.2467 3.88073 1.03741 0
M  V30 885 N 82.4527 2.90329 0.125544 0
M  V30 886 H 81.9997 2.48823 -0.666682 0
M  V30 887 H 81.9577 2.98418 0.989639 0
M  V30 888 N 85.7298 1.2412 0.971189 0
M  V30 889 C 86.6798 0.997551 2.05019 0
M  V30 890 C 87.6638 -0.0597747 1.60789 0
M  V30 891 O 88.8558 0.153516 1.76333 0
M  V30 892 C 85.9848 0.600557 3.38006 0
M  V30 893 C 85.0708 1.69377 3.88809 0
M  V30 894 N 85.4618 2.92586 4.12586 0
M  V30 895 C 83.7598 1.57048 4.17435 0
M  V30 896 C 84.4608 3.63431 4.54195 0
M  V30 897 N 83.4368 2.90979 4.59165 0
M  V30 898 H 87.2388 1.93316 2.21374 0
M  V30 899 H 84.7528 1.14194 1.1547 0
M  V30 900 H 86.7498 0.40725 4.14906 0
M  V30 901 H 85.4098 -0.327903 3.2304 0
M  V30 902 H 86.4208 3.288 4.00139 0
M  V30 903 H 83.0978 0.709798 4.11422 0
M  V30 904 H 84.4878 4.69102 4.81033 0
M  V30 905 N 87.2079 -1.17134 1.05439 0
M  V30 906 C 88.1709 -2.19439 0.661764 0
M  V30 907 C 89.1709 -1.58199 -0.288042 0
M  V30 908 O 90.3609 -1.74053 -0.0715803 0
M  V30 909 C 87.4929 -3.40889 -0.0276209 0
M  V30 910 H 88.6859 -2.55688 1.56728 0
M  V30 911 H 86.2389 -1.31259 0.848567 0
M  V30 912 H 86.9739 -3.10187 -0.94629 0
M  V30 913 H 86.7589 -3.86586 0.655238 0
M  V30 914 H 88.2489 -4.16603 -0.288342 0
M  V30 915 N 88.686 -0.835752 -1.33615 0
M  V30 916 C 89.616 -0.281739 -2.31794 0
M  V30 917 C 90.597 0.608833 -1.58831 0
M  V30 918 O 91.782 0.533035 -1.86741 0
M  V30 919 C 88.912 0.546612 -3.42971 0
M  V30 920 C 87.866 -0.247904 -4.27281 0
M  V30 921 C 87.192 0.704001 -5.30045 0
M  V30 922 C 88.492 -1.46324 -5.01385 0
M  V30 923 H 90.186 -1.10206 -2.78379 0
M  V30 924 H 87.732 -0.531388 -1.33837 0
M  V30 925 H 89.685 0.944467 -4.1068 0
M  V30 926 H 88.409 1.40011 -2.95067 0
M  V30 927 H 87.068 -0.627281 -3.61194 0
M  V30 928 H 86.716 1.55381 -4.78399 0
M  V30 929 H 86.416 0.176524 -5.87335 0
M  V30 930 H 87.94 1.09944 -6.0062 0
M  V30 931 H 89.354 -1.13871 -5.61877 0
M  V30 932 H 87.751 -1.92728 -5.6831 0
M  V30 933 H 88.821 -2.23467 -4.30338 0
M  V30 934 N 90.1641 1.46063 -0.591896 0
M  V30 935 C 91.0741 2.34192 0.13831 0
M  V30 936 C 92.0901 1.50305 0.876608 0
M  V30 937 O 93.2661 1.8315 0.837728 0
M  V30 938 C 90.3311 3.27656 1.13326 0
M  V30 939 C 89.3921 4.27445 0.39863 0
M  V30 940 C 88.6251 5.16443 1.34618 0
M  V30 941 O 88.8481 5.08553 2.58321 0
M  V30 942 O 87.7821 5.95843 0.851768 0
M  V30 943 H 91.6081 2.98002 -0.58552 0
M  V30 944 H 89.1931 1.45188 -0.352239 0
M  V30 945 H 91.0751 3.85291 1.70671 0
M  V30 946 H 89.7501 2.6643 1.83839 0
M  V30 947 H 88.6571 3.73471 -0.216895 0
M  V30 948 H 89.9901 4.91482 -0.265709 0
M  V30 949 N 91.6422 0.330177 1.54103 0
M  V30 950 C 92.5722 -0.525353 2.27513 0
M  V30 951 C 93.5532 -1.11383 1.2856 0
M  V30 952 O 94.7382 -1.13773 1.57383 0
M  V30 953 C 91.8682 -1.6831 3.03791 0
M  V30 954 C 90.8222 -1.2236 4.10137 0
M  V30 955 C 90.1482 -2.46882 4.74293 0
M  V30 956 C 91.4482 -0.333697 5.21233 0
M  V30 957 H 93.1422 0.087013 2.99274 0
M  V30 958 H 90.6882 0.0432893 1.43935 0
M  V30 959 H 92.6412 -2.28795 3.5388 0
M  V30 960 H 91.3652 -2.32216 2.29659 0
M  V30 961 H 90.0242 -0.64165 3.60941 0
M  V30 962 H 89.6722 -3.09165 3.96769 0
M  V30 963 H 89.3722 -2.16825 5.46133 0
M  V30 964 H 90.8962 -3.08117 5.27159 0
M  V30 965 H 92.3102 -0.845013 5.67038 0
M  V30 966 H 90.7072 -0.125612 5.99969 0
M  V30 967 H 91.7772 0.633724 4.80741 0
M  V30 968 N 93.1203 -1.57491 0.0584922 0
M  V30 969 C 94.3453 -1.97711 -0.62652 0
M  V30 970 C 94.7703 -0.936132 -1.63151 0
M  V30 971 O 94.1283 0.099811 -1.81025 0
M  V30 972 C 94.1763 -3.36989 -1.28338 0
M  V30 973 O 93.2803 -3.35433 -2.39913 0
M  V30 974 H 92.6213 -0.643868 -0.162266 0
M  V30 975 H 95.1513 -2.04193 0.129064 0
M  V30 976 H 95.1613 -3.73879 -1.63335 0
M  V30 977 H 93.8363 -4.12289 -0.546889 0
M  V30 978 H 92.4133 -3.10298 -2.06809 0
M  V30 979 N 94.5984 0.214957 -1.56127 0
M  V30 980 C 95.8444 0.939762 -1.79712 0
M  V30 981 C 96.1774 1.83723 -0.629247 0
M  V30 982 O 95.4524 1.90925 0.371197 0
M  V30 983 C 95.7354 1.77306 -3.13424 0
M  V30 984 C 95.5884 0.90164 -4.40671 0
M  V30 985 C 96.9074 2.74956 -3.43638 0
M  V30 986 H 94.0264 0.340214 -0.653776 0
M  V30 987 H 96.6684 0.20824 -1.88855 0
M  V30 988 H 94.8184 2.39673 -3.0576 0
M  V30 989 H 96.4904 0.294206 -4.60361 0
M  V30 990 H 94.7334 0.207368 -4.33304 0
M  V30 991 H 95.4044 1.51923 -5.30682 0
M  V30 992 H 97.8804 2.22724 -3.51473 0
M  V30 993 H 96.7564 3.30358 -4.38355 0
M  V30 994 H 97.0174 3.53023 -2.66134 0
M  V30 995 N 96.0765 1.50051 0.48192 0
M  V30 996 C 97.4875 1.5348 1.06305 0
M  V30 997 C 97.8385 0.331997 1.93371 0
M  V30 998 O 96.9635 -0.556256 2.09129 0
M  V30 999 C 97.5585 2.7813 1.93466 0
M  V30 1000 C 96.1175 2.84275 2.46707 0
M  V30 1001 C 95.2645 2.47637 1.24785 0
M  V30 1002 H 98.2155 1.56472 0.264995 0
M  V30 1003 H 98.2365 2.59372 2.78399 0
M  V30 1004 H 97.7485 3.65654 1.30072 0
M  V30 1005 H 95.8495 2.01077 3.13686 0
M  V30 1006 H 95.9625 3.8691 2.82555 0
M  V30 1007 H 94.3265 1.99835 1.57918 0
M  V30 1008 H 95.1095 3.37457 0.630694 0
M  V30 1009 N 97.5546 -0.734337 1.39446 0
M  V30 1010 C 98.4646 -1.87879 1.40495 0
M  V30 1011 C 99.4806 -1.714 0.299672 0
M  V30 1012 O 100.657 -1.93991 0.541249 0
M  V30 1013 C 97.7216 -3.23477 1.24754 0
M  V30 1014 C 96.7826 -3.52344 2.45259 0
M  V30 1015 C 96.0156 -4.81473 2.30259 0
M  V30 1016 O 96.2386 -5.55237 1.30643 0
M  V30 1017 O 95.1726 -5.10254 3.19256 0
M  V30 1018 H 98.9986 -1.89949 2.36966 0
M  V30 1019 H 96.5836 -0.882243 1.20569 0
M  V30 1020 H 98.4656 -4.04509 1.18111 0
M  V30 1021 H 97.1406 -3.22176 0.313781 0
M  V30 1022 H 96.0476 -2.71396 2.57478 0
M  V30 1023 H 97.3806 -3.58426 3.37331 0
M  V30 1024 N 99.0327 -1.24633 -0.964593 0
M  V30 1025 C 99.9797 -1.04144 -2.05968 0
M  V30 1026 C 100.95 0.046262 -1.66036 0
M  V30 1027 O 102.135 -0.108972 -1.90489 0
M  V30 1028 C 99.2747 -0.65563 -3.38815 0
M  V30 1029 C 98.3877 -1.81714 -3.91923 0
M  V30 1030 C 97.5227 -1.37662 -5.13052 0
M  V30 1031 C 96.5617 -2.50788 -5.58365 0
M  V30 1032 N 95.6987 -2.07582 -6.70712 0
M  V30 1033 H 100.539 -1.9787 -2.22827 0
M  V30 1034 H 98.0757 -0.9855 -1.09208 0
M  V30 1035 H 100.034 -0.412954 -4.15151 0
M  V30 1036 H 98.6637 0.244627 -3.21872 0
M  V30 1037 H 97.7157 -2.1734 -3.12198 0
M  V30 1038 H 99.0277 -2.66705 -4.21509 0
M  V30 1039 H 98.1817 -1.093 -5.96773 0
M  V30 1040 H 96.9207 -0.497293 -4.85158 0
M  V30 1041 H 95.9257 -2.79906 -4.73215 0
M  V30 1042 H 97.1507 -3.39283 -5.88272 0
M  V30 1043 H 95.0967 -1.22051 -6.44546 0
M  V30 1044 H 95.0137 -2.86125 -6.99763 0
M  V30 1045 H 96.2817 -1.82369 -7.57867 0
M  V30 1046 N 100.511 1.16574 -1.06058 0
M  V30 1047 C 101.757 1.87324 -0.777022 0
M  V30 1048 C 102.09 1.81351 0.694645 0
M  V30 1049 O 101.365 1.22753 1.50871 0
M  V30 1050 C 101.648 3.36991 -1.26922 0
M  V30 1051 C 101.501 3.51667 -2.80447 0
M  V30 1052 C 102.82 4.3131 -0.87521 0
M  V30 1053 H 99.9388 0.680191 -0.28374 0
M  V30 1054 H 102.581 1.37036 -1.3161 0
M  V30 1055 H 100.731 3.79949 -0.81063 0
M  V30 1056 H 102.403 3.17664 -3.34495 0
M  V30 1057 H 100.646 2.93656 -3.19294 0
M  V30 1058 H 101.317 4.56766 -3.0995 0
M  V30 1059 H 103.793 3.9624 -1.27014 0
M  V30 1060 H 102.669 5.34545 -1.2471 0
M  V30 1061 H 102.93 4.41552 0.220071 0
M  V30 1062 N 101.989 0.842826 1.3317 0
M  V30 1063 C 102.937 0.267495 2.31057 0
M  V30 1064 C 103.931 -0.602682 1.58316 0
M  V30 1065 O 105.137 -0.491803 1.73151 0
M  V30 1066 H 101.512 0.0677813 0.748939 0
M  V30 1067 H 103.483 1.10754 2.77085 0
M  V30 1068 C 102.232 -0.539331 3.43492 0
M  V30 1069 H 101.555 0.12095 3.99617 0
M  V30 1070 H 102.995 -0.90767 4.14171 0
M  V30 1071 C 101.454 -1.71981 2.89697 0
M  V30 1072 O 101.984 -2.81862 2.86211 0
M  V30 1073 N 100.19 -1.54299 2.46252 0
M  V30 1074 H 99.7369 -0.649143 2.49287 0
M  V30 1075 H 99.6949 -2.33431 2.10612 0
M  V30 1076 N 103.467 -1.45747 0.599634 0
M  V30 1077 C 104.415 -2.322 -0.136426 0
M  V30 1078 C 105.409 -1.45497 -0.867583 0
M  V30 1079 O 106.615 -1.62027 -0.78405 0
M  V30 1080 H 102.99 -0.749368 -0.0628588 0
M  V30 1081 H 104.961 -2.92072 0.611281 0
M  V30 1082 C 103.71 -3.28974 -1.12567 0
M  V30 1083 H 103.033 -3.9568 -0.572484 0
M  V30 1084 H 104.473 -3.92212 -1.61077 0
M  V30 1085 C 102.932 -2.55561 -2.19523 0
M  V30 1086 O 103.462 -2.33111 -3.27143 0
M  V30 1087 N 101.668 -2.15832 -1.94589 0
M  V30 1088 H 101.215 -2.3429 -1.07078 0
M  V30 1089 H 101.173 -1.67034 -2.66359 0
M  V30 1090 N 104.945 -0.338344 -1.53925 0
M  V30 1091 C 105.908 0.508299 -2.23493 0
M  V30 1092 C 106.908 1.03175 -1.23335 0
M  V30 1093 O 108.098 0.921826 -1.47811 0
M  V30 1094 C 105.23 1.70754 -2.95052 0
M  V30 1095 H 106.423 -0.100058 -2.99733 0
M  V30 1096 H 103.976 -0.0896198 -1.56043 0
M  V30 1097 H 104.711 2.35474 -2.22986 0
M  V30 1098 H 104.496 1.33946 -3.68512 0
M  V30 1099 H 105.986 2.30818 -3.48013 0
M  V30 1100 N 106.423 1.57458 -0.0668435 0
M  V30 1101 C 107.355 2.09413 0.931601 0
M  V30 1102 C 108.368 1.02522 1.26464 0
M  V30 1103 O 109.557 1.30049 1.22269 0
M  V30 1104 C 106.657 2.53537 2.24882 0
M  V30 1105 C 105.83 3.83944 2.09537 0
M  V30 1106 C 104.889 4.14214 3.2452 0
M  V30 1107 O 103.915 4.83891 2.9973 0
M  V30 1108 N 105.117 3.67367 4.49469 0
M  V30 1109 H 107.882 2.95699 0.488048 0
M  V30 1110 H 105.443 1.61462 0.119009 0
M  V30 1111 H 107.435 2.70853 3.00701 0
M  V30 1112 H 106.005 1.72415 2.60753 0
M  V30 1113 H 105.225 3.76057 1.18215 0
M  V30 1114 H 106.513 4.69312 1.96529 0
M  V30 1115 H 105.911 3.11068 4.72497 0
M  V30 1116 H 104.468 3.89891 5.2233 0
M  V30 1117 N 107.901 -0.206675 1.56239 0
M  V30 1118 C 109.147 -0.925733 1.81113 0
M  V30 1119 C 109.502 -1.81368 0.642135 0
M  V30 1120 O 108.795 -1.88126 -0.363211 0
M  V30 1121 C 108.989 -1.78675 3.09532 0
M  V30 1122 C 108.818 -0.98365 4.3881 0
M  V30 1123 C 107.588 -0.672661 5.00803 0
M  V30 1124 C 109.786 -0.341847 5.13163 0
M  V30 1125 N 107.768 0.150283 6.13716 0
M  V30 1126 C 109.139 0.343815 6.19046 0
M  V30 1127 C 111.194 -0.256392 4.97239 0
M  V30 1128 C 109.897 1.10678 7.10734 0
M  V30 1129 C 111.923 0.493142 5.8934 0
M  V30 1130 C 111.285 1.16729 6.94661 0
M  V30 1131 H 107.384 -0.318524 0.714189 0
M  V30 1132 H 109.968 -0.195378 1.93717 0
M  V30 1133 H 108.139 -2.4888 2.98183 0
M  V30 1134 H 109.871 -2.44441 3.22538 0
M  V30 1135 H 106.626 -0.994294 4.63045 0
M  V30 1136 H 107.05 0.551026 6.74754 0
M  V30 1137 H 111.692 -0.763249 4.15854 0
M  V30 1138 H 109.41 1.6251 7.91591 0
M  V30 1139 H 112.996 0.560465 5.79094 0
M  V30 1140 H 111.876 1.738 7.64698 0
M  V30 1141 N 109.379 -1.50304 -0.473955 0
M  V30 1142 C 110.656 -1.51667 -1.23518 0
M  V30 1143 C 111.036 -0.259701 -2.09496 0
M  V30 1144 O 110.384 0.756986 -2.15597 0
M  V30 1145 C 110.594 -2.81082 -2.06868 0
M  V30 1146 C 111.942 -3.31631 -2.65153 0
M  V30 1147 O 112.966 -2.82384 -2.17113 0
M  V30 1148 O 111.825 -4.17471 -3.52675 0
M  V30 1149 H 108.919 -0.60822 -0.560355 0
M  V30 1150 H 111.465 -1.62592 -0.486011 0
M  V30 1151 H 110.237 -3.64041 -1.4349 0
M  V30 1152 H 109.86 -2.73146 -2.88924 0
M  V30 1153 N 110.857 0.726932 -1.39834 0
M  V30 1154 C 111.82 1.82269 -1.38962 0
M  V30 1155 C 112.82 1.58248 -0.285334 0
M  V30 1156 O 114.01 1.65499 -0.54366 0
M  V30 1157 C 111.142 3.20186 -1.17019 0
M  V30 1158 H 112.335 1.84443 -2.36476 0
M  V30 1159 H 109.888 0.931416 -1.25516 0
M  V30 1160 H 110.623 3.23669 -0.202204 0
M  V30 1161 H 110.408 3.3902 -1.96998 0
M  V30 1162 H 111.898 4.00235 -1.1917 0
M  V30 1163 N 112.336 1.25143 0.95797 0
M  V30 1164 C 113.747 1.08851 1.51685 0
M  V30 1165 C 114.098 -0.33687 1.93286 0
M  V30 1166 O 113.223 -1.22644 1.7829 0
M  V30 1167 C 113.818 1.96978 2.75654 0
M  V30 1168 C 112.377 1.84881 3.27866 0
M  V30 1169 C 111.524 1.91329 2.0072 0
M  V30 1170 H 114.475 1.38478 0.77522 0
M  V30 1171 H 114.496 1.5078 3.4935 0
M  V30 1172 H 114.008 3.00712 2.45345 0
M  V30 1173 H 112.109 0.840182 3.63004 0
M  V30 1174 H 112.222 2.6951 3.96107 0
M  V30 1175 H 110.586 1.35174 2.15871 0
M  V30 1176 H 111.369 2.96661 1.72764 0
M  V30 1177 N 113.814 -1.1601 1.06675 0
M  V30 1178 C 114.724 -2.24156 0.692179 0
M  V30 1179 C 115.74 -1.71507 -0.293513 0
M  V30 1180 O 116.916 -2.009 -0.141861 0
M  V30 1181 C 113.981 -3.46587 0.0884131 0
M  V30 1182 C 113.042 -4.14257 1.12646 0
M  V30 1183 C 112.275 -5.30844 0.551416 0
M  V30 1184 O 112.498 -5.66858 -0.634656 0
M  V30 1185 O 111.432 -5.87848 1.29298 0
M  V30 1186 H 115.258 -2.58513 1.59388 0
M  V30 1187 H 112.843 -1.23599 0.83926 0
M  V30 1188 H 114.725 -4.20679 -0.246361 0
M  V30 1189 H 113.4 -3.13994 -0.786712 0
M  V30 1190 H 112.307 -3.42118 1.51348 0
M  V30 1191 H 113.64 -4.50914 1.97325 0
M  V30 1192 N 115.292 -0.849877 -1.32721 0
M  V30 1193 C 116.202 -0.293791 -2.32753 0
M  V30 1194 C 117.218 0.585906 -1.63839 0
M  V30 1195 O 118.394 0.487413 -1.95413 0
M  V30 1196 C 115.459 0.512752 -3.42887 0
M  V30 1197 C 114.52 -0.39252 -4.27502 0
M  V30 1198 C 113.753 0.375625 -5.32377 0
M  V30 1199 O 113.976 1.60613 -5.4732 0
M  V30 1200 O 112.91 -0.256094 -6.01355 0
M  V30 1201 H 116.736 -1.12242 -2.82197 0
M  V30 1202 H 114.321 -0.612685 -1.36259 0
M  V30 1203 H 116.203 0.970704 -4.10067 0
M  V30 1204 H 114.878 1.31826 -2.95641 0
M  V30 1205 H 113.785 -0.898547 -3.63149 0
M  V30 1206 H 115.118 -1.16309 -4.7826 0
M  V30 1207 N 116.77 1.45427 -0.607355 0
M  V30 1208 C 117.733 2.28974 0.101693 0
M  V30 1209 C 118.733 1.39754 0.795329 0
M  V30 1210 O 119.923 1.61878 0.643527 0
M  V30 1211 C 117.055 3.20768 1.15414 0
M  V30 1212 H 118.248 2.93147 -0.632844 0
M  V30 1213 H 115.801 1.51945 -0.366391 0
M  V30 1214 H 116.536 2.61395 1.91945 0
M  V30 1215 H 116.321 3.86489 0.66098 0
M  V30 1216 H 117.811 3.83589 1.65073 0
M  V30 1217 N 118.248 0.346503 1.53744 0
M  V30 1218 C 119.178 -0.501193 2.28058 0
M  V30 1219 C 120.159 -1.10014 1.29734 0
M  V30 1220 O 121.344 -1.12097 1.58581 0
M  V30 1221 C 118.474 -1.65078 3.05559 0
M  V30 1222 C 117.428 -1.18003 4.11411 0
M  V30 1223 C 116.754 -2.41837 4.76884 0
M  V30 1224 C 118.054 -0.278394 5.21558 0
M  V30 1225 H 119.748 0.11875 2.99164 0
M  V30 1226 H 117.294 0.0585531 1.43881 0
M  V30 1227 H 119.247 -2.25028 3.56287 0
M  V30 1228 H 117.971 -2.29767 2.32109 0
M  V30 1229 H 116.63 -0.603331 3.61601 0
M  V30 1230 H 116.278 -3.0494 4.00026 0
M  V30 1231 H 115.978 -2.1102 5.48402 0
M  V30 1232 H 117.502 -3.02508 5.30397 0
M  V30 1233 H 118.916 -0.784823 5.67903 0
M  V30 1234 H 117.313 -0.0619707 6.00068 0
M  V30 1235 H 118.383 0.684677 4.80042 0
M  V30 1236 N 119.726 -1.57421 0.075193 0
M  V30 1237 C 120.972 -1.94716 -0.587998 0
M  V30 1238 C 121.327 -0.955205 -1.67014 0
M  V30 1239 O 120.62 0.0219842 -1.91587 0
M  V30 1240 C 120.814 -3.36428 -1.20626 0
M  V30 1241 C 120.643 -4.49317 -0.185541 0
M  V30 1242 C 119.413 -5.04772 0.23099 0
M  V30 1243 C 121.611 -5.11036 0.57854 0
M  V30 1244 N 119.593 -6.01204 1.24206 0
M  V30 1245 C 120.964 -6.02998 1.44199 0
M  V30 1246 C 123.019 -4.93844 0.634237 0
M  V30 1247 C 121.722 -6.79614 2.3562 0
M  V30 1248 C 123.748 -5.71106 1.53597 0
M  V30 1249 C 123.11 -6.6272 2.38709 0
M  V30 1250 H 119.209 -0.759536 -0.186089 0
M  V30 1251 H 121.793 -1.94097 0.153128 0
M  V30 1252 H 119.964 -3.37778 -1.9173 0
M  V30 1253 H 121.696 -3.60951 -1.8302 0
M  V30 1254 H 118.451 -4.73353 -0.152807 0
M  V30 1255 H 118.875 -6.54119 1.74521 0
M  V30 1256 H 123.517 -4.22799 -0.00960004 0
M  V30 1257 H 121.235 -7.49934 3.01038 0
M  V30 1258 H 124.821 -5.59824 1.58394 0
M  V30 1259 H 123.701 -7.2146 3.07352 0
M  V30 1260 N 121.204 0.198386 -1.56346 0
M  V30 1261 C 122.432 0.935572 -1.84539 0
M  V30 1262 C 122.847 1.76989 -0.657281 0
M  V30 1263 O 122.204 1.78626 0.374043 0
M  V30 1264 C 122.255 1.8344 -3.11499 0
M  V30 1265 O 121.976 1.03377 -4.25728 0
M  V30 1266 C 123.477 2.68355 -3.52846 0
M  V30 1267 H 120.697 0.273126 -0.612897 0
M  V30 1268 H 123.241 0.20663 -2.03453 0
M  V30 1269 H 121.396 2.51701 -2.94492 0
M  V30 1270 H 121.81 1.64599 -4.98003 0
M  V30 1271 H 123.284 3.27085 -4.44657 0
M  V30 1272 H 123.761 3.41901 -2.75681 0
M  V30 1273 H 124.367 2.05471 -3.72373 0
M  V30 1274 N 122.682 1.50554 0.465978 0
M  V30 1275 C 123.91 1.65563 1.24083 0
M  V30 1276 C 124.325 0.341051 1.85694 0
M  V30 1277 O 123.682 -0.677543 1.69457 0
M  V30 1278 C 123.733 2.75051 2.34583 0
M  V30 1279 O 123.454 4.01413 1.75497 0
M  V30 1280 C 124.955 3.01078 3.25372 0
M  V30 1281 H 122.175 0.55638 0.375077 0
M  V30 1282 H 124.719 1.96807 0.555624 0
M  V30 1283 H 122.874 2.46486 2.9887 0
M  V30 1284 H 123.288 4.62002 2.48303 0
M  V30 1285 H 124.762 3.81339 3.99105 0
M  V30 1286 H 125.239 2.12349 3.84453 0
M  V30 1287 H 125.845 3.31194 2.66816 0
M  V30 1288 N 124.16 -0.719506 1.40217 0
M  V30 1289 C 125.576 -1.02707 1.22161 0
M  V30 1290 C 125.776 -2.0128 0.0940557 0
M  V30 1291 O 124.832 -2.46452 -0.549318 0
M  V30 1292 C 126.145 -1.57454 2.56181 0
M  V30 1293 C 127.693 -1.69458 2.63159 0
M  V30 1294 C 128.168 -2.27611 3.97438 0
M  V30 1295 N 129.659 -2.35002 3.99159 0
M  V30 1296 C 130.394 -2.80972 4.99842 0
M  V30 1297 N 129.89 -3.26723 6.10921 0
M  V30 1298 N 131.683 -2.80321 4.87213 0
M  V30 1299 H 123.834 -0.0660492 2.12297 0
M  V30 1300 H 126.097 -0.0919077 0.943534 0
M  V30 1301 H 125.803 -0.924873 3.39321 0
M  V30 1302 H 125.677 -2.56036 2.76993 0
M  V30 1303 H 128.064 -2.33543 1.80393 0
M  V30 1304 H 128.145 -0.694867 2.46181 0
M  V30 1305 H 127.789 -1.6415 4.80643 0
M  V30 1306 H 127.719 -3.2829 4.11744 0
M  V30 1307 H 130.21 -2.02685 3.18947 0
M  V30 1308 H 130.523 -3.60355 6.8364 0
M  V30 1309 H 128.868 -3.24692 6.14492 0
M  V30 1310 H 132.059 -2.43912 3.9953 0
M  V30 1311 H 132.232 -3.15831 5.65822 0
M  V30 1312 N 125.638 -1.25649 -0.95132 0
M  V30 1313 C 126.601 -1.06399 -2.03007 0
M  V30 1314 C 127.601 -0.0156794 -1.60792 0
M  V30 1315 O 128.791 -0.25817 -1.72276 0
M  V30 1316 C 125.923 -0.616184 -3.35285 0
M  V30 1317 H 127.116 -2.02164 -2.21517 0
M  V30 1318 H 124.669 -1.08103 -1.12887 0
M  V30 1319 H 125.404 0.343917 -3.22471 0
M  V30 1320 H 125.189 -1.37301 -3.67275 0
M  V30 1321 H 126.679 -0.503032 -4.14559 0
M  V30 1322 N 127.117 1.15442 -1.07289 0
M  V30 1323 C 128.394 1.82306 -0.708792 0
M  V30 1324 C 128.774 1.94991 0.808807 0
M  V30 1325 O 128.122 1.50085 1.72298 0
M  V30 1326 C 128.332 3.18695 -1.42247 0
M  V30 1327 C 129.68 3.94341 -1.57417 0
M  V30 1328 O 130.704 3.28247 -1.38319 0
M  V30 1329 O 129.563 5.12839 -1.88834 0
M  V30 1330 H 126.657 0.787628 -0.252132 0
M  V30 1331 H 129.203 1.22559 -1.17377 0
M  V30 1332 H 127.975 3.04557 -2.45684 0
M  V30 1333 H 127.598 3.86128 -0.948223 0
M  V30 1334 N 128.595 0.856903 1.32268 0
M  V30 1335 C 129.843 0.460474 1.96784 0
M  V30 1336 C 130.164 -0.987701 1.68135 0
M  V30 1337 O 129.434 -1.69058 0.989765 0
M  V30 1338 H 128.014 0.167289 0.728027 0
M  V30 1339 H 130.676 1.09383 1.61312 0
M  V30 1340 H 129.772 0.60739 3.06133 0
M  V30 1341 N 130.073 -1.45103 0.615059 0
M  V30 1342 C 131.489 -1.57137 0.279322 0
M  V30 1343 C 131.689 -1.60523 -1.21797 0
M  V30 1344 O 130.745 -1.53956 -2.00134 0
M  V30 1345 C 132.058 -2.85062 0.957083 0
M  V30 1346 C 133.606 -2.98749 0.933706 0
M  V30 1347 C 134.081 -4.29455 1.59162 0
M  V30 1348 N 135.572 -4.36231 1.55746 0
M  V30 1349 C 136.307 -5.36051 2.0356 0
M  V30 1350 N 135.803 -6.42367 2.59494 0
M  V30 1351 N 137.596 -5.27456 1.94284 0
M  V30 1352 H 129.747 -1.41148 1.58717 0
M  V30 1353 H 132.01 -0.675331 0.665306 0
M  V30 1354 H 131.716 -2.88488 2.01166 0
M  V30 1355 H 131.59 -3.7407 0.48494 0
M  V30 1356 H 133.977 -2.94886 -0.112347 0
M  V30 1357 H 134.058 -2.11132 1.44419 0
M  V30 1358 H 133.702 -4.34077 2.63704 0
M  V30 1359 H 133.632 -5.15901 1.0561 0
M  V30 1360 H 136.123 -3.60011 1.14893 0
M  V30 1361 H 136.436 -7.14793 2.93752 0
M  V30 1362 H 134.781 -6.43097 2.63537 0
M  V30 1363 H 137.972 -4.43308 1.5032 0
M  V30 1364 H 138.145 -6.05099 2.3186 0
M  V30 1365 N 131.551 -0.354651 -1.53558 0
M  V30 1366 C 132.797 0.238797 -2.01389 0
M  V30 1367 C 133.13 1.49309 -1.2418 0
M  V30 1368 O 132.405 1.91638 -0.332457 0
M  V30 1369 C 132.688 0.541771 -3.56001 0
M  V30 1370 C 132.541 -0.725388 -4.43912 0
M  V30 1371 C 133.86 1.34685 -4.18984 0
M  V30 1372 H 130.979 0.0853177 -0.732045 0
M  V30 1373 H 133.621 -0.477384 -1.83905 0
M  V30 1374 H 131.771 1.15189 -3.71031 0
M  V30 1375 H 133.443 -1.36313 -4.407 0
M  V30 1376 H 131.686 -1.34801 -4.12324 0
M  V30 1377 H 132.357 -0.468505 -5.50008 0
M  V30 1378 H 134.833 0.830837 -4.07721 0
M  V30 1379 H 133.709 1.52759 -5.27215 0
M  V30 1380 H 133.97 2.35221 -3.74331 0
M  V30 1381 N 133.029 1.57378 -0.0835403 0
M  V30 1382 C 134.445 1.57246 0.273109 0
M  V30 1383 C 134.645 1.09385 1.69225 0
M  V30 1384 O 133.701 0.765051 2.40631 0
M  V30 1385 C 135.014 3.00614 0.0720628 0
M  V30 1386 C 136.562 3.12684 0.1407 0
M  V30 1387 C 137.037 4.57989 -0.0322094 0
M  V30 1388 N 138.528 4.63194 0.0230085 0
M  V30 1389 C 139.263 5.73335 -0.0861941 0
M  V30 1390 N 138.759 6.9235 -0.24958 0
M  V30 1391 N 140.552 5.62093 -0.0282886 0
M  V30 1392 H 132.703 1.86801 -1.0109 0
M  V30 1393 H 134.966 0.861687 -0.395222 0
M  V30 1394 H 134.672 3.39786 -0.907662 0
M  V30 1395 H 134.546 3.68193 0.81936 0
M  V30 1396 H 136.933 2.73391 1.11092 0
M  V30 1397 H 137.014 2.47719 -0.637896 0
M  V30 1398 H 136.658 4.97973 -0.999247 0
M  V30 1399 H 136.588 5.21 0.765937 0
M  V30 1400 H 139.079 3.77613 0.14722 0
M  V30 1401 H 139.392 7.72117 -0.324733 0
M  V30 1402 H 137.737 6.94415 -0.285097 0
M  V30 1403 H 140.928 4.67997 0.0981408 0
M  V30 1404 H 141.101 6.47895 -0.116845 0
M  V30 1405 N 134.507 -0.190092 1.56449 0
M  V30 1406 C 135.437 -1.23816 1.97969 0
M  V30 1407 C 136.418 -1.47201 0.852395 0
M  V30 1408 O 137.603 -1.58854 1.1171 0
M  V30 1409 C 134.733 -2.5813 2.3235 0
M  V30 1410 C 133.687 -2.49348 3.47864 0
M  V30 1411 C 133.013 -3.8798 3.67934 0
M  V30 1412 C 134.313 -2.01424 4.81898 0
M  V30 1413 H 136.007 -0.89311 2.85769 0
M  V30 1414 H 133.553 -0.428177 1.37487 0
M  V30 1415 H 135.506 -3.31637 2.59991 0
M  V30 1416 H 134.23 -2.94386 1.41438 0
M  V30 1417 H 132.889 -1.78297 3.20321 0
M  V30 1418 H 132.537 -4.21597 2.74344 0
M  V30 1419 H 132.237 -3.82978 4.45648 0
M  V30 1420 H 133.761 -4.63101 3.97957 0
M  V30 1421 H 135.175 -2.64693 5.08538 0
M  V30 1422 H 133.572 -2.07413 5.63116 0
M  V30 1423 H 134.642 -0.967677 4.75146 0
M  V30 1424 N 135.985 -1.50799 -0.457987 0
M  V30 1425 C 137.401 -1.38515 -0.792819 0
M  V30 1426 C 137.601 -0.451409 -1.96379 0
M  V30 1427 O 136.657 0.10112 -2.52297 0
M  V30 1428 C 137.97 -2.80149 -1.09258 0
M  V30 1429 C 139.518 -2.89156 -1.19825 0
M  V30 1430 C 139.993 -4.31651 -1.53106 0
M  V30 1431 N 141.484 -4.34662 -1.60072 0
M  V30 1432 C 142.219 -5.41928 -1.87354 0
M  V30 1433 N 141.715 -6.59384 -2.12568 0
M  V30 1434 N 143.508 -5.29385 -1.88965 0
M  V30 1435 H 135.659 -2.10073 0.313511 0
M  V30 1436 H 137.922 -0.944803 0.0777862 0
M  V30 1437 H 137.628 -3.50374 -0.305084 0
M  V30 1438 H 137.502 -3.18204 -2.02549 0
M  V30 1439 H 139.889 -2.19141 -1.97639 0
M  V30 1440 H 139.97 -2.54626 -0.244821 0
M  V30 1441 H 139.614 -5.02208 -0.758266 0
M  V30 1442 H 139.544 -4.63678 -2.49621 0
M  V30 1443 H 142.035 -3.49973 -1.42573 0
M  V30 1444 H 142.348 -7.36934 -2.32696 0
M  V30 1445 H 140.693 -6.62535 -2.09933 0
M  V30 1446 H 143.884 -4.36616 -1.68772 0
M  V30 1447 H 144.057 -6.13066 -2.09891 0
M  V30 1448 N 137.463 0.71206 -1.40597 0
M  V30 1449 C 138.712 1.46754 -1.38369 0
M  V30 1450 C 139.025 1.95598 0.0097839 0
M  V30 1451 O 140.231 2.71059 0.154677 0
M  V30 1452 C 138.687 2.65289 -2.43207 0
M  V30 1453 C 138.295 2.23301 -3.88382 0
M  V30 1454 C 140.039 3.43008 -2.50091 0
M  V30 1455 C 137.946 3.38696 -4.84808 0
M  V30 1456 H 136.876 0.55118 -0.514506 0
M  V30 1457 H 139.527 0.774616 -1.66349 0
M  V30 1458 H 137.909 3.36769 -2.08332 0
M  V30 1459 H 139.083 1.59218 -4.32419 0
M  V30 1460 H 137.398 1.58618 -3.85006 0
M  V30 1461 H 139.995 4.28881 -3.1932 0
M  V30 1462 H 140.338 3.87065 -1.53253 0
M  V30 1463 H 140.871 2.78574 -2.83974 0
M  V30 1464 H 137.61 2.99668 -5.82992 0
M  V30 1465 H 137.13 4.01683 -4.45433 0
M  V30 1466 H 138.809 4.04712 -5.04794 0
M  V30 1467 N 138.941 1.26152 0.944643 0
M  V30 1468 C 140.218 1.02247 1.66748 0
M  V30 1469 C 140.598 -0.448202 2.06287 0
M  V30 1470 O 139.946 -1.42779 1.78399 0
M  V30 1471 C 140.156 1.96788 2.88228 0
M  V30 1472 C 141.504 2.25201 3.59958 0
M  V30 1473 O 142.528 1.94626 2.98327 0
M  V30 1474 O 141.387 2.77242 4.70956 0
M  V30 1475 H 138.481 0.388517 0.730057 0
M  V30 1476 H 141.027 1.37348 0.99668 0
M  V30 1477 H 139.799 2.96047 2.55875 0
M  V30 1478 H 139.422 1.62145 3.63035 0
M  V30 1479 N 140.419 -1.14872 1.07899 0
M  V30 1480 C 141.83 -1.67367 0.827363 0
M  V30 1481 C 142.181 -1.85236 -0.646693 0
M  V30 1482 O 141.306 -1.55974 -1.50004 0
M  V30 1483 C 141.901 -3.04016 1.49532 0
M  V30 1484 C 140.46 -3.53566 1.29106 0
M  V30 1485 C 139.607 -2.29161 1.56143 0
M  V30 1486 H 142.558 -0.990083 1.24028 0
M  V30 1487 H 142.579 -3.69219 0.919643 0
M  V30 1488 H 142.091 -2.90978 2.56814 0
M  V30 1489 H 140.192 -3.71835 0.238713 0
M  V30 1490 H 140.305 -4.34661 2.01511 0
M  V30 1491 H 138.669 -2.34978 0.982717 0
M  V30 1492 H 139.452 -2.18705 2.64619 0
M  V30 1493 N 141.898 -0.863906 -1.31812 0
M  V30 1494 C 143.123 -0.48527 -2.01643 0
M  V30 1495 C 143.548 0.913058 -1.64453 0
M  V30 1496 O 142.906 1.6014 -0.849985 0
M  V30 1497 C 142.954 -0.642625 -3.54828 0
M  V30 1498 O 142.058 0.320659 -4.11151 0
M  V30 1499 H 141.399 -0.193793 -0.635091 0
M  V30 1500 H 143.929 -1.16565 -1.68148 0
M  V30 1501 H 143.939 -0.533628 -4.04495 0
M  V30 1502 H 142.614 -1.66227 -3.81237 0
M  V30 1503 H 141.191 0.167126 -3.72525 0
M  V30 1504 N 143.376 1.44774 -0.622745 0
M  V30 1505 C 144.616 2.04004 -0.127102 0
M  V30 1506 C 144.98 1.47862 1.22478 0
M  V30 1507 O 146.181 1.98541 1.81204 0
M  V30 1508 C 144.452 3.57247 -0.104429 0
M  V30 1509 S 146.011 4.37574 0.327814 0
M  V30 1510 H 142.829 0.708713 -0.0569776 0
M  V30 1511 H 145.431 1.77275 -0.824253 0
M  V30 1512 H 144.135 3.95616 -1.09159 0
M  V30 1513 H 143.666 3.88575 0.614236 0
M  V30 1514 H 145.681 4.70575 1.57395 0
M  V30 1515 N 144.854 0.36279 1.53368 0
M  V30 1516 C 146.265 -0.117022 1.86333 0
M  V30 1517 C 146.616 -1.48397 1.28347 0
M  V30 1518 O 145.741 -2.07787 0.604428 0
M  V30 1519 C 146.336 -0.21912 3.38091 0
M  V30 1520 C 144.895 -0.643184 3.70864 0
M  V30 1521 C 144.042 0.211318 2.76494 0
M  V30 1522 H 146.993 0.581687 1.47655 0
M  V30 1523 H 147.014 -1.04319 3.6592 0
M  V30 1524 H 146.526 0.775902 3.80265 0
M  V30 1525 H 144.627 -1.64654 3.34245 0
M  V30 1526 H 144.74 -0.41973 4.77258 0
M  V30 1527 H 143.104 -0.319367 2.5269 0
M  V30 1528 H 143.887 1.20383 3.21501 0
M  V30 1529 N 146.332 -1.57332 0.0918853 0
M  V30 1530 C 147.264 -2.10869 -0.898168 0
M  V30 1531 C 148.277 -1.04521 -1.24817 0
M  V30 1532 O 149.466 -1.31977 -1.20184 0
M  V30 1533 C 146.566 -2.57083 -2.2082 0
M  V30 1534 C 145.739 -3.87229 -2.03402 0
M  V30 1535 C 144.798 -4.19324 -3.17889 0
M  V30 1536 O 143.824 -4.88598 -2.91994 0
M  V30 1537 N 145.026 -3.74471 -4.43567 0
M  V30 1538 H 147.791 -2.96439 -0.440943 0
M  V30 1539 H 145.352 -1.61631 -0.0933064 0
M  V30 1540 H 147.344 -2.75602 -2.96354 0
M  V30 1541 H 145.914 -1.76541 -2.57977 0
M  V30 1542 H 145.134 -3.7789 -1.12218 0
M  V30 1543 H 146.422 -4.72379 -1.89038 0
M  V30 1544 H 145.82 -3.18546 -4.67488 0
M  V30 1545 H 144.377 -3.98151 -5.16061 0
M  V30 1546 N 147.81 0.181792 -1.56548 0
M  V30 1547 C 148.74 1.22765 -1.98623 0
M  V30 1548 C 149.721 1.46747 -0.860189 0
M  V30 1549 O 150.906 1.58259 -1.12551 0
M  V30 1550 C 148.036 2.56894 -2.33715 0
M  V30 1551 C 146.99 2.475 -3.49182 0
M  V30 1552 C 146.316 3.86023 -3.69986 0
M  V30 1553 C 147.616 1.98866 -4.82959 0
M  V30 1554 H 149.31 0.877942 -2.86239 0
M  V30 1555 H 146.856 0.42088 -1.37712 0
M  V30 1556 H 148.809 3.30253 -2.61746 0
M  V30 1557 H 147.533 2.93632 -1.42997 0
M  V30 1558 H 146.192 1.76596 -3.21262 0
M  V30 1559 H 145.84 4.20136 -2.76576 0
M  V30 1560 H 145.54 3.80609 -4.47672 0
M  V30 1561 H 147.064 4.60984 -4.00407 0
M  V30 1562 H 148.478 2.61992 -5.09934 0
M  V30 1563 H 146.875 2.04424 -5.64208 0
M  V30 1564 H 147.945 0.942465 -4.75653 0
M  V30 1565 N 149.288 1.51039 0.449983 0
M  V30 1566 C 150.699 1.557 1.03026 0
M  V30 1567 C 151.05 0.372939 1.92623 0
M  V30 1568 O 150.175 -0.511771 2.10261 0
M  V30 1569 C 150.77 2.82171 1.87523 0
M  V30 1570 C 149.329 2.89444 2.40622 0
M  V30 1571 C 148.476 2.50228 1.19504 0
M  V30 1572 H 151.427 1.56999 0.231745 0
M  V30 1573 H 151.448 2.65219 2.72835 0
M  V30 1574 H 150.96 3.68331 1.22286 0
M  V30 1575 H 149.061 2.07685 3.0935 0
M  V30 1576 H 149.174 3.92816 2.74285 0
M  V30 1577 H 147.538 2.03139 1.53644 0
M  V30 1578 H 148.321 3.38719 0.558972 0
M  V30 1579 N 150.766 -0.704594 1.40972 0
M  V30 1580 C 151.996 -1.49138 1.42974 0
M  V30 1581 C 152.404 -1.89175 0.0308406 0
M  V30 1582 O 151.747 -1.56734 -0.958138 0
M  V30 1583 C 151.809 -2.79016 2.26694 0
M  V30 1584 C 151.473 -2.61236 3.74973 0
M  V30 1585 C 152.47 -2.27773 4.67349 0
M  V30 1586 C 150.155 -2.77158 4.18914 0
M  V30 1587 C 152.149 -2.10457 6.01653 0
M  V30 1588 C 149.836 -2.59459 5.53285 0
M  V30 1589 C 150.834 -2.26158 6.4447 0
M  V30 1590 O 150.522 -2.08605 7.76363 0
M  V30 1591 H 150.254 -0.466443 0.489292 0
M  V30 1592 H 152.808 -0.8758 1.85793 0
M  V30 1593 H 151.038 -3.42947 1.78673 0
M  V30 1594 H 152.727 -3.40782 2.20504 0
M  V30 1595 H 153.493 -2.15095 4.34694 0
M  V30 1596 H 149.372 -3.02064 3.48251 0
M  V30 1597 H 152.916 -1.84387 6.72791 0
M  V30 1598 H 148.813 -2.71725 5.85522 0
M  V30 1599 H 149.581 -2.23439 7.87412 0
M  V30 1600 N 152.244 -1.26651 -0.937939 0
M  V30 1601 C 153.472 -1.15173 -1.7188 0
M  V30 1602 C 153.887 0.292668 -1.86518 0
M  V30 1603 O 153.244 1.20014 -1.37488 0
M  V30 1604 C 153.295 -1.81925 -3.12387 0
M  V30 1605 O 153.016 -3.2072 -2.98446 0
M  V30 1606 C 154.517 -1.76442 -4.06673 0
M  V30 1607 H 151.737 -0.400911 -0.538063 0
M  V30 1608 H 154.281 -1.67332 -1.1756 0
M  V30 1609 H 152.436 -1.33696 -3.63599 0
M  V30 1610 H 152.85 -3.53802 -3.872 0
M  V30 1611 H 154.324 -2.27781 -5.02812 0
M  V30 1612 H 154.801 -0.731608 -4.33064 0
M  V30 1613 H 155.407 -2.24238 -3.61382 0
M  V30 1614 N 153.722 1.14298 -1.08507 0
M  V30 1615 C 154.968 1.85633 -0.816581 0
M  V30 1616 C 155.301 1.82784 0.656021 0
M  V30 1617 O 154.576 1.25926 1.48233 0
M  V30 1618 C 154.859 3.34223 -1.34041 0
M  V30 1619 C 154.712 3.45639 -2.87843 0
M  V30 1620 C 156.031 4.29356 -0.9665 0
M  V30 1621 H 153.15 0.67402 -0.298104 0
M  V30 1622 H 155.792 1.34214 -1.34487 0
M  V30 1623 H 153.942 3.78144 -0.89104 0
M  V30 1624 H 155.614 3.10498 -3.41158 0
M  V30 1625 H 153.857 2.86817 -3.25451 0
M  V30 1626 H 154.528 4.50089 -3.19569 0
M  V30 1627 H 157.004 3.93457 -1.35391 0
M  V30 1628 H 155.88 5.3178 -1.3602 0
M  V30 1629 H 156.141 4.41919 0.126362 0
M  V30 1630 N 155.201 0.870884 1.31352 0
M  V30 1631 C 156.151 0.298889 2.26032 0
M  V30 1632 C 157.135 -0.564595 1.50669 0
M  V30 1633 O 158.327 -0.411323 1.72154 0
M  V30 1634 C 155.456 -0.497842 3.39671 0
M  V30 1635 C 154.542 0.378937 4.22404 0
M  V30 1636 N 154.933 1.47284 4.83881 0
M  V30 1637 C 153.231 0.171535 4.4567 0
M  V30 1638 C 153.932 2.01359 5.45738 0
M  V30 1639 N 152.908 1.31047 5.27568 0
M  V30 1640 H 156.71 1.13494 2.71102 0
M  V30 1641 H 154.224 0.718745 1.45629 0
M  V30 1642 H 156.221 -0.924155 4.06528 0
M  V30 1643 H 154.881 -1.33149 2.96144 0
M  V30 1644 H 155.892 1.85575 4.8351 0
M  V30 1645 H 152.569 -0.626091 4.12779 0
M  V30 1646 H 153.959 2.93143 6.0458 0
M  V30 1647 N 156.679 -1.44442 0.630414 0
M  V30 1648 C 158.095 -1.56832 0.295973 0
M  V30 1649 C 158.295 -1.61806 -1.20088 0
M  V30 1650 O 157.351 -1.5607 -1.9849 0
M  V30 1651 C 158.664 -2.84031 0.987264 0
M  V30 1652 C 160.212 -2.97742 0.96534 0
M  V30 1653 C 160.687 -4.27743 1.63708 0
M  V30 1654 N 162.178 -4.34555 1.60364 0
M  V30 1655 C 162.913 -5.33862 2.09234 0
M  V30 1656 N 162.409 -6.39578 2.66292 0
M  V30 1657 N 164.202 -5.25366 1.99867 0
M  V30 1658 H 156.353 -1.39457 1.60205 0
M  V30 1659 H 158.616 -0.668237 0.672431 0
M  V30 1660 H 158.322 -2.86338 2.04215 0
M  V30 1661 H 158.196 -3.73534 0.524588 0
M  V30 1662 H 160.583 -2.94989 -0.0810639 0
M  V30 1663 H 160.664 -2.09589 1.4665 0
M  V30 1664 H 160.308 -4.31255 2.68293 0
M  V30 1665 H 160.238 -5.14752 1.11076 0
M  V30 1666 H 162.729 -3.58772 1.18705 0
M  V30 1667 H 163.042 -7.11637 3.01317 0
M  V30 1668 H 161.387 -6.40265 2.70343 0
M  V30 1669 H 164.578 -4.41688 1.55013 0
M  V30 1670 H 164.751 -6.02606 2.38265 0
M  V30 1671 N 158.157 -0.370918 -1.53173 0
M  V30 1672 C 159.09 0.516727 -2.22273 0
M  V30 1673 C 160.068 1.07877 -1.21661 0
M  V30 1674 O 161.252 1.13389 -1.50583 0
M  V30 1675 C 158.379 1.71346 -2.92161 0
M  V30 1676 C 157.425 1.27838 -4.0689 0
M  V30 1677 S 158.258 0.275217 -5.34792 0
M  V30 1678 C 159.414 1.47816 -6.08195 0
M  V30 1679 H 159.647 -0.0701054 -2.97217 0
M  V30 1680 H 157.18 -0.155038 -1.5362 0
M  V30 1681 H 159.138 2.39988 -3.3304 0
M  V30 1682 H 157.799 2.27156 -2.16931 0
M  V30 1683 H 156.992 2.17141 -4.54825 0
M  V30 1684 H 156.594 0.671105 -3.6793 0
M  V30 1685 H 158.886 2.40831 -6.33251 0
M  V30 1686 H 159.829 1.04008 -7.0042 0
M  V30 1687 H 160.237 1.68663 -5.38714 0
M  V30 1688 N 159.635 1.57281 -0.100228 0
M  V30 1689 C 160.882 1.94537 0.562268 0
M  V30 1690 C 161.21 0.982315 1.67871 0
M  V30 1691 O 160.465 0.00280936 1.957 0
M  V30 1692 C 160.764 3.38305 1.15259 0
M  V30 1693 C 160.43 4.50618 0.159409 0
M  V30 1694 C 159.092 4.81066 -0.113741 0
M  V30 1695 C 161.444 5.18615 -0.518461 0
M  V30 1696 C 158.772 5.76835 -1.07137 0
M  V30 1697 C 161.124 6.15412 -1.46459 0
M  V30 1698 C 159.788 6.44262 -1.74592 0
M  V30 1699 H 159.058 0.711863 0.205748 0
M  V30 1700 H 161.705 1.90679 -0.17715 0
M  V30 1701 H 160.01 3.38766 1.96836 0
M  V30 1702 H 161.707 3.64435 1.67297 0
M  V30 1703 H 158.297 4.2689 0.382491 0
M  V30 1704 H 162.481 4.95264 -0.320581 0
M  V30 1705 H 157.737 5.975 -1.29628 0
M  V30 1706 H 161.911 6.67194 -1.99564 0
M  V30 1707 H 159.538 7.1828 -2.48953 0
M  V30 1708 N 161.113 -0.173488 1.56642 0
M  V30 1709 C 162.343 -0.904781 1.85734 0
M  V30 1710 C 162.751 -1.76431 0.68328 0
M  V30 1711 O 162.094 -1.802 -0.356865 0
M  V30 1712 C 162.156 -1.83382 3.09211 0
M  V30 1713 C 161.82 -1.15411 4.42187 0
M  V30 1714 C 162.817 -0.520609 5.17287 0
M  V30 1715 C 160.502 -1.15151 4.88923 0
M  V30 1716 C 162.496 0.106412 6.37311 0
M  V30 1717 C 160.183 -0.520664 6.08878 0
M  V30 1718 C 161.181 0.107196 6.82916 0
M  V30 1719 O 160.869 0.728102 8.00596 0
M  V30 1720 H 160.601 -0.268408 0.62043 0
M  V30 1721 H 163.155 -0.179096 2.04618 0
M  V30 1722 H 161.385 -2.59976 2.86268 0
M  V30 1723 H 163.074 -2.43476 3.24768 0
M  V30 1724 H 163.84 -0.514606 4.82262 0
M  V30 1725 H 159.719 -1.62961 4.31236 0
M  V30 1726 H 163.263 0.597081 6.9504 0
M  V30 1727 H 159.16 -0.524242 6.43368 0
M  V30 1728 H 159.928 0.627138 8.16094 0
M  V30 1729 N 162.591 -1.51276 -0.441967 0
M  V30 1730 C 163.501 -1.75092 -1.56141 0
M  V30 1731 C 164.517 -0.634963 -1.62001 0
M  V30 1732 O 165.693 -0.916686 -1.79329 0
M  V30 1733 C 162.758 -1.86666 -2.92158 0
M  V30 1734 C 161.819 -3.10506 -2.96453 0
M  V30 1735 C 161.052 -3.21519 -4.25982 0
M  V30 1736 O 161.275 -2.38586 -5.18105 0
M  V30 1737 O 160.209 -4.14465 -4.36466 0
M  V30 1738 H 164.035 -2.70044 -1.38961 0
M  V30 1739 H 161.62 -1.35722 -0.624499 0
M  V30 1740 H 163.502 -1.96292 -3.72891 0
M  V30 1741 H 162.177 -0.949014 -3.09476 0
M  V30 1742 H 161.084 -3.06363 -2.14692 0
M  V30 1743 H 162.417 -4.01945 -2.84079 0
M  V30 1744 N 164.069 0.697108 -1.41344 0
M  V30 1745 C 165.032 1.79281 -1.42797 0
M  V30 1746 C 166.032 1.57607 -0.318837 0
M  V30 1747 O 167.222 1.64309 -0.578642 0
M  V30 1748 C 164.354 3.17632 -1.23785 0
M  V30 1749 H 165.547 1.79385 -2.40335 0
M  V30 1750 H 163.1 0.904582 -1.27464 0
M  V30 1751 H 163.835 3.23167 -0.270814 0
M  V30 1752 H 163.62 3.34765 -2.04144 0
M  V30 1753 H 165.11 3.97617 -1.27633 0
M  V30 1754 N 165.547 1.27147 0.931209 0
M  V30 1755 C 166.477 1.12081 2.04842 0
M  V30 1756 C 167.458 0.0232364 1.70084 0
M  V30 1757 O 168.643 0.197085 1.93197 0
M  V30 1758 C 165.773 0.76354 3.38803 0
M  V30 1759 C 164.727 1.81396 3.87659 0
M  V30 1760 C 164.053 1.31075 5.18385 0
M  V30 1761 C 165.353 3.21739 4.11438 0
M  V30 1762 H 167.047 2.05537 2.17703 0
M  V30 1763 H 164.593 0.989603 1.04608 0
M  V30 1764 H 166.546 0.644982 4.16435 0
M  V30 1765 H 165.27 -0.206727 3.25945 0
M  V30 1766 H 163.929 1.92136 3.12217 0
M  V30 1767 H 163.577 0.330037 5.01916 0
M  V30 1768 H 163.277 2.013 5.52044 0
M  V30 1769 H 164.801 1.20506 5.98591 0
M  V30 1770 H 166.215 3.14019 4.79651 0
M  V30 1771 H 164.612 3.89644 4.56397 0
M  V30 1772 H 165.682 3.67054 3.16859 0
M  V30 1773 N 167.025 -1.13721 1.09112 0
M  V30 1774 C 168.302 -1.81155 0.737706 0
M  V30 1775 C 168.682 -1.96253 -0.777683 0
M  V30 1776 O 168.03 -1.52807 -1.69889 0
M  V30 1777 C 168.24 -3.16392 1.47299 0
M  V30 1778 C 169.588 -3.91787 1.63671 0
M  V30 1779 O 170.612 -3.26005 1.43524 0
M  V30 1780 O 169.471 -5.0977 1.96969 0
M  V30 1781 H 166.565 -0.783518 0.26463 0
M  V30 1782 H 169.111 -1.20676 1.19312 0
M  V30 1783 H 167.883 -3.0061 2.50498 0
M  V30 1784 H 167.506 -3.8457 1.00953 0
M  V30 1785 N 168.503 -0.877838 -1.30888 0
M  V30 1786 C 169.45 -0.337538 -2.28318 0
M  V30 1787 C 170.42 0.568346 -1.56074 0
M  V30 1788 O 171.605 0.498298 -1.84178 0
M  V30 1789 C 168.745 0.448142 -3.42178 0
M  V30 1790 C 167.858 -0.48615 -4.29256 0
M  V30 1791 C 166.993 0.314427 -5.30269 0
M  V30 1792 C 166.032 -0.615791 -6.08995 0
M  V30 1793 N 165.169 0.14902 -7.01942 0
M  V30 1794 H 170.009 -1.17356 -2.73919 0
M  V30 1795 H 167.546 -0.590094 -1.34745 0
M  V30 1796 H 169.504 0.919517 -4.06941 0
M  V30 1797 H 168.134 1.24879 -2.97666 0
M  V30 1798 H 167.186 -1.076 -3.64865 0
M  V30 1799 H 168.498 -1.19909 -4.84173 0
M  V30 1800 H 167.652 0.847969 -6.00745 0
M  V30 1801 H 166.391 1.06062 -4.76027 0
M  V30 1802 H 165.396 -1.16102 -5.37401 0
M  V30 1803 H 166.621 -1.36097 -6.65323 0
M  V30 1804 H 164.567 0.877884 -6.50099 0
M  V30 1805 H 164.484 -0.504433 -7.54315 0
M  V30 1806 H 165.752 0.663537 -7.76671 0
M  V30 1807 N 169.982 1.44106 -0.638065 0
M  V30 1808 C 171.212 2.06037 -0.152394 0
M  V30 1809 C 171.62 1.47808 1.18108 0
M  V30 1810 O 170.963 0.598092 1.73691 0
M  V30 1811 C 171.025 3.59488 0.0293714 0
M  V30 1812 C 170.689 4.4022 -1.22702 0
M  V30 1813 C 171.686 4.73256 -2.15232 0
M  V30 1814 C 169.371 4.8048 -1.46437 0
M  V30 1815 C 171.365 5.45444 -3.29802 0
M  V30 1816 C 169.052 5.52417 -2.61303 0
M  V30 1817 C 170.05 5.84819 -3.52811 0
M  V30 1818 O 169.738 6.55289 -4.65673 0
M  V30 1819 H 169.47 0.671233 -0.0801401 0
M  V30 1820 H 172.024 1.85851 -0.874563 0
M  V30 1821 H 170.254 3.78191 0.806758 0
M  V30 1822 H 171.943 4.03164 0.470475 0
M  V30 1823 H 172.709 4.42684 -1.98131 0
M  V30 1824 H 168.588 4.54676 -0.760977 0
M  V30 1825 H 172.132 5.70653 -4.01249 0
M  V30 1826 H 168.029 5.82404 -2.78344 0
M  V30 1827 H 168.797 6.73762 -4.64744 0
M  V30 1828 N 171.46 0.379036 1.52974 0
M  V30 1829 C 172.708 -0.206014 2.01047 0
M  V30 1830 C 173.029 -1.48175 1.26765 0
M  V30 1831 O 172.299 -1.92085 0.384743 0
M  V30 1832 H 170.879 -0.0791184 0.742798 0
M  V30 1833 H 173.541 0.508366 1.88153 0
M  V30 1834 H 172.637 -0.423501 3.09213 0
M  V30 1835 N 172.938 -1.57226 0.108567 0
M  V30 1836 C 174.215 -1.86333 -0.594939 0
M  V30 1837 C 174.595 -1.00788 -1.85486 0
M  V30 1838 O 173.943 -0.0839293 -2.28346 0
M  V30 1839 C 174.153 -3.37265 -0.897405 0
M  V30 1840 C 175.501 -4.05629 -1.25501 0
M  V30 1841 O 176.525 -3.42224 -0.987998 0
M  V30 1842 O 175.384 -5.17531 -1.75567 0
M  V30 1843 H 172.478 -0.771018 -0.2991 0
M  V30 1844 H 175.024 -1.69102 0.142283 0
M  V30 1845 H 173.796 -3.913 -0.00413806 0
M  V30 1846 H 173.419 -3.59889 -1.69014 0
M  V30 1847 N 174.416 0.165178 -1.56732 0
M  V30 1848 C 175.346 1.20651 -1.99914 0
M  V30 1849 C 176.327 1.45827 -0.875705 0
M  V30 1850 O 177.512 1.57057 -1.14223 0
M  V30 1851 C 174.642 2.54401 -2.36427 0
M  V30 1852 C 173.596 2.43782 -3.51787 0
M  V30 1853 C 172.922 3.82078 -3.7406 0
M  V30 1854 C 174.222 1.93732 -4.85041 0
M  V30 1855 H 175.916 0.847534 -2.87154 0
M  V30 1856 H 173.462 0.40625 -1.38151 0
M  V30 1857 H 175.415 3.27458 -2.65234 0
M  V30 1858 H 174.139 2.92098 -1.46103 0
M  V30 1859 H 172.798 1.73178 -3.23117 0
M  V30 1860 H 172.446 4.17179 -2.81017 0
M  V30 1861 H 172.146 3.7584 -4.51684 0
M  V30 1862 H 173.67 4.56712 -4.05274 0
M  V30 1863 H 175.084 2.56569 -5.12684 0
M  V30 1864 H 173.481 1.98428 -5.66345 0
M  V30 1865 H 174.551 0.891962 -4.76626 0
M  V30 1866 N 175.894 1.51508 0.433938 0
M  V30 1867 C 177.143 1.63578 1.18005 0
M  V30 1868 C 177.456 0.359514 1.92268 0
M  V30 1869 O 178.662 0.359632 2.69108 0
M  V30 1870 C 177.118 2.88901 2.14626 0
M  V30 1871 C 176.726 4.23544 1.45995 0
M  V30 1872 C 178.47 3.10328 2.89649 0
M  V30 1873 C 176.377 5.40014 2.4112 0
M  V30 1874 H 175.307 0.609277 0.444182 0
M  V30 1875 H 177.958 1.77978 0.446773 0
M  V30 1876 H 176.34 2.68142 2.91403 0
M  V30 1877 H 177.514 4.54696 0.747532 0
M  V30 1878 H 175.829 4.08021 0.831115 0
M  V30 1879 H 178.426 3.94518 3.60915 0
M  V30 1880 H 178.769 2.23544 3.51189 0
M  V30 1881 H 179.302 3.31443 2.19978 0
M  V30 1882 H 176.041 6.29068 1.84264 0
M  V30 1883 H 175.561 5.13233 3.10406 0
M  V30 1884 H 177.24 5.72099 3.02177 0
M  V30 1885 N 177.372 -0.689602 1.41712 0
M  V30 1886 C 178.335 -1.78521 1.43746 0
M  V30 1887 C 179.335 -1.57436 0.327191 0
M  V30 1888 O 180.525 -1.64 0.587348 0
M  V30 1889 C 177.657 -3.16971 1.25467 0
M  V30 1890 H 178.85 -1.78108 2.41283 0
M  V30 1891 H 176.403 -0.89781 1.27942 0
M  V30 1892 H 177.138 -3.23019 0.287948 0
M  V30 1893 H 176.923 -3.33678 2.05917 0
M  V30 1894 H 178.413 -3.96935 1.2974 0
M  V30 1895 N 178.85 -1.27639 -0.924453 0
M  V30 1896 C 179.78 -1.13166 -2.04244 0
M  V30 1897 C 180.761 -0.032256 -1.70069 0
M  V30 1898 O 181.946 -0.207328 -1.9309 0
M  V30 1899 C 179.076 -0.781496 -3.38393 0
M  V30 1900 C 178.03 -1.83449 -3.86692 0
M  V30 1901 C 177.356 -1.33822 -5.17683 0
M  V30 1902 C 178.656 -3.23917 -4.09726 0
M  V30 1903 H 180.35 -2.06689 -2.1661 0
M  V30 1904 H 177.896 -0.995136 -1.04082 0
M  V30 1905 H 179.849 -0.667057 -4.16087 0
M  V30 1906 H 178.573 0.189439 -3.2605 0
M  V30 1907 H 177.232 -1.93789 -3.11193 0
M  V30 1908 H 176.88 -0.35665 -5.01734 0
M  V30 1909 H 176.58 -2.04224 -5.50968 0
M  V30 1910 H 178.104 -1.23679 -5.97943 0
M  V30 1911 H 179.518 -3.16559 -4.77978 0
M  V30 1912 H 177.915 -3.92059 -4.54324 0
M  V30 1913 H 178.985 -3.68729 -3.14908 0
M  V30 1914 N 180.328 1.1314 -1.09713 0
M  V30 1915 C 181.576 1.84119 -0.833338 0
M  V30 1916 C 181.897 1.84097 0.642904 0
M  V30 1917 O 181.167 1.29881 1.46655 0
M  V30 1918 H 179.747 0.681766 -0.305293 0
M  V30 1919 H 182.409 1.37038 -1.38588 0
M  V30 1920 H 181.505 2.88543 -1.18951 0
M  V30 1921 N 181.806 0.884767 1.30421 0
M  V30 1922 C 183.053 0.503105 1.96151 0
M  V30 1923 C 183.381 -0.947676 1.69851 0
M  V30 1924 O 182.636 -1.68467 0.995861 0
M  V30 1925 C 182.935 0.724318 3.49983 0
M  V30 1926 C 182.601 2.15015 3.96332 0
M  V30 1927 C 181.263 2.54005 4.08699 0
M  V30 1928 C 183.615 3.07936 4.20505 0
M  V30 1929 C 180.943 3.85128 4.42599 0
M  V30 1930 C 183.295 4.3859 4.55874 0
M  V30 1931 C 181.959 4.77474 4.66449 0
M  V30 1932 H 181.229 0.184099 0.717766 0
M  V30 1933 H 183.876 1.12058 1.55291 0
M  V30 1934 H 182.181 0.0238086 3.91793 0
M  V30 1935 H 183.878 0.408617 3.98913 0
M  V30 1936 H 180.468 1.8375 3.87213 0
M  V30 1937 H 184.652 2.79033 4.10431 0
M  V30 1938 H 179.908 4.14996 4.48986 0
M  V30 1939 H 184.082 5.10629 4.7353 0
M  V30 1940 H 181.709 5.79115 4.92473 0
M  V30 1941 N 183.284 -1.43765 0.645699 0
M  V30 1942 C 184.231 -2.30745 -0.0504648 0
M  V30 1943 C 185.201 -1.4432 -0.822241 0
M  V30 1944 O 186.386 -1.73202 -0.800358 0
M  V30 1945 C 183.526 -3.29802 -1.0161 0
M  V30 1946 C 182.639 -4.31326 -0.241219 0
M  V30 1947 C 181.774 -5.17469 -1.19998 0
M  V30 1948 C 180.813 -6.10691 -0.415094 0
M  V30 1949 N 179.95 -6.89483 -1.32506 0
M  V30 1950 H 184.79 -2.8973 0.697155 0
M  V30 1951 H 182.327 -1.42738 0.355563 0
M  V30 1952 H 184.285 -3.85734 -1.58949 0
M  V30 1953 H 182.915 -2.72483 -1.73069 0
M  V30 1954 H 181.967 -3.77749 0.448334 0
M  V30 1955 H 183.279 -4.9743 0.369437 0
M  V30 1956 H 182.433 -5.7799 -1.84424 0
M  V30 1957 H 181.172 -4.51473 -1.84455 0
M  V30 1958 H 180.177 -5.49265 0.242565 0
M  V30 1959 H 181.402 -6.78727 0.224966 0
M  V30 1960 H 179.348 -6.26142 -1.95657 0
M  V30 1961 H 179.265 -7.52081 -0.768783 0
M  V30 1962 H 180.533 -7.54516 -1.9577 0
M  V30 1963 N 184.763 -0.387143 -1.52771 0
M  V30 1964 C 186.179 -0.037007 -1.59557 0
M  V30 1965 C 186.379 1.44801 -1.40124 0
M  V30 1966 O 185.435 2.21227 -1.21716 0
M  V30 1967 C 186.748 -0.512256 -2.96305 0
M  V30 1968 C 188.296 -0.468328 -3.09476 0
M  V30 1969 C 188.771 -0.919731 -4.4867 0
M  V30 1970 N 190.262 -0.875656 -4.54848 0
M  V30 1971 C 190.997 -1.19637 -5.6078 0
M  V30 1972 N 190.493 -1.58745 -6.74368 0
M  V30 1973 N 192.286 -1.11776 -5.50874 0
M  V30 1974 H 184.437 -1.35395 -1.63652 0
M  V30 1975 H 186.7 -0.554818 -0.768688 0
M  V30 1976 H 186.406 -1.54935 -3.15734 0
M  V30 1977 H 186.28 0.089805 -3.77093 0
M  V30 1978 H 188.667 0.559671 -2.89744 0
M  V30 1979 H 188.748 -1.10616 -2.30646 0
M  V30 1980 H 188.392 -1.94595 -4.69143 0
M  V30 1981 H 188.322 -0.258927 -5.25963 0
M  V30 1982 H 190.813 -0.587843 -3.733 0
M  V30 1983 H 191.126 -1.81586 -7.51163 0
M  V30 1984 H 189.471 -1.6263 -6.75705 0
M  V30 1985 H 192.662 -0.811264 -4.61016 0
M  V30 1986 H 192.835 -1.37103 -6.3333 0
M  V30 1987 N 186.241 1.57166 -0.116904 0
M  V30 1988 C 187.173 2.12271 0.864507 0
M  V30 1989 C 188.186 1.06494 1.23138 0
M  V30 1990 O 189.375 1.33873 1.18069 0
M  V30 1991 C 186.475 2.60564 2.16702 0
M  V30 1992 C 185.648 3.90416 1.97216 0
M  V30 1993 C 184.707 4.24329 3.11178 0
M  V30 1994 O 183.733 4.93182 2.84184 0
M  V30 1995 N 184.935 3.8148 4.37554 0
M  V30 1996 H 187.7 2.97102 0.393726 0
M  V30 1997 H 185.261 1.61759 0.0675805 0
M  V30 1998 H 187.253 2.80282 2.91932 0
M  V30 1999 H 185.823 1.80623 2.55135 0
M  V30 2000 H 185.043 3.79627 1.06192 0
M  V30 2001 H 186.331 4.75327 1.81499 0
M  V30 2002 H 185.729 3.25943 4.62361 0
M  V30 2003 H 184.286 4.06311 5.09661 0
M  V30 2004 N 187.719 -0.156864 1.56817 0
M  V30 2005 C 188.996 -0.899244 1.73704 0
M  V30 2006 C 189.376 -1.99771 0.682254 0
M  V30 2007 O 188.724 -2.26515 -0.300522 0
M  V30 2008 C 188.934 -1.45075 3.17418 0
M  V30 2009 C 190.282 -1.91802 3.7881 0
M  V30 2010 O 191.306 -1.54838 3.20786 0
M  V30 2011 O 190.165 -2.5994 4.80722 0
M  V30 2012 H 187.259 -0.424267 0.709878 0
M  V30 2013 H 189.805 -0.143561 1.69092 0
M  V30 2014 H 188.577 -0.660846 3.85679 0
M  V30 2015 H 188.2 -2.27021 3.26416 0
M  V30 2016 N 189.197 -1.51736 -0.425897 0
M  V30 2017 C 190.144 -1.73875 -1.51776 0
M  V30 2018 C 191.114 -0.580702 -1.55618 0
M  V30 2019 O 192.299 -0.81641 -1.72451 0
M  V30 2020 C 189.439 -1.88012 -2.89388 0
M  V30 2021 C 188.552 -3.15606 -2.94986 0
M  V30 2022 C 187.687 -3.20271 -4.23793 0
M  V30 2023 C 186.726 -4.42134 -4.23302 0
M  V30 2024 N 185.863 -4.44284 -5.43651 0
M  V30 2025 H 190.703 -2.67071 -1.32201 0
M  V30 2026 H 188.24 -1.32351 -0.642008 0
M  V30 2027 H 190.198 -1.9419 -3.69251 0
M  V30 2028 H 188.828 -0.98213 -3.07496 0
M  V30 2029 H 187.88 -3.18681 -2.07717 0
M  V30 2030 H 189.192 -4.05486 -2.90486 0
M  V30 2031 H 188.346 -3.25428 -5.12036 0
M  V30 2032 H 187.085 -2.28299 -4.30965 0
M  V30 2033 H 186.09 -4.3714 -3.3345 0
M  V30 2034 H 187.315 -5.35382 -4.17783 0
M  V30 2035 H 185.261 -3.55188 -5.51523 0
M  V30 2036 H 185.178 -5.27988 -5.41078 0
M  V30 2037 H 186.446 -4.53649 -6.33895 0
M  V30 2038 N 190.675 0.682077 -1.42076 0
M  V30 2039 C 191.921 1.44283 -1.43366 0
M  V30 2040 C 192.276 1.92344 -0.0465775 0
M  V30 2041 O 191.569 1.67517 0.929973 0
M  V30 2042 C 191.763 2.66036 -2.38662 0
M  V30 2043 C 191.592 2.29889 -3.86499 0
M  V30 2044 C 190.362 2.19599 -4.55087 0
M  V30 2045 C 192.56 1.91999 -4.77117 0
M  V30 2046 N 190.542 1.76478 -5.87987 0
M  V30 2047 C 191.913 1.59741 -5.99068 0
M  V30 2048 C 193.968 1.78927 -4.64639 0
M  V30 2049 C 192.671 1.15723 -7.0993 0
M  V30 2050 C 194.697 1.36314 -5.75476 0
M  V30 2051 C 194.059 1.04975 -6.96534 0
M  V30 2052 H 190.158 0.524739 -0.579805 0
M  V30 2053 H 192.742 0.787834 -1.78048 0
M  V30 2054 H 190.913 3.29237 -2.06053 0
M  V30 2055 H 192.645 3.32588 -2.30581 0
M  V30 2056 H 189.4 2.38433 -4.09202 0
M  V30 2057 H 189.824 1.57362 -6.58458 0
M  V30 2058 H 194.466 2.01805 -3.7153 0
M  V30 2059 H 192.184 0.91591 -8.02893 0
M  V30 2060 H 195.77 1.26731 -5.6783 0
M  V30 2061 H 194.65 0.725017 -7.80841 0
M  V30 2062 N 192.153 1.28127 0.917671 0
M  V30 2063 C 193.063 1.13556 2.05286 0
M  V30 2064 C 194.079 0.0630914 1.73886 0
M  V30 2065 O 195.255 0.271598 1.9956 0
M  V30 2066 C 192.32 0.794676 3.3747 0
M  V30 2067 C 191.381 1.94909 3.82504 0
M  V30 2068 C 190.614 1.62437 5.0838 0
M  V30 2069 O 190.837 0.536905 5.67867 0
M  V30 2070 O 189.771 2.46677 5.4903 0
M  V30 2071 H 193.597 2.08844 2.20495 0
M  V30 2072 H 191.182 1.07409 1.03845 0
M  V30 2073 H 193.064 0.618344 4.16839 0
M  V30 2074 H 191.739 -0.128581 3.23445 0
M  V30 2075 H 190.646 2.18055 3.03978 0
M  V30 2076 H 191.979 2.85291 4.01086 0
M  V30 2077 N 193.631 -1.12557 1.10312 0
M  V30 2078 C 194.581 -2.16331 0.720076 0
M  V30 2079 C 195.565 -1.58616 -0.270115 0
M  V30 2080 O 196.757 -1.76823 -0.0790507 0
M  V30 2081 C 193.886 -3.42963 0.152113 0
M  V30 2082 C 192.972 -4.07663 1.16927 0
M  V30 2083 N 193.363 -4.47392 2.35953 0
M  V30 2084 C 191.661 -4.34425 1.0095 0
M  V30 2085 C 192.362 -4.97932 3.0073 0
M  V30 2086 N 191.338 -4.93358 2.28252 0
M  V30 2087 H 195.14 -2.44813 1.62616 0
M  V30 2088 H 192.654 -1.29449 0.980654 0
M  V30 2089 H 194.651 -4.16664 -0.14037 0
M  V30 2090 H 193.311 -3.1595 -0.748701 0
M  V30 2091 H 194.322 -4.39802 2.73486 0
M  V30 2092 H 190.999 -4.17177 0.164134 0
M  V30 2093 H 192.389 -5.38397 4.01969 0
M  V30 2094 N 195.109 -0.891671 -1.2995 0
M  V30 2095 C 196.358 -0.509521 -1.95158 0
M  V30 2096 C 196.671 0.947388 -1.71125 0
M  V30 2097 O 197.877 1.43669 -2.30372 0
M  V30 2098 C 196.333 -0.860315 -3.49466 0
M  V30 2099 C 195.941 -2.33545 -3.8231 0
M  V30 2100 C 197.685 -0.547687 -4.20952 0
M  V30 2101 C 195.592 -2.62752 -5.29826 0
M  V30 2102 H 194.522 -0.18682 -0.730489 0
M  V30 2103 H 197.173 -1.08756 -1.47798 0
M  V30 2104 H 195.555 -0.211285 -3.95436 0
M  V30 2105 H 196.729 -3.02936 -3.47227 0
M  V30 2106 H 195.044 -2.61629 -3.23944 0
M  V30 2107 H 197.641 -0.742854 -5.29515 0
M  V30 2108 H 197.984 0.51332 -4.13123 0
M  V30 2109 H 198.517 -1.1542 -3.80688 0
M  V30 2110 H 195.256 -3.6762 -5.42712 0
M  V30 2111 H 194.776 -1.97977 -5.66185 0
M  V30 2112 H 196.455 -2.48601 -5.97333 0
M  V30 2113 N 196.587 1.43421 -0.653314 0
M  V30 2114 C 197.812 2.06678 -0.172846 0
M  V30 2115 C 198.237 1.48648 1.15262 0
M  V30 2116 O 197.595 0.596457 1.71208 0
M  V30 2117 C 197.643 3.60474 -0.0953184 0
M  V30 2118 O 196.747 4.01487 0.942442 0
M  V30 2119 H 196.088 0.657181 -0.0949155 0
M  V30 2120 H 198.618 1.83925 -0.896265 0
M  V30 2121 H 198.628 4.07905 0.0879728 0
M  V30 2122 H 197.303 4.02088 -1.06291 0
M  V30 2123 H 195.88 3.65646 0.731932 0
M  V30 2124 N 198.065 0.39524 1.52563 0
M  V30 2125 C 199.295 -0.184675 2.05773 0
M  V30 2126 C 199.703 -1.40571 1.26635 0
M  V30 2127 O 199.046 -1.81105 0.30769 0
M  V30 2128 C 199.108 -0.613551 3.54226 0
M  V30 2129 C 198.772 0.49484 4.54313 0
M  V30 2130 C 199.769 1.3541 5.01956 0
M  V30 2131 C 197.454 0.663565 4.97898 0
M  V30 2132 C 199.448 2.36716 5.91814 0
M  V30 2133 C 197.135 1.67996 5.87555 0
M  V30 2134 C 198.133 2.53017 6.34406 0
M  V30 2135 O 197.821 3.52917 7.22291 0
M  V30 2136 H 197.553 -0.030077 0.675331 0
M  V30 2137 H 200.107 0.560708 1.97599 0
M  V30 2138 H 198.337 -1.411 3.60038 0
M  V30 2139 H 200.026 -1.11981 3.90148 0
M  V30 2140 H 200.792 1.23509 4.6901 0
M  V30 2141 H 196.671 0.0114913 4.60999 0
M  V30 2142 H 200.215 3.03113 6.28306 0
M  V30 2143 H 196.112 1.79933 6.19915 0
M  V30 2144 H 196.88 3.48996 7.40367 0
M  V30 2145 N 199.544 -1.57102 0.125237 0
M  V30 2146 C 200.769 -2.0019 -0.542101 0
M  V30 2147 C 201.194 -1.00449 -1.59034 0
M  V30 2148 O 200.552 0.0229423 -1.81285 0
M  V30 2149 C 200.6 -3.42129 -1.13929 0
M  V30 2150 O 199.704 -3.45307 -2.2547 0
M  V30 2151 H 199.045 -0.650171 -0.134812 0
M  V30 2152 H 201.575 -2.03461 0.215553 0
M  V30 2153 H 201.585 -3.80471 -1.4733 0
M  V30 2154 H 200.26 -4.14237 -0.371531 0
M  V30 2155 H 198.837 -3.1879 -1.93462 0
M  V30 2156 N 201.022 0.148545 -1.56898 0
M  V30 2157 C 201.954 1.20852 -1.9475 0
M  V30 2158 C 202.967 1.39265 -0.843152 0
M  V30 2159 O 204.156 1.38864 -1.12156 0
M  V30 2160 C 201.256 2.57362 -2.20495 0
M  V30 2161 C 200.429 2.59947 -3.51776 0
M  V30 2162 C 199.488 3.77984 -3.6608 0
M  V30 2163 O 198.514 3.62929 -4.38487 0
M  V30 2164 N 199.716 4.95375 -3.02629 0
M  V30 2165 H 202.481 0.886804 -2.86279 0
M  V30 2166 H 200.042 0.338121 -1.5833 0
M  V30 2167 H 202.034 3.34833 -2.27307 0
M  V30 2168 H 200.604 2.81832 -1.35238 0
M  V30 2169 H 199.824 1.68403 -3.56419 0
M  V30 2170 H 201.112 2.58704 -4.38121 0
M  V30 2171 H 200.51 5.10509 -2.43715 0
M  V30 2172 H 199.067 5.70627 -3.15004 0
M  V30 2173 N 202.5 1.5196 0.417844 0
M  V30 2174 C 203.73 1.69181 1.18581 0
M  V30 2175 C 204.138 0.397104 1.84986 0
M  V30 2176 O 203.481 -0.636011 1.72339 0
M  V30 2177 C 203.543 2.76497 2.29759 0
M  V30 2178 C 203.207 4.18514 1.83563 0
M  V30 2179 C 204.204 5.02648 1.32821 0
M  V30 2180 C 201.889 4.64708 1.90661 0
M  V30 2181 C 203.883 6.31044 0.897894 0
M  V30 2182 C 201.57 5.93096 1.47241 0
M  V30 2183 C 202.568 6.76093 0.968891 0
M  V30 2184 O 202.256 8.02078 0.540924 0
M  V30 2185 H 201.988 0.570457 0.362705 0
M  V30 2186 H 204.542 1.99249 0.498885 0
M  V30 2187 H 202.772 2.41786 3.01789 0
M  V30 2188 H 204.461 2.82403 2.91553 0
M  V30 2189 H 205.227 4.68154 1.26716 0
M  V30 2190 H 201.106 4.00216 2.28797 0
M  V30 2191 H 204.65 6.95776 0.504192 0
M  V30 2192 H 200.547 6.271 1.53022 0
M  V30 2193 H 201.315 8.15794 0.66502 0
M  V30 2194 N 203.978 -0.674533 1.42435 0
M  V30 2195 C 205.208 -1.46071 1.46105 0
M  V30 2196 C 205.616 -1.89067 0.0709605 0
M  V30 2197 O 204.959 -1.58731 -0.924677 0
M  V30 2198 C 205.021 -2.74145 2.32561 0
M  V30 2199 C 204.685 -2.53224 3.8043 0
M  V30 2200 C 205.682 -2.17809 4.72075 0
M  V30 2201 C 203.367 -2.6821 4.24698 0
M  V30 2202 C 205.361 -1.97648 6.05982 0
M  V30 2203 C 203.048 -2.47665 5.58664 0
M  V30 2204 C 204.046 -2.12437 6.49122 0
M  V30 2205 O 203.734 -1.9209 7.80613 0
M  V30 2206 H 203.466 -0.455959 0.499076 0
M  V30 2207 H 206.02 -0.836193 1.87609 0
M  V30 2208 H 204.25 -3.3908 1.85908 0
M  V30 2209 H 205.939 -3.36028 2.27683 0
M  V30 2210 H 206.705 -2.05826 4.39159 0
M  V30 2211 H 202.584 -2.94609 3.54579 0
M  V30 2212 H 206.128 -1.70075 6.7655 0
M  V30 2213 H 202.025 -2.59244 5.91154 0
M  V30 2214 H 202.793 -2.06686 7.91974 0
M  V30 2215 N 205.456 -1.28612 -0.910864 0
M  V30 2216 C 206.386 -1.15326 -2.03032 0
M  V30 2217 C 207.367 -0.0502924 -1.70026 0
M  V30 2218 O 208.552 -0.227797 -1.92859 0
M  V30 2219 C 205.682 -0.817343 -3.37545 0
M  V30 2220 C 204.636 -1.8754 -3.84724 0
M  V30 2221 C 203.962 -1.39305 -5.16235 0
M  V30 2222 C 205.262 -3.28244 -4.06267 0
M  V30 2223 H 206.956 -2.08975 -2.14406 0
M  V30 2224 H 204.502 -1.00612 -1.03021 0
M  V30 2225 H 206.455 -0.711151 -4.15356 0
M  V30 2226 H 205.179 0.154846 -3.26233 0
M  V30 2227 H 203.838 -1.97079 -3.09121 0
M  V30 2228 H 203.486 -0.409846 -5.01328 0
M  V30 2229 H 203.186 -2.10057 -5.48771 0
M  V30 2230 H 204.71 -1.30014 -5.96598 0
M  V30 2231 H 206.124 -3.21611 -4.74594 0
M  V30 2232 H 204.521 -3.96855 -4.5014 0
M  V30 2233 H 205.591 -3.72048 -3.10979 0
M  V30 2234 N 206.934 1.1197 -1.10907 0
M  V30 2235 C 207.864 2.19928 -0.784473 0
M  V30 2236 C 208.845 1.6833 0.244726 0
M  V30 2237 O 210.03 1.93892 0.109418 0
M  V30 2238 C 207.16 3.46597 -0.220827 0
M  V30 2239 C 206.114 4.11376 -1.18127 0
M  V30 2240 C 205.44 5.32554 -0.478594 0
M  V30 2241 C 206.74 4.56945 -2.52979 0
M  V30 2242 H 208.434 2.47337 -1.68715 0
M  V30 2243 H 205.98 1.18879 -0.812642 0
M  V30 2244 H 207.933 4.21396 0.0184278 0
M  V30 2245 H 206.657 3.1863 0.717113 0
M  V30 2246 H 205.316 3.38564 -1.40606 0
M  V30 2247 H 204.964 5.00856 0.463976 0
M  V30 2248 H 204.664 5.76844 -1.11912 0
M  V30 2249 H 206.188 6.10096 -0.248 0
M  V30 2250 H 207.602 5.23093 -2.3462 0
M  V30 2251 H 205.999 5.1203 -3.12962 0
M  V30 2252 H 207.069 3.70676 -3.12614 0
M  V30 2253 N 208.412 0.89855 1.29475 0
M  V30 2254 C 209.375 0.380272 2.26023 0
M  V30 2255 C 210.375 -0.484891 1.53315 0
M  V30 2256 O 211.565 -0.290108 1.71767 0
M  V30 2257 C 208.697 -0.45651 3.3783 0
M  V30 2258 H 209.89 1.23295 2.73383 0
M  V30 2259 H 207.443 0.676589 1.40897 0
M  V30 2260 H 208.178 -1.32922 2.95808 0
M  V30 2261 H 207.963 0.163393 3.91759 0
M  V30 2262 H 209.453 -0.810466 4.0966 0
M  V30 2263 N 209.89 -1.43072 0.660911 0
M  V30 2264 C 211.306 -1.56169 0.329173 0
M  V30 2265 C 211.506 -1.64317 -1.16629 0
M  V30 2266 O 210.562 -1.60245 -1.95135 0
M  V30 2267 C 211.875 -2.81873 1.04729 0
M  V30 2268 C 213.423 -2.95627 1.02828 0
M  V30 2269 C 213.898 -4.24174 1.72744 0
M  V30 2270 N 215.389 -4.31055 1.69545 0
M  V30 2271 C 216.124 -5.29304 2.20511 0
M  V30 2272 N 215.62 -6.33786 2.79799 0
M  V30 2273 N 217.413 -5.21008 2.10966 0
M  V30 2274 H 209.564 -1.36027 1.63127 0
M  V30 2275 H 211.827 -0.653823 0.686454 0
M  V30 2276 H 211.533 -2.81942 2.10242 0
M  V30 2277 H 211.407 -3.72338 0.603702 0
M  V30 2278 H 213.794 -2.95094 -0.0184742 0
M  V30 2279 H 213.875 -2.06431 1.51063 0
M  V30 2280 H 213.519 -4.25467 2.7738 0
M  V30 2281 H 213.449 -5.1228 1.2197 0
M  V30 2282 H 215.94 -3.56174 1.26288 0
M  V30 2283 H 216.253 -7.05086 3.16344 0
M  V30 2284 H 214.598 -6.34387 2.83863 0
M  V30 2285 H 217.789 -4.38301 1.64347 0
M  V30 2286 H 217.962 -5.97416 2.50993 0
M  V30 2287 N 211.368 -0.403325 -1.52352 0
M  V30 2288 C 212.784 -0.0539281 -1.59509 0
M  V30 2289 C 212.984 1.43307 -1.41652 0
M  V30 2290 O 212.04 2.19924 -1.24056 0
M  V30 2291 C 213.353 -0.543654 -2.95745 0
M  V30 2292 C 214.901 -0.501125 -3.08962 0
M  V30 2293 C 215.376 -0.967267 -4.47669 0
M  V30 2294 N 216.867 -0.923849 -4.53893 0
M  V30 2295 C 217.602 -1.25578 -5.5948 0
M  V30 2296 N 217.098 -1.65889 -6.72646 0
M  V30 2297 N 218.891 -1.17613 -5.49658 0
M  V30 2298 H 211.042 -1.37123 -1.62206 0
M  V30 2299 H 213.305 -0.56294 -0.76276 0
M  V30 2300 H 213.011 -1.58275 -3.14073 0
M  V30 2301 H 212.885 0.0498042 -3.77167 0
M  V30 2302 H 215.272 0.528909 -2.90321 0
M  V30 2303 H 215.353 -1.13056 -2.2946 0
M  V30 2304 H 214.997 -1.9956 -4.67053 0
M  V30 2305 H 214.927 -0.314698 -5.25659 0
M  V30 2306 H 217.418 -0.627403 -3.72655 0
M  V30 2307 H 217.731 -1.89543 -7.49195 0
M  V30 2308 H 216.076 -1.69787 -6.73942 0
M  V30 2309 H 219.267 -0.860115 -4.6013 0
M  V30 2310 H 219.44 -1.43812 -6.3184 0
M  V30 2311 N 212.846 1.57033 -0.133567 0
M  V30 2312 C 213.809 2.14897 0.796995 0
M  V30 2313 C 214.809 1.0874 1.18458 0
M  V30 2314 O 215.999 1.34446 1.1077 0
M  V30 2315 C 213.131 2.70112 2.07973 0
M  V30 2316 H 214.324 2.98457 0.293873 0
M  V30 2317 H 211.877 1.55871 0.115787 0
M  V30 2318 H 212.612 1.9018 2.62682 0
M  V30 2319 H 212.397 3.47764 1.81115 0
M  V30 2320 H 213.887 3.14738 2.74462 0
M  V30 2321 N 214.325 -0.140222 1.56975 0
M  V30 2322 C 215.288 -1.15689 1.97861 0
M  V30 2323 C 216.288 -1.3549 0.865974 0
M  V30 2324 O 217.478 -1.32367 1.13246 0
M  V30 2325 C 214.61 -2.51582 2.30042 0
M  V30 2326 H 215.803 -0.805971 2.88867 0
M  V30 2327 H 213.356 -0.383801 1.51515 0
M  V30 2328 H 214.091 -2.91632 1.41849 0
M  V30 2329 H 213.876 -2.38569 3.11171 0
M  V30 2330 H 215.366 -3.24792 2.62488 0
M  V30 2331 N 215.803 -1.52179 -0.40978 0
M  V30 2332 C 216.75 -1.75475 -1.49924 0
M  V30 2333 C 217.72 -0.597175 -1.54994 0
M  V30 2334 O 218.905 -0.834655 -1.71575 0
M  V30 2335 C 216.045 -1.9107 -2.87378 0
M  V30 2336 C 215.158 -3.18717 -2.91622 0
M  V30 2337 C 214.293 -3.24747 -4.20372 0
M  V30 2338 C 213.332 -4.46598 -4.18588 0
M  V30 2339 N 212.469 -4.50025 -5.38908 0
M  V30 2340 H 217.309 -2.68458 -1.29361 0
M  V30 2341 H 214.846 -1.33024 -0.627934 0
M  V30 2342 H 216.804 -1.98096 -3.6717 0
M  V30 2343 H 215.434 -1.01469 -3.06437 0
M  V30 2344 H 214.486 -3.20866 -2.04326 0
M  V30 2345 H 215.798 -4.08544 -2.86169 0
M  V30 2346 H 214.952 -3.30841 -5.08556 0
M  V30 2347 H 213.691 -2.32857 -4.28519 0
M  V30 2348 H 212.696 -4.40652 -3.28794 0
M  V30 2349 H 213.921 -5.39783 -4.12081 0
M  V30 2350 H 211.867 -3.61017 -5.47725 0
M  V30 2351 H 211.784 -5.33697 -5.35447 0
M  V30 2352 H 213.052 -4.60347 -6.29048 0
M  V30 2353 N 217.281 0.66697 -1.42791 0
M  V30 2354 C 218.529 1.42417 -1.43394 0
M  V30 2355 C 218.85 1.94925 -0.0542373 0
M  V30 2356 O 218.12 1.73564 0.908415 0
M  V30 2357 H 216.7 0.528515 -0.527902 0
M  V30 2358 H 219.362 0.787562 -1.78279 0
M  V30 2359 H 218.458 2.27333 -2.13837 0
M  V30 2360 N 218.759 1.29093 0.90403 0
M  V30 2361 C 220.006 1.16813 1.65411 0
M  V30 2362 C 220.334 -0.28128 1.92455 0
M  V30 2363 O 219.589 -1.22006 1.53013 0
M  V30 2364 C 219.888 1.92224 3.01305 0
M  V30 2365 C 219.554 3.41968 2.93885 0
M  V30 2366 C 218.216 3.82807 2.91569 0
M  V30 2367 C 220.568 4.37409 2.83413 0
M  V30 2368 C 217.896 5.1741 2.76594 0
M  V30 2369 C 220.248 5.72097 2.69977 0
M  V30 2370 C 218.912 6.12199 2.66024 0
M  V30 2371 H 218.182 0.42745 0.605283 0
M  V30 2372 H 220.829 1.59981 1.05254 0
M  V30 2373 H 219.134 1.41635 3.65304 0
M  V30 2374 H 220.831 1.80131 3.58265 0
M  V30 2375 H 217.421 3.09504 2.96488 0
M  V30 2376 H 221.605 4.06813 2.84283 0
M  V30 2377 H 216.861 5.47596 2.71935 0
M  V30 2378 H 221.035 6.45704 2.60844 0
M  V30 2379 H 218.662 7.16448 2.54178 0
M  V30 2380 N 220.237 -1.11381 1.11499 0
M  V30 2381 C 221.167 -2.19509 0.796125 0
M  V30 2382 C 222.148 -1.68458 -0.235796 0
M  V30 2383 O 223.333 -1.93947 -0.0991344 0
M  V30 2384 C 220.463 -3.46475 0.239205 0
M  V30 2385 C 219.417 -4.10744 1.20307 0
M  V30 2386 C 218.743 -5.32293 0.50683 0
M  V30 2387 C 220.043 -4.55597 2.55399 0
M  V30 2388 H 221.737 -2.46439 1.70024 0
M  V30 2389 H 219.283 -1.18446 0.818935 0
M  V30 2390 H 221.236 -4.214 0.00392006 0
M  V30 2391 H 219.96 -3.19006 -0.700206 0
M  V30 2392 H 218.619 -3.37813 1.42399 0
M  V30 2393 H 218.267 -5.01095 -0.437408 0
M  V30 2394 H 217.967 -5.76243 1.1497 0
M  V30 2395 H 219.491 -6.09956 0.280351 0
M  V30 2396 H 220.905 -5.21841 2.37391 0
M  V30 2397 H 219.302 -5.10363 3.15673 0
M  V30 2398 H 220.372 -3.69013 3.14575 0
M  V30 2399 N 221.715 -0.905404 -1.28997 0
M  V30 2400 C 222.662 -0.385892 -2.27551 0
M  V30 2401 C 223.632 0.535113 -1.57244 0
M  V30 2402 O 224.817 0.459119 -1.85194 0
M  V30 2403 C 221.957 0.375461 -3.43051 0
M  V30 2404 C 221.07 -0.577092 -4.28128 0
M  V30 2405 C 220.205 0.201879 -5.30816 0
M  V30 2406 C 219.244 -0.744829 -6.07551 0
M  V30 2407 N 218.381 9.42587e-05 -7.021 0
M  V30 2408 H 223.221 -1.23139 -2.71368 0
M  V30 2409 H 220.758 -0.618542 -1.33463 0
M  V30 2410 H 222.716 0.832992 -4.088 0
M  V30 2411 H 221.346 1.18537 -3.00248 0
M  V30 2412 H 220.398 -1.15315 -3.62501 0
M  V30 2413 H 221.71 -1.30152 -4.8152 0
M  V30 2414 H 220.864 0.720351 -6.02408 0
M  V30 2415 H 219.603 0.959413 -4.7817 0
M  V30 2416 H 218.608 -1.27475 -5.34818 0
M  V30 2417 H 219.833 -1.50178 -6.62286 0
M  V30 2418 H 217.779 0.739791 -6.51815 0
M  V30 2419 H 217.696 -0.664321 -7.53076 0
M  V30 2420 H 218.964 0.498644 -7.77903 0
M  V30 2421 N 223.193 1.4272 -0.668489 0
M  V30 2422 C 224.123 2.335 -0.000100175 0
M  V30 2423 C 225.104 1.50328 0.795964 0
M  V30 2424 O 226.289 1.78949 0.754385 0
M  V30 2425 C 223.419 3.33874 0.956302 0
M  V30 2426 C 222.373 4.27152 0.269278 0
M  V30 2427 C 221.699 5.17684 1.33818 0
M  V30 2428 C 222.999 5.15373 -0.847805 0
M  V30 2429 H 224.693 2.89639 -0.758244 0
M  V30 2430 H 222.239 1.39269 -0.366079 0
M  V30 2431 H 224.192 3.9629 1.43292 0
M  V30 2432 H 222.916 2.76025 1.74579 0
M  V30 2433 H 221.575 3.66123 -0.187042 0
M  V30 2434 H 221.223 4.56165 2.1195 0
M  V30 2435 H 220.923 5.80918 0.883659 0
M  V30 2436 H 222.447 5.82974 1.81586 0
M  V30 2437 H 223.861 5.7151 -0.452681 0
M  V30 2438 H 222.258 5.87407 -1.22773 0
M  V30 2439 H 223.328 4.5415 -1.69929 0
M  V30 2440 N 224.671 0.411399 1.52136 0
M  V30 2441 C 225.919 -0.163322 2.01439 0
M  V30 2442 C 226.24 -1.45453 1.29879 0
M  V30 2443 O 225.51 -1.91225 0.4254 0
M  V30 2444 H 224.09 -0.0633447 0.744309 0
M  V30 2445 H 226.752 0.548161 1.87033 0
M  V30 2446 H 225.848 -0.357817 3.10042 0
M  V30 2447 N 226.149 -1.5696 0.141893 0
M  V30 2448 C 227.079 -2.19516 -0.795936 0
M  V30 2449 C 228.06 -1.14187 -1.26077 0
M  V30 2450 O 229.245 -1.42511 -1.31925 0
M  V30 2451 C 226.375 -2.81272 -2.03723 0
M  V30 2452 C 225.329 -3.92384 -1.70936 0
M  V30 2453 C 224.655 -4.41052 -3.02287 0
M  V30 2454 C 225.955 -5.13403 -0.959954 0
M  V30 2455 H 227.649 -2.98138 -0.274596 0
M  V30 2456 H 225.195 -1.43406 -0.130636 0
M  V30 2457 H 227.148 -3.237 -2.69808 0
M  V30 2458 H 225.872 -1.99973 -2.58221 0
M  V30 2459 H 224.531 -3.50566 -1.07232 0
M  V30 2460 H 224.179 -3.56582 -3.54765 0
M  V30 2461 H 223.879 -5.15993 -2.81114 0
M  V30 2462 H 225.403 -4.86146 -3.69451 0
M  V30 2463 H 226.817 -5.52706 -1.52279 0
M  V30 2464 H 225.214 -5.94073 -0.848357 0
M  V30 2465 H 226.284 -4.84875 0.0492434 0
M  V30 2466 N 227.627 0.131896 -1.57047 0
M  V30 2467 C 228.574 1.16236 -1.99393 0
M  V30 2468 C 229.544 1.41863 -0.863943 0
M  V30 2469 O 230.729 1.53946 -1.12718 0
M  V30 2470 C 227.869 2.48708 -2.39245 0
M  V30 2471 C 226.982 2.30127 -3.65603 0
M  V30 2472 C 226.117 3.55738 -3.94492 0
M  V30 2473 C 225.156 3.32259 -5.14073 0
M  V30 2474 N 224.293 4.50039 -5.38896 0
M  V30 2475 H 229.133 0.794251 -2.87221 0
M  V30 2476 H 226.67 0.380707 -1.42088 0
M  V30 2477 H 228.628 3.25969 -2.60384 0
M  V30 2478 H 227.258 2.83437 -1.54478 0
M  V30 2479 H 226.31 1.43845 -3.52154 0
M  V30 2480 H 227.622 2.08746 -4.5302 0
M  V30 2481 H 226.776 4.41423 -4.1621 0
M  V30 2482 H 225.515 3.80138 -3.05526 0
M  V30 2483 H 224.52 2.44963 -4.92212 0
M  V30 2484 H 225.745 3.09242 -6.04604 0
M  V30 2485 H 223.691 4.74584 -4.52886 0
M  V30 2486 H 223.608 4.31716 -6.2061 0
M  V30 2487 H 224.876 5.36895 -5.65123 0
M  V30 2488 N 229.106 1.52395 0.401703 0
M  V30 2489 C 230.038 1.72505 1.50912 0
M  V30 2490 C 231.051 0.605468 1.51122 0
M  V30 2491 O 232.24 0.880828 1.55254 0
M  V30 2492 C 229.34 1.75711 2.89791 0
M  V30 2493 C 228.513 3.04824 3.1369 0
M  V30 2494 C 227.572 2.99743 4.32482 0
M  V30 2495 O 226.598 3.73635 4.29402 0
M  V30 2496 N 227.8 2.18047 5.37992 0
M  V30 2497 H 230.565 2.68049 1.34052 0
M  V30 2498 H 228.126 1.50724 0.591084 0
M  V30 2499 H 230.118 1.69834 3.6734 0
M  V30 2500 H 228.688 0.876092 3.00072 0
M  V30 2501 H 227.908 3.2429 2.24119 0
M  V30 2502 H 229.196 3.90221 3.26504 0
M  V30 2503 H 228.594 1.57456 5.43345 0
M  V30 2504 H 227.151 2.18021 6.14256 0
M  V30 2505 N 230.584 -0.659388 1.43143 0
M  V30 2506 C 231.547 -1.75432 1.47501 0
M  V30 2507 C 232.547 -1.56707 0.360512 0
M  V30 2508 O 233.737 -1.62717 0.622002 0
M  V30 2509 C 230.869 -3.14239 1.32162 0
M  V30 2510 H 232.062 -1.7295 2.45006 0
M  V30 2511 H 229.615 -0.870469 1.29817 0
M  V30 2512 H 230.35 -3.22336 0.356401 0
M  V30 2513 H 230.135 -3.29235 2.12948 0
M  V30 2514 H 231.625 -3.94094 1.3813 0
M  V30 2515 N 232.062 -1.29571 -0.897171 0
M  V30 2516 C 233.012 -1.11539 -1.98855 0
M  V30 2517 C 233.996 -0.0340716 -1.60864 0
M  V30 2518 O 235.188 -0.256062 -1.75138 0
M  V30 2519 C 232.317 -0.796603 -3.3393 0
M  V30 2520 C 231.403 -1.91758 -3.78272 0
M  V30 2521 N 231.794 -3.16143 -3.94826 0
M  V30 2522 C 230.092 -1.81119 -4.07568 0
M  V30 2523 C 230.793 -3.89293 -4.32233 0
M  V30 2524 N 229.769 -3.17255 -4.41419 0
M  V30 2525 H 233.571 -2.05894 -2.09726 0
M  V30 2526 H 231.085 -1.20732 -1.08616 0
M  V30 2527 H 233.082 -0.648459 -4.11826 0
M  V30 2528 H 231.742 0.139003 -3.24402 0
M  V30 2529 H 232.753 -3.5157 -3.80288 0
M  V30 2530 H 229.43 -0.948461 -4.06584 0
M  V30 2531 H 230.82 -4.9635 -4.52865 0
M  V30 2532 N 233.54 1.10788 -1.12088 0
M  V30 2533 C 234.765 1.87002 -0.896949 0
M  V30 2534 C 235.19 1.79933 0.548261 0
M  V30 2535 O 234.548 1.16662 1.38779 0
M  V30 2536 C 234.596 3.3349 -1.37174 0
M  V30 2537 O 233.7 4.08745 -0.547831 0
M  V30 2538 H 233.041 0.580397 -0.322545 0
M  V30 2539 H 235.571 1.39996 -1.49206 0
M  V30 2540 H 235.581 3.84339 -1.36922 0
M  V30 2541 H 234.256 3.37951 -2.42408 0
M  V30 2542 H 232.833 3.6776 -0.617034 0
M  V30 2543 N 235.018 0.912232 1.28515 0
M  V30 2544 C 236.264 0.545405 1.95328 0
M  V30 2545 C 236.597 -0.908313 1.71649 0
M  V30 2546 O 235.872 -1.64575 1.03659 0
M  V30 2547 C 236.155 0.853483 3.4984 0
M  V30 2548 C 236.008 2.35982 3.82926 0
M  V30 2549 C 237.327 0.348589 4.38717 0
M  V30 2550 H 234.446 0.199626 0.709449 0
M  V30 2551 H 237.088 1.1412 1.5191 0
M  V30 2552 H 235.238 0.34643 3.86952 0
M  V30 2553 H 236.91 2.93738 3.55691 0
M  V30 2554 H 235.153 2.81543 3.30024 0
M  V30 2555 H 235.824 2.52593 4.90816 0
M  V30 2556 H 238.3 0.78294 4.08668 0
M  V30 2557 H 237.176 0.593242 5.45685 0
M  V30 2558 H 237.437 -0.751049 4.35674 0
M  V30 2559 N 236.496 -1.42363 0.676048 0
M  V30 2560 C 237.459 -2.29199 0.00766941 0
M  V30 2561 C 238.459 -1.43389 -0.727745 0
M  V30 2562 O 239.649 -1.64764 -0.56556 0
M  V30 2563 C 236.781 -3.2591 -0.999785 0
M  V30 2564 H 237.974 -2.89794 0.771988 0
M  V30 2565 H 235.527 -1.50024 0.438468 0
M  V30 2566 H 236.262 -2.70256 -1.79255 0
M  V30 2567 H 236.047 -3.89202 -0.475829 0
M  V30 2568 H 237.537 -3.91028 -1.46583 0
M  V30 2569 N 237.974 -0.419461 -1.51915 0
M  V30 2570 C 239.223 0.154346 -2.01109 0
M  V30 2571 C 239.536 1.45338 -1.30905 0
M  V30 2572 O 240.742 2.10906 -1.7097 0
M  V30 2573 C 239.198 0.325615 -3.58424 0
M  V30 2574 C 238.806 -0.961934 -4.37551 0
M  V30 2575 C 240.55 0.854155 -4.15818 0
M  V30 2576 C 238.457 -0.757287 -5.86531 0
M  V30 2577 H 237.387 0.0614563 -0.751491 0
M  V30 2578 H 240.038 -0.54649 -1.75173 0
M  V30 2579 H 238.42 1.08903 -3.80731 0
M  V30 2580 H 239.594 -1.7323 -4.26999 0
M  V30 2581 H 237.909 -1.41766 -3.91524 0
M  V30 2582 H 240.506 1.02346 -5.24814 0
M  V30 2583 H 240.849 1.83172 -3.73837 0
M  V30 2584 H 241.382 0.149528 -3.97519 0
M  V30 2585 H 238.121 -1.70671 -6.32892 0
M  V30 2586 H 237.641 -0.0264061 -5.99794 0
M  V30 2587 H 239.32 -0.403482 -6.45741 0
M  V30 2588 N 239.452 1.56882 -0.150215 0
M  V30 2589 C 240.382 2.19935 0.784284 0
M  V30 2590 C 241.363 1.14854 1.25469 0
M  V30 2591 O 242.548 1.43209 1.31168 0
M  V30 2592 C 239.678 2.82349 2.02229 0
M  V30 2593 C 238.632 3.93285 1.68853 0
M  V30 2594 C 237.958 4.42649 2.99944 0
M  V30 2595 C 239.258 5.13904 0.932714 0
M  V30 2596 H 240.952 2.9828 0.258781 0
M  V30 2597 H 238.498 1.43473 0.123029 0
M  V30 2598 H 240.451 3.25126 2.68088 0
M  V30 2599 H 239.175 2.0134 2.57157 0
M  V30 2600 H 237.834 3.5113 1.05371 0
M  V30 2601 H 237.482 3.58458 3.52869 0
M  V30 2602 H 237.182 5.17476 2.78374 0
M  V30 2603 H 238.706 4.88099 3.66868 0
M  V30 2604 H 240.12 5.53506 1.49345 0
M  V30 2605 H 238.517 5.94515 0.81684 0
M  V30 2606 H 239.587 4.84842 -0.0749568 0
M  V30 2607 N 240.93 -0.123565 1.57115 0
M  V30 2608 C 242.178 -0.83051 1.84247 0
M  V30 2609 C 242.499 -1.80629 0.73471 0
M  V30 2610 O 241.769 -1.94403 -0.241688 0
M  V30 2611 H 240.349 -0.309694 0.679778 0
M  V30 2612 H 243.011 -0.111976 1.94578 0
M  V30 2613 H 242.107 -1.37852 2.80006 0
M  V30 2614 N 242.408 -1.52605 -0.393616 0
M  V30 2615 C 243.655 -1.67424 -1.1391 0
M  V30 2616 C 243.983 -0.411859 -1.90089 0
M  V30 2617 O 243.238 0.605626 -1.86093 0
M  V30 2618 C 243.537 -2.85721 -2.14705 0
M  V30 2619 C 243.203 -4.23342 -1.55218 0
M  V30 2620 C 241.865 -4.60771 -1.3872 0
M  V30 2621 C 244.217 -5.09041 -1.11924 0
M  V30 2622 C 241.545 -5.81563 -0.774689 0
M  V30 2623 C 243.897 -6.30452 -0.520853 0
M  V30 2624 C 242.561 -6.66617 -0.343134 0
M  V30 2625 H 241.831 -0.612648 -0.416826 0
M  V30 2626 H 244.478 -1.8674 -0.424315 0
M  V30 2627 H 242.783 -2.60803 -2.92385 0
M  V30 2628 H 244.48 -2.94382 -2.72288 0
M  V30 2629 H 241.07 -3.93855 -1.69045 0
M  V30 2630 H 245.254 -4.80695 -1.23473 0
M  V30 2631 H 240.51 -6.08196 -0.625154 0
M  V30 2632 H 244.684 -6.96175 -0.177065 0
M  V30 2633 H 242.311 -7.60083 0.133571 0
M  V30 2634 N 243.887 0.651787 -1.4349 0
M  V30 2635 C 244.835 1.78586 -1.49029 0
M  V30 2636 C 245.829 1.65448 -0.363767 0
M  V30 2637 O 247.035 1.71777 -0.537821 0
M  V30 2638 H 243.41 0.589236 -0.467231 0
M  V30 2639 H 245.381 1.71035 -2.44519 0
M  V30 2640 C 244.13 3.16851 -1.43181 0
M  V30 2641 H 243.453 3.27598 -2.29171 0
M  V30 2642 H 244.893 3.96156 -1.51118 0
M  V30 2643 C 243.352 3.36568 -0.149616 0
M  V30 2644 O 243.882 3.93885 0.788509 0
M  V30 2645 N 242.088 2.90539 -0.0593484 0
M  V30 2646 H 241.635 2.4408 -0.823575 0
M  V30 2647 H 241.593 3.04108 0.797853 0
M  V30 2648 N 245.365 1.30045 0.890287 0
M  V30 2649 C 246.59 1.21598 1.68014 0
M  V30 2650 C 247.015 -0.218678 1.86825 0
M  V30 2651 O 246.373 -1.15756 1.39536 0
M  V30 2652 C 246.421 1.94434 3.03691 0
M  V30 2653 O 245.525 1.2678 3.92429 0
M  V30 2654 H 244.866 0.420856 0.513592 0
M  V30 2655 H 247.396 1.71775 1.11151 0
M  V30 2656 H 247.406 2.03251 3.5377 0
M  V30 2657 H 246.081 2.98777 2.89318 0
M  V30 2658 H 244.658 1.26282 3.50866 0
M  V30 2659 N 246.843 -1.10192 1.12674 0
M  V30 2660 C 248.254 -1.63707 0.897604 0
M  V30 2661 C 248.605 -1.87812 -0.567546 0
M  V30 2662 O 247.73 -1.62196 -1.43253 0
M  V30 2663 C 248.325 -2.974 1.62292 0
M  V30 2664 C 246.884 -3.47772 1.43986 0
M  V30 2665 C 246.031 -2.22332 1.65722 0
M  V30 2666 H 248.982 -0.936587 1.28116 0
M  V30 2667 H 249.003 -3.64986 1.07541 0
M  V30 2668 H 248.515 -2.79824 2.68924 0
M  V30 2669 H 246.616 -3.70487 0.396206 0
M  V30 2670 H 246.729 -4.25723 2.19765 0
M  V30 2671 H 245.093 -2.30599 1.08149 0
M  V30 2672 H 245.876 -2.07285 2.73657 0
M  V30 2673 N 248.321 -0.919034 -1.28029 0
M  V30 2674 C 249.231 -0.416756 -2.30869 0
M  V30 2675 C 250.247 0.498235 -1.66714 0
M  V30 2676 O 251.423 0.383144 -1.97722 0
M  V30 2677 C 248.488 0.330274 -3.45123 0
M  V30 2678 C 247.549 -0.618578 -4.2482 0
M  V30 2679 C 246.782 0.0928959 -5.33619 0
M  V30 2680 O 247.005 1.31375 -5.55065 0
M  V30 2681 O 245.939 -0.574499 -5.99152 0
M  V30 2682 H 249.765 -1.27043 -2.75851 0
M  V30 2683 H 247.35 -0.684052 -1.3282 0
M  V30 2684 H 249.232 0.751972 -4.14636 0
M  V30 2685 H 247.907 1.1597 -3.02213 0
M  V30 2686 H 246.814 -1.08978 -3.57875 0
M  V30 2687 H 248.147 -1.41497 -4.71423 0
M  V30 2688 N 249.799 1.42003 -0.683588 0
M  V30 2689 C 251.045 2.02223 -0.218536 0
M  V30 2690 C 251.4 1.53126 1.16492 0
M  V30 2691 O 250.693 0.727459 1.77253 0
M  V30 2692 C 250.887 3.56827 -0.202357 0
M  V30 2693 C 250.716 4.20928 -1.5827 0
M  V30 2694 C 249.486 4.5573 -2.18262 0
M  V30 2695 C 251.684 4.47933 -2.52706 0
M  V30 2696 N 249.666 5.05056 -3.48986 0
M  V30 2697 C 251.037 4.98906 -3.68094 0
M  V30 2698 C 253.092 4.29931 -2.51125 0
M  V30 2699 C 251.795 5.33768 -4.82166 0
M  V30 2700 C 253.821 4.65875 -3.643 0
M  V30 2701 C 253.183 5.17008 -4.78417 0
M  V30 2702 H 249.282 0.771931 -0.125088 0
M  V30 2703 H 251.866 1.72729 -0.898479 0
M  V30 2704 H 250.037 3.85819 0.447029 0
M  V30 2705 H 251.769 4.03755 0.276399 0
M  V30 2706 H 248.524 4.41781 -1.70665 0
M  V30 2707 H 248.948 5.34139 -4.15962 0
M  V30 2708 H 253.59 3.89647 -1.6412 0
M  V30 2709 H 251.308 5.72981 -5.6984 0
M  V30 2710 H 254.894 4.53615 -3.64314 0
M  V30 2711 H 253.774 5.44301 -5.64541 0
M  V30 2712 N 251.277 0.427512 1.51691 0
M  V30 2713 C 252.524 -0.142229 2.02 0
M  V30 2714 C 252.852 -1.43566 1.31221 0
M  V30 2715 O 252.107 -1.91298 0.412744 0
M  V30 2716 C 252.406 -0.418249 3.54944 0
M  V30 2717 C 252.072 0.788187 4.43958 0
M  V30 2718 C 250.734 1.11906 4.68007 0
M  V30 2719 C 253.086 1.59347 4.96244 0
M  V30 2720 C 250.414 2.25608 5.41588 0
M  V30 2721 C 252.766 2.7214 5.71072 0
M  V30 2722 C 251.43 3.05692 5.93387 0
M  V30 2723 H 250.7 -0.0520451 0.73917 0
M  V30 2724 H 253.347 0.572697 1.82736 0
M  V30 2725 H 251.652 -1.21496 3.72486 0
M  V30 2726 H 253.349 -0.872339 3.91397 0
M  V30 2727 H 249.939 0.520344 4.2543 0
M  V30 2728 H 254.123 1.35106 4.77556 0
M  V30 2729 H 249.379 2.51929 5.57083 0
M  V30 2730 H 253.553 3.34914 6.10578 0
M  V30 2731 H 251.18 3.9391 6.50184 0
M  V30 2732 N 252.755 -1.56801 0.158532 0
M  V30 2733 C 254.002 -1.9649 -0.489679 0
M  V30 2734 C 254.33 -1.04394 -1.6411 0
M  V30 2735 O 253.585 -0.0754401 -1.95555 0
M  V30 2736 C 253.884 -3.4235 -1.02623 0
M  V30 2737 C 253.55 -4.50899 0.00794526 0
M  V30 2738 C 252.212 -4.80312 0.292207 0
M  V30 2739 C 254.564 -5.16333 0.710584 0
M  V30 2740 C 251.892 -5.72461 1.28472 0
M  V30 2741 C 254.244 -6.09553 1.69199 0
M  V30 2742 C 252.908 -6.37339 1.98383 0
M  V30 2743 H 252.178 -0.719009 -0.179186 0
M  V30 2744 H 254.825 -1.8989 0.247798 0
M  V30 2745 H 253.13 -3.45838 -1.84128 0
M  V30 2746 H 254.827 -3.70393 -1.53656 0
M  V30 2747 H 251.417 -4.28015 -0.22379 0
M  V30 2748 H 255.601 -4.93732 0.504174 0
M  V30 2749 H 250.857 -5.92278 1.51714 0
M  V30 2750 H 255.031 -6.59327 2.24189 0
M  V30 2751 H 252.658 -7.08546 2.7544 0
M  V30 2752 N 254.233 0.115231 -1.57178 0
M  V30 2753 C 255.458 0.840354 -1.89612 0
M  V30 2754 C 255.883 1.72464 -0.750845 0
M  V30 2755 O 255.241 1.78826 0.298478 0
M  V30 2756 C 255.289 1.64654 -3.20814 0
M  V30 2757 O 254.393 2.7538 -3.06985 0
M  V30 2758 H 253.734 0.232158 -0.622092 0
M  V30 2759 H 256.264 0.0964977 -2.04372 0
M  V30 2760 H 256.274 2.03499 -3.53627 0
M  V30 2761 H 254.949 0.997416 -4.03763 0
M  V30 2762 H 253.526 2.3971 -2.85646 0
M  V30 2763 N 255.711 1.52812 0.385517 0
M  V30 2764 C 256.674 1.77188 1.45386 0
M  V30 2765 C 257.674 0.641953 1.4743 0
M  V30 2766 O 258.864 0.910033 1.4854 0
M  V30 2767 C 255.996 1.87582 2.8465 0
M  V30 2768 H 257.189 2.72583 1.25054 0
M  V30 2769 H 254.742 1.43586 0.617467 0
M  V30 2770 H 255.477 0.941849 3.10322 0
M  V30 2771 H 255.262 2.69748 2.84567 0
M  V30 2772 H 256.752 2.08102 3.62054 0
M  V30 2773 N 257.189 -0.644168 1.43834 0
M  V30 2774 C 258.435 -1.40603 1.46146 0
M  V30 2775 C 258.768 -1.93997 0.0887717 0
M  V30 2776 O 258.043 -1.72854 -0.891724 0
M  V30 2777 C 258.326 -2.58086 2.51124 0
M  V30 2778 C 258.179 -2.10126 3.97702 0
M  V30 2779 C 259.498 -3.60291 2.52742 0
M  V30 2780 H 256.617 -0.509905 0.532134 0
M  V30 2781 H 259.259 -0.729502 1.75437 0
M  V30 2782 H 257.409 -3.15801 2.26278 0
M  V30 2783 H 259.081 -1.57342 4.33637 0
M  V30 2784 H 257.324 -1.41419 4.10101 0
M  V30 2785 H 257.995 -2.94649 4.66783 0
M  V30 2786 H 260.471 -3.12352 2.7491 0
M  V30 2787 H 259.347 -4.40032 3.28121 0
M  V30 2788 H 259.608 -4.1349 1.56455 0
M  V30 2789 N 258.668 -1.30515 -0.883378 0
M  V30 2790 C 259.916 -1.19194 -1.63209 0
M  V30 2791 C 260.237 0.253205 -1.93349 0
M  V30 2792 O 259.507 1.17025 -1.57105 0
M  V30 2793 H 258.087 -0.438148 -0.605009 0
M  V30 2794 H 260.749 -1.63663 -1.05832 0
M  V30 2795 H 259.845 -1.75396 -2.58153 0
M  V30 2796 N 260.146 1.09593 -1.13257 0
M  V30 2797 C 261.374 1.855 -0.916378 0
M  V30 2798 C 261.789 1.81069 0.534738 0
M  V30 2799 O 261.146 1.20562 1.37007 0
M  V30 2800 C 261.197 3.33546 -1.39388 0
M  V30 2801 O 260.918 3.37927 -2.78813 0
M  V30 2802 C 262.419 4.26299 -1.21588 0
M  V30 2803 H 259.639 0.585991 -0.326887 0
M  V30 2804 H 262.183 1.38488 -1.5047 0
M  V30 2805 H 260.338 3.77992 -0.848597 0
M  V30 2806 H 260.752 4.30254 -2.9997 0
M  V30 2807 H 262.226 5.28341 -1.59876 0
M  V30 2808 H 262.703 4.38918 -0.157376 0
M  V30 2809 H 263.309 3.87668 -1.7491 0
M  V30 2810 N 261.624 0.925811 1.2754 0
M  V30 2811 C 262.87 0.566092 1.94739 0
M  V30 2812 C 263.203 -0.890057 1.72603 0
M  V30 2813 O 262.478 -1.63467 1.05399 0
M  V30 2814 C 262.761 0.89054 3.48915 0
M  V30 2815 C 262.614 2.4003 3.80402 0
M  V30 2816 C 263.933 0.395101 4.38323 0
M  V30 2817 H 261.052 0.20714 0.707292 0
M  V30 2818 H 263.694 1.15725 1.50691 0
M  V30 2819 H 261.844 0.387452 3.86563 0
M  V30 2820 H 263.516 2.97494 3.52555 0
M  V30 2821 H 261.759 2.85028 3.2702 0
M  V30 2822 H 262.43 2.57785 4.8811 0
M  V30 2823 H 264.906 0.826241 4.07814 0
M  V30 2824 H 263.782 0.651086 5.45025 0
M  V30 2825 H 264.043 -0.704798 4.36446 0
M  V30 2826 N 263.102 -1.41638 0.69111 0
M  V30 2827 C 264.349 -2.01299 0.220193 0
M  V30 2828 C 264.677 -1.54715 -1.17871 0
M  V30 2829 O 263.932 -0.747193 -1.80874 0
M  V30 2830 C 264.231 -3.56714 0.221277 0
M  V30 2831 C 263.897 -4.22792 1.56709 0
M  V30 2832 C 262.559 -4.40557 1.93554 0
M  V30 2833 C 264.911 -4.59883 2.45268 0
M  V30 2834 C 262.239 -4.92688 3.18552 0
M  V30 2835 C 264.591 -5.13403 3.69595 0
M  V30 2836 C 263.255 -5.29379 4.06589 0
M  V30 2837 H 262.525 -0.736606 0.0805743 0
M  V30 2838 H 265.172 -1.69598 0.889319 0
M  V30 2839 H 263.477 -3.8818 -0.531391 0
M  V30 2840 H 265.174 -4.00678 -0.160547 0
M  V30 2841 H 261.764 -4.09336 1.2705 0
M  V30 2842 H 265.948 -4.45817 2.18084 0
M  V30 2843 H 261.204 -5.03242 3.47214 0
M  V30 2844 H 265.378 -5.41084 4.38407 0
M  V30 2845 H 263.005 -5.69537 5.03519 0
M  V30 2846 N 264.58 -0.43555 -1.51462 0
M  V30 2847 C 265.543 0.365137 -2.26273 0
M  V30 2848 C 266.543 0.951227 -1.29647 0
M  V30 2849 O 267.733 0.825958 -1.53374 0
M  V30 2850 C 264.865 1.51645 -3.05314 0
M  V30 2851 H 266.058 -0.290474 -2.9849 0
M  V30 2852 H 263.611 -0.188676 -1.55157 0
M  V30 2853 H 264.346 2.20816 -2.3751 0
M  V30 2854 H 264.131 1.10238 -3.76284 0
M  V30 2855 H 265.621 2.08218 -3.61987 0
M  V30 2856 N 266.058 1.56714 -0.166846 0
M  V30 2857 C 267.306 1.96358 0.478305 0
M  V30 2858 C 267.627 1.0537 1.6408 0
M  V30 2859 O 266.897 0.119154 1.95537 0
M  V30 2860 H 265.477 0.725065 0.179692 0
M  V30 2861 H 268.139 1.93329 -0.246985 0
M  V30 2862 H 267.235 3.00547 0.841292 0
M  V30 2863 N 267.536 -0.106894 1.57237 0
M  V30 2864 C 268.784 -0.810921 1.85117 0
M  V30 2865 C 269.105 -1.7984 0.753827 0
M  V30 2866 O 268.375 -1.94649 -0.221056 0
M  V30 2867 H 266.955 -0.302466 0.683025 0
M  V30 2868 H 269.617 -0.0913324 1.94686 0
M  V30 2869 H 268.713 -1.34875 2.81452 0
M  V30 2870 N 269.014 -1.53014 -0.377408 0
M  V30 2871 C 270.263 -1.67845 -1.11853 0
M  V30 2872 C 270.576 -0.430625 -1.90801 0
M  V30 2873 O 271.782 -0.459261 -2.67587 0
M  V30 2874 C 270.238 -2.96668 -2.03756 0
M  V30 2875 C 269.846 -4.28671 -1.30175 0
M  V30 2876 C 271.59 -3.20865 -2.77932 0
M  V30 2877 C 269.497 -5.48591 -2.20911 0
M  V30 2878 H 268.427 -0.625343 -0.421263 0
M  V30 2879 H 271.078 -1.79514 -0.380409 0
M  V30 2880 H 269.46 -2.78773 -2.8125 0
M  V30 2881 H 270.634 -4.57157 -0.578259 0
M  V30 2882 H 268.949 -4.10825 -0.679108 0
M  V30 2883 H 271.546 -4.07642 -3.46024 0
M  V30 2884 H 271.889 -2.36424 -3.4265 0
M  V30 2885 H 272.422 -3.39379 -2.07525 0
M  V30 2886 H 269.161 -6.35474 -1.6079 0
M  V30 2887 H 268.681 -5.244 -2.91144 0
M  V30 2888 H 270.36 -5.8292 -2.80736 0
M  V30 2889 N 270.492 0.636531 -1.44174 0
M  V30 2890 C 271.738 1.39826 -1.4689 0
M  V30 2891 C 272.071 1.93947 -0.0990585 0
M  V30 2892 O 271.346 1.73325 0.882544 0
M  V30 2893 C 271.629 2.56751 -2.5249 0
M  V30 2894 C 271.482 2.08014 -3.98811 0
M  V30 2895 C 272.801 3.58946 -2.54649 0
M  V30 2896 H 269.92 0.507075 -0.53483 0
M  V30 2897 H 272.562 0.720188 -1.75822 0
M  V30 2898 H 270.712 3.14597 -2.2795 0
M  V30 2899 H 272.384 1.5504 -4.34466 0
M  V30 2900 H 270.627 1.39242 -4.10846 0
M  V30 2901 H 271.298 2.92169 -4.68339 0
M  V30 2902 H 273.774 3.1089 -2.76563 0
M  V30 2903 H 272.65 4.38286 -3.3045 0
M  V30 2904 H 272.911 4.12655 -1.58646 0
M  V30 2905 N 271.97 1.30982 0.876444 0
M  V30 2906 C 273.198 1.23242 1.6619 0
M  V30 2907 C 273.613 -0.203345 1.87702 0
M  V30 2908 O 272.97 -1.13317 1.43057 0
M  V30 2909 C 273.021 1.96623 3.03351 0
M  V30 2910 O 272.742 3.34594 2.82804 0
M  V30 2911 C 274.243 1.95644 3.97792 0
M  V30 2912 H 271.463 0.426126 0.518322 0
M  V30 2913 H 274.007 1.7275 1.09442 0
M  V30 2914 H 272.162 1.50892 3.56806 0
M  V30 2915 H 272.576 3.71873 3.69879 0
M  V30 2916 H 274.05 2.51511 4.91372 0
M  V30 2917 H 274.527 0.937395 4.2908 0
M  V30 2918 H 275.133 2.41225 3.50272 0
M  V30 2919 N 273.449 -1.08991 1.13837 0
M  V30 2920 C 274.697 -1.80899 0.901098 0
M  V30 2921 C 275.018 -1.86356 -0.574134 0
M  V30 2922 O 274.288 -1.35235 -1.41733 0
M  V30 2923 H 272.868 -0.669966 0.330386 0
M  V30 2924 H 275.53 -1.318 1.43578 0
M  V30 2925 H 274.626 -2.83929 1.29578 0
M  V30 2926 N 274.927 -0.932562 -1.27047 0
M  V30 2927 C 276.176 -0.571351 -1.93439 0
M  V30 2928 C 276.489 0.892467 -1.74053 0
M  V30 2929 O 277.695 1.36267 -2.34826 0
M  V30 2930 C 276.151 -0.97106 -3.46552 0
M  V30 2931 C 275.759 -2.4559 -3.74686 0
M  V30 2932 C 277.503 -0.681333 -4.18997 0
M  V30 2933 C 275.41 -2.79475 -5.21198 0
M  V30 2934 H 274.34 -0.209966 -0.724176 0
M  V30 2935 H 276.991 -1.13403 -1.44263 0
M  V30 2936 H 275.373 -0.336983 -3.94564 0
M  V30 2937 H 276.547 -3.13829 -3.37414 0
M  V30 2938 H 274.862 -2.71802 -3.15456 0
M  V30 2939 H 277.459 -0.910939 -5.26883 0
M  V30 2940 H 277.802 0.381628 -4.14547 0
M  V30 2941 H 278.335 -1.27473 -3.76823 0
M  V30 2942 H 275.074 -3.847 -5.30741 0
M  V30 2943 H 274.594 -2.1589 -5.596 0
M  V30 2944 H 276.273 -2.67478 -5.89122 0
M  V30 2945 N 276.405 1.4127 -0.698611 0
M  V30 2946 C 277.635 2.05205 -0.239644 0
M  V30 2947 C 278.043 1.52684 1.11733 0
M  V30 2948 O 277.386 0.671222 1.70998 0
M  V30 2949 C 277.448 3.59289 -0.123126 0
M  V30 2950 C 277.112 4.34619 -1.41263 0
M  V30 2951 C 278.109 4.63701 -2.35111 0
M  V30 2952 C 275.794 4.73837 -1.66684 0
M  V30 2953 C 277.788 5.30966 -3.52639 0
M  V30 2954 C 275.475 5.40837 -2.84498 0
M  V30 2955 C 276.473 5.69329 -3.77298 0
M  V30 2956 O 276.161 6.34949 -4.93047 0
M  V30 2957 H 275.893 0.66723 -0.108537 0
M  V30 2958 H 278.447 1.81974 -0.952602 0
M  V30 2959 H 276.677 3.81272 0.645628 0
M  V30 2960 H 278.366 4.04797 0.299056 0
M  V30 2961 H 279.132 4.33882 -2.16729 0
M  V30 2962 H 275.011 4.51039 -0.953135 0
M  V30 2963 H 278.555 5.53121 -4.25091 0
M  V30 2964 H 274.452 5.70075 -3.02795 0
M  V30 2965 H 275.22 6.53445 -4.92902 0
M  V30 2966 N 277.883 0.443576 1.51229 0
M  V30 2967 C 279.111 -0.11929 2.06556 0
M  V30 2968 C 279.526 -1.35921 1.31038 0
M  V30 2969 O 278.883 -1.78675 0.371704 0
M  V30 2970 C 278.934 -0.435228 3.5887 0
M  V30 2971 O 278.655 0.755486 4.31537 0
M  V30 2972 C 280.156 -1.04808 4.30732 0
M  V30 2973 H 277.376 -0.0051584 0.67098 0
M  V30 2974 H 279.92 0.624453 1.94733 0
M  V30 2975 H 278.075 -1.12887 3.70588 0
M  V30 2976 H 278.489 0.483491 5.22267 0
M  V30 2977 H 279.963 -1.2191 5.3837 0
M  V30 2978 H 280.44 -2.03081 3.89429 0
M  V30 2979 H 281.046 -0.393637 4.23474 0
M  V30 2980 N 279.361 -1.56624 0.175154 0
M  V30 2981 C 280.589 -2.01374 -0.474971 0
M  V30 2982 C 281.004 -1.05537 -1.56548 0
M  V30 2983 O 280.361 -0.0568668 -1.82411 0
M  V30 2984 C 280.412 -3.45923 -1.04975 0
M  V30 2985 O 280.133 -4.381 -0.00276605 0
M  V30 2986 C 281.634 -4.06093 -1.77773 0
M  V30 2987 H 278.854 -0.659962 -0.121206 0
M  V30 2988 H 281.398 -2.02601 0.27801 0
M  V30 2989 H 279.553 -3.45458 -1.75321 0
M  V30 2990 H 279.967 -5.22753 -0.427681 0
M  V30 2991 H 281.441 -5.09147 -2.13245 0
M  V30 2992 H 281.918 -3.48405 -2.67414 0
M  V30 2993 H 282.524 -4.10272 -1.12059 0
M  V30 2994 N 280.839 0.0985539 -1.57292 0
M  V30 2995 C 282.064 0.820196 -1.90493 0
M  V30 2996 C 282.489 1.71658 -0.769094 0
M  V30 2997 O 281.847 1.79133 0.279495 0
M  V30 2998 C 281.895 1.61242 -3.22542 0
M  V30 2999 O 280.999 2.72108 -3.09888 0
M  V30 3000 H 280.34 0.225547 -0.62452 0
M  V30 3001 H 282.87 0.0748159 -2.04463 0
M  V30 3002 H 282.88 1.99737 -3.55766 0
M  V30 3003 H 281.555 0.954535 -4.04798 0
M  V30 3004 H 280.132 2.36667 -2.88172 0
M  V30 3005 N 282.317 1.53212 0.369288 0
M  V30 3006 C 283.542 1.73423 1.1375 0
M  V30 3007 C 283.967 0.460404 1.82378 0
M  V30 3008 O 283.325 -0.585298 1.71592 0
M  V30 3009 C 283.373 2.89769 2.1463 0
M  V30 3010 O 282.477 2.58119 3.21634 0
M  V30 3011 H 281.818 0.576061 0.330227 0
M  V30 3012 H 284.348 2.00083 0.427547 0
M  V30 3013 H 284.358 3.15829 2.58294 0
M  V30 3014 H 283.033 3.8217 1.64071 0
M  V30 3015 H 281.61 2.42864 2.82969 0
M  V30 3016 N 283.795 -0.628877 1.44509 0
M  V30 3017 C 285.206 -1.21054 1.42137 0
M  V30 3018 C 285.557 -1.95715 0.137881 0
M  V30 3019 O 284.682 -2.02554 -0.761645 0
M  V30 3020 C 285.277 -2.20189 2.57493 0
M  V30 3021 C 283.836 -2.73777 2.58308 0
M  V30 3022 C 282.983 -1.48813 2.33987 0
M  V30 3023 H 285.934 -0.41942 1.53057 0
M  V30 3024 H 285.955 -3.02833 2.30375 0
M  V30 3025 H 285.467 -1.6582 3.50892 0
M  V30 3026 H 283.568 -3.32142 1.68856 0
M  V30 3027 H 283.681 -3.19662 3.56865 0
M  V30 3028 H 282.045 -1.77024 1.83124 0
M  V30 3029 H 282.828 -0.963442 3.29504 0
M  V30 3030 N 285.273 -1.31445 -0.869486 0
M  V30 3031 C 286.183 -1.21097 -2.0093 0
M  V30 3032 C 287.199 -0.127584 -1.73532 0
M  V30 3033 O 288.375 -0.345477 -1.98415 0
M  V30 3034 C 285.44 -0.919378 -3.34288 0
M  V30 3035 C 284.501 -2.08971 -3.75006 0
M  V30 3036 C 283.734 -1.81194 -5.02001 0
M  V30 3037 O 283.957 -0.747296 -5.65484 0
M  V30 3038 O 282.891 -2.66883 -5.39497 0
M  V30 3039 H 286.717 -2.16883 -2.12592 0
M  V30 3040 H 284.302 -1.11189 -0.997868 0
M  V30 3041 H 286.184 -0.772625 -4.14257 0
M  V30 3042 H 284.859 0.00844772 -3.23699 0
M  V30 3043 H 283.766 -2.29187 -2.95676 0
M  V30 3044 H 285.099 -2.9998 -3.90221 0
M  V30 3045 N 286.751 1.08385 -1.14413 0
M  V30 3046 C 287.714 2.13486 -0.834048 0
M  V30 3047 C 288.714 1.59988 0.161418 0
M  V30 3048 O 289.904 1.74071 -0.0669575 0
M  V30 3049 C 287.036 3.4003 -0.243354 0
M  V30 3050 H 288.229 2.42425 -1.7655 0
M  V30 3051 H 285.782 1.24101 -0.950189 0
M  V30 3052 H 286.517 3.16726 0.696807 0
M  V30 3053 H 286.302 3.80157 -0.960367 0
M  V30 3054 H 287.792 4.17577 -0.0436242 0
M  V30 3055 N 288.23 0.939286 1.26551 0
M  V30 3056 C 289.47 0.5933 1.956 0
M  V30 3057 C 289.834 -0.851515 1.72085 0
M  V30 3058 O 291.035 -1.30634 2.34921 0
M  V30 3059 C 289.306 0.923996 3.45249 0
M  V30 3060 S 290.865 0.688269 4.33369 0
M  V30 3061 H 287.683 0.218591 0.676564 0
M  V30 3062 H 290.285 1.2102 1.5354 0
M  V30 3063 H 288.989 1.97297 3.59864 0
M  V30 3064 H 288.52 0.296746 3.92279 0
M  V30 3065 H 290.535 -0.448434 4.9417 0
M  V30 3066 N 289.708 -1.40897 0.706093 0
M  V30 3067 C 290.64 -2.29199 0.00815776 0
M  V30 3068 C 291.653 -1.45336 -0.733582 0
M  V30 3069 O 292.842 -1.68727 -0.582537 0
M  V30 3070 C 289.942 -3.23417 -1.01265 0
M  V30 3071 C 289.115 -4.36089 -0.338387 0
M  V30 3072 C 288.174 -5.10811 -1.26326 0
M  V30 3073 O 287.2 -5.64215 -0.751651 0
M  V30 3074 N 288.402 -5.19269 -2.595 0
M  V30 3075 H 291.167 -2.89738 0.766297 0
M  V30 3076 H 288.728 -1.52164 0.55296 0
M  V30 3077 H 290.72 -3.70276 -1.63334 0
M  V30 3078 H 289.29 -2.64112 -1.67223 0
M  V30 3079 H 288.51 -3.91479 0.462352 0
M  V30 3080 H 289.798 -5.08634 0.130031 0
M  V30 3081 H 289.196 -4.77347 -3.03573 0
M  V30 3082 H 287.753 -5.69667 -3.16737 0
M  V30 3083 N 291.186 -0.45159 -1.50991 0
M  V30 3084 C 292.416 0.108177 -2.06317 0
M  V30 3085 C 292.824 1.35774 -1.31765 0
M  V30 3086 O 292.167 1.79838 -0.374694 0
M  V30 3087 C 292.229 0.481659 -3.56259 0
M  V30 3088 C 291.893 -0.663114 -4.52163 0
M  V30 3089 C 292.89 -1.53947 -4.96585 0
M  V30 3090 C 290.575 -0.8479 -4.95092 0
M  V30 3091 C 292.569 -2.58518 -5.82621 0
M  V30 3092 C 290.256 -1.89686 -5.80915 0
M  V30 3093 C 291.254 -2.76388 -6.24579 0
M  V30 3094 O 290.942 -3.79482 -7.08695 0
M  V30 3095 H 290.674 0.00499183 -0.675982 0
M  V30 3096 H 293.228 -0.633659 -1.95381 0
M  V30 3097 H 291.458 1.27641 -3.65027 0
M  V30 3098 H 293.147 0.974233 -3.94035 0
M  V30 3099 H 293.913 -1.4083 -4.64103 0
M  V30 3100 H 289.792 -0.18258 -4.60638 0
M  V30 3101 H 293.336 -3.26224 -6.16623 0
M  V30 3102 H 289.233 -2.02817 -6.12809 0
M  V30 3103 H 290.001 -3.76234 -7.26905 0
M  V30 3104 N 292.664 1.56529 -0.183458 0
M  V30 3105 C 293.913 1.96419 0.458511 0
M  V30 3106 C 294.226 1.0727 1.63562 0
M  V30 3107 O 295.432 1.36893 2.34462 0
M  V30 3108 C 293.888 3.49298 0.867122 0
M  V30 3109 C 293.496 4.47092 -0.285057 0
M  V30 3110 C 295.24 3.97983 1.47683 0
M  V30 3111 C 293.147 5.91225 0.143862 0
M  V30 3112 H 292.077 0.733394 0.175071 0
M  V30 3113 H 294.728 1.81448 -0.273624 0
M  V30 3114 H 293.11 3.59731 1.65559 0
M  V30 3115 H 294.284 4.48383 -1.0625 0
M  V30 3116 H 292.599 4.08535 -0.805503 0
M  V30 3117 H 295.196 5.03134 1.80999 0
M  V30 3118 H 295.539 3.41618 2.37914 0
M  V30 3119 H 296.072 3.90617 0.752562 0
M  V30 3120 H 292.811 6.5149 -0.723974 0
M  V30 3121 H 292.331 5.93214 0.886413 0
M  V30 3122 H 294.01 6.44362 0.583628 0
M  V30 3123 N 294.142 -0.090211 1.57342 0
M  V30 3124 C 295.105 -1.09335 2.01441 0
M  V30 3125 C 296.105 -1.32666 0.908641 0
M  V30 3126 O 297.295 -1.28697 1.174 0
M  V30 3127 C 294.427 -2.44136 2.3793 0
M  V30 3128 H 295.62 -0.713662 2.91285 0
M  V30 3129 H 293.173 -0.335404 1.52659 0
M  V30 3130 H 293.908 -2.86972 1.51055 0
M  V30 3131 H 293.693 -2.28548 3.18603 0
M  V30 3132 H 295.183 -3.16277 2.72688 0
M  V30 3133 N 295.62 -1.53406 -0.361157 0
M  V30 3134 C 296.85 -1.73465 -1.1222 0
M  V30 3135 C 297.258 -0.465486 -1.83384 0
M  V30 3136 O 296.601 0.571611 -1.7458 0
M  V30 3137 C 296.663 -2.84834 -2.19339 0
M  V30 3138 C 296.327 -4.25038 -1.67903 0
M  V30 3139 C 297.324 -5.07231 -1.14074 0
M  V30 3140 C 295.009 -4.71464 -1.73282 0
M  V30 3141 C 297.003 -6.33942 -0.663068 0
M  V30 3142 C 294.69 -5.98153 -1.25127 0
M  V30 3143 C 295.688 -6.79223 -0.717296 0
M  V30 3144 O 295.376 -8.03533 -0.242865 0
M  V30 3145 H 295.108 -0.583526 -0.341283 0
M  V30 3146 H 297.662 -2.00964 -0.424591 0
M  V30 3147 H 295.892 -2.5282 -2.92607 0
M  V30 3148 H 297.581 -2.9303 -2.80871 0
M  V30 3149 H 298.347 -4.72534 -1.09254 0
M  V30 3150 H 294.226 -4.08432 -2.13786 0
M  V30 3151 H 297.77 -6.97167 -0.245612 0
M  V30 3152 H 293.667 -6.32347 -1.29642 0
M  V30 3153 H 294.435 -8.177 -0.361786 0
M  V30 3154 N 297.098 0.621204 -1.44841 0
M  V30 3155 C 298.375 1.38 -1.38619 0
M  V30 3156 C 298.755 2.11041 -0.0498935 0
M  V30 3157 O 298.103 2.06992 0.967816 0
M  V30 3158 C 298.313 2.33817 -2.59096 0
M  V30 3159 C 299.661 2.96844 -3.03593 0
M  V30 3160 O 300.685 2.44141 -2.59371 0
M  V30 3161 O 299.544 3.92476 -3.80296 0
M  V30 3162 H 296.638 0.61811 -0.549426 0
M  V30 3163 H 299.184 0.645429 -1.56947 0
M  V30 3164 H 297.956 1.79012 -3.47952 0
M  V30 3165 H 297.579 3.14676 -2.43032 0
M  V30 3166 N 298.576 1.31904 0.862503 0
M  V30 3167 C 299.816 1.23324 1.63004 0
M  V30 3168 C 300.18 -0.203724 1.90916 0
M  V30 3169 O 301.381 -0.413132 2.65606 0
M  V30 3170 C 299.652 2.06116 2.91978 0
M  V30 3171 S 301.211 2.14478 3.82812 0
M  V30 3172 H 298.029 0.439117 0.559193 0
M  V30 3173 H 300.631 1.66658 1.02202 0
M  V30 3174 H 299.335 3.09593 2.69407 0
M  V30 3175 H 298.866 1.6353 3.57801 0
M  V30 3176 H 300.881 1.28855 4.79177 0
M  V30 3177 N 300.054 -1.07777 1.14986 0
M  V30 3178 C 301.294 -1.81888 0.932527 0
M  V30 3179 C 301.658 -1.84509 -0.531064 0
M  V30 3180 O 302.859 -2.54448 -0.866577 0
M  V30 3181 C 301.13 -3.23244 1.52473 0
M  V30 3182 S 302.689 -4.14154 1.44989 0
M  V30 3183 H 299.507 -0.626752 0.335712 0
M  V30 3184 H 302.109 -1.29503 1.46455 0
M  V30 3185 H 300.813 -3.18922 2.58296 0
M  V30 3186 H 300.344 -3.80704 0.991381 0
M  V30 3187 H 302.359 -4.94247 0.439799 0
M  V30 3188 N 301.532 -0.945985 -1.26051 0
M  V30 3189 C 302.495 -0.463897 -2.24456 0
M  V30 3190 C 303.495 0.427655 -1.55009 0
M  V30 3191 O 304.685 0.226157 -1.72726 0
M  V30 3192 C 301.817 0.330812 -3.39291 0
M  V30 3193 H 303.01 -1.33357 -2.68619 0
M  V30 3194 H 300.563 -0.728416 -1.38289 0
M  V30 3195 H 301.298 1.21852 -3.00537 0
M  V30 3196 H 301.083 -0.308679 -3.90883 0
M  V30 3197 H 302.573 0.657865 -4.12386 0
M  V30 3198 N 303.011 1.40521 -0.713556 0
M  V30 3199 C 303.959 2.32549 -0.0485227 0
M  V30 3200 C 304.953 1.51931 0.74922 0
M  V30 3201 O 306.159 1.67745 0.652816 0
M  V30 3202 H 302.534 0.751994 0.00311138 0
M  V30 3203 H 304.505 2.86291 -0.841443 0
M  V30 3204 C 303.254 3.36879 0.860687 0
M  V30 3205 H 302.577 3.98978 0.256246 0
M  V30 3206 H 304.017 4.03772 1.294 0
M  V30 3207 C 302.476 2.72197 1.9852 0
M  V30 3208 O 303.006 2.5837 3.07584 0
M  V30 3209 N 301.212 2.30612 1.76823 0
M  V30 3210 H 300.759 2.42059 0.881217 0
M  V30 3211 H 300.717 1.87672 2.52243 0
M  V30 3212 N 304.489 0.459591 1.5075 0
M  V30 3213 C 305.735 -0.0994966 2.02556 0
M  V30 3214 C 306.068 -1.40399 1.3417 0
M  V30 3215 O 305.343 -1.88892 0.463683 0
M  V30 3216 C 305.626 -0.295242 3.58888 0
M  V30 3217 C 305.479 1.02947 4.37861 0
M  V30 3218 C 306.798 -1.05502 4.27267 0
M  V30 3219 H 303.917 -0.034686 0.736183 0
M  V30 3220 H 306.559 0.602938 1.8018 0
M  V30 3221 H 304.709 -0.893563 3.78084 0
M  V30 3222 H 306.381 1.66348 4.30263 0
M  V30 3223 H 304.624 1.62885 4.02058 0
M  V30 3224 H 305.295 0.846281 5.45474 0
M  V30 3225 H 307.771 -0.547993 4.12476 0
M  V30 3226 H 306.647 -1.16077 5.36486 0
M  V30 3227 H 306.908 -2.08875 3.89645 0
M  V30 3228 N 305.967 -1.56429 0.191757 0
M  V30 3229 C 307.216 -1.9666 -0.448088 0
M  V30 3230 C 307.529 -1.08136 -1.62991 0
M  V30 3231 O 308.735 -1.38135 -2.33733 0
M  V30 3232 C 307.191 -3.49753 -0.848585 0
M  V30 3233 C 306.799 -4.46935 0.308764 0
M  V30 3234 C 308.543 -3.9876 -1.4557 0
M  V30 3235 C 306.45 -5.91293 -0.112506 0
M  V30 3236 H 305.38 -0.734312 -0.171179 0
M  V30 3237 H 308.031 -1.81301 0.283242 0
M  V30 3238 H 306.413 -3.60604 -1.63649 0
M  V30 3239 H 307.587 -4.47813 1.08627 0
M  V30 3240 H 305.902 -4.08102 0.827158 0
M  V30 3241 H 308.499 -5.04086 -1.78328 0
M  V30 3242 H 308.842 -3.42875 -2.36099 0
M  V30 3243 H 309.375 -3.9101 -0.731836 0
M  V30 3244 H 306.114 -6.51097 0.758514 0
M  V30 3245 H 305.634 -5.93676 -0.854941 0
M  V30 3246 H 307.313 -6.44663 -0.549448 0
M  V30 3247 N 307.445 0.0818655 -1.57387 0
M  V30 3248 C 308.378 1.12986 -1.98266 0
M  V30 3249 C 309.356 1.38123 -0.857954 0
M  V30 3250 O 310.54 1.51663 -1.1194 0
M  V30 3251 C 307.667 2.47632 -2.31076 0
M  V30 3252 C 306.713 2.38693 -3.53452 0
M  V30 3253 S 307.546 1.79071 -5.04672 0
M  V30 3254 C 308.702 3.15316 -5.40673 0
M  V30 3255 H 308.935 0.781435 -2.86846 0
M  V30 3256 H 306.468 0.290034 -1.51651 0
M  V30 3257 H 308.426 3.25089 -2.50654 0
M  V30 3258 H 307.087 2.79638 -1.43043 0
M  V30 3259 H 306.28 3.37964 -3.73893 0
M  V30 3260 H 305.882 1.69369 -3.33452 0
M  V30 3261 H 308.174 4.11613 -5.38127 0
M  V30 3262 H 309.117 2.99664 -6.41566 0
M  V30 3263 H 309.525 3.15457 -4.68132 0
M  V30 3264 N 308.923 1.53595 0.353017 0
M  V30 3265 C 310.169 1.70638 1.09593 0
M  V30 3266 C 310.502 0.463286 1.88593 0
M  V30 3267 O 309.777 -0.539597 1.86865 0
M  V30 3268 C 310.06 2.96406 2.04489 0
M  V30 3269 C 309.913 4.30901 1.29014 0
M  V30 3270 C 311.232 3.17812 3.0444 0
M  V30 3271 H 308.351 0.620913 0.397034 0
M  V30 3272 H 310.993 1.86254 0.375446 0
M  V30 3273 H 309.143 2.83223 2.65927 0
M  V30 3274 H 310.815 4.55917 0.702638 0
M  V30 3275 H 309.058 4.29741 0.592071 0
M  V30 3276 H 309.729 5.1506 1.98537 0
M  V30 3277 H 312.205 3.30263 2.53112 0
M  V30 3278 H 311.081 4.07223 3.6805 0
M  V30 3279 H 311.342 2.33669 3.75301 0
M  V30 3280 N 310.401 -0.613514 1.45168 0
M  V30 3281 C 311.678 -1.37263 1.39349 0
M  V30 3282 C 312.058 -2.11012 0.0610848 0
M  V30 3283 O 311.406 -2.07502 -0.956825 0
M  V30 3284 C 311.616 -2.3244 2.60332 0
M  V30 3285 C 312.964 -2.9523 3.05163 0
M  V30 3286 O 313.988 -2.42762 2.60663 0
M  V30 3287 O 312.847 -3.90454 3.82372 0
M  V30 3288 H 309.941 -0.615188 0.552696 0
M  V30 3289 H 312.487 -0.637097 1.57287 0
M  V30 3290 H 311.259 -1.77164 3.48896 0
M  V30 3291 H 310.882 -3.13383 2.44698 0
M  V30 3292 N 311.879 -1.3236 -0.855495 0
M  V30 3293 C 313.107 -1.2587 -1.64208 0
M  V30 3294 C 313.522 0.173457 -1.88002 0
M  V30 3295 O 312.879 1.11027 -1.44842 0
M  V30 3296 C 312.93 -2.01424 -3.00184 0
M  V30 3297 O 312.651 -3.39051 -2.77445 0
M  V30 3298 C 314.152 -2.01948 -3.94629 0
M  V30 3299 H 311.372 -0.434318 -0.511477 0
M  V30 3300 H 313.916 -1.74469 -1.0668 0
M  V30 3301 H 312.071 -1.56549 -3.5436 0
M  V30 3302 H 312.485 -3.77711 -3.63916 0
M  V30 3303 H 313.959 -2.59297 -4.87308 0
M  V30 3304 H 314.436 -1.00554 -4.27534 0
M  V30 3305 H 315.042 -2.46767 -3.4639 0
M  V30 3306 N 313.357 1.07166 -1.15556 0
M  V30 3307 C 314.289 2.14341 -0.811815 0
M  V30 3308 C 315.302 1.61835 0.177015 0
M  V30 3309 O 316.491 1.78439 -0.0464996 0
M  V30 3310 C 313.591 3.38387 -0.186481 0
M  V30 3311 C 312.764 4.20238 -1.21321 0
M  V30 3312 C 311.823 5.2266 -0.609302 0
M  V30 3313 O 310.849 5.54719 -1.27576 0
M  V30 3314 N 312.051 5.77306 0.608099 0
M  V30 3315 H 314.816 2.44431 -1.73417 0
M  V30 3316 H 312.377 1.23089 -1.0517 0
M  V30 3317 H 314.369 4.04044 0.230339 0
M  V30 3318 H 312.939 3.05994 0.639249 0
M  V30 3319 H 312.159 3.50369 -1.80652 0
M  V30 3320 H 313.447 4.71736 -1.90638 0
M  V30 3321 H 312.845 5.53513 1.1679 0
M  V30 3322 H 311.402 6.44583 0.96725 0
M  V30 3323 N 314.835 0.952656 1.25548 0
M  V30 3324 C 315.782 0.47008 2.25962 0
M  V30 3325 C 316.752 -0.476384 1.59122 0
M  V30 3326 O 317.937 -0.39007 1.8677 0
M  V30 3327 C 315.077 -0.247881 3.44209 0
M  V30 3328 C 314.19 0.735591 4.25691 0
M  V30 3329 C 313.325 -0.0047306 5.312 0
M  V30 3330 C 312.364 0.969805 6.04368 0
M  V30 3331 N 311.501 0.260486 7.01617 0
M  V30 3332 H 316.341 1.33126 2.66611 0
M  V30 3333 H 313.878 0.66765 1.31076 0
M  V30 3334 H 315.836 -0.680695 4.1161 0
M  V30 3335 H 314.466 -1.07312 3.0444 0
M  V30 3336 H 313.518 1.28689 3.57971 0
M  V30 3337 H 314.83 1.47934 4.76358 0
M  V30 3338 H 313.984 -0.496275 6.04667 0
M  V30 3339 H 312.723 -0.781282 4.81401 0
M  V30 3340 H 311.728 1.47237 5.29718 0
M  V30 3341 H 312.953 1.74655 6.56256 0
M  V30 3342 H 310.899 -0.497364 6.54112 0
M  V30 3343 H 310.816 0.943362 7.50091 0
M  V30 3344 H 312.084 -0.209587 7.79218 0
M  V30 3345 N 316.313 -1.40141 0.720998 0
M  V30 3346 C 317.245 -2.29177 0.0324669 0
M  V30 3347 C 318.258 -1.46105 -0.718126 0
M  V30 3348 O 319.447 -1.69335 -0.564608 0
M  V30 3349 C 316.547 -3.24473 -0.978292 0
M  V30 3350 C 315.72 -4.36423 -0.292115 0
M  V30 3351 C 314.779 -5.12122 -1.20901 0
M  V30 3352 O 313.805 -5.64981 -0.691766 0
M  V30 3353 N 315.007 -5.21992 -2.53978 0
M  V30 3354 H 317.772 -2.88909 0.796984 0
M  V30 3355 H 315.333 -1.51569 0.569068 0
M  V30 3356 H 317.325 -3.71987 -1.59398 0
M  V30 3357 H 315.895 -2.65871 -1.64413 0
M  V30 3358 H 315.115 -3.90967 0.503847 0
M  V30 3359 H 316.403 -5.08467 0.183971 0
M  V30 3360 H 315.801 -4.8054 -2.98493 0
M  V30 3361 H 314.358 -5.72995 -3.10677 0
M  V30 3362 N 317.792 -0.46758 -1.50504 0
M  V30 3363 C 318.722 0.318381 -2.31319 0
M  V30 3364 C 319.703 0.993564 -1.38066 0
M  V30 3365 O 320.888 0.991411 -1.66987 0
M  V30 3366 C 318.018 1.40275 -3.17711 0
M  V30 3367 C 316.972 0.849373 -4.19487 0
M  V30 3368 C 316.298 2.03177 -4.94594 0
M  V30 3369 C 317.598 -0.136942 -5.2212 0
M  V30 3370 H 319.292 -0.356106 -2.97275 0
M  V30 3371 H 316.838 -0.172703 -1.42961 0
M  V30 3372 H 318.791 1.96004 -3.73042 0
M  V30 3373 H 317.515 2.10596 -2.49634 0
M  V30 3374 H 316.174 0.314076 -3.65252 0
M  V30 3375 H 315.822 2.72187 -4.22993 0
M  V30 3376 H 315.522 1.66774 -5.63436 0
M  V30 3377 H 317.046 2.59403 -5.52759 0
M  V30 3378 H 318.46 0.331056 -5.72343 0
M  V30 3379 H 316.857 -0.41507 -5.98663 0
M  V30 3380 H 317.927 -1.06398 -4.73083 0
M  V30 3381 N 319.27 1.56325 -0.20005 0
M  V30 3382 C 320.18 2.22931 0.730668 0
M  V30 3383 C 321.196 1.22997 1.23076 0
M  V30 3384 O 322.372 1.55748 1.27689 0
M  V30 3385 C 319.437 2.87948 1.93098 0
M  V30 3386 C 318.498 4.03166 1.47497 0
M  V30 3387 C 317.731 4.65073 2.61807 0
M  V30 3388 O 317.954 4.25913 3.79413 0
M  V30 3389 O 316.888 5.54452 2.34237 0
M  V30 3390 H 320.714 3.03084 0.193391 0
M  V30 3391 H 318.299 1.49371 0.0294621 0
M  V30 3392 H 320.181 3.29063 2.6324 0
M  V30 3393 H 318.856 2.10771 2.45677 0
M  V30 3394 H 317.763 3.66664 0.742201 0
M  V30 3395 H 319.096 4.82022 0.995796 0
M  V30 3396 N 320.748 -0.0735177 1.57428 0
M  V30 3397 C 321.695 -1.08756 2.0357 0
M  V30 3398 C 322.665 -1.38559 0.916 0
M  V30 3399 O 323.85 -1.49656 1.18354 0
M  V30 3400 C 320.99 -2.39657 2.48311 0
M  V30 3401 C 320.103 -2.16399 3.73892 0
M  V30 3402 C 319.238 -3.40852 4.07423 0
M  V30 3403 C 318.277 -3.1295 5.2605 0
M  V30 3404 N 317.414 -4.29729 5.55228 0
M  V30 3405 H 322.254 -0.687104 2.8997 0
M  V30 3406 H 319.791 -0.327709 1.43403 0
M  V30 3407 H 321.749 -3.16081 2.72303 0
M  V30 3408 H 320.379 -2.77508 1.64891 0
M  V30 3409 H 319.431 -1.30676 3.57251 0
M  V30 3410 H 320.743 -1.91788 4.60455 0
M  V30 3411 H 319.897 -4.25671 4.32306 0
M  V30 3412 H 318.636 -3.68537 3.19425 0
M  V30 3413 H 317.641 -2.26526 5.00965 0
M  V30 3414 H 318.866 -2.86589 6.15665 0
M  V30 3415 H 316.812 -4.57448 4.70188 0
M  V30 3416 H 316.729 -4.08385 6.36206 0
M  V30 3417 H 317.997 -5.1555 5.84661 0
M  V30 3418 N 322.226 -1.5378 -0.344866 0
M  V30 3419 C 323.475 -1.7018 -1.08267 0
M  V30 3420 C 323.788 -0.471 -1.89845 0
M  V30 3421 O 324.994 -0.515917 -2.66553 0
M  V30 3422 C 323.45 -3.00923 -1.97417 0
M  V30 3423 C 323.058 -4.31335 -1.21053 0
M  V30 3424 C 324.802 -3.26688 -2.71063 0
M  V30 3425 C 322.709 -5.53153 -2.09225 0
M  V30 3426 H 321.639 -0.634138 -0.407903 0
M  V30 3427 H 324.29 -1.8028 -0.342246 0
M  V30 3428 H 322.672 -2.84676 -2.75274 0
M  V30 3429 H 323.846 -4.58281 -0.481159 0
M  V30 3430 H 322.161 -4.12173 -0.591813 0
M  V30 3431 H 324.758 -4.1489 -3.37299 0
M  V30 3432 H 325.101 -2.43639 -3.37558 0
M  V30 3433 H 325.634 -3.43705 -2.0028 0
M  V30 3434 H 322.373 -6.38741 -1.47274 0
M  V30 3435 H 321.893 -5.30458 -2.79955 0
M  V30 3436 H 323.572 -5.88744 -2.68308 0
M  V30 3437 N 323.704 0.605807 -1.45491 0
M  V30 3438 C 324.634 1.72709 -1.57143 0
M  V30 3439 C 325.615 1.6476 -0.422884 0
M  V30 3440 O 326.8 1.83132 -0.646247 0
M  V30 3441 C 323.93 3.11316 -1.53948 0
M  V30 3442 C 322.884 3.34077 -2.67537 0
M  V30 3443 C 322.21 4.72975 -2.49397 0
M  V30 3444 C 323.51 3.24158 -4.09535 0
M  V30 3445 H 325.204 1.63214 -2.51001 0
M  V30 3446 H 322.75 0.78379 -1.208 0
M  V30 3447 H 324.703 3.89557 -1.60696 0
M  V30 3448 H 323.427 3.21655 -0.566205 0
M  V30 3449 H 322.086 2.58227 -2.6022 0
M  V30 3450 H 321.734 4.8005 -1.50205 0
M  V30 3451 H 321.434 4.8916 -3.25571 0
M  V30 3452 H 322.958 5.53414 -2.58002 0
M  V30 3453 H 324.372 3.92271 -4.18086 0
M  V30 3454 H 322.769 3.51872 -4.86113 0
M  V30 3455 H 323.839 2.2157 -4.31317 0
M  V30 3456 N 325.182 1.32811 0.848464 0
M  V30 3457 C 326.129 1.22265 1.95755 0
M  V30 3458 C 327.099 0.103413 1.65778 0
M  V30 3459 O 328.284 0.280033 1.88734 0
M  V30 3460 C 325.424 0.958014 3.31536 0
M  V30 3461 C 324.537 2.16262 3.73971 0
M  V30 3462 C 323.672 1.83295 4.98575 0
M  V30 3463 C 322.711 3.00041 5.33518 0
M  V30 3464 N 321.848 2.67125 6.49299 0
M  V30 3465 H 326.688 2.17128 2.04107 0
M  V30 3466 H 324.225 1.07982 0.998913 0
M  V30 3467 H 326.183 0.785052 4.09747 0
M  V30 3468 H 324.813 0.046159 3.22767 0
M  V30 3469 H 323.865 2.44565 2.91362 0
M  V30 3470 H 325.177 3.03572 3.95785 0
M  V30 3471 H 324.331 1.62586 5.84509 0
M  V30 3472 H 323.07 0.932078 4.7871 0
M  V30 3473 H 322.075 3.21374 4.46093 0
M  V30 3474 H 323.3 3.90869 5.55336 0
M  V30 3475 H 321.246 1.79586 6.3094 0
M  V30 3476 H 321.163 3.47965 6.71161 0
M  V30 3477 H 322.431 2.49861 7.3837 0
M  V30 3478 N 326.66 -1.06551 1.16123 0
M  V30 3479 C 327.909 -1.78687 0.935622 0
M  V30 3480 C 328.222 -1.88056 -0.538001 0
M  V30 3481 O 329.428 -2.56794 -0.88143 0
M  V30 3482 C 327.884 -3.21143 1.62466 0
M  V30 3483 C 327.492 -3.19949 3.13587 0
M  V30 3484 C 329.236 -3.9783 1.48092 0
M  V30 3485 C 327.143 -4.57108 3.75241 0
M  V30 3486 H 326.073 -0.669712 0.346412 0
M  V30 3487 H 328.724 -1.19534 1.39226 0
M  V30 3488 H 327.106 -3.80539 1.09572 0
M  V30 3489 H 328.28 -2.70151 3.73303 0
M  V30 3490 H 326.595 -2.5676 3.27816 0
M  V30 3491 H 329.192 -4.99217 1.91538 0
M  V30 3492 H 329.535 -4.14078 0.429507 0
M  V30 3493 H 330.068 -3.4495 1.98127 0
M  V30 3494 H 326.807 -4.46065 4.80319 0
M  V30 3495 H 326.327 -5.07111 3.20309 0
M  V30 3496 H 328.006 -5.26069 3.76644 0
M  V30 3497 N 328.138 -0.959301 -1.25041 0
M  V30 3498 C 329.384 -0.627096 -1.93492 0
M  V30 3499 C 329.739 0.827484 -1.73696 0
M  V30 3500 O 329.032 1.58651 -1.07427 0
M  V30 3501 C 329.226 -0.927136 -3.45165 0
M  V30 3502 C 329.055 -2.40933 -3.79712 0
M  V30 3503 C 327.825 -3.0677 -4.01522 0
M  V30 3504 C 330.023 -3.38894 -3.86853 0
M  V30 3505 N 328.005 -4.44815 -4.231 0
M  V30 3506 C 329.376 -4.62263 -4.13174 0
M  V30 3507 C 331.431 -3.33668 -3.69554 0
M  V30 3508 C 330.134 -5.81052 -4.23995 0
M  V30 3509 C 332.16 -4.518 -3.81616 0
M  V30 3510 C 331.522 -5.73957 -4.08354 0
M  V30 3511 H 327.621 -0.280166 -0.73009 0
M  V30 3512 H 330.205 -1.23244 -1.50729 0
M  V30 3513 H 328.376 -0.350685 -3.86814 0
M  V30 3514 H 330.108 -0.554361 -4.00885 0
M  V30 3515 H 326.863 -2.57327 -3.97593 0
M  V30 3516 H 327.287 -5.16319 -4.37885 0
M  V30 3517 H 331.929 -2.40268 -3.47895 0
M  V30 3518 H 329.647 -6.74888 -4.44468 0
M  V30 3519 H 333.233 -4.49309 -3.69612 0
M  V30 3520 H 332.113 -6.6384 -4.17475 0
M  V30 3521 N 329.616 1.39756 -0.72842 0
M  V30 3522 C 330.563 2.30647 -0.0841519 0
M  V30 3523 C 331.533 1.48869 0.7367 0
M  V30 3524 O 332.718 1.77574 0.698015 0
M  V30 3525 C 329.858 3.35165 0.822091 0
M  V30 3526 C 328.971 4.31999 -0.0106663 0
M  V30 3527 C 328.106 5.23585 0.896241 0
M  V30 3528 C 327.145 6.12072 0.0583381 0
M  V30 3529 N 326.282 6.96035 0.920818 0
M  V30 3530 H 331.122 2.85173 -0.864891 0
M  V30 3531 H 328.659 1.40422 -0.438179 0
M  V30 3532 H 330.617 3.94345 1.36189 0
M  V30 3533 H 329.247 2.8211 1.56888 0
M  V30 3534 H 328.299 3.74492 -0.66781 0
M  V30 3535 H 329.611 4.9443 -0.658825 0
M  V30 3536 H 328.765 5.87759 1.50412 0
M  V30 3537 H 327.504 4.61459 1.57819 0
M  V30 3538 H 326.509 5.46916 -0.562389 0
M  V30 3539 H 327.734 6.76261 -0.6203 0
M  V30 3540 H 325.68 6.36485 1.58818 0
M  V30 3541 H 325.597 7.55284 0.32899 0
M  V30 3542 H 326.865 7.64646 1.51447 0
M  V30 3543 N 331.094 0.475555 1.50254 0
M  V30 3544 C 332.026 -0.352649 2.26471 0
M  V30 3545 C 333.039 -0.953165 1.3198 0
M  V30 3546 O 334.228 -0.840815 1.57457 0
M  V30 3547 C 331.328 -1.50902 3.0345 0
M  V30 3548 C 330.501 -1.02047 4.25329 0
M  V30 3549 C 329.56 -2.05142 4.84565 0
M  V30 3550 O 328.586 -1.63023 5.45355 0
M  V30 3551 N 329.788 -3.37987 4.71959 0
M  V30 3552 H 332.553 0.300767 2.98187 0
M  V30 3553 H 330.114 0.306598 1.5897 0
M  V30 3554 H 332.106 -2.19572 3.39956 0
M  V30 3555 H 330.676 -2.06705 2.34504 0
M  V30 3556 H 329.896 -0.159507 3.93877 0
M  V30 3557 H 331.184 -0.672061 5.04342 0
M  V30 3558 H 330.582 -3.74913 4.23623 0
M  V30 3559 H 329.139 -4.02443 5.12721 0
M  V30 3560 N 332.573 -1.56217 0.208337 0
M  V30 3561 C 333.503 -2.22694 -0.702116 0
M  V30 3562 C 334.484 -1.19432 -1.2112 0
M  V30 3563 O 335.669 -1.47978 -1.25762 0
M  V30 3564 C 332.799 -2.8966 -1.9161 0
M  V30 3565 C 331.753 -3.9928 -1.5414 0
M  V30 3566 C 331.079 -4.53476 -2.83308 0
M  V30 3567 C 332.379 -5.17012 -0.741339 0
M  V30 3568 H 334.073 -2.99034 -0.147898 0
M  V30 3569 H 331.619 -1.43831 -0.0696951 0
M  V30 3570 H 333.572 -3.34852 -2.55836 0
M  V30 3571 H 332.296 -2.10746 -2.49507 0
M  V30 3572 H 330.955 -3.54799 -0.922668 0
M  V30 3573 H 330.603 -3.71308 -3.39322 0
M  V30 3574 H 330.303 -5.27451 -2.58976 0
M  V30 3575 H 331.827 -5.01378 -3.485 0
M  V30 3576 H 333.241 -5.58667 -1.28699 0
M  V30 3577 H 331.638 -5.97137 -0.595627 0
M  V30 3578 H 332.708 -4.8423 0.254851 0
M  V30 3579 N 334.051 0.0651679 -1.57465 0
M  V30 3580 C 335.462 0.616213 -1.76238 0
M  V30 3581 C 335.813 1.7756 -0.834689 0
M  V30 3582 O 334.938 2.1639 -0.0204156 0
M  V30 3583 C 335.533 1.12462 -3.1959 0
M  V30 3584 C 334.092 1.62147 -3.39684 0
M  V30 3585 C 333.239 0.543739 -2.71917 0
M  V30 3586 H 336.19 -0.161022 -1.57881 0
M  V30 3587 H 336.211 1.99324 -3.24114 0
M  V30 3588 H 335.723 0.280592 -3.87084 0
M  V30 3589 H 333.824 2.48854 -2.77313 0
M  V30 3590 H 333.937 1.69385 -4.48158 0
M  V30 3591 H 332.301 0.990352 -2.34657 0
M  V30 3592 H 333.084 -0.290216 -3.42071 0
M  V30 3593 N 335.529 1.53961 0.336706 0
M  V30 3594 C 336.479 1.7881 1.41461 0
M  V30 3595 C 337.463 0.643561 1.47469 0
M  V30 3596 O 338.655 0.903166 1.52223 0
M  V30 3597 C 335.784 2.00722 2.78506 0
M  V30 3598 C 334.87 3.2126 2.76862 0
M  V30 3599 N 335.261 4.42588 2.44845 0
M  V30 3600 C 333.559 3.22568 3.08004 0
M  V30 3601 C 334.26 5.2447 2.51607 0
M  V30 3602 N 333.236 4.61344 2.87511 0
M  V30 3603 H 337.038 2.70205 1.15615 0
M  V30 3604 H 334.552 1.52978 0.545112 0
M  V30 3605 H 336.549 2.1666 3.5618 0
M  V30 3606 H 335.209 1.10573 3.05293 0
M  V30 3607 H 336.22 4.69819 2.17922 0
M  V30 3608 H 332.897 2.42409 3.39918 0
M  V30 3609 H 334.287 6.31324 2.29955 0
M  V30 3610 N 337.007 -0.598083 1.45811 0
M  V30 3611 C 337.937 -1.71873 1.58057 0
M  V30 3612 C 338.918 -1.64533 0.431615 0
M  V30 3613 O 340.103 -1.82787 0.65595 0
M  V30 3614 C 337.233 -3.10495 1.55597 0
M  V30 3615 C 336.187 -3.32654 2.69305 0
M  V30 3616 C 335.513 -4.71646 2.51902 0
M  V30 3617 C 336.813 -3.21981 4.11248 0
M  V30 3618 H 338.507 -1.61881 2.51863 0
M  V30 3619 H 336.053 -0.777372 1.21214 0
M  V30 3620 H 338.006 -3.88699 1.6276 0
M  V30 3621 H 336.73 -3.2135 0.583255 0
M  V30 3622 H 335.389 -2.56843 2.61586 0
M  V30 3623 H 335.037 -4.79246 1.52748 0
M  V30 3624 H 334.737 -4.87426 3.2816 0
M  V30 3625 H 336.261 -5.52038 2.60933 0
M  V30 3626 H 337.675 -3.90049 4.20161 0
M  V30 3627 H 336.072 -3.49289 4.87972 0
M  V30 3628 H 337.142 -2.1928 4.32486 0
M  V30 3629 N 338.485 -1.33259 -0.841409 0
M  V30 3630 C 339.432 -1.23302 -1.95103 0
M  V30 3631 C 340.402 -0.112204 -1.65721 0
M  V30 3632 O 341.587 -0.290038 -1.88583 0
M  V30 3633 C 338.727 -0.975583 -3.31023 0
M  V30 3634 C 337.84 -2.18243 -3.72819 0
M  V30 3635 C 336.975 -1.85936 -4.97595 0
M  V30 3636 C 336.014 -3.02866 -5.3192 0
M  V30 3637 N 335.151 -2.70565 -6.47873 0
M  V30 3638 H 339.991 -2.18207 -2.02952 0
M  V30 3639 H 337.528 -1.0851 -0.993173 0
M  V30 3640 H 339.486 -0.80677 -4.09325 0
M  V30 3641 H 338.116 -0.0632755 -3.22738 0
M  V30 3642 H 337.168 -2.46107 -2.90061 0
M  V30 3643 H 338.48 -3.05666 -3.94169 0
M  V30 3644 H 337.634 -1.65684 -5.83638 0
M  V30 3645 H 336.373 -0.957452 -4.78209 0
M  V30 3646 H 335.378 -3.23736 -4.44382 0
M  V30 3647 H 336.603 -3.93809 -5.53255 0
M  V30 3648 H 334.549 -1.8293 -6.29978 0
M  V30 3649 H 334.466 -3.51519 -6.69306 0
M  V30 3650 H 335.734 -2.53774 -7.37034 0
M  V30 3651 N 339.963 1.05934 -1.16686 0
M  V30 3652 C 340.926 2.11669 -0.879144 0
M  V30 3653 C 341.926 1.60294 0.127445 0
M  V30 3654 O 343.116 1.7389 -0.103865 0
M  V30 3655 C 340.248 3.39438 -0.315425 0
M  V30 3656 H 341.441 2.38626 -1.81653 0
M  V30 3657 H 338.994 1.22058 -0.976299 0
M  V30 3658 H 339.729 3.18132 0.629468 0
M  V30 3659 H 339.514 3.78034 -1.04079 0
M  V30 3660 H 341.004 4.17391 -0.132189 0
M  V30 3661 N 341.441 0.965919 1.2453 0
M  V30 3662 C 342.687 0.62776 1.92839 0
M  V30 3663 C 343.02 -0.834694 1.75347 0
M  V30 3664 O 342.295 -1.60031 1.10546 0
M  V30 3665 C 342.578 1.00109 3.45905 0
M  V30 3666 C 342.431 2.52011 3.72573 0
M  V30 3667 C 343.75 0.53435 4.36844 0
M  V30 3668 H 340.869 0.229537 0.700344 0
M  V30 3669 H 343.511 1.2046 1.46933 0
M  V30 3670 H 341.661 0.510238 3.85135 0
M  V30 3671 H 343.333 3.08559 3.42912 0
M  V30 3672 H 341.576 2.95287 3.17786 0
M  V30 3673 H 342.247 2.73183 4.79661 0
M  V30 3674 H 344.723 0.955565 4.04979 0
M  V30 3675 H 343.599 0.824152 5.42678 0
M  V30 3676 H 343.86 -0.565589 4.38467 0
M  V30 3677 N 342.919 -1.39368 0.735821 0
M  V30 3678 C 344.165 -2.00794 0.284544 0
M  V30 3679 C 344.498 -1.58255 -1.12557 0
M  V30 3680 O 343.773 -0.811819 -1.76748 0
M  V30 3681 C 344.056 -3.58011 0.387337 0
M  V30 3682 C 343.909 -4.10566 1.83728 0
M  V30 3683 C 345.228 -4.395 -0.22975 0
M  V30 3684 H 342.347 -0.729501 0.104866 0
M  V30 3685 H 344.989 -1.65564 0.93213 0
M  V30 3686 H 343.139 -3.88154 -0.164006 0
M  V30 3687 H 344.811 -3.91139 2.44556 0
M  V30 3688 H 343.054 -3.64095 2.35833 0
M  V30 3689 H 343.725 -5.19702 1.86047 0
M  V30 3690 H 346.201 -4.15406 0.240257 0
M  V30 3691 H 345.077 -5.48752 -0.127485 0
M  V30 3692 H 345.338 -4.22062 -1.3159 0
M  V30 3693 N 344.397 -0.483516 -1.5 0
M  V30 3694 C 345.646 0.0689102 -2.01582 0
M  V30 3695 C 345.959 1.39655 -1.36952 0
M  V30 3696 O 347.165 2.03465 -1.79762 0
M  V30 3697 C 345.621 0.173302 -3.59483 0
M  V30 3698 C 345.229 -1.14665 -4.33077 0
M  V30 3699 C 346.973 0.677024 -4.19066 0
M  V30 3700 C 344.88 -1.00537 -5.82792 0
M  V30 3701 H 343.81 0.0295277 -0.753422 0
M  V30 3702 H 346.461 -0.620295 -1.72698 0
M  V30 3703 H 344.843 0.926569 -3.85007 0
M  V30 3704 H 346.017 -1.91184 -4.19268 0
M  V30 3705 H 344.332 -1.58244 -3.85159 0
M  V30 3706 H 346.929 0.799952 -5.28682 0
M  V30 3707 H 347.272 1.67151 -3.81269 0
M  V30 3708 H 347.805 -0.0192083 -3.97795 0
M  V30 3709 H 344.544 -1.9736 -6.25083 0
M  V30 3710 H 344.064 -0.280776 -5.99142 0
M  V30 3711 H 345.743 -0.677 -6.43448 0
M  V30 3712 N 345.875 1.56104 -0.216619 0
M  V30 3713 C 347.105 2.02269 0.420802 0
M  V30 3714 C 347.513 1.09575 1.5424 0
M  V30 3715 O 346.856 0.0967308 1.83445 0
M  V30 3716 C 346.918 3.44784 1.01806 0
M  V30 3717 C 346.582 4.56988 0.0325154 0
M  V30 3718 C 347.579 5.14225 -0.766055 0
M  V30 3719 C 345.264 5.02228 -0.0848092 0
M  V30 3720 C 347.258 6.15169 -1.6687 0
M  V30 3721 C 344.945 6.03011 -0.990994 0
M  V30 3722 C 345.943 6.59357 -1.78149 0
M  V30 3723 O 345.631 7.58179 -2.67245 0
M  V30 3724 H 345.363 0.667353 0.107776 0
M  V30 3725 H 347.917 2.02747 -0.329034 0
M  V30 3726 H 346.147 3.41359 1.81689 0
M  V30 3727 H 347.836 3.74626 1.56237 0
M  V30 3728 H 348.602 4.80126 -0.685836 0
M  V30 3729 H 344.481 4.58054 0.520349 0
M  V30 3730 H 348.025 6.59076 -2.28615 0
M  V30 3731 H 343.922 6.36532 -1.07225 0
M  V30 3732 H 344.69 7.75682 -2.61265 0
M  V30 3733 N 347.353 -0.0568162 1.57498 0
M  V30 3734 C 348.3 -1.06591 2.04712 0
M  V30 3735 C 349.27 -1.3758 0.930644 0
M  V30 3736 O 350.455 -1.48392 1.19935 0
M  V30 3737 C 347.595 -2.3701 2.50839 0
M  V30 3738 C 346.708 -2.12421 3.76167 0
M  V30 3739 C 345.843 -3.36511 4.11015 0
M  V30 3740 C 344.882 -3.07353 5.2934 0
M  V30 3741 N 344.019 -4.23816 5.59754 0
M  V30 3742 H 348.859 -0.65631 2.90683 0
M  V30 3743 H 346.396 -0.312481 1.43743 0
M  V30 3744 H 348.354 -3.13175 2.7564 0
M  V30 3745 H 346.984 -2.75744 1.67825 0
M  V30 3746 H 346.036 -1.2688 3.58616 0
M  V30 3747 H 347.348 -1.86894 4.62463 0
M  V30 3748 H 346.502 -4.21062 4.36797 0
M  V30 3749 H 345.241 -3.65128 3.23315 0
M  V30 3750 H 344.246 -2.212 5.03339 0
M  V30 3751 H 345.471 -2.80043 6.1867 0
M  V30 3752 H 343.417 -4.52436 4.75014 0
M  V30 3753 H 343.334 -4.01614 6.40501 0
M  V30 3754 H 344.602 -5.0932 5.90096 0
M  V30 3755 N 348.832 -1.54138 -0.328536 0
M  V30 3756 C 349.742 -1.86192 -1.42723 0
M  V30 3757 C 350.758 -0.753382 -1.56844 0
M  V30 3758 O 351.934 -1.04718 -1.72035 0
M  V30 3759 C 348.999 -2.07824 -2.77507 0
M  V30 3760 C 348.06 -3.31641 -2.72603 0
M  V30 3761 C 347.293 -3.52232 -4.00959 0
M  V30 3762 O 347.516 -2.7636 -4.9898 0
M  V30 3763 O 346.45 -4.45699 -4.0452 0
M  V30 3764 H 350.276 -2.79608 -1.18547 0
M  V30 3765 H 347.861 -1.3998 -0.522104 0
M  V30 3766 H 349.743 -2.23411 -3.57303 0
M  V30 3767 H 348.418 -1.17596 -3.01584 0
M  V30 3768 H 347.325 -3.21444 -1.91376 0
M  V30 3769 H 348.658 -4.2191 -2.53481 0
M  V30 3770 N 350.31 0.590341 -1.46126 0
M  V30 3771 C 351.721 1.17243 -1.45296 0
M  V30 3772 C 352.072 1.95281 -0.189723 0
M  V30 3773 O 351.197 2.04502 0.707674 0
M  V30 3774 C 351.792 2.13284 -2.6324 0
M  V30 3775 C 350.351 2.66832 -2.65476 0
M  V30 3776 C 349.498 1.42557 -2.3785 0
M  V30 3777 H 352.449 0.378692 -1.54116 0
M  V30 3778 H 352.47 2.96619 -2.38323 0
M  V30 3779 H 351.982 1.56459 -3.55165 0
M  V30 3780 H 350.083 3.27548 -1.77603 0
M  V30 3781 H 350.196 3.10088 -3.65215 0
M  V30 3782 H 348.56 1.72107 -1.87753 0
M  V30 3783 H 349.343 0.875741 -3.31942 0
M  V30 3784 N 351.788 1.33704 0.83433 0
M  V30 3785 C 353.199 1.22813 1.4062 0
M  V30 3786 C 353.55 -0.151107 1.95617 0
M  V30 3787 O 352.675 -1.05092 1.89168 0
M  V30 3788 C 353.27 2.22355 2.55624 0
M  V30 3789 C 351.829 2.1529 3.08751 0
M  V30 3790 C 350.976 2.09589 1.8157 0
M  V30 3791 H 353.927 1.45236 0.639702 0
M  V30 3792 H 353.948 1.83391 3.33389 0
M  V30 3793 H 353.46 3.22728 2.15566 0
M  V30 3794 H 351.561 1.18235 3.53343 0
M  V30 3795 H 351.674 3.06038 3.68616 0
M  V30 3796 H 350.038 1.55134 2.02004 0
M  V30 3797 H 350.821 3.11777 1.43701 0
M  V30 3798 N 353.266 -1.05314 1.17247 0
M  V30 3799 C 354.677 -1.59753 0.96623 0
M  V30 3800 C 355.028 -1.9005 -0.487378 0
M  V30 3801 O 354.153 -1.68126 -1.36245 0
M  V30 3802 C 354.748 -2.90249 1.74759 0
M  V30 3803 C 353.307 -3.41352 1.58606 0
M  V30 3804 C 352.454 -2.15103 1.75002 0
M  V30 3805 H 355.405 -0.881406 1.31973 0
M  V30 3806 H 355.426 -3.60097 1.22925 0
M  V30 3807 H 354.938 -2.68166 2.8055 0
M  V30 3808 H 353.039 -3.68474 0.552985 0
M  V30 3809 H 353.152 -4.16019 2.37624 0
M  V30 3810 H 351.516 -2.25804 1.17833 0
M  V30 3811 H 352.299 -1.95491 2.82202 0
M  V30 3812 N 354.744 -0.972509 -1.24016 0
M  V30 3813 C 355.692 -0.498562 -2.27194 0
M  V30 3814 C 356.686 0.440372 -1.63576 0
M  V30 3815 O 357.892 0.315133 -1.7722 0
M  V30 3816 H 354.267 -0.142775 -0.738322 0
M  V30 3817 H 356.238 -1.38065 -2.64539 0
M  V30 3818 C 354.987 0.191072 -3.47175 0
M  V30 3819 H 354.31 -0.522318 -3.96373 0
M  V30 3820 H 355.75 0.486445 -4.212 0
M  V30 3821 C 354.209 1.41967 -3.05527 0
M  V30 3822 O 354.739 2.51642 -3.13112 0
M  V30 3823 N 352.945 1.28746 -2.60524 0
M  V30 3824 H 352.492 0.395089 -2.54552 0
M  V30 3825 H 352.45 2.11061 -2.33025 0
M  V30 3826 N 356.222 1.38976 -0.743202 0
M  V30 3827 C 357.169 2.30544 -0.10861 0
M  V30 3828 C 358.139 1.49642 0.720869 0
M  V30 3829 O 359.324 1.78304 0.679142 0
M  V30 3830 C 356.464 3.36018 0.786496 0
M  V30 3831 C 355.577 4.31963 -0.0564849 0
M  V30 3832 C 354.712 5.24506 0.840657 0
M  V30 3833 C 353.751 6.121 -0.00658363 0
M  V30 3834 N 352.888 6.96973 0.846943 0
M  V30 3835 H 357.728 2.8424 -0.895088 0
M  V30 3836 H 355.265 1.3995 -0.453048 0
M  V30 3837 H 357.223 3.95768 1.31999 0
M  V30 3838 H 355.853 2.83758 1.53887 0
M  V30 3839 H 354.905 3.73763 -0.707492 0
M  V30 3840 H 356.217 4.93703 -0.711229 0
M  V30 3841 H 355.371 5.89322 1.4417 0
M  V30 3842 H 354.11 4.63107 1.52916 0
M  V30 3843 H 353.115 5.46289 -0.620366 0
M  V30 3844 H 354.34 6.75565 -0.691992 0
M  V30 3845 H 352.286 6.38133 1.52059 0
M  V30 3846 H 352.203 7.5559 0.248864 0
M  V30 3847 H 353.471 7.6621 1.43328 0
M  V30 3848 N 357.7 0.491464 1.49741 0
M  V30 3849 C 358.633 -0.338464 2.25676 0
M  V30 3850 C 359.611 -0.978676 1.29849 0
M  V30 3851 O 360.795 -1.01064 1.59117 0
M  V30 3852 C 357.922 -1.47588 3.04853 0
M  V30 3853 C 356.968 -0.951 4.15762 0
M  V30 3854 S 357.801 0.150626 5.35288 0
M  V30 3855 C 358.957 -0.990178 6.18018 0
M  V30 3856 H 359.19 0.306068 2.9572 0
M  V30 3857 H 356.723 0.276622 1.51902 0
M  V30 3858 H 358.681 -2.12764 3.51058 0
M  V30 3859 H 357.342 -2.09199 2.34296 0
M  V30 3860 H 356.535 -1.80311 4.70642 0
M  V30 3861 H 356.137 -0.376607 3.72099 0
M  V30 3862 H 358.429 -1.89748 6.50386 0
M  V30 3863 H 359.372 -0.480205 7.0647 0
M  V30 3864 H 359.78 -1.25321 5.50413 0
M  V30 3865 N 359.178 -1.55987 0.224894 0
M  V30 3866 C 360.141 -2.19178 -0.670348 0
M  V30 3867 C 361.141 -1.15461 -1.11917 0
M  V30 3868 O 362.331 -1.40675 -1.02743 0
M  V30 3869 C 359.463 -2.81777 -1.9187 0
M  V30 3870 H 360.656 -2.99662 -0.119364 0
M  V30 3871 H 358.209 -1.5628 -0.0247128 0
M  V30 3872 H 358.944 -2.05172 -2.51147 0
M  V30 3873 H 358.729 -3.57732 -1.60531 0
M  V30 3874 H 360.219 -3.30205 -2.55645 0
M  V30 3875 N 360.656 0.0484629 -1.57525 0
M  V30 3876 C 361.604 1.07359 -2.06341 0
M  V30 3877 C 362.598 1.3865 -0.973269 0
M  V30 3878 O 363.804 1.37783 -1.15827 0
M  V30 3879 H 360.179 0.363662 -0.65822 0
M  V30 3880 H 362.15 0.635916 -2.91545 0
M  V30 3881 C 360.899 2.37198 -2.54229 0
M  V30 3882 H 360.222 2.13977 -3.37719 0
M  V30 3883 H 361.662 3.07319 -2.92115 0
M  V30 3884 C 360.121 3.04805 -1.43511 0
M  V30 3885 O 360.651 3.93848 -0.79034 0
M  V30 3886 N 358.857 2.65811 -1.17444 0
M  V30 3887 H 358.404 1.93488 -1.70059 0
M  V30 3888 H 358.362 3.11366 -0.435737 0
M  V30 3889 N 362.134 1.5431 0.320358 0
M  V30 3890 C 363.38 1.72924 1.05949 0
M  V30 3891 C 363.713 0.503185 1.87568 0
M  V30 3892 O 362.988 -0.499839 1.87968 0
M  V30 3893 C 363.271 3.00676 1.98156 0
M  V30 3894 C 363.124 4.3354 1.19845 0
M  V30 3895 C 364.443 3.24198 2.9763 0
M  V30 3896 H 361.562 0.629195 0.383774 0
M  V30 3897 H 364.204 1.87008 0.335854 0
M  V30 3898 H 362.354 2.888 2.59859 0
M  V30 3899 H 364.026 4.57305 0.605773 0
M  V30 3900 H 362.269 4.309 0.500784 0
M  V30 3901 H 362.94 5.19156 1.87567 0
M  V30 3902 H 365.416 3.35557 2.4605 0
M  V30 3903 H 364.292 4.14938 3.59329 0
M  V30 3904 H 364.553 2.41577 3.7026 0
M  V30 3905 N 363.613 -0.582584 1.46437 0
M  V30 3906 C 364.843 -1.36484 1.55099 0
M  V30 3907 C 365.251 -1.88233 0.191056 0
M  V30 3908 O 364.594 -1.6429 -0.821858 0
M  V30 3909 C 364.656 -2.588 2.49525 0
M  V30 3910 C 364.32 -2.28517 3.95764 0
M  V30 3911 C 365.317 -1.87346 4.84972 0
M  V30 3912 C 363.002 -2.40658 4.40896 0
M  V30 3913 C 364.996 -1.5871 6.17325 0
M  V30 3914 C 362.683 -2.11635 5.73284 0
M  V30 3915 C 363.681 -1.70725 6.61318 0
M  V30 3916 O 363.369 -1.42057 7.91249 0
M  V30 3917 H 363.101 -0.423297 0.527063 0
M  V30 3918 H 365.655 -0.715188 1.92547 0
M  V30 3919 H 363.885 -3.26571 2.07095 0
M  V30 3920 H 365.574 -3.20868 2.48593 0
M  V30 3921 H 366.34 -1.77481 4.5136 0
M  V30 3922 H 362.219 -2.71463 3.72598 0
M  V30 3923 H 365.763 -1.26704 6.85997 0
M  V30 3924 H 361.66 -2.21124 6.06444 0
M  V30 3925 H 362.428 -1.55901 8.03515 0
M  V30 3926 N 365.091 -1.34144 -0.827227 0
M  V30 3927 C 366.319 -1.29325 -1.61501 0
M  V30 3928 C 366.734 0.13354 -1.88327 0
M  V30 3929 O 366.091 1.0793 -1.47164 0
M  V30 3930 C 366.142 -2.07746 -2.95844 0
M  V30 3931 O 365.863 -3.4486 -2.70191 0
M  V30 3932 C 367.364 -2.10273 -3.90256 0
M  V30 3933 H 364.584 -0.445069 -0.50215 0
M  V30 3934 H 367.128 -1.76693 -1.02955 0
M  V30 3935 H 365.283 -1.6403 -3.5096 0
M  V30 3936 H 365.697 -3.85345 -3.55822 0
M  V30 3937 H 367.171 -2.69575 -4.81698 0
M  V30 3938 H 367.648 -1.096 -4.25305 0
M  V30 3939 H 368.254 -2.54059 -3.41078 0
M  V30 3940 N 366.569 1.04691 -1.17803 0
M  V30 3941 C 367.502 2.12068 -0.842765 0
M  V30 3942 C 368.48 1.61455 0.192608 0
M  V30 3943 O 369.664 1.88359 0.072995 0
M  V30 3944 C 366.791 3.37715 -0.258063 0
M  V30 3945 C 365.837 4.07164 -1.26962 0
M  V30 3946 S 366.67 4.55047 -2.82299 0
M  V30 3947 C 367.826 5.83935 -2.25323 0
M  V30 3948 H 368.059 2.4018 -1.75217 0
M  V30 3949 H 365.592 1.17366 -1.00323 0
M  V30 3950 H 367.55 4.10435 0.0727935 0
M  V30 3951 H 366.211 3.0773 0.629357 0
M  V30 3952 H 365.404 4.9746 -0.809263 0
M  V30 3953 H 365.006 3.40533 -1.54639 0
M  V30 3954 H 367.298 6.57552 -1.63192 0
M  V30 3955 H 368.241 6.34725 -3.13894 0
M  V30 3956 H 368.649 5.3874 -1.68582 0
M  V30 3957 N 368.047 0.979072 1.23499 0
M  V30 3958 C 368.957 0.526431 2.28617 0
M  V30 3959 C 369.973 -0.418126 1.68901 0
M  V30 3960 O 371.149 -0.288372 1.99325 0
M  V30 3961 C 368.214 -0.165235 3.46306 0
M  V30 3962 C 367.275 0.82056 4.21385 0
M  V30 3963 C 366.508 0.161807 5.33455 0
M  V30 3964 O 366.731 -1.04742 5.60701 0
M  V30 3965 O 365.665 0.859708 5.95729 0
M  V30 3966 H 369.491 1.4006 2.69475 0
M  V30 3967 H 367.076 0.746643 1.29405 0
M  V30 3968 H 368.958 -0.553287 4.17752 0
M  V30 3969 H 367.633 -1.01419 3.07402 0
M  V30 3970 H 366.54 1.25929 3.52268 0
M  V30 3971 H 367.873 1.63828 4.64135 0
M  V30 3972 N 369.525 -1.3858 0.750561 0
M  V30 3973 C 370.435 -2.34278 0.122825 0
M  V30 3974 C 371.451 -1.59116 -0.704131 0
M  V30 3975 O 372.627 -1.91326 -0.628987 0
M  V30 3976 C 369.692 -3.38221 -0.762086 0
M  V30 3977 C 368.753 -4.29227 0.078896 0
M  V30 3978 C 367.986 -5.28205 -0.763874 0
M  V30 3979 O 368.209 -5.34112 -2.00201 0
M  V30 3980 O 367.143 -6.01618 -0.18428 0
M  V30 3981 H 370.969 -2.89649 0.913088 0
M  V30 3982 H 368.554 -1.40374 0.511417 0
M  V30 3983 H 370.436 -4.01872 -1.26793 0
M  V30 3984 H 369.111 -2.85211 -1.5309 0
M  V30 3985 H 368.018 -3.68747 0.630621 0
M  V30 3986 H 369.351 -4.85484 0.810289 0
M  V30 3987 N 371.003 -0.499398 -1.49478 0
M  V30 3988 C 372.25 0.0456899 -2.02448 0
M  V30 3989 C 372.578 1.37142 -1.37921 0
M  V30 3990 O 371.833 1.89111 -0.503544 0
M  V30 3991 C 372.132 0.248424 -3.56536 0
M  V30 3992 C 371.798 -0.999107 -4.39692 0
M  V30 3993 C 370.46 -1.34108 -4.62135 0
M  V30 3994 C 372.812 -1.82842 -4.88076 0
M  V30 3995 C 370.14 -2.51191 -5.30208 0
M  V30 3996 C 372.492 -2.99076 -5.57437 0
M  V30 3997 C 371.156 -3.33655 -5.78127 0
M  V30 3998 H 370.426 0.0167191 -0.740811 0
M  V30 3999 H 373.073 -0.65923 -1.79795 0
M  V30 4000 H 371.378 1.03586 -3.77859 0
M  V30 4001 H 373.075 0.684605 -3.95113 0
M  V30 4002 H 369.665 -0.722729 -4.22463 0
M  V30 4003 H 373.849 -1.57737 -4.70566 0
M  V30 4004 H 369.105 -2.78221 -5.44429 0
M  V30 4005 H 373.279 -3.63664 -5.93904 0
M  V30 4006 H 370.906 -4.24483 -6.30649 0
M  V30 4007 N 372.481 1.55866 -0.233164 0
M  V30 4008 C 373.414 2.16794 0.712442 0
M  V30 4009 C 374.392 1.1158 1.18273 0
M  V30 4010 O 375.576 1.39897 1.26337 0
M  V30 4011 C 372.703 2.75757 1.96661 0
M  V30 4012 C 371.749 3.93902 1.63533 0
M  V30 4013 S 372.582 5.30223 0.74995 0
M  V30 4014 C 373.738 5.92631 2.01343 0
M  V30 4015 H 373.971 2.96662 0.194617 0
M  V30 4016 H 371.504 1.5439 -0.0177425 0
M  V30 4017 H 373.462 3.10367 2.68668 0
M  V30 4018 H 372.123 1.9586 2.45556 0
M  V30 4019 H 371.316 4.33702 2.56747 0
M  V30 4020 H 370.918 3.60499 0.995804 0
M  V30 4021 H 373.21 6.09312 2.96219 0
M  V30 4022 H 374.153 6.88388 1.65915 0
M  V30 4023 H 374.561 5.21571 2.15925 0
M  V30 4024 N 373.959 -0.0401083 1.57549 0
M  V30 4025 C 374.869 -1.06133 2.0922 0
M  V30 4026 C 375.885 -1.40356 1.0284 0
M  V30 4027 O 377.061 -1.49897 1.34509 0
M  V30 4028 C 374.126 -2.34658 2.55218 0
M  V30 4029 C 373.187 -2.07117 3.76033 0
M  V30 4030 C 372.42 -3.29514 4.19829 0
M  V30 4031 O 372.643 -4.39794 3.63232 0
M  V30 4032 O 371.577 -3.15863 5.12362 0
M  V30 4033 H 375.403 -0.652244 2.96613 0
M  V30 4034 H 372.988 -0.256368 1.47184 0
M  V30 4035 H 374.87 -3.10239 2.85184 0
M  V30 4036 H 373.545 -2.74883 1.70941 0
M  V30 4037 H 372.452 -1.29139 3.51104 0
M  V30 4038 H 373.785 -1.71754 4.61261 0
M  V30 4039 N 375.437 -1.54477 -0.31217 0
M  V30 4040 C 376.367 -1.87652 -1.38957 0
M  V30 4041 C 377.348 -0.734358 -1.53431 0
M  V30 4042 O 378.533 -0.98911 -1.67123 0
M  V30 4043 C 375.663 -2.11396 -2.75552 0
M  V30 4044 C 374.617 -3.27243 -2.75855 0
M  V30 4045 C 373.943 -3.36382 -4.15633 0
M  V30 4046 C 375.243 -4.64622 -2.38587 0
M  V30 4047 H 376.937 -2.77887 -1.11442 0
M  V30 4048 H 374.483 -1.33707 -0.534655 0
M  V30 4049 H 376.436 -2.33189 -3.51 0
M  V30 4050 H 375.16 -1.17921 -3.04569 0
M  V30 4051 H 373.819 -3.05356 -2.02863 0
M  V30 4052 H 373.467 -2.40445 -4.41809 0
M  V30 4053 H 373.167 -4.14249 -4.1674 0
M  V30 4054 H 374.691 -3.60422 -4.92877 0
M  V30 4055 H 376.105 -4.86219 -3.03749 0
M  V30 4056 H 374.502 -5.45121 -2.50925 0
M  V30 4057 H 375.572 -4.66097 -1.33723 0
M  V30 4058 N 376.915 0.57481 -1.46744 0
M  V30 4059 C 378.163 1.33009 -1.52161 0
M  V30 4060 C 378.484 1.94185 -0.178092 0
M  V30 4061 O 377.754 1.7899 0.796196 0
M  V30 4062 H 376.334 0.493873 -0.560445 0
M  V30 4063 H 378.996 0.672589 -1.82927 0
M  V30 4064 H 378.092 2.13273 -2.27862 0
M  V30 4065 N 378.394 1.34581 0.820102 0
M  V30 4066 C 379.342 1.26401 1.95258 0
M  V30 4067 C 380.336 0.161553 1.68628 0
M  V30 4068 O 381.542 0.326703 1.7701 0
M  V30 4069 H 377.917 0.392749 0.64129 0
M  V30 4070 H 379.888 2.22105 1.99279 0
M  V30 4071 C 378.637 1.03919 3.31807 0
M  V30 4072 H 377.96 1.87984 3.52848 0
M  V30 4073 H 379.4 1.02232 4.11491 0
M  V30 4074 C 377.859 -0.257433 3.35915 0
M  V30 4075 O 378.389 -1.25784 3.81499 0
M  V30 4076 N 376.595 -0.291524 2.89134 0
M  V30 4077 H 376.142 0.523161 2.52232 0
M  V30 4078 H 376.1 -1.15883 2.92264 0
M  V30 4079 N 379.872 -1.04064 1.18357 0
M  V30 4080 C 380.782 -2.15569 0.925596 0
M  V30 4081 C 381.798 -1.7365 -0.110295 0
M  V30 4082 O 382.974 -2.01273 0.0716218 0
M  V30 4083 C 380.039 -3.43704 0.454836 0
M  V30 4084 C 379.1 -4.00004 1.55869 0
M  V30 4085 C 378.333 -5.22023 1.1103 0
M  V30 4086 O 378.556 -5.70392 -0.0309756 0
M  V30 4087 O 377.49 -5.70856 1.90805 0
M  V30 4088 H 381.316 -2.40187 1.8586 0
M  V30 4089 H 378.901 -1.1402 0.965394 0
M  V30 4090 H 380.783 -4.20923 0.200382 0
M  V30 4091 H 379.458 -3.20559 -0.449876 0
M  V30 4092 H 378.365 -3.24172 1.86716 0
M  V30 4093 H 379.698 -4.2749 2.43953 0
M  V30 4094 N 381.35 -0.985608 -1.22978 0
M  V30 4095 C 382.596 -0.65836 -1.91816 0
M  V30 4096 C 382.929 0.806692 -1.76653 0
M  V30 4097 O 382.204 1.58252 -1.13078 0
M  V30 4098 C 382.487 -1.056 -3.44268 0
M  V30 4099 C 382.34 -2.57906 -3.68516 0
M  V30 4100 C 383.659 -0.603781 -4.35939 0
M  V30 4101 H 380.778 -0.24065 -0.696604 0
M  V30 4102 H 383.42 -1.22783 -1.44998 0
M  V30 4103 H 381.57 -0.571445 -3.84274 0
M  V30 4104 H 383.242 -3.13976 -3.3796 0
M  V30 4105 H 381.485 -3.00305 -3.13048 0
M  V30 4106 H 382.156 -2.80779 -4.75255 0
M  V30 4107 H 384.632 -1.01987 -4.03408 0
M  V30 4108 H 383.508 -0.910383 -5.41298 0
M  V30 4109 H 383.769 0.495761 -4.39312 0
M  V30 4110 N 382.828 1.3818 -0.7579 0
M  V30 4111 C 384.239 1.82726 -0.383134 0
M  V30 4112 C 384.59 1.63214 1.08884 0
M  V30 4113 O 383.715 1.13566 1.84205 0
M  V30 4114 C 384.31 3.31728 -0.688631 0
M  V30 4115 C 382.869 3.74606 -0.367091 0
M  V30 4116 C 382.016 2.60896 -0.939599 0
M  V30 4117 H 384.967 1.26847 -0.953699 0
M  V30 4118 H 384.988 3.80487 0.0316492 0
M  V30 4119 H 384.5 3.45898 -1.76001 0
M  V30 4120 H 382.601 3.66013 0.697532 0
M  V30 4121 H 382.714 4.71215 -0.865658 0
M  V30 4122 H 381.078 2.52075 -0.3647 0
M  V30 4123 H 381.861 2.77864 -2.0161 0
M  V30 4124 N 384.306 0.507319 1.49211 0
M  V30 4125 C 385.216 -0.272136 2.33016 0
M  V30 4126 C 386.232 -0.961206 1.45041 0
M  V30 4127 O 387.408 -0.941191 1.78055 0
M  V30 4128 C 384.473 -1.31895 3.20631 0
M  V30 4129 C 383.534 -0.642648 4.24463 0
M  V30 4130 C 382.767 -1.63959 5.07891 0
M  V30 4131 O 382.99 -2.87007 4.92933 0
M  V30 4132 O 381.924 -1.19143 5.8999 0
M  V30 4133 H 385.75 0.413982 3.00865 0
M  V30 4134 H 383.335 0.268556 1.46966 0
M  V30 4135 H 385.217 -1.92446 3.7489 0
M  V30 4136 H 383.892 -1.98788 2.5547 0
M  V30 4137 H 382.799 0.00276252 3.741 0
M  V30 4138 H 384.132 -0.0160534 4.92197 0
M  V30 4139 N 385.784 -1.5574 0.241426 0
M  V30 4140 C 386.694 -2.2479 -0.671305 0
M  V30 4141 C 387.71 -1.26217 -1.19772 0
M  V30 4142 O 388.886 -1.59079 -1.23514 0
M  V30 4143 C 385.951 -2.92966 -1.85396 0
M  V30 4144 C 385.012 -4.06935 -1.36756 0
M  V30 4145 C 384.245 -4.71851 -2.49384 0
M  V30 4146 O 384.468 -4.35823 -3.67987 0
M  V30 4147 O 383.402 -5.60467 -2.19454 0
M  V30 4148 H 387.228 -3.0349 -0.112966 0
M  V30 4149 H 384.813 -1.49397 0.0101513 0
M  V30 4150 H 386.695 -3.35927 -2.54423 0
M  V30 4151 H 385.37 -2.17211 -2.40002 0
M  V30 4152 H 384.277 -3.68503 -0.644726 0
M  V30 4153 H 385.61 -4.84492 -0.867647 0
M  V30 4154 N 387.262 0.0317525 -1.57568 0
M  V30 4155 C 388.225 1.01783 -2.0536 0
M  V30 4156 C 389.225 1.29203 -0.957253 0
M  V30 4157 O 390.415 1.24251 -1.22095 0
M  V30 4158 C 387.547 2.35137 -2.46827 0
M  V30 4159 H 388.74 0.605062 -2.93733 0
M  V30 4160 H 386.293 0.278514 -1.53799 0
M  V30 4161 H 387.028 2.81168 -1.61602 0
M  V30 4162 H 386.813 2.16566 -3.26866 0
M  V30 4163 H 388.303 3.05938 -2.84239 0
M  V30 4164 N 388.74 1.54641 0.303973 0
M  V30 4165 C 389.67 1.88386 1.3796 0
M  V30 4166 C 390.651 0.742485 1.5304 0
M  V30 4167 O 391.836 0.997959 1.66597 0
M  V30 4168 C 388.966 2.12854 2.74427 0
M  V30 4169 C 387.92 3.28702 2.74115 0
M  V30 4170 C 387.246 3.38582 4.13844 0
M  V30 4171 C 388.546 4.65881 2.3612 0
M  V30 4172 H 390.24 2.78474 1.09966 0
M  V30 4173 H 387.786 1.33988 0.527556 0
M  V30 4174 H 389.739 2.35047 3.49758 0
M  V30 4175 H 388.463 1.19535 3.03939 0
M  V30 4176 H 387.122 3.06428 2.0124 0
M  V30 4177 H 386.77 2.42784 4.40528 0
M  V30 4178 H 386.47 4.16453 4.14537 0
M  V30 4179 H 387.994 3.63031 4.90959 0
M  V30 4180 H 389.408 4.87823 3.01167 0
M  V30 4181 H 387.805 5.46444 2.48031 0
M  V30 4182 H 388.875 4.66799 1.3125 0
M  V30 4183 N 390.218 -0.567019 1.47046 0
M  V30 4184 C 391.495 -1.3276 1.43646 0
M  V30 4185 C 391.875 -2.1071 0.128186 0
M  V30 4186 O 391.223 -2.10441 -0.890326 0
M  V30 4187 C 391.433 -2.2404 2.67595 0
M  V30 4188 C 392.781 -2.85372 3.14401 0
M  V30 4189 O 393.805 -2.34346 2.68254 0
M  V30 4190 O 392.664 -3.78091 3.946 0
M  V30 4191 H 389.758 -0.597293 0.571988 0
M  V30 4192 H 392.304 -0.586735 1.59234 0
M  V30 4193 H 391.076 -1.65975 3.54356 0
M  V30 4194 H 390.699 -3.05439 2.54544 0
M  V30 4195 N 391.696 -1.35014 -0.812953 0
M  V30 4196 C 392.659 -1.27292 -1.90602 0
M  V30 4197 C 393.659 -0.185817 -1.59723 0
M  V30 4198 O 394.849 -0.439102 -1.68575 0
M  V30 4199 C 391.981 -0.967676 -3.26877 0
M  V30 4200 H 393.174 -2.24479 -1.9887 0
M  V30 4201 H 390.727 -1.19446 -1.00808 0
M  V30 4202 H 391.462 0.0005954 -3.243 0
M  V30 4203 H 391.247 -1.75412 -3.50675 0
M  V30 4204 H 392.737 -0.939085 -4.06904 0
M  V30 4205 N 393.175 1.03435 -1.18907 0
M  V30 4206 C 394.424 1.76143 -0.982669 0
M  V30 4207 C 394.737 1.89416 0.487953 0
M  V30 4208 O 395.943 2.59041 0.813036 0
M  V30 4209 C 394.399 3.16722 -1.70924 0
M  V30 4210 C 394.007 3.11522 -3.21959 0
M  V30 4211 C 395.751 3.93764 -1.58588 0
M  V30 4212 C 393.658 4.46999 -3.87228 0
M  V30 4213 H 392.588 0.660292 -0.364047 0
M  V30 4214 H 395.239 1.158 -1.42347 0
M  V30 4215 H 393.621 3.775 -1.19623 0
M  V30 4216 H 394.795 2.60158 -3.80335 0
M  V30 4217 H 393.11 2.47978 -3.34508 0
M  V30 4218 H 395.707 4.93963 -2.04707 0
M  V30 4219 H 396.05 4.12794 -0.539142 0
M  V30 4220 H 396.583 3.39576 -2.07203 0
M  V30 4221 H 393.322 4.33174 -4.91976 0
M  V30 4222 H 392.842 4.98441 -3.33642 0
M  V30 4223 H 394.521 5.15898 -3.90459 0
M  V30 4224 N 394.653 0.992116 1.22453 0
M  V30 4225 C 395.902 0.662992 1.90492 0
M  V30 4226 C 396.215 -0.808407 1.78113 0
M  V30 4227 O 397.421 -1.24908 2.41061 0
M  V30 4228 C 395.877 1.1353 3.41524 0
M  V30 4229 C 395.485 2.63187 3.62542 0
M  V30 4230 C 397.229 0.880465 4.15269 0
M  V30 4231 C 395.136 3.04024 5.0727 0
M  V30 4232 H 394.066 0.244278 0.713333 0
M  V30 4233 H 396.717 1.20157 1.38688 0
M  V30 4234 H 395.099 0.52485 3.92506 0
M  V30 4235 H 396.273 3.2957 3.22056 0
M  V30 4236 H 394.588 2.86543 3.02129 0
M  V30 4237 H 397.185 1.16128 5.21937 0
M  V30 4238 H 397.528 -0.183408 4.15896 0
M  V30 4239 H 398.061 1.45307 3.70312 0
M  V30 4240 H 394.8 4.09584 5.11782 0
M  V30 4241 H 394.32 2.42343 5.48662 0
M  V30 4242 H 395.999 2.95282 5.75689 0
M  V30 4243 N 396.131 -1.37776 0.765217 0
M  V30 4244 C 397.408 -1.93975 0.251596 0
M  V30 4245 C 397.788 -1.69949 -1.25222 0
M  V30 4246 O 397.136 -1.04457 -2.03226 0
M  V30 4247 C 397.346 -3.43487 0.617895 0
M  V30 4248 C 398.694 -4.20564 0.584029 0
M  V30 4249 O 399.718 -3.5182 0.556888 0
M  V30 4250 O 398.577 -5.43138 0.605291 0
M  V30 4251 H 395.671 -0.82509 0.0561806 0
M  V30 4252 H 398.217 -1.47101 0.846128 0
M  V30 4253 H 396.989 -3.5453 1.65602 0
M  V30 4254 H 396.612 -3.976 -0.00403411 0
M  V30 4255 N 397.609 -0.515225 -1.4894 0
M  V30 4256 C 398.837 0.0206034 -2.0689 0
M  V30 4257 C 399.252 1.29514 -1.37374 0
M  V30 4258 O 398.609 1.76698 -0.456529 0
M  V30 4259 C 398.66 0.26351 -3.60538 0
M  V30 4260 O 398.381 -0.960517 -4.27441 0
M  V30 4261 C 399.882 0.841383 -4.35242 0
M  V30 4262 H 397.102 -0.0268608 -0.670462 0
M  V30 4263 H 399.646 -0.716651 -1.91532 0
M  V30 4264 H 397.801 0.950777 -3.75552 0
M  V30 4265 H 398.215 -0.73212 -5.19365 0
M  V30 4266 H 399.689 0.96085 -5.43573 0
M  V30 4267 H 400.166 1.8427 -3.98674 0
M  V30 4268 H 400.772 0.191143 -4.2487 0
M  V30 4269 N 399.087 1.5561 -0.249682 0
M  V30 4270 C 400.019 2.18834 0.681496 0
M  V30 4271 C 401.032 1.16546 1.1367 0
M  V30 4272 O 402.221 1.43397 1.06299 0
M  V30 4273 C 399.321 2.77992 1.9384 0
M  V30 4274 C 398.494 4.05725 1.63419 0
M  V30 4275 C 397.553 4.49174 2.74096 0
M  V30 4276 O 396.579 5.15492 2.41364 0
M  V30 4277 N 397.781 4.17191 4.03649 0
M  V30 4278 H 400.546 2.9937 0.140514 0
M  V30 4279 H 398.107 1.6175 -0.0697541 0
M  V30 4280 H 400.099 3.04015 2.67127 0
M  V30 4281 H 398.669 2.01596 2.38909 0
M  V30 4282 H 397.889 3.87261 0.736358 0
M  V30 4283 H 399.177 4.88999 1.40562 0
M  V30 4284 H 398.575 3.63955 4.33074 0
M  V30 4285 H 397.132 4.48043 4.73393 0
M  V30 4286 N 400.565 -0.0233959 1.57583 0
M  V30 4287 C 401.497 -1.04994 2.03737 0
M  V30 4288 C 402.51 -1.32125 0.951152 0
M  V30 4289 O 403.699 -1.29512 1.22837 0
M  V30 4290 C 400.799 -2.39026 2.40249 0
M  V30 4291 C 399.972 -2.31171 3.7132 0
M  V30 4292 C 399.031 -3.47698 3.94959 0
M  V30 4293 O 398.057 -3.26937 4.65941 0
M  V30 4294 N 399.259 -4.6976 3.41037 0
M  V30 4295 H 402.024 -0.656507 2.92421 0
M  V30 4296 H 399.585 -0.211235 1.60516 0
M  V30 4297 H 401.577 -3.15712 2.53196 0
M  V30 4298 H 400.147 -2.70194 1.57207 0
M  V30 4299 H 399.367 -1.39547 3.68674 0
M  V30 4300 H 400.655 -2.23071 4.57293 0
M  V30 4301 H 400.053 -4.89528 2.83512 0
M  V30 4302 H 398.61 -5.43791 3.59353 0
M  V30 4303 N 402.043 -1.548 -0.295768 0
M  V30 4304 C 403.454 -1.65274 -0.868411 0
M  V30 4305 C 403.805 -0.56481 -1.87894 0
M  V30 4306 O 402.93 0.29767 -2.14343 0
M  V30 4307 C 403.525 -2.99603 -1.58188 0
M  V30 4308 C 402.084 -3.12181 -2.10286 0
M  V30 4309 C 401.231 -2.6098 -0.93727 0
M  V30 4310 H 404.182 -1.58534 -0.0726422 0
M  V30 4311 H 404.203 -2.91319 -2.44772 0
M  V30 4312 H 403.715 -3.78764 -0.846151 0
M  V30 4313 H 401.816 -2.3775 -2.8689 0
M  V30 4314 H 401.929 -4.18415 -2.33379 0
M  V30 4315 H 400.293 -2.17564 -1.32431 0
M  V30 4316 H 401.076 -3.42623 -0.215414 0
M  V30 4317 N 403.521 0.559213 -1.47345 0
M  V30 4318 C 404.469 1.68747 -1.60085 0
M  V30 4319 C 405.463 1.628 -0.46825 0
M  V30 4320 O 406.669 1.68009 -0.645977 0
M  V30 4321 H 403.044 0.558329 -0.503759 0
M  V30 4322 H 405.015 1.55138 -2.54902 0
M  V30 4323 C 403.764 3.07103 -1.63042 0
M  V30 4324 H 403.087 3.12361 -2.49541 0
M  V30 4325 H 404.527 3.85743 -1.76006 0
M  V30 4326 C 402.986 3.34935 -0.363357 0
M  V30 4327 O 403.516 3.98102 0.536416 0
M  V30 4328 N 401.722 2.89574 -0.244 0
M  V30 4329 H 401.269 2.38348 -0.977133 0
M  V30 4330 H 401.227 3.08566 0.602836 0
M  V30 4331 N 404.999 1.35443 0.805782 0
M  V30 4332 C 405.931 1.24285 1.92577 0
M  V30 4333 C 406.944 0.165962 1.61952 0
M  V30 4334 O 408.133 0.419303 1.73505 0
M  V30 4335 C 405.233 0.891272 3.2697 0
M  V30 4336 C 404.406 2.06669 3.85495 0
M  V30 4337 C 403.465 1.69077 4.98297 0
M  V30 4338 O 402.491 2.4096 5.15681 0
M  V30 4339 N 403.693 0.614869 5.77234 0
M  V30 4340 H 406.458 2.20777 2.02676 0
M  V30 4341 H 404.019 1.28623 0.983243 0
M  V30 4342 H 406.011 0.621256 3.99903 0
M  V30 4343 H 404.581 0.016004 3.12596 0
M  V30 4344 H 403.801 2.50046 3.04747 0
M  V30 4345 H 405.089 2.85237 4.21328 0
M  V30 4346 H 404.487 0.017648 5.65697 0
M  V30 4347 H 403.044 0.404636 6.50543 0
M  V30 4348 N 406.477 -1.02803 1.19454 0
M  V30 4349 C 407.717 -1.77769 1.00883 0
M  V30 4350 C 408.081 -1.86596 -0.45233 0
M  V30 4351 O 409.282 -2.57895 -0.757877 0
M  V30 4352 C 407.553 -3.16486 1.66046 0
M  V30 4353 S 409.112 -4.07632 1.62424 0
M  V30 4354 H 405.93 -0.611949 0.361993 0
M  V30 4355 H 408.532 -1.23175 1.51816 0
M  V30 4356 H 407.236 -3.0768 2.7159 0
M  V30 4357 H 406.767 -3.76156 1.15196 0
M  V30 4358 H 408.782 -4.91937 0.64903 0
M  V30 4359 N 407.956 -0.998596 -1.21925 0
M  V30 4360 C 409.196 -0.685948 -1.92546 0
M  V30 4361 C 409.56 0.768441 -1.75952 0
M  V30 4362 O 410.761 1.19277 -2.40887 0
M  V30 4363 C 409.032 -1.08767 -3.40448 0
M  V30 4364 S 410.591 -0.894251 -4.29591 0
M  V30 4365 H 407.409 -0.250622 -0.665364 0
M  V30 4366 H 410.011 -1.28207 -1.47591 0
M  V30 4367 H 408.715 -2.14242 -3.50041 0
M  V30 4368 H 408.246 -0.48357 -3.90417 0
M  V30 4369 H 410.261 0.212149 -4.95746 0
M  V30 4370 N 409.434 1.37368 -0.772513 0
M  V30 4371 C 410.68 1.99969 -0.337681 0
M  V30 4372 C 411.013 1.61184 1.08321 0
M  V30 4373 O 410.288 0.858395 1.74533 0
M  V30 4374 C 410.571 3.56858 -0.482121 0
M  V30 4375 C 410.424 4.0555 -1.94549 0
M  V30 4376 C 411.743 4.39955 0.113143 0
M  V30 4377 H 408.862 0.726464 -0.124171 0
M  V30 4378 H 411.504 1.63034 -0.975699 0
M  V30 4379 H 409.654 3.88452 0.0610361 0
M  V30 4380 H 411.326 3.84518 -2.54841 0
M  V30 4381 H 409.569 3.57715 -2.45403 0
M  V30 4382 H 410.24 5.14587 -1.9976 0
M  V30 4383 H 412.716 4.14623 -0.35031 0
M  V30 4384 H 411.592 5.48897 -0.0180514 0
M  V30 4385 H 411.853 4.25403 1.20354 0
M  V30 4386 N 410.912 0.523116 1.48665 0
M  V30 4387 C 411.842 -0.23231 2.32342 0
M  V30 4388 C 412.823 -0.941637 1.41659 0
M  V30 4389 O 414.008 -0.928751 1.70552 0
M  V30 4390 C 411.138 -1.28387 3.22698 0
M  V30 4391 C 410.092 -0.693098 4.22351 0
M  V30 4392 C 409.418 -1.8468 5.01794 0
M  V30 4393 C 410.718 0.33063 5.21252 0
M  V30 4394 H 412.412 0.466192 2.95748 0
M  V30 4395 H 409.958 0.225643 1.42221 0
M  V30 4396 H 411.911 -1.82024 3.80059 0
M  V30 4397 H 410.635 -2.01186 2.57278 0
M  V30 4398 H 409.294 -0.178299 3.66166 0
M  V30 4399 H 408.942 -2.56301 4.32804 0
M  V30 4400 H 408.642 -1.45747 5.69238 0
M  V30 4401 H 410.166 -2.38709 5.62006 0
M  V30 4402 H 411.58 -0.118407 5.73178 0
M  V30 4403 H 409.977 0.636974 5.9671 0
M  V30 4404 H 411.047 1.23883 4.68808 0
M  V30 4405 N 412.39 -1.55475 0.257931 0
M  V30 4406 C 413.636 -1.99502 -0.364266 0
M  V30 4407 C 413.969 -1.146 -1.56782 0
M  V30 4408 O 413.244 -0.211968 -1.93342 0
M  V30 4409 C 413.527 -3.51917 -0.763333 0
M  V30 4410 C 413.38 -4.4758 0.446371 0
M  V30 4411 C 414.699 -4.09742 -1.60623 0
M  V30 4412 H 411.818 -0.725277 -0.130929 0
M  V30 4413 H 414.46 -1.8653 0.361446 0
M  V30 4414 H 412.61 -3.63101 -1.38166 0
M  V30 4415 H 414.282 -4.48362 1.08487 0
M  V30 4416 H 412.525 -4.19947 1.08753 0
M  V30 4417 H 413.196 -5.51862 0.123645 0
M  V30 4418 H 415.672 -4.01727 -1.08418 0
M  V30 4419 H 414.548 -5.16631 -1.85429 0
M  V30 4420 H 414.809 -3.58889 -2.58169 0
M  V30 4421 N 413.868 0.0150385 -1.57593 0
M  V30 4422 C 415.098 0.713359 -1.93894 0
M  V30 4423 C 415.506 1.68663 -0.857289 0
M  V30 4424 O 414.849 1.82876 0.173788 0
M  V30 4425 C 414.911 1.51348 -3.26089 0
M  V30 4426 C 414.575 0.703451 -4.51554 0
M  V30 4427 C 415.572 -0.00237924 -5.199 0
M  V30 4428 C 413.257 0.653854 -4.98026 0
M  V30 4429 C 415.251 -0.746955 -6.33008 0
M  V30 4430 C 412.938 -0.0944578 -6.11027 0
M  V30 4431 C 413.936 -0.793609 -6.78374 0
M  V30 4432 O 413.624 -1.52974 -7.89211 0
M  V30 4433 H 413.356 0.204637 -0.644282 0
M  V30 4434 H 415.91 -0.0276411 -2.05381 0
M  V30 4435 H 414.14 2.29862 -3.10967 0
M  V30 4436 H 415.829 2.09572 -3.47612 0
M  V30 4437 H 416.595 0.0268803 -4.84993 0
M  V30 4438 H 412.474 1.18756 -4.45441 0
M  V30 4439 H 416.018 -1.2932 -6.85509 0
M  V30 4440 H 411.915 -0.125591 -6.45378 0
M  V30 4441 H 412.683 -1.44488 -8.05646 0
M  V30 4442 N 415.346 1.54954 0.287554 0
M  V30 4443 C 416.574 1.78881 1.03967 0
M  V30 4444 C 416.989 0.554894 1.80462 0
M  V30 4445 O 416.346 -0.475676 1.76192 0
M  V30 4446 C 416.397 3.00488 2.0097 0
M  V30 4447 O 416.118 4.19113 1.27577 0
M  V30 4448 C 417.619 3.36907 2.88112 0
M  V30 4449 H 414.839 0.596259 0.307761 0
M  V30 4450 H 417.383 2.01937 0.322749 0
M  V30 4451 H 415.538 2.79601 2.68145 0
M  V30 4452 H 415.952 4.87765 1.92835 0
M  V30 4453 H 417.426 4.25205 3.52001 0
M  V30 4454 H 417.903 2.55659 3.57121 0
M  V30 4455 H 418.509 3.60001 2.26449 0
M  V30 4456 N 416.824 -0.551391 1.4764 0
M  V30 4457 C 418.049 -1.33837 1.58437 0
M  V30 4458 C 418.474 -1.866 0.237063 0
M  V30 4459 O 417.832 -1.6328 -0.787994 0
M  V30 4460 C 417.88 -2.48014 2.61766 0
M  V30 4461 O 416.984 -3.50419 2.1744 0
M  V30 4462 H 416.325 -0.397299 0.532024 0
M  V30 4463 H 418.855 -0.665759 1.93465 0
M  V30 4464 H 418.865 -2.94503 2.82369 0
M  V30 4465 H 417.54 -2.08969 3.5959 0
M  V30 4466 H 416.117 -3.10196 2.06961 0
M  V30 4467 N 418.302 -1.35869 -0.798587 0
M  V30 4468 C 419.55 -1.29332 -1.55298 0
M  V30 4469 C 419.871 0.129729 -1.94568 0
M  V30 4470 O 419.141 1.06796 -1.6423 0
M  V30 4471 H 417.721 -0.475737 -0.57592 0
M  V30 4472 H 420.383 -1.70062 -0.952093 0
M  V30 4473 H 419.479 -1.91458 -2.46476 0
M  V30 4474 N 419.78 1.02168 -1.19998 0
M  V30 4475 C 421.008 1.79296 -1.03249 0
M  V30 4476 C 421.423 1.84103 0.418502 0
M  V30 4477 O 420.78 1.29031 1.29063 0
M  V30 4478 C 420.831 3.24007 -1.60319 0
M  V30 4479 O 420.552 3.19512 -2.99739 0
M  V30 4480 C 422.053 4.17704 -1.48453 0
M  V30 4481 H 419.273 0.564016 -0.363493 0
M  V30 4482 H 421.817 1.28639 -1.58973 0
M  V30 4483 H 419.972 3.7183 -1.08727 0
M  V30 4484 H 420.386 4.10306 -3.26725 0
M  V30 4485 H 421.86 5.17104 -1.93153 0
M  V30 4486 H 422.337 4.37029 -0.436193 0
M  V30 4487 H 422.943 3.7576 -1.99211 0
M  V30 4488 N 421.258 1.00505 1.21394 0
M  V30 4489 C 422.486 0.706609 1.9446 0
M  V30 4490 C 422.901 -0.73081 1.74082 0
M  V30 4491 O 422.258 -1.49446 1.04747 0
M  V30 4492 C 422.309 1.01824 3.46863 0
M  V30 4493 O 422.03 2.39919 3.66566 0
M  V30 4494 C 423.531 0.739216 4.37093 0
M  V30 4495 H 420.751 0.260394 0.618414 0
M  V30 4496 H 423.295 1.34311 1.54211 0
M  V30 4497 H 421.45 0.427343 3.85036 0
M  V30 4498 H 421.864 2.50784 4.6066 0
M  V30 4499 H 423.338 1.00744 5.42729 0
M  V30 4500 H 423.815 -0.326746 4.37983 0
M  V30 4501 H 424.421 1.31173 4.04566 0
M  V30 4502 N 422.737 -1.36956 0.779787 0
M  V30 4503 C 423.985 -1.99097 0.347079 0
M  V30 4504 C 424.306 -1.62206 -1.08232 0
M  V30 4505 O 423.576 -0.891373 -1.74446 0
M  V30 4506 H 422.156 -0.736409 0.125342 0
M  V30 4507 H 424.818 -1.67308 0.999696 0
M  V30 4508 H 423.914 -3.09107 0.431162 0
M  V30 4509 N 424.215 -0.530993 -1.48385 0
M  V30 4510 C 425.163 0.244595 -2.3131 0
M  V30 4511 C 426.157 0.93451 -1.41291 0
M  V30 4512 O 427.363 0.85878 -1.58193 0
M  V30 4513 H 423.738 0.0977472 -0.74562 0
M  V30 4514 H 425.709 -0.474369 -2.94605 0
M  V30 4515 C 424.458 1.2779 -3.23365 0
M  V30 4516 H 423.781 0.756439 -3.92579 0
M  V30 4517 H 425.221 1.79198 -3.84271 0
M  V30 4518 C 423.68 2.31205 -2.45042 0
M  V30 4519 O 424.21 3.37661 -2.17596 0
M  V30 4520 N 422.416 2.04446 -2.0652 0
M  V30 4521 H 421.963 1.17891 -2.2904 0
M  V30 4522 H 421.921 2.73861 -1.54427 0
M  V30 4523 N 425.693 1.55336 -0.266172 0
M  V30 4524 C 427.104 1.85236 0.233315 0
M  V30 4525 C 427.455 1.18816 1.56132 0
M  V30 4526 O 426.58 0.473307 2.11161 0
M  V30 4527 C 427.175 3.36059 0.430113 0
M  V30 4528 C 425.734 3.66116 0.873842 0
M  V30 4529 C 424.881 2.77274 -0.0380016 0
M  V30 4530 H 427.832 1.51004 -0.488214 0
M  V30 4531 H 427.853 3.58681 1.26998 0
M  V30 4532 H 427.365 3.84373 -0.536588 0
M  V30 4533 H 425.466 3.23295 1.85233 0
M  V30 4534 H 425.579 4.73699 0.717358 0
M  V30 4535 H 423.943 2.50198 0.476759 0
M  V30 4536 H 424.726 3.284 -1.00042 0
M  V30 4537 N 427.171 -0.0066808 1.57599 0
M  V30 4538 C 428.118 -1.00024 2.08 0
M  V30 4539 C 429.088 -1.34549 0.973943 0
M  V30 4540 O 430.273 -1.44502 1.24595 0
M  V30 4541 C 427.413 -2.2891 2.58252 0
M  V30 4542 C 426.526 -2.00346 3.82734 0
M  V30 4543 C 425.661 -3.23265 4.21513 0
M  V30 4544 C 424.7 -2.90357 5.3885 0
M  V30 4545 N 423.837 -4.05793 5.72954 0
M  V30 4546 H 428.677 -0.563499 2.92624 0
M  V30 4547 H 426.214 -0.266592 1.44664 0
M  V30 4548 H 428.172 -3.04247 2.85464 0
M  V30 4549 H 426.802 -2.70265 1.76512 0
M  V30 4550 H 425.854 -1.15406 3.62471 0
M  V30 4551 H 427.166 -1.72086 4.68175 0
M  V30 4552 H 426.32 -4.06953 4.49971 0
M  V30 4553 H 425.059 -3.54657 3.34768 0
M  V30 4554 H 424.064 -2.05075 5.10122 0
M  V30 4555 H 425.289 -2.60219 6.27266 0
M  V30 4556 H 423.235 -4.37094 4.89167 0
M  V30 4557 H 423.152 -3.81034 6.52954 0
M  V30 4558 H 424.42 -4.90289 6.06001 0
M  V30 4559 N 428.649 -1.55105 -0.279332 0
M  V30 4560 C 429.897 -1.75066 -1.00977 0
M  V30 4561 C 430.218 -0.551276 -1.87045 0
M  V30 4562 O 429.488 0.433984 -1.91032 0
M  V30 4563 H 428.068 -0.645578 -0.375816 0
M  V30 4564 H 430.73 -1.92497 -0.305089 0
M  V30 4565 H 429.826 -2.64894 -1.65038 0
M  V30 4566 N 430.127 0.543554 -1.4793 0
M  V30 4567 C 431.373 1.30201 -1.55485 0
M  V30 4568 C 431.706 1.92925 -0.222201 0
M  V30 4569 O 430.981 1.78586 0.77053 0
M  V30 4570 C 431.264 2.40174 -2.68307 0
M  V30 4571 C 431.117 1.8223 -4.11233 0
M  V30 4572 C 432.436 3.42024 -2.76961 0
M  V30 4573 H 429.555 0.472036 -0.565996 0
M  V30 4574 H 432.197 0.606914 -1.80046 0
M  V30 4575 H 430.347 2.99463 -2.47495 0
M  V30 4576 H 432.019 1.27096 -4.43446 0
M  V30 4577 H 430.262 1.12832 -4.18869 0
M  V30 4578 H 430.933 2.61793 -4.85972 0
M  V30 4579 H 433.409 2.92672 -2.95774 0
M  V30 4580 H 432.285 4.16383 -3.57654 0
M  V30 4581 H 432.546 4.0173 -1.84568 0
M  V30 4582 N 431.605 1.3629 0.791371 0
M  V30 4583 C 432.538 1.24816 1.9104 0
M  V30 4584 C 433.516 0.132739 1.62057 0
M  V30 4585 O 434.7 0.303527 1.8604 0
M  V30 4586 C 431.827 0.925355 3.25814 0
M  V30 4587 C 430.873 2.05495 3.7373 0
M  V30 4588 S 431.706 3.67255 3.89723 0
M  V30 4589 C 432.862 3.37084 5.27376 0
M  V30 4590 H 433.095 2.19533 2.00481 0
M  V30 4591 H 430.628 1.21684 0.950393 0
M  V30 4592 H 432.586 0.745924 4.03666 0
M  V30 4593 H 431.247 -0.00400098 3.141 0
M  V30 4594 H 430.44 1.7836 4.71385 0
M  V30 4595 H 430.042 2.1935 3.02922 0
M  V30 4596 H 432.334 2.90856 6.1189 0
M  V30 4597 H 433.277 4.33995 5.59512 0
M  V30 4598 H 433.685 2.7248 4.94383 0
M  V30 4599 N 433.083 -1.0153 1.20538 0
M  V30 4600 C 434.013 -2.11972 0.979295 0
M  V30 4601 C 434.994 -1.6985 -0.0921787 0
M  V30 4602 O 436.179 -1.94089 0.0655932 0
M  V30 4603 C 433.309 -3.43201 0.531984 0
M  V30 4604 C 432.263 -3.9907 1.54685 0
M  V30 4605 C 431.589 -5.26082 0.956127 0
M  V30 4606 C 432.889 -4.32313 2.93092 0
M  V30 4607 H 434.583 -2.31143 1.90298 0
M  V30 4608 H 432.129 -1.11079 0.916372 0
M  V30 4609 H 434.082 -4.1985 0.361044 0
M  V30 4610 H 432.806 -3.23792 -0.427327 0
M  V30 4611 H 431.465 -3.2453 1.70517 0
M  V30 4612 H 431.113 -5.02999 -0.0111538 0
M  V30 4613 H 430.813 -5.64426 1.63393 0
M  V30 4614 H 432.337 -6.05386 0.796284 0
M  V30 4615 H 433.751 -4.99845 2.80763 0
M  V30 4616 H 432.148 -4.81774 3.57791 0
M  V30 4617 H 433.218 -3.41025 3.44717 0
M  V30 4618 N 434.561 -1.01147 -1.20859 0
M  V30 4619 C 435.786 -0.716698 -1.94623 0
M  V30 4620 C 436.211 0.715415 -1.73964 0
M  V30 4621 O 435.569 1.49157 -1.03062 0
M  V30 4622 C 435.617 -1.0513 -3.44935 0
M  V30 4623 O 434.721 -0.160131 -4.12089 0
M  V30 4624 H 434.062 -0.266404 -0.608214 0
M  V30 4625 H 436.592 -1.35346 -1.53436 0
M  V30 4626 H 436.602 -1.00086 -3.95533 0
M  V30 4627 H 435.277 -2.09475 -3.59295 0
M  V30 4628 H 433.854 -0.267657 -3.71938 0
M  V30 4629 N 436.039 1.36541 -0.78704 0
M  V30 4630 C 436.971 2.28761 -0.141773 0
M  V30 4631 C 437.984 1.49365 0.647599 0
M  V30 4632 O 439.173 1.71836 0.483173 0
M  V30 4633 C 436.273 3.28771 0.822368 0
M  V30 4634 C 435.446 4.3732 0.0835594 0
M  V30 4635 C 434.505 5.17307 0.963296 0
M  V30 4636 O 433.531 5.67638 0.421419 0
M  V30 4637 N 434.733 5.33515 2.28784 0
M  V30 4638 H 437.498 2.84777 -0.933919 0
M  V30 4639 H 435.059 1.48682 -0.640735 0
M  V30 4640 H 437.051 3.79169 1.41468 0
M  V30 4641 H 435.621 2.73412 1.5154 0
M  V30 4642 H 434.841 3.88118 -0.689809 0
M  V30 4643 H 436.129 5.0701 -0.426358 0
M  V30 4644 H 435.527 4.94234 2.75226 0
M  V30 4645 H 434.084 5.87165 2.82985 0
M  V30 4646 N 437.518 0.538854 1.48102 0
M  V30 4647 C 438.795 -0.0568108 1.95517 0
M  V30 4648 C 439.175 -1.50408 1.48124 0
M  V30 4649 O 438.523 -2.17133 0.711727 0
M  V30 4650 C 438.733 0.0696262 3.48931 0
M  V30 4651 C 440.081 -0.0851202 4.24515 0
M  V30 4652 O 441.105 -0.0037347 3.562 0
M  V30 4653 O 439.964 -0.257025 5.45895 0
M  V30 4654 H 437.058 -0.0743695 0.823649 0
M  V30 4655 H 439.604 0.604081 1.58584 0
M  V30 4656 H 438.376 1.07744 3.76174 0
M  V30 4657 H 437.999 -0.629714 3.92582 0
M  V30 4658 N 438.996 -1.55193 0.274407 0
M  V30 4659 C 439.944 -2.23924 -0.629362 0
M  V30 4660 C 440.938 -1.23602 -1.1584 0
M  V30 4661 O 442.144 -1.41535 -1.11211 0
M  V30 4662 H 438.519 -0.718637 -0.221507 0
M  V30 4663 H 440.49 -2.98388 -0.0268322 0
M  V30 4664 C 439.239 -2.97329 -1.80252 0
M  V30 4665 H 438.562 -3.74313 -1.40462 0
M  V30 4666 H 440.002 -3.48743 -2.41152 0
M  V30 4667 C 438.461 -2.0276 -2.69054 0
M  V30 4668 O 438.991 -1.57836 -3.69392 0
M  V30 4669 N 437.197 -1.69275 -2.36208 0
M  V30 4670 H 436.744 -2.06004 -1.54661 0
M  V30 4671 H 436.702 -1.06271 -2.95895 0
M  V30 4672 N 440.474 -0.00167713 -1.576 0
M  V30 4673 C 441.723 0.682021 -1.89819 0
M  V30 4674 C 442.036 1.74844 -0.876871 0
M  V30 4675 O 443.242 2.48688 -1.08934 0
M  V30 4676 C 441.698 1.26425 -3.36964 0
M  V30 4677 C 441.306 0.232568 -4.47396 0
M  V30 4678 C 443.05 1.92604 -3.78291 0
M  V30 4679 C 440.957 0.824882 -5.85619 0
M  V30 4680 H 439.887 0.258499 -0.708304 0
M  V30 4681 H 442.538 -0.0624957 -1.83394 0
M  V30 4682 H 440.92 2.05949 -3.38232 0
M  V30 4683 H 442.094 -0.5382 -4.57646 0
M  V30 4684 H 440.409 -0.32888 -4.15099 0
M  V30 4685 H 443.006 2.37827 -4.78897 0
M  V30 4686 H 443.349 2.75732 -3.11894 0
M  V30 4687 H 443.882 1.19812 -3.79328 0
M  V30 4688 H 440.621 0.0323542 -6.55492 0
M  V30 4689 H 440.141 1.56477 -5.79029 0
M  V30 4690 H 441.82 1.32301 -6.33329 0
M  V30 4691 N 441.952 1.55251 0.271103 0
M  V30 4692 C 443.18 1.79974 1.02064 0
M  V30 4693 C 443.595 0.574003 1.79863 0
M  V30 4694 O 442.952 -0.456962 1.76686 0
M  V30 4695 C 443.003 3.02603 1.97772 0
M  V30 4696 O 442.724 4.20443 1.23124 0
M  V30 4697 C 444.225 3.39944 2.84522 0
M  V30 4698 H 441.445 0.599489 0.301419 0
M  V30 4699 H 443.989 2.02268 0.301313 0
M  V30 4700 H 442.144 2.8243 2.65165 0
M  V30 4701 H 442.558 4.89783 1.87651 0
M  V30 4702 H 444.032 4.28915 3.47471 0
M  V30 4703 H 444.509 2.59432 3.54389 0
M  V30 4704 H 445.115 3.62383 2.22618 0
M  V30 4705 N 443.43 -0.535701 1.48216 0
M  V30 4706 C 444.676 -1.2913 1.57153 0
M  V30 4707 C 445.031 -1.90899 0.239823 0
M  V30 4708 O 444.324 -1.76022 -0.756748 0
M  V30 4709 C 444.518 -2.4068 2.64212 0
M  V30 4710 C 444.347 -1.89844 4.07663 0
M  V30 4711 C 443.117 -1.72708 4.74869 0
M  V30 4712 C 445.315 -1.43031 4.94011 0
M  V30 4713 N 443.297 -1.16437 6.02757 0
M  V30 4714 C 444.668 -0.986691 6.12098 0
M  V30 4715 C 446.723 -1.3128 4.80281 0
M  V30 4716 C 445.426 -0.437231 7.1797 0
M  V30 4717 C 447.452 -0.777346 5.86269 0
M  V30 4718 C 446.814 -0.343774 7.03561 0
M  V30 4719 H 442.913 -0.463753 0.629648 0
M  V30 4720 H 445.497 -0.604736 1.8507 0
M  V30 4721 H 443.668 -3.06839 2.38126 0
M  V30 4722 H 445.4 -3.07706 2.62867 0
M  V30 4723 H 442.155 -1.96061 4.31111 0
M  V30 4724 H 442.579 -0.903281 6.70947 0
M  V30 4725 H 447.221 -1.63408 3.89946 0
M  V30 4726 H 444.939 -0.103621 8.08034 0
M  V30 4727 H 448.525 -0.689688 5.77698 0
M  V30 4728 H 447.405 0.0641219 7.84174 0
M  V30 4729 N 444.908 -1.36708 -0.784132 0
M  V30 4730 C 446.136 -1.34398 -1.57305 0
M  V30 4731 C 446.551 0.0735577 -1.88657 0
M  V30 4732 O 445.908 1.03193 -1.50524 0
M  V30 4733 C 445.959 -2.17053 -2.89085 0
M  V30 4734 O 445.68 -3.53281 -2.59083 0
M  V30 4735 C 447.181 -2.22583 -3.83369 0
M  V30 4736 H 444.401 -0.460819 -0.487736 0
M  V30 4737 H 446.945 -1.79879 -0.972819 0
M  V30 4738 H 445.1 -1.75113 -3.45564 0
M  V30 4739 H 445.514 -3.9647 -3.43383 0
M  V30 4740 H 446.988 -2.84763 -4.72878 0
M  V30 4741 H 447.465 -1.23075 -4.21603 0
M  V30 4742 H 448.071 -2.64781 -3.32823 0
M  V30 4743 N 446.386 1.0089 -1.21074 0
M  V30 4744 C 447.349 2.0775 -0.968129 0
M  V30 4745 C 448.349 1.6069 0.0593445 0
M  V30 4746 O 449.539 1.73293 -0.177525 0
M  V30 4747 C 446.671 3.37794 -0.459108 0
M  V30 4748 H 447.864 2.30707 -1.9161 0
M  V30 4749 H 445.417 1.17807 -1.02719 0
M  V30 4750 H 446.152 3.20516 0.49397 0
M  V30 4751 H 445.937 3.7328 -1.20019 0
M  V30 4752 H 447.427 4.16454 -0.309099 0
M  V30 4753 N 447.864 1.01787 1.20321 0
M  V30 4754 C 449.28 0.732951 1.41774 0
M  V30 4755 C 449.48 -0.686883 1.89431 0
M  V30 4756 O 448.536 -1.45446 2.06402 0
M  V30 4757 C 449.849 1.75973 2.43832 0
M  V30 4758 C 451.397 1.77802 2.57596 0
M  V30 4759 C 451.872 2.7941 3.62897 0
M  V30 4760 N 453.363 2.78157 3.70382 0
M  V30 4761 C 454.098 3.53434 4.51521 0
M  V30 4762 N 453.594 4.38392 5.36455 0
M  V30 4763 N 455.387 3.42026 4.46066 0
M  V30 4764 H 447.538 1.93447 0.877035 0
M  V30 4765 H 449.801 0.835712 0.447536 0
M  V30 4766 H 449.507 2.77699 2.15815 0
M  V30 4767 H 449.381 1.57292 3.4284 0
M  V30 4768 H 451.768 0.767602 2.84942 0
M  V30 4769 H 451.849 2.00557 1.58779 0
M  V30 4770 H 451.493 3.80616 3.36295 0
M  V30 4771 H 451.423 2.53916 4.61339 0
M  V30 4772 H 453.914 2.16531 3.09714 0
M  V30 4773 H 454.227 4.92596 5.95457 0
M  V30 4774 H 452.572 4.4247 5.35953 0
M  V30 4775 H 455.763 2.75075 3.78749 0
M  V30 4776 H 455.936 4.00946 5.09064 0
M  V30 4777 N 449.342 -1.36122 0.79427 0
M  V30 4778 C 450.572 -2.03067 0.380437 0
M  V30 4779 C 450.98 -1.60018 -1.00949 0
M  V30 4780 O 450.323 -0.787425 -1.65968 0
M  V30 4781 C 450.385 -3.57587 0.37034 0
M  V30 4782 C 450.049 -4.23855 1.70867 0
M  V30 4783 C 451.046 -4.46404 2.66496 0
M  V30 4784 C 448.731 -4.61229 1.9893 0
M  V30 4785 C 450.725 -5.05412 3.88378 0
M  V30 4786 C 448.412 -5.19953 3.21079 0
M  V30 4787 C 449.41 -5.41985 4.15621 0
M  V30 4788 O 449.098 -5.99475 5.35616 0
M  V30 4789 H 448.83 -0.658168 0.154243 0
M  V30 4790 H 451.384 -1.7498 1.0757 0
M  V30 4791 H 449.614 -3.84814 -0.381444 0
M  V30 4792 H 451.303 -4.05895 -0.0194894 0
M  V30 4793 H 452.069 -4.17921 2.46103 0
M  V30 4794 H 447.948 -4.43402 1.26158 0
M  V30 4795 H 451.492 -5.22524 4.62185 0
M  V30 4796 H 447.389 -5.47862 3.41347 0
M  V30 4797 H 448.157 -6.17937 5.36745 0
M  V30 4798 N 450.82 -0.546701 -1.47814 0
M  V30 4799 C 452.068 -0.0187037 -2.02091 0
M  V30 4800 C 452.389 1.33168 -1.42447 0
M  V30 4801 O 451.659 1.86619 -0.595839 0
M  V30 4802 H 450.239 -0.00392531 -0.74699 0
M  V30 4803 H 452.901 -0.714327 -1.81338 0
M  V30 4804 H 451.997 0.0772219 -3.12004 0
M  V30 4805 N 452.299 1.55045 -0.282633 0
M  V30 4806 C 453.524 2.04628 0.337977 0
M  V30 4807 C 453.949 1.15937 1.48123 0
M  V30 4808 O 453.307 0.159532 1.80597 0
M  V30 4809 C 453.355 3.51854 0.78936 0
M  V30 4810 O 452.459 3.66236 1.89592 0
M  V30 4811 H 451.8 0.660434 0.0687261 0
M  V30 4812 H 454.33 2.00261 -0.419124 0
M  V30 4813 H 454.34 3.93361 1.08311 0
M  V30 4814 H 453.015 4.15873 -0.0470419 0
M  V30 4815 H 451.592 3.36633 1.60413 0
M  V30 4816 N 453.777 0.010035 1.57597 0
M  V30 4817 C 454.709 -1.00649 2.05918 0
M  V30 4818 C 455.722 -1.30077 0.978964 0
M  V30 4819 O 456.911 -1.26878 1.25556 0
M  V30 4820 C 454.011 -2.33876 2.45265 0
M  V30 4821 C 453.184 -2.23242 3.7614 0
M  V30 4822 C 452.243 -3.39242 4.02245 0
M  V30 4823 O 451.269 -3.1698 4.72771 0
M  V30 4824 N 452.471 -4.6242 3.50924 0
M  V30 4825 H 455.236 -0.594333 2.93748 0
M  V30 4826 H 452.797 -0.17714 1.60928 0
M  V30 4827 H 454.789 -3.1027 2.59836 0
M  V30 4828 H 453.359 -2.66799 1.62902 0
M  V30 4829 H 452.579 -1.31696 3.71551 0
M  V30 4830 H 453.867 -2.13321 4.61922 0
M  V30 4831 H 453.265 -4.83404 2.93832 0
M  V30 4832 H 451.822 -5.36046 3.70807 0
M  V30 4833 N 455.255 -1.55392 -0.262866 0
M  V30 4834 C 456.218 -1.88181 -1.30846 0
M  V30 4835 C 457.218 -0.757079 -1.41862 0
M  V30 4836 O 458.408 -1.02519 -1.40838 0
M  V30 4837 C 455.54 -2.09609 -2.68844 0
M  V30 4838 H 456.733 -2.81659 -1.02997 0
M  V30 4839 H 454.286 -1.48039 -0.501414 0
M  V30 4840 H 455.021 -1.18547 -3.01856 0
M  V30 4841 H 454.806 -2.91508 -2.62231 0
M  V30 4842 H 456.296 -2.36215 -3.44372 0
M  V30 4843 N 456.733 0.527833 -1.48498 0
M  V30 4844 C 457.981 1.28101 -1.56316 0
M  V30 4845 C 458.302 1.9352 -0.239781 0
M  V30 4846 O 457.572 1.81433 0.738849 0
M  V30 4847 H 456.152 0.475793 -0.575873 0
M  V30 4848 H 458.814 0.614052 -1.84974 0
M  V30 4849 H 457.91 2.05916 -2.34532 0
M  V30 4850 N 458.211 1.37122 0.776871 0
M  V30 4851 C 459.488 1.22586 1.52421 0
M  V30 4852 C 459.868 -0.182726 2.10308 0
M  V30 4853 O 459.216 -1.18979 1.9508 0
M  V30 4854 C 459.426 2.31782 2.60918 0
M  V30 4855 C 460.774 2.69071 3.2846 0
M  V30 4856 O 461.798 2.3092 2.71209 0
M  V30 4857 O 460.657 3.3478 4.31954 0
M  V30 4858 H 457.751 0.478045 0.674835 0
M  V30 4859 H 460.297 1.48888 0.814275 0
M  V30 4860 H 459.069 3.26131 2.16227 0
M  V30 4861 H 458.692 2.06916 3.39517 0
M  V30 4862 N 459.689 -1.00246 1.21608 0
M  V30 4863 C 460.938 -1.73476 1.02902 0
M  V30 4864 C 461.251 -1.90643 -0.437561 0
M  V30 4865 O 462.457 -2.61105 -0.74407 0
M  V30 4866 C 460.913 -3.12079 1.79261 0
M  V30 4867 C 460.521 -3.02877 3.30106 0
M  V30 4868 C 462.265 -3.89421 1.68972 0
M  V30 4869 C 460.172 -4.36575 3.98944 0
M  V30 4870 H 459.102 -0.650408 0.381425 0
M  V30 4871 H 461.753 -1.11985 1.45367 0
M  V30 4872 H 460.135 -3.74196 1.2959 0
M  V30 4873 H 461.309 -2.49983 3.87098 0
M  V30 4874 H 459.624 -2.39022 3.40965 0
M  V30 4875 H 462.221 -4.88362 2.17731 0
M  V30 4876 H 462.564 -4.1122 0.648397 0
M  V30 4877 H 463.097 -3.33963 2.16133 0
M  V30 4878 H 459.836 -4.19978 5.03288 0
M  V30 4879 H 459.356 -4.8942 3.4674 0
M  V30 4880 H 461.035 -5.05364 4.04 0
M  V30 4881 N 461.167 -1.02423 -1.1978 0
M  V30 4882 C 462.583 -0.740459 -1.41384 0
M  V30 4883 C 462.783 0.676827 -1.89793 0
M  V30 4884 O 461.839 1.4435 -2.0717 0
M  V30 4885 C 463.152 -1.77264 -2.42895 0
M  V30 4886 C 464.7 -1.79165 -2.56649 0
M  V30 4887 C 465.175 -2.8133 -3.6141 0
M  V30 4888 N 466.666 -2.80118 -3.68901 0
M  V30 4889 C 467.401 -3.55824 -4.49641 0
M  V30 4890 N 466.897 -4.41231 -5.34123 0
M  V30 4891 N 468.69 -3.44387 -4.44246 0
M  V30 4892 H 460.841 -1.9391 -0.866764 0
M  V30 4893 H 463.104 -0.838074 -0.443098 0
M  V30 4894 H 462.81 -2.7884 -2.14339 0
M  V30 4895 H 462.684 -1.59108 -3.42001 0
M  V30 4896 H 465.071 -0.782702 -2.84531 0
M  V30 4897 H 465.152 -2.01396 -1.57713 0
M  V30 4898 H 464.796 -3.82394 -3.34271 0
M  V30 4899 H 464.726 -2.56359 -4.59986 0
M  V30 4900 H 467.217 -2.1817 -3.08562 0
M  V30 4901 H 467.53 -4.95747 -5.92836 0
M  V30 4902 H 465.875 -4.45306 -5.33599 0
M  V30 4903 H 469.066 -2.7708 -3.77285 0
M  V30 4904 H 469.239 -4.0364 -5.06931 0
M  V30 4905 N 462.645 1.35699 -0.801477 0
M  V30 4906 C 464.056 1.81415 -0.441073 0
M  V30 4907 C 464.407 1.66595 1.03636 0
M  V30 4908 O 463.532 1.19369 1.80499 0
M  V30 4909 C 464.127 3.29369 -0.793819 0
M  V30 4910 C 462.686 3.73248 -0.486083 0
M  V30 4911 C 461.833 2.57775 -1.02213 0
M  V30 4912 H 464.784 1.23749 -0.993572 0
M  V30 4913 H 464.805 3.80395 -0.0894158 0
M  V30 4914 H 464.317 3.40123 -1.86917 0
M  V30 4915 H 462.418 3.68046 0.580735 0
M  V30 4916 H 462.531 4.68222 -1.01513 0
M  V30 4917 H 460.895 2.50788 -0.444712 0
M  V30 4918 H 461.678 2.71309 -2.10348 0
M  V30 4919 N 464.123 0.554532 1.47522 0
M  V30 4920 C 465.086 -0.184174 2.28459 0
M  V30 4921 C 466.086 -0.845195 1.36796 0
M  V30 4922 O 467.276 -0.701467 1.59452 0
M  V30 4923 C 464.408 -1.26903 3.16399 0
M  V30 4924 H 465.601 0.526751 2.95238 0
M  V30 4925 H 463.154 0.311375 1.53167 0
M  V30 4926 H 463.889 -2.01244 2.54306 0
M  V30 4927 H 463.674 -0.799883 3.83854 0
M  V30 4928 H 465.164 -1.78794 3.77389 0
M  V30 4929 N 465.601 -1.54893 0.290851 0
M  V30 4930 C 466.511 -2.26812 -0.59945 0
M  V30 4931 C 467.527 -1.29963 -1.15696 0
M  V30 4932 O 468.703 -1.62928 -1.18391 0
M  V30 4933 C 465.768 -2.98716 -1.75982 0
M  V30 4934 C 464.829 -4.1108 -1.2374 0
M  V30 4935 C 464.062 -4.79546 -2.34246 0
M  V30 4936 O 464.285 -4.47309 -3.53936 0
M  V30 4937 O 463.219 -5.67165 -2.01512 0
M  V30 4938 H 467.045 -3.03696 -0.0163561 0
M  V30 4939 H 464.63 -1.49289 0.0576755 0
M  V30 4940 H 466.512 -3.43851 -2.43607 0
M  V30 4941 H 465.187 -2.24737 -2.3297 0
M  V30 4942 H 464.094 -3.70367 -0.527163 0
M  V30 4943 H 465.427 -4.87007 -0.71307 0
M  V30 4944 N 467.08 -0.0183926 -1.57589 0
M  V30 4945 C 468.326 0.663543 -1.91638 0
M  V30 4946 C 468.659 1.72392 -0.894134 0
M  V30 4947 O 467.934 1.94316 0.0846449 0
M  V30 4948 C 468.217 1.28984 -3.36207 0
M  V30 4949 C 468.07 0.239761 -4.49161 0
M  V30 4950 C 469.389 2.2109 -3.80536 0
M  V30 4951 H 466.508 0.239746 -0.696915 0
M  V30 4952 H 469.15 -0.073456 -1.89858 0
M  V30 4953 H 467.3 1.91799 -3.37854 0
M  V30 4954 H 468.972 -0.390119 -4.59647 0
M  V30 4955 H 467.215 -0.435972 -4.31604 0
M  V30 4956 H 467.886 0.717383 -5.47319 0
M  V30 4957 H 470.362 1.68273 -3.80557 0
M  V30 4958 H 469.238 2.61869 -4.82406 0
M  V30 4959 H 469.499 3.09764 -3.15434 0
M  V30 4960 N 468.558 1.5553 0.254621 0
M  V30 4961 C 469.49 1.86104 1.33783 0
M  V30 4962 C 470.503 0.746752 1.44663 0
M  V30 4963 O 471.692 1.0248 1.46151 0
M  V30 4964 C 468.792 2.02532 2.71724 0
M  V30 4965 C 467.965 3.33335 2.83208 0
M  V30 4966 C 467.024 3.396 4.01943 0
M  V30 4967 O 466.05 4.12862 3.91834 0
M  V30 4968 N 467.252 2.68332 5.1476 0
M  V30 4969 H 470.017 2.79605 1.07893 0
M  V30 4970 H 467.578 1.55672 0.444732 0
M  V30 4971 H 469.57 2.04074 3.4948 0
M  V30 4972 H 468.14 1.15811 2.90356 0
M  V30 4973 H 467.36 3.44176 1.92189 0
M  V30 4974 H 468.648 4.19565 2.87824 0
M  V30 4975 H 468.046 2.08528 5.25864 0
M  V30 4976 H 466.603 2.75575 5.90679 0
M  V30 4977 N 470.036 -0.519951 1.48776 0
M  V30 4978 C 470.968 -1.63973 1.60142 0
M  V30 4979 C 471.981 -1.55404 0.485117 0
M  V30 4980 O 473.17 -1.61682 0.756391 0
M  V30 4981 C 470.27 -3.02676 1.52449 0
M  V30 4982 C 469.443 -3.36624 2.79291 0
M  V30 4983 C 468.502 -4.54652 2.64912 0
M  V30 4984 O 467.528 -4.57374 3.38818 0
M  V30 4985 N 468.73 -5.53432 1.75195 0
M  V30 4986 H 471.495 -1.54656 2.56713 0
M  V30 4987 H 469.056 -0.707439 1.45626 0
M  V30 4988 H 471.048 -3.79525 1.4051 0
M  V30 4989 H 469.618 -3.06018 0.638125 0
M  V30 4990 H 468.838 -2.48855 3.0572 0
M  V30 4991 H 470.126 -3.56094 3.6342 0
M  V30 4992 H 469.524 -5.54018 1.14371 0
M  V30 4993 H 468.081 -6.29459 1.69189 0
M  V30 4994 N 471.514 -1.37532 -0.769588 0
M  V30 4995 C 472.424 -1.35668 -1.91393 0
M  V30 4996 C 473.44 -0.255954 -1.72107 0
M  V30 4997 O 474.616 -0.491704 -1.95305 0
M  V30 4998 C 471.681 -1.16481 -3.26547 0
M  V30 4999 C 470.742 -2.36212 -3.58472 0
M  V30 5000 C 469.975 -2.17932 -4.87177 0
M  V30 5001 O 470.198 -1.1647 -5.58382 0
M  V30 5002 O 469.132 -3.06167 -5.18214 0
M  V30 5003 H 472.958 -2.32055 -1.95918 0
M  V30 5004 H 470.543 -1.18284 -0.912641 0
M  V30 5005 H 472.425 -1.07778 -4.07384 0
M  V30 5006 H 471.1 -0.231687 -3.2287 0
M  V30 5007 H 470.007 -2.50488 -2.77861 0
M  V30 5008 H 471.34 -3.281 -3.66894 0
M  V30 5009 N 472.992 0.995999 -1.22138 0
M  V30 5010 C 474.238 1.73767 -1.04561 0
M  V30 5011 C 474.571 1.89633 0.418698 0
M  V30 5012 O 473.846 1.43723 1.3105 0
M  V30 5013 C 474.129 3.14505 -1.75382 0
M  V30 5014 C 473.982 3.06306 -3.29388 0
M  V30 5015 C 475.301 4.13615 -1.50369 0
M  V30 5016 H 472.42 0.630728 -0.38125 0
M  V30 5017 H 475.062 1.16057 -1.50435 0
M  V30 5018 H 473.212 3.63775 -1.36383 0
M  V30 5019 H 474.884 2.64681 -3.77812 0
M  V30 5020 H 473.127 2.43186 -3.59226 0
M  V30 5021 H 473.798 4.05884 -3.74116 0
M  V30 5022 H 476.274 3.73089 -1.84239 0
M  V30 5023 H 475.15 5.10212 -2.02421 0
M  V30 5024 H 475.411 4.39949 -0.435611 0
M  V30 5025 N 474.47 1.03057 1.19235 0
M  V30 5026 C 475.716 0.729098 1.89241 0
M  V30 5027 C 476.049 -0.740573 1.79525 0
M  V30 5028 O 475.324 -1.53946 1.18874 0
M  V30 5029 C 475.607 1.18304 3.40112 0
M  V30 5030 C 475.46 2.71406 3.5869 0
M  V30 5031 C 476.779 0.765161 4.33397 0
M  V30 5032 H 473.898 0.266338 0.687192 0
M  V30 5033 H 476.54 1.28079 1.40341 0
M  V30 5034 H 474.69 0.713672 3.81889 0
M  V30 5035 H 476.362 3.26303 3.26074 0
M  V30 5036 H 474.605 3.11717 3.01687 0
M  V30 5037 H 475.276 2.98225 4.64506 0
M  V30 5038 H 477.752 1.16889 3.99345 0
M  V30 5039 H 476.628 1.11065 5.37546 0
M  V30 5040 H 476.889 -0.332372 4.40849 0
M  V30 5041 N 475.948 -1.35272 0.808662 0
M  V30 5042 C 477.194 -1.99003 0.390581 0
M  V30 5043 C 477.527 -1.63999 -1.0401 0
M  V30 5044 O 476.802 -0.904368 -1.72196 0
M  V30 5045 C 477.085 -3.55454 0.576566 0
M  V30 5046 C 476.938 -4.00249 2.05233 0
M  V30 5047 C 478.257 -4.401 0.00354277 0
M  V30 5048 H 475.376 -0.722917 0.143388 0
M  V30 5049 H 478.018 -1.6039 1.01858 0
M  V30 5050 H 476.168 -3.88477 0.0419766 0
M  V30 5051 H 477.84 -3.77626 2.64946 0
M  V30 5052 H 476.083 -3.51082 2.54801 0
M  V30 5053 H 476.754 -5.0911 2.13333 0
M  V30 5054 H 479.23 -4.13548 0.460117 0
M  V30 5055 H 478.106 -5.48656 0.163575 0
M  V30 5056 H 478.367 -4.28444 -1.09032 0
M  V30 5057 N 477.426 -0.562348 -1.47226 0
M  V30 5058 C 478.651 -0.0432632 -2.07355 0
M  V30 5059 C 479.076 1.24332 -1.41149 0
M  V30 5060 O 478.434 1.74603 -0.488226 0
M  V30 5061 C 478.482 0.130288 -3.60365 0
M  V30 5062 O 477.586 1.19166 -3.94808 0
M  V30 5063 H 476.927 -0.0536334 -0.66183 0
M  V30 5064 H 479.457 -0.779495 -1.89169 0
M  V30 5065 H 479.467 0.342881 -4.06557 0
M  V30 5066 H 478.142 -0.809389 -4.07948 0
M  V30 5067 H 476.719 0.959153 -3.60354 0
M  V30 5068 N 478.904 1.54736 -0.299062 0
M  V30 5069 C 480.134 2.04215 0.312992 0
M  V30 5070 C 480.542 1.17596 1.48215 0
M  V30 5071 O 479.885 0.193835 1.82674 0
M  V30 5072 C 479.947 3.49696 0.833862 0
M  V30 5073 C 479.611 4.56518 -0.20977 0
M  V30 5074 C 480.608 5.09442 -1.03756 0
M  V30 5075 C 478.293 5.01073 -0.35091 0
M  V30 5076 C 480.287 6.05459 -1.99244 0
M  V30 5077 C 477.974 5.9691 -1.30924 0
M  V30 5078 C 478.972 6.48987 -2.1285 0
M  V30 5079 O 478.66 7.42947 -3.07059 0
M  V30 5080 H 478.392 0.672128 0.0722494 0
M  V30 5081 H 480.946 2.00718 -0.436043 0
M  V30 5082 H 479.176 3.5051 1.63339 0
M  V30 5083 H 480.865 3.82381 1.36159 0
M  V30 5084 H 481.631 4.75816 -0.939376 0
M  V30 5085 H 477.51 4.60168 0.276813 0
M  V30 5086 H 481.054 6.46031 -2.63229 0
M  V30 5087 H 476.951 6.29953 -1.40815 0
M  V30 5088 H 477.719 7.60743 -3.02015 0
M  V30 5089 N 480.382 0.0267497 1.57577 0
M  V30 5090 C 481.312 -0.954308 2.13108 0
M  V30 5091 C 482.293 -1.34088 1.04663 0
M  V30 5092 O 483.478 -1.41992 1.32484 0
M  V30 5093 C 480.608 -2.23744 2.65624 0
M  V30 5094 C 479.562 -1.99168 3.78835 0
M  V30 5095 C 478.888 -3.33726 4.17769 0
M  V30 5096 C 480.188 -1.33277 5.0501 0
M  V30 5097 H 481.882 -0.491848 2.95332 0
M  V30 5098 H 479.428 -0.23514 1.42067 0
M  V30 5099 H 481.381 -2.92754 3.03106 0
M  V30 5100 H 480.105 -2.72151 1.80558 0
M  V30 5101 H 478.764 -1.32577 3.41788 0
M  V30 5102 H 478.412 -3.79888 3.29688 0
M  V30 5103 H 478.112 -3.18089 4.94058 0
M  V30 5104 H 479.636 -4.04008 4.57832 0
M  V30 5105 H 481.05 -1.92283 5.40093 0
M  V30 5106 H 479.447 -1.28045 5.8628 0
M  V30 5107 H 480.517 -0.305411 4.83937 0
M  V30 5108 N 481.861 -1.55662 -0.24637 0
M  V30 5109 C 483.272 -1.67953 -0.81539 0
M  V30 5110 C 483.623 -0.624302 -1.86002 0
M  V30 5111 O 482.748 0.229328 -2.15181 0
M  V30 5112 C 483.343 -3.04484 -1.48576 0
M  V30 5113 C 481.902 -3.18713 -2.00248 0
M  V30 5114 C 481.049 -2.6383 -0.853766 0
M  V30 5115 H 484 -1.58685 -0.0221692 0
M  V30 5116 H 484.021 -2.98959 -2.3538 0
M  V30 5117 H 483.533 -3.81264 -0.725222 0
M  V30 5118 H 481.634 -2.46757 -2.79181 0
M  V30 5119 H 481.747 -4.25628 -2.1995 0
M  V30 5120 H 480.111 -2.21667 -1.25442 0
M  V30 5121 H 480.894 -3.43135 -0.106302 0
M  V30 5122 N 483.339 0.512053 -1.4905 0
M  V30 5123 C 484.269 1.62365 -1.67809 0
M  V30 5124 C 485.25 1.61737 -0.526809 0
M  V30 5125 O 486.435 1.78651 -0.761404 0
M  V30 5126 C 483.565 3.00895 -1.73435 0
M  V30 5127 C 482.519 3.16387 -2.88242 0
M  V30 5128 C 481.845 4.56157 -2.78971 0
M  V30 5129 C 483.145 2.97457 -4.29321 0
M  V30 5130 H 484.839 1.46921 -2.60873 0
M  V30 5131 H 482.385 0.705379 -1.2554 0
M  V30 5132 H 484.338 3.78549 -1.85145 0
M  V30 5133 H 483.062 3.17403 -0.769619 0
M  V30 5134 H 481.721 2.41155 -2.76116 0
M  V30 5135 H 481.369 4.69525 -1.8043 0
M  V30 5136 H 481.069 4.67465 -3.5602 0
M  V30 5137 H 482.593 5.35886 -2.92675 0
M  V30 5138 H 484.007 3.64888 -4.42187 0
M  V30 5139 H 482.404 3.20245 -5.07507 0
M  V30 5140 H 483.474 1.93692 -4.44535 0
M  V30 5141 N 484.817 1.37938 0.762283 0
M  V30 5142 C 486.042 1.37059 1.55659 0
M  V30 5143 C 486.467 -0.0396123 1.88058 0
M  V30 5144 O 485.825 -1.01929 1.49934 0
M  V30 5145 C 485.873 2.22494 2.83776 0
M  V30 5146 O 484.977 1.63607 3.78559 0
M  V30 5147 H 484.318 0.467892 0.47114 0
M  V30 5148 H 486.848 1.81587 0.942725 0
M  V30 5149 H 486.858 2.36045 3.32786 0
M  V30 5150 H 485.533 3.24993 2.59524 0
M  V30 5151 H 484.11 1.5915 3.37233 0
M  V30 5152 N 486.295 -0.989507 1.22664 0
M  V30 5153 C 487.245 -2.06478 0.967005 0
M  V30 5154 C 488.229 -1.60682 -0.0836374 0
M  V30 5155 O 489.421 -1.76541 0.127322 0
M  V30 5156 C 486.55 -3.38861 0.550313 0
M  V30 5157 C 485.636 -3.9128 1.63587 0
M  V30 5158 N 486.027 -4.16884 2.86429 0
M  V30 5159 C 484.325 -4.1972 1.50834 0
M  V30 5160 C 485.026 -4.5954 3.56648 0
M  V30 5161 N 484.002 -4.63434 2.84131 0
M  V30 5162 H 487.804 -2.24219 1.90008 0
M  V30 5163 H 485.318 -1.17153 1.12467 0
M  V30 5164 H 487.315 -4.15465 0.345612 0
M  V30 5165 H 485.975 -3.22518 -0.375822 0
M  V30 5166 H 486.986 -4.04976 3.22823 0
M  V30 5167 H 483.663 -4.1243 0.648643 0
M  V30 5168 H 485.053 -4.87944 4.61909 0
M  V30 5169 N 487.773 -1.03688 -1.18687 0
M  V30 5170 C 489.022 -0.733235 -1.879 0
M  V30 5171 C 489.335 0.741745 -1.8099 0
M  V30 5172 O 490.541 1.15875 -2.4553 0
M  V30 5173 C 488.997 -1.26127 -3.37076 0
M  V30 5174 C 488.605 -2.76461 -3.52524 0
M  V30 5175 C 490.349 -1.03398 -4.11715 0
M  V30 5176 C 488.256 -3.22642 -4.95637 0
M  V30 5177 H 487.186 -0.270584 -0.703776 0
M  V30 5178 H 489.837 -1.25222 -1.34133 0
M  V30 5179 H 488.219 -0.670165 -3.90288 0
M  V30 5180 H 489.393 -3.41296 -3.09602 0
M  V30 5181 H 487.708 -2.97559 -2.91286 0
M  V30 5182 H 490.305 -1.3542 -5.17267 0
M  V30 5183 H 490.648 0.0289246 -4.1629 0
M  V30 5184 H 491.181 -1.5895 -3.64664 0
M  V30 5185 H 487.92 -4.28296 -4.96228 0
M  V30 5186 H 487.44 -2.62539 -5.39289 0
M  V30 5187 H 489.119 -3.16444 -5.64333 0
M  V30 5188 N 489.251 1.34841 -0.815825 0
M  V30 5189 C 490.214 2.27959 -0.238185 0
M  V30 5190 C 491.214 1.49983 0.579816 0
M  V30 5191 O 492.404 1.69617 0.396953 0
M  V30 5192 C 489.536 3.34314 0.666876 0
M  V30 5193 H 490.729 2.80558 -1.05958 0
M  V30 5194 H 488.282 1.44852 -0.587156 0
M  V30 5195 H 489.017 2.86916 1.5116 0
M  V30 5196 H 488.802 3.92014 0.0819106 0
M  V30 5197 H 490.292 4.0379 1.06506 0
M  V30 5198 N 490.729 0.570148 1.46925 0
M  V30 5199 C 491.692 -0.159933 2.28641 0
M  V30 5200 C 492.692 -0.830638 1.37685 0
M  V30 5201 O 493.882 -0.684516 1.60187 0
M  V30 5202 C 491.014 -1.2354 3.17727 0
M  V30 5203 H 492.207 0.558035 2.94662 0
M  V30 5204 H 489.76 0.327603 1.52828 0
M  V30 5205 H 490.495 -1.98535 2.56426 0
M  V30 5206 H 490.28 -0.759125 3.84681 0
M  V30 5207 H 491.77 -1.74782 3.79264 0
M  V30 5208 N 492.207 -1.54576 0.307264 0
M  V30 5209 C 493.139 -2.21212 -0.599807 0
M  V30 5210 C 494.152 -1.20685 -1.09266 0
M  V30 5211 O 495.341 -1.47244 -1.00903 0
M  V30 5212 C 492.441 -2.84994 -1.83389 0
M  V30 5213 C 491.614 -4.11511 -1.48248 0
M  V30 5214 C 490.673 -4.59038 -2.57237 0
M  V30 5215 O 489.699 -5.24095 -2.22065 0
M  V30 5216 N 490.901 -4.31884 -3.87887 0
M  V30 5217 H 493.666 -2.99686 -0.0293075 0
M  V30 5218 H 491.227 -1.61379 0.129738 0
M  V30 5219 H 493.219 -3.1372 -2.5566 0
M  V30 5220 H 491.789 -2.10324 -2.31263 0
M  V30 5221 H 491.009 -3.89728 -0.592122 0
M  V30 5222 H 492.297 -4.93879 -1.22316 0
M  V30 5223 H 491.695 -3.79778 -4.19268 0
M  V30 5224 H 490.252 -4.65304 -4.56438 0
M  V30 5225 N 493.685 -0.035106 -1.57561 0
M  V30 5226 C 494.934 0.641604 -1.91223 0
M  V30 5227 C 495.247 1.72944 -0.913761 0
M  V30 5228 O 496.453 2.46321 -1.14185 0
M  V30 5229 C 494.909 1.19249 -3.3957 0
M  V30 5230 C 494.517 0.137616 -4.47789 0
M  V30 5231 C 496.261 1.84537 -3.82291 0
M  V30 5232 C 494.168 0.700478 -5.87237 0
M  V30 5233 H 493.098 0.243417 -0.713627 0
M  V30 5234 H 495.749 -0.101382 -1.8322 0
M  V30 5235 H 494.131 1.98728 -3.42525 0
M  V30 5236 H 495.305 -0.635153 -4.56402 0
M  V30 5237 H 493.62 -0.416855 -4.14308 0
M  V30 5238 H 496.217 2.27616 -4.83834 0
M  V30 5239 H 496.56 2.69054 -3.17672 0
M  V30 5240 H 497.093 1.11739 -3.81784 0
M  V30 5241 H 493.832 -0.106693 -6.55413 0
M  V30 5242 H 493.352 1.4416 -5.82218 0
M  V30 5243 H 495.031 1.18837 -6.35993 0
M  V30 5244 N 495.163 1.55791 0.238111 0
M  V30 5245 C 496.393 1.81834 0.980809 0
M  V30 5246 C 496.801 0.609741 1.79106 0
M  V30 5247 O 496.144 -0.431073 1.78571 0
M  V30 5248 C 496.206 3.01363 1.96011 0
M  V30 5249 C 495.87 4.37037 1.33597 0
M  V30 5250 C 496.867 5.14692 0.734063 0
M  V30 5251 C 494.552 4.83743 1.3527 0
M  V30 5252 C 496.546 6.37206 0.157208 0
M  V30 5253 C 494.233 6.06204 0.77199 0
M  V30 5254 C 495.231 6.82775 0.175282 0
M  V30 5255 O 494.919 8.02922 -0.396432 0
M  V30 5256 H 494.651 0.6088 0.293834 0
M  V30 5257 H 497.205 2.03702 0.263552 0
M  V30 5258 H 495.435 2.75273 2.71591 0
M  V30 5259 H 497.124 3.14422 2.56697 0
M  V30 5260 H 497.89 4.79722 0.713582 0
M  V30 5261 H 493.769 4.24129 1.80653 0
M  V30 5262 H 497.313 6.96915 -0.30917 0
M  V30 5263 H 493.21 6.4065 0.789828 0
M  V30 5264 H 493.978 8.17989 -0.289145 0
M  V30 5265 N 496.642 -0.504142 1.49319 0
M  V30 5266 C 497.919 -1.26548 1.49147 0
M  V30 5267 C 498.299 -2.09977 0.21744 0
M  V30 5268 O 497.647 -2.14028 -0.800269 0
M  V30 5269 C 497.857 -2.12489 2.76857 0
M  V30 5270 C 499.205 -2.7178 3.26222 0
M  V30 5271 O 500.229 -2.22758 2.77952 0
M  V30 5272 O 499.088 -3.61015 4.10281 0
M  V30 5273 H 496.182 -0.572495 0.596806 0
M  V30 5274 H 498.728 -0.51867 1.61579 0
M  V30 5275 H 497.5 -1.50796 3.61077 0
M  V30 5276 H 497.123 -2.94368 2.6727 0
M  V30 5277 N 498.12 -1.38341 -0.754957 0
M  V30 5278 C 499.05 -1.38176 -1.88227 0
M  V30 5279 C 500.031 -0.247873 -1.68284 0
M  V30 5280 O 501.216 -0.45075 -1.88896 0
M  V30 5281 C 498.346 -1.20471 -3.25736 0
M  V30 5282 C 497.3 -2.3105 -3.60278 0
M  V30 5283 C 496.626 -1.98452 -4.96509 0
M  V30 5284 C 497.926 -3.73305 -3.65295 0
M  V30 5285 H 499.62 -2.32512 -1.88622 0
M  V30 5286 H 497.166 -1.1192 -0.906082 0
M  V30 5287 H 499.119 -1.18982 -4.04254 0
M  V30 5288 H 497.843 -0.225965 -3.25817 0
M  V30 5289 H 496.502 -2.31723 -2.84078 0
M  V30 5290 H 496.15 -0.990641 -4.93148 0
M  V30 5291 H 495.85 -2.7251 -5.20588 0
M  V30 5292 H 497.374 -1.98578 -5.77407 0
M  V30 5293 H 498.788 -3.7467 -4.3393 0
M  V30 5294 H 497.185 -4.46557 -4.00883 0
M  V30 5295 H 498.255 -4.05719 -2.65556 0
M  V30 5296 N 499.598 0.982988 -1.23187 0
M  V30 5297 C 500.844 1.7273 -1.07405 0
M  V30 5298 C 501.199 1.885 0.385447 0
M  V30 5299 O 500.492 1.4243 1.28157 0
M  V30 5300 C 500.686 3.12736 -1.73006 0
M  V30 5301 C 500.515 3.10621 -3.25184 0
M  V30 5302 C 499.285 3.15957 -3.94334 0
M  V30 5303 C 501.483 2.93992 -4.21987 0
M  V30 5304 N 499.465 3.03701 -5.33516 0
M  V30 5305 C 500.836 2.8987 -5.48065 0
M  V30 5306 C 502.891 2.78457 -4.12754 0
M  V30 5307 C 501.594 2.71804 -6.65969 0
M  V30 5308 C 503.62 2.61754 -5.30319 0
M  V30 5309 C 502.982 2.58328 -6.55321 0
M  V30 5310 H 499.081 0.641279 -0.447533 0
M  V30 5311 H 501.665 1.16664 -1.55877 0
M  V30 5312 H 499.836 3.67026 -1.2707 0
M  V30 5313 H 501.568 3.75786 -1.50224 0
M  V30 5314 H 498.323 3.24034 -3.45397 0
M  V30 5315 H 498.747 3.00855 -6.06478 0
M  V30 5316 H 503.389 2.79898 -3.16886 0
M  V30 5317 H 501.107 2.69108 -7.61975 0
M  V30 5318 H 504.693 2.50702 -5.25014 0
M  V30 5319 H 503.573 2.45564 -7.4476 0
M  V30 5320 N 501.076 1.04316 1.18135 0
M  V30 5321 C 502.304 0.768117 1.92113 0
M  V30 5322 C 502.719 -0.675057 1.76319 0
M  V30 5323 O 502.076 -1.46038 1.09449 0
M  V30 5324 C 502.127 1.12808 3.43448 0
M  V30 5325 O 501.848 2.5146 3.58747 0
M  V30 5326 C 503.349 0.8779 4.3452 0
M  V30 5327 H 500.569 0.279937 0.609817 0
M  V30 5328 H 503.113 1.39149 1.49859 0
M  V30 5329 H 501.268 0.549623 3.83481 0
M  V30 5330 H 501.682 2.65313 4.52448 0
M  V30 5331 H 503.156 1.17959 5.39249 0
M  V30 5332 H 503.633 -0.187239 4.38801 0
M  V30 5333 H 504.239 1.43977 4.00188 0
M  V30 5334 N 502.554 -1.34406 0.822964 0
M  V30 5335 C 503.802 -1.97892 0.410245 0
M  V30 5336 C 504.123 -1.65567 -1.03017 0
M  V30 5337 O 503.393 -0.94642 -1.71522 0
M  V30 5338 H 501.973 -0.732049 0.148707 0
M  V30 5339 H 504.635 -1.64043 1.05242 0
M  V30 5340 H 503.731 -3.07579 0.529284 0
M  V30 5341 N 504.032 -0.577932 -1.46621 0
M  V30 5342 C 505.281 -0.0594281 -2.01612 0
M  V30 5343 C 505.594 1.30663 -1.45556 0
M  V30 5344 O 506.8 1.91621 -1.92337 0
M  V30 5345 C 505.256 -0.0556666 -3.59857 0
M  V30 5346 C 504.864 -1.41975 -4.24908 0
M  V30 5347 C 506.608 0.409143 -4.22524 0
M  V30 5348 C 504.515 -1.37397 -5.75218 0
M  V30 5349 H 503.445 -0.0184469 -0.753774 0
M  V30 5350 H 506.096 -0.728869 -1.68404 0
M  V30 5351 H 504.478 0.679843 -3.90121 0
M  V30 5352 H 505.652 -2.17461 -4.0626 0
M  V30 5353 H 503.967 -1.82419 -3.74316 0
M  V30 5354 H 506.564 0.46211 -5.32699 0
M  V30 5355 H 506.907 1.42565 -3.91128 0
M  V30 5356 H 507.44 -0.272152 -3.96868 0
M  V30 5357 H 504.179 -2.36714 -6.11267 0
M  V30 5358 H 503.699 -0.661239 -5.96144 0
M  V30 5359 H 505.378 -1.08484 -6.3784 0
M  V30 5360 N 505.51 1.54411 -0.315457 0
M  V30 5361 C 506.442 2.21527 0.588067 0
M  V30 5362 C 507.455 1.21263 1.08624 0
M  V30 5363 O 508.644 1.47777 1.00121 0
M  V30 5364 C 505.744 2.85963 1.81875 0
M  V30 5365 C 504.917 4.12291 1.46063 0
M  V30 5366 C 503.976 4.60396 2.54799 0
M  V30 5367 O 503.002 5.25265 2.19283 0
M  V30 5368 N 504.204 4.33935 3.85591 0
M  V30 5369 H 506.969 2.99697 0.013414 0
M  V30 5370 H 504.53 1.61308 -0.138295 0
M  V30 5371 H 506.522 3.15071 2.53993 0
M  V30 5372 H 505.092 2.11548 2.30144 0
M  V30 5373 H 504.312 3.90036 0.571445 0
M  V30 5374 H 505.6 4.9452 1.19695 0
M  V30 5375 H 504.998 3.81996 4.17248 0
M  V30 5376 H 503.555 4.67718 4.53964 0
M  V30 5377 N 506.988 0.0434614 1.5754 0
M  V30 5378 C 508.234 -0.627109 1.93491 0
M  V30 5379 C 508.589 -1.68904 0.921362 0
M  V30 5380 O 507.882 -1.91504 -0.0605799 0
M  V30 5381 C 508.076 -1.2738 3.3393 0
M  V30 5382 C 507.905 -0.27603 4.48852 0
M  V30 5383 C 506.675 0.129244 5.05135 0
M  V30 5384 C 508.873 0.475462 5.12098 0
M  V30 5385 N 506.855 1.12068 6.03584 0
M  V30 5386 C 508.226 1.32021 6.05781 0
M  V30 5387 C 510.281 0.534611 4.95022 0
M  V30 5388 C 508.984 2.2188 6.84223 0
M  V30 5389 C 511.01 1.42059 5.74085 0
M  V30 5390 C 510.372 2.25309 6.67394 0
M  V30 5391 H 506.471 -0.201354 0.755633 0
M  V30 5392 H 509.055 0.113991 1.94366 0
M  V30 5393 H 507.226 -1.98496 3.33847 0
M  V30 5394 H 508.958 -1.90255 3.57191 0
M  V30 5395 H 505.713 -0.248145 4.72949 0
M  V30 5396 H 506.137 1.61306 6.57502 0
M  V30 5397 H 510.779 -0.0947817 4.22694 0
M  V30 5398 H 508.497 2.85868 7.55847 0
M  V30 5399 H 512.083 1.47083 5.62901 0
M  V30 5400 H 510.963 2.92754 7.27506 0
M  V30 5401 N 508.466 -1.55915 -0.229846 0
M  V30 5402 C 509.714 -1.7819 -0.953565 0
M  V30 5403 C 510.035 -0.610504 -1.85197 0
M  V30 5404 O 509.305 0.372988 -1.92316 0
M  V30 5405 H 507.885 -0.657208 -0.355087 0
M  V30 5406 H 510.547 -1.9337 -0.243693 0
M  V30 5407 H 509.643 -2.70011 -1.56527 0
M  V30 5408 N 509.944 0.496216 -1.49584 0
M  V30 5409 C 510.907 1.57952 -1.66084 0
M  V30 5410 C 511.907 1.51729 -0.53244 0
M  V30 5411 O 513.097 1.54796 -0.79899 0
M  V30 5412 C 510.229 2.97604 -1.66268 0
M  V30 5413 H 511.422 1.44649 -2.6271 0
M  V30 5414 H 508.975 0.7208 -1.38687 0
M  V30 5415 H 509.71 3.16378 -0.712432 0
M  V30 5416 H 509.495 3.03528 -2.4822 0
M  V30 5417 H 510.985 3.76301 -1.81073 0
M  V30 5418 N 511.423 1.38739 0.74761 0
M  V30 5419 C 512.355 1.32341 1.87132 0
M  V30 5420 C 513.368 0.234502 1.61102 0
M  V30 5421 O 514.557 0.492516 1.71571 0
M  V30 5422 C 511.657 1.02915 3.22896 0
M  V30 5423 C 510.83 2.22834 3.76383 0
M  V30 5424 C 509.889 1.90059 4.90677 0
M  V30 5425 O 508.915 2.62615 5.04997 0
M  V30 5426 N 510.117 0.859141 5.74107 0
M  V30 5427 H 512.882 2.29175 1.93129 0
M  V30 5428 H 510.443 1.32678 0.927805 0
M  V30 5429 H 512.435 0.79031 3.96908 0
M  V30 5430 H 511.005 0.148572 3.12247 0
M  V30 5431 H 510.225 2.62747 2.93867 0
M  V30 5432 H 511.513 3.02851 4.08851 0
M  V30 5433 H 510.911 0.257564 5.65113 0
M  V30 5434 H 509.468 0.680189 6.48241 0
M  V30 5435 N 512.901 -0.976442 1.23707 0
M  V30 5436 C 514.147 -1.72081 1.07312 0
M  V30 5437 C 514.48 -1.90275 -0.388476 0
M  V30 5438 O 513.755 -1.4579 -1.28746 0
M  V30 5439 C 514.038 -3.11675 1.80363 0
M  V30 5440 C 513.891 -3.01027 3.3422 0
M  V30 5441 C 515.21 -4.1117 1.5693 0
M  V30 5442 H 512.329 -0.624583 0.391236 0
M  V30 5443 H 514.971 -1.13649 1.52263 0
M  V30 5444 H 513.121 -3.61559 1.42153 0
M  V30 5445 H 514.793 -2.58637 3.81975 0
M  V30 5446 H 513.036 -2.3744 3.63049 0
M  V30 5447 H 513.707 -3.9988 3.80525 0
M  V30 5448 H 516.183 -3.7011 1.90151 0
M  V30 5449 H 515.059 -5.06928 2.10513 0
M  V30 5450 H 515.32 -4.392 0.505548 0
M  V30 5451 N 514.379 -1.04941 -1.1758 0
M  V30 5452 C 515.619 -0.766996 -1.89464 0
M  V30 5453 C 515.983 0.693123 -1.79053 0
M  V30 5454 O 517.184 1.08953 -2.45729 0
M  V30 5455 C 515.455 -1.23108 -3.35528 0
M  V30 5456 S 517.014 -1.07565 -4.25412 0
M  V30 5457 H 513.832 -0.278616 -0.654136 0
M  V30 5458 H 516.434 -1.34352 -1.4202 0
M  V30 5459 H 515.138 -2.28896 -3.40639 0
M  V30 5460 H 514.669 -0.648724 -3.88014 0
M  V30 5461 H 516.684 0.00169467 -4.962 0
M  V30 5462 N 515.857 1.33968 -0.830081 0
M  V30 5463 C 517.104 1.98063 -0.421566 0
M  V30 5464 C 517.432 1.65787 1.0171 0
M  V30 5465 O 516.687 0.925348 1.72441 0
M  V30 5466 C 516.986 3.52679 -0.57898 0
M  V30 5467 C 516.652 4.04884 -1.98443 0
M  V30 5468 C 515.314 4.18852 -2.36888 0
M  V30 5469 C 517.666 4.32879 -2.90285 0
M  V30 5470 C 514.994 4.58145 -3.66497 0
M  V30 5471 C 517.346 4.7362 -4.19364 0
M  V30 5472 C 516.01 4.85794 -4.57778 0
M  V30 5473 H 515.28 0.724765 -0.154262 0
M  V30 5474 H 517.927 1.59792 -1.05541 0
M  V30 5475 H 516.232 3.91556 0.138219 0
M  V30 5476 H 517.929 4.00261 -0.243317 0
M  V30 5477 H 514.519 3.9448 -1.67581 0
M  V30 5478 H 518.703 4.21619 -2.61823 0
M  V30 5479 H 513.959 4.65762 -3.96075 0
M  V30 5480 H 518.133 4.9424 -4.90612 0
M  V30 5481 H 515.76 5.15998 -5.58256 0
M  V30 5482 N 517.335 0.585699 1.46312 0
M  V30 5483 C 518.298 -0.135673 2.28798 0
M  V30 5484 C 519.298 -0.815988 1.38558 0
M  V30 5485 O 520.488 -0.667487 1.60904 0
M  V30 5486 C 517.62 -1.20163 3.1902 0
M  V30 5487 H 518.813 0.589257 2.94054 0
M  V30 5488 H 516.366 0.343794 1.52472 0
M  V30 5489 H 517.101 -1.95804 2.58517 0
M  V30 5490 H 516.886 -0.718282 3.85465 0
M  V30 5491 H 518.376 -1.70749 3.81096 0
M  V30 5492 N 518.813 -1.54241 0.323641 0
M  V30 5493 C 519.723 -2.28033 -0.551205 0
M  V30 5494 C 520.739 -1.32388 -1.12913 0
M  V30 5495 O 521.915 -1.65403 -1.14908 0
M  V30 5496 C 518.98 -3.02382 -1.69606 0
M  V30 5497 C 518.041 -4.13612 -1.14993 0
M  V30 5498 C 517.274 -4.84407 -2.24022 0
M  V30 5499 O 517.497 -4.54716 -3.44368 0
M  V30 5500 O 516.431 -5.71312 -1.89436 0
M  V30 5501 H 520.257 -3.03662 0.048066 0
M  V30 5502 H 517.842 -1.49133 0.0893289 0
M  V30 5503 H 519.724 -3.48941 -2.36259 0
M  V30 5504 H 518.399 -2.29628 -2.28151 0
M  V30 5505 H 517.306 -3.71402 -0.448484 0
M  V30 5506 H 518.639 -4.8841 -0.609608 0
M  V30 5507 N 520.291 -0.0518155 -1.57515 0
M  V30 5508 C 521.702 0.483787 -1.80323 0
M  V30 5509 C 522.053 1.70879 -0.964099 0
M  V30 5510 O 521.178 2.15643 -0.180872 0
M  V30 5511 C 521.773 0.884459 -3.27052 0
M  V30 5512 C 520.332 1.36504 -3.50776 0
M  V30 5513 C 519.479 0.340539 -2.75201 0
M  V30 5514 H 522.43 -0.277691 -1.56252 0
M  V30 5515 H 522.451 1.74733 -3.38007 0
M  V30 5516 H 521.963 -0.00731093 -3.88099 0
M  V30 5517 H 520.064 2.27598 -2.95009 0
M  V30 5518 H 520.177 1.35675 -4.59488 0
M  V30 5519 H 518.541 0.81356 -2.41357 0
M  V30 5520 H 519.324 -0.543156 -3.38976 0
M  V30 5521 N 521.769 1.56035 0.221574 0
M  V30 5522 C 523.046 1.69837 0.970301 0
M  V30 5523 C 523.426 0.599065 2.02421 0
M  V30 5524 O 522.774 -0.393929 2.25079 0
M  V30 5525 C 522.984 3.11148 1.58076 0
M  V30 5526 C 524.332 3.70555 2.07302 0
M  V30 5527 O 525.356 3.14109 1.6797 0
M  V30 5528 O 524.215 4.69562 2.79596 0
M  V30 5529 H 521.309 0.691727 0.453257 0
M  V30 5530 H 523.855 1.68353 0.213358 0
M  V30 5531 H 522.627 3.82617 0.819759 0
M  V30 5532 H 522.25 3.16749 2.40324 0
M  V30 5533 N 523.247 -0.488276 1.49845 0
M  V30 5534 C 524.21 -1.57069 1.66919 0
M  V30 5535 C 525.21 -1.51445 0.540479 0
M  V30 5536 O 526.4 -1.5437 0.807188 0
M  V30 5537 C 523.532 -2.96718 1.67844 0
M  V30 5538 H 524.725 -1.43254 2.63474 0
M  V30 5539 H 522.278 -0.713435 1.39068 0
M  V30 5540 H 523.013 -3.15996 0.7292 0
M  V30 5541 H 522.798 -3.02208 2.49826 0
M  V30 5542 H 524.288 -3.75335 1.83066 0
M  V30 5543 N 524.725 -1.39134 -0.740242 0
M  V30 5544 C 525.655 -1.40165 -1.86751 0
M  V30 5545 C 526.636 -0.265708 -1.68012 0
M  V30 5546 O 527.821 -0.47076 -1.88408 0
M  V30 5547 C 524.951 -1.2392 -3.2444 0
M  V30 5548 C 523.905 -2.34858 -3.57807 0
M  V30 5549 C 523.231 -2.03707 -4.94376 0
M  V30 5550 C 524.531 -3.77159 -3.61315 0
M  V30 5551 H 526.225 -2.345 -1.86145 0
M  V30 5552 H 523.771 -1.12875 -0.89416 0
M  V30 5553 H 525.724 -1.23263 -4.02969 0
M  V30 5554 H 524.448 -0.26051 -3.25559 0
M  V30 5555 H 523.107 -2.34723 -2.81604 0
M  V30 5556 H 522.755 -1.04289 -4.9207 0
M  V30 5557 H 522.455 -2.78016 -5.17669 0
M  V30 5558 H 523.979 -2.04691 -5.75268 0
M  V30 5559 H 525.393 -3.79252 -4.29931 0
M  V30 5560 H 523.79 -4.50784 -3.96124 0
M  V30 5561 H 524.86 -4.08513 -2.61238 0
M  V30 5562 N 526.204 0.969867 -1.24223 0
M  V30 5563 C 527.151 2.06407 -1.0327 0
M  V30 5564 C 528.121 1.66014 0.0533 0
M  V30 5565 O 529.306 1.90533 -0.100896 0
M  V30 5566 C 526.446 3.3909 -0.641262 0
M  V30 5567 C 525.559 3.9269 -1.80051 0
M  V30 5568 C 524.694 5.13631 -1.35486 0
M  V30 5569 C 523.733 5.59423 -2.48419 0
M  V30 5570 N 522.87 6.71586 -2.04737 0
M  V30 5571 H 527.71 2.23663 -1.96923 0
M  V30 5572 H 525.247 1.09624 -0.980862 0
M  V30 5573 H 527.205 4.15323 -0.395351 0
M  V30 5574 H 525.835 3.21765 0.258269 0
M  V30 5575 H 524.887 3.13116 -2.16014 0
M  V30 5576 H 526.199 4.22636 -2.64916 0
M  V30 5577 H 525.353 5.97231 -1.0677 0
M  V30 5578 H 524.092 4.85364 -0.476722 0
M  V30 5579 H 523.097 4.74398 -2.77897 0
M  V30 5580 H 524.322 5.89705 -3.36786 0
M  V30 5581 H 522.268 6.45058 -1.19318 0
M  V30 5582 H 522.185 7.0097 -2.83156 0
M  V30 5583 H 523.453 7.58633 -1.79154 0
M  V30 5584 N 527.682 1.05563 1.17022 0
M  V30 5585 C 528.93 0.76642 1.87004 0
M  V30 5586 C 529.251 -0.708854 1.8166 0
M  V30 5587 O 528.521 -1.51242 1.2451 0
M  V30 5588 H 527.101 0.280516 0.692329 0
M  V30 5589 H 529.763 1.33557 1.41945 0
M  V30 5590 H 528.859 1.08472 2.92644 0
M  V30 5591 N 529.16 -1.33526 0.837174 0
M  V30 5592 C 530.385 -2.0258 0.444545 0
M  V30 5593 C 530.81 -1.6258 -0.946006 0
M  V30 5594 O 530.168 -0.817548 -1.6182 0
M  V30 5595 C 530.216 -3.5605 0.571006 0
M  V30 5596 O 529.32 -4.10422 -0.403431 0
M  V30 5597 H 528.661 -0.638866 0.180958 0
M  V30 5598 H 531.191 -1.70462 1.13154 0
M  V30 5599 H 531.201 -4.05488 0.452024 0
M  V30 5600 H 529.876 -3.84509 1.58512 0
M  V30 5601 H 528.453 -3.72113 -0.242147 0
M  V30 5602 N 530.638 -0.59345 -1.46 0
M  V30 5603 C 531.568 0.121192 -2.33185 0
M  V30 5604 C 532.549 0.872977 -1.4599 0
M  V30 5605 O 533.734 0.846321 -1.74789 0
M  V30 5606 C 530.864 1.12844 -3.28456 0
M  V30 5607 C 529.818 0.4908 -4.25177 0
M  V30 5608 C 529.144 1.60529 -5.10034 0
M  V30 5609 C 530.444 -0.578949 -5.19081 0
M  V30 5610 H 532.138 -0.606767 -2.93187 0
M  V30 5611 H 529.684 -0.293242 -1.40983 0
M  V30 5612 H 531.637 1.63684 -3.88311 0
M  V30 5613 H 530.361 1.88681 -2.66584 0
M  V30 5614 H 529.02 0.00339328 -3.666 0
M  V30 5615 H 528.668 2.35359 -4.44539 0
M  V30 5616 H 528.368 1.18422 -5.75543 0
M  V30 5617 H 529.892 2.11623 -5.72755 0
M  V30 5618 H 531.306 -0.155199 -5.7309 0
M  V30 5619 H 529.703 -0.920947 -5.92991 0
M  V30 5620 H 530.773 -1.46109 -4.62364 0
M  V30 5621 N 532.116 1.54067 -0.331816 0
M  V30 5622 C 533.362 2.01012 0.268667 0
M  V30 5623 C 533.695 1.2195 1.51136 0
M  V30 5624 O 532.97 0.303972 1.9211 0
M  V30 5625 C 533.253 3.55158 0.59456 0
M  V30 5626 C 533.106 4.4494 -0.659409 0
M  V30 5627 C 534.425 4.16939 1.4089 0
M  V30 5628 H 531.544 0.730698 0.0961756 0
M  V30 5629 H 534.186 1.84593 -0.450031 0
M  V30 5630 H 532.336 3.6928 1.20685 0
M  V30 5631 H 534.008 4.42675 -1.29756 0
M  V30 5632 H 532.251 4.1428 -1.28665 0
M  V30 5633 H 532.922 5.50643 -0.386804 0
M  V30 5634 H 535.398 4.06443 0.891272 0
M  V30 5635 H 534.274 5.24889 1.60569 0
M  V30 5636 H 534.535 3.70798 2.40752 0
M  V30 5637 N 533.594 0.0601682 1.57485 0
M  V30 5638 C 534.542 -0.928899 2.13247 0
M  V30 5639 C 535.536 -1.31616 1.06647 0
M  V30 5640 O 536.742 -1.29476 1.25043 0
M  V30 5641 H 533.117 -0.317455 0.681708 0
M  V30 5642 H 535.088 -0.433566 2.95233 0
M  V30 5643 C 533.837 -2.19121 2.69965 0
M  V30 5644 H 533.16 -1.90204 3.51657 0
M  V30 5645 H 534.6 -2.86465 3.12592 0
M  V30 5646 C 533.059 -2.94195 1.64168 0
M  V30 5647 O 533.589 -3.87468 1.05978 0
M  V30 5648 N 531.795 -2.57089 1.35476 0
M  V30 5649 H 531.342 -1.81314 1.82984 0
M  V30 5650 H 531.3 -3.07624 0.649196 0
M  V30 5651 N 535.072 -1.5615 -0.213296 0
M  V30 5652 C 536.3 -1.83638 -0.953139 0
M  V30 5653 C 536.715 -0.640362 -1.77609 0
M  V30 5654 O 536.072 0.391071 -1.78261 0
M  V30 5655 C 536.123 -3.09735 -1.86405 0
M  V30 5656 O 535.844 -4.24723 -1.07435 0
M  V30 5657 C 537.345 -3.5027 -2.71709 0
M  V30 5658 H 534.565 -0.610263 -0.278962 0
M  V30 5659 H 537.109 -2.03247 -0.226035 0
M  V30 5660 H 535.264 -2.92077 -2.545 0
M  V30 5661 H 535.678 -4.9641 -1.69343 0
M  V30 5662 H 537.152 -4.41515 -3.31313 0
M  V30 5663 H 537.629 -2.72406 -3.44516 0
M  V30 5664 H 538.235 -3.70396 -2.09015 0
M  V30 5665 N 536.55 0.480323 -1.50102 0
M  V30 5666 C 537.48 1.58769 -1.71215 0
M  V30 5667 C 538.461 1.60583 -0.560997 0
M  V30 5668 O 539.646 1.76996 -0.799127 0
M  V30 5669 C 536.776 2.97148 -1.79778 0
M  V30 5670 C 535.73 3.10201 -2.94888 0
M  V30 5671 C 535.056 4.50137 -2.88584 0
M  V30 5672 C 536.356 2.88283 -4.35534 0
M  V30 5673 H 538.05 1.41354 -2.6393 0
M  V30 5674 H 535.596 0.678591 -1.27008 0
M  V30 5675 H 537.549 3.74536 -1.93133 0
M  V30 5676 H 536.273 3.15699 -0.836772 0
M  V30 5677 H 534.932 2.35244 -2.81169 0
M  V30 5678 H 534.58 4.65593 -1.90349 0
M  V30 5679 H 534.28 4.59808 -3.65856 0
M  V30 5680 H 535.804 5.29558 -3.03976 0
M  V30 5681 H 537.218 3.55427 -4.49827 0
M  V30 5682 H 535.615 3.09408 -5.14186 0
M  V30 5683 H 536.685 1.84219 -4.48544 0
M  V30 5684 N 538.028 1.39524 0.732853 0
M  V30 5685 C 539.444 1.21176 1.03868 0
M  V30 5686 C 539.644 0.0748448 2.01361 0
M  V30 5687 O 538.7 -0.57281 2.45917 0
M  V30 5688 C 540.013 2.54667 1.59892 0
M  V30 5689 C 541.561 2.6153 1.71962 0
M  V30 5690 C 542.036 3.95248 2.31394 0
M  V30 5691 N 543.527 3.96899 2.38801 0
M  V30 5692 C 544.262 4.97138 2.85729 0
M  V30 5693 N 543.758 6.07775 3.32537 0
M  V30 5694 N 545.551 4.84516 2.84957 0
M  V30 5695 H 537.702 2.12225 0.086304 0
M  V30 5696 H 539.965 0.942614 0.100907 0
M  V30 5697 H 539.671 3.38423 0.95721 0
M  V30 5698 H 539.545 2.74538 2.58668 0
M  V30 5699 H 541.932 1.78156 2.35254 0
M  V30 5700 H 542.013 2.45507 0.718327 0
M  V30 5701 H 541.657 4.79054 1.68729 0
M  V30 5702 H 541.587 4.08593 3.32204 0
M  V30 5703 H 544.078 3.16998 2.05719 0
M  V30 5704 H 544.391 6.8017 3.66862 0
M  V30 5705 H 542.736 6.11366 3.30541 0
M  V30 5706 H 545.927 3.97185 2.47713 0
M  V30 5707 H 546.1 5.62783 3.21215 0
M  V30 5708 N 539.506 -0.963266 1.24736 0
M  V30 5709 C 540.416 -2.09246 1.06082 0
M  V30 5710 C 541.432 -1.74 0.000363101 0
M  V30 5711 O 542.608 -2.0041 0.199479 0
M  V30 5712 C 539.673 -3.40115 0.672498 0
M  V30 5713 C 538.734 -3.89282 1.80993 0
M  V30 5714 C 537.967 -5.13905 1.44004 0
M  V30 5715 O 538.19 -5.69434 0.331835 0
M  V30 5716 O 537.124 -5.57566 2.26723 0
M  V30 5717 H 540.95 -2.27881 2.00759 0
M  V30 5718 H 538.535 -1.07649 1.03595 0
M  V30 5719 H 540.417 -4.18797 0.467668 0
M  V30 5720 H 539.092 -3.22771 -0.245102 0
M  V30 5721 H 537.999 -3.11642 2.06955 0
M  V30 5722 H 539.332 -4.1111 2.70646 0
M  V30 5723 N 540.985 -1.06182 -1.16461 0
M  V30 5724 C 542.231 -0.779015 -1.87241 0
M  V30 5725 C 542.564 0.692715 -1.81425 0
M  V30 5726 O 541.839 1.5074 -1.22913 0
M  V30 5727 C 542.122 -1.2728 -3.36856 0
M  V30 5728 C 541.975 -2.80821 -3.51368 0
M  V30 5729 C 543.294 -0.879799 -4.31216 0
M  V30 5730 H 540.413 -0.284464 -0.679889 0
M  V30 5731 H 543.055 -1.31755 -1.36896 0
M  V30 5732 H 541.205 -0.814673 -3.79862 0
M  V30 5733 H 542.877 -3.34833 -3.17308 0
M  V30 5734 H 541.12 -3.19606 -2.93316 0
M  V30 5735 H 541.791 -3.10435 -4.56436 0
M  V30 5736 H 544.267 -1.27436 -3.96105 0
M  V30 5737 H 543.143 -1.25278 -5.34412 0
M  V30 5738 H 543.404 0.215372 -4.41575 0
M  V30 5739 N 542.463 1.3308 -0.844243 0
M  V30 5740 C 543.373 2.32876 -0.283922 0
M  V30 5741 C 544.389 1.63589 0.592846 0
M  V30 5742 O 545.565 1.95205 0.495693 0
M  V30 5743 C 542.63 3.42667 0.527283 0
M  V30 5744 C 541.691 4.27664 -0.374394 0
M  V30 5745 C 540.924 5.32212 0.39819 0
M  V30 5746 O 541.147 5.46635 1.62932 0
M  V30 5747 O 540.081 6.01458 -0.2306 0
M  V30 5748 H 543.907 2.82671 -1.11045 0
M  V30 5749 H 541.492 1.36518 -0.606903 0
M  V30 5750 H 543.374 4.09652 0.988078 0
M  V30 5751 H 542.049 2.95079 1.33078 0
M  V30 5752 H 540.956 3.63526 -0.883144 0
M  V30 5753 H 542.289 4.78749 -1.1428 0
M  V30 5754 N 543.941 0.601185 1.45683 0
M  V30 5755 C 545.352 0.179659 1.85834 0
M  V30 5756 C 545.703 -1.26189 1.50236 0
M  V30 5757 O 544.828 -1.95587 0.925987 0
M  V30 5758 C 545.423 0.319277 3.37292 0
M  V30 5759 C 543.982 -0.0475092 3.7637 0
M  V30 5760 C 543.129 0.646692 2.69654 0
M  V30 5761 H 546.08 0.808268 1.36575 0
M  V30 5762 H 546.101 -0.4503 3.77826 0
M  V30 5763 H 545.613 1.36855 3.6317 0
M  V30 5764 H 543.714 -1.0962 3.5611 0
M  V30 5765 H 543.827 0.34168 4.7788 0
M  V30 5766 H 542.191 0.0849971 2.54558 0
M  V30 5767 H 542.974 1.69797 2.98369 0
M  V30 5768 N 545.419 -1.53889 0.339982 0
M  V30 5769 C 546.647 -2.05271 -0.259114 0
M  V30 5770 C 547.062 -1.21517 -1.44496 0
M  V30 5771 O 546.419 -0.24966 -1.80784 0
M  V30 5772 C 546.47 -3.55092 -0.677634 0
M  V30 5773 O 546.191 -4.35667 0.461051 0
M  V30 5774 C 547.692 -4.22631 -1.33782 0
M  V30 5775 H 544.912 -0.669085 -0.0506566 0
M  V30 5776 H 547.456 -1.9852 0.490935 0
M  V30 5777 H 545.611 -3.62077 -1.37763 0
M  V30 5778 H 546.025 -5.24343 0.128144 0
M  V30 5779 H 547.499 -5.28861 -1.58145 0
M  V30 5780 H 547.976 -3.74758 -2.29027 0
M  V30 5781 H 548.582 -4.19829 -0.679957 0
M  V30 5782 N 546.897 -0.0685191 -1.57451 0
M  V30 5783 C 548.122 0.613919 -1.98106 0
M  V30 5784 C 548.547 1.62551 -0.946501 0
M  V30 5785 O 547.905 1.81085 0.0882824 0
M  V30 5786 C 547.953 1.26189 -3.378 0
M  V30 5787 O 547.057 2.37773 -3.36954 0
M  V30 5788 H 546.398 0.158163 -0.644888 0
M  V30 5789 H 548.928 -0.142063 -2.04106 0
M  V30 5790 H 548.938 1.60951 -3.74912 0
M  V30 5791 H 547.613 0.520625 -4.12629 0
M  V30 5792 H 546.19 2.04829 -3.11608 0
M  V30 5793 N 548.375 1.56261 0.205012 0
M  V30 5794 C 549.325 1.90155 1.25798 0
M  V30 5795 C 550.309 0.766227 1.41484 0
M  V30 5796 O 551.501 1.02893 1.44021 0
M  V30 5797 C 548.63 2.23603 2.60493 0
M  V30 5798 C 547.716 3.43568 2.48639 0
M  V30 5799 N 548.107 4.61747 2.06455 0
M  V30 5800 C 546.405 3.4751 2.79558 0
M  V30 5801 C 547.106 5.43907 2.06253 0
M  V30 5802 N 546.082 4.84051 2.47377 0
M  V30 5803 H 549.884 2.79031 0.922986 0
M  V30 5804 H 547.398 1.57048 0.413501 0
M  V30 5805 H 549.395 2.46067 3.36537 0
M  V30 5806 H 548.055 1.36049 2.94823 0
M  V30 5807 H 549.066 4.86598 1.77321 0
M  V30 5808 H 545.743 2.70345 3.18151 0
M  V30 5809 H 547.133 6.48542 1.75622 0
M  V30 5810 N 549.853 -0.472356 1.50355 0
M  V30 5811 C 550.786 -1.58923 1.63764 0
M  V30 5812 C 551.764 -1.55173 0.485793 0
M  V30 5813 O 552.948 -1.74815 0.705132 0
M  V30 5814 C 550.075 -2.97497 1.61905 0
M  V30 5815 C 549.121 -3.19405 2.82635 0
M  V30 5816 S 549.954 -2.99441 4.43954 0
M  V30 5817 C 551.11 -4.40359 4.44786 0
M  V30 5818 H 551.343 -1.47309 2.58239 0
M  V30 5819 H 548.876 -0.659601 1.39602 0
M  V30 5820 H 550.834 -3.77389 1.61518 0
M  V30 5821 H 549.495 -3.06502 0.686683 0
M  V30 5822 H 548.688 -4.20636 2.77636 0
M  V30 5823 H 548.29 -2.47283 2.80583 0
M  V30 5824 H 550.582 -5.32969 4.1827 0
M  V30 5825 H 551.525 -4.50403 5.46391 0
M  V30 5826 H 551.933 -4.22378 3.74509 0
M  V30 5827 N 551.331 -1.39911 -0.725443 0
M  V30 5828 C 552.579 -1.37382 -1.48224 0
M  V30 5829 C 552.9 0.0264107 -1.94982 0
M  V30 5830 O 552.17 0.979408 -1.6966 0
M  V30 5831 H 550.75 -0.505596 -0.549892 0
M  V30 5832 H 553.412 -1.7487 -0.860608 0
M  V30 5833 H 552.508 -2.04254 -2.3598 0
M  V30 5834 N 552.809 0.956637 -1.25245 0
M  V30 5835 C 554.055 1.70352 -1.10036 0
M  V30 5836 C 554.388 1.90869 0.358156 0
M  V30 5837 O 553.663 1.47819 1.26411 0
M  V30 5838 C 553.946 3.08766 -1.85298 0
M  V30 5839 C 553.799 2.95672 -3.38966 0
M  V30 5840 C 555.118 4.08622 -1.63451 0
M  V30 5841 H 552.237 0.618279 -0.401123 0
M  V30 5842 H 554.879 1.11212 -1.54051 0
M  V30 5843 H 553.029 3.59252 -1.47887 0
M  V30 5844 H 554.701 2.52527 -3.86041 0
M  V30 5845 H 552.944 2.31634 -3.6678 0
M  V30 5846 H 553.615 3.93776 -3.86839 0
M  V30 5847 H 556.091 3.67038 -1.96015 0
M  V30 5848 H 554.967 5.03514 -2.18551 0
M  V30 5849 H 555.228 4.3834 -0.575357 0
M  V30 5850 N 554.287 1.06798 1.15896 0
M  V30 5851 C 555.698 0.811355 1.68149 0
M  V30 5852 C 556.049 -0.664339 1.8461 0
M  V30 5853 O 555.174 -1.51485 1.54535 0
M  V30 5854 C 555.769 1.46624 3.05429 0
M  V30 5855 C 554.328 1.25726 3.54781 0
M  V30 5856 C 553.475 1.53949 2.3064 0
M  V30 5857 H 556.426 1.23078 1.00187 0
M  V30 5858 H 556.447 0.88437 3.7008 0
M  V30 5859 H 555.959 2.54025 2.93416 0
M  V30 5860 H 554.06 0.20322 3.72045 0
M  V30 5861 H 554.173 1.97354 4.36564 0
M  V30 5862 H 552.537 0.96025 2.35905 0
M  V30 5863 H 553.32 2.6252 2.2122 0
M  V30 5864 N 555.766 -1.3263 0.851289 0
M  V30 5865 C 557.182 -1.50162 0.5407 0
M  V30 5866 C 557.382 -1.78788 -0.929369 0
M  V30 5867 O 556.438 -1.85545 -1.71258 0
M  V30 5868 C 557.751 -2.64803 1.42478 0
M  V30 5869 C 559.299 -2.78688 1.42485 0
M  V30 5870 C 559.774 -3.96405 2.29407 0
M  V30 5871 N 561.265 -4.0366 2.27184 0
M  V30 5872 C 562 -4.93971 2.9117 0
M  V30 5873 N 561.496 -5.89313 3.64256 0
M  V30 5874 N 563.289 -4.87066 2.80576 0
M  V30 5875 H 555.44 -1.12315 1.80275 0
M  V30 5876 H 557.703 -0.553266 0.769806 0
M  V30 5877 H 557.409 -2.50368 2.46999 0
M  V30 5878 H 557.283 -3.60506 1.10974 0
M  V30 5879 H 559.67 -2.92547 0.387304 0
M  V30 5880 H 559.751 -1.83708 1.78002 0
M  V30 5881 H 559.395 -3.83304 3.33228 0
M  V30 5882 H 559.325 -4.90654 1.91224 0
M  V30 5883 H 561.816 -3.35435 1.74045 0
M  V30 5884 H 562.129 -6.54913 4.10255 0
M  V30 5885 H 560.474 -5.8935 3.68364 0
M  V30 5886 H 563.665 -4.11552 2.23031 0
M  V30 5887 H 563.838 -5.57248 3.30725 0
M  V30 5888 N 557.244 -0.608902 -1.45362 0
M  V30 5889 C 558.49 -0.104762 -2.02529 0
M  V30 5890 C 558.823 1.26191 -1.47613 0
M  V30 5891 O 558.098 1.8327 -0.65134 0
M  V30 5892 C 558.381 -0.0672661 -3.60037 0
M  V30 5893 C 558.234 -1.4647 -4.25284 0
M  V30 5894 C 559.553 0.619877 -4.35713 0
M  V30 5895 H 556.672 -0.0395438 -0.735938 0
M  V30 5896 H 559.314 -0.781126 -1.73201 0
M  V30 5897 H 557.464 0.50871 -3.85155 0
M  V30 5898 H 559.136 -2.08785 -4.11347 0
M  V30 5899 H 557.379 -2.02502 -3.83634 0
M  V30 5900 H 558.05 -1.39069 -5.34195 0
M  V30 5901 H 560.526 0.130297 -4.15896 0
M  V30 5902 H 559.402 0.615224 -5.45441 0
M  V30 5903 H 559.663 1.68621 -4.0868 0
M  V30 5904 N 558.722 1.53707 -0.348139 0
M  V30 5905 C 559.968 2.01979 0.239986 0
M  V30 5906 C 560.323 1.23141 1.47831 0
M  V30 5907 O 559.616 0.311936 1.89044 0
M  V30 5908 C 559.81 3.52292 0.602061 0
M  V30 5909 C 559.639 4.45684 -0.599625 0
M  V30 5910 C 558.409 4.9304 -1.10635 0
M  V30 5911 C 560.607 4.93156 -1.4595 0
M  V30 5912 N 558.589 5.70394 -2.26988 0
M  V30 5913 C 559.96 5.6868 -2.46988 0
M  V30 5914 C 562.015 4.75257 -1.48441 0
M  V30 5915 C 560.718 6.28208 -3.50353 0
M  V30 5916 C 562.744 5.35639 -2.50689 0
M  V30 5917 C 562.106 6.11034 -3.50453 0
M  V30 5918 H 558.205 0.780335 0.0509992 0
M  V30 5919 H 560.789 1.88466 -0.488742 0
M  V30 5920 H 558.96 3.66002 1.29989 0
M  V30 5921 H 560.692 3.87304 1.17377 0
M  V30 5922 H 557.447 4.68784 -0.67371 0
M  V30 5923 H 557.871 6.13741 -2.85747 0
M  V30 5924 H 562.513 4.16508 -0.726707 0
M  V30 5925 H 560.231 6.86064 -4.27015 0
M  V30 5926 H 563.817 5.23693 -2.53449 0
M  V30 5927 H 562.697 6.56925 -4.28275 0
M  V30 5928 N 560.2 0.0768682 1.57412 0
M  V30 5929 C 561.11 -0.903207 2.16516 0
M  V30 5930 C 562.126 -1.32341 1.12968 0
M  V30 5931 O 563.302 -1.39507 1.45258 0
M  V30 5932 C 560.367 -2.1508 2.71922 0
M  V30 5933 C 559.428 -1.78653 3.90361 0
M  V30 5934 C 558.661 -2.97465 4.43114 0
M  V30 5935 O 558.884 -4.11638 3.94854 0
M  V30 5936 O 557.818 -2.76987 5.3438 0
M  V30 5937 H 561.644 -0.430427 3.00634 0
M  V30 5938 H 559.229 -0.146485 1.4868 0
M  V30 5939 H 561.111 -2.8823 3.07411 0
M  V30 5940 H 559.786 -2.61446 1.9086 0
M  V30 5941 H 558.693 -1.0274 3.59716 0
M  V30 5942 H 560.026 -1.37066 4.7273 0
M  V30 5943 N 561.678 -1.56367 -0.196722 0
M  V30 5944 C 562.625 -1.94417 -1.24382 0
M  V30 5945 C 563.595 -0.804543 -1.45315 0
M  V30 5946 O 564.78 -1.06256 -1.58475 0
M  V30 5947 C 561.92 -2.28757 -2.58388 0
M  V30 5948 C 561.033 -3.55775 -2.45047 0
M  V30 5949 C 560.168 -3.79445 -3.71746 0
M  V30 5950 C 559.207 -4.99894 -3.53231 0
M  V30 5951 N 558.344 -5.19826 -4.71938 0
M  V30 5952 H 563.184 -2.83691 -0.912338 0
M  V30 5953 H 560.721 -1.40392 -0.439135 0
M  V30 5954 H 562.679 -2.46682 -3.36457 0
M  V30 5955 H 561.309 -1.42625 -2.89582 0
M  V30 5956 H 560.361 -3.45905 -1.58284 0
M  V30 5957 H 561.673 -4.44 -2.27299 0
M  V30 5958 H 560.827 -3.97601 -4.58256 0
M  V30 5959 H 559.566 -2.89546 -3.92446 0
M  V30 5960 H 558.571 -4.81662 -2.65107 0
M  V30 5961 H 559.796 -5.913 -3.33978 0
M  V30 5962 H 557.742 -4.32875 -4.92905 0
M  V30 5963 H 557.659 -6.02228 -4.57009 0
M  V30 5964 H 558.927 -5.42439 -5.59803 0
M  V30 5965 N 563.156 0.464375 -1.50603 0
M  V30 5966 C 564.405 1.21277 -1.61167 0
M  V30 5967 C 564.718 1.92953 -0.320704 0
M  V30 5968 O 565.924 2.69778 -0.30534 0
M  V30 5969 C 564.38 2.20403 -2.84518 0
M  V30 5970 C 563.988 1.54499 -4.20516 0
M  V30 5971 C 565.732 2.95843 -3.0443 0
M  V30 5972 C 563.639 2.51951 -5.35047 0
M  V30 5973 H 562.569 0.456367 -0.600204 0
M  V30 5974 H 565.22 0.48254 -1.77042 0
M  V30 5975 H 563.602 2.96746 -2.62217 0
M  V30 5976 H 564.776 0.83899 -4.53098 0
M  V30 5977 H 563.091 0.913152 -4.06264 0
M  V30 5978 H 565.688 3.6879 -3.87167 0
M  V30 5979 H 566.031 3.55622 -2.16423 0
M  V30 5980 H 566.564 2.26611 -3.26944 0
M  V30 5981 H 563.303 1.96901 -6.25228 0
M  V30 5982 H 562.823 3.20683 -5.06875 0
M  V30 5983 H 564.502 3.13643 -5.65895 0
M  V30 5984 N 564.634 1.40294 0.718013 0
M  V30 5985 C 565.567 1.34767 1.84155 0
M  V30 5986 C 566.545 0.218455 1.61126 0
M  V30 5987 O 567.729 0.401716 1.8417 0
M  V30 5988 C 564.856 1.09676 3.20451 0
M  V30 5989 C 563.902 2.25016 3.62312 0
M  V30 5990 S 564.735 3.87397 3.69707 0
M  V30 5991 C 565.891 3.64565 5.08766 0
M  V30 5992 H 566.124 2.29851 1.88562 0
M  V30 5993 H 563.657 1.2655 0.884555 0
M  V30 5994 H 565.615 0.95885 3.99144 0
M  V30 5995 H 564.276 0.162502 3.13679 0
M  V30 5996 H 563.469 2.03097 4.61268 0
M  V30 5997 H 563.071 2.35098 2.90869 0
M  V30 5998 H 565.363 3.22882 5.95612 0
M  V30 5999 H 566.306 4.63043 5.35721 0
M  V30 6000 H 566.714 2.98303 4.79245 0
M  V30 6001 N 566.112 -0.949982 1.2575 0
M  V30 6002 C 567.022 -2.08109 1.08295 0
M  V30 6003 C 568.038 -1.7399 0.0188181 0
M  V30 6004 O 569.214 -2.00187 0.220724 0
M  V30 6005 C 566.279 -3.39383 0.708534 0
M  V30 6006 C 565.34 -3.8734 1.85111 0
M  V30 6007 C 564.573 -5.12349 1.49447 0
M  V30 6008 O 564.796 -5.6905 0.392212 0
M  V30 6009 O 563.73 -5.5513 2.32624 0
M  V30 6010 H 567.556 -2.25738 2.03165 0
M  V30 6011 H 565.141 -1.06545 1.04731 0
M  V30 6012 H 567.023 -4.18277 0.512061 0
M  V30 6013 H 565.698 -3.23013 -0.210854 0
M  V30 6014 H 564.605 -3.09429 2.10248 0
M  V30 6015 H 565.938 -4.08216 2.74991 0
M  V30 6016 N 567.59 -1.07411 -1.15328 0
M  V30 6017 C 569.006 -0.799759 -1.38116 0
M  V30 6018 C 569.206 0.59572 -1.92493 0
M  V30 6019 O 568.262 1.35433 -2.13106 0
M  V30 6020 C 569.575 -1.87407 -2.35158 0
M  V30 6021 C 571.123 -1.89889 -2.48819 0
M  V30 6022 C 571.598 -2.96406 -3.49153 0
M  V30 6023 N 573.089 -2.95512 -3.56689 0
M  V30 6024 C 573.824 -3.74575 -4.34144 0
M  V30 6025 N 573.32 -4.63488 -5.14928 0
M  V30 6026 N 575.113 -3.62919 -4.29239 0
M  V30 6027 H 567.264 -1.97411 -0.78374 0
M  V30 6028 H 569.527 -0.856113 -0.407154 0
M  V30 6029 H 569.233 -2.8768 -2.0232 0
M  V30 6030 H 569.107 -1.73471 -3.34944 0
M  V30 6031 H 571.494 -0.902677 -2.80955 0
M  V30 6032 H 571.575 -2.07904 -1.49029 0
M  V30 6033 H 571.219 -3.96227 -3.17752 0
M  V30 6034 H 571.149 -2.75638 -4.48699 0
M  V30 6035 H 573.64 -2.31061 -2.99031 0
M  V30 6036 H 573.953 -5.20445 -5.71276 0
M  V30 6037 H 572.298 -4.67537 -5.14232 0
M  V30 6038 H 575.489 -2.92833 -3.65194 0
M  V30 6039 H 575.662 -4.24777 -4.89355 0
M  V30 6040 N 569.068 1.32177 -0.85831 0
M  V30 6041 C 570.317 1.96392 -0.459689 0
M  V30 6042 C 570.63 1.68659 0.990632 0
M  V30 6043 O 571.836 2.26641 1.49485 0
M  V30 6044 C 570.292 3.51542 -0.7711 0
M  V30 6045 C 569.9 3.8813 -2.2374 0
M  V30 6046 C 571.644 4.2221 -0.44038 0
M  V30 6047 C 569.551 5.36341 -2.49183 0
M  V30 6048 H 568.481 0.735007 -0.168169 0
M  V30 6049 H 571.132 1.50518 -1.0496 0
M  V30 6050 H 569.514 3.95846 -0.11058 0
M  V30 6051 H 570.688 3.54824 -2.94001 0
M  V30 6052 H 569.003 3.30497 -2.533 0
M  V30 6053 H 571.6 5.31234 -0.607855 0
M  V30 6054 H 571.943 4.11683 0.618291 0
M  V30 6055 H 572.476 3.83502 -1.05695 0
M  V30 6056 H 569.215 5.51892 -3.53689 0
M  V30 6057 H 568.735 5.7104 -1.83504 0
M  V30 6058 H 570.414 6.03466 -2.33318 0
M  V30 6059 N 570.547 0.616602 1.45037 0
M  V30 6060 C 571.479 -0.135186 2.28801 0
M  V30 6061 C 572.492 -0.82303 1.40464 0
M  V30 6062 O 573.681 -0.686909 1.64754 0
M  V30 6063 C 570.781 -1.21292 3.16451 0
M  V30 6064 C 569.954 -0.61043 4.3312 0
M  V30 6065 C 569.013 -1.58022 5.01912 0
M  V30 6066 O 568.039 -1.10301 5.58411 0
M  V30 6067 N 569.241 -2.91464 5.02025 0
M  V30 6068 H 572.006 0.583612 2.93963 0
M  V30 6069 H 569.567 0.456723 1.55324 0
M  V30 6070 H 571.559 -1.86169 3.59337 0
M  V30 6071 H 570.129 -1.83412 2.53138 0
M  V30 6072 H 569.349 0.216638 3.93604 0
M  V30 6073 H 570.637 -0.188293 5.08451 0
M  V30 6074 H 570.035 -3.32829 4.57429 0
M  V30 6075 H 568.592 -3.51741 5.48745 0
M  V30 6076 N 572.025 -1.5352 0.356285 0
M  V30 6077 C 572.935 -2.29151 -0.502712 0
M  V30 6078 C 573.951 -1.34753 -1.1008 0
M  V30 6079 O 575.127 -1.67803 -1.11374 0
M  V30 6080 C 572.192 -3.05911 -1.63154 0
M  V30 6081 C 571.253 -4.15958 -1.06194 0
M  V30 6082 C 570.486 -4.8905 -2.13696 0
M  V30 6083 O 570.709 -4.61919 -3.34645 0
M  V30 6084 O 569.643 -5.75202 -1.77275 0
M  V30 6085 H 573.469 -3.03492 0.112466 0
M  V30 6086 H 571.054 -1.4891 0.120942 0
M  V30 6087 H 572.936 -3.53874 -2.28804 0
M  V30 6088 H 571.611 -2.34415 -2.23229 0
M  V30 6089 H 570.518 -3.7227 -0.369603 0
M  V30 6090 H 571.851 -4.89593 -0.505872 0
M  V30 6091 N 573.503 -0.0852151 -1.57369 0
M  V30 6092 C 574.749 0.581666 -1.94279 0
M  V30 6093 C 575.082 1.68444 -0.966446 0
M  V30 6094 O 574.357 1.945 0.00215277 0
M  V30 6095 C 574.64 1.14609 -3.41375 0
M  V30 6096 C 574.493 0.0490414 -4.49773 0
M  V30 6097 C 575.812 2.04751 -3.8957 0
M  V30 6098 H 572.931 0.209972 -0.706456 0
M  V30 6099 H 575.573 -0.153915 -1.89376 0
M  V30 6100 H 573.723 1.77297 -3.45685 0
M  V30 6101 H 575.395 -0.584721 -4.57579 0
M  V30 6102 H 573.638 -0.618638 -4.29366 0
M  V30 6103 H 574.309 0.484601 -5.49869 0
M  V30 6104 H 576.785 1.51981 -3.87351 0
M  V30 6105 H 575.661 2.41173 -4.93079 0
M  V30 6106 H 575.922 2.96107 -3.28288 0
M  V30 6107 N 574.981 1.5647 0.188427 0
M  V30 6108 C 575.944 1.9421 1.21718 0
M  V30 6109 C 576.944 0.823901 1.38089 0
M  V30 6110 O 578.134 1.09122 1.35787 0
M  V30 6111 C 575.266 2.22197 2.58537 0
M  V30 6112 H 576.459 2.86252 0.894418 0
M  V30 6113 H 574.012 1.50263 0.430211 0
M  V30 6114 H 574.747 1.32814 2.95856 0
M  V30 6115 H 574.532 3.03688 2.48025 0
M  V30 6116 H 576.022 2.52376 3.3271 0
M  V30 6117 N 576.459 -0.456382 1.50847 0
M  V30 6118 C 577.422 -1.53493 1.70213 0
M  V30 6119 C 578.422 -1.50264 0.572481 0
M  V30 6120 O 579.612 -1.52623 0.839751 0
M  V30 6121 C 576.744 -2.93091 1.741 0
M  V30 6122 H 577.937 -1.37633 2.66453 0
M  V30 6123 H 575.49 -0.683776 1.4055 0
M  V30 6124 H 576.225 -3.14378 0.796063 0
M  V30 6125 H 576.01 -2.9684 2.5618 0
M  V30 6126 H 577.5 -3.71368 1.90987 0
M  V30 6127 N 577.937 -1.40673 -0.710563 0
M  V30 6128 C 578.869 -1.37256 -1.83558 0
M  V30 6129 C 579.882 -0.277133 -1.60424 0
M  V30 6130 O 581.071 -0.537831 -1.70205 0
M  V30 6131 C 578.171 -1.1144 -3.20054 0
M  V30 6132 C 577.344 -2.32734 -3.70342 0
M  V30 6133 C 576.403 -2.03002 -4.85465 0
M  V30 6134 O 575.429 -2.75912 -4.97857 0
M  V30 6135 N 576.631 -1.01105 -5.71627 0
M  V30 6136 H 579.396 -2.34215 -1.86985 0
M  V30 6137 H 576.957 -1.35091 -0.892301 0
M  V30 6138 H 578.949 -0.895265 -3.94673 0
M  V30 6139 H 577.519 -0.231307 -3.11743 0
M  V30 6140 H 576.739 -2.70446 -2.86798 0
M  V30 6141 H 578.027 -3.13584 -4.00678 0
M  V30 6142 H 577.425 -0.407303 -5.64232 0
M  V30 6143 H 575.982 -0.85182 -6.4621 0
M  V30 6144 N 579.415 0.9433 -1.26252 0
M  V30 6145 C 580.64 1.72898 -1.14547 0
M  V30 6146 C 581.065 1.85761 0.295743 0
M  V30 6147 O 580.423 1.3463 1.21427 0
M  V30 6148 C 580.471 3.11471 -1.8171 0
M  V30 6149 O 579.575 3.97336 -1.10445 0
M  V30 6150 H 578.916 0.530555 -0.399259 0
M  V30 6151 H 581.446 1.18159 -1.67032 0
M  V30 6152 H 581.456 3.61872 -1.88449 0
M  V30 6153 H 580.131 3.01425 -2.86558 0
M  V30 6154 H 578.708 3.55788 -1.11666 0
M  V30 6155 N 580.893 1.08022 1.14757 0
M  V30 6156 C 582.141 0.805913 1.85336 0
M  V30 6157 C 582.462 -0.670162 1.83122 0
M  V30 6158 O 581.732 -1.48567 1.2769 0
M  V30 6159 H 580.312 0.295138 0.686223 0
M  V30 6160 H 582.974 1.36538 1.3908 0
M  V30 6161 H 582.07 1.14655 2.90277 0
M  V30 6162 N 582.371 -1.3172 0.865308 0
M  V30 6163 C 583.618 -1.96876 0.473931 0
M  V30 6164 C 583.946 -1.68425 -0.972786 0
M  V30 6165 O 583.201 -0.970742 -1.69927 0
M  V30 6166 C 583.5 -3.5102 0.672283 0
M  V30 6167 C 583.166 -3.9948 2.09108 0
M  V30 6168 C 581.828 -4.12425 2.4791 0
M  V30 6169 C 584.18 -4.2503 3.0166 0
M  V30 6170 C 581.508 -4.48267 3.78515 0
M  V30 6171 C 583.86 -4.62335 4.31774 0
M  V30 6172 C 582.524 -4.73486 4.70497 0
M  V30 6173 H 581.794 -0.72042 0.173424 0
M  V30 6174 H 584.441 -1.56937 1.0974 0
M  V30 6175 H 582.746 -3.91785 -0.034356 0
M  V30 6176 H 584.443 -3.99475 0.349353 0
M  V30 6177 H 581.033 -3.89898 1.77981 0
M  V30 6178 H 585.217 -4.14529 2.7291 0
M  V30 6179 H 580.473 -4.55097 4.08285 0
M  V30 6180 H 584.647 -4.81058 5.03543 0
M  V30 6181 H 582.274 -5.01016 5.71741 0
M  V30 6182 N 583.85 -0.624285 -1.44708 0
M  V30 6183 C 585.099 -0.123539 -2.01321 0
M  V30 6184 C 585.412 1.25966 -1.49639 0
M  V30 6185 O 586.618 1.85405 -1.98336 0
M  V30 6186 C 585.074 -0.170124 -3.59498 0
M  V30 6187 C 584.682 -1.55421 -4.20176 0
M  V30 6188 C 586.426 0.274513 -4.23611 0
M  V30 6189 C 584.332 -1.55628 -5.70556 0
M  V30 6190 H 583.263 -0.0424183 -0.752806 0
M  V30 6191 H 585.913 -0.782076 -1.65999 0
M  V30 6192 H 584.296 0.555385 -3.92086 0
M  V30 6193 H 585.47 -2.30276 -3.99136 0
M  V30 6194 H 583.784 -1.94235 -3.68323 0
M  V30 6195 H 586.382 0.292402 -5.339 0
M  V30 6196 H 586.725 1.3005 -3.95465 0
M  V30 6197 H 587.258 -0.398275 -3.95801 0
M  V30 6198 H 583.997 -2.56041 -6.03426 0
M  V30 6199 H 583.517 -0.850563 -5.93739 0
M  V30 6200 H 585.196 -1.28721 -6.34066 0
M  V30 6201 N 585.328 1.53329 -0.364422 0
M  V30 6202 C 586.744 1.59594 -0.0133165 0
M  V30 6203 C 586.944 1.37959 1.46865 0
M  V30 6204 O 586 1.18418 2.2301 0
M  V30 6205 C 587.313 2.97032 -0.468213 0
M  V30 6206 C 588.861 3.10138 -0.422334 0
M  V30 6207 C 589.336 4.49986 -0.853024 0
M  V30 6208 N 590.827 4.56098 -0.808037 0
M  V30 6209 C 591.562 5.62495 -1.11299 0
M  V30 6210 N 591.058 6.7665 -1.48717 0
M  V30 6211 N 592.851 5.52473 -1.03586 0
M  V30 6212 H 585.002 1.65644 -1.32951 0
M  V30 6213 H 587.265 0.77684 -0.543345 0
M  V30 6214 H 586.971 3.18 -1.5023 0
M  V30 6215 H 586.845 3.76918 0.145775 0
M  V30 6216 H 589.232 2.88881 0.602622 0
M  V30 6217 H 589.313 2.32263 -1.0718 0
M  V30 6218 H 588.957 4.7198 -1.87609 0
M  V30 6219 H 588.887 5.26289 -0.180819 0
M  V30 6220 H 591.378 3.74131 -0.532361 0
M  V30 6221 H 591.691 7.53776 -1.70415 0
M  V30 6222 H 590.036 6.78044 -1.52581 0
M  V30 6223 H 593.227 4.6217 -0.742736 0
M  V30 6224 H 593.4 6.35295 -1.27686 0
M  V30 6225 N 586.806 0.0935595 1.57322 0
M  V30 6226 C 588.222 -0.263091 1.57417 0
M  V30 6227 C 588.422 -1.68526 1.1046 0
M  V30 6228 O 587.478 -2.40139 0.780357 0
M  V30 6229 C 588.791 -0.0529201 3.00653 0
M  V30 6230 C 590.339 -0.120788 3.12767 0
M  V30 6231 C 590.814 0.0613707 4.57959 0
M  V30 6232 N 592.305 0.00648534 4.632 0
M  V30 6233 C 593.04 0.122699 5.73269 0
M  V30 6234 N 592.536 0.29366 6.92177 0
M  V30 6235 N 594.329 0.0640787 5.62063 0
M  V30 6236 H 586.48 1.02277 1.86154 0
M  V30 6237 H 588.743 0.4007 0.859153 0
M  V30 6238 H 588.449 0.929279 3.39201 0
M  V30 6239 H 588.323 -0.795899 3.68708 0
M  V30 6240 H 590.71 -1.09349 2.74093 0
M  V30 6241 H 590.791 0.653656 2.47307 0
M  V30 6242 H 590.435 1.03093 4.97327 0
M  V30 6243 H 590.365 -0.732748 5.21477 0
M  V30 6244 H 592.856 -0.123173 3.77699 0
M  V30 6245 H 593.169 0.37389 7.71895 0
M  V30 6246 H 591.514 0.329307 6.94219 0
M  V30 6247 H 594.705 -0.0683396 4.6805 0
M  V30 6248 H 594.878 0.158097 6.47807 0
M  V30 6249 N 588.284 -1.56567 -0.180126 0
M  V30 6250 C 589.231 -1.95725 -1.22313 0
M  V30 6251 C 590.201 -0.819911 -1.44453 0
M  V30 6252 O 591.386 -1.07931 -1.57339 0
M  V30 6253 C 588.526 -2.31484 -2.55947 0
M  V30 6254 C 587.639 -3.58354 -2.4126 0
M  V30 6255 C 586.774 -3.83366 -3.67701 0
M  V30 6256 C 585.813 -5.03612 -3.47909 0
M  V30 6257 N 584.95 -5.24802 -4.66398 0
M  V30 6258 H 589.79 -2.84642 -0.882198 0
M  V30 6259 H 587.327 -1.4085 -0.42422 0
M  V30 6260 H 589.285 -2.50237 -3.33822 0
M  V30 6261 H 587.915 -1.45689 -2.88053 0
M  V30 6262 H 586.967 -3.47565 -1.54606 0
M  V30 6263 H 588.279 -4.46386 -2.22577 0
M  V30 6264 H 587.433 -4.02439 -4.54013 0
M  V30 6265 H 586.172 -2.93692 -3.89353 0
M  V30 6266 H 585.177 -4.84447 -2.59983 0
M  V30 6267 H 586.402 -5.94809 -3.27688 0
M  V30 6268 H 584.348 -4.38079 -4.88286 0
M  V30 6269 H 584.265 -6.07041 -4.50596 0
M  V30 6270 H 585.533 -5.48346 -5.54019 0
M  V30 6271 N 589.762 0.448376 -1.51087 0
M  V30 6272 C 590.695 1.56298 -1.66272 0
M  V30 6273 C 591.673 1.54381 -0.510419 0
M  V30 6274 O 592.857 1.73671 -0.732854 0
M  V30 6275 C 589.984 2.94883 -1.66618 0
M  V30 6276 C 589.03 3.14868 -2.87681 0
M  V30 6277 S 589.863 2.9234 -4.48662 0
M  V30 6278 C 591.019 4.33227 -4.51735 0
M  V30 6279 H 591.252 1.43182 -2.6055 0
M  V30 6280 H 588.785 0.637309 -1.40633 0
M  V30 6281 H 590.743 3.74771 -1.67502 0
M  V30 6282 H 589.404 3.05371 -0.735358 0
M  V30 6283 H 588.597 4.16166 -2.84292 0
M  V30 6284 H 588.199 2.42788 -2.84482 0
M  V30 6285 H 590.491 5.26247 -4.26697 0
M  V30 6286 H 591.434 4.41653 -5.53487 0
M  V30 6287 H 591.842 4.16367 -3.81181 0
M  V30 6288 N 591.24 1.41047 0.703093 0
M  V30 6289 C 592.17 1.45067 1.82969 0
M  V30 6290 C 593.151 0.31016 1.67248 0
M  V30 6291 O 594.336 0.520548 1.87093 0
M  V30 6292 C 591.466 1.32478 3.2104 0
M  V30 6293 C 590.42 2.44262 3.51454 0
M  V30 6294 C 589.746 2.16742 4.88801 0
M  V30 6295 C 591.046 3.86606 3.51189 0
M  V30 6296 H 592.74 2.39353 1.79863 0
M  V30 6297 H 590.286 1.15206 0.863919 0
M  V30 6298 H 592.239 1.33904 3.99559 0
M  V30 6299 H 590.963 0.346735 3.24754 0
M  V30 6300 H 589.622 2.42107 2.75282 0
M  V30 6301 H 589.27 1.17299 4.89132 0
M  V30 6302 H 588.97 2.91643 5.10116 0
M  V30 6303 H 590.494 2.19872 5.69639 0
M  V30 6304 H 591.908 3.90517 4.19725 0
M  V30 6305 H 590.305 4.61128 3.84033 0
M  V30 6306 H 591.375 4.15296 2.50315 0
M  V30 6307 N 592.718 -0.936591 1.26751 0
M  V30 6308 C 593.648 -2.05315 1.11212 0
M  V30 6309 C 594.629 -1.70092 0.0160262 0
M  V30 6310 O 595.814 -1.93279 0.188894 0
M  V30 6311 C 592.944 -3.39123 0.749171 0
M  V30 6312 C 591.898 -3.88425 1.79751 0
M  V30 6313 C 591.224 -5.18936 1.28876 0
M  V30 6314 C 592.524 -4.12798 3.19992 0
M  V30 6315 H 594.218 -2.18573 2.04613 0
M  V30 6316 H 591.764 -1.05027 0.985159 0
M  V30 6317 H 593.717 -4.16704 0.627323 0
M  V30 6318 H 592.441 -3.25855 -0.220543 0
M  V30 6319 H 591.1 -3.13028 1.90811 0
M  V30 6320 H 590.748 -5.02051 0.308757 0
M  V30 6321 H 590.448 -5.52892 1.98958 0
M  V30 6322 H 591.972 -5.99096 1.17967 0
M  V30 6323 H 593.386 -4.80977 3.11983 0
M  V30 6324 H 591.783 -4.58044 3.87705 0
M  V30 6325 H 592.853 -3.18412 3.65707 0
M  V30 6326 N 594.196 -1.08629 -1.14182 0
M  V30 6327 C 595.442 -0.828415 -1.85766 0
M  V30 6328 C 595.797 0.638947 -1.81481 0
M  V30 6329 O 595.09 1.46386 -1.23619 0
M  V30 6330 C 595.284 -1.28734 -3.3341 0
M  V30 6331 C 595.113 -2.79778 -3.52071 0
M  V30 6332 C 593.883 -3.47554 -3.66789 0
M  V30 6333 C 596.081 -3.77945 -3.48801 0
M  V30 6334 N 594.063 -4.87107 -3.73631 0
M  V30 6335 C 595.434 -5.03406 -3.61914 0
M  V30 6336 C 597.489 -3.70917 -3.32152 0
M  V30 6337 C 596.192 -6.22673 -3.60098 0
M  V30 6338 C 598.218 -4.89662 -3.31641 0
M  V30 6339 C 597.58 -6.13962 -3.45296 0
M  V30 6340 H 593.679 -0.355884 -0.696327 0
M  V30 6341 H 596.263 -1.38508 -1.36834 0
M  V30 6342 H 594.434 -0.75822 -3.80927 0
M  V30 6343 H 596.166 -0.975649 -3.92764 0
M  V30 6344 H 592.921 -2.97972 -3.68116 0
M  V30 6345 H 593.345 -5.59775 -3.80763 0
M  V30 6346 H 597.987 -2.75749 -3.20504 0
M  V30 6347 H 595.705 -7.1815 -3.70522 0
M  V30 6348 H 599.291 -4.85914 -3.19968 0
M  V30 6349 H 598.171 -7.04307 -3.44851 0
M  V30 6350 N 595.674 1.31259 -0.872281 0
M  V30 6351 C 596.637 2.26744 -0.334656 0
M  V30 6352 C 597.637 1.52307 0.515681 0
M  V30 6353 O 598.827 1.71148 0.324656 0
M  V30 6354 C 595.959 3.36841 0.524482 0
M  V30 6355 H 597.152 2.75812 -1.17762 0
M  V30 6356 H 594.705 1.42232 -0.648064 0
M  V30 6357 H 595.44 2.93069 1.38855 0
M  V30 6358 H 595.225 3.92009 -0.0844299 0
M  V30 6359 H 596.715 4.07944 0.892838 0
M  V30 6360 N 597.152 0.631951 1.44375 0
M  V30 6361 C 598.085 -0.121822 2.27875 0
M  V30 6362 C 599.063 -0.850457 1.38586 0
M  V30 6363 O 600.247 -0.854378 1.68026 0
M  V30 6364 C 597.374 -1.17859 3.17533 0
M  V30 6365 C 596.42 -0.550391 4.22934 0
M  V30 6366 S 597.253 0.660145 5.31415 0
M  V30 6367 C 598.409 -0.396613 6.24642 0
M  V30 6368 H 598.642 0.586537 2.91457 0
M  V30 6369 H 596.175 0.420146 1.48574 0
M  V30 6370 H 598.133 -1.78335 3.69739 0
M  V30 6371 H 596.794 -1.85915 2.53169 0
M  V30 6372 H 595.987 -1.34631 4.85685 0
M  V30 6373 H 595.589 -0.0202306 3.73995 0
M  V30 6374 H 597.881 -1.26893 6.65511 0
M  V30 6375 H 598.824 0.195345 7.0783 0
M  V30 6376 H 599.232 -0.72288 5.59852 0
M  V30 6377 N 598.631 -1.53133 0.372548 0
M  V30 6378 C 599.856 -2.0625 -0.218098 0
M  V30 6379 C 600.281 -1.24375 -1.41111 0
M  V30 6380 O 599.639 -0.264554 -1.79359 0
M  V30 6381 C 599.687 -3.55858 -0.582876 0
M  V30 6382 O 598.791 -3.76667 -1.67917 0
M  V30 6383 H 598.132 -0.663317 -0.030104 0
M  V30 6384 H 600.662 -1.97477 0.535169 0
M  V30 6385 H 600.672 -3.99007 -0.851925 0
M  V30 6386 H 599.347 -4.14892 0.289428 0
M  V30 6387 H 597.924 -3.45413 -1.40513 0
M  V30 6388 N 600.109 -0.101901 -1.5727 0
M  V30 6389 C 601.355 0.561027 -1.94885 0
M  V30 6390 C 601.688 1.6741 -0.984258 0
M  V30 6391 O 600.963 1.94491 -0.0184767 0
M  V30 6392 C 601.246 1.10982 -3.42571 0
M  V30 6393 C 601.099 0.00133418 -4.498 0
M  V30 6394 C 602.418 2.00608 -3.9172 0
M  V30 6395 H 599.537 0.202467 -0.708644 0
M  V30 6396 H 602.179 -0.173992 -1.89202 0
M  V30 6397 H 600.329 1.73621 -3.47546 0
M  V30 6398 H 602.001 -0.63322 -4.56933 0
M  V30 6399 H 600.244 -0.664143 -4.28686 0
M  V30 6400 H 600.915 0.426253 -5.50352 0
M  V30 6401 H 603.391 1.47864 -3.88941 0
M  V30 6402 H 602.267 2.3593 -4.95609 0
M  V30 6403 H 602.528 2.92608 -3.3141 0
M  V30 6404 N 601.587 1.56661 0.17182 0
M  V30 6405 C 602.815 1.861 0.904115 0
M  V30 6406 C 603.23 0.687227 1.75848 0
M  V30 6407 O 602.587 -0.343671 1.79235 0
M  V30 6408 C 602.638 3.14568 1.78127 0
M  V30 6409 O 602.359 4.27422 0.961366 0
M  V30 6410 C 603.86 3.5735 2.62327 0
M  V30 6411 H 601.08 0.617445 0.262684 0
M  V30 6412 H 603.624 2.03775 0.172068 0
M  V30 6413 H 601.779 2.98721 2.46666 0
M  V30 6414 H 602.193 5.00725 1.56123 0
M  V30 6415 H 603.667 4.50144 3.1949 0
M  V30 6416 H 604.144 2.81445 3.37173 0
M  V30 6417 H 604.75 3.75807 1.99121 0
M  V30 6418 N 603.065 -0.440357 1.51323 0
M  V30 6419 C 603.995 -1.54174 1.75364 0
M  V30 6420 C 604.976 -1.59039 0.603375 0
M  V30 6421 O 606.161 -1.74815 0.845774 0
M  V30 6422 C 603.291 -2.92277 1.87593 0
M  V30 6423 C 602.245 -3.02274 3.03009 0
M  V30 6424 C 601.571 -4.42327 3.00418 0
M  V30 6425 C 602.871 -2.76634 4.43024 0
M  V30 6426 H 604.565 -1.34307 2.67585 0
M  V30 6427 H 602.111 -0.644678 1.28763 0
M  V30 6428 H 604.064 -3.69284 2.02995 0
M  V30 6429 H 602.788 -3.13369 0.920179 0
M  V30 6430 H 601.447 -2.27706 2.87307 0
M  V30 6431 H 601.095 -4.60382 2.02626 0
M  V30 6432 H 600.795 -4.49946 3.77918 0
M  V30 6433 H 602.319 -5.21312 3.17909 0
M  V30 6434 H 603.733 -3.43376 4.59093 0
M  V30 6435 H 602.13 -2.95666 5.22208 0
M  V30 6436 H 603.2 -1.72262 4.5327 0
M  V30 6437 N 604.543 -1.41418 -0.695603 0
M  V30 6438 C 605.453 -1.45622 -1.83933 0
M  V30 6439 C 606.469 -0.346825 -1.70508 0
M  V30 6440 O 607.645 -0.59454 -1.92424 0
M  V30 6441 C 604.71 -1.33627 -3.19914 0
M  V30 6442 C 603.771 -2.54882 -3.45447 0
M  V30 6443 C 603.004 -2.43449 -4.7494 0
M  V30 6444 O 603.227 -1.45905 -5.51424 0
M  V30 6445 O 602.161 -3.33206 -5.01256 0
M  V30 6446 H 605.987 -2.42114 -1.83342 0
M  V30 6447 H 603.572 -1.22956 -0.848658 0
M  V30 6448 H 605.454 -1.29221 -4.01098 0
M  V30 6449 H 604.129 -0.402508 -3.21188 0
M  V30 6450 H 603.036 -2.64865 -2.64192 0
M  V30 6451 H 604.369 -3.47087 -3.48987 0
M  V30 6452 N 606.021 0.929856 -1.27246 0
M  V30 6453 C 606.953 2.03434 -1.0558 0
M  V30 6454 C 607.966 1.62795 -0.0125762 0
M  V30 6455 O 609.155 1.76685 -0.2539 0
M  V30 6456 C 606.255 3.33915 -0.57912 0
M  V30 6457 C 605.428 4.03259 -1.69415 0
M  V30 6458 C 604.487 5.12014 -1.21357 0
M  V30 6459 O 603.513 5.36097 -1.91282 0
M  V30 6460 N 604.715 5.8046 -0.0680622 0
M  V30 6461 H 607.48 2.22583 -2.00691 0
M  V30 6462 H 605.041 1.1001 -1.18783 0
M  V30 6463 H 607.033 4.03978 -0.241563 0
M  V30 6464 H 605.603 3.11355 0.278703 0
M  V30 6465 H 604.823 3.26958 -2.20209 0
M  V30 6466 H 606.111 4.46337 -2.44255 0
M  V30 6467 H 605.509 5.63345 0.515626 0
M  V30 6468 H 604.066 6.51461 0.210332 0
M  V30 6469 N 607.499 1.09233 1.13605 0
M  V30 6470 C 608.447 0.724572 2.21027 0
M  V30 6471 C 609.441 -0.273595 1.67176 0
M  V30 6472 O 610.647 -0.135266 1.79491 0
M  V30 6473 H 607.022 0.216319 0.720215 0
M  V30 6474 H 608.993 1.63975 2.49309 0
M  V30 6475 C 607.742 0.159126 3.47336 0
M  V30 6476 H 607.065 0.918387 3.89109 0
M  V30 6477 H 608.505 -0.0602851 4.23957 0
M  V30 6478 C 606.964 -1.10514 3.18258 0
M  V30 6479 O 607.494 -2.18869 3.36837 0
M  V30 6480 N 605.7 -1.01886 2.72154 0
M  V30 6481 H 605.247 -0.137027 2.57235 0
M  V30 6482 H 605.205 -1.8655 2.53074 0
M  V30 6483 N 608.977 -1.30795 0.87923 0
M  V30 6484 C 609.907 -2.30742 0.357796 0
M  V30 6485 C 610.888 -1.60747 -0.556283 0
M  V30 6486 O 612.073 -1.88393 -0.47135 0
M  V30 6487 C 609.203 -3.44583 -0.433555 0
M  V30 6488 C 608.157 -4.26235 0.388251 0
M  V30 6489 C 607.483 -5.32073 -0.529352 0
M  V30 6490 C 608.783 -4.96303 1.62729 0
M  V30 6491 H 610.477 -2.74605 1.19299 0
M  V30 6492 H 608.023 -1.32017 0.575104 0
M  V30 6493 H 609.976 -4.13563 -0.808934 0
M  V30 6494 H 608.7 -2.99511 -1.30234 0
M  V30 6495 H 607.359 -3.58936 0.745695 0
M  V30 6496 H 607.007 -4.83249 -1.39569 0
M  V30 6497 H 606.707 -5.87598 0.0166741 0
M  V30 6498 H 608.231 -6.0391 -0.901373 0
M  V30 6499 H 609.645 -5.5783 1.32283 0
M  V30 6500 H 608.042 -5.61666 2.11309 0
M  V30 6501 H 609.112 -4.22758 2.37494 0
M  V30 6502 N 610.455 -0.639598 -1.44038 0
M  V30 6503 C 611.683 -0.154811 -2.0632 0
M  V30 6504 C 612.098 1.17406 -1.47856 0
M  V30 6505 O 611.455 1.72193 -0.604638 0
M  V30 6506 C 611.506 -0.0429958 -3.61474 0
M  V30 6507 O 611.227 -1.31932 -4.17763 0
M  V30 6508 C 612.728 0.469486 -4.40807 0
M  V30 6509 H 609.948 -0.0835862 -0.665773 0
M  V30 6510 H 612.492 -0.876397 -1.84769 0
M  V30 6511 H 610.647 0.629075 -3.82258 0
M  V30 6512 H 611.061 -1.16965 -5.11292 0
M  V30 6513 H 612.535 0.496712 -5.49761 0
M  V30 6514 H 613.012 1.49819 -4.12857 0
M  V30 6515 H 613.618 -0.169624 -4.24962 0
M  V30 6516 N 611.933 1.52934 -0.380664 0
M  V30 6517 C 613.173 2.03378 0.204161 0
M  V30 6518 C 613.537 1.26132 1.44758 0
M  V30 6519 O 614.738 1.66657 2.109 0
M  V30 6520 C 613.009 3.54241 0.474118 0
M  V30 6521 S 614.568 4.26529 1.03046 0
M  V30 6522 H 611.386 0.708608 0.0582719 0
M  V30 6523 H 613.988 1.88263 -0.527017 0
M  V30 6524 H 612.692 4.08055 -0.438088 0
M  V30 6525 H 612.223 3.73547 1.23396 0
M  V30 6526 H 614.238 4.38964 2.31354 0
M  V30 6527 N 613.412 0.11024 1.57214 0
M  V30 6528 C 614.823 -0.416527 1.81994 0
M  V30 6529 C 615.174 -1.67183 1.02686 0
M  V30 6530 O 614.299 -2.14823 0.260782 0
M  V30 6531 C 614.894 -0.762466 3.30109 0
M  V30 6532 C 613.453 -1.23391 3.556 0
M  V30 6533 C 612.6 -0.238166 2.76275 0
M  V30 6534 H 615.551 0.335491 1.55113 0
M  V30 6535 H 615.572 -1.62068 3.44259 0
M  V30 6536 H 615.084 0.151346 3.87805 0
M  V30 6537 H 613.185 -2.16492 3.03253 0
M  V30 6538 H 613.298 -1.18528 4.64207 0
M  V30 6539 H 611.662 -0.723421 2.4421 0
M  V30 6540 H 612.445 0.668591 3.36727 0
M  V30 6541 N 614.89 -1.56749 -0.16351 0
M  V30 6542 C 616.138 -1.82074 -0.87713 0
M  V30 6543 C 616.459 -0.688503 -1.82441 0
M  V30 6544 O 615.729 0.291085 -1.93725 0
M  V30 6545 H 614.309 -0.671677 -0.326893 0
M  V30 6546 H 616.971 -1.9423 -0.161459 0
M  V30 6547 H 616.067 -2.76407 -1.44934 0
M  V30 6548 N 616.368 0.432326 -1.51554 0
M  V30 6549 C 617.593 1.20824 -1.68571 0
M  V30 6550 C 618.018 1.84126 -0.384596 0
M  V30 6551 O 617.376 1.69025 0.655751 0
M  V30 6552 C 617.424 2.26429 -2.80646 0
M  V30 6553 O 616.528 3.32032 -2.44598 0
M  V30 6554 H 615.869 0.353765 -0.561913 0
M  V30 6555 H 618.399 0.509916 -1.98144 0
M  V30 6556 H 618.409 2.71133 -3.04878 0
M  V30 6557 H 617.084 1.79733 -3.75058 0
M  V30 6558 H 615.661 2.92769 -2.30956 0
M  V30 6559 N 617.846 1.41785 0.688094 0
M  V30 6560 C 619.123 1.32031 1.44316 0
M  V30 6561 C 619.503 -0.0486079 2.11044 0
M  V30 6562 O 618.851 -1.06332 2.02252 0
M  V30 6563 C 619.061 2.47906 2.45649 0
M  V30 6564 C 620.409 2.89415 3.10683 0
M  V30 6565 O 621.433 2.477 2.55975 0
M  V30 6566 O 620.292 3.61573 4.09789 0
M  V30 6567 H 617.386 0.519994 0.643067 0
M  V30 6568 H 619.932 1.53765 0.71794 0
M  V30 6569 H 618.704 3.39222 1.95048 0
M  V30 6570 H 618.327 2.28089 3.25671 0
M  V30 6571 N 619.324 -0.923095 1.27737 0
M  V30 6572 C 620.254 -2.04124 1.13383 0
M  V30 6573 C 621.235 -1.70066 0.0340658 0
M  V30 6574 O 622.42 -1.93068 0.209383 0
M  V30 6575 C 619.55 -3.3831 0.785097 0
M  V30 6576 C 618.504 -3.86496 1.8386 0
M  V30 6577 C 617.83 -5.1754 1.34373 0
M  V30 6578 C 619.13 -4.09381 3.24353 0
M  V30 6579 H 620.824 -2.1639 2.06919 0
M  V30 6580 H 618.37 -1.03976 0.996243 0
M  V30 6581 H 620.323 -4.16016 0.671485 0
M  V30 6582 H 619.047 -3.2607 -0.185969 0
M  V30 6583 H 617.706 -3.10987 1.9412 0
M  V30 6584 H 617.354 -5.01696 0.361989 0
M  V30 6585 H 617.054 -5.50751 2.04811 0
M  V30 6586 H 618.578 -5.97811 1.24315 0
M  V30 6587 H 619.992 -4.77641 3.17067 0
M  V30 6588 H 618.389 -4.53906 3.92542 0
M  V30 6589 H 619.459 -3.14515 3.69064 0
M  V30 6590 N 620.802 -1.09834 -1.13024 0
M  V30 6591 C 621.749 -0.741522 -2.18564 0
M  V30 6592 C 622.719 0.279236 -1.63736 0
M  V30 6593 O 623.904 0.159923 -1.90129 0
M  V30 6594 C 621.044 -0.17277 -3.44667 0
M  V30 6595 C 620.157 -1.24808 -4.13578 0
M  V30 6596 C 619.292 -0.641631 -5.27311 0
M  V30 6597 C 618.331 -1.69795 -5.88078 0
M  V30 6598 N 617.468 -1.11223 -6.93234 0
M  V30 6599 H 622.308 -1.64576 -2.48432 0
M  V30 6600 H 619.845 -0.822174 -1.21978 0
M  V30 6601 H 621.803 0.17482 -4.16834 0
M  V30 6602 H 620.433 0.694725 -3.15235 0
M  V30 6603 H 619.485 -1.71288 -3.39653 0
M  V30 6604 H 620.797 -2.04795 -4.54819 0
M  V30 6605 H 619.951 -0.243128 -6.06213 0
M  V30 6606 H 618.69 0.189742 -4.87331 0
M  V30 6607 H 617.695 -2.10595 -5.07868 0
M  V30 6608 H 618.92 -2.53206 -6.3013 0
M  V30 6609 H 616.866 -0.302208 -6.55304 0
M  V30 6610 H 616.783 -1.84901 -7.3304 0
M  V30 6611 H 618.051 -0.740068 -7.75979 0
M  V30 6612 N 622.28 1.30327 -0.886154 0
M  V30 6613 C 623.691 1.78243 -0.555554 0
M  V30 6614 C 624.042 1.72849 0.928314 0
M  V30 6615 O 623.167 1.30607 1.72542 0
M  V30 6616 C 623.762 3.23654 -1.00168 0
M  V30 6617 C 622.321 3.69401 -0.722471 0
M  V30 6618 C 621.468 2.50753 -1.18399 0
M  V30 6619 H 624.419 1.1718 -1.07026 0
M  V30 6620 H 624.44 3.79056 -0.331152 0
M  V30 6621 H 623.952 3.27548 -2.08169 0
M  V30 6622 H 622.053 3.70995 0.345496 0
M  V30 6623 H 622.166 4.60818 -1.31085 0
M  V30 6624 H 620.53 2.47452 -0.603303 0
M  V30 6625 H 621.313 2.57383 -2.27176 0
M  V30 6626 N 623.758 0.647228 1.43697 0
M  V30 6627 C 625.005 0.158188 2.01881 0
M  V30 6628 C 625.333 -1.22573 1.51017 0
M  V30 6629 O 624.588 -1.83086 0.69122 0
M  V30 6630 C 624.887 0.111481 3.57226 0
M  V30 6631 C 624.553 1.43633 4.27411 0
M  V30 6632 C 623.215 1.79915 4.463 0
M  V30 6633 C 625.567 2.31011 4.67208 0
M  V30 6634 C 622.895 3.03251 5.02251 0
M  V30 6635 C 625.247 3.53633 5.24525 0
M  V30 6636 C 623.911 3.90118 5.41631 0
M  V30 6637 H 623.181 0.0578851 0.738736 0
M  V30 6638 H 625.828 0.836746 1.72252 0
M  V30 6639 H 624.133 -0.650507 3.86362 0
M  V30 6640 H 625.83 -0.283682 3.99995 0
M  V30 6641 H 622.42 1.14403 4.1305 0
M  V30 6642 H 626.604 2.04272 4.52313 0
M  V30 6643 H 621.86 3.31575 5.13681 0
M  V30 6644 H 626.034 4.21561 5.5431 0
M  V30 6645 H 623.661 4.85768 5.84751 0
M  V30 6646 N 625.236 -1.5273 0.388769 0
M  V30 6647 C 626.464 -2.05992 -0.193677 0
M  V30 6648 C 626.879 -1.26053 -1.40557 0
M  V30 6649 O 626.236 -0.307049 -1.79898 0
M  V30 6650 C 626.287 -3.57068 -0.564321 0
M  V30 6651 O 626.008 -4.3398 0.599422 0
M  V30 6652 C 627.509 -4.26674 -1.20269 0
M  V30 6653 H 624.729 -0.670358 -0.0293445 0
M  V30 6654 H 627.273 -1.96857 0.553844 0
M  V30 6655 H 625.428 -3.66277 -1.26174 0
M  V30 6656 H 625.842 -5.2367 0.294895 0
M  V30 6657 H 627.316 -5.33625 -1.4124 0
M  V30 6658 H 627.793 -3.81854 -2.16989 0
M  V30 6659 H 628.399 -4.2178 -0.546047 0
M  V30 6660 N 626.714 -0.118576 -1.57153 0
M  V30 6661 C 627.942 0.54726 -1.99531 0
M  V30 6662 C 628.357 1.60251 -0.998246 0
M  V30 6663 O 627.714 1.82498 0.00893106 0
M  V30 6664 C 627.765 1.17378 -3.41913 0
M  V30 6665 O 627.486 0.160703 -4.37805 0
M  V30 6666 C 628.987 1.92297 -3.9942 0
M  V30 6667 H 626.207 0.144919 -0.655164 0
M  V30 6668 H 628.751 -0.20479 -2.03472 0
M  V30 6669 H 626.906 1.87661 -3.38913 0
M  V30 6670 H 627.32 0.61586 -5.20872 0
M  V30 6671 H 628.794 2.31462 -5.01128 0
M  V30 6672 H 629.271 2.79801 -3.38538 0
M  V30 6673 H 629.877 1.26777 -4.05965 0
M  V30 6674 N 628.193 1.56834 0.155195 0
M  V30 6675 C 629.609 1.51315 0.50755 0
M  V30 6676 C 629.809 0.825614 1.83809 0
M  V30 6677 O 628.865 0.39271 2.49427 0
M  V30 6678 C 630.178 2.96074 0.52542 0
M  V30 6679 C 631.726 3.06968 0.611505 0
M  V30 6680 C 632.201 4.53218 0.660115 0
M  V30 6681 N 633.692 4.5753 0.722564 0
M  V30 6682 C 634.427 5.68056 0.781023 0
M  V30 6683 N 633.923 6.88173 0.799327 0
M  V30 6684 N 635.716 5.56068 0.821278 0
M  V30 6685 H 627.867 1.9993 -0.717063 0
M  V30 6686 H 630.13 0.911507 -0.260496 0
M  V30 6687 H 629.836 3.49599 -0.383875 0
M  V30 6688 H 629.71 3.51587 1.36624 0
M  V30 6689 H 632.097 2.53468 1.51122 0
M  V30 6690 H 632.178 2.54513 -0.256306 0
M  V30 6691 H 631.822 5.07354 -0.23541 0
M  V30 6692 H 631.752 5.03447 1.5443 0
M  V30 6693 H 634.243 3.71054 0.716049 0
M  V30 6694 H 634.556 7.6816 0.845553 0
M  V30 6695 H 632.901 6.90751 0.767337 0
M  V30 6696 H 636.092 4.61142 0.804091 0
M  V30 6697 H 636.265 6.42223 0.863372 0
M  V30 6698 N 629.671 -0.424282 1.51781 0
M  V30 6699 C 630.601 -1.52305 1.7699 0
M  V30 6700 C 631.582 -1.5839 0.620209 0
M  V30 6701 O 632.767 -1.73908 0.864268 0
M  V30 6702 C 629.897 -2.90271 1.90683 0
M  V30 6703 C 628.851 -2.99043 3.06198 0
M  V30 6704 C 628.177 -4.39116 3.05092 0
M  V30 6705 C 629.477 -2.7192 4.45934 0
M  V30 6706 H 631.171 -1.31461 2.68995 0
M  V30 6707 H 628.717 -0.630985 1.29439 0
M  V30 6708 H 630.67 -3.6711 2.06901 0
M  V30 6709 H 629.394 -3.12376 0.953365 0
M  V30 6710 H 628.053 -2.24646 2.89706 0
M  V30 6711 H 627.701 -4.58207 2.07498 0
M  V30 6712 H 627.401 -4.45912 3.82669 0
M  V30 6713 H 628.925 -5.17911 3.2342 0
M  V30 6714 H 630.339 -3.38487 4.62709 0
M  V30 6715 H 628.736 -2.90111 5.25315 0
M  V30 6716 H 629.806 -1.67445 4.55072 0
M  V30 6717 N 631.149 -1.42148 -0.680565 0
M  V30 6718 C 632.112 -1.4488 -1.77602 0
M  V30 6719 C 633.112 -0.337209 -1.57224 0
M  V30 6720 O 634.302 -0.597778 -1.63622 0
M  V30 6721 C 631.434 -1.27483 -3.16166 0
M  V30 6722 H 632.627 -2.42412 -1.76568 0
M  V30 6723 H 630.18 -1.28511 -0.889645 0
M  V30 6724 H 630.915 -0.30851 -3.22829 0
M  V30 6725 H 630.7 -2.08037 -3.3236 0
M  V30 6726 H 632.19 -1.32265 -3.96101 0
M  V30 6727 N 632.627 0.916307 -1.28225 0
M  V30 6728 C 633.904 1.64429 -1.05936 0
M  V30 6729 C 634.284 2.07234 0.402139 0
M  V30 6730 O 633.632 1.81535 1.3877 0
M  V30 6731 C 633.842 2.83773 -2.03159 0
M  V30 6732 C 635.19 3.54852 -2.33164 0
M  V30 6733 O 636.214 2.93918 -2.01223 0
M  V30 6734 O 635.073 4.64663 -2.87664 0
M  V30 6735 H 632.167 0.721221 -0.404683 0
M  V30 6736 H 634.713 0.965838 -1.39534 0
M  V30 6737 H 633.485 2.49217 -3.01673 0
M  V30 6738 H 633.108 3.59333 -1.70192 0
M  V30 6739 N 634.105 1.10431 1.1244 0
M  V30 6740 C 635.335 0.867612 1.87499 0
M  V30 6741 C 635.743 -0.585475 1.79913 0
M  V30 6742 O 635.086 -1.41539 1.171 0
M  V30 6743 C 635.148 1.2374 3.37533 0
M  V30 6744 C 634.812 2.69751 3.68895 0
M  V30 6745 C 635.809 3.67988 3.67261 0
M  V30 6746 C 633.494 3.06135 3.98229 0
M  V30 6747 C 635.488 5.00632 3.9452 0
M  V30 6748 C 633.175 4.38967 4.25149 0
M  V30 6749 C 634.173 5.36025 4.23281 0
M  V30 6750 O 633.861 6.66465 4.49533 0
M  V30 6751 H 633.593 0.311196 0.600111 0
M  V30 6752 H 636.147 1.47257 1.43194 0
M  V30 6753 H 634.377 0.575537 3.82393 0
M  V30 6754 H 636.066 0.978187 3.93937 0
M  V30 6755 H 636.832 3.41224 3.44661 0
M  V30 6756 H 632.711 2.31214 3.98825 0
M  V30 6757 H 636.255 5.7638 3.92978 0
M  V30 6758 H 632.152 4.6547 4.47223 0
M  V30 6759 H 632.92 6.72095 4.67152 0
M  V30 6760 N 635.583 -1.29855 0.893053 0
M  V30 6761 C 636.513 -2.3035 0.382249 0
M  V30 6762 C 637.494 -1.61328 -0.539203 0
M  V30 6763 O 638.679 -1.88882 -0.451342 0
M  V30 6764 C 635.809 -3.45024 -0.396983 0
M  V30 6765 C 634.763 -4.258 0.433437 0
M  V30 6766 C 634.089 -5.32605 -0.472889 0
M  V30 6767 C 635.389 -4.94549 1.67984 0
M  V30 6768 H 637.083 -2.73325 1.22205 0
M  V30 6769 H 634.629 -1.314 0.589073 0
M  V30 6770 H 636.582 -4.14398 -0.765024 0
M  V30 6771 H 635.306 -3.00875 -1.2705 0
M  V30 6772 H 633.965 -3.58125 0.783723 0
M  V30 6773 H 633.613 -4.84702 -1.34435 0
M  V30 6774 H 633.313 -5.87547 0.0789958 0
M  V30 6775 H 634.837 -6.04832 -0.837269 0
M  V30 6776 H 636.251 -5.56395 1.38192 0
M  V30 6777 H 634.648 -5.59393 2.17254 0
M  V30 6778 H 635.718 -4.20215 2.41965 0
M  V30 6779 N 637.061 -0.65484 -1.43351 0
M  V30 6780 C 638.307 -0.169142 -2.02093 0
M  V30 6781 C 638.64 1.21431 -1.51553 0
M  V30 6782 O 637.915 1.81105 -0.709317 0
M  V30 6783 C 638.198 -0.181775 -3.59641 0
M  V30 6784 C 638.051 -1.59926 -4.20409 0
M  V30 6785 C 639.37 0.480945 -4.37464 0
M  V30 6786 H 636.489 -0.0629371 -0.734308 0
M  V30 6787 H 639.131 -0.835833 -1.70628 0
M  V30 6788 H 637.281 0.385918 -3.86578 0
M  V30 6789 H 638.953 -2.21766 -4.04497 0
M  V30 6790 H 637.196 -2.14605 -3.76998 0
M  V30 6791 H 637.867 -1.55994 -5.295 0
M  V30 6792 H 640.343 -0.00208273 -4.161 0
M  V30 6793 H 639.219 0.441384 -5.47122 0
M  V30 6794 H 639.48 1.55533 -4.13838 0
M  V30 6795 N 638.539 1.52521 -0.396863 0
M  V30 6796 C 639.469 2.29582 0.425941 0
M  V30 6797 C 640.45 1.33281 1.05689 0
M  V30 6798 O 641.635 1.62181 1.06823 0
M  V30 6799 C 638.765 3.10821 1.54943 0
M  V30 6800 C 637.719 4.15069 1.04413 0
M  V30 6801 C 637.045 4.84578 2.26028 0
M  V30 6802 C 638.345 5.22191 0.106767 0
M  V30 6803 H 640.039 2.98612 -0.217045 0
M  V30 6804 H 637.585 1.43611 -0.105826 0
M  V30 6805 H 639.538 3.63492 2.13193 0
M  V30 6806 H 638.262 2.39538 2.22011 0
M  V30 6807 H 636.921 3.63389 0.484118 0
M  V30 6808 H 636.569 4.09835 2.91623 0
M  V30 6809 H 636.269 5.55043 1.92876 0
M  V30 6810 H 637.793 5.40056 2.84906 0
M  V30 6811 H 639.207 5.70176 0.597685 0
M  V30 6812 H 637.604 5.99947 -0.135352 0
M  V30 6813 H 638.674 4.77531 -0.842134 0
M  V30 6814 N 640.017 0.126909 1.57088 0
M  V30 6815 C 640.98 -0.806097 2.14557 0
M  V30 6816 C 641.98 -1.18918 1.08236 0
M  V30 6817 O 643.17 -1.11339 1.33975 0
M  V30 6818 C 640.302 -2.09116 2.69227 0
M  V30 6819 H 641.495 -0.306522 2.98329 0
M  V30 6820 H 639.048 -0.122393 1.5582 0
M  V30 6821 H 639.783 -2.63486 1.89065 0
M  V30 6822 H 639.568 -1.82588 3.46993 0
M  V30 6823 H 641.058 -2.75794 3.13572 0
M  V30 6824 N 641.495 -1.56914 -0.146875 0
M  V30 6825 C 642.442 -1.98275 -1.18134 0
M  V30 6826 C 643.412 -0.850367 -1.42681 0
M  V30 6827 O 644.597 -1.11244 -1.55014 0
M  V30 6828 C 641.737 -2.36861 -2.5098 0
M  V30 6829 C 640.85 -3.63391 -2.33605 0
M  V30 6830 C 639.985 -3.91079 -3.59486 0
M  V30 6831 C 639.024 -5.10879 -3.37149 0
M  V30 6832 N 638.161 -5.34577 -4.55161 0
M  V30 6833 H 643.001 -2.8645 -0.821622 0
M  V30 6834 H 640.538 -1.41718 -0.394248 0
M  V30 6835 H 642.496 -2.57262 -3.28439 0
M  V30 6836 H 641.126 -1.51766 -2.84898 0
M  V30 6837 H 640.178 -3.50766 -1.47199 0
M  V30 6838 H 641.49 -4.51007 -2.13059 0
M  V30 6839 H 640.644 -4.11979 -4.45374 0
M  V30 6840 H 639.383 -3.01885 -3.83036 0
M  V30 6841 H 638.388 -4.89853 -2.49649 0
M  V30 6842 H 639.613 -6.01626 -3.14997 0
M  V30 6843 H 637.559 -4.48337 -4.78884 0
M  V30 6844 H 637.476 -6.16463 -4.37618 0
M  V30 6845 H 638.744 -5.59975 -5.42263 0
M  V30 6846 N 642.974 0.416227 -1.52004 0
M  V30 6847 C 644.22 1.16555 -1.6596 0
M  V30 6848 C 644.553 1.90347 -0.384906 0
M  V30 6849 O 643.828 1.84474 0.616405 0
M  V30 6850 C 644.111 2.1657 -2.87696 0
M  V30 6851 C 643.964 1.46722 -4.25197 0
M  V30 6852 C 645.283 3.17321 -3.04951 0
M  V30 6853 H 642.402 0.422369 -0.603965 0
M  V30 6854 H 645.044 0.452141 -1.84542 0
M  V30 6855 H 643.194 2.77411 -2.71985 0
M  V30 6856 H 644.866 0.89056 -4.52622 0
M  V30 6857 H 643.109 0.769263 -4.26925 0
M  V30 6858 H 643.78 2.19665 -5.0641 0
M  V30 6859 H 646.256 2.66552 -3.19514 0
M  V30 6860 H 645.132 3.84573 -3.91656 0
M  V30 6861 H 645.393 3.84643 -2.17951 0
M  V30 6862 N 644.452 1.42507 0.673017 0
M  V30 6863 C 645.868 1.25472 0.986355 0
M  V30 6864 C 646.068 0.160181 2.00862 0
M  V30 6865 O 645.124 -0.467993 2.48125 0
M  V30 6866 C 646.437 2.61219 1.48947 0
M  V30 6867 C 647.985 2.68589 1.60715 0
M  V30 6868 C 648.46 4.04707 2.14422 0
M  V30 6869 N 649.951 4.0667 2.21752 0
M  V30 6870 C 650.686 5.0881 2.64386 0
M  V30 6871 N 650.182 6.21332 3.0646 0
M  V30 6872 N 651.975 4.96166 2.64151 0
M  V30 6873 H 644.126 2.124 -0.00378532 0
M  V30 6874 H 646.389 0.946046 0.0608367 0
M  V30 6875 H 646.095 3.42179 0.812812 0
M  V30 6876 H 645.969 2.85261 2.46791 0
M  V30 6877 H 648.356 1.87974 2.27486 0
M  V30 6878 H 648.437 2.48333 0.613552 0
M  V30 6879 H 648.081 4.8578 1.48258 0
M  V30 6880 H 648.011 4.22315 3.14575 0
M  V30 6881 H 650.502 3.25438 1.92089 0
M  V30 6882 H 650.815 6.95118 3.37684 0
M  V30 6883 H 649.16 6.24835 3.04313 0
M  V30 6884 H 652.351 4.07334 2.30644 0
M  V30 6885 H 652.524 5.759 2.97057 0
M  V30 6886 N 645.93 -0.909495 1.28709 0
M  V30 6887 C 646.862 -2.01729 1.08804 0
M  V30 6888 C 647.875 -1.62755 0.0384739 0
M  V30 6889 O 649.064 -1.76259 0.281977 0
M  V30 6890 C 646.164 -3.32952 0.63217 0
M  V30 6891 C 645.337 -4.00512 1.75809 0
M  V30 6892 C 644.396 -5.10019 1.29488 0
M  V30 6893 O 643.422 -5.32986 1.99787 0
M  V30 6894 N 644.624 -5.80278 0.1604 0
M  V30 6895 H 647.389 -2.19362 2.04207 0
M  V30 6896 H 644.95 -1.08106 1.20518 0
M  V30 6897 H 646.942 -4.03543 0.305802 0
M  V30 6898 H 645.512 -3.11759 -0.229134 0
M  V30 6899 H 644.732 -3.23413 2.25383 0
M  V30 6900 H 646.02 -4.42395 2.51325 0
M  V30 6901 H 645.418 -5.64094 -0.425937 0
M  V30 6902 H 643.975 -6.51713 -0.106663 0
M  V30 6903 N 647.408 -1.11026 -1.11852 0
M  V30 6904 C 648.371 -0.768006 -2.1595 0
M  V30 6905 C 649.371 0.210538 -1.59416 0
M  V30 6906 O 650.561 -0.0133978 -1.74195 0
M  V30 6907 C 647.693 -0.138678 -3.40618 0
M  V30 6908 H 648.886 -1.69012 -2.4774 0
M  V30 6909 H 646.439 -0.911578 -1.26964 0
M  V30 6910 H 647.174 0.793872 -3.14433 0
M  V30 6911 H 646.959 -0.843012 -3.8293 0
M  V30 6912 H 648.449 0.0848039 -4.17514 0
M  V30 6913 N 648.886 1.2938 -0.899927 0
M  V30 6914 C 649.816 2.30144 -0.39446 0
M  V30 6915 C 650.797 1.61611 0.530639 0
M  V30 6916 O 651.982 1.89119 0.441319 0
M  V30 6917 C 649.112 3.45229 0.37868 0
M  V30 6918 C 648.066 4.25564 -0.456012 0
M  V30 6919 C 647.392 5.32848 0.444637 0
M  V30 6920 C 648.692 4.93651 -1.70605 0
M  V30 6921 H 650.386 2.72673 -1.23653 0
M  V30 6922 H 647.932 1.31086 -0.596034 0
M  V30 6923 H 649.885 4.14797 0.743037 0
M  V30 6924 H 648.609 3.01545 1.25453 0
M  V30 6925 H 647.268 3.57704 -0.802704 0
M  V30 6926 H 646.916 4.85408 1.31863 0
M  V30 6927 H 646.616 5.87497 -0.110154 0
M  V30 6928 H 648.14 6.05268 0.805182 0
M  V30 6929 H 649.554 5.55655 -1.41141 0
M  V30 6930 H 647.951 5.58233 -2.20217 0
M  V30 6931 H 649.021 4.18926 -2.4419 0
M  V30 6932 N 650.364 0.662433 1.43002 0
M  V30 6933 C 651.612 0.179237 2.01304 0
M  V30 6934 C 651.933 -1.21428 1.52579 0
M  V30 6935 O 651.203 -1.81294 0.742252 0
M  V30 6936 H 649.783 0.0632725 0.744316 0
M  V30 6937 H 652.445 0.856169 1.75088 0
M  V30 6938 H 651.541 0.170957 3.11631 0
M  V30 6939 N 651.842 -1.52309 0.404946 0
M  V30 6940 C 653.089 -2.01767 -0.1722 0
M  V30 6941 C 653.417 -1.29075 -1.45498 0
M  V30 6942 O 652.672 -0.3843 -1.9189 0
M  V30 6943 C 652.971 -3.54284 -0.470895 0
M  V30 6944 C 652.637 -4.45079 0.722194 0
M  V30 6945 C 651.299 -4.69617 1.04946 0
M  V30 6946 C 653.651 -4.98555 1.51962 0
M  V30 6947 C 650.979 -5.44878 2.17543 0
M  V30 6948 C 653.331 -5.75049 2.63632 0
M  V30 6949 C 651.995 -5.9786 2.9685 0
M  V30 6950 H 651.265 -0.738316 -0.0630125 0
M  V30 6951 H 653.912 -1.83566 0.545506 0
M  V30 6952 H 652.217 -3.70642 -1.27012 0
M  V30 6953 H 653.914 -3.90058 -0.930346 0
M  V30 6954 H 650.504 -4.26155 0.457131 0
M  V30 6955 H 654.688 -4.79509 1.28002 0
M  V30 6956 H 649.944 -5.60762 2.43631 0
M  V30 6957 H 654.118 -6.15483 3.25813 0
M  V30 6958 H 651.745 -6.5596 3.84215 0
M  V30 6959 N 653.32 -0.135238 -1.57019 0
M  V30 6960 C 654.283 0.794707 -2.14981 0
M  V30 6961 C 655.283 1.18342 -1.08866 0
M  V30 6962 O 656.473 1.10627 -1.34563 0
M  V30 6963 C 653.605 2.07685 -2.70333 0
M  V30 6964 H 654.798 0.290696 -2.98488 0
M  V30 6965 H 652.351 0.114128 -1.55883 0
M  V30 6966 H 653.086 2.6248 -1.9046 0
M  V30 6967 H 652.871 1.80745 -3.47957 0
M  V30 6968 H 654.361 2.74127 -3.1503 0
M  V30 6969 N 654.798 1.5699 0.138552 0
M  V30 6970 C 655.745 1.98899 1.17081 0
M  V30 6971 C 656.715 0.857922 1.42228 0
M  V30 6972 O 657.9 1.12065 1.54422 0
M  V30 6973 C 655.04 2.38189 2.4972 0
M  V30 6974 C 654.153 3.64624 2.31674 0
M  V30 6975 C 653.288 3.9298 3.57407 0
M  V30 6976 C 652.327 5.1266 3.34435 0
M  V30 6977 N 651.464 5.36983 4.5232 0
M  V30 6978 H 656.304 2.86881 0.80642 0
M  V30 6979 H 653.841 1.41925 0.386727 0
M  V30 6980 H 655.799 2.59 3.2707 0
M  V30 6981 H 654.429 1.53275 2.84089 0
M  V30 6982 H 653.481 3.51542 1.45337 0
M  V30 6983 H 654.793 4.52131 2.10664 0
M  V30 6984 H 653.947 4.14335 4.43183 0
M  V30 6985 H 652.686 3.03912 3.8143 0
M  V30 6986 H 651.691 4.9117 2.47048 0
M  V30 6987 H 652.916 6.03288 3.11802 0
M  V30 6988 H 650.862 4.50871 4.76499 0
M  V30 6989 H 650.779 6.18775 4.34343 0
M  V30 6990 H 652.047 5.62842 5.39285 0
M  V30 6991 N 656.276 -0.40816 1.52223 0
M  V30 6992 C 657.516 -1.16418 1.68006 0
M  V30 6993 C 657.88 -1.87749 0.401793 0
M  V30 6994 O 659.081 -2.65245 0.435743 0
M  V30 6995 C 657.352 -2.13143 2.86889 0
M  V30 6996 S 658.911 -2.96839 3.2316 0
M  V30 6997 H 655.729 -0.394373 0.5916 0
M  V30 6998 H 658.331 -0.451349 1.90219 0
M  V30 6999 H 657.035 -1.59428 3.78168 0
M  V30 7000 H 656.566 -2.88963 2.66953 0
M  V30 7001 H 658.581 -4.151 2.71857 0
M  V30 7002 N 657.755 -1.42862 -0.66545 0
M  V30 7003 C 658.687 -1.43026 -1.79098 0
M  V30 7004 C 659.7 -0.32803 -1.59461 0
M  V30 7005 O 660.889 -0.591709 -1.68407 0
M  V30 7006 C 657.989 -1.21566 -3.16346 0
M  V30 7007 C 657.162 -2.44399 -3.62751 0
M  V30 7008 C 656.221 -2.18344 -4.78761 0
M  V30 7009 O 655.247 -2.91611 -4.88827 0
M  V30 7010 N 656.449 -1.1924 -5.68122 0
M  V30 7011 H 659.214 -2.40045 -1.79439 0
M  V30 7012 H 656.775 -1.37861 -0.848872 0
M  V30 7013 H 658.767 -1.02037 -3.91625 0
M  V30 7014 H 657.337 -0.330368 -3.10849 0
M  V30 7015 H 656.557 -2.79433 -2.78048 0
M  V30 7016 H 657.845 -3.26173 -3.90498 0
M  V30 7017 H 657.243 -0.586603 -5.6265 0
M  V30 7018 H 655.8 -1.05698 -6.43173 0
M  V30 7019 N 659.233 0.902656 -1.29189 0
M  V30 7020 C 660.18 2.00643 -1.14066 0
M  V30 7021 C 661.15 1.66064 -0.0347756 0
M  V30 7022 O 662.335 1.8973 -0.201752 0
M  V30 7023 C 659.475 3.35214 -0.820104 0
M  V30 7024 C 658.588 3.82594 -2.00614 0
M  V30 7025 C 657.723 5.05727 -1.62522 0
M  V30 7026 C 656.762 5.45469 -2.77724 0
M  V30 7027 N 655.899 6.59789 -2.40048 0
M  V30 7028 H 660.739 2.1291 -2.08502 0
M  V30 7029 H 658.276 1.04271 -1.03759 0
M  V30 7030 H 660.234 4.12643 -0.614949 0
M  V30 7031 H 658.864 3.22682 0.0873452 0
M  V30 7032 H 657.916 3.01226 -2.32308 0
M  V30 7033 H 659.228 4.07999 -2.86946 0
M  V30 7034 H 658.382 5.90732 -1.38277 0
M  V30 7035 H 657.121 4.82155 -0.733333 0
M  V30 7036 H 656.126 4.59 -3.02653 0
M  V30 7037 H 657.351 5.71024 -3.67572 0
M  V30 7038 H 655.297 6.37826 -1.53343 0
M  V30 7039 H 655.214 6.84975 -3.19914 0
M  V30 7040 H 656.482 7.4807 -2.19116 0
M  V30 7041 N 660.711 1.11618 1.11262 0
M  V30 7042 C 661.659 0.771291 2.1944 0
M  V30 7043 C 662.653 -0.238073 1.67719 0
M  V30 7044 O 663.859 -0.0971628 1.79738 0
M  V30 7045 H 660.234 0.231548 0.715465 0
M  V30 7046 H 662.205 1.69226 2.45775 0
M  V30 7047 C 660.954 0.232765 3.4692 0
M  V30 7048 H 660.277 1.00072 3.87073 0
M  V30 7049 H 661.717 0.0296561 4.2399 0
M  V30 7050 C 660.176 -1.03738 3.20531 0
M  V30 7051 O 660.706 -2.11675 3.41404 0
M  V30 7052 N 658.912 -0.960906 2.74253 0
M  V30 7053 H 658.459 -0.0824323 2.57468 0
M  V30 7054 H 658.417 -1.8114 2.56974 0
M  V30 7055 N 662.189 -1.289 0.906776 0
M  V30 7056 C 663.436 -1.95269 0.536326 0
M  V30 7057 C 663.764 -1.71435 -0.918711 0
M  V30 7058 O 663.019 -1.02431 -1.66752 0
M  V30 7059 C 663.318 -3.48704 0.783617 0
M  V30 7060 C 662.984 -3.92626 2.21711 0
M  V30 7061 C 661.646 -4.04329 2.60906 0
M  V30 7062 C 663.998 -4.15218 3.15029 0
M  V30 7063 C 661.326 -4.35998 3.92584 0
M  V30 7064 C 663.678 -4.48365 4.46264 0
M  V30 7065 C 662.342 -4.58278 4.85322 0
M  V30 7066 H 661.612 -0.714538 0.196256 0
M  V30 7067 H 664.259 -1.53366 1.14678 0
M  V30 7068 H 662.564 -3.91696 0.0903048 0
M  V30 7069 H 664.261 -3.98162 0.476267 0
M  V30 7070 H 660.851 -3.84038 1.90296 0
M  V30 7071 H 665.035 -4.05636 2.8596 0
M  V30 7072 H 660.291 -4.41878 4.22557 0
M  V30 7073 H 664.465 -4.64795 5.18593 0
M  V30 7074 H 662.092 -4.82573 5.87391 0
M  V30 7075 N 663.667 -0.670007 -1.42649 0
M  V30 7076 C 664.897 -0.198252 -2.05647 0
M  V30 7077 C 665.305 1.14786 -1.50402 0
M  V30 7078 O 664.648 1.72316 -0.636634 0
M  V30 7079 C 664.71 -0.0507132 -3.59464 0
M  V30 7080 C 664.374 -1.32478 -4.37377 0
M  V30 7081 C 665.371 -2.2572 -4.68344 0
M  V30 7082 C 663.056 -1.57104 -4.77099 0
M  V30 7083 C 665.05 -3.4187 -5.37963 0
M  V30 7084 C 662.737 -2.73543 -5.46459 0
M  V30 7085 C 663.735 -3.65751 -5.76815 0
M  V30 7086 O 663.423 -4.80154 -6.44753 0
M  V30 7087 H 663.155 -0.0950721 -0.669281 0
M  V30 7088 H 665.709 -0.915745 -1.83857 0
M  V30 7089 H 663.939 0.722314 -3.79894 0
M  V30 7090 H 665.628 0.380552 -4.04112 0
M  V30 7091 H 666.394 -2.07943 -4.38161 0
M  V30 7092 H 662.273 -0.862069 -4.52868 0
M  V30 7093 H 665.817 -4.13861 -5.61574 0
M  V30 7094 H 661.714 -2.91248 -5.7606 0
M  V30 7095 H 662.482 -4.79637 -6.63243 0
M  V30 7096 N 665.145 1.52092 -0.413018 0
M  V30 7097 C 666.393 2.01456 0.161178 0
M  V30 7098 C 666.714 1.30034 1.45314 0
M  V30 7099 O 665.984 0.427435 1.9118 0
M  V30 7100 H 664.564 0.744376 0.0625526 0
M  V30 7101 H 667.226 1.86974 -0.550151 0
M  V30 7102 H 666.322 3.1008 0.354517 0
M  V30 7103 N 666.623 0.143563 1.56945 0
M  V30 7104 C 667.586 -0.783295 2.154 0
M  V30 7105 C 668.586 -1.17763 1.09492 0
M  V30 7106 O 669.776 -1.09912 1.35148 0
M  V30 7107 C 666.908 -2.06248 2.7143 0
M  V30 7108 H 668.101 -0.274863 2.98638 0
M  V30 7109 H 665.654 -0.105859 1.55941 0
M  V30 7110 H 666.389 -2.61466 1.91849 0
M  V30 7111 H 666.174 -1.78897 3.4891 0
M  V30 7112 H 667.664 -2.72453 3.16479 0
M  V30 7113 N 668.101 -1.57061 -0.130224 0
M  V30 7114 C 669.064 -1.98593 -1.14426 0
M  V30 7115 C 670.064 -0.874584 -1.34936 0
M  V30 7116 O 671.254 -1.14086 -1.31643 0
M  V30 7117 C 668.386 -2.31639 -2.50112 0
M  V30 7118 H 669.579 -2.89374 -0.787561 0
M  V30 7119 H 667.132 -1.51756 -0.374146 0
M  V30 7120 H 667.867 -1.43703 -2.90723 0
M  V30 7121 H 667.652 -3.12684 -2.36583 0
M  V30 7122 H 669.142 -2.64551 -3.23114 0
M  V30 7123 N 669.579 0.400081 -1.52437 0
M  V30 7124 C 670.99 0.97851 -1.59003 0
M  V30 7125 C 671.341 1.91293 -0.436068 0
M  V30 7126 O 670.466 2.1183 0.442365 0
M  V30 7127 C 671.061 1.78145 -2.88184 0
M  V30 7128 C 669.62 2.30976 -2.97199 0
M  V30 7129 C 668.767 1.11212 -2.54022 0
M  V30 7130 H 671.718 0.180002 -1.57676 0
M  V30 7131 H 671.739 2.63968 -2.74046 0
M  V30 7132 H 671.251 1.1011 -3.72152 0
M  V30 7133 H 669.352 3.02355 -2.17744 0
M  V30 7134 H 669.465 2.61221 -4.01622 0
M  V30 7135 H 667.829 1.46882 -2.08081 0
M  V30 7136 H 668.612 0.447307 -3.40373 0
M  V30 7137 N 671.057 1.43213 0.657864 0
M  V30 7138 C 671.99 1.42456 1.78273 0
M  V30 7139 C 672.968 0.286598 1.60054 0
M  V30 7140 O 674.152 0.479467 1.823 0
M  V30 7141 C 671.279 1.23169 3.15511 0
M  V30 7142 C 670.325 2.40181 3.52442 0
M  V30 7143 S 671.158 4.02729 3.52944 0
M  V30 7144 C 672.314 3.85816 4.92846 0
M  V30 7145 H 672.547 2.37642 1.78644 0
M  V30 7146 H 670.08 1.30188 0.830084 0
M  V30 7147 H 672.038 1.12728 3.94719 0
M  V30 7148 H 670.699 0.295398 3.12708 0
M  V30 7149 H 669.892 2.22478 4.52239 0
M  V30 7150 H 669.494 2.47224 2.80636 0
M  V30 7151 H 671.786 3.47853 5.81381 0
M  V30 7152 H 672.729 4.85348 5.15599 0
M  V30 7153 H 673.137 3.18361 4.66162 0
M  V30 7154 N 672.536 -0.895792 1.29666 0
M  V30 7155 C 673.469 -2.00238 1.09453 0
M  V30 7156 C 674.447 -1.62599 0.00527044 0
M  V30 7157 O 675.631 -1.87847 0.156729 0
M  V30 7158 C 672.758 -3.32066 0.667054 0
M  V30 7159 C 671.804 -3.88691 1.7556 0
M  V30 7160 S 672.637 -4.17317 3.35569 0
M  V30 7161 C 673.793 -5.52181 2.94698 0
M  V30 7162 H 674.026 -2.17076 2.03138 0
M  V30 7163 H 671.559 -1.04287 1.13858 0
M  V30 7164 H 673.517 -4.08272 0.427136 0
M  V30 7165 H 672.178 -3.13101 -0.250256 0
M  V30 7166 H 671.371 -4.83918 1.40853 0
M  V30 7167 H 670.973 -3.19187 1.94924 0
M  V30 7168 H 673.265 -6.3281 2.41986 0
M  V30 7169 H 674.208 -5.91817 3.88791 0
M  V30 7170 H 674.616 -5.14225 2.32879 0
M  V30 7171 N 674.014 -1.12206 -1.10668 0
M  V30 7172 C 674.977 -0.790867 -2.15123 0
M  V30 7173 C 675.977 0.193618 -1.5963 0
M  V30 7174 O 677.167 -0.0318728 -1.74171 0
M  V30 7175 C 674.299 -0.174797 -3.40452 0
M  V30 7176 H 675.492 -1.7163 -2.45933 0
M  V30 7177 H 673.045 -0.924993 -1.2599 0
M  V30 7178 H 673.78 0.760478 -3.15257 0
M  V30 7179 H 673.565 -0.88358 -3.82015 0
M  V30 7180 H 675.055 0.0405162 -4.1758 0
M  V30 7181 N 675.492 1.28418 -0.913599 0
M  V30 7182 C 676.402 2.31043 -0.406965 0
M  V30 7183 C 677.418 1.66501 0.505298 0
M  V30 7184 O 678.594 1.97558 0.391522 0
M  V30 7185 C 675.659 3.4498 0.344901 0
M  V30 7186 C 674.72 4.25078 -0.600563 0
M  V30 7187 C 673.953 5.33575 0.115516 0
M  V30 7188 O 674.176 5.54503 1.33727 0
M  V30 7189 O 673.11 5.9939 -0.549095 0
M  V30 7190 H 676.936 2.76387 -1.25873 0
M  V30 7191 H 674.521 1.33109 -0.678415 0
M  V30 7192 H 676.403 4.14314 0.769542 0
M  V30 7193 H 675.078 3.01719 1.1725 0
M  V30 7194 H 673.985 3.58334 -1.0746 0
M  V30 7195 H 675.318 4.72018 -1.39497 0
M  V30 7196 N 676.97 0.677563 1.42291 0
M  V30 7197 C 678.198 0.209459 2.05837 0
M  V30 7198 C 678.613 -1.13444 1.50917 0
M  V30 7199 O 677.97 -1.70529 0.65008 0
M  V30 7200 C 678.021 0.138819 3.61233 0
M  V30 7201 O 677.742 1.42962 4.14118 0
M  V30 7202 C 679.243 -0.352449 4.41897 0
M  V30 7203 H 676.463 0.101209 0.663323 0
M  V30 7204 H 679.007 0.925077 1.8238 0
M  V30 7205 H 677.162 -0.527505 3.83792 0
M  V30 7206 H 677.576 1.3048 5.08011 0
M  V30 7207 H 679.05 -0.350778 5.50884 0
M  V30 7208 H 679.527 -1.3882 4.16684 0
M  V30 7209 H 680.133 0.282236 4.24362 0
M  V30 7210 N 678.448 -1.51871 0.421078 0
M  V30 7211 C 679.38 -2.25052 -0.434065 0
M  V30 7212 C 680.393 -1.28458 -1.00013 0
M  V30 7213 O 681.582 -1.54323 -0.897033 0
M  V30 7214 C 678.682 -2.97813 -1.61743 0
M  V30 7215 C 677.855 -4.21374 -1.17315 0
M  V30 7216 C 676.914 -4.76854 -2.22478 0
M  V30 7217 O 675.94 -5.39123 -1.82577 0
M  V30 7218 N 677.142 -4.59467 -3.54782 0
M  V30 7219 H 679.907 -2.99077 0.193073 0
M  V30 7220 H 677.468 -1.59972 0.249088 0
M  V30 7221 H 679.46 -3.3182 -2.31685 0
M  V30 7222 H 678.03 -2.26899 -2.15024 0
M  V30 7223 H 677.25 -3.93046 -0.3014 0
M  V30 7224 H 678.538 -5.01591 -0.853444 0
M  V30 7225 H 677.936 -4.09832 -3.89941 0
M  V30 7226 H 676.493 -4.9788 -4.20665 0
M  V30 7227 N 679.926 -0.151884 -1.56866 0
M  V30 7228 C 680.876 0.797799 -2.13586 0
M  V30 7229 C 681.86 1.20613 -1.06496 0
M  V30 7230 O 683.052 1.17173 -1.32663 0
M  V30 7231 C 680.181 2.03493 -2.76488 0
M  V30 7232 C 679.267 1.64948 -3.90708 0
M  V30 7233 N 679.658 0.972513 -4.96363 0
M  V30 7234 C 677.956 1.94186 -4.01507 0
M  V30 7235 C 678.657 0.785661 -5.7637 0
M  V30 7236 N 677.633 1.32105 -5.27304 0
M  V30 7237 H 681.435 0.271403 -2.92644 0
M  V30 7238 H 678.949 0.049487 -1.62325 0
M  V30 7239 H 680.946 2.72532 -3.15487 0
M  V30 7240 H 679.606 2.56646 -1.98904 0
M  V30 7241 H 680.617 0.632724 -5.1402 0
M  V30 7242 H 677.294 2.49154 -3.35005 0
M  V30 7243 H 678.684 0.251749 -6.71428 0
M  V30 7244 N 681.404 1.57128 0.121893 0
M  V30 7245 C 682.651 1.847 0.830188 0
M  V30 7246 C 682.979 0.736543 1.80015 0
M  V30 7247 O 682.234 -0.272358 1.93796 0
M  V30 7248 C 682.533 3.1874 1.61677 0
M  V30 7249 C 682.199 4.43901 0.791361 0
M  V30 7250 C 680.861 4.77887 0.563731 0
M  V30 7251 C 683.213 5.20753 0.215823 0
M  V30 7252 C 680.541 5.86168 -0.249737 0
M  V30 7253 C 682.893 6.29891 -0.584821 0
M  V30 7254 C 681.557 6.6241 -0.822794 0
M  V30 7255 H 680.827 0.675866 0.303787 0
M  V30 7256 H 683.474 1.91276 0.0926894 0
M  V30 7257 H 681.779 3.07728 2.42509 0
M  V30 7258 H 683.476 3.37295 2.16872 0
M  V30 7259 H 680.066 4.17272 0.978867 0
M  V30 7260 H 684.25 4.94851 0.378907 0
M  V30 7261 H 679.506 6.0979 -0.44336 0
M  V30 7262 H 683.68 6.88624 -1.03779 0
M  V30 7263 H 681.307 7.46147 -1.45496 0
M  V30 7264 N 682.882 -0.391992 1.52647 0
M  V30 7265 C 684.129 -1.13732 1.67545 0
M  V30 7266 C 684.457 -1.90045 0.413881 0
M  V30 7267 O 683.712 -1.86157 -0.603646 0
M  V30 7268 C 684.011 -2.14401 2.85949 0
M  V30 7269 C 683.677 -1.54767 4.23507 0
M  V30 7270 C 682.339 -1.38229 4.60919 0
M  V30 7271 C 684.691 -1.11382 5.0916 0
M  V30 7272 C 682.019 -0.7685 5.81645 0
M  V30 7273 C 684.371 -0.514143 6.30507 0
M  V30 7274 C 683.035 -0.33604 6.66654 0
M  V30 7275 H 682.305 -0.416174 0.613091 0
M  V30 7276 H 684.952 -0.422327 1.86785 0
M  V30 7277 H 683.257 -2.92108 2.61114 0
M  V30 7278 H 684.954 -2.71974 2.94671 0
M  V30 7279 H 681.544 -1.68626 3.94035 0
M  V30 7280 H 685.728 -1.22962 4.80826 0
M  V30 7281 H 680.984 -0.618681 6.08262 0
M  V30 7282 H 685.158 -0.169657 6.96193 0
M  V30 7283 H 682.785 0.14166 7.60068 0
M  V30 7284 N 684.36 -1.4356 -0.65026 0
M  V30 7285 C 685.29 -1.51758 -1.77459 0
M  V30 7286 C 686.271 -0.372019 -1.65982 0
M  V30 7287 O 687.456 -0.589627 -1.85033 0
M  V30 7288 C 684.586 -1.44302 -3.15902 0
M  V30 7289 C 683.54 -2.57138 -3.42146 0
M  V30 7290 C 682.866 -2.34735 -4.8042 0
M  V30 7291 C 684.166 -3.99373 -3.36598 0
M  V30 7292 H 685.86 -2.45863 -1.70855 0
M  V30 7293 H 683.406 -1.18333 -0.820566 0
M  V30 7294 H 685.359 -1.48641 -3.94314 0
M  V30 7295 H 684.083 -0.467026 -3.23244 0
M  V30 7296 H 682.742 -2.52157 -2.66106 0
M  V30 7297 H 682.39 -1.35372 -4.84441 0
M  V30 7298 H 682.09 -3.10375 -4.9894 0
M  V30 7299 H 683.614 -2.40862 -5.61086 0
M  V30 7300 H 685.028 -4.05826 -4.04942 0
M  V30 7301 H 683.425 -4.75063 -3.66654 0
M  V30 7302 H 684.495 -4.243 -2.34729 0
M  V30 7303 N 685.838 0.888903 -1.30139 0
M  V30 7304 C 687.086 1.63713 -1.18501 0
M  V30 7305 C 687.407 1.9324 0.261399 0
M  V30 7306 O 686.677 1.56608 1.17689 0
M  V30 7307 H 685.257 0.606861 -0.435579 0
M  V30 7308 H 687.919 1.06525 -1.63213 0
M  V30 7309 H 687.015 2.58894 -1.743 0
M  V30 7310 N 687.317 1.12792 1.10072 0
M  V30 7311 C 688.247 0.821688 2.18565 0
M  V30 7312 C 689.228 -0.21612 1.68721 0
M  V30 7313 O 690.413 -0.0764932 1.94049 0
M  V30 7314 C 687.543 0.279624 3.46172 0
M  V30 7315 C 686.497 1.25092 4.09312 0
M  V30 7316 C 685.823 0.568916 5.31665 0
M  V30 7317 C 687.123 2.60699 4.52585 0
M  V30 7318 H 688.817 1.72888 2.44438 0
M  V30 7319 H 686.363 0.832702 1.17482 0
M  V30 7320 H 688.316 0.053099 4.21367 0
M  V30 7321 H 687.04 -0.662929 3.19801 0
M  V30 7322 H 685.699 1.46332 3.36129 0
M  V30 7323 H 685.347 -0.378898 5.01571 0
M  V30 7324 H 685.047 1.21687 5.74862 0
M  V30 7325 H 686.571 0.351517 6.09587 0
M  V30 7326 H 687.985 2.43465 5.19035 0
M  V30 7327 H 686.382 3.21608 5.06644 0
M  V30 7328 H 687.452 3.1886 3.65317 0
M  V30 7329 N 688.795 -1.27931 0.920396 0
M  V30 7330 C 689.743 -2.29061 0.404191 0
M  V30 7331 C 690.737 -1.61615 -0.507634 0
M  V30 7332 O 691.943 -1.75765 -0.388144 0
M  V30 7333 H 688.318 -0.743594 0.112123 0
M  V30 7334 H 690.289 -2.70021 1.27008 0
M  V30 7335 C 689.038 -3.46088 -0.334466 0
M  V30 7336 H 688.361 -3.98194 0.35797 0
M  V30 7337 H 689.801 -4.18829 -0.660196 0
M  V30 7338 C 688.26 -2.99396 -1.54479 0
M  V30 7339 O 688.79 -3.02439 -2.64374 0
M  V30 7340 N 686.996 -2.54978 -1.39408 0
M  V30 7341 H 686.543 -2.52701 -0.500009 0
M  V30 7342 H 686.501 -2.24098 -2.20516 0
M  V30 7343 N 690.273 -0.685099 -1.4193 0
M  V30 7344 C 691.522 -0.208816 -2.00616 0
M  V30 7345 C 691.835 1.19506 -1.54847 0
M  V30 7346 O 693.041 1.76826 -2.06021 0
M  V30 7347 C 691.497 -0.322446 -3.58453 0
M  V30 7348 C 691.105 -1.73102 -4.13206 0
M  V30 7349 C 692.849 0.0945979 -4.24395 0
M  V30 7350 C 690.756 -1.79687 -5.63442 0
M  V30 7351 H 689.686 -0.0743092 -0.750329 0
M  V30 7352 H 692.337 -0.851778 -1.62533 0
M  V30 7353 H 690.719 0.388588 -3.94089 0
M  V30 7354 H 691.893 -2.46997 -3.8901 0
M  V30 7355 H 690.208 -2.09682 -3.59753 0
M  V30 7356 H 692.805 0.0656937 -5.3466 0
M  V30 7357 H 693.148 1.1316 -4.00625 0
M  V30 7358 H 693.681 -0.56579 -3.93756 0
M  V30 7359 H 690.42 -2.81404 -5.92024 0
M  V30 7360 H 689.94 -1.10162 -5.89597 0
M  V30 7361 H 691.619 -1.55498 -6.28036 0
M  V30 7362 N 691.751 1.51645 -0.429126 0
M  V30 7363 C 693.167 1.59394 -0.080994 0
M  V30 7364 C 693.367 1.44064 1.40882 0
M  V30 7365 O 692.423 1.27771 2.17786 0
M  V30 7366 C 693.736 2.94779 -0.593773 0
M  V30 7367 C 695.284 3.08067 -0.553494 0
M  V30 7368 C 695.759 4.45963 -1.04311 0
M  V30 7369 N 697.25 4.5226 -1.00076 0
M  V30 7370 C 697.985 5.57268 -1.35056 0
M  V30 7371 N 697.481 6.69734 -1.77282 0
M  V30 7372 N 699.274 5.47582 -1.26925 0
M  V30 7373 H 691.425 1.59856 -1.39857 0
M  V30 7374 H 693.688 0.753095 -0.575805 0
M  V30 7375 H 693.394 3.11342 -1.63583 0
M  V30 7376 H 693.268 3.77197 -0.0142202 0
M  V30 7377 H 695.655 2.91177 0.479556 0
M  V30 7378 H 695.736 2.27508 -1.16935 0
M  V30 7379 H 695.38 4.63598 -2.07459 0
M  V30 7380 H 695.31 5.25049 -0.403873 0
M  V30 7381 H 697.801 3.71537 -0.690564 0
M  V30 7382 H 698.114 7.4587 -2.02232 0
M  V30 7383 H 696.459 6.70963 -1.81202 0
M  V30 7384 H 699.65 4.58604 -0.93809 0
M  V30 7385 H 699.823 6.29308 -1.54516 0
M  V30 7386 N 693.229 0.160201 1.56784 0
M  V30 7387 C 694.159 -0.770264 2.2043 0
M  V30 7388 C 695.14 -1.24736 1.15651 0
M  V30 7389 O 696.325 -1.30253 1.44041 0
M  V30 7390 C 693.455 -2.00427 2.83631 0
M  V30 7391 C 692.409 -1.66345 3.94352 0
M  V30 7392 C 691.735 -2.97119 4.4455 0
M  V30 7393 C 693.035 -0.899972 5.14488 0
M  V30 7394 H 694.729 -0.239783 2.98438 0
M  V30 7395 H 692.275 -0.113891 1.43549 0
M  V30 7396 H 694.228 -2.66012 3.26827 0
M  V30 7397 H 692.952 -2.5587 2.02973 0
M  V30 7398 H 691.611 -1.03133 3.51794 0
M  V30 7399 H 691.259 -3.5058 3.60698 0
M  V30 7400 H 690.959 -2.75073 5.19238 0
M  V30 7401 H 692.483 -3.63753 4.90425 0
M  V30 7402 H 693.897 -1.45818 5.54446 0
M  V30 7403 H 692.294 -0.778968 5.95023 0
M  V30 7404 H 693.364 0.105827 4.84785 0
M  V30 7405 N 694.707 -1.5719 -0.113559 0
M  V30 7406 C 695.937 -1.89053 -0.833212 0
M  V30 7407 C 696.345 -0.750139 -1.73694 0
M  V30 7408 O 695.688 0.287808 -1.81431 0
M  V30 7409 C 695.75 -3.15986 -1.71443 0
M  V30 7410 C 695.414 -4.46271 -0.984449 0
M  V30 7411 C 696.411 -5.18897 -0.322741 0
M  V30 7412 C 694.096 -4.92963 -0.964011 0
M  V30 7413 C 696.09 -6.3644 0.349646 0
M  V30 7414 C 693.777 -6.10422 -0.287828 0
M  V30 7415 C 694.775 -6.82009 0.36784 0
M  V30 7416 O 694.463 -7.97233 1.03322 0
M  V30 7417 H 694.195 -0.630225 -0.244526 0
M  V30 7418 H 696.749 -2.05152 -0.100847 0
M  V30 7419 H 694.979 -2.95984 -2.48858 0
M  V30 7420 H 696.668 -3.33826 -2.309 0
M  V30 7421 H 697.434 -4.83875 -0.330114 0
M  V30 7422 H 693.313 -4.37143 -1.46379 0
M  V30 7423 H 696.857 -6.92254 0.861996 0
M  V30 7424 H 692.754 -6.449 -0.278237 0
M  V30 7425 H 693.522 -8.13105 0.938247 0
M  V30 7426 N 696.185 0.383891 -1.52853 0
M  V30 7427 C 697.148 1.45197 -1.77343 0
M  V30 7428 C 698.148 1.47362 -0.643522 0
M  V30 7429 O 699.338 1.48443 -0.911613 0
M  V30 7430 C 696.47 2.8445 -1.87885 0
M  V30 7431 H 697.663 1.24764 -2.72716 0
M  V30 7432 H 695.216 0.615939 -1.43652 0
M  V30 7433 H 695.951 3.10222 -0.94515 0
M  V30 7434 H 695.736 2.8428 -2.70051 0
M  V30 7435 H 697.226 3.61832 -2.08488 0
M  V30 7436 N 697.663 1.43903 0.642637 0
M  V30 7437 C 698.911 1.45791 1.39962 0
M  V30 7438 C 699.232 0.0873144 1.94804 0
M  V30 7439 O 698.502 -0.878825 1.75081 0
M  V30 7440 H 697.082 0.536797 0.519479 0
M  V30 7441 H 699.744 1.7959 0.757189 0
M  V30 7442 H 698.84 2.17665 2.2367 0
M  V30 7443 N 699.141 -0.881989 1.30609 0
M  V30 7444 C 700.371 -1.66469 1.22359 0
M  V30 7445 C 700.779 -1.87969 -0.215507 0
M  V30 7446 O 700.122 -1.42938 -1.15388 0
M  V30 7447 C 700.184 -3.06135 1.88472 0
M  V30 7448 C 699.848 -3.07795 3.37804 0
M  V30 7449 C 700.845 -2.86633 4.33749 0
M  V30 7450 C 698.53 -3.29297 3.793 0
M  V30 7451 C 700.524 -2.86934 5.69164 0
M  V30 7452 C 698.211 -3.29228 5.14832 0
M  V30 7453 C 699.209 -3.08071 6.09574 0
M  V30 7454 O 698.897 -3.07824 7.4263 0
M  V30 7455 H 698.629 -0.526129 0.424458 0
M  V30 7456 H 701.183 -1.11004 1.72821 0
M  V30 7457 H 699.413 -3.63276 1.32543 0
M  V30 7458 H 701.102 -3.66571 1.74301 0
M  V30 7459 H 701.868 -2.69814 4.0302 0
M  V30 7460 H 697.747 -3.44799 3.05998 0
M  V30 7461 H 701.291 -2.70339 6.43088 0
M  V30 7462 H 697.188 -3.45583 5.452 0
M  V30 7463 H 697.956 -3.2397 7.51656 0
M  V30 7464 N 700.619 -1.13374 -1.09472 0
M  V30 7465 C 701.867 -0.893422 -1.8128 0
M  V30 7466 C 702.188 0.582029 -1.86111 0
M  V30 7467 O 701.458 1.42305 -1.34633 0
M  V30 7468 H 700.038 -0.327543 -0.67136 0
M  V30 7469 H 702.7 -1.43018 -1.32408 0
M  V30 7470 H 701.796 -1.28374 -2.84476 0
M  V30 7471 N 702.098 1.27442 -0.927168 0
M  V30 7472 C 703.028 2.29256 -0.443188 0
M  V30 7473 C 704.009 1.62701 0.49624 0
M  V30 7474 O 705.194 1.90013 0.401105 0
M  V30 7475 C 702.324 3.45955 0.305366 0
M  V30 7476 C 701.278 4.24501 -0.546178 0
M  V30 7477 C 700.604 5.33671 0.331512 0
M  V30 7478 C 701.904 4.89921 -1.81037 0
M  V30 7479 H 703.598 2.69988 -1.29409 0
M  V30 7480 H 701.144 1.29792 -0.623705 0
M  V30 7481 H 703.097 4.1628 0.654885 0
M  V30 7482 H 701.821 3.04138 1.19029 0
M  V30 7483 H 700.48 3.55921 -0.878398 0
M  V30 7484 H 700.128 4.88096 1.21537 0
M  V30 7485 H 699.828 5.87131 -0.234746 0
M  V30 7486 H 701.352 6.0684 0.676614 0
M  V30 7487 H 702.766 5.52536 -1.52895 0
M  V30 7488 H 701.163 5.53436 -2.32009 0
M  V30 7489 H 702.233 4.13652 -2.53021 0
M  V30 7490 N 703.576 0.692616 1.41565 0
M  V30 7491 C 704.801 0.229776 2.06123 0
M  V30 7492 C 705.226 -1.11119 1.5177 0
M  V30 7493 O 704.584 -1.69498 0.643444 0
M  V30 7494 C 704.632 0.19469 3.60074 0
M  V30 7495 O 703.736 -0.831366 4.03933 0
M  V30 7496 H 703.077 0.113002 0.654314 0
M  V30 7497 H 705.607 0.946645 1.81383 0
M  V30 7498 H 705.617 0.0245487 4.07993 0
M  V30 7499 H 704.292 1.17339 3.99004 0
M  V30 7500 H 702.869 -0.630819 3.67526 0
M  V30 7501 N 705.054 -1.51416 0.437162 0
M  V30 7502 C 705.964 -2.31493 -0.380537 0
M  V30 7503 C 706.98 -1.40399 -1.02782 0
M  V30 7504 O 708.156 -1.73471 -1.02323 0
M  V30 7505 C 705.221 -3.1413 -1.46709 0
M  V30 7506 C 704.282 -4.21003 -0.839953 0
M  V30 7507 C 703.515 -4.9969 -1.87473 0
M  V30 7508 O 703.738 -4.79008 -3.09689 0
M  V30 7509 O 702.672 -5.8379 -1.46536 0
M  V30 7510 H 706.498 -3.02469 0.273183 0
M  V30 7511 H 704.083 -1.48059 0.199706 0
M  V30 7512 H 705.965 -3.65505 -2.09724 0
M  V30 7513 H 704.64 -2.45919 -2.10489 0
M  V30 7514 H 703.547 -3.73706 -0.171752 0
M  V30 7515 H 704.88 -4.91587 -0.245638 0
M  V30 7516 N 706.532 -0.168513 -1.56696 0
M  V30 7517 C 707.76 0.483503 -2.01171 0
M  V30 7518 C 708.175 1.56994 -1.04872 0
M  V30 7519 O 707.532 1.82434 -0.0491337 0
M  V30 7520 C 707.583 1.0644 -3.45475 0
M  V30 7521 O 707.304 0.0213375 -4.38095 0
M  V30 7522 C 708.805 1.79493 -4.05336 0
M  V30 7523 H 706.025 0.124002 -0.659443 0
M  V30 7524 H 708.569 -0.269419 -2.02717 0
M  V30 7525 H 706.724 1.76784 -3.44712 0
M  V30 7526 H 707.138 0.449837 -5.22567 0
M  V30 7527 H 708.612 2.15401 -5.08238 0
M  V30 7528 H 709.089 2.68889 -3.47269 0
M  V30 7529 H 709.695 1.13798 -4.09793 0
M  V30 7530 N 708.01 1.57248 0.105221 0
M  V30 7531 C 709.235 1.90143 0.828264 0
M  V30 7532 C 709.66 0.761811 1.71983 0
M  V30 7533 O 709.018 -0.287086 1.79013 0
M  V30 7534 C 709.066 3.21856 1.62608 0
M  V30 7535 O 708.17 3.08732 2.7342 0
M  V30 7536 H 707.511 0.623558 0.228192 0
M  V30 7537 H 710.041 2.0443 0.0834826 0
M  V30 7538 H 710.051 3.54916 2.01243 0
M  V30 7539 H 708.726 4.0439 0.971687 0
M  V30 7540 H 707.303 2.87167 2.37886 0
M  V30 7541 N 709.488 -0.375779 1.53054 0
M  V30 7542 C 710.736 -1.11727 1.68409 0
M  V30 7543 C 711.057 -1.90127 0.43323 0
M  V30 7544 O 710.327 -1.87945 -0.552595 0
M  V30 7545 H 708.907 -0.415451 0.620813 0
M  V30 7546 H 711.569 -0.424869 1.90213 0
M  V30 7547 H 710.665 -1.8128 2.54055 0
M  V30 7548 N 710.966 -1.44241 -0.634997 0
M  V30 7549 C 712.377 -1.41622 -1.21655 0
M  V30 7550 C 712.728 -0.129584 -1.95772 0
M  V30 7551 O 711.853 0.770225 -2.02229 0
M  V30 7552 C 712.448 -2.56557 -2.21278 0
M  V30 7553 C 711.007 -2.57145 -2.7487 0
M  V30 7554 C 710.154 -2.33354 -1.49804 0
M  V30 7555 H 713.105 -1.52878 -0.425905 0
M  V30 7556 H 713.126 -2.29089 -3.03807 0
M  V30 7557 H 712.638 -3.50186 -1.67306 0
M  V30 7558 H 710.739 -1.67447 -3.32855 0
M  V30 7559 H 710.852 -3.55507 -3.21172 0
M  V30 7560 H 709.216 -1.82372 -1.77799 0
M  V30 7561 H 709.999 -3.29092 -0.977402 0
M  V30 7562 N 712.444 0.87505 -1.31075 0
M  V30 7563 C 713.394 1.96933 -1.14898 0
M  V30 7564 C 714.378 1.60783 -0.0613703 0
M  V30 7565 O 715.57 1.74678 -0.285751 0
M  V30 7566 C 712.699 3.3253 -0.853166 0
M  V30 7567 C 711.785 3.74963 -1.98151 0
M  V30 7568 N 712.176 3.89403 -3.22799 0
M  V30 7569 C 710.474 4.04436 -1.8801 0
M  V30 7570 C 711.175 4.25563 -3.96574 0
M  V30 7571 N 710.151 4.3597 -3.24701 0
M  V30 7572 H 713.953 2.06201 -2.09424 0
M  V30 7573 H 711.467 1.06551 -1.22558 0
M  V30 7574 H 713.464 4.10666 -0.718266 0
M  V30 7575 H 712.124 3.24592 0.0839218 0
M  V30 7576 H 713.135 3.74266 -3.57974 0
M  V30 7577 H 709.812 4.04915 -1.01733 0
M  V30 7578 H 711.202 4.44375 -5.03965 0
M  V30 7579 N 713.922 1.13953 1.08869 0
M  V30 7580 C 715.169 0.90481 1.81161 0
M  V30 7581 C 715.497 -0.568824 1.85996 0
M  V30 7582 O 714.752 -1.43723 1.32823 0
M  V30 7583 C 715.051 1.44495 3.26888 0
M  V30 7584 C 714.717 2.93641 3.42178 0
M  V30 7585 C 713.379 3.34361 3.46059 0
M  V30 7586 C 715.731 3.89568 3.46246 0
M  V30 7587 C 713.059 4.69681 3.51592 0
M  V30 7588 C 715.411 5.2474 3.53314 0
M  V30 7589 C 714.075 5.64979 3.55465 0
M  V30 7590 H 713.345 0.331094 0.662916 0
M  V30 7591 H 715.992 1.42242 1.28217 0
M  V30 7592 H 714.297 0.848169 3.82509 0
M  V30 7593 H 715.994 1.23934 3.81368 0
M  V30 7594 H 712.584 2.61156 3.39846 0
M  V30 7595 H 716.768 3.59192 3.42483 0
M  V30 7596 H 712.024 5.00224 3.51547 0
M  V30 7597 H 716.198 5.98882 3.55406 0
M  V30 7598 H 713.825 6.69821 3.59505 0
M  V30 7599 N 715.4 -1.26948 0.933913 0
M  V30 7600 C 716.333 -2.24977 0.382169 0
M  V30 7601 C 717.311 -1.53893 -0.524949 0
M  V30 7602 O 718.495 -1.82699 -0.464048 0
M  V30 7603 C 715.622 -3.35676 -0.451615 0
M  V30 7604 C 714.668 -4.24686 0.392947 0
M  V30 7605 S 715.501 -5.03898 1.81237 0
M  V30 7606 C 716.657 -6.18078 0.986443 0
M  V30 7607 H 716.89 -2.71429 1.21299 0
M  V30 7608 H 714.423 -1.35701 0.736523 0
M  V30 7609 H 716.381 -3.99901 -0.926797 0
M  V30 7610 H 715.042 -2.8785 -1.25703 0
M  V30 7611 H 714.235 -5.03402 -0.245533 0
M  V30 7612 H 713.837 -3.65288 0.802537 0
M  V30 7613 H 716.129 -6.77125 0.225321 0
M  V30 7614 H 717.072 -6.86216 1.74682 0
M  V30 7615 H 717.48 -5.62047 0.525711 0
M  V30 7616 N 716.879 -0.700114 -1.41195 0
M  V30 7617 C 718.104 -0.240704 -2.05998 0
M  V30 7618 C 718.529 1.10313 -1.52357 0
M  V30 7619 O 717.887 1.69154 -0.652424 0
M  V30 7620 C 717.935 -0.213783 -3.59966 0
M  V30 7621 O 717.039 0.809933 -4.04368 0
M  V30 7622 H 716.38 -0.116471 -0.653705 0
M  V30 7623 H 718.91 -0.956251 -1.80878 0
M  V30 7624 H 718.92 -0.0461852 -4.07974 0
M  V30 7625 H 717.595 -1.19454 -3.98376 0
M  V30 7626 H 716.172 0.611319 -3.67855 0
M  V30 7627 N 718.357 1.51182 -0.445186 0
M  V30 7628 C 719.582 2.07056 0.119445 0
M  V30 7629 C 720.007 1.30966 1.35016 0
M  V30 7630 O 719.365 0.349827 1.77893 0
M  V30 7631 C 719.413 3.58234 0.412428 0
M  V30 7632 O 718.517 3.84249 1.49754 0
M  V30 7633 H 717.858 0.663998 -0.00157797 0
M  V30 7634 H 720.388 1.94699 -0.628779 0
M  V30 7635 H 720.398 4.02617 0.660583 0
M  V30 7636 H 719.073 4.13038 -0.487049 0
M  V30 7637 H 717.65 3.51724 1.23873 0
M  V30 7638 N 719.835 0.176821 1.56605 0
M  V30 7639 C 721.246 -0.338963 1.83597 0
M  V30 7640 C 721.597 -1.62677 1.09684 0
M  V30 7641 O 720.722 -2.13524 0.351661 0
M  V30 7642 C 721.317 -0.62177 3.33046 0
M  V30 7643 C 719.876 -1.08198 3.60514 0
M  V30 7644 C 719.023 -0.120774 2.77037 0
M  V30 7645 H 721.974 0.400978 1.53551 0
M  V30 7646 H 721.995 -1.47321 3.50823 0
M  V30 7647 H 721.507 0.315692 3.86814 0
M  V30 7648 H 719.608 -2.03435 3.12162 0
M  V30 7649 H 719.721 -0.987329 4.68816 0
M  V30 7650 H 718.085 -0.619192 2.47059 0
M  V30 7651 H 718.868 0.810806 3.33588 0
M  V30 7652 N 721.313 -1.57302 -0.09688 0
M  V30 7653 C 722.543 -1.89926 -0.813114 0
M  V30 7654 C 722.951 -0.76852 -1.72888 0
M  V30 7655 O 722.294 0.268549 -1.81726 0
M  V30 7656 C 722.356 -3.17787 -1.68082 0
M  V30 7657 C 722.02 -4.4729 -0.937061 0
M  V30 7658 C 723.017 -5.1921 -0.267687 0
M  V30 7659 C 720.702 -4.93957 -0.911671 0
M  V30 7660 C 722.696 -6.36034 0.417129 0
M  V30 7661 C 720.383 -6.10693 -0.223068 0
M  V30 7662 C 721.381 -6.8158 0.440155 0
M  V30 7663 O 721.069 -7.96092 1.11772 0
M  V30 7664 H 720.801 -0.632783 -0.237828 0
M  V30 7665 H 723.355 -2.05248 -0.0790818 0
M  V30 7666 H 721.585 -2.98607 -2.45705 0
M  V30 7667 H 723.274 -3.36257 -2.27346 0
M  V30 7668 H 724.04 -4.84198 -0.278774 0
M  V30 7669 H 719.919 -4.38671 -1.41734 0
M  V30 7670 H 723.463 -6.91301 0.93537 0
M  V30 7671 H 719.36 -6.45159 -0.209821 0
M  V30 7672 H 720.128 -8.12064 1.02443 0
M  V30 7673 N 722.791 0.367657 -1.53252 0
M  V30 7674 C 723.739 1.47061 -1.8021 0
M  V30 7675 C 724.733 1.55539 -0.671112 0
M  V30 7676 O 725.939 1.58451 -0.854014 0
M  V30 7677 H 722.314 0.489868 -0.570555 0
M  V30 7678 H 724.285 1.21527 -2.72532 0
M  V30 7679 C 723.034 2.83924 -2.00706 0
M  V30 7680 H 722.357 2.78158 -2.87172 0
M  V30 7681 H 723.797 3.60281 -2.23547 0
M  V30 7682 C 722.256 3.27613 -0.785568 0
M  V30 7683 O 722.786 4.01691 0.0267459 0
M  V30 7684 N 720.992 2.84134 -0.609597 0
M  V30 7685 H 720.539 2.24017 -1.27178 0
M  V30 7686 H 720.497 3.13723 0.206281 0
M  V30 7687 N 724.269 1.44576 0.627338 0
M  V30 7688 C 725.499 1.50829 1.41189 0
M  V30 7689 C 725.907 0.133083 1.88731 0
M  V30 7690 O 725.25 -0.87199 1.61685 0
M  V30 7691 C 725.312 2.41449 2.66351 0
M  V30 7692 C 724.976 3.88549 2.40579 0
M  V30 7693 C 725.973 4.78981 2.0217 0
M  V30 7694 C 723.658 4.33287 2.54102 0
M  V30 7695 C 725.652 6.12153 1.77618 0
M  V30 7696 C 723.339 5.66505 2.29163 0
M  V30 7697 C 724.337 6.55756 1.9098 0
M  V30 7698 O 724.025 7.86506 1.66321 0
M  V30 7699 H 723.757 0.513797 0.439304 0
M  V30 7700 H 726.311 1.90256 0.774059 0
M  V30 7701 H 724.541 1.96955 3.32784 0
M  V30 7702 H 726.23 2.38608 3.28361 0
M  V30 7703 H 726.996 4.45689 1.91277 0
M  V30 7704 H 722.875 3.64074 2.82792 0
M  V30 7705 H 726.419 6.81776 1.47739 0
M  V30 7706 H 722.316 5.99358 2.39668 0
M  V30 7707 H 723.084 7.98341 1.80536 0
M  V30 7708 N 725.747 -0.868086 1.31537 0
M  V30 7709 C 727.163 -1.15414 1.10235 0
M  V30 7710 C 727.363 -2.01106 -0.125947 0
M  V30 7711 O 726.419 -2.38994 -0.814734 0
M  V30 7712 C 727.732 -1.84445 2.37488 0
M  V30 7713 C 729.28 -1.97139 2.43116 0
M  V30 7714 C 729.755 -2.69585 3.70254 0
M  V30 7715 N 731.246 -2.77119 3.71159 0
M  V30 7716 C 731.981 -3.33791 4.6623 0
M  V30 7717 N 731.477 -3.9138 5.71659 0
M  V30 7718 N 733.27 -3.31767 4.53747 0
M  V30 7719 H 725.421 -0.297109 2.10312 0
M  V30 7720 H 727.684 -0.194227 0.92789 0
M  V30 7721 H 727.39 -1.2893 3.27215 0
M  V30 7722 H 727.264 -2.84709 2.47428 0
M  V30 7723 H 729.651 -2.51818 1.53856 0
M  V30 7724 H 729.732 -0.95912 2.37138 0
M  V30 7725 H 729.376 -2.15572 4.59881 0
M  V30 7726 H 729.306 -3.71223 3.73499 0
M  V30 7727 H 731.797 -2.3625 2.94948 0
M  V30 7728 H 732.11 -4.3274 6.40278 0
M  V30 7729 H 730.455 -3.8975 5.7543 0
M  V30 7730 H 733.646 -2.86016 3.70557 0
M  V30 7731 H 733.819 -3.75636 5.28017 0
M  V30 7732 N 727.225 -1.14528 -1.08264 0
M  V30 7733 C 728.155 -0.856356 -2.1723 0
M  V30 7734 C 729.136 0.189251 -1.69044 0
M  V30 7735 O 730.321 0.0456119 -1.94146 0
M  V30 7736 C 727.451 -0.334662 -3.45684 0
M  V30 7737 C 726.405 -1.31588 -4.0727 0
M  V30 7738 C 725.731 -0.653428 -5.30692 0
M  V30 7739 C 727.031 -2.67866 -4.48381 0
M  V30 7740 H 728.725 -1.76755 -2.41657 0
M  V30 7741 H 726.271 -0.851287 -1.16143 0
M  V30 7742 H 728.224 -0.120128 -4.21229 0
M  V30 7743 H 726.948 0.611967 -3.20815 0
M  V30 7744 H 725.607 -1.51661 -3.33758 0
M  V30 7745 H 725.255 0.299054 -5.0211 0
M  V30 7746 H 724.955 -1.30817 -5.72853 0
M  V30 7747 H 726.479 -0.448453 -6.08951 0
M  V30 7748 H 727.893 -2.51692 -5.15096 0
M  V30 7749 H 726.29 -3.29627 -5.01464 0
M  V30 7750 H 727.36 -3.24632 -3.60198 0
M  V30 7751 N 728.703 1.26451 -0.940633 0
M  V30 7752 C 729.933 1.97581 -0.603766 0
M  V30 7753 C 730.341 1.70246 0.825395 0
M  V30 7754 O 729.684 0.967001 1.56188 0
M  V30 7755 C 729.746 3.51256 -0.765463 0
M  V30 7756 C 729.41 4.0224 -2.16915 0
M  V30 7757 C 730.407 4.1402 -3.14457 0
M  V30 7758 C 728.092 4.36263 -2.48958 0
M  V30 7759 C 730.086 4.59117 -4.42143 0
M  V30 7760 C 727.773 4.81048 -3.76877 0
M  V30 7761 C 728.771 4.92436 -4.73282 0
M  V30 7762 O 728.459 5.36234 -5.98923 0
M  V30 7763 H 728.191 0.636948 -0.226436 0
M  V30 7764 H 730.745 1.61941 -1.2635 0
M  V30 7765 H 728.975 3.86669 -0.0485956 0
M  V30 7766 H 730.664 4.03597 -0.431738 0
M  V30 7767 H 731.43 3.87981 -2.91026 0
M  V30 7768 H 727.309 4.26634 -1.74656 0
M  V30 7769 H 730.853 4.6792 -5.17394 0
M  V30 7770 H 726.75 5.06531 -4.00121 0
M  V30 7771 H 727.518 5.54456 -6.02097 0
M  V30 7772 N 730.181 0.707592 1.40822 0
M  V30 7773 C 731.406 0.251626 2.05868 0
M  V30 7774 C 731.831 -1.09503 1.5294 0
M  V30 7775 O 731.189 -1.68806 0.661385 0
M  V30 7776 C 731.237 0.23287 3.59847 0
M  V30 7777 O 730.341 -0.788477 4.04792 0
M  V30 7778 H 729.682 0.119936 0.653078 0
M  V30 7779 H 732.212 0.96583 1.80369 0
M  V30 7780 H 732.222 0.0678204 4.07944 0
M  V30 7781 H 730.897 1.21565 3.97737 0
M  V30 7782 H 729.474 -0.591802 3.68174 0
M  V30 7783 N 731.66 -1.50943 0.453197 0
M  V30 7784 C 732.885 -2.07116 -0.108463 0
M  V30 7785 C 733.31 -1.31681 -1.3432 0
M  V30 7786 O 732.668 -0.359256 -1.77705 0
M  V30 7787 C 732.716 -3.58447 -0.393424 0
M  V30 7788 O 731.82 -3.85038 -1.47714 0
M  V30 7789 H 731.161 -0.66398 0.0050993 0
M  V30 7790 H 733.691 -1.94362 0.639095 0
M  V30 7791 H 733.701 -4.02961 -0.639222 0
M  V30 7792 H 732.376 -4.12774 0.508946 0
M  V30 7793 H 730.953 -3.52376 -1.22006 0
M  V30 7794 N 733.138 -0.185124 -1.56509 0
M  V30 7795 C 734.386 0.455357 -1.96903 0
M  V30 7796 C 734.707 1.62839 -1.07277 0
M  V30 7797 O 733.977 1.95385 -0.141966 0
M  V30 7798 H 732.557 0.171218 -0.727113 0
M  V30 7799 H 735.219 -0.26953 -1.93027 0
M  V30 7800 H 734.315 0.80616 -3.01509 0
M  V30 7801 N 734.616 1.57351 0.0885366 0
M  V30 7802 C 735.563 2.02523 1.10693 0
M  V30 7803 C 736.533 0.902736 1.39427 0
M  V30 7804 O 737.718 1.16921 1.50779 0
M  V30 7805 C 734.858 2.46013 2.42016 0
M  V30 7806 C 733.971 3.7181 2.19957 0
M  V30 7807 C 733.106 4.04152 3.44724 0
M  V30 7808 C 732.145 5.2304 3.17956 0
M  V30 7809 N 731.282 5.51102 4.35007 0
M  V30 7810 H 736.122 2.89302 0.714742 0
M  V30 7811 H 733.659 1.43084 0.341378 0
M  V30 7812 H 735.617 2.69274 3.18665 0
M  V30 7813 H 734.247 1.62235 2.79069 0
M  V30 7814 H 733.299 3.55987 1.34079 0
M  V30 7815 H 734.611 4.58604 1.96173 0
M  V30 7816 H 733.765 4.28225 4.29777 0
M  V30 7817 H 732.504 3.15893 3.71568 0
M  V30 7818 H 731.509 4.98781 2.31296 0
M  V30 7819 H 732.734 6.12902 2.92451 0
M  V30 7820 H 730.68 4.65802 4.61914 0
M  V30 7821 H 730.597 6.3228 4.14437 0
M  V30 7822 H 731.865 5.79714 5.21106 0
M  V30 7823 N 736.094 -0.359525 1.53444 0
M  V30 7824 C 737.024 -1.44662 1.8329 0
M  V30 7825 C 738.005 -1.55617 0.68683 0
M  V30 7826 O 739.19 -1.70086 0.93725 0
M  V30 7827 C 736.32 -2.81923 2.02822 0
M  V30 7828 C 735.274 -2.85787 3.18606 0
M  V30 7829 C 734.6 -4.25781 3.23442 0
M  V30 7830 C 735.9 -2.52762 4.57065 0
M  V30 7831 H 737.594 -1.19934 2.74329 0
M  V30 7832 H 735.14 -0.575517 1.31999 0
M  V30 7833 H 737.093 -3.58005 2.22285 0
M  V30 7834 H 735.817 -3.08051 1.085 0
M  V30 7835 H 734.476 -2.12157 2.98973 0
M  V30 7836 H 734.124 -4.48994 2.26745 0
M  V30 7837 H 733.824 -4.29281 4.01238 0
M  V30 7838 H 735.348 -5.03727 3.45096 0
M  V30 7839 H 736.762 -3.18557 4.76649 0
M  V30 7840 H 735.159 -2.67569 5.37147 0
M  V30 7841 H 736.229 -1.47993 4.61764 0
M  V30 7842 N 737.572 -1.44907 -0.619662 0
M  V30 7843 C 738.818 -1.48512 -1.38102 0
M  V30 7844 C 739.151 -0.121686 -1.93818 0
M  V30 7845 O 738.426 0.862256 -1.74343 0
M  V30 7846 C 738.709 -2.55469 -2.53787 0
M  V30 7847 C 738.562 -4.01212 -2.03345 0
M  V30 7848 C 739.881 -2.58821 -3.55949 0
M  V30 7849 H 737 -0.540712 -0.500799 0
M  V30 7850 H 739.642 -1.7665 -0.69962 0
M  V30 7851 H 737.792 -2.31606 -3.11915 0
M  V30 7852 H 739.464 -4.36245 -1.49959 0
M  V30 7853 H 737.707 -4.12443 -1.34438 0
M  V30 7854 H 738.378 -4.71717 -2.86683 0
M  V30 7855 H 740.854 -2.80172 -3.07641 0
M  V30 7856 H 739.73 -3.35542 -4.34399 0
M  V30 7857 H 739.991 -1.63451 -4.10775 0
M  V30 7858 N 739.05 0.861098 -1.31996 0
M  V30 7859 C 740.461 1.43065 -1.19955 0
M  V30 7860 C 740.812 1.95273 0.190489 0
M  V30 7861 O 739.937 1.87012 1.08882 0
M  V30 7862 C 740.532 2.60052 -2.1716 0
M  V30 7863 C 739.091 3.13026 -2.09026 0
M  V30 7864 C 738.238 1.85756 -2.05888 0
M  V30 7865 H 741.189 0.668834 -1.43918 0
M  V30 7866 H 741.21 3.37016 -1.76637 0
M  V30 7867 H 740.722 2.22024 -3.18319 0
M  V30 7868 H 738.823 3.55653 -1.11092 0
M  V30 7869 H 738.936 3.74707 -2.98549 0
M  V30 7870 H 737.3 2.05088 -1.51033 0
M  V30 7871 H 738.083 1.49954 -3.08818 0
M  V30 7872 N 740.528 1.15101 1.07655 0
M  V30 7873 C 741.776 0.922149 1.79836 0
M  V30 7874 C 742.097 -0.552346 1.87014 0
M  V30 7875 O 741.367 -1.40145 1.3688 0
M  V30 7876 H 739.947 0.338182 0.666064 0
M  V30 7877 H 742.609 1.45107 1.30115 0
M  V30 7878 H 741.705 1.32883 2.82398 0
M  V30 7879 N 742.006 -1.2595 0.947325 0
M  V30 7880 C 743.246 -1.95218 0.605743 0
M  V30 7881 C 743.61 -1.72624 -0.84054 0
M  V30 7882 O 744.811 -2.35748 -1.29136 0
M  V30 7883 C 743.082 -3.44654 0.94596 0
M  V30 7884 S 744.641 -4.32922 0.715849 0
M  V30 7885 H 741.459 -0.675159 0.222894 0
M  V30 7886 H 744.061 -1.52766 1.21995 0
M  V30 7887 H 742.765 -3.586 1.99585 0
M  V30 7888 H 742.296 -3.92082 0.321718 0
M  V30 7889 H 744.311 -4.94445 -0.416959 0
M  V30 7890 N 743.484 -0.715051 -1.40445 0
M  V30 7891 C 744.9 -0.388555 -1.54798 0
M  V30 7892 C 745.1 1.10271 -1.68649 0
M  V30 7893 O 744.156 1.88875 -1.67578 0
M  V30 7894 C 745.469 -1.15414 -2.77669 0
M  V30 7895 C 747.017 -1.14039 -2.91486 0
M  V30 7896 C 747.492 -1.88812 -4.1727 0
M  V30 7897 N 748.983 -1.85878 -4.24268 0
M  V30 7898 C 749.718 -2.40558 -5.20499 0
M  V30 7899 N 749.214 -3.03791 -6.22642 0
M  V30 7900 N 751.007 -2.30703 -5.12574 0
M  V30 7901 H 743.158 -1.68201 -1.297 0
M  V30 7902 H 745.421 -0.710915 -0.627139 0
M  V30 7903 H 745.127 -2.20853 -2.7371 0
M  V30 7904 H 745.001 -0.745412 -3.69761 0
M  V30 7905 H 747.388 -0.0941996 -2.9495 0
M  V30 7906 H 747.469 -1.58834 -2.00513 0
M  V30 7907 H 747.113 -2.93422 -4.14568 0
M  V30 7908 H 747.043 -1.41438 -5.0725 0
M  V30 7909 H 749.534 -1.39794 -3.51093 0
M  V30 7910 H 749.847 -3.43032 -6.92495 0
M  V30 7911 H 748.192 -3.07875 -6.23087 0
M  V30 7912 H 751.383 -1.80961 -4.31707 0
M  V30 7913 H 751.556 -2.73618 -5.87398 0
M  V30 7914 N 744.962 1.50701 -0.461195 0
M  V30 7915 C 746.208 2.02566 0.0973411 0
M  V30 7916 C 746.541 1.3432 1.40257 0
M  V30 7917 O 745.816 0.465692 1.88843 0
M  V30 7918 C 746.099 3.58919 0.291423 0
M  V30 7919 C 745.952 4.37751 -1.03413 0
M  V30 7920 C 747.271 4.27379 1.05048 0
M  V30 7921 H 744.39 0.73622 0.0339026 0
M  V30 7922 H 747.032 1.80115 -0.604855 0
M  V30 7923 H 745.182 3.78179 0.889539 0
M  V30 7924 H 746.854 4.30085 -1.66806 0
M  V30 7925 H 745.097 4.01885 -1.63313 0
M  V30 7926 H 745.768 5.45384 -0.852085 0
M  V30 7927 H 748.244 4.12534 0.543603 0
M  V30 7928 H 747.12 5.36609 1.15506 0
M  V30 7929 H 747.381 3.89868 2.0846 0
M  V30 7930 N 746.441 0.193421 1.56409 0
M  V30 7931 C 747.388 -0.728124 2.19014 0
M  V30 7932 C 748.358 -1.21098 1.13686 0
M  V30 7933 O 749.543 -1.27517 1.4193 0
M  V30 7934 C 746.683 -1.94277 2.8522 0
M  V30 7935 C 745.796 -1.50143 4.05069 0
M  V30 7936 C 744.931 -2.67145 4.59137 0
M  V30 7937 C 743.97 -2.19609 5.71348 0
M  V30 7938 N 743.107 -3.29782 6.19829 0
M  V30 7939 H 747.947 -0.187499 2.9741 0
M  V30 7940 H 745.484 -0.0808064 1.46878 0
M  V30 7941 H 747.442 -2.65551 3.21774 0
M  V30 7942 H 746.072 -2.45673 2.09391 0
M  V30 7943 H 745.124 -0.684624 3.74189 0
M  V30 7944 H 746.436 -1.11266 4.86232 0
M  V30 7945 H 745.59 -3.46544 4.97988 0
M  V30 7946 H 744.329 -3.09295 3.77078 0
M  V30 7947 H 743.334 -1.38664 5.32027 0
M  V30 7948 H 744.559 -1.78492 6.55223 0
M  V30 7949 H 742.505 -3.71466 5.40693 0
M  V30 7950 H 742.422 -2.95069 6.96039 0
M  V30 7951 H 743.69 -4.094 6.63334 0
M  V30 7952 N 747.919 -1.57396 -0.0801906 0
M  V30 7953 C 748.849 -2.06145 -1.09665 0
M  V30 7954 C 749.83 -0.953273 -1.40878 0
M  V30 7955 O 751.015 -1.22548 -1.50651 0
M  V30 7956 C 748.145 -2.49836 -2.41245 0
M  V30 7957 C 747.099 -3.64454 -2.24405 0
M  V30 7958 C 746.425 -3.94172 -3.61293 0
M  V30 7959 C 747.725 -4.94807 -1.67223 0
M  V30 7960 H 749.419 -2.91316 -0.691028 0
M  V30 7961 H 746.965 -1.40145 -0.330957 0
M  V30 7962 H 748.918 -2.82552 -3.12638 0
M  V30 7963 H 747.642 -1.61683 -2.83771 0
M  V30 7964 H 746.301 -3.32008 -1.55454 0
M  V30 7965 H 745.949 -3.03163 -4.01374 0
M  V30 7966 H 745.649 -4.71345 -3.50867 0
M  V30 7967 H 747.173 -4.29376 -4.3413 0
M  V30 7968 H 748.587 -5.25807 -2.28472 0
M  V30 7969 H 746.984 -5.76245 -1.67515 0
M  V30 7970 H 748.054 -4.80751 -0.632944 0
M  V30 7971 N 749.397 0.351382 -1.53633 0
M  V30 7972 C 750.643 1.09411 -1.70754 0
M  V30 7973 C 750.976 1.88544 -0.465293 0
M  V30 7974 O 750.251 1.86923 0.537608 0
M  V30 7975 C 750.534 2.04173 -2.96623 0
M  V30 7976 C 750.387 1.28556 -4.31038 0
M  V30 7977 C 751.706 3.04102 -3.18136 0
M  V30 7978 H 748.825 0.396373 -0.621335 0
M  V30 7979 H 751.467 0.373464 -1.86293 0
M  V30 7980 H 749.617 2.65625 -2.83506 0
M  V30 7981 H 751.289 0.697786 -4.55992 0
M  V30 7982 H 749.532 0.587498 -4.29803 0
M  V30 7983 H 750.203 1.97989 -5.15271 0
M  V30 7984 H 752.679 2.5276 -3.30532 0
M  V30 7985 H 751.555 3.67616 -4.07615 0
M  V30 7986 H 751.816 3.75053 -2.34068 0
M  V30 7987 N 750.875 1.45233 0.611969 0
M  V30 7988 C 751.823 1.53898 1.74408 0
M  V30 7989 C 752.817 0.409254 1.64382 0
M  V30 7990 O 754.023 0.584988 1.70229 0
M  V30 7991 H 750.398 0.483303 0.576127 0
M  V30 7992 H 752.369 2.49143 1.64227 0
M  V30 7993 C 751.118 1.51865 3.12782 0
M  V30 7994 H 750.441 2.38118 3.21154 0
M  V30 7995 H 751.881 1.61986 3.91838 0
M  V30 7996 C 750.34 0.242374 3.36027 0
M  V30 7997 O 750.87 -0.679587 3.9591 0
M  V30 7998 N 749.076 0.139448 2.90265 0
M  V30 7999 H 748.623 0.890571 2.41716 0
M  V30 8000 H 748.581 -0.713686 3.06193 0
M  V30 8001 N 752.353 -0.854086 1.3245 0
M  V30 8002 C 753.285 -1.96932 1.17262 0
M  V30 8003 C 754.298 -1.62445 0.107469 0
M  V30 8004 O 755.487 -1.74904 0.356481 0
M  V30 8005 C 752.587 -3.29971 0.772817 0
M  V30 8006 C 751.76 -3.92695 1.92638 0
M  V30 8007 C 750.819 -5.04068 1.51003 0
M  V30 8008 O 749.845 -5.24032 2.22213 0
M  V30 8009 N 751.047 -5.79076 0.406371 0
M  V30 8010 H 753.812 -2.10503 2.13327 0
M  V30 8011 H 751.373 -1.02897 1.24995 0
M  V30 8012 H 753.365 -4.01883 0.476684 0
M  V30 8013 H 751.935 -3.1245 -0.0967 0
M  V30 8014 H 751.155 -3.13563 2.38897 0
M  V30 8015 H 752.443 -4.31337 2.69863 0
M  V30 8016 H 751.841 -5.65393 -0.186302 0
M  V30 8017 H 750.398 -6.51579 0.169846 0
M  V30 8018 N 753.831 -1.1567 -1.07043 0
M  V30 8019 C 755.108 -0.843948 -1.76456 0
M  V30 8020 C 755.488 0.659806 -2.00524 0
M  V30 8021 O 754.836 1.60518 -1.62623 0
M  V30 8022 C 755.046 -1.65822 -3.0709 0
M  V30 8023 C 756.394 -1.8664 -3.8138 0
M  V30 8024 O 757.418 -1.62624 -3.1691 0
M  V30 8025 O 756.277 -2.26884 -4.97178 0
M  V30 8026 H 753.371 -0.310677 -0.766426 0
M  V30 8027 H 755.917 -1.26266 -1.1338 0
M  V30 8028 H 754.689 -2.67902 -2.85209 0
M  V30 8029 H 754.312 -1.23605 -3.77899 0
M  V30 8030 N 755.309 1.25446 -0.953992 0
M  V30 8031 C 756.272 2.24156 -0.478179 0
M  V30 8032 C 757.272 1.55278 0.417776 0
M  V30 8033 O 758.462 1.72866 0.215155 0
M  V30 8034 C 755.594 3.39495 0.309202 0
M  V30 8035 H 756.787 2.67764 -1.35064 0
M  V30 8036 H 754.34 1.37822 -0.737206 0
M  V30 8037 H 755.075 3.01307 1.19936 0
M  V30 8038 H 754.86 3.90679 -0.333562 0
M  V30 8039 H 756.35 4.12796 0.631594 0
M  V30 8040 N 756.787 0.722489 1.40064 0
M  V30 8041 C 757.697 0.0755984 2.34478 0
M  V30 8042 C 758.713 -0.736046 1.57665 0
M  V30 8043 O 759.889 -0.667407 1.9002 0
M  V30 8044 C 756.954 -0.830075 3.36616 0
M  V30 8045 C 756.015 -0.00759884 4.29299 0
M  V30 8046 C 755.248 -0.870139 5.26559 0
M  V30 8047 O 755.471 -2.10921 5.2997 0
M  V30 8048 O 754.405 -0.305454 6.01124 0
M  V30 8049 H 758.231 0.854545 2.9143 0
M  V30 8050 H 755.816 0.483032 1.41376 0
M  V30 8051 H 757.698 -1.34864 3.99236 0
M  V30 8052 H 756.373 -1.58805 2.82069 0
M  V30 8053 H 755.28 0.556199 3.69942 0
M  V30 8054 H 756.613 0.712312 4.87018 0
M  V30 8055 N 758.265 -1.50454 0.469181 0
M  V30 8056 C 759.513 -2.01916 -0.0862982 0
M  V30 8057 C 759.834 -1.35337 -1.40388 0
M  V30 8058 O 759.104 -0.498096 -1.89462 0
M  V30 8059 H 757.684 -0.746185 -0.0348825 0
M  V30 8060 H 760.346 -1.84804 0.619167 0
M  V30 8061 H 759.442 -3.11182 -0.239189 0
M  V30 8062 N 759.743 -0.201713 -1.56304 0
M  V30 8063 C 760.992 0.435557 -1.96941 0
M  V30 8064 C 761.305 1.62299 -1.09172 0
M  V30 8065 O 762.511 2.32849 -1.3962 0
M  V30 8066 C 760.967 0.826298 -3.50286 0
M  V30 8067 C 760.575 -0.337216 -4.46729 0
M  V30 8068 C 762.319 1.43028 -3.99679 0
M  V30 8069 C 760.226 0.0748539 -5.91353 0
M  V30 8070 H 759.156 0.1665 -0.735387 0
M  V30 8071 H 761.807 -0.294781 -1.81117 0
M  V30 8072 H 760.189 1.61349 -3.61639 0
M  V30 8073 H 761.363 -1.11476 -4.47113 0
M  V30 8074 H 759.678 -0.853126 -4.07567 0
M  V30 8075 H 762.275 1.75115 -5.05212 0
M  V30 8076 H 762.618 2.33911 -3.44371 0
M  V30 8077 H 763.151 0.706924 -3.91468 0
M  V30 8078 H 759.89 -0.799957 -6.506 0
M  V30 8079 H 759.41 0.817122 -5.94208 0
M  V30 8080 H 761.089 0.508389 -6.45 0
M  V30 8081 N 761.222 1.57436 0.0718424 0
M  V30 8082 C 762.47 1.86878 0.769484 0
M  V30 8083 C 762.791 0.7937 1.78116 0
M  V30 8084 O 762.061 -0.177642 1.95093 0
M  V30 8085 H 760.641 0.689593 0.287177 0
M  V30 8086 H 763.303 1.94841 0.0479427 0
M  V30 8087 H 762.399 2.84387 1.28572 0
M  V30 8088 N 762.7 -0.34323 1.53817 0
M  V30 8089 C 763.61 -1.44493 1.84821 0
M  V30 8090 C 764.626 -1.57556 0.738381 0
M  V30 8091 O 765.802 -1.73026 1.03072 0
M  V30 8092 C 762.867 -2.79478 2.05166 0
M  V30 8093 C 761.928 -2.75756 3.29025 0
M  V30 8094 C 761.161 -4.04302 3.4839 0
M  V30 8095 O 761.384 -5.01595 2.71586 0
M  V30 8096 O 760.318 -4.08754 4.41819 0
M  V30 8097 H 764.144 -1.21209 2.78464 0
M  V30 8098 H 761.729 -0.535437 1.39476 0
M  V30 8099 H 763.611 -3.59419 2.19991 0
M  V30 8100 H 762.286 -3.02692 1.14713 0
M  V30 8101 H 761.193 -1.94434 3.19603 0
M  V30 8102 H 762.526 -2.57495 4.19472 0
M  V30 8103 N 764.178 -1.45556 -0.604258 0
M  V30 8104 C 765.427 -1.49019 -1.35928 0
M  V30 8105 C 765.74 -0.137409 -1.95117 0
M  V30 8106 O 766.946 -0.0497032 -2.71455 0
M  V30 8107 C 765.402 -2.62477 -2.46239 0
M  V30 8108 C 765.01 -4.04082 -1.93447 0
M  V30 8109 C 766.754 -2.7519 -3.23219 0
M  V30 8110 C 764.661 -5.08917 -3.0126 0
M  V30 8111 H 763.591 -0.554518 -0.510907 0
M  V30 8112 H 766.242 -1.71705 -0.647262 0
M  V30 8113 H 764.624 -2.3308 -3.2014 0
M  V30 8114 H 765.798 -4.43173 -1.26232 0
M  V30 8115 H 764.113 -3.95849 -1.29201 0
M  V30 8116 H 766.71 -3.50683 -4.0364 0
M  V30 8117 H 767.053 -1.81941 -3.74437 0
M  V30 8118 H 767.586 -3.04129 -2.56418 0
M  V30 8119 H 764.325 -6.03886 -2.54955 0
M  V30 8120 H 763.845 -4.74393 -3.67031 0
M  V30 8121 H 765.524 -5.33814 -3.65584 0
M  V30 8122 N 765.656 0.84705 -1.32902 0
M  V30 8123 C 766.896 1.61554 -1.25218 0
M  V30 8124 C 767.26 1.91141 0.18143 0
M  V30 8125 O 768.461 2.6607 0.382106 0
M  V30 8126 C 766.732 2.89553 -2.09509 0
M  V30 8127 S 768.291 3.80283 -2.18931 0
M  V30 8128 H 765.109 0.554031 -0.445613 0
M  V30 8129 H 767.711 1.00251 -1.67839 0
M  V30 8130 H 766.415 2.65776 -3.12716 0
M  V30 8131 H 765.946 3.55868 -1.67694 0
M  V30 8132 H 767.961 4.77641 -1.34438 0
M  V30 8133 N 767.134 1.16236 1.06428 0
M  V30 8134 C 768.064 0.890807 2.1584 0
M  V30 8135 C 769.045 -0.162333 1.69324 0
M  V30 8136 O 770.23 -0.0147191 1.94194 0
M  V30 8137 C 767.36 0.389615 3.45108 0
M  V30 8138 C 766.314 1.38051 4.05125 0
M  V30 8139 C 765.64 0.737773 5.29586 0
M  V30 8140 C 766.94 2.74965 4.44062 0
M  V30 8141 H 768.634 1.80577 2.38814 0
M  V30 8142 H 766.18 0.869657 1.14774 0
M  V30 8143 H 768.133 0.187127 4.20984 0
M  V30 8144 H 766.857 -0.560851 3.21748 0
M  V30 8145 H 765.516 1.56952 3.31303 0
M  V30 8146 H 765.164 -0.219135 5.02522 0
M  V30 8147 H 764.864 1.39914 5.70699 0
M  V30 8148 H 766.388 0.545275 6.0816 0
M  V30 8149 H 767.802 2.59855 5.11027 0
M  V30 8150 H 766.199 3.37563 4.96156 0
M  V30 8151 H 767.269 3.30321 3.54987 0
M  V30 8152 N 768.612 -1.24939 0.960631 0
M  V30 8153 C 769.858 -1.93425 0.629155 0
M  V30 8154 C 770.213 -1.73784 -0.825635 0
M  V30 8155 O 769.506 -1.07595 -1.58536 0
M  V30 8156 C 769.7 -3.45066 0.930809 0
M  V30 8157 C 769.529 -3.79455 2.41337 0
M  V30 8158 C 768.299 -4.01195 3.07197 0
M  V30 8159 C 770.497 -3.86492 3.39306 0
M  V30 8160 N 768.479 -4.22626 4.45265 0
M  V30 8161 C 769.85 -4.12682 4.62702 0
M  V30 8162 C 771.905 -3.69198 3.34061 0
M  V30 8163 C 770.608 -4.23376 5.81502 0
M  V30 8164 C 772.634 -3.81135 4.52206 0
M  V30 8165 C 771.996 -4.07743 5.74391 0
M  V30 8166 H 768.095 -0.729791 0.280943 0
M  V30 8167 H 770.679 -1.50597 1.23404 0
M  V30 8168 H 768.85 -3.86776 0.354801 0
M  V30 8169 H 770.582 -4.00826 0.558627 0
M  V30 8170 H 767.337 -3.97319 2.5775 0
M  V30 8171 H 767.761 -4.37335 5.16785 0
M  V30 8172 H 772.403 -3.47639 2.40638 0
M  V30 8173 H 770.121 -4.4375 6.75361 0
M  V30 8174 H 773.707 -3.69133 4.49702 0
M  V30 8175 H 772.587 -4.16768 6.64284 0
M  V30 8176 N 770.09 -0.729906 -1.39679 0
M  V30 8177 C 771.338 -0.275077 -2.00219 0
M  V30 8178 C 771.659 1.1401 -1.58199 0
M  V30 8179 O 770.929 1.77546 -0.827904 0
M  V30 8180 H 769.509 -0.0987127 -0.740449 0
M  V30 8181 H 772.171 -0.93873 -1.70804 0
M  V30 8182 H 771.267 -0.319446 -3.10461 0
M  V30 8183 N 771.568 1.50203 -0.477153 0
M  V30 8184 C 772.984 1.59056 -0.131663 0
M  V30 8185 C 773.184 1.48473 1.36227 0
M  V30 8186 O 772.24 1.34635 2.13611 0
M  V30 8187 C 773.553 2.92741 -0.687254 0
M  V30 8188 C 775.101 3.0615 -0.651223 0
M  V30 8189 C 775.576 4.42419 -1.18446 0
M  V30 8190 N 777.067 4.48847 -1.14413 0
M  V30 8191 C 777.802 5.52689 -1.52717 0
M  V30 8192 N 777.298 6.63754 -1.98499 0
M  V30 8193 N 779.091 5.43267 -1.44282 0
M  V30 8194 H 771.242 1.55325 -1.44872 0
M  V30 8195 H 773.505 0.734395 -0.599473 0
M  V30 8196 H 773.211 3.0598 -1.73405 0
M  V30 8197 H 773.085 3.76961 -0.134215 0
M  V30 8198 H 775.472 2.92556 0.386677 0
M  V30 8199 H 775.553 2.23673 -1.24114 0
M  V30 8200 H 775.197 4.56763 -2.22103 0
M  V30 8201 H 775.127 5.23498 -0.570709 0
M  V30 8202 H 777.618 3.69152 -0.808416 0
M  V30 8203 H 777.931 7.39059 -2.25859 0
M  V30 8204 H 776.276 6.64858 -2.02456 0
M  V30 8205 H 779.467 4.55387 -1.08352 0
M  V30 8206 H 779.64 6.24074 -1.74459 0
M  V30 8207 N 773.046 0.209999 1.56195 0
M  V30 8208 C 774.274 -0.429996 2.02382 0
M  V30 8209 C 774.689 -1.54159 1.08998 0
M  V30 8210 O 774.046 -1.82239 0.0974856 0
M  V30 8211 C 774.097 -0.972433 3.48175 0
M  V30 8212 O 773.818 0.0948231 4.37997 0
M  V30 8213 C 775.319 -1.68683 4.09952 0
M  V30 8214 H 772.539 -0.106475 0.662498 0
M  V30 8215 H 775.083 0.323072 2.01932 0
M  V30 8216 H 773.238 -1.67582 3.49278 0
M  V30 8217 H 773.652 -0.31113 5.23576 0
M  V30 8218 H 775.126 -2.01851 5.13771 0
M  V30 8219 H 775.603 -2.59587 3.54276 0
M  V30 8220 H 776.209 -1.02893 4.12666 0
M  V30 8221 N 774.524 -1.57472 -0.0634922 0
M  V30 8222 C 775.773 -1.86837 -0.759928 0
M  V30 8223 C 776.086 -0.803823 -1.7832 0
M  V30 8224 O 777.292 -0.985578 -2.52979 0
M  V30 8225 C 775.748 -3.31448 -1.4025 0
M  V30 8226 C 775.356 -4.46052 -0.417368 0
M  V30 8227 C 777.1 -3.70003 -2.08082 0
M  V30 8228 C 775.007 -5.81707 -1.06633 0
M  V30 8229 H 773.937 -0.697009 -0.287567 0
M  V30 8230 H 776.588 -1.83495 -0.0133914 0
M  V30 8231 H 774.97 -3.29427 -2.19759 0
M  V30 8232 H 776.144 -4.5948 0.348503 0
M  V30 8233 H 774.459 -4.16104 0.156955 0
M  V30 8234 H 777.056 -4.68653 -2.57426 0
M  V30 8235 H 777.399 -3.00226 -2.88393 0
M  V30 8236 H 777.932 -3.7405 -1.35394 0
M  V30 8237 H 774.671 -6.54798 -0.303374 0
M  V30 8238 H 774.191 -5.72064 -1.80286 0
M  V30 8239 H 775.87 -6.27317 -1.58376 0
M  V30 8240 N 776.003 0.335068 -1.53997 0
M  V30 8241 C 777.25 1.07435 -1.71651 0
M  V30 8242 C 777.578 1.88378 -0.48413 0
M  V30 8243 O 776.833 1.8827 0.534139 0
M  V30 8244 C 777.132 2.0364 -2.9371 0
M  V30 8245 C 776.798 1.38942 -4.28959 0
M  V30 8246 C 775.46 1.21027 -4.65732 0
M  V30 8247 C 777.812 0.924083 -5.12943 0
M  V30 8248 C 775.14 0.552097 -5.84097 0
M  V30 8249 C 777.492 0.27978 -6.31981 0
M  V30 8250 C 776.156 0.0883843 -6.67441 0
M  V30 8251 H 775.426 0.393133 -0.628114 0
M  V30 8252 H 778.073 0.352712 -1.88224 0
M  V30 8253 H 776.378 2.82215 -2.71775 0
M  V30 8254 H 778.075 2.6085 -3.04562 0
M  V30 8255 H 774.665 1.53885 -4.00022 0
M  V30 8256 H 778.849 1.05032 -4.85059 0
M  V30 8257 H 774.105 0.392502 -6.10139 0
M  V30 8258 H 778.279 -0.0888479 -6.96343 0
M  V30 8259 H 775.906 -0.423657 -7.59019 0
M  V30 8260 N 777.481 1.45874 0.596531 0
M  V30 8261 C 778.414 1.49889 1.72071 0
M  V30 8262 C 779.392 0.354224 1.58695 0
M  V30 8263 O 780.576 0.556355 1.80103 0
M  V30 8264 C 777.703 1.3644 3.10003 0
M  V30 8265 C 776.749 2.54913 3.41938 0
M  V30 8266 S 777.582 4.17336 3.35545 0
M  V30 8267 C 778.738 4.06372 4.76039 0
M  V30 8268 H 778.971 2.45005 1.68404 0
M  V30 8269 H 776.504 1.33592 0.77412 0
M  V30 8270 H 778.462 1.29368 3.89582 0
M  V30 8271 H 777.123 0.427762 3.11174 0
M  V30 8272 H 776.316 2.41458 4.42396 0
M  V30 8273 H 775.918 2.58904 2.69898 0
M  V30 8274 H 778.21 3.72199 5.66105 0
M  V30 8275 H 779.153 5.0678 4.9455 0
M  V30 8276 H 779.561 3.37846 4.52239 0
M  V30 8277 N 778.959 -0.83999 1.33349 0
M  V30 8278 C 780.207 -1.59202 1.24496 0
M  V30 8279 C 780.528 -1.94077 -0.189499 0
M  V30 8280 O 779.798 -1.60868 -1.11796 0
M  V30 8281 H 778.378 -0.590276 0.457802 0
M  V30 8282 H 781.04 -1.00394 1.67054 0
M  V30 8283 H 780.136 -2.52247 1.83788 0
M  V30 8284 N 780.437 -1.16799 -1.0581 0
M  V30 8285 C 781.667 -0.975454 -1.82122 0
M  V30 8286 C 782.075 0.479584 -1.83021 0
M  V30 8287 O 781.418 1.34471 -1.25153 0
M  V30 8288 C 781.48 -1.43209 -3.29744 0
M  V30 8289 C 781.144 -2.908 -3.5254 0
M  V30 8290 C 782.141 -3.88775 -3.45181 0
M  V30 8291 C 779.826 -3.28832 -3.79703 0
M  V30 8292 C 781.82 -5.22782 -3.64661 0
M  V30 8293 C 779.507 -4.63007 -3.98832 0
M  V30 8294 C 780.505 -5.59791 -3.91309 0
M  V30 8295 O 780.193 -6.9154 -4.09911 0
M  V30 8296 H 779.925 -0.345655 -0.580947 0
M  V30 8297 H 782.479 -1.55355 -1.34365 0
M  V30 8298 H 780.709 -0.797504 -3.78387 0
M  V30 8299 H 782.398 -1.2062 -3.87564 0
M  V30 8300 H 783.164 -3.60738 -3.2418 0
M  V30 8301 H 779.043 -2.54073 -3.84666 0
M  V30 8302 H 782.587 -5.98312 -3.58705 0
M  V30 8303 H 778.484 -4.90752 -4.19324 0
M  V30 8304 H 779.252 -6.98188 -4.27172 0
M  V30 8305 N 781.915 1.24427 -0.967243 0
M  V30 8306 C 782.845 2.2773 -0.515899 0
M  V30 8307 C 783.826 1.64197 0.444227 0
M  V30 8308 O 785.011 1.91193 0.340451 0
M  V30 8309 C 782.141 3.46751 0.195149 0
M  V30 8310 C 781.095 4.22548 -0.680953 0
M  V30 8311 C 780.421 5.34456 0.161561 0
M  V30 8312 C 781.721 4.83914 -1.96532 0
M  V30 8313 H 783.415 2.65735 -1.37933 0
M  V30 8314 H 780.961 1.27742 -0.664681 0
M  V30 8315 H 782.914 4.18153 0.522117 0
M  V30 8316 H 781.638 3.07771 1.09292 0
M  V30 8317 H 780.297 3.52946 -0.991186 0
M  V30 8318 H 779.945 4.91716 1.05947 0
M  V30 8319 H 779.645 5.86087 -0.421418 0
M  V30 8320 H 781.169 6.08685 0.483211 0
M  V30 8321 H 782.583 5.47392 -1.70396 0
M  V30 8322 H 780.98 5.45775 -2.49499 0
M  V30 8323 H 782.05 4.05393 -2.66053 0
M  V30 8324 N 783.393 0.737304 1.3929 0
M  V30 8325 C 784.341 0.0879867 2.32434 0
M  V30 8326 C 785.335 -0.723324 1.53181 0
M  V30 8327 O 786.541 -0.624251 1.68829 0
M  V30 8328 H 782.916 0.00965277 0.751938 0
M  V30 8329 H 784.887 0.889915 2.84821 0
M  V30 8330 C 783.636 -0.803384 3.38291 0
M  V30 8331 H 782.959 -0.18849 3.99355 0
M  V30 8332 H 784.399 -1.22528 4.0591 0
M  V30 8333 C 782.858 -1.93872 2.75527 0
M  V30 8334 O 783.388 -3.03154 2.63553 0
M  V30 8335 N 781.594 -1.72883 2.3358 0
M  V30 8336 H 781.141 -0.840005 2.43519 0
M  V30 8337 H 781.099 -2.49021 1.91927 0
M  V30 8338 N 784.871 -1.49948 0.485112 0
M  V30 8339 C 785.804 -2.25531 -0.348027 0
M  V30 8340 C 786.782 -1.29433 -0.984172 0
M  V30 8341 O 787.966 -1.58687 -1.01738 0
M  V30 8342 C 785.093 -3.04225 -1.48878 0
M  V30 8343 C 784.139 -4.15355 -0.968616 0
M  V30 8344 S 784.972 -5.35347 0.127934 0
M  V30 8345 C 786.128 -6.17593 -1.01637 0
M  V30 8346 H 786.361 -2.95847 0.293529 0
M  V30 8347 H 783.894 -1.52018 0.27018 0
M  V30 8348 H 785.852 -3.50153 -2.14251 0
M  V30 8349 H 784.513 -2.33407 -2.1019 0
M  V30 8350 H 783.706 -4.69873 -1.82305 0
M  V30 8351 H 783.308 -3.71936 -0.392377 0
M  V30 8352 H 785.6 -6.49576 -1.92503 0
M  V30 8353 H 786.543 -7.0626 -0.510149 0
M  V30 8354 H 786.951 -5.49877 -1.27653 0
M  V30 8355 N 786.349 -0.21828 -1.56081 0
M  V30 8356 C 787.259 0.704602 -2.23769 0
M  V30 8357 C 788.275 1.21633 -1.24425 0
M  V30 8358 O 789.451 1.25862 -1.57228 0
M  V30 8359 C 786.516 1.89725 -2.90182 0
M  V30 8360 C 785.577 1.42782 -4.0486 0
M  V30 8361 C 784.81 2.56361 -4.68097 0
M  V30 8362 O 785.033 3.74417 -4.30312 0
M  V30 8363 O 783.967 2.2775 -5.57148 0
M  V30 8364 H 787.793 0.158007 -3.03289 0
M  V30 8365 H 785.378 0.0120279 -1.49395 0
M  V30 8366 H 787.26 2.59382 -3.32113 0
M  V30 8367 H 785.935 2.432 -2.13624 0
M  V30 8368 H 784.842 0.699359 -3.67505 0
M  V30 8369 H 786.175 0.939474 -4.83151 0
M  V30 8370 N 787.827 1.57504 0.0551401 0
M  V30 8371 C 789.104 1.79155 0.785048 0
M  V30 8372 C 789.484 0.809995 1.94942 0
M  V30 8373 O 788.832 -0.153432 2.27984 0
M  V30 8374 C 789.042 3.26134 1.24247 0
M  V30 8375 C 790.39 3.90419 1.66908 0
M  V30 8376 O 791.414 3.30126 1.33772 0
M  V30 8377 O 790.273 4.96523 2.28314 0
M  V30 8378 H 787.367 0.735825 0.377479 0
M  V30 8379 H 789.913 1.69666 0.0339285 0
M  V30 8380 H 788.685 3.89145 0.410089 0
M  V30 8381 H 788.308 3.40411 2.05441 0
M  V30 8382 N 789.305 -0.326896 1.54172 0
M  V30 8383 C 790.252 -1.40216 1.83325 0
M  V30 8384 C 791.222 -1.51538 0.680107 0
M  V30 8385 O 792.407 -1.66811 0.926206 0
M  V30 8386 C 789.547 -2.76626 2.0633 0
M  V30 8387 C 788.66 -2.73963 3.34019 0
M  V30 8388 C 787.795 -4.02198 3.47002 0
M  V30 8389 C 786.834 -3.93828 4.68578 0
M  V30 8390 N 785.971 -5.13787 4.78506 0
M  V30 8391 H 790.811 -1.14656 2.7506 0
M  V30 8392 H 788.348 -0.555089 1.36225 0
M  V30 8393 H 790.306 -3.55922 2.17659 0
M  V30 8394 H 788.936 -3.00503 1.1789 0
M  V30 8395 H 787.988 -1.86677 3.31445 0
M  V30 8396 H 789.3 -2.6366 4.2342 0
M  V30 8397 H 788.454 -4.89923 3.57855 0
M  V30 8398 H 787.193 -4.15302 2.55687 0
M  V30 8399 H 786.198 -3.04487 4.57786 0
M  V30 8400 H 787.423 -3.82292 5.61275 0
M  V30 8401 H 785.369 -5.27403 3.90105 0
M  V30 8402 H 785.286 -5.05807 5.61868 0
M  V30 8403 H 786.554 -6.03236 4.93686 0
M  V30 8404 N 790.784 -1.46188 -0.588786 0
M  V30 8405 C 792.012 -1.54743 -1.37339 0
M  V30 8406 C 792.427 -0.186446 -1.87877 0
M  V30 8407 O 791.784 0.815247 -1.63279 0
M  V30 8408 C 791.835 -2.54727 -2.56508 0
M  V30 8409 O 791.556 -3.85539 -2.08066 0
M  V30 8410 C 793.057 -2.73163 -3.49137 0
M  V30 8411 H 790.277 -0.523484 -0.419768 0
M  V30 8412 H 792.821 -1.91543 -0.716345 0
M  V30 8413 H 790.976 -2.20948 -3.18215 0
M  V30 8414 H 791.39 -4.39905 -2.85629 0
M  V30 8415 H 792.864 -3.47057 -4.2925 0
M  V30 8416 H 793.341 -1.79856 -4.00685 0
M  V30 8417 H 793.947 -3.08014 -2.9327 0
M  V30 8418 N 792.262 0.832906 -1.33792 0
M  V30 8419 C 793.502 1.60217 -1.26925 0
M  V30 8420 C 793.866 1.91323 0.161146 0
M  V30 8421 O 795.067 2.66461 0.353864 0
M  V30 8422 C 793.338 2.87314 -2.12568 0
M  V30 8423 S 794.897 3.77939 -2.22952 0
M  V30 8424 H 791.715 0.549273 -0.451464 0
M  V30 8425 H 794.317 0.984648 -1.68893 0
M  V30 8426 H 793.021 2.62444 -3.15518 0
M  V30 8427 H 792.552 3.5407 -1.71459 0
M  V30 8428 H 794.567 4.76188 -1.39496 0
M  V30 8429 N 793.74 1.17359 1.05189 0
M  V30 8430 C 794.65 0.904984 2.16442 0
M  V30 8431 C 795.666 -0.12686 1.73537 0
M  V30 8432 O 796.842 0.0524127 2.01332 0
M  V30 8433 C 793.907 0.422019 3.44122 0
M  V30 8434 C 792.968 1.52045 4.01473 0
M  V30 8435 C 792.201 1.06044 5.23059 0
M  V30 8436 O 792.424 -0.0854023 5.70336 0
M  V30 8437 O 791.358 1.85349 5.72651 0
M  V30 8438 H 795.184 1.8356 2.41949 0
M  V30 8439 H 792.769 0.95447 1.14936 0
M  V30 8440 H 794.651 0.160208 4.21095 0
M  V30 8441 H 793.326 -0.480444 3.20115 0
M  V30 8442 H 792.233 1.83615 3.25939 0
M  V30 8443 H 793.566 2.39863 4.29798 0
M  V30 8444 N 795.218 -1.23913 0.973828 0
M  V30 8445 C 796.181 -2.23367 0.51378 0
M  V30 8446 C 797.181 -1.55923 -0.39302 0
M  V30 8447 O 798.371 -1.73187 -0.187626 0
M  V30 8448 C 795.503 -3.39944 -0.255152 0
M  V30 8449 H 796.696 -2.65581 1.39307 0
M  V30 8450 H 794.249 -1.36632 0.759039 0
M  V30 8451 H 794.984 -3.03177 -1.15127 0
M  V30 8452 H 794.769 -3.90098 0.395673 0
M  V30 8453 H 796.259 -4.13749 -0.565842 0
M  V30 8454 N 796.696 -0.74468 -1.38897 0
M  V30 8455 C 797.945 -0.293716 -1.9955 0
M  V30 8456 C 798.258 1.12831 -1.59777 0
M  V30 8457 O 799.464 1.67929 -2.13336 0
M  V30 8458 C 797.92 -0.474188 -3.56762 0
M  V30 8459 C 797.528 -1.90472 -4.05493 0
M  V30 8460 C 799.272 -0.0854875 -4.24414 0
M  V30 8461 C 797.179 -2.03423 -5.55314 0
M  V30 8462 H 796.109 -0.106066 -0.746502 0
M  V30 8463 H 798.76 -0.919948 -1.58774 0
M  V30 8464 H 797.142 0.221092 -3.95382 0
M  V30 8465 H 798.316 -2.63274 -3.78184 0
M  V30 8466 H 796.631 -2.24752 -3.50536 0
M  V30 8467 H 799.228 -0.161133 -5.34457 0
M  V30 8468 H 799.571 0.96066 -4.05064 0
M  V30 8469 H 800.104 -0.732286 -3.91002 0
M  V30 8470 H 796.843 -3.0626 -5.79556 0
M  V30 8471 H 796.363 -1.3507 -5.84394 0
M  V30 8472 H 798.042 -1.81996 -6.20876 0
M  V30 8473 N 798.174 1.49689 -0.493057 0
M  V30 8474 C 799.451 1.9525 0.116907 0
M  V30 8475 C 799.831 1.43429 1.54892 0
M  V30 8476 O 799.179 0.644621 2.19219 0
M  V30 8477 C 799.389 3.4898 0.037705 0
M  V30 8478 C 800.737 4.24052 0.215621 0
M  V30 8479 O 801.761 3.5602 0.113266 0
M  V30 8480 O 800.62 5.44847 0.42477 0
M  V30 8481 H 797.714 0.820973 0.099662 0
M  V30 8482 H 800.26 1.60367 -0.555029 0
M  V30 8483 H 799.032 3.79309 -0.961251 0
M  V30 8484 H 798.655 3.9046 0.750137 0
M  V30 8485 N 799.652 0.226554 1.55963 0
M  V30 8486 C 800.562 -0.692725 2.24139 0
M  V30 8487 C 801.578 -1.20971 1.25068 0
M  V30 8488 O 802.754 -1.25027 1.57893 0
M  V30 8489 C 799.819 -1.88183 2.91184 0
M  V30 8490 C 798.88 -1.40633 4.05612 0
M  V30 8491 C 798.113 -2.53875 4.6945 0
M  V30 8492 O 798.336 -3.72129 4.32292 0
M  V30 8493 O 797.27 -2.24792 5.58348 0
M  V30 8494 H 801.096 -0.141921 3.03368 0
M  V30 8495 H 798.681 -0.0041049 1.49399 0
M  V30 8496 H 800.563 -2.57617 3.33484 0
M  V30 8497 H 799.238 -2.42064 2.14911 0
M  V30 8498 H 798.145 -0.67986 3.67871 0
M  V30 8499 H 799.478 -0.913838 4.83642 0
M  V30 8500 N 801.13 -1.57531 -0.0467866 0
M  V30 8501 C 802.04 -2.08768 -1.07018 0
M  V30 8502 C 803.056 -1.02245 -1.40791 0
M  V30 8503 O 804.232 -1.33873 -1.50466 0
M  V30 8504 C 801.297 -2.54221 -2.35738 0
M  V30 8505 C 800.358 -3.75152 -2.08709 0
M  V30 8506 C 799.591 -4.18428 -3.31291 0
M  V30 8507 O 799.814 -3.61365 -4.4133 0
M  V30 8508 O 798.748 -5.11018 -3.18032 0
M  V30 8509 H 802.574 -2.96334 -0.664812 0
M  V30 8510 H 800.159 -1.47074 -0.262605 0
M  V30 8511 H 802.041 -2.83866 -3.11445 0
M  V30 8512 H 800.716 -1.69774 -2.75605 0
M  V30 8513 H 799.623 -3.50553 -1.30627 0
M  V30 8514 H 800.956 -4.60528 -1.73708 0
M  V30 8515 N 802.608 0.318715 -1.54344 0
M  V30 8516 C 803.856 1.054 -1.72439 0
M  V30 8517 C 804.177 1.88388 -0.503495 0
M  V30 8518 O 803.447 1.89866 0.48246 0
M  V30 8519 H 802.027 0.392124 -0.635805 0
M  V30 8520 H 804.689 0.35398 -1.91659 0
M  V30 8521 H 803.785 1.71726 -2.60608 0
M  V30 8522 N 804.086 1.46499 0.581025 0
M  V30 8523 C 805.332 1.53108 1.33901 0
M  V30 8524 C 805.687 0.181007 1.91547 0
M  V30 8525 O 804.98 -0.810518 1.73612 0
M  V30 8526 C 805.174 2.56686 2.48691 0
M  V30 8527 C 805.003 4.01633 2.0229 0
M  V30 8528 C 803.773 4.69333 1.87228 0
M  V30 8529 C 805.971 4.89379 1.58154 0
M  V30 8530 N 803.953 5.98891 1.34917 0
M  V30 8531 C 805.324 6.08775 1.17445 0
M  V30 8532 C 807.379 4.76017 1.45987 0
M  V30 8533 C 806.082 7.16286 0.657805 0
M  V30 8534 C 808.108 5.83601 0.95726 0
M  V30 8535 C 807.47 7.02171 0.55996 0
M  V30 8536 H 803.569 0.61509 0.482896 0
M  V30 8537 H 806.153 1.83123 0.661361 0
M  V30 8538 H 804.324 2.28578 3.14017 0
M  V30 8539 H 806.056 2.5328 3.15644 0
M  V30 8540 H 802.811 4.24878 2.09226 0
M  V30 8541 H 803.235 6.67852 1.10917 0
M  V30 8542 H 807.877 3.84736 1.75322 0
M  V30 8543 H 805.595 8.07333 0.352047 0
M  V30 8544 H 809.181 5.75304 0.867007 0
M  V30 8545 H 808.061 7.84 0.177046 0
M  V30 8546 N 805.565 -0.825799 1.34232 0
M  V30 8547 C 806.495 -1.95151 1.28212 0
M  V30 8548 C 807.476 -1.69345 0.160123 0
M  V30 8549 O 808.661 -1.90983 0.352019 0
M  V30 8550 C 805.791 -3.31554 1.03388 0
M  V30 8551 C 804.745 -3.71793 2.12023 0
M  V30 8552 C 804.071 -5.06147 1.72392 0
M  V30 8553 C 805.371 -3.84193 3.53826 0
M  V30 8554 H 807.065 -2.00445 2.22401 0
M  V30 8555 H 804.611 -0.962996 1.07063 0
M  V30 8556 H 806.564 -4.09889 0.978225 0
M  V30 8557 H 805.288 -3.26551 0.0564142 0
M  V30 8558 H 803.947 -2.95731 2.16654 0
M  V30 8559 H 803.595 -4.97628 0.733137 0
M  V30 8560 H 803.295 -5.34041 2.451 0
M  V30 8561 H 804.819 -5.86943 1.68317 0
M  V30 8562 H 806.233 -4.52806 3.51624 0
M  V30 8563 H 804.63 -4.23538 4.2513 0
M  V30 8564 H 805.7 -2.86272 3.91377 0
M  V30 8565 N 807.043 -1.17915 -1.04565 0
M  V30 8566 C 807.993 -0.869634 -2.10764 0
M  V30 8567 C 808.977 0.158502 -1.60117 0
M  V30 8568 O 810.169 -0.04483 -1.76943 0
M  V30 8569 C 807.298 -0.391642 -3.41059 0
M  V30 8570 C 806.384 -1.45156 -3.98485 0
M  V30 8571 N 806.775 -2.6667 -4.29792 0
M  V30 8572 C 805.073 -1.3109 -4.263 0
M  V30 8573 C 805.774 -3.34823 -4.75677 0
M  V30 8574 N 804.75 -2.62203 -4.76183 0
M  V30 8575 H 808.552 -1.79342 -2.32838 0
M  V30 8576 H 806.066 -1.0688 -1.22272 0
M  V30 8577 H 808.063 -0.151428 -4.16625 0
M  V30 8578 H 806.723 0.525862 -3.20413 0
M  V30 8579 H 807.734 -3.0358 -4.19594 0
M  V30 8580 H 804.411 -0.455545 -4.15007 0
M  V30 8581 H 805.801 -4.38645 -5.0896 0
M  V30 8582 N 808.521 1.23394 -0.980386 0
M  V30 8583 C 809.749 1.95844 -0.667286 0
M  V30 8584 C 810.164 1.72574 0.765735 0
M  V30 8585 O 809.521 1.01715 1.51526 0
M  V30 8586 C 809.572 3.48844 -0.948151 0
M  V30 8587 O 809.293 3.71325 -2.32485 0
M  V30 8588 C 810.794 4.38494 -0.651002 0
M  V30 8589 H 808.014 0.623535 -0.247882 0
M  V30 8590 H 810.558 1.56885 -1.31176 0
M  V30 8591 H 808.713 3.85819 -0.349681 0
M  V30 8592 H 809.127 4.65619 -2.41452 0
M  V30 8593 H 810.601 5.44648 -0.897887 0
M  V30 8594 H 811.078 4.37236 0.414922 0
M  V30 8595 H 811.684 4.07127 -1.22995 0
M  V30 8596 N 809.999 0.752036 1.385 0
M  V30 8597 C 811.247 0.306895 1.99756 0
M  V30 8598 C 811.568 -1.11478 1.59992 0
M  V30 8599 O 810.838 -1.76206 0.856045 0
M  V30 8600 H 809.418 0.11048 0.738785 0
M  V30 8601 H 812.08 0.965785 1.69289 0
M  V30 8602 H 811.176 0.368797 3.09913 0
M  V30 8603 N 811.477 -1.49425 0.500989 0
M  V30 8604 C 812.754 -1.9531 -0.106551 0
M  V30 8605 C 813.134 -1.44248 -1.54129 0
M  V30 8606 O 812.482 -0.656237 -2.18874 0
M  V30 8607 C 812.692 -3.48995 -0.0191972 0
M  V30 8608 C 814.04 -4.24161 -0.193129 0
M  V30 8609 O 815.064 -3.56075 -0.0943843 0
M  V30 8610 O 813.923 -5.45064 -0.395869 0
M  V30 8611 H 811.017 -0.82149 -0.0953068 0
M  V30 8612 H 813.563 -1.6007 0.563526 0
M  V30 8613 H 812.335 -3.78794 0.981353 0
M  V30 8614 H 811.958 -3.90852 -0.72942 0
M  V30 8615 N 812.955 -0.234822 -1.55841 0
M  V30 8616 C 813.918 0.656378 -2.196 0
M  V30 8617 C 814.918 1.11179 -1.16171 0
M  V30 8618 O 816.108 1.01845 -1.41326 0
M  V30 8619 C 813.24 1.90072 -2.82993 0
M  V30 8620 H 814.433 0.100281 -2.99732 0
M  V30 8621 H 811.986 0.0147613 -1.56293 0
M  V30 8622 H 812.721 2.49836 -2.06767 0
M  V30 8623 H 812.506 1.5825 -3.58747 0
M  V30 8624 H 813.996 2.53538 -3.31826 0
M  V30 8625 N 814.433 1.57553 0.0384317 0
M  V30 8626 C 815.681 1.88468 0.729672 0
M  V30 8627 C 816.002 0.831302 1.76393 0
M  V30 8628 O 815.272 -0.13622 1.95426 0
M  V30 8629 H 813.852 0.695529 0.272485 0
M  V30 8630 H 816.514 1.94899 0.0066032 0
M  V30 8631 H 815.61 2.8705 1.22511 0
M  V30 8632 N 815.911 -0.310526 1.54511 0
M  V30 8633 C 817.327 -0.655637 1.45511 0
M  V30 8634 C 817.527 -1.91114 0.638564 0
M  V30 8635 O 816.583 -2.52098 0.142497 0
M  V30 8636 C 817.896 -0.817501 2.89374 0
M  V30 8637 C 819.444 -0.914003 2.99358 0
M  V30 8638 C 819.919 -1.10794 4.44397 0
M  V30 8639 N 821.41 -1.17437 4.48066 0
M  V30 8640 C 822.145 -1.34255 5.57461 0
M  V30 8641 N 821.641 -1.48032 6.768 0
M  V30 8642 N 823.434 -1.37067 5.45132 0
M  V30 8643 H 815.585 0.514506 2.06074 0
M  V30 8644 H 817.848 0.168478 0.932909 0
M  V30 8645 H 817.554 0.034003 3.51684 0
M  V30 8646 H 817.428 -1.7094 3.36243 0
M  V30 8647 H 819.815 -1.756 2.37168 0
M  V30 8648 H 819.896 0.00170958 2.558 0
M  V30 8649 H 819.54 -0.270743 5.07178 0
M  V30 8650 H 819.47 -2.03773 4.85576 0
M  V30 8651 H 821.961 -1.08181 3.62084 0
M  V30 8652 H 822.274 -1.60593 7.5593 0
M  V30 8653 H 820.619 -1.45105 6.79683 0
M  V30 8654 H 823.81 -1.25909 4.50849 0
M  V30 8655 H 823.983 -1.49831 6.3044 0
M  V30 8656 N 817.389 -1.46805 -0.573248 0
M  V30 8657 C 818.319 -1.60951 -1.69165 0
M  V30 8658 C 819.3 -0.45948 -1.63777 0
M  V30 8659 O 820.485 -0.68688 -1.81647 0
M  V30 8660 C 817.615 -1.60844 -3.07809 0
M  V30 8661 C 816.569 -2.74913 -3.28035 0
M  V30 8662 C 815.895 -2.59871 -4.67302 0
M  V30 8663 C 817.195 -4.16654 -3.14955 0
M  V30 8664 H 818.889 -2.54574 -1.57582 0
M  V30 8665 H 816.435 -1.22516 -0.756686 0
M  V30 8666 H 818.388 -1.69334 -3.85881 0
M  V30 8667 H 817.112 -0.637714 -3.20314 0
M  V30 8668 H 815.771 -2.65908 -2.52366 0
M  V30 8669 H 815.419 -1.60861 -4.76585 0
M  V30 8670 H 815.119 -3.36386 -4.81786 0
M  V30 8671 H 816.643 -2.70265 -5.4753 0
M  V30 8672 H 818.057 -4.26721 -3.82861 0
M  V30 8673 H 816.454 -4.93831 -3.40956 0
M  V30 8674 H 817.524 -4.36146 -2.11908 0
M  V30 8675 N 818.867 0.818669 -1.34668 0
M  V30 8676 C 820.144 1.56118 -1.17841 0
M  V30 8677 C 820.524 2.09646 0.24731 0
M  V30 8678 O 819.872 1.91329 1.24922 0
M  V30 8679 C 820.082 2.67922 -2.23649 0
M  V30 8680 C 821.43 3.36579 -2.58843 0
M  V30 8681 O 822.454 2.78182 -2.22471 0
M  V30 8682 O 821.313 4.42045 -3.21339 0
M  V30 8683 H 818.407 0.689216 -0.457067 0
M  V30 8684 H 820.953 0.859674 -1.46314 0
M  V30 8685 H 819.725 2.26153 -3.19328 0
M  V30 8686 H 819.348 3.45719 -1.96377 0
M  V30 8687 N 820.346 1.18468 1.03938 0
M  V30 8688 C 821.309 0.914944 2.10146 0
M  V30 8689 C 822.309 -0.10022 1.60487 0
M  V30 8690 O 823.499 0.133365 1.73689 0
M  V30 8691 C 820.631 0.372993 3.38853 0
M  V30 8692 H 821.824 1.85677 2.35508 0
M  V30 8693 H 819.377 0.996876 1.20383 0
M  V30 8694 H 820.112 -0.57538 3.19155 0
M  V30 8695 H 819.897 1.1048 3.76213 0
M  V30 8696 H 821.387 0.203014 4.17106 0
M  V30 8697 N 821.824 -1.22873 0.986916 0
M  V30 8698 C 823.101 -1.86939 0.575589 0
M  V30 8699 C 823.481 -1.88656 -0.947205 0
M  V30 8700 O 822.829 -1.3728 -1.82665 0
M  V30 8701 C 823.039 -3.28117 1.18914 0
M  V30 8702 C 824.387 -4.04659 1.28593 0
M  V30 8703 O 825.411 -3.3736 1.14308 0
M  V30 8704 O 824.27 -5.25112 1.51391 0
M  V30 8705 H 821.364 -0.803748 0.194724 0
M  V30 8706 H 823.91 -1.30698 1.08241 0
M  V30 8707 H 822.682 -3.21468 2.231 0
M  V30 8708 H 822.305 -3.91956 0.667535 0
M  V30 8709 N 823.302 -0.75937 -1.38099 0
M  V30 8710 C 824.55 -0.317485 -1.99591 0
M  V30 8711 C 824.871 1.10628 -1.60581 0
M  V30 8712 O 824.141 1.7575 -0.865378 0
M  V30 8713 H 822.721 -0.114397 -0.738189 0
M  V30 8714 H 825.383 -0.974749 -1.68774 0
M  V30 8715 H 824.479 -0.385227 -3.09713 0
M  V30 8716 N 824.78 1.49157 -0.508906 0
M  V30 8717 C 826.027 2.02473 0.0327983 0
M  V30 8718 C 826.355 1.38792 1.36261 0
M  V30 8719 O 825.61 0.515576 1.88786 0
M  V30 8720 C 825.909 3.56687 0.225717 0
M  V30 8721 C 825.575 4.39046 -1.02708 0
M  V30 8722 C 824.237 4.61271 -1.37048 0
M  V30 8723 C 826.589 4.86902 -1.85946 0
M  V30 8724 C 823.917 5.28598 -2.54562 0
M  V30 8725 C 826.269 5.55521 -3.0262 0
M  V30 8726 C 824.933 5.7599 -3.3733 0
M  V30 8727 H 824.203 0.740903 0.0120017 0
M  V30 8728 H 826.85 1.79372 -0.670665 0
M  V30 8729 H 825.155 3.78511 1.01177 0
M  V30 8730 H 826.852 3.95541 0.659433 0
M  V30 8731 H 823.442 4.21994 -0.749615 0
M  V30 8732 H 827.626 4.69553 -1.6073 0
M  V30 8733 H 822.882 5.42646 -2.81682 0
M  V30 8734 H 827.056 5.91576 -3.67438 0
M  V30 8735 H 824.683 6.27934 -4.2849 0
M  V30 8736 N 826.258 0.243083 1.55714 0
M  V30 8737 C 827.188 -0.652336 2.24203 0
M  V30 8738 C 828.169 -1.1843 1.221 0
M  V30 8739 O 829.354 -1.22435 1.50743 0
M  V30 8740 C 826.484 -1.85111 2.93856 0
M  V30 8741 C 825.438 -1.45208 4.02615 0
M  V30 8742 C 824.764 -2.73137 4.59674 0
M  V30 8743 C 826.064 -0.625988 5.18535 0
M  V30 8744 H 827.758 -0.0812504 2.9929 0
M  V30 8745 H 825.304 -0.0376388 1.43951 0
M  V30 8746 H 827.257 -2.48314 3.40468 0
M  V30 8747 H 825.981 -2.44751 2.16251 0
M  V30 8748 H 824.64 -0.843406 3.56766 0
M  V30 8749 H 824.288 -3.30967 3.78774 0
M  V30 8750 H 823.988 -2.47163 5.33089 0
M  V30 8751 H 825.512 -3.37245 5.09017 0
M  V30 8752 H 826.926 -1.16223 5.61396 0
M  V30 8753 H 825.323 -0.462465 5.98315 0
M  V30 8754 H 826.393 0.362652 4.83542 0
M  V30 8755 N 827.736 -1.57571 -0.0300757 0
M  V30 8756 C 828.966 -1.93204 -0.731828 0
M  V30 8757 C 829.374 -0.841156 -1.69473 0
M  V30 8758 O 828.717 0.191231 -1.82702 0
M  V30 8759 C 828.779 -3.2463 -1.54453 0
M  V30 8760 C 828.443 -4.50862 -0.746507 0
M  V30 8761 C 829.44 -5.19879 -0.0472309 0
M  V30 8762 C 827.125 -4.9738 -0.701347 0
M  V30 8763 C 829.119 -6.33692 0.686518 0
M  V30 8764 C 826.806 -6.11089 0.036148 0
M  V30 8765 C 827.804 -6.791 0.728841 0
M  V30 8766 O 827.492 -7.90635 1.45436 0
M  V30 8767 H 827.224 -0.6423 -0.210775 0
M  V30 8768 H 829.778 -2.05398 0.00804194 0
M  V30 8769 H 828.008 -3.0876 -2.32818 0
M  V30 8770 H 829.697 -3.45597 -2.1288 0
M  V30 8771 H 830.463 -4.84945 -0.0731582 0
M  V30 8772 H 826.342 -4.44288 -1.23001 0
M  V30 8773 H 829.886 -6.86711 1.22773 0
M  V30 8774 H 825.783 -6.45468 0.064002 0
M  V30 8775 H 826.551 -8.06988 1.36794 0
M  V30 8776 N 829.214 0.302327 -1.54673 0
M  V30 8777 C 830.463 1.03533 -1.73101 0
M  V30 8778 C 830.776 1.88473 -0.523174 0
M  V30 8779 O 831.982 2.65029 -0.589229 0
M  V30 8780 C 830.438 1.89043 -3.06252 0
M  V30 8781 C 830.046 1.09112 -4.3451 0
M  V30 8782 C 831.79 2.61951 -3.34039 0
M  V30 8783 C 829.697 1.93891 -5.58713 0
M  V30 8784 H 828.627 0.390261 -0.645145 0
M  V30 8785 H 831.278 0.2924 -1.81155 0
M  V30 8786 H 829.66 2.67319 -2.92159 0
M  V30 8787 H 830.834 0.354596 -4.59434 0
M  V30 8788 H 829.149 0.477923 -4.13648 0
M  V30 8789 H 831.746 3.25729 -4.24033 0
M  V30 8790 H 832.089 3.30711 -2.52855 0
M  V30 8791 H 832.622 1.90725 -3.49097 0
M  V30 8792 H 829.361 1.29604 -6.4256 0
M  V30 8793 H 828.881 2.6522 -5.37976 0
M  V30 8794 H 830.56 2.51971 -5.95919 0
M  V30 8795 N 830.692 1.47107 0.565454 0
M  V30 8796 C 831.92 1.56909 1.3486 0
M  V30 8797 C 832.335 0.216312 1.87557 0
M  V30 8798 O 831.692 -0.789168 1.64555 0
M  V30 8799 C 831.743 2.58776 2.52423 0
M  V30 8800 O 831.464 3.888 2.01906 0
M  V30 8801 C 832.965 2.78683 3.44747 0
M  V30 8802 H 830.185 0.530096 0.411387 0
M  V30 8803 H 832.729 1.92658 0.685782 0
M  V30 8804 H 830.884 2.25983 3.1466 0
M  V30 8805 H 831.298 4.44393 2.78595 0
M  V30 8806 H 832.772 3.53842 4.23674 0
M  V30 8807 H 833.249 1.86208 3.97773 0
M  V30 8808 H 833.855 3.12641 2.88333 0
M  V30 8809 N 832.17 -0.811516 1.35101 0
M  V30 8810 C 833.418 -1.56525 1.27845 0
M  V30 8811 C 833.739 -1.94435 -0.14829 0
M  V30 8812 O 833.009 -1.63203 -1.08359 0
M  V30 8813 H 831.589 -0.580433 0.47022 0
M  V30 8814 H 834.251 -0.968277 1.69146 0
M  V30 8815 H 833.347 -2.48291 1.89097 0
M  V30 8816 N 833.648 -1.19017 -1.03309 0
M  V30 8817 C 835.064 -0.941483 -1.28873 0
M  V30 8818 C 835.264 0.388587 -1.97718 0
M  V30 8819 O 834.32 1.12111 -2.26246 0
M  V30 8820 C 835.633 -2.11249 -2.13996 0
M  V30 8821 C 837.181 -2.15164 -2.27318 0
M  V30 8822 C 837.656 -3.31704 -3.15811 0
M  V30 8823 N 839.147 -3.31613 -3.23399 0
M  V30 8824 C 839.882 -4.18431 -3.9205 0
M  V30 8825 N 839.378 -5.15397 -4.62966 0
M  V30 8826 N 841.171 -4.06321 -3.88406 0
M  V30 8827 H 833.322 -2.04599 -0.570343 0
M  V30 8828 H 835.585 -0.894406 -0.314232 0
M  V30 8829 H 835.291 -3.07482 -1.70727 0
M  V30 8830 H 835.165 -2.07955 -3.14697 0
M  V30 8831 H 837.552 -1.19504 -2.6982 0
M  V30 8832 H 837.633 -2.22513 -1.26182 0
M  V30 8833 H 837.277 -4.2764 -2.74019 0
M  V30 8834 H 837.207 -3.21592 -4.16997 0
M  V30 8835 H 839.698 -2.6142 -2.72888 0
M  V30 8836 H 840.011 -5.78 -5.12968 0
M  V30 8837 H 838.356 -5.19349 -4.61846 0
M  V30 8838 H 841.547 -3.29849 -3.3214 0
M  V30 8839 H 841.72 -4.74196 -4.41635 0
M  V30 8840 N 835.127 1.22348 -0.993418 0
M  V30 8841 C 836.057 2.26584 -0.564088 0
M  V30 8842 C 837.038 1.65102 0.409298 0
M  V30 8843 O 838.223 1.91872 0.299819 0
M  V30 8844 C 835.353 3.47087 0.121554 0
M  V30 8845 C 834.307 4.21009 -0.770429 0
M  V30 8846 C 833.633 5.34678 0.0481586 0
M  V30 8847 C 834.933 4.79636 -2.06752 0
M  V30 8848 H 836.627 2.62749 -1.43538 0
M  V30 8849 H 834.173 1.26303 -0.691628 0
M  V30 8850 H 836.126 4.19166 0.433303 0
M  V30 8851 H 834.85 3.1002 1.0274 0
M  V30 8852 H 833.509 3.50764 -1.06583 0
M  V30 8853 H 833.157 4.93852 0.954933 0
M  V30 8854 H 832.857 5.85061 -0.545641 0
M  V30 8855 H 834.381 6.09573 0.353991 0
M  V30 8856 H 835.795 5.43654 -1.81969 0
M  V30 8857 H 834.192 5.4036 -2.61019 0
M  V30 8858 H 835.262 3.99659 -2.74592 0
M  V30 8859 N 836.605 0.766683 1.37694 0
M  V30 8860 C 837.552 0.147725 2.30327 0
M  V30 8861 C 838.522 -0.695366 1.50844 0
M  V30 8862 O 839.707 -0.64878 1.79431 0
M  V30 8863 C 836.847 -0.72935 3.37305 0
M  V30 8864 C 835.96 0.129795 4.31805 0
M  V30 8865 C 835.095 -0.751511 5.25857 0
M  V30 8866 C 834.134 0.110475 6.12 0
M  V30 8867 N 833.271 -0.728522 6.9831 0
M  V30 8868 H 838.111 0.943204 2.82679 0
M  V30 8869 H 835.648 0.476736 1.3916 0
M  V30 8870 H 837.606 -1.25263 3.97951 0
M  V30 8871 H 836.236 -1.49048 2.86329 0
M  V30 8872 H 835.288 0.770829 3.72508 0
M  V30 8873 H 836.6 0.794923 4.92425 0
M  V30 8874 H 835.754 -1.34146 5.91684 0
M  V30 8875 H 834.493 -1.45034 4.65636 0
M  V30 8876 H 833.498 0.712999 5.45157 0
M  V30 8877 H 834.723 0.806557 6.74293 0
M  V30 8878 H 832.669 -1.41206 6.40622 0
M  V30 8879 H 832.586 -0.12058 7.55904 0
M  V30 8880 H 833.854 -1.30303 7.68532 0
M  V30 8881 N 838.083 -1.48885 0.516809 0
M  V30 8882 C 838.993 -2.33185 -0.257293 0
M  V30 8883 C 840.009 -1.4565 -0.951952 0
M  V30 8884 O 841.185 -1.78651 -0.929834 0
M  V30 8885 C 838.25 -3.21465 -1.29851 0
M  V30 8886 C 837.311 -4.24863 -0.615608 0
M  V30 8887 C 836.544 -5.08925 -1.60722 0
M  V30 8888 O 836.767 -4.9475 -2.83863 0
M  V30 8889 O 835.701 -5.90737 -1.15384 0
M  V30 8890 H 839.527 -3.00596 0.433131 0
M  V30 8891 H 837.112 -1.46792 0.277908 0
M  V30 8892 H 838.994 -3.76108 -1.90055 0
M  V30 8893 H 837.669 -2.5673 -1.97158 0
M  V30 8894 H 836.576 -3.74091 0.0265829 0
M  V30 8895 H 837.909 -4.92198 0.0152871 0
M  V30 8896 N 839.561 -0.251338 -1.55583 0
M  V30 8897 C 840.491 0.640437 -2.24545 0
M  V30 8898 C 841.472 1.17781 -1.22726 0
M  V30 8899 O 842.657 1.21633 -1.5139 0
M  V30 8900 C 839.787 1.8355 -2.94834 0
M  V30 8901 C 838.741 1.4307 -4.03379 0
M  V30 8902 C 838.067 2.70695 -4.61116 0
M  V30 8903 C 839.367 0.59848 -5.1886 0
M  V30 8904 H 841.061 0.0653772 -2.99329 0
M  V30 8905 H 838.607 0.0300042 -1.43969 0
M  V30 8906 H 840.56 2.46505 -3.4178 0
M  V30 8907 H 839.284 2.43601 -2.17546 0
M  V30 8908 H 837.943 0.824474 -3.57209 0
M  V30 8909 H 837.591 3.28954 -3.80524 0
M  V30 8910 H 837.291 2.44332 -5.34393 0
M  V30 8911 H 838.815 3.34541 -5.10798 0
M  V30 8912 H 840.229 1.13244 -5.62004 0
M  V30 8913 H 838.626 0.430728 -5.98552 0
M  V30 8914 H 839.696 -0.38829 -4.83343 0
M  V30 8915 N 841.039 1.57585 0.0217189 0
M  V30 8916 C 842.288 1.88786 0.710125 0
M  V30 8917 C 842.601 0.850819 1.76126 0
M  V30 8918 O 843.807 1.0523 2.50277 0
M  V30 8919 C 842.263 3.3505 1.31413 0
M  V30 8920 C 841.871 4.47001 0.298959 0
M  V30 8921 C 843.615 3.7539 1.98199 0
M  V30 8922 C 841.522 5.8433 0.911727 0
M  V30 8923 H 840.452 0.704388 0.268986 0
M  V30 8924 H 843.103 1.83466 -0.0352638 0
M  V30 8925 H 841.485 3.35138 2.10947 0
M  V30 8926 H 842.659 4.58395 -0.470203 0
M  V30 8927 H 840.974 4.15542 -0.267222 0
M  V30 8928 H 843.571 4.75314 2.4491 0
M  V30 8929 H 843.914 3.07766 2.80331 0
M  V30 8930 H 844.447 3.77508 1.2543 0
M  V30 8931 H 841.186 6.55372 0.129659 0
M  V30 8932 H 840.706 5.76643 1.65056 0
M  V30 8933 H 842.385 6.31295 1.41688 0
M  V30 8934 N 842.517 -0.29412 1.54831 0
M  V30 8935 C 843.766 -1.02614 1.73647 0
M  V30 8936 C 844.079 -1.88193 0.533162 0
M  V30 8937 O 845.285 -2.64713 0.603275 0
M  V30 8938 C 843.741 -1.87417 3.07251 0
M  V30 8939 C 843.349 -1.06806 4.35082 0
M  V30 8940 C 845.093 -2.60176 3.35423 0
M  V30 8941 C 843 -1.90926 5.59733 0
M  V30 8942 H 841.93 -0.386834 0.647206 0
M  V30 8943 H 844.581 -0.282789 1.81308 0
M  V30 8944 H 842.963 -2.65765 2.93572 0
M  V30 8945 H 844.137 -0.330226 4.59615 0
M  V30 8946 H 842.452 -0.455979 4.13896 0
M  V30 8947 H 845.049 -3.23476 4.25755 0
M  V30 8948 H 845.392 -3.29365 2.54606 0
M  V30 8949 H 845.925 -1.88871 3.50103 0
M  V30 8950 H 842.664 -1.26194 6.43238 0
M  V30 8951 H 842.184 -2.62363 5.39375 0
M  V30 8952 H 843.863 -2.48807 5.97247 0
M  V30 8953 N 843.995 -1.47404 -0.557645 0
M  V30 8954 C 845.223 -1.57622 -1.34026 0
M  V30 8955 C 845.638 -0.226256 -1.87439 0
M  V30 8956 O 844.995 0.78043 -1.64971 0
M  V30 8957 C 845.046 -2.60111 -2.51047 0
M  V30 8958 O 844.767 -3.89866 -1.99841 0
M  V30 8959 C 846.268 -2.80508 -3.43264 0
M  V30 8960 H 843.488 -0.532271 -0.40857 0
M  V30 8961 H 846.032 -1.93019 -0.675555 0
M  V30 8962 H 844.187 -2.27648 -3.13457 0
M  V30 8963 H 844.601 -4.45864 -2.76234 0
M  V30 8964 H 846.075 -3.56084 -4.21792 0
M  V30 8965 H 846.552 -1.88314 -3.9678 0
M  V30 8966 H 847.158 -3.14166 -2.86671 0
M  V30 8967 N 845.473 0.80434 -1.35529 0
M  V30 8968 C 846.436 1.89788 -1.28503 0
M  V30 8969 C 847.436 1.59601 -0.195983 0
M  V30 8970 O 848.626 1.68292 -0.449827 0
M  V30 8971 C 845.758 3.26255 -0.98847 0
M  V30 8972 H 846.951 1.97436 -2.25741 0
M  V30 8973 H 844.504 1.00046 -1.20086 0
M  V30 8974 H 845.239 3.24294 -0.0200541 0
M  V30 8975 H 845.024 3.49551 -1.77641 0
M  V30 8976 H 846.514 4.06298 -0.964975 0
M  V30 8977 N 846.951 1.19563 1.02676 0
M  V30 8978 C 848.199 0.997593 1.75763 0
M  V30 8979 C 848.52 -0.47253 1.89188 0
M  V30 8980 O 847.79 -1.34214 1.42701 0
M  V30 8981 H 846.37 0.366128 0.651122 0
M  V30 8982 H 849.032 1.50495 1.23844 0
M  V30 8983 H 848.128 1.44741 2.76508 0
M  V30 8984 N 848.429 -1.21819 0.999893 0
M  V30 8985 C 849.677 -1.90375 0.678351 0
M  V30 8986 C 849.998 -1.78155 -0.792824 0
M  V30 8987 O 849.268 -1.17319 -1.56885 0
M  V30 8988 H 847.848 -0.704661 0.247915 0
M  V30 8989 H 850.51 -1.48021 1.2679 0
M  V30 8990 H 849.606 -2.97385 0.947023 0
M  V30 8991 N 849.908 -0.773975 -1.37286 0
M  V30 8992 C 850.818 -0.162571 -2.34036 0
M  V30 8993 C 851.834 0.677022 -1.60289 0
M  V30 8994 O 853.01 0.596423 -1.92366 0
M  V30 8995 C 850.075 0.70457 -3.39465 0
M  V30 8996 C 849.136 -0.151738 -4.29032 0
M  V30 8997 C 848.369 0.674111 -5.29426 0
M  V30 8998 O 848.592 1.91107 -5.37433 0
M  V30 8999 O 847.526 0.0821398 -6.01844 0
M  V30 9000 H 851.352 -0.962119 -2.88057 0
M  V30 9001 H 848.937 -0.53517 -1.39486 0
M  V30 9002 H 850.819 1.19954 -4.03967 0
M  V30 9003 H 849.494 1.48227 -2.87768 0
M  V30 9004 H 848.401 -0.693118 -3.67623 0
M  V30 9005 H 849.734 -0.892575 -4.84039 0
M  V30 9006 N 851.386 1.48609 -0.524698 0
M  V30 9007 C 852.334 2.31205 0.254398 0
M  V30 9008 C 853.328 1.40894 0.940491 0
M  V30 9009 O 854.534 1.57827 0.865478 0
M  V30 9010 H 850.909 0.745199 0.100907 0
M  V30 9011 H 852.88 2.94804 -0.461876 0
M  V30 9012 C 851.629 3.2282 1.2916 0
M  V30 9013 H 850.952 3.92255 0.773074 0
M  V30 9014 H 852.392 3.83508 1.80825 0
M  V30 9015 C 850.851 2.4406 2.32242 0
M  V30 9016 O 851.381 2.16163 3.3858 0
M  V30 9017 N 849.587 2.05651 2.05319 0
M  V30 9018 H 849.134 2.28539 1.18861 0
M  V30 9019 H 849.092 1.53265 2.74513 0
M  V30 9020 N 852.864 0.259585 1.55447 0
M  V30 9021 C 854.11 -0.362143 1.9954 0
M  V30 9022 C 854.443 -1.5666 1.14767 0
M  V30 9023 O 853.718 -1.93319 0.214025 0
M  V30 9024 C 854.001 -0.759588 3.51998 0
M  V30 9025 C 853.854 0.451134 4.47532 0
M  V30 9026 C 855.173 -1.60186 4.09913 0
M  V30 9027 H 852.292 -0.130157 0.725416 0
M  V30 9028 H 854.934 0.363431 1.86492 0
M  V30 9029 H 853.084 -1.3778 3.63248 0
M  V30 9030 H 854.756 1.08965 4.48246 0
M  V30 9031 H 852.999 1.092 4.19831 0
M  V30 9032 H 853.67 0.129518 5.51848 0
M  V30 9033 H 856.146 -1.0799 4.01842 0
M  V30 9034 H 855.022 -1.84879 5.16828 0
M  V30 9035 H 855.283 -2.57787 3.59163 0
M  V30 9036 N 854.342 -1.57594 -0.0133615 0
M  V30 9037 C 855.753 -1.78168 -0.557937 0
M  V30 9038 C 856.104 -0.892616 -1.74719 0
M  V30 9039 O 855.229 -0.0915491 -2.16206 0
M  V30 9040 C 855.824 -3.23115 -1.01894 0
M  V30 9041 C 854.383 -3.44831 -1.50892 0
M  V30 9042 C 853.53 -2.73558 -0.454044 0
M  V30 9043 H 856.481 -1.57266 0.212843 0
M  V30 9044 H 856.502 -3.30493 -1.8856 0
M  V30 9045 H 856.014 -3.87798 -0.153175 0
M  V30 9046 H 854.115 -2.85345 -2.39602 0
M  V30 9047 H 854.228 -4.53485 -1.54559 0
M  V30 9048 H 852.592 -2.37787 -0.912666 0
M  V30 9049 H 853.375 -3.40932 0.402524 0
M  V30 9050 N 855.82 0.285905 -1.54985 0
M  V30 9051 C 857.231 0.857869 -1.65824 0
M  V30 9052 C 857.582 1.87531 -0.576763 0
M  V30 9053 O 856.707 2.14528 0.284016 0
M  V30 9054 C 857.302 1.56277 -3.00604 0
M  V30 9055 C 855.861 2.08294 -3.13513 0
M  V30 9056 C 855.008 0.920633 -2.61571 0
M  V30 9057 H 857.959 0.0625463 -1.58577 0
M  V30 9058 H 857.98 2.42912 -2.92872 0
M  V30 9059 H 857.492 0.822017 -3.79295 0
M  V30 9060 H 855.593 2.8537 -2.39572 0
M  V30 9061 H 855.706 2.3071 -4.19892 0
M  V30 9062 H 854.07 1.31043 -2.18403 0
M  V30 9063 H 854.853 0.193594 -3.42754 0
M  V30 9064 N 857.298 1.47698 0.54982 0
M  V30 9065 C 858.544 1.54931 1.30859 0
M  V30 9066 C 858.877 0.214021 1.93017 0
M  V30 9067 O 858.152 -0.778093 1.78258 0
M  V30 9068 C 858.435 2.67286 2.41309 0
M  V30 9069 C 858.288 4.10457 1.83971 0
M  V30 9070 C 859.607 2.75509 3.43195 0
M  V30 9071 H 856.726 0.56399 0.474431 0
M  V30 9072 H 859.368 1.79787 0.614541 0
M  V30 9073 H 857.518 2.46224 3.0051 0
M  V30 9074 H 859.19 4.42903 1.28974 0
M  V30 9075 H 857.433 4.18387 1.14606 0
M  V30 9076 H 858.104 4.84857 2.63851 0
M  V30 9077 H 860.58 2.94531 2.93923 0
M  V30 9078 H 859.456 3.55886 4.17895 0
M  V30 9079 H 859.717 1.82863 4.02509 0
M  V30 9080 N 858.776 -0.797141 1.35954 0
M  V30 9081 C 860.187 -1.37179 1.26644 0
M  V30 9082 C 860.538 -1.9596 -0.0971046 0
M  V30 9083 O 859.663 -1.91994 -0.998355 0
M  V30 9084 C 860.258 -2.49395 2.2932 0
M  V30 9085 C 858.817 -3.02697 2.23722 0
M  V30 9086 C 857.964 -1.75721 2.14517 0
M  V30 9087 H 860.915 -0.599407 1.46945 0
M  V30 9088 H 860.936 -3.28204 1.92515 0
M  V30 9089 H 860.448 -2.06584 3.2855 0
M  V30 9090 H 858.549 -3.49948 1.27934 0
M  V30 9091 H 858.662 -3.60036 3.16087 0
M  V30 9092 H 857.026 -1.97649 1.60646 0
M  V30 9093 H 857.809 -1.35049 3.15621 0
M  V30 9094 N 860.254 -1.20106 -1.0204 0
M  V30 9095 C 861.503 -1.00316 -1.74985 0
M  V30 9096 C 861.816 0.465814 -1.89972 0
M  V30 9097 O 863.022 0.782749 -2.59972 0
M  V30 9098 C 861.478 -1.74608 -3.14706 0
M  V30 9099 C 861.086 -3.25573 -3.07744 0
M  V30 9100 C 862.83 -1.63172 -3.91887 0
M  V30 9101 C 860.737 -3.92419 -4.42449 0
M  V30 9102 H 859.667 -0.371728 -0.655999 0
M  V30 9103 H 862.318 -1.43688 -1.14131 0
M  V30 9104 H 860.7 -1.24021 -3.76078 0
M  V30 9105 H 861.874 -3.83345 -2.55702 0
M  V30 9106 H 860.189 -3.3738 -2.44057 0
M  V30 9107 H 862.786 -2.10457 -4.9154 0
M  V30 9108 H 863.129 -0.58728 -4.12137 0
M  V30 9109 H 863.662 -2.11152 -3.37135 0
M  V30 9110 H 860.401 -4.96998 -4.27403 0
M  V30 9111 H 859.921 -3.39436 -4.94513 0
M  V30 9112 H 861.6 -3.96453 -5.11306 0
M  V30 9113 N 861.732 1.21287 -1.00634 0
M  V30 9114 C 862.642 2.27388 -0.577226 0
M  V30 9115 C 863.658 1.69791 0.380399 0
M  V30 9116 O 864.834 1.99918 0.2439 0
M  V30 9117 C 861.899 3.46588 0.0880532 0
M  V30 9118 C 860.96 4.19453 -0.914222 0
M  V30 9119 C 860.193 5.32962 -0.280596 0
M  V30 9120 O 860.416 5.62895 0.922265 0
M  V30 9121 O 859.35 5.93666 -0.992196 0
M  V30 9122 H 863.176 2.66289 -1.46028 0
M  V30 9123 H 860.761 1.2771 -0.775283 0
M  V30 9124 H 862.643 4.18881 0.460094 0
M  V30 9125 H 861.318 3.09585 0.945461 0
M  V30 9126 H 860.225 3.49376 -1.33744 0
M  V30 9127 H 861.558 4.6037 -1.74126 0
M  V30 9128 N 863.21 0.781244 1.36873 0
M  V30 9129 C 864.12 0.174981 2.33947 0
M  V30 9130 C 865.136 -0.668512 1.60645 0
M  V30 9131 O 866.312 -0.586213 1.9268 0
M  V30 9132 C 863.377 -0.686557 3.39834 0
M  V30 9133 C 862.438 0.174489 4.28945 0
M  V30 9134 C 861.671 -0.646024 5.29776 0
M  V30 9135 O 861.894 -1.88254 5.38439 0
M  V30 9136 O 860.828 -0.0502214 6.01879 0
M  V30 9137 H 864.654 0.977382 2.87543 0
M  V30 9138 H 862.239 0.542559 1.392 0
M  V30 9139 H 864.121 -1.1781 4.04597 0
M  V30 9140 H 862.796 -1.46699 2.8855 0
M  V30 9141 H 861.703 0.712604 3.6725 0
M  V30 9142 H 863.036 0.918232 4.83559 0
M  V30 9143 N 864.689 -1.48329 0.532571 0
M  V30 9144 C 865.652 -2.2816 -0.218069 0
M  V30 9145 C 866.652 -1.35526 -0.865409 0
M  V30 9146 O 867.842 -1.58394 -0.725061 0
M  V30 9147 C 864.974 -3.1448 -1.31586 0
M  V30 9148 H 866.167 -2.95987 0.482865 0
M  V30 9149 H 863.72 -1.53612 0.288603 0
M  V30 9150 H 864.455 -2.5129 -2.04997 0
M  V30 9151 H 864.24 -3.82625 -0.856779 0
M  V30 9152 H 865.73 -3.74693 -1.84377 0
M  V30 9153 N 866.167 -0.267825 -1.55308 0
M  V30 9154 C 867.413 0.351556 -1.9973 0
M  V30 9155 C 867.746 1.56049 -1.15596 0
M  V30 9156 O 867.021 1.93203 -0.224274 0
M  V30 9157 C 867.304 0.74091 -3.52395 0
M  V30 9158 C 867.157 -0.474861 -4.47286 0
M  V30 9159 C 868.476 1.5801 -4.10756 0
M  V30 9160 H 865.595 0.126308 -0.726096 0
M  V30 9161 H 868.237 -0.373316 -1.86296 0
M  V30 9162 H 866.387 1.35851 -3.63973 0
M  V30 9163 H 868.059 -1.1134 -4.47662 0
M  V30 9164 H 866.302 -1.11425 -4.19246 0
M  V30 9165 H 866.973 -0.158782 -5.51772 0
M  V30 9166 H 869.449 1.05857 -4.0241 0
M  V30 9167 H 868.325 1.82135 -5.17801 0
M  V30 9168 H 868.586 2.55878 -3.60526 0
M  V30 9169 N 867.645 1.57599 0.00500368 0
M  V30 9170 C 868.592 2.08106 0.998025 0
M  V30 9171 C 869.562 0.975374 1.34446 0
M  V30 9172 O 870.747 1.24749 1.44369 0
M  V30 9173 C 867.887 2.58496 2.28635 0
M  V30 9174 C 867 3.82947 1.99939 0
M  V30 9175 C 866.135 4.21857 3.22816 0
M  V30 9176 C 865.174 5.39159 2.89783 0
M  V30 9177 N 864.311 5.73386 4.05183 0
M  V30 9178 H 869.151 2.92684 0.560385 0
M  V30 9179 H 866.688 1.44692 0.265053 0
M  V30 9180 H 868.646 2.85787 3.03943 0
M  V30 9181 H 867.276 1.768 2.70077 0
M  V30 9182 H 866.328 3.62594 1.1502 0
M  V30 9183 H 867.64 4.68358 1.71588 0
M  V30 9184 H 866.794 4.50404 4.06474 0
M  V30 9185 H 865.533 3.35145 3.54301 0
M  V30 9186 H 864.538 5.1034 2.04532 0
M  V30 9187 H 865.763 6.27543 2.59551 0
M  V30 9188 H 863.709 4.89632 4.36574 0
M  V30 9189 H 863.626 6.53359 3.80339 0
M  V30 9190 H 864.894 6.06522 4.89644 0
M  V30 9191 N 869.123 -0.277682 1.55134 0
M  V30 9192 C 870.056 -1.3685 1.82612 0
M  V30 9193 C 871.034 -1.47752 0.678833 0
M  V30 9194 O 872.218 -1.6445 0.921329 0
M  V30 9195 C 869.345 -2.74539 1.98359 0
M  V30 9196 C 868.391 -2.80945 3.20893 0
M  V30 9197 S 869.224 -2.40666 4.78373 0
M  V30 9198 C 870.38 -3.80338 4.97085 0
M  V30 9199 H 870.613 -1.13338 2.74849 0
M  V30 9200 H 868.146 -0.477063 1.46845 0
M  V30 9201 H 870.104 -3.53834 2.08115 0
M  V30 9202 H 868.765 -2.95306 1.07019 0
M  V30 9203 H 867.958 -3.81992 3.28783 0
M  V30 9204 H 867.56 -2.09667 3.09703 0
M  V30 9205 H 869.852 -4.75565 4.8254 0
M  V30 9206 H 870.795 -3.77403 5.99143 0
M  V30 9207 H 871.203 -3.71424 4.25094 0
M  V30 9208 N 870.601 -1.47988 -0.541979 0
M  V30 9209 C 871.511 -1.64276 -1.67483 0
M  V30 9210 C 872.527 -0.525387 -1.65879 0
M  V30 9211 O 873.703 -0.794912 -1.85049 0
M  V30 9212 C 870.768 -1.66744 -3.03969 0
M  V30 9213 C 869.829 -2.90021 -3.16522 0
M  V30 9214 C 869.062 -2.92362 -4.46498 0
M  V30 9215 O 869.285 -2.03462 -5.32878 0
M  V30 9216 O 868.219 -3.84399 -4.63164 0
M  V30 9217 H 872.045 -2.60164 -1.5668 0
M  V30 9218 H 869.63 -1.31249 -0.71372 0
M  V30 9219 H 871.512 -1.70958 -3.85164 0
M  V30 9220 H 870.187 -0.740277 -3.15122 0
M  V30 9221 H 869.094 -2.91345 -2.34667 0
M  V30 9222 H 870.427 -3.82082 -3.10281 0
M  V30 9223 N 872.079 0.78992 -1.36375 0
M  V30 9224 C 873.009 1.91683 -1.33341 0
M  V30 9225 C 873.99 1.68861 -0.204965 0
M  V30 9226 O 875.175 1.89982 -0.402531 0
M  V30 9227 C 872.305 3.28696 -1.12143 0
M  V30 9228 C 871.259 3.66041 -2.21806 0
M  V30 9229 C 870.585 5.01399 -1.85751 0
M  V30 9230 C 871.885 3.74677 -3.63888 0
M  V30 9231 H 873.579 1.94478 -2.27637 0
M  V30 9232 H 871.125 0.934271 -1.09578 0
M  V30 9233 H 873.078 4.07151 -1.08656 0
M  V30 9234 H 871.802 3.26287 -0.142974 0
M  V30 9235 H 870.461 2.89883 -2.24418 0
M  V30 9236 H 870.109 4.9551 -0.864817 0
M  V30 9237 H 869.809 5.27355 -2.59173 0
M  V30 9238 H 871.333 5.82274 -1.83819 0
M  V30 9239 H 872.747 4.43324 -3.63506 0
M  V30 9240 H 871.144 4.12118 -4.3621 0
M  V30 9241 H 872.214 2.75795 -3.9883 0
M  V30 9242 N 873.557 1.20646 1.01402 0
M  V30 9243 C 874.968 1.01823 1.56489 0
M  V30 9244 C 875.319 -0.42463 1.9155 0
M  V30 9245 O 874.444 -1.30644 1.72514 0
M  V30 9246 C 875.039 1.84208 2.84347 0
M  V30 9247 C 873.598 1.69743 3.35953 0
M  V30 9248 C 872.745 1.8198 2.09233 0
M  V30 9249 H 875.696 1.348 0.837539 0
M  V30 9250 H 875.717 1.34698 3.55861 0
M  V30 9251 H 875.229 2.89215 2.58798 0
M  V30 9252 H 873.33 0.673833 3.66456 0
M  V30 9253 H 873.443 2.51173 4.07981 0
M  V30 9254 H 871.807 1.25193 2.21808 0
M  V30 9255 H 872.59 2.88477 1.86107 0
M  V30 9256 N 875.035 -1.20752 1.01276 0
M  V30 9257 C 876.284 -1.8934 0.695229 0
M  V30 9258 C 876.597 -1.79459 -0.77806 0
M  V30 9259 O 877.803 -2.43146 -1.20799 0
M  V30 9260 C 876.259 -3.39548 1.1931 0
M  V30 9261 C 875.867 -3.58023 2.69302 0
M  V30 9262 C 877.611 -4.13714 0.950823 0
M  V30 9263 C 875.518 -5.02037 3.1259 0
M  V30 9264 H 874.448 -0.709084 0.25635 0
M  V30 9265 H 877.099 -1.36629 1.22494 0
M  V30 9266 H 875.481 -3.91559 0.591395 0
M  V30 9267 H 876.655 -3.16416 3.34989 0
M  V30 9268 H 874.97 -2.97222 2.9163 0
M  V30 9269 H 877.567 -5.19891 1.24971 0
M  V30 9270 H 877.91 -4.16147 -0.112791 0
M  V30 9271 H 878.443 -3.67792 1.51571 0
M  V30 9272 H 875.182 -5.04757 4.18211 0
M  V30 9273 H 874.702 -5.44469 2.51621 0
M  V30 9274 H 876.381 -5.70594 3.0501 0
M  V30 9275 N 876.513 -0.788492 -1.36457 0
M  V30 9276 C 877.762 -0.357052 -1.98515 0
M  V30 9277 C 878.075 1.0769 -1.63285 0
M  V30 9278 O 879.281 1.61057 -2.1857 0
M  V30 9279 C 877.737 -0.587449 -3.55073 0
M  V30 9280 C 877.345 -2.03276 -3.99228 0
M  V30 9281 C 879.089 -0.220468 -4.23927 0
M  V30 9282 C 876.996 -2.20987 -5.48561 0
M  V30 9283 H 875.926 -0.129762 -0.74275 0
M  V30 9284 H 878.577 -0.969995 -1.55767 0
M  V30 9285 H 876.959 0.0951918 -3.95886 0
M  V30 9286 H 878.133 -2.75173 -3.69617 0
M  V30 9287 H 876.448 -2.3579 -3.43208 0
M  V30 9288 H 879.045 -0.331085 -5.33674 0
M  V30 9289 H 879.388 0.831306 -4.07915 0
M  V30 9290 H 879.921 -0.856309 -3.88474 0
M  V30 9291 H 876.66 -3.24543 -5.69519 0
M  V30 9292 H 876.18 -1.53594 -5.79801 0
M  V30 9293 H 877.859 -2.01656 -6.14771 0
M  V30 9294 N 877.991 1.48044 -0.54043 0
M  V30 9295 C 879.216 2.07396 -0.0124765 0
M  V30 9296 C 879.641 1.39288 1.26414 0
M  V30 9297 O 878.999 0.462252 1.75308 0
M  V30 9298 C 879.047 3.60131 0.18377 0
M  V30 9299 O 878.151 3.92995 1.25014 0
M  V30 9300 H 877.492 0.662554 -0.0438026 0
M  V30 9301 H 880.022 1.90306 -0.751327 0
M  V30 9302 H 880.032 4.06003 0.403197 0
M  V30 9303 H 878.707 4.09105 -0.74874 0
M  V30 9304 H 877.284 3.5889 1.01254 0
M  V30 9305 N 879.47 0.276058 1.55163 0
M  V30 9306 C 880.418 -0.626978 2.2399 0
M  V30 9307 C 881.412 -1.15708 1.23725 0
M  V30 9308 O 882.618 -1.1106 1.41653 0
M  V30 9309 H 878.993 -0.220742 0.718872 0
M  V30 9310 H 880.964 -0.0236569 2.98391 0
M  V30 9311 C 879.713 -1.79935 2.97521 0
M  V30 9312 H 879.036 -1.40064 3.74463 0
M  V30 9313 H 880.476 -2.40781 3.48999 0
M  V30 9314 C 878.935 -2.68838 2.03046 0
M  V30 9315 O 879.465 -3.69224 1.58229 0
M  V30 9316 N 877.671 -2.36028 1.69527 0
M  V30 9317 H 877.218 -1.54442 2.06169 0
M  V30 9318 H 877.176 -2.95782 1.06586 0
M  V30 9319 N 880.948 -1.576 0.00335426 0
M  V30 9320 C 881.911 -2.07576 -0.971838 0
M  V30 9321 C 882.911 -0.985796 -1.27038 0
M  V30 9322 O 884.101 -1.24833 -1.21501 0
M  V30 9323 C 881.233 -2.52003 -2.29581 0
M  V30 9324 H 882.426 -2.95008 -0.539481 0
M  V30 9325 H 879.979 -1.54381 -0.244186 0
M  V30 9326 H 880.714 -1.67825 -2.77498 0
M  V30 9327 H 880.499 -3.31609 -2.09231 0
M  V30 9328 H 881.989 -2.90983 -2.99531 0
M  V30 9329 N 882.426 0.269451 -1.5528 0
M  V30 9330 C 883.359 1.3588 -1.83336 0
M  V30 9331 C 884.337 1.4739 -0.68666 0
M  V30 9332 O 885.521 1.63959 -0.930037 0
M  V30 9333 C 882.648 2.73483 -1.99812 0
M  V30 9334 C 881.694 2.79239 -3.22378 0
M  V30 9335 S 882.527 2.38125 -4.79642 0
M  V30 9336 C 883.683 3.77697 -4.99095 0
M  V30 9337 H 883.916 1.11878 -2.75446 0
M  V30 9338 H 881.449 0.469268 -1.47096 0
M  V30 9339 H 883.407 3.52725 -2.09989 0
M  V30 9340 H 882.068 2.94735 -1.08583 0
M  V30 9341 H 881.261 3.80243 -3.30804 0
M  V30 9342 H 880.863 2.08022 -3.1081 0
M  V30 9343 H 883.155 4.72999 -4.85055 0
M  V30 9344 H 884.098 3.7422 -6.01136 0
M  V30 9345 H 884.506 3.69164 -4.27058 0
M  V30 9346 N 883.904 1.48273 0.534124 0
M  V30 9347 C 884.834 1.6538 1.64839 0
M  V30 9348 C 885.815 0.502741 1.62501 0
M  V30 9349 O 887 0.734799 1.79762 0
M  V30 9350 C 884.13 1.68949 3.03436 0
M  V30 9351 C 883.084 2.83513 3.20631 0
M  V30 9352 C 882.41 2.72169 4.60248 0
M  V30 9353 C 883.71 4.24858 3.03797 0
M  V30 9354 H 885.404 2.58663 1.50777 0
M  V30 9355 H 882.95 1.24479 0.723937 0
M  V30 9356 H 884.903 1.79505 3.81256 0
M  V30 9357 H 883.627 0.722415 3.1851 0
M  V30 9358 H 882.286 2.72505 2.45227 0
M  V30 9359 H 881.934 1.7344 4.72152 0
M  V30 9360 H 881.634 3.49042 4.72698 0
M  V30 9361 H 883.158 2.84687 5.40172 0
M  V30 9362 H 884.572 4.36721 3.71413 0
M  V30 9363 H 882.969 5.02697 3.27743 0
M  V30 9364 H 884.039 4.41611 2.0027 0
M  V30 9365 N 885.382 -0.782676 1.36792 0
M  V30 9366 C 886.631 -1.53605 1.30723 0
M  V30 9367 C 886.944 -1.95294 -0.109296 0
M  V30 9368 O 888.15 -2.69921 -0.292398 0
M  V30 9369 C 886.606 -2.77321 2.29393 0
M  V30 9370 C 886.214 -2.42774 3.76517 0
M  V30 9371 C 887.958 -3.55289 2.32314 0
M  V30 9372 C 885.865 -3.62926 4.66947 0
M  V30 9373 H 884.795 -0.576646 0.485794 0
M  V30 9374 H 887.446 -0.858255 1.62192 0
M  V30 9375 H 885.828 -3.46934 1.90927 0
M  V30 9376 H 887.002 -1.81014 4.23758 0
M  V30 9377 H 885.317 -1.78002 3.76436 0
M  V30 9378 H 887.914 -4.44573 2.97083 0
M  V30 9379 H 888.257 -3.94361 1.3336 0
M  V30 9380 H 888.79 -2.92662 2.69432 0
M  V30 9381 H 885.529 -3.28944 5.66989 0
M  V30 9382 H 885.049 -4.23828 4.24418 0
M  V30 9383 H 886.728 -4.29873 4.83548 0
M  V30 9384 N 886.86 -1.21182 -1.00761 0
M  V30 9385 C 888.108 -1.02543 -1.74153 0
M  V30 9386 C 888.429 0.442372 -1.89916 0
M  V30 9387 O 887.699 1.31927 -1.44818 0
M  V30 9388 H 886.279 -0.37644 -0.645214 0
M  V30 9389 H 888.941 -1.52446 -1.21434 0
M  V30 9390 H 888.037 -1.49122 -2.7417 0
M  V30 9391 N 888.338 1.20213 -1.01915 0
M  V30 9392 C 889.615 1.85348 -0.62495 0
M  V30 9393 C 889.995 1.91101 0.896854 0
M  V30 9394 O 889.343 1.42075 1.78961 0
M  V30 9395 C 889.553 3.24849 -1.27571 0
M  V30 9396 C 890.901 4.01107 -1.39277 0
M  V30 9397 O 891.925 3.34211 -1.23212 0
M  V30 9398 O 890.784 5.20914 -1.6526 0
M  V30 9399 H 887.878 0.798303 -0.215965 0
M  V30 9400 H 890.424 1.27782 -1.11669 0
M  V30 9401 H 889.196 3.1544 -2.31545 0
M  V30 9402 H 888.819 3.90049 -0.77122 0
M  V30 9403 N 889.816 0.795718 1.36037 0
M  V30 9404 C 890.748 0.156336 2.28666 0
M  V30 9405 C 891.761 -0.638075 1.49775 0
M  V30 9406 O 892.95 -0.472222 1.7214 0
M  V30 9407 C 890.05 -0.801417 3.29288 0
M  V30 9408 C 889.223 -0.0557118 4.37365 0
M  V30 9409 C 888.282 -0.930338 5.1791 0
M  V30 9410 O 887.308 -0.385266 5.67895 0
M  V30 9411 N 888.51 -2.25382 5.34961 0
M  V30 9412 H 891.275 0.952033 2.84177 0
M  V30 9413 H 888.836 0.650189 1.48271 0
M  V30 9414 H 890.828 -1.39051 3.80062 0
M  V30 9415 H 889.398 -1.49796 2.74372 0
M  V30 9416 H 888.618 0.714508 3.87671 0
M  V30 9417 H 889.906 0.458633 5.06729 0
M  V30 9418 H 889.304 -2.72073 4.95977 0
M  V30 9419 H 887.861 -2.79241 5.88955 0
M  V30 9420 N 891.294 -1.47756 0.548274 0
M  V30 9421 C 892.71 -1.58247 0.207401 0
M  V30 9422 C 892.91 -1.54804 -1.28988 0
M  V30 9423 O 891.966 -1.44673 -2.06944 0
M  V30 9424 C 893.279 -2.89129 0.826142 0
M  V30 9425 C 894.827 -3.02695 0.79655 0
M  V30 9426 C 895.302 -4.36264 1.3942 0
M  V30 9427 N 896.793 -4.42877 1.35698 0
M  V30 9428 C 897.528 -5.44773 1.78913 0
M  V30 9429 N 897.024 -6.53528 2.29942 0
M  V30 9430 N 898.817 -5.35765 1.70038 0
M  V30 9431 H 890.968 -1.48236 1.52117 0
M  V30 9432 H 893.231 -0.704957 0.633829 0
M  V30 9433 H 892.937 -2.97358 1.87806 0
M  V30 9434 H 892.811 -3.75891 0.313916 0
M  V30 9435 H 895.198 -2.94067 -0.246655 0
M  V30 9436 H 895.279 -2.17496 1.34644 0
M  V30 9437 H 894.923 -4.45646 2.43642 0
M  V30 9438 H 894.853 -5.20179 0.819827 0
M  V30 9439 H 897.344 -3.64874 0.983623 0
M  V30 9440 H 897.657 -7.27441 2.60863 0
M  V30 9441 H 896.002 -6.54442 2.33947 0
M  V30 9442 H 899.193 -4.49699 1.29955 0
M  V30 9443 H 899.366 -6.1504 2.04035 0
M  V30 9444 N 892.772 -0.284283 -1.55015 0
M  V30 9445 C 893.719 0.599194 -2.22886 0
M  V30 9446 C 894.689 1.14264 -1.20553 0
M  V30 9447 O 895.874 1.19025 -1.49123 0
M  V30 9448 C 893.014 1.77317 -2.96062 0
M  V30 9449 C 892.127 1.26271 -4.13134 0
M  V30 9450 C 891.262 2.39922 -4.73931 0
M  V30 9451 C 890.301 1.85925 -5.8318 0
M  V30 9452 N 889.438 2.93084 -6.38002 0
M  V30 9453 H 894.278 0.0137816 -2.97997 0
M  V30 9454 H 891.815 -0.00496503 -1.47099 0
M  V30 9455 H 893.773 2.46339 -3.36709 0
M  V30 9456 H 892.403 2.33047 -2.23358 0
M  V30 9457 H 891.455 0.465296 -3.77544 0
M  V30 9458 H 892.767 0.827284 -4.91892 0
M  V30 9459 H 891.921 3.1692 -5.17346 0
M  V30 9460 H 890.66 2.86784 -3.9447 0
M  V30 9461 H 889.665 1.07409 -5.39206 0
M  V30 9462 H 890.89 1.39987 -6.64515 0
M  V30 9463 H 888.836 3.3931 -5.61431 0
M  V30 9464 H 888.753 2.53986 -7.12058 0
M  V30 9465 H 890.021 3.7003 -6.86075 0
M  V30 9466 N 894.251 1.57596 -0.0117121 0
M  V30 9467 C 895.498 1.91071 0.670667 0
M  V30 9468 C 895.826 0.886457 1.73125 0
M  V30 9469 O 895.081 -0.107135 1.95407 0
M  V30 9470 C 895.38 3.31296 1.34082 0
M  V30 9471 C 895.046 4.49011 0.412305 0
M  V30 9472 C 893.708 4.80945 0.156691 0
M  V30 9473 C 896.06 5.20709 -0.226294 0
M  V30 9474 C 893.388 5.81943 -0.745619 0
M  V30 9475 C 895.74 6.22668 -1.11655 0
M  V30 9476 C 894.404 6.53053 -1.38123 0
M  V30 9477 H 893.674 0.69918 0.245415 0
M  V30 9478 H 896.321 1.91373 -0.0697511 0
M  V30 9479 H 894.626 3.27174 2.15557 0
M  V30 9480 H 896.323 3.54461 1.87506 0
M  V30 9481 H 892.913 4.24067 0.621705 0
M  V30 9482 H 897.097 4.96282 -0.0418456 0
M  V30 9483 H 892.353 6.03839 -0.958566 0
M  V30 9484 H 896.527 6.77351 -1.61767 0
M  V30 9485 H 894.154 7.31132 -2.08208 0
M  V30 9486 N 895.729 -0.261212 1.5542 0
M  V30 9487 C 896.659 -1.32712 1.92119 0
M  V30 9488 C 897.64 -1.50934 0.784406 0
M  V30 9489 O 898.825 -1.63781 1.04352 0
M  V30 9490 C 895.955 -2.68453 2.20341 0
M  V30 9491 C 894.909 -2.64947 3.36136 0
M  V30 9492 C 894.235 -4.04349 3.49865 0
M  V30 9493 C 895.535 -2.23182 4.72215 0
M  V30 9494 H 897.229 -1.02245 2.81401 0
M  V30 9495 H 894.775 -0.490406 1.35392 0
M  V30 9496 H 896.728 -3.43144 2.44603 0
M  V30 9497 H 895.452 -3.00527 1.27871 0
M  V30 9498 H 894.111 -1.92714 3.11861 0
M  V30 9499 H 893.759 -4.33665 2.5484 0
M  V30 9500 H 893.459 -4.02895 4.27726 0
M  V30 9501 H 894.983 -4.80761 3.76432 0
M  V30 9502 H 896.397 -2.87599 4.95943 0
M  V30 9503 H 894.794 -2.32867 5.53076 0
M  V30 9504 H 895.864 -1.18327 4.70241 0
M  V30 9505 N 897.207 -1.48554 -0.526253 0
M  V30 9506 C 898.432 -1.60686 -1.31129 0
M  V30 9507 C 898.857 -0.268701 -1.86171 0
M  V30 9508 O 898.215 0.760167 -1.64594 0
M  V30 9509 C 898.263 -2.65938 -2.43536 0
M  V30 9510 O 897.367 -2.23356 -3.46678 0
M  V30 9511 H 896.708 -0.538691 -0.388211 0
M  V30 9512 H 899.238 -1.94567 -0.632826 0
M  V30 9513 H 899.248 -2.87327 -2.89668 0
M  V30 9514 H 897.923 -3.63085 -2.02835 0
M  V30 9515 H 896.5 -2.12196 -3.06639 0
M  V30 9516 N 898.685 0.775411 -1.37205 0
M  V30 9517 C 899.618 1.8957 -1.27037 0
M  V30 9518 C 900.596 1.61891 -0.151643 0
M  V30 9519 O 901.78 1.85673 -0.325218 0
M  V30 9520 C 898.907 3.24712 -0.963316 0
M  V30 9521 C 897.953 3.71306 -2.09842 0
M  V30 9522 S 898.786 3.8541 -3.71778 0
M  V30 9523 C 899.942 5.23406 -3.43216 0
M  V30 9524 H 900.175 1.97905 -2.21857 0
M  V30 9525 H 897.708 0.936127 -1.22784 0
M  V30 9526 H 899.666 4.02768 -0.792983 0
M  V30 9527 H 898.327 3.14083 -0.0326561 0
M  V30 9528 H 897.52 4.69271 -1.83849 0
M  V30 9529 H 897.122 3.00341 -2.2287 0
M  V30 9530 H 899.414 6.08454 -2.97977 0
M  V30 9531 H 900.357 5.54409 -4.40495 0
M  V30 9532 H 900.765 4.9117 -2.78231 0
M  V30 9533 N 900.163 1.21714 1.00117 0
M  V30 9534 C 901.093 1.00397 2.10815 0
M  V30 9535 C 902.074 -0.0723502 1.69946 0
M  V30 9536 O 903.259 0.0882398 1.93999 0
M  V30 9537 C 900.389 0.572001 3.42557 0
M  V30 9538 C 899.343 1.59331 3.97237 0
M  V30 9539 C 898.669 1.01746 5.2493 0
M  V30 9540 C 899.969 2.98117 4.28863 0
M  V30 9541 H 901.663 1.92983 2.28906 0
M  V30 9542 H 899.209 0.929273 1.10002 0
M  V30 9543 H 901.162 0.410018 4.19401 0
M  V30 9544 H 899.886 -0.38951 3.24269 0
M  V30 9545 H 898.545 1.74293 3.22518 0
M  V30 9546 H 898.193 0.0475491 5.02978 0
M  V30 9547 H 897.893 1.69969 5.62481 0
M  V30 9548 H 899.417 0.866881 6.04415 0
M  V30 9549 H 900.831 2.86578 4.96534 0
M  V30 9550 H 899.228 3.63389 4.77565 0
M  V30 9551 H 900.298 3.48674 3.36979 0
M  V30 9552 N 901.641 -1.19671 1.02551 0
M  V30 9553 C 902.571 -2.25009 0.623965 0
M  V30 9554 C 903.552 -1.66129 -0.36538 0
M  V30 9555 O 904.737 -1.92599 -0.248842 0
M  V30 9556 C 901.867 -3.47287 -0.0294869 0
M  V30 9557 C 900.821 -4.18818 0.881781 0
M  V30 9558 C 900.147 -5.34618 0.0936189 0
M  V30 9559 C 901.447 -4.73986 2.19396 0
M  V30 9560 H 903.141 -2.58851 1.50454 0
M  V30 9561 H 900.687 -1.24425 0.724872 0
M  V30 9562 H 902.64 -4.20168 -0.322016 0
M  V30 9563 H 901.364 -3.12635 -0.944838 0
M  V30 9564 H 900.023 -3.47815 1.15845 0
M  V30 9565 H 899.671 -4.9621 -0.823661 0
M  V30 9566 H 899.371 -5.83409 0.700568 0
M  V30 9567 H 900.895 -6.10297 -0.192249 0
M  V30 9568 H 902.309 -5.38639 1.96319 0
M  V30 9569 H 900.706 -5.3325 2.75254 0
M  V30 9570 H 901.776 -3.92238 2.85092 0
M  V30 9571 N 903.119 -0.802921 -1.35613 0
M  V30 9572 C 904.347 -0.39393 -2.03115 0
M  V30 9573 C 904.762 0.993961 -1.60517 0
M  V30 9574 O 904.119 1.63984 -0.800973 0
M  V30 9575 C 904.17 -0.463486 -3.58516 0
M  V30 9576 O 903.891 -1.79666 -3.99565 0
M  V30 9577 C 905.392 -0.0468377 -4.43275 0
M  V30 9578 H 902.612 -0.160519 -0.651517 0
M  V30 9579 H 905.156 -1.08552 -1.73311 0
M  V30 9580 H 903.311 0.179821 -3.86982 0
M  V30 9581 H 903.725 -1.75688 -4.942 0
M  V30 9582 H 905.199 -0.146626 -5.51805 0
M  V30 9583 H 905.676 1.00741 -4.2749 0
M  V30 9584 H 906.282 -0.663158 -4.20098 0
M  V30 9585 N 904.597 1.47463 -0.556102 0
M  V30 9586 C 905.527 2.32801 0.180497 0
M  V30 9587 C 906.508 1.43721 0.909848 0
M  V30 9588 O 907.693 1.72578 0.89053 0
M  V30 9589 C 904.823 3.25478 1.21167 0
M  V30 9590 C 903.777 4.2379 0.598846 0
M  V30 9591 C 903.103 5.05783 1.73457 0
M  V30 9592 C 904.403 5.20387 -0.446659 0
M  V30 9593 H 906.097 2.94636 -0.531956 0
M  V30 9594 H 903.643 1.41683 -0.257267 0
M  V30 9595 H 905.596 3.8402 1.73513 0
M  V30 9596 H 904.32 2.61695 1.95405 0
M  V30 9597 H 902.979 3.66472 0.0966897 0
M  V30 9598 H 902.627 4.38405 2.46596 0
M  V30 9599 H 902.327 5.72343 1.33031 0
M  V30 9600 H 903.851 5.67183 2.26131 0
M  V30 9601 H 905.265 5.73299 -0.00930019 0
M  V30 9602 H 903.662 5.95143 -0.769735 0
M  V30 9603 H 904.732 4.65932 -1.34295 0
M  V30 9604 N 906.075 0.2925 1.54862 0
M  V30 9605 C 907.022 -0.587365 2.23201 0
M  V30 9606 C 907.992 -1.13623 1.21157 0
M  V30 9607 O 909.177 -1.18233 1.49752 0
M  V30 9608 C 906.317 -1.75745 2.96998 0
M  V30 9609 C 905.43 -1.24078 4.13798 0
M  V30 9610 C 904.565 -2.37405 4.75197 0
M  V30 9611 C 903.604 -1.82829 5.84157 0
M  V30 9612 N 902.741 -2.89696 6.39547 0
M  V30 9613 H 907.581 0.00202207 2.98 0
M  V30 9614 H 905.118 0.012766 1.47094 0
M  V30 9615 H 907.076 -2.44549 3.38011 0
M  V30 9616 H 905.706 -2.3186 2.24591 0
M  V30 9617 H 904.758 -0.445268 3.77785 0
M  V30 9618 H 906.07 -0.801186 4.92324 0
M  V30 9619 H 905.224 -3.14172 5.19019 0
M  V30 9620 H 903.963 -2.84688 3.95985 0
M  V30 9621 H 902.968 -1.04548 5.39768 0
M  V30 9622 H 904.193 -1.36461 6.65248 0
M  V30 9623 H 902.139 -3.36328 5.63222 0
M  V30 9624 H 902.056 -2.50206 7.13395 0
M  V30 9625 H 903.324 -3.66386 6.88027 0
M  V30 9626 N 907.553 -1.57587 0.0200696 0
M  V30 9627 C 908.793 -1.93287 -0.66479 0
M  V30 9628 C 909.157 -0.896022 -1.6981 0
M  V30 9629 O 910.358 -1.13892 -2.43479 0
M  V30 9630 C 908.629 -3.33949 -1.27328 0
M  V30 9631 S 910.188 -3.91564 -1.98047 0
M  V30 9632 H 907.006 -0.676397 -0.219106 0
M  V30 9633 H 909.608 -1.9533 0.081568 0
M  V30 9634 H 908.312 -4.07235 -0.508673 0
M  V30 9635 H 907.843 -3.35329 -2.05714 0
M  V30 9636 H 909.858 -3.74265 -3.25791 0
M  V30 9637 N 909.032 0.252966 -1.55557 0
M  V30 9638 C 910.26 0.999565 -1.81153 0
M  V30 9639 C 910.675 1.79181 -0.594955 0
M  V30 9640 O 910.032 1.77208 0.436311 0
M  V30 9641 C 910.083 1.94227 -3.04891 0
M  V30 9642 O 909.804 1.18209 -4.21851 0
M  V30 9643 C 911.305 2.80536 -3.43241 0
M  V30 9644 H 908.525 0.294402 -0.602966 0
M  V30 9645 H 911.069 0.277686 -2.02606 0
M  V30 9646 H 909.224 2.6185 -2.85505 0
M  V30 9647 H 909.638 1.81922 -4.9194 0
M  V30 9648 H 911.112 3.42442 -4.32941 0
M  V30 9649 H 911.589 3.51337 -2.6355 0
M  V30 9650 H 912.195 2.18373 -3.64956 0
M  V30 9651 N 910.51 1.48831 0.518367 0
M  V30 9652 C 911.44 1.67119 1.63075 0
M  V30 9653 C 912.421 0.519948 1.61958 0
M  V30 9654 O 913.606 0.753824 1.78972 0
M  V30 9655 C 910.736 1.72158 3.01627 0
M  V30 9656 C 909.69 2.86898 3.17606 0
M  V30 9657 C 909.016 2.77035 4.57335 0
M  V30 9658 C 910.316 4.28057 2.99274 0
M  V30 9659 H 912.01 2.60248 1.48025 0
M  V30 9660 H 909.556 1.2524 0.710694 0
M  V30 9661 H 911.509 1.83539 3.7933 0
M  V30 9662 H 910.233 0.756157 3.17726 0
M  V30 9663 H 908.892 2.75091 2.42323 0
M  V30 9664 H 908.54 1.78438 4.70286 0
M  V30 9665 H 908.24 3.54036 4.6897 0
M  V30 9666 H 909.764 2.904 5.37122 0
M  V30 9667 H 911.178 4.40636 3.6676 0
M  V30 9668 H 909.575 5.06145 3.22393 0
M  V30 9669 H 910.645 4.4371 1.95574 0
M  V30 9670 N 911.988 -0.768124 1.37614 0
M  V30 9671 C 913.265 -1.51637 1.23554 0
M  V30 9672 C 913.645 -2.1042 -0.169331 0
M  V30 9673 O 912.993 -1.95834 -1.17735 0
M  V30 9674 C 913.203 -2.59436 2.33439 0
M  V30 9675 C 914.551 -3.2674 2.71157 0
M  V30 9676 O 915.575 -2.69733 2.32642 0
M  V30 9677 O 914.434 -4.29814 3.37524 0
M  V30 9678 H 911.528 -0.671778 0.482332 0
M  V30 9679 H 914.074 -0.804779 1.49403 0
M  V30 9680 H 912.846 -2.14146 3.27502 0
M  V30 9681 H 912.469 -3.38192 2.09073 0
M  V30 9682 N 913.466 -1.22244 -0.994698 0
M  V30 9683 C 914.877 -1.043 -1.5485 0
M  V30 9684 C 915.228 0.394102 -1.92201 0
M  V30 9685 O 914.353 1.27883 -1.74571 0
M  V30 9686 C 914.948 -1.88708 -2.8138 0
M  V30 9687 C 913.507 -1.75067 -3.3321 0
M  V30 9688 C 912.654 -1.85286 -2.06312 0
M  V30 9689 H 915.605 -1.36115 -0.815988 0
M  V30 9690 H 915.626 -1.40342 -3.53673 0
M  V30 9691 H 915.138 -2.93296 -2.54164 0
M  V30 9692 H 913.239 -0.732047 -3.65338 0
M  V30 9693 H 913.352 -2.57632 -4.03934 0
M  V30 9694 H 911.716 -1.28706 -2.19788 0
M  V30 9695 H 912.499 -2.91401 -1.81494 0
M  V30 9696 N 914.944 1.19125 -1.03184 0
M  V30 9697 C 916.221 1.84674 -0.644574 0
M  V30 9698 C 916.601 1.92042 0.876534 0
M  V30 9699 O 915.949 1.43965 1.77444 0
M  V30 9700 C 916.159 3.23477 -1.3101 0
M  V30 9701 C 917.507 3.99608 -1.43524 0
M  V30 9702 O 918.531 3.32886 -1.2675 0
M  V30 9703 O 917.39 5.19132 -1.70776 0
M  V30 9704 H 914.484 0.795968 -0.22442 0
M  V30 9705 H 917.03 1.2659 -1.13018 0
M  V30 9706 H 915.802 3.12967 -2.34878 0
M  V30 9707 H 915.425 3.89209 -0.812547 0
M  V30 9708 N 916.422 0.810101 1.35185 0
M  V30 9709 C 917.65 0.404696 2.02903 0
M  V30 9710 C 918.065 -0.985434 1.61042 0
M  V30 9711 O 917.422 -1.63557 0.809658 0
M  V30 9712 C 917.473 0.482493 3.58266 0
M  V30 9713 O 917.194 1.81782 3.98606 0
M  V30 9714 C 918.695 0.070345 4.43244 0
M  V30 9715 H 915.915 0.163972 0.650657 0
M  V30 9716 H 918.459 1.0947 1.72733 0
M  V30 9717 H 916.614 -0.159296 3.87072 0
M  V30 9718 H 917.028 1.78306 4.93262 0
M  V30 9719 H 918.502 0.175888 5.5172 0
M  V30 9720 H 918.979 -0.984724 4.28018 0
M  V30 9721 H 919.585 0.685427 4.1974 0
M  V30 9722 N 917.9 -1.47166 0.563914 0
M  V30 9723 C 919.125 -2.0735 0.0454698 0
M  V30 9724 C 919.55 -1.41281 -1.24182 0
M  V30 9725 O 918.908 -0.490084 -1.7455 0
M  V30 9726 C 918.956 -3.60378 -0.126453 0
M  V30 9727 O 918.06 -3.94934 -1.18746 0
M  V30 9728 H 917.401 -0.661773 0.0543377 0
M  V30 9729 H 919.931 -1.89086 0.781508 0
M  V30 9730 H 919.941 -4.06593 -0.338554 0
M  V30 9731 H 918.616 -4.07862 0.81373 0
M  V30 9732 H 917.193 -3.60455 -0.955318 0
M  V30 9733 N 919.378 -0.300708 -1.54705 0
M  V30 9734 C 920.655 0.361757 -1.92226 0
M  V30 9735 C 921.035 1.71714 -1.2279 0
M  V30 9736 O 920.383 2.2559 -0.363542 0
M  V30 9737 C 920.593 0.476699 -3.45729 0
M  V30 9738 C 921.941 0.7477 -4.17965 0
M  V30 9739 O 922.965 0.560521 -3.51762 0
M  V30 9740 O 921.824 1.10724 -5.35166 0
M  V30 9741 H 918.918 0.202213 -0.801897 0
M  V30 9742 H 921.464 -0.348746 -1.66078 0
M  V30 9743 H 920.236 -0.476132 -3.88392 0
M  V30 9744 H 919.859 1.23568 -3.77911 0
M  V30 9745 N 920.856 1.57574 -0.0284266 0
M  V30 9746 C 921.788 2.07079 0.982391 0
M  V30 9747 C 922.801 0.994078 1.28926 0
M  V30 9748 O 923.99 1.27028 1.25404 0
M  V30 9749 C 921.09 2.47978 2.30998 0
M  V30 9750 C 920.263 3.7872 2.18838 0
M  V30 9751 C 919.322 4.06177 3.34524 0
M  V30 9752 O 918.348 4.76438 3.11441 0
M  V30 9753 N 919.55 3.56297 4.58293 0
M  V30 9754 H 922.315 2.94421 0.560011 0
M  V30 9755 H 919.876 1.61124 0.158347 0
M  V30 9756 H 921.868 2.63439 3.07216 0
M  V30 9757 H 920.438 1.66005 2.64879 0
M  V30 9758 H 919.658 3.73062 1.27351 0
M  V30 9759 H 920.946 4.6438 2.07915 0
M  V30 9760 H 920.344 2.99453 4.79942 0
M  V30 9761 H 918.901 3.77038 5.31682 0
M  V30 9762 N 922.334 -0.244713 1.55689 0
M  V30 9763 C 923.562 -0.989944 1.8168 0
M  V30 9764 C 923.977 -1.78863 0.604449 0
M  V30 9765 O 923.334 -1.77437 -0.426907 0
M  V30 9766 C 923.385 -1.92607 3.05916 0
M  V30 9767 O 923.106 -1.1597 4.22472 0
M  V30 9768 C 924.607 -2.78711 3.44724 0
M  V30 9769 H 921.827 -0.2912 0.604519 0
M  V30 9770 H 924.371 -0.266938 2.0275 0
M  V30 9771 H 922.526 -2.60333 2.8689 0
M  V30 9772 H 922.94 -1.79311 4.92898 0
M  V30 9773 H 924.414 -3.40141 4.34751 0
M  V30 9774 H 924.891 -3.49935 2.6541 0
M  V30 9775 H 925.497 -2.16435 3.66109 0
M  V30 9776 N 923.813 -1.49104 -0.510467 0
M  V30 9777 C 925.09 -1.48609 -1.27179 0
M  V30 9778 C 925.47 -0.208537 -2.10067 0
M  V30 9779 O 924.818 0.809335 -2.13687 0
M  V30 9780 C 925.028 -2.75953 -2.1366 0
M  V30 9781 C 926.376 -3.25067 -2.73161 0
M  V30 9782 O 927.4 -2.77005 -2.23934 0
M  V30 9783 O 926.259 -4.08747 -3.62751 0
M  V30 9784 H 923.353 -0.594374 -0.57502 0
M  V30 9785 H 925.899 -1.61358 -0.525515 0
M  V30 9786 H 924.671 -3.60434 -1.52325 0
M  V30 9787 H 924.294 -2.66019 -2.95499 0
M  V30 9788 N 925.291 0.760815 -1.38019 0
M  V30 9789 C 926.239 1.89578 -1.34771 0
M  V30 9790 C 927.233 1.67766 -0.234714 0
M  V30 9791 O 928.439 1.75423 -0.403352 0
M  V30 9792 H 924.814 0.623608 -0.420258 0
M  V30 9793 H 926.785 1.89434 -2.30558 0
M  V30 9794 C 925.534 3.26976 -1.18246 0
M  V30 9795 H 924.857 3.44342 -2.03147 0
M  V30 9796 H 926.297 4.06657 -1.20026 0
M  V30 9797 C 924.756 3.36717 0.111145 0
M  V30 9798 O 925.286 3.86607 1.09079 0
M  V30 9799 N 923.492 2.90128 0.165542 0
M  V30 9800 H 923.039 2.49719 -0.632328 0
M  V30 9801 H 922.997 2.97026 1.03067 0
M  V30 9802 N 926.769 1.22769 0.988202 0
M  V30 9803 C 927.699 1.02627 2.09738 0
M  V30 9804 C 928.68 -0.0543211 1.70013 0
M  V30 9805 O 929.865 0.108811 1.93895 0
M  V30 9806 C 926.995 0.608302 3.41931 0
M  V30 9807 C 925.949 1.63536 3.95525 0
M  V30 9808 C 925.275 1.07308 5.23822 0
M  V30 9809 C 926.575 3.02649 4.25677 0
M  V30 9810 H 928.269 1.954 2.26847 0
M  V30 9811 H 925.815 0.940888 1.09011 0
M  V30 9812 H 927.768 0.454478 4.18942 0
M  V30 9813 H 926.492 -0.355095 3.24664 0
M  V30 9814 H 925.151 1.77704 3.20651 0
M  V30 9815 H 924.799 0.100894 5.02899 0
M  V30 9816 H 924.499 1.75925 5.60646 0
M  V30 9817 H 926.023 0.930938 6.03462 0
M  V30 9818 H 927.437 2.91828 4.93467 0
M  V30 9819 H 925.834 3.68434 4.73684 0
M  V30 9820 H 926.904 3.52228 3.33262 0
M  V30 9821 N 928.247 -1.18576 1.03814 0
M  V30 9822 C 929.475 -1.92437 0.759966 0
M  V30 9823 C 929.89 -1.76031 -0.682526 0
M  V30 9824 O 929.247 -1.08829 -1.46501 0
M  V30 9825 C 929.298 -3.43923 1.11351 0
M  V30 9826 O 929.019 -3.5981 2.49937 0
M  V30 9827 C 930.52 -4.34888 0.859472 0
M  V30 9828 H 927.74 -0.610998 0.277349 0
M  V30 9829 H 930.284 -1.50448 1.38512 0
M  V30 9830 H 928.439 -3.83711 0.533362 0
M  V30 9831 H 928.853 -4.53569 2.63393 0
M  V30 9832 H 930.327 -5.39744 1.15672 0
M  V30 9833 H 930.804 -4.38717 -0.205839 0
M  V30 9834 H 931.41 -4.00795 1.42279 0
M  V30 9835 N 929.725 -0.817259 -1.34754 0
M  V30 9836 C 930.635 -0.236946 -2.334 0
M  V30 9837 C 931.651 0.625685 -1.62361 0
M  V30 9838 O 932.827 0.534921 -1.94166 0
M  V30 9839 C 929.892 0.596215 -3.41535 0
M  V30 9840 C 928.953 -0.288154 -4.28332 0
M  V30 9841 C 928.186 0.505337 -5.31302 0
M  V30 9842 O 928.409 1.73912 -5.43241 0
M  V30 9843 O 927.343 -0.109374 -6.01801 0
M  V30 9844 H 931.169 -1.05327 -2.84851 0
M  V30 9845 H 928.754 -0.579275 -1.37713 0
M  V30 9846 H 930.636 1.07041 -4.07578 0
M  V30 9847 H 929.311 1.38997 -2.92338 0
M  V30 9848 H 928.218 -0.809724 -3.65232 0
M  V30 9849 H 929.551 -1.04612 -4.80955 0
M  V30 9850 N 931.203 1.46865 -0.571711 0
M  V30 9851 C 932.135 2.28277 0.205479 0
M  V30 9852 C 933.148 1.37866 0.865835 0
M  V30 9853 O 934.337 1.62564 0.737247 0
M  V30 9854 C 931.437 3.12572 1.30965 0
M  V30 9855 C 930.61 4.31038 0.743328 0
M  V30 9856 C 929.669 4.96815 1.73382 0
M  V30 9857 O 928.695 5.54755 1.2742 0
M  V30 9858 N 929.897 4.92825 3.06764 0
M  V30 9859 H 932.662 2.95618 -0.49294 0
M  V30 9860 H 930.223 1.56655 -0.408744 0
M  V30 9861 H 932.215 3.53442 1.97131 0
M  V30 9862 H 930.785 2.47378 1.91109 0
M  V30 9863 H 930.005 3.94084 -0.0955004 0
M  V30 9864 H 931.293 5.07632 0.344556 0
M  V30 9865 H 930.691 4.46978 3.46738 0
M  V30 9866 H 929.248 5.3767 3.68449 0
M  V30 9867 N 932.681 0.308908 1.54543 0
M  V30 9868 C 933.644 -0.550857 2.22482 0
M  V30 9869 C 934.644 -1.0551 1.21344 0
M  V30 9870 O 935.834 -0.949866 1.46025 0
M  V30 9871 C 932.966 -1.76354 2.9174 0
M  V30 9872 H 934.159 0.0428395 2.99869 0
M  V30 9873 H 931.712 0.059825 1.56185 0
M  V30 9874 H 932.447 -2.39686 2.18451 0
M  V30 9875 H 932.232 -1.40954 3.65889 0
M  V30 9876 H 933.722 -2.37417 3.43545 0
M  V30 9877 N 934.159 -1.57557 0.0367827 0
M  V30 9878 C 935.092 -2.06205 -0.977479 0
M  V30 9879 C 936.07 -0.959444 -1.31276 0
M  V30 9880 O 937.254 -1.23033 -1.42811 0
M  V30 9881 C 934.381 -2.49053 -2.29544 0
M  V30 9882 C 933.427 -3.70409 -2.11423 0
M  V30 9883 S 934.26 -5.16715 -1.40593 0
M  V30 9884 C 935.416 -5.62864 -2.73742 0
M  V30 9885 H 935.649 -2.91913 -0.5634 0
M  V30 9886 H 933.182 -1.53404 -0.175111 0
M  V30 9887 H 935.14 -2.74403 -3.05308 0
M  V30 9888 H 933.801 -1.63677 -2.68083 0
M  V30 9889 H 932.994 -3.98262 -3.08875 0
M  V30 9890 H 932.596 -3.4525 -1.438 0
M  V30 9891 H 934.888 -5.67571 -3.69958 0
M  V30 9892 H 935.831 -6.62294 -2.50544 0
M  V30 9893 H 936.239 -4.90539 -2.79341 0
M  V30 9894 N 935.637 0.236453 -1.55816 0
M  V30 9895 C 936.547 1.31418 -1.94336 0
M  V30 9896 C 937.563 1.52095 -0.845164 0
M  V30 9897 O 938.739 1.65515 -1.14746 0
M  V30 9898 C 935.804 2.6468 -2.23932 0
M  V30 9899 C 934.865 2.52435 -3.47239 0
M  V30 9900 C 934.098 3.79342 -3.75414 0
M  V30 9901 O 934.321 4.81694 -3.05495 0
M  V30 9902 O 933.255 3.77347 -4.68927 0
M  V30 9903 H 937.081 1.01739 -2.86152 0
M  V30 9904 H 934.666 0.438084 -1.42833 0
M  V30 9905 H 936.548 3.4341 -2.44228 0
M  V30 9906 H 935.223 2.94071 -1.35292 0
M  V30 9907 H 934.13 1.71955 -3.32238 0
M  V30 9908 H 935.463 2.27987 -4.36214 0
M  V30 9909 N 937.115 1.49373 0.502552 0
M  V30 9910 C 938.362 1.58781 1.25678 0
M  V30 9911 C 938.69 0.273819 1.92563 0
M  V30 9912 O 937.945 -0.738141 1.81246 0
M  V30 9913 C 938.244 2.69508 2.34735 0
M  V30 9914 C 937.91 4.11057 1.85318 0
M  V30 9915 C 936.572 4.49578 1.7156 0
M  V30 9916 C 938.924 4.99653 1.48312 0
M  V30 9917 C 936.252 5.74469 1.19172 0
M  V30 9918 C 938.604 6.2506 0.97377 0
M  V30 9919 C 937.268 6.62412 0.822573 0
M  V30 9920 H 936.538 0.581021 0.459887 0
M  V30 9921 H 939.185 1.83197 0.557767 0
M  V30 9922 H 937.49 2.39057 3.10418 0
M  V30 9923 H 939.187 2.73997 2.92791 0
M  V30 9924 H 935.777 3.80651 1.96985 0
M  V30 9925 H 939.961 4.70549 1.57789 0
M  V30 9926 H 935.217 6.0211 1.06176 0
M  V30 9927 H 939.391 6.93089 0.678233 0
M  V30 9928 H 937.018 7.59069 0.414453 0
M  V30 9929 N 938.594 -0.753485 1.38421 0
M  V30 9930 C 939.834 -1.52544 1.3605 0
M  V30 9931 C 940.198 -1.91937 -0.0493257 0
M  V30 9932 O 941.399 -2.6807 -0.197908 0
M  V30 9933 C 939.67 -2.74432 2.28958 0
M  V30 9934 S 941.229 -3.64297 2.44607 0
M  V30 9935 H 938.047 -0.522017 0.48272 0
M  V30 9936 H 940.649 -0.884503 1.74347 0
M  V30 9937 H 939.353 -2.43602 3.30282 0
M  V30 9938 H 938.884 -3.43471 1.91811 0
M  V30 9939 H 940.899 -4.67245 1.67022 0
M  V30 9940 N 940.072 -1.23292 -0.981677 0
M  V30 9941 C 941.004 -0.970782 -2.07626 0
M  V30 9942 C 942.017 0.0547506 -1.62708 0
M  V30 9943 O 943.206 -0.180623 -1.77584 0
M  V30 9944 C 940.306 -0.44055 -3.36024 0
M  V30 9945 C 939.479 -1.52595 -4.09919 0
M  V30 9946 C 938.538 -1.00082 -5.16595 0
M  V30 9947 O 937.564 -1.68951 -5.43548 0
M  V30 9948 N 938.766 0.172017 -5.80245 0
M  V30 9949 H 941.531 -1.91316 -2.30691 0
M  V30 9950 H 939.092 -1.14133 -1.14828 0
M  V30 9951 H 941.084 -0.0743111 -4.04632 0
M  V30 9952 H 939.654 0.407211 -3.09936 0
M  V30 9953 H 938.874 -2.06501 -3.35784 0
M  V30 9954 H 940.162 -2.2559 -4.56055 0
M  V30 9955 H 939.56 0.748129 -5.60731 0
M  V30 9956 H 938.117 0.479532 -6.50034 0
M  V30 9957 N 941.55 1.18024 -1.04442 0
M  V30 9958 C 942.966 1.40107 -0.76435 0
M  V30 9959 C 943.166 1.90914 0.644516 0
M  V30 9960 O 942.222 2.0959 1.40813 0
M  V30 9961 C 943.535 2.39851 -1.81361 0
M  V30 9962 C 945.083 2.53571 -1.83496 0
M  V30 9963 C 945.558 3.56583 -2.87424 0
M  V30 9964 N 947.049 3.64094 -2.86339 0
M  V30 9965 C 947.784 4.43537 -3.63405 0
M  V30 9966 N 947.28 5.26557 -4.50233 0
M  V30 9967 N 949.073 4.38336 -3.51877 0
M  V30 9968 H 941.224 0.833726 -1.95353 0
M  V30 9969 H 943.487 0.42881 -0.845474 0
M  V30 9970 H 943.193 2.09576 -2.82438 0
M  V30 9971 H 943.067 3.39251 -1.6489 0
M  V30 9972 H 945.454 2.83161 -0.830883 0
M  V30 9973 H 945.535 1.54272 -2.04044 0
M  V30 9974 H 945.179 3.27733 -3.88012 0
M  V30 9975 H 945.109 4.55569 -2.6413 0
M  V30 9976 H 947.6 3.04814 -2.23376 0
M  V30 9977 H 947.913 5.84336 -5.05738 0
M  V30 9978 H 946.258 5.25964 -4.54298 0
M  V30 9979 H 949.449 3.72528 -2.83444 0
M  V30 9980 H 949.622 5.00007 -4.12186 0
M  V30 9981 N 943.028 0.824394 1.34319 0
M  V30 9982 C 944.274 0.413779 1.98534 0
M  V30 9983 C 944.607 -1.02089 1.65201 0
M  V30 9984 O 943.882 -1.71129 0.924402 0
M  V30 9985 C 944.165 0.61801 3.54757 0
M  V30 9986 C 944.018 2.0989 3.97827 0
M  V30 9987 C 945.337 0.0549041 4.40066 0
M  V30 9988 H 942.456 0.151815 0.721194 0
M  V30 9989 H 945.098 1.03723 1.5919 0
M  V30 9990 H 943.248 0.0873107 3.88402 0
M  V30 9991 H 944.92 2.69335 3.74508 0
M  V30 9992 H 943.163 2.58881 3.48085 0
M  V30 9993 H 943.834 2.1926 5.06586 0
M  V30 9994 H 946.31 0.508348 4.12983 0
M  V30 9995 H 945.186 0.227595 5.48428 0
M  V30 9996 H 945.447 -1.04025 4.29687 0
M  V30 9997 N 944.506 -1.46559 0.579492 0
M  V30 9998 C 945.754 -2.02 0.0637157 0
M  V30 9999 C 946.075 -1.45378 -1.29962 0
M  V30 10000 O 945.345 -0.637262 -1.85245 0
M  V30 10001 H 943.925 -0.746717 0.0205638 0
M  V30 10002 H 946.587 -1.79702 0.754544 0
M  V30 10003 H 945.683 -3.12099 -0.00770254 0
M  V30 10004 N 945.984 -0.3171 -1.54377 0
M  V30 10005 C 947.209 0.292311 -2.0533 0
M  V30 10006 C 947.634 1.45503 -1.19207 0
M  V30 10007 O 946.992 1.80197 -0.199721 0
M  V30 10008 C 947.04 0.710787 -3.53525 0
M  V30 10009 O 946.144 1.81387 -3.70368 0
M  V30 10010 H 945.485 0.0539976 -0.661801 0
M  V30 10011 H 948.015 -0.463629 -1.99278 0
M  V30 10012 H 948.025 0.995216 -3.95676 0
M  V30 10013 H 946.7 -0.139668 -4.15665 0
M  V30 10014 H 945.277 1.52875 -3.40123 0
M  V30 10015 N 947.462 1.57535 -0.0451378 0
M  V30 10016 C 948.878 1.56533 0.311373 0
M  V30 10017 C 949.078 1.05225 1.71843 0
M  V30 10018 O 948.134 0.706144 2.42425 0
M  V30 10019 C 949.447 3.00349 0.145348 0
M  V30 10020 C 950.995 3.12248 0.216908 0
M  V30 10021 C 951.47 4.57931 0.0794834 0
M  V30 10022 N 952.961 4.63 0.135954 0
M  V30 10023 C 953.696 5.73375 0.0536426 0
M  V30 10024 N 953.192 6.92753 -0.0806725 0
M  V30 10025 N 954.985 5.61995 0.108789 0
M  V30 10026 H 947.136 1.89211 -0.965044 0
M  V30 10027 H 949.399 0.871068 -0.374091 0
M  V30 10028 H 949.105 3.41898 -0.824533 0
M  V30 10029 H 948.979 3.66086 0.908903 0
M  V30 10030 H 951.366 2.70601 1.17726 0
M  V30 10031 H 951.447 2.49201 -0.577299 0
M  V30 10032 H 951.091 5.00262 -0.877516 0
M  V30 10033 H 951.021 5.18977 0.892758 0
M  V30 10034 H 953.512 3.77142 0.23926 0
M  V30 10035 H 953.825 7.7268 -0.136351 0
M  V30 10036 H 952.17 6.94904 -0.115675 0
M  V30 10037 H 955.361 4.67619 0.212235 0
M  V30 10038 H 955.534 6.47987 0.0411822 0
M  V30 10039 N 948.94 -0.228186 1.55939 0
M  V30 10040 C 949.903 -1.26621 1.91049 0
M  V30 10041 C 950.903 -1.40141 0.788491 0
M  V30 10042 O 952.093 -1.3852 1.05631 0
M  V30 10043 C 949.225 -2.64108 2.15545 0
M  V30 10044 H 950.418 -0.966978 2.83883 0
M  V30 10045 H 947.971 -0.468313 1.49119 0
M  V30 10046 H 948.706 -2.99141 1.25241 0
M  V30 10047 H 948.491 -2.55673 2.97277 0
M  V30 10048 H 949.981 -3.39025 2.43827 0
M  V30 10049 N 950.418 -1.49637 -0.494624 0
M  V30 10050 C 951.646 -1.63164 -1.2722 0
M  V30 10051 C 952.061 -0.305552 -1.86311 0
M  V30 10052 O 951.418 0.709758 -1.68133 0
M  V30 10053 C 951.469 -2.70524 -2.39789 0
M  V30 10054 O 951.19 -3.97991 -1.83126 0
M  V30 10055 C 952.691 -2.94814 -3.31058 0
M  V30 10056 H 949.911 -0.54912 -0.385627 0
M  V30 10057 H 952.455 -1.95711 -0.593081 0
M  V30 10058 H 950.61 -2.40738 -3.03519 0
M  V30 10059 H 951.024 -4.57179 -2.57075 0
M  V30 10060 H 952.498 -3.73653 -4.06309 0
M  V30 10061 H 952.975 -2.04974 -3.88436 0
M  V30 10062 H 953.581 -3.26042 -2.73088 0
M  V30 10063 N 951.896 0.746133 -1.38819 0
M  V30 10064 C 953.124 1.53539 -1.38685 0
M  V30 10065 C 953.539 1.88788 0.0215039 0
M  V30 10066 O 952.896 1.53312 0.990031 0
M  V30 10067 C 952.947 2.8299 -2.24942 0
M  V30 10068 O 952.668 2.49242 -3.60292 0
M  V30 10069 C 954.169 3.77085 -2.3307 0
M  V30 10070 H 951.389 0.474842 -0.474095 0
M  V30 10071 H 953.933 0.922844 -1.82493 0
M  V30 10072 H 952.088 3.40603 -1.84576 0
M  V30 10073 H 952.502 3.32319 -4.05789 0
M  V30 10074 H 953.976 4.64845 -2.97696 0
M  V30 10075 H 954.453 4.18049 -1.34655 0
M  V30 10076 H 955.059 3.25394 -2.73859 0
M  V30 10077 N 953.375 1.23811 0.975125 0
M  V30 10078 C 954.621 1.07495 1.71967 0
M  V30 10079 C 954.954 -0.386451 1.90316 0
M  V30 10080 O 954.229 -1.28591 1.45927 0
M  V30 10081 C 954.512 1.80694 3.11483 0
M  V30 10082 C 954.365 3.3454 3.00671 0
M  V30 10083 C 955.684 1.57367 4.11003 0
M  V30 10084 H 952.803 0.3919 0.624166 0
M  V30 10085 H 955.445 1.52383 1.13487 0
M  V30 10086 H 953.595 1.42538 3.61407 0
M  V30 10087 H 955.267 3.8225 2.5823 0
M  V30 10088 H 953.51 3.63301 2.37054 0
M  V30 10089 H 954.181 3.80951 3.99475 0
M  V30 10090 H 956.657 1.90545 3.69908 0
M  V30 10091 H 955.533 2.11052 5.06703 0
M  V30 10092 H 955.794 0.510221 4.39146 0
M  V30 10093 N 954.853 -1.17469 1.05066 0
M  V30 10094 C 956.078 -1.92162 0.780298 0
M  V30 10095 C 956.503 -1.76222 -0.657832 0
M  V30 10096 O 955.861 -1.0791 -1.45688 0
M  V30 10097 C 955.909 -3.41292 1.16414 0
M  V30 10098 O 955.013 -4.1134 0.295531 0
M  V30 10099 H 954.354 -0.599127 0.286257 0
M  V30 10100 H 956.884 -1.48903 1.40318 0
M  V30 10101 H 956.894 -3.92029 1.13036 0
M  V30 10102 H 955.569 -3.52214 2.21175 0
M  V30 10103 H 954.146 -3.70857 0.389797 0
M  V30 10104 N 956.331 -0.831506 -1.3388 0
M  V30 10105 C 957.241 -0.261688 -2.33136 0
M  V30 10106 C 958.257 0.608429 -1.63016 0
M  V30 10107 O 959.433 0.514297 -1.94723 0
M  V30 10108 C 956.498 0.559957 -3.42148 0
M  V30 10109 C 955.559 -0.333569 -4.28002 0
M  V30 10110 C 954.792 0.448956 -5.31808 0
M  V30 10111 O 955.015 1.6814 -5.45055 0
M  V30 10112 O 953.949 -0.173197 -6.01651 0
M  V30 10113 H 957.775 -1.08343 -2.83717 0
M  V30 10114 H 955.36 -0.593849 -1.3709 0
M  V30 10115 H 957.242 1.02712 -4.08691 0
M  V30 10116 H 955.917 1.35888 -2.93796 0
M  V30 10117 H 954.824 -0.848416 -3.64352 0
M  V30 10118 H 956.157 -1.09707 -4.79818 0
M  V30 10119 N 957.809 1.4625 -0.587256 0
M  V30 10120 C 959.058 2.01571 -0.0722643 0
M  V30 10121 C 959.371 1.46385 1.29733 0
M  V30 10122 O 960.577 1.93554 1.90392 0
M  V30 10123 C 959.033 3.59814 -0.078579 0
M  V30 10124 C 958.641 4.23996 -1.44678 0
M  V30 10125 C 960.385 4.22776 0.382231 0
M  V30 10126 C 958.292 5.74332 -1.41057 0
M  V30 10127 H 957.222 0.753642 -0.0232461 0
M  V30 10128 H 959.873 1.67936 -0.739577 0
M  V30 10129 H 958.255 3.90546 0.654988 0
M  V30 10130 H 959.429 4.04867 -2.20043 0
M  V30 10131 H 957.744 3.73147 -1.84799 0
M  V30 10132 H 960.341 5.32983 0.428182 0
M  V30 10133 H 960.684 3.92027 1.40072 0
M  V30 10134 H 961.217 3.96687 -0.297417 0
M  V30 10135 H 957.956 6.09747 -2.40601 0
M  V30 10136 H 957.476 5.95711 -0.699185 0
M  V30 10137 H 959.155 6.37137 -1.12543 0
M  V30 10138 N 959.287 0.325282 1.54207 0
M  V30 10139 C 960.536 -0.27768 1.99779 0
M  V30 10140 C 960.849 -1.5311 1.21723 0
M  V30 10141 O 962.055 -2.21017 1.57682 0
M  V30 10142 C 960.511 -0.545329 3.55745 0
M  V30 10143 C 960.119 0.691143 4.42637 0
M  V30 10144 C 961.863 -1.10815 4.09781 0
M  V30 10145 C 959.77 0.395302 5.90077 0
M  V30 10146 H 958.7 -0.107536 0.746292 0
M  V30 10147 H 961.351 0.437773 1.78202 0
M  V30 10148 H 959.733 -1.32101 3.73317 0
M  V30 10149 H 960.907 1.46653 4.3684 0
M  V30 10150 H 959.222 1.1743 3.99499 0
M  V30 10151 H 961.819 -1.34414 5.1753 0
M  V30 10152 H 962.162 -2.05806 3.6187 0
M  V30 10153 H 962.695 -0.393608 3.95848 0
M  V30 10154 H 959.434 1.31443 6.42186 0
M  V30 10155 H 958.954 -0.34235 5.98822 0
M  V30 10156 H 960.633 0.00576877 6.47 0
M  V30 10157 N 960.765 -1.57509 0.0534917 0
M  V30 10158 C 961.675 -2.15152 -0.935249 0
M  V30 10159 C 962.691 -1.10991 -1.34003 0
M  V30 10160 O 963.867 -1.43171 -1.41648 0
M  V30 10161 C 960.932 -2.68699 -2.19093 0
M  V30 10162 C 959.993 -3.87666 -1.84428 0
M  V30 10163 C 959.226 -4.3865 -3.0401 0
M  V30 10164 O 959.449 -3.887 -4.17455 0
M  V30 10165 O 958.383 -5.30209 -2.84889 0
M  V30 10166 H 962.209 -2.99962 -0.475009 0
M  V30 10167 H 959.794 -1.48446 -0.16854 0
M  V30 10168 H 961.676 -3.03098 -2.92762 0
M  V30 10169 H 960.351 -1.86958 -2.6425 0
M  V30 10170 H 959.258 -3.58151 -1.08068 0
M  V30 10171 H 960.591 -4.70643 -1.44068 0
M  V30 10172 N 962.243 0.219913 -1.56058 0
M  V30 10173 C 963.19 1.27254 -1.92549 0
M  V30 10174 C 964.16 1.46493 -0.782883 0
M  V30 10175 O 965.345 1.60035 -1.03892 0
M  V30 10176 C 962.485 2.61756 -2.24896 0
M  V30 10177 C 961.598 2.50302 -3.52098 0
M  V30 10178 C 960.733 3.77338 -3.73884 0
M  V30 10179 C 959.772 3.60613 -4.94595 0
M  V30 10180 N 958.909 4.79603 -5.12763 0
M  V30 10181 H 963.749 0.954352 -2.82305 0
M  V30 10182 H 961.286 0.459928 -1.39725 0
M  V30 10183 H 963.244 3.40082 -2.4166 0
M  V30 10184 H 961.874 2.91668 -1.38311 0
M  V30 10185 H 960.926 1.63401 -3.43517 0
M  V30 10186 H 962.238 2.33866 -4.40577 0
M  V30 10187 H 961.392 4.64108 -3.90754 0
M  V30 10188 H 960.131 3.96702 -2.83689 0
M  V30 10189 H 959.136 2.72228 -4.77674 0
M  V30 10190 H 960.361 3.42719 -5.86277 0
M  V30 10191 H 958.307 4.99277 -4.2551 0
M  V30 10192 H 958.224 4.65899 -5.95377 0
M  V30 10193 H 959.492 5.67794 -5.34069 0
M  V30 10194 N 963.721 1.49897 0.486681 0
M  V30 10195 C 964.668 1.67619 1.58658 0
M  V30 10196 C 965.638 0.517537 1.57831 0
M  V30 10197 O 966.823 0.746272 1.756 0
M  V30 10198 C 963.963 1.762 2.96728 0
M  V30 10199 C 963.076 3.03465 3.07462 0
M  V30 10200 C 962.211 3.02937 4.36351 0
M  V30 10201 C 961.25 4.24721 4.4077 0
M  V30 10202 N 960.387 4.22021 5.61108 0
M  V30 10203 H 965.227 2.61528 1.42853 0
M  V30 10204 H 962.764 1.29657 0.694807 0
M  V30 10205 H 964.722 1.79156 3.76774 0
M  V30 10206 H 963.352 0.857452 3.11203 0
M  V30 10207 H 962.404 3.10054 2.20387 0
M  V30 10208 H 963.716 3.93454 3.06586 0
M  V30 10209 H 962.87 3.04536 5.24731 0
M  V30 10210 H 961.609 2.10751 4.39813 0
M  V30 10211 H 960.614 4.23352 3.5079 0
M  V30 10212 H 961.839 5.18116 4.39013 0
M  V30 10213 H 959.785 3.3268 5.65385 0
M  V30 10214 H 959.702 5.05761 5.61909 0
M  V30 10215 H 960.97 4.27743 6.51656 0
M  V30 10216 N 965.199 -0.738761 1.39212 0
M  V30 10217 C 966.476 -1.48982 1.26742 0
M  V30 10218 C 966.856 -2.10732 -0.12466 0
M  V30 10219 O 966.204 -1.98287 -1.13554 0
M  V30 10220 C 966.414 -2.54427 2.38889 0
M  V30 10221 C 967.762 -3.20915 2.78027 0
M  V30 10222 O 968.786 -2.64738 2.38311 0
M  V30 10223 O 967.645 -4.22558 3.46565 0
M  V30 10224 H 964.739 -0.661395 0.496473 0
M  V30 10225 H 967.285 -0.772907 1.51077 0
M  V30 10226 H 966.057 -2.07151 3.3197 0
M  V30 10227 H 965.68 -3.33682 2.162 0
M  V30 10228 N 966.677 -1.24326 -0.968545 0
M  V30 10229 C 967.587 -1.05194 -2.09694 0
M  V30 10230 C 968.603 0.00701291 -1.73999 0
M  V30 10231 O 969.779 -0.190981 -2.00492 0
M  V30 10232 C 966.844 -0.658075 -3.40397 0
M  V30 10233 C 965.905 -1.79341 -3.90045 0
M  V30 10234 C 965.138 -1.41824 -5.14511 0
M  V30 10235 O 965.361 -0.307693 -5.69569 0
M  V30 10236 O 964.295 -2.24358 -5.58522 0
M  V30 10237 H 968.121 -1.99791 -2.2873 0
M  V30 10238 H 965.706 -1.03138 -1.08088 0
M  V30 10239 H 967.588 -0.449911 -4.18991 0
M  V30 10240 H 966.263 0.258782 -3.22664 0
M  V30 10241 H 965.17 -2.05632 -3.12516 0
M  V30 10242 H 966.503 -2.68901 -4.12254 0
M  V30 10243 N 968.156 1.1691 -1.05688 0
M  V30 10244 C 969.119 2.19297 -0.666433 0
M  V30 10245 C 970.119 1.5826 0.284674 0
M  V30 10246 O 971.309 1.74068 0.0678757 0
M  V30 10247 C 968.441 3.40894 0.0203656 0
M  V30 10248 H 969.634 2.55354 -1.57272 0
M  V30 10249 H 967.187 1.31078 -0.851359 0
M  V30 10250 H 967.922 3.10388 0.939686 0
M  V30 10251 H 967.707 3.86446 -0.663464 0
M  V30 10252 H 969.197 4.16664 0.279475 0
M  V30 10253 N 969.634 0.838594 1.33437 0
M  V30 10254 C 970.88 0.434813 1.98084 0
M  V30 10255 C 971.213 -1.00331 1.66275 0
M  V30 10256 O 970.488 -1.70139 0.942501 0
M  V30 10257 C 970.771 0.655602 3.54082 0
M  V30 10258 C 970.624 2.14097 3.95578 0
M  V30 10259 C 971.943 0.101576 4.39983 0
M  V30 10260 H 969.062 0.159456 0.719544 0
M  V30 10261 H 971.704 1.05406 1.58081 0
M  V30 10262 H 969.854 0.128501 3.88287 0
M  V30 10263 H 971.526 2.73292 3.71631 0
M  V30 10264 H 969.769 2.62558 3.4532 0
M  V30 10265 H 970.44 2.24621 5.04231 0
M  V30 10266 H 972.916 0.552122 4.12421 0
M  V30 10267 H 971.792 0.28575 5.48156 0
M  V30 10268 H 972.053 -0.994616 4.30767 0
M  V30 10269 N 971.112 -1.45937 0.595003 0
M  V30 10270 C 972.342 -2.06399 0.0911607 0
M  V30 10271 C 972.75 -1.44236 -1.22444 0
M  V30 10272 O 972.093 -0.546265 -1.7539 0
M  V30 10273 C 972.155 -3.59242 -0.136079 0
M  V30 10274 C 971.819 -4.43668 1.09579 0
M  V30 10275 C 972.816 -4.79437 2.01088 0
M  V30 10276 C 970.501 -4.84616 1.32109 0
M  V30 10277 C 972.495 -5.54995 3.13464 0
M  V30 10278 C 970.182 -5.5993 2.44788 0
M  V30 10279 C 971.18 -5.95035 3.35294 0
M  V30 10280 O 970.868 -6.68825 4.46014 0
M  V30 10281 H 970.6 -0.673316 0.0601779 0
M  V30 10282 H 973.154 -1.88365 0.819005 0
M  V30 10283 H 971.384 -3.75629 -0.918676 0
M  V30 10284 H 973.073 -4.0159 -0.589954 0
M  V30 10285 H 973.839 -4.48371 1.84902 0
M  V30 10286 H 969.718 -4.56735 0.625662 0
M  V30 10287 H 973.262 -5.82314 3.84131 0
M  V30 10288 H 969.159 -5.90411 2.60931 0
M  V30 10289 H 969.927 -6.87262 4.44537 0
M  V30 10290 N 972.59 -0.333456 -1.54032 0
M  V30 10291 C 973.522 0.562174 -2.22199 0
M  V30 10292 C 974.535 1.07202 -1.22522 0
M  V30 10293 O 975.724 0.983897 -1.48935 0
M  V30 10294 C 972.824 1.78525 -2.88066 0
M  V30 10295 C 971.997 1.41242 -4.13968 0
M  V30 10296 C 971.056 2.49408 -4.63338 0
M  V30 10297 O 970.082 2.13138 -5.27789 0
M  V30 10298 N 971.284 3.805 -4.38406 0
M  V30 10299 H 974.049 -0.0215629 -2.99692 0
M  V30 10300 H 971.61 -0.157111 -1.61136 0
M  V30 10301 H 973.602 2.50298 -3.18014 0
M  V30 10302 H 972.172 2.2766 -2.14219 0
M  V30 10303 H 971.392 0.525887 -3.90676 0
M  V30 10304 H 972.68 1.13916 -4.95884 0
M  V30 10305 H 972.078 4.12761 -3.86839 0
M  V30 10306 H 970.635 4.48474 -4.72984 0
M  V30 10307 N 974.068 1.57479 -0.061844 0
M  V30 10308 C 975.031 2.1104 0.894127 0
M  V30 10309 C 976.031 1.03227 1.23292 0
M  V30 10310 O 977.221 1.29256 1.16784 0
M  V30 10311 C 974.353 2.6035 2.20069 0
M  V30 10312 H 975.546 2.96807 0.429619 0
M  V30 10313 H 973.099 1.55181 0.18672 0
M  V30 10314 H 973.834 1.78008 2.71079 0
M  V30 10315 H 973.619 3.39146 1.9678 0
M  V30 10316 H 975.109 3.019 2.88525 0
M  V30 10317 N 975.546 -0.211634 1.56173 0
M  V30 10318 C 976.795 -0.932647 1.78842 0
M  V30 10319 C 977.108 -1.85103 0.63217 0
M  V30 10320 O 978.314 -2.61143 0.742746 0
M  V30 10321 C 976.77 -1.70866 3.16753 0
M  V30 10322 C 976.378 -0.835934 4.40132 0
M  V30 10323 C 978.122 -2.4203 3.48743 0
M  V30 10324 C 976.029 -1.60987 5.69067 0
M  V30 10325 H 974.959 -0.351983 0.666801 0
M  V30 10326 H 977.61 -0.186284 1.82552 0
M  V30 10327 H 975.992 -2.4983 3.07247 0
M  V30 10328 H 977.166 -0.0861298 4.60719 0
M  V30 10329 H 975.481 -0.235941 4.15731 0
M  V30 10330 H 978.078 -3.00453 4.42303 0
M  V30 10331 H 978.421 -3.15406 2.71707 0
M  V30 10332 H 978.954 -1.70048 3.59623 0
M  V30 10333 H 975.693 -0.9192 6.49023 0
M  V30 10334 H 975.213 -2.33403 5.52524 0
M  V30 10335 H 976.892 -2.16798 6.09596 0
M  V30 10336 N 977.024 -1.50153 -0.478725 0
M  V30 10337 C 977.934 -1.71232 -1.60364 0
M  V30 10338 C 978.95 -0.595269 -1.63501 0
M  V30 10339 O 980.126 -0.872683 -1.81511 0
M  V30 10340 C 977.191 -1.79487 -2.96623 0
M  V30 10341 C 976.252 -3.03185 -3.03937 0
M  V30 10342 C 975.485 -3.11036 -4.33696 0
M  V30 10343 O 975.708 -2.2588 -5.23769 0
M  V30 10344 O 974.642 -4.03698 -4.46443 0
M  V30 10345 H 978.468 -2.66575 -1.45505 0
M  V30 10346 H 976.053 -1.34158 -0.65741 0
M  V30 10347 H 977.935 -1.8714 -3.77567 0
M  V30 10348 H 976.61 -0.873264 -3.11698 0
M  V30 10349 H 975.517 -3.01036 -2.22099 0
M  V30 10350 H 976.85 -3.94898 -2.93796 0
M  V30 10351 N 978.502 0.731368 -1.39602 0
M  V30 10352 C 979.412 1.87579 -1.40894 0
M  V30 10353 C 980.428 1.71336 -0.303319 0
M  V30 10354 O 981.604 1.93875 -0.545377 0
M  V30 10355 C 978.669 3.23211 -1.25442 0
M  V30 10356 C 977.73 3.51822 -2.46008 0
M  V30 10357 C 976.963 4.80982 -2.31284 0
M  V30 10358 O 977.186 5.54958 -1.31824 0
M  V30 10359 O 976.12 5.09574 -3.20341 0
M  V30 10360 H 979.946 1.89444 -2.3737 0
M  V30 10361 H 977.531 0.879675 -1.20756 0
M  V30 10362 H 979.413 4.04257 -1.18972 0
M  V30 10363 H 978.088 3.22108 -0.320637 0
M  V30 10364 H 976.995 2.70847 -2.58055 0
M  V30 10365 H 978.328 3.57707 -3.38093 0
M  V30 10366 N 979.98 1.24838 0.961938 0
M  V30 10367 C 981.228 1.08936 1.70227 0
M  V30 10368 C 981.549 -0.371582 1.91427 0
M  V30 10369 O 980.819 -1.26461 1.49614 0
M  V30 10370 H 979.399 0.400128 0.630799 0
M  V30 10371 H 982.061 1.56848 1.15692 0
M  V30 10372 H 981.157 1.59195 2.68446 0
M  V30 10373 N 981.458 -1.16348 1.06306 0
M  V30 10374 C 982.707 -1.8622 0.774909 0
M  V30 10375 C 983.02 -1.82598 -0.701245 0
M  V30 10376 O 984.226 -2.48051 -1.10377 0
M  V30 10377 C 982.682 -3.34182 1.33604 0
M  V30 10378 C 982.29 -3.46279 2.84245 0
M  V30 10379 C 984.034 -4.09309 1.12544 0
M  V30 10380 C 981.941 -4.88327 3.33602 0
M  V30 10381 H 980.871 -0.697574 0.286194 0
M  V30 10382 H 983.522 -1.31311 1.28179 0
M  V30 10383 H 981.904 -3.88698 0.756937 0
M  V30 10384 H 983.078 -3.01923 3.48108 0
M  V30 10385 H 981.393 -2.84585 3.03974 0
M  V30 10386 H 983.99 -5.14123 1.46909 0
M  V30 10387 H 984.333 -4.16251 0.0638129 0
M  V30 10388 H 984.866 -3.61032 1.67034 0
M  V30 10389 H 981.605 -4.86565 4.39244 0
M  V30 10390 H 981.125 -5.33307 2.74487 0
M  V30 10391 H 982.804 -5.57144 3.28937 0
M  V30 10392 N 982.937 -0.845659 -1.3299 0
M  V30 10393 C 984.353 -0.53433 -1.5039 0
M  V30 10394 C 984.553 0.936939 -1.78392 0
M  V30 10395 O 983.609 1.72043 -1.84818 0
M  V30 10396 C 984.922 -1.41354 -2.65404 0
M  V30 10397 C 986.47 -1.41303 -2.79289 0
M  V30 10398 C 986.945 -2.27724 -3.97373 0
M  V30 10399 N 988.436 -2.25471 -4.0462 0
M  V30 10400 C 989.171 -2.89074 -4.95201 0
M  V30 10401 N 988.667 -3.61755 -5.90851 0
M  V30 10402 N 990.46 -2.78508 -4.88251 0
M  V30 10403 H 982.611 -1.79798 -1.13078 0
M  V30 10404 H 984.874 -0.767454 -0.556524 0
M  V30 10405 H 984.58 -2.45936 -2.51413 0
M  V30 10406 H 984.454 -1.09445 -3.60973 0
M  V30 10407 H 986.841 -0.374899 -2.92709 0
M  V30 10408 H 986.922 -1.77222 -1.84461 0
M  V30 10409 H 986.566 -3.316 -3.84713 0
M  V30 10410 H 986.496 -1.89142 -4.9146 0
M  V30 10411 H 988.987 -1.72622 -3.3617 0
M  V30 10412 H 989.3 -4.07475 -6.56646 0
M  V30 10413 H 987.645 -3.65863 -5.90906 0
M  V30 10414 H 990.836 -2.21285 -4.12493 0
M  V30 10415 H 991.009 -3.2836 -5.58645 0
M  V30 10416 N 984.415 1.45619 -0.602734 0
M  V30 10417 C 985.831 1.57368 -0.26599 0
M  V30 10418 C 986.031 1.59485 1.23154 0
M  V30 10419 O 985.087 1.52254 2.01432 0
M  V30 10420 C 986.4 2.85863 -0.932881 0
M  V30 10421 C 987.948 2.9953 -0.908344 0
M  V30 10422 C 988.423 4.30789 -1.55515 0
M  V30 10423 N 989.914 4.37536 -1.52042 0
M  V30 10424 C 990.649 5.37758 -1.99008 0
M  V30 10425 N 990.145 6.44544 -2.54038 0
M  V30 10426 N 991.938 5.29085 -1.89805 0
M  V30 10427 H 984.089 1.42489 -1.57514 0
M  V30 10428 H 986.352 0.680948 -0.659556 0
M  V30 10429 H 986.058 2.90183 -1.98713 0
M  V30 10430 H 985.932 3.74467 -0.453209 0
M  V30 10431 H 988.319 2.9478 0.137344 0
M  V30 10432 H 988.4 2.12349 -1.42623 0
M  V30 10433 H 988.044 4.36297 -2.60014 0
M  V30 10434 H 987.974 5.16778 -1.01232 0
M  V30 10435 H 990.465 3.60972 -1.11837 0
M  V30 10436 H 990.778 7.17258 -2.87682 0
M  V30 10437 H 989.123 6.45308 -2.58075 0
M  V30 10438 H 992.314 4.44566 -1.46556 0
M  V30 10439 H 992.487 6.07043 -2.26722 0
M  V30 10440 N 985.893 0.34162 1.53853 0
M  V30 10441 C 987.139 -0.255862 2.01179 0
M  V30 10442 C 987.472 -1.50356 1.22909 0
M  V30 10443 O 986.747 -1.91913 0.316198 0
M  V30 10444 C 987.03 -0.571934 3.55529 0
M  V30 10445 C 986.883 0.687727 4.44511 0
M  V30 10446 C 988.202 -1.38233 4.17827 0
M  V30 10447 H 985.321 -0.091521 0.731295 0
M  V30 10448 H 987.963 0.461775 1.84303 0
M  V30 10449 H 986.113 -1.18331 3.70041 0
M  V30 10450 H 987.785 1.32572 4.4184 0
M  V30 10451 H 986.028 1.313 4.13452 0
M  V30 10452 H 986.699 0.421858 5.50386 0
M  V30 10453 H 989.175 -0.865374 4.07002 0
M  V30 10454 H 988.051 -1.57223 5.25901 0
M  V30 10455 H 988.312 -2.38386 3.72323 0
M  V30 10456 N 987.371 -1.57444 0.0701946 0
M  V30 10457 C 988.319 -2.13834 -0.915302 0
M  V30 10458 C 989.313 -1.07483 -1.30934 0
M  V30 10459 O 990.519 -1.25865 -1.28678 0
M  V30 10460 H 986.894 -0.683716 -0.313108 0
M  V30 10461 H 988.865 -2.95503 -0.414758 0
M  V30 10462 C 987.614 -2.71355 -2.17398 0
M  V30 10463 H 986.937 -3.52861 -1.87961 0
M  V30 10464 H 988.377 -3.1441 -2.84469 0
M  V30 10465 C 986.836 -1.66038 -2.93143 0
M  V30 10466 O 987.366 -1.08443 -3.86786 0
M  V30 10467 N 985.572 -1.3711 -2.56221 0
M  V30 10468 H 985.119 -1.84135 -1.80145 0
M  V30 10469 H 985.077 -0.66877 -3.07205 0
M  V30 10470 N 988.849 0.203349 -1.56283 0
M  V30 10471 C 989.782 1.27982 -1.88934 0
M  V30 10472 C 990.76 1.44345 -0.748555 0
M  V30 10473 O 991.944 1.59867 -0.998741 0
M  V30 10474 C 989.071 2.64762 -2.11231 0
M  V30 10475 C 988.117 2.65315 -3.33932 0
M  V30 10476 S 988.95 2.17568 -4.8931 0
M  V30 10477 C 990.106 3.56189 -5.14665 0
M  V30 10478 H 990.339 1.00095 -2.79943 0
M  V30 10479 H 987.872 0.406458 -1.48954 0
M  V30 10480 H 989.83 3.43501 -2.2476 0
M  V30 10481 H 988.491 2.89864 -1.20986 0
M  V30 10482 H 987.684 3.6587 -3.46634 0
M  V30 10483 H 987.286 1.94652 -3.19353 0
M  V30 10484 H 989.578 4.52001 -5.0468 0
M  V30 10485 H 990.521 3.48387 -6.16467 0
M  V30 10486 H 990.929 3.50719 -4.42331 0
M  V30 10487 N 990.327 1.50405 0.470755 0
M  V30 10488 C 991.275 1.6982 1.58946 0
M  V30 10489 C 992.269 0.56407 1.59733 0
M  V30 10490 O 993.475 0.744576 1.63878 0
M  V30 10491 H 989.85 0.536016 0.527438 0
M  V30 10492 H 991.821 2.63662 1.39732 0
M  V30 10493 C 990.57 1.80986 2.96883 0
M  V30 10494 H 989.893 2.67645 2.96996 0
M  V30 10495 H 991.333 1.98596 3.74614 0
M  V30 10496 C 989.792 0.561551 3.32187 0
M  V30 10497 O 990.322 -0.299136 4.00585 0
M  V30 10498 N 988.528 0.415476 2.87615 0
M  V30 10499 H 988.075 1.11691 2.32127 0
M  V30 10500 H 988.033 -0.418592 3.11601 0
M  V30 10501 N 991.805 -0.723954 1.39988 0
M  V30 10502 C 992.768 -1.81973 1.3935 0
M  V30 10503 C 993.768 -1.58187 0.288702 0
M  V30 10504 O 994.958 -1.65383 0.547181 0
M  V30 10505 C 992.09 -3.19937 1.177 0
M  V30 10506 H 993.283 -1.83939 2.36868 0
M  V30 10507 H 990.836 -0.928742 1.25714 0
M  V30 10508 H 991.571 -3.23625 0.209093 0
M  V30 10509 H 991.356 -3.386 1.97719 0
M  V30 10510 H 992.846 -3.99981 1.20022 0
M  V30 10511 N 993.283 -1.25346 -0.955304 0
M  V30 10512 C 994.246 -1.05754 -2.03344 0
M  V30 10513 C 995.246 -0.0105743 -1.60797 0
M  V30 10514 O 996.436 -0.252699 -1.72357 0
M  V30 10515 C 993.568 -0.605536 -3.35479 0
M  V30 10516 H 994.761 -2.01459 -2.22158 0
M  V30 10517 H 992.314 -1.07744 -1.1323 0
M  V30 10518 H 993.049 0.354154 -3.2236 0
M  V30 10519 H 992.834 -1.36134 -3.67709 0
M  V30 10520 H 994.324 -0.489867 -4.14717 0
M  V30 10521 N 994.761 1.15782 -1.06922 0
M  V30 10522 C 995.724 2.18578 -0.689654 0
M  V30 10523 C 996.724 1.58553 0.267872 0
M  V30 10524 O 997.914 1.7413 0.0494097 0
M  V30 10525 C 995.046 3.40896 -0.0157919 0
M  V30 10526 H 996.239 2.53672 -1.59971 0
M  V30 10527 H 993.792 1.30168 -0.865214 0
M  V30 10528 H 994.527 3.11367 0.906712 0
M  V30 10529 H 994.312 3.85721 -0.704415 0
M  V30 10530 H 995.802 4.16937 0.235266 0
M  V30 10531 N 996.239 0.8527 1.3254 0
M  V30 10532 C 997.655 0.542298 1.50104 0
M  V30 10533 C 997.855 -0.927465 1.78886 0
M  V30 10534 O 996.911 -1.7106 1.85728 0
M  V30 10535 C 998.224 1.4276 2.64651 0
M  V30 10536 C 999.772 1.42782 2.78536 0
M  V30 10537 C 1000.25 2.29828 3.9616 0
M  V30 10538 N 1001.74 2.27613 4.03418 0
M  V30 10539 C 1002.47 2.91696 4.93661 0
M  V30 10540 N 1001.97 3.64883 5.88925 0
M  V30 10541 N 1003.76 2.81094 4.86768 0
M  V30 10542 H 995.913 1.80395 1.12123 0
M  V30 10543 H 998.176 0.770394 0.552446 0
M  V30 10544 H 997.882 2.47266 2.50105 0
M  V30 10545 H 997.756 1.11358 3.60388 0
M  V30 10546 H 1000.14 0.390417 2.92506 0
M  V30 10547 H 1000.22 1.78198 1.83519 0
M  V30 10548 H 999.868 3.33635 3.82949 0
M  V30 10549 H 999.798 1.91746 4.9045 0
M  V30 10550 H 1002.29 1.74402 3.3525 0
M  V30 10551 H 1002.6 4.10952 6.54476 0
M  V30 10552 H 1000.95 3.68991 5.88957 0
M  V30 10553 H 1004.14 2.23469 4.11314 0
M  V30 10554 H 1004.31 3.31318 5.56895 0
M  V30 10555 N 997.718 -1.45297 0.610449 0
M  V30 10556 C 999.129 -1.85715 0.191488 0
M  V30 10557 C 999.48 -1.51036 -1.25229 0
M  V30 10558 O 998.605 -0.938422 -1.94994 0
M  V30 10559 C 999.2 -3.37082 0.340747 0
M  V30 10560 C 997.759 -3.76393 -0.0235433 0
M  V30 10561 C 996.906 -2.69237 0.663849 0
M  V30 10562 H 999.857 -1.36058 0.816948 0
M  V30 10563 H 999.878 -3.78105 -0.426233 0
M  V30 10564 H 999.39 -3.62291 1.39164 0
M  V30 10565 H 997.491 -3.56801 -1.07351 0
M  V30 10566 H 997.604 -4.77653 0.372102 0
M  V30 10567 H 995.968 -2.54499 0.101204 0
M  V30 10568 H 996.751 -2.97281 1.71694 0
M  V30 10569 N 999.196 -0.349774 -1.5367 0
M  V30 10570 C 1000.43 0.245682 -2.05134 0
M  V30 10571 C 1000.83 1.44269 -1.22406 0
M  V30 10572 O 1000.18 1.81938 -0.25379 0
M  V30 10573 C 1000.24 0.718439 -3.52248 0
M  V30 10574 C 999.903 -0.35975 -4.55582 0
M  V30 10575 C 1000.9 -1.20449 -5.05755 0
M  V30 10576 C 998.585 -0.515463 -4.99648 0
M  V30 10577 C 1000.58 -2.19043 -5.98581 0
M  V30 10578 C 998.266 -1.50479 -5.92283 0
M  V30 10579 C 999.264 -2.34072 -6.41638 0
M  V30 10580 O 998.952 -3.31319 -7.3245 0
M  V30 10581 H 998.684 0.0501122 -0.67414 0
M  V30 10582 H 1001.24 -0.5018 -1.99176 0
M  V30 10583 H 999.468 1.51727 -3.55691 0
M  V30 10584 H 1001.16 1.23513 -3.86651 0
M  V30 10585 H 1001.92 -1.09531 -4.7247 0
M  V30 10586 H 997.802 0.12537 -4.60829 0
M  V30 10587 H 1001.35 -2.84327 -6.37027 0
M  V30 10588 H 997.243 -1.61451 -6.24983 0
M  V30 10589 H 998.011 -3.26863 -7.50402 0
M  V30 10590 N 1000.67 1.57404 -0.0785433 0
M  V30 10591 C 1001.62 2.09632 0.896565 0
M  V30 10592 C 1002.61 1.00754 1.25449 0
M  V30 10593 O 1003.8 1.27053 1.23234 0
M  V30 10594 C 1000.93 2.66694 2.16169 0
M  V30 10595 C 1000.01 3.82588 1.82994 0
M  V30 10596 N 1000.41 4.91286 1.203 0
M  V30 10597 C 998.704 3.92011 2.12704 0
M  V30 10598 C 999.405 5.72077 1.05367 0
M  V30 10599 N 998.381 5.20567 1.56559 0
M  V30 10600 H 1002.18 2.9106 0.407621 0
M  V30 10601 H 999.697 1.61917 0.125155 0
M  V30 10602 H 1001.69 3.0243 2.86952 0
M  V30 10603 H 1000.35 1.86716 2.65645 0
M  V30 10604 H 1001.36 5.10509 0.871817 0
M  V30 10605 H 998.042 3.23018 2.6451 0
M  V30 10606 H 999.432 6.69523 0.564685 0
M  V30 10607 N 1002.15 -0.195058 1.56388 0
M  V30 10608 C 1003.4 -0.913626 1.79821 0
M  V30 10609 C 1003.71 -1.84422 0.651767 0
M  V30 10610 O 1004.92 -2.6034 0.770402 0
M  V30 10611 C 1003.38 -1.67497 3.18548 0
M  V30 10612 C 1002.98 -0.789205 4.40994 0
M  V30 10613 C 1004.73 -2.38318 3.5129 0
M  V30 10614 C 1002.63 -1.54942 5.70742 0
M  V30 10615 H 1001.56 -0.344891 0.670497 0
M  V30 10616 H 1004.22 -0.166912 1.82739 0
M  V30 10617 H 1002.6 -2.46557 3.0988 0
M  V30 10618 H 1003.77 -0.0372595 4.60785 0
M  V30 10619 H 1002.09 -0.191834 4.15958 0
M  V30 10620 H 1004.68 -2.95745 4.45465 0
M  V30 10621 H 1005.03 -3.12507 2.75037 0
M  V30 10622 H 1005.56 -1.66224 3.61406 0
M  V30 10623 H 1002.3 -0.85031 6.49962 0
M  V30 10624 H 1001.82 -2.2753 5.54969 0
M  V30 10625 H 1003.5 -2.1032 6.11861 0
M  V30 10626 N 1003.63 -1.50653 -0.462772 0
M  V30 10627 C 1004.56 -1.66286 -1.5774 0
M  V30 10628 C 1005.57 -0.544094 -1.53439 0
M  V30 10629 O 1006.76 -0.817566 -1.58676 0
M  V30 10630 C 1003.86 -1.63893 -2.96635 0
M  V30 10631 C 1003.04 -2.91939 -3.25716 0
M  V30 10632 C 1002.1 -2.82076 -4.44206 0
M  V30 10633 O 1001.12 -3.56032 -4.44106 0
M  V30 10634 N 1002.32 -1.96196 -5.4634 0
M  V30 10635 H 1005.09 -2.6243 -1.44742 0
M  V30 10636 H 1002.65 -1.48221 -0.651326 0
M  V30 10637 H 1004.64 -1.54897 -3.73884 0
M  V30 10638 H 1003.21 -0.75449 -3.03358 0
M  V30 10639 H 1002.43 -3.14998 -2.37002 0
M  V30 10640 H 1003.72 -3.7675 -3.4196 0
M  V30 10641 H 1003.12 -1.35439 -5.49247 0
M  V30 10642 H 1001.67 -1.93097 -6.2254 0
M  V30 10643 N 1005.11 0.71652 -1.4037 0
M  V30 10644 C 1006.06 1.8306 -1.40562 0
M  V30 10645 C 1007.03 1.64009 -0.262697 0
M  V30 10646 O 1008.21 1.85157 -0.460619 0
M  V30 10647 C 1005.35 3.2076 -1.27307 0
M  V30 10648 C 1004.46 3.51389 -2.51296 0
M  V30 10649 C 1003.6 4.78589 -2.30491 0
M  V30 10650 C 1002.64 5.02119 -3.50061 0
M  V30 10651 N 1001.77 6.20533 -3.28457 0
M  V30 10652 H 1006.61 1.82231 -2.35788 0
M  V30 10653 H 1004.15 0.890198 -1.17106 0
M  V30 10654 H 1006.11 4.00274 -1.17628 0
M  V30 10655 H 1004.74 3.2082 -0.357005 0
M  V30 10656 H 1003.79 2.66436 -2.71507 0
M  V30 10657 H 1005.1 3.64686 -3.40302 0
M  V30 10658 H 1004.26 5.66119 -2.1816 0
M  V30 10659 H 1003 4.67499 -1.38909 0
M  V30 10660 H 1002 4.13044 -3.6287 0
M  V30 10661 H 1003.23 5.15082 -4.42569 0
M  V30 10662 H 1001.17 6.10695 -2.39556 0
M  V30 10663 H 1001.09 6.34502 -4.11027 0
M  V30 10664 H 1002.36 7.10853 -3.19857 0
M  V30 10665 N 1006.59 1.25851 0.948643 0
M  V30 10666 C 1007.83 1.12127 1.69703 0
M  V30 10667 C 1008.19 -0.333318 1.89491 0
M  V30 10668 O 1007.48 -1.24181 1.4591 0
M  V30 10669 C 1007.67 1.81565 3.07846 0
M  V30 10670 C 1007.5 3.33626 3.01535 0
M  V30 10671 C 1006.27 4.02897 3.04962 0
M  V30 10672 C 1008.47 4.29934 2.82243 0
M  V30 10673 N 1006.45 5.41688 2.88872 0
M  V30 10674 C 1007.82 5.5585 2.74646 0
M  V30 10675 C 1009.88 4.20276 2.66969 0
M  V30 10676 C 1008.58 6.73212 2.53335 0
M  V30 10677 C 1010.61 5.37336 2.4703 0
M  V30 10678 C 1009.97 6.62196 2.40158 0
M  V30 10679 H 1006.07 0.465047 0.628693 0
M  V30 10680 H 1008.65 1.59035 1.12321 0
M  V30 10681 H 1006.82 1.37143 3.63382 0
M  V30 10682 H 1008.56 1.6053 3.715 0
M  V30 10683 H 1005.31 3.54201 3.14386 0
M  V30 10684 H 1005.74 6.14544 2.84015 0
M  V30 10685 H 1010.38 3.24485 2.71053 0
M  V30 10686 H 1008.1 7.69107 2.47993 0
M  V30 10687 H 1011.68 5.31728 2.36128 0
M  V30 10688 H 1010.56 7.51249 2.24933 0
M  V30 10689 N 1008.06 -1.15214 1.07534 0
M  V30 10690 C 1009.03 -2.18209 0.701237 0
M  V30 10691 C 1010.03 -1.58693 -0.25946 0
M  V30 10692 O 1011.22 -1.74154 -0.0401744 0
M  V30 10693 C 1008.35 -3.40883 0.0338703 0
M  V30 10694 H 1009.54 -2.5282 1.61314 0
M  V30 10695 H 1007.1 -1.29707 0.872105 0
M  V30 10696 H 1007.83 -3.11843 -0.890187 0
M  V30 10697 H 1007.62 -3.85342 0.72486 0
M  V30 10698 H 1009.11 -4.17056 -0.213152 0
M  V30 10699 N 1009.54 -0.859717 -1.32086 0
M  V30 10700 C 1010.79 -0.461779 -1.96343 0
M  V30 10701 C 1011.1 0.988837 -1.68764 0
M  V30 10702 O 1012.31 1.49244 -2.268 0
M  V30 10703 C 1010.77 -0.77484 -3.5146 0
M  V30 10704 C 1010.37 -2.24153 -3.87891 0
M  V30 10705 C 1012.12 -0.444873 -4.22162 0
M  V30 10706 C 1010.03 -2.49754 -5.36075 0
M  V30 10707 H 1008.96 -0.168951 -0.734828 0
M  V30 10708 H 1011.61 -1.0512 -1.50406 0
M  V30 10709 H 1009.99 -0.114792 -3.95834 0
M  V30 10710 H 1011.16 -2.94378 -3.54511 0
M  V30 10711 H 1009.48 -2.53651 -3.30227 0
M  V30 10712 H 1012.07 -0.613508 -5.31169 0
M  V30 10713 H 1012.42 0.61391 -4.11749 0
M  V30 10714 H 1012.95 -1.06103 -3.83389 0
M  V30 10715 H 1009.69 -3.54276 -5.51515 0
M  V30 10716 H 1009.21 -1.84112 -5.70844 0
M  V30 10717 H 1010.89 -2.3396 -6.03218 0
M  V30 10718 N 1011.02 1.44971 -0.618145 0
M  V30 10719 C 1011.95 2.33357 0.0815955 0
M  V30 10720 C 1012.93 1.47451 0.848072 0
M  V30 10721 O 1014.12 1.762 0.816532 0
M  V30 10722 C 1011.25 3.30324 1.07253 0
M  V30 10723 C 1010.2 4.25948 0.418563 0
M  V30 10724 C 1009.53 5.12685 1.51849 0
M  V30 10725 C 1010.83 5.18024 -0.66697 0
M  V30 10726 H 1012.52 2.92115 -0.656442 0
M  V30 10727 H 1010.07 1.40465 -0.317129 0
M  V30 10728 H 1012.02 3.91033 1.57069 0
M  V30 10729 H 1010.74 2.69748 1.8413 0
M  V30 10730 H 1009.4 3.66553 -0.0588308 0
M  V30 10731 H 1009.05 4.4847 2.2778 0
M  V30 10732 H 1008.75 5.7747 1.08637 0
M  V30 10733 H 1010.27 5.76264 2.01871 0
M  V30 10734 H 1011.69 5.72744 -0.252448 0
M  V30 10735 H 1010.09 5.91343 -1.02146 0
M  V30 10736 H 1011.16 4.59817 -1.53936 0
M  V30 10737 N 1012.5 0.357919 1.53482 0
M  V30 10738 C 1013.41 -0.500273 2.29204 0
M  V30 10739 C 1014.42 -1.09936 1.3487 0
M  V30 10740 O 1015.6 -1.11195 1.67921 0
M  V30 10741 C 1012.67 -1.62828 3.06085 0
M  V30 10742 C 1011.73 -1.05751 4.16071 0
M  V30 10743 C 1010.96 -2.13176 4.89277 0
M  V30 10744 O 1011.18 -3.34153 4.62274 0
M  V30 10745 O 1010.12 -1.76663 5.7539 0
M  V30 10746 H 1013.94 0.115696 3.0348 0
M  V30 10747 H 1011.53 0.122527 1.48897 0
M  V30 10748 H 1013.41 -2.28427 3.54117 0
M  V30 10749 H 1012.08 -2.22979 2.34653 0
M  V30 10750 H 1010.99 -0.365642 3.72309 0
M  V30 10751 H 1012.32 -0.500661 4.89647 0
M  V30 10752 N 1013.98 -1.5736 0.0868897 0
M  V30 10753 C 1015.39 -1.57304 -0.269762 0
M  V30 10754 C 1015.59 -1.09745 -1.68992 0
M  V30 10755 O 1014.65 -0.77017 -2.40468 0
M  V30 10756 C 1015.96 -3.00628 -0.0656646 0
M  V30 10757 C 1017.51 -3.12713 -0.134045 0
M  V30 10758 C 1017.98 -4.57981 0.0419569 0
M  V30 10759 N 1019.48 -4.63198 -0.0131501 0
M  V30 10760 C 1020.21 -5.73316 0.0983964 0
M  V30 10761 N 1019.71 -6.92296 0.264315 0
M  V30 10762 N 1021.5 -5.62086 0.0402517 0
M  V30 10763 H 1013.65 -1.86585 1.01487 0
M  V30 10764 H 1015.91 -0.860843 0.397055 0
M  V30 10765 H 1015.62 -3.39592 0.914891 0
M  V30 10766 H 1015.49 -3.68367 -0.811522 0
M  V30 10767 H 1017.88 -2.73627 -1.1051 0
M  V30 10768 H 1017.96 -2.47582 0.643167 0
M  V30 10769 H 1017.61 -4.9776 1.00984 0
M  V30 10770 H 1017.54 -5.21162 -0.754847 0
M  V30 10771 H 1020.03 -3.77644 -0.139183 0
M  V30 10772 H 1020.34 -7.72047 0.341165 0
M  V30 10773 H 1018.68 -6.94353 0.299876 0
M  V30 10774 H 1021.88 -4.68017 -0.0881801 0
M  V30 10775 H 1022.05 -6.47868 0.130635 0
M  V30 10776 N 1015.45 0.186762 -1.56489 0
M  V30 10777 C 1016.73 0.932229 -1.71956 0
M  V30 10778 C 1017.11 2.01037 -0.644006 0
M  V30 10779 O 1016.46 2.259 0.343694 0
M  V30 10780 C 1016.67 1.51106 -3.14592 0
M  V30 10781 C 1018.02 1.98997 -3.75081 0
M  V30 10782 O 1019.04 1.60931 -3.17773 0
M  V30 10783 O 1017.9 2.69067 -4.75673 0
M  V30 10784 H 1014.99 0.437736 -0.701652 0
M  V30 10785 H 1017.54 0.175803 -1.68787 0
M  V30 10786 H 1016.31 0.734327 -3.84348 0
M  V30 10787 H 1015.94 2.33209 -3.22024 0
M  V30 10788 N 1016.93 1.50896 0.454776 0
M  V30 10789 C 1018.18 1.62699 1.20562 0
M  V30 10790 C 1018.51 0.334943 1.91594 0
M  V30 10791 O 1017.76 -0.680106 1.83502 0
M  V30 10792 C 1018.06 2.76839 2.26042 0
M  V30 10793 C 1017.73 4.16745 1.72147 0
M  V30 10794 C 1016.39 4.54809 1.5717 0
M  V30 10795 C 1018.74 5.04118 1.32341 0
M  V30 10796 C 1016.07 5.7797 1.00835 0
M  V30 10797 C 1018.42 6.27842 0.774419 0
M  V30 10798 C 1017.09 6.64694 0.611415 0
M  V30 10799 H 1016.36 0.595358 0.441169 0
M  V30 10800 H 1019 1.84879 0.499202 0
M  V30 10801 H 1017.31 2.48812 3.02655 0
M  V30 10802 H 1019 2.83173 2.83926 0
M  V30 10803 H 1015.59 3.86725 1.84775 0
M  V30 10804 H 1019.78 4.75331 1.42739 0
M  V30 10805 H 1015.03 6.05183 0.869669 0
M  V30 10806 H 1019.21 6.94896 0.457389 0
M  V30 10807 H 1016.84 7.60004 0.172751 0
M  V30 10808 N 1018.41 -0.709066 1.40748 0
M  V30 10809 C 1019.64 -1.50313 1.42901 0
M  V30 10810 C 1020.06 -1.88072 0.032213 0
M  V30 10811 O 1019.42 -1.53716 -0.96131 0
M  V30 10812 C 1019.47 -2.75074 2.33166 0
M  V30 10813 O 1018.57 -3.72036 1.7794 0
M  V30 10814 H 1017.91 -0.452934 0.485538 0
M  V30 10815 H 1020.44 -0.872712 1.85054 0
M  V30 10816 H 1020.45 -3.23532 2.48578 0
M  V30 10817 H 1019.13 -2.46927 3.34664 0
M  V30 10818 H 1017.7 -3.30911 1.71908 0
M  V30 10819 N 1019.89 -1.26353 -0.941956 0
M  V30 10820 C 1021.14 -1.11241 -1.68251 0
M  V30 10821 C 1021.45 0.344055 -1.9255 0
M  V30 10822 O 1022.66 0.615832 -2.64423 0
M  V30 10823 C 1021.11 -1.94269 -3.02965 0
M  V30 10824 C 1020.72 -3.44485 -2.86415 0
M  V30 10825 C 1022.47 -1.87764 -3.80716 0
M  V30 10826 C 1020.37 -4.19763 -4.16597 0
M  V30 10827 H 1019.3 -0.412694 -0.63103 0
M  V30 10828 H 1021.95 -1.50656 -1.04762 0
M  V30 10829 H 1020.34 -1.47687 -3.6743 0
M  V30 10830 H 1021.51 -3.9883 -2.30805 0
M  V30 10831 H 1019.82 -3.52218 -2.22107 0
M  V30 10832 H 1022.42 -2.41292 -4.77161 0
M  V30 10833 H 1022.76 -0.848195 -4.07568 0
M  V30 10834 H 1023.3 -2.32165 -3.23024 0
M  V30 10835 H 1020.04 -5.23173 -3.9493 0
M  V30 10836 H 1019.56 -3.70198 -4.71925 0
M  V30 10837 H 1021.24 -4.28168 -4.85058 0
M  V30 10838 N 1021.37 1.14642 -1.08144 0
M  V30 10839 C 1022.59 1.90025 -0.830972 0
M  V30 10840 C 1023.02 1.77904 0.610879 0
M  V30 10841 O 1022.38 1.11735 1.42776 0
M  V30 10842 C 1022.42 3.38085 -1.25422 0
M  V30 10843 O 1021.53 4.10412 -0.404486 0
M  V30 10844 H 1020.87 0.591327 -0.302041 0
M  V30 10845 H 1023.4 1.4513 -1.44216 0
M  V30 10846 H 1023.41 3.88894 -1.23391 0
M  V30 10847 H 1022.08 3.46226 -2.30435 0
M  V30 10848 H 1020.66 3.69693 -0.487987 0
M  V30 10849 N 1022.85 0.866709 1.31628 0
M  V30 10850 C 1024.09 0.475086 1.96437 0
M  V30 10851 C 1024.41 -0.975179 1.68865 0
M  V30 10852 O 1023.68 -1.68317 1.0023 0
M  V30 10853 H 1022.26 0.172695 0.726764 0
M  V30 10854 H 1024.93 1.10578 1.60494 0
M  V30 10855 H 1024.02 0.630123 3.05673 0
M  V30 10856 N 1024.32 -1.44642 0.625825 0
M  V30 10857 C 1025.57 -2.01695 0.127948 0
M  V30 10858 C 1025.89 -1.49439 -1.25271 0
M  V30 10859 O 1025.16 -0.695873 -1.83124 0
M  V30 10860 H 1023.74 -0.745685 0.0443096 0
M  V30 10861 H 1026.4 -1.7721 0.811332 0
M  V30 10862 H 1025.5 -3.11966 0.0915933 0
M  V30 10863 N 1025.8 -0.366053 -1.5329 0
M  V30 10864 C 1026.71 0.488111 -2.29466 0
M  V30 10865 C 1027.73 1.09219 -1.35452 0
M  V30 10866 O 1028.9 1.10303 -1.68509 0
M  V30 10867 C 1025.97 1.61202 -3.06944 0
M  V30 10868 C 1025.03 1.03543 -4.16626 0
M  V30 10869 C 1024.26 2.10578 -4.904 0
M  V30 10870 O 1024.49 3.31697 -4.6404 0
M  V30 10871 O 1023.42 1.73609 -5.76319 0
M  V30 10872 H 1027.25 -0.131789 -3.03414 0
M  V30 10873 H 1024.83 -0.130421 -1.4883 0
M  V30 10874 H 1026.71 2.26546 -3.55324 0
M  V30 10875 H 1025.39 2.21732 -2.35832 0
M  V30 10876 H 1024.29 0.345892 -3.72498 0
M  V30 10877 H 1025.63 0.474687 -4.89906 0
M  V30 10878 N 1027.28 1.57312 -0.0952337 0
M  V30 10879 C 1028.21 2.17056 0.860753 0
M  V30 10880 C 1029.19 1.10394 1.29411 0
M  V30 10881 O 1030.38 1.38532 1.36098 0
M  V30 10882 C 1027.51 2.751 2.11984 0
M  V30 10883 C 1026.46 3.87136 1.8251 0
M  V30 10884 C 1025.79 4.31883 3.15247 0
M  V30 10885 C 1027.09 5.10326 1.11194 0
M  V30 10886 H 1028.78 2.97192 0.362983 0
M  V30 10887 H 1026.33 1.42955 0.173151 0
M  V30 10888 H 1028.28 3.15547 2.79299 0
M  V30 10889 H 1027 1.92219 2.64044 0
M  V30 10890 H 1025.66 3.47229 1.17592 0
M  V30 10891 H 1025.31 3.45893 3.65195 0
M  V30 10892 H 1025.01 5.0742 2.96309 0
M  V30 10893 H 1026.53 4.74964 3.83721 0
M  V30 10894 H 1027.95 5.47942 1.6862 0
M  V30 10895 H 1026.34 5.91293 1.02435 0
M  V30 10896 H 1027.41 4.84807 0.0947227 0
M  V30 10897 N 1028.76 -0.17846 1.56586 0
M  V30 10898 C 1030.01 -0.894464 1.81228 0
M  V30 10899 C 1030.33 -1.83089 0.671062 0
M  V30 10900 O 1029.6 -1.93439 -0.309557 0
M  V30 10901 H 1028.18 -0.333288 0.668527 0
M  V30 10902 H 1030.84 -0.179986 1.94067 0
M  V30 10903 H 1029.93 -1.47565 2.75011 0
M  V30 10904 N 1030.24 -1.51135 -0.446768 0
M  V30 10905 C 1031.65 -1.55919 -1.02694 0
M  V30 10906 C 1032 -0.377038 -1.92543 0
M  V30 10907 O 1031.12 0.507295 -2.1037 0
M  V30 10908 C 1031.72 -2.8257 -1.86922 0
M  V30 10909 C 1030.28 -2.89956 -2.40005 0
M  V30 10910 C 1029.42 -2.50482 -1.18971 0
M  V30 10911 H 1032.37 -1.57048 -0.228403 0
M  V30 10912 H 1032.4 -2.65799 -2.7227 0
M  V30 10913 H 1031.91 -3.6859 -1.21502 0
M  V30 10914 H 1030.01 -2.08343 -3.08907 0
M  V30 10915 H 1030.12 -3.93399 -2.73448 0
M  V30 10916 H 1028.49 -2.03466 -1.53211 0
M  V30 10917 H 1029.27 -3.38837 -0.551762 0
M  V30 10918 N 1031.71 0.701592 -1.41122 0
M  V30 10919 C 1032.94 1.49049 -1.43499 0
M  V30 10920 C 1033.36 1.88761 -0.0385684 0
M  V30 10921 O 1032.71 1.56384 0.940755 0
M  V30 10922 C 1032.76 2.7569 -2.33832 0
M  V30 10923 O 1032.49 2.37653 -3.68039 0
M  V30 10924 C 1033.99 3.69479 -2.44949 0
M  V30 10925 H 1031.21 0.459519 -0.488961 0
M  V30 10926 H 1033.75 0.864318 -1.85337 0
M  V30 10927 H 1031.91 3.34559 -1.95318 0
M  V30 10928 H 1032.32 3.19241 -4.16156 0
M  V30 10929 H 1033.79 4.55139 -3.12334 0
M  V30 10930 H 1034.27 4.13553 -1.47887 0
M  V30 10931 H 1034.88 3.16517 -2.84072 0
M  V30 10932 N 1033.19 1.2685 0.935242 0
M  V30 10933 C 1034.12 1.03244 2.03509 0
M  V30 10934 C 1035.1 -0.0447323 1.62538 0
M  V30 10935 O 1036.29 0.0988905 1.8824 0
M  V30 10936 C 1033.41 0.564626 3.33961 0
M  V30 10937 C 1032.46 1.63524 3.93906 0
M  V30 10938 S 1033.29 3.22577 4.27439 0
M  V30 10939 C 1034.45 2.77579 5.60982 0
M  V30 10940 H 1034.68 1.96367 2.2322 0
M  V30 10941 H 1032.21 1.10597 1.07739 0
M  V30 10942 H 1034.17 0.301388 4.09392 0
M  V30 10943 H 1032.83 -0.346419 3.12184 0
M  V30 10944 H 1032.03 1.25905 4.8802 0
M  V30 10945 H 1031.63 1.85017 3.25031 0
M  V30 10946 H 1033.92 2.22412 6.39952 0
M  V30 10947 H 1034.86 3.70408 6.03493 0
M  V30 10948 H 1035.27 2.16956 5.21143 0
M  V30 10949 N 1034.67 -1.14067 1.0875 0
M  V30 10950 C 1035.62 -2.19261 0.720633 0
M  V30 10951 C 1036.59 -1.63462 -0.294847 0
M  V30 10952 O 1037.77 -1.89967 -0.178058 0
M  V30 10953 C 1034.91 -3.44816 0.139873 0
M  V30 10954 C 1034.03 -4.1475 1.20856 0
M  V30 10955 C 1033.16 -5.27899 0.591285 0
M  V30 10956 C 1032.2 -5.89672 1.64176 0
M  V30 10957 N 1031.34 -6.94264 1.04603 0
M  V30 10958 H 1036.18 -2.49991 1.62198 0
M  V30 10959 H 1033.71 -1.22757 0.810497 0
M  V30 10960 H 1035.67 -4.16648 -0.214587 0
M  V30 10961 H 1034.3 -3.14558 -0.724774 0
M  V30 10962 H 1033.35 -3.41272 1.6804 0
M  V30 10963 H 1034.67 -4.56753 2.00446 0
M  V30 10964 H 1033.82 -6.06417 0.185271 0
M  V30 10965 H 1032.56 -4.87128 -0.236236 0
M  V30 10966 H 1031.56 -5.09854 2.05739 0
M  V30 10967 H 1032.79 -6.32517 2.47182 0
M  V30 10968 H 1030.73 -6.55562 0.239664 0
M  V30 10969 H 1030.65 -7.34771 1.77898 0
M  V30 10970 H 1031.92 -7.7665 0.665989 0
M  V30 10971 N 1036.15 -0.873678 -1.31166 0
M  V30 10972 C 1037.08 -0.348011 -2.30892 0
M  V30 10973 C 1038.06 0.563092 -1.60509 0
M  V30 10974 O 1039.24 0.479332 -1.88192 0
M  V30 10975 C 1036.37 0.448158 -3.44396 0
M  V30 10976 C 1035.33 -0.370179 -4.26396 0
M  V30 10977 C 1034.65 0.551903 -5.31844 0
M  V30 10978 C 1035.95 -1.60624 -4.96988 0
M  V30 10979 H 1037.65 -1.18134 -2.75109 0
M  V30 10980 H 1035.19 -0.569502 -1.3226 0
M  V30 10981 H 1037.15 0.826458 -4.13216 0
M  V30 10982 H 1035.87 1.31503 -2.98956 0
M  V30 10983 H 1034.53 -0.730472 -3.59249 0
M  V30 10984 H 1034.18 1.41616 -4.82653 0
M  V30 10985 H 1033.88 0.00823478 -5.87599 0
M  V30 10986 H 1035.4 0.926965 -6.03523 0
M  V30 10987 H 1036.82 -1.29917 -5.58386 0
M  V30 10988 H 1035.21 -2.08926 -5.62557 0
M  V30 10989 H 1036.28 -2.357 -4.23761 0
M  V30 10990 N 1037.63 1.44308 -0.633487 0
M  V30 10991 C 1038.57 2.30694 0.0700257 0
M  V30 10992 C 1039.54 1.43618 0.834447 0
M  V30 10993 O 1040.73 1.72517 0.815014 0
M  V30 10994 C 1037.87 3.28929 1.04403 0
M  V30 10995 C 1036.98 4.31106 0.277779 0
M  V30 10996 C 1036.12 5.16433 1.24381 0
M  V30 10997 C 1035.16 6.10317 0.466855 0
M  V30 10998 N 1034.29 6.88335 1.38347 0
M  V30 10999 H 1039.13 2.90311 -0.672567 0
M  V30 11000 H 1036.67 1.43034 -0.343449 0
M  V30 11001 H 1038.63 3.84373 1.62214 0
M  V30 11002 H 1037.26 2.71006 1.75372 0
M  V30 11003 H 1036.31 3.78115 -0.416292 0
M  V30 11004 H 1037.62 4.97725 -0.327251 0
M  V30 11005 H 1036.78 5.76406 1.89318 0
M  V30 11006 H 1035.51 4.49893 1.88276 0
M  V30 11007 H 1034.52 5.49451 -0.195989 0
M  V30 11008 H 1035.74 6.78894 -0.167414 0
M  V30 11009 H 1033.69 6.24461 2.00959 0
M  V30 11010 H 1033.61 7.51402 0.832517 0
M  V30 11011 H 1034.88 7.52829 2.0216 0
M  V30 11012 N 1039.1 0.374177 1.53094 0
M  V30 11013 C 1040.52 0.0234783 1.59583 0
M  V30 11014 C 1040.72 -1.45984 1.38892 0
M  V30 11015 O 1039.78 -2.22251 1.19836 0
M  V30 11016 C 1041.09 0.487117 2.96728 0
M  V30 11017 C 1042.64 0.442073 3.09862 0
M  V30 11018 C 1043.11 0.881659 4.49434 0
M  V30 11019 N 1044.6 0.837062 4.55574 0
M  V30 11020 C 1045.34 1.14878 5.61774 0
M  V30 11021 N 1044.83 1.53022 6.75689 0
M  V30 11022 N 1046.63 1.07102 5.51802 0
M  V30 11023 H 1038.78 1.34003 1.64794 0
M  V30 11024 H 1041.04 0.548281 0.773364 0
M  V30 11025 H 1040.75 1.52252 3.17037 0
M  V30 11026 H 1040.62 -0.121772 3.77003 0
M  V30 11027 H 1043.01 -0.584216 2.89259 0
M  V30 11028 H 1043.09 1.08657 2.31576 0
M  V30 11029 H 1042.73 1.90611 4.70776 0
M  V30 11030 H 1042.66 0.214326 5.26164 0
M  V30 11031 H 1045.15 0.556173 3.73785 0
M  V30 11032 H 1045.47 1.75211 7.52676 0
M  V30 11033 H 1043.81 1.56895 6.77059 0
M  V30 11034 H 1047 0.772149 4.61688 0
M  V30 11035 H 1047.18 1.31728 6.3447 0
M  V30 11036 N 1040.58 -1.57259 0.103575 0
M  V30 11037 C 1041.51 -2.17509 -0.84923 0
M  V30 11038 C 1042.49 -1.11079 -1.28824 0
M  V30 11039 O 1043.68 -1.39252 -1.35361 0
M  V30 11040 C 1040.81 -2.76221 -2.10522 0
M  V30 11041 C 1039.76 -3.88098 -1.80454 0
M  V30 11042 C 1039.09 -4.33549 -3.12952 0
M  V30 11043 C 1040.39 -5.10909 -1.08486 0
M  V30 11044 H 1042.08 -2.9738 -0.347217 0
M  V30 11045 H 1039.63 -1.43045 -0.165568 0
M  V30 11046 H 1041.58 -3.17024 -2.77621 0
M  V30 11047 H 1040.31 -1.93617 -2.63021 0
M  V30 11048 H 1038.96 -3.47847 -1.15749 0
M  V30 11049 H 1038.61 -3.47825 -3.63355 0
M  V30 11050 H 1038.31 -5.08984 -2.93614 0
M  V30 11051 H 1039.84 -4.76992 -3.81196 0
M  V30 11052 H 1041.25 -5.48828 -1.65711 0
M  V30 11053 H 1039.65 -5.91828 -0.992973 0
M  V30 11054 H 1040.72 -4.84851 -0.0690108 0
M  V30 11055 N 1042.06 0.170153 -1.56679 0
M  V30 11056 C 1043.29 0.902134 -1.86197 0
M  V30 11057 C 1043.7 1.75775 -0.689098 0
M  V30 11058 O 1043.06 1.79271 0.341763 0
M  V30 11059 C 1043.11 1.77792 -3.14757 0
M  V30 11060 O 1042.83 0.956817 -4.27524 0
M  V30 11061 C 1044.33 2.61947 -3.57629 0
M  V30 11062 H 1041.55 0.262026 -0.617724 0
M  V30 11063 H 1044.1 0.169899 -2.03793 0
M  V30 11064 H 1042.25 2.46348 -2.98984 0
M  V30 11065 H 1042.67 1.5559 -5.00891 0
M  V30 11066 H 1044.14 3.19011 -4.50484 0
M  V30 11067 H 1044.62 3.36873 -2.81803 0
M  V30 11068 H 1045.22 1.98721 -3.76019 0
M  V30 11069 N 1043.54 1.5137 0.438746 0
M  V30 11070 C 1044.78 1.64211 1.19006 0
M  V30 11071 C 1045.12 0.356607 1.90898 0
M  V30 11072 O 1044.39 -0.643722 1.83539 0
M  V30 11073 C 1044.68 2.8445 2.20817 0
M  V30 11074 C 1044.53 4.22972 1.53018 0
M  V30 11075 C 1045.85 3.00207 3.21813 0
M  V30 11076 H 1042.97 0.597628 0.431288 0
M  V30 11077 H 1045.61 1.8385 0.479487 0
M  V30 11078 H 1043.76 2.67836 2.81418 0
M  V30 11079 H 1045.43 4.5125 0.957654 0
M  V30 11080 H 1043.67 4.25736 0.832556 0
M  V30 11081 H 1044.34 5.03094 2.27158 0
M  V30 11082 H 1046.82 3.15522 2.71266 0
M  V30 11083 H 1045.7 3.85904 3.90345 0
M  V30 11084 H 1045.96 2.12216 3.87836 0
M  V30 11085 N 1045.02 -0.694098 1.41492 0
M  V30 11086 C 1045.95 -1.82042 1.46229 0
M  V30 11087 C 1046.93 -1.67047 0.320803 0
M  V30 11088 O 1048.11 -1.86758 0.53245 0
M  V30 11089 C 1045.24 -3.2019 1.34519 0
M  V30 11090 C 1044.2 -3.49892 2.46495 0
M  V30 11091 C 1043.52 -4.87411 2.1985 0
M  V30 11092 C 1044.82 -3.4872 3.88834 0
M  V30 11093 H 1046.52 -1.78335 2.40493 0
M  V30 11094 H 1044.06 -0.856566 1.15754 0
M  V30 11095 H 1046.02 -3.98699 1.36445 0
M  V30 11096 H 1044.74 -3.24527 0.367406 0
M  V30 11097 H 1043.4 -2.73734 2.43854 0
M  V30 11098 H 1043.05 -4.88375 1.20411 0
M  V30 11099 H 1042.75 -5.08248 2.94885 0
M  V30 11100 H 1044.27 -5.68228 2.23494 0
M  V30 11101 H 1045.68 -4.1723 3.93182 0
M  V30 11102 H 1044.08 -3.81089 4.63564 0
M  V30 11103 H 1045.15 -2.47665 4.16881 0
M  V30 11104 N 1046.49 -1.27344 -0.928501 0
M  V30 11105 C 1047.4 -1.11812 -2.06241 0
M  V30 11106 C 1048.42 -0.048347 -1.73933 0
M  V30 11107 O 1049.6 -0.25467 -1.99783 0
M  V30 11108 C 1046.66 -0.766036 -3.38131 0
M  V30 11109 C 1045.72 -1.91659 -3.84142 0
M  V30 11110 C 1044.96 -1.58121 -5.09738 0
M  V30 11111 O 1045.18 -0.488742 -5.68302 0
M  V30 11112 O 1044.11 -2.42013 -5.51102 0
M  V30 11113 H 1047.94 -2.06967 -2.22258 0
M  V30 11114 H 1045.52 -1.06524 -1.04752 0
M  V30 11115 H 1047.41 -0.582982 -4.17348 0
M  V30 11116 H 1046.08 0.155998 -3.23324 0
M  V30 11117 H 1044.99 -2.1547 -3.05816 0
M  V30 11118 H 1046.32 -2.8188 -4.0349 0
M  V30 11119 N 1047.97 1.13488 -1.09353 0
M  V30 11120 C 1048.92 2.18876 -0.732251 0
M  V30 11121 C 1049.89 1.63616 0.286175 0
M  V30 11122 O 1051.07 1.90059 0.167981 0
M  V30 11123 C 1048.21 3.44737 -0.158157 0
M  V30 11124 C 1047.33 4.14104 -1.23053 0
M  V30 11125 C 1046.46 5.27578 -0.619272 0
M  V30 11126 C 1045.5 5.88793 -1.67301 0
M  V30 11127 N 1044.64 6.937 -1.08283 0
M  V30 11128 H 1049.48 2.49128 -1.63522 0
M  V30 11129 H 1047.02 1.22326 -0.816995 0
M  V30 11130 H 1048.97 4.16756 0.192488 0
M  V30 11131 H 1047.6 3.14938 0.708082 0
M  V30 11132 H 1046.66 3.40376 -1.69847 0
M  V30 11133 H 1047.97 4.55683 -2.02865 0
M  V30 11134 H 1047.12 6.0631 -0.217428 0
M  V30 11135 H 1045.86 4.87246 0.210399 0
M  V30 11136 H 1044.87 5.08756 -2.0844 0
M  V30 11137 H 1046.09 6.31197 -2.50533 0
M  V30 11138 H 1044.04 6.55426 -0.274426 0
M  V30 11139 H 1043.95 7.33817 -1.81792 0
M  V30 11140 H 1045.22 7.76286 -0.707167 0
M  V30 11141 N 1049.45 0.880621 1.30701 0
M  V30 11142 C 1050.68 0.51094 2.00182 0
M  V30 11143 C 1051.09 -0.903914 1.66211 0
M  V30 11144 O 1050.43 -1.60529 0.893089 0
M  V30 11145 C 1050.49 0.600775 3.54445 0
M  V30 11146 C 1050.16 1.97915 4.1192 0
M  V30 11147 C 1051.16 2.94802 4.28238 0
M  V30 11148 C 1048.84 2.28336 4.47401 0
M  V30 11149 C 1050.83 4.20245 4.79242 0
M  V30 11150 C 1048.52 3.54026 4.98105 0
M  V30 11151 C 1049.52 4.49796 5.13978 0
M  V30 11152 O 1049.21 5.73256 5.63589 0
M  V30 11153 H 1048.94 0.196477 0.646818 0
M  V30 11154 H 1051.49 1.18659 1.67658 0
M  V30 11155 H 1049.72 -0.131832 3.86475 0
M  V30 11156 H 1051.41 0.242996 4.05172 0
M  V30 11157 H 1052.18 2.7261 4.01134 0
M  V30 11158 H 1048.06 1.54564 4.34317 0
M  V30 11159 H 1051.6 4.95003 4.91546 0
M  V30 11160 H 1047.5 3.76057 5.24644 0
M  V30 11161 H 1048.27 5.75577 5.81939 0
M  V30 11162 N 1050.93 -1.4397 0.641131 0
M  V30 11163 C 1051.88 -2.30728 -0.0577905 0
M  V30 11164 C 1052.85 -1.44059 -0.826819 0
M  V30 11165 O 1054.03 -1.72947 -0.805853 0
M  V30 11166 C 1051.17 -3.29478 -1.02657 0
M  V30 11167 C 1050.28 -4.31247 -0.254913 0
M  V30 11168 C 1049.42 -5.17085 -1.2164 0
M  V30 11169 C 1048.46 -6.10556 -0.434481 0
M  V30 11170 N 1047.6 -6.89059 -1.34694 0
M  V30 11171 H 1052.44 -2.8995 0.687953 0
M  V30 11172 H 1049.97 -1.4285 0.351029 0
M  V30 11173 H 1051.93 -3.85228 -1.60173 0
M  V30 11174 H 1050.56 -2.71932 -1.73933 0
M  V30 11175 H 1049.61 -3.77889 0.436338 0
M  V30 11176 H 1050.92 -4.97545 0.353642 0
M  V30 11177 H 1050.08 -5.77402 -1.86258 0
M  V30 11178 H 1048.82 -4.50885 -1.85888 0
M  V30 11179 H 1047.82 -5.49339 0.225125 0
M  V30 11180 H 1049.05 -6.78795 0.203415 0
M  V30 11181 H 1046.99 -6.25518 -1.97644 0
M  V30 11182 H 1046.91 -7.51833 -0.792657 0
M  V30 11183 H 1048.18 -7.5389 -1.98165 0
M  V30 11184 N 1052.41 -0.382291 -1.52893 0
M  V30 11185 C 1053.66 0.201734 -2.01091 0
M  V30 11186 C 1053.98 1.47905 -1.2708 0
M  V30 11187 O 1053.25 1.92002 -0.38883 0
M  V30 11188 H 1051.83 0.0775373 -0.742965 0
M  V30 11189 H 1054.49 -0.512369 -1.88045 0
M  V30 11190 H 1053.58 0.416919 -3.09303 0
M  V30 11191 N 1053.89 1.57202 -0.111913 0
M  V30 11192 C 1055.13 1.94125 0.547573 0
M  V30 11193 C 1055.45 0.997026 1.68282 0
M  V30 11194 O 1056.65 1.26063 2.40459 0
M  V30 11195 C 1055.11 3.44982 1.02545 0
M  V30 11196 C 1054.72 4.47927 -0.0809529 0
M  V30 11197 C 1056.46 3.90837 1.65671 0
M  V30 11198 C 1054.37 5.89955 0.413224 0
M  V30 11199 H 1053.3 0.724651 0.208321 0
M  V30 11200 H 1055.95 1.82507 -0.190625 0
M  V30 11201 H 1054.33 3.5181 1.81785 0
M  V30 11202 H 1055.51 4.52761 -0.857003 0
M  V30 11203 H 1053.82 4.11782 -0.618434 0
M  V30 11204 H 1056.42 4.9436 2.03746 0
M  V30 11205 H 1056.76 3.30417 2.53239 0
M  V30 11206 H 1057.29 3.8678 0.929844 0
M  V30 11207 H 1054.03 6.54113 -0.426238 0
M  V30 11208 H 1053.55 5.88557 1.15591 0
M  V30 11209 H 1055.23 6.41032 0.876756 0
M  V30 11210 N 1055.36 -0.161842 1.56767 0
M  V30 11211 C 1056.61 -0.875278 1.81719 0
M  V30 11212 C 1056.93 -1.82998 0.690739 0
M  V30 11213 O 1058.13 -2.58648 0.82545 0
M  V30 11214 C 1056.59 -1.60703 3.22029 0
M  V30 11215 C 1056.2 -0.695486 4.42569 0
M  V30 11216 C 1057.94 -2.30813 3.56266 0
M  V30 11217 C 1055.85 -1.42801 5.73901 0
M  V30 11218 H 1054.78 -0.330591 0.677662 0
M  V30 11219 H 1057.43 -0.128112 1.83052 0
M  V30 11220 H 1055.81 -2.39929 3.1504 0
M  V30 11221 H 1056.98 0.0604882 4.6076 0
M  V30 11222 H 1055.3 -0.10356 4.16271 0
M  V30 11223 H 1057.9 -2.86229 4.51638 0
M  V30 11224 H 1058.24 -3.06603 2.81604 0
M  V30 11225 H 1058.77 -1.5852 3.64851 0
M  V30 11226 H 1055.51 -0.712253 6.51619 0
M  V30 11227 H 1055.03 -2.15707 5.5967 0
M  V30 11228 H 1056.71 -1.97295 6.16185 0
M  V30 11229 N 1056.84 -1.516 -0.430713 0
M  V30 11230 C 1058.12 -1.55142 -1.19123 0
M  V30 11231 C 1058.5 -0.319596 -2.08667 0
M  V30 11232 O 1057.85 0.694927 -2.17676 0
M  V30 11233 C 1058.06 -2.86891 -1.98732 0
M  V30 11234 C 1059.4 -3.39089 -2.55546 0
M  V30 11235 O 1060.43 -2.88486 -2.08936 0
M  V30 11236 O 1059.29 -4.27401 -3.40574 0
M  V30 11237 H 1056.38 -0.624019 -0.542705 0
M  V30 11238 H 1058.93 -1.63917 -0.439244 0
M  V30 11239 H 1057.7 -3.68002 -1.33005 0
M  V30 11240 H 1057.32 -2.81309 -2.80982 0
M  V30 11241 N 1058.32 0.686584 -1.41858 0
M  V30 11242 C 1059.54 1.4802 -1.45275 0
M  V30 11243 C 1059.97 1.87997 -0.0621297 0
M  V30 11244 O 1059.33 1.55226 0.936733 0
M  V30 11245 C 1059.38 2.7133 -2.37513 0
M  V30 11246 O 1058.48 3.69159 -1.83836 0
M  V30 11247 H 1057.82 0.445152 -0.492682 0
M  V30 11248 H 1060.35 0.843161 -1.86419 0
M  V30 11249 H 1060.36 3.19537 -2.53693 0
M  V30 11250 H 1059.04 2.41571 -3.3855 0
M  V30 11251 H 1057.61 3.28134 -1.77151 0
M  V30 11252 N 1059.8 1.27835 0.921735 0
M  V30 11253 C 1061.04 1.14523 1.67005 0
M  V30 11254 C 1061.37 -0.307776 1.92049 0
M  V30 11255 O 1060.63 -1.24103 1.51317 0
M  V30 11256 C 1060.93 1.88054 3.03925 0
M  V30 11257 C 1060.59 3.37886 2.9857 0
M  V30 11258 C 1059.25 3.78752 2.96817 0
M  V30 11259 C 1061.61 4.33462 2.89414 0
M  V30 11260 C 1058.93 5.13549 2.83698 0
M  V30 11261 C 1061.29 5.68322 2.77836 0
M  V30 11262 C 1059.95 6.08475 2.74436 0
M  V30 11263 H 1059.22 0.419068 0.611116 0
M  V30 11264 H 1061.87 1.58515 1.07449 0
M  V30 11265 H 1060.17 1.36587 3.67221 0
M  V30 11266 H 1061.87 1.75176 3.60714 0
M  V30 11267 H 1058.46 3.05389 3.00725 0
M  V30 11268 H 1062.64 4.02857 2.89862 0
M  V30 11269 H 1057.9 5.43796 2.79456 0
M  V30 11270 H 1062.07 6.42048 2.69717 0
M  V30 11271 H 1059.7 7.12877 2.64027 0
M  V30 11272 N 1061.28 -1.12907 1.09954 0
M  V30 11273 C 1062.51 -1.87866 0.859656 0
M  V30 11274 C 1062.91 -1.79664 -0.593096 0
M  V30 11275 O 1062.26 -1.16499 -1.42034 0
M  V30 11276 C 1062.32 -3.38055 1.22308 0
M  V30 11277 C 1061.98 -3.70035 2.68185 0
M  V30 11278 C 1062.98 -3.68817 3.66428 0
M  V30 11279 C 1060.66 -3.99523 3.04444 0
M  V30 11280 C 1062.66 -3.96639 4.98955 0
M  V30 11281 C 1060.35 -4.27006 4.37161 0
M  V30 11282 C 1061.34 -4.25549 5.34225 0
M  V30 11283 O 1061.03 -4.52354 6.64553 0
M  V30 11284 H 1060.76 -0.601425 0.308649 0
M  V30 11285 H 1063.32 -1.43817 1.46649 0
M  V30 11286 H 1061.55 -3.82634 0.559322 0
M  V30 11287 H 1063.24 -3.94348 0.961479 0
M  V30 11288 H 1064 -3.46104 3.3976 0
M  V30 11289 H 1059.88 -3.99801 2.29521 0
M  V30 11290 H 1063.43 -3.95418 5.74709 0
M  V30 11291 H 1059.32 -4.49192 4.6357 0
M  V30 11292 H 1060.09 -4.69997 6.70108 0
M  V30 11293 N 1062.75 -0.88754 -1.30232 0
M  V30 11294 C 1063.69 -0.313488 -2.27046 0
M  V30 11295 C 1064.7 0.533383 -1.53814 0
M  V30 11296 O 1065.89 0.352516 -1.74984 0
M  V30 11297 C 1062.99 0.572674 -3.34026 0
M  V30 11298 C 1062.16 -0.245712 -4.36709 0
M  V30 11299 C 1061.22 0.57135 -5.23089 0
M  V30 11300 O 1060.25 -0.00685948 -5.692 0
M  V30 11301 N 1061.45 1.87994 -5.49216 0
M  V30 11302 H 1064.21 -1.14553 -2.76943 0
M  V30 11303 H 1061.77 -0.750785 -1.43439 0
M  V30 11304 H 1063.77 1.12539 -3.88738 0
M  V30 11305 H 1062.34 1.3054 -2.84039 0
M  V30 11306 H 1061.56 -0.979869 -3.81827 0
M  V30 11307 H 1062.84 -0.806618 -5.02366 0
M  V30 11308 H 1062.24 2.3726 -5.13541 0
M  V30 11309 H 1060.8 2.38005 -6.06792 0
M  V30 11310 N 1064.23 1.43628 -0.648757 0
M  V30 11311 C 1065.14 2.34554 0.0463037 0
M  V30 11312 C 1066.16 1.53629 0.816952 0
M  V30 11313 O 1067.33 1.86297 0.765212 0
M  V30 11314 C 1064.4 3.3185 1.00381 0
M  V30 11315 C 1063.46 4.2868 0.230589 0
M  V30 11316 C 1062.69 5.21328 1.14249 0
M  V30 11317 O 1062.92 5.18298 2.38166 0
M  V30 11318 O 1061.85 5.98726 0.617296 0
M  V30 11319 H 1065.68 2.95475 -0.702008 0
M  V30 11320 H 1063.26 1.43694 -0.408942 0
M  V30 11321 H 1065.14 3.91692 1.5542 0
M  V30 11322 H 1063.82 2.73439 1.73243 0
M  V30 11323 H 1062.73 3.72332 -0.363282 0
M  V30 11324 H 1064.06 4.90061 -0.458368 0
M  V30 11325 N 1065.71 0.390394 1.52688 0
M  V30 11326 C 1066.64 -0.479319 2.24132 0
M  V30 11327 C 1067.66 -1.0258 1.26416 0
M  V30 11328 O 1068.84 -0.927943 1.52484 0
M  V30 11329 C 1065.94 -1.67711 2.94493 0
M  V30 11330 C 1065.12 -1.2578 4.18925 0
M  V30 11331 C 1064.18 -2.3204 4.72275 0
M  V30 11332 O 1063.2 -1.93402 5.35336 0
M  V30 11333 N 1064.4 -3.63967 4.52226 0
M  V30 11334 H 1067.17 0.132777 2.99406 0
M  V30 11335 H 1064.73 0.216807 1.60442 0
M  V30 11336 H 1066.72 -2.38323 3.27084 0
M  V30 11337 H 1065.29 -2.19552 2.22521 0
M  V30 11338 H 1064.51 -0.380528 3.92359 0
M  V30 11339 H 1065.8 -0.954329 4.9977 0
M  V30 11340 H 1065.2 -3.98119 4.01892 0
M  V30 11341 H 1063.76 -4.30611 4.89303 0
M  V30 11342 N 1067.19 -1.57141 0.120249 0
M  V30 11343 C 1068.14 -2.15379 -0.829497 0
M  V30 11344 C 1069.11 -1.07913 -1.2627 0
M  V30 11345 O 1070.29 -1.35827 -1.33999 0
M  V30 11346 C 1067.43 -2.75847 -2.0737 0
M  V30 11347 C 1066.54 -3.97624 -1.68875 0
M  V30 11348 C 1065.68 -4.46175 -2.88272 0
M  V30 11349 C 1064.72 -5.60481 -2.46023 0
M  V30 11350 N 1063.85 -6.0377 -3.58337 0
M  V30 11351 H 1068.69 -2.96211 -0.326031 0
M  V30 11352 H 1066.23 -1.46341 -0.149235 0
M  V30 11353 H 1068.19 -3.09037 -2.80272 0
M  V30 11354 H 1066.82 -1.97703 -2.55174 0
M  V30 11355 H 1065.87 -3.70588 -0.858431 0
M  V30 11356 H 1067.18 -4.80512 -1.33827 0
M  V30 11357 H 1066.34 -4.8128 -3.69397 0
M  V30 11358 H 1065.08 -3.6224 -3.26548 0
M  V30 11359 H 1064.08 -5.24979 -1.63331 0
M  V30 11360 H 1065.31 -6.46184 -2.08863 0
M  V30 11361 H 1063.25 -5.22776 -3.96284 0
M  V30 11362 H 1063.17 -6.81517 -3.27217 0
M  V30 11363 H 1064.44 -6.43514 -4.39898 0
M  V30 11364 N 1068.67 0.153526 -1.5685 0
M  V30 11365 C 1069.6 1.21906 -1.9291 0
M  V30 11366 C 1070.58 1.4189 -0.794098 0
M  V30 11367 O 1071.76 1.56609 -1.0491 0
M  V30 11368 C 1068.89 2.57908 -2.19548 0
M  V30 11369 C 1067.93 2.54557 -3.42203 0
M  V30 11370 S 1068.77 2.01891 -4.95984 0
M  V30 11371 C 1069.92 3.39635 -5.25737 0
M  V30 11372 H 1070.16 0.911382 -2.82986 0
M  V30 11373 H 1067.69 0.358863 -1.50172 0
M  V30 11374 H 1069.65 3.36177 -2.35575 0
M  V30 11375 H 1068.31 2.85868 -1.30147 0
M  V30 11376 H 1067.5 3.54657 -3.58098 0
M  V30 11377 H 1067.1 1.84393 -3.25385 0
M  V30 11378 H 1069.4 4.35716 -5.18804 0
M  V30 11379 H 1070.34 3.28599 -6.27239 0
M  V30 11380 H 1070.75 3.36469 -4.53265 0
M  V30 11381 O 1070.18 1.58721 0.298301 0
M  V30 11382 H 1070.87 1.69072 0.945216 0
M  V30 END ATOM
M  V30 BEGIN BOND
M  V30 END BOND
M  V30 END CTAB
M  END
$$$$
