drugbank_target|Q96GD0 Pyridoxal phosphate phosphatase (DB00114)
 OpenBabel12092119283D

  0  0  0     0  0            999 V3000
M  V30 BEGIN CTAB
M  V30 COUNTS 4451 4493 0 0 0
M  V30 BEGIN ATOM
M  V30 1 H -0.908 1.98254 -0.117106 0
M  V30 2 N 0 1.576 0 0
M  V30 3 C 0.933 2.03868 1.02534 0
M  V30 4 C 1.911 0.928543 1.3348 0
M  V30 5 O 3.095 1.19667 1.45644 0
M  V30 6 C 0.222 2.43627 2.35294 0
M  V30 7 C -0.732 3.65373 2.2001 0
M  V30 8 S 0.101 5.13292 1.52614 0
M  V30 9 C 1.257 5.56322 2.86805 0
M  V30 10 H 1.49 2.90518 0.631377 0
M  V30 11 H -0.977 1.52953 0.210867 0
M  V30 12 H 0.981 2.67203 3.11629 0
M  V30 13 H -0.358 1.57376 2.7183 0
M  V30 14 H -1.165 3.90944 3.18086 0
M  V30 15 H -1.563 3.418 1.51819 0
M  V30 16 H 0.729 5.58782 3.83104 0
M  V30 17 H 1.672 6.56266 2.65933 0
M  V30 18 H 2.08 4.83886 2.90714 0
M  V30 19 N 1.4781 -0.272755 1.55222 0
M  V30 20 C 2.4411 -1.32041 1.87344 0
M  V30 21 C 3.4411 -1.42342 0.74803 0
M  V30 22 O 4.6311 -1.41488 1.0162 0
M  V30 23 C 1.7631 -2.70173 2.07893 0
M  V30 24 H 2.9561 -1.04789 2.80997 0
M  V30 25 H 0.5091 -0.51083 1.47717 0
M  V30 26 H 1.2441 -3.02605 1.16622 0
M  V30 27 H 1.0291 -2.64082 2.89833 0
M  V30 28 H 2.5191 -3.45869 2.34017 0
M  V30 29 N 2.9562 -1.48159 -0.537278 0
M  V30 30 C 4.3722 -1.34118 -0.865129 0
M  V30 31 C 4.5722 -0.346678 -1.98495 0
M  V30 32 O 3.6282 0.234715 -2.51407 0
M  V30 33 C 4.9412 -2.73963 -1.23954 0
M  V30 34 C 6.4892 -2.82397 -1.34984 0
M  V30 35 C 6.9642 -4.22928 -1.75772 0
M  V30 36 N 8.4552 -4.25566 -1.82887 0
M  V30 37 C 9.1902 -5.31235 -2.15817 0
M  V30 38 N 8.6862 -6.47189 -2.47222 0
M  V30 39 N 10.4792 -5.18624 -2.16761 0
M  V30 40 H 2.6302 -2.1144 0.201715 0
M  V30 41 H 4.8932 -0.947598 0.0275949 0
M  V30 42 H 4.5992 -3.48264 -0.490381 0
M  V30 43 H 4.4732 -3.0702 -2.19132 0
M  V30 44 H 6.8602 -2.08356 -2.08978 0
M  V30 45 H 6.9412 -2.5297 -0.379448 0
M  V30 46 H 6.5852 -4.97482 -1.02341 0
M  V30 47 H 6.5152 -4.49794 -2.73848 0
M  V30 48 H 9.0062 -3.41924 -1.60924 0
M  V30 49 H 9.3192 -7.23564 -2.71433 0
M  V30 50 H 7.6642 -6.50476 -2.44757 0
M  V30 51 H 10.8552 -4.27056 -1.91679 0
M  V30 52 H 11.0282 -6.01078 -2.42093 0
M  V30 53 N 4.4343 0.785586 -1.36625 0
M  V30 54 C 5.6743 1.55678 -1.32453 0
M  V30 55 C 6.0383 1.91769 0.0941089 0
M  V30 56 O 7.2393 2.67536 0.26042 0
M  V30 57 C 5.5103 2.79701 -2.22491 0
M  V30 58 S 7.0693 3.69907 -2.36038 0
M  V30 59 H 3.8873 0.533141 -0.470405 0
M  V30 60 H 6.4893 0.924953 -1.72235 0
M  V30 61 H 5.1933 2.51244 -3.24507 0
M  V30 62 H 4.7243 3.47854 -1.83742 0
M  V30 63 H 6.7393 4.71016 -1.56072 0
M  V30 64 N 5.9124 1.20967 1.01018 0
M  V30 65 C 6.8224 0.980157 2.13143 0
M  V30 66 C 7.8384 -0.0660665 1.73875 0
M  V30 67 O 9.0144 0.122821 2.01025 0
M  V30 68 C 6.0794 0.54216 3.42435 0
M  V30 69 C 5.1404 1.65999 3.95908 0
M  V30 70 C 4.3734 1.2428 5.19028 0
M  V30 71 O 4.5964 0.114196 5.70286 0
M  V30 72 O 3.5304 2.05271 5.65816 0
M  V30 73 H 7.3564 1.91913 2.35379 0
M  V30 74 H 4.9414 0.994099 1.11526 0
M  V30 75 H 6.8234 0.30744 4.20277 0
M  V30 76 H 5.4984 -0.36815 3.216 0
M  V30 77 H 4.4054 1.94906 3.19316 0
M  V30 78 H 5.7384 2.54753 4.21143 0
M  V30 79 N 7.3905 -1.2043 1.01659 0
M  V30 80 C 8.8065 -1.41852 0.731442 0
M  V30 81 C 9.0065 -1.89358 -0.688898 0
M  V30 82 O 8.0625 -2.06247 -1.45666 0
M  V30 83 C 9.3755 -2.44019 1.75714 0
M  V30 84 C 10.9235 -2.57785 1.77527 0
M  V30 85 C 11.3985 -3.63194 2.79023 0
M  V30 86 N 12.8895 -3.70678 2.77763 0
M  V30 87 C 13.6245 -4.51897 3.52954 0
M  V30 88 N 13.1205 -5.36921 4.37821 0
M  V30 89 N 14.9135 -4.4643 3.41551 0
M  V30 90 H 7.0645 -0.879093 1.93354 0
M  V30 91 H 9.3275 -0.448425 0.835236 0
M  V30 92 H 9.0335 -2.1611 2.77469 0
M  V30 93 H 8.9075 -3.43007 1.56927 0
M  V30 94 H 11.2945 -2.85023 0.764569 0
M  V30 95 H 11.3755 -1.58992 2.00387 0
M  V30 96 H 11.0195 -3.36699 3.80258 0
M  V30 97 H 10.9495 -4.61609 2.53425 0
M  V30 98 H 13.4405 -3.09944 2.16201 0
M  V30 99 H 13.7535 -5.95981 4.91962 0
M  V30 100 H 12.0985 -5.36424 4.41899 0
M  V30 101 H 15.2895 -3.79042 2.74672 0
M  V30 102 H 15.4625 -5.09491 4.00404 0
M  V30 103 N 8.8686 -0.792821 -1.36206 0
M  V30 104 C 9.7986 -0.207853 -2.32573 0
M  V30 105 C 10.7796 0.659055 -1.56813 0
M  V30 106 O 11.9646 0.592176 -1.84951 0
M  V30 107 C 9.0946 0.655449 -3.41059 0
M  V30 108 C 8.0486 -0.111842 -4.27854 0
M  V30 109 C 7.3746 0.872274 -5.27537 0
M  V30 110 C 8.6746 -1.30299 -5.05786 0
M  V30 111 H 10.3686 -1.01294 -2.81744 0
M  V30 112 H 7.9146 -0.48854 -1.3546 0
M  V30 113 H 9.8676 1.07464 -4.07467 0
M  V30 114 H 8.5916 1.49328 -2.90463 0
M  V30 115 H 7.2506 -0.512053 -3.63006 0
M  V30 116 H 6.8986 1.70523 -4.73214 0
M  V30 117 H 6.5986 0.363291 -5.86476 0
M  V30 118 H 8.1226 1.28996 -5.96818 0
M  V30 119 H 9.5366 -0.959379 -5.65216 0
M  V30 120 H 7.9336 -1.7455 -5.74154 0
M  V30 121 H 9.0036 -2.09663 -4.37229 0
M  V30 122 N 10.3467 1.47872 -0.545128 0
M  V30 123 C 11.7627 1.5829 -0.204032 0
M  V30 124 C 11.9627 1.54529 1.29317 0
M  V30 125 O 11.0187 1.44232 2.07252 0
M  V30 126 C 12.3317 2.89304 -0.819987 0
M  V30 127 C 13.8797 3.02864 -0.790105 0
M  V30 128 C 14.3547 4.3656 -1.38491 0
M  V30 129 N 15.8457 4.43165 -1.34755 0
M  V30 130 C 16.5807 5.45153 -1.77753 0
M  V30 131 N 16.0767 6.54016 -2.2855 0
M  V30 132 N 17.8697 5.36125 -1.68897 0
M  V30 133 H 10.0207 1.4856 -1.51802 0
M  V30 134 H 12.2837 0.706305 -0.632327 0
M  V30 135 H 11.9897 2.97757 -1.87173 0
M  V30 136 H 11.8637 3.75957 -0.305915 0
M  V30 137 H 14.2507 2.94014 0.252913 0
M  V30 138 H 14.3317 2.17782 -1.34181 0
M  V30 139 H 13.9757 4.46164 -2.42693 0
M  V30 140 H 13.9057 5.20353 -0.808754 0
M  V30 141 H 16.3967 3.65083 -0.975855 0
M  V30 142 H 16.7097 7.27994 -2.59314 0
M  V30 143 H 15.0547 6.54938 -2.32553 0
M  V30 144 H 18.2457 4.49975 -1.28998 0
M  V30 145 H 18.4187 6.15472 -2.02726 0
M  V30 146 N 11.8248 0.280983 1.55075 0
M  V30 147 C 13.0728 -0.333455 1.9933 0
M  V30 148 C 13.3938 -1.55937 1.17085 0
M  V30 149 O 12.6638 -1.94143 0.261805 0
M  V30 150 H 11.2438 -0.126197 0.736263 0
M  V30 151 H 13.9058 0.387678 1.91005 0
M  V30 152 H 13.0018 -0.619292 3.05894 0
M  V30 153 N 13.3029 -1.57598 0.00835791 0
M  V30 154 C 14.2659 -2.07884 -0.965242 0
M  V30 155 C 15.2659 -0.989825 -1.26725 0
M  V30 156 O 16.4559 -1.25218 -1.21104 0
M  V30 157 C 13.5879 -2.52731 -2.28779 0
M  V30 158 H 14.7809 -2.95178 -0.530112 0
M  V30 159 H 12.3339 -1.54458 -0.239283 0
M  V30 160 H 13.0689 -1.68705 -2.76964 0
M  V30 161 H 12.8539 -3.32272 -2.08177 0
M  V30 162 H 14.3439 -2.91933 -2.98605 0
M  V30 163 N 14.781 0.264519 -1.55364 0
M  V30 164 C 15.744 1.31046 -1.88042 0
M  V30 165 C 16.744 1.41943 -0.755569 0
M  V30 166 O 17.934 1.40947 -1.02369 0
M  V30 167 C 15.066 2.69067 -2.09323 0
M  V30 168 H 16.259 1.03297 -2.81549 0
M  V30 169 H 13.812 0.502989 -1.47986 0
M  V30 170 H 14.547 3.01982 -1.18226 0
M  V30 171 H 14.332 2.62542 -2.91229 0
M  V30 172 H 15.822 3.44623 -2.35848 0
M  V30 173 N 16.2591 1.48442 0.529413 0
M  V30 174 C 17.1891 1.65902 1.64313 0
M  V30 175 C 18.1701 0.507897 1.6234 0
M  V30 176 O 19.3551 0.740503 1.79528 0
M  V30 177 C 16.4851 1.69911 3.02898 0
M  V30 178 C 15.4391 2.8453 3.19729 0
M  V30 179 C 14.7651 2.73629 4.59381 0
M  V30 180 C 16.0651 4.25821 3.02447 0
M  V30 181 H 17.7591 2.5914 1.49955 0
M  V30 182 H 15.3051 1.24709 0.719982 0
M  V30 183 H 17.2581 1.80715 3.80684 0
M  V30 184 H 15.9821 0.732524 3.18279 0
M  V30 185 H 14.6411 2.73283 2.44361 0
M  V30 186 H 14.2891 1.74938 4.71599 0
M  V30 187 H 13.9891 3.50541 4.71588 0
M  V30 188 H 15.5131 2.86401 5.39265 0
M  V30 189 H 16.9271 4.37898 3.70024 0
M  V30 190 H 15.3241 5.03735 3.26146 0
M  V30 191 H 16.3941 4.42244 1.98867 0
M  V30 192 N 17.7372 -0.778329 1.37039 0
M  V30 193 C 19.1532 -1.07796 1.17695 0
M  V30 194 C 19.3532 -2.01498 0.00860115 0
M  V30 195 O 18.4092 -2.43901 -0.653352 0
M  V30 196 C 19.7222 -1.68178 2.49272 0
M  V30 197 C 21.2702 -1.80467 2.55735 0
M  V30 198 C 21.7452 -2.44263 3.87427 0
M  V30 199 N 23.2362 -2.51721 3.88833 0
M  V30 200 C 23.9712 -3.01919 4.87476 0
M  V30 201 N 23.4672 -3.5234 5.96513 0
M  V30 202 N 25.2602 -3.00733 4.74885 0
M  V30 203 H 17.4112 -0.156032 2.11826 0
M  V30 204 H 19.6742 -0.131844 0.938787 0
M  V30 205 H 19.3802 -1.06796 3.35093 0
M  V30 206 H 19.2542 -2.67554 2.65885 0
M  V30 207 H 21.6412 -2.40984 1.70325 0
M  V30 208 H 21.7222 -0.798656 2.43013 0
M  V30 209 H 21.3662 -1.84388 4.73248 0
M  V30 210 H 21.2962 -3.45458 3.9745 0
M  V30 211 H 23.7872 -2.1603 3.10063 0
M  V30 212 H 24.1002 -3.89027 6.67741 0
M  V30 213 H 22.4452 -3.50462 6.00168 0
M  V30 214 H 25.6362 -2.60638 3.88826 0
M  V30 215 H 25.8092 -3.39545 5.51918 0
M  V30 216 N 19.2153 -1.21501 -1.00376 0
M  V30 217 C 20.4923 -0.941745 -1.71437 0
M  V30 218 C 20.8723 0.546114 -2.03914 0
M  V30 219 O 20.2203 1.51128 -1.71384 0
M  V30 220 C 20.4303 -1.82812 -2.97289 0
M  V30 221 C 21.7783 -2.07771 -3.70292 0
M  V30 222 O 22.8023 -1.80171 -3.07273 0
M  V30 223 O 21.6613 -2.54456 -4.83647 0
M  V30 224 H 18.7553 -0.353243 -0.747762 0
M  V30 225 H 21.3013 -1.32436 -1.06108 0
M  V30 226 H 20.0733 -2.83501 -2.69709 0
M  V30 227 H 19.6963 -1.4464 -3.70358 0
M  V30 228 N 20.6934 1.19889 -1.02296 0
M  V30 229 C 21.9394 1.89701 -0.717033 0
M  V30 230 C 22.2724 1.7905 0.751989 0
M  V30 231 O 21.5474 1.17891 1.547 0
M  V30 232 C 21.8304 3.40858 -1.16136 0
M  V30 233 C 21.6834 3.60411 -2.69117 0
M  V30 234 C 23.0024 4.33876 -0.737549 0
M  V30 235 H 20.1214 0.688874 -0.261957 0
M  V30 236 H 22.7634 1.41154 -1.27183 0
M  V30 237 H 20.9134 3.82335 -0.689342 0
M  V30 238 H 22.5854 3.28145 -3.2422 0
M  V30 239 H 20.8284 3.03665 -3.0979 0
M  V30 240 H 21.4994 4.66396 -2.95261 0
M  V30 241 H 23.9754 4.00081 -1.14344 0
M  V30 242 H 22.8514 5.38242 -1.0764 0
M  V30 243 H 23.1124 4.40628 0.360436 0
M  V30 244 N 22.1715 0.800033 1.35784 0
M  V30 245 C 23.1015 0.220184 2.3246 0
M  V30 246 C 24.0825 -0.65073 1.57161 0
M  V30 247 O 25.2675 -0.582359 1.85263 0
M  V30 248 C 22.3975 -0.637353 3.41402 0
M  V30 249 C 21.3515 0.134531 4.27789 0
M  V30 250 C 20.6775 -0.844285 5.27992 0
M  V30 251 C 21.9775 1.32979 5.05088 0
M  V30 252 H 23.6715 1.02787 2.81203 0
M  V30 253 H 21.2175 0.495717 1.35199 0
M  V30 254 H 23.1705 -1.05302 4.08031 0
M  V30 255 H 21.8945 -1.47785 2.91251 0
M  V30 256 H 20.5535 0.531296 3.6273 0
M  V30 257 H 20.2015 -1.68011 4.74111 0
M  V30 258 H 19.9015 -0.332184 5.8666 0
M  V30 259 H 21.4255 -1.2583 5.97494 0
M  V30 260 H 22.8395 0.98934 5.64699 0
M  V30 261 H 21.2365 1.77593 5.7322 0
M  V30 262 H 22.3065 2.11978 4.36111 0
M  V30 263 N 23.6496 -1.47581 0.552962 0
M  V30 264 C 24.8976 -2.02082 0.0272703 0
M  V30 265 C 25.2186 -1.4301 -1.32563 0
M  V30 266 O 24.4886 -0.603745 -1.86365 0
M  V30 267 H 23.0686 -0.746966 0.00709182 0
M  V30 268 H 25.7306 -1.81033 0.722008 0
M  V30 269 H 24.8266 -3.12034 -0.0639951 0
M  V30 270 N 25.1277 -0.289203 -1.54924 0
M  V30 271 C 26.5437 0.0645403 -1.59469 0
M  V30 272 C 26.7437 1.53419 -1.30632 0
M  V30 273 O 25.7997 2.2852 -1.074 0
M  V30 274 C 27.1127 -0.32278 -2.98963 0
M  V30 275 C 28.6607 -0.270564 -3.11828 0
M  V30 276 C 29.1357 -0.632532 -4.53611 0
M  V30 277 N 30.6267 -0.584617 -4.59496 0
M  V30 278 C 31.3617 -0.837314 -5.67254 0
M  V30 279 N 30.8577 -1.15536 -6.83098 0
M  V30 280 N 32.6507 -0.765166 -5.56868 0
M  V30 281 H 24.8017 -1.24714 -1.71931 0
M  V30 282 H 27.0647 -0.504809 -0.802416 0
M  V30 283 H 26.7707 -1.34541 -3.24948 0
M  V30 284 H 26.6447 0.32944 -3.75759 0
M  V30 285 H 29.0317 0.742805 -2.85598 0
M  V30 286 H 29.1127 -0.957242 -2.37214 0
M  V30 287 H 28.7567 -1.64365 -4.80569 0
M  V30 288 H 28.6867 0.07609 -5.26545 0
M  V30 289 H 31.1777 -0.349248 -3.76283 0
M  V30 290 H 31.4907 -1.33447 -7.61191 0
M  V30 291 H 29.8357 -1.19328 -6.84679 0
M  V30 292 H 33.0267 -0.516432 -4.65243 0
M  V30 293 H 33.1997 -0.965477 -6.40767 0
M  V30 294 N 26.6058 1.57591 -0.0167156 0
M  V30 295 C 27.5688 2.08393 0.954204 0
M  V30 296 C 28.5688 0.996531 1.26198 0
M  V30 297 O 29.7588 1.25858 1.20438 0
M  V30 298 C 26.8908 2.5394 2.27436 0
M  V30 299 H 28.0838 2.95455 0.514451 0
M  V30 300 H 25.6368 1.54582 0.231089 0
M  V30 301 H 26.3718 1.70171 2.76066 0
M  V30 302 H 26.1568 3.33371 2.06412 0
M  V30 303 H 27.6468 2.93512 2.97053 0
M  V30 304 N 28.0839 -0.256276 1.55502 0
M  V30 305 C 29.0159 -1.33981 1.85962 0
M  V30 306 C 30.0289 -1.44743 0.745212 0
M  V30 307 O 31.2179 -1.4626 1.02324 0
M  V30 308 C 28.3179 -2.7194 2.02242 0
M  V30 309 C 27.4909 -2.83562 3.33033 0
M  V30 310 C 26.5499 -4.02304 3.39172 0
M  V30 311 O 25.5759 -3.92273 4.12444 0
M  V30 312 N 26.7779 -5.15045 2.67784 0
M  V30 313 H 29.5429 -1.08191 2.7949 0
M  V30 314 H 27.1039 -0.446388 1.55624 0
M  V30 315 H 29.0959 -3.49697 2.03701 0
M  V30 316 H 27.6659 -2.90479 1.15502 0
M  V30 317 H 26.8859 -1.92555 3.43971 0
M  V30 318 H 28.1739 -2.88271 4.19258 0
M  V30 319 H 27.5719 -5.26085 2.07968 0
M  V30 320 H 26.1289 -5.90972 2.74947 0
M  V30 321 N 29.562 -1.4872 -0.521534 0
M  V30 322 C 30.81 -1.56857 -1.27437 0
M  V30 323 C 31.131 -0.247982 -1.93417 0
M  V30 324 O 30.401 0.731151 -1.81744 0
M  V30 325 H 28.981 -0.577885 -0.473347 0
M  V30 326 H 31.643 -1.85233 -0.606205 0
M  V30 327 H 30.739 -2.35402 -2.0492 0
M  V30 328 N 31.0401 0.771051 -1.3745 0
M  V30 329 C 32.2861 1.5319 -1.32894 0
M  V30 330 C 32.6191 1.94008 0.0862511 0
M  V30 331 O 31.8941 1.64124 1.04373 0
M  V30 332 C 32.1771 2.79648 -2.26868 0
M  V30 333 C 32.0301 2.45079 -3.77169 0
M  V30 334 C 33.3491 3.81583 -2.19277 0
M  V30 335 H 30.4681 0.555744 -0.484064 0
M  V30 336 H 33.1101 0.884492 -1.68157 0
M  V30 337 H 31.2601 3.34891 -1.96926 0
M  V30 338 H 32.9321 1.95745 -4.1771 0
M  V30 339 H 31.1751 1.77767 -3.95704 0
M  V30 340 H 31.8461 3.35478 -4.38359 0
M  V30 341 H 34.3221 3.35835 -2.45671 0
M  V30 342 H 33.1981 4.67787 -2.87171 0
M  V30 343 H 33.4591 4.25897 -1.18592 0
M  V30 344 N 32.5182 1.22032 0.997298 0
M  V30 345 C 33.4482 1.01065 2.10495 0
M  V30 346 C 34.4292 -0.0669542 1.69968 0
M  V30 347 O 35.6142 0.0943987 1.9397 0
M  V30 348 C 32.7442 0.582874 3.42374 0
M  V30 349 C 31.6982 1.60592 3.96729 0
M  V30 350 C 31.0242 1.03412 5.24605 0
M  V30 351 C 32.3242 2.99478 4.27914 0
M  V30 352 H 34.0182 1.93708 2.28292 0
M  V30 353 H 31.5642 0.932761 1.09707 0
M  V30 354 H 33.5172 0.423332 4.19268 0
M  V30 355 H 32.2412 -0.379213 3.24391 0
M  V30 356 H 30.9002 1.75316 3.21963 0
M  V30 357 H 30.5482 0.063518 5.0296 0
M  V30 358 H 30.2482 1.71754 5.61938 0
M  V30 359 H 31.7722 0.886066 6.04137 0
M  V30 360 H 33.1862 2.88153 4.95622 0
M  V30 361 H 31.5832 3.64903 4.76409 0
M  V30 362 H 32.6532 3.49742 3.3587 0
M  V30 363 N 33.9963 -1.19345 1.0293 0
M  V30 364 C 35.2433 -1.89038 0.726008 0
M  V30 365 C 35.5713 -1.79649 -0.745427 0
M  V30 366 O 34.8263 -1.18354 -1.55855 0
M  V30 367 C 35.1253 -3.39292 1.12319 0
M  V30 368 C 34.7913 -3.68885 2.59297 0
M  V30 369 C 33.4533 -3.76671 2.99453 0
M  V30 370 C 35.8053 -3.82178 3.54386 0
M  V30 371 C 33.1333 -3.9522 4.33611 0
M  V30 372 C 35.4853 -4.0224 4.88248 0
M  V30 373 C 34.1493 -4.08259 5.28092 0
M  V30 374 H 33.4193 -0.691739 0.265665 0
M  V30 375 H 36.0663 -1.41328 1.29223 0
M  V30 376 H 34.3713 -3.88903 0.475584 0
M  V30 377 H 36.0683 -3.91536 0.866037 0
M  V30 378 H 32.6583 -3.63433 2.27189 0
M  V30 379 H 36.8423 -3.75505 3.24514 0
M  V30 380 H 32.0983 -3.98119 4.64016 0
M  V30 381 H 36.2723 -4.11468 5.61843 0
M  V30 382 H 33.8993 -4.22384 6.32057 0
M  V30 383 N 35.4744 -0.807222 -1.35358 0
M  V30 384 C 36.7514 -0.311126 -1.9311 0
M  V30 385 C 37.1314 1.19937 -1.73719 0
M  V30 386 O 36.4794 1.99918 -1.10657 0
M  V30 387 C 36.6894 -0.723226 -3.41424 0
M  V30 388 C 38.0374 -0.713078 -4.18569 0
M  V30 389 O 39.0614 -0.664811 -3.49941 0
M  V30 390 O 37.9204 -0.772022 -5.41019 0
M  V30 391 H 35.0144 -0.081526 -0.822972 0
M  V30 392 H 37.5604 -0.890962 -1.4443 0
M  V30 393 H 36.3324 -1.76426 -3.4927 0
M  V30 394 H 35.9554 -0.118232 -3.97424 0
M  V30 395 N 36.9525 1.47285 -0.560781 0
M  V30 396 C 38.1925 2.0436 -0.0404627 0
M  V30 397 C 38.5565 1.42534 1.28639 0
M  V30 398 O 39.7575 1.90677 1.89462 0
M  V30 399 C 38.0285 3.57369 0.0471856 0
M  V30 400 S 39.5875 4.3579 0.513109 0
M  V30 401 H 36.4055 0.710492 -0.0268674 0
M  V30 402 H 39.0075 1.80611 -0.748323 0
M  V30 403 H 37.7115 3.9989 -0.922817 0
M  V30 404 H 37.2425 3.8562 0.778491 0
M  V30 405 H 39.2575 4.63476 1.77212 0
M  V30 406 N 38.4306 0.297415 1.54768 0
M  V30 407 C 39.7076 -0.365847 1.92148 0
M  V30 408 C 40.0876 -1.71975 1.22424 0
M  V30 409 O 39.4356 -2.25666 0.358739 0
M  V30 410 C 39.6456 -0.484056 3.45627 0
M  V30 411 C 40.9936 -0.756594 4.17805 0
M  V30 412 O 42.0176 -0.568007 3.51642 0
M  V30 413 O 40.8766 -1.11863 5.34929 0
M  V30 414 H 37.9706 -0.203919 0.801465 0
M  V30 415 H 40.5166 0.34521 1.66152 0
M  V30 416 H 39.2886 0.467865 3.88493 0
M  V30 417 H 38.9116 -1.24372 3.77647 0
M  V30 418 N 39.9087 -1.5758 0.0250728 0
M  V30 419 C 41.1567 -1.91255 -0.653151 0
M  V30 420 C 41.4777 -0.901691 -1.729 0
M  V30 421 O 40.7477 0.0573785 -1.95816 0
M  V30 422 H 39.3277 -0.705942 -0.244243 0
M  V30 423 H 41.9897 -1.94767 0.0719209 0
M  V30 424 H 41.0857 -2.91752 -1.10847 0
M  V30 425 N 41.3868 0.248026 -1.55636 0
M  V30 426 C 42.6328 0.97767 -1.77678 0
M  V30 427 C 42.9658 1.85016 -0.590135 0
M  V30 428 O 42.2408 1.90095 0.411611 0
M  V30 429 C 42.5238 1.83914 -3.09593 0
M  V30 430 C 42.3768 0.99491 -4.38659 0
M  V30 431 C 43.6958 2.82183 -3.37729 0
M  V30 432 H 40.8148 0.354005 -0.646413 0
M  V30 433 H 43.4568 0.248253 -1.88371 0
M  V30 434 H 41.6068 2.46104 -3.00608 0
M  V30 435 H 43.2788 0.391789 -4.59633 0
M  V30 436 H 41.5218 0.299231 -4.32767 0
M  V30 437 H 42.1928 1.63145 -5.2734 0
M  V30 438 H 44.6688 2.30129 -3.4667 0
M  V30 439 H 43.5448 3.39582 -4.31249 0
M  V30 440 H 43.8058 3.58588 -2.58586 0
M  V30 441 N 42.8649 1.48995 0.513639 0
M  V30 442 C 43.7949 1.67636 1.62544 0
M  V30 443 C 44.7759 0.525087 1.61793 0
M  V30 444 O 45.9609 0.759502 1.78732 0
M  V30 445 C 43.0909 1.73114 3.01079 0
M  V30 446 C 42.0449 2.87905 3.16693 0
M  V30 447 C 41.3709 2.78486 4.56453 0
M  V30 448 C 42.6709 4.29005 2.97913 0
M  V30 449 H 44.3649 2.60716 1.47198 0
M  V30 450 H 41.9109 1.25465 0.706714 0
M  V30 451 H 43.8639 1.84742 3.78746 0
M  V30 452 H 42.5879 0.766241 3.17484 0
M  V30 453 H 41.2469 2.75859 2.41448 0
M  V30 454 H 40.8949 1.7993 4.69717 0
M  V30 455 H 40.5949 3.55523 4.67843 0
M  V30 456 H 42.1189 2.92104 5.36197 0
M  V30 457 H 43.5329 4.41798 3.65359 0
M  V30 458 H 41.9299 5.07166 3.20785 0
M  V30 459 H 42.9999 4.44329 1.94165 0
M  V30 460 N 44.343 -0.763751 1.37857 0
M  V30 461 C 45.589 -1.52396 1.3471 0
M  V30 462 C 45.944 -1.92288 -0.0656435 0
M  V30 463 O 45.237 -1.6181 -1.02606 0
M  V30 464 C 45.431 -2.79499 2.22745 0
M  V30 465 C 45.26 -2.52031 3.72438 0
M  V30 466 C 44.03 -2.45759 4.4151 0
M  V30 467 C 46.228 -2.19489 4.65112 0
M  V30 468 N 44.21 -2.1046 5.76697 0
M  V30 469 C 45.581 -1.94396 5.88736 0
M  V30 470 C 47.636 -2.05712 4.53417 0
M  V30 471 C 46.339 -1.56917 7.01975 0
M  V30 472 C 48.365 -1.69634 5.66549 0
M  V30 473 C 47.727 -1.45407 6.89229 0
M  V30 474 H 43.826 -0.55765 0.548225 0
M  V30 475 H 46.41 -0.890302 1.73152 0
M  V30 476 H 44.581 -3.4069 1.86507 0
M  V30 477 H 46.313 -3.45465 2.10798 0
M  V30 478 H 43.068 -2.61885 3.94605 0
M  V30 479 H 43.492 -1.95484 6.48163 0
M  V30 480 H 48.134 -2.23123 3.59133 0
M  V30 481 H 45.852 -1.38246 7.96187 0
M  V30 482 H 49.438 -1.59621 5.59475 0
M  V30 483 H 48.318 -1.17904 7.75286 0
M  V30 484 N 45.8211 -1.22559 -0.990812 0
M  V30 485 C 46.7691 -0.994798 -2.10253 0
M  V30 486 C 47.7631 0.0627798 -1.69284 0
M  V30 487 O 48.9691 -0.0898392 -1.79776 0
M  V30 488 H 45.3441 -0.304527 -0.687581 0
M  V30 489 H 47.3151 -1.93812 -2.26891 0
M  V30 490 C 46.0641 -0.591439 -3.42633 0
M  V30 491 H 45.3871 -1.3969 -3.74602 0
M  V30 492 H 46.8271 -0.469385 -4.21394 0
M  V30 493 C 45.2861 0.699232 -3.29564 0
M  V30 494 O 45.8161 1.75112 -3.61523 0
M  V30 495 N 44.0221 0.671182 -2.82743 0
M  V30 496 H 43.5691 -0.185136 -2.56934 0
M  V30 497 H 43.5271 1.53502 -2.7438 0
M  V30 498 N 47.2992 1.18797 -1.03562 0
M  V30 499 C 48.5472 1.88278 -0.734569 0
M  V30 500 C 48.8682 1.8043 0.739586 0
M  V30 501 O 48.1382 1.21925 1.53333 0
M  V30 502 H 46.7182 0.696991 -0.268725 0
M  V30 503 H 49.3802 1.44192 -1.31129 0
M  V30 504 H 48.4762 2.94443 -1.03489 0
M  V30 505 N 48.7773 0.814389 1.34928 0
M  V30 506 C 49.6873 0.231978 2.3345 0
M  V30 507 C 50.7033 -0.629139 1.62228 0
M  V30 508 O 51.8793 -0.539052 1.94052 0
M  V30 509 C 48.9443 -0.603482 3.41407 0
M  V30 510 C 48.0053 0.279037 4.28392 0
M  V30 511 C 47.2383 -0.516643 5.31193 0
M  V30 512 O 47.4613 -1.75068 5.4287 0
M  V30 513 O 46.3953 0.0965652 6.01823 0
M  V30 514 H 50.2213 1.04721 2.85074 0
M  V30 515 H 47.8063 0.576343 1.37836 0
M  V30 516 H 49.6883 -1.07908 4.0735 0
M  V30 517 H 48.3633 -1.39618 2.92042 0
M  V30 518 H 47.2703 0.801948 3.65403 0
M  V30 519 H 48.6033 1.03588 4.81176 0
M  V30 520 N 50.2554 -1.46986 0.568584 0
M  V30 521 C 51.6714 -1.57946 0.229189 0
M  V30 522 C 51.8714 -1.56567 -1.26843 0
M  V30 523 O 50.9274 -1.47511 -2.04931 0
M  V30 524 C 52.2404 -2.87963 0.865909 0
M  V30 525 C 53.7884 -3.01568 0.838188 0
M  V30 526 C 54.2634 -4.34301 1.45419 0
M  V30 527 N 55.7544 -4.40965 1.41788 0
M  V30 528 C 56.4894 -5.42256 1.86403 0
M  V30 529 N 55.9854 -6.50297 2.38926 0
M  V30 530 N 57.7784 -5.3337 1.77405 0
M  V30 531 H 49.9294 -1.46126 1.54146 0
M  V30 532 H 52.1924 -0.696156 0.643484 0
M  V30 533 H 51.8984 -2.94742 1.91886 0
M  V30 534 H 51.7724 -3.75423 0.365687 0
M  V30 535 H 54.1594 -2.94379 -0.206106 0
M  V30 536 H 54.2404 -2.1562 1.37629 0
M  V30 537 H 53.8844 -4.42247 2.49761 0
M  V30 538 H 53.8144 -5.19 0.891435 0
M  V30 539 H 56.3054 -3.63484 1.03381 0
M  V30 540 H 56.6184 -7.23777 2.70863 0
M  V30 541 H 54.9634 -6.51155 2.42944 0
M  V30 542 H 58.1544 -4.47865 1.3614 0
M  V30 543 H 58.3274 -6.12169 2.12492 0
M  V30 544 N 51.7335 -0.305618 -1.54608 0
M  V30 545 C 52.6965 0.555591 -2.22364 0
M  V30 546 C 53.6965 1.05768 -1.21119 0
M  V30 547 O 54.8865 0.952972 -1.45822 0
M  V30 548 C 52.0185 1.76974 -2.91364 0
M  V30 549 H 53.2115 -0.0364572 -2.99878 0
M  V30 550 H 50.7645 -0.0565007 -1.56198 0
M  V30 551 H 51.4995 2.40151 -2.17941 0
M  V30 552 H 51.2845 1.41732 -3.65588 0
M  V30 553 H 52.7745 2.38148 -3.43038 0
M  V30 554 N 53.2116 1.57565 -0.0334293 0
M  V30 555 C 54.4576 1.92262 0.645226 0
M  V30 556 C 54.7906 0.910543 1.71531 0
M  V30 557 O 54.0656 -0.066099 1.94388 0
M  V30 558 C 54.3486 3.37422 1.2577 0
M  V30 559 C 54.2016 4.49369 0.196891 0
M  V30 560 C 55.5206 3.82628 2.17449 0
M  V30 561 H 52.6396 0.699171 0.233085 0
M  V30 562 H 55.2816 1.89779 -0.0915694 0
M  V30 563 H 53.4316 3.39669 1.88566 0
M  V30 564 H 55.1036 4.59254 -0.433962 0
M  V30 565 H 53.3466 4.31168 -0.477137 0
M  V30 566 H 54.0176 5.47978 0.665124 0
M  V30 567 H 56.4936 3.82145 1.64634 0
M  V30 568 H 55.3696 4.84883 2.57254 0
M  V30 569 H 55.6306 3.18376 3.0674 0
M  V30 570 N 54.6897 -0.239769 1.55765 0
M  V30 571 C 56.1007 -0.808263 1.68297 0
M  V30 572 C 56.4517 -1.85736 0.632181 0
M  V30 573 O 55.5767 -2.15277 -0.220204 0
M  V30 574 C 56.1717 -1.47284 3.05111 0
M  V30 575 C 54.7307 -1.98895 3.19559 0
M  V30 576 C 53.8777 -0.842575 2.64189 0
M  V30 577 H 56.8287 -0.0154422 1.58692 0
M  V30 578 H 56.8497 -2.34111 2.99954 0
M  V30 579 H 56.3617 -0.709053 3.81568 0
M  V30 580 H 54.4627 -2.78132 2.47938 0
M  V30 581 H 54.5757 -2.18143 4.26556 0
M  V30 582 H 52.9397 -1.24501 2.22197 0
M  V30 583 H 53.7227 -0.0917552 3.43177 0
M  V30 584 N 56.1678 -1.49265 -0.50573 0
M  V30 585 C 57.4158 -1.582 -1.25766 0
M  V30 586 C 57.7368 -0.268482 -1.93143 0
M  V30 587 O 57.0068 0.711833 -1.8251 0
M  V30 588 H 55.5868 -0.582873 -0.467191 0
M  V30 589 H 58.2488 -1.85865 -0.586525 0
M  V30 590 H 57.3448 -2.37563 -2.02412 0
M  V30 591 N 57.6459 0.756429 -1.3826 0
M  V30 592 C 58.6089 1.85176 -1.35065 0
M  V30 593 C 59.6089 1.58818 -0.251703 0
M  V30 594 O 60.7989 1.66615 -0.508433 0
M  V30 595 C 57.9309 3.22596 -1.10201 0
M  V30 596 H 59.1239 1.89417 -2.3251 0
M  V30 597 H 56.6769 0.95783 -1.23512 0
M  V30 598 H 57.4119 3.24025 -0.133504 0
M  V30 599 H 57.1969 3.43122 -1.89762 0
M  V30 600 H 58.6869 4.02673 -1.10654 0
M  V30 601 N 59.124 1.23083 0.984299 0
M  V30 602 C 60.535 1.05609 1.5396 0
M  V30 603 C 60.886 -0.377793 1.92528 0
M  V30 604 O 60.011 -1.26398 1.75649 0
M  V30 605 C 60.606 1.91087 2.7977 0
M  V30 606 C 59.165 1.77885 3.31713 0
M  V30 607 C 58.312 1.87028 2.04733 0
M  V30 608 H 61.263 1.36802 0.804419 0
M  V30 609 H 61.284 1.43336 3.5247 0
M  V30 610 H 60.796 2.9544 2.51668 0
M  V30 611 H 58.897 0.762995 3.64704 0
M  V30 612 H 59.01 2.61047 4.01735 0
M  V30 613 H 57.374 1.30565 2.18689 0
M  V30 614 H 58.157 2.92929 1.79017 0
M  V30 615 N 60.6021 -1.18246 1.0419 0
M  V30 616 C 61.5121 -2.25574 0.644476 0
M  V30 617 C 62.5281 -1.70845 -0.329826 0
M  V30 618 O 63.7041 -2.00554 -0.184443 0
M  V30 619 C 60.7691 -3.46697 0.014877 0
M  V30 620 C 59.8301 -4.16554 1.03834 0
M  V30 621 C 59.0631 -5.31894 0.438692 0
M  V30 622 O 59.2861 -5.65385 -0.754752 0
M  V30 623 O 58.2201 -5.90459 1.168 0
M  V30 624 H 62.0461 -2.61836 1.53869 0
M  V30 625 H 59.6311 -1.25352 0.812854 0
M  V30 626 H 61.5131 -4.20062 -0.335538 0
M  V30 627 H 60.1881 -3.12255 -0.853138 0
M  V30 628 H 59.0951 -3.45251 1.44057 0
M  V30 629 H 60.4281 -4.54998 1.87716 0
M  V30 630 N 62.0802 -0.821533 -1.34494 0
M  V30 631 C 63.0102 -0.257138 -2.3208 0
M  V30 632 C 63.9912 0.625645 -1.58176 0
M  V30 633 O 65.1762 0.552811 -1.86166 0
M  V30 634 C 62.3062 0.582958 -3.42372 0
M  V30 635 C 61.2602 -0.202571 -4.2752 0
M  V30 636 C 60.5862 0.760179 -5.29269 0
M  V30 637 C 61.8862 -1.40998 -5.02908 0
M  V30 638 H 63.5802 -1.07247 -2.79532 0
M  V30 639 H 61.1262 -0.517163 -1.34393 0
M  V30 640 H 63.0792 0.987972 -4.09655 0
M  V30 641 H 61.8032 1.43133 -2.93565 0
M  V30 642 H 60.4622 -0.588936 -3.61838 0
M  V30 643 H 60.1102 1.60447 -4.76724 0
M  V30 644 H 59.8102 0.238809 -5.87115 0
M  V30 645 H 61.3342 1.16308 -5.9942 0
M  V30 646 H 62.7482 -1.07905 -5.63054 0
M  V30 647 H 61.1452 -1.86689 -5.70322 0
M  V30 648 H 62.2152 -2.1889 -4.32684 0
M  V30 649 N 63.5583 1.46682 -0.576371 0
M  V30 650 C 64.4883 2.33028 0.148397 0
M  V30 651 C 65.4693 1.44961 0.889956 0
M  V30 652 O 66.6543 1.73789 0.866662 0
M  V30 653 C 63.7843 3.27117 1.1667 0
M  V30 654 C 62.7383 4.24575 0.540386 0
M  V30 655 C 62.0643 5.08126 1.6647 0
M  V30 656 C 63.3643 5.19722 -0.518331 0
M  V30 657 H 65.0583 2.93875 -0.572509 0
M  V30 658 H 62.6043 1.41315 -0.276768 0
M  V30 659 H 64.5573 3.86374 1.68204 0
M  V30 660 H 63.2813 2.64364 1.9178 0
M  V30 661 H 61.9403 3.66571 0.0461769 0
M  V30 662 H 61.5883 4.41762 2.40531 0
M  V30 663 H 61.2883 5.74122 1.25131 0
M  V30 664 H 62.8123 5.70246 2.18293 0
M  V30 665 H 64.2263 5.73232 -0.0883058 0
M  V30 666 H 62.6233 5.94026 -0.851679 0
M  V30 667 H 63.6933 4.64037 -1.40703 0
M  V30 668 N 65.0364 0.313813 1.54444 0
M  V30 669 C 65.9464 -0.565714 2.27677 0
M  V30 670 C 66.9624 -1.13754 1.31666 0
M  V30 671 O 68.1384 -1.15959 1.64668 0
M  V30 672 C 65.2034 -1.71528 3.01296 0
M  V30 673 C 64.2644 -1.17624 4.12872 0
M  V30 674 C 63.4974 -2.27102 4.8297 0
M  V30 675 O 63.7204 -3.47256 4.52514 0
M  V30 676 O 62.6544 -1.9307 5.70094 0
M  V30 677 H 66.4804 0.0287296 3.03686 0
M  V30 678 H 64.0654 0.0798312 1.49187 0
M  V30 679 H 65.9474 -2.38476 3.4743 0
M  V30 680 H 64.6224 -2.29608 2.2817 0
M  V30 681 H 63.5294 -0.472124 3.71109 0
M  V30 682 H 64.8624 -0.640695 4.88012 0
M  V30 683 N 66.5145 -1.57545 0.0417849 0
M  V30 684 C 67.9305 -1.56467 -0.314704 0
M  V30 685 C 68.1305 -1.04859 -1.72066 0
M  V30 686 O 67.1865 -0.700983 -2.42575 0
M  V30 687 C 68.4995 -3.00317 -0.15174 0
M  V30 688 C 70.0475 -3.12201 -0.223553 0
M  V30 689 C 70.5225 -4.57913 -0.0892295 0
M  V30 690 N 72.0135 -4.6297 -0.145808 0
M  V30 691 C 72.7485 -5.73362 -0.0658459 0
M  V30 692 N 72.2445 -6.92769 0.0659282 0
M  V30 693 N 74.0375 -5.6197 -0.12075 0
M  V30 694 H 66.1885 -1.89416 0.961014 0
M  V30 695 H 68.4515 -0.871862 0.372237 0
M  V30 696 H 68.1575 -3.42073 0.817254 0
M  V30 697 H 68.0315 -3.65892 -0.916692 0
M  V30 698 H 70.4185 -2.70349 -1.18301 0
M  V30 699 H 70.4995 -2.49323 0.571994 0
M  V30 700 H 70.1435 -5.00448 0.866867 0
M  V30 701 H 70.0735 -5.18786 -0.903802 0
M  V30 702 H 72.5645 -3.7709 -0.247286 0
M  V30 703 H 72.8775 -7.72707 0.119905 0
M  V30 704 H 71.2225 -6.94927 0.100885 0
M  V30 705 H 74.4135 -4.67572 -0.222187 0
M  V30 706 H 74.5865 -6.47977 -0.0549735 0
M  V30 707 N 67.9926 0.231505 -1.5589 0
M  V30 708 C 68.9226 1.29022 -1.94617 0
M  V30 709 C 69.9036 1.4941 -0.813067 0
M  V30 710 O 71.0886 1.6176 -1.07459 0
M  V30 711 C 68.2186 2.64199 -2.25424 0
M  V30 712 C 67.1726 2.58484 -3.41131 0
M  V30 713 C 66.4986 3.97599 -3.57518 0
M  V30 714 C 67.7986 2.1413 -4.76388 0
M  V30 715 H 69.4926 0.968563 -2.83301 0
M  V30 716 H 67.0386 0.464479 -1.36303 0
M  V30 717 H 68.9916 3.38413 -2.51107 0
M  V30 718 H 67.7156 2.98032 -1.33583 0
M  V30 719 H 66.3746 1.86727 -3.15481 0
M  V30 720 H 66.0226 4.28723 -2.6307 0
M  V30 721 H 65.7226 3.94659 -4.35337 0
M  V30 722 H 67.2466 4.7349 -3.85538 0
M  V30 723 H 68.6606 2.78083 -5.01341 0
M  V30 724 H 67.0576 2.2227 -5.57419 0
M  V30 725 H 68.1276 1.09331 -4.72414 0
M  V30 726 N 69.4707 1.49531 0.497807 0
M  V30 727 C 70.4337 1.65916 1.58128 0
M  V30 728 C 71.4337 0.530825 1.51786 0
M  V30 729 O 72.6237 0.797342 1.54881 0
M  V30 730 C 69.7557 1.65951 2.9778 0
M  V30 731 H 70.9487 2.62556 1.44929 0
M  V30 732 H 68.5017 1.38611 0.722275 0
M  V30 733 H 69.2367 0.709065 3.16453 0
M  V30 734 H 69.0217 2.47897 3.03792 0
M  V30 735 H 70.5117 1.80673 3.76493 0
M  V30 736 N 70.9488 -0.749086 1.3866 0
M  V30 737 C 72.3648 -1.05276 1.19955 0
M  V30 738 C 72.5648 -2.01435 0.05134 0
M  V30 739 O 71.6208 -2.45232 -0.60147 0
M  V30 740 C 72.9338 -1.62853 2.52783 0
M  V30 741 C 74.4818 -1.75002 2.59506 0
M  V30 742 C 74.9568 -2.35991 3.92521 0
M  V30 743 N 76.4478 -2.43416 3.94085 0
M  V30 744 C 77.1828 -2.91511 4.9377 0
M  V30 745 N 76.6788 -3.39608 6.03853 0
M  V30 746 N 78.4718 -2.90592 4.81157 0
M  V30 747 H 70.6228 -0.111066 2.12109 0
M  V30 748 H 72.8858 -0.111901 0.941373 0
M  V30 749 H 72.5918 -0.99664 3.37283 0
M  V30 750 H 72.4658 -2.61854 2.715 0
M  V30 751 H 74.8528 -2.37317 1.75398 0
M  V30 752 H 74.9338 -0.74693 2.44652 0
M  V30 753 H 74.5778 -1.74308 4.77053 0
M  V30 754 H 74.5078 -3.3695 4.04688 0
M  V30 755 H 76.9988 -2.09405 3.14576 0
M  V30 756 H 77.3118 -3.74775 6.75843 0
M  V30 757 H 75.6568 -3.37653 6.07466 0
M  V30 758 H 78.8478 -2.52332 3.94267 0
M  V30 759 H 79.0208 -3.27762 5.58996 0
M  V30 760 N 72.4269 -1.23603 -0.977757 0
M  V30 761 C 73.3899 -1.02069 -2.05218 0
M  V30 762 C 74.3899 0.0184305 -1.60789 0
M  V30 763 O 75.5799 -0.221569 -1.72785 0
M  V30 764 C 72.7119 -0.544926 -3.36517 0
M  V30 765 H 73.9049 -1.9742 -2.25755 0
M  V30 766 H 71.4579 -1.05684 -1.15155 0
M  V30 767 H 72.1929 0.412241 -3.21669 0
M  V30 768 H 71.9779 -1.2948 -3.70105 0
M  V30 769 H 73.4679 -0.414985 -4.15533 0
M  V30 770 N 73.905 1.17692 -1.04816 0
M  V30 771 C 75.153 1.87488 -0.754497 0
M  V30 772 C 75.474 1.81205 0.720407 0
M  V30 773 O 74.744 1.23544 1.52032 0
M  V30 774 H 73.324 0.694101 -0.276102 0
M  V30 775 H 75.986 1.42793 -1.32651 0
M  V30 776 H 75.082 2.93328 -1.06606 0
M  V30 777 N 75.3831 0.828654 1.34056 0
M  V30 778 C 76.3301 0.252567 2.29414 0
M  V30 779 C 77.3001 -0.62588 1.53857 0
M  V30 780 O 78.4851 -0.566312 1.82202 0
M  V30 781 C 75.6251 -0.574831 3.40279 0
M  V30 782 C 74.7381 0.326499 4.30764 0
M  V30 783 C 73.8731 -0.511016 5.28736 0
M  V30 784 C 72.9121 0.389342 6.1086 0
M  V30 785 N 72.0491 -0.409439 7.00905 0
M  V30 786 H 76.8891 1.07108 2.78086 0
M  V30 787 H 74.4261 0.539677 1.36843 0
M  V30 788 H 76.3841 -1.06992 4.03248 0
M  V30 789 H 75.0141 -1.35841 2.92826 0
M  V30 790 H 74.0661 0.939837 3.68607 0
M  V30 791 H 75.3781 1.01857 4.88289 0
M  V30 792 H 74.5321 -1.07035 5.97184 0
M  V30 793 H 73.2711 -1.23657 4.71763 0
M  V30 794 H 72.2761 0.960769 5.4134 0
M  V30 795 H 73.5011 1.1131 6.69916 0
M  V30 796 H 71.4471 -1.11856 6.46393 0
M  V30 797 H 71.3641 0.224126 7.55668 0
M  V30 798 H 72.6321 -0.951336 7.73673 0
M  V30 799 N 76.8612 -1.46375 0.584142 0
M  V30 800 C 77.8242 -2.28784 -0.138108 0
M  V30 801 C 78.8242 -1.38471 -0.817462 0
M  V30 802 O 80.0142 -1.60833 -0.669199 0
M  V30 803 C 77.1462 -3.18892 -1.20503 0
M  V30 804 H 78.3392 -2.94117 0.586127 0
M  V30 805 H 75.8922 -1.52509 0.342171 0
M  V30 806 H 76.6272 -2.58309 -1.96079 0
M  V30 807 H 76.4122 -3.85388 -0.722384 0
M  V30 808 H 77.9022 -3.80914 -1.71155 0
M  V30 809 N 78.3393 -0.321999 -1.54275 0
M  V30 810 C 79.3023 0.531975 -2.22941 0
M  V30 811 C 80.3023 1.04478 -1.22234 0
M  V30 812 O 81.4923 0.937452 -1.46825 0
M  V30 813 C 78.6243 1.73874 -2.93224 0
M  V30 814 H 79.8173 -0.0682612 -2.99822 0
M  V30 815 H 77.3703 -0.0730644 -1.56129 0
M  V30 816 H 78.1053 2.37825 -2.20476 0
M  V30 817 H 77.8903 1.37847 -3.6707 0
M  V30 818 H 79.3803 2.34496 -3.45545 0
M  V30 819 N 79.8174 1.5752 -0.0501392 0
M  V30 820 C 80.7474 2.14502 0.922566 0
M  V30 821 C 81.7284 1.06642 1.3252 0
M  V30 822 O 82.9134 1.34577 1.4001 0
M  V30 823 C 80.0434 2.68916 2.19776 0
M  V30 824 C 78.9974 3.8175 1.93523 0
M  V30 825 C 78.3234 4.22677 3.27487 0
M  V30 826 C 79.6234 5.06932 1.25765 0
M  V30 827 H 81.3174 2.9603 0.447952 0
M  V30 828 H 78.8634 1.42401 0.214024 0
M  V30 829 H 80.8164 3.07419 2.88222 0
M  V30 830 H 79.5404 1.84578 2.69441 0
M  V30 831 H 78.1994 3.43718 1.27489 0
M  V30 832 H 77.8474 3.35291 3.74952 0
M  V30 833 H 77.5474 4.98725 3.1072 0
M  V30 834 H 79.0714 4.63779 3.97166 0
M  V30 835 H 80.4854 5.42888 1.84244 0
M  V30 836 H 78.8824 5.88116 1.19328 0
M  V30 837 H 79.9524 4.84337 0.233536 0
M  V30 838 N 81.2955 -0.223234 1.56011 0
M  V30 839 C 82.5425 -0.947875 1.78946 0
M  V30 840 C 82.8705 -1.844 0.618608 0
M  V30 841 O 82.1255 -1.91629 -0.397093 0
M  V30 842 C 82.4245 -1.81948 3.0762 0
M  V30 843 C 82.0905 -1.07672 4.37856 0
M  V30 844 C 80.7525 -0.871544 4.73242 0
M  V30 845 C 83.1045 -0.552081 5.18268 0
M  V30 846 C 80.4325 -0.129791 5.86556 0
M  V30 847 C 82.7845 0.17632 6.32354 0
M  V30 848 C 81.4485 0.39277 6.66343 0
M  V30 849 H 80.7185 -0.346852 0.654809 0
M  V30 850 H 83.3655 -0.216171 1.90276 0
M  V30 851 H 81.6705 -2.61899 2.91404 0
M  V30 852 H 83.3675 -2.38227 3.22566 0
M  V30 853 H 79.9575 -1.24662 4.1007 0
M  V30 854 H 84.1415 -0.698076 4.91366 0
M  V30 855 H 79.3975 0.048153 6.11381 0
M  V30 856 H 83.5715 0.590367 6.93893 0
M  V30 857 H 81.1985 0.969466 7.53993 0
M  V30 858 N 82.7736 -1.49793 -0.48987 0
M  V30 859 C 84.0196 -1.60078 -1.24511 0
M  V30 860 C 84.3526 -0.291608 -1.91998 0
M  V30 861 O 83.6276 0.705647 -1.81248 0
M  V30 862 C 83.9106 -2.76791 -2.30345 0
M  V30 863 C 83.7636 -4.17535 -1.67286 0
M  V30 864 C 85.0826 -2.89111 -3.31817 0
M  V30 865 H 82.2016 -0.582645 -0.451324 0
M  V30 866 H 84.8436 -1.82117 -0.541612 0
M  V30 867 H 82.9936 -2.5813 -2.90346 0
M  V30 868 H 84.6656 -4.4774 -1.11026 0
M  V30 869 H 82.9086 -4.22665 -0.976577 0
M  V30 870 H 83.5796 -4.95094 -2.44103 0
M  V30 871 H 86.0556 -3.06133 -2.81819 0
M  V30 872 H 84.9316 -3.72433 -4.03219 0
M  V30 873 H 85.1926 -1.9893 -3.94815 0
M  V30 874 N 84.2517 0.741722 -1.39055 0
M  V30 875 C 85.4767 1.53607 -1.39354 0
M  V30 876 C 85.9017 1.88096 0.0116905 0
M  V30 877 O 85.2597 1.5143 0.996924 0
M  V30 878 C 85.3077 2.80441 -2.26682 0
M  V30 879 O 84.4117 3.76088 -1.69208 0
M  V30 880 H 83.7527 0.464142 -0.474835 0
M  V30 881 H 86.2827 0.915665 -1.82967 0
M  V30 882 H 86.2927 3.29246 -2.40959 0
M  V30 883 H 84.9677 2.5467 -3.2881 0
M  V30 884 H 83.5447 3.34833 -1.64138 0
M  V30 885 N 85.7298 1.2412 0.971189 0
M  V30 886 C 86.6778 1.02812 2.08644 0
M  V30 887 C 87.6718 -0.0358403 1.69362 0
M  V30 888 O 88.8778 0.118429 1.7961 0
M  V30 889 H 85.2528 0.315428 0.682649 0
M  V30 890 H 87.2238 1.97397 2.23779 0
M  V30 891 C 85.9728 0.645874 3.41649 0
M  V30 892 H 85.2958 1.45632 3.72332 0
M  V30 893 H 86.7358 0.536366 4.20594 0
M  V30 894 C 85.1948 -0.646713 3.30635 0
M  V30 895 O 85.7248 -1.69338 3.64263 0
M  V30 896 N 83.9308 -0.626115 2.83775 0
M  V30 897 H 83.4778 0.225988 2.56607 0
M  V30 898 H 83.4358 -1.49117 2.76788 0
M  V30 899 N 87.2079 -1.17134 1.05439 0
M  V30 900 C 88.1559 -2.23289 0.651511 0
M  V30 901 C 89.1499 -1.66186 -0.328411 0
M  V30 902 O 90.3559 -1.78949 -0.194206 0
M  V30 903 H 86.7309 -0.726938 0.192523 0
M  V30 904 H 88.7019 -2.54565 1.55689 0
M  V30 905 C 87.4509 -3.47671 0.0448436 0
M  V30 906 H 86.7739 -3.91918 0.78996 0
M  V30 907 H 88.2139 -4.2353 -0.19964 0
M  V30 908 C 86.6729 -3.14453 -1.20918 0
M  V30 909 O 87.2029 -3.29459 -2.29825 0
M  V30 910 N 85.4089 -2.68657 -1.10779 0
M  V30 911 H 84.9559 -2.56646 -0.221526 0
M  V30 912 H 84.9139 -2.46804 -1.9477 0
M  V30 913 N 88.686 -0.835752 -1.33615 0
M  V30 914 C 89.911 -0.442389 -2.02627 0
M  V30 915 C 90.336 0.947735 -1.62479 0
M  V30 916 O 89.694 1.61907 -0.815826 0
M  V30 917 C 89.742 -0.567216 -3.56111 0
M  V30 918 O 88.846 0.407799 -4.10379 0
M  V30 919 H 88.187 -0.180278 -0.639059 0
M  V30 920 H 90.717 -1.12972 -1.70583 0
M  V30 921 H 90.727 -0.447708 -4.05536 0
M  V30 922 H 89.402 -1.58103 -3.84677 0
M  V30 923 H 87.979 0.246107 -3.72087 0
M  V30 924 N 90.1641 1.46063 -0.591896 0
M  V30 925 C 91.5801 1.57561 -0.254288 0
M  V30 926 C 91.7801 1.58565 1.24336 0
M  V30 927 O 90.8361 1.50753 2.02558 0
M  V30 928 C 92.1491 2.86549 -0.911611 0
M  V30 929 C 93.6971 3.00197 -0.886059 0
M  V30 930 C 94.1721 4.31933 -1.5231 0
M  V30 931 N 95.6631 4.38654 -1.48786 0
M  V30 932 C 96.3981 5.39222 -1.95006 0
M  V30 933 N 95.8941 6.46414 -2.49241 0
M  V30 934 N 97.6871 5.3048 -1.85868 0
M  V30 935 H 89.8381 1.43655 -1.56451 0
M  V30 936 H 92.1011 0.68583 -0.654478 0
M  V30 937 H 91.8071 2.91651 -1.96551 0
M  V30 938 H 91.6811 3.74794 -0.425368 0
M  V30 939 H 94.0681 2.9467 0.159246 0
M  V30 940 H 94.1491 2.13403 -1.41041 0
M  V30 941 H 93.7931 4.38217 -2.56765 0
M  V30 942 H 93.7231 5.17516 -0.973891 0
M  V30 943 H 96.2141 3.61793 -1.09151 0
M  V30 944 H 96.5271 7.19376 -2.82344 0
M  V30 945 H 94.8721 6.47208 -2.53272 0
M  V30 946 H 98.0631 4.45643 -1.43248 0
M  V30 947 H 98.2361 6.08711 -2.22204 0
M  V30 948 N 91.6422 0.330177 1.54103 0
M  V30 949 C 93.0582 -0.0222371 1.59585 0
M  V30 950 C 93.2582 -1.49902 1.34654 0
M  V30 951 O 92.3142 -2.25592 1.13421 0
M  V30 952 C 93.6272 0.401932 2.98002 0
M  V30 953 C 95.1752 0.353145 3.11001 0
M  V30 954 C 95.6502 0.752576 4.51775 0
M  V30 955 N 97.1412 0.706239 4.57784 0
M  V30 956 C 97.8762 0.987417 5.64834 0
M  V30 957 N 97.3722 1.33607 6.79795 0
M  V30 958 N 99.1652 0.91254 5.54643 0
M  V30 959 H 91.3162 1.29228 1.68564 0
M  V30 960 H 93.5792 0.525906 0.78875 0
M  V30 961 H 93.2852 1.4311 3.21267 0
M  V30 962 H 93.1592 -0.229699 3.765 0
M  V30 963 H 95.5462 -0.666822 2.87467 0
M  V30 964 H 95.6272 1.0198 2.34593 0
M  V30 965 H 95.2712 1.77049 4.76042 0
M  V30 966 H 95.2012 0.0635409 5.26562 0
M  V30 967 H 97.6922 0.44889 3.75224 0
M  V30 968 H 98.0052 1.53582 7.57385 0
M  V30 969 H 96.3502 1.37439 6.81275 0
M  V30 970 H 99.5412 0.639601 4.6371 0
M  V30 971 H 99.7142 1.13503 6.37982 0
M  V30 972 N 93.1203 -1.57491 0.0584922 0
M  V30 973 C 94.0833 -2.1085 -0.898617 0
M  V30 974 C 95.0833 -1.02964 -1.23511 0
M  V30 975 O 96.2733 -1.29007 -1.17059 0
M  V30 976 C 93.4053 -2.59881 -2.20623 0
M  V30 977 H 94.5983 -2.96715 -0.435936 0
M  V30 978 H 92.1513 -1.55141 -0.190023 0
M  V30 979 H 92.8863 -1.77431 -2.71457 0
M  V30 980 H 92.6713 -3.38727 -1.97501 0
M  V30 981 H 94.1613 -3.01285 -2.89166 0
M  V30 982 N 94.5984 0.214957 -1.56127 0
M  V30 983 C 96.0144 0.564948 -1.49267 0
M  V30 984 C 96.2144 1.86827 -0.754838 0
M  V30 985 O 95.2704 2.50745 -0.297198 0
M  V30 986 C 96.5834 0.638071 -2.93852 0
M  V30 987 C 98.1314 0.728253 -3.0441 0
M  V30 988 C 98.6064 0.832663 -4.50367 0
M  V30 989 N 100.097 0.896712 -4.54437 0
M  V30 990 C 100.832 0.997324 -5.6466 0
M  V30 991 N 100.328 1.06147 -6.8462 0
M  V30 992 N 102.121 1.03297 -5.52527 0
M  V30 993 H 94.2724 -0.640211 -2.02522 0
M  V30 994 H 96.5354 -0.225507 -0.920788 0
M  V30 995 H 96.2414 -0.250126 -3.50809 0
M  V30 996 H 96.1154 1.49947 -3.46115 0
M  V30 997 H 98.5024 1.60689 -2.47514 0
M  V30 998 H 98.5834 -0.158952 -2.55306 0
M  V30 999 H 98.2274 -0.0415417 -5.07883 0
M  V30 1000 H 98.1574 1.73538 -4.97184 0
M  V30 1001 H 100.648 0.857188 -3.6805 0
M  V30 1002 H 100.961 1.1382 -7.64372 0
M  V30 1003 H 99.3064 1.03049 -6.87318 0
M  V30 1004 H 102.497 0.979558 -4.57736 0
M  V30 1005 H 102.67 1.10793 -6.38458 0
M  V30 1006 N 96.0765 1.50051 0.48192 0
M  V30 1007 C 97.4875 1.5348 1.06305 0
M  V30 1008 C 97.8385 0.331997 1.93371 0
M  V30 1009 O 96.9635 -0.556256 2.09129 0
M  V30 1010 C 97.5585 2.7813 1.93466 0
M  V30 1011 C 96.1175 2.84275 2.46707 0
M  V30 1012 C 95.2645 2.47637 1.24785 0
M  V30 1013 H 98.2155 1.56472 0.264995 0
M  V30 1014 H 98.2365 2.59372 2.78399 0
M  V30 1015 H 97.7485 3.65654 1.30072 0
M  V30 1016 H 95.8495 2.01077 3.13686 0
M  V30 1017 H 95.9625 3.8691 2.82555 0
M  V30 1018 H 94.3265 1.99835 1.57918 0
M  V30 1019 H 95.1095 3.37457 0.630694 0
M  V30 1020 N 97.5546 -0.734337 1.39446 0
M  V30 1021 C 98.4646 -1.87879 1.40495 0
M  V30 1022 C 99.4806 -1.714 0.299672 0
M  V30 1023 O 100.657 -1.93991 0.541249 0
M  V30 1024 C 97.7216 -3.23477 1.24754 0
M  V30 1025 C 96.7826 -3.52344 2.45259 0
M  V30 1026 C 96.0156 -4.81473 2.30259 0
M  V30 1027 O 96.2386 -5.55237 1.30643 0
M  V30 1028 O 95.1726 -5.10254 3.19256 0
M  V30 1029 H 98.9986 -1.89949 2.36966 0
M  V30 1030 H 96.5836 -0.882243 1.20569 0
M  V30 1031 H 98.4656 -4.04509 1.18111 0
M  V30 1032 H 97.1406 -3.22176 0.313781 0
M  V30 1033 H 96.0476 -2.71396 2.57478 0
M  V30 1034 H 97.3806 -3.58426 3.37331 0
M  V30 1035 N 99.0327 -1.24633 -0.964593 0
M  V30 1036 C 99.9627 -1.06611 -2.07741 0
M  V30 1037 C 100.944 0.0218666 -1.70086 0
M  V30 1038 O 102.129 -0.145793 -1.93652 0
M  V30 1039 C 99.2587 -0.673444 -3.40708 0
M  V30 1040 C 98.2127 -1.71054 -3.92332 0
M  V30 1041 C 97.5387 -1.17285 -5.21678 0
M  V30 1042 C 98.8387 -3.10718 -4.19824 0
M  V30 1043 H 100.533 -1.99693 -2.23076 0
M  V30 1044 H 98.0787 -0.96152 -1.07195 0
M  V30 1045 H 100.032 -0.534345 -4.17998 0
M  V30 1046 H 98.7557 0.293073 -3.25282 0
M  V30 1047 H 97.4147 -1.83791 -3.17201 0
M  V30 1048 H 97.0627 -0.196847 -5.02615 0
M  V30 1049 H 96.7627 -1.86592 -5.57187 0
M  V30 1050 H 98.2867 -1.04593 -6.01575 0
M  V30 1051 H 99.7007 -3.01192 -4.87808 0
M  V30 1052 H 98.0977 -3.77406 -4.66567 0
M  V30 1053 H 99.1677 -3.58524 -3.26479 0
M  V30 1054 N 100.511 1.16574 -1.06058 0
M  V30 1055 C 101.474 2.19085 -0.673392 0
M  V30 1056 C 102.474 1.5835 0.279648 0
M  V30 1057 O 103.664 1.74088 0.0623488 0
M  V30 1058 C 100.796 3.40899 0.00954234 0
M  V30 1059 H 101.989 2.54853 -1.58081 0
M  V30 1060 H 99.5418 1.30808 -0.855516 0
M  V30 1061 H 100.277 3.10684 0.929826 0
M  V30 1062 H 100.062 3.86233 -0.67573 0
M  V30 1063 H 101.552 4.1675 0.266245 0
M  V30 1064 N 101.989 0.842826 1.3317 0
M  V30 1065 C 102.919 0.294028 2.31641 0
M  V30 1066 C 103.9 -0.600401 1.59151 0
M  V30 1067 O 105.085 -0.523124 1.87022 0
M  V30 1068 C 102.215 -0.528416 3.43257 0
M  V30 1069 C 101.169 0.27056 4.27144 0
M  V30 1070 C 100.495 -0.675881 5.30411 0
M  V30 1071 C 101.795 1.48981 5.00602 0
M  V30 1072 H 103.489 1.11681 2.77791 0
M  V30 1073 H 101.035 0.538478 1.33553 0
M  V30 1074 H 102.988 -0.922674 4.11175 0
M  V30 1075 H 101.712 -1.38445 2.95805 0
M  V30 1076 H 100.371 0.646427 3.60856 0
M  V30 1077 H 100.019 -1.52842 4.79216 0
M  V30 1078 H 99.7189 -0.145374 5.8742 0
M  V30 1079 H 101.243 -1.06757 6.01195 0
M  V30 1080 H 102.657 1.16849 5.61266 0
M  V30 1081 H 101.054 1.95739 5.6728 0
M  V30 1082 H 102.124 2.25746 4.29147 0
M  V30 1083 N 103.467 -1.45747 0.599634 0
M  V30 1084 C 104.883 -1.57424 0.26264 0
M  V30 1085 C 105.083 -1.59222 -1.23493 0
M  V30 1086 O 104.139 -1.51825 -2.01756 0
M  V30 1087 C 105.452 -2.86061 0.926795 0
M  V30 1088 C 107 -2.99722 0.901967 0
M  V30 1089 C 107.475 -4.31119 1.54598 0
M  V30 1090 N 108.966 -4.37858 1.5111 0
M  V30 1091 C 109.701 -5.3818 1.97863 0
M  V30 1092 N 109.197 -6.45083 2.52666 0
M  V30 1093 N 110.99 -5.29487 1.88679 0
M  V30 1094 H 103.141 -1.42823 1.57211 0
M  V30 1095 H 105.404 -0.68235 0.658105 0
M  V30 1096 H 105.11 -2.90605 1.98095 0
M  V30 1097 H 104.984 -3.74563 0.445238 0
M  V30 1098 H 107.371 -2.9475 -0.143617 0
M  V30 1099 H 107.452 -2.12652 1.42171 0
M  V30 1100 H 107.096 -4.36849 2.59085 0
M  V30 1101 H 107.026 -5.16992 1.00132 0
M  V30 1102 H 109.517 -3.61209 1.11068 0
M  V30 1103 H 109.83 -7.17869 2.86155 0
M  V30 1104 H 108.175 -6.45856 2.56701 0
M  V30 1105 H 111.366 -4.44877 1.4561 0
M  V30 1106 H 111.539 -6.07524 2.25429 0
M  V30 1107 N 104.945 -0.338344 -1.53925 0
M  V30 1108 C 106.192 0.259758 -2.00827 0
M  V30 1109 C 106.52 1.50973 -1.22628 0
M  V30 1110 O 105.775 1.93379 -0.300509 0
M  V30 1111 C 106.074 0.62448 -3.51902 0
M  V30 1112 C 105.74 -0.528006 -4.47798 0
M  V30 1113 C 104.402 -0.844298 -4.73735 0
M  V30 1114 C 106.754 -1.30143 -5.0469 0
M  V30 1115 C 104.082 -1.93648 -5.53821 0
M  V30 1116 C 106.434 -2.38382 -5.85967 0
M  V30 1117 C 105.098 -2.70576 -6.10201 0
M  V30 1118 H 104.368 0.0950523 -0.734878 0
M  V30 1119 H 107.015 -0.465182 -1.85764 0
M  V30 1120 H 105.32 1.43006 -3.64769 0
M  V30 1121 H 107.017 1.09905 -3.85645 0
M  V30 1122 H 103.607 -0.271421 -4.2774 0
M  V30 1123 H 107.791 -1.07033 -4.84621 0
M  V30 1124 H 103.047 -2.19021 -5.70824 0
M  V30 1125 H 107.221 -2.98746 -6.29066 0
M  V30 1126 H 104.848 -3.55333 -6.72044 0
M  V30 1127 N 106.423 1.57458 -0.0668435 0
M  V30 1128 C 107.386 2.11323 0.887422 0
M  V30 1129 C 108.386 1.03618 1.22964 0
M  V30 1130 O 109.576 1.29626 1.16373 0
M  V30 1131 C 106.708 2.61048 2.19242 0
M  V30 1132 H 107.901 2.96942 0.420194 0
M  V30 1133 H 105.454 1.55239 0.181793 0
M  V30 1134 H 106.189 1.78868 2.70512 0
M  V30 1135 H 105.974 3.39769 1.95702 0
M  V30 1136 H 107.464 3.02814 2.87565 0
M  V30 1137 N 107.901 -0.206675 1.56239 0
M  V30 1138 C 109.317 -0.557025 1.49564 0
M  V30 1139 C 109.517 -1.86424 0.764735 0
M  V30 1140 O 108.573 -2.50584 0.310491 0
M  V30 1141 C 109.886 -0.622478 2.94186 0
M  V30 1142 C 111.434 -0.712099 3.04792 0
M  V30 1143 C 111.909 -0.808767 4.50803 0
M  V30 1144 N 113.4 -0.8726 4.54907 0
M  V30 1145 C 114.135 -0.967365 5.65181 0
M  V30 1146 N 113.631 -1.02515 6.85173 0
M  V30 1147 N 115.424 -1.00366 5.53067 0
M  V30 1148 H 107.575 0.650943 2.02179 0
M  V30 1149 H 109.838 0.230387 0.919579 0
M  V30 1150 H 109.544 0.268727 3.50672 0
M  V30 1151 H 109.418 -1.4811 3.46905 0
M  V30 1152 H 111.805 -1.59374 2.48363 0
M  V30 1153 H 111.886 0.172489 2.55218 0
M  V30 1154 H 111.53 0.0684754 5.07854 0
M  V30 1155 H 111.46 -1.70899 4.98098 0
M  V30 1156 H 113.951 -0.837657 3.68499 0
M  V30 1157 H 114.264 -1.09765 7.64965 0
M  V30 1158 H 112.609 -0.994026 6.87855 0
M  V30 1159 H 115.8 -0.95527 4.58249 0
M  V30 1160 H 115.973 -1.07405 6.39037 0
M  V30 1161 N 109.379 -1.50304 -0.473955 0
M  V30 1162 C 110.309 -1.71886 -1.58042 0
M  V30 1163 C 111.29 -0.567799 -1.60344 0
M  V30 1164 O 112.475 -0.806623 -1.76656 0
M  V30 1165 C 109.605 -1.81036 -2.96384 0
M  V30 1166 C 108.559 -2.962 -3.08949 0
M  V30 1167 C 107.885 -2.9049 -4.48909 0
M  V30 1168 C 109.185 -4.36752 -2.86434 0
M  V30 1169 H 110.879 -2.64527 -1.40234 0
M  V30 1170 H 108.425 -1.27295 -0.673201 0
M  V30 1171 H 110.378 -1.94719 -3.73714 0
M  V30 1172 H 109.102 -0.850147 -3.15341 0
M  V30 1173 H 107.761 -2.82164 -2.3405 0
M  V30 1174 H 107.409 -1.92321 -4.64781 0
M  V30 1175 H 107.109 -3.67802 -4.58253 0
M  V30 1176 H 108.633 -3.06218 -5.28264 0
M  V30 1177 H 110.047 -4.5133 -3.53517 0
M  V30 1178 H 108.444 -5.15493 -3.07225 0
M  V30 1179 H 109.514 -4.49321 -1.82316 0
M  V30 1180 N 110.857 0.726932 -1.39834 0
M  V30 1181 C 112.105 1.4837 -1.37225 0
M  V30 1182 C 112.426 1.94979 0.0284857 0
M  V30 1183 O 111.696 1.69555 0.981213 0
M  V30 1184 H 110.276 0.55043 -0.505011 0
M  V30 1185 H 112.938 0.862468 -1.74778 0
M  V30 1186 H 112.034 2.36198 -2.04003 0
M  V30 1187 N 112.336 1.25143 0.95797 0
M  V30 1188 C 113.583 1.09692 1.70217 0
M  V30 1189 C 113.911 -0.362654 1.91089 0
M  V30 1190 O 113.166 -1.28386 1.47701 0
M  V30 1191 C 113.465 1.79272 3.09187 0
M  V30 1192 C 113.131 3.29196 3.08125 0
M  V30 1193 C 111.793 3.70096 3.07543 0
M  V30 1194 C 114.145 4.24995 3.0171 0
M  V30 1195 C 111.473 5.05213 2.9829 0
M  V30 1196 C 113.825 5.60132 2.93999 0
M  V30 1197 C 112.489 6.00365 2.9175 0
M  V30 1198 H 111.759 0.401393 0.622868 0
M  V30 1199 H 114.406 1.55372 1.11945 0
M  V30 1200 H 112.711 1.26014 3.70982 0
M  V30 1201 H 114.408 1.64773 3.65583 0
M  V30 1202 H 110.998 2.96651 3.09348 0
M  V30 1203 H 115.182 3.9439 3.01281 0
M  V30 1204 H 110.438 5.35569 2.94916 0
M  V30 1205 H 114.612 6.3406 2.87996 0
M  V30 1206 H 112.239 7.05023 2.84336 0
M  V30 1207 N 113.814 -1.1601 1.06675 0
M  V30 1208 C 115.062 -1.86264 0.784229 0
M  V30 1209 C 115.383 -1.82328 -0.691488 0
M  V30 1210 O 114.653 -1.25947 -1.50047 0
M  V30 1211 H 113.233 -0.689621 0.28711 0
M  V30 1212 H 115.895 -1.40664 1.34906 0
M  V30 1213 H 114.991 -2.91595 1.11259 0
M  V30 1214 N 115.292 -0.849877 -1.32721 0
M  V30 1215 C 116.54 -0.450032 -1.97026 0
M  V30 1216 C 116.861 0.996604 -1.67609 0
M  V30 1217 O 116.131 1.6958 -0.980786 0
M  V30 1218 H 114.711 -0.163426 -0.728904 0
M  V30 1219 H 117.373 -1.08526 -1.6189 0
M  V30 1220 H 116.469 -0.591146 -3.0645 0
M  V30 1221 N 116.77 1.45427 -0.607355 0
M  V30 1222 C 117.7 2.3329 0.0989352 0
M  V30 1223 C 118.681 1.46816 0.859007 0
M  V30 1224 O 119.866 1.75588 0.829604 0
M  V30 1225 C 116.996 3.29518 1.09705 0
M  V30 1226 C 115.95 4.25626 0.450206 0
M  V30 1227 C 115.276 5.11542 1.55655 0
M  V30 1228 C 116.576 5.18505 -0.628455 0
M  V30 1229 H 118.27 2.92595 -0.634716 0
M  V30 1230 H 115.816 1.40696 -0.306681 0
M  V30 1231 H 117.769 3.89855 1.59971 0
M  V30 1232 H 116.493 2.68372 1.86129 0
M  V30 1233 H 115.152 3.66586 -0.0315886 0
M  V30 1234 H 114.8 4.46765 2.31107 0
M  V30 1235 H 114.5 5.76647 1.12925 0
M  V30 1236 H 116.024 5.74748 2.06148 0
M  V30 1237 H 117.438 5.72916 -0.209877 0
M  V30 1238 H 115.835 5.92085 -0.977489 0
M  V30 1239 H 116.905 4.60948 -1.50514 0
M  V30 1240 N 118.248 0.346503 1.53744 0
M  V30 1241 C 119.664 -0.00530975 1.59599 0
M  V30 1242 C 119.864 -1.48465 1.36236 0
M  V30 1243 O 118.92 -2.24376 1.15808 0
M  V30 1244 C 120.233 0.433516 2.97559 0
M  V30 1245 C 121.781 0.386111 3.10609 0
M  V30 1246 C 122.256 0.800451 4.50951 0
M  V30 1247 N 123.747 0.754753 4.5701 0
M  V30 1248 C 124.482 1.04727 5.63755 0
M  V30 1249 N 123.978 1.4081 6.7834 0
M  V30 1250 N 125.771 0.971316 5.53644 0
M  V30 1251 H 117.922 1.31009 1.67184 0
M  V30 1252 H 120.185 0.534242 0.783128 0
M  V30 1253 H 119.891 1.46509 3.19731 0
M  V30 1254 H 119.765 -0.189753 3.76722 0
M  V30 1255 H 122.152 -0.636295 2.88158 0
M  V30 1256 H 122.233 1.04462 2.33498 0
M  V30 1257 H 121.877 1.82088 4.74137 0
M  V30 1258 H 121.807 0.119386 5.26465 0
M  V30 1259 H 124.298 0.488662 3.74727 0
M  V30 1260 H 124.611 1.61607 7.55714 0
M  V30 1261 H 122.956 1.44657 6.79779 0
M  V30 1262 H 126.147 0.688748 4.63005 0
M  V30 1263 H 126.32 1.20263 6.36742 0
M  V30 1264 N 119.726 -1.57421 0.075193 0
M  V30 1265 C 120.689 -2.11791 -0.876203 0
M  V30 1266 C 121.689 -1.04268 -1.22412 0
M  V30 1267 O 122.879 -1.30242 -1.15684 0
M  V30 1268 C 120.011 -2.62207 -2.17854 0
M  V30 1269 H 121.204 -2.9716 -0.40444 0
M  V30 1270 H 118.757 -1.55333 -0.173557 0
M  V30 1271 H 119.492 -1.803 -2.6956 0
M  V30 1272 H 119.277 -3.40802 -1.93897 0
M  V30 1273 H 120.767 -3.04335 -2.85955 0
M  V30 1274 N 121.204 0.198386 -1.56346 0
M  V30 1275 C 122.114 1.2664 -1.97483 0
M  V30 1276 C 123.13 1.49989 -0.882002 0
M  V30 1277 O 124.306 1.62668 -1.18748 0
M  V30 1278 C 121.371 2.59141 -2.30319 0
M  V30 1279 C 120.432 2.43892 -3.53292 0
M  V30 1280 C 119.665 3.70074 -3.84553 0
M  V30 1281 O 119.888 4.74101 -3.1715 0
M  V30 1282 O 118.822 3.658 -4.7799 0
M  V30 1283 H 122.648 0.947304 -2.88548 0
M  V30 1284 H 120.233 0.403123 -1.43859 0
M  V30 1285 H 122.115 3.37352 -2.5253 0
M  V30 1286 H 120.79 2.90684 -1.42423 0
M  V30 1287 H 119.697 1.63803 -3.36332 0
M  V30 1288 H 121.03 2.17282 -4.41644 0
M  V30 1289 N 122.682 1.50554 0.465978 0
M  V30 1290 C 123.614 1.65949 1.58093 0
M  V30 1291 C 124.627 0.540827 1.53554 0
M  V30 1292 O 125.816 0.814187 1.5885 0
M  V30 1293 C 122.916 1.63261 2.96983 0
M  V30 1294 C 122.089 2.91245 3.26336 0
M  V30 1295 C 121.148 2.8113 4.44806 0
M  V30 1296 O 120.174 3.55086 4.44862 0
M  V30 1297 N 121.376 1.95032 5.46756 0
M  V30 1298 H 124.141 2.62122 1.45301 0
M  V30 1299 H 121.702 1.48082 0.65448 0
M  V30 1300 H 123.694 1.54101 3.74212 0
M  V30 1301 H 122.264 0.748032 3.03518 0
M  V30 1302 H 121.484 3.14493 2.37672 0
M  V30 1303 H 122.772 3.76022 3.42761 0
M  V30 1304 H 122.17 1.3427 5.49534 0
M  V30 1305 H 120.727 1.91772 6.2295 0
M  V30 1306 N 124.16 -0.719506 1.40217 0
M  V30 1307 C 125.09 -1.8465 1.42922 0
M  V30 1308 C 126.071 -1.67599 0.29062 0
M  V30 1309 O 127.256 -1.87688 0.498677 0
M  V30 1310 C 124.386 -3.22565 1.28722 0
M  V30 1311 C 123.34 -3.54281 2.40144 0
M  V30 1312 C 122.666 -4.91298 2.11023 0
M  V30 1313 C 123.966 -3.55676 3.82481 0
M  V30 1314 H 125.66 -1.82644 2.37237 0
M  V30 1315 H 123.206 -0.877305 1.1419 0
M  V30 1316 H 125.159 -4.01095 1.29232 0
M  V30 1317 H 123.883 -3.25137 0.308811 0
M  V30 1318 H 122.542 -2.78088 2.38877 0
M  V30 1319 H 122.19 -4.90468 1.11582 0
M  V30 1320 H 121.89 -5.13485 2.8567 0
M  V30 1321 H 123.414 -5.72166 2.13209 0
M  V30 1322 H 124.828 -4.24254 3.85592 0
M  V30 1323 H 123.225 -3.89388 4.56614 0
M  V30 1324 H 124.295 -2.55144 4.12346 0
M  V30 1325 N 125.638 -1.25649 -0.95132 0
M  V30 1326 C 126.885 -1.10594 -1.69633 0
M  V30 1327 C 127.213 0.352515 -1.91279 0
M  V30 1328 O 126.468 1.27601 -1.4838 0
M  V30 1329 C 126.767 -1.80909 -3.08231 0
M  V30 1330 C 126.433 -3.30825 -3.06375 0
M  V30 1331 C 125.095 -3.71722 -3.05576 0
M  V30 1332 C 127.447 -4.26589 -2.99452 0
M  V30 1333 C 124.775 -5.06788 -2.95606 0
M  V30 1334 C 127.127 -5.61683 -2.91024 0
M  V30 1335 C 125.791 -6.01904 -2.88562 0
M  V30 1336 H 125.061 -0.404691 -0.620731 0
M  V30 1337 H 127.708 -1.55964 -1.11119 0
M  V30 1338 H 126.013 -1.27979 -3.70309 0
M  V30 1339 H 127.71 -1.6671 -3.64704 0
M  V30 1340 H 124.3 -2.98287 -3.07771 0
M  V30 1341 H 128.484 -3.95982 -2.99185 0
M  V30 1342 H 123.74 -5.37126 -2.92071 0
M  V30 1343 H 127.914 -6.35578 -2.84629 0
M  V30 1344 H 125.541 -7.06521 -2.80593 0
M  V30 1345 N 127.117 1.15442 -1.07289 0
M  V30 1346 C 128.342 1.90638 -0.816828 0
M  V30 1347 C 128.767 1.77445 0.624083 0
M  V30 1348 O 128.125 1.10671 1.43602 0
M  V30 1349 C 128.173 3.39008 -1.22906 0
M  V30 1350 O 127.277 4.10701 -0.373975 0
M  V30 1351 H 126.618 0.593555 -0.297638 0
M  V30 1352 H 129.148 1.46198 -1.43134 0
M  V30 1353 H 129.158 3.89801 -1.20497 0
M  V30 1354 H 127.833 3.47929 -2.27856 0
M  V30 1355 H 126.41 3.70046 -0.460499 0
M  V30 1356 N 128.595 0.856903 1.32268 0
M  V30 1357 C 129.82 0.474569 2.01897 0
M  V30 1358 C 130.245 -0.921766 1.63967 0
M  V30 1359 O 129.603 -1.60589 0.84148 0
M  V30 1360 C 129.651 0.623799 3.55164 0
M  V30 1361 O 128.755 -0.342459 4.10976 0
M  V30 1362 H 128.096 0.190422 0.63611 0
M  V30 1363 H 130.626 1.15672 1.68764 0
M  V30 1364 H 130.636 0.512169 4.04773 0
M  V30 1365 H 129.311 1.64202 3.82113 0
M  V30 1366 H 127.888 -0.18688 3.72431 0
M  V30 1367 N 130.073 -1.45103 0.615059 0
M  V30 1368 C 131.036 -2.29025 -0.0895485 0
M  V30 1369 C 132.036 -1.40174 -0.787906 0
M  V30 1370 O 133.226 -1.62217 -0.634933 0
M  V30 1371 C 130.358 -3.21376 -1.13711 0
M  V30 1372 H 131.551 -2.92807 0.648382 0
M  V30 1373 H 129.104 -1.51749 0.374444 0
M  V30 1374 H 129.839 -2.6241 -1.90556 0
M  V30 1375 H 129.624 -3.86834 -0.640475 0
M  V30 1376 H 131.114 -3.84459 -1.63036 0
M  V30 1377 N 131.551 -0.354651 -1.53558 0
M  V30 1378 C 132.481 0.489091 -2.2832 0
M  V30 1379 C 133.462 1.09324 -1.30316 0
M  V30 1380 O 134.647 1.11255 -1.59173 0
M  V30 1381 C 131.777 1.63456 -3.0643 0
M  V30 1382 C 130.731 1.1582 -4.12031 0
M  V30 1383 C 130.057 2.39305 -4.7816 0
M  V30 1384 C 131.357 0.250731 -5.21698 0
M  V30 1385 H 133.051 -0.134614 -2.99097 0
M  V30 1386 H 130.597 -0.0661826 -1.43848 0
M  V30 1387 H 132.55 2.23136 -3.57475 0
M  V30 1388 H 131.274 2.28533 -2.33325 0
M  V30 1389 H 129.933 0.584146 -3.61916 0
M  V30 1390 H 129.581 3.02814 -4.01637 0
M  V30 1391 H 129.281 2.08109 -5.49513 0
M  V30 1392 H 130.805 2.99691 -5.31994 0
M  V30 1393 H 132.219 0.754695 -5.68311 0
M  V30 1394 H 130.616 0.0301468 -6.00092 0
M  V30 1395 H 131.686 -0.710125 -4.79672 0
M  V30 1396 N 133.029 1.57378 -0.0835403 0
M  V30 1397 C 134.269 1.95808 0.586381 0
M  V30 1398 C 134.633 0.963706 1.66062 0
M  V30 1399 O 135.834 1.23608 2.38693 0
M  V30 1400 C 134.105 3.38808 1.13771 0
M  V30 1401 S 135.664 3.99225 1.82112 0
M  V30 1402 H 132.482 0.684675 0.191679 0
M  V30 1403 H 135.084 1.94843 -0.160194 0
M  V30 1404 H 133.788 4.08954 0.344197 0
M  V30 1405 H 133.319 3.43344 1.92038 0
M  V30 1406 H 135.334 3.87087 3.10449 0
M  V30 1407 N 134.507 -0.190092 1.56449 0
M  V30 1408 C 135.47 -1.21925 1.9408 0
M  V30 1409 C 136.47 -1.38176 0.822431 0
M  V30 1410 O 137.66 -1.35903 1.08977 0
M  V30 1411 C 134.792 -2.58773 2.21922 0
M  V30 1412 H 135.985 -0.897464 2.86157 0
M  V30 1413 H 133.538 -0.43181 1.50217 0
M  V30 1414 H 134.273 -2.95998 1.32499 0
M  V30 1415 H 134.058 -2.48348 3.03424 0
M  V30 1416 H 135.548 -3.32978 2.52022 0
M  V30 1417 N 135.985 -1.50799 -0.457987 0
M  V30 1418 C 136.948 -1.7005 -1.53674 0
M  V30 1419 C 137.948 -0.570881 -1.50325 0
M  V30 1420 O 139.138 -0.838126 -1.52712 0
M  V30 1421 C 136.27 -1.73788 -2.93276 0
M  V30 1422 H 137.463 -2.66306 -1.37917 0
M  V30 1423 H 135.016 -1.40477 -0.685271 0
M  V30 1424 H 135.751 -0.792717 -3.14462 0
M  V30 1425 H 135.536 -2.55864 -2.97113 0
M  V30 1426 H 137.026 -1.90591 -3.71571 0
M  V30 1427 N 137.463 0.71206 -1.40597 0
M  V30 1428 C 138.879 1.02058 -1.22704 0
M  V30 1429 C 139.079 2.01228 -0.104729 0
M  V30 1430 O 138.135 2.4674 0.53624 0
M  V30 1431 C 139.448 1.56094 -2.57012 0
M  V30 1432 C 140.996 1.6806 -2.64054 0
M  V30 1433 C 141.471 2.25501 -3.9864 0
M  V30 1434 N 142.962 2.32882 -4.004 0
M  V30 1435 C 143.697 2.78317 -5.01325 0
M  V30 1436 N 143.193 3.23478 -6.12645 0
M  V30 1437 N 144.986 2.77733 -4.88693 0
M  V30 1438 H 137.137 0.0547896 -2.12329 0
M  V30 1439 H 139.4 0.0869027 -0.944008 0
M  V30 1440 H 139.106 0.906865 -3.39807 0
M  V30 1441 H 138.98 2.54564 -2.78347 0
M  V30 1442 H 141.367 2.32583 -1.81629 0
M  V30 1443 H 141.448 0.681802 -2.46546 0
M  V30 1444 H 141.092 1.61598 -4.81506 0
M  V30 1445 H 141.022 3.26102 -4.13479 0
M  V30 1446 H 143.513 2.00991 -3.20017 0
M  V30 1447 H 143.826 3.56725 -6.85542 0
M  V30 1448 H 142.171 3.21429 -6.16205 0
M  V30 1449 H 145.362 2.4179 -4.00818 0
M  V30 1450 H 145.535 3.12826 -5.67489 0
M  V30 1451 N 138.941 1.26152 0.944643 0
M  V30 1452 C 139.871 1.09902 2.06019 0
M  V30 1453 C 140.852 0.00519538 1.70099 0
M  V30 1454 O 142.037 0.176583 1.93396 0
M  V30 1455 C 139.167 0.727562 3.39594 0
M  V30 1456 C 138.121 1.77274 3.89561 0
M  V30 1457 C 137.447 1.25569 5.19747 0
M  V30 1458 C 138.747 3.17357 4.14827 0
M  V30 1459 H 140.441 2.03217 2.19871 0
M  V30 1460 H 137.987 0.978452 1.05652 0
M  V30 1461 H 139.94 0.600777 4.17095 0
M  V30 1462 H 138.664 -0.241287 3.25707 0
M  V30 1463 H 137.323 1.88814 3.14237 0
M  V30 1464 H 136.971 0.276783 5.02238 0
M  V30 1465 H 136.671 1.95433 5.54148 0
M  V30 1466 H 138.195 1.1415 5.99835 0
M  V30 1467 H 139.609 3.08914 4.82954 0
M  V30 1468 H 138.006 3.84781 4.60504 0
M  V30 1469 H 139.076 3.63673 3.20734 0
M  V30 1470 N 140.419 -1.14872 1.07899 0
M  V30 1471 C 141.349 -2.2193 0.725887 0
M  V30 1472 C 142.33 -1.67622 -0.28927 0
M  V30 1473 O 143.515 -1.93533 -0.160787 0
M  V30 1474 C 140.645 -3.47061 0.128856 0
M  V30 1475 C 139.599 -4.14363 1.07178 0
M  V30 1476 C 138.925 -5.33636 0.337229 0
M  V30 1477 C 140.225 -4.63492 2.40775 0
M  V30 1478 H 141.919 -2.51724 1.62097 0
M  V30 1479 H 139.465 -1.20991 0.780838 0
M  V30 1480 H 141.418 -4.21199 -0.130147 0
M  V30 1481 H 140.142 -3.16617 -0.80134 0
M  V30 1482 H 138.801 -3.42173 1.3158 0
M  V30 1483 H 138.449 -4.99449 -0.596606 0
M  V30 1484 H 138.149 -5.79609 0.965788 0
M  V30 1485 H 139.673 -6.10539 0.0861567 0
M  V30 1486 H 141.087 -5.2913 2.20669 0
M  V30 1487 H 139.484 -5.20148 2.99276 0
M  V30 1488 H 140.554 -3.78834 3.02676 0
M  V30 1489 N 141.898 -0.863906 -1.31812 0
M  V30 1490 C 143.314 -0.555004 -1.49639 0
M  V30 1491 C 143.514 0.912266 -1.79666 0
M  V30 1492 O 142.57 1.69479 -1.87171 0
M  V30 1493 C 143.883 -1.44998 -2.63431 0
M  V30 1494 C 145.431 -1.45138 -2.77316 0
M  V30 1495 C 145.906 -2.33179 -3.94197 0
M  V30 1496 N 147.397 -2.31025 -4.01474 0
M  V30 1497 C 148.132 -2.95871 -4.9117 0
M  V30 1498 N 147.628 -3.69863 -5.8581 0
M  V30 1499 N 149.421 -2.85211 -4.84367 0
M  V30 1500 H 141.572 -1.81339 -1.10589 0
M  V30 1501 H 143.835 -0.77505 -0.545895 0
M  V30 1502 H 143.541 -2.49377 -2.48 0
M  V30 1503 H 143.415 -1.14409 -3.59431 0
M  V30 1504 H 145.802 -0.415201 -2.92164 0
M  V30 1505 H 145.883 -1.79747 -1.82001 0
M  V30 1506 H 145.527 -3.3687 -3.80107 0
M  V30 1507 H 145.457 -1.95897 -4.88807 0
M  V30 1508 H 147.948 -1.77238 -3.33759 0
M  V30 1509 H 148.261 -4.16486 -6.50968 0
M  V30 1510 H 146.606 -3.73971 -5.85808 0
M  V30 1511 H 149.797 -2.26948 -4.09405 0
M  V30 1512 H 149.97 -3.36027 -5.54066 0
M  V30 1513 N 143.376 1.44774 -0.622745 0
M  V30 1514 C 144.308 2.28856 0.125485 0
M  V30 1515 C 145.321 1.40811 0.817069 0
M  V30 1516 O 146.51 1.65044 0.679918 0
M  V30 1517 C 143.61 3.16963 1.19949 0
M  V30 1518 C 142.783 4.33374 0.592064 0
M  V30 1519 C 141.842 5.02577 1.55893 0
M  V30 1520 O 140.868 5.58873 1.07933 0
M  V30 1521 N 142.07 5.03256 2.89334 0
M  V30 1522 H 144.835 2.93713 -0.596068 0
M  V30 1523 H 142.396 1.55129 -0.463303 0
M  V30 1524 H 144.388 3.60123 1.84644 0
M  V30 1525 H 142.958 2.53913 1.82337 0
M  V30 1526 H 142.178 3.93509 -0.233322 0
M  V30 1527 H 143.466 5.08527 0.166738 0
M  V30 1528 H 142.864 4.58836 3.30887 0
M  V30 1529 H 141.421 5.50232 3.49412 0
M  V30 1530 N 144.854 0.36279 1.53368 0
M  V30 1531 C 146.27 0.0116182 1.59596 0
M  V30 1532 C 146.47 -1.47012 1.37803 0
M  V30 1533 O 145.526 -2.23136 1.18181 0
M  V30 1534 C 146.839 0.465052 2.97082 0
M  V30 1535 C 148.387 0.419033 3.10182 0
M  V30 1536 C 148.862 0.848235 4.50077 0
M  V30 1537 N 150.353 0.803183 4.56183 0
M  V30 1538 C 151.088 1.107 5.62613 0
M  V30 1539 N 150.584 1.47996 6.76808 0
M  V30 1540 N 152.377 1.02998 5.52583 0
M  V30 1541 H 144.528 1.32775 1.65785 0
M  V30 1542 H 146.791 0.542518 0.777417 0
M  V30 1543 H 146.497 1.49892 3.18159 0
M  V30 1544 H 146.371 -0.149786 3.76902 0
M  V30 1545 H 148.758 -0.605696 2.88817 0
M  V30 1546 H 148.839 1.06933 2.32377 0
M  V30 1547 H 148.483 1.87107 4.7218 0
M  V30 1548 H 148.413 0.175218 5.26308 0
M  V30 1549 H 150.904 0.52838 3.74188 0
M  V30 1550 H 151.217 1.69613 7.53957 0
M  V30 1551 H 149.562 1.51859 6.78206 0
M  V30 1552 H 152.753 0.737817 4.62249 0
M  V30 1553 H 152.926 1.2701 6.35431 0
M  V30 1554 N 146.332 -1.57332 0.0918853 0
M  V30 1555 C 147.262 -2.16872 -0.865371 0
M  V30 1556 C 148.243 -1.10118 -1.29646 0
M  V30 1557 O 149.428 -1.38242 -1.36392 0
M  V30 1558 C 146.558 -2.74649 -2.12569 0
M  V30 1559 C 145.512 -3.86747 -1.83333 0
M  V30 1560 C 144.838 -4.31212 -3.16166 0
M  V30 1561 C 146.138 -5.10089 -1.1228 0
M  V30 1562 H 147.832 -2.97114 -0.369307 0
M  V30 1563 H 145.378 -1.42918 -0.176194 0
M  V30 1564 H 147.331 -3.14952 -2.7997 0
M  V30 1565 H 146.055 -1.91657 -2.64452 0
M  V30 1566 H 144.714 -3.46978 -1.18331 0
M  V30 1567 H 144.362 -3.45115 -3.6593 0
M  V30 1568 H 144.062 -5.06788 -2.97388 0
M  V30 1569 H 145.586 -4.74146 -3.84731 0
M  V30 1570 H 147 -5.47582 -1.69785 0
M  V30 1571 H 145.397 -5.91073 -1.03693 0
M  V30 1572 H 146.467 -4.84786 -0.105041 0
M  V30 1573 N 147.81 0.181792 -1.56548 0
M  V30 1574 C 149.221 0.745244 -1.71181 0
M  V30 1575 C 149.572 1.83262 -0.70068 0
M  V30 1576 O 148.697 2.15946 0.140154 0
M  V30 1577 C 149.292 1.35859 -3.10367 0
M  V30 1578 C 147.851 1.86898 -3.2672 0
M  V30 1579 C 146.998 0.743942 -2.67134 0
M  V30 1580 H 149.949 -0.0434661 -1.5864 0
M  V30 1581 H 149.97 2.22817 -3.08436 0
M  V30 1582 H 149.482 0.566948 -3.83937 0
M  V30 1583 H 147.583 2.68738 -2.5809 0
M  V30 1584 H 147.696 2.02162 -4.34359 0
M  V30 1585 H 146.06 1.16169 -2.26665 0
M  V30 1586 H 146.843 -0.035676 -3.43281 0
M  V30 1587 N 149.288 1.51039 0.449983 0
M  V30 1588 C 150.536 1.62759 1.19808 0
M  V30 1589 C 150.857 0.339981 1.92013 0
M  V30 1590 O 150.127 -0.643606 1.85026 0
M  V30 1591 H 148.707 0.599811 0.445237 0
M  V30 1592 H 151.369 1.87914 0.517138 0
M  V30 1593 H 150.465 2.44911 1.93455 0
M  V30 1594 N 150.766 -0.704594 1.40972 0
M  V30 1595 C 152.177 -1.28418 1.3552 0
M  V30 1596 C 152.528 -1.96171 0.0339434 0
M  V30 1597 O 151.653 -1.98231 -0.867944 0
M  V30 1598 C 152.248 -2.33528 2.45459 0
M  V30 1599 C 150.807 -2.87085 2.43433 0
M  V30 1600 C 149.954 -1.61007 2.2577 0
M  V30 1601 H 152.905 -0.499963 1.50619 0
M  V30 1602 H 152.926 -3.14619 2.13998 0
M  V30 1603 H 152.438 -1.84187 3.41609 0
M  V30 1604 H 150.539 -3.40626 1.51013 0
M  V30 1605 H 150.652 -3.3813 3.39419 0
M  V30 1606 H 149.016 -1.86482 1.73483 0
M  V30 1607 H 149.799 -1.13675 3.23933 0
M  V30 1608 N 152.244 -1.26651 -0.937939 0
M  V30 1609 C 153.655 -1.1125 -1.49934 0
M  V30 1610 C 154.006 0.306077 -1.93798 0
M  V30 1611 O 153.131 1.19792 -1.80219 0
M  V30 1612 C 153.726 -2.01339 -2.72485 0
M  V30 1613 C 152.285 -1.90074 -3.24883 0
M  V30 1614 C 151.432 -1.94498 -1.97651 0
M  V30 1615 H 154.383 -1.39693 -0.753091 0
M  V30 1616 H 154.404 -1.56319 -3.46907 0
M  V30 1617 H 153.916 -3.04577 -2.40529 0
M  V30 1618 H 152.017 -0.897827 -3.61621 0
M  V30 1619 H 152.13 -2.75778 -3.9177 0
M  V30 1620 H 150.494 -1.38591 -2.13693 0
M  V30 1621 H 151.277 -2.99372 -1.68022 0
M  V30 1622 N 153.722 1.14298 -1.08507 0
M  V30 1623 C 154.999 1.81544 -0.728088 0
M  V30 1624 C 155.379 1.95838 0.78808 0
M  V30 1625 O 154.727 1.51904 1.70697 0
M  V30 1626 C 154.937 3.17169 -1.45619 0
M  V30 1627 C 156.285 3.9265 -1.61591 0
M  V30 1628 O 157.309 3.26762 -1.41793 0
M  V30 1629 O 156.168 5.10807 -1.94263 0
M  V30 1630 H 153.262 0.78491 -0.260471 0
M  V30 1631 H 155.808 1.21307 -1.18671 0
M  V30 1632 H 154.58 3.01934 -2.489 0
M  V30 1633 H 154.203 3.851 -0.989124 0
M  V30 1634 N 155.201 0.870884 1.31352 0
M  V30 1635 C 156.164 0.332243 2.26779 0
M  V30 1636 C 157.164 -0.517302 1.52252 0
M  V30 1637 O 158.354 -0.326477 1.71113 0
M  V30 1638 C 155.486 -0.528066 3.36785 0
M  V30 1639 H 156.679 1.17469 2.75937 0
M  V30 1640 H 154.232 0.64655 1.423 0
M  V30 1641 H 154.967 -1.39167 2.92922 0
M  V30 1642 H 154.752 0.0802582 3.92018 0
M  V30 1643 H 156.242 -0.897179 4.07849 0
M  V30 1644 N 156.679 -1.44442 0.630414 0
M  V30 1645 C 158.09 -1.85434 0.217063 0
M  V30 1646 C 158.441 -1.52748 -1.23136 0
M  V30 1647 O 157.566 -0.965205 -1.93682 0
M  V30 1648 C 158.161 -3.36581 0.387168 0
M  V30 1649 C 156.72 -3.76389 0.0283297 0
M  V30 1650 C 155.867 -2.68296 0.700889 0
M  V30 1651 H 158.818 -1.34919 0.83562 0
M  V30 1652 H 158.839 -3.78657 -0.374086 0
M  V30 1653 H 158.351 -3.60339 1.44144 0
M  V30 1654 H 156.452 -3.58246 -1.02423 0
M  V30 1655 H 156.565 -4.77095 0.437892 0
M  V30 1656 H 154.929 -2.54335 0.136267 0
M  V30 1657 H 155.712 -2.94887 1.75774 0
M  V30 1658 N 158.157 -0.370918 -1.53173 0
M  V30 1659 C 159.405 0.216673 -2.00935 0
M  V30 1660 C 159.726 1.48845 -1.25977 0
M  V30 1661 O 158.996 1.92286 -0.374551 0
M  V30 1662 H 157.576 0.0830565 -0.742368 0
M  V30 1663 H 160.238 -0.49838 -1.8842 0
M  V30 1664 H 159.334 0.439893 -3.08984 0
M  V30 1665 N 159.635 1.57281 -0.100228 0
M  V30 1666 C 160.598 2.13158 0.842398 0
M  V30 1667 C 161.598 1.06202 1.20738 0
M  V30 1668 O 162.788 1.32066 1.13597 0
M  V30 1669 C 159.92 2.65639 2.13655 0
M  V30 1670 H 161.113 2.97766 0.357114 0
M  V30 1671 H 158.666 1.5559 0.148823 0
M  V30 1672 H 159.401 1.84566 2.66657 0
M  V30 1673 H 159.186 3.43844 1.88451 0
M  V30 1674 H 160.676 3.08846 2.81077 0
M  V30 1675 N 161.113 -0.173488 1.56642 0
M  V30 1676 C 162.359 -0.891784 1.8214 0
M  V30 1677 C 162.692 -1.8199 0.677736 0
M  V30 1678 O 161.967 -1.91842 -0.320446 0
M  V30 1679 C 162.25 -1.68933 3.18015 0
M  V30 1680 C 162.103 -0.784487 4.42906 0
M  V30 1681 C 163.422 -2.65748 3.50808 0
M  V30 1682 H 160.541 -0.322761 0.662567 0
M  V30 1683 H 163.183 -0.158095 1.89341 0
M  V30 1684 H 161.333 -2.31482 3.12007 0
M  V30 1685 H 163.005 -0.172046 4.60979 0
M  V30 1686 H 161.248 -0.0924117 4.33702 0
M  V30 1687 H 161.919 -1.37799 5.34524 0
M  V30 1688 H 164.395 -2.13327 3.57255 0
M  V30 1689 H 163.271 -3.18619 4.4696 0
M  V30 1690 H 163.532 -3.45842 2.75401 0
M  V30 1691 N 162.591 -1.51276 -0.441967 0
M  V30 1692 C 163.838 -1.63715 -1.19179 0
M  V30 1693 C 164.166 -0.351175 -1.91303 0
M  V30 1694 O 163.421 0.664524 -1.84072 0
M  V30 1695 C 163.72 -2.78746 -2.23686 0
M  V30 1696 C 163.386 -4.18189 -1.68607 0
M  V30 1697 C 162.048 -4.56125 -1.53308 0
M  V30 1698 C 164.4 -5.05222 -1.28062 0
M  V30 1699 C 161.728 -5.78804 -0.959317 0
M  V30 1700 C 164.08 -6.28476 -0.721162 0
M  V30 1701 C 162.744 -6.65188 -0.55504 0
M  V30 1702 H 162.014 -0.599076 -0.436106 0
M  V30 1703 H 164.661 -1.85296 -0.48351 0
M  V30 1704 H 162.966 -2.51369 -3.00535 0
M  V30 1705 H 164.663 -2.8557 -2.81515 0
M  V30 1706 H 161.253 -3.88277 -1.8149 0
M  V30 1707 H 165.437 -4.76524 -1.38704 0
M  V30 1708 H 160.693 -6.05899 -0.81833 0
M  V30 1709 H 164.867 -6.95259 -0.398458 0
M  V30 1710 H 162.494 -7.60123 -0.108311 0
M  V30 1711 N 164.069 0.697108 -1.41344 0
M  V30 1712 C 165.315 1.4593 -1.40827 0
M  V30 1713 C 165.648 1.94193 -0.0167098 0
M  V30 1714 O 164.923 1.69425 0.955263 0
M  V30 1715 C 165.206 2.67229 -2.41373 0
M  V30 1716 C 165.059 2.24741 -3.8963 0
M  V30 1717 C 166.378 3.69423 -2.39196 0
M  V30 1718 H 163.497 0.529303 -0.512842 0
M  V30 1719 H 166.139 0.794112 -1.72609 0
M  V30 1720 H 164.289 3.23982 -2.14401 0
M  V30 1721 H 165.961 1.73327 -4.27499 0
M  V30 1722 H 164.204 1.56542 -4.0457 0
M  V30 1723 H 164.875 3.1177 -4.55525 0
M  V30 1724 H 167.351 3.2234 -2.63128 0
M  V30 1725 H 166.227 4.51907 -3.11563 0
M  V30 1726 H 166.488 4.19012 -1.41001 0
M  V30 1727 N 165.547 1.27147 0.931209 0
M  V30 1728 C 166.477 1.12081 2.04842 0
M  V30 1729 C 167.458 0.0232364 1.70084 0
M  V30 1730 O 168.643 0.197085 1.93197 0
M  V30 1731 C 165.773 0.76354 3.38803 0
M  V30 1732 C 164.727 1.81396 3.87659 0
M  V30 1733 C 164.053 1.31075 5.18385 0
M  V30 1734 C 165.353 3.21739 4.11438 0
M  V30 1735 H 167.047 2.05537 2.17703 0
M  V30 1736 H 164.593 0.989603 1.04608 0
M  V30 1737 H 166.546 0.644982 4.16435 0
M  V30 1738 H 165.27 -0.206727 3.25945 0
M  V30 1739 H 163.929 1.92136 3.12217 0
M  V30 1740 H 163.577 0.330037 5.01916 0
M  V30 1741 H 163.277 2.013 5.52044 0
M  V30 1742 H 164.801 1.20506 5.98591 0
M  V30 1743 H 166.215 3.14019 4.79651 0
M  V30 1744 H 164.612 3.89644 4.56397 0
M  V30 1745 H 165.682 3.67054 3.16859 0
M  V30 1746 N 167.025 -1.13721 1.09112 0
M  V30 1747 C 168.273 -1.84559 0.823562 0
M  V30 1748 C 168.594 -1.83754 -0.652658 0
M  V30 1749 O 167.864 -1.29102 -1.47342 0
M  V30 1750 H 166.444 -0.683376 0.301673 0
M  V30 1751 H 169.106 -1.37771 1.37859 0
M  V30 1752 H 168.202 -2.8917 1.17419 0
M  V30 1753 N 168.503 -0.877838 -1.30888 0
M  V30 1754 C 169.751 -0.491723 -1.96027 0
M  V30 1755 C 170.072 0.960827 -1.69685 0
M  V30 1756 O 169.342 1.67462 -1.01654 0
M  V30 1757 H 167.922 -0.17885 -0.725273 0
M  V30 1758 H 170.584 -1.11935 -1.59551 0
M  V30 1759 H 169.68 -0.656016 -3.05128 0
M  V30 1760 N 169.982 1.44106 -0.638065 0
M  V30 1761 C 170.892 2.34513 0.0637334 0
M  V30 1762 C 171.908 1.53018 0.828346 0
M  V30 1763 O 173.084 1.85723 0.779036 0
M  V30 1764 C 170.149 3.31095 1.02844 0
M  V30 1765 C 169.21 4.28497 0.26244 0
M  V30 1766 C 168.443 5.20465 1.1812 0
M  V30 1767 O 168.666 5.16514 2.42011 0
M  V30 1768 O 167.6 5.98251 0.661774 0
M  V30 1769 H 171.426 2.95989 -0.68003 0
M  V30 1770 H 169.011 1.43994 -0.398252 0
M  V30 1771 H 170.893 3.90526 1.58327 0
M  V30 1772 H 169.568 2.72144 1.7527 0
M  V30 1773 H 168.475 3.72592 -0.335602 0
M  V30 1774 H 169.808 4.90388 -0.421936 0
M  V30 1775 N 171.46 0.379036 1.52974 0
M  V30 1776 C 172.708 -0.206014 2.01047 0
M  V30 1777 C 173.029 -1.48175 1.26765 0
M  V30 1778 O 172.299 -1.92085 0.384743 0
M  V30 1779 H 170.879 -0.0791184 0.742798 0
M  V30 1780 H 173.541 0.508366 1.88153 0
M  V30 1781 H 172.637 -0.423501 3.09213 0
M  V30 1782 N 172.938 -1.57226 0.108567 0
M  V30 1783 C 173.868 -2.17778 -0.84232 0
M  V30 1784 C 174.849 -1.11487 -1.2847 0
M  V30 1785 O 176.034 -1.39681 -1.34918 0
M  V30 1786 C 173.164 -2.76888 -2.09644 0
M  V30 1787 C 172.118 -3.88669 -1.79221 0
M  V30 1788 C 171.444 -4.34541 -3.11574 0
M  V30 1789 C 172.744 -5.11251 -1.06864 0
M  V30 1790 H 174.438 -2.97489 -0.337774 0
M  V30 1791 H 171.984 -1.43097 -0.161025 0
M  V30 1792 H 173.937 -3.17904 -2.76614 0
M  V30 1793 H 172.661 -1.94451 -2.62405 0
M  V30 1794 H 171.32 -3.48213 -1.14644 0
M  V30 1795 H 170.968 -3.48977 -3.62249 0
M  V30 1796 H 170.668 -5.09914 -2.91996 0
M  V30 1797 H 172.192 -4.782 -3.7968 0
M  V30 1798 H 173.606 -5.49352 -1.63968 0
M  V30 1799 H 172.003 -5.9214 -0.974178 0
M  V30 1800 H 173.073 -4.8487 -0.0536168 0
M  V30 1801 N 174.416 0.165178 -1.56732 0
M  V30 1802 C 175.832 0.517174 -1.50988 0
M  V30 1803 C 176.032 1.84331 -0.813894 0
M  V30 1804 O 175.088 2.49672 -0.37682 0
M  V30 1805 C 176.401 0.544261 -2.95733 0
M  V30 1806 C 177.949 0.631039 -3.06573 0
M  V30 1807 C 178.424 0.68896 -4.52788 0
M  V30 1808 N 179.915 0.751683 -4.5706 0
M  V30 1809 C 180.65 0.817177 -5.67547 0
M  V30 1810 N 180.146 0.843129 -6.8765 0
M  V30 1811 N 181.939 0.856668 -5.55534 0
M  V30 1812 H 174.09 -0.704318 -2.00382 0
M  V30 1813 H 176.353 -0.254687 -0.913148 0
M  V30 1814 H 176.059 -0.361607 -3.49836 0
M  V30 1815 H 175.933 1.3886 -3.5071 0
M  V30 1816 H 178.32 1.52733 -2.52501 0
M  V30 1817 H 178.401 -0.240095 -2.54671 0
M  V30 1818 H 178.045 -0.2031 -5.07494 0
M  V30 1819 H 177.975 1.57633 -5.02454 0
M  V30 1820 H 180.466 0.739661 -3.70591 0
M  V30 1821 H 180.779 0.894448 -7.67606 0
M  V30 1822 H 179.124 0.811304 -6.90248 0
M  V30 1823 H 182.315 0.833437 -4.60621 0
M  V30 1824 H 182.488 0.904247 -6.4166 0
M  V30 1825 N 175.894 1.51508 0.433938 0
M  V30 1826 C 176.857 1.72473 1.50949 0
M  V30 1827 C 177.857 0.594725 1.49398 0
M  V30 1828 O 179.047 0.862315 1.5136 0
M  V30 1829 C 176.179 1.78431 2.90474 0
M  V30 1830 H 177.372 2.68467 1.33662 0
M  V30 1831 H 174.925 1.41549 0.662836 0
M  V30 1832 H 175.66 0.842645 3.13161 0
M  V30 1833 H 175.445 2.60558 2.93005 0
M  V30 1834 H 176.935 1.96479 3.68491 0
M  V30 1835 N 177.372 -0.689602 1.41712 0
M  V30 1836 C 178.282 -1.83314 1.46401 0
M  V30 1837 C 179.298 -1.7036 0.35405 0
M  V30 1838 O 180.474 -1.92171 0.602692 0
M  V30 1839 C 177.539 -3.19344 1.34982 0
M  V30 1840 C 176.6 -3.44363 2.56344 0
M  V30 1841 C 175.833 -4.73904 2.45461 0
M  V30 1842 O 176.056 -5.508 1.48241 0
M  V30 1843 O 174.99 -4.99839 3.35328 0
M  V30 1844 H 178.816 -1.82314 2.42889 0
M  V30 1845 H 176.401 -0.843438 1.23315 0
M  V30 1846 H 178.283 -4.00547 1.3092 0
M  V30 1847 H 176.958 -3.21014 0.41612 0
M  V30 1848 H 175.865 -2.63067 2.65982 0
M  V30 1849 H 177.198 -3.47512 3.48563 0
M  V30 1850 N 178.85 -1.27639 -0.924453 0
M  V30 1851 C 179.78 -1.13166 -2.04244 0
M  V30 1852 C 180.761 -0.032256 -1.70069 0
M  V30 1853 O 181.946 -0.207328 -1.9309 0
M  V30 1854 C 179.076 -0.781496 -3.38393 0
M  V30 1855 C 178.03 -1.83449 -3.86692 0
M  V30 1856 C 177.356 -1.33822 -5.17683 0
M  V30 1857 C 178.656 -3.23917 -4.09726 0
M  V30 1858 H 180.35 -2.06689 -2.1661 0
M  V30 1859 H 177.896 -0.995136 -1.04082 0
M  V30 1860 H 179.849 -0.667057 -4.16087 0
M  V30 1861 H 178.573 0.189439 -3.2605 0
M  V30 1862 H 177.232 -1.93789 -3.11193 0
M  V30 1863 H 176.88 -0.35665 -5.01734 0
M  V30 1864 H 176.58 -2.04224 -5.50968 0
M  V30 1865 H 178.104 -1.23679 -5.97943 0
M  V30 1866 H 179.518 -3.16559 -4.77978 0
M  V30 1867 H 177.915 -3.92059 -4.54324 0
M  V30 1868 H 178.985 -3.68729 -3.14908 0
M  V30 1869 N 180.328 1.1314 -1.09713 0
M  V30 1870 C 181.744 1.36477 -0.827423 0
M  V30 1871 C 181.944 1.93654 0.556817 0
M  V30 1872 O 181 2.15791 1.31112 0
M  V30 1873 C 182.313 2.31334 -1.92106 0
M  V30 1874 C 183.861 2.44943 -1.94864 0
M  V30 1875 C 184.336 3.4311 -3.0338 0
M  V30 1876 N 185.827 3.50662 -3.02639 0
M  V30 1877 C 186.562 4.2651 -3.83246 0
M  V30 1878 N 186.058 5.05485 -4.73768 0
M  V30 1879 N 187.851 4.2184 -3.71493 0
M  V30 1880 H 180.002 0.743807 -1.9895 0
M  V30 1881 H 182.265 0.389823 -0.864143 0
M  V30 1882 H 181.971 1.96483 -2.91698 0
M  V30 1883 H 181.845 3.31381 -1.80184 0
M  V30 1884 H 184.232 2.79079 -0.959099 0
M  V30 1885 H 184.313 1.4481 -2.10864 0
M  V30 1886 H 183.957 3.09704 -4.02549 0
M  V30 1887 H 183.887 4.43055 -2.84622 0
M  V30 1888 H 186.378 2.94315 -2.37039 0
M  V30 1889 H 186.691 5.60675 -5.3185 0
M  V30 1890 H 185.036 5.04708 -4.77802 0
M  V30 1891 H 188.227 3.5922 -3.00131 0
M  V30 1892 H 188.4 4.80697 -4.3455 0
M  V30 1893 N 181.806 0.884767 1.30421 0
M  V30 1894 C 182.769 0.356277 2.26414 0
M  V30 1895 C 183.769 -0.501124 1.52792 0
M  V30 1896 O 184.959 -0.30831 1.7145 0
M  V30 1897 C 182.091 -0.492316 3.37326 0
M  V30 1898 H 183.284 1.20389 2.74675 0
M  V30 1899 H 180.837 0.661607 1.41607 0
M  V30 1900 H 181.572 -1.36052 2.94381 0
M  V30 1901 H 181.357 0.121832 3.91911 0
M  V30 1902 H 182.847 -0.853871 4.08777 0
M  V30 1903 N 183.284 -1.43765 0.645699 0
M  V30 1904 C 184.247 -2.29163 -0.0409488 0
M  V30 1905 C 185.247 -1.41813 -0.757996 0
M  V30 1906 O 186.437 -1.63527 -0.600382 0
M  V30 1907 C 183.569 -3.23716 -1.06869 0
M  V30 1908 H 184.762 -2.91366 0.710345 0
M  V30 1909 H 182.315 -1.5092 0.406547 0
M  V30 1910 H 183.05 -2.66393 -1.84947 0
M  V30 1911 H 182.835 -3.88105 -0.558277 0
M  V30 1912 H 184.325 -3.87831 -1.54845 0
M  V30 1913 N 184.763 -0.387143 -1.52771 0
M  V30 1914 C 186.011 0.195349 -2.01154 0
M  V30 1915 C 186.332 1.475 -1.27549 0
M  V30 1916 O 185.602 1.91878 -0.394924 0
M  V30 1917 H 184.182 0.075178 -0.743207 0
M  V30 1918 H 186.844 -0.518337 -1.87881 0
M  V30 1919 H 185.94 0.407096 -3.09434 0
M  V30 1920 N 186.241 1.57166 -0.116904 0
M  V30 1921 C 187.171 2.18222 0.830759 0
M  V30 1922 C 188.152 1.12167 1.27877 0
M  V30 1923 O 189.337 1.40394 1.34176 0
M  V30 1924 C 186.467 2.77996 2.08172 0
M  V30 1925 C 185.421 3.89614 1.77157 0
M  V30 1926 C 184.747 4.36187 3.09265 0
M  V30 1927 C 186.047 5.1181 1.04151 0
M  V30 1928 H 187.741 2.97664 0.321992 0
M  V30 1929 H 185.287 1.4318 0.153434 0
M  V30 1930 H 187.24 3.19366 2.74924 0
M  V30 1931 H 185.964 1.9584 2.6137 0
M  V30 1932 H 184.623 3.48816 1.12796 0
M  V30 1933 H 184.271 3.50893 3.60393 0
M  V30 1934 H 183.971 5.11455 2.89288 0
M  V30 1935 H 185.495 4.80207 3.77139 0
M  V30 1936 H 186.909 5.50214 1.61052 0
M  V30 1937 H 185.306 5.92648 0.942762 0
M  V30 1938 H 186.376 4.84892 0.0279022 0
M  V30 1939 N 187.719 -0.156864 1.56817 0
M  V30 1940 C 189.135 -0.50916 1.5126 0
M  V30 1941 C 189.335 -1.83897 0.823658 0
M  V30 1942 O 188.391 -2.49469 0.390055 0
M  V30 1943 C 189.704 -0.52857 2.96018 0
M  V30 1944 C 191.252 -0.614771 3.06903 0
M  V30 1945 C 191.727 -0.664938 4.53147 0
M  V30 1946 N 193.218 -0.727433 4.57452 0
M  V30 1947 C 193.953 -0.787067 5.67973 0
M  V30 1948 N 193.449 -0.806649 6.88088 0
M  V30 1949 N 195.242 -0.827195 5.5598 0
M  V30 1950 H 187.393 0.714935 2.00006 0
M  V30 1951 H 189.656 0.259526 0.911784 0
M  V30 1952 H 189.362 0.380154 3.49639 0
M  V30 1953 H 189.236 -1.36998 3.51442 0
M  V30 1954 H 191.623 -1.51392 2.53307 0
M  V30 1955 H 191.704 0.253597 2.5454 0
M  V30 1956 H 191.348 0.230011 5.07379 0
M  V30 1957 H 191.278 -1.54966 5.03282 0
M  V30 1958 H 193.769 -0.719998 3.70978 0
M  V30 1959 H 194.082 -0.853727 7.6807 0
M  V30 1960 H 192.427 -0.774687 6.90669 0
M  V30 1961 H 195.618 -0.808998 4.61056 0
M  V30 1962 H 195.791 -0.870206 6.4213 0
M  V30 1963 N 189.197 -1.51736 -0.425897 0
M  V30 1964 C 190.127 -1.76827 -1.52494 0
M  V30 1965 C 191.108 -0.618524 -1.58456 0
M  V30 1966 O 192.293 -0.862416 -1.74 0
M  V30 1967 C 189.423 -1.90374 -2.90474 0
M  V30 1968 C 188.377 -3.0588 -2.99369 0
M  V30 1969 C 187.703 -3.04625 -4.3944 0
M  V30 1970 C 189.003 -4.45644 -2.72394 0
M  V30 1971 H 190.697 -2.68855 -1.31748 0
M  V30 1972 H 188.243 -1.29372 -0.632362 0
M  V30 1973 H 190.196 -2.0651 -3.6733 0
M  V30 1974 H 188.92 -0.95004 -3.12477 0
M  V30 1975 H 187.579 -2.89467 -2.24954 0
M  V30 1976 H 187.227 -2.0701 -4.58428 0
M  V30 1977 H 186.927 -3.82195 -4.46319 0
M  V30 1978 H 188.451 -3.22869 -5.18255 0
M  V30 1979 H 189.865 -4.62348 -3.38979 0
M  V30 1980 H 188.262 -5.25006 -2.9067 0
M  V30 1981 H 189.332 -4.54893 -1.67929 0
M  V30 1982 N 190.675 0.682077 -1.42076 0
M  V30 1983 C 191.638 1.77756 -1.44691 0
M  V30 1984 C 192.638 1.5726 -0.335535 0
M  V30 1985 O 193.828 1.63686 -0.596037 0
M  V30 1986 C 190.96 3.16301 -1.27146 0
M  V30 1987 H 192.153 1.76826 -2.42224 0
M  V30 1988 H 189.706 0.891012 -1.28416 0
M  V30 1989 H 190.441 3.22862 -0.305075 0
M  V30 1990 H 190.226 3.32581 -2.07683 0
M  V30 1991 H 191.716 3.96241 -1.31843 0
M  V30 1992 N 192.153 1.28127 0.917671 0
M  V30 1993 C 193.401 1.14825 1.66312 0
M  V30 1994 C 193.722 -0.304379 1.9261 0
M  V30 1995 O 192.992 -1.21149 1.53947 0
M  V30 1996 H 191.572 0.421953 0.616413 0
M  V30 1997 H 194.234 1.608 1.10134 0
M  V30 1998 H 193.33 1.68489 2.62712 0
M  V30 1999 N 193.631 -1.12557 1.10312 0
M  V30 2000 C 194.908 -1.80363 0.756878 0
M  V30 2001 C 195.288 -1.97067 -0.756824 0
M  V30 2002 O 194.636 -1.54601 -1.68259 0
M  V30 2003 C 194.846 -3.14812 1.50647 0
M  V30 2004 C 196.194 -3.90029 1.67817 0
M  V30 2005 O 197.218 -3.24464 1.46974 0
M  V30 2006 O 196.077 -5.07652 2.02365 0
M  V30 2007 H 193.171 -0.780667 0.272926 0
M  V30 2008 H 195.717 -1.19404 1.20586 0
M  V30 2009 H 194.489 -2.97936 2.53672 0
M  V30 2010 H 194.112 -3.83478 1.05026 0
M  V30 2011 N 195.109 -0.891671 -1.2995 0
M  V30 2012 C 196.52 -0.563104 -1.78006 0
M  V30 2013 C 196.871 0.920978 -1.73241 0
M  V30 2014 O 195.996 1.71987 -1.31337 0
M  V30 2015 C 196.591 -1.01539 -3.23226 0
M  V30 2016 C 195.15 -0.738124 -3.69092 0
M  V30 2017 C 194.297 -1.19461 -2.50249 0
M  V30 2018 H 197.248 -1.07522 -1.16725 0
M  V30 2019 H 197.269 -0.347217 -3.78912 0
M  V30 2020 H 196.781 -2.09555 -3.26662 0
M  V30 2021 H 194.882 0.329766 -3.71138 0
M  V30 2022 H 194.995 -1.33037 -4.60259 0
M  V30 2023 H 193.359 -0.613787 -2.47194 0
M  V30 2024 H 194.142 -2.28265 -2.56417 0
M  V30 2025 N 196.587 1.43421 -0.653314 0
M  V30 2026 C 197.812 2.06678 -0.172846 0
M  V30 2027 C 198.237 1.48648 1.15262 0
M  V30 2028 O 197.595 0.596457 1.71208 0
M  V30 2029 C 197.643 3.60474 -0.0953184 0
M  V30 2030 O 196.747 4.01487 0.942442 0
M  V30 2031 H 196.088 0.657181 -0.0949155 0
M  V30 2032 H 198.618 1.83925 -0.896265 0
M  V30 2033 H 198.628 4.07905 0.0879728 0
M  V30 2034 H 197.303 4.02088 -1.06291 0
M  V30 2035 H 195.88 3.65646 0.731932 0
M  V30 2036 N 198.065 0.39524 1.52563 0
M  V30 2037 C 199.028 -0.425001 2.25225 0
M  V30 2038 C 200.028 -0.985266 1.27079 0
M  V30 2039 O 201.218 -0.866332 1.5113 0
M  V30 2040 C 198.35 -1.59686 3.01186 0
M  V30 2041 H 199.543 0.211233 2.99155 0
M  V30 2042 H 197.096 0.147472 1.55603 0
M  V30 2043 H 197.831 -2.27035 2.31572 0
M  V30 2044 H 197.616 -1.20176 3.73229 0
M  V30 2045 H 199.106 -2.17743 3.5634 0
M  V30 2046 N 199.544 -1.57102 0.125237 0
M  V30 2047 C 200.792 -1.95021 -0.530198 0
M  V30 2048 C 201.113 -1.00982 -1.66816 0
M  V30 2049 O 200.383 -0.0672693 -1.95784 0
M  V30 2050 H 198.963 -0.720046 -0.198853 0
M  V30 2051 H 201.625 -1.93916 0.19564 0
M  V30 2052 H 200.721 -2.98211 -0.920681 0
M  V30 2053 N 201.022 0.148545 -1.56898 0
M  V30 2054 C 202.299 0.890019 -1.74178 0
M  V30 2055 C 202.679 1.99407 -0.692839 0
M  V30 2056 O 202.027 2.26671 0.288505 0
M  V30 2057 C 202.237 1.43389 -3.18183 0
M  V30 2058 C 203.585 1.89791 -3.79822 0
M  V30 2059 O 204.609 1.53134 -3.21603 0
M  V30 2060 O 203.468 2.57387 -4.82093 0
M  V30 2061 H 200.562 0.420496 -0.712118 0
M  V30 2062 H 203.108 0.134591 -1.69165 0
M  V30 2063 H 201.88 0.640383 -3.86024 0
M  V30 2064 H 201.503 2.25287 -3.27615 0
M  V30 2065 N 202.5 1.5196 0.417844 0
M  V30 2066 C 203.748 1.65263 1.16329 0
M  V30 2067 C 204.069 0.380634 1.91249 0
M  V30 2068 O 203.339 -0.604214 1.86349 0
M  V30 2069 H 201.919 0.60912 0.432414 0
M  V30 2070 H 204.581 1.88969 0.477162 0
M  V30 2071 H 203.677 2.4896 1.88217 0
M  V30 2072 N 203.978 -0.674533 1.42435 0
M  V30 2073 C 204.941 -1.76986 1.45632 0
M  V30 2074 C 205.941 -1.5708 0.343871 0
M  V30 2075 O 207.131 -1.63367 0.604709 0
M  V30 2076 C 204.263 -3.15623 1.28822 0
M  V30 2077 H 205.456 -1.75539 2.43158 0
M  V30 2078 H 203.009 -0.884189 1.28887 0
M  V30 2079 H 203.744 -3.22696 0.322193 0
M  V30 2080 H 203.529 -3.31475 2.09444 0
M  V30 2081 H 205.019 -3.95537 1.33942 0
M  V30 2082 N 205.456 -1.28612 -0.910864 0
M  V30 2083 C 206.419 -1.12803 -1.9952 0
M  V30 2084 C 207.419 -0.0668264 -1.60661 0
M  V30 2085 O 208.609 -0.312847 -1.71368 0
M  V30 2086 C 205.741 -0.72254 -3.33155 0
M  V30 2087 H 206.934 -2.09109 -2.14973 0
M  V30 2088 H 204.487 -1.11639 -1.09391 0
M  V30 2089 H 205.222 0.241152 -3.23402 0
M  V30 2090 H 205.007 -1.48916 -3.62721 0
M  V30 2091 H 206.497 -0.634666 -4.12749 0
M  V30 2092 N 206.934 1.1197 -1.10907 0
M  V30 2093 C 208.345 1.65114 -0.871446 0
M  V30 2094 C 208.696 1.86885 0.597353 0
M  V30 2095 O 207.821 1.59896 1.45816 0
M  V30 2096 C 208.416 2.99944 -1.5754 0
M  V30 2097 C 206.975 3.50018 -1.38435 0
M  V30 2098 C 206.122 2.24941 -1.62164 0
M  V30 2099 H 209.073 0.956851 -1.2661 0
M  V30 2100 H 209.094 3.66651 -1.01721 0
M  V30 2101 H 208.606 2.84067 -2.64438 0
M  V30 2102 H 206.707 3.71071 -0.337214 0
M  V30 2103 H 206.82 4.29165 -2.12965 0
M  V30 2104 H 205.184 2.3229 -1.04467 0
M  V30 2105 H 205.967 2.11612 -2.70324 0
M  V30 2106 N 208.412 0.89855 1.29475 0
M  V30 2107 C 209.828 0.594483 1.48115 0
M  V30 2108 C 210.028 -0.86431 1.82022 0
M  V30 2109 O 209.084 -1.64457 1.91599 0
M  V30 2110 C 210.397 1.51932 2.59494 0
M  V30 2111 C 211.945 1.5244 2.7337 0
M  V30 2112 C 212.42 2.43548 3.87877 0
M  V30 2113 N 213.911 2.41589 3.95208 0
M  V30 2114 C 214.646 3.08789 4.83153 0
M  V30 2115 N 214.142 3.85265 5.75798 0
M  V30 2116 N 215.935 2.97952 4.76635 0
M  V30 2117 H 208.086 1.84207 1.05742 0
M  V30 2118 H 210.349 0.789251 0.525154 0
M  V30 2119 H 210.055 2.55865 2.41301 0
M  V30 2120 H 209.929 1.23899 3.56271 0
M  V30 2121 H 212.316 0.492518 2.90961 0
M  V30 2122 H 212.397 1.8451 1.77172 0
M  V30 2123 H 212.041 3.46829 3.71041 0
M  V30 2124 H 211.971 2.08788 4.83441 0
M  V30 2125 H 214.462 1.86025 3.28943 0
M  V30 2126 H 214.775 4.33598 6.39697 0
M  V30 2127 H 213.12 3.89371 5.75687 0
M  V30 2128 H 216.311 2.37723 4.03244 0
M  V30 2129 H 216.484 3.50599 5.44962 0
M  V30 2130 N 209.89 -1.43072 0.660911 0
M  V30 2131 C 211.136 -2.0202 0.177708 0
M  V30 2132 C 211.469 -1.52066 -1.20787 0
M  V30 2133 O 210.744 -0.716987 -1.80802 0
M  V30 2134 C 211.027 -3.59561 0.197019 0
M  V30 2135 C 210.88 -4.19727 1.61706 0
M  V30 2136 C 212.199 -4.37664 -0.462396 0
M  V30 2137 H 209.318 -0.734034 0.0660494 0
M  V30 2138 H 211.96 -1.70272 0.843058 0
M  V30 2139 H 210.11 -3.86739 -0.369527 0
M  V30 2140 H 211.782 -4.03553 2.23479 0
M  V30 2141 H 210.025 -3.76084 2.16201 0
M  V30 2142 H 210.696 -5.28834 1.58237 0
M  V30 2143 H 213.172 -4.16095 0.0197215 0
M  V30 2144 H 212.048 -5.47305 -0.418188 0
M  V30 2145 H 212.309 -4.14493 -1.53778 0
M  V30 2146 N 211.368 -0.403325 -1.52352 0
M  V30 2147 C 212.784 -0.0539281 -1.59509 0
M  V30 2148 C 212.984 1.43307 -1.41652 0
M  V30 2149 O 212.04 2.19924 -1.24056 0
M  V30 2150 C 213.353 -0.543654 -2.95745 0
M  V30 2151 C 214.901 -0.501125 -3.08962 0
M  V30 2152 C 215.376 -0.967267 -4.47669 0
M  V30 2153 N 216.867 -0.923849 -4.53893 0
M  V30 2154 C 217.602 -1.25578 -5.5948 0
M  V30 2155 N 217.098 -1.65889 -6.72646 0
M  V30 2156 N 218.891 -1.17613 -5.49658 0
M  V30 2157 H 211.042 -1.37123 -1.62206 0
M  V30 2158 H 213.305 -0.56294 -0.76276 0
M  V30 2159 H 213.011 -1.58275 -3.14073 0
M  V30 2160 H 212.885 0.0498042 -3.77167 0
M  V30 2161 H 215.272 0.528909 -2.90321 0
M  V30 2162 H 215.353 -1.13056 -2.2946 0
M  V30 2163 H 214.997 -1.9956 -4.67053 0
M  V30 2164 H 214.927 -0.314698 -5.25659 0
M  V30 2165 H 217.418 -0.627403 -3.72655 0
M  V30 2166 H 217.731 -1.89543 -7.49195 0
M  V30 2167 H 216.076 -1.69787 -6.73942 0
M  V30 2168 H 219.267 -0.860115 -4.6013 0
M  V30 2169 H 219.44 -1.43812 -6.3184 0
M  V30 2170 N 212.846 1.57033 -0.133567 0
M  V30 2171 C 213.809 2.14897 0.796995 0
M  V30 2172 C 214.809 1.0874 1.18458 0
M  V30 2173 O 215.999 1.34446 1.1077 0
M  V30 2174 C 213.131 2.70112 2.07973 0
M  V30 2175 H 214.324 2.98457 0.293873 0
M  V30 2176 H 211.877 1.55871 0.115787 0
M  V30 2177 H 212.612 1.9018 2.62682 0
M  V30 2178 H 212.397 3.47764 1.81115 0
M  V30 2179 H 213.887 3.14738 2.74462 0
M  V30 2180 N 214.325 -0.140222 1.56975 0
M  V30 2181 C 215.571 -0.852949 1.83991 0
M  V30 2182 C 215.904 -1.80512 0.716187 0
M  V30 2183 O 215.179 -1.92479 -0.279681 0
M  V30 2184 C 215.462 -1.6215 3.21527 0
M  V30 2185 C 215.315 -0.690363 4.4447 0
M  V30 2186 C 216.634 -2.58247 3.56366 0
M  V30 2187 H 213.753 -0.308634 0.669264 0
M  V30 2188 H 216.395 -0.117898 1.89634 0
M  V30 2189 H 214.545 -2.24812 3.16847 0
M  V30 2190 H 216.217 -0.0742264 4.6124 0
M  V30 2191 H 214.46 -0.000396433 4.338 0
M  V30 2192 H 215.131 -1.2643 5.37326 0
M  V30 2193 H 217.607 -2.05701 3.61699 0
M  V30 2194 H 216.483 -3.09067 4.53617 0
M  V30 2195 H 216.744 -3.39923 2.82674 0
M  V30 2196 N 215.803 -1.52179 -0.40978 0
M  V30 2197 C 216.733 -1.78435 -1.5061 0
M  V30 2198 C 217.714 -0.635295 -1.57791 0
M  V30 2199 O 218.899 -0.880823 -1.73076 0
M  V30 2200 C 216.029 -1.93444 -2.88439 0
M  V30 2201 C 214.983 -3.09038 -2.96108 0
M  V30 2202 C 214.309 -3.09268 -4.36185 0
M  V30 2203 C 215.609 -4.48508 -2.67652 0
M  V30 2204 H 217.303 -2.70237 -1.28889 0
M  V30 2205 H 214.849 -1.30036 -0.618605 0
M  V30 2206 H 216.802 -2.10394 -3.65119 0
M  V30 2207 H 215.526 -0.983129 -3.11452 0
M  V30 2208 H 214.185 -2.91837 -2.21872 0
M  V30 2209 H 213.833 -2.11861 -4.56206 0
M  V30 2210 H 213.533 -3.86907 -4.42241 0
M  V30 2211 H 215.057 -3.28348 -5.14801 0
M  V30 2212 H 216.471 -4.65918 -3.34056 0
M  V30 2213 H 214.868 -5.28059 -2.85085 0
M  V30 2214 H 215.938 -4.56649 -1.63095 0
M  V30 2215 N 217.281 0.66697 -1.42791 0
M  V30 2216 C 218.527 1.4291 -1.43891 0
M  V30 2217 C 218.86 1.94114 -0.0578972 0
M  V30 2218 O 218.135 1.71414 0.91911 0
M  V30 2219 C 218.418 2.62049 -2.46987 0
M  V30 2220 C 218.271 2.16426 -3.94309 0
M  V30 2221 C 219.59 3.64266 -2.46978 0
M  V30 2222 H 216.709 0.518306 -0.523954 0
M  V30 2223 H 219.351 0.757321 -1.74255 0
M  V30 2224 H 217.501 3.19361 -2.21225 0
M  V30 2225 H 219.173 1.64221 -4.31079 0
M  V30 2226 H 217.416 1.47925 -4.078 0
M  V30 2227 H 218.087 3.02038 -4.62036 0
M  V30 2228 H 220.563 3.16686 -2.69906 0
M  V30 2229 H 219.439 4.45196 -3.21079 0
M  V30 2230 H 219.7 4.15927 -1.49857 0
M  V30 2231 N 218.759 1.29093 0.90403 0
M  V30 2232 C 220.007 1.16583 1.65085 0
M  V30 2233 C 220.328 -0.283933 1.92922 0
M  V30 2234 O 219.598 -1.19509 1.55224 0
M  V30 2235 H 218.178 0.428467 0.611903 0
M  V30 2236 H 220.84 1.61959 1.08422 0
M  V30 2237 H 219.936 1.71266 2.6091 0
M  V30 2238 N 220.237 -1.11381 1.11499 0
M  V30 2239 C 221.467 -1.86663 0.885464 0
M  V30 2240 C 221.875 -1.80464 -0.568281 0
M  V30 2241 O 221.218 -1.18445 -1.40415 0
M  V30 2242 C 221.28 -3.36337 1.26956 0
M  V30 2243 C 220.944 -3.66304 2.73259 0
M  V30 2244 C 221.941 -3.63733 3.71476 0
M  V30 2245 C 219.626 -3.9529 3.09921 0
M  V30 2246 C 221.62 -3.89725 5.04374 0
M  V30 2247 C 219.307 -4.20941 4.43004 0
M  V30 2248 C 220.305 -4.18147 5.40039 0
M  V30 2249 O 219.993 -4.43153 6.70724 0
M  V30 2250 H 219.725 -0.597114 0.316908 0
M  V30 2251 H 222.279 -1.41782 1.48617 0
M  V30 2252 H 220.509 -3.81826 0.611999 0
M  V30 2253 H 222.198 -3.92986 1.01573 0
M  V30 2254 H 222.964 -3.41389 3.44498 0
M  V30 2255 H 218.843 -3.966 2.35009 0
M  V30 2256 H 222.387 -3.8746 5.80104 0
M  V30 2257 H 218.284 -4.42761 4.69716 0
M  V30 2258 H 219.052 -4.60717 6.76522 0
M  V30 2259 N 221.715 -0.905404 -1.28997 0
M  V30 2260 C 222.992 -0.453513 -1.9027 0
M  V30 2261 C 223.372 1.06721 -1.82137 0
M  V30 2262 O 222.72 1.91159 -1.25182 0
M  V30 2263 C 222.93 -0.974494 -3.35119 0
M  V30 2264 C 224.278 -1.0216 -4.12127 0
M  V30 2265 O 225.302 -0.922557 -3.44046 0
M  V30 2266 O 224.161 -1.17121 -5.33802 0
M  V30 2267 H 221.255 -0.142347 -0.814657 0
M  V30 2268 H 223.801 -0.995642 -1.37423 0
M  V30 2269 H 222.573 -2.01848 -3.35221 0
M  V30 2270 H 222.196 -0.412706 -3.95452 0
M  V30 2271 N 223.193 1.4272 -0.668489 0
M  V30 2272 C 224.103 2.34596 0.0139753 0
M  V30 2273 C 225.119 1.5474 0.795703 0
M  V30 2274 O 226.295 1.87334 0.739466 0
M  V30 2275 C 223.36 3.33202 0.957982 0
M  V30 2276 C 222.421 4.28957 0.17149 0
M  V30 2277 C 221.654 5.22853 1.07053 0
M  V30 2278 O 221.877 5.21531 2.31001 0
M  V30 2279 O 220.811 5.9952 0.534727 0
M  V30 2280 H 224.637 2.9448 -0.742661 0
M  V30 2281 H 222.222 1.43117 -0.428705 0
M  V30 2282 H 224.104 3.93796 1.50008 0
M  V30 2283 H 222.779 2.758 1.69458 0
M  V30 2284 H 221.686 3.71796 -0.414558 0
M  V30 2285 H 223.019 4.89383 -0.52586 0
M  V30 2286 N 224.671 0.411399 1.52136 0
M  V30 2287 C 225.621 -0.430376 2.23901 0
M  V30 2288 C 226.605 -1.0116 1.25121 0
M  V30 2289 O 227.797 -0.934044 1.50348 0
M  V30 2290 C 224.926 -1.54527 3.06556 0
M  V30 2291 C 224.012 -0.9747 4.12747 0
M  V30 2292 N 224.403 -0.130991 5.0563 0
M  V30 2293 C 222.701 -1.24497 4.28271 0
M  V30 2294 C 223.402 0.186689 5.814 0
M  V30 2295 N 222.378 -0.42304 5.41951 0
M  V30 2296 H 226.18 0.220509 2.93072 0
M  V30 2297 H 223.694 0.221952 1.60876 0
M  V30 2298 H 225.691 -2.16093 3.56524 0
M  V30 2299 H 224.351 -2.19875 2.38925 0
M  V30 2300 H 225.362 0.23349 5.17373 0
M  V30 2301 H 222.039 -1.89787 3.7187 0
M  V30 2302 H 223.429 0.871673 6.66222 0
M  V30 2303 N 226.149 -1.5696 0.141893 0
M  V30 2304 C 227.396 -1.9596 -0.510492 0
M  V30 2305 C 227.724 -1.02648 -1.65208 0
M  V30 2306 O 226.979 -0.0546947 -1.95624 0
M  V30 2307 C 227.278 -3.41242 -1.06249 0
M  V30 2308 C 226.944 -4.50882 -0.0398791 0
M  V30 2309 C 225.606 -4.80595 0.241247 0
M  V30 2310 C 227.958 -5.17058 0.65578 0
M  V30 2311 C 225.286 -5.73792 1.22393 0
M  V30 2312 C 227.638 -6.11313 1.62724 0
M  V30 2313 C 226.302 -6.39407 1.91612 0
M  V30 2314 H 225.572 -0.717068 -0.186802 0
M  V30 2315 H 228.219 -1.90142 0.227643 0
M  V30 2316 H 226.524 -3.43866 -1.87785 0
M  V30 2317 H 228.221 -3.68742 -1.57576 0
M  V30 2318 H 224.811 -4.27754 -0.269174 0
M  V30 2319 H 228.995 -4.94239 0.451779 0
M  V30 2320 H 224.251 -5.93853 1.45424 0
M  V30 2321 H 228.425 -6.61668 2.17183 0
M  V30 2322 H 226.052 -7.11427 2.6791 0
M  V30 2323 N 227.627 0.131896 -1.57047 0
M  V30 2324 C 228.852 0.860418 -1.8871 0
M  V30 2325 C 229.277 1.73251 -0.73251 0
M  V30 2326 O 228.635 1.785 0.317429 0
M  V30 2327 C 228.683 1.68047 -3.19049 0
M  V30 2328 O 227.787 2.7862 -3.04047 0
M  V30 2329 H 227.128 0.238743 -0.619595 0
M  V30 2330 H 229.658 0.118169 -2.04258 0
M  V30 2331 H 229.668 2.07238 -3.51449 0
M  V30 2332 H 228.343 1.04018 -4.02682 0
M  V30 2333 H 226.92 2.42726 -2.83088 0
M  V30 2334 N 229.106 1.52395 0.401703 0
M  V30 2335 C 230.353 1.66817 1.14796 0
M  V30 2336 C 230.681 0.401772 1.90305 0
M  V30 2337 O 229.936 -0.615487 1.85769 0
M  V30 2338 C 230.235 2.84578 2.16217 0
M  V30 2339 C 229.901 4.22513 1.5746 0
M  V30 2340 C 228.563 4.60029 1.41161 0
M  V30 2341 C 230.915 5.0844 1.14622 0
M  V30 2342 C 228.243 5.81144 0.80552 0
M  V30 2343 C 230.595 6.30167 0.55428 0
M  V30 2344 C 229.259 6.66426 0.378482 0
M  V30 2345 H 228.529 0.610428 0.420069 0
M  V30 2346 H 231.176 1.86512 0.434212 0
M  V30 2347 H 229.481 2.59248 2.93764 0
M  V30 2348 H 231.178 2.92933 2.73845 0
M  V30 2349 H 227.768 3.92953 1.71132 0
M  V30 2350 H 231.952 4.80034 1.26021 0
M  V30 2351 H 227.208 6.07855 0.657399 0
M  V30 2352 H 231.382 6.96071 0.213983 0
M  V30 2353 H 229.009 7.60143 -0.0932606 0
M  V30 2354 N 230.584 -0.659388 1.43143 0
M  V30 2355 C 231.547 -1.75432 1.47501 0
M  V30 2356 C 232.547 -1.56707 0.360512 0
M  V30 2357 O 233.737 -1.62717 0.622002 0
M  V30 2358 C 230.869 -3.14239 1.32162 0
M  V30 2359 H 232.062 -1.7295 2.45006 0
M  V30 2360 H 229.615 -0.870469 1.29817 0
M  V30 2361 H 230.35 -3.22336 0.356401 0
M  V30 2362 H 230.135 -3.29235 2.12948 0
M  V30 2363 H 231.625 -3.94094 1.3813 0
M  V30 2364 N 232.062 -1.29571 -0.897171 0
M  V30 2365 C 233.009 -1.14916 -2.00158 0
M  V30 2366 C 233.979 -0.0418149 -1.66047 0
M  V30 2367 O 235.164 -0.209793 -1.89643 0
M  V30 2368 C 232.304 -0.834307 -3.34863 0
M  V30 2369 C 231.417 -2.02234 -3.8174 0
M  V30 2370 C 230.552 -1.64664 -5.05034 0
M  V30 2371 C 229.591 -2.80033 -5.44286 0
M  V30 2372 N 228.728 -2.42843 -6.58765 0
M  V30 2373 H 233.568 -2.09403 -2.12025 0
M  V30 2374 H 231.105 -1.042 -1.0383 0
M  V30 2375 H 233.063 -0.632436 -4.12379 0
M  V30 2376 H 231.693 0.0736656 -3.22716 0
M  V30 2377 H 230.745 -2.33583 -3.00238 0
M  V30 2378 H 232.057 -2.88673 -4.06779 0
M  V30 2379 H 231.211 -1.4078 -5.9014 0
M  V30 2380 H 229.95 -0.753766 -4.8184 0
M  V30 2381 H 228.955 -3.04596 -4.57713 0
M  V30 2382 H 230.18 -3.69989 -5.6946 0
M  V30 2383 H 228.126 -1.56046 -6.3717 0
M  V30 2384 H 228.043 -3.22815 -6.83613 0
M  V30 2385 H 229.311 -2.22285 -7.47134 0
M  V30 2386 N 233.54 1.10788 -1.12088 0
M  V30 2387 C 234.47 2.19083 -0.807755 0
M  V30 2388 C 235.451 1.6858 0.226859 0
M  V30 2389 O 236.636 1.93997 0.0888475 0
M  V30 2390 C 233.766 3.46344 -0.257576 0
M  V30 2391 C 232.72 4.101 -1.22483 0
M  V30 2392 C 232.046 5.32016 -0.535052 0
M  V30 2393 C 233.346 4.54236 -2.57811 0
M  V30 2394 H 235.04 2.45534 -1.71328 0
M  V30 2395 H 232.586 1.1801 -0.825205 0
M  V30 2396 H 234.539 4.21392 -0.0262679 0
M  V30 2397 H 233.263 3.19373 0.683278 0
M  V30 2398 H 231.922 3.37054 -1.44189 0
M  V30 2399 H 231.57 5.01319 0.410827 0
M  V30 2400 H 231.27 5.75625 -1.18024 0
M  V30 2401 H 232.794 6.09799 -0.312695 0
M  V30 2402 H 234.208 5.20575 -2.40155 0
M  V30 2403 H 232.605 5.08682 -3.18375 0
M  V30 2404 H 233.675 3.6734 -3.16528 0
M  V30 2405 N 235.018 0.912232 1.28515 0
M  V30 2406 C 236.434 0.610159 1.47476 0
M  V30 2407 C 236.634 -0.844955 1.82928 0
M  V30 2408 O 235.69 -1.62416 1.93332 0
M  V30 2409 C 237.003 1.54675 2.57868 0
M  V30 2410 C 238.551 1.55331 2.71738 0
M  V30 2411 C 239.026 2.47649 3.85272 0
M  V30 2412 N 240.517 2.45767 3.92623 0
M  V30 2413 C 241.252 3.13896 4.79851 0
M  V30 2414 N 240.748 3.9135 5.71679 0
M  V30 2415 N 242.541 3.02991 4.73448 0
M  V30 2416 H 234.692 1.85318 1.03783 0
M  V30 2417 H 236.955 0.794777 0.516753 0
M  V30 2418 H 236.661 2.5841 2.38574 0
M  V30 2419 H 236.535 1.27671 3.54937 0
M  V30 2420 H 238.922 0.52335 2.90422 0
M  V30 2421 H 239.003 1.86378 1.75205 0
M  V30 2422 H 238.647 3.50745 3.67342 0
M  V30 2423 H 238.577 2.13904 4.81199 0
M  V30 2424 H 241.068 1.89503 3.26951 0
M  V30 2425 H 241.381 4.40359 6.35062 0
M  V30 2426 H 239.726 3.95455 5.71524 0
M  V30 2427 H 242.917 2.41987 4.007 0
M  V30 2428 H 243.09 3.5636 5.41213 0
M  V30 2429 N 236.496 -1.42363 0.676048 0
M  V30 2430 C 237.406 -2.346 -0.00153389 0
M  V30 2431 C 238.422 -1.5516 -0.787485 0
M  V30 2432 O 239.598 -1.87723 -0.729521 0
M  V30 2433 C 236.663 -3.33705 -0.940298 0
M  V30 2434 C 235.724 -4.29042 -0.148739 0
M  V30 2435 C 234.957 -5.23413 -1.04279 0
M  V30 2436 O 235.18 -5.22749 -2.28232 0
M  V30 2437 O 234.114 -5.99795 -0.502925 0
M  V30 2438 H 237.94 -2.94082 0.758268 0
M  V30 2439 H 235.525 -1.42888 0.436289 0
M  V30 2440 H 237.407 -3.94586 -1.47917 0
M  V30 2441 H 236.082 -2.76695 -1.67993 0
M  V30 2442 H 234.989 -3.71571 0.43427 0
M  V30 2443 H 236.322 -4.89097 0.551805 0
M  V30 2444 N 237.974 -0.419461 -1.51915 0
M  V30 2445 C 238.937 0.389116 -2.25873 0
M  V30 2446 C 239.937 0.964924 -1.28631 0
M  V30 2447 O 241.127 0.842179 -1.52489 0
M  V30 2448 C 238.259 1.54874 -3.03689 0
M  V30 2449 H 239.452 -0.258799 -2.98781 0
M  V30 2450 H 237.005 -0.172209 -1.55348 0
M  V30 2451 H 237.74 2.23323 -2.35154 0
M  V30 2452 H 237.525 1.14223 -3.75094 0
M  V30 2453 H 239.015 2.12046 -3.59759 0
M  V30 2454 N 239.452 1.56882 -0.150215 0
M  V30 2455 C 240.692 1.98119 0.502804 0
M  V30 2456 C 241.056 1.03327 1.61826 0
M  V30 2457 O 242.257 1.33621 2.33236 0
M  V30 2458 C 240.528 3.43329 0.992988 0
M  V30 2459 S 242.087 4.0659 1.65015 0
M  V30 2460 H 238.905 0.692189 0.162467 0
M  V30 2461 H 241.507 1.93988 -0.242689 0
M  V30 2462 H 240.211 4.10046 0.170436 0
M  V30 2463 H 239.742 3.5118 1.77303 0
M  V30 2464 H 241.757 3.99906 2.93752 0
M  V30 2465 N 240.93 -0.123565 1.57115 0
M  V30 2466 C 241.893 -1.13583 1.99076 0
M  V30 2467 C 242.893 -1.34564 0.880296 0
M  V30 2468 O 244.083 -1.31158 1.14644 0
M  V30 2469 C 241.215 -2.49128 2.32698 0
M  V30 2470 H 242.408 -0.775287 2.89706 0
M  V30 2471 H 239.961 -0.36771 1.51913 0
M  V30 2472 H 240.696 -2.90111 1.44934 0
M  V30 2473 H 240.481 -2.35255 3.13684 0
M  V30 2474 H 241.971 -3.2199 2.65918 0
M  V30 2475 N 242.408 -1.52605 -0.393616 0
M  V30 2476 C 243.358 -1.73436 -1.48 0
M  V30 2477 C 244.342 -0.588386 -1.49756 0
M  V30 2478 O 245.534 -0.846047 -1.5547 0
M  V30 2479 C 242.663 -1.90247 -2.85764 0
M  V30 2480 C 241.749 -3.10763 -2.88595 0
M  V30 2481 N 242.14 -4.33196 -2.61103 0
M  V30 2482 C 240.438 -3.10914 -3.19763 0
M  V30 2483 C 241.139 -5.1477 -2.70899 0
M  V30 2484 N 240.115 -4.50356 -3.04435 0
M  V30 2485 H 243.917 -2.65727 -1.25563 0
M  V30 2486 H 241.431 -1.5085 -0.601513 0
M  V30 2487 H 243.428 -2.03291 -3.63976 0
M  V30 2488 H 242.088 -0.991663 -3.09186 0
M  V30 2489 H 243.099 -4.61408 -2.35209 0
M  V30 2490 H 239.776 -2.29626 -3.4868 0
M  V30 2491 H 241.166 -6.22355 -2.53227 0
M  V30 2492 N 243.887 0.651787 -1.4349 0
M  V30 2493 C 244.817 1.77621 -1.51569 0
M  V30 2494 C 245.798 1.66022 -0.370253 0
M  V30 2495 O 246.983 1.85095 -0.587658 0
M  V30 2496 C 244.113 3.16056 -1.43966 0
M  V30 2497 C 243.067 3.4242 -2.56774 0
M  V30 2498 C 242.393 4.8067 -2.34223 0
M  V30 2499 C 243.693 3.37023 -3.99015 0
M  V30 2500 H 245.387 1.71117 -2.45681 0
M  V30 2501 H 242.933 0.821825 -1.18246 0
M  V30 2502 H 244.886 3.94472 -1.48221 0
M  V30 2503 H 243.61 3.23293 -0.463586 0
M  V30 2504 H 242.269 2.66375 -2.51873 0
M  V30 2505 H 241.917 4.84585 -1.34856 0
M  V30 2506 H 241.617 4.9927 -3.09844 0
M  V30 2507 H 243.141 5.61342 -2.40265 0
M  V30 2508 H 244.555 4.05374 -4.05395 0
M  V30 2509 H 242.952 3.67159 -4.74673 0
M  V30 2510 H 244.022 2.3518 -4.2405 0
M  V30 2511 N 245.365 1.30045 0.890287 0
M  V30 2512 C 246.781 1.08261 1.17268 0
M  V30 2513 C 246.981 -0.160063 2.00863 0
M  V30 2514 O 246.037 -0.855181 2.37577 0
M  V30 2515 C 247.35 2.34323 1.8845 0
M  V30 2516 C 248.898 2.39735 2.01237 0
M  V30 2517 C 249.373 3.65625 2.7583 0
M  V30 2518 N 250.864 3.66402 2.83379 0
M  V30 2519 C 251.599 4.60498 3.41657 0
M  V30 2520 N 251.095 5.64933 4.01026 0
M  V30 2521 N 252.888 4.48051 3.39421 0
M  V30 2522 H 245.039 2.09777 0.332762 0
M  V30 2523 H 247.302 0.92446 0.209948 0
M  V30 2524 H 247.008 3.2498 1.34465 0
M  V30 2525 H 246.882 2.4256 2.88867 0
M  V30 2526 H 249.269 1.4956 2.54393 0
M  V30 2527 H 249.35 2.35476 0.999232 0
M  V30 2528 H 248.994 4.56156 2.23347 0
M  V30 2529 H 248.924 3.67144 3.77509 0
M  V30 2530 H 251.415 2.90896 2.41222 0
M  V30 2531 H 251.728 6.32841 4.43545 0
M  V30 2532 H 250.073 5.68732 3.99461 0
M  V30 2533 H 253.264 3.65649 2.92264 0
M  V30 2534 H 253.437 5.21565 3.84544 0
M  V30 2535 N 246.843 -1.10192 1.12674 0
M  V30 2536 C 248.12 -1.78717 0.794965 0
M  V30 2537 C 248.5 -1.98628 -0.714853 0
M  V30 2538 O 247.848 -1.58135 -1.64941 0
M  V30 2539 C 248.058 -3.11546 1.5729 0
M  V30 2540 C 249.406 -3.86382 1.76052 0
M  V30 2541 O 250.43 -3.21274 1.53823 0
M  V30 2542 O 249.289 -5.03246 2.13087 0
M  V30 2543 H 246.383 -0.774702 0.289423 0
M  V30 2544 H 248.929 -1.16819 1.23091 0
M  V30 2545 H 247.701 -2.92489 2.59935 0
M  V30 2546 H 247.324 -3.81164 1.13137 0
M  V30 2547 N 248.321 -0.919034 -1.28029 0
M  V30 2548 C 249.732 -0.600735 -1.76771 0
M  V30 2549 C 250.083 0.884024 -1.75156 0
M  V30 2550 O 249.208 1.69163 -1.34956 0
M  V30 2551 C 249.803 -1.08372 -3.21 0
M  V30 2552 C 248.362 -0.816248 -3.67443 0
M  V30 2553 C 247.509 -1.24742 -2.47658 0
M  V30 2554 H 250.46 -1.09974 -1.14418 0
M  V30 2555 H 250.481 -0.427512 -3.78091 0
M  V30 2556 H 249.993 -2.16437 -3.22144 0
M  V30 2557 H 248.094 0.250968 -3.71754 0
M  V30 2558 H 248.207 -1.4277 -4.57333 0
M  V30 2559 H 246.571 -0.666083 -2.45836 0
M  V30 2560 H 247.354 -2.33653 -2.51518 0
M  V30 2561 N 249.799 1.42003 -0.683588 0
M  V30 2562 C 250.709 2.34597 -0.0109075 0
M  V30 2563 C 251.725 1.55576 0.779245 0
M  V30 2564 O 252.901 1.88107 0.719555 0
M  V30 2565 C 249.966 3.34199 0.922588 0
M  V30 2566 C 249.027 4.29115 0.125984 0
M  V30 2567 C 248.26 5.23959 1.01502 0
M  V30 2568 O 248.483 5.23952 2.25456 0
M  V30 2569 O 247.417 6.00053 0.47111 0
M  V30 2570 H 251.243 2.93675 -0.773853 0
M  V30 2571 H 248.828 1.42654 -0.443861 0
M  V30 2572 H 250.71 3.95365 1.45823 0
M  V30 2573 H 249.385 2.77582 1.66523 0
M  V30 2574 H 248.292 3.71335 -0.453969 0
M  V30 2575 H 249.625 4.88798 -0.577736 0
M  V30 2576 N 251.277 0.427512 1.51691 0
M  V30 2577 C 252.517 -0.141524 2.03909 0
M  V30 2578 C 252.881 -1.40811 1.30523 0
M  V30 2579 O 254.082 -2.05676 1.73063 0
M  V30 2580 C 252.353 -0.364962 3.55532 0
M  V30 2581 S 253.912 -0.898812 4.29496 0
M  V30 2582 H 250.73 -0.0364542 0.710065 0
M  V30 2583 H 253.332 0.584659 1.86553 0
M  V30 2584 H 252.036 0.56336 4.06515 0
M  V30 2585 H 251.567 -1.1185 3.77164 0
M  V30 2586 H 253.582 -2.17747 4.45871 0
M  V30 2587 N 252.755 -1.56801 0.158532 0
M  V30 2588 C 253.685 -2.20347 -0.772609 0
M  V30 2589 C 254.666 -1.15518 -1.24859 0
M  V30 2590 O 255.851 -1.43902 -1.30406 0
M  V30 2591 C 252.981 -2.83417 -2.00729 0
M  V30 2592 C 251.935 -3.94174 -1.66765 0
M  V30 2593 C 251.261 -4.44233 -2.97592 0
M  V30 2594 C 252.561 -5.14392 -0.905447 0
M  V30 2595 H 254.255 -2.98413 -0.242959 0
M  V30 2596 H 251.801 -1.43537 -0.115419 0
M  V30 2597 H 253.754 -3.26543 -2.6636 0
M  V30 2598 H 252.478 -2.02701 -2.56086 0
M  V30 2599 H 251.137 -3.51684 -1.03508 0
M  V30 2600 H 250.785 -3.60325 -3.50963 0
M  V30 2601 H 250.485 -5.18945 -2.75626 0
M  V30 2602 H 252.009 -4.90037 -3.64274 0
M  V30 2603 H 253.423 -5.5429 -1.46408 0
M  V30 2604 H 251.82 -5.9494 -0.7853 0
M  V30 2605 H 252.89 -4.84795 0.100668 0
M  V30 2606 N 254.233 0.115231 -1.57178 0
M  V30 2607 C 255.163 1.1423 -2.03651 0
M  V30 2608 C 256.144 1.42967 -0.921655 0
M  V30 2609 O 257.329 1.53343 -1.19162 0
M  V30 2610 C 254.459 2.4675 -2.44401 0
M  V30 2611 C 253.413 2.32467 -3.59365 0
M  V30 2612 C 252.739 3.69984 -3.86026 0
M  V30 2613 C 254.039 1.78203 -4.90959 0
M  V30 2614 H 255.733 0.755749 -2.89705 0
M  V30 2615 H 253.279 0.362093 -1.39373 0
M  V30 2616 H 255.232 3.18854 -2.75517 0
M  V30 2617 H 253.956 2.87302 -1.55322 0
M  V30 2618 H 252.615 1.62811 -3.28463 0
M  V30 2619 H 252.263 4.08028 -2.94147 0
M  V30 2620 H 251.963 3.61279 -4.63412 0
M  V30 2621 H 253.487 4.43587 -4.19599 0
M  V30 2622 H 254.901 2.40128 -5.20587 0
M  V30 2623 H 253.298 1.8031 -5.72371 0
M  V30 2624 H 254.368 0.739876 -4.79222 0
M  V30 2625 N 255.711 1.52812 0.385517 0
M  V30 2626 C 256.957 1.68275 1.13188 0
M  V30 2627 C 257.29 0.423179 1.89533 0
M  V30 2628 O 256.565 -0.579113 1.85679 0
M  V30 2629 C 256.848 2.92001 2.1073 0
M  V30 2630 C 256.701 4.28067 1.38125 0
M  V30 2631 C 258.02 3.11283 3.11113 0
M  V30 2632 H 255.139 0.612352 0.410115 0
M  V30 2633 H 257.781 1.85415 0.414869 0
M  V30 2634 H 255.931 2.77519 2.71874 0
M  V30 2635 H 257.603 4.54324 0.799187 0
M  V30 2636 H 255.846 4.28388 0.683092 0
M  V30 2637 H 256.517 5.10733 2.09417 0
M  V30 2638 H 258.993 3.2482 2.6006 0
M  V30 2639 H 257.869 3.99325 3.76605 0
M  V30 2640 H 258.13 2.25656 3.80173 0
M  V30 2641 N 257.189 -0.644168 1.43834 0
M  V30 2642 C 258.152 -1.73857 1.49353 0
M  V30 2643 C 259.152 -1.56315 0.377112 0
M  V30 2644 O 260.342 -1.62048 0.639226 0
M  V30 2645 C 257.474 -3.12819 1.35488 0
M  V30 2646 H 258.667 -1.70342 2.46827 0
M  V30 2647 H 256.22 -0.856652 1.30733 0
M  V30 2648 H 256.955 -3.2194 0.390569 0
M  V30 2649 H 256.74 -3.26958 2.16428 0
M  V30 2650 H 258.23 -3.92606 1.42302 0
M  V30 2651 N 258.668 -1.30515 -0.883378 0
M  V30 2652 C 259.896 -1.22359 -1.66841 0
M  V30 2653 C 260.311 0.213296 -1.87591 0
M  V30 2654 O 259.668 1.14075 -1.42454 0
M  V30 2655 C 259.719 -1.95011 -3.04389 0
M  V30 2656 O 259.44 -3.3309 -2.84575 0
M  V30 2657 C 260.941 -1.93532 -3.98824 0
M  V30 2658 H 258.161 -0.423371 -0.520575 0
M  V30 2659 H 260.705 -1.72167 -1.10357 0
M  V30 2660 H 258.86 -1.48997 -3.57601 0
M  V30 2661 H 259.274 -3.69907 -3.71846 0
M  V30 2662 H 260.748 -2.48902 -4.92699 0
M  V30 2663 H 261.225 -0.914627 -4.29571 0
M  V30 2664 H 261.831 -2.39364 -3.51547 0
M  V30 2665 N 260.146 1.09593 -1.13257 0
M  V30 2666 C 261.423 1.78293 -0.804432 0
M  V30 2667 C 261.803 1.99004 0.70431 0
M  V30 2668 O 261.151 1.59007 1.641 0
M  V30 2669 C 261.361 3.10707 -1.5894 0
M  V30 2670 C 262.709 3.85443 -1.78099 0
M  V30 2671 O 263.733 3.20454 -1.55525 0
M  V30 2672 O 262.592 5.02108 -2.15753 0
M  V30 2673 H 259.686 0.773156 -0.293528 0
M  V30 2674 H 262.232 1.16164 -1.23709 0
M  V30 2675 H 261.004 2.91106 -2.61482 0
M  V30 2676 H 260.627 3.80558 -1.15157 0
M  V30 2677 N 261.624 0.925811 1.2754 0
M  V30 2678 C 263.04 0.625767 1.46821 0
M  V30 2679 C 263.24 -0.825506 1.83814 0
M  V30 2680 O 262.296 -1.60356 1.95044 0
M  V30 2681 C 263.609 1.57402 2.56213 0
M  V30 2682 C 265.157 1.58204 2.70075 0
M  V30 2683 C 265.632 2.51721 3.82623 0
M  V30 2684 N 267.123 2.49917 3.89994 0
M  V30 2685 C 267.858 3.18968 4.76494 0
M  V30 2686 N 267.354 3.97391 5.67496 0
M  V30 2687 N 269.147 3.07996 4.70208 0
M  V30 2688 H 261.298 1.86409 1.01811 0
M  V30 2689 H 263.561 0.800213 0.508295 0
M  V30 2690 H 263.267 2.60925 2.35819 0
M  V30 2691 H 263.141 1.31428 3.53563 0
M  V30 2692 H 265.528 0.554124 2.89851 0
M  V30 2693 H 265.609 1.88226 1.73218 0
M  V30 2694 H 265.253 3.54622 3.63601 0
M  V30 2695 H 265.183 2.18996 4.78903 0
M  V30 2696 H 267.674 1.9296 3.24923 0
M  V30 2697 H 267.987 4.4707 6.30356 0
M  V30 2698 H 266.332 4.01495 5.67298 0
M  V30 2699 H 269.523 2.46223 3.9811 0
M  V30 2700 H 269.696 3.6208 5.37403 0
M  V30 2701 N 263.102 -1.41638 0.69111 0
M  V30 2702 C 264.379 -1.95036 0.148421 0
M  V30 2703 C 264.759 -1.63072 -1.34055 0
M  V30 2704 O 264.107 -0.93538 -2.08478 0
M  V30 2705 C 264.317 -3.46279 0.434951 0
M  V30 2706 C 265.665 -4.23069 0.360275 0
M  V30 2707 O 266.689 -3.54277 0.369613 0
M  V30 2708 O 265.548 -5.45583 0.316534 0
M  V30 2709 H 262.642 -0.826908 0.0123654 0
M  V30 2710 H 265.188 -1.5138 0.766963 0
M  V30 2711 H 263.96 -3.6281 1.46576 0
M  V30 2712 H 263.583 -3.97019 -0.214787 0
M  V30 2713 N 264.58 -0.43555 -1.51462 0
M  V30 2714 C 265.991 0.0279871 -1.86679 0
M  V30 2715 C 266.342 1.42104 -1.35281 0
M  V30 2716 O 265.467 2.04667 -0.702878 0
M  V30 2717 C 266.062 0.0575626 -3.38751 0
M  V30 2718 C 264.621 0.465507 -3.7351 0
M  V30 2719 C 263.768 -0.342996 -2.75171 0
M  V30 2720 H 266.719 -0.651473 -1.44712 0
M  V30 2721 H 266.74 0.867421 -3.70481 0
M  V30 2722 H 266.252 -0.956448 -3.7613 0
M  V30 2723 H 264.353 1.48519 -3.41721 0
M  V30 2724 H 264.466 0.191546 -4.78717 0
M  V30 2725 H 262.83 0.198442 -2.53926 0
M  V30 2726 H 263.613 -1.35585 -3.15391 0
M  V30 2727 N 266.058 1.56714 -0.166846 0
M  V30 2728 C 267.304 1.97813 0.473473 0
M  V30 2729 C 267.659 1.05095 1.61161 0
M  V30 2730 O 266.952 0.0897541 1.9139 0
M  V30 2731 C 267.146 3.42889 1.00806 0
M  V30 2732 C 266.975 4.49635 -0.0767392 0
M  V30 2733 C 265.745 5.02566 -0.524894 0
M  V30 2734 C 267.943 5.06793 -0.875504 0
M  V30 2735 N 265.925 5.9294 -1.59047 0
M  V30 2736 C 267.296 5.93565 -1.79111 0
M  V30 2737 C 269.351 4.89306 -0.921083 0
M  V30 2738 C 268.054 6.64721 -2.74843 0
M  V30 2739 C 270.08 5.61179 -1.86633 0
M  V30 2740 C 269.442 6.47675 -2.76942 0
M  V30 2741 H 265.541 0.769093 0.141489 0
M  V30 2742 H 268.125 1.92874 -0.266031 0
M  V30 2743 H 266.296 3.48382 1.7171 0
M  V30 2744 H 268.028 3.71008 1.61664 0
M  V30 2745 H 264.783 4.73439 -0.123432 0
M  V30 2746 H 265.207 6.42831 -2.12361 0
M  V30 2747 H 269.849 4.22136 -0.23692 0
M  V30 2748 H 267.567 7.31107 -3.44249 0
M  V30 2749 H 271.153 5.49636 -1.90764 0
M  V30 2750 H 270.033 7.02313 -3.48893 0
M  V30 2751 N 267.536 -0.106894 1.57237 0
M  V30 2752 C 268.486 -1.1366 1.9765 0
M  V30 2753 C 269.47 -1.36416 0.853203 0
M  V30 2754 O 270.662 -1.37305 1.11697 0
M  V30 2755 C 267.791 -2.46 2.39455 0
M  V30 2756 C 266.877 -2.26668 3.58445 0
M  V30 2757 N 267.268 -1.77176 4.73754 0
M  V30 2758 C 265.566 -2.57279 3.64312 0
M  V30 2759 C 266.267 -1.71836 5.5574 0
M  V30 2760 N 265.243 -2.16623 4.98573 0
M  V30 2761 H 269.045 -0.74669 2.84256 0
M  V30 2762 H 266.559 -0.314483 1.59326 0
M  V30 2763 H 268.556 -3.2049 2.6663 0
M  V30 2764 H 267.216 -2.85738 1.54219 0
M  V30 2765 H 268.227 -1.46545 4.96734 0
M  V30 2766 H 264.904 -3.00622 2.89711 0
M  V30 2767 H 266.294 -1.34723 6.58255 0
M  V30 2768 N 269.014 -1.53014 -0.377408 0
M  V30 2769 C 270.425 -1.60438 -0.954798 0
M  V30 2770 C 270.776 -0.464418 -1.90624 0
M  V30 2771 O 269.901 0.41087 -2.12464 0
M  V30 2772 C 270.496 -2.90797 -1.73847 0
M  V30 2773 C 269.055 -3.00595 -2.26538 0
M  V30 2774 C 268.202 -2.55645 -1.07429 0
M  V30 2775 H 271.153 -1.57926 -0.156575 0
M  V30 2776 H 271.174 -2.77935 -2.5987 0
M  V30 2777 H 270.686 -3.73746 -1.04574 0
M  V30 2778 H 268.787 -2.22208 -2.99089 0
M  V30 2779 H 268.9 -4.05456 -2.5523 0
M  V30 2780 H 267.264 -2.10239 -1.43777 0
M  V30 2781 H 268.047 -3.41 -0.396728 0
M  V30 2782 N 270.492 0.636531 -1.44174 0
M  V30 2783 C 271.422 1.76003 -1.53444 0
M  V30 2784 C 272.403 1.65619 -0.387841 0
M  V30 2785 O 273.588 1.84461 -0.607257 0
M  V30 2786 C 270.718 3.14511 -1.4731 0
M  V30 2787 C 269.672 3.39677 -2.60391 0
M  V30 2788 C 268.998 4.78159 -2.39308 0
M  V30 2789 C 270.298 3.32772 -4.02567 0
M  V30 2790 H 271.992 1.68501 -2.47483 0
M  V30 2791 H 269.538 0.809237 -1.19111 0
M  V30 2792 H 271.491 3.92878 -1.52397 0
M  V30 2793 H 270.215 3.22783 -0.49785 0
M  V30 2794 H 268.874 2.63688 -2.54684 0
M  V30 2795 H 268.522 4.83128 -1.39988 0
M  V30 2796 H 268.222 4.95956 -3.15122 0
M  V30 2797 H 269.746 5.58762 -2.46205 0
M  V30 2798 H 271.16 4.01051 -4.09672 0
M  V30 2799 H 269.557 3.62104 -4.7854 0
M  V30 2800 H 270.627 2.30669 -4.2652 0
M  V30 2801 N 271.97 1.30982 0.876444 0
M  V30 2802 C 273.195 1.23373 1.66715 0
M  V30 2803 C 273.62 -0.19885 1.87046 0
M  V30 2804 O 272.978 -1.1427 1.40756 0
M  V30 2805 C 273.026 1.97644 3.01611 0
M  V30 2806 O 272.13 1.30935 3.91062 0
M  V30 2807 H 271.471 0.426279 0.509099 0
M  V30 2808 H 274.001 1.72944 1.09323 0
M  V30 2809 H 274.011 2.06992 3.51594 0
M  V30 2810 H 272.686 3.01829 2.86133 0
M  V30 2811 H 271.263 1.29996 3.49507 0
M  V30 2812 N 273.449 -1.08991 1.13837 0
M  V30 2813 C 274.726 -1.77863 0.813876 0
M  V30 2814 C 275.106 -1.99375 -0.693746 0
M  V30 2815 O 274.454 -1.59875 -1.63255 0
M  V30 2816 C 274.664 -3.0986 1.60586 0
M  V30 2817 C 276.012 -3.84493 1.8014 0
M  V30 2818 O 277.036 -3.19624 1.57222 0
M  V30 2819 O 275.895 -5.00957 2.18413 0
M  V30 2820 H 272.989 -0.771589 0.297624 0
M  V30 2821 H 275.535 -1.15507 1.24323 0
M  V30 2822 H 274.307 -2.89715 2.63022 0
M  V30 2823 H 273.93 -3.79942 1.17173 0
M  V30 2824 N 274.927 -0.932562 -1.27047 0
M  V30 2825 C 276.175 -0.574422 -1.93765 0
M  V30 2826 C 276.496 0.887993 -1.73608 0
M  V30 2827 O 275.766 1.62999 -1.08665 0
M  V30 2828 H 274.346 -0.209451 -0.717035 0
M  V30 2829 H 277.008 -1.18601 -1.5466 0
M  V30 2830 H 276.104 -0.784841 -3.02071 0
M  V30 2831 N 276.405 1.4127 -0.698611 0
M  V30 2832 C 277.63 2.06024 -0.238512 0
M  V30 2833 C 278.055 1.5224 1.10475 0
M  V30 2834 O 277.413 0.650623 1.69223 0
M  V30 2835 C 277.461 3.59988 -0.209952 0
M  V30 2836 O 276.565 4.04282 0.814235 0
M  V30 2837 H 275.906 0.653829 -0.115775 0
M  V30 2838 H 278.436 1.8098 -0.954326 0
M  V30 2839 H 278.446 4.07979 -0.0418436 0
M  V30 2840 H 277.121 3.98503 -1.1903 0
M  V30 2841 H 275.698 3.6779 0.615234 0
M  V30 2842 N 277.883 0.443576 1.51229 0
M  V30 2843 C 279.299 0.0962001 1.5931 0
M  V30 2844 C 279.499 -1.39501 1.45402 0
M  V30 2845 O 278.555 -2.16557 1.29843 0
M  V30 2846 C 279.868 0.621875 2.94199 0
M  V30 2847 C 281.416 0.582865 3.07525 0
M  V30 2848 C 281.891 1.08562 4.44948 0
M  V30 2849 N 283.382 1.04387 4.51284 0
M  V30 2850 C 284.117 1.40368 5.55954 0
M  V30 2851 N 283.613 1.83664 6.68011 0
M  V30 2852 N 285.406 1.32145 5.46346 0
M  V30 2853 H 277.557 1.41376 1.58514 0
M  V30 2854 H 279.82 0.582965 0.747567 0
M  V30 2855 H 279.526 1.66546 3.09767 0
M  V30 2856 H 279.4 0.0502125 3.77167 0
M  V30 2857 H 281.787 -0.451749 2.91622 0
M  V30 2858 H 281.868 1.191 2.26382 0
M  V30 2859 H 281.512 2.11873 4.61598 0
M  V30 2860 H 281.442 0.453956 5.2464 0
M  V30 2861 H 283.933 0.725986 3.70861 0
M  V30 2862 H 284.246 2.0934 7.43906 0
M  V30 2863 H 282.591 1.87596 6.69203 0
M  V30 2864 H 285.782 0.981808 4.57688 0
M  V30 2865 H 285.955 1.60514 6.27805 0
M  V30 2866 N 279.361 -1.56624 0.175154 0
M  V30 2867 C 280.589 -2.01374 -0.474971 0
M  V30 2868 C 281.004 -1.05537 -1.56548 0
M  V30 2869 O 280.361 -0.0568668 -1.82411 0
M  V30 2870 C 280.412 -3.45923 -1.04975 0
M  V30 2871 O 280.133 -4.381 -0.00276605 0
M  V30 2872 C 281.634 -4.06093 -1.77773 0
M  V30 2873 H 278.854 -0.659962 -0.121206 0
M  V30 2874 H 281.398 -2.02601 0.27801 0
M  V30 2875 H 279.553 -3.45458 -1.75321 0
M  V30 2876 H 279.967 -5.22753 -0.427681 0
M  V30 2877 H 281.441 -5.09147 -2.13245 0
M  V30 2878 H 281.918 -3.48405 -2.67414 0
M  V30 2879 H 282.524 -4.10272 -1.12059 0
M  V30 2880 N 280.839 0.0985539 -1.57292 0
M  V30 2881 C 282.25 0.653457 -1.74891 0
M  V30 2882 C 282.601 1.7929 -0.796838 0
M  V30 2883 O 281.726 2.16385 0.0254886 0
M  V30 2884 C 282.321 1.19216 -3.17133 0
M  V30 2885 C 280.88 1.69316 -3.36168 0
M  V30 2886 C 280.027 0.601294 -2.70702 0
M  V30 2887 H 282.978 -0.127497 -1.58187 0
M  V30 2888 H 282.999 2.06154 -3.19814 0
M  V30 2889 H 282.511 0.362635 -3.86402 0
M  V30 2890 H 280.612 2.5468 -2.71972 0
M  V30 2891 H 280.725 1.78853 -4.44464 0
M  V30 2892 H 279.089 1.0399 -2.32504 0
M  V30 2893 H 279.872 -0.217592 -3.4261 0
M  V30 2894 N 282.317 1.53212 0.369288 0
M  V30 2895 C 283.565 1.68881 1.11012 0
M  V30 2896 C 283.886 0.441285 1.89941 0
M  V30 2897 O 283.156 -0.544623 1.88177 0
M  V30 2898 H 281.736 0.622569 0.412816 0
M  V30 2899 H 284.398 1.90391 0.416802 0
M  V30 2900 H 283.494 2.54822 1.80201 0
M  V30 2901 N 283.795 -0.628877 1.44509 0
M  V30 2902 C 285.023 -1.41554 1.50897 0
M  V30 2903 C 285.438 -1.8832 0.134564 0
M  V30 2904 O 284.795 -1.60969 -0.859965 0
M  V30 2905 C 284.846 -2.63435 2.47556 0
M  V30 2906 O 284.567 -2.18619 3.79654 0
M  V30 2907 C 286.068 -3.56537 2.63431 0
M  V30 2908 H 283.288 -0.434044 0.511709 0
M  V30 2909 H 285.832 -0.768895 1.89495 0
M  V30 2910 H 283.987 -3.24187 2.12089 0
M  V30 2911 H 284.401 -2.97652 4.31861 0
M  V30 2912 H 285.875 -4.38657 3.35088 0
M  V30 2913 H 286.352 -4.05493 1.68738 0
M  V30 2914 H 286.958 -3.01653 2.9981 0
M  V30 2915 N 285.273 -1.31445 -0.869486 0
M  V30 2916 C 286.521 -1.20918 -1.61936 0
M  V30 2917 C 286.842 0.232683 -1.93607 0
M  V30 2918 O 286.112 1.15352 -1.58338 0
M  V30 2919 H 284.692 -0.44454 -0.600328 0
M  V30 2920 H 287.354 -1.64776 -1.0409 0
M  V30 2921 H 286.45 -1.78124 -2.56278 0
M  V30 2922 N 286.751 1.08385 -1.14413 0
M  V30 2923 C 287.976 1.85057 -0.936413 0
M  V30 2924 C 288.401 1.81055 0.509971 0
M  V30 2925 O 287.759 1.1958 1.36273 0
M  V30 2926 C 287.807 3.30505 -1.44217 0
M  V30 2927 O 286.911 4.07491 -0.634409 0
M  V30 2928 H 286.252 0.573425 -0.334784 0
M  V30 2929 H 288.782 1.36799 -1.52142 0
M  V30 2930 H 288.792 3.81348 -1.45043 0
M  V30 2931 H 287.467 3.32734 -2.49522 0
M  V30 2932 H 286.044 3.66368 -0.694902 0
M  V30 2933 N 288.23 0.939286 1.26551 0
M  V30 2934 C 289.16 0.465044 2.28822 0
M  V30 2935 C 290.141 -0.480692 1.63167 0
M  V30 2936 O 291.326 -0.382955 1.90387 0
M  V30 2937 C 288.456 -0.27234 3.46231 0
M  V30 2938 C 287.41 0.58666 4.2396 0
M  V30 2939 C 286.736 -0.280573 5.33963 0
M  V30 2940 C 288.036 1.85704 4.88171 0
M  V30 2941 H 289.73 1.31979 2.68741 0
M  V30 2942 H 287.276 0.636061 1.29191 0
M  V30 2943 H 289.229 -0.615133 4.16886 0
M  V30 2944 H 287.953 -1.16121 3.0526 0
M  V30 2945 H 286.612 0.91232 3.55067 0
M  V30 2946 H 286.26 -1.16874 4.89234 0
M  V30 2947 H 285.96 0.29076 5.8688 0
M  V30 2948 H 287.484 -0.618678 6.07458 0
M  V30 2949 H 288.898 1.58161 5.51052 0
M  V30 2950 H 287.295 2.37279 5.51197 0
M  V30 2951 H 288.365 2.56957 4.11219 0
M  V30 2952 N 289.708 -1.40897 0.706093 0
M  V30 2953 C 290.671 -2.29131 0.0562841 0
M  V30 2954 C 291.671 -1.44901 -0.697166 0
M  V30 2955 O 292.861 -1.65926 -0.530484 0
M  V30 2956 C 289.993 -3.27957 -0.93043 0
M  V30 2957 H 291.186 -2.88091 0.833284 0
M  V30 2958 H 288.739 -1.4906 0.470192 0
M  V30 2959 H 289.474 -2.73997 -1.73482 0
M  V30 2960 H 289.259 -3.90124 -0.393166 0
M  V30 2961 H 290.749 -3.94049 -1.38256 0
M  V30 2962 N 291.186 -0.45159 -1.50991 0
M  V30 2963 C 292.149 0.341117 -2.26647 0
M  V30 2964 C 293.149 0.937422 -1.30649 0
M  V30 2965 O 294.339 0.809644 -1.54241 0
M  V30 2966 C 291.471 1.48398 -3.06905 0
M  V30 2967 H 292.664 -0.322117 -2.98165 0
M  V30 2968 H 290.217 -0.205122 -1.54948 0
M  V30 2969 H 290.952 2.18284 -2.39838 0
M  V30 2970 H 290.737 1.06241 -3.77432 0
M  V30 2971 H 292.227 2.04367 -3.64176 0
M  V30 2972 N 292.664 1.56529 -0.183458 0
M  V30 2973 C 293.627 2.17324 0.728223 0
M  V30 2974 C 294.627 1.12453 1.14939 0
M  V30 2975 O 295.817 1.37902 1.06437 0
M  V30 2976 C 292.949 2.76591 1.99274 0
M  V30 2977 H 294.142 2.99241 0.198772 0
M  V30 2978 H 291.695 1.5616 0.0661391 0
M  V30 2979 H 292.43 1.98441 2.56499 0
M  V30 2980 H 292.215 3.5335 1.69959 0
M  V30 2981 H 293.705 3.23311 2.6431 0
M  V30 2982 N 294.142 -0.090211 1.57342 0
M  V30 2983 C 295.388 -0.793982 1.86611 0
M  V30 2984 C 295.721 -1.78142 0.773252 0
M  V30 2985 O 294.996 -1.93271 -0.218304 0
M  V30 2986 C 295.279 -1.51839 3.26523 0
M  V30 2987 C 295.132 -0.548609 4.46442 0
M  V30 2988 C 296.451 -2.46779 3.64401 0
M  V30 2989 H 293.57 -0.287186 0.678744 0
M  V30 2990 H 296.212 -0.0575076 1.89913 0
M  V30 2991 H 294.362 -2.14617 3.23839 0
M  V30 2992 H 296.034 0.0725513 4.61243 0
M  V30 2993 H 294.277 0.137614 4.33582 0
M  V30 2994 H 294.948 -1.09271 5.41076 0
M  V30 2995 H 297.424 -1.94089 3.68061 0
M  V30 2996 H 296.3 -2.94479 4.63221 0
M  V30 2997 H 296.561 -3.30758 2.93346 0
M  V30 2998 N 295.62 -1.53406 -0.361157 0
M  V30 2999 C 296.53 -1.83122 -1.4664 0
M  V30 3000 C 297.546 -0.719943 -1.58407 0
M  V30 3001 O 298.722 -1.01046 -1.74218 0
M  V30 3002 C 295.787 -2.01891 -2.81853 0
M  V30 3003 C 294.848 -3.25784 -2.79577 0
M  V30 3004 C 294.081 -3.43648 -4.0834 0
M  V30 3005 O 294.304 -2.65714 -5.0473 0
M  V30 3006 O 293.238 -4.37018 -4.13883 0
M  V30 3007 H 297.064 -2.7703 -1.24451 0
M  V30 3008 H 294.649 -1.38841 -0.551678 0
M  V30 3009 H 296.531 -2.15782 -3.61962 0
M  V30 3010 H 295.206 -1.11173 -3.0401 0
M  V30 3011 H 294.113 -3.17312 -1.98151 0
M  V30 3012 H 295.446 -4.16439 -2.62373 0
M  V30 3013 N 297.098 0.621204 -1.44841 0
M  V30 3014 C 298.326 1.40752 -1.51646 0
M  V30 3015 C 298.741 1.88246 -0.144549 0
M  V30 3016 O 298.098 1.61422 0.851416 0
M  V30 3017 C 298.149 2.62119 -2.4895 0
M  V30 3018 O 297.87 2.16602 -3.80808 0
M  V30 3019 C 299.371 3.55135 -2.65319 0
M  V30 3020 H 296.591 0.431325 -0.514004 0
M  V30 3021 H 299.135 0.758835 -1.899 0
M  V30 3022 H 297.29 3.23058 -2.13805 0
M  V30 3023 H 297.704 2.95358 -4.33433 0
M  V30 3024 H 299.178 4.36874 -3.37409 0
M  V30 3025 H 299.655 4.04592 -1.70886 0
M  V30 3026 H 300.261 3.00058 -3.01405 0
M  V30 3027 N 298.576 1.31904 0.862503 0
M  V30 3028 C 299.539 1.20131 1.95195 0
M  V30 3029 C 300.539 0.126409 1.60302 0
M  V30 3030 O 301.729 0.376234 1.70089 0
M  V30 3031 C 298.861 0.845691 3.30244 0
M  V30 3032 H 300.054 2.16943 2.07064 0
M  V30 3033 H 297.607 1.15622 1.05172 0
M  V30 3034 H 298.342 -0.120957 3.24074 0
M  V30 3035 H 298.127 1.62276 3.56944 0
M  V30 3036 H 299.617 0.787418 4.10109 0
M  V30 3037 N 300.054 -1.07777 1.14986 0
M  V30 3038 C 301.279 -1.84558 0.946213 0
M  V30 3039 C 301.704 -1.81323 -0.500362 0
M  V30 3040 O 301.062 -1.20301 -1.35637 0
M  V30 3041 C 301.11 -3.29736 1.45968 0
M  V30 3042 O 300.214 -4.07149 0.65601 0
M  V30 3043 H 299.555 -0.571641 0.33782 0
M  V30 3044 H 302.085 -1.35991 1.52865 0
M  V30 3045 H 302.095 -3.80574 1.47063 0
M  V30 3046 H 300.77 -3.31406 2.51283 0
M  V30 3047 H 299.347 -3.65994 0.714322 0
M  V30 3048 N 301.532 -0.945985 -1.26051 0
M  V30 3049 C 302.78 -0.594941 -1.93145 0
M  V30 3050 C 303.101 0.86953 -1.7454 0
M  V30 3051 O 302.371 1.61838 -1.10387 0
M  V30 3052 H 300.951 -0.217044 -0.714773 0
M  V30 3053 H 303.613 -1.20235 -1.53393 0
M  V30 3054 H 302.709 -0.816835 -3.01221 0
M  V30 3055 N 303.011 1.40521 -0.713556 0
M  V30 3056 C 304.427 1.54839 -0.386907 0
M  V30 3057 C 304.627 1.68532 1.1045 0
M  V30 3058 O 303.683 1.67377 1.89053 0
M  V30 3059 C 304.996 2.77792 -1.15118 0
M  V30 3060 C 306.544 2.91607 -1.13729 0
M  V30 3061 C 307.019 4.1747 -1.88368 0
M  V30 3062 N 308.51 4.24466 -1.85427 0
M  V30 3063 C 309.245 5.20755 -2.40004 0
M  V30 3064 N 308.741 6.22965 -3.03129 0
M  V30 3065 N 310.534 5.1282 -2.30158 0
M  V30 3066 H 302.685 1.29879 -1.68063 0
M  V30 3067 H 304.948 0.627896 -0.710247 0
M  V30 3068 H 304.654 2.73944 -2.20561 0
M  V30 3069 H 304.528 3.6984 -0.741477 0
M  V30 3070 H 306.915 2.94959 -0.0910608 0
M  V30 3071 H 306.996 2.00682 -1.5862 0
M  V30 3072 H 306.64 4.1488 -2.9298 0
M  V30 3073 H 306.57 5.074 -1.40898 0
M  V30 3074 H 309.061 3.51241 -1.3942 0
M  V30 3075 H 309.374 6.92859 -3.42295 0
M  V30 3076 H 307.719 6.23415 -3.07212 0
M  V30 3077 H 310.91 4.31899 -1.80501 0
M  V30 3078 H 311.083 5.87689 -2.72993 0
M  V30 3079 N 304.489 0.459591 1.5075 0
M  V30 3080 C 305.421 -0.37665 2.26084 0
M  V30 3081 C 306.434 -0.967109 1.30961 0
M  V30 3082 O 307.623 -0.857468 1.56556 0
M  V30 3083 C 304.723 -1.54112 3.01832 0
M  V30 3084 C 303.896 -1.06553 4.24223 0
M  V30 3085 C 302.955 -2.1027 4.82362 0
M  V30 3086 O 301.981 -1.68798 5.43595 0
M  V30 3087 N 303.183 -3.42974 4.68347 0
M  V30 3088 H 305.948 0.269124 2.98489 0
M  V30 3089 H 303.509 0.28972 1.59287 0
M  V30 3090 H 305.501 -2.23165 3.37608 0
M  V30 3091 H 304.071 -2.0918 2.32298 0
M  V30 3092 H 303.291 -0.201274 3.93686 0
M  V30 3093 H 304.579 -0.725516 5.03601 0
M  V30 3094 H 303.977 -3.79385 4.19623 0
M  V30 3095 H 302.534 -4.07858 5.08424 0
M  V30 3096 N 305.967 -1.56429 0.191757 0
M  V30 3097 C 306.93 -2.17707 -0.716688 0
M  V30 3098 C 307.93 -1.13061 -1.14341 0
M  V30 3099 O 309.12 -1.38464 -1.05704 0
M  V30 3100 C 306.252 -2.77644 -1.97804 0
M  V30 3101 H 307.445 -2.99342 -0.1829 0
M  V30 3102 H 304.998 -1.56193 -0.0578566 0
M  V30 3103 H 305.733 -1.99799 -2.55443 0
M  V30 3104 H 305.518 -3.54246 -1.68083 0
M  V30 3105 H 307.008 -3.24708 -2.62592 0
M  V30 3106 N 307.445 0.0818655 -1.57387 0
M  V30 3107 C 308.375 1.09885 -2.06028 0
M  V30 3108 C 309.356 1.4098 -0.951774 0
M  V30 3109 O 310.541 1.50781 -1.22387 0
M  V30 3110 C 307.671 2.4151 -2.4958 0
M  V30 3111 C 306.625 2.24792 -3.64215 0
M  V30 3112 C 305.951 3.61712 -3.93787 0
M  V30 3113 C 307.251 1.67749 -4.94629 0
M  V30 3114 H 308.945 0.694128 -2.91243 0
M  V30 3115 H 306.491 0.332448 -1.4011 0
M  V30 3116 H 308.444 3.12939 -2.82219 0
M  V30 3117 H 307.168 2.83943 -1.61381 0
M  V30 3118 H 305.827 1.55807 -3.31843 0
M  V30 3119 H 305.475 4.01697 -3.02735 0
M  V30 3120 H 305.175 3.51368 -4.70971 0
M  V30 3121 H 306.699 4.34587 -4.28913 0
M  V30 3122 H 308.113 2.29032 -5.25564 0
M  V30 3123 H 306.51 1.68128 -5.76067 0
M  V30 3124 H 307.58 0.638059 -4.80684 0
M  V30 3125 N 308.923 1.53595 0.353017 0
M  V30 3126 C 310.169 1.70638 1.09593 0
M  V30 3127 C 310.502 0.463286 1.88593 0
M  V30 3128 O 309.777 -0.539597 1.86865 0
M  V30 3129 C 310.06 2.96406 2.04489 0
M  V30 3130 C 309.913 4.30901 1.29014 0
M  V30 3131 C 311.232 3.17812 3.0444 0
M  V30 3132 H 308.351 0.620913 0.397034 0
M  V30 3133 H 310.993 1.86254 0.375446 0
M  V30 3134 H 309.143 2.83223 2.65927 0
M  V30 3135 H 310.815 4.55917 0.702638 0
M  V30 3136 H 309.058 4.29741 0.592071 0
M  V30 3137 H 309.729 5.1506 1.98537 0
M  V30 3138 H 312.205 3.30263 2.53112 0
M  V30 3139 H 311.081 4.07223 3.6805 0
M  V30 3140 H 311.342 2.33669 3.75301 0
M  V30 3141 N 310.401 -0.613514 1.45168 0
M  V30 3142 C 311.647 -1.37471 1.49096 0
M  V30 3143 C 311.98 -1.93765 0.129901 0
M  V30 3144 O 311.255 -1.74707 -0.854858 0
M  V30 3145 C 311.538 -2.52701 2.56542 0
M  V30 3146 C 311.391 -2.01643 4.0207 0
M  V30 3147 C 312.71 -3.54849 2.60327 0
M  V30 3148 H 309.829 -0.498502 0.54283 0
M  V30 3149 H 312.471 -0.692125 1.76945 0
M  V30 3150 H 310.621 -3.10931 2.32926 0
M  V30 3151 H 312.293 -1.48108 4.36877 0
M  V30 3152 H 310.536 -1.32688 4.13009 0
M  V30 3153 H 311.207 -2.84681 4.72928 0
M  V30 3154 H 313.683 -3.0645 2.81474 0
M  V30 3155 H 312.559 -4.32973 3.37381 0
M  V30 3156 H 312.82 -4.10079 1.6519 0
M  V30 3157 N 311.879 -1.3236 -0.855495 0
M  V30 3158 C 313.127 -1.22629 -1.60644 0
M  V30 3159 C 313.448 0.212136 -1.93843 0
M  V30 3160 O 312.718 1.13666 -1.59552 0
M  V30 3161 H 311.298 -0.450882 -0.595579 0
M  V30 3162 H 313.96 -1.65871 -1.02337 0
M  V30 3163 H 313.056 -1.80832 -2.54374 0
M  V30 3164 N 313.357 1.07166 -1.15556 0
M  V30 3165 C 314.304 2.14417 -0.854055 0
M  V30 3166 C 315.274 1.64965 0.193806 0
M  V30 3167 O 316.459 1.90703 0.0609443 0
M  V30 3168 C 313.599 3.43304 -0.351574 0
M  V30 3169 C 312.712 4.06537 -1.46123 0
M  V30 3170 C 311.847 5.23266 -0.914677 0
M  V30 3171 C 310.886 5.78464 -2.00114 0
M  V30 3172 N 310.023 6.86521 -1.47083 0
M  V30 3173 H 314.863 2.39548 -1.77259 0
M  V30 3174 H 312.4 1.17543 -0.884425 0
M  V30 3175 H 314.358 4.17179 -0.0419409 0
M  V30 3176 H 312.988 3.18419 0.530037 0
M  V30 3177 H 312.04 3.30297 -1.88701 0
M  V30 3178 H 313.352 4.43567 -2.28144 0
M  V30 3179 H 312.506 6.04131 -0.557698 0
M  V30 3180 H 311.245 4.87658 -0.0636583 0
M  V30 3181 H 310.25 4.96243 -2.36692 0
M  V30 3182 H 311.475 6.16126 -2.85597 0
M  V30 3183 H 309.421 6.52849 -0.642198 0
M  V30 3184 H 309.338 7.22446 -2.22729 0
M  V30 3185 H 310.606 7.71087 -1.14215 0
M  V30 3186 N 314.835 0.952656 1.25548 0
M  V30 3187 C 316.246 0.647392 1.75116 0
M  V30 3188 C 316.597 -0.837274 1.77438 0
M  V30 3189 O 315.722 -1.65525 1.39393 0
M  V30 3190 C 316.317 1.16845 3.18014 0
M  V30 3191 C 314.876 0.913382 3.6515 0
M  V30 3192 C 314.023 1.31265 2.44264 0
M  V30 3193 H 316.974 1.12968 1.11462 0
M  V30 3194 H 316.995 0.527606 3.76824 0
M  V30 3195 H 316.507 2.24902 3.16292 0
M  V30 3196 H 314.608 -0.152316 3.72289 0
M  V30 3197 H 314.721 1.54845 4.53387 0
M  V30 3198 H 313.085 0.731028 2.43984 0
M  V30 3199 H 313.868 2.40239 2.45234 0
M  V30 3200 N 316.313 -1.40141 0.720998 0
M  V30 3201 C 317.538 -2.05618 0.271258 0
M  V30 3202 C 317.963 -1.53978 -1.08039 0
M  V30 3203 O 317.321 -0.677463 -1.68167 0
M  V30 3204 C 317.369 -3.59609 0.267197 0
M  V30 3205 O 316.473 -4.05526 -0.749814 0
M  V30 3206 H 315.814 -0.651904 0.126162 0
M  V30 3207 H 318.344 -1.79439 0.982997 0
M  V30 3208 H 318.354 -4.0786 0.106744 0
M  V30 3209 H 317.029 -3.96559 1.25354 0
M  V30 3210 H 315.606 -3.68722 -0.556644 0
M  V30 3211 N 317.792 -0.46758 -1.50504 0
M  V30 3212 C 319.203 -0.0116166 -1.86696 0
M  V30 3213 C 319.554 1.39202 -1.38265 0
M  V30 3214 O 318.679 2.0313 -0.746132 0
M  V30 3215 C 319.274 -0.0143044 -3.38797 0
M  V30 3216 C 317.833 0.386175 -3.74414 0
M  V30 3217 C 316.98 -0.401287 -2.74381 0
M  V30 3218 H 319.931 -0.682022 -1.43297 0
M  V30 3219 H 319.952 0.788641 -3.72237 0
M  V30 3220 H 319.464 -1.03602 -3.74016 0
M  V30 3221 H 317.565 1.41237 -3.44794 0
M  V30 3222 H 317.678 0.0899596 -4.79016 0
M  V30 3223 H 316.042 0.144536 -2.5429 0
M  V30 3224 H 316.825 -1.42244 -3.12444 0
M  V30 3225 N 319.27 1.56325 -0.20005 0
M  V30 3226 C 320.5 2.01811 0.442232 0
M  V30 3227 C 320.908 1.07932 1.55394 0
M  V30 3228 O 320.251 0.0772685 1.83537 0
M  V30 3229 C 320.313 3.43685 1.05457 0
M  V30 3230 C 319.977 4.56928 0.0809833 0
M  V30 3231 C 320.974 5.15009 -0.711471 0
M  V30 3232 C 318.659 5.0229 -0.0315364 0
M  V30 3233 C 320.653 6.16904 -1.60336 0
M  V30 3234 C 318.34 6.04028 -0.926981 0
M  V30 3235 C 319.338 6.6121 -1.71146 0
M  V30 3236 O 319.026 7.60971 -2.59189 0
M  V30 3237 H 318.758 0.666173 0.114848 0
M  V30 3238 H 321.312 2.03085 -0.307511 0
M  V30 3239 H 319.542 3.39413 1.85299 0
M  V30 3240 H 321.231 3.72948 1.60201 0
M  V30 3241 H 321.997 4.80827 -0.634873 0
M  V30 3242 H 317.876 4.57476 0.568902 0
M  V30 3243 H 321.42 6.61464 -2.21611 0
M  V30 3244 H 317.317 6.37634 -1.00468 0
M  V30 3245 H 318.085 7.7841 -2.53023 0
M  V30 3246 N 320.748 -0.0735177 1.57428 0
M  V30 3247 C 321.681 -1.11932 1.98863 0
M  V30 3248 C 322.659 -1.37666 0.865266 0
M  V30 3249 O 323.843 -1.51068 1.12742 0
M  V30 3250 C 320.97 -2.46403 2.32386 0
M  V30 3251 C 320.016 -2.36815 3.54713 0
M  V30 3252 S 320.849 -1.76392 5.05614 0
M  V30 3253 C 322.005 -3.12444 5.42337 0
M  V30 3254 H 322.238 -0.766212 2.87257 0
M  V30 3255 H 319.771 -0.281987 1.51803 0
M  V30 3256 H 321.729 -3.23755 2.52375 0
M  V30 3257 H 320.39 -2.78876 1.44524 0
M  V30 3258 H 319.583 -3.35977 3.7568 0
M  V30 3259 H 319.185 -1.67598 3.34345 0
M  V30 3260 H 321.477 -4.08753 5.40303 0
M  V30 3261 H 322.42 -2.96258 6.43146 0
M  V30 3262 H 322.828 -3.1297 4.69798 0
M  V30 3263 N 322.226 -1.5378 -0.344866 0
M  V30 3264 C 323.473 -1.70963 -1.08526 0
M  V30 3265 C 323.801 -0.472126 -1.88683 0
M  V30 3266 O 323.056 0.546116 -1.87926 0
M  V30 3267 C 323.355 -2.92407 -2.05506 0
M  V30 3268 C 323.021 -4.28066 -1.41671 0
M  V30 3269 C 321.683 -4.64951 -1.2399 0
M  V30 3270 C 324.035 -5.12344 -0.956726 0
M  V30 3271 C 321.363 -5.83733 -0.589277 0
M  V30 3272 C 323.715 -6.3179 -0.320015 0
M  V30 3273 C 322.379 -6.67372 -0.130881 0
M  V30 3274 H 321.649 -0.625598 -0.397124 0
M  V30 3275 H 324.296 -1.87995 -0.36469 0
M  V30 3276 H 322.601 -2.69973 -2.8394 0
M  V30 3277 H 324.298 -3.02895 -2.62784 0
M  V30 3278 H 320.888 -3.99034 -1.56429 0
M  V30 3279 H 325.072 -4.8438 -1.08118 0
M  V30 3280 H 320.328 -6.09877 -0.431344 0
M  V30 3281 H 324.502 -6.96386 0.0445072 0
M  V30 3282 H 322.129 -7.59273 0.375318 0
M  V30 3283 N 323.704 0.605807 -1.45491 0
M  V30 3284 C 324.614 1.74466 -1.56839 0
M  V30 3285 C 325.63 1.68006 -0.452772 0
M  V30 3286 O 326.806 1.8833 -0.713708 0
M  V30 3287 C 323.871 3.10931 -1.53371 0
M  V30 3288 C 322.932 3.28832 -2.75986 0
M  V30 3289 C 322.165 4.58787 -2.72673 0
M  V30 3290 O 322.388 5.4122 -1.80102 0
M  V30 3291 O 321.322 4.79438 -3.63899 0
M  V30 3292 H 325.148 1.67843 -2.53106 0
M  V30 3293 H 322.733 0.770108 -1.28022 0
M  V30 3294 H 324.615 3.92233 -1.54051 0
M  V30 3295 H 323.29 3.18042 -0.602572 0
M  V30 3296 H 322.197 2.47112 -2.80867 0
M  V30 3297 H 323.53 3.26599 -3.68231 0
M  V30 3298 N 325.182 1.32811 0.848464 0
M  V30 3299 C 326.422 1.25046 1.61687 0
M  V30 3300 C 326.786 -0.183464 1.91121 0
M  V30 3301 O 327.987 -0.384937 2.66029 0
M  V30 3302 C 326.258 2.09201 2.89775 0
M  V30 3303 S 327.817 2.18526 3.80515 0
M  V30 3304 H 324.635 0.445023 0.554505 0
M  V30 3305 H 327.237 1.67733 1.00429 0
M  V30 3306 H 325.941 3.12433 2.66108 0
M  V30 3307 H 325.472 1.67315 3.56047 0
M  V30 3308 H 327.487 1.3393 4.77784 0
M  V30 3309 N 326.66 -1.06551 1.16123 0
M  V30 3310 C 327.909 -1.78687 0.935622 0
M  V30 3311 C 328.222 -1.88056 -0.538001 0
M  V30 3312 O 329.428 -2.56794 -0.88143 0
M  V30 3313 C 327.884 -3.21143 1.62466 0
M  V30 3314 C 327.492 -3.19949 3.13587 0
M  V30 3315 C 329.236 -3.9783 1.48092 0
M  V30 3316 C 327.143 -4.57108 3.75241 0
M  V30 3317 H 326.073 -0.669712 0.346412 0
M  V30 3318 H 328.724 -1.19534 1.39226 0
M  V30 3319 H 327.106 -3.80539 1.09572 0
M  V30 3320 H 328.28 -2.70151 3.73303 0
M  V30 3321 H 326.595 -2.5676 3.27816 0
M  V30 3322 H 329.192 -4.99217 1.91538 0
M  V30 3323 H 329.535 -4.14078 0.429507 0
M  V30 3324 H 330.068 -3.4495 1.98127 0
M  V30 3325 H 326.807 -4.46065 4.80319 0
M  V30 3326 H 326.327 -5.07111 3.20309 0
M  V30 3327 H 328.006 -5.26069 3.76644 0
M  V30 3328 N 328.138 -0.959301 -1.25041 0
M  V30 3329 C 329.366 -0.633949 -1.96948 0
M  V30 3330 C 329.781 0.794916 -1.7125 0
M  V30 3331 O 329.138 1.53231 -0.991287 0
M  V30 3332 C 329.189 -0.888805 -3.50403 0
M  V30 3333 O 328.91 -2.26149 -3.75218 0
M  V30 3334 C 330.411 -0.576482 -4.39536 0
M  V30 3335 H 327.631 -0.237263 -0.627652 0
M  V30 3336 H 330.175 -1.28495 -1.59089 0
M  V30 3337 H 328.33 -0.284145 -3.86357 0
M  V30 3338 H 328.744 -2.33514 -4.6965 0
M  V30 3339 H 330.218 -0.805314 -5.46094 0
M  V30 3340 H 330.695 0.489075 -4.36468 0
M  V30 3341 H 331.301 -1.16067 -4.09156 0
M  V30 3342 N 329.616 1.39756 -0.72842 0
M  V30 3343 C 330.526 2.34444 -0.0855374 0
M  V30 3344 C 331.542 1.57976 0.729356 0
M  V30 3345 O 332.718 1.90301 0.659346 0
M  V30 3346 C 329.783 3.36965 0.815798 0
M  V30 3347 C 328.844 4.29299 -0.0105996 0
M  V30 3348 C 328.077 5.26923 0.84781 0
M  V30 3349 O 328.3 5.30859 2.08673 0
M  V30 3350 O 327.234 6.01249 0.279969 0
M  V30 3351 H 331.06 2.91065 -0.866892 0
M  V30 3352 H 328.645 1.4117 -0.48902 0
M  V30 3353 H 330.527 3.99804 1.33171 0
M  V30 3354 H 329.202 2.82739 1.57608 0
M  V30 3355 H 328.109 3.69703 -0.571877 0
M  V30 3356 H 329.442 4.86712 -0.73295 0
M  V30 3357 N 331.094 0.475555 1.50254 0
M  V30 3358 C 332.042 -0.330276 2.30243 0
M  V30 3359 C 333.036 -0.986306 1.37726 0
M  V30 3360 O 334.242 -0.9169 1.54897 0
M  V30 3361 H 330.617 -0.125353 0.741479 0
M  V30 3362 H 332.588 0.364702 2.96163 0
M  V30 3363 C 331.337 -1.39704 3.18399 0
M  V30 3364 H 330.66 -0.901621 3.89501 0
M  V30 3365 H 332.1 -1.93336 3.77355 0
M  V30 3366 C 330.559 -2.4014 2.36293 0
M  V30 3367 O 331.089 -3.45504 2.04914 0
M  V30 3368 N 329.295 -2.1197 1.98789 0
M  V30 3369 H 328.842 -1.2631 2.24507 0
M  V30 3370 H 328.8 -2.79403 1.44157 0
M  V30 3371 N 332.573 -1.56217 0.208337 0
M  V30 3372 C 333.82 -1.97949 -0.42692 0
M  V30 3373 C 334.148 -1.09562 -1.60706 0
M  V30 3374 O 333.403 -0.137616 -1.95216 0
M  V30 3375 C 333.702 -3.45441 -0.916797 0
M  V30 3376 C 333.368 -4.50646 0.151391 0
M  V30 3377 C 332.03 -4.79139 0.444867 0
M  V30 3378 C 334.382 -5.13811 0.874492 0
M  V30 3379 C 331.71 -5.68084 1.46619 0
M  V30 3380 C 334.062 -6.03861 1.88506 0
M  V30 3381 C 332.726 -6.30704 2.18559 0
M  V30 3382 H 331.996 -0.724345 -0.156221 0
M  V30 3383 H 334.643 -1.89006 0.308084 0
M  V30 3384 H 332.948 -3.51521 -1.73032 0
M  V30 3385 H 334.645 -3.75094 -1.41794 0
M  V30 3386 H 331.235 -4.28511 -0.0875068 0
M  V30 3387 H 335.419 -4.91879 0.660996 0
M  V30 3388 H 330.675 -5.87151 1.7048 0
M  V30 3389 H 334.849 -6.51861 2.45051 0
M  V30 3390 H 332.476 -6.99424 2.97843 0
M  V30 3391 N 334.051 0.0651679 -1.57465 0
M  V30 3392 C 335.276 0.779605 -1.9219 0
M  V30 3393 C 335.701 1.69988 -0.805333 0
M  V30 3394 O 335.059 1.79685 0.241435 0
M  V30 3395 C 335.107 1.54364 -3.2589 0
M  V30 3396 O 334.211 2.65474 -3.1559 0
M  V30 3397 H 333.552 0.212249 -0.629163 0
M  V30 3398 H 336.082 0.0314294 -2.04576 0
M  V30 3399 H 336.092 1.92146 -3.59922 0
M  V30 3400 H 334.767 0.868457 -4.06732 0
M  V30 3401 H 333.344 2.30501 -2.93128 0
M  V30 3402 N 335.529 1.53961 0.336706 0
M  V30 3403 C 336.778 1.70751 1.07363 0
M  V30 3404 C 337.091 0.481061 1.89592 0
M  V30 3405 O 338.297 0.530046 2.66276 0
M  V30 3406 C 336.753 3.01965 1.95818 0
M  V30 3407 C 336.361 4.31971 1.18764 0
M  V30 3408 C 338.105 3.28121 2.69327 0
M  V30 3409 C 336.012 5.54255 2.06289 0
M  V30 3410 H 334.942 0.636292 0.404535 0
M  V30 3411 H 337.593 1.80459 0.332681 0
M  V30 3412 H 335.975 2.86132 2.7376 0
M  V30 3413 H 337.149 4.5853 0.456849 0
M  V30 3414 H 335.464 4.12481 0.569946 0
M  V30 3415 H 338.061 4.16673 3.35094 0
M  V30 3416 H 338.404 2.45426 3.36261 0
M  V30 3417 H 338.937 3.44762 1.98454 0
M  V30 3418 H 335.676 6.39513 1.43885 0
M  V30 3419 H 335.196 5.31935 2.77138 0
M  V30 3420 H 336.875 5.90159 2.65182 0
M  V30 3421 N 337.007 -0.598083 1.45811 0
M  V30 3422 C 338.284 -1.35777 1.40797 0
M  V30 3423 C 338.664 -2.10935 0.083462 0
M  V30 3424 O 338.012 -2.08505 -0.934763 0
M  V30 3425 C 338.222 -2.29666 2.62783 0
M  V30 3426 C 339.57 -2.91977 3.08277 0
M  V30 3427 O 340.594 -2.39984 2.63223 0
M  V30 3428 O 339.453 -3.86376 3.86491 0
M  V30 3429 H 336.547 -0.609291 0.55919 0
M  V30 3430 H 339.093 -0.620379 1.57954 0
M  V30 3431 H 337.865 -1.73454 3.50756 0
M  V30 3432 H 337.488 -3.1077 2.48008 0
M  V30 3433 N 338.485 -1.33259 -0.841409 0
M  V30 3434 C 339.896 -1.22066 -1.41269 0
M  V30 3435 C 340.247 0.161479 -1.95534 0
M  V30 3436 O 339.372 1.06094 -1.88608 0
M  V30 3437 C 339.967 -2.20996 -2.568 0
M  V30 3438 C 338.526 -2.13649 -3.09888 0
M  V30 3439 C 337.673 -2.08623 -1.82679 0
M  V30 3440 H 340.624 -1.44895 -0.647395 0
M  V30 3441 H 340.645 -1.81621 -3.34356 0
M  V30 3442 H 340.157 -3.2158 -2.17274 0
M  V30 3443 H 338.258 -1.16359 -3.53965 0
M  V30 3444 H 338.371 -3.04079 -3.70234 0
M  V30 3445 H 336.735 -1.54061 -2.02824 0
M  V30 3446 H 337.518 -3.1101 -1.45353 0
M  V30 3447 N 339.963 1.05934 -1.16686 0
M  V30 3448 C 340.926 2.11669 -0.879144 0
M  V30 3449 C 341.926 1.60294 0.127445 0
M  V30 3450 O 343.116 1.7389 -0.103865 0
M  V30 3451 C 340.248 3.39438 -0.315425 0
M  V30 3452 H 341.441 2.38626 -1.81653 0
M  V30 3453 H 338.994 1.22058 -0.976299 0
M  V30 3454 H 339.729 3.18132 0.629468 0
M  V30 3455 H 339.514 3.78034 -1.04079 0
M  V30 3456 H 341.004 4.17391 -0.132189 0
M  V30 3457 N 341.441 0.965919 1.2453 0
M  V30 3458 C 342.857 0.67216 1.44756 0
M  V30 3459 C 343.057 -0.766609 1.86347 0
M  V30 3460 O 342.113 -1.5407 2.00047 0
M  V30 3461 C 343.426 1.65473 2.51076 0
M  V30 3462 C 344.974 1.66716 2.64905 0
M  V30 3463 C 345.449 2.63766 3.74421 0
M  V30 3464 N 346.94 2.62198 3.81846 0
M  V30 3465 C 347.675 3.33966 4.66106 0
M  V30 3466 N 347.171 4.15245 5.54566 0
M  V30 3467 N 348.964 3.22799 4.60171 0
M  V30 3468 H 341.115 1.89553 0.958293 0
M  V30 3469 H 343.378 0.815979 0.482579 0
M  V30 3470 H 343.084 2.68296 2.27399 0
M  V30 3471 H 342.958 1.4261 3.49202 0
M  V30 3472 H 345.345 0.646057 2.87941 0
M  V30 3473 H 345.426 1.93642 1.67142 0
M  V30 3474 H 345.07 3.6601 3.52135 0
M  V30 3475 H 345 2.34121 4.71694 0
M  V30 3476 H 347.491 2.032 3.18619 0
M  V30 3477 H 347.804 4.66898 6.15814 0
M  V30 3478 H 346.149 4.1934 5.54237 0
M  V30 3479 H 349.34 2.58764 3.90075 0
M  V30 3480 H 349.513 3.78994 5.25612 0
M  V30 3481 N 342.919 -1.39368 0.735821 0
M  V30 3482 C 344.147 -2.04795 0.294393 0
M  V30 3483 C 344.562 -1.55478 -1.07107 0
M  V30 3484 O 343.919 -0.720038 -1.67695 0
M  V30 3485 C 343.97 -3.6035 0.288071 0
M  V30 3486 O 343.691 -4.07852 1.59963 0
M  V30 3487 C 345.192 -4.42976 -0.169422 0
M  V30 3488 H 342.412 -0.658571 0.128551 0
M  V30 3489 H 344.956 -1.78399 0.999701 0
M  V30 3490 H 343.111 -3.85645 -0.368355 0
M  V30 3491 H 343.525 -5.02181 1.51375 0
M  V30 3492 H 344.999 -5.51864 -0.122687 0
M  V30 3493 H 345.476 -4.22068 -1.21472 0
M  V30 3494 H 346.082 -4.22832 0.457469 0
M  V30 3495 N 344.397 -0.483516 -1.5 0
M  V30 3496 C 345.327 0.293829 -2.31644 0
M  V30 3497 C 346.308 0.978864 -1.39112 0
M  V30 3498 O 347.493 0.973644 -1.68029 0
M  V30 3499 C 344.623 1.36897 -3.19181 0
M  V30 3500 C 343.577 0.804833 -4.20365 0
M  V30 3501 C 342.903 1.9792 -4.96721 0
M  V30 3502 C 344.203 -0.192313 -5.21946 0
M  V30 3503 H 345.897 -0.387616 -2.9688 0
M  V30 3504 H 343.443 -0.187856 -1.42769 0
M  V30 3505 H 345.396 1.92037 -3.751 0
M  V30 3506 H 344.12 2.07936 -2.51853 0
M  V30 3507 H 342.779 0.275319 -3.65565 0
M  V30 3508 H 342.427 2.67686 -4.25856 0
M  V30 3509 H 342.127 1.60789 -5.65173 0
M  V30 3510 H 343.651 2.53526 -5.55479 0
M  V30 3511 H 345.065 0.270333 -5.72662 0
M  V30 3512 H 343.462 -0.478543 -5.98189 0
M  V30 3513 H 344.532 -1.11409 -4.71928 0
M  V30 3514 N 345.875 1.56104 -0.216619 0
M  V30 3515 C 346.808 2.16026 0.735395 0
M  V30 3516 C 347.786 1.1032 1.1945 0
M  V30 3517 O 348.97 1.38549 1.27814 0
M  V30 3518 C 346.097 2.73656 1.99575 0
M  V30 3519 C 345.143 3.92146 1.67702 0
M  V30 3520 S 345.976 5.29397 0.806145 0
M  V30 3521 C 347.132 5.90463 2.07617 0
M  V30 3522 H 347.365 2.96439 0.226072 0
M  V30 3523 H 344.898 1.544 -0.00136639 0
M  V30 3524 H 346.856 3.075 2.71945 0
M  V30 3525 H 345.517 1.93245 2.47619 0
M  V30 3526 H 344.71 4.30954 2.61332 0
M  V30 3527 H 344.312 3.59423 1.03398 0
M  V30 3528 H 346.604 6.06136 3.02664 0
M  V30 3529 H 347.547 6.86589 1.73207 0
M  V30 3530 H 347.955 5.19252 2.21445 0
M  V30 3531 N 347.353 -0.0568162 1.57498 0
M  V30 3532 C 348.599 -0.75422 1.88253 0
M  V30 3533 C 348.932 -1.76461 0.810865 0
M  V30 3534 O 348.207 -1.93691 -0.177259 0
M  V30 3535 C 348.49 -1.44878 3.2967 0
M  V30 3536 C 348.343 -0.453789 4.47505 0
M  V30 3537 C 349.662 -2.38994 3.69554 0
M  V30 3538 H 346.781 -0.272724 0.684683 0
M  V30 3539 H 349.423 -0.0172113 1.89992 0
M  V30 3540 H 347.573 -2.077 3.28318 0
M  V30 3541 H 349.245 0.170371 4.60985 0
M  V30 3542 H 347.488 0.229552 4.33192 0
M  V30 3543 H 348.159 -0.977699 5.43273 0
M  V30 3544 H 350.635 -1.86239 3.72095 0
M  V30 3545 H 349.511 -2.84587 4.69363 0
M  V30 3546 H 349.772 -3.24461 3.00296 0
M  V30 3547 N 348.832 -1.54138 -0.328536 0
M  V30 3548 C 350.08 -1.71765 -1.06496 0
M  V30 3549 C 350.401 -0.49149 -1.88704 0
M  V30 3550 O 349.671 0.494539 -1.89555 0
M  V30 3551 H 348.251 -0.633295 -0.396164 0
M  V30 3552 H 350.913 -1.91429 -0.366176 0
M  V30 3553 H 350.009 -2.5951 -1.73381 0
M  V30 3554 N 350.31 0.590341 -1.46126 0
M  V30 3555 C 351.587 1.35029 -1.41515 0
M  V30 3556 C 351.967 2.10888 -0.0946472 0
M  V30 3557 O 351.315 2.08998 0.923693 0
M  V30 3558 C 351.525 2.28269 -2.63997 0
M  V30 3559 C 352.873 2.90338 -3.09821 0
M  V30 3560 O 353.897 2.38585 -2.64492 0
M  V30 3561 O 352.756 3.84321 -3.88535 0
M  V30 3562 H 349.85 0.606317 -0.562413 0
M  V30 3563 H 352.396 0.611994 -1.58281 0
M  V30 3564 H 351.168 1.71591 -3.51671 0
M  V30 3565 H 350.791 3.0945 -2.49652 0
M  V30 3566 N 351.788 1.33704 0.83433 0
M  V30 3567 C 353.204 1.13137 1.12571 0
M  V30 3568 C 353.404 -0.0747261 2.01361 0
M  V30 3569 O 352.46 -0.753647 2.4099 0
M  V30 3570 C 353.773 2.42105 1.78342 0
M  V30 3571 C 355.321 2.48054 1.90888 0
M  V30 3572 C 355.796 3.76995 2.60075 0
M  V30 3573 N 357.287 3.78092 2.67584 0
M  V30 3574 C 358.022 4.74574 3.21818 0
M  V30 3575 N 357.518 5.81434 3.76705 0
M  V30 3576 N 359.311 4.62044 3.20112 0
M  V30 3577 H 351.462 2.11 0.243489 0
M  V30 3578 H 353.725 0.932532 0.17055 0
M  V30 3579 H 353.431 3.30391 1.20561 0
M  V30 3580 H 353.305 2.54594 2.7832 0
M  V30 3581 H 355.692 1.60215 2.47821 0
M  V30 3582 H 355.773 2.39502 0.898459 0
M  V30 3583 H 355.417 4.65219 2.03799 0
M  V30 3584 H 355.347 3.82825 3.61597 0
M  V30 3585 H 357.838 3.00865 2.28667 0
M  V30 3586 H 358.151 6.51084 4.16305 0
M  V30 3587 H 356.496 5.85163 3.7498 0
M  V30 3588 H 359.687 3.77716 2.76493 0
M  V30 3589 H 359.86 5.37406 3.62076 0
M  V30 3590 N 353.266 -1.05314 1.17247 0
M  V30 3591 C 354.196 -2.1498 0.911362 0
M  V30 3592 C 355.177 -1.69471 -0.146169 0
M  V30 3593 O 356.362 -1.942 0.003812 0
M  V30 3594 C 353.492 -3.4472 0.422528 0
M  V30 3595 C 352.446 -4.03789 1.4191 0
M  V30 3596 C 351.772 -5.28858 0.788274 0
M  V30 3597 C 353.072 -4.41418 2.7919 0
M  V30 3598 H 354.766 -2.3708 1.82848 0
M  V30 3599 H 352.312 -1.13938 0.880569 0
M  V30 3600 H 354.265 -4.20787 0.227289 0
M  V30 3601 H 352.989 -3.22269 -0.530123 0
M  V30 3602 H 351.648 -3.2979 1.60106 0
M  V30 3603 H 351.296 -5.02709 -0.171173 0
M  V30 3604 H 350.996 -5.69338 1.45353 0
M  V30 3605 H 352.52 -6.07612 0.603282 0
M  V30 3606 H 353.934 -5.08524 2.64719 0
M  V30 3607 H 352.331 -4.92913 3.42282 0
M  V30 3608 H 353.401 -3.51819 3.33693 0
M  V30 3609 N 354.744 -0.972509 -1.24016 0
M  V30 3610 C 355.654 -0.5143 -2.28893 0
M  V30 3611 C 356.67 0.427078 -1.68677 0
M  V30 3612 O 357.846 0.298939 -1.99169 0
M  V30 3613 C 354.911 0.183598 -3.46214 0
M  V30 3614 C 353.972 -0.798202 -4.21814 0
M  V30 3615 C 353.205 -0.133514 -5.33533 0
M  V30 3616 O 353.428 1.07714 -5.60137 0
M  V30 3617 O 352.362 -0.828103 -5.96176 0
M  V30 3618 H 356.188 -1.38629 -2.70214 0
M  V30 3619 H 353.773 -0.739769 -1.29799 0
M  V30 3620 H 355.655 0.575433 -4.17453 0
M  V30 3621 H 354.33 1.03048 -3.0686 0
M  V30 3622 H 353.237 -1.24059 -3.52931 0
M  V30 3623 H 354.57 -1.61364 -4.64997 0
M  V30 3624 N 356.222 1.38976 -0.743202 0
M  V30 3625 C 357.45 2.04636 -0.30525 0
M  V30 3626 C 357.865 1.56044 1.06281 0
M  V30 3627 O 357.222 0.728921 1.67311 0
M  V30 3628 C 357.273 3.60193 -0.307177 0
M  V30 3629 O 356.994 4.06998 -1.62124 0
M  V30 3630 C 358.495 4.4306 0.145928 0
M  V30 3631 H 355.715 0.65788 -0.132041 0
M  V30 3632 H 358.259 1.77866 -1.00915 0
M  V30 3633 H 356.414 3.85835 0.347898 0
M  V30 3634 H 356.828 5.01371 -1.54036 0
M  V30 3635 H 358.302 5.51921 0.0934183 0
M  V30 3636 H 358.779 4.22706 1.19231 0
M  V30 3637 H 359.385 4.22584 -0.479886 0
M  V30 3638 N 357.7 0.491464 1.49741 0
M  V30 3639 C 358.977 -0.118984 1.95238 0
M  V30 3640 C 359.357 -1.55044 1.43264 0
M  V30 3641 O 358.705 -2.19287 0.642287 0
M  V30 3642 C 358.915 -0.0414187 3.48975 0
M  V30 3643 C 360.263 -0.220133 4.24029 0
M  V30 3644 O 361.287 -0.117055 3.56008 0
M  V30 3645 O 360.146 -0.430567 5.44801 0
M  V30 3646 H 357.24 -0.100536 0.820866 0
M  V30 3647 H 359.786 0.553322 1.60426 0
M  V30 3648 H 358.558 0.957214 3.79412 0
M  V30 3649 H 358.181 -0.754292 3.9038 0
M  V30 3650 N 359.178 -1.55987 0.224894 0
M  V30 3651 C 360.427 -1.97566 -0.406273 0
M  V30 3652 C 360.74 -1.11569 -1.6066 0
M  V30 3653 O 361.946 -1.43062 -2.3075 0
M  V30 3654 C 360.402 -3.51474 -0.774207 0
M  V30 3655 C 360.01 -4.46179 0.403496 0
M  V30 3656 C 361.754 -4.01758 -1.37079 0
M  V30 3657 C 359.661 -5.91399 0.0129412 0
M  V30 3658 H 358.591 -0.737777 -0.155565 0
M  V30 3659 H 361.242 -1.80659 0.321635 0
M  V30 3660 H 359.624 -3.63994 -1.55963 0
M  V30 3661 H 360.798 -4.45409 1.18101 0
M  V30 3662 H 359.113 -4.06255 0.913536 0
M  V30 3663 H 361.71 -5.07756 -1.67596 0
M  V30 3664 H 362.053 -3.47805 -2.28773 0
M  V30 3665 H 362.586 -3.92475 -0.648733 0
M  V30 3666 H 359.325 -6.49341 0.896451 0
M  V30 3667 H 358.845 -5.95356 -0.728821 0
M  V30 3668 H 360.524 -6.45683 -0.412582 0
M  V30 3669 N 360.656 0.0484629 -1.57525 0
M  V30 3670 C 361.586 1.0549 -2.08313 0
M  V30 3671 C 362.567 1.38929 -0.981463 0
M  V30 3672 O 363.752 1.48151 -1.25558 0
M  V30 3673 C 360.882 2.36162 -2.54646 0
M  V30 3674 C 359.836 2.17016 -3.68901 0
M  V30 3675 C 359.162 3.53278 -4.01371 0
M  V30 3676 C 360.462 1.57219 -4.98076 0
M  V30 3677 H 362.156 0.632195 -2.92649 0
M  V30 3678 H 359.702 0.302654 -1.40784 0
M  V30 3679 H 361.655 3.06882 -2.88793 0
M  V30 3680 H 360.379 2.80456 -1.67368 0
M  V30 3681 H 359.038 1.48733 -3.35073 0
M  V30 3682 H 358.686 3.95185 -3.11188 0
M  V30 3683 H 358.386 3.41299 -4.78318 0
M  V30 3684 H 359.91 4.25391 -4.38035 0
M  V30 3685 H 361.324 2.17832 -5.30304 0
M  V30 3686 H 359.721 1.55871 -5.79503 0
M  V30 3687 H 360.791 0.535956 -4.81929 0
M  V30 3688 N 362.134 1.5431 0.320358 0
M  V30 3689 C 363.381 1.72668 1.05792 0
M  V30 3690 C 363.709 0.502084 1.87908 0
M  V30 3691 O 362.964 -0.516149 1.88771 0
M  V30 3692 C 363.263 2.95639 2.00828 0
M  V30 3693 C 362.929 4.30265 1.34843 0
M  V30 3694 C 361.591 4.66865 1.16578 0
M  V30 3695 C 363.943 5.13801 0.875095 0
M  V30 3696 C 361.271 5.84597 0.496336 0
M  V30 3697 C 363.623 6.32219 0.219463 0
M  V30 3698 C 362.287 6.67495 0.0246915 0
M  V30 3699 H 361.557 0.631837 0.387121 0
M  V30 3700 H 364.204 1.88552 0.334735 0
M  V30 3701 H 362.509 2.74456 2.79609 0
M  V30 3702 H 364.206 3.07038 2.57932 0
M  V30 3703 H 360.796 4.01472 1.50061 0
M  V30 3704 H 364.98 4.86039 1.00398 0
M  V30 3705 H 360.236 6.10486 0.334264 0
M  V30 3706 H 364.41 6.96227 -0.155291 0
M  V30 3707 H 362.037 7.5858 -0.496065 0
M  V30 3708 N 363.613 -0.582584 1.46437 0
M  V30 3709 C 364.861 -1.33814 1.51453 0
M  V30 3710 C 365.182 -1.94277 0.167792 0
M  V30 3711 O 364.452 -1.78566 -0.805677 0
M  V30 3712 H 363.032 -0.496838 0.557818 0
M  V30 3713 H 365.694 -0.682281 1.82568 0
M  V30 3714 H 364.79 -2.14479 2.26728 0
M  V30 3715 N 365.091 -1.34144 -0.827227 0
M  V30 3716 C 366.041 -1.21923 -1.92663 0
M  V30 3717 C 367.025 -0.119294 -1.60457 0
M  V30 3718 O 368.217 -0.348539 -1.73534 0
M  V30 3719 C 365.346 -0.972492 -3.29238 0
M  V30 3720 C 364.432 -2.1154 -3.67576 0
M  V30 3721 N 364.823 -3.36627 -3.77512 0
M  V30 3722 C 363.121 -2.02468 -3.97395 0
M  V30 3723 C 363.822 -4.11658 -4.1099 0
M  V30 3724 N 362.798 -3.40207 -4.23981 0
M  V30 3725 H 366.6 -2.16721 -1.98517 0
M  V30 3726 H 364.114 -1.2632 -1.02064 0
M  V30 3727 H 366.111 -0.865847 -4.0781 0
M  V30 3728 H 364.771 -0.0331509 -3.24683 0
M  V30 3729 H 365.782 -3.71234 -3.61118 0
M  V30 3730 H 362.459 -1.16265 -4.00985 0
M  V30 3731 H 363.849 -5.19657 -4.25918 0
M  V30 3732 N 366.569 1.04691 -1.17803 0
M  V30 3733 C 367.985 1.29963 -0.926379 0
M  V30 3734 C 368.185 1.97251 0.411635 0
M  V30 3735 O 367.241 2.24922 1.14744 0
M  V30 3736 C 368.554 2.16447 -2.08737 0
M  V30 3737 C 370.102 2.29814 -2.12496 0
M  V30 3738 C 370.577 3.19661 -3.27995 0
M  V30 3739 N 372.068 3.27247 -3.27816 0
M  V30 3740 C 372.803 3.96906 -4.13827 0
M  V30 3741 N 372.299 4.6895 -5.09959 0
M  V30 3742 N 374.092 3.93122 -4.01761 0
M  V30 3743 H 366.243 0.594182 -2.0392 0
M  V30 3744 H 368.506 0.324649 -0.890678 0
M  V30 3745 H 368.212 1.74304 -3.05469 0
M  V30 3746 H 368.086 3.17103 -2.04268 0
M  V30 3747 H 370.473 2.71196 -1.16347 0
M  V30 3748 H 370.554 1.2877 -2.21025 0
M  V30 3749 H 370.198 2.78991 -4.24413 0
M  V30 3750 H 370.128 4.20722 -3.16703 0
M  V30 3751 H 372.619 2.75921 -2.58217 0
M  V30 3752 H 372.932 5.19679 -5.71974 0
M  V30 3753 H 371.277 4.67875 -5.13924 0
M  V30 3754 H 374.468 3.35967 -3.2595 0
M  V30 3755 H 374.641 4.47139 -4.6901 0
M  V30 3756 N 368.047 0.979072 1.23499 0
M  V30 3757 C 369.287 0.655228 1.93613 0
M  V30 3758 C 369.651 -0.796336 1.74707 0
M  V30 3759 O 370.852 -1.23094 2.38959 0
M  V30 3760 C 369.123 1.03337 3.42135 0
M  V30 3761 S 370.682 0.825793 4.3096 0
M  V30 3762 H 367.5 0.240004 0.669267 0
M  V30 3763 H 370.102 1.25843 1.49612 0
M  V30 3764 H 368.806 2.08646 3.53405 0
M  V30 3765 H 368.337 0.421397 3.91137 0
M  V30 3766 H 370.352 -0.290991 4.95346 0
M  V30 3767 N 369.525 -1.3858 0.750561 0
M  V30 3768 C 370.773 -1.99789 0.30477 0
M  V30 3769 C 371.094 -1.59874 -1.11649 0
M  V30 3770 O 370.364 -0.85417 -1.76297 0
M  V30 3771 H 368.944 -0.738902 0.109694 0
M  V30 3772 H 371.606 -1.69391 0.963983 0
M  V30 3773 H 370.702 -3.09952 0.365499 0
M  V30 3774 N 371.003 -0.499398 -1.49478 0
M  V30 3775 C 371.936 0.326491 -2.25852 0
M  V30 3776 C 372.914 0.971776 -1.30366 0
M  V30 3777 O 374.098 1.00219 -1.59651 0
M  V30 3778 C 371.225 1.45969 -3.05632 0
M  V30 3779 C 370.271 0.928938 -4.16261 0
M  V30 3780 S 371.104 -0.179012 -5.35201 0
M  V30 3781 C 372.26 0.957389 -6.18534 0
M  V30 3782 H 372.493 -0.321746 -2.95554 0
M  V30 3783 H 370.026 -0.284674 -1.51753 0
M  V30 3784 H 371.984 2.109 -3.52181 0
M  V30 3785 H 370.645 2.07953 -2.35402 0
M  V30 3786 H 369.838 1.77813 -4.71592 0
M  V30 3787 H 369.44 0.356869 -3.72293 0
M  V30 3788 H 371.732 1.86296 -6.51383 0
M  V30 3789 H 372.675 0.442733 -7.06715 0
M  V30 3790 H 373.083 1.224 -5.5107 0
M  V30 3791 N 372.481 1.55866 -0.233164 0
M  V30 3792 C 373.709 2.02998 0.399905 0
M  V30 3793 C 374.124 1.11274 1.52524 0
M  V30 3794 O 373.481 0.124528 1.82075 0
M  V30 3795 C 373.532 3.4958 0.920639 0
M  V30 3796 O 373.253 4.37808 -0.159834 0
M  V30 3797 C 374.754 4.12411 1.62578 0
M  V30 3798 H 371.974 0.664006 0.0966281 0
M  V30 3799 H 374.518 2.0143 -0.353013 0
M  V30 3800 H 372.673 3.51727 1.62379 0
M  V30 3801 H 373.087 5.23981 0.23337 0
M  V30 3802 H 374.561 5.16711 1.94201 0
M  V30 3803 H 375.038 3.5809 2.54299 0
M  V30 3804 H 375.644 4.14148 0.967553 0
M  V30 3805 N 373.959 -0.0401083 1.57549 0
M  V30 3806 C 375.187 -0.745196 1.93014 0
M  V30 3807 C 375.602 -1.6948 0.831984 0
M  V30 3808 O 374.959 -1.81482 -0.192463 0
M  V30 3809 C 375.01 -1.51176 3.28372 0
M  V30 3810 O 374.731 -0.600284 4.33968 0
M  V30 3811 C 376.232 -2.315 3.78051 0
M  V30 3812 H 373.452 -0.210088 0.637263 0
M  V30 3813 H 375.996 -0.000924689 2.045 0
M  V30 3814 H 374.151 -2.20801 3.18317 0
M  V30 3815 H 374.565 -1.13669 5.12035 0
M  V30 3816 H 376.039 -2.80697 4.75303 0
M  V30 3817 H 376.516 -3.12436 3.08675 0
M  V30 3818 H 377.122 -1.66971 3.91153 0
M  V30 3819 N 375.437 -1.54477 -0.31217 0
M  V30 3820 C 376.683 -1.73483 -1.0503 0
M  V30 3821 C 377.016 -0.513125 -1.87298 0
M  V30 3822 O 376.291 0.489864 -1.8823 0
M  V30 3823 C 376.574 -3.01723 -1.96558 0
M  V30 3824 C 376.427 -4.3417 -1.17545 0
M  V30 3825 C 377.746 -3.25772 -2.95907 0
M  V30 3826 H 374.865 -0.631222 -0.380432 0
M  V30 3827 H 377.507 -1.87184 -0.325932 0
M  V30 3828 H 375.657 -2.90174 -2.58324 0
M  V30 3829 H 377.329 -4.5762 -0.581513 0
M  V30 3830 H 375.572 -4.31159 -0.477925 0
M  V30 3831 H 376.243 -5.20143 -1.84811 0
M  V30 3832 H 378.719 -3.36857 -2.44267 0
M  V30 3833 H 377.595 -4.16838 -3.57123 0
M  V30 3834 H 377.856 -2.43537 -3.68974 0
M  V30 3835 N 376.915 0.57481 -1.46744 0
M  V30 3836 C 377.845 1.69337 -1.60771 0
M  V30 3837 C 378.826 1.63825 -0.457736 0
M  V30 3838 O 380.011 1.8172 -0.684947 0
M  V30 3839 C 377.141 3.0798 -1.60517 0
M  V30 3840 C 376.095 3.28327 -2.74564 0
M  V30 3841 C 375.421 4.67578 -2.59373 0
M  V30 3842 C 376.721 3.15398 -4.16319 0
M  V30 3843 H 378.415 1.57853 -2.54407 0
M  V30 3844 H 375.961 0.75799 -1.22436 0
M  V30 3845 H 377.914 3.86061 -1.68923 0
M  V30 3846 H 376.638 3.20381 -0.634305 0
M  V30 3847 H 375.297 2.52649 -2.65639 0
M  V30 3848 H 374.945 4.76755 -1.60353 0
M  V30 3849 H 374.645 4.82144 -3.35873 0
M  V30 3850 H 376.169 5.47817 -2.69682 0
M  V30 3851 H 377.583 3.83315 -4.26313 0
M  V30 3852 H 375.98 3.41482 -4.93468 0
M  V30 3853 H 377.05 2.12372 -4.3592 0
M  V30 3854 N 378.394 1.34581 0.820102 0
M  V30 3855 C 379.622 1.3018 1.60813 0
M  V30 3856 C 380.037 -0.123551 1.88395 0
M  V30 3857 O 379.394 -1.07148 1.47735 0
M  V30 3858 C 379.445 2.09312 2.94739 0
M  V30 3859 O 379.166 3.46288 2.68358 0
M  V30 3860 C 380.667 2.1234 3.89136 0
M  V30 3861 H 377.887 0.447726 0.499782 0
M  V30 3862 H 380.431 1.77237 1.02017 0
M  V30 3863 H 378.586 1.65889 3.50085 0
M  V30 3864 H 379 3.87227 3.53774 0
M  V30 3865 H 380.474 2.72126 4.80262 0
M  V30 3866 H 380.951 1.11854 4.24718 0
M  V30 3867 H 381.557 2.55864 3.39726 0
M  V30 3868 N 379.872 -1.04064 1.18357 0
M  V30 3869 C 380.802 -2.14001 0.934113 0
M  V30 3870 C 381.783 -1.69616 -0.128186 0
M  V30 3871 O 382.968 -1.94185 0.0244093 0
M  V30 3872 C 380.098 -3.44253 0.459066 0
M  V30 3873 C 379.052 -4.02261 1.46185 0
M  V30 3874 C 378.378 -5.27992 0.844322 0
M  V30 3875 C 379.678 -4.38432 2.83856 0
M  V30 3876 H 381.372 -2.35127 1.85352 0
M  V30 3877 H 378.918 -1.12998 0.892604 0
M  V30 3878 H 380.871 -4.20522 0.271907 0
M  V30 3879 H 379.595 -3.22813 -0.495912 0
M  V30 3880 H 378.254 -3.28074 1.63595 0
M  V30 3881 H 377.902 -5.02862 -0.117845 0
M  V30 3882 H 377.602 -5.67765 1.51384 0
M  V30 3883 H 379.126 -6.06938 0.667693 0
M  V30 3884 H 380.54 -5.05688 2.70098 0
M  V30 3885 H 378.937 -4.89254 3.47491 0
M  V30 3886 H 380.007 -3.4826 3.37406 0
M  V30 3887 N 381.35 -0.985608 -1.22978 0
M  V30 3888 C 382.578 -0.675582 -1.95559 0
M  V30 3889 C 382.993 0.758413 -1.72897 0
M  V30 3890 O 382.35 1.51094 -1.02357 0
M  V30 3891 C 382.401 -0.96293 -3.48439 0
M  V30 3892 O 382.122 -2.34057 -3.70336 0
M  V30 3893 C 383.623 -0.669585 -4.38214 0
M  V30 3894 H 380.843 -0.250523 -0.622478 0
M  V30 3895 H 383.387 -1.3184 -1.56328 0
M  V30 3896 H 381.542 -0.366033 -3.85667 0
M  V30 3897 H 381.956 -2.43424 -4.64591 0
M  V30 3898 H 383.43 -0.920967 -5.44263 0
M  V30 3899 H 383.907 0.396383 -4.37408 0
M  V30 3900 H 384.513 -1.2472 -4.06602 0
M  V30 3901 N 382.828 1.3818 -0.7579 0
M  V30 3902 C 384.076 1.99624 -0.315361 0
M  V30 3903 C 384.397 1.60464 1.10799 0
M  V30 3904 O 383.667 0.863507 1.75842 0
M  V30 3905 H 382.247 0.73831 -0.113611 0
M  V30 3906 H 384.909 1.68878 -0.972952 0
M  V30 3907 H 384.005 3.09754 -0.381931 0
M  V30 3908 N 384.306 0.507319 1.49211 0
M  V30 3909 C 385.552 -0.0350047 2.0277 0
M  V30 3910 C 385.885 -1.3606 1.38569 0
M  V30 3911 O 385.16 -1.87321 0.523542 0
M  V30 3912 C 385.443 -0.180916 3.59645 0
M  V30 3913 C 385.296 1.16825 4.34364 0
M  V30 3914 C 386.615 -0.918558 4.30407 0
M  V30 3915 H 383.734 -0.0112473 0.736914 0
M  V30 3916 H 386.376 0.659956 1.7817 0
M  V30 3917 H 384.526 -0.772826 3.80736 0
M  V30 3918 H 386.198 1.79952 4.24753 0
M  V30 3919 H 384.441 1.75594 3.96673 0
M  V30 3920 H 385.112 1.01939 5.42506 0
M  V30 3921 H 387.588 -0.41649 4.1401 0
M  V30 3922 H 386.464 -0.989505 5.39907 0
M  V30 3923 H 386.725 -1.96373 3.96093 0
M  V30 3924 N 385.784 -1.5574 0.241426 0
M  V30 3925 C 387.009 -2.0366 -0.392111 0
M  V30 3926 C 387.434 -1.11969 -1.51144 0
M  V30 3927 O 386.792 -0.111594 -1.80956 0
M  V30 3928 C 386.84 -3.49638 -0.882371 0
M  V30 3929 O 385.944 -3.6108 -1.99235 0
M  V30 3930 H 385.285 -0.658379 -0.0862122 0
M  V30 3931 H 387.815 -2.01302 0.365881 0
M  V30 3932 H 387.825 -3.90351 -1.18702 0
M  V30 3933 H 386.5 -4.15852 -0.0632361 0
M  V30 3934 H 385.077 -3.32262 -1.69282 0
M  V30 3935 N 387.262 0.0317525 -1.57568 0
M  V30 3936 C 388.678 0.38735 -1.54828 0
M  V30 3937 C 388.878 1.7677 -0.967187 0
M  V30 3938 O 387.934 2.45581 -0.587063 0
M  V30 3939 C 389.247 0.291667 -2.99282 0
M  V30 3940 C 390.795 0.368946 -3.10818 0
M  V30 3941 C 391.27 0.302741 -4.56998 0
M  V30 3942 N 392.761 0.361617 -4.61786 0
M  V30 3943 C 393.496 0.333238 -5.72431 0
M  V30 3944 N 392.992 0.257308 -6.92322 0
M  V30 3945 N 394.785 0.382769 -5.60795 0
M  V30 3946 H 386.936 -0.871609 -1.93692 0
M  V30 3947 H 389.199 -0.331161 -0.888277 0
M  V30 3948 H 388.905 -0.656794 -3.45513 0
M  V30 3949 H 388.779 1.08638 -3.61217 0
M  V30 3950 H 391.166 1.30784 -2.64536 0
M  V30 3951 H 391.247 -0.455066 -2.5172 0
M  V30 3952 H 390.891 -0.632473 -5.03947 0
M  V30 3953 H 390.821 1.14482 -5.14005 0
M  V30 3954 H 393.312 0.422923 -3.75526 0
M  V30 3955 H 393.625 0.24068 -7.72425 0
M  V30 3956 H 391.97 0.223396 -6.94641 0
M  V30 3957 H 395.161 0.44006 -4.66027 0
M  V30 3958 H 395.334 0.357184 -6.47015 0
M  V30 3959 N 388.74 1.54641 0.303973 0
M  V30 3960 C 389.67 1.88386 1.3796 0
M  V30 3961 C 390.651 0.742485 1.5304 0
M  V30 3962 O 391.836 0.997959 1.66597 0
M  V30 3963 C 388.966 2.12854 2.74427 0
M  V30 3964 C 387.92 3.28702 2.74115 0
M  V30 3965 C 387.246 3.38582 4.13844 0
M  V30 3966 C 388.546 4.65881 2.3612 0
M  V30 3967 H 390.24 2.78474 1.09966 0
M  V30 3968 H 387.786 1.33988 0.527556 0
M  V30 3969 H 389.739 2.35047 3.49758 0
M  V30 3970 H 388.463 1.19535 3.03939 0
M  V30 3971 H 387.122 3.06428 2.0124 0
M  V30 3972 H 386.77 2.42784 4.40528 0
M  V30 3973 H 386.47 4.16453 4.14537 0
M  V30 3974 H 387.994 3.63031 4.90959 0
M  V30 3975 H 389.408 4.87823 3.01167 0
M  V30 3976 H 387.805 5.46444 2.48031 0
M  V30 3977 H 388.875 4.66799 1.3125 0
M  V30 3978 N 390.218 -0.567019 1.47046 0
M  V30 3979 C 391.128 -1.70247 1.6141 0
M  V30 3980 C 392.144 -1.66746 0.497157 0
M  V30 3981 O 393.32 -1.86371 0.763389 0
M  V30 3982 C 390.385 -3.06756 1.61561 0
M  V30 3983 C 389.446 -3.21399 2.84607 0
M  V30 3984 C 388.679 -4.51396 2.84741 0
M  V30 3985 O 388.902 -5.36255 1.94388 0
M  V30 3986 O 387.836 -4.69621 3.76483 0
M  V30 3987 H 391.662 -1.61073 2.57467 0
M  V30 3988 H 389.247 -0.735894 1.30019 0
M  V30 3989 H 391.129 -3.8801 1.64396 0
M  V30 3990 H 389.804 -3.16333 0.686684 0
M  V30 3991 H 388.711 -2.39579 2.8732 0
M  V30 3992 H 390.044 -3.16721 3.76761 0
M  V30 3993 N 391.696 -1.35014 -0.812953 0
M  V30 3994 C 392.606 -1.2951 -1.95613 0
M  V30 3995 C 393.622 -0.20107 -1.72834 0
M  V30 3996 O 394.798 -0.42932 -1.96771 0
M  V30 3997 C 391.863 -1.06033 -3.30088 0
M  V30 3998 C 390.924 -2.24688 -3.65805 0
M  V30 3999 C 390.157 -2.02322 -4.93864 0
M  V30 4000 O 390.38 -0.986464 -5.61805 0
M  V30 4001 O 389.314 -2.89525 -5.27692 0
M  V30 4002 H 393.14 -2.25705 -2.03202 0
M  V30 4003 H 390.725 -1.15321 -0.949811 0
M  V30 4004 H 392.607 -0.94763 -4.10607 0
M  V30 4005 H 391.282 -0.128852 -3.23443 0
M  V30 4006 H 390.189 -2.41521 -2.85689 0
M  V30 4007 H 391.522 -3.16261 -3.77147 0
M  V30 4008 N 393.175 1.03435 -1.18907 0
M  V30 4009 C 394.138 2.09756 -0.923844 0
M  V30 4010 C 395.138 1.60528 0.093416 0
M  V30 4011 O 396.328 1.73631 -0.140727 0
M  V30 4012 C 393.46 3.38692 -0.387354 0
M  V30 4013 H 394.653 2.34719 -1.86674 0
M  V30 4014 H 392.206 1.19959 -1.00197 0
M  V30 4015 H 392.941 3.19396 0.561845 0
M  V30 4016 H 392.726 3.75742 -1.12074 0
M  V30 4017 H 394.216 4.17016 -0.220694 0
M  V30 4018 N 394.653 0.992116 1.22453 0
M  V30 4019 C 395.585 0.500024 2.23679 0
M  V30 4020 C 396.598 -0.404463 1.57696 0
M  V30 4021 O 397.787 -0.206722 1.77299 0
M  V30 4022 C 394.887 -0.294711 3.37616 0
M  V30 4023 C 394.06 0.605723 4.33186 0
M  V30 4024 C 393.119 -0.13717 5.26021 0
M  V30 4025 O 392.145 0.477164 5.67196 0
M  V30 4026 N 393.347 -1.4197 5.62872 0
M  V30 4027 H 396.112 1.37045 2.66531 0
M  V30 4028 H 393.673 0.866741 1.36745 0
M  V30 4029 H 395.665 -0.800329 3.96707 0
M  V30 4030 H 394.235 -1.06623 2.93854 0
M  V30 4031 H 393.455 1.29202 3.72425 0
M  V30 4032 H 394.743 1.21896 4.93983 0
M  V30 4033 H 394.141 -1.94015 5.31389 0
M  V30 4034 H 392.698 -1.87052 6.24383 0
M  V30 4035 N 396.131 -1.37776 0.765217 0
M  V30 4036 C 397.094 -2.28686 0.153416 0
M  V30 4037 C 398.094 -1.47727 -0.635081 0
M  V30 4038 O 399.284 -1.68027 -0.459632 0
M  V30 4039 C 396.416 -3.31608 -0.790495 0
M  V30 4040 H 397.609 -2.84297 0.954723 0
M  V30 4041 H 395.162 -1.46932 0.53299 0
M  V30 4042 H 395.897 -2.81109 -1.61705 0
M  V30 4043 H 395.682 -3.9144 -0.227348 0
M  V30 4044 H 397.172 -3.99559 -1.21419 0
M  V30 4045 N 397.609 -0.515225 -1.4894 0
M  V30 4046 C 398.839 0.0205735 -2.0659 0
M  V30 4047 C 399.247 1.30064 -1.37405 0
M  V30 4048 O 398.59 1.78087 -0.450632 0
M  V30 4049 C 398.652 0.330124 -3.57981 0
M  V30 4050 C 398.316 -0.854295 -4.48944 0
M  V30 4051 C 399.313 -1.7487 -4.89609 0
M  V30 4052 C 396.998 -1.05712 -4.9105 0
M  V30 4053 C 398.992 -2.82996 -5.71132 0
M  V30 4054 C 396.679 -2.14154 -5.72347 0
M  V30 4055 C 397.677 -3.0263 -6.12294 0
M  V30 4056 O 397.365 -4.09198 -6.91962 0
M  V30 4057 H 397.097 -0.0236833 -0.675585 0
M  V30 4058 H 399.651 -0.715956 -1.92518 0
M  V30 4059 H 397.881 1.12044 -3.70112 0
M  V30 4060 H 399.57 0.806233 -3.97812 0
M  V30 4061 H 400.336 -1.60388 -4.57712 0
M  V30 4062 H 396.215 -0.377788 -4.59449 0
M  V30 4063 H 399.759 -3.52083 -6.02232 0
M  V30 4064 H 395.656 -2.28626 -6.03656 0
M  V30 4065 H 396.424 -4.06726 -7.10293 0
M  V30 4066 N 399.087 1.5561 -0.249682 0
M  V30 4067 C 400.017 2.24477 0.642826 0
M  V30 4068 C 400.998 1.22601 1.17911 0
M  V30 4069 O 402.183 1.5126 1.21795 0
M  V30 4070 C 399.313 2.94638 1.83863 0
M  V30 4071 C 398.267 4.03227 1.435 0
M  V30 4072 C 397.593 4.60828 2.71186 0
M  V30 4073 C 398.893 5.18796 0.604002 0
M  V30 4074 H 400.587 2.99321 0.0685625 0
M  V30 4075 H 398.133 1.43965 0.0315363 0
M  V30 4076 H 400.086 3.41517 2.46868 0
M  V30 4077 H 398.81 2.17287 2.43832 0
M  V30 4078 H 397.469 3.57121 0.828275 0
M  V30 4079 H 397.117 3.80174 3.29358 0
M  V30 4080 H 396.817 5.34132 2.44901 0
M  V30 4081 H 398.341 5.10442 3.35084 0
M  V30 4082 H 399.755 5.61883 1.13842 0
M  V30 4083 H 398.152 5.98506 0.437097 0
M  V30 4084 H 399.222 4.83384 -0.383147 0
M  V30 4085 N 400.565 -0.0233959 1.57583 0
M  V30 4086 C 401.528 -1.00693 2.05897 0
M  V30 4087 C 402.528 -1.28693 0.964092 0
M  V30 4088 O 403.718 -1.23602 1.22753 0
M  V30 4089 C 400.85 -2.33825 2.4807 0
M  V30 4090 H 402.043 -0.589476 2.9405 0
M  V30 4091 H 399.596 -0.270354 1.53944 0
M  V30 4092 H 400.331 -2.80307 1.6309 0
M  V30 4093 H 400.116 -2.1483 3.2801 0
M  V30 4094 H 401.606 -3.04426 2.85857 0
M  V30 4095 N 402.043 -1.548 -0.295768 0
M  V30 4096 C 403.006 -1.85363 -1.34808 0
M  V30 4097 C 404.006 -0.726817 -1.43436 0
M  V30 4098 O 405.196 -0.995088 -1.42981 0
M  V30 4099 C 402.328 -2.03859 -2.73229 0
M  V30 4100 H 403.521 -2.7941 -1.08949 0
M  V30 4101 H 401.074 -1.46942 -0.532702 0
M  V30 4102 H 401.809 -1.12117 -3.04303 0
M  V30 4103 H 401.594 -2.8588 -2.68356 0
M  V30 4104 H 403.084 -2.28857 -3.49305 0
M  V30 4105 N 403.521 0.559213 -1.47345 0
M  V30 4106 C 404.769 1.31388 -1.53563 0
M  V30 4107 C 405.09 1.93985 -0.198678 0
M  V30 4108 O 404.36 1.79825 0.777167 0
M  V30 4109 H 402.94 0.487901 -0.565652 0
M  V30 4110 H 405.602 0.65315 -1.8363 0
M  V30 4111 H 404.698 2.10844 -2.30111 0
M  V30 4112 N 404.999 1.35443 0.805782 0
M  V30 4113 C 405.931 1.24285 1.92577 0
M  V30 4114 C 406.944 0.165962 1.61952 0
M  V30 4115 O 408.133 0.419303 1.73505 0
M  V30 4116 C 405.233 0.891272 3.2697 0
M  V30 4117 C 404.406 2.06669 3.85495 0
M  V30 4118 C 403.465 1.69077 4.98297 0
M  V30 4119 O 402.491 2.4096 5.15681 0
M  V30 4120 N 403.693 0.614869 5.77234 0
M  V30 4121 H 406.458 2.20777 2.02676 0
M  V30 4122 H 404.019 1.28623 0.983243 0
M  V30 4123 H 406.011 0.621256 3.99903 0
M  V30 4124 H 404.581 0.016004 3.12596 0
M  V30 4125 H 403.801 2.50046 3.04747 0
M  V30 4126 H 405.089 2.85237 4.21328 0
M  V30 4127 H 404.487 0.017648 5.65697 0
M  V30 4128 H 403.044 0.404636 6.50543 0
M  V30 4129 N 406.477 -1.02803 1.19454 0
M  V30 4130 C 407.427 -2.0945 0.900827 0
M  V30 4131 C 408.411 -1.60335 -0.134715 0
M  V30 4132 O 409.603 -1.76857 0.0710924 0
M  V30 4133 C 406.732 -3.4044 0.442229 0
M  V30 4134 C 405.818 -3.96286 1.51056 0
M  V30 4135 N 406.209 -4.25785 2.73021 0
M  V30 4136 C 404.507 -4.24307 1.37404 0
M  V30 4137 C 405.208 -4.70654 3.41848 0
M  V30 4138 N 404.184 -4.72238 2.69243 0
M  V30 4139 H 407.986 -2.3015 1.82779 0
M  V30 4140 H 405.5 -1.20672 1.08683 0
M  V30 4141 H 407.497 -4.16354 0.21326 0
M  V30 4142 H 406.157 -3.21159 -0.478238 0
M  V30 4143 H 407.168 -4.15041 3.09776 0
M  V30 4144 H 403.845 -4.14285 0.517103 0
M  V30 4145 H 405.235 -5.02392 4.46152 0
M  V30 4146 N 407.956 -0.998596 -1.21925 0
M  V30 4147 C 409.233 -0.593401 -1.86382 0
M  V30 4148 C 409.613 0.92916 -1.89552 0
M  V30 4149 O 408.961 1.81347 -1.39017 0
M  V30 4150 C 409.171 -1.22039 -3.26967 0
M  V30 4151 C 410.519 -1.32449 -4.03413 0
M  V30 4152 O 411.543 -1.17522 -3.36254 0
M  V30 4153 O 410.402 -1.56395 -5.23644 0
M  V30 4154 H 407.496 -0.202385 -0.801854 0
M  V30 4155 H 410.042 -1.09484 -1.29659 0
M  V30 4156 H 408.814 -2.26158 -3.19325 0
M  V30 4157 H 408.437 -0.704906 -3.91301 0
M  V30 4158 N 409.434 1.37368 -0.772513 0
M  V30 4159 C 410.364 2.32856 -0.173304 0
M  V30 4160 C 411.345 1.55818 0.682262 0
M  V30 4161 O 412.53 1.84052 0.619566 0
M  V30 4162 C 409.66 3.40048 0.706007 0
M  V30 4163 C 408.614 4.27973 -0.0483144 0
M  V30 4164 C 407.94 5.26184 0.950491 0
M  V30 4165 C 409.24 5.07665 -1.22776 0
M  V30 4166 H 410.934 2.83217 -0.971002 0
M  V30 4167 H 408.48 1.3617 -0.468377 0
M  V30 4168 H 410.433 4.05827 1.13501 0
M  V30 4169 H 409.157 2.88214 1.53623 0
M  V30 4170 H 407.816 3.63726 -0.458107 0
M  V30 4171 H 407.464 4.7063 1.77529 0
M  V30 4172 H 407.164 5.85872 0.450314 0
M  V30 4173 H 408.688 5.94838 1.37842 0
M  V30 4174 H 410.102 5.66578 -0.875366 0
M  V30 4175 H 408.499 5.76681 -1.66007 0
M  V30 4176 H 409.569 4.40294 -2.03149 0
M  V30 4177 N 410.912 0.523116 1.48665 0
M  V30 4178 C 412.158 -0.0134963 2.02796 0
M  V30 4179 C 412.491 -1.34582 1.40004 0
M  V30 4180 O 411.766 -1.86756 0.543381 0
M  V30 4181 C 412.049 -0.14276 3.59817 0
M  V30 4182 C 411.902 1.21425 4.331 0
M  V30 4183 C 413.221 -0.872856 4.31357 0
M  V30 4184 H 410.34 -0.00343074 0.736992 0
M  V30 4185 H 412.982 0.678816 1.7746 0
M  V30 4186 H 411.132 -0.732401 3.81534 0
M  V30 4187 H 412.804 1.84447 4.2282 0
M  V30 4188 H 411.047 1.79791 3.94788 0
M  V30 4189 H 411.718 1.07687 5.41394 0
M  V30 4190 H 414.194 -0.372555 4.14429 0
M  V30 4191 H 413.07 -0.932185 5.40927 0
M  V30 4192 H 413.331 -1.92161 3.98154 0
M  V30 4193 N 412.39 -1.55475 0.257931 0
M  V30 4194 C 413.801 -1.8511 -0.243135 0
M  V30 4195 C 414.152 -1.17986 -1.5676 0
M  V30 4196 O 413.277 -0.462102 -2.11409 0
M  V30 4197 C 413.872 -3.35826 -0.447929 0
M  V30 4198 C 412.431 -3.65647 -0.893245 0
M  V30 4199 C 411.578 -2.7729 0.0232965 0
M  V30 4200 H 414.529 -1.51261 0.480199 0
M  V30 4201 H 414.55 -3.58002 -1.28898 0
M  V30 4202 H 414.062 -3.84652 0.516196 0
M  V30 4203 H 412.163 -3.22308 -1.86945 0
M  V30 4204 H 412.276 -4.73312 -0.742469 0
M  V30 4205 H 410.64 -2.49942 -0.490021 0
M  V30 4206 H 411.423 -3.28926 0.982994 0
M  V30 4207 N 413.868 0.0150385 -1.57593 0
M  V30 4208 C 414.818 1.01943 -2.0394 0
M  V30 4209 C 415.802 1.31209 -0.931286 0
M  V30 4210 O 416.994 1.30559 -1.19513 0
M  V30 4211 C 414.123 2.31621 -2.53391 0
M  V30 4212 C 413.209 2.05384 -3.7105 0
M  V30 4213 N 413.6 1.49253 -4.83278 0
M  V30 4214 C 411.898 2.35601 -3.78693 0
M  V30 4215 C 412.599 1.39143 -5.64813 0
M  V30 4216 N 411.575 1.87187 -5.10355 0
M  V30 4217 H 415.377 0.57969 -2.88126 0
M  V30 4218 H 412.891 0.221056 -1.60888 0
M  V30 4219 H 414.888 3.044 -2.84862 0
M  V30 4220 H 413.548 2.76261 -1.70616 0
M  V30 4221 H 414.559 1.17334 -5.04433 0
M  V30 4222 H 411.236 2.8322 -3.06746 0
M  V30 4223 H 412.626 0.961153 -6.6499 0
M  V30 4224 N 415.346 1.54954 0.287554 0
M  V30 4225 C 416.576 1.78622 1.03816 0
M  V30 4226 C 416.984 0.552451 1.80955 0
M  V30 4227 O 416.327 -0.487665 1.77109 0
M  V30 4228 C 416.389 2.94975 2.055 0
M  V30 4229 C 416.053 4.32565 1.47433 0
M  V30 4230 C 417.05 5.12096 0.897436 0
M  V30 4231 C 414.735 4.79195 1.50591 0
M  V30 4232 C 416.729 6.36383 0.359851 0
M  V30 4233 C 414.416 6.03441 0.964459 0
M  V30 4234 C 415.414 6.81872 0.392413 0
M  V30 4235 O 415.102 8.03777 -0.140788 0
M  V30 4236 H 414.834 0.599144 0.313053 0
M  V30 4237 H 417.388 2.02761 0.328225 0
M  V30 4238 H 415.618 2.66493 2.80211 0
M  V30 4239 H 417.307 3.06097 2.6657 0
M  V30 4240 H 418.073 4.77209 0.865841 0
M  V30 4241 H 413.952 4.18167 1.94055 0
M  V30 4242 H 417.496 6.97545 -0.0872951 0
M  V30 4243 H 413.393 6.37813 0.993246 0
M  V30 4244 H 414.161 8.18495 -0.0287617 0
M  V30 4245 N 416.824 -0.551391 1.4764 0
M  V30 4246 C 418.054 -1.33163 1.57959 0
M  V30 4247 C 418.462 -1.87785 0.23094 0
M  V30 4248 O 417.805 -1.65996 -0.786825 0
M  V30 4249 C 417.867 -2.53449 2.54958 0
M  V30 4250 C 417.531 -2.20071 4.00522 0
M  V30 4251 C 418.528 -1.77017 4.88836 0
M  V30 4252 C 416.213 -2.31252 4.45901 0
M  V30 4253 C 418.207 -1.4558 6.20552 0
M  V30 4254 C 415.894 -1.99427 5.77644 0
M  V30 4255 C 416.892 -1.56659 6.64791 0
M  V30 4256 O 416.58 -1.25242 7.94084 0
M  V30 4257 H 416.312 -0.412022 0.535923 0
M  V30 4258 H 418.866 -0.674186 1.9402 0
M  V30 4259 H 417.096 -3.22104 2.13976 0
M  V30 4260 H 418.785 -3.15523 2.55343 0
M  V30 4261 H 419.551 -1.67867 4.55023 0
M  V30 4262 H 415.43 -2.63498 3.78272 0
M  V30 4263 H 418.974 -1.12125 6.8853 0
M  V30 4264 H 414.871 -2.08211 6.10998 0
M  V30 4265 H 415.639 -1.38822 8.06642 0
M  V30 4266 N 418.302 -1.35869 -0.798587 0
M  V30 4267 C 419.548 -1.2978 -1.55836 0
M  V30 4268 C 419.881 0.125322 -1.93795 0
M  V30 4269 O 419.156 1.07658 -1.61987 0
M  V30 4270 C 419.439 -2.21188 -2.84162 0
M  V30 4271 C 419.292 -3.72155 -2.52628 0
M  V30 4272 C 420.611 -2.11545 -3.85923 0
M  V30 4273 H 417.73 -0.472769 -0.565383 0
M  V30 4274 H 420.372 -1.66341 -0.918192 0
M  V30 4275 H 418.522 -1.90139 -3.38791 0
M  V30 4276 H 420.194 -4.13682 -2.04121 0
M  V30 4277 H 418.437 -3.92042 -1.85704 0
M  V30 4278 H 419.108 -4.31511 -3.44242 0
M  V30 4279 H 421.584 -2.38855 -3.40716 0
M  V30 4280 H 420.46 -2.77688 -4.73477 0
M  V30 4281 H 420.721 -1.09987 -4.282 0
M  V30 4282 N 419.78 1.02168 -1.19998 0
M  V30 4283 C 420.69 2.14069 -0.959774 0
M  V30 4284 C 421.706 1.73804 0.082655 0
M  V30 4285 O 422.882 2.01133 -0.103633 0
M  V30 4286 C 419.947 3.42936 -0.509459 0
M  V30 4287 C 419.008 3.97474 -1.62213 0
M  V30 4288 C 418.241 5.2019 -1.19321 0
M  V30 4289 O 418.464 5.70369 -0.0597726 0
M  V30 4290 O 417.398 5.67749 -1.99863 0
M  V30 4291 H 421.224 2.37199 -1.89658 0
M  V30 4292 H 418.809 1.12469 -0.983411 0
M  V30 4293 H 420.691 4.20551 -0.267322 0
M  V30 4294 H 419.366 3.21234 0.398821 0
M  V30 4295 H 418.273 3.21161 -1.9185 0
M  V30 4296 H 419.606 4.23555 -2.50723 0
M  V30 4297 N 421.258 1.00505 1.21394 0
M  V30 4298 C 422.483 0.706367 1.95001 0
M  V30 4299 C 422.908 -0.72463 1.73582 0
M  V30 4300 O 422.266 -1.49702 1.0227 0
M  V30 4301 C 422.314 1.03299 3.45487 0
M  V30 4302 O 421.418 0.138275 4.12168 0
M  V30 4303 H 420.759 0.263175 0.609619 0
M  V30 4304 H 423.289 1.34531 1.54151 0
M  V30 4305 H 423.299 0.979872 3.96059 0
M  V30 4306 H 421.974 2.07567 3.60401 0
M  V30 4307 H 420.551 0.247928 3.72075 0
M  V30 4308 N 422.737 -1.36956 0.779787 0
M  V30 4309 C 423.986 -1.98738 0.344405 0
M  V30 4310 C 424.299 -1.62596 -1.08728 0
M  V30 4311 O 425.505 -2.1754 -1.62445 0
M  V30 4312 C 423.961 -3.5544 0.564829 0
M  V30 4313 C 423.569 -4.00514 2.0073 0
M  V30 4314 C 425.313 -4.24059 0.193471 0
M  V30 4315 C 423.22 -5.49957 2.17489 0
M  V30 4316 H 422.15 -0.743561 0.12503 0
M  V30 4317 H 424.801 -1.56381 0.960057 0
M  V30 4318 H 423.183 -3.95817 -0.120397 0
M  V30 4319 H 424.357 -3.71362 2.72814 0
M  V30 4320 H 422.672 -3.44703 2.336 0
M  V30 4321 H 425.269 -5.33874 0.297097 0
M  V30 4322 H 425.612 -4.07378 -0.857263 0
M  V30 4323 H 426.145 -3.89012 0.831556 0
M  V30 4324 H 422.884 -5.71574 3.2091 0
M  V30 4325 H 422.404 -5.80767 1.49899 0
M  V30 4326 H 424.083 -6.16043 1.97738 0
M  V30 4327 N 424.215 -0.530993 -1.48385 0
M  V30 4328 C 425.178 0.220497 -2.28137 0
M  V30 4329 C 426.178 0.866851 -1.35434 0
M  V30 4330 O 427.368 0.726746 -1.58316 0
M  V30 4331 C 424.5 1.31921 -3.1434 0
M  V30 4332 H 425.693 -0.479714 -2.96038 0
M  V30 4333 H 423.246 -0.286968 -1.53643 0
M  V30 4334 H 423.981 2.05264 -2.51072 0
M  V30 4335 H 423.766 0.86085 -3.82533 0
M  V30 4336 H 425.256 1.84776 -3.74497 0
M  V30 4337 N 425.693 1.55336 -0.266172 0
M  V30 4338 C 426.97 1.91372 0.404486 0
M  V30 4339 C 427.35 1.18935 1.74407 0
M  V30 4340 O 426.698 0.3132 2.26343 0
M  V30 4341 C 426.908 3.44581 0.553593 0
M  V30 4342 C 428.256 4.16196 0.840618 0
M  V30 4343 O 429.28 3.50426 0.638739 0
M  V30 4344 O 428.139 5.32567 1.22618 0
M  V30 4345 H 425.233 0.797194 0.220025 0
M  V30 4346 H 427.779 1.66813 -0.311664 0
M  V30 4347 H 426.551 3.89357 -0.389498 0
M  V30 4348 H 426.174 3.75065 1.31955 0
M  V30 4349 N 427.171 -0.0066808 1.57599 0
M  V30 4350 C 428.101 -0.999296 2.11036 0
M  V30 4351 C 429.082 -1.36278 1.01795 0
M  V30 4352 O 430.267 -1.4477 1.29442 0
M  V30 4353 C 427.397 -2.29328 2.60818 0
M  V30 4354 C 426.351 -2.07159 3.74525 0
M  V30 4355 C 425.677 -3.42512 4.10596 0
M  V30 4356 C 426.977 -1.43959 5.02069 0
M  V30 4357 H 428.671 -0.554382 2.94223 0
M  V30 4358 H 426.217 -0.265221 1.41536 0
M  V30 4359 H 428.17 -2.99117 2.96828 0
M  V30 4360 H 426.894 -2.7592 1.74745 0
M  V30 4361 H 425.553 -1.39797 3.38899 0
M  V30 4362 H 425.201 -3.86795 3.21556 0
M  V30 4363 H 424.901 -3.28498 4.87199 0
M  V30 4364 H 426.425 -4.13628 4.4916 0
M  V30 4365 H 427.839 -2.03696 5.35893 0
M  V30 4366 H 426.236 -1.40452 5.83432 0
M  V30 4367 H 427.306 -0.407992 4.83181 0
M  V30 4368 N 428.649 -1.55105 -0.279332 0
M  V30 4369 C 429.877 -1.7943 -1.03017 0
M  V30 4370 C 430.292 -0.564456 -1.80165 0
M  V30 4371 O 429.649 0.466326 -1.76442 0
M  V30 4372 C 429.7 -3.0155 -1.99374 0
M  V30 4373 O 429.421 -4.19784 -1.25352 0
M  V30 4374 C 430.922 -3.3843 -2.86321 0
M  V30 4375 H 428.142 -0.597882 -0.304594 0
M  V30 4376 H 430.686 -2.02105 -0.312035 0
M  V30 4377 H 428.841 -2.81019 -2.66659 0
M  V30 4378 H 429.255 -4.88781 -1.90246 0
M  V30 4379 H 430.729 -4.27066 -3.49741 0
M  V30 4380 H 431.206 -2.57549 -3.5576 0
M  V30 4381 H 431.812 -3.61197 -2.24536 0
M  V30 4382 N 430.127 0.543554 -1.4793 0
M  V30 4383 C 431.037 1.67657 -1.64098 0
M  V30 4384 C 432.053 1.65934 -0.523622 0
M  V30 4385 O 433.229 1.85133 -0.792943 0
M  V30 4386 C 430.294 3.04146 -1.66421 0
M  V30 4387 C 429.355 3.16831 -2.89684 0
M  V30 4388 C 428.588 4.46809 -2.91886 0
M  V30 4389 O 428.811 5.33095 -2.02895 0
M  V30 4390 O 427.745 4.63573 -3.83906 0
M  V30 4391 H 431.571 1.56957 -2.59997 0
M  V30 4392 H 429.156 0.715116 -1.31173 0
M  V30 4393 H 431.038 3.85346 -1.70548 0
M  V30 4394 H 429.713 3.152 -0.736923 0
M  V30 4395 H 428.62 2.34977 -2.91095 0
M  V30 4396 H 429.953 3.10687 -3.81752 0
M  V30 4397 N 431.605 1.3629 0.791371 0
M  V30 4398 C 432.853 1.30154 1.5461 0
M  V30 4399 C 433.174 -0.119409 1.94634 0
M  V30 4400 O 432.444 -1.05924 1.64794 0
M  V30 4401 H 431.024 0.478784 0.573389 0
M  V30 4402 H 433.686 1.70565 0.94306 0
M  V30 4403 H 432.782 1.92762 2.45457 0
M  V30 4404 N 433.083 -1.0153 1.20538 0
M  V30 4405 C 434.013 -2.11972 0.979295 0
M  V30 4406 C 434.994 -1.6985 -0.0921787 0
M  V30 4407 O 436.179 -1.94089 0.0655932 0
M  V30 4408 C 433.309 -3.43201 0.531984 0
M  V30 4409 C 432.263 -3.9907 1.54685 0
M  V30 4410 C 431.589 -5.26082 0.956127 0
M  V30 4411 C 432.889 -4.32313 2.93092 0
M  V30 4412 H 434.583 -2.31143 1.90298 0
M  V30 4413 H 432.129 -1.11079 0.916372 0
M  V30 4414 H 434.082 -4.1985 0.361044 0
M  V30 4415 H 432.806 -3.23792 -0.427327 0
M  V30 4416 H 431.465 -3.2453 1.70517 0
M  V30 4417 H 431.113 -5.02999 -0.0111538 0
M  V30 4418 H 430.813 -5.64426 1.63393 0
M  V30 4419 H 432.337 -6.05386 0.796284 0
M  V30 4420 H 433.751 -4.99845 2.80763 0
M  V30 4421 H 432.148 -4.81774 3.57791 0
M  V30 4422 H 433.218 -3.41025 3.44717 0
M  V30 4423 N 434.561 -1.01147 -1.20859 0
M  V30 4424 C 435.471 -0.58686 -2.27141 0
M  V30 4425 C 436.487 0.373198 -1.69951 0
M  V30 4426 O 437.663 0.235423 -2.00019 0
M  V30 4427 C 434.728 0.0733602 -3.46622 0
M  V30 4428 C 433.789 -0.931995 -4.19061 0
M  V30 4429 C 433.022 -0.303186 -5.32838 0
M  V30 4430 O 433.245 0.898395 -5.63281 0
M  V30 4431 O 432.179 -1.01735 -5.9324 0
M  V30 4432 H 436.005 -1.47155 -2.65667 0
M  V30 4433 H 433.59 -0.780689 -1.2738 0
M  V30 4434 H 435.472 0.442333 -4.19072 0
M  V30 4435 H 434.147 0.932329 -3.09983 0
M  V30 4436 H 433.054 -1.35224 -3.48805 0
M  V30 4437 H 434.387 -1.76076 -4.59628 0
M  V30 4438 N 436.039 1.36541 -0.78704 0
M  V30 4439 C 437.316 1.9355 -0.282424 0
M  V30 4440 C 437.696 1.71919 1.22503 0
M  V30 4441 O 437.044 1.07677 2.01539 0
M  V30 4442 C 437.254 3.4246 -0.672462 0
M  V30 4443 C 438.602 4.19582 -0.650863 0
M  V30 4444 O 439.626 3.50889 -0.612789 0
M  V30 4445 O 438.485 5.42106 -0.691623 0
M  V30 4446 H 435.579 0.824091 -0.0693 0
M  V30 4447 H 438.125 1.45736 -0.869423 0
M  V30 4448 H 436.897 3.51851 -1.71221 0
M  V30 4449 H 436.52 3.97556 -0.0592211 0
M  V30 4450 O 437.556 0.680126 1.4648 0
M  V30 4451 H 438.247 0.213972 1.92515 0
M  V30 END ATOM
M  V30 BEGIN BOND
M  V30 END BOND
M  V30 END CTAB
M  END
$$$$
