drugbank_target|Q96I15 Selenocysteine lyase (DB00114)
 OpenBabel12092120563D

  0  0  0     0  0            999 V3000
M  V30 BEGIN CTAB
M  V30 COUNTS 6756 6828 0 0 0
M  V30 BEGIN ATOM
M  V30 1 H -0.908 1.98254 -0.117106 0
M  V30 2 N 0 1.576 0 0
M  V30 3 C 0.933 2.03868 1.02534 0
M  V30 4 C 1.911 0.928543 1.3348 0
M  V30 5 O 3.095 1.19667 1.45644 0
M  V30 6 C 0.222 2.43627 2.35294 0
M  V30 7 C -0.732 3.65373 2.2001 0
M  V30 8 S 0.101 5.13292 1.52614 0
M  V30 9 C 1.257 5.56322 2.86805 0
M  V30 10 H 1.49 2.90518 0.631377 0
M  V30 11 H -0.977 1.52953 0.210867 0
M  V30 12 H 0.981 2.67203 3.11629 0
M  V30 13 H -0.358 1.57376 2.7183 0
M  V30 14 H -1.165 3.90944 3.18086 0
M  V30 15 H -1.563 3.418 1.51819 0
M  V30 16 H 0.729 5.58782 3.83104 0
M  V30 17 H 1.672 6.56266 2.65933 0
M  V30 18 H 2.08 4.83886 2.90714 0
M  V30 19 N 1.4781 -0.272755 1.55222 0
M  V30 20 C 2.3881 -1.35918 1.91216 0
M  V30 21 C 3.4041 -1.54026 0.809436 0
M  V30 22 O 4.5801 -1.68148 1.10852 0
M  V30 23 C 1.6451 -2.69834 2.17693 0
M  V30 24 C 0.7061 -2.6047 3.41253 0
M  V30 25 C -0.0609 -3.88 3.66458 0
M  V30 26 O 0.1621 -4.88693 2.94169 0
M  V30 27 O -0.9039 -3.88189 4.59992 0
M  V30 28 H 2.9221 -1.0839 2.83699 0
M  V30 29 H 0.5071 -0.471301 1.41771 0
M  V30 30 H 2.3891 -3.49017 2.36147 0
M  V30 31 H 1.0641 -2.97148 1.28392 0
M  V30 32 H -0.0289 -1.79663 3.28134 0
M  V30 33 H 1.3041 -2.38106 4.30774 0
M  V30 34 N 2.9562 -1.48159 -0.537278 0
M  V30 35 C 3.9192 -1.61665 -1.62472 0
M  V30 36 C 4.9192 -0.490395 -1.5314 0
M  V30 37 O 6.1092 -0.755998 -1.5694 0
M  V30 38 C 3.2412 -1.57997 -3.02076 0
M  V30 39 H 4.4342 -2.58621 -1.51839 0
M  V30 40 H 1.9872 -1.36647 -0.758771 0
M  V30 41 H 2.7222 -0.624913 -3.18222 0
M  V30 42 H 2.5072 -2.39755 -3.10258 0
M  V30 43 H 3.9972 -1.70627 -3.81151 0
M  V30 44 N 4.4343 0.785586 -1.36625 0
M  V30 45 C 5.3973 1.87999 -1.31107 0
M  V30 46 C 6.3973 1.59316 -0.217959 0
M  V30 47 O 7.5873 1.67656 -0.472977 0
M  V30 48 C 4.7193 3.24861 -1.03334 0
M  V30 49 H 5.9123 1.94307 -2.2844 0
M  V30 50 H 3.4653 0.983813 -1.21453 0
M  V30 51 H 4.2003 3.24235 -0.0647432 0
M  V30 52 H 3.9853 3.4707 -1.82441 0
M  V30 53 H 5.4753 4.04929 -1.02088 0
M  V30 54 N 5.9124 1.20967 1.01018 0
M  V30 55 C 7.1584 1.02526 1.74975 0
M  V30 56 C 7.4914 -0.4408 1.89131 0
M  V30 57 O 6.7664 -1.32718 1.42184 0
M  V30 58 C 7.0494 1.71699 3.1653 0
M  V30 59 C 6.9024 3.25791 3.10129 0
M  V30 60 C 8.2214 1.45531 4.15342 0
M  V30 61 H 5.3404 0.373863 0.635134 0
M  V30 62 H 7.9824 1.49071 1.17805 0
M  V30 63 H 6.1324 1.32128 3.65341 0
M  V30 64 H 7.8044 3.74697 2.69072 0
M  V30 65 H 6.0474 3.56363 2.47362 0
M  V30 66 H 6.7184 3.69353 4.10222 0
M  V30 67 H 9.1944 1.79872 3.75213 0
M  V30 68 H 8.0704 1.96453 5.1254 0
M  V30 69 H 8.3314 0.384237 4.40427 0
M  V30 70 N 7.3905 -1.2043 1.01659 0
M  V30 71 C 8.3535 -2.21433 0.591616 0
M  V30 72 C 9.3535 -1.57203 -0.338226 0
M  V30 73 O 10.5435 -1.73737 -0.126918 0
M  V30 74 C 7.6755 -3.40628 -0.136058 0
M  V30 75 H 8.8685 -2.60545 1.48514 0
M  V30 76 H 6.4215 -1.33893 0.806379 0
M  V30 77 H 7.1565 -3.07019 -1.04449 0
M  V30 78 H 6.9415 -3.88475 0.531917 0
M  V30 79 H 8.4315 -4.15475 -0.420735 0
M  V30 80 N 8.8686 -0.792821 -1.36206 0
M  V30 81 C 10.2796 -0.429513 -1.81692 0
M  V30 82 C 10.6306 1.04695 -1.65932 0
M  V30 83 O 9.7556 1.81256 -1.18218 0
M  V30 84 C 10.3506 -0.772831 -3.29868 0
M  V30 85 C 8.9096 -0.462307 -3.7355 0
M  V30 86 C 8.0566 -1.00569 -2.5842 0
M  V30 87 H 11.0076 -0.985672 -1.24379 0
M  V30 88 H 11.0286 -0.0651928 -3.80444 0
M  V30 89 H 10.5406 -1.84747 -3.41307 0
M  V30 90 H 8.6416 0.604158 -3.67669 0
M  V30 91 H 8.7546 -0.985299 -4.68859 0
M  V30 92 H 7.1186 -0.428734 -2.51066 0
M  V30 93 H 7.9016 -2.08616 -2.72643 0
M  V30 94 N 10.3467 1.47872 -0.545128 0
M  V30 95 C 11.5947 2.02093 -0.016553 0
M  V30 96 C 11.9157 1.42305 1.3332 0
M  V30 97 O 11.1857 0.593853 1.86682 0
M  V30 98 H 9.7657 0.746993 -0.00313038 0
M  V30 99 H 12.4277 1.81414 -0.712397 0
M  V30 100 H 11.5237 3.11996 0.0805422 0
M  V30 101 N 11.8248 0.280983 1.55075 0
M  V30 102 C 13.2408 -0.0729964 1.59433 0
M  V30 103 C 13.4408 -1.5411 1.29817 0
M  V30 104 O 12.4968 -2.29086 1.06187 0
M  V30 105 C 13.8098 0.306921 2.9913 0
M  V30 106 C 15.3578 0.254023 3.11968 0
M  V30 107 C 15.8328 0.608467 4.5394 0
M  V30 108 N 17.3238 0.560241 4.59799 0
M  V30 109 C 18.0588 0.80722 5.6769 0
M  V30 110 N 17.5548 1.11912 6.83701 0
M  V30 111 N 19.3478 0.735623 5.57266 0
M  V30 112 H 11.4988 1.238 1.7259 0
M  V30 113 H 13.7618 0.500547 0.805082 0
M  V30 114 H 13.4678 1.32816 3.25657 0
M  V30 115 H 13.3418 -0.349363 3.75579 0
M  V30 116 H 15.7288 -0.75794 2.852 0
M  V30 117 H 15.8098 0.944649 2.37718 0
M  V30 118 H 15.4538 1.61814 4.81434 0
M  V30 119 H 15.3838 -0.104013 5.26497 0
M  V30 120 H 17.8748 0.329288 3.76463 0
M  V30 121 H 18.1878 1.29409 7.61888 0
M  V30 122 H 16.5328 1.15695 6.85303 0
M  V30 123 H 19.7238 0.491752 4.6551 0
M  V30 124 H 19.8968 0.931482 6.4127 0
M  V30 125 N 13.3029 -1.57598 0.00835791 0
M  V30 126 C 14.5799 -1.82172 -0.712235 0
M  V30 127 C 14.9599 -0.887873 -1.9152 0
M  V30 128 O 14.3079 0.06146 -2.28417 0
M  V30 129 C 14.5179 -3.30875 -1.11008 0
M  V30 130 C 15.8659 -3.96826 -1.51044 0
M  V30 131 O 16.8899 -3.35248 -1.20364 0
M  V30 132 O 15.7489 -5.05318 -2.08125 0
M  V30 133 H 12.8429 -0.750435 -0.347529 0
M  V30 134 H 15.3889 -1.69665 0.0344523 0
M  V30 135 H 14.1609 -3.90481 -0.252982 0
M  V30 136 H 13.7839 -3.48412 -1.9156 0
M  V30 137 N 14.781 0.264519 -1.55364 0
M  V30 138 C 15.744 1.31046 -1.88042 0
M  V30 139 C 16.744 1.41943 -0.755569 0
M  V30 140 O 17.934 1.40947 -1.02369 0
M  V30 141 C 15.066 2.69067 -2.09323 0
M  V30 142 H 16.259 1.03297 -2.81549 0
M  V30 143 H 13.812 0.502989 -1.47986 0
M  V30 144 H 14.547 3.01982 -1.18226 0
M  V30 145 H 14.332 2.62542 -2.91229 0
M  V30 146 H 15.822 3.44623 -2.35848 0
M  V30 147 N 16.2591 1.48442 0.529413 0
M  V30 148 C 17.6701 1.5002 1.11134 0
M  V30 149 C 18.0211 0.27031 1.94329 0
M  V30 150 O 17.1461 -0.622507 2.07253 0
M  V30 151 C 17.7411 2.71834 2.02217 0
M  V30 152 C 16.3001 2.76283 2.55627 0
M  V30 153 C 15.4471 2.43542 1.326 0
M  V30 154 H 18.3981 1.5555 0.314641 0
M  V30 155 H 18.4191 2.50384 2.8651 0
M  V30 156 H 17.9311 3.61331 1.41639 0
M  V30 157 H 16.0321 1.90995 3.19924 0
M  V30 158 H 16.1451 3.77725 2.94721 0
M  V30 159 H 14.5091 1.94709 1.64196 0
M  V30 160 H 15.2921 3.3528 0.737734 0
M  V30 161 N 17.7372 -0.778329 1.37039 0
M  V30 162 C 18.7002 -1.87301 1.32102 0
M  V30 163 C 19.7002 -1.59198 0.226405 0
M  V30 164 O 20.8902 -1.67403 0.481861 0
M  V30 165 C 18.0222 -3.24309 1.05055 0
M  V30 166 H 19.2152 -1.93093 2.29467 0
M  V30 167 H 16.7682 -0.977358 1.21973 0
M  V30 168 H 17.5032 -3.24196 0.0819373 0
M  V30 169 H 17.2882 -3.46098 1.84279 0
M  V30 170 H 18.7782 -4.04382 1.04234 0
M  V30 171 N 19.2153 -1.21501 -1.00376 0
M  V30 172 C 20.6263 -1.03146 -1.55621 0
M  V30 173 C 20.9773 0.408375 -1.91903 0
M  V30 174 O 20.1023 1.29177 -1.73616 0
M  V30 175 C 20.6973 -1.86612 -2.82775 0
M  V30 176 C 19.2563 -1.72586 -3.34501 0
M  V30 177 C 18.4033 -1.83747 -2.07683 0
M  V30 178 H 21.3543 -1.35505 -0.826081 0
M  V30 179 H 21.3753 -1.3771 -3.54706 0
M  V30 180 H 20.8873 -2.91399 -2.56336 0
M  V30 181 H 18.9883 -0.704877 -3.65872 0
M  V30 182 H 19.1013 -2.54623 -4.05837 0
M  V30 183 H 17.4653 -1.27069 -2.20739 0
M  V30 184 H 18.2483 -2.90044 -1.83655 0
M  V30 185 N 20.6934 1.19889 -1.02296 0
M  V30 186 C 21.6564 2.21116 -0.603351 0
M  V30 187 C 22.6564 1.5738 0.329884 0
M  V30 188 O 23.8464 1.73802 0.117702 0
M  V30 189 C 20.9784 3.40696 0.117992 0
M  V30 190 H 22.1714 2.59754 -1.49893 0
M  V30 191 H 19.7244 1.33463 -0.813468 0
M  V30 192 H 20.4594 3.07569 1.0282 0
M  V30 193 H 20.2444 3.88188 -0.552511 0
M  V30 194 H 21.7344 4.15692 0.398696 0
M  V30 195 N 22.1715 0.800033 1.35784 0
M  V30 196 C 23.1345 0.211565 2.28221 0
M  V30 197 C 24.1345 -0.59728 1.49296 0
M  V30 198 O 25.3245 -0.416721 1.69142 0
M  V30 199 C 22.4565 -0.705846 3.33513 0
M  V30 200 H 23.6495 1.02677 2.81776 0
M  V30 201 H 21.2025 0.570211 1.45528 0
M  V30 202 H 21.9375 -1.54498 2.85133 0
M  V30 203 H 21.7225 -0.127655 3.91892 0
M  V30 204 H 23.2125 -1.11211 4.02519 0
M  V30 205 N 23.6496 -1.47581 0.552962 0
M  V30 206 C 24.8746 -2.07378 0.0300593 0
M  V30 207 C 25.2996 -1.40355 -1.25229 0
M  V30 208 O 24.6576 -0.477099 -1.7491 0
M  V30 209 C 24.7056 -3.60274 -0.153231 0
M  V30 210 O 23.8096 -3.94041 -1.21678 0
M  V30 211 H 23.1506 -0.662158 0.0494182 0
M  V30 212 H 25.6806 -1.89662 0.767434 0
M  V30 213 H 25.6906 -4.0633 -0.368761 0
M  V30 214 H 24.3656 -4.08455 0.783397 0
M  V30 215 H 22.9426 -3.59735 -0.982079 0
M  V30 216 N 25.1277 -0.289203 -1.54924 0
M  V30 217 C 26.0597 0.625583 -2.20497 0
M  V30 218 C 27.0727 1.10667 -1.19402 0
M  V30 219 O 28.2617 1.02615 -1.46056 0
M  V30 220 C 25.3617 1.86702 -2.82835 0
M  V30 221 C 24.5347 1.5304 -4.09753 0
M  V30 222 C 23.5937 2.62576 -4.56005 0
M  V30 223 O 22.6197 2.28167 -5.21468 0
M  V30 224 N 23.8217 3.92901 -4.27328 0
M  V30 225 H 26.5867 0.0642801 -2.99631 0
M  V30 226 H 24.1477 -0.110896 -1.6152 0
M  V30 227 H 26.1397 2.59304 -3.10715 0
M  V30 228 H 24.7097 2.33702 -2.07611 0
M  V30 229 H 23.9297 0.637564 -3.8901 0
M  V30 230 H 25.2177 1.28072 -4.92418 0
M  V30 231 H 24.6157 4.23671 -3.74859 0
M  V30 232 H 23.1727 4.61837 -4.59946 0
M  V30 233 N 26.6058 1.57591 -0.0167156 0
M  V30 234 C 28.0168 1.79201 0.523834 0
M  V30 235 C 28.3678 0.925796 1.72984 0
M  V30 236 O 27.4928 0.132792 2.15992 0
M  V30 237 C 28.0878 3.25 0.957091 0
M  V30 238 C 26.6468 3.47648 1.44283 0
M  V30 239 C 25.7938 2.74374 0.401757 0
M  V30 240 H 28.7448 1.56831 -0.242816 0
M  V30 241 H 28.7658 3.34031 1.82219 0
M  V30 242 H 28.2778 3.88019 0.0791415 0
M  V30 243 H 26.3788 2.89866 2.34113 0
M  V30 244 H 26.4918 4.56352 1.45877 0
M  V30 245 H 24.8558 2.39485 0.867121 0
M  V30 246 H 25.6388 3.40102 -0.467513 0
M  V30 247 N 28.0839 -0.256276 1.55502 0
M  V30 248 C 29.3089 -1.00766 1.81276 0
M  V30 249 C 29.7339 -1.78524 0.59252 0
M  V30 250 O 29.0919 -1.75413 -0.45827 0
M  V30 251 C 29.1399 -1.92869 3.04687 0
M  V30 252 O 28.2439 -3.019 2.80945 0
M  V30 253 H 27.5849 -0.287224 0.598664 0
M  V30 254 H 30.1149 -0.280109 2.02674 0
M  V30 255 H 30.1249 -2.34511 3.33869 0
M  V30 256 H 28.7999 -1.35689 3.93143 0
M  V30 257 H 27.3769 -2.64454 2.62904 0
M  V30 258 N 29.562 -1.4872 -0.521534 0
M  V30 259 C 30.81 -1.56857 -1.27437 0
M  V30 260 C 31.131 -0.247982 -1.93417 0
M  V30 261 O 30.401 0.731151 -1.81744 0
M  V30 262 H 28.981 -0.577885 -0.473347 0
M  V30 263 H 31.643 -1.85233 -0.606205 0
M  V30 264 H 30.739 -2.35402 -2.0492 0
M  V30 265 N 31.0401 0.771051 -1.3745 0
M  V30 266 C 32.2801 1.54264 -1.34096 0
M  V30 267 C 32.6441 1.91858 0.0737639 0
M  V30 268 O 33.8451 2.67797 0.23203 0
M  V30 269 C 32.1161 2.77326 -2.25445 0
M  V30 270 S 33.6751 3.67383 -2.39948 0
M  V30 271 H 30.4931 0.528122 -0.476034 0
M  V30 272 H 33.0951 0.906633 -1.73206 0
M  V30 273 H 31.7991 2.47788 -3.27153 0
M  V30 274 H 31.3301 3.45886 -1.87421 0
M  V30 275 H 33.3451 4.69334 -1.61059 0
M  V30 276 N 32.5182 1.22032 0.997298 0
M  V30 277 C 33.7662 1.04016 1.73278 0
M  V30 278 C 34.0872 -0.426255 1.90284 0
M  V30 279 O 33.3572 -1.30694 1.45931 0
M  V30 280 H 31.9372 0.381897 0.642 0
M  V30 281 H 34.5992 1.5347 1.20137 0
M  V30 282 H 33.6952 1.51441 2.72896 0
M  V30 283 N 33.9963 -1.19345 1.0293 0
M  V30 284 C 34.9433 -2.2258 0.610464 0
M  V30 285 C 35.9133 -1.6179 -0.375946 0
M  V30 286 O 37.0983 -1.88844 -0.272511 0
M  V30 287 C 34.2383 -3.45085 -0.0321473 0
M  V30 288 C 33.3513 -4.20258 1.00035 0
M  V30 289 C 32.4863 -5.3019 0.32746 0
M  V30 290 C 31.5253 -5.97121 1.34584 0
M  V30 291 N 30.6623 -6.98615 0.698726 0
M  V30 292 H 35.5023 -2.57764 1.49538 0
M  V30 293 H 33.0393 -1.26644 0.748311 0
M  V30 294 H 34.9973 -4.15061 -0.421966 0
M  V30 295 H 33.6273 -3.10555 -0.88064 0
M  V30 296 H 32.6793 -3.49223 1.50823 0
M  V30 297 H 33.9913 -4.66175 1.77433 0
M  V30 298 H 33.1453 -6.06587 -0.11718 0
M  V30 299 H 31.8843 -4.85345 -0.478713 0
M  V30 300 H 30.8893 -5.19474 1.80074 0
M  V30 301 H 32.1143 -6.4405 2.15352 0
M  V30 302 H 30.0603 -6.55942 -0.0873471 0
M  V30 303 H 29.9773 -7.42724 1.41058 0
M  V30 304 H 31.2453 -7.79004 0.278102 0
M  V30 305 N 35.4744 -0.807222 -1.35358 0
M  V30 306 C 36.4244 -0.190706 -2.27201 0
M  V30 307 C 37.4084 0.635838 -1.47804 0
M  V30 308 O 38.6004 0.492991 -1.69996 0
M  V30 309 C 35.7294 0.659337 -3.36909 0
M  V30 310 C 34.8154 -0.176971 -4.23731 0
M  V30 311 N 35.2064 -1.24029 -4.90357 0
M  V30 312 C 33.5044 0.0412953 -4.45981 0
M  V30 313 C 34.2054 -1.75092 -5.54723 0
M  V30 314 N 33.1814 -1.05727 -5.33219 0
M  V30 315 H 36.9834 -1.0043 -2.76208 0
M  V30 316 H 34.4974 -0.648445 -1.48892 0
M  V30 317 H 36.4944 1.11706 -4.01656 0
M  V30 318 H 35.1544 1.47127 -2.89454 0
M  V30 319 H 36.1654 -1.62295 -4.91814 0
M  V30 320 H 32.8424 0.82232 -4.09322 0
M  V30 321 H 34.2324 -2.63963 -6.17878 0
M  V30 322 N 36.9525 1.47285 -0.560781 0
M  V30 323 C 37.9005 2.31756 0.197942 0
M  V30 324 C 38.8945 1.43146 0.905854 0
M  V30 325 O 40.1005 1.59891 0.826733 0
M  V30 326 H 36.4755 0.747438 0.0827049 0
M  V30 327 H 38.4465 2.9359 -0.533629 0
M  V30 328 C 37.1955 3.25874 1.21249 0
M  V30 329 H 36.5185 3.94023 0.67719 0
M  V30 330 H 37.9585 3.87803 1.71419 0
M  V30 331 C 36.4175 2.49651 2.26221 0
M  V30 332 O 36.9475 2.24355 3.33208 0
M  V30 333 N 35.1535 2.10597 2.00243 0
M  V30 334 H 34.7005 2.31369 1.13252 0
M  V30 335 H 34.6585 1.59913 2.70694 0
M  V30 336 N 38.4306 0.297415 1.54768 0
M  V30 337 C 39.6556 -0.318435 2.04941 0
M  V30 338 C 40.0806 -1.4701 1.17345 0
M  V30 339 O 39.4386 -1.80436 0.176758 0
M  V30 340 C 39.4866 -0.755749 3.52592 0
M  V30 341 O 38.5906 -1.86088 3.68028 0
M  V30 342 H 37.9316 -0.062421 0.661059 0
M  V30 343 H 40.4616 0.438215 1.99852 0
M  V30 344 H 40.4716 -1.04552 3.94376 0
M  V30 345 H 39.1466 0.0867233 4.1581 0
M  V30 346 H 37.7236 -1.57193 3.38149 0
M  V30 347 N 39.9087 -1.5758 0.0250728 0
M  V30 348 C 41.3197 -1.79476 -0.514323 0
M  V30 349 C 41.6707 -0.934956 -1.72491 0
M  V30 350 O 40.7957 -0.144245 -2.15919 0
M  V30 351 C 41.3907 -3.25503 -0.939842 0
M  V30 352 C 39.9497 -3.48408 -1.42438 0
M  V30 353 C 39.0967 -2.74583 -0.387201 0
M  V30 354 H 42.0477 -1.567 0.25113 0
M  V30 355 H 42.0687 -3.34992 -1.80445 0
M  V30 356 H 41.5807 -3.88056 -0.0585628 0
M  V30 357 H 39.6817 -2.91103 -2.32572 0
M  V30 358 H 39.7947 -4.57119 -1.43455 0
M  V30 359 H 38.1587 -2.39942 -0.854409 0
M  V30 360 H 38.9417 -3.39849 0.485543 0
M  V30 361 N 41.3868 0.248026 -1.55636 0
M  V30 362 C 42.2968 1.32859 -1.93354 0
M  V30 363 C 43.3128 1.52719 -0.833838 0
M  V30 364 O 44.4888 1.66363 -1.13513 0
M  V30 365 C 41.5538 2.66337 -2.21958 0
M  V30 366 C 40.6148 2.55008 -3.45354 0
M  V30 367 C 39.8478 3.82121 -3.72584 0
M  V30 368 O 40.0708 4.83951 -3.01907 0
M  V30 369 O 39.0048 3.80822 -4.6611 0
M  V30 370 H 42.8308 1.03862 -2.85388 0
M  V30 371 H 40.4158 0.448686 -1.42503 0
M  V30 372 H 42.2978 3.45216 -2.4167 0
M  V30 373 H 40.9728 2.95068 -1.33103 0
M  V30 374 H 39.8798 1.7442 -3.30951 0
M  V30 375 H 41.2128 2.31222 -4.34508 0
M  V30 376 N 42.8649 1.48995 0.513639 0
M  V30 377 C 44.2809 1.35478 0.843682 0
M  V30 378 C 44.4809 0.378213 1.97919 0
M  V30 379 O 43.5369 -0.194689 2.51748 0
M  V30 380 C 44.8499 2.75901 1.1958 0
M  V30 381 C 46.3979 2.84509 1.30474 0
M  V30 382 C 46.8729 4.25671 1.69021 0
M  V30 383 N 48.3639 4.28422 1.76094 0
M  V30 384 C 49.0989 5.34601 2.07338 0
M  V30 385 N 48.5949 6.5104 2.36894 0
M  V30 386 N 50.3879 5.22007 2.08483 0
M  V30 387 H 42.5389 2.11092 -0.235328 0
M  V30 388 H 44.8019 0.947039 -0.0426669 0
M  V30 389 H 44.5079 3.49001 0.434913 0
M  V30 390 H 44.3819 3.10467 2.1422 0
M  V30 391 H 46.7689 2.11655 2.05637 0
M  V30 392 H 46.8499 2.53542 0.339155 0
M  V30 393 H 46.4939 4.99048 0.944135 0
M  V30 394 H 46.4239 4.54094 2.66658 0
M  V30 395 H 48.9149 3.44441 1.55464 0
M  V30 396 H 49.2279 7.2779 2.59887 0
M  V30 397 H 47.5729 6.54287 2.34378 0
M  V30 398 H 50.7639 4.30051 1.84861 0
M  V30 399 H 50.9369 6.04854 2.325 0
M  V30 400 N 44.343 -0.763751 1.37857 0
M  V30 401 C 45.29 -1.87726 1.34267 0
M  V30 402 C 46.26 -1.64807 0.206879 0
M  V30 403 O 47.445 -1.86613 0.397508 0
M  V30 404 C 44.585 -3.24896 1.16346 0
M  V30 405 C 43.698 -3.59716 2.39225 0
M  V30 406 C 42.833 -4.86137 2.14114 0
M  V30 407 C 41.872 -5.13711 3.32817 0
M  V30 408 N 41.009 -6.31323 3.07206 0
M  V30 409 H 45.849 -1.90129 2.29466 0
M  V30 410 H 43.386 -0.929433 1.14017 0
M  V30 411 H 45.344 -4.04036 1.03975 0
M  V30 412 H 43.974 -3.21847 0.247909 0
M  V30 413 H 43.026 -2.75498 2.62307 0
M  V30 414 H 44.338 -3.76027 3.27728 0
M  V30 415 H 43.492 -5.73198 1.9882 0
M  V30 416 H 42.231 -4.71945 1.22961 0
M  V30 417 H 41.236 -4.25123 3.48641 0
M  V30 418 H 42.461 -5.29807 4.24832 0
M  V30 419 H 40.407 -6.18474 2.1869 0
M  V30 420 H 40.324 -6.48087 3.89254 0
M  V30 421 H 41.592 -7.213 2.95546 0
M  V30 422 N 45.8211 -1.22559 -0.990812 0
M  V30 423 C 47.0671 -1.05297 -1.73322 0
M  V30 424 C 47.4001 0.410655 -1.89808 0
M  V30 425 O 46.6751 1.30439 -1.44277 0
M  V30 426 C 46.9581 -1.76713 -3.13759 0
M  V30 427 C 46.8111 -3.30684 -3.04907 0
M  V30 428 C 48.1301 -1.52121 -4.12974 0
M  V30 429 H 45.2491 -0.38392 -0.629106 0
M  V30 430 H 47.8911 -1.50926 -1.15418 0
M  V30 431 H 46.0411 -1.37924 -3.63193 0
M  V30 432 H 47.7131 -3.7893 -2.63077 0
M  V30 433 H 45.9561 -3.60253 -2.41661 0
M  V30 434 H 46.6271 -3.75833 -4.04294 0
M  V30 435 H 49.1031 -1.85819 -3.72304 0
M  V30 436 H 47.9791 -2.04582 -5.0935 0
M  V30 437 H 48.2401 -0.454257 -4.3976 0
M  V30 438 N 47.2992 1.18797 -1.03562 0
M  V30 439 C 48.5292 1.92319 -0.754773 0
M  V30 440 C 48.9372 1.7612 0.691248 0
M  V30 441 O 48.2802 1.08491 1.48241 0
M  V30 442 C 48.3422 3.44284 -1.03484 0
M  V30 443 C 48.0062 3.84258 -2.47376 0
M  V30 444 C 49.0032 3.88459 -3.45537 0
M  V30 445 C 46.6882 4.15701 -2.81954 0
M  V30 446 C 48.6822 4.23545 -4.76328 0
M  V30 447 C 46.3692 4.50458 -4.12954 0
M  V30 448 C 47.3672 4.54356 -5.09951 0
M  V30 449 O 47.0552 4.88305 -6.38603 0
M  V30 450 H 46.7872 0.617527 -0.275021 0
M  V30 451 H 49.3412 1.51683 -1.38497 0
M  V30 452 H 47.5712 3.85135 -0.347513 0
M  V30 453 H 49.2602 3.99049 -0.7426 0
M  V30 454 H 50.0262 3.6431 -3.20162 0
M  V30 455 H 45.9052 4.11847 -2.0713 0
M  V30 456 H 49.4492 4.26502 -5.52035 0
M  V30 457 H 45.3462 4.74067 -4.38099 0
M  V30 458 H 46.1142 5.06227 -6.43177 0
M  V30 459 N 48.7773 0.814389 1.34928 0
M  V30 460 C 49.7103 0.175641 2.27523 0
M  V30 461 C 50.6883 -0.662953 1.48471 0
M  V30 462 O 51.8723 -0.628545 1.77712 0
M  V30 463 C 48.9993 -0.755516 3.30166 0
M  V30 464 C 48.0453 0.00445305 4.265 0
M  V30 465 S 48.8783 1.34582 5.18313 0
M  V30 466 C 50.0343 0.419315 6.24494 0
M  V30 467 H 50.2673 0.960691 2.8135 0
M  V30 468 H 47.8003 0.609846 1.41846 0
M  V30 469 H 49.7583 -1.28723 3.89796 0
M  V30 470 H 48.4193 -1.51402 2.75202 0
M  V30 471 H 47.6123 -0.703077 4.99072 0
M  V30 472 H 47.2143 0.466447 3.7108 0
M  V30 473 H 49.5063 -0.392432 6.76362 0
M  V30 474 H 50.4493 1.11446 6.99275 0
M  V30 475 H 50.8573 0.0115389 5.64499 0
M  V30 476 N 50.2554 -1.46986 0.568584 0
M  V30 477 C 51.5324 -1.95592 -0.0174074 0
M  V30 478 C 51.9124 -1.51124 -1.47393 0
M  V30 479 O 51.2604 -0.755329 -2.15655 0
M  V30 480 C 51.4704 -3.48719 0.139913 0
M  V30 481 C 52.8184 -4.246 0.000426376 0
M  V30 482 O 53.8424 -3.56135 0.0680316 0
M  V30 483 O 52.7014 -5.46302 -0.146988 0
M  V30 484 H 49.7954 -0.82498 -0.0577599 0
M  V30 485 H 52.3414 -1.57335 0.635909 0
M  V30 486 H 51.1134 -3.73927 1.15301 0
M  V30 487 H 50.7364 -3.93771 -0.550491 0
M  V30 488 N 51.7335 -0.305618 -1.54608 0
M  V30 489 C 52.9635 0.304333 -2.04346 0
M  V30 490 C 53.3715 1.47715 -1.18224 0
M  V30 491 O 52.7145 1.82591 -0.201577 0
M  V30 492 C 52.7765 0.819031 -3.50046 0
M  V30 493 C 52.4405 -0.22912 -4.56425 0
M  V30 494 C 53.4375 -1.05914 -5.08997 0
M  V30 495 C 51.1225 -0.372148 -5.0092 0
M  V30 496 C 53.1165 -2.01809 -6.04609 0
M  V30 497 C 50.8035 -1.33454 -5.9635 0
M  V30 498 C 51.8015 -2.15599 -6.48079 0
M  V30 499 O 51.4895 -3.10205 -7.41639 0
M  V30 500 H 51.2215 0.0693996 -0.672428 0
M  V30 501 H 53.7755 -0.444548 -2.00532 0
M  V30 502 H 52.0055 1.61852 -3.51199 0
M  V30 503 H 53.6945 1.34537 -3.82955 0
M  V30 504 H 54.4605 -0.959538 -4.75413 0
M  V30 505 H 50.3395 0.257304 -4.60281 0
M  V30 506 H 53.8835 -2.65966 -6.44909 0
M  V30 507 H 49.7805 -1.43485 -6.29351 0
M  V30 508 H 50.5485 -3.05237 -7.59455 0
M  V30 509 N 53.2116 1.57565 -0.0334293 0
M  V30 510 C 54.1596 2.1164 0.96496 0
M  V30 511 C 55.1536 1.04398 1.33407 0
M  V30 512 O 56.3596 1.22828 1.3158 0
M  V30 513 H 52.7346 0.676222 0.32898 0
M  V30 514 H 54.7056 2.94455 0.483614 0
M  V30 515 C 53.4546 2.66207 2.23672 0
M  V30 516 H 52.7776 3.48378 1.96145 0
M  V30 517 H 54.2176 3.07685 2.9173 0
M  V30 518 C 52.6766 1.59151 2.96939 0
M  V30 519 O 53.2066 0.993858 3.89211 0
M  V30 520 N 51.4126 1.31093 2.59351 0
M  V30 521 H 50.9596 1.7988 1.84393 0
M  V30 522 H 50.9176 0.596889 3.08682 0
M  V30 523 N 54.6897 -0.239769 1.55765 0
M  V30 524 C 55.6527 -1.28038 1.90103 0
M  V30 525 C 56.6527 -1.40723 0.778055 0
M  V30 526 O 57.8427 -1.39301 1.04599 0
M  V30 527 C 54.9747 -2.65702 2.13577 0
M  V30 528 H 56.1677 -0.988048 2.83157 0
M  V30 529 H 53.7207 -0.479382 1.48767 0
M  V30 530 H 54.4557 -3.00063 1.23015 0
M  V30 531 H 54.2407 -2.57875 2.95369 0
M  V30 532 H 55.7307 -3.40828 2.41301 0
M  V30 533 N 56.1678 -1.49265 -0.50573 0
M  V30 534 C 57.3958 -1.62215 -1.28429 0
M  V30 535 C 57.8108 -0.291697 -1.86533 0
M  V30 536 O 57.1678 0.722233 -1.67601 0
M  V30 537 C 57.2188 -2.68735 -2.41793 0
M  V30 538 O 56.9398 -3.96619 -1.86078 0
M  V30 539 C 58.4408 -2.92346 -3.3324 0
M  V30 540 H 55.6608 -0.546239 -0.389697 0
M  V30 541 H 58.2048 -1.95265 -0.607609 0
M  V30 542 H 56.3598 -2.38476 -3.053 0
M  V30 543 H 56.7738 -4.55256 -2.60465 0
M  V30 544 H 58.2478 -3.70623 -4.09075 0
M  V30 545 H 58.7248 -2.02081 -3.89948 0
M  V30 546 H 59.3308 -3.24003 -2.75503 0
M  V30 547 N 57.6459 0.756429 -1.3826 0
M  V30 548 C 58.8739 1.54565 -1.3754 0
M  V30 549 C 59.2889 1.88767 0.0355331 0
M  V30 550 O 58.6459 1.52572 1.0014 0
M  V30 551 C 58.6969 2.84654 -2.22833 0
M  V30 552 O 58.4179 2.51912 -3.5843 0
M  V30 553 C 59.9189 3.78807 -2.30261 0
M  V30 554 H 57.1389 0.478353 -0.470553 0
M  V30 555 H 59.6829 0.936381 -1.81803 0
M  V30 556 H 57.8379 3.41965 -1.8204 0
M  V30 557 H 58.2519 3.35325 -4.03308 0
M  V30 558 H 59.7259 4.67045 -2.94233 0
M  V30 559 H 60.2029 4.19038 -1.31545 0
M  V30 560 H 60.8089 3.2742 -2.71433 0
M  V30 561 N 59.124 1.23083 0.984299 0
M  V30 562 C 60.535 1.05609 1.5396 0
M  V30 563 C 60.886 -0.377793 1.92528 0
M  V30 564 O 60.011 -1.26398 1.75649 0
M  V30 565 C 60.606 1.91087 2.7977 0
M  V30 566 C 59.165 1.77885 3.31713 0
M  V30 567 C 58.312 1.87028 2.04733 0
M  V30 568 H 61.263 1.36802 0.804419 0
M  V30 569 H 61.284 1.43336 3.5247 0
M  V30 570 H 60.796 2.9544 2.51668 0
M  V30 571 H 58.897 0.762995 3.64704 0
M  V30 572 H 59.01 2.61047 4.01735 0
M  V30 573 H 57.374 1.30565 2.18689 0
M  V30 574 H 58.157 2.92929 1.79017 0
M  V30 575 N 60.6021 -1.18246 1.0419 0
M  V30 576 C 61.5321 -2.24127 0.654914 0
M  V30 577 C 62.5131 -1.66617 -0.342451 0
M  V30 578 O 63.6981 -1.92924 -0.222277 0
M  V30 579 C 60.8281 -3.47295 0.0183757 0
M  V30 580 C 59.7821 -4.17563 0.939414 0
M  V30 581 C 59.1081 -5.34438 0.167286 0
M  V30 582 C 60.4081 -4.70917 2.25908 0
M  V30 583 H 62.1021 -2.56753 1.54007 0
M  V30 584 H 59.6481 -1.23414 0.74195 0
M  V30 585 H 61.6011 -4.20572 -0.264082 0
M  V30 586 H 60.3251 -3.13907 -0.901664 0
M  V30 587 H 58.9841 -3.46186 1.20628 0
M  V30 588 H 58.6321 -4.97298 -0.7552 0
M  V30 589 H 58.3321 -5.82388 0.780901 0
M  V30 590 H 59.8561 -6.10504 -0.108125 0
M  V30 591 H 61.2701 -5.35882 2.03724 0
M  V30 592 H 59.6671 -5.29406 2.82577 0
M  V30 593 H 60.7371 -3.88272 2.9047 0
M  V30 594 N 62.0802 -0.821533 -1.34494 0
M  V30 595 C 62.9902 -0.244355 -2.33324 0
M  V30 596 C 64.0062 0.620527 -1.62559 0
M  V30 597 O 65.1822 0.528754 -1.94335 0
M  V30 598 C 62.2472 0.585368 -3.41723 0
M  V30 599 C 61.3082 -0.301752 -4.28238 0
M  V30 600 C 60.5412 0.488466 -5.3146 0
M  V30 601 O 60.7642 1.72186 -5.4379 0
M  V30 602 O 59.6982 -0.12848 -6.01763 0
M  V30 603 H 63.5242 -1.06231 -2.84515 0
M  V30 604 H 61.1092 -0.583645 -1.37528 0
M  V30 605 H 62.9912 1.05747 -4.07916 0
M  V30 606 H 61.6662 1.38068 -2.92778 0
M  V30 607 H 60.5732 -0.821315 -3.64973 0
M  V30 608 H 61.9062 -1.06138 -4.8062 0
M  V30 609 N 63.5583 1.46682 -0.576371 0
M  V30 610 C 64.9693 1.86112 -0.148091 0
M  V30 611 C 65.3203 1.48073 1.2872 0
M  V30 612 O 64.4453 0.892656 1.97131 0
M  V30 613 C 65.0403 3.37786 -0.261982 0
M  V30 614 C 63.5993 3.76235 0.111384 0
M  V30 615 C 62.7463 2.70713 -0.60083 0
M  V30 616 H 65.6973 1.37927 -0.78497 0
M  V30 617 H 65.7183 3.77007 0.514364 0
M  V30 618 H 65.2303 3.6544 -1.30671 0
M  V30 619 H 63.3313 3.54198 1.15649 0
M  V30 620 H 63.4443 4.78391 -0.26052 0
M  V30 621 H 61.8083 2.54666 -0.0417783 0
M  V30 622 H 62.5913 3.01208 -1.64708 0
M  V30 623 N 65.0364 0.313813 1.54444 0
M  V30 624 C 65.9464 -0.565714 2.27677 0
M  V30 625 C 66.9624 -1.13754 1.31666 0
M  V30 626 O 68.1384 -1.15959 1.64668 0
M  V30 627 C 65.2034 -1.71528 3.01296 0
M  V30 628 C 64.2644 -1.17624 4.12872 0
M  V30 629 C 63.4974 -2.27102 4.8297 0
M  V30 630 O 63.7204 -3.47256 4.52514 0
M  V30 631 O 62.6544 -1.9307 5.70094 0
M  V30 632 H 66.4804 0.0287296 3.03686 0
M  V30 633 H 64.0654 0.0798312 1.49187 0
M  V30 634 H 65.9474 -2.38476 3.4743 0
M  V30 635 H 64.6224 -2.29608 2.2817 0
M  V30 636 H 63.5294 -0.472124 3.71109 0
M  V30 637 H 64.8624 -0.640695 4.88012 0
M  V30 638 N 66.5145 -1.57545 0.0417849 0
M  V30 639 C 67.7605 -1.92601 -0.635021 0
M  V30 640 C 68.0935 -0.919627 -1.71045 0
M  V30 641 O 67.3685 0.0557892 -1.9442 0
M  V30 642 C 67.6515 -3.38085 -1.23979 0
M  V30 643 C 67.5045 -4.49467 -0.173057 0
M  V30 644 C 68.8235 -3.83776 -2.15416 0
M  V30 645 H 65.9425 -0.700397 -0.229374 0
M  V30 646 H 68.5845 -1.89728 0.101633 0
M  V30 647 H 66.7345 -3.40664 -1.86762 0
M  V30 648 H 68.4065 -4.59018 0.458312 0
M  V30 649 H 66.6495 -4.30909 0.499996 0
M  V30 650 H 67.3205 -5.48323 -0.636054 0
M  V30 651 H 69.7965 -3.83013 -1.62605 0
M  V30 652 H 68.6725 -4.8624 -2.54679 0
M  V30 653 H 68.9335 -3.19998 -3.05047 0
M  V30 654 N 67.9926 0.231505 -1.5589 0
M  V30 655 C 69.2416 0.955346 -1.7764 0
M  V30 656 C 69.5546 1.85893 -0.608546 0
M  V30 657 O 70.7606 2.62067 -0.70943 0
M  V30 658 C 69.2166 1.74886 -3.14552 0
M  V30 659 C 68.8246 0.891915 -4.39032 0
M  V30 660 C 70.5686 2.46452 -3.45633 0
M  V30 661 C 68.4756 1.68221 -5.66971 0
M  V30 662 H 67.4056 0.360446 -0.662265 0
M  V30 663 H 70.0566 0.209516 -1.823 0
M  V30 664 H 68.4386 2.53723 -3.04041 0
M  V30 665 H 69.6126 0.144793 -4.60572 0
M  V30 666 H 67.9276 0.288863 -4.15397 0
M  V30 667 H 70.5246 3.06061 -4.38441 0
M  V30 668 H 70.8676 3.18841 -2.67668 0
M  V30 669 H 71.4006 1.74613 -3.57428 0
M  V30 670 H 68.1396 1.00178 -6.478 0
M  V30 671 H 67.6596 2.4042 -5.49507 0
M  V30 672 H 69.3386 2.24544 -6.06786 0
M  V30 673 N 69.4707 1.49531 0.497807 0
M  V30 674 C 70.4027 1.62559 1.61578 0
M  V30 675 C 71.4157 0.508134 1.54667 0
M  V30 676 O 72.6047 0.780309 1.60541 0
M  V30 677 C 69.7047 1.56925 3.00379 0
M  V30 678 C 68.8777 2.84257 3.3244 0
M  V30 679 C 67.9367 2.71632 4.50669 0
M  V30 680 O 66.9627 3.4557 4.52294 0
M  V30 681 N 68.1647 1.83391 5.5077 0
M  V30 682 H 70.9297 2.58981 1.50828 0
M  V30 683 H 68.4907 1.4666 0.685743 0
M  V30 684 H 70.4827 1.46129 3.77397 0
M  V30 685 H 69.0527 0.683483 3.05037 0
M  V30 686 H 68.2727 3.09381 2.44289 0
M  V30 687 H 69.5607 3.68666 3.5066 0
M  V30 688 H 68.9587 1.22583 5.52259 0
M  V30 689 H 67.5157 1.78515 6.26878 0
M  V30 690 N 70.9488 -0.749086 1.3866 0
M  V30 691 C 71.9118 -1.84457 1.36045 0
M  V30 692 C 72.9118 -1.58682 0.260122 0
M  V30 693 O 74.1018 -1.66343 0.517261 0
M  V30 694 C 71.2338 -3.22008 1.11911 0
M  V30 695 H 72.4268 -1.88182 2.33512 0
M  V30 696 H 69.9798 -0.951266 1.24019 0
M  V30 697 H 70.7148 -3.2395 0.150686 0
M  V30 698 H 70.4998 -3.42111 1.91579 0
M  V30 699 H 71.9898 -4.0208 1.12788 0
M  V30 700 N 72.4269 -1.23603 -0.977757 0
M  V30 701 C 73.3599 -0.962772 -2.06896 0
M  V30 702 C 74.3379 0.0998743 -1.62293 0
M  V30 703 O 75.5219 -0.0349421 -1.88468 0
M  V30 704 C 72.6489 -0.45095 -3.35685 0
M  V30 705 C 71.6949 -1.50061 -3.99229 0
M  V30 706 S 72.5279 -3.07884 -4.38142 0
M  V30 707 C 73.6839 -2.58378 -5.7008 0
M  V30 708 H 73.9169 -1.88677 -2.29757 0
M  V30 709 H 71.4499 -1.06876 -1.11431 0
M  V30 710 H 73.4079 -0.162261 -4.10179 0
M  V30 711 H 72.0689 0.452179 -3.10828 0
M  V30 712 H 71.2619 -1.09269 -4.92013 0
M  V30 713 H 70.8639 -1.73878 -3.31123 0
M  V30 714 H 73.1559 -2.00563 -6.47133 0
M  V30 715 H 74.0989 -3.49711 -6.15717 0
M  V30 716 H 74.5069 -1.99143 -5.28207 0
M  V30 717 N 73.905 1.17692 -1.04816 0
M  V30 718 C 75.133 1.91786 -0.776254 0
M  V30 719 C 75.548 1.76604 0.667577 0
M  V30 720 O 74.905 1.10067 1.45573 0
M  V30 721 C 74.956 3.42967 -1.14263 0
M  V30 722 O 74.677 3.57678 -2.52978 0
M  V30 723 C 76.178 4.34144 -0.896311 0
M  V30 724 H 73.398 0.608624 -0.282519 0
M  V30 725 H 75.942 1.49268 -1.39783 0
M  V30 726 H 74.097 3.83245 -0.565874 0
M  V30 727 H 74.511 4.51319 -2.67229 0
M  V30 728 H 75.985 5.38744 -1.20244 0
M  V30 729 H 76.462 4.38876 0.168636 0
M  V30 730 H 77.068 3.99574 -1.45672 0
M  V30 731 N 75.3831 0.828654 1.34056 0
M  V30 732 C 76.3301 0.252567 2.29414 0
M  V30 733 C 77.3001 -0.62588 1.53857 0
M  V30 734 O 78.4851 -0.566312 1.82202 0
M  V30 735 C 75.6251 -0.574831 3.40279 0
M  V30 736 C 74.7381 0.326499 4.30764 0
M  V30 737 C 73.8731 -0.511016 5.28736 0
M  V30 738 C 72.9121 0.389342 6.1086 0
M  V30 739 N 72.0491 -0.409439 7.00905 0
M  V30 740 H 76.8891 1.07108 2.78086 0
M  V30 741 H 74.4261 0.539677 1.36843 0
M  V30 742 H 76.3841 -1.06992 4.03248 0
M  V30 743 H 75.0141 -1.35841 2.92826 0
M  V30 744 H 74.0661 0.939837 3.68607 0
M  V30 745 H 75.3781 1.01857 4.88289 0
M  V30 746 H 74.5321 -1.07035 5.97184 0
M  V30 747 H 73.2711 -1.23657 4.71763 0
M  V30 748 H 72.2761 0.960769 5.4134 0
M  V30 749 H 73.5011 1.1131 6.69916 0
M  V30 750 H 71.4471 -1.11856 6.46393 0
M  V30 751 H 71.3641 0.224126 7.55668 0
M  V30 752 H 72.6321 -0.951336 7.73673 0
M  V30 753 N 76.8612 -1.46375 0.584142 0
M  V30 754 C 77.8242 -2.28784 -0.138108 0
M  V30 755 C 78.8242 -1.38471 -0.817462 0
M  V30 756 O 80.0142 -1.60833 -0.669199 0
M  V30 757 C 77.1462 -3.18892 -1.20503 0
M  V30 758 H 78.3392 -2.94117 0.586127 0
M  V30 759 H 75.8922 -1.52509 0.342171 0
M  V30 760 H 76.6272 -2.58309 -1.96079 0
M  V30 761 H 76.4122 -3.85388 -0.722384 0
M  V30 762 H 77.9022 -3.80914 -1.71155 0
M  V30 763 N 78.3393 -0.321999 -1.54275 0
M  V30 764 C 79.2723 0.58718 -2.20516 0
M  V30 765 C 80.2503 1.11693 -1.18167 0
M  V30 766 O 81.4343 1.18122 -1.46899 0
M  V30 767 C 78.5613 1.80554 -2.86562 0
M  V30 768 C 77.6073 1.40718 -4.02617 0
M  V30 769 S 78.4403 0.445218 -5.33646 0
M  V30 770 C 79.5963 1.6709 -6.03185 0
M  V30 771 H 79.8293 0.0244875 -2.9729 0
M  V30 772 H 77.3623 -0.106087 -1.54035 0
M  V30 773 H 79.3203 2.50462 -3.25237 0
M  V30 774 H 77.9813 2.33942 -2.09595 0
M  V30 775 H 77.1743 2.31501 -4.47687 0
M  V30 776 H 76.7763 0.78782 -3.65608 0
M  V30 777 H 79.0683 2.60856 -6.25268 0
M  V30 778 H 80.0113 1.26239 -6.96756 0
M  V30 779 H 80.4193 1.85716 -5.33076 0
M  V30 780 N 79.8174 1.5752 -0.0501392 0
M  V30 781 C 81.0634 1.93755 0.618901 0
M  V30 782 C 81.4184 0.928514 1.68512 0
M  V30 783 O 80.7114 -0.0524613 1.91528 0
M  V30 784 C 80.9054 3.34467 1.25963 0
M  V30 785 C 80.7344 4.48965 0.257 0
M  V30 786 C 79.5044 5.05075 -0.150656 0
M  V30 787 C 81.7024 5.11891 -0.497166 0
M  V30 788 N 79.6844 6.03104 -1.14626 0
M  V30 789 C 81.0554 6.05216 -1.34588 0
M  V30 790 C 83.1104 4.9479 -0.55559 0
M  V30 791 C 81.8134 6.83277 -2.24778 0
M  V30 792 C 83.8394 5.73477 -1.44492 0
M  V30 793 C 83.2014 6.66433 -2.28136 0
M  V30 794 H 79.3004 0.756479 0.198149 0
M  V30 795 H 81.8844 1.94316 -0.122229 0
M  V30 796 H 80.0554 3.34685 1.97079 0
M  V30 797 H 81.7874 3.57994 1.88739 0
M  V30 798 H 78.5424 4.7305 0.228094 0
M  V30 799 H 78.9664 6.56813 -1.64092 0
M  V30 800 H 83.6084 4.2273 0.0768625 0
M  V30 801 H 81.3264 7.54629 -2.89069 0
M  V30 802 H 84.9124 5.62273 -1.49468 0
M  V30 803 H 83.7924 7.26258 -2.95835 0
M  V30 804 N 81.2955 -0.223234 1.56011 0
M  V30 805 C 82.2055 -1.29766 1.95443 0
M  V30 806 C 83.2215 -1.51373 0.858028 0
M  V30 807 O 84.3975 -1.64536 1.16146 0
M  V30 808 C 81.4625 -2.62772 2.26167 0
M  V30 809 C 80.5235 -2.49482 3.49367 0
M  V30 810 C 79.7565 -3.76145 3.78616 0
M  V30 811 O 79.9795 -4.79087 3.09568 0
M  V30 812 O 78.9135 -3.73358 4.72109 0
M  V30 813 H 82.7395 -0.99309 2.87004 0
M  V30 814 H 80.3245 -0.425958 1.43199 0
M  V30 815 H 82.2065 -3.41327 2.47131 0
M  V30 816 H 80.8815 -2.92913 1.37781 0
M  V30 817 H 79.7885 -1.69133 3.33684 0
M  V30 818 H 81.1215 -2.2428 4.38131 0
M  V30 819 N 82.7736 -1.49793 -0.48987 0
M  V30 820 C 83.7366 -1.66752 -1.57246 0
M  V30 821 C 84.7366 -0.538867 -1.51502 0
M  V30 822 O 85.9266 -0.805545 -1.54456 0
M  V30 823 C 83.0586 -1.67528 -2.96896 0
M  V30 824 H 84.2516 -2.63321 -1.43534 0
M  V30 825 H 81.8046 -1.38992 -0.714914 0
M  V30 826 H 82.5396 -0.725837 -3.16073 0
M  V30 827 H 82.3246 -2.49504 -3.02473 0
M  V30 828 H 83.8146 -1.82667 -3.7553 0
M  V30 829 N 84.2517 0.741722 -1.39055 0
M  V30 830 C 85.4977 1.50234 -1.37118 0
M  V30 831 C 85.8527 1.92368 0.0350439 0
M  V30 832 O 85.1457 1.63422 1.00019 0
M  V30 833 C 85.3397 2.7592 -2.27163 0
M  V30 834 C 85.1687 2.46074 -3.76401 0
M  V30 835 C 83.9387 2.38704 -4.45364 0
M  V30 836 C 86.1367 2.12062 -4.68545 0
M  V30 837 N 84.1187 2.01258 -5.79973 0
M  V30 838 C 85.4897 1.85005 -5.91754 0
M  V30 839 C 87.5447 1.98473 -4.56632 0
M  V30 840 C 86.2477 1.4573 -7.04383 0
M  V30 841 C 88.2737 1.60599 -5.69176 0
M  V30 842 C 87.6357 1.34423 -6.91455 0
M  V30 843 H 83.7347 0.548858 -0.557027 0
M  V30 844 H 86.3187 0.862642 -1.74547 0
M  V30 845 H 84.4897 3.3768 -1.91904 0
M  V30 846 H 86.2217 3.42068 -2.16267 0
M  V30 847 H 82.9767 2.55574 -3.98721 0
M  V30 848 H 83.4007 1.85147 -6.51191 0
M  V30 849 H 88.0427 2.17381 -3.62637 0
M  V30 850 H 85.7607 1.25562 -7.98286 0
M  V30 851 H 89.3467 1.507 -5.61944 0
M  V30 852 H 88.2267 1.05555 -7.77064 0
M  V30 853 N 85.7298 1.2412 0.971189 0
M  V30 854 C 86.9778 1.07668 1.71032 0
M  V30 855 C 87.2988 -0.385797 1.91146 0
M  V30 856 O 86.5688 -1.27569 1.4867 0
M  V30 857 H 85.1488 0.395429 0.633755 0
M  V30 858 H 87.8108 1.55984 1.16855 0
M  V30 859 H 86.9068 1.57195 2.69622 0
M  V30 860 N 87.2079 -1.17134 1.05439 0
M  V30 861 C 88.1559 -2.23289 0.651511 0
M  V30 862 C 89.1499 -1.66186 -0.328411 0
M  V30 863 O 90.3559 -1.78949 -0.194206 0
M  V30 864 H 86.7309 -0.726938 0.192523 0
M  V30 865 H 88.7019 -2.54565 1.55689 0
M  V30 866 C 87.4509 -3.47671 0.0448436 0
M  V30 867 H 86.7739 -3.91918 0.78996 0
M  V30 868 H 88.2139 -4.2353 -0.19964 0
M  V30 869 C 86.6729 -3.14453 -1.20918 0
M  V30 870 O 87.2029 -3.29459 -2.29825 0
M  V30 871 N 85.4089 -2.68657 -1.10779 0
M  V30 872 H 84.9559 -2.56646 -0.221526 0
M  V30 873 H 84.9139 -2.46804 -1.9477 0
M  V30 874 N 88.686 -0.835752 -1.33615 0
M  V30 875 C 90.097 -0.487099 -1.80234 0
M  V30 876 C 90.448 0.993627 -1.69179 0
M  V30 877 O 89.573 1.77403 -1.23924 0
M  V30 878 C 90.168 -0.877385 -3.27242 0
M  V30 879 C 88.727 -0.580915 -3.7189 0
M  V30 880 C 87.874 -1.0874 -2.5509 0
M  V30 881 H 90.825 -1.02474 -1.2118 0
M  V30 882 H 90.846 -0.186195 -3.80044 0
M  V30 883 H 90.358 -1.95512 -3.35256 0
M  V30 884 H 88.459 0.486881 -3.69405 0
M  V30 885 H 88.572 -1.13396 -4.65487 0
M  V30 886 H 86.936 -0.508392 -2.49575 0
M  V30 887 H 87.719 -2.17184 -2.65868 0
M  V30 888 N 90.1641 1.46063 -0.591896 0
M  V30 889 C 91.3891 2.07226 -0.0850314 0
M  V30 890 C 91.8141 1.43625 1.21463 0
M  V30 891 O 91.1721 0.523305 1.73583 0
M  V30 892 C 91.2201 3.60554 0.0576567 0
M  V30 893 O 90.3241 3.97128 1.11188 0
M  V30 894 H 89.6651 0.660615 -0.0669568 0
M  V30 895 H 92.1951 1.8756 -0.81745 0
M  V30 896 H 92.2051 4.07165 0.2609 0
M  V30 897 H 90.8801 4.06235 -0.891416 0
M  V30 898 H 89.4571 3.62213 0.886356 0
M  V30 899 N 91.6422 0.330177 1.54103 0
M  V30 900 C 92.8672 -0.274893 2.0557 0
M  V30 901 C 93.2922 -1.44487 1.20437 0
M  V30 902 O 92.6502 -1.80021 0.214991 0
M  V30 903 C 92.6982 -0.68079 3.54115 0
M  V30 904 O 91.8022 -1.7824 3.71893 0
M  V30 905 H 91.1432 -0.0483849 0.662235 0
M  V30 906 H 93.6732 0.480508 1.98878 0
M  V30 907 H 93.6832 -0.961635 3.96505 0
M  V30 908 H 92.3582 0.174903 4.15532 0
M  V30 909 H 90.9352 -1.49985 3.41407 0
M  V30 910 N 93.1203 -1.57491 0.0584922 0
M  V30 911 C 94.5313 -1.80526 -0.476138 0
M  V30 912 C 94.8823 -0.971334 -1.70469 0
M  V30 913 O 94.0073 -0.190012 -2.15564 0
M  V30 914 C 94.6023 -3.27424 -0.870587 0
M  V30 915 C 93.1613 -3.51351 -1.35015 0
M  V30 916 C 92.3083 -2.75343 -0.32887 0
M  V30 917 H 95.2593 -1.56133 0.284312 0
M  V30 918 H 95.2803 -3.38745 -1.73299 0
M  V30 919 H 94.7923 -3.88093 0.0237627 0
M  V30 920 H 92.8933 -2.95971 -2.26345 0
M  V30 921 H 93.0063 -4.60059 -1.33726 0
M  V30 922 H 91.3703 -2.417 -0.803321 0
M  V30 923 H 92.1533 -3.38743 0.557521 0
M  V30 924 N 94.5984 0.214957 -1.56127 0
M  V30 925 C 95.8284 0.953707 -1.8327 0
M  V30 926 C 96.2364 1.78181 -0.636262 0
M  V30 927 O 95.5794 1.79191 0.404516 0
M  V30 928 C 95.6414 1.91516 -3.0424 0
M  V30 929 C 95.3054 1.27094 -4.38972 0
M  V30 930 C 96.3024 0.657575 -5.15725 0
M  V30 931 C 93.9874 1.28073 -4.85698 0
M  V30 932 C 95.9814 0.0625968 -6.37369 0
M  V30 933 C 93.6684 0.681914 -6.07283 0
M  V30 934 C 94.6664 0.0739046 -6.8296 0
M  V30 935 O 94.3544 -0.515582 -8.02245 0
M  V30 936 H 94.0864 0.284764 -0.613095 0
M  V30 937 H 96.6404 0.233283 -2.04071 0
M  V30 938 H 94.8704 2.67475 -2.79274 0
M  V30 939 H 96.5594 2.52001 -3.18198 0
M  V30 940 H 97.3254 0.642288 -4.80728 0
M  V30 941 H 93.2044 1.74337 -4.26764 0
M  V30 942 H 96.7484 -0.412593 -6.96379 0
M  V30 943 H 92.6454 0.694636 -6.41752 0
M  V30 944 H 93.4134 -0.410544 -8.1747 0
M  V30 945 N 96.0765 1.50051 0.48192 0
M  V30 946 C 97.3015 1.64508 1.26301 0
M  V30 947 C 97.7265 0.323851 1.85291 0
M  V30 948 O 97.0845 -0.710969 1.66778 0
M  V30 949 C 97.1325 2.7305 2.35533 0
M  V30 950 O 96.2365 2.3355 3.39895 0
M  V30 951 H 95.5775 0.549978 0.372048 0
M  V30 952 H 98.1075 1.9636 0.574786 0
M  V30 953 H 98.1175 2.95799 2.8101 0
M  V30 954 H 96.7925 3.68946 1.91967 0
M  V30 955 H 95.3695 2.21205 3.00204 0
M  V30 956 N 97.5546 -0.734337 1.39446 0
M  V30 957 C 98.5176 -1.83004 1.37994 0
M  V30 958 C 99.5176 -1.58397 0.276938 0
M  V30 959 O 100.708 -1.65785 0.534875 0
M  V30 960 C 97.8396 -3.20802 1.1532 0
M  V30 961 H 99.0326 -1.85694 2.35494 0
M  V30 962 H 96.5856 -0.938059 1.25021 0
M  V30 963 H 97.3206 -3.23772 0.185036 0
M  V30 964 H 97.1056 -3.4006 1.95197 0
M  V30 965 H 98.5956 -4.00862 1.17046 0
M  V30 966 N 99.0327 -1.24633 -0.964593 0
M  V30 967 C 100.281 -1.08573 -1.70459 0
M  V30 968 C 100.602 0.375655 -1.91347 0
M  V30 969 O 99.8717 1.26779 -1.49345 0
M  V30 970 H 98.4517 -0.398784 -0.631649 0
M  V30 971 H 101.114 -1.56601 -1.16026 0
M  V30 972 H 100.21 -1.58623 -2.68785 0
M  V30 973 N 100.511 1.16574 -1.06058 0
M  V30 974 C 101.927 1.3904 -0.783585 0
M  V30 975 C 102.127 1.91784 0.618145 0
M  V30 976 O 101.183 2.11511 1.37911 0
M  V30 977 C 102.496 2.37329 -1.84649 0
M  V30 978 C 104.044 2.51018 -1.86973 0
M  V30 979 C 104.519 3.52588 -2.92311 0
M  V30 980 N 106.01 3.60113 -2.91329 0
M  V30 981 C 106.745 4.38486 -3.69482 0
M  V30 982 N 106.241 5.20302 -4.57447 0
M  V30 983 N 108.034 4.33446 -3.57885 0
M  V30 984 H 100.185 0.806725 -1.96483 0
M  V30 985 H 102.448 0.417117 -0.851303 0
M  V30 986 H 102.154 2.05663 -2.85299 0
M  V30 987 H 102.028 3.36946 -1.6955 0
M  V30 988 H 104.415 2.81989 -0.869827 0
M  V30 989 H 104.496 1.51445 -2.0615 0
M  V30 990 H 104.14 3.22354 -3.92492 0
M  V30 991 H 104.07 4.51886 -2.70383 0
M  V30 992 H 106.561 3.01707 -2.27555 0
M  V30 993 H 106.874 5.77311 -5.13743 0
M  V30 994 H 105.219 5.19653 -4.61503 0
M  V30 995 H 108.41 3.68586 -2.88551 0
M  V30 996 H 108.583 4.94279 -4.19037 0
M  V30 997 N 101.989 0.842826 1.3317 0
M  V30 998 C 102.936 0.276885 2.29133 0
M  V30 999 C 103.906 -0.609527 1.54512 0
M  V30 1000 O 105.091 -0.546955 1.82792 0
M  V30 1001 C 102.231 -0.538707 3.40869 0
M  V30 1002 C 101.344 0.372169 4.30394 0
M  V30 1003 C 100.479 -0.454908 5.29249 0
M  V30 1004 C 99.5179 0.45411 6.10413 0
M  V30 1005 N 98.6549 -0.335075 7.013 0
M  V30 1006 H 103.495 1.10052 2.76934 0
M  V30 1007 H 101.032 0.554161 1.36262 0
M  V30 1008 H 102.99 -1.02709 4.0436 0
M  V30 1009 H 101.62 -1.32727 2.9425 0
M  V30 1010 H 100.672 0.97888 3.6759 0
M  V30 1011 H 101.984 1.0703 4.87182 0
M  V30 1012 H 101.138 -1.00695 5.98285 0
M  V30 1013 H 99.8769 -1.18646 4.73048 0
M  V30 1014 H 98.8819 1.01813 5.40291 0
M  V30 1015 H 100.107 1.18409 6.68697 0
M  V30 1016 H 98.0529 -1.04994 6.47543 0
M  V30 1017 H 97.9699 0.304262 7.55387 0
M  V30 1018 H 99.2379 -0.869224 7.74638 0
M  V30 1019 N 103.467 -1.45747 0.599634 0
M  V30 1020 C 104.43 -2.28917 -0.113835 0
M  V30 1021 C 105.43 -1.3933 -0.802729 0
M  V30 1022 O 106.62 -1.61534 -0.652103 0
M  V30 1023 C 103.752 -3.20152 -1.17114 0
M  V30 1024 H 104.945 -2.93478 0.617289 0
M  V30 1025 H 102.498 -1.52137 0.358327 0
M  V30 1026 H 103.233 -2.60374 -1.93329 0
M  V30 1027 H 103.018 -3.86133 -0.681468 0
M  V30 1028 H 104.508 -3.82708 -1.67105 0
M  V30 1029 N 104.945 -0.338344 -1.53925 0
M  V30 1030 C 105.892 0.520845 -2.24846 0
M  V30 1031 C 106.862 1.09976 -1.24477 0
M  V30 1032 O 108.047 1.13735 -1.53196 0
M  V30 1033 C 105.187 1.6685 -3.02084 0
M  V30 1034 C 104.3 1.11739 -4.17299 0
M  V30 1035 C 103.435 2.23193 -4.82036 0
M  V30 1036 C 102.474 1.65407 -5.89328 0
M  V30 1037 N 101.611 2.70582 -6.47866 0
M  V30 1038 H 106.451 -0.0904881 -2.97863 0
M  V30 1039 H 103.988 -0.0564282 -1.46992 0
M  V30 1040 H 105.946 2.34407 -3.45122 0
M  V30 1041 H 104.576 2.2509 -2.31375 0
M  V30 1042 H 103.628 0.332919 -3.7894 0
M  V30 1043 H 104.94 0.654677 -4.94485 0
M  V30 1044 H 104.094 2.98626 -5.28117 0
M  V30 1045 H 102.833 2.72807 -4.04262 0
M  V30 1046 H 101.838 0.884779 -5.42634 0
M  V30 1047 H 103.063 1.16652 -6.69006 0
M  V30 1048 H 101.009 3.1946 -5.72959 0
M  V30 1049 H 100.926 2.28917 -7.20509 0
M  V30 1050 H 102.194 3.45799 -6.98601 0
M  V30 1051 N 106.423 1.57458 -0.0668435 0
M  V30 1052 C 107.7 1.8469 0.644132 0
M  V30 1053 C 108.08 0.958343 1.88093 0
M  V30 1054 O 107.428 0.0233579 2.28488 0
M  V30 1055 C 107.638 3.34767 0.986509 0
M  V30 1056 C 108.986 4.02159 1.36212 0
M  V30 1057 O 110.01 3.39484 1.07839 0
M  V30 1058 O 108.869 5.12694 1.89227 0
M  V30 1059 H 105.963 0.762816 0.319437 0
M  V30 1060 H 108.509 1.6942 -0.0973986 0
M  V30 1061 H 107.281 3.91151 0.107883 0
M  V30 1062 H 106.904 3.55281 1.78497 0
M  V30 1063 N 107.901 -0.206675 1.56239 0
M  V30 1064 C 109.15 -0.926964 1.79138 0
M  V30 1065 C 109.463 -1.84901 0.638043 0
M  V30 1066 O 110.669 -2.60906 0.751033 0
M  V30 1067 C 109.125 -1.6986 3.17294 0
M  V30 1068 C 108.733 -0.821956 4.40395 0
M  V30 1069 C 110.477 -2.40922 3.4951 0
M  V30 1070 C 108.384 -1.59179 5.69575 0
M  V30 1071 H 107.314 -0.349864 0.667915 0
M  V30 1072 H 109.965 -0.180487 1.8261 0
M  V30 1073 H 108.347 -2.48853 3.08039 0
M  V30 1074 H 109.521 -0.0715019 4.60745 0
M  V30 1075 H 107.836 -0.222741 4.15804 0
M  V30 1076 H 110.433 -2.99047 4.43255 0
M  V30 1077 H 110.776 -3.14542 2.72707 0
M  V30 1078 H 111.309 -1.68905 3.60161 0
M  V30 1079 H 108.048 -0.898589 6.49312 0
M  V30 1080 H 107.568 -2.31648 5.53262 0
M  V30 1081 H 109.247 -2.14862 6.10281 0
M  V30 1082 N 109.379 -1.50304 -0.473955 0
M  V30 1083 C 110.628 -1.60392 -1.22301 0
M  V30 1084 C 110.941 -0.308411 -1.93153 0
M  V30 1085 O 112.147 -0.288156 -2.69966 0
M  V30 1086 C 110.603 -2.83109 -2.2221 0
M  V30 1087 C 110.211 -4.19524 -1.57173 0
M  V30 1088 C 111.955 -3.0254 -2.97775 0
M  V30 1089 C 109.862 -5.33431 -2.55353 0
M  V30 1090 H 108.792 -0.597286 -0.460179 0
M  V30 1091 H 111.443 -1.76731 -0.493803 0
M  V30 1092 H 109.825 -2.60322 -2.9841 0
M  V30 1093 H 110.999 -4.52554 -0.867824 0
M  V30 1094 H 109.314 -4.05674 -0.939002 0
M  V30 1095 H 111.911 -3.84811 -3.71248 0
M  V30 1096 H 112.254 -2.14154 -3.56992 0
M  V30 1097 H 112.787 -3.25494 -2.28688 0
M  V30 1098 H 109.526 -6.23962 -2.00878 0
M  V30 1099 H 109.046 -5.04823 -3.23904 0
M  V30 1100 H 110.725 -5.63887 -3.17239 0
M  V30 1101 N 110.857 0.726932 -1.39834 0
M  V30 1102 C 111.805 1.86235 -1.39353 0
M  V30 1103 C 112.799 1.67144 -0.275555 0
M  V30 1104 O 114.005 1.74387 -0.44601 0
M  V30 1105 H 110.38 0.613174 -0.43534 0
M  V30 1106 H 112.351 1.83756 -2.35109 0
M  V30 1107 C 111.1 3.23995 -1.26185 0
M  V30 1108 H 110.423 3.39285 -2.11484 0
M  V30 1109 H 111.863 4.03609 -1.29907 0
M  V30 1110 C 110.322 3.36888 0.0290018 0
M  V30 1111 O 110.852 3.89152 0.99619 0
M  V30 1112 N 109.058 2.90446 0.0947437 0
M  V30 1113 H 108.605 2.48102 -0.693035 0
M  V30 1114 H 108.563 2.99451 0.957932 0
M  V30 1115 N 112.336 1.25143 0.95797 0
M  V30 1116 C 113.299 1.05321 2.03569 0
M  V30 1117 C 114.299 0.007152 1.60798 0
M  V30 1118 O 115.489 0.24903 1.72411 0
M  V30 1119 C 112.621 0.598394 3.35607 0
M  V30 1120 H 113.814 2.00986 2.22586 0
M  V30 1121 H 111.367 1.07502 1.13459 0
M  V30 1122 H 112.102 -0.361014 3.22284 0
M  V30 1123 H 111.887 1.35351 3.67998 0
M  V30 1124 H 113.377 0.48104 4.1482 0
M  V30 1125 N 113.814 -1.1601 1.06675 0
M  V30 1126 C 114.777 -2.18724 0.685001 0
M  V30 1127 C 115.777 -1.58496 -0.271246 0
M  V30 1128 O 116.967 -1.74119 -0.0531156 0
M  V30 1129 C 114.099 -3.40899 0.00853648 0
M  V30 1130 H 115.292 -2.54011 1.59431 0
M  V30 1131 H 112.845 -1.30352 0.862441 0
M  V30 1132 H 113.58 -3.11173 -0.913337 0
M  V30 1133 H 113.365 -3.8587 0.696204 0
M  V30 1134 H 114.855 -4.16886 -0.24414 0
M  V30 1135 N 115.292 -0.849877 -1.32721 0
M  V30 1136 C 116.708 -0.539102 -1.50219 0
M  V30 1137 C 116.908 0.931271 -1.78689 0
M  V30 1138 O 115.964 1.71455 -1.85363 0
M  V30 1139 C 117.277 -1.42196 -2.64954 0
M  V30 1140 C 118.825 -1.42189 -2.78839 0
M  V30 1141 C 119.3 -2.28985 -3.96648 0
M  V30 1142 N 120.791 -2.26754 -4.03902 0
M  V30 1143 C 121.526 -2.90644 -4.94281 0
M  V30 1144 N 121.022 -3.63629 -5.897 0
M  V30 1145 N 122.815 -2.80057 -4.87365 0
M  V30 1146 H 114.966 -1.80156 -1.12506 0
M  V30 1147 H 117.229 -0.769217 -0.554085 0
M  V30 1148 H 116.935 -2.46733 -2.50631 0
M  V30 1149 H 116.809 -1.10591 -3.60624 0
M  V30 1150 H 119.196 -0.38419 -2.92588 0
M  V30 1151 H 119.277 -1.77807 -1.83898 0
M  V30 1152 H 118.921 -3.32819 -3.83658 0
M  V30 1153 H 118.851 -1.90702 -4.90857 0
M  V30 1154 H 121.342 -1.73688 -3.3562 0
M  V30 1155 H 121.655 -4.09558 -6.55349 0
M  V30 1156 H 120 -3.67737 -5.89741 0
M  V30 1157 H 123.191 -2.22593 -4.11789 0
M  V30 1158 H 123.364 -3.30132 -5.57599 0
M  V30 1159 N 116.77 1.45427 -0.607355 0
M  V30 1160 C 117.68 2.34325 0.113463 0
M  V30 1161 C 118.696 1.51226 0.860617 0
M  V30 1162 O 119.872 1.84029 0.818255 0
M  V30 1163 C 116.937 3.28839 1.09844 0
M  V30 1164 C 115.998 4.27844 0.353271 0
M  V30 1165 C 115.231 5.17842 1.29133 0
M  V30 1166 O 115.454 5.11264 2.52913 0
M  V30 1167 O 114.388 5.96713 0.788523 0
M  V30 1168 H 118.214 2.97364 -0.617094 0
M  V30 1169 H 115.799 1.44807 -0.367619 0
M  V30 1170 H 117.681 3.8708 1.66575 0
M  V30 1171 H 116.356 2.68365 1.81003 0
M  V30 1172 H 115.263 3.7322 -0.256494 0
M  V30 1173 H 116.596 4.91173 -0.317822 0
M  V30 1174 N 118.248 0.346503 1.53744 0
M  V30 1175 C 119.473 -0.253074 2.0585 0
M  V30 1176 C 119.898 -1.43202 1.21962 0
M  V30 1177 O 119.256 -1.79783 0.234073 0
M  V30 1178 C 119.304 -0.643193 3.54817 0
M  V30 1179 O 118.408 -1.74286 3.73762 0
M  V30 1180 H 117.749 -0.0413583 0.662711 0
M  V30 1181 H 120.279 0.501574 1.98357 0
M  V30 1182 H 120.289 -0.919526 3.97503 0
M  V30 1183 H 118.964 0.218966 4.15323 0
M  V30 1184 H 117.541 -1.46356 3.42979 0
M  V30 1185 N 119.726 -1.57421 0.075193 0
M  V30 1186 C 120.656 -2.15942 -0.888324 0
M  V30 1187 C 121.637 -1.08737 -1.30806 0
M  V30 1188 O 122.822 -1.36787 -1.37851 0
M  V30 1189 C 119.952 -2.72379 -2.1547 0
M  V30 1190 C 118.906 -3.8478 -1.87425 0
M  V30 1191 C 118.232 -4.27834 -3.20721 0
M  V30 1192 C 119.532 -5.08869 -1.17684 0
M  V30 1193 H 121.226 -2.96705 -0.400799 0
M  V30 1194 H 118.772 -1.42723 -0.191342 0
M  V30 1195 H 120.725 -3.11965 -2.83295 0
M  V30 1196 H 119.449 -1.88841 -2.6647 0
M  V30 1197 H 118.108 -3.45703 -1.22004 0
M  V30 1198 H 117.756 -3.41214 -3.6957 0
M  V30 1199 H 117.456 -5.03605 -3.02746 0
M  V30 1200 H 118.98 -4.70039 -3.89738 0
M  V30 1201 H 120.394 -5.4575 -1.75584 0
M  V30 1202 H 118.791 -5.8994 -1.09956 0
M  V30 1203 H 119.861 -4.84648 -0.156453 0
M  V30 1204 N 121.204 0.198386 -1.56346 0
M  V30 1205 C 122.167 1.22952 -1.93431 0
M  V30 1206 C 123.167 1.38611 -0.815092 0
M  V30 1207 O 124.357 1.36479 -1.08255 0
M  V30 1208 C 121.489 2.59946 -2.20546 0
M  V30 1209 H 122.682 0.912626 -2.85677 0
M  V30 1210 H 120.235 0.43977 -1.49986 0
M  V30 1211 H 120.97 2.96696 -1.30927 0
M  V30 1212 H 120.755 2.49953 -3.02102 0
M  V30 1213 H 122.245 3.3431 -2.50253 0
M  V30 1214 N 122.682 1.50554 0.465978 0
M  V30 1215 C 123.629 1.6979 1.56333 0
M  V30 1216 C 124.599 0.539239 1.57103 0
M  V30 1217 O 125.784 0.770401 1.74555 0
M  V30 1218 C 122.924 1.80273 2.94271 0
M  V30 1219 C 122.037 3.07674 3.0325 0
M  V30 1220 C 121.172 3.08922 4.32135 0
M  V30 1221 C 120.211 4.30755 4.34875 0
M  V30 1222 N 119.348 4.29714 5.55239 0
M  V30 1223 H 124.188 2.63472 1.39235 0
M  V30 1224 H 121.725 1.30602 0.676873 0
M  V30 1225 H 123.683 1.84332 3.74269 0
M  V30 1226 H 122.313 0.900258 3.09992 0
M  V30 1227 H 121.365 3.13062 2.16094 0
M  V30 1228 H 122.677 3.97642 3.01135 0
M  V30 1229 H 121.831 3.11738 5.20485 0
M  V30 1230 H 120.57 2.16792 4.36866 0
M  V30 1231 H 119.575 4.28146 3.44922 0
M  V30 1232 H 120.8 5.24117 4.31831 0
M  V30 1233 H 118.746 3.4044 5.60746 0
M  V30 1234 H 118.663 5.13456 5.54886 0
M  V30 1235 H 119.931 4.36683 6.457 0
M  V30 1236 N 124.16 -0.719506 1.40217 0
M  V30 1237 C 125.093 -1.84298 1.34571 0
M  V30 1238 C 126.071 -1.61149 0.216741 0
M  V30 1239 O 127.255 -1.84212 0.399756 0
M  V30 1240 C 124.382 -3.20568 1.09335 0
M  V30 1241 C 123.428 -3.62551 2.24631 0
M  V30 1242 S 124.261 -3.7012 3.87004 0
M  V30 1243 C 125.417 -5.09154 3.64024 0
M  V30 1244 H 125.65 -1.88807 2.2965 0
M  V30 1245 H 123.183 -0.885901 1.26456 0
M  V30 1246 H 125.141 -3.99246 0.954602 0
M  V30 1247 H 123.802 -3.13696 0.159164 0
M  V30 1248 H 122.995 -4.61483 2.02606 0
M  V30 1249 H 122.597 -2.91119 2.34789 0
M  V30 1250 H 124.889 -5.95955 3.22248 0
M  V30 1251 H 125.832 -5.36213 4.62473 0
M  V30 1252 H 126.24 -4.79562 2.97793 0
M  V30 1253 N 125.638 -1.25649 -0.95132 0
M  V30 1254 C 126.887 -1.09988 -1.69073 0
M  V30 1255 C 127.2 0.358355 -1.92289 0
M  V30 1256 O 128.406 0.635466 -2.63958 0
M  V30 1257 C 126.862 -1.92012 -3.044 0
M  V30 1258 C 126.47 -3.42347 -2.88968 0
M  V30 1259 C 128.214 -1.8493 -3.82101 0
M  V30 1260 C 126.121 -4.16655 -4.19705 0
M  V30 1261 H 125.051 -0.407993 -0.63408 0
M  V30 1262 H 127.702 -1.49873 -1.05879 0
M  V30 1263 H 126.084 -1.44952 -3.68517 0
M  V30 1264 H 127.258 -3.97104 -2.33762 0
M  V30 1265 H 125.573 -3.50557 -2.24719 0
M  V30 1266 H 128.17 -2.37739 -4.78941 0
M  V30 1267 H 128.513 -0.817883 -4.08187 0
M  V30 1268 H 129.046 -2.29758 -3.2474 0
M  V30 1269 H 125.785 -5.20224 -3.98807 0
M  V30 1270 H 125.305 -3.66681 -4.74663 0
M  V30 1271 H 126.984 -4.24551 -4.88227 0
M  V30 1272 N 127.117 1.15442 -1.07289 0
M  V30 1273 C 128.365 1.85845 -0.794096 0
M  V30 1274 C 128.686 1.82692 0.681809 0
M  V30 1275 O 127.956 1.26741 1.49377 0
M  V30 1276 H 126.536 0.688089 -0.290763 0
M  V30 1277 H 129.198 1.39947 -1.3565 0
M  V30 1278 H 128.294 2.91001 -1.12804 0
M  V30 1279 N 128.595 0.856903 1.32268 0
M  V30 1280 C 129.843 0.460474 1.96784 0
M  V30 1281 C 130.164 -0.987701 1.68135 0
M  V30 1282 O 129.434 -1.69058 0.989765 0
M  V30 1283 H 128.014 0.167289 0.728027 0
M  V30 1284 H 130.676 1.09383 1.61312 0
M  V30 1285 H 129.772 0.60739 3.06133 0
M  V30 1286 N 130.073 -1.45103 0.615059 0
M  V30 1287 C 131.02 -2.30586 -0.0993978 0
M  V30 1288 C 131.99 -1.42544 -0.852669 0
M  V30 1289 O 133.175 -1.71465 -0.836917 0
M  V30 1290 C 130.315 -3.27572 -1.08583 0
M  V30 1291 C 129.428 -4.30717 -0.332656 0
M  V30 1292 C 128.563 -5.14807 -1.30947 0
M  V30 1293 C 127.602 -6.09673 -0.544538 0
M  V30 1294 N 126.739 -6.86517 -1.47101 0
M  V30 1295 H 131.579 -2.91144 0.635542 0
M  V30 1296 H 129.116 -1.4346 0.325206 0
M  V30 1297 H 131.074 -3.82276 -1.67095 0
M  V30 1298 H 129.704 -2.68751 -1.78809 0
M  V30 1299 H 128.756 -3.78615 0.368107 0
M  V30 1300 H 130.068 -4.98102 0.263842 0
M  V30 1301 H 129.222 -5.73948 -1.96643 0
M  V30 1302 H 127.961 -4.47458 -1.9399 0
M  V30 1303 H 126.966 -5.49656 0.126003 0
M  V30 1304 H 128.191 -6.79052 0.080947 0
M  V30 1305 H 126.137 -6.21851 -2.08895 0
M  V30 1306 H 126.054 -7.50281 -0.928137 0
M  V30 1307 H 127.322 -7.50194 -2.11731 0
M  V30 1308 N 131.551 -0.354651 -1.53558 0
M  V30 1309 C 132.962 0.126902 -1.86268 0
M  V30 1310 C 133.313 1.49075 -1.27558 0
M  V30 1311 O 132.438 2.08105 -0.5934 0
M  V30 1312 C 133.033 0.237046 -3.3797 0
M  V30 1313 C 131.592 0.662842 -3.70518 0
M  V30 1314 C 130.739 -0.196652 -2.76602 0
M  V30 1315 H 133.69 -0.573849 -1.47962 0
M  V30 1316 H 133.711 1.06259 -3.65362 0
M  V30 1317 H 133.223 -0.755725 -3.80671 0
M  V30 1318 H 131.324 1.66424 -3.33367 0
M  V30 1319 H 131.437 0.445034 -4.77029 0
M  V30 1320 H 129.801 0.332763 -2.52517 0
M  V30 1321 H 130.584 -1.18676 -3.22135 0
M  V30 1322 N 133.029 1.57378 -0.0835403 0
M  V30 1323 C 133.961 2.10389 0.909338 0
M  V30 1324 C 134.974 1.03858 1.25369 0
M  V30 1325 O 136.163 1.31338 1.20882 0
M  V30 1326 C 133.263 2.55908 2.2218 0
M  V30 1327 C 132.436 3.86145 2.05453 0
M  V30 1328 C 131.495 4.17633 3.20108 0
M  V30 1329 O 130.521 4.87043 2.94581 0
M  V30 1330 N 131.723 3.72113 4.45547 0
M  V30 1331 H 134.488 2.962 0.456657 0
M  V30 1332 H 132.049 1.61579 0.101877 0
M  V30 1333 H 134.041 2.74027 2.97811 0
M  V30 1334 H 132.611 1.75171 2.58909 0
M  V30 1335 H 131.831 3.7729 1.1422 0
M  V30 1336 H 133.119 4.7137 1.91541 0
M  V30 1337 H 132.517 3.16062 4.69171 0
M  V30 1338 H 131.074 3.95409 5.18165 0
M  V30 1339 N 134.507 -0.190092 1.56449 0
M  V30 1340 C 135.784 -0.935886 1.71757 0
M  V30 1341 C 136.164 -2.01173 0.639726 0
M  V30 1342 O 135.512 -2.25827 -0.348502 0
M  V30 1343 C 135.722 -1.51775 3.1427 0
M  V30 1344 C 137.07 -1.99794 3.74656 0
M  V30 1345 O 138.094 -1.61607 3.1743 0
M  V30 1346 O 136.953 -2.70079 4.751 0
M  V30 1347 H 134.047 -0.439229 0.700719 0
M  V30 1348 H 136.593 -0.179395 1.68749 0
M  V30 1349 H 135.365 -0.742505 3.84191 0
M  V30 1350 H 134.988 -2.33894 3.21527 0
M  V30 1351 N 135.985 -1.50799 -0.457987 0
M  V30 1352 C 137.234 -1.6168 -1.20593 0
M  V30 1353 C 137.547 -0.32888 -1.92815 0
M  V30 1354 O 138.753 -0.316773 -2.69646 0
M  V30 1355 C 137.209 -2.8545 -2.19195 0
M  V30 1356 C 136.817 -4.21168 -1.52715 0
M  V30 1357 C 138.561 -3.05681 -2.94549 0
M  V30 1358 C 136.468 -5.3611 -2.4968 0
M  V30 1359 H 135.398 -0.602134 -0.453818 0
M  V30 1360 H 138.049 -1.77245 -0.475031 0
M  V30 1361 H 136.431 -2.63472 -2.95632 0
M  V30 1362 H 137.605 -4.53449 -0.819775 0
M  V30 1363 H 135.92 -4.06648 -0.895922 0
M  V30 1364 H 138.517 -3.88727 -3.67145 0
M  V30 1365 H 138.86 -2.17929 -3.54701 0
M  V30 1366 H 139.393 -3.27901 -2.25223 0
M  V30 1367 H 136.132 -6.26057 -1.94249 0
M  V30 1368 H 135.652 -5.0823 -3.18532 0
M  V30 1369 H 137.331 -5.6722 -3.11241 0
M  V30 1370 N 137.463 0.71206 -1.40597 0
M  V30 1371 C 138.712 1.46754 -1.38369 0
M  V30 1372 C 139.025 1.95598 0.0097839 0
M  V30 1373 O 140.231 2.71059 0.154677 0
M  V30 1374 C 138.687 2.65289 -2.43207 0
M  V30 1375 C 138.295 2.23301 -3.88382 0
M  V30 1376 C 140.039 3.43008 -2.50091 0
M  V30 1377 C 137.946 3.38696 -4.84808 0
M  V30 1378 H 136.876 0.55118 -0.514506 0
M  V30 1379 H 139.527 0.774616 -1.66349 0
M  V30 1380 H 137.909 3.36769 -2.08332 0
M  V30 1381 H 139.083 1.59218 -4.32419 0
M  V30 1382 H 137.398 1.58618 -3.85006 0
M  V30 1383 H 139.995 4.28881 -3.1932 0
M  V30 1384 H 140.338 3.87065 -1.53253 0
M  V30 1385 H 140.871 2.78574 -2.83974 0
M  V30 1386 H 137.61 2.99668 -5.82992 0
M  V30 1387 H 137.13 4.01683 -4.45433 0
M  V30 1388 H 138.809 4.04712 -5.04794 0
M  V30 1389 N 138.941 1.26152 0.944643 0
M  V30 1390 C 140.188 1.11492 1.69044 0
M  V30 1391 C 140.516 -0.342366 1.91463 0
M  V30 1392 O 139.771 -1.26812 1.49054 0
M  V30 1393 C 140.07 1.82541 3.07268 0
M  V30 1394 C 139.736 3.32445 3.04616 0
M  V30 1395 C 138.398 3.73337 3.036 0
M  V30 1396 C 140.75 4.28171 2.97185 0
M  V30 1397 C 138.078 5.08348 2.92915 0
M  V30 1398 C 140.43 5.63218 2.88041 0
M  V30 1399 C 139.094 6.03426 2.85366 0
M  V30 1400 H 138.364 0.407977 0.618576 0
M  V30 1401 H 141.011 1.56551 1.10291 0
M  V30 1402 H 139.316 1.29941 3.69625 0
M  V30 1403 H 141.013 1.68642 3.63815 0
M  V30 1404 H 137.603 2.99915 3.06185 0
M  V30 1405 H 141.787 3.97563 2.97081 0
M  V30 1406 H 137.043 5.38667 2.89219 0
M  V30 1407 H 141.217 6.37078 2.81254 0
M  V30 1408 H 138.844 7.07999 2.76842 0
M  V30 1409 N 140.419 -1.14872 1.07899 0
M  V30 1410 C 141.647 -1.89661 0.82683 0
M  V30 1411 C 142.062 -1.78312 -0.620519 0
M  V30 1412 O 141.419 -1.13888 -1.42604 0
M  V30 1413 C 141.47 -3.39817 1.23316 0
M  V30 1414 O 141.191 -3.50845 2.62372 0
M  V30 1415 C 142.692 -4.31615 1.0111 0
M  V30 1416 H 139.912 -0.60092 0.298557 0
M  V30 1417 H 142.456 -1.4551 1.43691 0
M  V30 1418 H 140.611 -3.8161 0.667286 0
M  V30 1419 H 141.025 -4.44076 2.79101 0
M  V30 1420 H 142.499 -5.35367 1.34486 0
M  V30 1421 H 142.976 -4.39169 -0.0522168 0
M  V30 1422 H 143.582 -3.95572 1.56215 0
M  V30 1423 N 141.898 -0.863906 -1.31812 0
M  V30 1424 C 143.123 -0.48527 -2.01643 0
M  V30 1425 C 143.548 0.913058 -1.64453 0
M  V30 1426 O 142.906 1.6014 -0.849985 0
M  V30 1427 C 142.954 -0.642625 -3.54828 0
M  V30 1428 O 142.058 0.320659 -4.11151 0
M  V30 1429 H 141.399 -0.193793 -0.635091 0
M  V30 1430 H 143.929 -1.16565 -1.68148 0
M  V30 1431 H 143.939 -0.533628 -4.04495 0
M  V30 1432 H 142.614 -1.66227 -3.81237 0
M  V30 1433 H 141.191 0.167126 -3.72525 0
M  V30 1434 N 143.376 1.44774 -0.622745 0
M  V30 1435 C 144.624 2.01721 -0.123655 0
M  V30 1436 C 144.945 1.49172 1.25589 0
M  V30 1437 O 144.215 0.691974 1.83272 0
M  V30 1438 H 142.795 0.745777 -0.0427225 0
M  V30 1439 H 145.457 1.77382 -0.807559 0
M  V30 1440 H 144.553 3.11984 -0.0849534 0
M  V30 1441 N 144.854 0.36279 1.53368 0
M  V30 1442 C 146.102 -0.227326 2.00817 0
M  V30 1443 C 146.423 -1.49511 1.25186 0
M  V30 1444 O 145.693 -1.92482 0.364348 0
M  V30 1445 H 144.273 -0.0869923 0.741917 0
M  V30 1446 H 146.935 0.488381 1.88682 0
M  V30 1447 H 146.031 -0.456273 3.08747 0
M  V30 1448 N 146.332 -1.57332 0.0918853 0
M  V30 1449 C 147.56 -1.98574 -0.581048 0
M  V30 1450 C 147.975 -0.970903 -1.61923 0
M  V30 1451 O 147.332 0.0399054 -1.82456 0
M  V30 1452 C 147.383 -3.39872 -1.23164 0
M  V30 1453 O 147.104 -4.37469 -0.234989 0
M  V30 1454 C 148.605 -3.96099 -1.99049 0
M  V30 1455 H 145.825 -0.65261 -0.156018 0
M  V30 1456 H 148.369 -2.0379 0.170225 0
M  V30 1457 H 146.524 -3.35679 -1.93386 0
M  V30 1458 H 146.938 -5.19751 -0.70418 0
M  V30 1459 H 148.412 -4.97127 -2.39934 0
M  V30 1460 H 148.889 -3.3374 -2.85507 0
M  V30 1461 H 149.495 -4.03755 -1.3365 0
M  V30 1462 N 147.81 0.181792 -1.56548 0
M  V30 1463 C 148.72 1.24538 -1.98815 0
M  V30 1464 C 149.736 1.49045 -0.897861 0
M  V30 1465 O 150.912 1.61399 -1.20467 0
M  V30 1466 C 147.977 2.56683 -2.33055 0
M  V30 1467 C 147.038 2.40131 -3.55859 0
M  V30 1468 C 146.271 3.65975 -3.88456 0
M  V30 1469 O 146.494 4.70711 -3.22161 0
M  V30 1470 O 145.428 3.6071 -4.81842 0
M  V30 1471 H 149.254 0.916647 -2.89536 0
M  V30 1472 H 146.839 0.387842 -1.44278 0
M  V30 1473 H 148.721 3.34655 -2.56094 0
M  V30 1474 H 147.396 2.89157 -1.45498 0
M  V30 1475 H 146.303 1.60226 -3.38051 0
M  V30 1476 H 147.636 2.12585 -4.43924 0
M  V30 1477 N 149.288 1.51039 0.449983 0
M  V30 1478 C 150.513 1.6715 1.22783 0
M  V30 1479 C 150.938 0.363081 1.84563 0
M  V30 1480 O 150.296 -0.675433 1.68249 0
M  V30 1481 C 150.344 2.77985 2.29689 0
M  V30 1482 O 149.448 2.40707 3.34864 0
M  V30 1483 H 148.789 0.557746 0.360299 0
M  V30 1484 H 151.319 1.97535 0.533005 0
M  V30 1485 H 151.329 3.01693 2.74673 0
M  V30 1486 H 150.004 3.72935 1.84098 0
M  V30 1487 H 148.581 2.27523 2.95445 0
M  V30 1488 N 150.766 -0.704594 1.40972 0
M  V30 1489 C 151.714 -1.83994 1.42299 0
M  V30 1490 C 152.708 -1.66684 0.302111 0
M  V30 1491 O 153.914 -1.73655 0.473697 0
M  V30 1492 H 150.289 -0.606171 0.44504 0
M  V30 1493 H 152.26 -1.79992 2.38003 0
M  V30 1494 C 151.009 -3.21946 1.31323 0
M  V30 1495 H 150.332 -3.35878 2.16855 0
M  V30 1496 H 151.772 -4.01491 1.36311 0
M  V30 1497 C 150.231 -3.36891 0.0245977 0
M  V30 1498 O 150.761 -3.90687 -0.934153 0
M  V30 1499 N 148.967 -2.90559 -0.0485243 0
M  V30 1500 H 148.514 -2.46968 0.732419 0
M  V30 1501 H 148.472 -3.00937 -0.910171 0
M  V30 1502 N 152.244 -1.26651 -0.937939 0
M  V30 1503 C 153.192 -1.08308 -2.05845 0
M  V30 1504 C 154.186 -0.0090757 -1.69398 0
M  V30 1505 O 155.392 -0.166007 -1.79233 0
M  V30 1506 H 151.767 -0.333416 -0.674046 0
M  V30 1507 H 153.738 -2.03261 -2.18467 0
M  V30 1508 C 152.487 -0.736229 -3.39816 0
M  V30 1509 H 151.81 -1.55453 -3.6834 0
M  V30 1510 H 153.25 -0.64769 -4.19024 0
M  V30 1511 C 151.709 0.558824 -3.32233 0
M  V30 1512 O 152.239 1.59621 -3.68624 0
M  V30 1513 N 150.445 0.550657 -2.85335 0
M  V30 1514 H 149.992 -0.293943 -2.55917 0
M  V30 1515 H 149.95 1.41726 -2.80644 0
M  V30 1516 N 153.722 1.14298 -1.08507 0
M  V30 1517 C 154.652 2.21542 -0.737646 0
M  V30 1518 C 155.633 1.67773 0.280377 0
M  V30 1519 O 156.818 1.93616 0.150521 0
M  V30 1520 C 153.948 3.46988 -0.147259 0
M  V30 1521 C 152.902 4.13789 -1.09374 0
M  V30 1522 C 152.228 5.33449 -0.365524 0
M  V30 1523 C 153.528 4.62208 -2.4323 0
M  V30 1524 H 155.222 2.5086 -1.6343 0
M  V30 1525 H 152.768 1.20576 -0.787243 0
M  V30 1526 H 154.721 4.21262 0.107808 0
M  V30 1527 H 153.445 3.17037 0.784538 0
M  V30 1528 H 152.104 3.4147 -1.33393 0
M  V30 1529 H 151.752 4.99759 0.57011 0
M  V30 1530 H 151.452 5.79088 -0.996512 0
M  V30 1531 H 152.976 6.10485 -0.118534 0
M  V30 1532 H 154.39 5.27952 -2.23472 0
M  V30 1533 H 152.787 5.18553 -3.02031 0
M  V30 1534 H 153.857 3.77224 -3.04681 0
M  V30 1535 N 155.201 0.870884 1.31352 0
M  V30 1536 C 156.447 0.482987 1.96965 0
M  V30 1537 C 156.78 -0.962462 1.68672 0
M  V30 1538 O 156.055 -1.6779 0.98371 0
M  V30 1539 C 156.338 0.741752 3.52378 0
M  V30 1540 C 156.191 2.2368 3.9024 0
M  V30 1541 C 157.51 0.208838 4.39604 0
M  V30 1542 H 154.629 0.176955 0.715441 0
M  V30 1543 H 157.271 1.09229 1.55464 0
M  V30 1544 H 155.421 0.223149 3.87859 0
M  V30 1545 H 157.093 2.82273 3.64856 0
M  V30 1546 H 155.336 2.70901 3.38814 0
M  V30 1547 H 156.007 2.3685 4.98604 0
M  V30 1548 H 158.483 0.652529 4.10952 0
M  V30 1549 H 157.359 0.419336 5.47296 0
M  V30 1550 H 157.62 -0.889275 4.33064 0
M  V30 1551 N 156.679 -1.44442 0.630414 0
M  V30 1552 C 157.928 -2.01267 0.132073 0
M  V30 1553 C 158.241 -1.50172 -1.25331 0
M  V30 1554 O 159.447 -1.9912 -1.84562 0
M  V30 1555 C 157.903 -3.59422 0.185362 0
M  V30 1556 C 157.511 -4.19514 1.57201 0
M  V30 1557 C 159.255 -4.23724 -0.256553 0
M  V30 1558 C 157.162 -5.69891 1.58045 0
M  V30 1559 H 156.092 -0.752619 0.0456092 0
M  V30 1560 H 158.743 -1.65666 0.789106 0
M  V30 1561 H 157.125 -3.92318 -0.538759 0
M  V30 1562 H 158.299 -3.98156 2.31966 0
M  V30 1563 H 156.614 -3.67496 1.95795 0
M  V30 1564 H 159.211 -5.34019 -0.269767 0
M  V30 1565 H 159.554 -3.96013 -1.28372 0
M  V30 1566 H 160.087 -3.95629 0.41505 0
M  V30 1567 H 156.826 -6.02336 2.58597 0
M  V30 1568 H 156.346 -5.93373 0.875725 0
M  V30 1569 H 158.025 -6.33515 1.31408 0
M  V30 1570 N 158.157 -0.370918 -1.53173 0
M  V30 1571 C 159.107 0.489588 -2.22681 0
M  V30 1572 C 160.091 1.04442 -1.22395 0
M  V30 1573 O 161.283 0.973578 -1.47819 0
M  V30 1574 C 158.412 1.626 -3.02351 0
M  V30 1575 C 157.498 1.08379 -4.10018 0
M  V30 1576 N 157.889 0.265004 -5.05105 0
M  V30 1577 C 156.187 1.35809 -4.2482 0
M  V30 1578 C 156.888 -0.0324755 -5.81691 0
M  V30 1579 N 155.864 0.566581 -5.40639 0
M  V30 1580 H 159.666 -0.142729 -2.93553 0
M  V30 1581 H 157.18 -0.179221 -1.61408 0
M  V30 1582 H 159.177 2.2547 -3.50669 0
M  V30 1583 H 157.837 2.26132 -2.33011 0
M  V30 1584 H 158.848 -0.0962352 -5.17811 0
M  V30 1585 H 155.525 1.9958 -3.66707 0
M  V30 1586 H 156.915 -0.69473 -6.68299 0
M  V30 1587 N 159.635 1.57281 -0.100228 0
M  V30 1588 C 160.86 1.99302 0.573881 0
M  V30 1589 C 161.285 0.979059 1.60611 0
M  V30 1590 O 160.643 -0.0517803 1.81226 0
M  V30 1591 C 160.691 3.40274 1.19358 0
M  V30 1592 O 159.795 3.41676 2.30935 0
M  V30 1593 H 159.136 0.647944 0.145138 0
M  V30 1594 H 161.666 2.03779 -0.183156 0
M  V30 1595 H 161.676 3.78078 1.53365 0
M  V30 1596 H 160.351 4.13594 0.437385 0
M  V30 1597 H 158.928 3.15672 1.98509 0
M  V30 1598 N 161.113 -0.173488 1.56642 0
M  V30 1599 C 162.359 -0.891784 1.8214 0
M  V30 1600 C 162.692 -1.8199 0.677736 0
M  V30 1601 O 161.967 -1.91842 -0.320446 0
M  V30 1602 C 162.25 -1.68933 3.18015 0
M  V30 1603 C 162.103 -0.784487 4.42906 0
M  V30 1604 C 163.422 -2.65748 3.50808 0
M  V30 1605 H 160.541 -0.322761 0.662567 0
M  V30 1606 H 163.183 -0.158095 1.89341 0
M  V30 1607 H 161.333 -2.31482 3.12007 0
M  V30 1608 H 163.005 -0.172046 4.60979 0
M  V30 1609 H 161.248 -0.0924117 4.33702 0
M  V30 1610 H 161.919 -1.37799 5.34524 0
M  V30 1611 H 164.395 -2.13327 3.57255 0
M  V30 1612 H 163.271 -3.18619 4.4696 0
M  V30 1613 H 163.532 -3.45842 2.75401 0
M  V30 1614 N 162.591 -1.51276 -0.441967 0
M  V30 1615 C 163.837 -1.63958 -1.19355 0
M  V30 1616 C 164.17 -0.352543 -1.90973 0
M  V30 1617 O 163.445 0.647627 -1.83401 0
M  V30 1618 C 163.728 -2.83979 -2.21422 0
M  V30 1619 C 163.581 -4.22646 -1.53918 0
M  V30 1620 C 164.9 -2.99521 -3.22451 0
M  V30 1621 H 162.019 -0.596709 -0.432559 0
M  V30 1622 H 164.661 -1.83748 -0.483398 0
M  V30 1623 H 162.811 -2.67237 -2.81987 0
M  V30 1624 H 164.483 -4.51045 -0.967256 0
M  V30 1625 H 162.726 -4.25558 -0.841615 0
M  V30 1626 H 163.397 -5.02609 -2.28229 0
M  V30 1627 H 165.873 -3.14944 -2.71937 0
M  V30 1628 H 164.749 -3.85072 -3.91166 0
M  V30 1629 H 165.01 -2.11391 -3.88287 0
M  V30 1630 N 164.069 0.697108 -1.41344 0
M  V30 1631 C 165.016 1.81106 -1.43071 0
M  V30 1632 C 165.986 1.63632 -0.285275 0
M  V30 1633 O 167.171 1.84504 -0.486091 0
M  V30 1634 C 164.311 3.18975 -1.31715 0
M  V30 1635 C 163.424 3.47892 -2.56115 0
M  V30 1636 C 162.559 4.75367 -2.37064 0
M  V30 1637 C 161.598 4.97247 -3.56948 0
M  V30 1638 N 160.735 6.15947 -3.36977 0
M  V30 1639 H 165.575 1.78965 -2.38276 0
M  V30 1640 H 163.112 0.873975 -1.18322 0
M  V30 1641 H 165.07 3.98615 -1.23133 0
M  V30 1642 H 163.7 3.20297 -0.401183 0
M  V30 1643 H 162.752 2.62669 -2.75153 0
M  V30 1644 H 164.064 3.59962 -3.45295 0
M  V30 1645 H 163.218 5.63059 -2.25941 0
M  V30 1646 H 161.957 4.65541 -1.45338 0
M  V30 1647 H 160.962 4.08004 -3.68527 0
M  V30 1648 H 162.187 5.08934 -4.49626 0
M  V30 1649 H 160.133 6.07336 -2.47949 0
M  V30 1650 H 160.05 6.28777 -4.19732 0
M  V30 1651 H 161.318 7.06377 -3.29623 0
M  V30 1652 N 165.547 1.27147 0.931209 0
M  V30 1653 C 166.497 1.06227 2.01742 0
M  V30 1654 C 167.481 -0.00859065 1.60898 0
M  V30 1655 O 168.673 0.209537 1.75755 0
M  V30 1656 C 165.802 0.707787 3.35924 0
M  V30 1657 C 164.888 1.81661 3.83223 0
M  V30 1658 N 165.279 3.05564 4.03069 0
M  V30 1659 C 163.577 1.70249 4.12227 0
M  V30 1660 C 164.278 3.77697 4.42403 0
M  V30 1661 N 163.254 3.0544 4.49675 0
M  V30 1662 H 167.056 2.00261 2.15111 0
M  V30 1663 H 164.57 1.1781 1.11779 0
M  V30 1664 H 166.567 0.539043 4.134 0
M  V30 1665 H 165.227 -0.224964 3.2392 0
M  V30 1666 H 166.238 3.41363 3.89476 0
M  V30 1667 H 162.915 0.840329 4.08956 0
M  V30 1668 H 164.305 4.84168 4.65866 0
M  V30 1669 N 167.025 -1.13721 1.09112 0
M  V30 1670 C 168.272 -1.84924 0.825192 0
M  V30 1671 C 168.6 -1.83347 -0.649151 0
M  V30 1672 O 167.855 -1.26449 -1.49362 0
M  V30 1673 C 168.154 -3.32861 1.30146 0
M  V30 1674 C 167.82 -3.54621 2.78486 0
M  V30 1675 C 166.482 -3.60268 3.18999 0
M  V30 1676 C 168.834 -3.62855 3.74146 0
M  V30 1677 C 166.162 -3.71679 4.53951 0
M  V30 1678 C 168.514 -3.75793 5.08883 0
M  V30 1679 C 167.178 -3.79692 5.4899 0
M  V30 1680 H 166.448 -0.676684 0.301959 0
M  V30 1681 H 169.095 -1.3428 1.36533 0
M  V30 1682 H 167.4 -3.85835 0.681064 0
M  V30 1683 H 169.097 -3.86395 1.07236 0
M  V30 1684 H 165.687 -3.50879 2.46134 0
M  V30 1685 H 169.871 -3.57775 3.43963 0
M  V30 1686 H 165.127 -3.72963 4.84467 0
M  V30 1687 H 169.301 -3.81107 5.82864 0
M  V30 1688 H 166.928 -3.88287 6.53558 0
M  V30 1689 N 168.503 -0.877838 -1.30888 0
M  V30 1690 C 169.453 -0.310872 -2.25871 0
M  V30 1691 C 170.437 0.556596 -1.50966 0
M  V30 1692 O 171.629 0.402187 -1.7237 0
M  V30 1693 C 168.758 0.479821 -3.3993 0
M  V30 1694 C 167.844 -0.401333 -4.22197 0
M  V30 1695 N 168.235 -1.49848 -4.83093 0
M  V30 1696 C 166.533 -0.195167 -4.45573 0
M  V30 1697 C 167.234 -2.0425 -5.44662 0
M  V30 1698 N 166.21 -1.33843 -5.26865 0
M  V30 1699 H 170.012 -1.1493 -2.70496 0
M  V30 1700 H 167.526 -0.726458 -1.45246 0
M  V30 1701 H 169.523 0.902582 -4.07012 0
M  V30 1702 H 168.183 1.31577 -2.96846 0
M  V30 1703 H 169.194 -1.88137 -4.82519 0
M  V30 1704 H 165.871 0.604192 -4.13105 0
M  V30 1705 H 167.261 -2.96345 -6.03017 0
M  V30 1706 N 169.982 1.44106 -0.638065 0
M  V30 1707 C 170.945 2.29138 0.0531013 0
M  V30 1708 C 171.945 1.41409 0.765506 0
M  V30 1709 O 173.135 1.63206 0.609046 0
M  V30 1710 C 170.267 3.23144 1.08584 0
M  V30 1711 H 171.46 2.91739 -0.694883 0
M  V30 1712 H 169.013 1.51134 -0.398538 0
M  V30 1713 H 169.748 2.65408 1.86357 0
M  V30 1714 H 169.533 3.87804 0.578852 0
M  V30 1715 H 171.023 3.87004 1.56899 0
M  V30 1716 N 171.46 0.379036 1.52974 0
M  V30 1717 C 172.408 -0.476033 2.27677 0
M  V30 1718 C 173.402 -1.0719 1.31174 0
M  V30 1719 O 174.608 -1.01355 1.48752 0
M  V30 1720 H 170.983 -0.172255 0.732006 0
M  V30 1721 H 172.954 0.175615 2.97883 0
M  V30 1722 C 171.703 -1.5967 3.0887 0
M  V30 1723 H 171.026 -1.1475 3.82978 0
M  V30 1724 H 172.466 -2.16943 3.64296 0
M  V30 1725 C 170.925 -2.54682 2.20542 0
M  V30 1726 O 171.455 -3.57836 1.82527 0
M  V30 1727 N 169.661 -2.24183 1.84907 0
M  V30 1728 H 169.208 -1.40333 2.1602 0
M  V30 1729 H 169.166 -2.88006 1.26096 0
M  V30 1730 N 172.938 -1.57226 0.108567 0
M  V30 1731 C 173.87 -2.11809 -0.875752 0
M  V30 1732 C 174.883 -1.05839 -1.23701 0
M  V30 1733 O 176.072 -1.33245 -1.18778 0
M  V30 1734 C 173.172 -2.59411 -2.18081 0
M  V30 1735 C 172.345 -3.89364 -1.99284 0
M  V30 1736 C 171.404 -4.22672 -3.13424 0
M  V30 1737 O 170.43 -4.91668 -2.86795 0
M  V30 1738 N 171.632 -3.79154 -4.3957 0
M  V30 1739 H 174.397 -2.9689 -0.409477 0
M  V30 1740 H 171.958 -1.61721 -0.076158 0
M  V30 1741 H 173.95 -2.7873 -2.93414 0
M  V30 1742 H 172.52 -1.79268 -2.5609 0
M  V30 1743 H 171.74 -3.79059 -1.08203 0
M  V30 1744 H 173.028 -4.74358 -1.84017 0
M  V30 1745 H 172.426 -3.23486 -4.64083 0
M  V30 1746 H 170.983 -4.03602 -5.11809 0
M  V30 1747 N 174.416 0.165178 -1.56732 0
M  V30 1748 C 175.644 0.896218 -1.86482 0
M  V30 1749 C 176.059 1.75555 -0.694675 0
M  V30 1750 O 175.416 1.79379 0.33607 0
M  V30 1751 C 175.467 1.76792 -3.1532 0
M  V30 1752 O 175.188 0.943239 -4.27825 0
M  V30 1753 C 176.689 2.6081 -3.58459 0
M  V30 1754 H 173.909 0.260064 -0.618553 0
M  V30 1755 H 176.453 0.163428 -2.03846 0
M  V30 1756 H 174.608 2.45398 -2.99764 0
M  V30 1757 H 175.022 1.53998 -5.01383 0
M  V30 1758 H 176.496 3.17579 -4.51495 0
M  V30 1759 H 176.973 3.35977 -2.82872 0
M  V30 1760 H 177.579 1.97526 -3.76648 0
M  V30 1761 N 175.894 1.51508 0.433938 0
M  V30 1762 C 177.119 1.68443 1.21003 0
M  V30 1763 C 177.544 0.382636 1.84167 0
M  V30 1764 O 176.902 -0.65755 1.68956 0
M  V30 1765 C 176.95 2.80405 2.26727 0
M  V30 1766 O 176.054 2.44245 3.32292 0
M  V30 1767 H 175.395 0.561536 0.354363 0
M  V30 1768 H 177.925 1.9809 0.512024 0
M  V30 1769 H 177.935 3.0459 2.71457 0
M  V30 1770 H 176.61 3.74867 1.80132 0
M  V30 1771 H 175.187 2.30644 2.93015 0
M  V30 1772 N 177.372 -0.689602 1.41712 0
M  V30 1773 C 178.319 -1.80345 1.44029 0
M  V30 1774 C 179.289 -1.63478 0.293948 0
M  V30 1775 O 180.474 -1.84244 0.495869 0
M  V30 1776 C 177.614 -3.18272 1.33405 0
M  V30 1777 C 176.727 -3.46529 2.57956 0
M  V30 1778 C 175.862 -4.74103 2.39582 0
M  V30 1779 C 174.901 -4.95347 3.5958 0
M  V30 1780 N 174.038 -6.14151 3.40239 0
M  V30 1781 H 178.878 -1.77698 2.39222 0
M  V30 1782 H 176.415 -0.867688 1.18784 0
M  V30 1783 H 178.373 -3.97956 1.25246 0
M  V30 1784 H 177.003 -3.2008 0.418164 0
M  V30 1785 H 176.055 -2.61207 2.76542 0
M  V30 1786 H 177.367 -3.58126 3.47199 0
M  V30 1787 H 176.521 -5.61853 2.28924 0
M  V30 1788 H 175.26 -4.64763 1.47805 0
M  V30 1789 H 174.265 -4.06044 3.70686 0
M  V30 1790 H 175.49 -5.06542 4.52318 0
M  V30 1791 H 173.436 -6.06013 2.51167 0
M  V30 1792 H 173.353 -6.26543 4.23061 0
M  V30 1793 H 174.621 -7.04619 3.33365 0
M  V30 1794 N 178.85 -1.27639 -0.924453 0
M  V30 1795 C 180.098 -1.13941 -1.66918 0
M  V30 1796 C 180.419 0.314589 -1.92446 0
M  V30 1797 O 179.689 1.21964 -1.53303 0
M  V30 1798 H 178.269 -0.418678 -0.618642 0
M  V30 1799 H 180.931 -1.60213 -1.10985 0
M  V30 1800 H 180.027 -1.67094 -2.63602 0
M  V30 1801 N 180.328 1.1314 -1.09713 0
M  V30 1802 C 181.278 2.16709 -0.708593 0
M  V30 1803 C 182.262 1.58471 0.278523 0
M  V30 1804 O 183.454 1.76779 0.088427 0
M  V30 1805 C 180.583 3.43039 -0.133923 0
M  V30 1806 C 179.669 4.08277 -1.14763 0
M  V30 1807 N 180.06 4.48637 -2.33577 0
M  V30 1808 C 178.358 4.34954 -0.986446 0
M  V30 1809 C 179.059 4.9952 -2.98085 0
M  V30 1810 N 178.035 4.94561 -2.25632 0
M  V30 1811 H 181.837 2.45672 -1.61315 0
M  V30 1812 H 179.351 1.29967 -0.973775 0
M  V30 1813 H 181.348 4.16583 0.162465 0
M  V30 1814 H 180.008 3.15549 0.765447 0
M  V30 1815 H 181.019 4.41246 -2.7115 0
M  V30 1816 H 177.696 4.17258 -0.142008 0
M  V30 1817 H 179.086 5.40521 -3.99108 0
M  V30 1818 N 181.806 0.884767 1.30421 0
M  V30 1819 C 183.034 0.518044 2.0031 0
M  V30 1820 C 183.449 -0.893408 1.66324 0
M  V30 1821 O 182.806 -1.5875 0.900262 0
M  V30 1822 C 182.857 0.682997 3.54989 0
M  V30 1823 O 182.578 2.03888 3.87764 0
M  V30 1824 C 184.079 0.31924 4.42149 0
M  V30 1825 H 181.299 0.200265 0.640418 0
M  V30 1826 H 183.843 1.19001 1.6631 0
M  V30 1827 H 181.998 0.0584052 3.87356 0
M  V30 1828 H 182.412 2.05735 4.82466 0
M  V30 1829 H 183.886 0.485555 5.4986 0
M  V30 1830 H 184.363 -0.742717 4.32875 0
M  V30 1831 H 184.969 0.920147 4.15227 0
M  V30 1832 N 183.284 -1.43765 0.645699 0
M  V30 1833 C 184.532 -2.01499 0.155731 0
M  V30 1834 C 184.853 -1.51151 -1.232 0
M  V30 1835 O 184.123 -0.721044 -1.82148 0
M  V30 1836 H 182.703 -0.745003 0.0545817 0
M  V30 1837 H 185.365 -1.76075 0.835677 0
M  V30 1838 H 184.461 -3.1181 0.134577 0
M  V30 1839 N 184.763 -0.387143 -1.52771 0
M  V30 1840 C 186.011 0.195349 -2.01154 0
M  V30 1841 C 186.332 1.475 -1.27549 0
M  V30 1842 O 185.602 1.91878 -0.394924 0
M  V30 1843 H 184.182 0.075178 -0.743207 0
M  V30 1844 H 186.844 -0.518337 -1.87881 0
M  V30 1845 H 185.94 0.407096 -3.09434 0
M  V30 1846 N 186.241 1.57166 -0.116904 0
M  V30 1847 C 187.191 2.11756 0.845178 0
M  V30 1848 C 188.175 1.03783 1.22955 0
M  V30 1849 O 189.367 1.3002 1.20099 0
M  V30 1850 C 186.496 2.71886 2.09602 0
M  V30 1851 C 185.582 3.86937 1.7361 0
M  V30 1852 N 185.973 4.94073 1.08284 0
M  V30 1853 C 184.271 3.97082 2.03082 0
M  V30 1854 C 184.972 5.74477 0.913855 0
M  V30 1855 N 183.948 5.2423 1.43818 0
M  V30 1856 H 187.75 2.91967 0.336523 0
M  V30 1857 H 185.264 1.62174 0.0856332 0
M  V30 1858 H 187.261 3.09338 2.79492 0
M  V30 1859 H 185.921 1.93138 2.61013 0
M  V30 1860 H 186.932 5.12483 0.747067 0
M  V30 1861 H 183.609 3.29372 2.56554 0
M  V30 1862 H 184.999 6.70701 0.40125 0
M  V30 1863 N 187.719 -0.156864 1.56817 0
M  V30 1864 C 188.669 -1.19891 1.93934 0
M  V30 1865 C 189.653 -1.39061 0.809372 0
M  V30 1866 O 190.845 -1.40789 1.07273 0
M  V30 1867 C 187.974 -2.53493 2.31508 0
M  V30 1868 C 187.06 -2.37957 3.51052 0
M  V30 1869 N 187.451 -1.92158 4.67877 0
M  V30 1870 C 185.749 -2.68739 3.55943 0
M  V30 1871 C 186.45 -1.8943 5.49992 0
M  V30 1872 N 185.426 -2.32375 4.91429 0
M  V30 1873 H 189.228 -0.836746 2.81737 0
M  V30 1874 H 186.742 -0.365012 1.58245 0
M  V30 1875 H 188.739 -3.28811 2.56299 0
M  V30 1876 H 187.399 -2.905 1.45051 0
M  V30 1877 H 188.41 -1.62274 4.91821 0
M  V30 1878 H 185.087 -3.09687 2.80001 0
M  V30 1879 H 186.477 -1.55596 6.53636 0
M  V30 1880 N 189.197 -1.51736 -0.425897 0
M  V30 1881 C 190.422 -1.69082 -1.20108 0
M  V30 1882 C 190.847 -0.392398 -1.83962 0
M  V30 1883 O 190.205 0.64858 -1.69302 0
M  V30 1884 C 190.253 -2.81604 -2.25237 0
M  V30 1885 O 189.357 -2.46004 -3.30992 0
M  V30 1886 H 188.698 -0.563408 -0.35138 0
M  V30 1887 H 191.228 -1.98358 -0.501512 0
M  V30 1888 H 191.238 -3.06025 -2.69838 0
M  V30 1889 H 189.913 -3.75817 -1.78142 0
M  V30 1890 H 188.49 -2.32195 -2.91787 0
M  V30 1891 N 190.675 0.682077 -1.42076 0
M  V30 1892 C 192.086 1.26246 -1.37546 0
M  V30 1893 C 192.437 1.96092 -0.0651481 0
M  V30 1894 O 191.562 1.99587 0.836297 0
M  V30 1895 C 192.157 2.29594 -2.49143 0
M  V30 1896 C 190.716 2.83175 -2.47969 0
M  V30 1897 C 189.863 1.57395 -2.28303 0
M  V30 1898 H 192.814 0.475937 -1.51395 0
M  V30 1899 H 192.835 3.11175 -2.18976 0
M  V30 1900 H 192.347 1.78729 -3.44496 0
M  V30 1901 H 190.448 3.3818 -1.56413 0
M  V30 1902 H 190.561 3.32687 -3.44755 0
M  V30 1903 H 188.925 1.83699 -1.76428 0
M  V30 1904 H 189.708 1.08507 -3.25701 0
M  V30 1905 N 192.153 1.28127 0.917671 0
M  V30 1906 C 193.399 1.15223 1.66888 0
M  V30 1907 C 193.732 -0.299293 1.9188 0
M  V30 1908 O 193.007 -1.21805 1.51637 0
M  V30 1909 C 193.29 1.94706 3.02922 0
M  V30 1910 C 193.143 3.47898 2.85109 0
M  V30 1911 C 194.462 1.75939 4.03402 0
M  V30 1912 H 191.581 0.419946 0.605652 0
M  V30 1913 H 194.223 1.57398 1.06423 0
M  V30 1914 H 192.373 1.58864 3.54534 0
M  V30 1915 H 194.045 3.93624 2.40537 0
M  V30 1916 H 192.288 3.7373 2.20246 0
M  V30 1917 H 192.959 3.98765 3.81694 0
M  V30 1918 H 195.435 2.07209 3.60837 0
M  V30 1919 H 194.311 2.33931 4.96556 0
M  V30 1920 H 194.572 0.709877 4.36364 0
M  V30 1921 N 193.631 -1.12557 1.10312 0
M  V30 1922 C 194.578 -2.18247 0.750781 0
M  V30 1923 C 195.548 -1.63853 -0.272293 0
M  V30 1924 O 196.733 -1.90195 -0.151862 0
M  V30 1925 C 193.873 -3.44591 0.187379 0
M  V30 1926 C 192.986 -4.13046 1.2656 0
M  V30 1927 C 192.121 -5.27034 0.663978 0
M  V30 1928 C 191.16 -5.87353 1.72287 0
M  V30 1929 N 190.297 -6.92757 1.1416 0
M  V30 1930 H 195.137 -2.47732 1.65628 0
M  V30 1931 H 192.674 -1.21629 0.827337 0
M  V30 1932 H 194.632 -4.16904 -0.157148 0
M  V30 1933 H 193.262 -3.15527 -0.681355 0
M  V30 1934 H 192.314 -3.38924 1.72727 0
M  V30 1935 H 193.626 -4.53947 2.06721 0
M  V30 1936 H 192.78 -6.06104 0.268824 0
M  V30 1937 H 191.519 -4.87407 -0.169082 0
M  V30 1938 H 190.524 -5.06971 2.12746 0
M  V30 1939 H 191.749 -6.29051 2.55875 0
M  V30 1940 H 189.695 -6.5517 0.329984 0
M  V30 1941 H 189.612 -7.3225 1.88007 0
M  V30 1942 H 190.88 -7.75658 0.772956 0
M  V30 1943 N 195.109 -0.891671 -1.2995 0
M  V30 1944 C 196.357 -0.512486 -1.95494 0
M  V30 1945 C 196.678 0.942776 -1.70695 0
M  V30 1946 O 195.948 1.66374 -1.03424 0
M  V30 1947 H 194.528 -0.186533 -0.723336 0
M  V30 1948 H 197.19 -1.13621 -1.58355 0
M  V30 1949 H 196.286 -0.688342 -3.04415 0
M  V30 1950 N 196.587 1.43421 -0.653314 0
M  V30 1951 C 197.55 2.29182 0.0287951 0
M  V30 1952 C 198.55 1.42213 0.750465 0
M  V30 1953 O 199.74 1.63843 0.591701 0
M  V30 1954 C 196.872 3.24278 1.05151 0
M  V30 1955 H 198.065 2.90985 -0.725786 0
M  V30 1956 H 195.618 1.50702 -0.414545 0
M  V30 1957 H 196.353 2.6737 1.83532 0
M  V30 1958 H 196.138 3.88396 0.537687 0
M  V30 1959 H 197.628 3.88647 1.52786 0
M  V30 1960 N 198.065 0.39524 1.52563 0
M  V30 1961 C 199.012 -0.437036 2.26624 0
M  V30 1962 C 199.982 -1.05281 1.28472 0
M  V30 1963 O 201.167 -1.07971 1.57311 0
M  V30 1964 C 198.307 -1.55524 3.08069 0
M  V30 1965 C 197.42 -0.961745 4.21158 0
M  V30 1966 C 196.555 -2.05149 4.89987 0
M  V30 1967 C 195.594 -1.4342 5.95061 0
M  V30 1968 N 194.731 -2.46351 6.57462 0
M  V30 1969 H 199.571 0.200976 2.97322 0
M  V30 1970 H 197.108 0.110944 1.46681 0
M  V30 1971 H 199.066 -2.21437 3.53584 0
M  V30 1972 H 197.696 -2.16348 2.3957 0
M  V30 1973 H 196.748 -0.192048 3.79915 0
M  V30 1974 H 198.06 -0.470701 4.96574 0
M  V30 1975 H 197.214 -2.78819 5.38837 0
M  V30 1976 H 195.953 -2.57615 4.14109 0
M  V30 1977 H 194.958 -0.682774 5.45544 0
M  V30 1978 H 196.183 -0.917416 6.72875 0
M  V30 1979 H 194.129 -2.97975 5.8442 0
M  V30 1980 H 194.046 -2.02019 7.28508 0
M  V30 1981 H 195.314 -3.19633 7.10954 0
M  V30 1982 N 199.544 -1.57102 0.125237 0
M  V30 1983 C 200.955 -1.82384 -0.399142 0
M  V30 1984 C 201.306 -1.04276 -1.66195 0
M  V30 1985 O 200.431 -0.281269 -2.14564 0
M  V30 1986 C 201.026 -3.30821 -0.730932 0
M  V30 1987 C 199.585 -3.56762 -1.19992 0
M  V30 1988 C 198.732 -2.7649 -0.211792 0
M  V30 1989 H 201.683 -1.54786 0.350277 0
M  V30 1990 H 201.704 -3.4579 -1.58775 0
M  V30 1991 H 201.216 -3.87643 0.188345 0
M  V30 1992 H 199.317 -3.05305 -2.13588 0
M  V30 1993 H 199.43 -4.65317 -1.14093 0
M  V30 1994 H 197.794 -2.4489 -0.700085 0
M  V30 1995 H 198.577 -3.36073 0.700691 0
M  V30 1996 N 201.022 0.148545 -1.56898 0
M  V30 1997 C 201.972 1.1886 -1.94567 0
M  V30 1998 C 202.956 1.3863 -0.816735 0
M  V30 1999 O 204.148 1.40218 -1.08018 0
M  V30 2000 C 201.277 2.52262 -2.32849 0
M  V30 2001 C 200.363 2.36092 -3.52309 0
M  V30 2002 N 200.754 1.89674 -4.6889 0
M  V30 2003 C 199.052 2.66848 -3.57363 0
M  V30 2004 C 199.753 1.86511 -5.50989 0
M  V30 2005 N 198.729 2.29766 -4.92655 0
M  V30 2006 H 202.531 0.821793 -2.82177 0
M  V30 2007 H 200.045 0.356615 -1.58436 0
M  V30 2008 H 202.042 3.27447 -2.58039 0
M  V30 2009 H 200.702 2.89727 -1.46589 0
M  V30 2010 H 201.713 1.59663 -4.92674 0
M  V30 2011 H 198.39 3.08198 -2.81639 0
M  V30 2012 H 199.78 1.52128 -6.54452 0
M  V30 2013 N 202.5 1.5196 0.417844 0
M  V30 2014 C 203.747 1.65591 1.16559 0
M  V30 2015 C 204.075 0.381565 1.90721 0
M  V30 2016 O 203.33 -0.635156 1.85106 0
M  V30 2017 C 203.629 2.82269 2.19223 0
M  V30 2018 C 203.295 4.20819 1.61933 0
M  V30 2019 C 201.957 4.58506 1.46033 0
M  V30 2020 C 204.309 5.07196 1.20008 0
M  V30 2021 C 201.637 5.80257 0.867113 0
M  V30 2022 C 203.989 6.29544 0.621086 0
M  V30 2023 C 202.653 6.65987 0.449144 0
M  V30 2024 H 201.923 0.605939 0.42652 0
M  V30 2025 H 204.57 1.86041 0.45397 0
M  V30 2026 H 202.875 2.56118 2.96498 0
M  V30 2027 H 204.572 2.90012 2.76936 0
M  V30 2028 H 201.162 3.91116 1.7529 0
M  V30 2029 H 205.346 4.7867 1.31105 0
M  V30 2030 H 200.602 6.07124 0.721833 0
M  V30 2031 H 204.776 6.95805 0.287798 0
M  V30 2032 H 202.403 7.60199 -0.012632 0
M  V30 2033 N 203.978 -0.674533 1.42435 0
M  V30 2034 C 205.227 -1.43034 1.42212 0
M  V30 2035 C 205.54 -1.95555 0.0420788 0
M  V30 2036 O 206.746 -2.71374 -0.0827558 0
M  V30 2037 C 205.202 -2.58748 2.50155 0
M  V30 2038 C 204.81 -2.12925 3.94166 0
M  V30 2039 C 206.554 -3.36257 2.59098 0
M  V30 2040 C 204.461 -3.25723 4.93618 0
M  V30 2041 H 203.391 -0.537345 0.528939 0
M  V30 2042 H 206.042 -0.73024 1.68344 0
M  V30 2043 H 204.424 -3.31128 2.17188 0
M  V30 2044 H 205.598 -1.47697 4.36488 0
M  V30 2045 H 203.913 -1.48354 3.89076 0
M  V30 2046 H 206.51 -4.20264 3.30578 0
M  V30 2047 H 206.853 -3.82866 1.63461 0
M  V30 2048 H 207.386 -2.70947 2.9126 0
M  V30 2049 H 204.125 -2.84105 5.90732 0
M  V30 2050 H 203.645 -3.89732 4.55926 0
M  V30 2051 H 205.324 -3.91186 5.15347 0
M  V30 2052 N 205.456 -1.28612 -0.910864 0
M  V30 2053 C 206.684 -1.18792 -1.69399 0
M  V30 2054 C 207.099 0.253039 -1.87097 0
M  V30 2055 O 206.456 1.17071 -1.40003 0
M  V30 2056 C 206.507 -1.88511 -3.08457 0
M  V30 2057 O 206.228 -3.26979 -2.91576 0
M  V30 2058 C 207.729 -1.85029 -4.02839 0
M  V30 2059 H 204.949 -0.412233 -0.529438 0
M  V30 2060 H 207.493 -1.69788 -1.13984 0
M  V30 2061 H 205.648 -1.41379 -3.60681 0
M  V30 2062 H 206.062 -3.61936 -3.79608 0
M  V30 2063 H 207.536 -2.38395 -4.97867 0
M  V30 2064 H 208.013 -0.823303 -4.31414 0
M  V30 2065 H 208.619 -2.31853 -3.56545 0
M  V30 2066 N 206.934 1.1197 -1.10907 0
M  V30 2067 C 208.159 1.87942 -0.877064 0
M  V30 2068 C 208.584 1.79341 0.567314 0
M  V30 2069 O 207.942 1.15184 1.40009 0
M  V30 2070 C 207.99 3.34926 -1.33629 0
M  V30 2071 O 207.094 4.09303 -0.504447 0
M  V30 2072 H 206.435 0.583785 -0.316371 0
M  V30 2073 H 208.965 1.4157 -1.47712 0
M  V30 2074 H 208.975 3.8577 -1.32837 0
M  V30 2075 H 207.65 3.40504 -2.3881 0
M  V30 2076 H 206.227 3.68393 -0.577993 0
M  V30 2077 N 208.412 0.89855 1.29475 0
M  V30 2078 C 209.637 0.538561 2.00285 0
M  V30 2079 C 210.062 -0.869135 1.66816 0
M  V30 2080 O 209.42 -1.57831 0.892145 0
M  V30 2081 C 209.468 0.736475 3.52999 0
M  V30 2082 O 208.572 -0.211537 4.11857 0
M  V30 2083 H 207.913 0.210563 0.62973 0
M  V30 2084 H 210.443 1.20982 1.64998 0
M  V30 2085 H 210.453 0.640685 4.02938 0
M  V30 2086 H 209.128 1.76276 3.76696 0
M  V30 2087 H 207.705 -0.0682991 3.72837 0
M  V30 2088 N 209.89 -1.43072 0.660911 0
M  V30 2089 C 211.136 -2.0202 0.177708 0
M  V30 2090 C 211.469 -1.52066 -1.20787 0
M  V30 2091 O 210.744 -0.716987 -1.80802 0
M  V30 2092 C 211.027 -3.59561 0.197019 0
M  V30 2093 C 210.88 -4.19727 1.61706 0
M  V30 2094 C 212.199 -4.37664 -0.462396 0
M  V30 2095 H 209.318 -0.734034 0.0660494 0
M  V30 2096 H 211.96 -1.70272 0.843058 0
M  V30 2097 H 210.11 -3.86739 -0.369527 0
M  V30 2098 H 211.782 -4.03553 2.23479 0
M  V30 2099 H 210.025 -3.76084 2.16201 0
M  V30 2100 H 210.696 -5.28834 1.58237 0
M  V30 2101 H 213.172 -4.16095 0.0197215 0
M  V30 2102 H 212.048 -5.47305 -0.418188 0
M  V30 2103 H 212.309 -4.14493 -1.53778 0
M  V30 2104 N 211.368 -0.403325 -1.52352 0
M  V30 2105 C 212.278 0.432009 -2.30588 0
M  V30 2106 C 213.294 1.05884 -1.38075 0
M  V30 2107 O 214.47 1.06161 -1.71148 0
M  V30 2108 C 211.535 1.53669 -3.10784 0
M  V30 2109 C 210.596 0.933525 -4.19027 0
M  V30 2110 C 209.829 1.98557 -4.9539 0
M  V30 2111 O 210.052 3.20283 -4.71991 0
M  V30 2112 O 208.986 1.59504 -5.80381 0
M  V30 2113 H 212.812 -0.205739 -3.03002 0
M  V30 2114 H 210.397 -0.166675 -1.48467 0
M  V30 2115 H 212.279 2.17814 -3.60742 0
M  V30 2116 H 210.954 2.15915 -2.41169 0
M  V30 2117 H 209.861 0.254954 -3.7323 0
M  V30 2118 H 211.194 0.35508 -4.90918 0
M  V30 2119 N 212.846 1.57033 -0.133567 0
M  V30 2120 C 213.796 2.12641 0.822671 0
M  V30 2121 C 214.78 1.05081 1.21847 0
M  V30 2122 O 215.972 1.31287 1.18713 0
M  V30 2123 C 213.101 2.74094 2.06706 0
M  V30 2124 C 212.187 3.88757 1.69497 0
M  V30 2125 N 212.578 4.95194 1.03037 0
M  V30 2126 C 210.876 3.99213 1.98859 0
M  V30 2127 C 211.577 5.75414 0.852873 0
M  V30 2128 N 210.553 5.25726 1.3825 0
M  V30 2129 H 214.355 2.92308 0.305537 0
M  V30 2130 H 211.869 1.62256 0.0684276 0
M  V30 2131 H 213.866 3.12285 2.76195 0
M  V30 2132 H 212.526 1.95896 2.5895 0
M  V30 2133 H 213.537 5.13247 0.692669 0
M  V30 2134 H 210.214 3.32075 2.53047 0
M  V30 2135 H 211.604 6.71089 0.330091 0
M  V30 2136 N 214.325 -0.140222 1.56975 0
M  V30 2137 C 215.602 -0.880769 1.74648 0
M  V30 2138 C 215.982 -1.99036 0.703404 0
M  V30 2139 O 215.33 -2.26821 -0.27648 0
M  V30 2140 C 215.54 -1.417 3.18939 0
M  V30 2141 C 216.888 -1.87774 3.80823 0
M  V30 2142 O 217.912 -1.51427 3.2241 0
M  V30 2143 O 216.771 -2.54827 4.83452 0
M  V30 2144 H 213.865 -0.416713 0.714338 0
M  V30 2145 H 216.411 -0.125618 1.69234 0
M  V30 2146 H 215.183 -0.619902 3.86359 0
M  V30 2147 H 214.806 -2.23546 3.28805 0
M  V30 2148 N 215.803 -1.52179 -0.40978 0
M  V30 2149 C 217.028 -1.70347 -1.18308 0
M  V30 2150 C 217.453 -0.411887 -1.83535 0
M  V30 2151 O 216.811 0.630587 -1.6998 0
M  V30 2152 C 216.859 -2.83977 -2.22238 0
M  V30 2153 O 215.963 -2.495 -3.28365 0
M  V30 2154 H 215.304 -0.567103 -0.345384 0
M  V30 2155 H 217.834 -1.98879 -0.480445 0
M  V30 2156 H 217.844 -3.0887 -2.66577 0
M  V30 2157 H 216.519 -3.77685 -1.74146 0
M  V30 2158 H 215.096 -2.35277 -2.89308 0
M  V30 2159 N 217.281 0.66697 -1.42791 0
M  V30 2160 C 218.53 1.42278 -1.42968 0
M  V30 2161 C 218.843 1.9553 -0.0524489 0
M  V30 2162 O 220.049 2.71414 0.068363 0
M  V30 2163 C 218.505 2.57418 -2.51524 0
M  V30 2164 C 218.113 2.10832 -3.9529 0
M  V30 2165 C 219.857 3.34878 -2.60877 0
M  V30 2166 C 217.764 3.23101 -4.95338 0
M  V30 2167 H 216.694 0.534533 -0.531781 0
M  V30 2168 H 219.345 0.721302 -1.68729 0
M  V30 2169 H 217.727 3.29971 -2.18941 0
M  V30 2170 H 218.901 1.4538 -4.37266 0
M  V30 2171 H 217.216 1.46289 -3.89857 0
M  V30 2172 H 219.813 4.18505 -3.32802 0
M  V30 2173 H 220.156 3.81993 -1.6549 0
M  V30 2174 H 220.689 2.69398 -2.92693 0
M  V30 2175 H 217.428 2.80969 -5.9223 0
M  V30 2176 H 216.948 3.87309 -4.57987 0
M  V30 2177 H 218.627 3.88447 -5.17415 0
M  V30 2178 N 218.759 1.29093 0.90403 0
M  V30 2179 C 220.175 1.07011 1.1841 0
M  V30 2180 C 220.375 -0.181358 2.00682 0
M  V30 2181 O 219.431 -0.880331 2.36657 0
M  V30 2182 C 220.744 2.32311 1.90924 0
M  V30 2183 C 222.292 2.37587 2.03768 0
M  V30 2184 C 222.767 3.62679 2.79693 0
M  V30 2185 N 224.258 3.63376 2.87249 0
M  V30 2186 C 224.993 4.56848 3.46522 0
M  V30 2187 N 224.489 5.60648 4.06996 0
M  V30 2188 N 226.282 4.44426 3.44154 0
M  V30 2189 H 218.433 2.09412 0.354993 0
M  V30 2190 H 220.696 0.922181 0.219742 0
M  V30 2191 H 220.402 3.23536 1.37905 0
M  V30 2192 H 220.276 2.39483 2.91424 0
M  V30 2193 H 222.663 1.46853 2.55965 0
M  V30 2194 H 222.744 2.34403 1.02415 0
M  V30 2195 H 222.388 4.53762 2.28173 0
M  V30 2196 H 222.318 3.63119 3.81381 0
M  V30 2197 H 224.809 2.88321 2.44293 0
M  V30 2198 H 225.122 6.28101 4.50232 0
M  V30 2199 H 223.467 5.64463 4.05471 0
M  V30 2200 H 226.658 3.62529 2.96126 0
M  V30 2201 H 226.831 5.17457 3.90054 0
M  V30 2202 N 220.237 -1.11381 1.11499 0
M  V30 2203 C 221.167 -2.19509 0.796125 0
M  V30 2204 C 222.148 -1.68458 -0.235796 0
M  V30 2205 O 223.333 -1.93947 -0.0991344 0
M  V30 2206 C 220.463 -3.46475 0.239205 0
M  V30 2207 C 219.417 -4.10744 1.20307 0
M  V30 2208 C 218.743 -5.32293 0.50683 0
M  V30 2209 C 220.043 -4.55597 2.55399 0
M  V30 2210 H 221.737 -2.46439 1.70024 0
M  V30 2211 H 219.283 -1.18446 0.818935 0
M  V30 2212 H 221.236 -4.214 0.00392006 0
M  V30 2213 H 219.96 -3.19006 -0.700206 0
M  V30 2214 H 218.619 -3.37813 1.42399 0
M  V30 2215 H 218.267 -5.01095 -0.437408 0
M  V30 2216 H 217.967 -5.76243 1.1497 0
M  V30 2217 H 219.491 -6.09956 0.280351 0
M  V30 2218 H 220.905 -5.21841 2.37391 0
M  V30 2219 H 219.302 -5.10363 3.15673 0
M  V30 2220 H 220.372 -3.69013 3.14575 0
M  V30 2221 N 221.715 -0.905404 -1.28997 0
M  V30 2222 C 223.126 -0.581953 -1.77398 0
M  V30 2223 C 223.477 0.902552 -1.74208 0
M  V30 2224 O 222.602 1.70584 -1.33154 0
M  V30 2225 C 223.197 -1.04961 -3.22131 0
M  V30 2226 C 221.756 -0.777229 -3.68288 0
M  V30 2227 C 220.903 -1.22109 -2.48967 0
M  V30 2228 H 223.854 -1.08754 -1.15578 0
M  V30 2229 H 223.875 -0.387387 -3.78523 0
M  V30 2230 H 223.387 -2.13008 -3.24421 0
M  V30 2231 H 221.488 0.290383 -3.71467 0
M  V30 2232 H 221.601 -1.37911 -4.58822 0
M  V30 2233 H 219.965 -0.639971 -2.46529 0
M  V30 2234 H 220.748 -2.30972 -2.53982 0
M  V30 2235 N 223.193 1.4272 -0.668489 0
M  V30 2236 C 224.123 2.335 -0.000100175 0
M  V30 2237 C 225.104 1.50328 0.795964 0
M  V30 2238 O 226.289 1.78949 0.754385 0
M  V30 2239 C 223.419 3.33874 0.956302 0
M  V30 2240 C 222.373 4.27152 0.269278 0
M  V30 2241 C 221.699 5.17684 1.33818 0
M  V30 2242 C 222.999 5.15373 -0.847805 0
M  V30 2243 H 224.693 2.89639 -0.758244 0
M  V30 2244 H 222.239 1.39269 -0.366079 0
M  V30 2245 H 224.192 3.9629 1.43292 0
M  V30 2246 H 222.916 2.76025 1.74579 0
M  V30 2247 H 221.575 3.66123 -0.187042 0
M  V30 2248 H 221.223 4.56165 2.1195 0
M  V30 2249 H 220.923 5.80918 0.883659 0
M  V30 2250 H 222.447 5.82974 1.81586 0
M  V30 2251 H 223.861 5.7151 -0.452681 0
M  V30 2252 H 222.258 5.87407 -1.22773 0
M  V30 2253 H 223.328 4.5415 -1.69929 0
M  V30 2254 N 224.671 0.411399 1.52136 0
M  V30 2255 C 225.581 -0.419774 2.30814 0
M  V30 2256 C 226.597 -1.0515 1.38634 0
M  V30 2257 O 227.773 -1.05252 1.71709 0
M  V30 2258 C 224.838 -1.52019 3.11594 0
M  V30 2259 C 223.899 -0.91129 4.19516 0
M  V30 2260 C 223.132 -1.95927 4.96436 0
M  V30 2261 O 223.355 -3.17775 4.73683 0
M  V30 2262 O 222.289 -1.56423 5.81219 0
M  V30 2263 H 226.115 0.221805 3.02889 0
M  V30 2264 H 223.7 0.174547 1.48377 0
M  V30 2265 H 225.582 -2.15898 3.61892 0
M  V30 2266 H 224.257 -2.14633 2.42311 0
M  V30 2267 H 223.164 -0.235157 3.7336 0
M  V30 2268 H 224.497 -0.32904 4.91099 0
M  V30 2269 N 226.149 -1.5696 0.141893 0
M  V30 2270 C 227.099 -2.13074 -0.811383 0
M  V30 2271 C 228.083 -1.05726 -1.21288 0
M  V30 2272 O 229.275 -1.31914 -1.18015 0
M  V30 2273 C 226.404 -2.75186 -2.0525 0
M  V30 2274 C 225.49 -3.8965 -1.67432 0
M  V30 2275 N 225.881 -4.95733 -1.0041 0
M  V30 2276 C 224.179 -4.00262 -1.96739 0
M  V30 2277 C 224.88 -5.75858 -0.822345 0
M  V30 2278 N 223.856 -5.26452 -1.3546 0
M  V30 2279 H 227.658 -2.92465 -0.290031 0
M  V30 2280 H 225.172 -1.6229 -0.0598218 0
M  V30 2281 H 227.169 -3.13745 -2.74535 0
M  V30 2282 H 225.829 -1.97266 -2.57907 0
M  V30 2283 H 226.84 -5.13607 -0.665441 0
M  V30 2284 H 223.517 -3.33412 -2.51282 0
M  V30 2285 H 224.907 -6.71254 -0.294496 0
M  V30 2286 N 227.627 0.131896 -1.57047 0
M  V30 2287 C 228.557 1.16384 -2.02428 0
M  V30 2288 C 229.538 1.43936 -0.90644 0
M  V30 2289 O 230.723 1.54599 -1.17528 0
M  V30 2290 C 227.853 2.49328 -2.4177 0
M  V30 2291 C 226.807 2.36266 -3.56879 0
M  V30 2292 C 226.133 3.74057 -3.8208 0
M  V30 2293 C 227.433 1.834 -4.89042 0
M  V30 2294 H 229.127 0.786433 -2.88887 0
M  V30 2295 H 226.673 0.376855 -1.38981 0
M  V30 2296 H 228.626 3.21759 -2.7212 0
M  V30 2297 H 227.35 2.88934 -1.52266 0
M  V30 2298 H 226.009 1.66286 -3.26718 0
M  V30 2299 H 225.657 4.11125 -2.89803 0
M  V30 2300 H 225.357 3.66174 -4.59554 0
M  V30 2301 H 226.881 4.48012 -4.1487 0
M  V30 2302 H 228.295 2.45636 -5.18011 0
M  V30 2303 H 226.692 1.8637 -5.70426 0
M  V30 2304 H 227.762 0.790662 -4.7841 0
M  V30 2305 N 229.106 1.52395 0.401703 0
M  V30 2306 C 230.352 1.67065 1.14966 0
M  V30 2307 C 230.685 0.403052 1.89971 0
M  V30 2308 O 229.96 -0.598774 1.85054 0
M  V30 2309 C 230.243 2.8975 2.13815 0
M  V30 2310 C 230.096 4.26578 1.42658 0
M  V30 2311 C 231.415 3.07965 3.14397 0
M  V30 2312 H 228.534 0.607968 0.416587 0
M  V30 2313 H 231.176 1.84965 0.434511 0
M  V30 2314 H 229.326 2.74619 2.74803 0
M  V30 2315 H 230.998 4.53451 0.847329 0
M  V30 2316 H 229.241 4.27639 0.72849 0
M  V30 2317 H 229.912 5.08483 2.14823 0
M  V30 2318 H 232.388 3.22043 2.63491 0
M  V30 2319 H 231.264 3.95308 3.80819 0
M  V30 2320 H 231.525 2.21611 3.82545 0
M  V30 2321 N 230.584 -0.659388 1.43143 0
M  V30 2322 C 231.494 -1.80167 1.50256 0
M  V30 2323 C 232.51 -1.69571 0.390106 0
M  V30 2324 O 233.686 -1.90849 0.643319 0
M  V30 2325 C 230.751 -3.16409 1.41725 0
M  V30 2326 C 229.812 -3.38848 2.63591 0
M  V30 2327 C 229.045 -4.68591 2.55458 0
M  V30 2328 O 229.268 -5.47532 1.59891 0
M  V30 2329 O 228.202 -4.92614 3.45854 0
M  V30 2330 H 232.028 -1.77121 2.46702 0
M  V30 2331 H 229.613 -0.817092 1.25076 0
M  V30 2332 H 231.495 -3.9768 1.39387 0
M  V30 2333 H 230.17 -3.20059 0.484118 0
M  V30 2334 H 229.077 -2.57366 2.71502 0
M  V30 2335 H 230.41 -3.4004 3.55856 0
M  V30 2336 N 232.062 -1.29571 -0.897171 0
M  V30 2337 C 232.972 -1.16808 -2.03453 0
M  V30 2338 C 233.988 -0.0907471 -1.73763 0
M  V30 2339 O 235.164 -0.303312 -1.99103 0
M  V30 2340 C 232.229 -0.848264 -3.36163 0
M  V30 2341 C 231.29 -2.0097 -3.79354 0
M  V30 2342 C 230.523 -1.70505 -5.05731 0
M  V30 2343 O 230.746 -0.62718 -5.66941 0
M  V30 2344 O 229.68 -2.5538 -5.45036 0
M  V30 2345 H 233.506 -2.12325 -2.17144 0
M  V30 2346 H 231.091 -1.09047 -1.02123 0
M  V30 2347 H 232.973 -0.684581 -4.15802 0
M  V30 2348 H 231.648 0.0771071 -3.23608 0
M  V30 2349 H 230.555 -2.22863 -3.00471 0
M  V30 2350 H 231.888 -2.91636 -3.96496 0
M  V30 2351 N 233.54 1.10788 -1.12088 0
M  V30 2352 C 234.472 2.16816 -0.743213 0
M  V30 2353 C 235.485 1.6119 0.228412 0
M  V30 2354 O 236.674 1.78497 0.0102931 0
M  V30 2355 C 233.774 3.38809 -0.0787313 0
M  V30 2356 C 232.947 4.23885 -1.0789 0
M  V30 2357 C 232.006 5.24334 -0.442713 0
M  V30 2358 O 231.032 5.58497 -1.09864 0
M  V30 2359 N 232.234 5.75079 0.791457 0
M  V30 2360 H 234.999 2.49825 -1.65552 0
M  V30 2361 H 232.56 1.26373 -1.012 0
M  V30 2362 H 234.552 4.03107 0.358766 0
M  V30 2363 H 233.122 3.03805 0.736275 0
M  V30 2364 H 232.342 3.55939 -1.69414 0
M  V30 2365 H 233.63 4.77562 -1.75533 0
M  V30 2366 H 233.028 5.49517 1.3434 0
M  V30 2367 H 231.585 6.4118 1.17183 0
M  V30 2368 N 235.018 0.912232 1.28515 0
M  V30 2369 C 236.264 0.545405 1.95328 0
M  V30 2370 C 236.597 -0.908313 1.71649 0
M  V30 2371 O 235.872 -1.64575 1.03659 0
M  V30 2372 C 236.155 0.853483 3.4984 0
M  V30 2373 C 236.008 2.35982 3.82926 0
M  V30 2374 C 237.327 0.348589 4.38717 0
M  V30 2375 H 234.446 0.199626 0.709449 0
M  V30 2376 H 237.088 1.1412 1.5191 0
M  V30 2377 H 235.238 0.34643 3.86952 0
M  V30 2378 H 236.91 2.93738 3.55691 0
M  V30 2379 H 235.153 2.81543 3.30024 0
M  V30 2380 H 235.824 2.52593 4.90816 0
M  V30 2381 H 238.3 0.78294 4.08668 0
M  V30 2382 H 237.176 0.593242 5.45685 0
M  V30 2383 H 237.437 -0.751049 4.35674 0
M  V30 2384 N 236.496 -1.42363 0.676048 0
M  V30 2385 C 237.459 -2.29199 0.00766941 0
M  V30 2386 C 238.459 -1.43389 -0.727745 0
M  V30 2387 O 239.649 -1.64764 -0.56556 0
M  V30 2388 C 236.781 -3.2591 -0.999785 0
M  V30 2389 H 237.974 -2.89794 0.771988 0
M  V30 2390 H 235.527 -1.50024 0.438468 0
M  V30 2391 H 236.262 -2.70256 -1.79255 0
M  V30 2392 H 236.047 -3.89202 -0.475829 0
M  V30 2393 H 237.537 -3.91028 -1.46583 0
M  V30 2394 N 237.974 -0.419461 -1.51915 0
M  V30 2395 C 238.937 0.389116 -2.25873 0
M  V30 2396 C 239.937 0.964924 -1.28631 0
M  V30 2397 O 241.127 0.842179 -1.52489 0
M  V30 2398 C 238.259 1.54874 -3.03689 0
M  V30 2399 H 239.452 -0.258799 -2.98781 0
M  V30 2400 H 237.005 -0.172209 -1.55348 0
M  V30 2401 H 237.74 2.23323 -2.35154 0
M  V30 2402 H 237.525 1.14223 -3.75094 0
M  V30 2403 H 239.015 2.12046 -3.59759 0
M  V30 2404 N 239.452 1.56882 -0.150215 0
M  V30 2405 C 240.698 1.96518 0.500834 0
M  V30 2406 C 241.031 1.03527 1.64304 0
M  V30 2407 O 240.306 0.0782751 1.94342 0
M  V30 2408 C 240.589 3.45822 1.00395 0
M  V30 2409 C 240.442 4.49591 -0.136983 0
M  V30 2410 C 241.761 3.97704 1.88467 0
M  V30 2411 H 238.88 0.714535 0.18058 0
M  V30 2412 H 241.522 1.88577 -0.232091 0
M  V30 2413 H 239.672 3.5272 1.62851 0
M  V30 2414 H 241.344 4.5477 -0.77343 0
M  V30 2415 H 239.587 4.26441 -0.795652 0
M  V30 2416 H 240.258 5.51402 0.256815 0
M  V30 2417 H 242.734 3.93304 1.35834 0
M  V30 2418 H 241.61 5.0263 2.20578 0
M  V30 2419 H 241.871 3.40252 2.82279 0
M  V30 2420 N 240.93 -0.123565 1.57115 0
M  V30 2421 C 242.158 -0.846461 1.88793 0
M  V30 2422 C 242.573 -1.73652 0.740976 0
M  V30 2423 O 241.93 -1.80207 -0.288393 0
M  V30 2424 C 241.981 -1.6837 3.19897 0
M  V30 2425 O 241.702 -0.829477 4.30176 0
M  V30 2426 C 243.203 -2.51214 3.65248 0
M  V30 2427 H 240.423 -0.243573 0.625231 0
M  V30 2428 H 242.967 -0.109324 2.04208 0
M  V30 2429 H 241.122 -2.37364 3.06165 0
M  V30 2430 H 241.536 -1.40651 5.0529 0
M  V30 2431 H 243.01 -3.05497 4.59756 0
M  V30 2432 H 243.487 -3.28359 2.9168 0
M  V30 2433 H 244.093 -1.8747 3.81752 0
M  V30 2434 N 242.408 -1.52605 -0.393616 0
M  V30 2435 C 243.655 -1.67424 -1.1391 0
M  V30 2436 C 243.983 -0.411859 -1.90089 0
M  V30 2437 O 243.238 0.605626 -1.86093 0
M  V30 2438 C 243.537 -2.85721 -2.14705 0
M  V30 2439 C 243.203 -4.23342 -1.55218 0
M  V30 2440 C 241.865 -4.60771 -1.3872 0
M  V30 2441 C 244.217 -5.09041 -1.11924 0
M  V30 2442 C 241.545 -5.81563 -0.774689 0
M  V30 2443 C 243.897 -6.30452 -0.520853 0
M  V30 2444 C 242.561 -6.66617 -0.343134 0
M  V30 2445 H 241.831 -0.612648 -0.416826 0
M  V30 2446 H 244.478 -1.8674 -0.424315 0
M  V30 2447 H 242.783 -2.60803 -2.92385 0
M  V30 2448 H 244.48 -2.94382 -2.72288 0
M  V30 2449 H 241.07 -3.93855 -1.69045 0
M  V30 2450 H 245.254 -4.80695 -1.23473 0
M  V30 2451 H 240.51 -6.08196 -0.625154 0
M  V30 2452 H 244.684 -6.96175 -0.177065 0
M  V30 2453 H 242.311 -7.60083 0.133571 0
M  V30 2454 N 243.887 0.651787 -1.4349 0
M  V30 2455 C 245.133 1.41376 -1.45398 0
M  V30 2456 C 245.466 1.94041 -0.0784823 0
M  V30 2457 O 244.741 1.72379 0.900878 0
M  V30 2458 C 245.024 2.59414 -2.49752 0
M  V30 2459 C 244.877 2.12232 -3.96582 0
M  V30 2460 C 246.196 3.61626 -2.50827 0
M  V30 2461 H 243.315 0.512719 -0.529422 0
M  V30 2462 H 245.957 0.738796 -1.75048 0
M  V30 2463 H 244.107 3.16997 -2.246 0
M  V30 2464 H 245.779 1.59639 -4.32797 0
M  V30 2465 H 244.022 1.43592 -4.09346 0
M  V30 2466 H 244.693 2.9712 -4.65214 0
M  V30 2467 H 247.169 3.13805 -2.7325 0
M  V30 2468 H 246.045 4.41766 -3.25783 0
M  V30 2469 H 246.306 4.14314 -1.5426 0
M  V30 2470 N 245.365 1.30045 0.890287 0
M  V30 2471 C 246.776 1.16738 1.45702 0
M  V30 2472 C 247.127 -0.233939 1.948 0
M  V30 2473 O 246.252 -1.13021 1.84541 0
M  V30 2474 C 246.847 2.11313 2.64825 0
M  V30 2475 C 245.406 2.02001 3.17604 0
M  V30 2476 C 244.553 2.01699 1.90296 0
M  V30 2477 H 247.504 1.42392 0.700726 0
M  V30 2478 H 247.525 1.69086 3.40867 0
M  V30 2479 H 247.037 3.13294 2.2906 0
M  V30 2480 H 245.138 1.03142 3.5804 0
M  V30 2481 H 245.251 2.90128 3.81264 0
M  V30 2482 H 243.615 1.46427 2.08402 0
M  V30 2483 H 244.398 3.05402 1.56795 0
M  V30 2484 N 246.843 -1.10192 1.12674 0
M  V30 2485 C 248.089 -1.82475 0.884915 0
M  V30 2486 C 248.422 -1.85093 -0.58773 0
M  V30 2487 O 247.697 -1.3134 -1.43457 0
M  V30 2488 C 247.98 -3.29018 1.46353 0
M  V30 2489 C 247.833 -3.34718 3.00473 0
M  V30 2490 C 249.152 -4.25473 1.12519 0
M  V30 2491 H 246.271 -0.662492 0.322915 0
M  V30 2492 H 248.913 -1.2913 1.39375 0
M  V30 2493 H 247.063 -3.74576 1.03077 0
M  V30 2494 H 248.735 -2.97622 3.52447 0
M  V30 2495 H 246.978 -2.74541 3.35872 0
M  V30 2496 H 247.649 -4.37918 3.36053 0
M  V30 2497 H 250.125 -3.88161 1.499 0
M  V30 2498 H 249.001 -5.26365 1.55663 0
M  V30 2499 H 249.262 -4.42084 0.0377407 0
M  V30 2500 N 248.321 -0.919034 -1.28029 0
M  V30 2501 C 249.546 -0.570357 -1.99403 0
M  V30 2502 C 249.971 0.842486 -1.68178 0
M  V30 2503 O 249.329 1.56391 -0.917141 0
M  V30 2504 C 249.377 -0.792541 -3.51783 0
M  V30 2505 O 248.481 0.145988 -4.12142 0
M  V30 2506 H 247.822 -0.220555 -0.6263 0
M  V30 2507 H 250.352 -1.23592 -1.63053 0
M  V30 2508 H 250.362 -0.704708 -4.01868 0
M  V30 2509 H 249.037 -1.82247 -3.73844 0
M  V30 2510 H 247.614 0.00897528 -3.72899 0
M  V30 2511 N 249.799 1.42003 -0.683588 0
M  V30 2512 C 250.746 2.30798 -0.0107309 0
M  V30 2513 C 251.716 1.4645 0.783688 0
M  V30 2514 O 252.901 1.75263 0.754156 0
M  V30 2515 C 250.041 3.3238 0.928306 0
M  V30 2516 C 249.154 4.31814 0.126776 0
M  V30 2517 C 248.289 5.20468 1.06236 0
M  V30 2518 C 247.328 6.11577 0.253035 0
M  V30 2519 N 246.465 6.92754 1.14179 0
M  V30 2520 H 251.305 2.8778 -0.773727 0
M  V30 2521 H 248.842 1.41745 -0.393283 0
M  V30 2522 H 250.8 3.89813 1.48666 0
M  V30 2523 H 249.43 2.76976 1.65783 0
M  V30 2524 H 248.482 3.76427 -0.54833 0
M  V30 2525 H 249.794 4.96276 -0.501192 0
M  V30 2526 H 248.948 5.82677 1.69035 0
M  V30 2527 H 247.687 4.56204 1.7242 0
M  V30 2528 H 246.692 5.48428 -0.388108 0
M  V30 2529 H 247.917 6.77892 -0.404839 0
M  V30 2530 H 245.863 6.3111 1.78987 0
M  V30 2531 H 245.78 7.53855 0.569111 0
M  V30 2532 H 247.048 7.59441 1.75697 0
M  V30 2533 N 251.277 0.427512 1.51691 0
M  V30 2534 C 252.523 -0.142439 2.02299 0
M  V30 2535 C 252.856 -1.43214 1.31162 0
M  V30 2536 O 252.131 -1.89833 0.423511 0
M  V30 2537 C 252.414 -0.371301 3.58181 0
M  V30 2538 C 252.267 0.936358 4.39946 0
M  V30 2539 C 253.586 -1.14542 4.24933 0
M  V30 2540 H 250.705 -0.0502937 0.735282 0
M  V30 2541 H 253.347 0.564584 1.81418 0
M  V30 2542 H 251.497 -0.973559 3.76104 0
M  V30 2543 H 253.169 1.57184 4.33694 0
M  V30 2544 H 251.412 1.5432 4.05423 0
M  V30 2545 H 252.083 0.730388 5.47147 0
M  V30 2546 H 254.559 -0.635362 4.11221 0
M  V30 2547 H 253.435 -1.27431 5.33903 0
M  V30 2548 H 253.696 -2.17093 3.85127 0
M  V30 2549 N 252.755 -1.56801 0.158532 0
M  V30 2550 C 253.98 -2.01295 -0.499516 0
M  V30 2551 C 254.405 -1.03799 -1.56867 0
M  V30 2552 O 253.763 -0.0155162 -1.81293 0
M  V30 2553 C 253.811 -3.44469 -1.06647 0
M  V30 2554 O 252.915 -3.50012 -2.18095 0
M  V30 2555 H 252.256 -0.652884 -0.12099 0
M  V30 2556 H 254.786 -2.02958 0.258661 0
M  V30 2557 H 254.796 -3.8351 -1.39227 0
M  V30 2558 H 253.471 -4.14932 -0.283581 0
M  V30 2559 H 252.048 -3.22822 -1.86656 0
M  V30 2560 N 254.233 0.115231 -1.57178 0
M  V30 2561 C 255.481 0.820727 -1.84685 0
M  V30 2562 C 255.802 1.80237 -0.744279 0
M  V30 2563 O 255.072 1.94529 0.231375 0
M  V30 2564 H 253.652 0.306084 -0.681411 0
M  V30 2565 H 256.314 0.101656 -1.94635 0
M  V30 2566 H 255.41 1.36366 -2.80733 0
M  V30 2567 N 255.711 1.52812 0.385517 0
M  V30 2568 C 256.643 1.74096 1.49074 0
M  V30 2569 C 257.656 0.621462 1.50472 0
M  V30 2570 O 258.845 0.897245 1.54311 0
M  V30 2571 C 255.945 1.78774 2.87911 0
M  V30 2572 C 255.118 3.08134 3.10439 0
M  V30 2573 C 254.177 3.04313 4.29278 0
M  V30 2574 O 253.203 3.78168 4.25415 0
M  V30 2575 N 254.405 2.23741 5.35649 0
M  V30 2576 H 257.17 2.69455 1.31202 0
M  V30 2577 H 254.731 1.51343 0.575065 0
M  V30 2578 H 256.723 1.73721 3.65518 0
M  V30 2579 H 255.293 0.907869 2.99126 0
M  V30 2580 H 254.513 3.26649 2.20667 0
M  V30 2581 H 255.801 3.93662 3.22347 0
M  V30 2582 H 255.199 1.63211 5.41645 0
M  V30 2583 H 253.756 2.24524 6.11909 0
M  V30 2584 N 257.189 -0.644168 1.43834 0
M  V30 2585 C 258.152 -1.73857 1.49353 0
M  V30 2586 C 259.152 -1.56315 0.377112 0
M  V30 2587 O 260.342 -1.62048 0.639226 0
M  V30 2588 C 257.474 -3.12819 1.35488 0
M  V30 2589 H 258.667 -1.70342 2.46827 0
M  V30 2590 H 256.22 -0.856652 1.30733 0
M  V30 2591 H 256.955 -3.2194 0.390569 0
M  V30 2592 H 256.74 -3.26958 2.16428 0
M  V30 2593 H 258.23 -3.92606 1.42302 0
M  V30 2594 N 258.668 -1.30515 -0.883378 0
M  V30 2595 C 259.578 -1.18959 -2.02203 0
M  V30 2596 C 260.594 -0.109172 -1.73657 0
M  V30 2597 O 261.77 -0.324413 -1.9877 0
M  V30 2598 C 258.835 -0.883871 -3.35244 0
M  V30 2599 C 257.896 -2.04982 -3.77201 0
M  V30 2600 C 257.129 -1.75859 -5.03894 0
M  V30 2601 O 257.352 -0.687276 -5.66244 0
M  V30 2602 O 256.286 -2.61146 -5.42297 0
M  V30 2603 H 260.112 -2.14616 -2.1488 0
M  V30 2604 H 257.697 -1.10124 -1.0096 0
M  V30 2605 H 259.579 -0.728644 -4.15053 0
M  V30 2606 H 258.254 0.0427798 -3.23672 0
M  V30 2607 H 257.161 -2.26038 -2.9809 0
M  V30 2608 H 258.494 -2.95825 -3.93381 0
M  V30 2609 N 260.146 1.09593 -1.13257 0
M  V30 2610 C 261.392 1.82003 -0.89458 0
M  V30 2611 C 261.725 1.85402 0.577906 0
M  V30 2612 O 261 1.32099 1.42759 0
M  V30 2613 C 261.283 3.28237 -1.48096 0
M  V30 2614 C 261.136 3.3312 -3.02244 0
M  V30 2615 C 262.455 4.24871 -1.14774 0
M  V30 2616 H 259.574 0.66077 -0.326424 0
M  V30 2617 H 262.216 1.28389 -1.40058 0
M  V30 2618 H 260.366 3.74024 -1.05062 0
M  V30 2619 H 262.038 2.95748 -3.54021 0
M  V30 2620 H 260.281 2.72756 -3.37323 0
M  V30 2621 H 260.952 4.3613 -3.38371 0
M  V30 2622 H 263.428 3.87361 -1.51957 0
M  V30 2623 H 262.304 5.25532 -1.58452 0
M  V30 2624 H 262.565 4.42058 -0.0611849 0
M  V30 2625 N 261.624 0.925811 1.2754 0
M  V30 2626 C 262.901 0.483726 1.89524 0
M  V30 2627 C 263.281 -1.03809 1.83812 0
M  V30 2628 O 262.629 -1.89143 1.28207 0
M  V30 2629 C 262.839 1.02769 3.33526 0
M  V30 2630 C 264.187 1.08703 4.10449 0
M  V30 2631 O 265.211 0.977175 3.42534 0
M  V30 2632 O 264.07 1.25599 5.31871 0
M  V30 2633 H 261.164 0.15529 0.812289 0
M  V30 2634 H 263.71 1.01738 1.35822 0
M  V30 2635 H 262.482 2.07155 3.31967 0
M  V30 2636 H 262.105 0.475567 3.94746 0
M  V30 2637 N 263.102 -1.41638 0.69111 0
M  V30 2638 C 264.379 -1.95036 0.148421 0
M  V30 2639 C 264.759 -1.63072 -1.34055 0
M  V30 2640 O 264.107 -0.93538 -2.08478 0
M  V30 2641 C 264.317 -3.46279 0.434951 0
M  V30 2642 C 265.665 -4.23069 0.360275 0
M  V30 2643 O 266.689 -3.54277 0.369613 0
M  V30 2644 O 265.548 -5.45583 0.316534 0
M  V30 2645 H 262.642 -0.826908 0.0123654 0
M  V30 2646 H 265.188 -1.5138 0.766963 0
M  V30 2647 H 263.96 -3.6281 1.46576 0
M  V30 2648 H 263.583 -3.97019 -0.214787 0
M  V30 2649 N 264.58 -0.43555 -1.51462 0
M  V30 2650 C 265.829 0.133007 -2.01261 0
M  V30 2651 C 266.142 1.43942 -1.32439 0
M  V30 2652 O 267.348 2.09081 -1.73198 0
M  V30 2653 C 265.804 0.287581 -3.58749 0
M  V30 2654 C 265.412 -1.00829 -4.36506 0
M  V30 2655 C 267.156 0.810004 -4.167 0
M  V30 2656 C 265.063 -0.819454 -5.85695 0
M  V30 2657 H 263.993 0.0534822 -0.752101 0
M  V30 2658 H 266.644 -0.565038 -1.74584 0
M  V30 2659 H 265.026 1.04859 -3.81865 0
M  V30 2660 H 266.2 -1.77749 -4.25138 0
M  V30 2661 H 264.515 -1.45911 -3.89999 0
M  V30 2662 H 267.112 0.967743 -5.2587 0
M  V30 2663 H 267.455 1.79196 -3.75758 0
M  V30 2664 H 267.988 0.107357 -3.97655 0
M  V30 2665 H 264.727 -1.77374 -6.31046 0
M  V30 2666 H 264.247 -0.0900208 -5.99732 0
M  V30 2667 H 265.926 -0.471949 -6.45276 0
M  V30 2668 N 266.058 1.56714 -0.166846 0
M  V30 2669 C 266.988 2.20754 0.760913 0
M  V30 2670 C 267.969 1.16178 1.24244 0
M  V30 2671 O 269.154 1.44592 1.29641 0
M  V30 2672 C 266.284 2.84478 1.99223 0
M  V30 2673 C 265.238 3.95053 1.64672 0
M  V30 2674 C 264.564 4.45805 2.95232 0
M  V30 2675 C 265.864 5.14865 0.878155 0
M  V30 2676 H 267.558 2.98537 0.22713 0
M  V30 2677 H 265.104 1.43596 0.107805 0
M  V30 2678 H 267.057 3.27951 2.64624 0
M  V30 2679 H 265.781 2.04056 2.55007 0
M  V30 2680 H 264.44 3.52228 1.01641 0
M  V30 2681 H 264.088 3.62181 3.49047 0
M  V30 2682 H 263.788 5.204 2.7287 0
M  V30 2683 H 265.312 4.91962 3.6167 0
M  V30 2684 H 266.726 5.55059 1.43466 0
M  V30 2685 H 265.123 5.95348 0.753738 0
M  V30 2686 H 266.193 4.84735 -0.126377 0
M  V30 2687 N 267.536 -0.106894 1.57237 0
M  V30 2688 C 268.499 -1.11466 2.0027 0
M  V30 2689 C 269.499 -1.33623 0.894519 0
M  V30 2690 O 270.689 -1.29935 1.16028 0
M  V30 2691 C 267.821 -2.46646 2.35327 0
M  V30 2692 H 269.014 -0.744516 2.90512 0
M  V30 2693 H 266.567 -0.351576 1.52295 0
M  V30 2694 H 267.302 -2.88558 1.48003 0
M  V30 2695 H 267.087 -2.31915 3.16161 0
M  V30 2696 H 268.577 -3.19151 2.69318 0
M  V30 2697 N 269.014 -1.53014 -0.377408 0
M  V30 2698 C 269.977 -1.77957 -1.44444 0
M  V30 2699 C 270.977 -0.649763 -1.47087 0
M  V30 2700 O 272.167 -0.917897 -1.48055 0
M  V30 2701 C 269.299 -1.89089 -2.83651 0
M  V30 2702 H 270.492 -2.73243 -1.23606 0
M  V30 2703 H 268.045 -1.43912 -0.609844 0
M  V30 2704 H 268.78 -0.958293 -3.09818 0
M  V30 2705 H 268.565 -2.71254 -2.83132 0
M  V30 2706 H 270.055 -2.1002 -3.60945 0
M  V30 2707 N 270.492 0.636531 -1.44174 0
M  V30 2708 C 271.738 1.39826 -1.4689 0
M  V30 2709 C 272.071 1.93947 -0.0990585 0
M  V30 2710 O 271.346 1.73325 0.882544 0
M  V30 2711 C 271.629 2.56751 -2.5249 0
M  V30 2712 C 271.482 2.08014 -3.98811 0
M  V30 2713 C 272.801 3.58946 -2.54649 0
M  V30 2714 H 269.92 0.507075 -0.53483 0
M  V30 2715 H 272.562 0.720188 -1.75822 0
M  V30 2716 H 270.712 3.14597 -2.2795 0
M  V30 2717 H 272.384 1.5504 -4.34466 0
M  V30 2718 H 270.627 1.39242 -4.10846 0
M  V30 2719 H 271.298 2.92169 -4.68339 0
M  V30 2720 H 273.774 3.1089 -2.76563 0
M  V30 2721 H 272.65 4.38286 -3.3045 0
M  V30 2722 H 272.911 4.12655 -1.58646 0
M  V30 2723 N 271.97 1.30982 0.876444 0
M  V30 2724 C 273.386 1.09498 1.16113 0
M  V30 2725 C 273.586 -0.13875 2.01022 0
M  V30 2726 O 272.642 -0.829935 2.38471 0
M  V30 2727 C 273.955 2.36308 1.85954 0
M  V30 2728 C 275.503 2.41856 1.98683 0
M  V30 2729 C 275.978 3.6853 2.71937 0
M  V30 2730 N 277.469 3.69387 2.79477 0
M  V30 2731 C 278.204 4.64096 3.36753 0
M  V30 2732 N 277.7 5.69155 3.95012 0
M  V30 2733 N 279.493 4.51626 3.3465 0
M  V30 2734 H 271.644 2.10118 0.310494 0
M  V30 2735 H 273.907 0.926634 0.200131 0
M  V30 2736 H 273.613 3.26388 1.31011 0
M  V30 2737 H 273.487 2.4561 2.86278 0
M  V30 2738 H 275.874 1.52249 2.52793 0
M  V30 2739 H 275.955 2.36523 0.9742 0
M  V30 2740 H 275.599 4.58499 2.18496 0
M  V30 2741 H 275.529 3.71127 3.73593 0
M  V30 2742 H 278.02 2.93438 2.38123 0
M  V30 2743 H 278.333 6.3751 4.36808 0
M  V30 2744 H 276.678 5.72937 3.93406 0
M  V30 2745 H 279.869 3.68728 2.8837 0
M  V30 2746 H 280.042 5.25614 3.7899 0
M  V30 2747 N 273.449 -1.08991 1.13837 0
M  V30 2748 C 274.86 -1.62746 0.914917 0
M  V30 2749 C 275.211 -1.88403 -0.547594 0
M  V30 2750 O 274.336 -1.63706 -1.41525 0
M  V30 2751 C 274.931 -2.95662 1.65437 0
M  V30 2752 C 273.49 -3.46225 1.47666 0
M  V30 2753 C 272.637 -2.20562 1.6807 0
M  V30 2754 H 275.588 -0.922946 1.29102 0
M  V30 2755 H 275.609 -3.63825 1.11407 0
M  V30 2756 H 275.121 -2.76956 2.71877 0
M  V30 2757 H 273.222 -3.70046 0.435478 0
M  V30 2758 H 273.335 -4.23368 2.24268 0
M  V30 2759 H 271.699 -2.29439 1.10589 0
M  V30 2760 H 272.482 -2.0437 2.7584 0
M  V30 2761 N 274.927 -0.932562 -1.27047 0
M  V30 2762 C 276.155 -0.592031 -1.98249 0
M  V30 2763 C 276.57 0.831062 -1.69525 0
M  V30 2764 O 275.927 1.55299 -0.958561 0
M  V30 2765 C 275.978 -0.814279 -3.5221 0
M  V30 2766 O 275.699 -2.18139 -3.7993 0
M  V30 2767 C 277.2 -0.483121 -4.4066 0
M  V30 2768 H 274.42 -0.223896 -0.632544 0
M  V30 2769 H 276.964 -1.25091 -1.61779 0
M  V30 2770 H 275.119 -0.20213 -3.86872 0
M  V30 2771 H 275.533 -2.235 -4.74498 0
M  V30 2772 H 277.007 -0.689298 -5.47679 0
M  V30 2773 H 277.484 0.581546 -4.35333 0
M  V30 2774 H 278.09 -1.07362 -4.11526 0
M  V30 2775 N 276.405 1.4127 -0.698611 0
M  V30 2776 C 277.633 2.05503 -0.239992 0
M  V30 2777 C 278.048 1.52584 1.11191 0
M  V30 2778 O 277.405 0.675323 1.69545 0
M  V30 2779 C 277.456 3.60987 -0.192429 0
M  V30 2780 O 277.177 4.1195 -1.49094 0
M  V30 2781 C 278.678 4.42371 0.28681 0
M  V30 2782 H 275.898 0.661748 -0.111045 0
M  V30 2783 H 278.442 1.80987 -0.95205 0
M  V30 2784 H 276.597 3.84533 0.470472 0
M  V30 2785 H 277.011 5.06018 -1.38007 0
M  V30 2786 H 278.485 5.51344 0.26896 0
M  V30 2787 H 278.962 4.18699 1.32619 0
M  V30 2788 H 279.568 4.23897 -0.345201 0
M  V30 2789 N 277.883 0.443576 1.51229 0
M  V30 2790 C 279.299 0.0962001 1.5931 0
M  V30 2791 C 279.499 -1.39501 1.45402 0
M  V30 2792 O 278.555 -2.16557 1.29843 0
M  V30 2793 C 279.868 0.621875 2.94199 0
M  V30 2794 C 281.416 0.582865 3.07525 0
M  V30 2795 C 281.891 1.08562 4.44948 0
M  V30 2796 N 283.382 1.04387 4.51284 0
M  V30 2797 C 284.117 1.40368 5.55954 0
M  V30 2798 N 283.613 1.83664 6.68011 0
M  V30 2799 N 285.406 1.32145 5.46346 0
M  V30 2800 H 277.557 1.41376 1.58514 0
M  V30 2801 H 279.82 0.582965 0.747567 0
M  V30 2802 H 279.526 1.66546 3.09767 0
M  V30 2803 H 279.4 0.0502125 3.77167 0
M  V30 2804 H 281.787 -0.451749 2.91622 0
M  V30 2805 H 281.868 1.191 2.26382 0
M  V30 2806 H 281.512 2.11873 4.61598 0
M  V30 2807 H 281.442 0.453956 5.2464 0
M  V30 2808 H 283.933 0.725986 3.70861 0
M  V30 2809 H 284.246 2.0934 7.43906 0
M  V30 2810 H 282.591 1.87596 6.69203 0
M  V30 2811 H 285.782 0.981808 4.57688 0
M  V30 2812 H 285.955 1.60514 6.27805 0
M  V30 2813 N 279.361 -1.56624 0.175154 0
M  V30 2814 C 280.291 -2.21155 -0.749195 0
M  V30 2815 C 281.272 -1.16836 -1.23626 0
M  V30 2816 O 282.457 -1.45277 -1.28873 0
M  V30 2817 C 279.587 -2.8553 -1.97711 0
M  V30 2818 C 278.541 -3.95921 -1.62575 0
M  V30 2819 C 277.867 -4.47365 -2.92864 0
M  V30 2820 C 279.167 -5.15323 -0.850838 0
M  V30 2821 H 280.861 -2.98653 -0.211295 0
M  V30 2822 H 278.407 -1.43651 -0.100188 0
M  V30 2823 H 280.36 -3.2935 -2.62881 0
M  V30 2824 H 279.084 -2.05406 -2.53921 0
M  V30 2825 H 277.743 -3.52762 -0.997719 0
M  V30 2826 H 277.391 -3.64027 -3.47122 0
M  V30 2827 H 277.091 -5.21839 -2.70106 0
M  V30 2828 H 278.615 -4.93873 -3.59056 0
M  V30 2829 H 280.029 -5.55812 -1.40521 0
M  V30 2830 H 278.426 -5.95739 -0.722154 0
M  V30 2831 H 279.496 -4.84661 0.152082 0
M  V30 2832 N 280.839 0.0985539 -1.57292 0
M  V30 2833 C 282.085 0.803867 -1.86188 0
M  V30 2834 C 282.418 1.78549 -0.763794 0
M  V30 2835 O 281.693 1.93153 0.22855 0
M  V30 2836 C 281.976 1.53568 -3.25713 0
M  V30 2837 C 281.829 0.572277 -4.46145 0
M  V30 2838 C 283.148 2.48708 -3.63087 0
M  V30 2839 H 280.267 0.290781 -0.677211 0
M  V30 2840 H 282.909 0.0675783 -1.8988 0
M  V30 2841 H 281.059 2.16332 -3.22696 0
M  V30 2842 H 282.731 -0.0480894 -4.61275 0
M  V30 2843 H 280.974 -0.114618 -4.33649 0
M  V30 2844 H 281.645 1.12139 -5.40489 0
M  V30 2845 H 284.121 1.96039 -3.67026 0
M  V30 2846 H 282.997 2.96932 -4.61652 0
M  V30 2847 H 283.258 3.32309 -2.91588 0
M  V30 2848 N 282.317 1.53212 0.369288 0
M  V30 2849 C 283.545 1.73119 1.13303 0
M  V30 2850 C 283.96 0.458455 1.83149 0
M  V30 2851 O 283.317 -0.568403 1.73423 0
M  V30 2852 C 283.368 2.89413 2.16616 0
M  V30 2853 O 283.089 4.11761 1.49614 0
M  V30 2854 C 284.59 3.21161 3.05566 0
M  V30 2855 H 281.81 0.579107 0.338934 0
M  V30 2856 H 284.354 1.99942 0.429338 0
M  V30 2857 H 282.509 2.64994 2.82589 0
M  V30 2858 H 282.923 4.76858 2.18419 0
M  V30 2859 H 284.397 4.05949 3.74045 0
M  V30 2860 H 284.874 2.36369 3.70171 0
M  V30 2861 H 285.48 3.47492 2.45213 0
M  V30 2862 N 283.795 -0.628877 1.44509 0
M  V30 2863 C 285.044 -1.38437 1.4669 0
M  V30 2864 C 285.357 -1.95322 0.104272 0
M  V30 2865 O 286.563 -2.715 0.00362163 0
M  V30 2866 C 285.019 -2.50659 2.5826 0
M  V30 2867 C 284.627 -2.00277 4.0074 0
M  V30 2868 C 286.371 -3.27844 2.69664 0
M  V30 2869 C 284.278 -3.09854 5.0373 0
M  V30 2870 H 283.208 -0.520245 0.545766 0
M  V30 2871 H 285.859 -0.676313 1.70582 0
M  V30 2872 H 284.241 -3.2405 2.27612 0
M  V30 2873 H 285.415 -1.33736 4.40966 0
M  V30 2874 H 283.73 -1.35901 3.93599 0
M  V30 2875 H 286.327 -4.09534 3.43781 0
M  V30 2876 H 286.67 -3.77471 1.75559 0
M  V30 2877 H 287.203 -2.61543 2.99733 0
M  V30 2878 H 283.942 -2.65168 5.99472 0
M  V30 2879 H 283.462 -3.7503 4.68095 0
M  V30 2880 H 285.141 -3.74592 5.27532 0
M  V30 2881 N 285.273 -1.31445 -0.869486 0
M  V30 2882 C 286.206 -1.13465 -1.97992 0
M  V30 2883 C 287.184 -0.0380291 -1.62556 0
M  V30 2884 O 288.368 -0.194544 -1.87493 0
M  V30 2885 C 285.495 -0.733822 -3.30655 0
M  V30 2886 C 284.541 -1.83356 -3.85075 0
M  V30 2887 S 285.374 -3.43909 -4.10472 0
M  V30 2888 C 286.53 -3.05763 -5.46132 0
M  V30 2889 H 286.763 -2.07471 -2.1294 0
M  V30 2890 H 284.296 -1.15936 -1.01972 0
M  V30 2891 H 286.254 -0.509306 -4.07328 0
M  V30 2892 H 284.915 0.187123 -3.13542 0
M  V30 2893 H 284.108 -1.50574 -4.80982 0
M  V30 2894 H 283.71 -2.01315 -3.15195 0
M  V30 2895 H 286.002 -2.54686 -6.27807 0
M  V30 2896 H 286.945 -4.00635 -5.83864 0
M  V30 2897 H 287.353 -2.43192 -5.09429 0
M  V30 2898 N 286.751 1.08385 -1.14413 0
M  V30 2899 C 287.681 2.17321 -0.854044 0
M  V30 2900 C 288.662 1.69024 0.191049 0
M  V30 2901 O 289.847 1.94141 0.0476779 0
M  V30 2902 C 286.977 3.45719 -0.330983 0
M  V30 2903 C 285.931 4.07409 -1.31155 0
M  V30 2904 C 285.257 5.30762 -0.64778 0
M  V30 2905 C 286.557 4.48665 -2.67388 0
M  V30 2906 H 288.251 2.41845 -1.76498 0
M  V30 2907 H 285.797 1.16233 -0.850051 0
M  V30 2908 H 287.75 4.21241 -0.115645 0
M  V30 2909 H 286.474 3.2075 0.615381 0
M  V30 2910 H 285.133 3.33919 -1.51306 0
M  V30 2911 H 284.781 5.02078 0.304398 0
M  V30 2912 H 284.481 5.72992 -1.30207 0
M  V30 2913 H 286.005 6.08998 -0.441972 0
M  V30 2914 H 287.419 5.15364 -2.51143 0
M  V30 2915 H 285.816 5.01814 -3.29093 0
M  V30 2916 H 286.886 3.60543 -3.24248 0
M  V30 2917 N 288.23 0.939286 1.26551 0
M  V30 2918 C 289.193 0.451987 2.24699 0
M  V30 2919 C 290.193 -0.435869 1.5478 0
M  V30 2920 O 291.383 -0.235314 1.72603 0
M  V30 2921 C 288.515 -0.348801 3.39111 0
M  V30 2922 H 289.708 1.3193 2.69322 0
M  V30 2923 H 287.261 0.721072 1.38673 0
M  V30 2924 H 287.996 -1.23444 2.99887 0
M  V30 2925 H 287.781 0.287945 3.91041 0
M  V30 2926 H 289.271 -0.679726 4.12031 0
M  V30 2927 N 289.708 -1.40897 0.706093 0
M  V30 2928 C 290.656 -2.32572 0.0361893 0
M  V30 2929 C 291.65 -1.51532 -0.757266 0
M  V30 2930 O 292.856 -1.67396 -0.661703 0
M  V30 2931 H 289.231 -0.751966 -0.00709935 0
M  V30 2932 H 291.202 -2.86733 0.826249 0
M  V30 2933 C 289.951 -3.36418 -0.87854 0
M  V30 2934 H 289.274 -3.98836 -0.277401 0
M  V30 2935 H 290.714 -4.0308 -1.3154 0
M  V30 2936 C 289.173 -2.71141 -1.99961 0
M  V30 2937 O 289.703 -2.56735 -3.0895 0
M  V30 2938 N 287.909 -2.29671 -1.78043 0
M  V30 2939 H 287.456 -2.41588 -0.894042 0
M  V30 2940 H 287.414 -1.86332 -2.53235 0
M  V30 2941 N 291.186 -0.45159 -1.50991 0
M  V30 2942 C 292.134 0.366864 -2.29689 0
M  V30 2943 C 293.128 1.00809 -1.36139 0
M  V30 2944 O 294.334 0.941427 -1.53418 0
M  V30 2945 H 290.709 0.137133 -0.739391 0
M  V30 2946 H 292.68 -0.317538 -2.96706 0
M  V30 2947 C 291.429 1.44751 -3.16137 0
M  V30 2948 H 290.752 0.963473 -3.88017 0
M  V30 2949 H 292.192 1.99315 -3.74232 0
M  V30 2950 C 290.651 2.43869 -2.32442 0
M  V30 2951 O 291.181 3.4872 -1.99392 0
M  V30 2952 N 289.387 2.15105 -1.95392 0
M  V30 2953 H 288.934 1.29866 -2.22469 0
M  V30 2954 H 288.892 2.81661 -1.39693 0
M  V30 2955 N 292.664 1.56529 -0.183458 0
M  V30 2956 C 293.574 2.22144 0.754272 0
M  V30 2957 C 294.59 1.21684 1.24374 0
M  V30 2958 O 295.766 1.54385 1.29333 0
M  V30 2959 C 292.831 2.85884 1.96141 0
M  V30 2960 C 291.892 4.01579 1.51765 0
M  V30 2961 C 291.125 4.6227 2.66725 0
M  V30 2962 O 291.348 4.21865 3.83909 0
M  V30 2963 O 290.282 5.51936 2.40104 0
M  V30 2964 H 294.108 3.02861 0.225527 0
M  V30 2965 H 291.693 1.49331 0.0453032 0
M  V30 2966 H 293.575 3.26253 2.66715 0
M  V30 2967 H 292.25 2.08154 2.47899 0
M  V30 2968 H 291.157 3.65856 0.781049 0
M  V30 2969 H 292.49 4.80938 1.04686 0
M  V30 2970 N 294.142 -0.090211 1.57342 0
M  V30 2971 C 295.37 -0.806224 1.90546 0
M  V30 2972 C 295.785 -1.72041 0.777644 0
M  V30 2973 O 295.142 -1.80778 -0.250103 0
M  V30 2974 C 295.193 -1.61546 3.23396 0
M  V30 2975 O 294.914 -0.738043 4.31839 0
M  V30 2976 C 296.415 -2.4341 3.70495 0
M  V30 2977 H 293.635 -0.230256 0.630257 0
M  V30 2978 H 296.179 -0.0659843 2.04394 0
M  V30 2979 H 294.334 -2.30816 3.11131 0
M  V30 2980 H 294.748 -1.29901 5.08159 0
M  V30 2981 H 296.222 -2.95676 4.66133 0
M  V30 2982 H 296.699 -3.22098 2.98579 0
M  V30 2983 H 297.305 -1.79331 3.85643 0
M  V30 2984 N 295.62 -1.53406 -0.361157 0
M  V30 2985 C 296.868 -1.69467 -1.10115 0
M  V30 2986 C 297.189 -0.451352 -1.89705 0
M  V30 2987 O 296.459 0.534636 -1.88463 0
M  V30 2988 H 295.039 -0.624749 -0.409508 0
M  V30 2989 H 297.701 -1.90609 -0.406699 0
M  V30 2990 H 296.797 -2.55774 -1.78847 0
M  V30 2991 N 297.098 0.621204 -1.44841 0
M  V30 2992 C 298.347 1.37658 -1.47422 0
M  V30 2993 C 298.66 1.95264 -0.114629 0
M  V30 2994 O 299.866 2.71494 -0.0180199 0
M  V30 2995 C 298.322 2.49285 -2.59586 0
M  V30 2996 C 297.93 1.98149 -4.01797 0
M  V30 2997 C 299.674 3.26409 -2.71399 0
M  V30 2998 C 297.581 3.07178 -5.05367 0
M  V30 2999 H 296.511 0.517344 -0.548517 0
M  V30 3000 H 299.162 0.667257 -1.70938 0
M  V30 3001 H 297.544 3.22839 -2.29328 0
M  V30 3002 H 298.718 1.31395 -4.41669 0
M  V30 3003 H 297.033 1.33812 -3.94314 0
M  V30 3004 H 299.63 4.07706 -3.45948 0
M  V30 3005 H 299.973 3.76535 -1.77559 0
M  V30 3006 H 300.506 2.5995 -3.01116 0
M  V30 3007 H 297.245 2.61985 -6.00869 0
M  V30 3008 H 296.765 3.72542 -4.70077 0
M  V30 3009 H 298.444 3.71789 -5.29511 0
M  V30 3010 N 298.576 1.31904 0.862503 0
M  V30 3011 C 299.822 1.22197 1.61851 0
M  V30 3012 C 300.155 -0.217641 1.92977 0
M  V30 3013 O 299.43 -1.15264 1.56666 0
M  V30 3014 C 299.713 2.07378 2.94391 0
M  V30 3015 C 299.566 3.59678 2.70096 0
M  V30 3016 C 300.885 1.92891 3.95577 0
M  V30 3017 H 298.004 0.445255 0.587296 0
M  V30 3018 H 300.646 1.6177 0.99651 0
M  V30 3019 H 298.796 1.73758 3.47477 0
M  V30 3020 H 300.468 4.03472 2.23625 0
M  V30 3021 H 298.711 3.82735 2.04197 0
M  V30 3022 H 299.382 4.14595 3.64438 0
M  V30 3023 H 301.858 2.22327 3.51724 0
M  V30 3024 H 300.734 2.54781 4.86187 0
M  V30 3025 H 300.995 0.894315 4.3296 0
M  V30 3026 N 300.054 -1.07777 1.14986 0
M  V30 3027 C 300.987 -2.14228 0.786243 0
M  V30 3028 C 301.965 -1.60888 -0.235347 0
M  V30 3029 O 303.149 -1.88099 -0.122909 0
M  V30 3030 C 300.276 -3.38281 0.168433 0
M  V30 3031 C 299.322 -4.10387 1.16123 0
M  V30 3032 S 300.155 -4.62371 2.70135 0
M  V30 3033 C 301.311 -5.89704 2.09762 0
M  V30 3034 H 301.544 -2.44741 1.68787 0
M  V30 3035 H 299.077 -1.19984 0.971756 0
M  V30 3036 H 301.035 -4.10098 -0.181588 0
M  V30 3037 H 299.696 -3.05953 -0.710725 0
M  V30 3038 H 298.889 -4.99431 0.677086 0
M  V30 3039 H 298.491 -3.44513 1.45556 0
M  V30 3040 H 300.783 -6.61648 1.45701 0
M  V30 3041 H 301.726 -6.42824 2.96955 0
M  V30 3042 H 302.134 -5.4302 1.54239 0
M  V30 3043 N 301.532 -0.945985 -1.26051 0
M  V30 3044 C 302.943 -0.638096 -1.75457 0
M  V30 3045 C 303.294 0.846672 -1.76991 0
M  V30 3046 O 302.419 1.66262 -1.38513 0
M  V30 3047 C 303.014 -1.15157 -3.18629 0
M  V30 3048 C 301.573 -0.894004 -3.65629 0
M  V30 3049 C 300.72 -1.29967 -2.44957 0
M  V30 3050 H 303.671 -1.12376 -1.1206 0
M  V30 3051 H 303.692 -0.507615 -3.77099 0
M  V30 3052 H 303.204 -2.23222 -3.1748 0
M  V30 3053 H 301.305 0.172057 -3.72203 0
M  V30 3054 H 301.418 -1.52439 -4.54202 0
M  V30 3055 H 299.782 -0.718078 -2.44368 0
M  V30 3056 H 300.565 -2.38935 -2.46505 0
M  V30 3057 N 303.011 1.40521 -0.713556 0
M  V30 3058 C 304.257 2.01221 -0.252564 0
M  V30 3059 C 304.59 1.56444 1.1506 0
M  V30 3060 O 303.865 0.783597 1.78017 0
M  V30 3061 C 304.148 3.58582 -0.330332 0
M  V30 3062 C 304.001 4.13437 -1.77173 0
M  V30 3063 C 305.32 4.39079 0.299641 0
M  V30 3064 H 302.439 0.731077 -0.0932471 0
M  V30 3065 H 305.081 1.67026 -0.905673 0
M  V30 3066 H 303.231 3.87844 0.225737 0
M  V30 3067 H 304.903 3.9498 -2.38303 0
M  V30 3068 H 303.146 3.67801 -2.3001 0
M  V30 3069 H 303.817 5.22597 -1.77755 0
M  V30 3070 H 306.293 4.15735 -0.174139 0
M  V30 3071 H 305.169 5.4848 0.214771 0
M  V30 3072 H 305.43 4.19915 1.38288 0
M  V30 3073 N 304.489 0.459591 1.5075 0
M  V30 3074 C 305.9 0.00171547 1.867 0
M  V30 3075 C 306.251 -1.39934 1.37525 0
M  V30 3076 O 305.376 -2.03523 0.735349 0
M  V30 3077 C 305.971 -0.00366298 3.388 0
M  V30 3078 C 304.53 -0.406026 3.74204 0
M  V30 3079 C 303.677 0.38673 2.7459 0
M  V30 3080 H 306.628 0.674413 1.43657 0
M  V30 3081 H 306.649 -0.808371 3.71814 0
M  V30 3082 H 306.161 1.01617 3.74561 0
M  V30 3083 H 304.262 -1.43063 3.4404 0
M  V30 3084 H 304.375 -0.115362 4.78961 0
M  V30 3085 H 302.739 -0.158019 2.54209 0
M  V30 3086 H 303.522 1.40585 3.13194 0
M  V30 3087 N 305.967 -1.56429 0.191757 0
M  V30 3088 C 306.877 -2.22541 -0.742481 0
M  V30 3089 C 307.893 -1.22342 -1.23727 0
M  V30 3090 O 309.069 -1.55069 -1.28513 0
M  V30 3091 C 306.134 -2.8692 -1.94623 0
M  V30 3092 C 305.195 -4.02378 -1.49633 0
M  V30 3093 C 304.428 -4.63678 -2.6427 0
M  V30 3094 O 304.651 -4.23895 -3.81666 0
M  V30 3095 O 303.585 -5.53202 -2.37174 0
M  V30 3096 H 307.411 -3.02977 -0.209462 0
M  V30 3097 H 304.996 -1.49353 -0.0373832 0
M  V30 3098 H 306.878 -3.27663 -2.64982 0
M  V30 3099 H 305.553 -2.09466 -2.46791 0
M  V30 3100 H 304.46 -3.66265 -0.761636 0
M  V30 3101 H 305.793 -4.81487 -1.02134 0
M  V30 3102 N 307.445 0.0818655 -1.57387 0
M  V30 3103 C 308.694 0.781681 -1.85937 0
M  V30 3104 C 309.007 1.79246 -0.782957 0
M  V30 3105 O 310.213 2.54112 -0.955987 0
M  V30 3106 C 308.669 1.44109 -3.29789 0
M  V30 3107 C 308.277 0.469396 -4.45534 0
M  V30 3108 C 310.021 2.12386 -3.67549 0
M  V30 3109 C 307.928 1.13415 -5.80423 0
M  V30 3110 H 306.858 0.295682 -0.693605 0
M  V30 3111 H 309.509 0.0348051 -1.83467 0
M  V30 3112 H 307.891 2.23588 -3.2684 0
M  V30 3113 H 309.065 -0.294856 -4.59856 0
M  V30 3114 H 307.38 -0.108383 -4.16259 0
M  V30 3115 H 309.977 2.62878 -4.65617 0
M  V30 3116 H 310.32 2.91877 -2.96839 0
M  V30 3117 H 310.853 1.39751 -3.72444 0
M  V30 3118 H 307.592 0.379771 -6.54399 0
M  V30 3119 H 307.112 1.8695 -5.69921 0
M  V30 3120 H 308.791 1.65686 -6.25426 0
M  V30 3121 N 308.923 1.53595 0.353017 0
M  V30 3122 C 310.148 1.7462 1.11904 0
M  V30 3123 C 310.573 0.479721 1.8188 0
M  V30 3124 O 309.931 -0.567066 1.72204 0
M  V30 3125 C 309.979 2.92029 2.11545 0
M  V30 3126 O 309.083 2.61516 3.18878 0
M  V30 3127 H 308.424 0.579531 0.324099 0
M  V30 3128 H 310.954 2.00525 0.406301 0
M  V30 3129 H 310.964 3.18551 2.5493 0
M  V30 3130 H 309.639 3.83888 1.60008 0
M  V30 3131 H 308.216 2.45852 2.80377 0
M  V30 3132 N 310.401 -0.613514 1.45168 0
M  V30 3133 C 311.333 -1.73825 1.4939 0
M  V30 3134 C 312.346 -1.58175 0.385304 0
M  V30 3135 O 313.535 -1.66165 0.652036 0
M  V30 3136 C 310.635 -3.11758 1.32891 0
M  V30 3137 C 309.808 -3.53704 2.57317 0
M  V30 3138 C 308.867 -4.70579 2.35462 0
M  V30 3139 O 307.893 -4.77996 3.09044 0
M  V30 3140 N 309.095 -5.63454 1.39644 0
M  V30 3141 H 311.86 -1.70669 2.46358 0
M  V30 3142 H 309.421 -0.79862 1.40832 0
M  V30 3143 H 311.413 -3.87692 1.1609 0
M  V30 3144 H 309.983 -3.09456 0.442218 0
M  V30 3145 H 309.203 -2.67794 2.89275 0
M  V30 3146 H 310.491 -3.78486 3.40038 0
M  V30 3147 H 309.889 -5.6017 0.789062 0
M  V30 3148 H 308.446 -6.38944 1.28816 0
M  V30 3149 N 311.879 -1.3236 -0.855495 0
M  V30 3150 C 313.295 -1.11332 -1.14356 0
M  V30 3151 C 313.495 0.106751 -2.01217 0
M  V30 3152 O 312.551 0.791891 -2.39761 0
M  V30 3153 C 313.864 -2.39237 -1.82171 0
M  V30 3154 C 315.412 -2.44986 -1.9481 0
M  V30 3155 C 315.887 -3.7281 -2.66039 0
M  V30 3156 N 317.378 -3.73787 -2.73565 0
M  V30 3157 C 318.113 -4.69394 -3.29327 0
M  V30 3158 N 317.609 -5.75367 -3.85907 0
M  V30 3159 N 319.402 -4.56893 -3.27423 0
M  V30 3160 H 311.553 -2.10586 -0.277027 0
M  V30 3161 H 313.816 -0.929701 -0.185364 0
M  V30 3162 H 313.522 -3.28431 -1.25802 0
M  V30 3163 H 313.396 -2.50134 -2.82335 0
M  V30 3164 H 315.783 -1.56252 -2.50338 0
M  V30 3165 H 315.864 -2.38043 -0.936448 0
M  V30 3166 H 315.508 -4.61918 -2.11174 0
M  V30 3167 H 315.438 -3.77024 -3.67642 0
M  V30 3168 H 317.929 -2.97189 -2.33424 0
M  V30 3169 H 318.242 -6.44378 -4.26611 0
M  V30 3170 H 316.587 -5.79123 -3.84242 0
M  V30 3171 H 319.778 -3.73269 -2.82467 0
M  V30 3172 H 319.951 -5.31577 -3.7058 0
M  V30 3173 N 313.357 1.07166 -1.15556 0
M  V30 3174 C 314.606 1.79181 -0.926132 0
M  V30 3175 C 314.919 1.87768 0.547967 0
M  V30 3176 O 316.125 2.56323 0.895036 0
M  V30 3177 C 314.581 3.22 -1.60761 0
M  V30 3178 C 314.189 3.21607 -3.11886 0
M  V30 3179 C 315.933 3.9861 -1.4598 0
M  V30 3180 C 313.84 4.59092 -3.72812 0
M  V30 3181 H 312.77 0.67154 -0.342856 0
M  V30 3182 H 315.421 1.2027 -1.3859 0
M  V30 3183 H 313.803 3.81115 -1.07553 0
M  V30 3184 H 314.977 2.72127 -3.71865 0
M  V30 3185 H 313.292 2.58495 -3.2645 0
M  V30 3186 H 315.889 5.00225 -1.88888 0
M  V30 3187 H 316.232 4.143 -0.407541 0
M  V30 3188 H 316.765 3.45996 -1.96295 0
M  V30 3189 H 313.504 4.48606 -4.77946 0
M  V30 3190 H 313.024 5.08803 -3.17616 0
M  V30 3191 H 314.703 5.28059 -3.73848 0
M  V30 3192 N 314.835 0.952656 1.25548 0
M  V30 3193 C 315.782 0.47008 2.25962 0
M  V30 3194 C 316.752 -0.476384 1.59122 0
M  V30 3195 O 317.937 -0.39007 1.8677 0
M  V30 3196 C 315.077 -0.247881 3.44209 0
M  V30 3197 C 314.19 0.735591 4.25691 0
M  V30 3198 C 313.325 -0.0047306 5.312 0
M  V30 3199 C 312.364 0.969805 6.04368 0
M  V30 3200 N 311.501 0.260486 7.01617 0
M  V30 3201 H 316.341 1.33126 2.66611 0
M  V30 3202 H 313.878 0.66765 1.31076 0
M  V30 3203 H 315.836 -0.680695 4.1161 0
M  V30 3204 H 314.466 -1.07312 3.0444 0
M  V30 3205 H 313.518 1.28689 3.57971 0
M  V30 3206 H 314.83 1.47934 4.76358 0
M  V30 3207 H 313.984 -0.496275 6.04667 0
M  V30 3208 H 312.723 -0.781282 4.81401 0
M  V30 3209 H 311.728 1.47237 5.29718 0
M  V30 3210 H 312.953 1.74655 6.56256 0
M  V30 3211 H 310.899 -0.497364 6.54112 0
M  V30 3212 H 310.816 0.943362 7.50091 0
M  V30 3213 H 312.084 -0.209587 7.79218 0
M  V30 3214 N 316.313 -1.40141 0.720998 0
M  V30 3215 C 317.276 -2.29058 0.0805834 0
M  V30 3216 C 318.276 -1.45632 -0.681758 0
M  V30 3217 O 319.466 -1.6648 -0.512856 0
M  V30 3218 C 316.598 -3.28925 -0.895593 0
M  V30 3219 H 317.791 -2.87191 0.863793 0
M  V30 3220 H 315.344 -1.48553 0.485975 0
M  V30 3221 H 316.079 -2.75822 -1.70566 0
M  V30 3222 H 315.864 -3.90519 -0.351766 0
M  V30 3223 H 317.354 -3.95494 -1.34069 0
M  V30 3224 N 317.792 -0.46758 -1.50504 0
M  V30 3225 C 318.722 0.318381 -2.31319 0
M  V30 3226 C 319.703 0.993564 -1.38066 0
M  V30 3227 O 320.888 0.991411 -1.66987 0
M  V30 3228 C 318.018 1.40275 -3.17711 0
M  V30 3229 C 316.972 0.849373 -4.19487 0
M  V30 3230 C 316.298 2.03177 -4.94594 0
M  V30 3231 C 317.598 -0.136942 -5.2212 0
M  V30 3232 H 319.292 -0.356106 -2.97275 0
M  V30 3233 H 316.838 -0.172703 -1.42961 0
M  V30 3234 H 318.791 1.96004 -3.73042 0
M  V30 3235 H 317.515 2.10596 -2.49634 0
M  V30 3236 H 316.174 0.314076 -3.65252 0
M  V30 3237 H 315.822 2.72187 -4.22993 0
M  V30 3238 H 315.522 1.66774 -5.63436 0
M  V30 3239 H 317.046 2.59403 -5.52759 0
M  V30 3240 H 318.46 0.331056 -5.72343 0
M  V30 3241 H 316.857 -0.41507 -5.98663 0
M  V30 3242 H 317.927 -1.06398 -4.73083 0
M  V30 3243 N 319.27 1.56325 -0.20005 0
M  V30 3244 C 320.218 2.20666 0.735482 0
M  V30 3245 C 321.212 1.17934 1.21605 0
M  V30 3246 O 322.418 1.36068 1.17837 0
M  V30 3247 H 318.793 0.70725 0.255542 0
M  V30 3248 H 320.764 2.9792 0.169166 0
M  V30 3249 C 319.513 2.88391 1.94232 0
M  V30 3250 H 318.836 3.67185 1.58161 0
M  V30 3251 H 320.276 3.3684 2.57517 0
M  V30 3252 C 318.735 1.89692 2.78421 0
M  V30 3253 O 319.265 1.40032 3.76502 0
M  V30 3254 N 317.471 1.57813 2.44015 0
M  V30 3255 H 317.018 1.9839 1.64314 0
M  V30 3256 H 316.976 0.920325 3.00628 0
M  V30 3257 N 320.748 -0.0735177 1.57428 0
M  V30 3258 C 321.68 -1.11423 2.00294 0
M  V30 3259 C 322.693 -1.35084 0.908637 0
M  V30 3260 O 323.882 -1.33355 1.18654 0
M  V30 3261 C 320.982 -2.46548 2.32523 0
M  V30 3262 C 320.155 -2.42867 3.63778 0
M  V30 3263 C 319.214 -3.60087 3.83697 0
M  V30 3264 O 318.24 -3.41595 4.55304 0
M  V30 3265 N 319.442 -4.80372 3.25919 0
M  V30 3266 H 322.207 -0.749206 2.90184 0
M  V30 3267 H 319.768 -0.262195 1.59763 0
M  V30 3268 H 321.76 -3.23607 2.43024 0
M  V30 3269 H 320.33 -2.75059 1.48531 0
M  V30 3270 H 319.55 -1.51206 3.64047 0
M  V30 3271 H 320.838 -2.37506 4.49965 0
M  V30 3272 H 320.236 -4.983 2.67795 0
M  V30 3273 H 318.793 -5.54948 3.41871 0
M  V30 3274 N 322.226 -1.5378 -0.344866 0
M  V30 3275 C 323.136 -1.84667 -1.4469 0
M  V30 3276 C 324.152 -0.736704 -1.57635 0
M  V30 3277 O 325.328 -1.02888 -1.73136 0
M  V30 3278 C 322.393 -2.04869 -2.79696 0
M  V30 3279 C 321.454 -3.28731 -2.76106 0
M  V30 3280 C 320.687 -3.4796 -4.04673 0
M  V30 3281 O 320.91 -2.71052 -5.01883 0
M  V30 3282 O 319.844 -4.41383 -4.09224 0
M  V30 3283 H 323.67 -2.78334 -1.21506 0
M  V30 3284 H 321.255 -1.39418 -0.536921 0
M  V30 3285 H 323.137 -2.19609 -3.59652 0
M  V30 3286 H 321.812 -1.14391 -3.02814 0
M  V30 3287 H 320.719 -3.19396 -1.94774 0
M  V30 3288 H 322.052 -4.19198 -2.57941 0
M  V30 3289 N 323.704 0.605807 -1.45491 0
M  V30 3290 C 325.12 0.926751 -1.29936 0
M  V30 3291 C 325.32 1.99896 -0.253706 0
M  V30 3292 O 324.376 2.50038 0.351737 0
M  V30 3293 C 325.689 1.36599 -2.67883 0
M  V30 3294 C 327.237 1.4801 -2.75793 0
M  V30 3295 C 327.712 1.95309 -4.14268 0
M  V30 3296 N 329.203 2.0254 -4.16571 0
M  V30 3297 C 329.938 2.40363 -5.20589 0
M  V30 3298 N 329.434 2.77143 -6.34952 0
M  V30 3299 N 331.227 2.40718 -5.07948 0
M  V30 3300 H 323.378 -0.102862 -2.12151 0
M  V30 3301 H 325.641 0.016639 -0.947854 0
M  V30 3302 H 325.347 0.652306 -3.45598 0
M  V30 3303 H 325.221 2.33215 -2.96463 0
M  V30 3304 H 327.608 2.1847 -1.98381 0
M  V30 3305 H 327.689 0.497041 -2.50925 0
M  V30 3306 H 327.333 1.25436 -4.92167 0
M  V30 3307 H 327.263 2.94532 -4.3653 0
M  V30 3308 H 329.754 1.76699 -3.34045 0
M  V30 3309 H 330.067 3.0489 -7.10114 0
M  V30 3310 H 328.412 2.74834 -6.3835 0
M  V30 3311 H 331.603 2.11392 -4.1765 0
M  V30 3312 H 331.776 2.69869 -5.89131 0
M  V30 3313 N 325.182 1.32811 0.848464 0
M  V30 3314 C 326.428 1.23907 1.60546 0
M  V30 3315 C 326.761 -0.197161 1.93197 0
M  V30 3316 O 326.036 -1.13596 1.5788 0
M  V30 3317 C 326.319 2.10489 2.92175 0
M  V30 3318 C 326.172 3.62522 2.66266 0
M  V30 3319 C 327.491 1.97075 3.93509 0
M  V30 3320 H 324.61 0.451459 0.58254 0
M  V30 3321 H 327.252 1.62818 0.979296 0
M  V30 3322 H 325.402 1.77434 3.45614 0
M  V30 3323 H 327.074 4.05821 2.19334 0
M  V30 3324 H 325.317 3.84879 2.00126 0
M  V30 3325 H 325.988 4.18437 3.6002 0
M  V30 3326 H 328.464 2.26045 3.49346 0
M  V30 3327 H 327.34 2.59923 4.83457 0
M  V30 3328 H 327.601 0.940186 4.31987 0
M  V30 3329 N 326.66 -1.06551 1.16123 0
M  V30 3330 C 327.623 -2.12132 0.867906 0
M  V30 3331 C 328.623 -1.60224 -0.135944 0
M  V30 3332 O 329.813 -1.73943 0.0946422 0
M  V30 3333 C 326.945 -3.396 0.297419 0
M  V30 3334 H 328.138 -2.39586 1.80385 0
M  V30 3335 H 325.691 -1.22574 0.969812 0
M  V30 3336 H 326.426 -3.17794 -0.64633 0
M  V30 3337 H 326.211 -3.78581 1.02073 0
M  V30 3338 H 327.701 -4.17455 0.110052 0
M  V30 3339 N 328.138 -0.959301 -1.25041 0
M  V30 3340 C 329.101 -0.487677 -2.23952 0
M  V30 3341 C 330.101 0.41119 -1.55454 0
M  V30 3342 O 331.291 0.207825 -1.72956 0
M  V30 3343 C 328.423 0.294807 -3.39623 0
M  V30 3344 H 329.616 -1.36198 -2.67189 0
M  V30 3345 H 327.169 -0.743042 -1.37508 0
M  V30 3346 H 327.904 1.18658 -3.01813 0
M  V30 3347 H 327.689 -0.35012 -3.90534 0
M  V30 3348 H 329.179 0.614089 -4.1306 0
M  V30 3349 N 329.616 1.39756 -0.72842 0
M  V30 3350 C 330.864 2.00248 -0.272946 0
M  V30 3351 C 331.185 1.58077 1.14178 0
M  V30 3352 O 330.455 0.826014 1.77634 0
M  V30 3353 H 329.035 0.740554 -0.0979247 0
M  V30 3354 H 331.697 1.70903 -0.936912 0
M  V30 3355 H 330.793 3.10495 -0.316142 0
M  V30 3356 N 331.094 0.475555 1.50254 0
M  V30 3357 C 332.024 -0.30611 2.31485 0
M  V30 3358 C 333.005 -0.986228 1.38591 0
M  V30 3359 O 334.19 -0.982541 1.67511 0
M  V30 3360 C 331.32 -1.38588 3.1845 0
M  V30 3361 C 330.274 -0.827115 4.19932 0
M  V30 3362 C 329.6 -2.00551 4.95665 0
M  V30 3363 C 330.9 0.16463 5.2204 0
M  V30 3364 H 332.594 0.371866 2.97082 0
M  V30 3365 H 330.14 0.180282 1.42867 0
M  V30 3366 H 332.093 -1.94023 3.74076 0
M  V30 3367 H 330.817 -2.09269 2.50747 0
M  V30 3368 H 329.476 -0.294702 3.65414 0
M  V30 3369 H 329.124 -2.6994 4.2443 0
M  V30 3370 H 328.824 -1.63784 5.64313 0
M  V30 3371 H 330.348 -2.56468 5.54127 0
M  V30 3372 H 331.762 -0.300699 5.72511 0
M  V30 3373 H 330.159 0.446813 5.98434 0
M  V30 3374 H 331.229 1.08905 4.72512 0
M  V30 3375 N 332.573 -1.56217 0.208337 0
M  V30 3376 C 333.984 -1.84243 -0.301904 0
M  V30 3377 C 334.335 -1.12939 -1.60434 0
M  V30 3378 O 333.46 -0.39461 -2.12772 0
M  V30 3379 C 334.055 -3.34231 -0.554543 0
M  V30 3380 C 332.614 -3.62621 -1.00912 0
M  V30 3381 C 331.761 -2.77224 -0.064933 0
M  V30 3382 H 334.712 -1.52712 0.431833 0
M  V30 3383 H 334.733 -3.5372 -1.40223 0
M  V30 3384 H 334.245 -3.86099 0.393561 0
M  V30 3385 H 332.346 -3.16197 -1.97104 0
M  V30 3386 H 332.459 -4.7071 -0.892674 0
M  V30 3387 H 330.823 -2.48256 -0.56929 0
M  V30 3388 H 331.606 -3.31887 0.877851 0
M  V30 3389 N 334.051 0.0651679 -1.57465 0
M  V30 3390 C 335.462 0.616213 -1.76238 0
M  V30 3391 C 335.813 1.7756 -0.834689 0
M  V30 3392 O 334.938 2.1639 -0.0204156 0
M  V30 3393 C 335.533 1.12462 -3.1959 0
M  V30 3394 C 334.092 1.62147 -3.39684 0
M  V30 3395 C 333.239 0.543739 -2.71917 0
M  V30 3396 H 336.19 -0.161022 -1.57881 0
M  V30 3397 H 336.211 1.99324 -3.24114 0
M  V30 3398 H 335.723 0.280592 -3.87084 0
M  V30 3399 H 333.824 2.48854 -2.77313 0
M  V30 3400 H 333.937 1.69385 -4.48158 0
M  V30 3401 H 332.301 0.990352 -2.34657 0
M  V30 3402 H 333.084 -0.290216 -3.42071 0
M  V30 3403 N 335.529 1.53961 0.336706 0
M  V30 3404 C 336.778 1.70751 1.07363 0
M  V30 3405 C 337.091 0.481061 1.89592 0
M  V30 3406 O 338.297 0.530046 2.66276 0
M  V30 3407 C 336.753 3.01965 1.95818 0
M  V30 3408 C 336.361 4.31971 1.18764 0
M  V30 3409 C 338.105 3.28121 2.69327 0
M  V30 3410 C 336.012 5.54255 2.06289 0
M  V30 3411 H 334.942 0.636292 0.404535 0
M  V30 3412 H 337.593 1.80459 0.332681 0
M  V30 3413 H 335.975 2.86132 2.7376 0
M  V30 3414 H 337.149 4.5853 0.456849 0
M  V30 3415 H 335.464 4.12481 0.569946 0
M  V30 3416 H 338.061 4.16673 3.35094 0
M  V30 3417 H 338.404 2.45426 3.36261 0
M  V30 3418 H 338.937 3.44762 1.98454 0
M  V30 3419 H 335.676 6.39513 1.43885 0
M  V30 3420 H 335.196 5.31935 2.77138 0
M  V30 3421 H 336.875 5.90159 2.65182 0
M  V30 3422 N 337.007 -0.598083 1.45811 0
M  V30 3423 C 337.937 -1.71873 1.58057 0
M  V30 3424 C 338.918 -1.64533 0.431615 0
M  V30 3425 O 340.103 -1.82787 0.65595 0
M  V30 3426 C 337.233 -3.10495 1.55597 0
M  V30 3427 C 336.187 -3.32654 2.69305 0
M  V30 3428 C 335.513 -4.71646 2.51902 0
M  V30 3429 C 336.813 -3.21981 4.11248 0
M  V30 3430 H 338.507 -1.61881 2.51863 0
M  V30 3431 H 336.053 -0.777372 1.21214 0
M  V30 3432 H 338.006 -3.88699 1.6276 0
M  V30 3433 H 336.73 -3.2135 0.583255 0
M  V30 3434 H 335.389 -2.56843 2.61586 0
M  V30 3435 H 335.037 -4.79246 1.52748 0
M  V30 3436 H 334.737 -4.87426 3.2816 0
M  V30 3437 H 336.261 -5.52038 2.60933 0
M  V30 3438 H 337.675 -3.90049 4.20161 0
M  V30 3439 H 336.072 -3.49289 4.87972 0
M  V30 3440 H 337.142 -2.1928 4.32486 0
M  V30 3441 N 338.485 -1.33259 -0.841409 0
M  V30 3442 C 339.731 -1.24757 -1.59886 0
M  V30 3443 C 340.064 0.186913 -1.93298 0
M  V30 3444 O 339.339 1.12757 -1.5848 0
M  V30 3445 C 339.622 -2.12036 -2.91055 0
M  V30 3446 C 339.475 -3.63929 -2.6434 0
M  V30 3447 C 340.794 -1.9916 -3.92458 0
M  V30 3448 H 337.913 -0.454542 -0.580138 0
M  V30 3449 H 340.555 -1.63335 -0.970647 0
M  V30 3450 H 338.705 -1.79265 -3.44669 0
M  V30 3451 H 340.377 -4.06978 -2.17178 0
M  V30 3452 H 338.62 -3.85935 -1.98082 0
M  V30 3453 H 339.291 -4.20341 -3.57796 0
M  V30 3454 H 341.767 -2.27895 -3.48143 0
M  V30 3455 H 340.643 -2.62484 -4.82072 0
M  V30 3456 H 340.904 -0.963082 -4.31482 0
M  V30 3457 N 339.963 1.05934 -1.16686 0
M  V30 3458 C 340.913 2.11764 -0.844978 0
M  V30 3459 C 341.897 1.59922 0.177178 0
M  V30 3460 O 343.089 1.76983 -0.0241768 0
M  V30 3461 C 340.218 3.41493 -0.351812 0
M  V30 3462 C 339.304 4.00152 -1.40496 0
M  V30 3463 N 339.695 4.32874 -2.61636 0
M  V30 3464 C 337.993 4.278 -1.26106 0
M  V30 3465 C 338.694 4.79552 -3.29249 0
M  V30 3466 N 337.67 4.79211 -2.56628 0
M  V30 3467 H 341.472 2.34916 -1.76612 0
M  V30 3468 H 338.986 1.23511 -1.05446 0
M  V30 3469 H 340.983 4.16773 -0.102796 0
M  V30 3470 H 339.643 3.19778 0.56322 0
M  V30 3471 H 340.654 4.23109 -2.98663 0
M  V30 3472 H 337.331 4.15511 -0.407081 0
M  V30 3473 H 338.721 5.14045 -4.32675 0
M  V30 3474 N 341.441 0.965919 1.2453 0
M  V30 3475 C 342.669 0.644385 1.96609 0
M  V30 3476 C 343.084 -0.785823 1.71669 0
M  V30 3477 O 342.441 -1.52703 0.999399 0
M  V30 3478 C 342.492 0.907375 3.49927 0
M  V30 3479 O 342.213 2.28136 3.74013 0
M  V30 3480 C 343.714 0.599784 4.39224 0
M  V30 3481 H 340.934 0.240588 0.626385 0
M  V30 3482 H 343.478 1.29337 1.58405 0
M  V30 3483 H 341.633 0.304631 3.862 0
M  V30 3484 H 342.047 2.36002 4.68405 0
M  V30 3485 H 343.521 0.834263 5.45659 0
M  V30 3486 H 343.998 -0.465921 4.36722 0
M  V30 3487 H 344.604 1.18235 4.08535 0
M  V30 3488 N 342.919 -1.39368 0.735821 0
M  V30 3489 C 344.196 -1.94465 0.210395 0
M  V30 3490 C 344.576 -1.67254 -1.28799 0
M  V30 3491 O 343.924 -1.00123 -2.05396 0
M  V30 3492 C 344.134 -3.4472 0.544897 0
M  V30 3493 C 345.482 -4.21708 0.494689 0
M  V30 3494 O 346.506 -3.52922 0.482136 0
M  V30 3495 O 345.365 -5.44299 0.489947 0
M  V30 3496 H 342.459 -0.826096 0.0386666 0
M  V30 3497 H 345.005 -1.48863 0.814735 0
M  V30 3498 H 343.777 -3.57963 1.58045 0
M  V30 3499 H 343.4 -3.97502 -0.08837 0
M  V30 3500 N 344.397 -0.483516 -1.5 0
M  V30 3501 C 345.36 0.292965 -2.2732 0
M  V30 3502 C 346.36 0.909499 -1.32608 0
M  V30 3503 O 347.55 0.776745 -1.55924 0
M  V30 3504 C 344.682 1.41854 -3.09984 0
M  V30 3505 H 345.875 -0.385289 -2.97415 0
M  V30 3506 H 343.428 -0.237942 -1.54478 0
M  V30 3507 H 344.163 2.13148 -2.44414 0
M  V30 3508 H 343.948 0.982114 -3.79601 0
M  V30 3509 H 345.438 1.96597 -3.68429 0
M  V30 3510 N 345.875 1.56104 -0.216619 0
M  V30 3511 C 346.838 2.18819 0.681962 0
M  V30 3512 C 347.838 1.14866 1.12528 0
M  V30 3513 O 349.028 1.40128 1.03488 0
M  V30 3514 C 346.16 2.80756 1.93362 0
M  V30 3515 H 347.353 2.99595 0.135254 0
M  V30 3516 H 344.906 1.56265 0.0330003 0
M  V30 3517 H 345.641 2.03837 2.52232 0
M  V30 3518 H 345.426 3.56876 1.62426 0
M  V30 3519 H 346.916 3.28844 2.57393 0
M  V30 3520 N 347.353 -0.0568162 1.57498 0
M  V30 3521 C 348.285 -1.09292 2.01464 0
M  V30 3522 C 349.298 -1.34112 0.922913 0
M  V30 3523 O 350.487 -1.32089 1.20062 0
M  V30 3524 C 347.587 -2.44068 2.35125 0
M  V30 3525 C 346.76 -2.38995 3.66333 0
M  V30 3526 C 345.819 -3.55997 3.87495 0
M  V30 3527 O 344.845 -3.36746 4.58901 0
M  V30 3528 N 346.047 -4.76888 3.30996 0
M  V30 3529 H 348.812 -0.718386 2.90963 0
M  V30 3530 H 346.373 -0.245235 1.60032 0
M  V30 3531 H 348.365 -3.21011 2.46443 0
M  V30 3532 H 346.935 -2.73468 1.5144 0
M  V30 3533 H 346.155 -1.47336 3.65631 0
M  V30 3534 H 347.443 -2.3272 4.52458 0
M  V30 3535 H 346.841 -4.95431 2.73065 0
M  V30 3536 H 345.398 -5.51291 3.47738 0
M  V30 3537 N 348.832 -1.54138 -0.328536 0
M  V30 3538 C 349.795 -1.82462 -1.38709 0
M  V30 3539 C 350.795 -0.696229 -1.44946 0
M  V30 3540 O 351.985 -0.964535 -1.4506 0
M  V30 3541 C 349.117 -1.98018 -2.77492 0
M  V30 3542 H 350.31 -2.77037 -1.14851 0
M  V30 3543 H 347.863 -1.45779 -0.563751 0
M  V30 3544 H 348.598 -1.05637 -3.06613 0
M  V30 3545 H 348.383 -2.80124 -2.74359 0
M  V30 3546 H 349.873 -2.21396 -3.54081 0
M  V30 3547 N 350.31 0.590341 -1.46126 0
M  V30 3548 C 351.24 1.71032 -1.58966 0
M  V30 3549 C 352.221 1.64302 -0.440335 0
M  V30 3550 O 353.406 1.82436 -0.665634 0
M  V30 3551 C 350.536 3.09665 -1.57241 0
M  V30 3552 C 349.49 3.31221 -2.71066 0
M  V30 3553 C 348.816 4.70303 -2.54399 0
M  V30 3554 C 350.116 3.19796 -4.1295 0
M  V30 3555 H 351.81 1.60543 -2.52718 0
M  V30 3556 H 349.356 0.770933 -1.21625 0
M  V30 3557 H 351.309 3.87831 -1.64819 0
M  V30 3558 H 350.033 3.21036 -0.600289 0
M  V30 3559 H 348.692 2.55452 -2.62944 0
M  V30 3560 H 348.34 4.78429 -1.55288 0
M  V30 3561 H 348.04 4.85679 -3.30741 0
M  V30 3562 H 349.564 5.50647 -2.63857 0
M  V30 3563 H 350.978 3.87815 -4.22223 0
M  V30 3564 H 349.375 3.46696 -4.89818 0
M  V30 3565 H 350.445 2.16983 -4.33643 0
M  V30 3566 N 351.788 1.33704 0.83433 0
M  V30 3567 C 353.036 1.25169 1.58673 0
M  V30 3568 C 353.357 -0.18127 1.94156 0
M  V30 3569 O 352.627 -1.11113 1.6134 0
M  V30 3570 H 351.207 0.4603 0.58833 0
M  V30 3571 H 353.869 1.67478 0.996847 0
M  V30 3572 H 352.965 1.84856 2.51465 0
M  V30 3573 N 353.266 -1.05314 1.17247 0
M  V30 3574 C 354.213 -2.13031 0.888058 0
M  V30 3575 C 355.183 -1.65253 -0.167537 0
M  V30 3576 O 356.368 -1.90775 -0.0305974 0
M  V30 3577 C 353.508 -3.42702 0.406147 0
M  V30 3578 C 352.621 -4.04161 1.52572 0
M  V30 3579 C 351.756 -5.21744 0.997808 0
M  V30 3580 C 350.795 -5.75207 2.09291 0
M  V30 3581 N 349.932 -6.84094 1.57986 0
M  V30 3582 H 354.772 -2.36698 1.81048 0
M  V30 3583 H 352.309 -1.16121 0.903013 0
M  V30 3584 H 354.267 -4.17059 0.108305 0
M  V30 3585 H 352.897 -3.19222 -0.479313 0
M  V30 3586 H 351.949 -3.27253 1.93931 0
M  V30 3587 H 353.261 -4.39881 2.35172 0
M  V30 3588 H 352.415 -6.03168 0.653739 0
M  V30 3589 H 351.154 -4.87495 0.141232 0
M  V30 3590 H 350.159 -4.92414 2.44557 0
M  V30 3591 H 351.384 -6.11505 2.95362 0
M  V30 3592 H 349.33 -6.51745 0.74598 0
M  V30 3593 H 349.247 -7.18811 2.34195 0
M  V30 3594 H 350.515 -7.69172 1.26468 0
M  V30 3595 N 354.744 -0.972509 -1.24016 0
M  V30 3596 C 355.676 -0.464375 -2.24446 0
M  V30 3597 C 356.689 0.4295 -1.57032 0
M  V30 3598 O 357.878 0.234902 -1.76948 0
M  V30 3599 C 354.978 0.348385 -3.37105 0
M  V30 3600 C 354.151 -0.53673 -4.34094 0
M  V30 3601 C 353.21 0.220838 -5.25736 0
M  V30 3602 O 352.236 -0.386867 -5.67884 0
M  V30 3603 N 353.438 1.50907 -5.60542 0
M  V30 3604 H 356.203 -1.32788 -2.68677 0
M  V30 3605 H 353.764 -0.844877 -1.38107 0
M  V30 3606 H 355.756 0.863341 -3.95384 0
M  V30 3607 H 354.326 1.11285 -2.92121 0
M  V30 3608 H 353.546 -1.23261 -3.74433 0
M  V30 3609 H 354.834 -1.14022 -4.95859 0
M  V30 3610 H 354.232 2.02444 -5.28236 0
M  V30 3611 H 352.789 1.96962 -6.21329 0
M  V30 3612 N 356.222 1.38976 -0.743202 0
M  V30 3613 C 357.638 1.53984 -0.419664 0
M  V30 3614 C 357.838 1.70837 1.0685 0
M  V30 3615 O 356.894 1.7135 1.8546 0
M  V30 3616 C 358.207 2.75287 -1.20985 0
M  V30 3617 C 359.755 2.89129 -1.19889 0
M  V30 3618 C 360.23 4.13381 -1.97181 0
M  V30 3619 N 361.721 4.20437 -1.94389 0
M  V30 3620 C 362.456 5.15547 -2.50996 0
M  V30 3621 N 361.952 6.16395 -3.16274 0
M  V30 3622 N 363.745 5.07822 -2.40984 0
M  V30 3623 H 355.896 1.26285 -1.7078 0
M  V30 3624 H 358.159 0.612689 -0.723406 0
M  V30 3625 H 357.865 2.69204 -2.26323 0
M  V30 3626 H 357.739 3.68184 -0.819759 0
M  V30 3627 H 360.126 2.947 -0.153606 0
M  V30 3628 H 360.207 1.97272 -1.62841 0
M  V30 3629 H 359.851 4.08572 -3.01714 0
M  V30 3630 H 359.781 5.04298 -1.51629 0
M  V30 3631 H 362.272 3.48205 -1.46839 0
M  V30 3632 H 362.585 6.85443 -3.56915 0
M  V30 3633 H 360.93 6.16758 -3.20367 0
M  V30 3634 H 364.121 4.27973 -1.89622 0
M  V30 3635 H 364.294 5.81767 -2.85397 0
M  V30 3636 N 357.7 0.491464 1.49741 0
M  V30 3637 C 358.946 -0.0565092 2.02721 0
M  V30 3638 C 359.279 -1.37522 1.37118 0
M  V30 3639 O 358.554 -1.87866 0.503645 0
M  V30 3640 C 358.837 -0.219051 3.59433 0
M  V30 3641 C 358.69 1.12211 4.35579 0
M  V30 3642 C 360.009 -0.964157 4.29409 0
M  V30 3643 H 357.128 -0.0190627 0.736753 0
M  V30 3644 H 359.77 0.641021 1.7886 0
M  V30 3645 H 357.92 -0.813165 3.79895 0
M  V30 3646 H 359.592 1.75437 4.26637 0
M  V30 3647 H 357.835 1.71377 3.98513 0
M  V30 3648 H 358.506 0.961794 5.43556 0
M  V30 3649 H 360.982 -0.460378 4.13545 0
M  V30 3650 H 359.858 -1.04671 5.38828 0
M  V30 3651 H 360.119 -2.00563 3.93988 0
M  V30 3652 N 359.178 -1.55987 0.224894 0
M  V30 3653 C 360.455 -1.90232 -0.455083 0
M  V30 3654 C 360.835 -1.14269 -1.77499 0
M  V30 3655 O 360.183 -0.253079 -2.27094 0
M  V30 3656 C 360.393 -3.42993 -0.644758 0
M  V30 3657 C 361.741 -4.13821 -0.950669 0
M  V30 3658 O 362.765 -3.4861 -0.731423 0
M  V30 3659 O 361.624 -5.29128 -1.36695 0
M  V30 3660 H 358.718 -0.79108 -0.241084 0
M  V30 3661 H 361.264 -1.67581 0.267327 0
M  V30 3662 H 360.036 -3.90252 0.28613 0
M  V30 3663 H 359.659 -3.71434 -1.41853 0
M  V30 3664 N 360.656 0.0484629 -1.57525 0
M  V30 3665 C 361.902 0.744226 -1.88651 0
M  V30 3666 C 362.235 1.76029 -0.820212 0
M  V30 3667 O 361.51 1.93782 0.166985 0
M  V30 3668 C 361.793 1.43128 -3.30434 0
M  V30 3669 C 361.646 0.43005 -4.47739 0
M  V30 3670 C 362.965 2.37031 -3.70816 0
M  V30 3671 H 360.084 0.269089 -0.68612 0
M  V30 3672 H 362.726 0.00713532 -1.89999 0
M  V30 3673 H 360.876 2.05956 -3.29415 0
M  V30 3674 H 362.548 -0.194816 -4.60888 0
M  V30 3675 H 360.791 -0.252522 -4.33064 0
M  V30 3676 H 361.462 0.948874 -5.43783 0
M  V30 3677 H 363.938 1.84263 -3.73077 0
M  V30 3678 H 362.814 2.82094 -4.70865 0
M  V30 3679 H 363.075 3.22864 -3.02012 0
M  V30 3680 N 362.134 1.5431 0.320358 0
M  V30 3681 C 363.044 1.86946 1.41734 0
M  V30 3682 C 364.06 0.761689 1.56443 0
M  V30 3683 O 365.236 1.05629 1.71477 0
M  V30 3684 C 362.301 2.09293 2.76401 0
M  V30 3685 C 361.362 3.33082 2.70841 0
M  V30 3686 C 360.595 3.54353 3.99086 0
M  V30 3687 O 360.818 2.79002 4.97508 0
M  V30 3688 O 359.752 4.47838 4.0215 0
M  V30 3689 H 363.578 2.80232 1.17062 0
M  V30 3690 H 361.163 1.40255 0.514673 0
M  V30 3691 H 363.045 2.25303 3.56113 0
M  V30 3692 H 361.72 1.19194 3.00956 0
M  V30 3693 H 360.627 3.22454 1.89668 0
M  V30 3694 H 361.96 4.23249 2.5124 0
M  V30 3695 N 363.613 -0.582584 1.46437 0
M  V30 3696 C 364.89 -1.34276 1.4223 0
M  V30 3697 C 365.27 -2.10835 0.10583 0
M  V30 3698 O 364.618 -2.09485 -0.912596 0
M  V30 3699 C 364.828 -2.26865 2.65204 0
M  V30 3700 C 366.176 -2.88691 3.11356 0
M  V30 3701 O 367.2 -2.37178 2.65753 0
M  V30 3702 O 366.059 -3.82255 3.90568 0
M  V30 3703 H 363.153 -0.603326 0.565621 0
M  V30 3704 H 365.699 -0.603591 1.58603 0
M  V30 3705 H 364.471 -1.69724 3.52576 0
M  V30 3706 H 364.094 -3.08122 2.5129 0
M  V30 3707 N 365.091 -1.34144 -0.827227 0
M  V30 3708 C 366.021 -1.28005 -1.95287 0
M  V30 3709 C 367.002 -0.158321 -1.69362 0
M  V30 3710 O 368.187 -0.349987 -1.9102 0
M  V30 3711 C 365.317 -1.03036 -3.31664 0
M  V30 3712 C 364.271 -2.11628 -3.72019 0
M  V30 3713 C 363.597 -1.71854 -5.0633 0
M  V30 3714 C 364.897 -3.53417 -3.8457 0
M  V30 3715 H 366.591 -2.22187 -2.00682 0
M  V30 3716 H 364.137 -1.0696 -0.964135 0
M  V30 3717 H 366.09 -0.973863 -4.09993 0
M  V30 3718 H 364.814 -0.0529391 -3.26557 0
M  V30 3719 H 363.473 -2.16339 -2.95961 0
M  V30 3720 H 363.121 -0.727841 -4.97706 0
M  V30 3721 H 362.821 -2.44531 -5.34302 0
M  V30 3722 H 364.345 -1.67692 -5.87122 0
M  V30 3723 H 365.759 -3.51142 -4.5318 0
M  V30 3724 H 364.156 -4.24679 -4.2399 0
M  V30 3725 H 365.226 -3.91072 -2.86689 0
M  V30 3726 N 366.569 1.04691 -1.17803 0
M  V30 3727 C 367.817 1.7743 -0.967617 0
M  V30 3728 C 368.138 1.88359 0.504574 0
M  V30 3729 O 367.408 1.40402 1.36617 0
M  V30 3730 H 365.988 0.657242 -0.355024 0
M  V30 3731 H 368.65 1.2638 -1.48371 0
M  V30 3732 H 367.746 2.78924 -1.40027 0
M  V30 3733 N 368.047 0.979072 1.23499 0
M  V30 3734 C 369.293 0.648178 1.92163 0
M  V30 3735 C 369.626 -0.816049 1.76222 0
M  V30 3736 O 368.901 -1.58849 1.12237 0
M  V30 3737 C 369.184 1.03773 3.44824 0
M  V30 3738 C 369.037 2.55948 3.69879 0
M  V30 3739 C 370.356 0.580653 4.36253 0
M  V30 3740 H 367.475 0.236952 0.69787 0
M  V30 3741 H 370.117 1.22012 1.45647 0
M  V30 3742 H 368.267 0.551058 3.84572 0
M  V30 3743 H 369.939 3.12179 3.3962 0
M  V30 3744 H 368.182 2.98641 3.14636 0
M  V30 3745 H 368.853 2.78255 4.76737 0
M  V30 3746 H 371.329 0.998465 4.03943 0
M  V30 3747 H 370.205 0.881663 5.41773 0
M  V30 3748 H 370.466 -0.519052 4.39042 0
M  V30 3749 N 369.525 -1.3858 0.750561 0
M  V30 3750 C 370.802 -1.94231 0.231009 0
M  V30 3751 C 371.182 -1.68611 -1.27018 0
M  V30 3752 O 370.53 -1.02296 -2.04323 0
M  V30 3753 C 370.74 -3.44123 0.581428 0
M  V30 3754 C 372.088 -4.2116 0.539389 0
M  V30 3755 O 373.112 -3.52391 0.519541 0
M  V30 3756 O 371.971 -5.43749 0.54765 0
M  V30 3757 H 369.065 -0.825639 0.0474263 0
M  V30 3758 H 371.611 -1.4799 0.830478 0
M  V30 3759 H 370.383 -3.56267 1.61833 0
M  V30 3760 H 370.006 -3.97573 -0.0462047 0
M  V30 3761 N 371.003 -0.499398 -1.49478 0
M  V30 3762 C 372.25 0.0456899 -2.02448 0
M  V30 3763 C 372.578 1.37142 -1.37921 0
M  V30 3764 O 371.833 1.89111 -0.503544 0
M  V30 3765 C 372.132 0.248424 -3.56536 0
M  V30 3766 C 371.798 -0.999107 -4.39692 0
M  V30 3767 C 370.46 -1.34108 -4.62135 0
M  V30 3768 C 372.812 -1.82842 -4.88076 0
M  V30 3769 C 370.14 -2.51191 -5.30208 0
M  V30 3770 C 372.492 -2.99076 -5.57437 0
M  V30 3771 C 371.156 -3.33655 -5.78127 0
M  V30 3772 H 370.426 0.0167191 -0.740811 0
M  V30 3773 H 373.073 -0.65923 -1.79795 0
M  V30 3774 H 371.378 1.03586 -3.77859 0
M  V30 3775 H 373.075 0.684605 -3.95113 0
M  V30 3776 H 369.665 -0.722729 -4.22463 0
M  V30 3777 H 373.849 -1.57737 -4.70566 0
M  V30 3778 H 369.105 -2.78221 -5.44429 0
M  V30 3779 H 373.279 -3.63664 -5.93904 0
M  V30 3780 H 370.906 -4.24483 -6.30649 0
M  V30 3781 N 372.481 1.55866 -0.233164 0
M  V30 3782 C 373.411 2.23783 0.666599 0
M  V30 3783 C 374.392 1.21343 1.19205 0
M  V30 3784 O 375.577 1.4996 1.23392 0
M  V30 3785 C 372.707 2.92671 1.86978 0
M  V30 3786 C 371.661 4.01682 1.47768 0
M  V30 3787 C 370.987 4.57926 2.76058 0
M  V30 3788 C 372.287 5.18126 0.658993 0
M  V30 3789 H 373.981 2.99232 0.100306 0
M  V30 3790 H 371.527 1.43924 0.046804 0
M  V30 3791 H 373.48 3.3888 2.50476 0
M  V30 3792 H 372.204 2.14688 2.46123 0
M  V30 3793 H 370.863 3.56222 0.866106 0
M  V30 3794 H 370.511 3.76659 3.33372 0
M  V30 3795 H 370.211 5.31505 2.50552 0
M  V30 3796 H 371.735 5.06859 3.40479 0
M  V30 3797 H 373.149 5.60644 1.19795 0
M  V30 3798 H 371.546 5.98009 0.500552 0
M  V30 3799 H 372.616 4.83763 -0.331856 0
M  V30 3800 N 373.959 -0.0401083 1.57549 0
M  V30 3801 C 375.187 -0.745196 1.93014 0
M  V30 3802 C 375.602 -1.6948 0.831984 0
M  V30 3803 O 374.959 -1.81482 -0.192463 0
M  V30 3804 C 375.01 -1.51176 3.28372 0
M  V30 3805 O 374.731 -0.600284 4.33968 0
M  V30 3806 C 376.232 -2.315 3.78051 0
M  V30 3807 H 373.452 -0.210088 0.637263 0
M  V30 3808 H 375.996 -0.000924689 2.045 0
M  V30 3809 H 374.151 -2.20801 3.18317 0
M  V30 3810 H 374.565 -1.13669 5.12035 0
M  V30 3811 H 376.039 -2.80697 4.75303 0
M  V30 3812 H 376.516 -3.12436 3.08675 0
M  V30 3813 H 377.122 -1.66971 3.91153 0
M  V30 3814 N 375.437 -1.54477 -0.31217 0
M  V30 3815 C 376.686 -1.72438 -1.04633 0
M  V30 3816 C 376.999 -0.511163 -1.88803 0
M  V30 3817 O 378.205 -0.572341 -2.65399 0
M  V30 3818 C 376.661 -3.05043 -1.9099 0
M  V30 3819 C 376.269 -4.33806 -1.11877 0
M  V30 3820 C 378.013 -3.32364 -2.64073 0
M  V30 3821 C 375.92 -5.57467 -1.97445 0
M  V30 3822 H 374.85 -0.642647 -0.394361 0
M  V30 3823 H 377.501 -1.80966 -0.303929 0
M  V30 3824 H 375.883 -2.90451 -2.69173 0
M  V30 3825 H 377.057 -4.59199 -0.383843 0
M  V30 3826 H 375.372 -4.13336 -0.504252 0
M  V30 3827 H 377.969 -4.21951 -3.28423 0
M  V30 3828 H 378.312 -2.50745 -3.32314 0
M  V30 3829 H 378.845 -3.47875 -1.92944 0
M  V30 3830 H 375.584 -6.41722 -1.33692 0
M  V30 3831 H 375.104 -5.36277 -2.6864 0
M  V30 3832 H 376.783 -5.94303 -2.5576 0
M  V30 3833 N 376.915 0.57481 -1.46744 0
M  V30 3834 C 378.161 1.3347 -1.52688 0
M  V30 3835 C 378.494 1.93353 -0.181229 0
M  V30 3836 O 377.769 1.76912 0.808237 0
M  V30 3837 C 378.052 2.45811 -2.63152 0
M  V30 3838 C 377.905 1.90912 -4.07275 0
M  V30 3839 C 379.224 3.47822 -2.69644 0
M  V30 3840 H 376.343 0.483935 -0.555856 0
M  V30 3841 H 378.985 0.644968 -1.78718 0
M  V30 3842 H 377.135 3.04646 -2.41088 0
M  V30 3843 H 378.807 1.36473 -4.4065 0
M  V30 3844 H 377.05 1.21691 -4.16382 0
M  V30 3845 H 377.721 2.72042 -4.80309 0
M  V30 3846 H 380.197 2.9888 -2.895 0
M  V30 3847 H 379.073 4.23876 -3.48742 0
M  V30 3848 H 379.334 4.05555 -1.76005 0
M  V30 3849 N 378.394 1.34581 0.820102 0
M  V30 3850 C 379.642 1.26845 1.57336 0
M  V30 3851 C 379.963 -0.160667 1.94337 0
M  V30 3852 O 379.233 -1.09396 1.6251 0
M  V30 3853 H 377.813 0.466514 0.583415 0
M  V30 3854 H 380.475 1.68526 0.979027 0
M  V30 3855 H 379.571 1.87513 2.4949 0
M  V30 3856 N 379.872 -1.04064 1.18357 0
M  V30 3857 C 380.822 -2.10393 0.878561 0
M  V30 3858 C 381.806 -1.60183 -0.151713 0
M  V30 3859 O 382.998 -1.76923 0.0523303 0
M  V30 3860 C 380.127 -3.4089 0.406096 0
M  V30 3861 C 379.213 -3.97866 1.46844 0
M  V30 3862 N 379.604 -4.28657 2.68489 0
M  V30 3863 C 377.902 -4.2574 1.32896 0
M  V30 3864 C 378.603 -4.74253 3.36836 0
M  V30 3865 N 377.579 -4.75068 2.64219 0
M  V30 3866 H 381.381 -2.32076 1.80327 0
M  V30 3867 H 378.895 -1.21818 1.07397 0
M  V30 3868 H 380.892 -4.16557 0.169088 0
M  V30 3869 H 379.552 -3.20633 -0.512275 0
M  V30 3870 H 380.563 -4.18304 3.05356 0
M  V30 3871 H 377.24 -4.1481 0.473134 0
M  V30 3872 H 378.63 -5.07096 4.40798 0
M  V30 3873 N 381.35 -0.985608 -1.22978 0
M  V30 3874 C 382.297 -0.529825 -2.24636 0
M  V30 3875 C 383.267 0.434028 -1.60329 0
M  V30 3876 O 384.452 0.340414 -1.87739 0
M  V30 3877 C 381.592 0.156533 -3.44745 0
M  V30 3878 C 380.705 -0.848197 -4.23591 0
M  V30 3879 C 379.84 -0.136109 -5.31026 0
M  V30 3880 C 378.879 -1.1297 -6.01585 0
M  V30 3881 N 378.016 -0.446415 -7.00679 0
M  V30 3882 H 382.856 -1.40148 -2.62988 0
M  V30 3883 H 380.393 -0.702168 -1.29259 0
M  V30 3884 H 382.351 0.571324 -4.1327 0
M  V30 3885 H 380.981 0.992025 -3.07179 0
M  V30 3886 H 380.033 -1.38135 -3.54433 0
M  V30 3887 H 381.345 -1.60512 -4.72268 0
M  V30 3888 H 380.499 0.335784 -6.0577 0
M  V30 3889 H 379.238 0.653373 -4.83304 0
M  V30 3890 H 378.243 -1.6123 -5.25628 0
M  V30 3891 H 379.468 -1.91993 -6.51395 0
M  V30 3892 H 377.414 0.323763 -6.55201 0
M  V30 3893 H 377.331 -1.1419 -7.47326 0
M  V30 3894 H 378.599 0.00291697 -7.795 0
M  V30 3895 N 382.828 1.3818 -0.7579 0
M  V30 3896 C 384.075 2.00019 -0.315985 0
M  V30 3897 C 384.403 1.60163 1.10355 0
M  V30 3898 O 383.658 0.83264 1.77103 0
M  V30 3899 C 383.957 3.55252 -0.391218 0
M  V30 3900 C 383.623 4.14834 -1.76702 0
M  V30 3901 C 382.285 4.30821 -2.14353 0
M  V30 3902 C 384.637 4.47658 -2.66931 0
M  V30 3903 C 381.965 4.76928 -3.41696 0
M  V30 3904 C 384.317 4.95184 -3.93669 0
M  V30 3905 C 382.981 5.09377 -4.31383 0
M  V30 3906 H 382.251 0.731923 -0.115627 0
M  V30 3907 H 384.898 1.65161 -0.969223 0
M  V30 3908 H 383.203 3.90273 0.34558 0
M  V30 3909 H 384.9 4.00988 -0.030805 0
M  V30 3910 H 381.49 4.02808 -1.46435 0
M  V30 3911 H 385.674 4.34904 -2.39106 0
M  V30 3912 H 380.93 4.86103 -3.70829 0
M  V30 3913 H 385.104 5.19551 -4.63724 0
M  V30 3914 H 382.731 5.44865 -5.30119 0
M  V30 3915 N 384.306 0.507319 1.49211 0
M  V30 3916 C 385.536 -0.0315292 2.06576 0
M  V30 3917 C 385.944 -1.30791 1.36713 0
M  V30 3918 O 385.287 -1.78324 0.441181 0
M  V30 3919 C 385.349 -0.349104 3.57801 0
M  V30 3920 C 385.013 0.830475 4.49391 0
M  V30 3921 C 386.01 1.72271 4.90529 0
M  V30 3922 C 383.695 1.03107 4.91604 0
M  V30 3923 C 385.689 2.79964 5.72625 0
M  V30 3924 C 383.376 2.11116 5.73475 0
M  V30 3925 C 384.374 2.99379 6.1389 0
M  V30 3926 O 384.062 4.05523 6.94123 0
M  V30 3927 H 383.794 0.0201002 0.675701 0
M  V30 3928 H 386.348 0.705737 1.92895 0
M  V30 3929 H 384.578 -1.14005 3.69513 0
M  V30 3930 H 386.267 -0.827319 3.97379 0
M  V30 3931 H 387.033 1.57958 4.58557 0
M  V30 3932 H 382.912 0.353417 4.59643 0
M  V30 3933 H 386.456 3.48884 6.04091 0
M  V30 3934 H 382.353 2.25421 6.0486 0
M  V30 3935 H 383.121 4.02953 7.1244 0
M  V30 3936 N 385.784 -1.5574 0.241426 0
M  V30 3937 C 387.032 -1.98417 -0.384075 0
M  V30 3938 C 387.353 -1.13078 -1.58866 0
M  V30 3939 O 386.623 -0.212312 -1.94746 0
M  V30 3940 H 385.203 -0.732813 -0.144894 0
M  V30 3941 H 387.865 -1.9193 0.338943 0
M  V30 3942 H 386.961 -3.04219 -0.696939 0
M  V30 3943 N 387.262 0.0317525 -1.57568 0
M  V30 3944 C 388.673 0.578692 -1.77505 0
M  V30 3945 C 389.024 1.75749 -0.872164 0
M  V30 3946 O 388.149 2.16298 -0.0663106 0
M  V30 3947 C 388.744 1.05658 -3.21904 0
M  V30 3948 C 387.303 1.54906 -3.43047 0
M  V30 3949 C 386.45 0.485939 -2.73009 0
M  V30 3950 H 389.401 -0.194475 -1.57504 0
M  V30 3951 H 389.422 1.92404 -3.28269 0
M  V30 3952 H 388.934 0.198422 -3.87592 0
M  V30 3953 H 387.035 2.42915 -2.82529 0
M  V30 3954 H 387.148 1.59841 -4.5165 0
M  V30 3955 H 385.512 0.940354 -2.36705 0
M  V30 3956 H 386.295 -0.362709 -3.41379 0
M  V30 3957 N 388.74 1.54641 0.303973 0
M  V30 3958 C 390.156 1.45788 0.649463 0
M  V30 3959 C 390.356 0.64666 1.90842 0
M  V30 3960 O 389.412 0.153183 2.52035 0
M  V30 3961 C 390.725 2.89718 0.805227 0
M  V30 3962 C 392.273 2.99742 0.901305 0
M  V30 3963 C 392.748 4.44863 1.08909 0
M  V30 3964 N 394.239 4.48559 1.15536 0
M  V30 3965 C 394.974 5.58026 1.3189 0
M  V30 3966 N 394.47 6.77422 1.45161 0
M  V30 3967 N 396.263 5.45708 1.34755 0
M  V30 3968 H 388.414 2.05854 -0.523237 0
M  V30 3969 H 390.677 0.932186 -0.172431 0
M  V30 3970 H 390.383 3.51666 -0.0489108 0
M  V30 3971 H 390.257 3.36964 1.69513 0
M  V30 3972 H 392.644 2.3791 1.74593 0
M  V30 3973 H 392.725 2.55797 -0.0125531 0
M  V30 3974 H 392.369 5.07288 0.249241 0
M  V30 3975 H 392.299 4.86436 2.01713 0
M  V30 3976 H 394.79 3.6254 1.06646 0
M  V30 3977 H 395.103 7.56604 1.57387 0
M  V30 3978 H 393.448 6.80292 1.42223 0
M  V30 3979 H 396.639 4.51378 1.23996 0
M  V30 3980 H 396.812 6.3107 1.47157 0
M  V30 3981 N 390.218 -0.567019 1.47046 0
M  V30 3982 C 391.467 -1.32091 1.5243 0
M  V30 3983 C 391.78 -1.94704 0.187021 0
M  V30 3984 O 392.986 -2.7124 0.118771 0
M  V30 3985 C 391.442 -2.39479 2.68659 0
M  V30 3986 C 391.05 -1.831 4.08874 0
M  V30 3987 C 392.794 -3.16111 2.83327 0
M  V30 3988 C 390.701 -2.8821 5.16419 0
M  V30 3989 H 389.631 -0.496629 0.56734 0
M  V30 3990 H 392.282 -0.603354 1.73297 0
M  V30 3991 H 390.664 -3.14105 2.41152 0
M  V30 3992 H 391.838 -1.14913 4.46242 0
M  V30 3993 H 390.153 -1.19085 3.99008 0
M  V30 3994 H 392.75 -3.94585 3.60842 0
M  V30 3995 H 393.093 -3.69686 1.91411 0
M  V30 3996 H 393.626 -2.48595 3.10556 0
M  V30 3997 H 390.365 -2.39504 6.10179 0
M  V30 3998 H 389.885 -3.54839 4.8358 0
M  V30 3999 H 391.564 -3.51881 5.42945 0
M  V30 4000 N 391.696 -1.35014 -0.812953 0
M  V30 4001 C 392.944 -1.27678 -1.56661 0
M  V30 4002 C 393.265 0.150359 -1.94419 0
M  V30 4003 O 392.535 1.08532 -1.63088 0
M  V30 4004 H 391.115 -0.469602 -0.580933 0
M  V30 4005 H 393.777 -1.69043 -0.970076 0
M  V30 4006 H 392.873 -1.88833 -2.48492 0
M  V30 4007 N 393.175 1.03435 -1.18907 0
M  V30 4008 C 394.138 2.09756 -0.923844 0
M  V30 4009 C 395.138 1.60528 0.093416 0
M  V30 4010 O 396.328 1.73631 -0.140727 0
M  V30 4011 C 393.46 3.38692 -0.387354 0
M  V30 4012 H 394.653 2.34719 -1.86674 0
M  V30 4013 H 392.206 1.19959 -1.00197 0
M  V30 4014 H 392.941 3.19396 0.561845 0
M  V30 4015 H 392.726 3.75742 -1.12074 0
M  V30 4016 H 394.216 4.17016 -0.220694 0
M  V30 4017 N 394.653 0.992116 1.22453 0
M  V30 4018 C 395.583 0.561677 2.26644 0
M  V30 4019 C 396.564 -0.411055 1.65059 0
M  V30 4020 O 397.749 -0.301861 1.9184 0
M  V30 4021 C 394.879 -0.125247 3.47074 0
M  V30 4022 C 393.833 0.765948 4.21091 0
M  V30 4023 C 393.159 -0.0538484 5.34673 0
M  V30 4024 C 394.459 2.06242 4.79856 0
M  V30 4025 H 396.153 1.43259 2.62902 0
M  V30 4026 H 393.699 0.690283 1.26377 0
M  V30 4027 H 395.652 -0.437764 4.1912 0
M  V30 4028 H 394.376 -1.03069 3.0991 0
M  V30 4029 H 393.035 1.0621 3.50878 0
M  V30 4030 H 392.683 -0.960188 4.9375 0
M  V30 4031 H 392.383 0.539415 5.85119 0
M  V30 4032 H 393.907 -0.360477 6.09535 0
M  V30 4033 H 395.321 1.8139 5.43848 0
M  V30 4034 H 393.718 2.60444 5.40638 0
M  V30 4035 H 394.788 2.74167 3.99951 0
M  V30 4036 N 396.131 -1.37776 0.765217 0
M  V30 4037 C 397.361 -2.03828 0.337277 0
M  V30 4038 C 397.769 -1.57841 -1.04321 0
M  V30 4039 O 397.112 -0.752043 -1.67601 0
M  V30 4040 C 397.174 -3.58292 0.294407 0
M  V30 4041 C 396.838 -4.27384 1.61838 0
M  V30 4042 C 397.835 -4.51956 2.56967 0
M  V30 4043 C 395.52 -4.65345 1.89102 0
M  V30 4044 C 397.514 -5.13536 3.77571 0
M  V30 4045 C 395.201 -5.26647 3.09978 0
M  V30 4046 C 396.199 -5.50679 4.04032 0
M  V30 4047 O 395.887 -6.10702 5.2278 0
M  V30 4048 H 395.619 -0.661292 0.140248 0
M  V30 4049 H 398.173 -1.77222 1.03834 0
M  V30 4050 H 396.403 -3.83918 -0.462983 0
M  V30 4051 H 398.092 -4.05763 -0.105581 0
M  V30 4052 H 398.858 -4.23048 2.37183 0
M  V30 4053 H 394.737 -4.45978 1.16725 0
M  V30 4054 H 398.281 -5.3221 4.50997 0
M  V30 4055 H 394.178 -5.54979 3.29649 0
M  V30 4056 H 394.946 -6.29183 5.23517 0
M  V30 4057 N 397.609 -0.515225 -1.4894 0
M  V30 4058 C 398.858 0.0261361 -2.01683 0
M  V30 4059 C 399.171 1.36719 -1.39883 0
M  V30 4060 O 400.377 1.99606 -1.84037 0
M  V30 4061 C 398.833 0.0970111 -3.59769 0
M  V30 4062 C 398.441 -1.23825 -4.30548 0
M  V30 4063 C 400.185 0.587981 -4.20408 0
M  V30 4064 C 398.092 -1.12877 -5.80528 0
M  V30 4065 H 397.022 0.0135398 -0.753878 0
M  V30 4066 H 399.673 -0.656787 -1.71343 0
M  V30 4067 H 398.055 0.844694 -3.86886 0
M  V30 4068 H 399.229 -2.00034 -4.15118 0
M  V30 4069 H 397.544 -1.66379 -3.81716 0
M  V30 4070 H 400.141 0.68763 -5.3026 0
M  V30 4071 H 400.484 1.59026 -3.84729 0
M  V30 4072 H 401.017 -0.103582 -3.97665 0
M  V30 4073 H 397.756 -2.10575 -6.20756 0
M  V30 4074 H 397.276 -0.407799 -5.98412 0
M  V30 4075 H 398.955 -0.813332 -6.41868 0
M  V30 4076 N 399.087 1.5561 -0.249682 0
M  V30 4077 C 400.503 1.59254 0.105103 0
M  V30 4078 C 400.703 1.26685 1.56694 0
M  V30 4079 O 399.759 1.0155 2.31179 0
M  V30 4080 C 401.072 2.99687 -0.246592 0
M  V30 4081 C 402.62 3.12416 -0.191118 0
M  V30 4082 C 403.095 4.55074 -0.516885 0
M  V30 4083 N 404.586 4.60835 -0.467489 0
M  V30 4084 C 405.321 5.69201 -0.69268 0
M  V30 4085 N 404.817 6.85817 -0.981146 0
M  V30 4086 N 406.61 5.58635 -0.623198 0
M  V30 4087 H 398.761 1.75049 -1.20298 0
M  V30 4088 H 401.024 0.815003 -0.484225 0
M  V30 4089 H 400.73 3.28267 -1.26228 0
M  V30 4090 H 400.604 3.74798 0.424962 0
M  V30 4091 H 402.991 2.83615 0.815247 0
M  V30 4092 H 403.072 2.39573 -0.896563 0
M  V30 4093 H 402.716 4.84596 -1.52082 0
M  V30 4094 H 402.646 5.26181 0.210068 0
M  V30 4095 H 405.137 3.7705 -0.253373 0
M  V30 4096 H 405.45 7.64341 -1.14032 0
M  V30 4097 H 403.795 6.87494 -1.01865 0
M  V30 4098 H 406.986 4.66406 -0.397863 0
M  V30 4099 H 407.159 6.43017 -0.802093 0
M  V30 4100 N 400.565 -0.0233959 1.57583 0
M  V30 4101 C 401.813 -0.711654 1.89156 0
M  V30 4102 C 402.134 -1.75591 0.848096 0
M  V30 4103 O 401.404 -1.95547 -0.117566 0
M  V30 4104 H 399.984 -0.265835 0.698098 0
M  V30 4105 H 402.646 0.0119948 1.94896 0
M  V30 4106 H 401.742 -1.19766 2.88206 0
M  V30 4107 N 402.043 -1.548 -0.295768 0
M  V30 4108 C 402.973 -1.89115 -1.36959 0
M  V30 4109 C 403.954 -0.75059 -1.52644 0
M  V30 4110 O 405.139 -1.00678 -1.66065 0
M  V30 4111 C 402.269 -2.14307 -2.73295 0
M  V30 4112 C 401.223 -3.30151 -2.72368 0
M  V30 4113 C 400.549 -3.40772 -4.12042 0
M  V30 4114 C 401.849 -4.67126 -2.33646 0
M  V30 4115 H 403.543 -2.79053 -1.08488 0
M  V30 4116 H 401.089 -1.34266 -0.520443 0
M  V30 4117 H 403.042 -2.36898 -3.48507 0
M  V30 4118 H 401.766 -1.21145 -3.03301 0
M  V30 4119 H 400.425 -3.0749 -1.99613 0
M  V30 4120 H 400.073 -2.45117 -4.39234 0
M  V30 4121 H 399.773 -4.18645 -4.12322 0
M  V30 4122 H 401.297 -3.6563 -4.89027 0
M  V30 4123 H 402.711 -4.89414 -2.98575 0
M  V30 4124 H 401.108 -5.47751 -2.45129 0
M  V30 4125 H 402.178 -4.67489 -1.28772 0
M  V30 4126 N 403.521 0.559213 -1.47345 0
M  V30 4127 C 404.769 1.31388 -1.53563 0
M  V30 4128 C 405.09 1.93985 -0.198678 0
M  V30 4129 O 404.36 1.79825 0.777167 0
M  V30 4130 H 402.94 0.487901 -0.565652 0
M  V30 4131 H 405.602 0.65315 -1.8363 0
M  V30 4132 H 404.698 2.10844 -2.30111 0
M  V30 4133 N 404.999 1.35443 0.805782 0
M  V30 4134 C 405.909 1.30546 1.94923 0
M  V30 4135 C 406.925 0.210233 1.72725 0
M  V30 4136 O 408.101 0.43975 1.9654 0
M  V30 4137 C 405.166 1.07782 3.29521 0
M  V30 4138 C 404.227 2.26625 3.64609 0
M  V30 4139 C 403.46 2.04938 4.92784 0
M  V30 4140 O 403.683 1.01624 5.61274 0
M  V30 4141 O 402.617 2.9232 5.26149 0
M  V30 4142 H 406.443 2.26779 2.02002 0
M  V30 4143 H 404.028 1.15823 0.943682 0
M  V30 4144 H 405.91 0.969392 4.10098 0
M  V30 4145 H 404.585 0.146003 3.23371 0
M  V30 4146 H 403.492 2.43033 2.84404 0
M  V30 4147 H 404.825 3.18257 3.75464 0
M  V30 4148 N 406.477 -1.02803 1.19454 0
M  V30 4149 C 407.724 -1.76217 0.997693 0
M  V30 4150 C 408.052 -1.887 -0.47144 0
M  V30 4151 O 407.307 -1.4011 -1.3663 0
M  V30 4152 C 407.606 -3.18941 1.6128 0
M  V30 4153 C 407.272 -3.26463 3.11019 0
M  V30 4154 C 405.934 -3.28223 3.51885 0
M  V30 4155 C 408.286 -3.25542 4.07028 0
M  V30 4156 C 405.614 -3.26719 4.8731 0
M  V30 4157 C 407.966 -3.25579 5.42385 0
M  V30 4158 C 406.63 -3.25637 5.82681 0
M  V30 4159 H 405.9 -0.644823 0.365082 0
M  V30 4160 H 408.547 -1.20655 1.4871 0
M  V30 4161 H 406.852 -3.77587 1.04572 0
M  V30 4162 H 408.549 -3.74415 1.43577 0
M  V30 4163 H 405.139 -3.25822 2.78457 0
M  V30 4164 H 409.323 -3.23362 3.76498 0
M  V30 4165 H 404.579 -3.25089 5.1781 0
M  V30 4166 H 408.753 -3.23817 6.16535 0
M  V30 4167 H 406.38 -3.24226 6.87591 0
M  V30 4168 N 407.956 -0.998596 -1.21925 0
M  V30 4169 C 409.184 -0.696286 -1.94832 0
M  V30 4170 C 409.599 0.740032 -1.73692 0
M  V30 4171 O 408.956 1.5 -1.03953 0
M  V30 4172 C 409.007 -0.999833 -3.47398 0
M  V30 4173 O 408.728 -2.37972 -3.67833 0
M  V30 4174 C 410.229 -0.716025 -4.37479 0
M  V30 4175 H 407.449 -0.257111 -0.619786 0
M  V30 4176 H 409.993 -1.33491 -1.54921 0
M  V30 4177 H 408.148 -0.406918 -3.85257 0
M  V30 4178 H 408.562 -2.48338 -4.61983 0
M  V30 4179 H 410.036 -0.978642 -5.43256 0
M  V30 4180 H 410.513 0.349968 -4.37803 0
M  V30 4181 H 411.119 -1.29025 -4.05256 0
M  V30 4182 N 409.434 1.37368 -0.772513 0
M  V30 4183 C 410.845 1.8231 -0.402493 0
M  V30 4184 C 411.196 1.6436 1.07146 0
M  V30 4185 O 410.321 1.15514 1.82991 0
M  V30 4186 C 410.916 3.30979 -0.723776 0
M  V30 4187 C 409.475 3.74195 -0.406802 0
M  V30 4188 C 408.622 2.59885 -0.967218 0
M  V30 4189 H 411.573 1.25829 -0.967099 0
M  V30 4190 H 411.594 3.80499 -0.00870832 0
M  V30 4191 H 411.106 3.44011 -1.7966 0
M  V30 4192 H 409.207 3.66732 0.658673 0
M  V30 4193 H 409.32 4.7027 -0.915588 0
M  V30 4194 H 407.684 2.51674 -0.391416 0
M  V30 4195 H 408.467 2.7571 -2.04546 0
M  V30 4196 N 410.912 0.523116 1.48665 0
M  V30 4197 C 411.842 -0.23231 2.32342 0
M  V30 4198 C 412.823 -0.941637 1.41659 0
M  V30 4199 O 414.008 -0.928751 1.70552 0
M  V30 4200 C 411.138 -1.28387 3.22698 0
M  V30 4201 C 410.092 -0.693098 4.22351 0
M  V30 4202 C 409.418 -1.8468 5.01794 0
M  V30 4203 C 410.718 0.33063 5.21252 0
M  V30 4204 H 412.412 0.466192 2.95748 0
M  V30 4205 H 409.958 0.225643 1.42221 0
M  V30 4206 H 411.911 -1.82024 3.80059 0
M  V30 4207 H 410.635 -2.01186 2.57278 0
M  V30 4208 H 409.294 -0.178299 3.66166 0
M  V30 4209 H 408.942 -2.56301 4.32804 0
M  V30 4210 H 408.642 -1.45747 5.69238 0
M  V30 4211 H 410.166 -2.38709 5.62006 0
M  V30 4212 H 411.58 -0.118407 5.73178 0
M  V30 4213 H 409.977 0.636974 5.9671 0
M  V30 4214 H 411.047 1.23883 4.68808 0
M  V30 4215 N 412.39 -1.55475 0.257931 0
M  V30 4216 C 413.62 -2.03314 -0.367026 0
M  V30 4217 C 414.028 -1.13625 -1.51281 0
M  V30 4218 O 413.371 -0.145334 -1.83124 0
M  V30 4219 C 413.433 -3.47362 -0.926284 0
M  V30 4220 C 413.097 -4.56914 0.0886584 0
M  V30 4221 C 414.094 -5.12013 0.902123 0
M  V30 4222 C 411.779 -5.01827 0.217936 0
M  V30 4223 C 413.773 -6.10529 1.83122 0
M  V30 4224 C 411.46 -6.00172 1.15052 0
M  V30 4225 C 412.458 -6.54402 1.95568 0
M  V30 4226 O 412.146 -7.50827 2.87253 0
M  V30 4227 H 411.878 -0.669976 -0.0900443 0
M  V30 4228 H 414.432 -2.01804 0.382673 0
M  V30 4229 H 412.662 -3.46056 -1.72575 0
M  V30 4230 H 414.351 -3.78637 -1.46249 0
M  V30 4231 H 415.117 -4.78139 0.812891 0
M  V30 4232 H 410.996 -4.59272 -0.398721 0
M  V30 4233 H 414.54 -6.52783 2.46008 0
M  V30 4234 H 410.437 -6.33465 1.24064 0
M  V30 4235 H 411.205 -7.68483 2.81739 0
M  V30 4236 N 413.868 0.0150385 -1.57593 0
M  V30 4237 C 415.279 0.559832 -1.78109 0
M  V30 4238 C 415.63 1.74814 -0.890756 0
M  V30 4239 O 414.755 2.16216 -0.0892482 0
M  V30 4240 C 415.35 1.02238 -3.23006 0
M  V30 4241 C 413.909 1.51258 -3.44671 0
M  V30 4242 C 413.056 0.456955 -2.73509 0
M  V30 4243 H 416.007 -0.211169 -1.57289 0
M  V30 4244 H 416.028 1.88912 -3.30292 0
M  V30 4245 H 415.54 0.157302 -3.87781 0
M  V30 4246 H 413.641 2.39905 -2.8509 0
M  V30 4247 H 413.754 1.55042 -4.5332 0
M  V30 4248 H 412.118 0.915196 -2.37689 0
M  V30 4249 H 412.901 -0.398896 -3.40975 0
M  V30 4250 N 415.346 1.54954 0.287554 0
M  V30 4251 C 416.279 1.81737 1.3801 0
M  V30 4252 C 417.257 0.669412 1.48181 0
M  V30 4253 O 418.441 0.910839 1.65033 0
M  V30 4254 C 415.568 1.96606 2.75796 0
M  V30 4255 C 414.614 3.19098 2.82982 0
M  V30 4256 S 415.447 4.7683 2.43707 0
M  V30 4257 C 416.603 4.94653 3.83496 0
M  V30 4258 H 416.836 2.74122 1.15085 0
M  V30 4259 H 414.369 1.46538 0.486403 0
M  V30 4260 H 416.327 2.05858 3.55152 0
M  V30 4261 H 414.988 1.05136 2.95982 0
M  V30 4262 H 414.181 3.26344 3.84077 0
M  V30 4263 H 413.783 3.08361 2.11635 0
M  V30 4264 H 416.075 4.79502 4.78628 0
M  V30 4265 H 417.018 5.96728 3.8121 0
M  V30 4266 H 417.426 4.2272 3.74123 0
M  V30 4267 N 416.824 -0.551391 1.4764 0
M  V30 4268 C 417.754 -1.66757 1.63445 0
M  V30 4269 C 418.735 -1.63077 0.483742 0
M  V30 4270 O 419.92 -1.80607 0.71377 0
M  V30 4271 C 417.05 -3.05387 1.65396 0
M  V30 4272 C 416.004 -3.23918 2.79752 0
M  V30 4273 C 415.33 -4.63393 2.66779 0
M  V30 4274 C 416.63 -3.08735 4.21284 0
M  V30 4275 H 418.324 -1.53786 2.56886 0
M  V30 4276 H 415.87 -0.738415 1.23626 0
M  V30 4277 H 417.823 -3.83325 1.75043 0
M  V30 4278 H 416.547 -3.19332 0.685195 0
M  V30 4279 H 415.206 -2.48391 2.69625 0
M  V30 4280 H 414.854 -4.74144 1.67918 0
M  V30 4281 H 414.554 -4.7674 3.43501 0
M  V30 4282 H 416.078 -5.43458 2.78364 0
M  V30 4283 H 417.492 -3.76484 4.32357 0
M  V30 4284 H 415.889 -3.33588 4.98838 0
M  V30 4285 H 416.959 -2.0541 4.39243 0
M  V30 4286 N 418.302 -1.35869 -0.798587 0
M  V30 4287 C 419.549 -1.29588 -1.55606 0
M  V30 4288 C 419.877 0.127456 -1.94082 0
M  V30 4289 O 419.132 1.09461 -1.62225 0
M  V30 4290 C 419.431 -2.1556 -2.85077 0
M  V30 4291 C 419.097 -3.6424 -2.65781 0
M  V30 4292 C 417.759 -4.04766 -2.60227 0
M  V30 4293 C 420.111 -4.58547 -2.47758 0
M  V30 4294 C 417.439 -5.37753 -2.34603 0
M  V30 4295 C 419.791 -5.91742 -2.23662 0
M  V30 4296 C 418.455 -6.31402 -2.16534 0
M  V30 4297 H 417.725 -0.474197 -0.569402 0
M  V30 4298 H 420.372 -1.67839 -0.922086 0
M  V30 4299 H 418.677 -1.70216 -3.52893 0
M  V30 4300 H 420.374 -2.08031 -3.42818 0
M  V30 4301 H 416.964 -3.32086 -2.70956 0
M  V30 4302 H 421.148 -4.28117 -2.51056 0
M  V30 4303 H 416.404 -5.67474 -2.2756 0
M  V30 4304 H 420.578 -6.6439 -2.08708 0
M  V30 4305 H 418.205 -7.34381 -1.96441 0
M  V30 4306 N 419.78 1.02168 -1.19998 0
M  V30 4307 C 421.028 1.75338 -1.00504 0
M  V30 4308 C 421.349 1.89387 0.464506 0
M  V30 4309 O 420.619 1.43268 1.33608 0
M  V30 4310 H 419.199 0.649564 -0.368885 0
M  V30 4311 H 421.861 1.23205 -1.51018 0
M  V30 4312 H 420.957 2.75892 -1.45912 0
M  V30 4313 N 421.258 1.00505 1.21394 0
M  V30 4314 C 422.506 0.686415 1.90086 0
M  V30 4315 C 422.827 -0.785264 1.7849 0
M  V30 4316 O 422.097 -1.56387 1.17983 0
M  V30 4317 H 420.677 0.2509 0.703604 0
M  V30 4318 H 423.339 1.27417 1.47482 0
M  V30 4319 H 422.435 0.959621 2.96981 0
M  V30 4320 N 422.737 -1.36956 0.779787 0
M  V30 4321 C 423.985 -1.99097 0.347079 0
M  V30 4322 C 424.306 -1.62206 -1.08232 0
M  V30 4323 O 423.576 -0.891373 -1.74446 0
M  V30 4324 H 422.156 -0.736409 0.125342 0
M  V30 4325 H 424.818 -1.67308 0.999696 0
M  V30 4326 H 423.914 -3.09107 0.431162 0
M  V30 4327 N 424.215 -0.530993 -1.48385 0
M  V30 4328 C 425.147 0.268353 -2.27624 0
M  V30 4329 C 426.16 0.903525 -1.35426 0
M  V30 4330 O 427.349 0.781796 -1.60469 0
M  V30 4331 C 424.449 1.39535 -3.08842 0
M  V30 4332 C 423.622 0.861913 -4.28824 0
M  V30 4333 C 422.681 1.87016 -4.91845 0
M  V30 4334 O 421.707 1.4267 -5.5103 0
M  V30 4335 N 422.909 3.20238 -4.84178 0
M  V30 4336 H 425.674 -0.41123 -2.96865 0
M  V30 4337 H 423.235 -0.365387 -1.57723 0
M  V30 4338 H 425.227 2.06803 -3.47871 0
M  V30 4339 H 423.797 1.97859 -2.42014 0
M  V30 4340 H 423.017 0.0132126 -3.94198 0
M  V30 4341 H 424.305 0.484415 -5.06489 0
M  V30 4342 H 423.703 3.58932 -4.37246 0
M  V30 4343 H 422.26 3.83136 -5.27305 0
M  V30 4344 N 425.693 1.55336 -0.266172 0
M  V30 4345 C 426.603 2.2583 0.635458 0
M  V30 4346 C 427.619 1.28106 1.17749 0
M  V30 4347 O 428.795 1.61024 1.20968 0
M  V30 4348 C 425.86 2.95879 1.80712 0
M  V30 4349 C 424.921 4.09059 1.30265 0
M  V30 4350 C 424.154 4.75759 2.41846 0
M  V30 4351 O 424.377 4.41622 3.61007 0
M  V30 4352 O 423.311 5.63888 2.1051 0
M  V30 4353 H 427.137 3.03631 0.0646693 0
M  V30 4354 H 424.722 1.49361 -0.0339177 0
M  V30 4355 H 426.604 3.39932 2.49047 0
M  V30 4356 H 425.279 2.21002 2.36516 0
M  V30 4357 H 424.186 3.69482 0.586019 0
M  V30 4358 H 425.519 4.85811 0.790458 0
M  V30 4359 N 427.171 -0.0066808 1.57599 0
M  V30 4360 C 428.587 -0.36267 1.55425 0
M  V30 4361 C 428.787 -1.75209 0.995187 0
M  V30 4362 O 427.843 -2.44616 0.626058 0
M  V30 4363 C 429.156 -0.244017 2.99708 0
M  V30 4364 C 430.704 -0.319451 3.11366 0
M  V30 4365 C 431.179 -0.229998 4.57422 0
M  V30 4366 N 432.67 -0.288105 4.62303 0
M  V30 4367 C 433.405 -0.242127 5.72889 0
M  V30 4368 N 432.901 -0.147133 6.92644 0
M  V30 4369 N 434.694 -0.293502 5.61333 0
M  V30 4370 H 426.845 0.902314 1.92281 0
M  V30 4371 H 429.108 0.34525 0.882896 0
M  V30 4372 H 428.814 0.711678 3.44424 0
M  V30 4373 H 428.688 -1.02877 3.629 0
M  V30 4374 H 431.075 -1.26559 2.66584 0
M  V30 4375 H 431.156 0.495055 2.50964 0
M  V30 4376 H 430.8 0.712566 5.02877 0
M  V30 4377 H 430.73 -1.0629 5.15761 0
M  V30 4378 H 433.221 -0.363126 3.76151 0
M  V30 4379 H 433.534 -0.117763 7.7271 0
M  V30 4380 H 431.879 -0.112857 6.94908 0
M  V30 4381 H 435.07 -0.365864 4.66668 0
M  V30 4382 H 435.243 -0.254204 6.47501 0
M  V30 4383 N 428.649 -1.55105 -0.279332 0
M  V30 4384 C 429.597 -1.88333 -1.36505 0
M  V30 4385 C 430.591 -0.759043 -1.51443 0
M  V30 4386 O 431.797 -0.943312 -1.53302 0
M  V30 4387 H 428.172 -0.59766 -0.456406 0
M  V30 4388 H 430.143 -2.79041 -1.05728 0
M  V30 4389 C 428.892 -2.16628 -2.7197 0
M  V30 4390 H 428.215 -3.02624 -2.61264 0
M  V30 4391 H 429.655 -2.43803 -3.46895 0
M  V30 4392 C 428.114 -0.971807 -3.22579 0
M  V30 4393 O 428.644 -0.203228 -4.01186 0
M  V30 4394 N 426.85 -0.771238 -2.80179 0
M  V30 4395 H 426.397 -1.39792 -2.1637 0
M  V30 4396 H 426.355 0.0263667 -3.14389 0
M  V30 4397 N 430.127 0.543554 -1.4793 0
M  V30 4398 C 431.374 1.30008 -1.55255 0
M  V30 4399 C 431.702 1.93245 -0.220612 0
M  V30 4400 O 430.957 1.79141 0.787843 0
M  V30 4401 C 431.256 2.42078 -2.62932 0
M  V30 4402 C 430.922 1.96583 -4.0579 0
M  V30 4403 C 429.584 1.83893 -4.44676 0
M  V30 4404 C 431.936 1.62034 -4.95373 0
M  V30 4405 C 429.264 1.34969 -5.70964 0
M  V30 4406 C 431.616 1.14577 -6.22137 0
M  V30 4407 C 430.28 1.00493 -6.59892 0
M  V30 4408 H 429.55 0.475735 -0.568117 0
M  V30 4409 H 432.197 0.608075 -1.81589 0
M  V30 4410 H 430.502 3.16892 -2.30406 0
M  V30 4411 H 432.199 3.00236 -2.65818 0
M  V30 4412 H 428.789 2.07407 -3.75074 0
M  V30 4413 H 432.973 1.70705 -4.66019 0
M  V30 4414 H 428.229 1.2274 -5.98953 0
M  V30 4415 H 432.403 0.869109 -6.90955 0
M  V30 4416 H 430.03 0.623624 -7.57638 0
M  V30 4417 N 431.605 1.3629 0.791371 0
M  V30 4418 C 433.021 1.16661 1.08914 0
M  V30 4419 C 433.221 -0.0106266 2.01497 0
M  V30 4420 O 432.277 -0.676596 2.43266 0
M  V30 4421 C 433.59 2.47656 1.70549 0
M  V30 4422 C 435.138 2.54002 1.82899 0
M  V30 4423 C 435.613 3.85078 2.47949 0
M  V30 4424 N 437.104 3.86413 2.5542 0
M  V30 4425 C 437.839 4.84572 3.06557 0
M  V30 4426 N 437.335 5.93124 3.58016 0
M  V30 4427 N 439.128 4.71994 3.05251 0
M  V30 4428 H 431.279 2.11668 0.176238 0
M  V30 4429 H 433.542 0.937486 0.140796 0
M  V30 4430 H 433.248 3.34059 1.09989 0
M  V30 4431 H 433.122 2.63319 2.70079 0
M  V30 4432 H 435.509 1.68018 2.42598 0
M  V30 4433 H 435.59 2.42239 0.821808 0
M  V30 4434 H 435.234 4.71467 1.88895 0
M  V30 4435 H 435.164 3.94135 3.49235 0
M  V30 4436 H 437.655 3.07988 2.18979 0
M  V30 4437 H 437.968 6.63999 3.95381 0
M  V30 4438 H 436.313 5.96796 3.56173 0
M  V30 4439 H 439.504 3.86321 2.64336 0
M  V30 4440 H 439.677 5.48653 3.44796 0
M  V30 4441 N 433.083 -1.0153 1.20538 0
M  V30 4442 C 434.494 -1.56598 1.01657 0
M  V30 4443 C 434.845 -1.91505 -0.426668 0
M  V30 4444 O 433.97 -1.72375 -1.30827 0
M  V30 4445 C 434.565 -2.84542 1.83905 0
M  V30 4446 C 433.124 -3.36133 1.69386 0
M  V30 4447 C 432.271 -2.09427 1.81757 0
M  V30 4448 H 435.222 -0.838974 1.34711 0
M  V30 4449 H 435.243 -3.56004 1.34319 0
M  V30 4450 H 434.755 -2.59105 2.8894 0
M  V30 4451 H 432.856 -3.66528 0.669933 0
M  V30 4452 H 432.969 -4.08248 2.50739 0
M  V30 4453 H 431.333 -2.21941 1.24957 0
M  V30 4454 H 432.116 -1.86414 2.88279 0
M  V30 4455 N 434.561 -1.01147 -1.20859 0
M  V30 4456 C 435.809 -0.696486 -1.89719 0
M  V30 4457 C 436.13 0.775788 -1.78904 0
M  V30 4458 O 435.4 1.55759 -1.18811 0
M  V30 4459 H 433.98 -0.254628 -0.702263 0
M  V30 4460 H 436.642 -1.28197 -1.46804 0
M  V30 4461 H 435.738 -0.975357 -2.96468 0
M  V30 4462 N 436.039 1.36541 -0.78704 0
M  V30 4463 C 437.267 2.03561 -0.370199 0
M  V30 4464 C 437.682 1.59347 1.01263 0
M  V30 4465 O 437.039 0.781781 1.64907 0
M  V30 4466 C 437.09 3.59033 -0.421614 0
M  V30 4467 O 436.811 4.01634 -1.7499 0
M  V30 4468 C 438.312 4.433 0.00489763 0
M  V30 4469 H 435.532 0.653346 -0.152904 0
M  V30 4470 H 438.076 1.74566 -1.06522 0
M  V30 4471 H 436.231 3.86746 0.224971 0
M  V30 4472 H 436.645 4.96217 -1.69909 0
M  V30 4473 H 438.119 5.51939 -0.0822184 0
M  V30 4474 H 438.596 4.26285 1.05723 0
M  V30 4475 H 439.202 4.20843 -0.614085 0
M  V30 4476 N 437.518 0.538854 1.48102 0
M  V30 4477 C 438.428 -0.222648 2.33541 0
M  V30 4478 C 439.444 -0.930225 1.47047 0
M  V30 4479 O 440.62 -0.903211 1.80011 0
M  V30 4480 C 437.685 -1.25064 3.23357 0
M  V30 4481 C 436.746 -0.552469 4.2573 0
M  V30 4482 C 435.979 -1.53149 5.11254 0
M  V30 4483 O 436.202 -2.76487 4.9891 0
M  V30 4484 O 435.136 -1.06602 5.92385 0
M  V30 4485 H 438.962 0.477707 2.99919 0
M  V30 4486 H 436.547 0.299669 1.46364 0
M  V30 4487 H 438.429 -1.8445 3.78888 0
M  V30 4488 H 437.104 -1.93325 2.59629 0
M  V30 4489 H 436.011 0.082114 3.7401 0
M  V30 4490 H 437.344 0.0883526 4.92121 0
M  V30 4491 N 438.996 -1.55193 0.274407 0
M  V30 4492 C 439.944 -2.23924 -0.629362 0
M  V30 4493 C 440.938 -1.23602 -1.1584 0
M  V30 4494 O 442.144 -1.41535 -1.11211 0
M  V30 4495 H 438.519 -0.718637 -0.221507 0
M  V30 4496 H 440.49 -2.98388 -0.0268322 0
M  V30 4497 C 439.239 -2.97329 -1.80252 0
M  V30 4498 H 438.562 -3.74313 -1.40462 0
M  V30 4499 H 440.002 -3.48743 -2.41152 0
M  V30 4500 C 438.461 -2.0276 -2.69054 0
M  V30 4501 O 438.991 -1.57836 -3.69392 0
M  V30 4502 N 437.197 -1.69275 -2.36208 0
M  V30 4503 H 436.744 -2.06004 -1.54661 0
M  V30 4504 H 436.702 -1.06271 -2.95895 0
M  V30 4505 N 440.474 -0.00167713 -1.576 0
M  V30 4506 C 441.702 0.693759 -1.94922 0
M  V30 4507 C 442.117 1.67215 -0.876626 0
M  V30 4508 O 441.474 1.81929 0.144279 0
M  V30 4509 C 441.525 1.42416 -3.32265 0
M  V30 4510 O 441.246 0.485014 -4.35407 0
M  V30 4511 C 442.747 2.21395 -3.84056 0
M  V30 4512 H 439.967 0.193118 -0.642609 0
M  V30 4513 H 442.511 -0.0532952 -2.04431 0
M  V30 4514 H 440.666 2.12284 -3.24059 0
M  V30 4515 H 441.08 1.00053 -5.14868 0
M  V30 4516 H 442.554 2.67996 -4.82578 0
M  V30 4517 H 443.031 3.04142 -3.16851 0
M  V30 4518 H 443.637 1.56542 -3.95443 0
M  V30 4519 N 441.952 1.55251 0.271103 0
M  V30 4520 C 443.363 1.66635 0.842007 0
M  V30 4521 C 443.714 0.594631 1.86972 0
M  V30 4522 O 442.839 -0.263532 2.14789 0
M  V30 4523 C 443.434 3.02082 1.53401 0
M  V30 4524 C 441.993 3.15487 2.05293 0
M  V30 4525 C 441.14 2.62438 0.895631 0
M  V30 4526 H 444.091 1.58629 0.0474117 0
M  V30 4527 H 444.112 2.95176 2.40107 0
M  V30 4528 H 443.624 3.80062 0.785786 0
M  V30 4529 H 441.725 2.42284 2.83071 0
M  V30 4530 H 441.838 4.22075 2.26693 0
M  V30 4531 H 440.202 2.19644 1.28953 0
M  V30 4532 H 440.985 3.42923 0.160878 0
M  V30 4533 N 443.43 -0.535701 1.48216 0
M  V30 4534 C 444.363 -1.65726 1.56876 0
M  V30 4535 C 445.341 -1.57094 0.419542 0
M  V30 4536 O 446.525 -1.77648 0.630352 0
M  V30 4537 C 443.652 -3.04096 1.49142 0
M  V30 4538 C 442.698 -3.31105 2.68834 0
M  V30 4539 S 443.531 -3.18001 4.30854 0
M  V30 4540 C 444.687 -4.58828 4.25709 0
M  V30 4541 H 444.92 -1.58129 2.51759 0
M  V30 4542 H 442.453 -0.718218 1.36678 0
M  V30 4543 H 444.411 -3.839 1.45366 0
M  V30 4544 H 443.072 -3.09139 0.556067 0
M  V30 4545 H 442.265 -4.32033 2.59545 0
M  V30 4546 H 441.867 -2.58961 2.69843 0
M  V30 4547 H 444.159 -5.5023 3.95289 0
M  V30 4548 H 445.102 -4.73172 5.26796 0
M  V30 4549 H 445.51 -4.37883 3.56257 0
M  V30 4550 N 444.908 -1.36708 -0.784132 0
M  V30 4551 C 446.157 -1.30559 -1.53744 0
M  V30 4552 C 446.47 0.111374 -1.95283 0
M  V30 4553 O 447.676 0.29527 -2.6989 0
M  V30 4554 C 446.132 -2.29098 -2.77565 0
M  V30 4555 C 445.74 -3.76258 -2.43174 0
M  V30 4556 C 447.484 -2.31936 -3.55536 0
M  V30 4557 C 445.391 -4.6656 -3.63422 0
M  V30 4558 H 444.321 -0.48518 -0.577162 0
M  V30 4559 H 446.972 -1.62101 -0.859981 0
M  V30 4560 H 445.354 -1.90557 -3.47137 0
M  V30 4561 H 446.528 -4.23565 -1.81465 0
M  V30 4562 H 444.843 -3.76246 -1.78403 0
M  V30 4563 H 447.44 -2.9661 -4.44889 0
M  V30 4564 H 447.783 -1.3294 -3.94503 0
M  V30 4565 H 448.316 -2.6912 -2.92949 0
M  V30 4566 H 445.055 -5.66638 -3.29547 0
M  V30 4567 H 444.575 -4.23966 -4.24279 0
M  V30 4568 H 446.254 -4.8309 -4.30387 0
M  V30 4569 N 446.386 1.0089 -1.21074 0
M  V30 4570 C 447.349 2.0775 -0.968129 0
M  V30 4571 C 448.349 1.6069 0.0593445 0
M  V30 4572 O 449.539 1.73293 -0.177525 0
M  V30 4573 C 446.671 3.37794 -0.459108 0
M  V30 4574 H 447.864 2.30707 -1.9161 0
M  V30 4575 H 445.417 1.17807 -1.02719 0
M  V30 4576 H 446.152 3.20516 0.49397 0
M  V30 4577 H 445.937 3.7328 -1.20019 0
M  V30 4578 H 447.427 4.16454 -0.309099 0
M  V30 4579 N 447.864 1.01787 1.20321 0
M  V30 4580 C 449.112 0.706538 1.89347 0
M  V30 4581 C 449.433 -0.766289 1.79313 0
M  V30 4582 O 448.703 -1.55126 1.19635 0
M  V30 4583 H 447.283 0.258348 0.700903 0
M  V30 4584 H 449.945 1.28974 1.46122 0
M  V30 4585 H 449.041 0.991066 2.95946 0
M  V30 4586 N 449.342 -1.36122 0.79427 0
M  V30 4587 C 450.272 -2.32551 0.210328 0
M  V30 4588 C 451.253 -1.56884 -0.657386 0
M  V30 4589 O 452.438 -1.85014 -0.590207 0
M  V30 4590 C 449.568 -3.41128 -0.651819 0
M  V30 4591 C 448.522 -4.27842 0.116395 0
M  V30 4592 C 447.848 -5.2763 -0.86666 0
M  V30 4593 C 449.148 -5.05647 1.30837 0
M  V30 4594 H 450.842 -2.81636 1.01594 0
M  V30 4595 H 448.388 -1.35407 0.489981 0
M  V30 4596 H 450.341 -4.07581 -1.07031 0
M  V30 4597 H 449.065 -2.90622 -1.49019 0
M  V30 4598 H 447.724 -3.62952 0.515915 0
M  V30 4599 H 447.372 -4.73395 -1.70019 0
M  V30 4600 H 447.072 -5.86514 -0.35705 0
M  V30 4601 H 448.596 -5.96955 -1.28361 0
M  V30 4602 H 450.01 -5.65113 0.965393 0
M  V30 4603 H 448.407 -5.73967 1.75161 0
M  V30 4604 H 449.477 -4.37006 2.10128 0
M  V30 4605 N 450.82 -0.546701 -1.47814 0
M  V30 4606 C 452.068 -0.0187037 -2.02091 0
M  V30 4607 C 452.389 1.33168 -1.42447 0
M  V30 4608 O 451.659 1.86619 -0.595839 0
M  V30 4609 H 450.239 -0.00392531 -0.74699 0
M  V30 4610 H 452.901 -0.714327 -1.81338 0
M  V30 4611 H 451.997 0.0772219 -3.12004 0
M  V30 4612 N 452.299 1.55045 -0.282633 0
M  V30 4613 C 453.246 2.22822 0.601566 0
M  V30 4614 C 454.216 1.20431 1.14392 0
M  V30 4615 O 455.401 1.48996 1.19184 0
M  V30 4616 C 452.541 2.95873 1.77632 0
M  V30 4617 C 451.654 4.12999 1.26711 0
M  V30 4618 C 450.789 4.73676 2.40426 0
M  V30 4619 C 449.828 5.82981 1.86545 0
M  V30 4620 N 448.965 6.3769 2.93762 0
M  V30 4621 H 453.805 2.97995 0.0169528 0
M  V30 4622 H 451.342 1.471 -0.00339964 0
M  V30 4623 H 453.3 3.36447 2.46697 0
M  V30 4624 H 451.93 2.2311 2.33285 0
M  V30 4625 H 450.982 3.77494 0.469314 0
M  V30 4626 H 452.294 4.91803 0.832518 0
M  V30 4627 H 451.448 5.17008 3.17471 0
M  V30 4628 H 450.187 3.94164 2.87203 0
M  V30 4629 H 449.192 5.39092 1.07983 0
M  V30 4630 H 450.417 6.64366 1.40694 0
M  V30 4631 H 448.363 5.61069 3.39908 0
M  V30 4632 H 448.28 7.11788 2.54744 0
M  V30 4633 H 449.548 6.8568 3.7076 0
M  V30 4634 N 453.777 0.010035 1.57597 0
M  V30 4635 C 454.74 -0.963029 2.07986 0
M  V30 4636 C 455.74 -1.26619 0.991173 0
M  V30 4637 O 456.93 -1.2097 1.25347 0
M  V30 4638 C 454.062 -2.2851 2.52974 0
M  V30 4639 H 455.255 -0.526971 2.95234 0
M  V30 4640 H 452.808 -0.237639 1.54483 0
M  V30 4641 H 453.543 -2.76784 1.69 0
M  V30 4642 H 453.328 -2.07824 3.32493 0
M  V30 4643 H 454.818 -2.98294 2.9225 0
M  V30 4644 N 455.255 -1.55392 -0.262866 0
M  V30 4645 C 456.218 -1.88181 -1.30846 0
M  V30 4646 C 457.218 -0.757079 -1.41862 0
M  V30 4647 O 458.408 -1.02519 -1.40838 0
M  V30 4648 C 455.54 -2.09609 -2.68844 0
M  V30 4649 H 456.733 -2.81659 -1.02997 0
M  V30 4650 H 454.286 -1.48039 -0.501414 0
M  V30 4651 H 455.021 -1.18547 -3.01856 0
M  V30 4652 H 454.806 -2.91508 -2.62231 0
M  V30 4653 H 456.296 -2.36215 -3.44372 0
M  V30 4654 N 456.733 0.527833 -1.48498 0
M  V30 4655 C 457.643 1.65907 -1.65867 0
M  V30 4656 C 458.659 1.6537 -0.541192 0
M  V30 4657 O 459.835 1.84282 -0.812534 0
M  V30 4658 C 456.9 3.02364 -1.69637 0
M  V30 4659 C 455.961 3.1374 -2.93028 0
M  V30 4660 C 455.194 4.43688 -2.96609 0
M  V30 4661 O 455.417 5.30913 -2.08538 0
M  V30 4662 O 454.351 4.59475 -3.88802 0
M  V30 4663 H 458.177 1.5419 -2.61647 0
M  V30 4664 H 455.762 0.701163 -1.31924 0
M  V30 4665 H 457.644 3.83515 -1.74625 0
M  V30 4666 H 456.319 3.14401 -0.770312 0
M  V30 4667 H 455.226 2.31877 -2.93571 0
M  V30 4668 H 456.559 3.06621 -3.85026 0
M  V30 4669 N 458.211 1.37122 0.776871 0
M  V30 4670 C 459.141 1.35164 1.90402 0
M  V30 4671 C 460.122 0.221069 1.68657 0
M  V30 4672 O 461.307 0.420642 1.8959 0
M  V30 4673 C 458.437 1.15274 3.27611 0
M  V30 4674 C 457.391 2.25289 3.63908 0
M  V30 4675 C 456.717 1.90527 4.99603 0
M  V30 4676 C 458.017 3.67446 3.71188 0
M  V30 4677 H 459.711 2.29482 1.92297 0
M  V30 4678 H 457.257 1.10465 0.923773 0
M  V30 4679 H 459.21 1.12536 4.06096 0
M  V30 4680 H 457.934 0.174102 3.26136 0
M  V30 4681 H 456.593 2.27174 2.87728 0
M  V30 4682 H 456.241 0.91206 4.94662 0
M  V30 4683 H 455.941 2.64193 5.24858 0
M  V30 4684 H 457.465 1.89367 5.80493 0
M  V30 4685 H 458.879 3.67719 4.39836 0
M  V30 4686 H 457.276 4.40123 4.07936 0
M  V30 4687 H 458.346 4.01443 2.71977 0
M  V30 4688 N 459.689 -1.00246 1.21608 0
M  V30 4689 C 460.935 -1.74319 1.03638 0
M  V30 4690 C 461.268 -1.89408 -0.428749 0
M  V30 4691 O 460.543 -1.43026 -1.3181 0
M  V30 4692 C 460.826 -3.15431 1.73711 0
M  V30 4693 C 460.679 -3.08049 3.27759 0
M  V30 4694 C 461.998 -4.14407 1.48173 0
M  V30 4695 H 459.117 -0.632741 0.377899 0
M  V30 4696 H 461.759 -1.16853 1.49818 0
M  V30 4697 H 459.909 -3.64493 1.34452 0
M  V30 4698 H 461.581 -2.66681 3.76403 0
M  V30 4699 H 459.824 -2.45088 3.57931 0
M  V30 4700 H 460.495 -4.07862 3.71958 0
M  V30 4701 H 462.971 -3.74061 1.82258 0
M  V30 4702 H 461.847 -5.11279 1.99713 0
M  V30 4703 H 462.108 -4.40174 0.412273 0
M  V30 4704 N 461.167 -1.02423 -1.1978 0
M  V30 4705 C 462.395 -0.737456 -1.93311 0
M  V30 4706 C 462.81 0.703023 -1.75223 0
M  V30 4707 O 462.167 1.47761 -1.07112 0
M  V30 4708 C 462.218 -1.0733 -3.45199 0
M  V30 4709 O 461.939 -2.4572 -3.62702 0
M  V30 4710 C 463.44 -0.80866 -4.35862 0
M  V30 4711 H 460.66 -0.2702 -0.614193 0
M  V30 4712 H 463.204 -1.36747 -1.52054 0
M  V30 4713 H 461.359 -0.488545 -3.84307 0
M  V30 4714 H 461.773 -2.58081 -4.56612 0
M  V30 4715 H 463.247 -1.09365 -5.41057 0
M  V30 4716 H 463.724 0.257025 -4.38447 0
M  V30 4717 H 464.33 -1.37592 -4.02428 0
M  V30 4718 N 462.645 1.35699 -0.801477 0
M  V30 4719 C 463.577 2.28598 -0.166028 0
M  V30 4720 C 464.59 1.50044 0.631721 0
M  V30 4721 O 465.779 1.72339 0.464921 0
M  V30 4722 C 462.879 3.29625 0.787451 0
M  V30 4723 C 462.052 4.37384 0.037171 0
M  V30 4724 C 461.111 5.183 0.908375 0
M  V30 4725 O 460.137 5.68053 0.361189 0
M  V30 4726 N 461.339 5.35912 2.23112 0
M  V30 4727 H 464.104 2.83771 -0.964071 0
M  V30 4728 H 461.665 1.47994 -0.656469 0
M  V30 4729 H 463.657 3.80648 1.37439 0
M  V30 4730 H 462.227 2.75004 1.48632 0
M  V30 4731 H 461.447 3.87364 -0.730935 0
M  V30 4732 H 462.735 5.0653 -0.480109 0
M  V30 4733 H 462.133 4.97125 2.69968 0
M  V30 4734 H 460.69 5.90133 2.76741 0
M  V30 4735 N 464.123 0.554532 1.47522 0
M  V30 4736 C 465.071 -0.207765 2.3167 0
M  V30 4737 C 466.065 -0.911914 1.4276 0
M  V30 4738 O 467.271 -0.833504 1.59539 0
M  V30 4739 H 463.646 -0.0858726 0.747081 0
M  V30 4740 H 465.617 0.521178 2.93813 0
M  V30 4741 C 464.366 -1.2263 3.25357 0
M  V30 4742 H 463.689 -0.693887 3.93732 0
M  V30 4743 H 465.129 -1.73062 3.87073 0
M  V30 4744 C 463.588 -2.27278 2.4869 0
M  V30 4745 O 464.118 -3.34156 2.22941 0
M  V30 4746 N 462.324 -2.01134 2.09746 0
M  V30 4747 H 461.871 -1.14232 2.30887 0
M  V30 4748 H 461.829 -2.71369 1.58765 0
M  V30 4749 N 465.601 -1.54893 0.290851 0
M  V30 4750 C 466.841 -2.01842 -0.322388 0
M  V30 4751 C 467.205 -1.17477 -1.51865 0
M  V30 4752 O 468.406 -1.54077 -2.20258 0
M  V30 4753 C 466.677 -3.50874 -0.679844 0
M  V30 4754 S 468.236 -4.19796 -1.27739 0
M  V30 4755 H 465.054 -0.704005 -0.0994866 0
M  V30 4756 H 467.656 -1.91015 0.416358 0
M  V30 4757 H 466.36 -4.09915 0.199435 0
M  V30 4758 H 465.891 -3.65717 -1.44964 0
M  V30 4759 H 467.906 -4.24729 -2.56554 0
M  V30 4760 N 467.08 -0.0183926 -1.57589 0
M  V30 4761 C 467.99 0.982943 -2.13015 0
M  V30 4762 C 469.006 1.36443 -1.07979 0
M  V30 4763 O 470.182 1.44802 -1.3998 0
M  V30 4764 C 467.247 2.25024 -2.63752 0
M  V30 4765 C 466.308 1.93018 -3.83461 0
M  V30 4766 C 465.541 3.13706 -4.31769 0
M  V30 4767 O 465.764 4.2601 -3.79305 0
M  V30 4768 O 464.698 2.96629 -5.23732 0
M  V30 4769 H 468.524 0.541709 -2.9883 0
M  V30 4770 H 466.109 0.201565 -1.48034 0
M  V30 4771 H 467.991 2.99441 -2.96502 0
M  V30 4772 H 466.666 2.68349 -1.81026 0
M  V30 4773 H 465.573 1.16019 -3.55655 0
M  V30 4774 H 466.906 1.54516 -4.67317 0
M  V30 4775 N 468.558 1.5553 0.254621 0
M  V30 4776 C 469.521 1.88872 1.29846 0
M  V30 4777 C 470.521 0.764591 1.41459 0
M  V30 4778 O 471.711 1.03265 1.40293 0
M  V30 4779 C 468.843 2.11032 2.67728 0
M  V30 4780 H 470.036 2.82201 1.01502 0
M  V30 4781 H 467.589 1.48303 0.493556 0
M  V30 4782 H 468.324 1.20146 3.01223 0
M  V30 4783 H 468.109 2.92895 2.60682 0
M  V30 4784 H 469.599 2.38038 3.43115 0
M  V30 4785 N 470.036 -0.519951 1.48776 0
M  V30 4786 C 471.266 -1.29783 1.60748 0
M  V30 4787 C 471.674 -1.87253 0.27072 0
M  V30 4788 O 471.017 -1.67628 -0.751438 0
M  V30 4789 C 471.079 -2.47984 2.60277 0
M  V30 4790 C 470.743 -2.11526 4.051 0
M  V30 4791 C 471.74 -1.66608 4.92481 0
M  V30 4792 C 469.425 -2.21742 4.50706 0
M  V30 4793 C 471.419 -1.32384 6.23501 0
M  V30 4794 C 469.106 -1.87129 5.81744 0
M  V30 4795 C 470.104 -1.42523 6.67964 0
M  V30 4796 O 469.792 -1.0837 7.96562 0
M  V30 4797 H 469.524 -0.400562 0.544542 0
M  V30 4798 H 472.078 -0.632879 1.95407 0
M  V30 4799 H 470.308 -3.17493 2.2076 0
M  V30 4800 H 471.997 -3.10036 2.61978 0
M  V30 4801 H 472.763 -1.58178 4.58481 0
M  V30 4802 H 468.642 -2.55415 3.83776 0
M  V30 4803 H 472.186 -0.974949 6.90754 0
M  V30 4804 H 468.083 -1.95204 6.15277 0
M  V30 4805 H 468.851 -1.21681 8.09405 0
M  V30 4806 N 471.514 -1.37532 -0.769588 0
M  V30 4807 C 472.424 -1.35668 -1.91393 0
M  V30 4808 C 473.44 -0.255954 -1.72107 0
M  V30 4809 O 474.616 -0.491704 -1.95305 0
M  V30 4810 C 471.681 -1.16481 -3.26547 0
M  V30 4811 C 470.742 -2.36212 -3.58472 0
M  V30 4812 C 469.975 -2.17932 -4.87177 0
M  V30 4813 O 470.198 -1.1647 -5.58382 0
M  V30 4814 O 469.132 -3.06167 -5.18214 0
M  V30 4815 H 472.958 -2.32055 -1.95918 0
M  V30 4816 H 470.543 -1.18284 -0.912641 0
M  V30 4817 H 472.425 -1.07778 -4.07384 0
M  V30 4818 H 471.1 -0.231687 -3.2287 0
M  V30 4819 H 470.007 -2.50488 -2.77861 0
M  V30 4820 H 471.34 -3.281 -3.66894 0
M  V30 4821 N 472.992 0.995999 -1.22138 0
M  V30 4822 C 473.955 2.06711 -0.990109 0
M  V30 4823 C 474.955 1.60744 0.0422978 0
M  V30 4824 O 476.145 1.73095 -0.195895 0
M  V30 4825 C 473.277 3.37288 -0.49491 0
M  V30 4826 H 474.47 2.28661 -1.94047 0
M  V30 4827 H 472.023 1.16711 -1.03963 0
M  V30 4828 H 472.758 3.21022 0.459948 0
M  V30 4829 H 472.543 3.71986 -1.23971 0
M  V30 4830 H 474.033 4.16103 -0.353253 0
M  V30 4831 N 474.47 1.03057 1.19235 0
M  V30 4832 C 475.42 0.583386 2.2041 0
M  V30 4833 C 476.404 -0.368776 1.56617 0
M  V30 4834 O 477.596 -0.189471 1.75983 0
M  V30 4835 C 474.725 -0.0626534 3.43243 0
M  V30 4836 C 473.811 0.91205 4.14177 0
M  V30 4837 N 474.202 2.07514 4.61272 0
M  V30 4838 C 472.5 0.735859 4.39888 0
M  V30 4839 C 473.201 2.69003 5.15764 0
M  V30 4840 N 472.177 1.96954 5.06666 0
M  V30 4841 H 475.979 1.46988 2.54503 0
M  V30 4842 H 473.493 0.897785 1.35328 0
M  V30 4843 H 475.49 -0.400653 4.1497 0
M  V30 4844 H 474.15 -0.944813 3.1065 0
M  V30 4845 H 475.161 2.45448 4.56043 0
M  V30 4846 H 471.838 -0.0970656 4.17387 0
M  V30 4847 H 473.228 3.67514 5.6248 0
M  V30 4848 N 475.948 -1.35272 0.808662 0
M  V30 4849 C 476.881 -2.27595 0.165994 0
M  V30 4850 C 477.859 -1.48189 -0.669241 0
M  V30 4851 O 479.043 -1.77444 -0.636073 0
M  V30 4852 C 476.17 -3.29843 -0.769505 0
M  V30 4853 C 475.216 -4.26498 -0.0136267 0
M  V30 4854 S 476.049 -5.18878 1.32384 0
M  V30 4855 C 477.205 -6.24666 0.392838 0
M  V30 4856 H 477.438 -2.81755 0.948756 0
M  V30 4857 H 474.971 -1.42103 0.603828 0
M  V30 4858 H 476.929 -3.89247 -1.30374 0
M  V30 4859 H 475.59 -2.74558 -1.52567 0
M  V30 4860 H 474.783 -4.98769 -0.724227 0
M  V30 4861 H 474.385 -3.71274 0.450713 0
M  V30 4862 H 476.677 -6.7619 -0.4211 0
M  V30 4863 H 477.62 -6.99741 1.0848 0
M  V30 4864 H 478.028 -5.64499 -0.0123908 0
M  V30 4865 N 477.426 -0.562348 -1.47226 0
M  V30 4866 C 478.842 -0.222492 -1.58042 0
M  V30 4867 C 479.042 1.27505 -1.56028 0
M  V30 4868 O 478.098 2.05555 -1.46641 0
M  V30 4869 C 479.411 -0.853694 -2.88327 0
M  V30 4870 C 480.959 -0.825397 -3.01921 0
M  V30 4871 C 481.434 -1.43576 -4.34914 0
M  V30 4872 N 482.925 -1.39918 -4.41562 0
M  V30 4873 C 483.66 -1.84103 -5.43041 0
M  V30 4874 N 483.156 -2.36167 -6.51304 0
M  V30 4875 N 484.949 -1.75142 -5.34118 0
M  V30 4876 H 477.1 -1.53525 -1.46778 0
M  V30 4877 H 479.363 -0.640527 -0.698877 0
M  V30 4878 H 479.069 -1.90635 -2.95552 0
M  V30 4879 H 478.943 -0.34977 -3.75575 0
M  V30 4880 H 481.33 0.218583 -2.94289 0
M  V30 4881 H 481.411 -1.36713 -2.16202 0
M  V30 4882 H 481.055 -2.47884 -4.43301 0
M  V30 4883 H 480.985 -0.869427 -5.19373 0
M  V30 4884 H 483.476 -1.0184 -3.63919 0
M  V30 4885 H 483.789 -2.67793 -7.24919 0
M  V30 4886 H 482.134 -2.40181 -6.52179 0
M  V30 4887 H 485.325 -1.34241 -4.48439 0
M  V30 4888 H 485.498 -2.09895 -6.13065 0
M  V30 4889 N 478.904 1.54736 -0.299062 0
M  V30 4890 C 480.181 1.92187 0.363802 0
M  V30 4891 C 480.561 1.22607 1.71845 0
M  V30 4892 O 479.909 0.361141 2.25628 0
M  V30 4893 C 480.119 3.45678 0.480377 0
M  V30 4894 C 481.467 4.17885 0.752147 0
M  V30 4895 O 482.491 3.51702 0.564264 0
M  V30 4896 O 481.35 5.35048 1.11294 0
M  V30 4897 H 478.444 0.801681 0.203066 0
M  V30 4898 H 480.99 1.66115 -0.346978 0
M  V30 4899 H 479.762 3.88443 -0.471999 0
M  V30 4900 H 479.385 3.77779 1.2397 0
M  V30 4901 N 480.382 0.0267497 1.57577 0
M  V30 4902 C 481.628 -0.653371 1.91987 0
M  V30 4903 C 481.961 -1.71915 0.903263 0
M  V30 4904 O 481.236 -1.94358 -0.0743387 0
M  V30 4905 C 481.519 -1.272 3.36886 0
M  V30 4906 C 481.372 -0.215938 4.49281 0
M  V30 4907 C 482.691 -2.19069 3.81703 0
M  V30 4908 H 479.81 -0.236047 0.698177 0
M  V30 4909 H 482.452 0.0835236 1.89816 0
M  V30 4910 H 480.602 -1.90005 3.38866 0
M  V30 4911 H 482.274 0.41449 4.59434 0
M  V30 4912 H 480.517 0.458855 4.31366 0
M  V30 4913 H 481.188 -0.688347 5.47691 0
M  V30 4914 H 483.664 -1.66253 3.81444 0
M  V30 4915 H 482.54 -2.59307 4.83788 0
M  V30 4916 H 482.801 -3.08087 3.17072 0
M  V30 4917 N 481.861 -1.55662 -0.24637 0
M  V30 4918 C 483.277 -1.48098 -0.594907 0
M  V30 4919 C 483.477 -0.717044 -1.8831 0
M  V30 4920 O 482.533 -0.246618 -2.51293 0
M  V30 4921 C 483.846 -2.92507 -0.697146 0
M  V30 4922 C 485.394 -3.02881 -0.789436 0
M  V30 4923 C 485.869 -4.48598 -0.923232 0
M  V30 4924 N 487.36 -4.52538 -0.988088 0
M  V30 4925 C 488.095 -5.62536 -1.11089 0
M  V30 4926 N 487.591 -6.82342 -1.19919 0
M  V30 4927 N 489.384 -5.50334 -1.14408 0
M  V30 4928 H 481.535 -2.0377 0.599278 0
M  V30 4929 H 483.798 -0.925145 0.20691 0
M  V30 4930 H 483.504 -3.51242 0.179396 0
M  V30 4931 H 483.378 -3.43024 -1.5689 0
M  V30 4932 H 485.765 -2.44226 -1.65643 0
M  V30 4933 H 485.846 -2.55574 0.107482 0
M  V30 4934 H 485.49 -5.07864 -0.0607927 0
M  V30 4935 H 485.42 -4.93587 -1.8352 0
M  V30 4936 H 487.911 -3.66248 -0.931167 0
M  V30 4937 H 488.224 -7.61924 -1.29197 0
M  V30 4938 H 486.569 -6.85102 -1.16876 0
M  V30 4939 H 489.76 -4.5567 -1.07158 0
M  V30 4940 H 489.933 -6.36096 -1.23634 0
M  V30 4941 N 483.339 0.512053 -1.4905 0
M  V30 4942 C 484.616 1.27337 -1.48474 0
M  V30 4943 C 484.996 2.1009 -0.206301 0
M  V30 4944 O 484.344 2.136 0.811609 0
M  V30 4945 C 484.554 2.13954 -2.75726 0
M  V30 4946 C 485.902 2.73507 -3.24776 0
M  V30 4947 O 486.926 2.24229 -2.76767 0
M  V30 4948 O 485.785 3.63186 -4.08361 0
M  V30 4949 H 482.879 0.575652 -0.593762 0
M  V30 4950 H 485.425 0.527232 -1.61302 0
M  V30 4951 H 484.197 1.52709 -3.60272 0
M  V30 4952 H 483.82 2.95782 -2.65705 0
M  V30 4953 N 484.817 1.37938 0.762283 0
M  V30 4954 C 486.047 1.36685 1.54922 0
M  V30 4955 C 486.455 -0.0474099 1.89141 0
M  V30 4956 O 485.798 -1.02213 1.52638 0
M  V30 4957 C 485.86 2.14963 2.88152 0
M  V30 4958 C 485.524 3.6385 2.76518 0
M  V30 4959 C 486.521 4.57531 2.46904 0
M  V30 4960 C 484.206 4.07095 2.94243 0
M  V30 4961 C 486.2 5.92436 2.35156 0
M  V30 4962 C 483.887 5.42083 2.82116 0
M  V30 4963 C 484.885 6.34567 2.52614 0
M  V30 4964 O 484.573 7.67073 2.40529 0
M  V30 4965 H 484.305 0.469586 0.486276 0
M  V30 4966 H 486.859 1.82012 0.951876 0
M  V30 4967 H 485.089 1.6434 3.50042 0
M  V30 4968 H 486.778 2.06224 3.49609 0
M  V30 4969 H 487.544 4.25428 2.32886 0
M  V30 4970 H 483.423 3.35462 3.16206 0
M  V30 4971 H 486.967 6.64591 2.12049 0
M  V30 4972 H 482.864 5.73785 2.95704 0
M  V30 4973 H 483.632 7.77499 2.55807 0
M  V30 4974 N 486.295 -0.989507 1.22664 0
M  V30 4975 C 487.225 -2.09847 1.02404 0
M  V30 4976 C 488.206 -1.70007 -0.0561303 0
M  V30 4977 O 489.391 -1.93906 0.106748 0
M  V30 4978 C 486.521 -3.41996 0.604663 0
M  V30 4979 C 485.475 -3.95699 1.63115 0
M  V30 4980 C 484.801 -5.23936 1.0675 0
M  V30 4981 C 486.101 -4.25999 3.02196 0
M  V30 4982 H 487.795 -2.27054 1.95158 0
M  V30 4983 H 485.341 -1.09111 0.939727 0
M  V30 4984 H 487.294 -4.1899 0.45002 0
M  V30 4985 H 486.018 -3.24626 -0.35855 0
M  V30 4986 H 484.677 -3.2084 1.77362 0
M  V30 4987 H 484.325 -5.02909 0.0955422 0
M  V30 4988 H 484.025 -5.60833 1.75328 0
M  V30 4989 H 485.549 -6.0356 0.924516 0
M  V30 4990 H 486.963 -4.93777 2.91303 0
M  V30 4991 H 485.36 -4.74076 3.67929 0
M  V30 4992 H 486.43 -3.33636 3.51873 0
M  V30 4993 N 487.773 -1.03688 -1.18687 0
M  V30 4994 C 488.683 -0.634908 -2.25845 0
M  V30 4995 C 489.699 0.337065 -1.70704 0
M  V30 4996 O 490.875 0.192943 -2.00474 0
M  V30 4997 C 487.94 -0.000180054 -3.467 0
M  V30 4998 C 487.001 -1.02067 -4.1699 0
M  V30 4999 C 486.234 -0.41614 -5.32075 0
M  V30 5000 O 486.457 0.778712 -5.65059 0
M  V30 5001 O 485.391 -1.14296 -5.90948 0
M  V30 5002 H 489.217 -1.52757 -2.62486 0
M  V30 5003 H 486.802 -0.807533 -1.25695 0
M  V30 5004 H 488.684 0.353342 -4.19916 0
M  V30 5005 H 487.359 0.866367 -3.11891 0
M  V30 5006 H 486.266 -1.42592 -3.45859 0
M  V30 5007 H 487.599 -1.85786 -4.5579 0
M  V30 5008 N 489.251 1.34841 -0.815825 0
M  V30 5009 C 490.161 2.33425 -0.234462 0
M  V30 5010 C 491.177 1.62295 0.627413 0
M  V30 5011 O 492.353 1.94109 0.536987 0
M  V30 5012 C 489.418 3.41471 0.599849 0
M  V30 5013 C 488.479 4.28362 -0.283596 0
M  V30 5014 C 487.712 5.31248 0.51099 0
M  V30 5015 O 487.935 5.43056 1.7449 0
M  V30 5016 O 486.869 6.01812 -0.10297 0
M  V30 5017 H 490.695 2.84962 -1.05024 0
M  V30 5018 H 488.28 1.37774 -0.577809 0
M  V30 5019 H 490.162 4.07464 1.07475 0
M  V30 5020 H 488.837 2.9219 1.39308 0
M  V30 5021 H 487.744 3.65318 -0.805836 0
M  V30 5022 H 489.077 4.81066 -1.041 0
M  V30 5023 N 490.729 0.570148 1.46925 0
M  V30 5024 C 492.145 0.23087 1.57921 0
M  V30 5025 C 492.345 -1.26676 1.56702 0
M  V30 5026 O 491.401 -2.04774 1.47729 0
M  V30 5027 C 492.714 0.868973 2.8787 0
M  V30 5028 C 494.262 0.841397 3.01479 0
M  V30 5029 C 494.737 1.45881 4.34146 0
M  V30 5030 N 496.228 1.42258 4.40814 0
M  V30 5031 C 496.963 1.8698 5.42057 0
M  V30 5032 N 496.459 2.39618 6.50042 0
M  V30 5033 N 498.252 1.77972 5.33181 0
M  V30 5034 H 490.403 1.54301 1.45962 0
M  V30 5035 H 492.666 0.644224 0.69547 0
M  V30 5036 H 492.372 1.922 2.94537 0
M  V30 5037 H 492.246 0.369682 3.75384 0
M  V30 5038 H 494.633 -0.202973 2.94401 0
M  V30 5039 H 494.714 1.37858 2.15474 0
M  V30 5040 H 494.358 2.50231 4.4198 0
M  V30 5041 H 494.288 0.896958 5.18905 0
M  V30 5042 H 496.779 1.03768 3.63374 0
M  V30 5043 H 497.092 2.71633 7.23488 0
M  V30 5044 H 495.437 2.43636 6.50897 0
M  V30 5045 H 498.628 1.36617 4.4772 0
M  V30 5046 H 498.801 2.13143 6.11943 0
M  V30 5047 N 492.207 -1.54576 0.307264 0
M  V30 5048 C 493.137 -2.26708 -0.55907 0
M  V30 5049 C 494.118 -1.26893 -1.1328 0
M  V30 5050 O 495.303 -1.55677 -1.16097 0
M  V30 5051 C 492.433 -3.01259 -1.72801 0
M  V30 5052 C 491.387 -4.08275 -1.28435 0
M  V30 5053 C 490.713 -4.70575 -2.53895 0
M  V30 5054 C 492.013 -5.2068 -0.411038 0
M  V30 5055 H 493.707 -2.9937 0.042576 0
M  V30 5056 H 491.253 -1.43983 0.0219173 0
M  V30 5057 H 493.206 -3.50444 -2.34023 0
M  V30 5058 H 491.93 -2.26187 -2.356 0
M  V30 5059 H 490.589 -3.59949 -0.695161 0
M  V30 5060 H 490.237 -3.92136 -3.15021 0
M  V30 5061 H 489.937 -5.42854 -2.24908 0
M  V30 5062 H 491.461 -5.22527 -3.15908 0
M  V30 5063 H 492.875 -5.65721 -0.929097 0
M  V30 5064 H 491.272 -5.99716 -0.214664 0
M  V30 5065 H 492.342 -4.81629 0.562287 0
M  V30 5066 N 493.685 -0.035106 -1.57561 0
M  V30 5067 C 494.595 0.960295 -2.14046 0
M  V30 5068 C 495.611 1.3529 -1.0942 0
M  V30 5069 O 496.787 1.43309 -1.41508 0
M  V30 5070 C 493.852 2.22214 -2.66124 0
M  V30 5071 C 492.913 1.8894 -3.85487 0
M  V30 5072 C 492.146 3.09109 -4.35072 0
M  V30 5073 O 492.369 4.21963 -3.83802 0
M  V30 5074 O 491.303 2.91058 -5.26848 0
M  V30 5075 H 495.129 0.509983 -2.99387 0
M  V30 5076 H 492.714 0.185853 -1.48239 0
M  V30 5077 H 494.596 2.96279 -2.99661 0
M  V30 5078 H 493.271 2.66414 -1.83862 0
M  V30 5079 H 492.178 1.12241 -3.56865 0
M  V30 5080 H 493.511 1.49551 -4.6893 0
M  V30 5081 N 495.163 1.55791 0.238111 0
M  V30 5082 C 496.126 1.90239 1.27835 0
M  V30 5083 C 497.126 0.779552 1.4064 0
M  V30 5084 O 498.316 1.04747 1.3919 0
M  V30 5085 C 495.448 2.13859 2.65475 0
M  V30 5086 H 496.641 2.83262 0.985034 0
M  V30 5087 H 494.194 1.48818 0.477799 0
M  V30 5088 H 494.929 1.23334 2.99932 0
M  V30 5089 H 494.714 2.95643 2.57561 0
M  V30 5090 H 496.204 2.41664 3.40571 0
M  V30 5091 N 496.642 -0.504142 1.49319 0
M  V30 5092 C 497.552 -1.63248 1.68486 0
M  V30 5093 C 498.568 -1.64488 0.567432 0
M  V30 5094 O 499.744 -1.82966 0.841749 0
M  V30 5095 C 496.809 -2.99627 1.74426 0
M  V30 5096 C 495.87 -3.09039 2.97982 0
M  V30 5097 C 495.103 -4.38913 3.0363 0
M  V30 5098 O 495.326 -5.27528 2.16958 0
M  V30 5099 O 494.26 -4.53231 3.96062 0
M  V30 5100 H 498.086 -1.50008 2.64067 0
M  V30 5101 H 495.671 -0.680086 1.33023 0
M  V30 5102 H 497.553 -3.80689 1.80705 0
M  V30 5103 H 496.228 -3.13136 0.820233 0
M  V30 5104 H 495.135 -2.27177 2.97223 0
M  V30 5105 H 496.468 -3.00456 3.89855 0
M  V30 5106 N 498.12 -1.38341 -0.754957 0
M  V30 5107 C 499.367 -1.34473 -1.51404 0
M  V30 5108 C 499.695 0.0656458 -1.94389 0
M  V30 5109 O 498.95 1.04244 -1.65625 0
M  V30 5110 C 499.249 -2.2452 -2.78075 0
M  V30 5111 C 498.915 -3.72512 -2.54059 0
M  V30 5112 C 497.577 -4.1284 -2.47218 0
M  V30 5113 C 499.929 -4.66197 -2.33044 0
M  V30 5114 C 497.257 -5.44945 -2.17376 0
M  V30 5115 C 499.609 -5.98558 -2.04723 0
M  V30 5116 C 498.273 -6.37972 -1.96337 0
M  V30 5117 H 497.543 -0.492072 -0.554027 0
M  V30 5118 H 500.19 -1.70687 -0.868223 0
M  V30 5119 H 498.495 -1.81357 -3.473 0
M  V30 5120 H 500.192 -2.18832 -3.36026 0
M  V30 5121 H 496.782 -3.40538 -2.60253 0
M  V30 5122 H 500.966 -4.35888 -2.37309 0
M  V30 5123 H 496.222 -5.74426 -2.09391 0
M  V30 5124 H 500.396 -6.70693 -1.87465 0
M  V30 5125 H 498.023 -7.40258 -1.72978 0
M  V30 5126 N 499.598 0.982988 -1.23187 0
M  V30 5127 C 500.846 1.72052 -1.06031 0
M  V30 5128 C 501.167 1.90769 0.404019 0
M  V30 5129 O 500.437 1.47446 1.28982 0
M  V30 5130 H 499.017 0.637499 -0.389363 0
M  V30 5131 H 501.679 1.18338 -1.54862 0
M  V30 5132 H 500.775 2.7111 -1.54615 0
M  V30 5133 N 501.076 1.04316 1.18135 0
M  V30 5134 C 502.008 0.594444 2.21357 0
M  V30 5135 C 503.021 -0.337215 1.59269 0
M  V30 5136 O 504.21 -0.131337 1.78016 0
M  V30 5137 C 501.31 -0.151251 3.38562 0
M  V30 5138 C 500.483 0.788907 4.30227 0
M  V30 5139 C 499.542 0.0860572 5.2613 0
M  V30 5140 O 498.568 0.717302 5.64662 0
M  V30 5141 N 499.77 -1.17969 5.68387 0
M  V30 5142 H 502.535 1.48227 2.60478 0
M  V30 5143 H 500.096 0.92396 1.32946 0
M  V30 5144 H 502.088 -0.631352 3.99745 0
M  V30 5145 H 500.658 -0.940639 2.98112 0
M  V30 5146 H 499.878 1.44882 3.6661 0
M  V30 5147 H 501.166 1.42738 4.88368 0
M  V30 5148 H 500.564 -1.71302 5.3914 0
M  V30 5149 H 499.121 -1.60402 6.31755 0
M  V30 5150 N 502.554 -1.34406 0.822964 0
M  V30 5151 C 503.501 -2.29519 0.24284 0
M  V30 5152 C 504.471 -1.5359 -0.632397 0
M  V30 5153 O 505.656 -1.8196 -0.57403 0
M  V30 5154 C 502.796 -3.40032 -0.58925 0
M  V30 5155 C 501.909 -4.30899 0.308236 0
M  V30 5156 C 501.044 -5.28515 -0.533425 0
M  V30 5157 C 500.083 -6.1102 0.363444 0
M  V30 5158 N 499.22 -7.00725 -0.439147 0
M  V30 5159 H 504.06 -2.78537 1.05929 0
M  V30 5160 H 501.597 -1.3707 0.533872 0
M  V30 5161 H 503.555 -4.0279 -1.087 0
M  V30 5162 H 502.185 -2.92248 -1.37081 0
M  V30 5163 H 501.237 -3.69002 0.924203 0
M  V30 5164 H 502.549 -4.88717 0.997862 0
M  V30 5165 H 501.703 -5.96725 -1.09565 0
M  V30 5166 H 500.442 -4.71235 -1.25656 0
M  V30 5167 H 499.447 -5.41743 0.937812 0
M  V30 5168 H 500.672 -6.70381 1.08469 0
M  V30 5169 H 498.618 -6.45913 -1.14595 0
M  V30 5170 H 498.535 -7.55756 0.19209 0
M  V30 5171 H 499.803 -7.73263 -0.984124 0
M  V30 5172 N 504.032 -0.577932 -1.46621 0
M  V30 5173 C 505.448 -0.239242 -1.57797 0
M  V30 5174 C 505.648 1.25843 -1.57371 0
M  V30 5175 O 504.704 2.03988 -1.48813 0
M  V30 5176 C 506.017 -0.884227 -2.87405 0
M  V30 5177 C 507.565 -0.857373 -3.01028 0
M  V30 5178 C 508.04 -1.48181 -4.33366 0
M  V30 5179 N 509.531 -1.44593 -4.40053 0
M  V30 5180 C 510.266 -1.89852 -5.41058 0
M  V30 5181 N 509.762 -2.43062 -6.48762 0
M  V30 5182 N 511.555 -1.80797 -5.3223 0
M  V30 5183 H 503.706 -1.55073 -1.45142 0
M  V30 5184 H 505.969 -0.647903 -0.692044 0
M  V30 5185 H 505.675 -1.93759 -2.93514 0
M  V30 5186 H 505.549 -0.389585 -3.75183 0
M  V30 5187 H 507.936 0.187357 -2.94505 0
M  V30 5188 H 508.017 -1.38999 -2.14739 0
M  V30 5189 H 507.661 -2.52572 -4.40647 0
M  V30 5190 H 507.591 -0.924464 -5.18422 0
M  V30 5191 H 510.082 -1.05694 -3.62819 0
M  V30 5192 H 510.395 -2.75466 -7.22038 0
M  V30 5193 H 508.74 -2.47085 -6.49595 0
M  V30 5194 H 511.931 -1.38989 -4.46989 0
M  V30 5195 H 512.104 -2.16385 -6.10804 0
M  V30 5196 N 505.51 1.54411 -0.315457 0
M  V30 5197 C 506.759 1.99599 0.290395 0
M  V30 5198 C 507.072 1.20746 1.53882 0
M  V30 5199 O 508.278 1.56272 2.22017 0
M  V30 5200 C 506.734 3.5539 0.56797 0
M  V30 5201 C 506.342 4.43068 -0.662945 0
M  V30 5202 C 508.086 4.09067 1.13422 0
M  V30 5203 C 505.993 5.90317 -0.357722 0
M  V30 5204 H 504.923 0.745592 0.112286 0
M  V30 5205 H 507.574 1.78477 -0.426418 0
M  V30 5206 H 505.956 3.72468 1.34476 0
M  V30 5207 H 507.13 4.37765 -1.43869 0
M  V30 5208 H 505.445 4.00238 -1.14884 0
M  V30 5209 H 508.042 5.16663 1.37707 0
M  V30 5210 H 508.385 3.60552 2.08106 0
M  V30 5211 H 508.918 3.95589 0.418805 0
M  V30 5212 H 505.657 6.4301 -1.27351 0
M  V30 5213 H 505.177 5.98592 0.380472 0
M  V30 5214 H 506.856 6.4699 0.0354284 0
M  V30 5215 N 506.988 0.0434614 1.5754 0
M  V30 5216 C 507.938 -0.943039 2.07583 0
M  V30 5217 C 508.922 -1.27662 0.979342 0
M  V30 5218 O 510.114 -1.26034 1.24276 0
M  V30 5219 C 507.243 -2.22056 2.61813 0
M  V30 5220 C 506.329 -1.91471 3.78417 0
M  V30 5221 N 506.72 -1.31214 4.88484 0
M  V30 5222 C 505.018 -2.21384 3.87176 0
M  V30 5223 C 505.719 -1.18084 5.69588 0
M  V30 5224 N 504.695 -1.68116 5.16951 0
M  V30 5225 H 508.497 -0.472354 2.90079 0
M  V30 5226 H 506.011 -0.161191 1.61598 0
M  V30 5227 H 508.008 -2.93618 2.95963 0
M  V30 5228 H 506.668 -2.69738 1.80752 0
M  V30 5229 H 507.679 -0.985318 5.08441 0
M  V30 5230 H 504.356 -2.7164 3.17046 0
M  V30 5231 H 505.746 -0.713684 6.68099 0
M  V30 5232 N 508.466 -1.55915 -0.229846 0
M  V30 5233 C 509.396 -1.94754 -1.28815 0
M  V30 5234 C 510.377 -0.814657 -1.49323 0
M  V30 5235 O 511.562 -1.07631 -1.61645 0
M  V30 5236 C 508.692 -2.25705 -2.63959 0
M  V30 5237 C 507.646 -3.41406 -2.5812 0
M  V30 5238 C 506.972 -3.57941 -3.97218 0
M  V30 5239 C 508.272 -4.76616 -2.13623 0
M  V30 5240 H 509.966 -2.83404 -0.965547 0
M  V30 5241 H 507.512 -1.36353 -0.463028 0
M  V30 5242 H 509.465 -2.51467 -3.38146 0
M  V30 5243 H 508.189 -1.339 -2.9789 0
M  V30 5244 H 506.848 -3.1568 -1.86391 0
M  V30 5245 H 506.496 -2.63526 -4.28443 0
M  V30 5246 H 506.196 -4.35757 -3.94195 0
M  V30 5247 H 507.72 -3.86042 -4.73079 0
M  V30 5248 H 509.134 -5.01637 -2.77549 0
M  V30 5249 H 507.531 -5.57655 -2.21677 0
M  V30 5250 H 508.601 -4.7253 -1.08829 0
M  V30 5251 N 509.944 0.496216 -1.49584 0
M  V30 5252 C 510.892 1.61805 -1.67098 0
M  V30 5253 C 511.886 1.60667 -0.536877 0
M  V30 5254 O 513.092 1.65118 -0.716654 0
M  V30 5255 H 509.467 0.53646 -0.526986 0
M  V30 5256 H 511.438 1.44187 -2.61252 0
M  V30 5257 C 510.187 2.99912 -1.75921 0
M  V30 5258 H 509.51 3.01496 -2.62565 0
M  V30 5259 H 510.95 3.77931 -1.92209 0
M  V30 5260 C 509.409 3.33092 -0.505088 0
M  V30 5261 O 509.939 4.00019 0.367085 0
M  V30 5262 N 508.145 2.88278 -0.366599 0
M  V30 5263 H 507.692 2.33989 -1.07735 0
M  V30 5264 H 507.65 3.10846 0.47142 0
M  V30 5265 N 511.423 1.38739 0.74761 0
M  V30 5266 C 512.648 1.38702 1.54197 0
M  V30 5267 C 513.073 -0.019664 1.8809 0
M  V30 5268 O 512.431 -1.00333 1.51006 0
M  V30 5269 C 512.479 2.25492 2.814 0
M  V30 5270 O 511.583 1.67613 3.76802 0
M  V30 5271 H 510.924 0.472863 0.466151 0
M  V30 5272 H 513.454 1.82577 0.923413 0
M  V30 5273 H 513.464 2.39561 3.30264 0
M  V30 5274 H 512.139 3.27727 2.56062 0
M  V30 5275 H 510.716 1.62718 3.35526 0
M  V30 5276 N 512.901 -0.976442 1.23707 0
M  V30 5277 C 513.833 -2.07212 0.979574 0
M  V30 5278 C 514.846 -1.6273 -0.0478528 0
M  V30 5279 O 516.035 -1.77506 0.18815 0
M  V30 5280 C 513.135 -3.35835 0.45479 0
M  V30 5281 C 512.308 -4.09268 1.54331 0
M  V30 5282 C 511.367 -5.16166 1.02271 0
M  V30 5283 O 510.393 -5.42827 1.71254 0
M  V30 5284 N 511.595 -5.80313 -0.147419 0
M  V30 5285 H 514.36 -2.29878 1.92292 0
M  V30 5286 H 511.921 -1.14343 1.14618 0
M  V30 5287 H 513.913 -4.04597 0.0914631 0
M  V30 5288 H 512.483 -3.10106 -0.394068 0
M  V30 5289 H 511.703 -3.34906 2.07923 0
M  V30 5290 H 512.991 -4.55095 2.27522 0
M  V30 5291 H 512.389 -5.61043 -0.724353 0
M  V30 5292 H 510.946 -6.50231 -0.451972 0
M  V30 5293 N 514.379 -1.04941 -1.1758 0
M  V30 5294 C 515.626 -0.757989 -1.87779 0
M  V30 5295 C 515.954 0.714827 -1.80888 0
M  V30 5296 O 515.209 1.53824 -1.20982 0
M  V30 5297 C 515.508 -1.18062 -3.37337 0
M  V30 5298 C 515.174 -2.65521 -3.6443 0
M  V30 5299 C 513.836 -3.05804 -3.71534 0
M  V30 5300 C 516.188 -3.60822 -3.76108 0
M  V30 5301 C 513.516 -4.40256 -3.87803 0
M  V30 5302 C 515.868 -4.95005 -3.93895 0
M  V30 5303 C 514.532 -5.34945 -3.99237 0
M  V30 5304 H 513.802 -0.277368 -0.68713 0
M  V30 5305 H 516.449 -1.31603 -1.39115 0
M  V30 5306 H 514.754 -0.541525 -3.8804 0
M  V30 5307 H 516.451 -0.932368 -3.9001 0
M  V30 5308 H 513.041 -2.33324 -3.59524 0
M  V30 5309 H 517.225 -3.30841 -3.69943 0
M  V30 5310 H 512.481 -4.70707 -3.90186 0
M  V30 5311 H 516.655 -5.68746 -4.01872 0
M  V30 5312 H 514.282 -6.39135 -4.11596 0
M  V30 5313 N 515.857 1.33968 -0.830081 0
M  V30 5314 C 517.268 1.80439 -0.479455 0
M  V30 5315 C 517.619 1.68756 1.00079 0
M  V30 5316 O 516.744 1.23171 1.77927 0
M  V30 5317 C 517.339 3.27611 -0.863505 0
M  V30 5318 C 515.898 3.72133 -0.565145 0
M  V30 5319 C 515.045 2.55549 -1.07657 0
M  V30 5320 H 517.996 1.21614 -1.0196 0
M  V30 5321 H 518.017 3.8012 -0.170083 0
M  V30 5322 H 517.529 3.36082 -1.94089 0
M  V30 5323 H 515.63 3.69196 0.502536 0
M  V30 5324 H 515.743 4.65963 -1.11422 0
M  V30 5325 H 514.107 2.49788 -0.497807 0
M  V30 5326 H 514.89 2.66786 -2.16055 0
M  V30 5327 N 517.335 0.585699 1.46312 0
M  V30 5328 C 518.583 0.072278 2.01971 0
M  V30 5329 C 518.904 -1.29345 1.45928 0
M  V30 5330 O 518.174 -1.84973 0.645109 0
M  V30 5331 H 516.754 0.023729 0.746623 0
M  V30 5332 H 519.416 0.762155 1.7938 0
M  V30 5333 H 518.512 0.00552767 3.121 0
M  V30 5334 N 518.813 -1.54241 0.323641 0
M  V30 5335 C 520.041 -2.04985 -0.280871 0
M  V30 5336 C 520.456 -1.19978 -1.45777 0
M  V30 5337 O 519.813 -0.230471 -1.81039 0
M  V30 5338 C 519.864 -3.54353 -0.715258 0
M  V30 5339 O 519.585 -4.36132 0.414817 0
M  V30 5340 C 521.086 -4.21189 -1.38257 0
M  V30 5341 H 518.306 -0.66851 -0.0577502 0
M  V30 5342 H 520.85 -1.99029 0.469852 0
M  V30 5343 H 519.005 -3.60596 -1.41596 0
M  V30 5344 H 519.419 -5.2445 0.0725227 0
M  V30 5345 H 520.893 -5.27154 -1.63745 0
M  V30 5346 H 521.37 -3.72307 -2.32989 0
M  V30 5347 H 521.976 -4.19085 -0.724447 0
M  V30 5348 N 520.291 -0.0518155 -1.57515 0
M  V30 5349 C 521.223 0.951542 -2.08515 0
M  V30 5350 C 522.236 1.27436 -1.01311 0
M  V30 5351 O 523.425 1.23504 -1.28876 0
M  V30 5352 C 520.525 2.27291 -2.5138 0
M  V30 5353 C 519.698 2.13191 -3.81927 0
M  V30 5354 C 518.757 3.28458 -4.11098 0
M  V30 5355 O 517.783 3.04334 -4.81009 0
M  V30 5356 N 518.985 4.52954 -3.63061 0
M  V30 5357 H 521.75 0.516242 -2.9522 0
M  V30 5358 H 519.311 0.13441 -1.61341 0
M  V30 5359 H 521.303 3.03272 -2.67971 0
M  V30 5360 H 519.873 2.62386 -1.69919 0
M  V30 5361 H 519.093 1.21798 -3.74912 0
M  V30 5362 H 520.381 2.00999 -4.67415 0
M  V30 5363 H 519.779 4.75444 -3.06545 0
M  V30 5364 H 518.336 5.26026 -3.84889 0
M  V30 5365 N 521.769 1.56035 0.221574 0
M  V30 5366 C 523.185 1.49026 0.571271 0
M  V30 5367 C 523.385 0.746912 1.87146 0
M  V30 5368 O 522.441 0.286566 2.50869 0
M  V30 5369 C 523.754 2.93579 0.650522 0
M  V30 5370 C 525.302 3.04099 0.741151 0
M  V30 5371 C 525.777 4.5001 0.851747 0
M  V30 5372 N 527.268 4.54053 0.915968 0
M  V30 5373 C 528.003 5.64232 1.02125 0
M  V30 5374 N 527.499 6.84164 1.09049 0
M  V30 5375 N 529.292 5.52084 1.05639 0
M  V30 5376 H 521.443 2.02791 -0.63162 0
M  V30 5377 H 523.706 0.921736 -0.221602 0
M  V30 5378 H 523.412 3.50912 -0.235253 0
M  V30 5379 H 523.286 3.45476 1.51413 0
M  V30 5380 H 525.673 2.4683 1.61737 0
M  V30 5381 H 525.754 2.55371 -0.148128 0
M  V30 5382 H 525.398 5.07896 -0.0200117 0
M  V30 5383 H 525.328 4.96444 1.75644 0
M  V30 5384 H 527.819 3.67683 0.872782 0
M  V30 5385 H 528.132 7.63883 1.1706 0
M  V30 5386 H 526.477 6.86875 1.05962 0
M  V30 5387 H 529.668 4.57317 0.998953 0
M  V30 5388 H 529.841 6.37983 1.13498 0
M  V30 5389 N 523.247 -0.488276 1.49845 0
M  V30 5390 C 524.177 -1.59675 1.70371 0
M  V30 5391 C 525.158 -1.60878 0.552473 0
M  V30 5392 O 526.343 -1.77417 0.78973 0
M  V30 5393 C 523.473 -2.98098 1.782 0
M  V30 5394 C 522.427 -3.11761 2.93239 0
M  V30 5395 C 521.753 -4.51661 2.86193 0
M  V30 5396 C 523.053 -2.90589 4.33999 0
M  V30 5397 H 524.747 -1.42752 2.63177 0
M  V30 5398 H 522.293 -0.685317 1.26647 0
M  V30 5399 H 524.246 -3.75555 1.91144 0
M  V30 5400 H 522.97 -3.16138 0.820018 0
M  V30 5401 H 521.629 -2.36732 2.79917 0
M  V30 5402 H 521.277 -4.66595 1.87877 0
M  V30 5403 H 520.977 -4.61742 3.63412 0
M  V30 5404 H 522.501 -5.31162 3.01163 0
M  V30 5405 H 523.915 -3.57807 4.47936 0
M  V30 5406 H 522.312 -3.1213 5.12538 0
M  V30 5407 H 523.382 -1.86595 4.4756 0
M  V30 5408 N 524.725 -1.39134 -0.740242 0
M  V30 5409 C 526.136 -1.32208 -1.31825 0
M  V30 5410 C 526.487 0.0159919 -1.96193 0
M  V30 5411 O 525.612 0.918111 -1.95958 0
M  V30 5412 C 526.207 -2.39436 -2.39699 0
M  V30 5413 C 524.766 -2.36048 -2.93187 0
M  V30 5414 C 523.913 -2.21599 -1.66701 0
M  V30 5415 H 526.864 -1.49298 -0.538133 0
M  V30 5416 H 526.885 -2.05922 -3.19963 0
M  V30 5417 H 526.397 -3.36811 -1.92821 0
M  V30 5418 H 524.498 -1.42295 -3.44359 0
M  V30 5419 H 524.611 -3.30704 -3.46658 0
M  V30 5420 H 522.975 -1.68681 -1.90837 0
M  V30 5421 H 523.758 -3.20936 -1.21882 0
M  V30 5422 N 526.204 0.969867 -1.24223 0
M  V30 5423 C 527.152 2.08535 -1.03034 0
M  V30 5424 C 528.146 1.69366 0.0340379 0
M  V30 5425 O 529.352 1.79597 -0.12034 0
M  V30 5426 H 525.727 0.682313 -0.316154 0
M  V30 5427 H 527.698 2.23569 -1.97635 0
M  V30 5428 C 526.447 3.4158 -0.649509 0
M  V30 5429 H 525.77 3.72177 -1.46028 0
M  V30 5430 H 527.21 4.20536 -0.540841 0
M  V30 5431 C 525.669 3.30703 0.643194 0
M  V30 5432 O 526.199 3.64443 1.68951 0
M  V30 5433 N 524.405 2.83841 0.623095 0
M  V30 5434 H 523.952 2.56583 -0.228719 0
M  V30 5435 H 523.91 2.76946 1.48823 0
M  V30 5436 N 527.682 1.05563 1.17022 0
M  V30 5437 C 528.91 0.78845 1.91288 0
M  V30 5438 C 529.325 -0.656318 1.77025 0
M  V30 5439 O 528.682 -1.44869 1.10992 0
M  V30 5440 C 528.733 1.16444 3.42232 0
M  V30 5441 O 528.454 2.5525 3.5606 0
M  V30 5442 C 529.955 0.923937 4.33565 0
M  V30 5443 H 527.175 0.286389 0.606813 0
M  V30 5444 H 529.719 1.4073 1.48375 0
M  V30 5445 H 527.874 0.590266 3.82877 0
M  V30 5446 H 528.288 2.70097 4.49609 0
M  V30 5447 H 529.762 1.23672 5.37968 0
M  V30 5448 H 530.239 -0.140688 4.38975 0
M  V30 5449 H 530.845 1.48214 3.98639 0
M  V30 5450 N 529.16 -1.33526 0.837174 0
M  V30 5451 C 530.4 -1.99649 0.438115 0
M  V30 5452 C 530.764 -1.64879 -0.983816 0
M  V30 5453 O 531.965 -2.23956 -1.48651 0
M  V30 5454 C 530.236 -3.51431 0.650461 0
M  V30 5455 S 531.795 -4.37431 0.346371 0
M  V30 5456 H 528.613 -0.69162 0.164872 0
M  V30 5457 H 531.215 -1.62556 1.08609 0
M  V30 5458 H 529.919 -3.74225 1.68475 0
M  V30 5459 H 529.45 -3.93398 -0.0117309 0
M  V30 5460 H 531.465 -4.89132 -0.834504 0
M  V30 5461 N 530.638 -0.59345 -1.46 0
M  V30 5462 C 531.586 0.146268 -2.3214 0
M  V30 5463 C 532.58 0.873743 -1.45128 0
M  V30 5464 O 533.786 0.790912 -1.61693 0
M  V30 5465 H 530.161 0.0660349 -0.749095 0
M  V30 5466 H 532.132 -0.598895 -2.92328 0
M  V30 5467 C 530.881 1.1396 -3.28494 0
M  V30 5468 H 530.204 0.589252 -3.95434 0
M  V30 5469 H 531.644 1.62738 -3.91526 0
M  V30 5470 C 530.103 2.20604 -2.54628 0
M  V30 5471 O 530.633 3.28128 -2.31722 0
M  V30 5472 N 528.839 1.95502 -2.15005 0
M  V30 5473 H 528.386 1.0807 -2.33834 0
M  V30 5474 H 528.344 2.67064 -1.65904 0
M  V30 5475 N 532.116 1.54067 -0.331816 0
M  V30 5476 C 533.363 2.00715 0.268269 0
M  V30 5477 C 533.691 1.21986 1.51491 0
M  V30 5478 O 532.946 0.292309 1.93505 0
M  V30 5479 C 533.245 3.51634 0.639392 0
M  V30 5480 C 532.911 4.48018 -0.509019 0
M  V30 5481 C 531.573 4.74089 -0.824209 0
M  V30 5482 C 533.925 5.05237 -1.28003 0
M  V30 5483 C 531.253 5.54637 -1.91298 0
M  V30 5484 C 533.605 5.86972 -2.35895 0
M  V30 5485 C 532.269 6.11342 -2.67987 0
M  V30 5486 H 531.539 0.734469 0.0981667 0
M  V30 5487 H 534.186 1.8596 -0.457304 0
M  V30 5488 H 532.491 3.6416 1.44551 0
M  V30 5489 H 534.188 3.85175 1.11539 0
M  V30 5490 H 530.778 4.27851 -0.253287 0
M  V30 5491 H 534.962 4.8507 -1.04978 0
M  V30 5492 H 530.218 5.71747 -2.16599 0
M  V30 5493 H 534.392 6.30327 -2.96076 0
M  V30 5494 H 532.019 6.73544 -3.5248 0
M  V30 5495 N 533.594 0.0601682 1.57485 0
M  V30 5496 C 534.819 -0.624416 1.97777 0
M  V30 5497 C 535.244 -1.63051 0.937867 0
M  V30 5498 O 534.602 -1.81036 -0.0978845 0
M  V30 5499 C 534.65 -1.27979 3.37126 0
M  V30 5500 O 533.754 -2.39556 3.35688 0
M  V30 5501 H 533.095 -0.161581 0.64404 0
M  V30 5502 H 535.625 0.131237 2.04179 0
M  V30 5503 H 535.635 -1.62937 3.74053 0
M  V30 5504 H 534.31 -0.542501 4.12347 0
M  V30 5505 H 532.887 -2.06478 3.10517 0
M  V30 5506 N 535.072 -1.5615 -0.213296 0
M  V30 5507 C 536.321 -1.78743 -0.93455 0
M  V30 5508 C 536.634 -0.630199 -1.8517 0
M  V30 5509 O 537.84 -0.739966 -2.61222 0
M  V30 5510 C 536.296 -3.16571 -1.71203 0
M  V30 5511 C 535.904 -4.40043 -0.840617 0
M  V30 5512 C 537.648 -3.48485 -2.42401 0
M  V30 5513 C 535.555 -5.68895 -1.61592 0
M  V30 5514 H 534.485 -0.666426 -0.352692 0
M  V30 5515 H 537.136 -1.82532 -0.188227 0
M  V30 5516 H 535.518 -3.06981 -2.50157 0
M  V30 5517 H 536.692 -4.6071 -0.0910326 0
M  V30 5518 H 535.007 -4.15706 -0.240365 0
M  V30 5519 H 537.604 -4.41983 -3.00924 0
M  V30 5520 H 537.947 -2.71371 -3.15695 0
M  V30 5521 H 538.48 -3.59442 -1.7043 0
M  V30 5522 H 535.219 -6.48925 -0.926106 0
M  V30 5523 H 534.739 -5.52275 -2.33991 0
M  V30 5524 H 536.418 -6.09365 -2.17447 0
M  V30 5525 N 536.55 0.480323 -1.50102 0
M  V30 5526 C 537.966 0.813295 -1.37323 0
M  V30 5527 C 538.166 1.97027 -0.422206 0
M  V30 5528 O 537.222 2.5212 0.138563 0
M  V30 5529 C 538.535 1.13404 -2.78496 0
M  V30 5530 C 540.083 1.24104 -2.87345 0
M  V30 5531 C 540.558 1.59497 -4.29331 0
M  V30 5532 N 542.049 1.66507 -4.32238 0
M  V30 5533 C 542.784 1.95378 -5.39087 0
M  V30 5534 N 542.28 2.22333 -6.56155 0
M  V30 5535 N 544.073 1.96803 -5.26522 0
M  V30 5536 H 536.224 -0.282291 -2.10516 0
M  V30 5537 H 538.487 -0.063752 -0.945854 0
M  V30 5538 H 538.193 0.357064 -3.49883 0
M  V30 5539 H 538.067 2.07251 -3.15162 0
M  V30 5540 H 540.454 2.00871 -2.16183 0
M  V30 5541 H 540.535 0.282593 -2.54234 0
M  V30 5542 H 540.179 0.832736 -5.01027 0
M  V30 5543 H 540.109 2.56477 -4.59921 0
M  V30 5544 H 542.6 1.47753 -3.47818 0
M  V30 5545 H 542.913 2.43611 -7.33399 0
M  V30 5546 H 541.258 2.19745 -6.59346 0
M  V30 5547 H 544.449 1.75235 -4.34062 0
M  V30 5548 H 544.622 2.18969 -6.09883 0
M  V30 5549 N 538.028 1.39524 0.732853 0
M  V30 5550 C 539.276 1.36594 1.48951 0
M  V30 5551 C 539.597 -0.0367507 1.94965 0
M  V30 5552 O 538.867 -0.988391 1.69138 0
M  V30 5553 H 537.447 0.502673 0.552566 0
M  V30 5554 H 540.109 1.74411 0.869869 0
M  V30 5555 H 539.205 2.03 2.3706 0
M  V30 5556 N 539.506 -0.963266 1.24736 0
M  V30 5557 C 540.917 -1.52145 1.08207 0
M  V30 5558 C 541.268 -1.93142 -0.345061 0
M  V30 5559 O 540.393 -1.77769 -1.23399 0
M  V30 5560 C 540.988 -2.76486 1.95808 0
M  V30 5561 C 539.547 -3.28646 1.8349 0
M  V30 5562 C 538.694 -2.01529 1.90476 0
M  V30 5563 H 541.645 -0.781083 1.38148 0
M  V30 5564 H 541.666 -3.49986 1.49297 0
M  V30 5565 H 541.178 -2.46617 2.99669 0
M  V30 5566 H 539.279 -3.63357 0.824787 0
M  V30 5567 H 539.392 -3.97246 2.67829 0
M  V30 5568 H 537.756 -2.16442 1.34258 0
M  V30 5569 H 538.539 -1.7402 2.95926 0
M  V30 5570 N 540.985 -1.06182 -1.16461 0
M  V30 5571 C 542.401 -0.785065 -1.38956 0
M  V30 5572 C 542.601 0.616103 -1.9185 0
M  V30 5573 O 541.657 1.37686 -2.11657 0
M  V30 5574 C 542.97 -1.84902 -2.37132 0
M  V30 5575 C 544.518 -1.8724 -2.50819 0
M  V30 5576 C 544.993 -2.92686 -3.52277 0
M  V30 5577 N 546.484 -2.91712 -3.59803 0
M  V30 5578 C 547.219 -3.69949 -4.38093 0
M  V30 5579 N 546.715 -4.58 -5.19815 0
M  V30 5580 N 548.508 -3.58346 -4.33064 0
M  V30 5581 H 540.659 -1.96569 -0.804634 0
M  V30 5582 H 542.922 -0.851747 -0.416211 0
M  V30 5583 H 542.628 -2.85518 -2.0536 0
M  V30 5584 H 542.502 -1.69908 -3.36766 0
M  V30 5585 H 544.889 -0.872827 -2.81897 0
M  V30 5586 H 544.97 -2.06311 -1.51226 0
M  V30 5587 H 544.614 -3.92835 -3.21937 0
M  V30 5588 H 544.544 -2.70864 -4.51598 0
M  V30 5589 H 547.035 -2.27876 -3.01464 0
M  V30 5590 H 547.348 -5.14357 -5.76764 0
M  V30 5591 H 545.693 -4.62056 -5.19162 0
M  V30 5592 H 548.884 -2.88943 -3.68279 0
M  V30 5593 H 549.057 -4.19563 -4.93833 0
M  V30 5594 N 542.463 1.3308 -0.844243 0
M  V30 5595 C 543.393 2.3161 -0.296493 0
M  V30 5596 C 544.374 1.59215 0.598707 0
M  V30 5597 O 545.559 1.87077 0.521134 0
M  V30 5598 C 542.689 3.43313 0.524762 0
M  V30 5599 C 541.643 4.27115 -0.275106 0
M  V30 5600 C 540.969 5.30483 0.670236 0
M  V30 5601 C 542.269 5.00443 -1.49514 0
M  V30 5602 H 543.963 2.77672 -1.11976 0
M  V30 5603 H 541.509 1.33496 -0.539899 0
M  V30 5604 H 543.462 4.11273 0.918298 0
M  V30 5605 H 542.186 2.95952 1.3813 0
M  V30 5606 H 540.845 3.60787 -0.650267 0
M  V30 5607 H 540.493 4.79379 1.52332 0
M  V30 5608 H 540.193 5.87435 0.139123 0
M  V30 5609 H 541.717 6.01308 1.06117 0
M  V30 5610 H 543.131 5.61141 -1.17447 0
M  V30 5611 H 541.528 5.67071 -1.96343 0
M  V30 5612 H 542.598 4.28906 -2.26202 0
M  V30 5613 N 543.941 0.601185 1.45683 0
M  V30 5614 C 544.873 -0.159446 2.28645 0
M  V30 5615 C 545.886 -0.837882 1.39583 0
M  V30 5616 O 547.075 -0.704344 1.64016 0
M  V30 5617 C 544.175 -1.24641 3.15147 0
M  V30 5618 C 543.348 -0.656334 4.32448 0
M  V30 5619 C 542.407 -1.63337 5.00208 0
M  V30 5620 O 541.433 -1.16217 5.57209 0
M  V30 5621 N 542.635 -2.96773 4.98905 0
M  V30 5622 H 545.4 0.5524 2.94565 0
M  V30 5623 H 542.961 0.440223 1.558 0
M  V30 5624 H 544.953 -1.8997 3.57342 0
M  V30 5625 H 543.523 -1.86087 2.51178 0
M  V30 5626 H 542.743 0.174879 3.93812 0
M  V30 5627 H 544.031 -0.242211 5.08223 0
M  V30 5628 H 543.429 -3.37662 4.53873 0
M  V30 5629 H 541.986 -3.57541 5.44984 0
M  V30 5630 N 545.419 -1.53889 0.339982 0
M  V30 5631 C 546.667 -2.00458 -0.257112 0
M  V30 5632 C 546.988 -1.22953 -1.51353 0
M  V30 5633 O 546.258 -0.335734 -1.93002 0
M  V30 5634 H 544.838 -0.740544 -0.0979965 0
M  V30 5635 H 547.5 -1.89386 0.460317 0
M  V30 5636 H 546.596 -3.08035 -0.502057 0
M  V30 5637 N 546.897 -0.0685191 -1.57451 0
M  V30 5638 C 547.847 0.909895 -2.09057 0
M  V30 5639 C 548.831 1.26088 -0.999528 0
M  V30 5640 O 550.023 1.24041 -1.26265 0
M  V30 5641 C 547.152 2.17863 -2.65312 0
M  V30 5642 C 546.238 1.85427 -3.81415 0
M  V30 5643 N 546.629 1.23426 -4.9051 0
M  V30 5644 C 544.927 2.15196 -3.90649 0
M  V30 5645 C 545.628 1.09008 -5.71395 0
M  V30 5646 N 544.604 1.59871 -5.1956 0
M  V30 5647 H 548.406 0.426145 -2.90794 0
M  V30 5648 H 545.92 0.135462 -1.61834 0
M  V30 5649 H 547.917 2.88872 -3.00597 0
M  V30 5650 H 546.577 2.66829 -1.85021 0
M  V30 5651 H 547.588 0.904305 -5.09944 0
M  V30 5652 H 544.265 2.66562 -3.21327 0
M  V30 5653 H 545.655 0.607305 -6.6915 0
M  V30 5654 N 548.375 1.56261 0.205012 0
M  V30 5655 C 549.621 1.80306 0.9283 0
M  V30 5656 C 549.954 0.640932 1.83319 0
M  V30 5657 O 549.229 -0.359032 1.91158 0
M  V30 5658 C 549.512 3.14547 1.75306 0
M  V30 5659 C 549.365 4.41236 0.873562 0
M  V30 5660 C 550.684 3.45382 2.72762 0
M  V30 5661 H 547.803 0.655929 0.336044 0
M  V30 5662 H 550.445 1.88984 0.196211 0
M  V30 5663 H 548.595 3.0728 2.37721 0
M  V30 5664 H 550.267 4.60539 0.264887 0
M  V30 5665 H 548.51 4.33427 0.179773 0
M  V30 5666 H 549.181 5.31639 1.48541 0
M  V30 5667 H 551.657 3.52884 2.20481 0
M  V30 5668 H 550.533 4.40449 3.2756 0
M  V30 5669 H 550.794 2.68377 3.51321 0
M  V30 5670 N 549.853 -0.472356 1.50355 0
M  V30 5671 C 551.099 -1.22634 1.6152 0
M  V30 5672 C 551.432 -1.91645 0.313995 0
M  V30 5673 O 550.707 -1.82059 -0.684446 0
M  V30 5674 C 550.99 -2.27099 2.7946 0
M  V30 5675 C 550.843 -1.62402 4.19459 0
M  V30 5676 C 552.162 -3.28421 2.92964 0
M  V30 5677 H 549.281 -0.444494 0.587873 0
M  V30 5678 H 551.923 -0.520321 1.82737 0
M  V30 5679 H 550.073 -2.87314 2.61501 0
M  V30 5680 H 551.745 -1.05793 4.49005 0
M  V30 5681 H 549.988 -0.927184 4.23776 0
M  V30 5682 H 550.659 -2.38309 4.97909 0
M  V30 5683 H 553.135 -2.78227 3.09401 0
M  V30 5684 H 552.011 -3.98845 3.77113 0
M  V30 5685 H 552.272 -3.92467 2.03525 0
M  V30 5686 N 551.331 -1.39911 -0.725443 0
M  V30 5687 C 552.261 -1.42138 -1.85254 0
M  V30 5688 C 553.242 -0.283513 -1.67721 0
M  V30 5689 O 554.427 -0.490717 -1.87898 0
M  V30 5690 C 551.557 -1.27354 -3.23107 0
M  V30 5691 C 550.511 -2.3864 -3.55296 0
M  V30 5692 C 549.837 -2.08939 -4.92188 0
M  V30 5693 C 551.137 -3.8097 -3.57295 0
M  V30 5694 H 552.831 -2.36461 -1.83648 0
M  V30 5695 H 550.377 -1.13817 -0.882138 0
M  V30 5696 H 552.33 -1.2753 -4.01639 0
M  V30 5697 H 551.054 -0.295025 -3.25265 0
M  V30 5698 H 549.713 -2.37696 -2.79099 0
M  V30 5699 H 549.361 -1.09502 -4.90936 0
M  V30 5700 H 549.061 -2.83491 -5.14691 0
M  V30 5701 H 550.585 -2.10781 -5.73065 0
M  V30 5702 H 551.999 -3.8379 -4.25885 0
M  V30 5703 H 550.396 -4.5496 -3.9132 0
M  V30 5704 H 551.466 -4.11261 -2.5689 0
M  V30 5705 N 552.809 0.956637 -1.25245 0
M  V30 5706 C 553.772 2.03457 -1.05537 0
M  V30 5707 C 554.772 1.60798 -0.00886317 0
M  V30 5708 O 555.962 1.72384 -0.250865 0
M  V30 5709 C 553.094 3.35543 -0.601965 0
M  V30 5710 H 554.287 2.22372 -2.01223 0
M  V30 5711 H 551.84 1.13344 -1.07623 0
M  V30 5712 H 552.575 3.22323 0.357584 0
M  V30 5713 H 552.36 3.67854 -1.35743 0
M  V30 5714 H 553.85 4.14769 -0.485454 0
M  V30 5715 N 554.287 1.06798 1.15896 0
M  V30 5716 C 555.219 0.641263 2.20046 0
M  V30 5717 C 556.232 -0.303355 1.59949 0
M  V30 5718 O 557.421 -0.0935478 1.78255 0
M  V30 5719 C 554.521 -0.0794029 3.38807 0
M  V30 5720 C 553.694 0.879986 4.28457 0
M  V30 5721 C 552.753 0.197638 5.25829 0
M  V30 5722 O 551.779 0.836913 5.63014 0
M  V30 5723 N 552.981 -1.05886 5.70761 0
M  V30 5724 H 555.746 1.53718 2.57276 0
M  V30 5725 H 553.307 0.951951 1.30956 0
M  V30 5726 H 555.299 -0.546418 4.00994 0
M  V30 5727 H 553.869 -0.877193 3.0004 0
M  V30 5728 H 553.089 1.52625 3.63454 0
M  V30 5729 H 554.377 1.53065 4.8523 0
M  V30 5730 H 553.775 -1.59828 5.42652 0
M  V30 5731 H 552.332 -1.46965 6.35015 0
M  V30 5732 N 555.766 -1.3263 0.851289 0
M  V30 5733 C 557.006 -1.99174 0.459266 0
M  V30 5734 C 557.37 -1.65913 -0.966273 0
M  V30 5735 O 558.571 -2.2552 -1.46267 0
M  V30 5736 C 556.842 -3.50721 0.687698 0
M  V30 5737 S 558.401 -4.37039 0.392746 0
M  V30 5738 H 555.219 -0.689832 0.172199 0
M  V30 5739 H 557.821 -1.61395 1.10327 0
M  V30 5740 H 556.525 -3.72417 1.72435 0
M  V30 5741 H 556.056 -3.93389 0.0299949 0
M  V30 5742 H 558.071 -4.8999 -0.782578 0
M  V30 5743 N 557.244 -0.608902 -1.45362 0
M  V30 5744 C 558.66 -0.272659 -1.57254 0
M  V30 5745 C 558.86 1.22477 -1.60005 0
M  V30 5746 O 557.916 2.00785 -1.53106 0
M  V30 5747 C 559.229 -0.944991 -2.85465 0
M  V30 5748 C 560.777 -0.921033 -2.99142 0
M  V30 5749 C 561.252 -1.5734 -4.30126 0
M  V30 5750 N 562.743 -1.53895 -4.36887 0
M  V30 5751 C 563.478 -2.01286 -5.36909 0
M  V30 5752 N 562.974 -2.56768 -6.43461 0
M  V30 5753 N 564.767 -1.92046 -5.28275 0
M  V30 5754 H 556.918 -1.58117 -1.4182 0
M  V30 5755 H 559.181 -0.662437 -0.678146 0
M  V30 5756 H 558.887 -1.99941 -2.89338 0
M  V30 5757 H 558.761 -0.469079 -3.74272 0
M  V30 5758 H 561.148 0.124846 -2.94836 0
M  V30 5759 H 561.229 -1.43522 -2.11743 0
M  V30 5760 H 560.873 -2.61862 -4.35191 0
M  V30 5761 H 560.803 -1.03422 -5.16344 0
M  V30 5762 H 563.294 -1.13366 -3.60495 0
M  V30 5763 H 563.607 -2.9072 -7.16032 0
M  V30 5764 H 561.952 -2.60808 -6.44208 0
M  V30 5765 H 565.143 -1.48439 -4.43941 0
M  V30 5766 H 565.316 -2.29293 -6.06077 0
M  V30 5767 N 558.722 1.53707 -0.348139 0
M  V30 5768 C 559.968 2.01286 0.247332 0
M  V30 5769 C 560.301 1.23546 1.49834 0
M  V30 5770 O 559.576 0.324331 1.91777 0
M  V30 5771 C 559.859 3.55768 0.556858 0
M  V30 5772 C 559.712 4.44216 -0.706564 0
M  V30 5773 C 561.031 4.1841 1.3646 0
M  V30 5774 H 558.15 0.731677 0.0884201 0
M  V30 5775 H 560.792 1.84106 -0.469584 0
M  V30 5776 H 558.942 3.70539 1.16761 0
M  V30 5777 H 560.614 4.41274 -1.34444 0
M  V30 5778 H 558.857 4.12892 -1.33052 0
M  V30 5779 H 559.528 5.50202 -0.445186 0
M  V30 5780 H 562.004 4.07365 0.848113 0
M  V30 5781 H 560.88 5.26563 1.54992 0
M  V30 5782 H 561.141 3.7333 2.36805 0
M  V30 5783 N 560.2 0.0768682 1.57412 0
M  V30 5784 C 561.13 -0.886026 2.16037 0
M  V30 5785 C 562.111 -1.30691 1.08876 0
M  V30 5786 O 563.296 -1.37705 1.36934 0
M  V30 5787 C 560.426 -2.1518 2.72608 0
M  V30 5788 C 559.38 -1.87015 3.8498 0
M  V30 5789 C 558.706 -3.20266 4.28175 0
M  V30 5790 C 560.006 -1.17143 5.08994 0
M  V30 5791 H 561.7 -0.397642 2.96748 0
M  V30 5792 H 559.246 -0.189823 1.42743 0
M  V30 5793 H 561.199 -2.82962 3.12266 0
M  V30 5794 H 559.923 -2.66269 1.89125 0
M  V30 5795 H 558.582 -1.21636 3.45833 0
M  V30 5796 H 558.23 -3.69207 3.41607 0
M  V30 5797 H 557.93 -3.0221 5.03927 0
M  V30 5798 H 559.454 -3.89237 4.70454 0
M  V30 5799 H 560.868 -1.75003 5.45937 0
M  V30 5800 H 559.265 -1.09328 5.90057 0
M  V30 5801 H 560.335 -0.151295 4.84664 0
M  V30 5802 N 561.678 -1.56367 -0.196722 0
M  V30 5803 C 562.611 -1.89475 -1.2718 0
M  V30 5804 C 563.589 -0.754667 -1.44026 0
M  V30 5805 O 564.773 -1.00551 -1.59442 0
M  V30 5806 C 561.9 -2.12352 -2.63864 0
M  V30 5807 C 560.946 -3.35053 -2.63897 0
M  V30 5808 S 561.779 -4.90228 -2.15492 0
M  V30 5809 C 562.935 -5.16171 -3.54004 0
M  V30 5810 H 563.168 -2.80365 -0.989075 0
M  V30 5811 H 560.701 -1.49125 -0.40014 0
M  V30 5812 H 562.659 -2.26214 -3.42545 0
M  V30 5813 H 561.32 -1.22214 -2.89349 0
M  V30 5814 H 560.513 -3.48182 -3.64397 0
M  V30 5815 H 560.115 -3.20176 -1.93296 0
M  V30 5816 H 562.407 -5.06591 -4.49857 0
M  V30 5817 H 563.35 -6.17938 -3.45771 0
M  V30 5818 H 563.758 -4.43814 -3.48841 0
M  V30 5819 N 563.156 0.464375 -1.50603 0
M  V30 5820 C 564.119 1.54393 -1.69397 0
M  V30 5821 C 565.119 1.50566 -0.564504 0
M  V30 5822 O 566.309 1.53066 -0.831645 0
M  V30 5823 C 563.441 2.9401 -1.72543 0
M  V30 5824 H 564.634 1.39044 -2.65719 0
M  V30 5825 H 562.187 0.69122 -1.40185 0
M  V30 5826 H 562.922 3.14795 -0.77938 0
M  V30 5827 H 562.707 2.98195 -2.54602 0
M  V30 5828 H 564.197 3.72375 -1.89015 0
M  V30 5829 N 564.634 1.40294 0.718013 0
M  V30 5830 C 565.859 1.41941 1.5122 0
M  V30 5831 C 566.284 0.0202371 1.88089 0
M  V30 5832 O 565.642 -0.971078 1.53101 0
M  V30 5833 C 565.69 2.3141 2.76554 0
M  V30 5834 O 564.794 1.75567 3.73162 0
M  V30 5835 H 564.135 0.482644 0.456016 0
M  V30 5836 H 566.665 1.84494 0.884478 0
M  V30 5837 H 566.675 2.46513 3.25108 0
M  V30 5838 H 565.35 3.33085 2.49053 0
M  V30 5839 H 563.927 1.69798 3.31999 0
M  V30 5840 N 566.112 -0.949982 1.2575 0
M  V30 5841 C 567.358 -1.69766 1.10938 0
M  V30 5842 C 567.691 -1.91056 -0.348028 0
M  V30 5843 O 566.966 -1.48488 -1.25625 0
M  V30 5844 C 567.249 -3.07779 1.86933 0
M  V30 5845 C 567.102 -2.9387 3.4053 0
M  V30 5846 C 568.421 -4.07749 1.65616 0
M  V30 5847 H 565.54 -0.616144 0.404396 0
M  V30 5848 H 568.182 -1.10394 1.54639 0
M  V30 5849 H 566.332 -3.58462 1.4979 0
M  V30 5850 H 568.004 -2.50476 3.87375 0
M  V30 5851 H 566.247 -2.29686 3.68004 0
M  V30 5852 H 566.918 -3.91719 3.88922 0
M  V30 5853 H 569.394 -3.65994 1.97959 0
M  V30 5854 H 568.27 -5.02348 2.21218 0
M  V30 5855 H 568.531 -4.38029 0.598595 0
M  V30 5856 N 567.59 -1.07411 -1.15328 0
M  V30 5857 C 568.838 -0.796073 -1.85761 0
M  V30 5858 C 569.159 0.679864 -1.82764 0
M  V30 5859 O 568.429 1.49242 -1.269 0
M  V30 5860 H 567.009 -0.291495 -0.687779 0
M  V30 5861 H 569.671 -1.35799 -1.39802 0
M  V30 5862 H 568.767 -1.13114 -2.90881 0
M  V30 5863 N 569.068 1.32177 -0.85831 0
M  V30 5864 C 570.031 2.27086 -0.310588 0
M  V30 5865 C 571.031 1.51751 0.531806 0
M  V30 5866 O 572.221 1.70794 0.34279 0
M  V30 5867 C 569.353 3.36266 0.560179 0
M  V30 5868 H 570.546 2.77045 -1.1483 0
M  V30 5869 H 568.099 1.42911 -0.632942 0
M  V30 5870 H 568.834 2.9158 1.41956 0
M  V30 5871 H 568.619 3.92077 -0.0428473 0
M  V30 5872 H 570.109 4.06974 0.936056 0
M  V30 5873 N 570.547 0.616602 1.45037 0
M  V30 5874 C 571.51 -0.0871112 2.29034 0
M  V30 5875 C 572.51 -0.786414 1.40258 0
M  V30 5876 O 573.7 -0.633207 1.62284 0
M  V30 5877 C 570.832 -1.13369 3.21497 0
M  V30 5878 H 572.025 0.651497 2.92738 0
M  V30 5879 H 569.578 0.376058 1.51709 0
M  V30 5880 H 570.313 -1.90277 2.62612 0
M  V30 5881 H 570.098 -0.636358 3.86902 0
M  V30 5882 H 571.588 -1.62627 3.84633 0
M  V30 5883 N 572.025 -1.5352 0.356285 0
M  V30 5884 C 573.265 -2.03027 -0.23649 0
M  V30 5885 C 573.629 -1.23813 -1.46746 0
M  V30 5886 O 574.83 -1.63281 -2.13525 0
M  V30 5887 C 573.101 -3.53442 -0.530415 0
M  V30 5888 S 574.66 -4.24836 -1.09819 0
M  V30 5889 H 571.478 -0.707591 -0.0695378 0
M  V30 5890 H 574.08 -1.89077 0.496999 0
M  V30 5891 H 572.784 -4.087 0.373114 0
M  V30 5892 H 572.315 -3.71536 -1.29323 0
M  V30 5893 H 574.33 -4.35228 -2.38309 0
M  V30 5894 N 573.503 -0.0852151 -1.57369 0
M  V30 5895 C 574.453 0.88767 -2.10011 0
M  V30 5896 C 575.437 1.25021 -1.01285 0
M  V30 5897 O 576.629 1.22694 -1.27574 0
M  V30 5898 C 573.758 2.15037 -2.67608 0
M  V30 5899 C 572.844 1.81371 -3.83361 0
M  V30 5900 N 573.235 1.18216 -4.91791 0
M  V30 5901 C 571.533 2.11041 -3.92909 0
M  V30 5902 C 572.234 1.02941 -5.72519 0
M  V30 5903 N 571.21 1.54351 -5.21226 0
M  V30 5904 H 575.012 0.395279 -2.9123 0
M  V30 5905 H 572.526 0.11829 -1.61969 0
M  V30 5906 H 574.523 2.85667 -3.03644 0
M  V30 5907 H 573.183 2.64851 -1.8784 0
M  V30 5908 H 574.194 0.850168 -5.10874 0
M  V30 5909 H 570.871 2.63138 -3.24136 0
M  V30 5910 H 572.261 0.536298 -6.69756 0
M  V30 5911 N 574.981 1.5647 0.188427 0
M  V30 5912 C 576.206 1.85486 0.927891 0
M  V30 5913 C 576.631 0.669575 1.75779 0
M  V30 5914 O 575.989 -0.381573 1.77239 0
M  V30 5915 C 576.037 3.12784 1.7944 0
M  V30 5916 O 575.141 2.93805 2.894 0
M  V30 5917 H 574.482 0.610585 0.260925 0
M  V30 5918 H 577.012 2.037 0.191729 0
M  V30 5919 H 577.022 3.43749 2.19774 0
M  V30 5920 H 575.697 3.98671 1.18468 0
M  V30 5921 H 574.274 2.74153 2.52774 0
M  V30 5922 N 576.459 -0.456382 1.50847 0
M  V30 5923 C 577.736 -1.21739 1.53098 0
M  V30 5924 C 578.116 -2.09179 0.284132 0
M  V30 5925 O 577.464 -2.16466 -0.731773 0
M  V30 5926 C 577.674 -2.03573 2.83477 0
M  V30 5927 C 579.022 -2.61264 3.34703 0
M  V30 5928 O 580.046 -2.13802 2.84898 0
M  V30 5929 O 578.905 -3.47779 4.21559 0
M  V30 5930 H 575.999 -0.553219 0.614718 0
M  V30 5931 H 578.545 -0.467003 1.63148 0
M  V30 5932 H 577.317 -1.39232 3.65691 0
M  V30 5933 H 576.94 -2.85716 2.76499 0
M  V30 5934 N 577.937 -1.40673 -0.710563 0
M  V30 5935 C 578.887 -1.37812 -1.81636 0
M  V30 5936 C 579.871 -0.254853 -1.58869 0
M  V30 5937 O 581.063 -0.494356 -1.69956 0
M  V30 5938 C 578.192 -1.24802 -3.19811 0
M  V30 5939 C 577.278 -2.41931 -3.48325 0
M  V30 5940 N 577.669 -3.67411 -3.47625 0
M  V30 5941 C 575.967 -2.35419 -3.78806 0
M  V30 5942 C 576.668 -4.45008 -3.74623 0
M  V30 5943 N 575.644 -3.74916 -3.93623 0
M  V30 5944 H 579.446 -2.32766 -1.79436 0
M  V30 5945 H 576.96 -1.34516 -0.909909 0
M  V30 5946 H 578.957 -1.20835 -3.99004 0
M  V30 5947 H 577.617 -0.308202 -3.23234 0
M  V30 5948 H 578.628 -4.00503 -3.28356 0
M  V30 5949 H 575.305 -1.4983 -3.89689 0
M  V30 5950 H 576.695 -5.53884 -3.80344 0
M  V30 5951 N 579.415 0.9433 -1.26252 0
M  V30 5952 C 580.663 1.68592 -1.11451 0
M  V30 5953 C 580.984 1.91957 0.343123 0
M  V30 5954 O 580.254 1.51475 1.24226 0
M  V30 5955 H 578.834 0.624789 -0.409448 0
M  V30 5956 H 581.496 1.13351 -1.58548 0
M  V30 5957 H 580.592 2.66054 -1.63162 0
M  V30 5958 N 580.893 1.08022 1.14757 0
M  V30 5959 C 582.17 0.720386 1.81851 0
M  V30 5960 C 582.55 -0.796375 1.95502 0
M  V30 5961 O 581.898 -1.71339 1.51179 0
M  V30 5962 C 582.108 1.44273 3.17783 0
M  V30 5963 C 583.456 1.59925 3.93331 0
M  V30 5964 O 584.48 1.40407 3.2736 0
M  V30 5965 O 583.339 1.92096 5.11626 0
M  V30 5966 H 580.433 0.257142 0.786007 0
M  V30 5967 H 582.979 1.18155 1.21809 0
M  V30 5968 H 581.751 2.47618 3.02987 0
M  V30 5969 H 581.374 0.97279 3.85516 0
M  V30 5970 N 582.371 -1.3172 0.865308 0
M  V30 5971 C 583.303 -2.27545 0.274906 0
M  V30 5972 C 584.316 -1.52887 -0.559413 0
M  V30 5973 O 585.505 -1.74361 -0.382166 0
M  V30 5974 C 582.605 -3.33006 -0.629286 0
M  V30 5975 C 581.778 -4.37063 0.171553 0
M  V30 5976 C 580.837 -5.22044 -0.660052 0
M  V30 5977 O 579.863 -5.69129 -0.0897527 0
M  V30 5978 N 581.065 -5.45946 -1.97289 0
M  V30 5979 H 583.83 -2.78848 1.09836 0
M  V30 5980 H 581.391 -1.44693 0.726331 0
M  V30 5981 H 583.383 -3.86772 -1.19121 0
M  V30 5982 H 581.953 -2.81782 -1.35342 0
M  V30 5983 H 581.173 -3.83436 0.914919 0
M  V30 5984 H 582.461 -5.03662 0.721235 0
M  V30 5985 H 581.859 -5.0944 -2.45942 0
M  V30 5986 H 580.416 -6.02665 -2.4827 0
M  V30 5987 N 583.85 -0.624285 -1.44708 0
M  V30 5988 C 585.26 -0.2092 -1.85524 0
M  V30 5989 C 585.611 1.23783 -1.52225 0
M  V30 5990 O 584.736 1.94089 -0.956986 0
M  V30 5991 C 585.332 -0.372897 -3.36742 0
M  V30 5992 C 583.891 -0.012374 -3.76398 0
M  V30 5993 C 583.038 -0.68951 -2.68591 0
M  V30 5994 H 585.989 -0.829894 -1.35272 0
M  V30 5995 H 586.01 0.390134 -3.78495 0
M  V30 5996 H 585.522 -1.42615 -3.60947 0
M  V30 5997 H 583.623 1.03941 -3.57809 0
M  V30 5998 H 583.736 -0.417663 -4.77276 0
M  V30 5999 H 582.1 -0.125484 -2.54391 0
M  V30 6000 H 582.883 -1.74522 -2.9563 0
M  V30 6001 N 585.328 1.53329 -0.364422 0
M  V30 6002 C 586.553 2.06132 0.229033 0
M  V30 6003 C 586.978 1.23625 1.41769 0
M  V30 6004 O 586.336 0.255038 1.79497 0
M  V30 6005 C 586.384 3.55544 0.60174 0
M  V30 6006 O 585.488 3.75771 1.69912 0
M  V30 6007 H 584.829 0.663148 0.0336213 0
M  V30 6008 H 587.359 1.97758 -0.524689 0
M  V30 6009 H 587.369 3.98549 0.873073 0
M  V30 6010 H 586.044 4.15039 -0.267421 0
M  V30 6011 H 584.621 3.44663 1.42343 0
M  V30 6012 N 586.806 0.0935595 1.57322 0
M  V30 6013 C 588.217 -0.435807 1.81542 0
M  V30 6014 C 588.568 -1.68263 1.00907 0
M  V30 6015 O 587.693 -2.15087 0.237983 0
M  V30 6016 C 588.288 -0.797436 3.29282 0
M  V30 6017 C 586.847 -1.27155 3.54272 0
M  V30 6018 C 585.994 -0.267455 2.76007 0
M  V30 6019 H 588.945 0.31902 1.5546 0
M  V30 6020 H 588.966 -1.6571 3.42521 0
M  V30 6021 H 588.478 0.110206 3.87943 0
M  V30 6022 H 586.579 -2.19696 3.00939 0
M  V30 6023 H 586.692 -1.23445 4.62923 0
M  V30 6024 H 585.056 -0.749282 2.43429 0
M  V30 6025 H 585.839 0.632839 3.37417 0
M  V30 6026 N 588.284 -1.56567 -0.180126 0
M  V30 6027 C 589.53 -1.81761 -0.899497 0
M  V30 6028 C 589.863 -0.670015 -1.82276 0
M  V30 6029 O 589.138 0.328575 -1.91705 0
M  V30 6030 C 589.421 -3.17296 -1.7028 0
M  V30 6031 C 589.274 -4.4257 -0.803255 0
M  V30 6032 C 590.593 -3.49678 -2.67233 0
M  V30 6033 H 587.712 -0.661192 -0.325567 0
M  V30 6034 H 590.354 -1.89272 -0.16612 0
M  V30 6035 H 588.504 -3.11023 -2.32802 0
M  V30 6036 H 590.176 -4.60902 -0.191585 0
M  V30 6037 H 588.419 -4.33658 -0.110796 0
M  V30 6038 H 589.09 -5.33935 -1.40064 0
M  V30 6039 H 591.566 -3.56347 -2.14839 0
M  V30 6040 H 590.442 -4.45605 -3.20511 0
M  V30 6041 H 590.703 -2.73932 -3.47007 0
M  V30 6042 N 589.762 0.448376 -1.51087 0
M  V30 6043 C 590.692 1.55102 -1.74544 0
M  V30 6044 C 591.673 1.59357 -0.594932 0
M  V30 6045 O 592.858 1.75261 -0.836491 0
M  V30 6046 C 589.988 2.93268 -1.86041 0
M  V30 6047 C 588.942 3.03877 -3.01402 0
M  V30 6048 C 588.268 4.43914 -2.98068 0
M  V30 6049 C 589.568 2.7898 -4.41551 0
M  V30 6050 H 591.262 1.35724 -2.66869 0
M  V30 6051 H 588.808 0.651498 -1.28419 0
M  V30 6052 H 590.761 3.70356 -2.01034 0
M  V30 6053 H 589.485 3.13853 -0.903548 0
M  V30 6054 H 588.144 2.29227 -2.86096 0
M  V30 6055 H 587.792 4.6145 -2.00182 0
M  V30 6056 H 587.492 4.51944 -3.75527 0
M  V30 6057 H 589.016 5.22991 -3.1514 0
M  V30 6058 H 590.43 3.45805 -4.57265 0
M  V30 6059 H 588.827 2.98431 -5.20633 0
M  V30 6060 H 589.897 1.74663 -4.5235 0
M  V30 6061 N 591.24 1.41047 0.703093 0
M  V30 6062 C 592.17 1.45067 1.82969 0
M  V30 6063 C 593.151 0.31016 1.67248 0
M  V30 6064 O 594.336 0.520548 1.87093 0
M  V30 6065 C 591.466 1.32478 3.2104 0
M  V30 6066 C 590.42 2.44262 3.51454 0
M  V30 6067 C 589.746 2.16742 4.88801 0
M  V30 6068 C 591.046 3.86606 3.51189 0
M  V30 6069 H 592.74 2.39353 1.79863 0
M  V30 6070 H 590.286 1.15206 0.863919 0
M  V30 6071 H 592.239 1.33904 3.99559 0
M  V30 6072 H 590.963 0.346735 3.24754 0
M  V30 6073 H 589.622 2.42107 2.75282 0
M  V30 6074 H 589.27 1.17299 4.89132 0
M  V30 6075 H 588.97 2.91643 5.10116 0
M  V30 6076 H 590.494 2.19872 5.69639 0
M  V30 6077 H 591.908 3.90517 4.19725 0
M  V30 6078 H 590.305 4.61128 3.84033 0
M  V30 6079 H 591.375 4.15296 2.50315 0
M  V30 6080 N 592.718 -0.936591 1.26751 0
M  V30 6081 C 593.943 -1.72288 1.15462 0
M  V30 6082 C 594.368 -1.85915 -0.285887 0
M  V30 6083 O 593.726 -1.35272 -1.20711 0
M  V30 6084 C 593.774 -3.10503 1.83359 0
M  V30 6085 O 592.878 -3.96745 1.1255 0
M  V30 6086 H 592.219 -0.52843 0.402067 0
M  V30 6087 H 594.749 -1.17271 1.67656 0
M  V30 6088 H 594.759 -3.60867 1.90365 0
M  V30 6089 H 593.434 -2.99901 2.88153 0
M  V30 6090 H 592.011 -3.55191 1.13551 0
M  V30 6091 N 594.196 -1.08629 -1.14182 0
M  V30 6092 C 595.426 -0.837673 -1.88856 0
M  V30 6093 C 595.834 0.614024 -1.78959 0
M  V30 6094 O 595.177 1.43384 -1.14833 0
M  V30 6095 C 595.239 -1.18355 -3.39459 0
M  V30 6096 C 594.903 -2.63848 -3.73139 0
M  V30 6097 C 595.9 -3.62099 -3.73069 0
M  V30 6098 C 593.585 -2.99761 -4.03049 0
M  V30 6099 C 595.579 -4.94292 -4.02435 0
M  V30 6100 C 593.266 -4.32147 -4.32078 0
M  V30 6101 C 594.264 -5.29223 -4.31755 0
M  V30 6102 O 593.952 -6.59229 -4.60079 0
M  V30 6103 H 593.684 -0.301609 -0.604986 0
M  V30 6104 H 596.238 -1.44961 -1.45518 0
M  V30 6105 H 594.468 -0.514628 -3.8326 0
M  V30 6106 H 596.157 -0.915391 -3.95443 0
M  V30 6107 H 596.923 -3.35698 -3.50046 0
M  V30 6108 H 592.802 -2.2484 -4.02453 0
M  V30 6109 H 596.346 -5.70055 -4.02098 0
M  V30 6110 H 592.243 -4.58296 -4.54571 0
M  V30 6111 H 593.011 -6.64578 -4.77785 0
M  V30 6112 N 595.674 1.31259 -0.872281 0
M  V30 6113 C 596.922 1.96233 -0.483409 0
M  V30 6114 C 597.243 1.69276 0.968012 0
M  V30 6115 O 596.513 1.00943 1.67891 0
M  V30 6116 H 595.093 0.726025 -0.175774 0
M  V30 6117 H 597.755 1.60024 -1.11258 0
M  V30 6118 H 596.851 3.05403 -0.643075 0
M  V30 6119 N 597.152 0.631951 1.44375 0
M  V30 6120 C 598.398 0.13697 2.02337 0
M  V30 6121 C 598.731 -1.23826 1.49602 0
M  V30 6122 O 598.006 -1.8221 0.680415 0
M  V30 6123 C 598.289 0.124536 3.59885 0
M  V30 6124 C 598.142 1.53217 4.229 0
M  V30 6125 C 599.461 -0.550481 4.36644 0
M  V30 6126 H 596.58 0.051247 0.735216 0
M  V30 6127 H 599.222 0.808581 1.71936 0
M  V30 6128 H 597.372 -0.44737 3.85916 0
M  V30 6129 H 599.044 2.15303 4.07973 0
M  V30 6130 H 597.287 2.0858 3.80364 0
M  V30 6131 H 597.958 1.4755 5.31914 0
M  V30 6132 H 600.434 -0.0641154 4.16051 0
M  V30 6133 H 599.31 -0.528371 5.46351 0
M  V30 6134 H 599.571 -1.62097 4.11311 0
M  V30 6135 N 598.631 -1.53133 0.372548 0
M  V30 6136 C 600.042 -1.86404 -0.105155 0
M  V30 6137 C 600.393 -1.29289 -1.47576 0
M  V30 6138 O 599.518 -0.617646 -2.07398 0
M  V30 6139 C 600.113 -3.38223 -0.197588 0
M  V30 6140 C 598.672 -3.71266 -0.619556 0
M  V30 6141 C 597.819 -2.76353 0.228919 0
M  V30 6142 H 600.77 -1.47282 0.591077 0
M  V30 6143 H 600.791 -3.66577 -1.01987 0
M  V30 6144 H 600.303 -3.79763 0.800099 0
M  V30 6145 H 598.404 -3.35287 -1.62522 0
M  V30 6146 H 598.517 -4.77515 -0.389332 0
M  V30 6147 H 596.881 -2.52888 -0.303271 0
M  V30 6148 H 597.664 -3.20728 1.22428 0
M  V30 6149 N 600.109 -0.101901 -1.5727 0
M  V30 6150 C 601.356 0.560197 -1.94597 0
M  V30 6151 C 601.684 1.67767 -0.984101 0
M  V30 6152 O 600.939 1.95699 -0.00489193 0
M  V30 6153 C 601.238 1.14898 -3.38427 0
M  V30 6154 C 600.904 0.154613 -4.50635 0
M  V30 6155 C 599.566 -0.118861 -4.81053 0
M  V30 6156 C 601.918 -0.523979 -5.18559 0
M  V30 6157 C 599.246 -1.0775 -5.76721 0
M  V30 6158 C 601.598 -1.47114 -6.15256 0
M  V30 6159 C 600.262 -1.75278 -6.44076 0
M  V30 6160 H 599.532 0.204991 -0.712081 0
M  V30 6161 H 602.179 -0.17918 -1.9066 0
M  V30 6162 H 600.484 1.96476 -3.38976 0
M  V30 6163 H 602.181 1.66909 -3.64613 0
M  V30 6164 H 598.771 0.377948 -4.2693 0
M  V30 6165 H 602.955 -0.325851 -4.95229 0
M  V30 6166 H 598.211 -1.30263 -5.97362 0
M  V30 6167 H 602.385 -2.00274 -6.66981 0
M  V30 6168 H 600.012 -2.49717 -7.18015 0
M  V30 6169 N 601.587 1.56661 0.17182 0
M  V30 6170 C 602.864 1.72838 0.915778 0
M  V30 6171 C 603.244 0.66316 2.00413 0
M  V30 6172 O 602.592 -0.322123 2.26218 0
M  V30 6173 C 602.802 3.16019 1.48097 0
M  V30 6174 C 604.15 3.76962 1.95408 0
M  V30 6175 O 605.174 3.19294 1.57892 0
M  V30 6176 O 604.033 4.78219 2.64516 0
M  V30 6177 H 601.127 0.705797 0.431021 0
M  V30 6178 H 603.673 1.68947 0.159689 0
M  V30 6179 H 602.445 3.85031 0.697618 0
M  V30 6180 H 602.068 3.24234 2.30126 0
M  V30 6181 N 603.065 -0.440357 1.51323 0
M  V30 6182 C 604.311 -1.19181 1.64085 0
M  V30 6183 C 604.644 -1.90936 0.354575 0
M  V30 6184 O 603.919 -1.8347 -0.645675 0
M  V30 6185 C 604.202 -2.2112 2.84215 0
M  V30 6186 C 604.055 -1.53468 4.22809 0
M  V30 6187 C 605.374 -3.22133 2.99864 0
M  V30 6188 H 602.493 -0.431924 0.597169 0
M  V30 6189 H 605.135 -0.481443 1.83799 0
M  V30 6190 H 603.285 -2.81703 2.67537 0
M  V30 6191 H 604.957 -0.962455 4.51148 0
M  V30 6192 H 603.2 -0.837086 4.25647 0
M  V30 6193 H 603.871 -2.27694 5.02852 0
M  V30 6194 H 606.347 -2.71601 3.15233 0
M  V30 6195 H 605.223 -3.90756 3.85488 0
M  V30 6196 H 605.484 -3.88061 2.11804 0
M  V30 6197 N 604.543 -1.41418 -0.695603 0
M  V30 6198 C 605.506 -1.42988 -1.79129 0
M  V30 6199 C 606.506 -0.320514 -1.57573 0
M  V30 6200 O 607.696 -0.58039 -1.64247 0
M  V30 6201 C 604.828 -1.24122 -3.175 0
M  V30 6202 H 606.021 -2.40526 -1.7913 0
M  V30 6203 H 603.574 -1.2756 -0.903225 0
M  V30 6204 H 604.309 -0.274253 -3.23138 0
M  V30 6205 H 604.094 -2.045 -3.34547 0
M  V30 6206 H 605.584 -1.28056 -3.97481 0
M  V30 6207 N 606.021 0.929856 -1.27246 0
M  V30 6208 C 607.437 1.20542 -1.04603 0
M  V30 6209 C 607.637 2.00276 0.221754 0
M  V30 6210 O 606.693 2.34835 0.927833 0
M  V30 6211 C 608.006 1.95566 -2.28417 0
M  V30 6212 C 609.554 2.08513 -2.33433 0
M  V30 6213 C 610.029 2.86943 -3.5697 0
M  V30 6214 N 611.52 2.94512 -3.57515 0
M  V30 6215 C 612.255 3.55656 -4.49774 0
M  V30 6216 N 611.751 4.18209 -5.52334 0
M  V30 6217 N 613.544 3.53038 -4.37402 0
M  V30 6218 H 605.695 0.397113 -2.08655 0
M  V30 6219 H 607.958 0.238277 -0.917566 0
M  V30 6220 H 607.664 1.44395 -3.20691 0
M  V30 6221 H 607.538 2.9619 -2.33563 0
M  V30 6222 H 609.925 2.58872 -1.41666 0
M  V30 6223 H 610.006 1.07117 -2.32292 0
M  V30 6224 H 609.65 2.37268 -4.49072 0
M  V30 6225 H 609.58 3.8862 -3.55362 0
M  V30 6226 H 612.071 2.50053 -2.83341 0
M  V30 6227 H 612.384 4.62796 -6.18902 0
M  V30 6228 H 610.729 4.16761 -5.56179 0
M  V30 6229 H 613.92 3.0337 -3.56489 0
M  V30 6230 H 614.093 4.004 -5.09493 0
M  V30 6231 N 607.499 1.09233 1.13605 0
M  V30 6232 C 608.447 0.724572 2.21027 0
M  V30 6233 C 609.441 -0.273595 1.67176 0
M  V30 6234 O 610.647 -0.135266 1.79491 0
M  V30 6235 H 607.022 0.216319 0.720215 0
M  V30 6236 H 608.993 1.63975 2.49309 0
M  V30 6237 C 607.742 0.159126 3.47336 0
M  V30 6238 H 607.065 0.918387 3.89109 0
M  V30 6239 H 608.505 -0.0602851 4.23957 0
M  V30 6240 C 606.964 -1.10514 3.18258 0
M  V30 6241 O 607.494 -2.18869 3.36837 0
M  V30 6242 N 605.7 -1.01886 2.72154 0
M  V30 6243 H 605.247 -0.137027 2.57235 0
M  V30 6244 H 605.205 -1.8655 2.53074 0
M  V30 6245 N 608.977 -1.30795 0.87923 0
M  V30 6246 C 609.94 -2.26563 0.346676 0
M  V30 6247 C 610.94 -1.52578 -0.507597 0
M  V30 6248 O 612.13 -1.71318 -0.315575 0
M  V30 6249 C 609.262 -3.37115 -0.506611 0
M  V30 6250 H 610.455 -2.75183 1.19223 0
M  V30 6251 H 608.008 -1.41886 0.655598 0
M  V30 6252 H 608.743 -2.93802 -1.37299 0
M  V30 6253 H 608.528 -3.91959 0.105218 0
M  V30 6254 H 610.018 -4.08412 -0.871192 0
M  V30 6255 N 610.455 -0.639598 -1.44038 0
M  V30 6256 C 611.385 0.0469443 -2.33453 0
M  V30 6257 C 612.366 0.82609 -1.48694 0
M  V30 6258 O 613.551 0.790285 -1.77393 0
M  V30 6259 C 610.681 1.02338 -3.3188 0
M  V30 6260 C 609.635 0.355284 -4.26523 0
M  V30 6261 C 608.961 1.44221 -5.14883 0
M  V30 6262 C 610.261 -0.743798 -5.16977 0
M  V30 6263 H 611.955 -0.699735 -2.91108 0
M  V30 6264 H 609.501 -0.337946 -1.39978 0
M  V30 6265 H 611.454 1.51247 -3.93322 0
M  V30 6266 H 610.178 1.80105 -2.72451 0
M  V30 6267 H 608.837 -0.113239 -3.66425 0
M  V30 6268 H 608.485 2.21097 -4.51802 0
M  V30 6269 H 608.185 1.00052 -5.79019 0
M  V30 6270 H 609.709 1.93295 -5.79197 0
M  V30 6271 H 611.123 -0.337444 -5.72306 0
M  V30 6272 H 609.52 -1.10914 -5.89761 0
M  V30 6273 H 610.59 -1.60745 -4.57481 0
M  V30 6274 N 611.933 1.52934 -0.380664 0
M  V30 6275 C 613.349 1.59571 -0.0302429 0
M  V30 6276 C 613.549 1.39509 1.45394 0
M  V30 6277 O 612.605 1.20777 2.21741 0
M  V30 6278 C 613.918 2.96519 -0.499691 0
M  V30 6279 C 615.466 3.09672 -0.455204 0
M  V30 6280 C 615.941 4.49056 -0.900703 0
M  V30 6281 N 617.432 4.55215 -0.856367 0
M  V30 6282 C 618.167 5.61282 -1.17259 0
M  V30 6283 N 617.663 6.75035 -1.55885 0
M  V30 6284 N 619.456 5.51343 -1.0944 0
M  V30 6285 H 611.607 1.64224 -1.347 0
M  V30 6286 H 613.87 0.771033 -0.551554 0
M  V30 6287 H 613.576 3.16388 -1.53595 0
M  V30 6288 H 613.45 3.77052 0.105789 0
M  V30 6289 H 615.837 2.89504 0.571949 0
M  V30 6290 H 615.918 2.31113 -1.09638 0
M  V30 6291 H 615.562 4.69964 -1.92604 0
M  V30 6292 H 615.492 5.26068 -0.236629 0
M  V30 6293 H 617.983 3.73546 -0.572013 0
M  V30 6294 H 618.296 7.51926 -1.784 0
M  V30 6295 H 616.641 6.76388 -1.59764 0
M  V30 6296 H 619.832 4.61356 -0.791713 0
M  V30 6297 H 620.005 6.33905 -1.34417 0
M  V30 6298 N 613.412 0.11024 1.57214 0
M  V30 6299 C 614.342 -0.840002 2.17867 0
M  V30 6300 C 615.323 -1.28352 1.11624 0
M  V30 6301 O 616.508 -1.3477 1.39824 0
M  V30 6302 C 613.638 -2.09349 2.77111 0
M  V30 6303 C 612.592 -1.78807 3.8886 0
M  V30 6304 C 611.918 -3.11112 4.34872 0
M  V30 6305 C 613.218 -1.0632 5.11364 0
M  V30 6306 H 614.912 -0.334608 2.97524 0
M  V30 6307 H 612.458 -0.159502 1.43114 0
M  V30 6308 H 614.411 -2.76275 3.18198 0
M  V30 6309 H 613.135 -2.62198 1.9473 0
M  V30 6310 H 611.794 -1.14273 3.48335 0
M  V30 6311 H 611.442 -3.61877 3.49362 0
M  V30 6312 H 611.142 -2.91453 5.10224 0
M  V30 6313 H 612.666 -3.79171 4.78604 0
M  V30 6314 H 614.08 -1.63383 5.49526 0
M  V30 6315 H 612.477 -0.967876 5.92243 0
M  V30 6316 H 613.547 -0.0484569 4.84876 0
M  V30 6317 N 614.89 -1.56749 -0.16351 0
M  V30 6318 C 616.115 -1.86938 -0.898264 0
M  V30 6319 C 616.54 -0.697456 -1.74692 0
M  V30 6320 O 615.898 0.353327 -1.77824 0
M  V30 6321 C 615.946 -3.15599 -1.74441 0
M  V30 6322 O 615.05 -2.98371 -2.8469 0
M  V30 6323 H 614.391 -0.614659 -0.251178 0
M  V30 6324 H 616.921 -2.03979 -0.159298 0
M  V30 6325 H 616.931 -3.47202 -2.14277 0
M  V30 6326 H 615.606 -4.00505 -1.1211 0
M  V30 6327 H 614.183 -2.7814 -2.4838 0
M  V30 6328 N 616.368 0.432326 -1.51554 0
M  V30 6329 C 617.614 1.18309 -1.64714 0
M  V30 6330 C 617.947 1.90745 -0.364696 0
M  V30 6331 O 617.222 1.8381 0.635936 0
M  V30 6332 C 617.505 2.1961 -2.85383 0
M  V30 6333 C 617.358 1.51223 -4.23617 0
M  V30 6334 C 618.677 3.20538 -3.01569 0
M  V30 6335 H 615.796 0.428751 -0.599451 0
M  V30 6336 H 618.438 0.471689 -1.84052 0
M  V30 6337 H 616.588 2.8028 -2.69027 0
M  V30 6338 H 618.26 0.938516 -4.51652 0
M  V30 6339 H 616.503 0.814501 -4.26085 0
M  V30 6340 H 617.174 2.25024 -5.04052 0
M  V30 6341 H 619.65 2.69926 -3.16669 0
M  V30 6342 H 618.526 3.88706 -3.87555 0
M  V30 6343 H 618.787 3.86933 -2.13859 0
M  V30 6344 N 617.846 1.41785 0.688094 0
M  V30 6345 C 619.094 1.41264 1.4453 0
M  V30 6346 C 619.415 0.0252946 1.94984 0
M  V30 6347 O 618.685 -0.934081 1.72197 0
M  V30 6348 H 617.265 0.519998 0.536294 0
M  V30 6349 H 619.927 1.7709 0.813941 0
M  V30 6350 H 619.023 2.10439 2.30482 0
M  V30 6351 N 619.324 -0.923095 1.27737 0
M  V30 6352 C 620.74 -1.19985 1.05241 0
M  V30 6353 C 620.94 -2.00391 -0.21113 0
M  V30 6354 O 619.996 -2.35324 -0.915366 0
M  V30 6355 C 621.309 -1.94352 2.29451 0
M  V30 6356 C 622.857 -2.07273 2.34536 0
M  V30 6357 C 623.332 -2.85046 3.58487 0
M  V30 6358 N 624.823 -2.92612 3.59072 0
M  V30 6359 C 625.558 -3.53266 4.51654 0
M  V30 6360 N 625.054 -4.15274 5.54545 0
M  V30 6361 N 626.847 -3.50714 4.39268 0
M  V30 6362 H 618.998 -0.386042 2.08862 0
M  V30 6363 H 621.261 -0.233407 0.918817 0
M  V30 6364 H 620.967 -1.42692 3.21453 0
M  V30 6365 H 620.841 -2.94947 2.3513 0
M  V30 6366 H 623.228 -2.58117 1.43037 0
M  V30 6367 H 623.309 -1.05884 2.32857 0
M  V30 6368 H 622.953 -2.34884 4.50324 0
M  V30 6369 H 622.883 -3.8673 3.57418 0
M  V30 6370 H 625.374 -2.48547 2.84663 0
M  V30 6371 H 625.687 -4.59507 6.21348 0
M  V30 6372 H 624.032 -4.13806 5.58382 0
M  V30 6373 H 627.223 -3.01475 3.58093 0
M  V30 6374 H 627.396 -3.97693 5.1161 0
M  V30 6375 N 620.802 -1.09834 -1.13024 0
M  V30 6376 C 622.027 -0.85909 -1.88771 0
M  V30 6377 C 622.452 0.584402 -1.78791 0
M  V30 6378 O 621.81 1.41101 -1.13842 0
M  V30 6379 C 621.858 -1.30427 -3.36186 0
M  V30 6380 O 620.962 -0.465368 -4.09766 0
M  V30 6381 H 620.303 -0.310786 -0.586778 0
M  V30 6382 H 622.833 -1.46355 -1.42973 0
M  V30 6383 H 622.843 -1.2915 -3.8702 0
M  V30 6384 H 621.518 -2.3555 -3.42767 0
M  V30 6385 H 620.095 -0.542814 -3.68928 0
M  V30 6386 N 622.28 1.30327 -0.886154 0
M  V30 6387 C 623.508 2.00254 -0.520176 0
M  V30 6388 C 623.923 1.66419 0.891637 0
M  V30 6389 O 623.28 0.901951 1.58654 0
M  V30 6390 C 623.331 3.54916 -0.686775 0
M  V30 6391 O 623.052 3.87547 -2.04301 0
M  V30 6392 C 624.553 4.42115 -0.323945 0
M  V30 6393 H 621.773 0.640204 -0.200947 0
M  V30 6394 H 624.317 1.66183 -1.19178 0
M  V30 6395 H 622.472 3.8735 -0.0625273 0
M  V30 6396 H 622.886 4.82247 -2.06249 0
M  V30 6397 H 624.36 5.49808 -0.491407 0
M  V30 6398 H 624.837 4.32953 0.73811 0
M  V30 6399 H 625.443 4.15129 -0.924565 0
M  V30 6400 N 623.758 0.647228 1.43697 0
M  V30 6401 C 624.986 0.16575 2.06235 0
M  V30 6402 C 625.401 -1.1662 1.48476 0
M  V30 6403 O 624.758 -1.7187 0.613762 0
M  V30 6404 C 624.809 0.0621651 3.61447 0
M  V30 6405 O 624.53 1.34146 4.17057 0
M  V30 6406 C 626.031 -0.446102 4.4105 0
M  V30 6407 H 623.251 0.0871158 0.665321 0
M  V30 6408 H 625.795 0.886183 1.84301 0
M  V30 6409 H 623.95 -0.608794 3.82587 0
M  V30 6410 H 624.364 1.19675 5.10664 0
M  V30 6411 H 625.838 -0.46755 5.50016 0
M  V30 6412 H 626.315 -1.47627 4.13646 0
M  V30 6413 H 626.921 0.192159 4.24866 0
M  V30 6414 N 625.236 -1.5273 0.388769 0
M  V30 6415 C 626.652 -1.59553 0.0387049 0
M  V30 6416 C 626.852 -1.40278 -1.44652 0
M  V30 6417 O 625.908 -1.21951 -2.21098 0
M  V30 6418 C 627.221 -2.9625 0.515409 0
M  V30 6419 C 628.769 -3.09426 0.471621 0
M  V30 6420 C 629.244 -4.48572 0.924505 0
M  V30 6421 N 630.735 -4.54754 0.880496 0
M  V30 6422 C 631.47 -5.60653 1.20234 0
M  V30 6423 N 630.966 -6.74198 1.59463 0
M  V30 6424 N 632.759 -5.50755 1.12363 0
M  V30 6425 H 624.91 -1.63508 1.35569 0
M  V30 6426 H 627.173 -0.768097 0.555636 0
M  V30 6427 H 626.879 -3.15569 1.5527 0
M  V30 6428 H 626.753 -3.77102 -0.085792 0
M  V30 6429 H 629.14 -2.89804 -0.556588 0
M  V30 6430 H 629.221 -2.30528 1.10862 0
M  V30 6431 H 628.865 -4.68936 1.95094 0
M  V30 6432 H 628.795 -5.25935 0.264524 0
M  V30 6433 H 631.286 -3.73237 0.591815 0
M  V30 6434 H 631.599 -7.5097 1.82385 0
M  V30 6435 H 629.944 -6.75531 1.63349 0
M  V30 6436 H 633.135 -4.6093 0.816169 0
M  V30 6437 H 633.308 -6.33184 1.37777 0
M  V30 6438 N 626.714 -0.118576 -1.57153 0
M  V30 6439 C 627.677 0.817464 -2.14127 0
M  V30 6440 C 628.677 1.1949 -1.07604 0
M  V30 6441 O 629.867 1.12048 -1.33382 0
M  V30 6442 C 626.999 2.10541 -2.68115 0
M  V30 6443 H 628.192 0.322339 -2.98163 0
M  V30 6444 H 625.745 0.130655 -1.55753 0
M  V30 6445 H 626.48 2.64485 -1.87665 0
M  V30 6446 H 626.265 1.84425 -3.4602 0
M  V30 6447 H 627.755 2.77453 -3.12105 0
M  V30 6448 N 628.193 1.56834 0.155195 0
M  V30 6449 C 629.103 2.009 1.21146 0
M  V30 6450 C 630.119 0.923029 1.475 0
M  V30 6451 O 631.295 1.23189 1.59331 0
M  V30 6452 C 628.36 2.37378 2.52691 0
M  V30 6453 C 627.421 3.59883 2.34057 0
M  V30 6454 C 626.654 3.94612 3.59329 0
M  V30 6455 O 626.877 3.30104 4.65175 0
M  V30 6456 O 625.811 4.87895 3.52479 0
M  V30 6457 H 629.637 2.9105 0.867371 0
M  V30 6458 H 627.222 1.44916 0.363298 0
M  V30 6459 H 629.104 2.61737 3.3026 0
M  V30 6460 H 627.779 1.50385 2.86646 0
M  V30 6461 H 626.686 3.40722 1.54465 0
M  V30 6462 H 628.019 4.47468 2.0502 0
M  V30 6463 N 629.671 -0.424282 1.51781 0
M  V30 6464 C 630.917 -1.17434 1.6534 0
M  V30 6465 C 631.25 -1.90549 0.374806 0
M  V30 6466 O 630.525 -1.84145 -0.626179 0
M  V30 6467 C 630.808 -2.18093 2.86544 0
M  V30 6468 C 630.661 -1.48975 4.24413 0
M  V30 6469 C 631.98 -3.18934 3.03264 0
M  V30 6470 H 629.099 -0.425566 0.601716 0
M  V30 6471 H 631.741 -0.461921 1.84299 0
M  V30 6472 H 629.891 -2.78849 2.7051 0
M  V30 6473 H 631.563 -0.914551 4.52143 0
M  V30 6474 H 629.806 -0.791893 4.26511 0
M  V30 6475 H 630.477 -2.22347 5.05238 0
M  V30 6476 H 632.953 -2.68243 3.18096 0
M  V30 6477 H 631.829 -3.86645 3.89611 0
M  V30 6478 H 632.09 -3.85793 2.15908 0
M  V30 6479 N 631.149 -1.42148 -0.680565 0
M  V30 6480 C 632.426 -1.32795 -1.43614 0
M  V30 6481 C 632.806 0.037415 -2.11067 0
M  V30 6482 O 632.154 1.05258 -2.02813 0
M  V30 6483 C 632.364 -2.49206 -2.44331 0
M  V30 6484 C 633.712 -2.91059 -3.09144 0
M  V30 6485 O 634.736 -2.49054 -2.54657 0
M  V30 6486 O 633.595 -3.63741 -4.07866 0
M  V30 6487 H 630.689 -0.523397 -0.640301 0
M  V30 6488 H 633.235 -1.54144 -0.709775 0
M  V30 6489 H 632.007 -3.40252 -1.93247 0
M  V30 6490 H 631.63 -2.29813 -3.24456 0
M  V30 6491 N 632.627 0.916307 -1.28225 0
M  V30 6492 C 633.557 2.0352 -1.14464 0
M  V30 6493 C 634.538 1.70045 -0.0430844 0
M  V30 6494 O 635.723 1.92954 -0.219619 0
M  V30 6495 C 632.853 3.37889 -0.803027 0
M  V30 6496 C 631.807 3.85516 -1.85908 0
M  V30 6497 C 631.133 5.1682 -1.37116 0
M  V30 6498 C 632.433 4.07655 -3.26519 0
M  V30 6499 H 634.127 2.1529 -2.08064 0
M  V30 6500 H 631.673 1.03446 -1.00174 0
M  V30 6501 H 633.626 4.15654 -0.693537 0
M  V30 6502 H 632.35 3.26164 0.168674 0
M  V30 6503 H 631.009 3.09953 -1.95767 0
M  V30 6504 H 630.657 5.01497 -0.38859 0
M  V30 6505 H 630.357 5.49657 -2.07728 0
M  V30 6506 H 631.881 5.97143 -1.27484 0
M  V30 6507 H 633.295 4.75953 -3.19596 0
M  V30 6508 H 631.692 4.51818 -3.94943 0
M  V30 6509 H 632.762 3.12553 -3.70727 0
M  V30 6510 N 634.105 1.10431 1.1244 0
M  V30 6511 C 635.351 0.847972 1.84221 0
M  V30 6512 C 635.684 -0.624903 1.83871 0
M  V30 6513 O 634.959 -1.46074 1.28423 0
M  V30 6514 C 635.242 1.39695 3.319 0
M  V30 6515 C 635.095 2.93668 3.40704 0
M  V30 6516 C 636.414 1.03924 4.27654 0
M  V30 6517 H 633.533 0.309502 0.668863 0
M  V30 6518 H 636.175 1.36745 1.31912 0
M  V30 6519 H 634.325 0.955095 3.76577 0
M  V30 6520 H 635.997 3.46379 3.04662 0
M  V30 6521 H 634.24 3.30272 2.81252 0
M  V30 6522 H 634.911 3.27162 4.446 0
M  V30 6523 H 637.387 1.42049 3.91102 0
M  V30 6524 H 636.263 1.45027 5.29394 0
M  V30 6525 H 636.524 -0.051336 4.4207 0
M  V30 6526 N 635.583 -1.29855 0.893053 0
M  V30 6527 C 636.829 -1.96116 0.516349 0
M  V30 6528 C 637.162 -1.70281 -0.933695 0
M  V30 6529 O 636.437 -1.01205 -1.66096 0
M  V30 6530 C 636.72 -3.51068 0.801455 0
M  V30 6531 C 636.573 -3.86387 2.30272 0
M  V30 6532 C 637.892 -4.39186 0.283423 0
M  V30 6533 H 635.011 -0.712335 0.189072 0
M  V30 6534 H 637.653 -1.53587 1.11852 0
M  V30 6535 H 635.803 -3.87424 0.288949 0
M  V30 6536 H 637.475 -3.60012 2.88425 0
M  V30 6537 H 635.718 -3.34167 2.76613 0
M  V30 6538 H 636.389 -4.94512 2.45279 0
M  V30 6539 H 638.865 -4.09785 0.722187 0
M  V30 6540 H 637.741 -5.46505 0.512169 0
M  V30 6541 H 638.002 -4.34511 -0.815643 0
M  V30 6542 N 637.061 -0.65484 -1.43351 0
M  V30 6543 C 637.993 0.0744757 -2.29079 0
M  V30 6544 C 639.006 0.7855 -1.42596 0
M  V30 6545 O 640.195 0.642986 -1.66517 0
M  V30 6546 C 637.295 1.12859 -3.19556 0
M  V30 6547 C 636.468 0.495381 -4.34586 0
M  V30 6548 C 635.527 1.44659 -5.05925 0
M  V30 6549 O 634.553 0.954567 -5.61139 0
M  V30 6550 N 635.755 2.78051 -5.09576 0
M  V30 6551 H 638.52 -0.661346 -2.92312 0
M  V30 6552 H 636.081 -0.497744 -1.54059 0
M  V30 6553 H 638.073 1.76577 -3.64147 0
M  V30 6554 H 636.643 1.76636 -2.57912 0
M  V30 6555 H 635.863 -0.32092 -3.92892 0
M  V30 6556 H 637.151 0.0534203 -5.08772 0
M  V30 6557 H 636.549 3.20584 -4.66093 0
M  V30 6558 H 635.106 3.37068 -5.57878 0
M  V30 6559 N 638.539 1.52521 -0.396863 0
M  V30 6560 C 639.816 1.94112 0.240842 0
M  V30 6561 C 640.196 1.33288 1.637 0
M  V30 6562 O 639.544 0.503901 2.22875 0
M  V30 6563 C 639.754 3.48033 0.259567 0
M  V30 6564 C 641.102 4.21822 0.484866 0
M  V30 6565 O 642.126 3.54579 0.339453 0
M  V30 6566 O 640.985 5.41042 0.770412 0
M  V30 6567 H 638.079 0.812973 0.151671 0
M  V30 6568 H 640.625 1.63572 -0.451918 0
M  V30 6569 H 639.397 3.84655 -0.718078 0
M  V30 6570 H 639.02 3.84899 0.996937 0
M  V30 6571 N 640.017 0.126909 1.57088 0
M  V30 6572 C 640.947 -0.816847 2.18746 0
M  V30 6573 C 641.928 -1.27161 1.12979 0
M  V30 6574 O 643.113 -1.33279 1.41246 0
M  V30 6575 C 640.243 -2.06398 2.79315 0
M  V30 6576 C 639.197 -1.74673 3.90735 0
M  V30 6577 C 638.523 -3.06482 4.38147 0
M  V30 6578 C 639.823 -1.0089 5.12463 0
M  V30 6579 H 641.517 -0.303032 2.97863 0
M  V30 6580 H 639.063 -0.144314 1.43275 0
M  V30 6581 H 641.016 -2.72885 3.2111 0
M  V30 6582 H 639.74 -2.60118 1.975 0
M  V30 6583 H 638.399 -1.10572 3.49527 0
M  V30 6584 H 638.047 -3.58152 3.5318 0
M  V30 6585 H 637.747 -2.86025 5.13287 0
M  V30 6586 H 639.271 -3.74073 4.82599 0
M  V30 6587 H 640.685 -1.57546 5.51228 0
M  V30 6588 H 639.082 -0.905006 5.93237 0
M  V30 6589 H 640.152 0.00297335 4.849 0
M  V30 6590 N 641.495 -1.56914 -0.146875 0
M  V30 6591 C 642.442 -1.98275 -1.18134 0
M  V30 6592 C 643.412 -0.850367 -1.42681 0
M  V30 6593 O 644.597 -1.11244 -1.55014 0
M  V30 6594 C 641.737 -2.36861 -2.5098 0
M  V30 6595 C 640.85 -3.63391 -2.33605 0
M  V30 6596 C 639.985 -3.91079 -3.59486 0
M  V30 6597 C 639.024 -5.10879 -3.37149 0
M  V30 6598 N 638.161 -5.34577 -4.55161 0
M  V30 6599 H 643.001 -2.8645 -0.821622 0
M  V30 6600 H 640.538 -1.41718 -0.394248 0
M  V30 6601 H 642.496 -2.57262 -3.28439 0
M  V30 6602 H 641.126 -1.51766 -2.84898 0
M  V30 6603 H 640.178 -3.50766 -1.47199 0
M  V30 6604 H 641.49 -4.51007 -2.13059 0
M  V30 6605 H 640.644 -4.11979 -4.45374 0
M  V30 6606 H 639.383 -3.01885 -3.83036 0
M  V30 6607 H 638.388 -4.89853 -2.49649 0
M  V30 6608 H 639.613 -6.01626 -3.14997 0
M  V30 6609 H 637.559 -4.48337 -4.78884 0
M  V30 6610 H 637.476 -6.16463 -4.37618 0
M  V30 6611 H 638.744 -5.59975 -5.42263 0
M  V30 6612 N 642.974 0.416227 -1.52004 0
M  V30 6613 C 643.906 1.52552 -1.71058 0
M  V30 6614 C 644.919 1.51693 -0.59102 0
M  V30 6615 O 646.108 1.56087 -0.865973 0
M  V30 6616 C 643.208 2.91455 -1.72937 0
M  V30 6617 C 642.381 3.16584 -3.01816 0
M  V30 6618 C 641.44 4.35322 -2.95603 0
M  V30 6619 O 640.466 4.32947 -3.6952 0
M  V30 6620 N 641.668 5.40049 -2.12903 0
M  V30 6621 H 644.433 1.36604 -2.66757 0
M  V30 6622 H 641.994 0.60544 -1.50153 0
M  V30 6623 H 643.986 3.68944 -1.66321 0
M  V30 6624 H 642.556 3.00895 -0.847418 0
M  V30 6625 H 641.776 2.27203 -3.22137 0
M  V30 6626 H 643.064 3.30213 -3.87088 0
M  V30 6627 H 642.462 5.44823 -1.52265 0
M  V30 6628 H 641.019 6.16308 -2.1215 0
M  V30 6629 N 644.452 1.42507 0.673017 0
M  V30 6630 C 645.415 1.4582 1.76831 0
M  V30 6631 C 646.415 0.345542 1.57043 0
M  V30 6632 O 647.605 0.606447 1.63303 0
M  V30 6633 C 644.737 1.29158 3.15485 0
M  V30 6634 H 645.93 2.43345 1.7528 0
M  V30 6635 H 643.483 1.28981 0.882817 0
M  V30 6636 H 644.218 0.325626 3.22661 0
M  V30 6637 H 644.003 2.09797 3.31252 0
M  V30 6638 H 645.493 1.34363 3.95394 0
M  V30 6639 N 645.93 -0.909495 1.28709 0
M  V30 6640 C 647.176 -1.66151 1.16283 0
M  V30 6641 C 647.509 -1.92067 -0.287069 0
M  V30 6642 O 646.784 -1.52409 -1.20837 0
M  V30 6643 C 647.067 -3.01676 1.9663 0
M  V30 6644 C 646.92 -2.82888 3.49707 0
M  V30 6645 C 648.239 -4.02274 1.78504 0
M  V30 6646 H 645.358 -0.602966 0.423793 0
M  V30 6647 H 648 -1.05418 1.58073 0
M  V30 6648 H 646.15 -3.53515 1.61119 0
M  V30 6649 H 647.822 -2.38026 3.95147 0
M  V30 6650 H 646.065 -2.17862 3.75125 0
M  V30 6651 H 646.736 -3.79147 4.01187 0
M  V30 6652 H 649.212 -3.59511 2.09503 0
M  V30 6653 H 648.088 -4.95056 2.37088 0
M  V30 6654 H 648.349 -4.35903 0.737647 0
M  V30 6655 N 647.408 -1.11026 -1.11852 0
M  V30 6656 C 648.371 -0.768006 -2.1595 0
M  V30 6657 C 649.371 0.210538 -1.59416 0
M  V30 6658 O 650.561 -0.0133978 -1.74195 0
M  V30 6659 C 647.693 -0.138678 -3.40618 0
M  V30 6660 H 648.886 -1.69012 -2.4774 0
M  V30 6661 H 646.439 -0.911578 -1.26964 0
M  V30 6662 H 647.174 0.793872 -3.14433 0
M  V30 6663 H 646.959 -0.843012 -3.8293 0
M  V30 6664 H 648.449 0.0848039 -4.17514 0
M  V30 6665 N 648.886 1.2938 -0.899927 0
M  V30 6666 C 649.818 2.26737 -0.335139 0
M  V30 6667 C 650.831 1.54316 0.518681 0
M  V30 6668 O 652.02 1.75313 0.335803 0
M  V30 6669 C 649.12 3.34558 0.540774 0
M  V30 6670 C 648.293 4.36455 -0.287372 0
M  V30 6671 C 647.352 5.2361 0.52141 0
M  V30 6672 O 646.378 5.69167 -0.0611735 0
M  V30 6673 N 647.58 5.50985 1.82745 0
M  V30 6674 H 650.345 2.75838 -1.17191 0
M  V30 6675 H 647.906 1.42716 -0.764438 0
M  V30 6676 H 649.898 3.89794 1.08825 0
M  V30 6677 H 648.468 2.85272 1.27823 0
M  V30 6678 H 647.688 3.80875 -1.01626 0
M  V30 6679 H 648.976 5.01573 -0.854518 0
M  V30 6680 H 648.374 5.15781 2.32349 0
M  V30 6681 H 646.931 6.09036 2.32204 0
M  V30 6682 N 650.364 0.662433 1.43002 0
M  V30 6683 C 651.294 -0.00979809 2.33498 0
M  V30 6684 C 652.275 -0.802329 1.49989 0
M  V30 6685 O 653.46 -0.761964 1.78627 0
M  V30 6686 C 650.59 -0.970446 3.33466 0
M  V30 6687 C 649.544 -0.287383 4.27034 0
M  V30 6688 C 648.87 -1.36012 5.17112 0
M  V30 6689 C 650.17 0.82595 5.15728 0
M  V30 6690 H 651.864 0.745959 2.89958 0
M  V30 6691 H 649.41 0.360172 1.39423 0
M  V30 6692 H 651.363 -1.44971 3.95679 0
M  V30 6693 H 650.087 -1.75748 2.75282 0
M  V30 6694 H 648.746 0.17152 3.66199 0
M  V30 6695 H 648.394 -2.13882 4.55262 0
M  V30 6696 H 648.094 -0.908276 5.80538 0
M  V30 6697 H 649.618 -1.84056 5.82199 0
M  V30 6698 H 651.032 0.42845 5.71697 0
M  V30 6699 H 649.429 1.20282 5.87922 0
M  V30 6700 H 650.499 1.68003 4.54866 0
M  V30 6701 N 651.842 -1.52309 0.404946 0
M  V30 6702 C 652.752 -2.30634 -0.429555 0
M  V30 6703 C 653.768 -1.38187 -1.05737 0
M  V30 6704 O 654.944 -1.71261 -1.05979 0
M  V30 6705 C 652.009 -3.10947 -1.53339 0
M  V30 6706 C 651.07 -4.19126 -0.929065 0
M  V30 6707 C 650.303 -4.95601 -1.9803 0
M  V30 6708 O 650.526 -4.72331 -3.1978 0
M  V30 6709 O 649.46 -5.80551 -1.58886 0
M  V30 6710 H 653.286 -3.0298 0.208963 0
M  V30 6711 H 650.871 -1.4845 0.168255 0
M  V30 6712 H 652.753 -3.60974 -2.1743 0
M  V30 6713 H 651.428 -2.41399 -2.15658 0
M  V30 6714 H 650.335 -3.73257 -0.250982 0
M  V30 6715 H 651.668 -4.90955 -0.349855 0
M  V30 6716 N 653.32 -0.135238 -1.57019 0
M  V30 6717 C 654.597 0.563227 -1.87316 0
M  V30 6718 C 654.977 1.83749 -1.03921 0
M  V30 6719 O 654.325 2.2817 -0.122675 0
M  V30 6720 C 654.535 0.840031 -3.3874 0
M  V30 6721 C 655.883 1.18598 -4.077 0
M  V30 6722 O 656.907 0.92977 -3.43851 0
M  V30 6723 O 655.766 1.66758 -5.20436 0
M  V30 6724 H 652.86 0.285971 -0.775983 0
M  V30 6725 H 655.406 -0.170965 -1.68837 0
M  V30 6726 H 654.178 -0.0622785 -3.9125 0
M  V30 6727 H 653.801 1.62882 -3.62706 0
M  V30 6728 N 654.798 1.5699 0.138552 0
M  V30 6729 C 655.73 1.95515 1.1961 0
M  V30 6730 C 656.743 0.852002 1.38726 0
M  V30 6731 O 657.932 1.13038 1.38147 0
M  V30 6732 C 655.032 2.2213 2.55952 0
M  V30 6733 C 654.205 3.53424 2.57702 0
M  V30 6734 C 653.264 3.6848 3.75645 0
M  V30 6735 O 652.29 4.4079 3.60129 0
M  V30 6736 N 653.492 3.05777 4.93438 0
M  V30 6737 H 656.257 2.86838 0.868557 0
M  V30 6738 H 653.818 1.58542 0.328033 0
M  V30 6739 H 655.81 2.29435 3.33379 0
M  V30 6740 H 654.38 1.3703 2.80965 0
M  V30 6741 H 653.6 3.57484 1.6613 0
M  V30 6742 H 654.888 4.39759 2.55909 0
M  V30 6743 H 654.286 2.46961 5.08947 0
M  V30 6744 H 652.843 3.18631 5.6861 0
M  V30 6745 N 656.276 -0.40816 1.52223 0
M  V30 6746 C 657.239 -1.48 1.7501 0
M  V30 6747 C 658.239 -1.48367 0.619996 0
M  V30 6748 O 659.429 -1.49874 0.887881 0
M  V30 6749 C 656.561 -2.87403 1.83336 0
M  V30 6750 H 657.754 -1.29086 2.70697 0
M  V30 6751 H 655.307 -0.638715 1.42654 0
M  V30 6752 H 656.042 -3.11686 0.895677 0
M  V30 6753 H 655.827 -2.8854 2.65494 0
M  V30 6754 H 657.317 -3.65103 2.02705 0
M  V30 6755 O 657.793 -1.51699 -0.554045 0
M  V30 6756 H 658.484 -1.51323 -1.20918 0
M  V30 END ATOM
M  V30 BEGIN BOND
M  V30 END BOND
M  V30 END CTAB
M  END
$$$$
