drugbank_target|Q96I99 Succinyl-CoA ligase [GDP-forming] subunit beta, mitochondrial (DB12695)
 OpenBabel12092119303D

  0  0  0     0  0            999 V3000
M  V30 BEGIN CTAB
M  V30 COUNTS 6621 6663 0 0 0
M  V30 BEGIN ATOM
M  V30 1 H -0.908 1.98254 -0.117106 0
M  V30 2 N 0 1.576 0 0
M  V30 3 C 0.933 2.03868 1.02534 0
M  V30 4 C 1.911 0.928543 1.3348 0
M  V30 5 O 3.095 1.19667 1.45644 0
M  V30 6 C 0.222 2.43627 2.35294 0
M  V30 7 C -0.732 3.65373 2.2001 0
M  V30 8 S 0.101 5.13292 1.52614 0
M  V30 9 C 1.257 5.56322 2.86805 0
M  V30 10 H 1.49 2.90518 0.631377 0
M  V30 11 H -0.977 1.52953 0.210867 0
M  V30 12 H 0.981 2.67203 3.11629 0
M  V30 13 H -0.358 1.57376 2.7183 0
M  V30 14 H -1.165 3.90944 3.18086 0
M  V30 15 H -1.563 3.418 1.51819 0
M  V30 16 H 0.729 5.58782 3.83104 0
M  V30 17 H 1.672 6.56266 2.65933 0
M  V30 18 H 2.08 4.83886 2.90714 0
M  V30 19 N 1.4781 -0.272755 1.55222 0
M  V30 20 C 2.4411 -1.32041 1.87344 0
M  V30 21 C 3.4411 -1.42342 0.74803 0
M  V30 22 O 4.6311 -1.41488 1.0162 0
M  V30 23 C 1.7631 -2.70173 2.07893 0
M  V30 24 H 2.9561 -1.04789 2.80997 0
M  V30 25 H 0.5091 -0.51083 1.47717 0
M  V30 26 H 1.2441 -3.02605 1.16622 0
M  V30 27 H 1.0291 -2.64082 2.89833 0
M  V30 28 H 2.5191 -3.45869 2.34017 0
M  V30 29 N 2.9562 -1.48159 -0.537278 0
M  V30 30 C 4.1812 -1.59707 -1.32319 0
M  V30 31 C 4.6062 -0.254859 -1.86365 0
M  V30 32 O 3.9642 0.772378 -1.64024 0
M  V30 33 C 4.0122 -2.6412 -2.45505 0
M  V30 34 O 3.1162 -2.20774 -3.48328 0
M  V30 35 H 2.4572 -0.535791 -0.392204 0
M  V30 36 H 4.9872 -1.94092 -0.647268 0
M  V30 37 H 4.9972 -2.85166 -2.91795 0
M  V30 38 H 3.6722 -3.61567 -2.05528 0
M  V30 39 H 2.2492 -2.09911 -3.08207 0
M  V30 40 N 4.4343 0.785586 -1.36625 0
M  V30 41 C 5.8453 1.36101 -1.27803 0
M  V30 42 C 6.1963 1.96035 0.0804875 0
M  V30 43 O 5.3213 1.92834 0.982042 0
M  V30 44 C 5.9163 2.47442 -2.31426 0
M  V30 45 C 4.4753 3.00789 -2.26281 0
M  V30 46 C 3.6223 1.73896 -2.15999 0
M  V30 47 H 6.5733 0.586928 -1.47448 0
M  V30 48 H 6.5943 3.2656 -1.95291 0
M  V30 49 H 6.1063 2.03791 -3.30289 0
M  V30 50 H 4.2073 3.48851 -1.30896 0
M  V30 51 H 4.3203 3.57343 -3.19128 0
M  V30 52 H 2.6843 1.9628 -1.62316 0
M  V30 53 H 3.4673 1.32368 -3.16755 0
M  V30 54 N 5.9124 1.20967 1.01018 0
M  V30 55 C 7.1584 1.02526 1.74975 0
M  V30 56 C 7.4914 -0.4408 1.89131 0
M  V30 57 O 6.7664 -1.32718 1.42184 0
M  V30 58 C 7.0494 1.71699 3.1653 0
M  V30 59 C 6.9024 3.25791 3.10129 0
M  V30 60 C 8.2214 1.45531 4.15342 0
M  V30 61 H 5.3404 0.373863 0.635134 0
M  V30 62 H 7.9824 1.49071 1.17805 0
M  V30 63 H 6.1324 1.32128 3.65341 0
M  V30 64 H 7.8044 3.74697 2.69072 0
M  V30 65 H 6.0474 3.56363 2.47362 0
M  V30 66 H 6.7184 3.69353 4.10222 0
M  V30 67 H 9.1944 1.79872 3.75213 0
M  V30 68 H 8.0704 1.96453 5.1254 0
M  V30 69 H 8.3314 0.384237 4.40427 0
M  V30 70 N 7.3905 -1.2043 1.01659 0
M  V30 71 C 8.3535 -2.21433 0.591616 0
M  V30 72 C 9.3535 -1.57203 -0.338226 0
M  V30 73 O 10.5435 -1.73737 -0.126918 0
M  V30 74 C 7.6755 -3.40628 -0.136058 0
M  V30 75 H 8.8685 -2.60545 1.48514 0
M  V30 76 H 6.4215 -1.33893 0.806379 0
M  V30 77 H 7.1565 -3.07019 -1.04449 0
M  V30 78 H 6.9415 -3.88475 0.531917 0
M  V30 79 H 8.4315 -4.15475 -0.420735 0
M  V30 80 N 8.8686 -0.792821 -1.36206 0
M  V30 81 C 9.8316 -0.199459 -2.2833 0
M  V30 82 C 10.8316 0.605189 -1.48977 0
M  V30 83 O 12.0216 0.425685 -1.68919 0
M  V30 84 C 9.1536 0.723523 -3.33134 0
M  V30 85 H 10.3466 -1.01181 -2.82316 0
M  V30 86 H 7.8996 -0.562485 -1.45828 0
M  V30 87 H 8.6346 1.56008 -2.84309 0
M  V30 88 H 8.4196 0.148436 -3.91819 0
M  V30 89 H 9.9096 1.13344 -4.01924 0
M  V30 90 N 10.3467 1.47872 -0.545128 0
M  V30 91 C 11.2787 2.27869 0.246621 0
M  V30 92 C 12.2917 1.36282 0.890561 0
M  V30 93 O 13.4807 1.61207 0.766449 0
M  V30 94 C 10.5807 3.10159 1.36582 0
M  V30 95 C 9.7537 4.29627 0.820954 0
M  V30 96 C 8.8127 4.93607 1.82314 0
M  V30 97 O 7.8387 5.52366 1.37406 0
M  V30 98 N 9.0407 4.87211 3.15603 0
M  V30 99 H 11.8057 2.96459 -0.439539 0
M  V30 100 H 9.3667 1.57367 -0.380421 0
M  V30 101 H 11.3587 3.49829 2.03474 0
M  V30 102 H 9.9287 2.43891 1.9554 0
M  V30 103 H 9.1487 3.94192 -0.0244032 0
M  V30 104 H 10.4367 5.06928 0.436063 0
M  V30 105 H 9.8347 4.40651 3.54744 0
M  V30 106 H 8.3917 5.30937 3.78087 0
M  V30 107 N 11.8248 0.280983 1.55075 0
M  V30 108 C 12.7878 -0.590896 2.21452 0
M  V30 109 C 13.7878 -1.07682 1.19421 0
M  V30 110 O 14.9778 -0.97605 1.44288 0
M  V30 111 C 12.1098 -1.81587 2.88511 0
M  V30 112 H 13.3028 -0.0112554 2.99898 0
M  V30 113 H 10.8558 0.0316438 1.56268 0
M  V30 114 H 11.5908 -2.43587 2.14093 0
M  V30 115 H 11.3758 -1.4753 3.63287 0
M  V30 116 H 12.8658 -2.43575 3.39206 0
M  V30 117 N 13.3029 -1.57598 0.00835791 0
M  V30 118 C 14.5509 -1.90551 -0.6734 0
M  V30 119 C 14.8719 -0.883301 -1.73847 0
M  V30 120 O 14.1419 0.0781442 -1.95744 0
M  V30 121 H 12.7219 -0.703312 -0.251717 0
M  V30 122 H 15.3839 -1.94833 0.0512592 0
M  V30 123 H 14.4799 -2.9056 -1.13935 0
M  V30 124 N 14.781 0.264519 -1.55364 0
M  V30 125 C 15.728 1.32717 -1.88825 0
M  V30 126 C 16.698 1.48675 -0.740605 0
M  V30 127 O 17.883 1.62945 -0.992657 0
M  V30 128 C 15.023 2.68089 -2.17307 0
M  V30 129 C 14.136 2.60284 -3.44785 0
M  V30 130 C 13.271 3.87892 -3.62924 0
M  V30 131 C 12.31 3.74631 -4.84064 0
M  V30 132 N 11.447 4.94092 -4.98816 0
M  V30 133 H 16.287 1.03481 -2.79456 0
M  V30 134 H 13.824 0.499757 -1.3835 0
M  V30 135 H 15.782 3.46864 -2.31821 0
M  V30 136 H 14.412 2.95509 -1.299 0
M  V30 137 H 13.464 1.73173 -3.38697 0
M  V30 138 H 14.776 2.46388 -4.33698 0
M  V30 139 H 13.93 4.75109 -3.77302 0
M  V30 140 H 12.669 4.04664 -2.7221 0
M  V30 141 H 11.674 2.85797 -4.69681 0
M  V30 142 H 12.899 3.5937 -5.76221 0
M  V30 143 H 10.845 5.11259 -4.11036 0
M  V30 144 H 10.762 4.8276 -5.81789 0
M  V30 145 H 12.03 5.82857 -5.17588 0
M  V30 146 N 16.2591 1.48442 0.529413 0
M  V30 147 C 17.1891 1.65902 1.64313 0
M  V30 148 C 18.1701 0.507897 1.6234 0
M  V30 149 O 19.3551 0.740503 1.79528 0
M  V30 150 C 16.4851 1.69911 3.02898 0
M  V30 151 C 15.4391 2.8453 3.19729 0
M  V30 152 C 14.7651 2.73629 4.59381 0
M  V30 153 C 16.0651 4.25821 3.02447 0
M  V30 154 H 17.7591 2.5914 1.49955 0
M  V30 155 H 15.3051 1.24709 0.719982 0
M  V30 156 H 17.2581 1.80715 3.80684 0
M  V30 157 H 15.9821 0.732524 3.18279 0
M  V30 158 H 14.6411 2.73283 2.44361 0
M  V30 159 H 14.2891 1.74938 4.71599 0
M  V30 160 H 13.9891 3.50541 4.71588 0
M  V30 161 H 15.5131 2.86401 5.39265 0
M  V30 162 H 16.9271 4.37898 3.70024 0
M  V30 163 H 15.3241 5.03735 3.26146 0
M  V30 164 H 16.3941 4.42244 1.98867 0
M  V30 165 N 17.7372 -0.778329 1.37039 0
M  V30 166 C 18.6672 -1.90546 1.34962 0
M  V30 167 C 19.6482 -1.68681 0.219274 0
M  V30 168 O 20.8332 -1.89634 0.418624 0
M  V30 169 C 17.9632 -3.27734 1.14925 0
M  V30 170 C 16.9172 -3.64147 2.24902 0
M  V30 171 C 16.2432 -4.99806 1.89996 0
M  V30 172 C 17.5432 -3.71579 3.67051 0
M  V30 173 H 19.2372 -1.92541 2.29277 0
M  V30 174 H 16.7832 -0.924948 1.10366 0
M  V30 175 H 18.7362 -4.06215 1.12104 0
M  V30 176 H 17.4602 -3.26154 0.170631 0
M  V30 177 H 16.1192 -2.8797 2.26868 0
M  V30 178 H 15.7672 -4.94759 0.906796 0
M  V30 179 H 15.4672 -5.25139 2.63634 0
M  V30 180 H 16.9912 -5.80694 1.88749 0
M  V30 181 H 18.4052 -4.40227 3.67251 0
M  V30 182 H 16.8022 -4.08405 4.39688 0
M  V30 183 H 17.8722 -2.72404 4.01154 0
M  V30 184 N 19.2153 -1.21501 -1.00376 0
M  V30 185 C 20.6313 -0.972629 -1.26539 0
M  V30 186 C 20.8313 0.340257 -1.98606 0
M  V30 187 O 19.8873 1.06561 -2.28913 0
M  V30 188 C 21.2003 -2.16404 -2.08781 0
M  V30 189 C 22.7483 -2.20643 -2.22004 0
M  V30 190 C 23.2233 -3.39306 -3.07629 0
M  V30 191 N 24.7143 -3.39401 -3.15217 0
M  V30 192 C 25.4493 -4.27867 -3.81729 0
M  V30 193 N 24.9453 -5.26533 -4.5026 0
M  V30 194 N 26.7383 -4.15672 -3.78382 0
M  V30 195 H 18.8893 -2.05929 -0.520281 0
M  V30 196 H 21.1523 -0.901803 -0.292328 0
M  V30 197 H 20.8583 -3.11554 -1.63178 0
M  V30 198 H 20.7323 -2.15567 -3.09533 0
M  V30 199 H 23.1193 -1.26048 -2.66825 0
M  V30 200 H 23.2003 -2.25523 -1.20718 0
M  V30 201 H 22.8443 -4.34195 -2.63509 0
M  V30 202 H 22.7743 -3.31665 -4.09031 0
M  V30 203 H 25.2653 -2.67997 -2.66432 0
M  V30 204 H 25.5783 -5.90337 -4.98721 0
M  V30 205 H 23.9233 -5.30457 -4.49044 0
M  V30 206 H 27.1143 -3.3785 -3.23998 0
M  V30 207 H 27.2873 -4.84825 -4.2994 0
M  V30 208 N 20.6934 1.19889 -1.02296 0
M  V30 209 C 21.6564 2.21116 -0.603351 0
M  V30 210 C 22.6564 1.5738 0.329884 0
M  V30 211 O 23.8464 1.73802 0.117702 0
M  V30 212 C 20.9784 3.40696 0.117992 0
M  V30 213 H 22.1714 2.59754 -1.49893 0
M  V30 214 H 19.7244 1.33463 -0.813468 0
M  V30 215 H 20.4594 3.07569 1.0282 0
M  V30 216 H 20.2444 3.88188 -0.552511 0
M  V30 217 H 21.7344 4.15692 0.398696 0
M  V30 218 N 22.1715 0.800033 1.35784 0
M  V30 219 C 23.1015 0.220184 2.3246 0
M  V30 220 C 24.0825 -0.65073 1.57161 0
M  V30 221 O 25.2675 -0.582359 1.85263 0
M  V30 222 C 22.3975 -0.637353 3.41402 0
M  V30 223 C 21.3515 0.134531 4.27789 0
M  V30 224 C 20.6775 -0.844285 5.27992 0
M  V30 225 C 21.9775 1.32979 5.05088 0
M  V30 226 H 23.6715 1.02787 2.81203 0
M  V30 227 H 21.2175 0.495717 1.35199 0
M  V30 228 H 23.1705 -1.05302 4.08031 0
M  V30 229 H 21.8945 -1.47785 2.91251 0
M  V30 230 H 20.5535 0.531296 3.6273 0
M  V30 231 H 20.2015 -1.68011 4.74111 0
M  V30 232 H 19.9015 -0.332184 5.8666 0
M  V30 233 H 21.4255 -1.2583 5.97494 0
M  V30 234 H 22.8395 0.98934 5.64699 0
M  V30 235 H 21.2365 1.77593 5.7322 0
M  V30 236 H 22.3065 2.11978 4.36111 0
M  V30 237 N 23.6496 -1.47581 0.552962 0
M  V30 238 C 24.6126 -2.28439 -0.186605 0
M  V30 239 C 25.6126 -1.36706 -0.84665 0
M  V30 240 O 26.8026 -1.59378 -0.703164 0
M  V30 241 C 23.9346 -3.16264 -1.2724 0
M  V30 242 H 25.1276 -2.95294 0.523609 0
M  V30 243 H 22.6806 -1.532 0.309745 0
M  V30 244 H 23.4156 -2.54091 -2.01514 0
M  V30 245 H 23.2006 -3.83769 -0.803968 0
M  V30 246 H 24.6906 -3.77198 -1.79196 0
M  V30 247 N 25.1277 -0.289203 -1.54924 0
M  V30 248 C 26.0577 0.58549 -2.2604 0
M  V30 249 C 27.0387 1.14753 -1.25562 0
M  V30 250 O 28.2237 1.17906 -1.54311 0
M  V30 251 C 25.3537 1.76305 -2.99222 0
M  V30 252 C 24.3077 1.33191 -4.06748 0
M  V30 253 C 23.6337 2.5937 -4.6758 0
M  V30 254 C 24.9337 0.471775 -5.20165 0
M  V30 255 H 26.6277 -0.00763532 -2.99399 0
M  V30 256 H 24.1737 -0.00511229 -1.43999 0
M  V30 257 H 26.1267 2.38097 -3.47689 0
M  V30 258 H 24.8507 2.38223 -2.23422 0
M  V30 259 H 23.5097 0.737121 -3.59113 0
M  V30 260 H 23.1577 3.19576 -3.88433 0
M  V30 261 H 22.8577 2.31228 -5.40192 0
M  V30 262 H 24.3817 3.21985 -5.18804 0
M  V30 263 H 25.7957 0.995056 -5.64599 0
M  V30 264 H 24.1927 0.284639 -5.99425 0
M  V30 265 H 25.2627 -0.506041 -4.82252 0
M  V30 266 N 26.6058 1.57591 -0.0167156 0
M  V30 267 C 28.0218 1.55946 0.339557 0
M  V30 268 C 28.2218 1.02109 1.73713 0
M  V30 269 O 27.2778 0.662303 2.43659 0
M  V30 270 C 28.5908 3.00037 0.199499 0
M  V30 271 C 30.1388 3.11805 0.273193 0
M  V30 272 C 30.6138 4.57713 0.162068 0
M  V30 273 N 32.1048 4.6268 0.219444 0
M  V30 274 C 32.8398 5.73185 0.157054 0
M  V30 275 N 32.3358 6.92786 0.0442936 0
M  V30 276 N 34.1288 5.61707 0.21014 0
M  V30 277 H 26.2798 1.90921 -0.930758 0
M  V30 278 H 28.5428 0.877674 -0.358319 0
M  V30 279 H 28.2488 3.4333 -0.76273 0
M  V30 280 H 28.1228 3.64387 0.974786 0
M  V30 281 H 30.5098 2.68433 1.22587 0
M  V30 282 H 30.5908 2.50201 -0.532256 0
M  V30 283 H 30.2348 5.01763 -0.78714 0
M  V30 284 H 30.1648 5.17283 0.986222 0
M  V30 285 H 32.6558 3.76649 0.307246 0
M  V30 286 H 32.9688 7.728 0.00304069 0
M  V30 287 H 31.3138 6.94999 0.00968457 0
M  V30 288 H 34.5048 4.6716 0.296546 0
M  V30 289 H 34.6778 6.47807 0.158054 0
M  V30 290 N 28.0839 -0.256276 1.55502 0
M  V30 291 C 29.4949 -0.826068 1.67431 0
M  V30 292 C 29.8459 -1.86396 0.612446 0
M  V30 293 O 28.9709 -2.15031 -0.243025 0
M  V30 294 C 29.5659 -1.50512 3.03532 0
M  V30 295 C 28.1249 -2.02273 3.17431 0
M  V30 296 C 27.2719 -0.870548 2.63281 0
M  V30 297 H 30.2229 -0.0322728 1.58667 0
M  V30 298 H 30.2439 -2.37279 2.97454 0
M  V30 299 H 29.7559 -0.749484 3.80794 0
M  V30 300 H 27.8569 -2.80746 2.44974 0
M  V30 301 H 27.9699 -2.22655 4.24219 0
M  V30 302 H 26.3339 -1.26851 2.20864 0
M  V30 303 H 27.1169 -0.128149 3.43061 0
M  V30 304 N 29.562 -1.4872 -0.521534 0
M  V30 305 C 30.978 -1.35028 -0.850855 0
M  V30 306 C 31.178 -0.367712 -1.98116 0
M  V30 307 O 30.234 0.208037 -2.51642 0
M  V30 308 C 31.547 -2.75263 -1.21041 0
M  V30 309 C 33.095 -2.83813 -1.31981 0
M  V30 310 C 33.57 -4.24769 -1.71276 0
M  V30 311 N 35.061 -4.27482 -1.78363 0
M  V30 312 C 35.796 -5.33494 -2.1017 0
M  V30 313 N 35.292 -6.49775 -2.40343 0
M  V30 314 N 37.085 -5.20894 -2.11248 0
M  V30 315 H 29.236 -2.11214 0.22413 0
M  V30 316 H 31.499 -0.947252 0.0376439 0
M  V30 317 H 31.205 -3.48765 -0.453415 0
M  V30 318 H 31.079 -3.09327 -2.15863 0
M  V30 319 H 33.466 -2.10561 -2.06756 0
M  V30 320 H 33.547 -2.53358 -0.352596 0
M  V30 321 H 33.191 -4.9854 -0.970588 0
M  V30 322 H 33.121 -4.52673 -2.69062 0
M  V30 323 H 35.612 -3.43611 -1.57288 0
M  V30 324 H 35.925 -7.26402 -2.63743 0
M  V30 325 H 34.27 -6.53035 -2.37844 0
M  V30 326 H 37.461 -4.29065 -1.87139 0
M  V30 327 H 37.634 -6.03612 -2.35704 0
M  V30 328 N 31.0401 0.771051 -1.3745 0
M  V30 329 C 32.2871 1.52963 -1.32697 0
M  V30 330 C 32.6151 1.94299 0.0883274 0
M  V30 331 O 31.8701 1.64397 1.0617 0
M  V30 332 C 32.1691 2.80676 -2.2126 0
M  V30 333 C 31.8351 2.58389 -3.69521 0
M  V30 334 C 30.4971 2.52019 -4.09927 0
M  V30 335 C 32.8491 2.38469 -4.63446 0
M  V30 336 C 30.1771 2.23721 -5.42371 0
M  V30 337 C 32.5291 2.11694 -5.96128 0
M  V30 338 C 31.1931 2.03769 -6.35637 0
M  V30 339 H 30.4631 0.559732 -0.485573 0
M  V30 340 H 33.1101 0.888083 -1.69662 0
M  V30 341 H 31.4151 3.49392 -1.77291 0
M  V30 342 H 33.1121 3.38557 -2.14895 0
M  V30 343 H 29.7021 2.6421 -3.37478 0
M  V30 344 H 33.8861 2.4238 -4.33089 0
M  V30 345 H 29.1421 2.16081 -5.71943 0
M  V30 346 H 33.3161 1.9528 -6.6846 0
M  V30 347 H 30.9431 1.81606 -7.38189 0
M  V30 348 N 32.5182 1.22032 0.997298 0
M  V30 349 C 33.4482 1.01065 2.10495 0
M  V30 350 C 34.4292 -0.0669542 1.69968 0
M  V30 351 O 35.6142 0.0943987 1.9397 0
M  V30 352 C 32.7442 0.582874 3.42374 0
M  V30 353 C 31.6982 1.60592 3.96729 0
M  V30 354 C 31.0242 1.03412 5.24605 0
M  V30 355 C 32.3242 2.99478 4.27914 0
M  V30 356 H 34.0182 1.93708 2.28292 0
M  V30 357 H 31.5642 0.932761 1.09707 0
M  V30 358 H 33.5172 0.423332 4.19268 0
M  V30 359 H 32.2412 -0.379213 3.24391 0
M  V30 360 H 30.9002 1.75316 3.21963 0
M  V30 361 H 30.5482 0.063518 5.0296 0
M  V30 362 H 30.2482 1.71754 5.61938 0
M  V30 363 H 31.7722 0.886066 6.04137 0
M  V30 364 H 33.1862 2.88153 4.95622 0
M  V30 365 H 31.5832 3.64903 4.76409 0
M  V30 366 H 32.6532 3.49742 3.3587 0
M  V30 367 N 33.9963 -1.19345 1.0293 0
M  V30 368 C 34.9593 -2.20793 0.615069 0
M  V30 369 C 35.9593 -1.57553 -0.321533 0
M  V30 370 O 37.1493 -1.73862 -0.108483 0
M  V30 371 C 34.2813 -3.40754 -0.0999222 0
M  V30 372 H 35.4743 -2.58955 1.51269 0
M  V30 373 H 33.0273 -1.3303 0.820534 0
M  V30 374 H 33.7623 -3.0811 -1.01187 0
M  V30 375 H 33.5473 -3.87889 0.57309 0
M  V30 376 H 35.0373 -4.15898 -0.376645 0
M  V30 377 N 35.4744 -0.807222 -1.35358 0
M  V30 378 C 36.4374 -0.223665 -2.28106 0
M  V30 379 C 37.4374 0.589354 -1.4961 0
M  V30 380 O 38.6274 0.407745 -1.69361 0
M  V30 381 C 35.7594 0.688149 -3.33882 0
M  V30 382 H 36.9524 -1.04169 -2.81227 0
M  V30 383 H 34.5054 -0.577921 -1.45223 0
M  V30 384 H 35.2404 1.52984 -2.85948 0
M  V30 385 H 35.0254 0.10687 -3.91954 0
M  V30 386 H 36.5154 1.09075 -4.03104 0
M  V30 387 N 36.9525 1.47285 -0.560781 0
M  V30 388 C 38.2005 2.02064 -0.0379868 0
M  V30 389 C 38.5215 1.43711 1.31803 0
M  V30 390 O 37.7915 0.61362 1.86042 0
M  V30 391 H 36.3715 0.746918 -0.0110531 0
M  V30 392 H 39.0335 1.80648 -0.731598 0
M  V30 393 H 38.1295 3.12064 0.0474463 0
M  V30 394 N 38.4306 0.297415 1.54768 0
M  V30 395 C 39.6556 -0.318435 2.04941 0
M  V30 396 C 40.0806 -1.4701 1.17345 0
M  V30 397 O 39.4386 -1.80436 0.176758 0
M  V30 398 C 39.4866 -0.755749 3.52592 0
M  V30 399 O 38.5906 -1.86088 3.68028 0
M  V30 400 H 37.9316 -0.062421 0.661059 0
M  V30 401 H 40.4616 0.438215 1.99852 0
M  V30 402 H 40.4716 -1.04552 3.94376 0
M  V30 403 H 39.1466 0.0867233 4.1581 0
M  V30 404 H 37.7236 -1.57193 3.38149 0
M  V30 405 N 39.9087 -1.5758 0.0250728 0
M  V30 406 C 40.8407 -2.06869 -0.986796 0
M  V30 407 C 41.8537 -0.991332 -1.29137 0
M  V30 408 O 43.0427 -1.26761 -1.25674 0
M  V30 409 C 40.1427 -2.47486 -2.31525 0
M  V30 410 C 39.3157 -3.78253 -2.19643 0
M  V30 411 C 38.3747 -4.05464 -3.35388 0
M  V30 412 O 37.4007 -4.75774 -3.12454 0
M  V30 413 N 38.6027 -3.55321 -4.59051 0
M  V30 414 H 41.3677 -2.94302 -0.566276 0
M  V30 415 H 38.9287 -1.6109 -0.161776 0
M  V30 416 H 40.9207 -2.62785 -3.07776 0
M  V30 417 H 39.4907 -1.65441 -2.65232 0
M  V30 418 H 38.7107 -3.7279 -1.28144 0
M  V30 419 H 39.9987 -4.63936 -2.08903 0
M  V30 420 H 39.3967 -2.98431 -4.80578 0
M  V30 421 H 37.9537 -3.75905 -5.32483 0
M  V30 422 N 41.3868 0.248026 -1.55636 0
M  V30 423 C 42.3498 1.29044 -1.89421 0
M  V30 424 C 43.3498 1.41134 -0.770581 0
M  V30 425 O 44.5398 1.39854 -1.03858 0
M  V30 426 C 41.6718 2.66831 -2.12165 0
M  V30 427 H 42.8648 1.00305 -2.82629 0
M  V30 428 H 40.4178 0.487265 -1.48511 0
M  V30 429 H 41.1528 3.00711 -1.21422 0
M  V30 430 H 40.9378 2.59438 -2.93997 0
M  V30 431 H 42.4278 3.42103 -2.3949 0
M  V30 432 N 42.8649 1.48995 0.513639 0
M  V30 433 C 44.1109 1.58076 1.27042 0
M  V30 434 C 44.4439 0.261026 1.92438 0
M  V30 435 O 43.7189 -0.734393 1.80103 0
M  V30 436 C 44.0019 2.73091 2.34719 0
M  V30 437 C 43.8549 4.14821 1.73907 0
M  V30 438 C 45.1739 2.83796 3.36375 0
M  V30 439 H 42.2929 0.575391 0.460536 0
M  V30 440 H 44.9349 1.81232 0.570516 0
M  V30 441 H 43.0849 2.53479 2.94416 0
M  V30 442 H 44.7569 4.45917 1.18135 0
M  V30 443 H 42.9999 4.21058 1.0437 0
M  V30 444 H 43.6709 4.91147 2.51949 0
M  V30 445 H 46.1469 3.01611 2.86653 0
M  V30 446 H 45.0229 3.65971 4.09093 0
M  V30 447 H 45.2839 1.92624 3.9793 0
M  V30 448 N 44.343 -0.763751 1.37857 0
M  V30 449 C 45.275 -1.88664 1.30148 0
M  V30 450 C 46.288 -1.61365 0.215685 0
M  V30 451 O 47.477 -1.72134 0.472459 0
M  V30 452 C 44.577 -3.24075 0.991396 0
M  V30 453 C 43.75 -3.78958 2.18426 0
M  V30 454 C 42.809 -4.92862 1.8432 0
M  V30 455 O 41.835 -5.08027 2.56704 0
M  V30 456 N 43.037 -5.75071 0.792081 0
M  V30 457 H 45.802 -1.95791 2.26905 0
M  V30 458 H 43.363 -0.943226 1.31586 0
M  V30 459 H 45.355 -3.97804 0.743935 0
M  V30 460 H 43.925 -3.12399 0.112122 0
M  V30 461 H 43.145 -2.96913 2.59299 0
M  V30 462 H 44.433 -4.12357 2.98058 0
M  V30 463 H 43.831 -5.65375 0.191595 0
M  V30 464 H 42.388 -6.48991 0.60449 0
M  V30 465 N 45.8211 -1.22559 -0.990812 0
M  V30 466 C 46.7511 -1.0218 -2.09956 0
M  V30 467 C 47.7321 0.0579394 -1.70001 0
M  V30 468 O 48.9171 -0.104684 -1.93918 0
M  V30 469 C 46.0471 -0.601023 -3.4206 0
M  V30 470 C 45.0011 -1.62694 -3.95872 0
M  V30 471 C 44.3271 -1.06193 -5.24049 0
M  V30 472 C 45.6271 -3.01743 -4.2632 0
M  V30 473 H 47.3211 -1.94916 -2.27262 0
M  V30 474 H 44.8671 -0.938566 -1.09211 0
M  V30 475 H 46.8201 -0.445561 -4.19038 0
M  V30 476 H 45.5441 0.362005 -3.24588 0
M  V30 477 H 44.2031 -1.77021 -3.21028 0
M  V30 478 H 43.8511 -0.0901903 -5.02919 0
M  V30 479 H 43.5511 -1.74732 -5.61019 0
M  V30 480 H 45.0751 -0.918092 -6.03658 0
M  V30 481 H 46.4891 -2.90777 -4.94087 0
M  V30 482 H 44.8861 -3.67425 -4.74467 0
M  V30 483 H 45.9561 -3.51518 -3.34011 0
M  V30 484 N 47.2992 1.18797 -1.03562 0
M  V30 485 C 48.5272 1.92599 -0.755869 0
M  V30 486 C 48.9422 1.75886 0.686271 0
M  V30 487 O 48.2992 1.08517 1.46732 0
M  V30 488 C 48.3502 3.44159 -1.10619 0
M  V30 489 O 48.0712 3.60341 -2.4917 0
M  V30 490 C 49.5722 4.3507 -0.850214 0
M  V30 491 H 46.7922 0.611587 -0.276048 0
M  V30 492 H 49.3362 1.50742 -1.38192 0
M  V30 493 H 47.4912 3.83823 -0.525194 0
M  V30 494 H 47.9052 4.54128 -2.62427 0
M  V30 495 H 49.3792 5.39989 -1.14523 0
M  V30 496 H 49.8562 4.38673 0.215176 0
M  V30 497 H 50.4622 4.01097 -1.41426 0
M  V30 498 N 48.7773 0.814389 1.34928 0
M  V30 499 C 50.0023 0.410097 2.03305 0
M  V30 500 C 50.4273 -0.973464 1.60951 0
M  V30 501 O 49.7853 -1.63185 0.789964 0
M  V30 502 C 49.8333 0.51049 3.56968 0
M  V30 503 O 48.9373 -0.473035 4.09678 0
M  V30 504 H 48.2783 0.170088 0.641846 0
M  V30 505 H 50.8083 1.10244 1.72358 0
M  V30 506 H 50.8183 0.383135 4.06197 0
M  V30 507 H 49.4933 1.51963 3.87144 0
M  V30 508 H 48.0703 -0.305272 3.71648 0
M  V30 509 N 50.2554 -1.46986 0.568584 0
M  V30 510 C 51.6714 -1.57946 0.229189 0
M  V30 511 C 51.8714 -1.56567 -1.26843 0
M  V30 512 O 50.9274 -1.47511 -2.04931 0
M  V30 513 C 52.2404 -2.87963 0.865909 0
M  V30 514 C 53.7884 -3.01568 0.838188 0
M  V30 515 C 54.2634 -4.34301 1.45419 0
M  V30 516 N 55.7544 -4.40965 1.41788 0
M  V30 517 C 56.4894 -5.42256 1.86403 0
M  V30 518 N 55.9854 -6.50297 2.38926 0
M  V30 519 N 57.7784 -5.3337 1.77405 0
M  V30 520 H 49.9294 -1.46126 1.54146 0
M  V30 521 H 52.1924 -0.696156 0.643484 0
M  V30 522 H 51.8984 -2.94742 1.91886 0
M  V30 523 H 51.7724 -3.75423 0.365687 0
M  V30 524 H 54.1594 -2.94379 -0.206106 0
M  V30 525 H 54.2404 -2.1562 1.37629 0
M  V30 526 H 53.8844 -4.42247 2.49761 0
M  V30 527 H 53.8144 -5.19 0.891435 0
M  V30 528 H 56.3054 -3.63484 1.03381 0
M  V30 529 H 56.6184 -7.23777 2.70863 0
M  V30 530 H 54.9634 -6.51155 2.42944 0
M  V30 531 H 58.1544 -4.47865 1.3614 0
M  V30 532 H 58.3274 -6.12169 2.12492 0
M  V30 533 N 51.7335 -0.305618 -1.54608 0
M  V30 534 C 53.1495 0.0476228 -1.59529 0
M  V30 535 C 53.3495 1.52025 -1.32252 0
M  V30 536 O 52.4055 2.27368 -1.09818 0
M  V30 537 C 53.7185 -0.354471 -2.98603 0
M  V30 538 C 55.2665 -0.303622 -3.11524 0
M  V30 539 C 55.7415 -0.680608 -4.52915 0
M  V30 540 N 57.2325 -0.63332 -4.5885 0
M  V30 541 C 57.9675 -0.897432 -5.66334 0
M  V30 542 N 57.4635 -1.22775 -6.81834 0
M  V30 543 N 59.2565 -0.824186 -5.56025 0
M  V30 544 H 51.4075 -1.2653 -1.70599 0
M  V30 545 H 53.6705 -0.513291 -0.797017 0
M  V30 546 H 53.3765 -1.3798 -3.23503 0
M  V30 547 H 53.2505 0.289568 -3.76087 0
M  V30 548 H 55.6375 0.712472 -2.8637 0
M  V30 549 H 55.7185 -0.982348 -2.36185 0
M  V30 550 H 55.3625 -1.69453 -4.78799 0
M  V30 551 H 55.2925 0.0202385 -5.26596 0
M  V30 552 H 57.7835 -0.389138 -3.75891 0
M  V30 553 H 58.0965 -1.41513 -7.59733 0
M  V30 554 H 56.4415 -1.26583 -6.83375 0
M  V30 555 H 59.6325 -0.565748 -4.64669 0
M  V30 556 H 59.8055 -1.03338 -6.39707 0
M  V30 557 N 53.2116 1.57565 -0.0334293 0
M  V30 558 C 54.4576 1.93088 0.639417 0
M  V30 559 C 54.8126 0.910589 1.69488 0
M  V30 560 O 54.1056 -0.0727725 1.91462 0
M  V30 561 C 54.2996 3.33112 1.29504 0
M  V30 562 C 54.1286 4.48667 0.304604 0
M  V30 563 C 52.8986 5.05207 -0.0970777 0
M  V30 564 C 55.0966 5.1239 -0.442845 0
M  V30 565 N 53.0786 6.04286 -1.08223 0
M  V30 566 C 54.4496 6.06609 -1.28161 0
M  V30 567 C 56.5046 4.95352 -0.50308 0
M  V30 568 C 55.2076 6.85622 -2.17519 0
M  V30 569 C 57.2336 5.74978 -1.38401 0
M  V30 570 C 56.5956 6.68816 -2.21054 0
M  V30 571 H 52.6946 0.754335 0.206161 0
M  V30 572 H 55.2786 1.94435 -0.101613 0
M  V30 573 H 53.4496 3.32576 2.00618 0
M  V30 574 H 55.1816 3.55972 1.92525 0
M  V30 575 H 51.9366 4.72782 0.278255 0
M  V30 576 H 52.3606 6.58516 -1.57117 0
M  V30 577 H 57.0026 4.22625 0.121694 0
M  V30 578 H 54.7206 7.57652 -2.81049 0
M  V30 579 H 58.3066 5.63826 -1.43496 0
M  V30 580 H 57.1866 7.29355 -2.88116 0
M  V30 581 N 54.6897 -0.239769 1.55765 0
M  V30 582 C 55.6197 -1.30052 1.9393 0
M  V30 583 C 56.6007 -1.49839 0.805132 0
M  V30 584 O 57.7857 -1.62328 1.06599 0
M  V30 585 C 54.9157 -2.65391 2.2402 0
M  V30 586 C 53.8697 -2.60289 3.39755 0
M  V30 587 C 53.1957 -3.99489 3.55405 0
M  V30 588 C 54.4957 -2.16654 4.75246 0
M  V30 589 H 56.1897 -0.983573 2.82783 0
M  V30 590 H 53.7357 -0.471701 1.36055 0
M  V30 591 H 55.6887 -3.3974 2.49308 0
M  V30 592 H 54.4127 -2.98736 1.32 0
M  V30 593 H 53.0717 -1.88398 3.14487 0
M  V30 594 H 52.7197 -4.30112 2.60793 0
M  V30 595 H 52.4197 -3.96962 4.33238 0
M  V30 596 H 53.9437 -4.75528 3.83022 0
M  V30 597 H 55.3577 -2.80737 4.99859 0
M  V30 598 H 53.7547 -2.25223 5.56232 0
M  V30 599 H 54.8247 -1.11835 4.71827 0
M  V30 600 N 56.1678 -1.49265 -0.50573 0
M  V30 601 C 57.1158 -1.66065 -1.62866 0
M  V30 602 C 58.1098 -0.526636 -1.61006 0
M  V30 603 O 59.3158 -0.706126 -1.65571 0
M  V30 604 H 55.6908 -0.52356 -0.539805 0
M  V30 605 H 57.6618 -2.60329 -1.45848 0
M  V30 606 C 56.4108 -1.74008 -3.01026 0
M  V30 607 H 55.7338 -2.6064 -3.03161 0
M  V30 608 H 57.1738 -1.89798 -3.79147 0
M  V30 609 C 55.6328 -0.483868 -3.33407 0
M  V30 610 O 56.1628 0.392548 -3.99777 0
M  V30 611 N 54.3688 -0.348236 -2.88506 0
M  V30 612 H 53.9158 -1.06242 -2.34671 0
M  V30 613 H 53.8738 0.491204 -3.10539 0
M  V30 614 N 57.6459 0.756429 -1.3826 0
M  V30 615 C 58.5759 1.88374 -1.37976 0
M  V30 616 C 59.5569 1.68311 -0.246082 0
M  V30 617 O 60.7419 1.88944 -0.44874 0
M  V30 618 C 57.8719 3.25864 -1.20125 0
M  V30 619 C 56.8259 3.60523 -2.30666 0
M  V30 620 C 56.1519 4.9672 -1.97923 0
M  V30 621 C 57.4519 3.65692 -3.72916 0
M  V30 622 H 59.1459 1.88869 -2.32312 0
M  V30 623 H 56.6919 0.907272 -1.11824 0
M  V30 624 H 58.6449 4.0438 -1.18552 0
M  V30 625 H 57.3689 3.25841 -0.222498 0
M  V30 626 H 56.0279 2.84324 -2.3142 0
M  V30 627 H 55.6759 4.93253 -0.985393 0
M  V30 628 H 55.3759 5.20878 -2.71955 0
M  V30 629 H 56.8999 5.77618 -1.97964 0
M  V30 630 H 58.3139 4.34328 -3.74208 0
M  V30 631 H 56.7109 4.01358 -4.4613 0
M  V30 632 H 57.7809 2.65987 -4.05436 0
M  V30 633 N 59.124 1.23083 0.984299 0
M  V30 634 C 60.056 0.96636 2.07832 0
M  V30 635 C 61.069 -0.0582135 1.62696 0
M  V30 636 O 62.258 0.176843 1.77622 0
M  V30 637 C 59.358 0.433397 3.36117 0
M  V30 638 C 58.531 1.51722 4.10243 0
M  V30 639 C 57.59 0.989821 5.16807 0
M  V30 640 O 56.616 1.67794 5.43906 0
M  V30 641 N 57.818 -0.184367 5.80207 0
M  V30 642 H 60.583 1.90824 2.31098 0
M  V30 643 H 58.144 1.13888 1.1507 0
M  V30 644 H 60.136 0.065699 4.04647 0
M  V30 645 H 58.706 -0.413806 3.09849 0
M  V30 646 H 57.926 2.05786 3.36223 0
M  V30 647 H 59.214 2.24619 4.56534 0
M  V30 648 H 58.612 -0.760062 5.60571 0
M  V30 649 H 57.169 -0.493366 6.4993 0
M  V30 650 N 60.6021 -1.18246 1.0419 0
M  V30 651 C 61.5121 -2.25574 0.644476 0
M  V30 652 C 62.5281 -1.70845 -0.329826 0
M  V30 653 O 63.7041 -2.00554 -0.184443 0
M  V30 654 C 60.7691 -3.46697 0.014877 0
M  V30 655 C 59.8301 -4.16554 1.03834 0
M  V30 656 C 59.0631 -5.31894 0.438692 0
M  V30 657 O 59.2861 -5.65385 -0.754752 0
M  V30 658 O 58.2201 -5.90459 1.168 0
M  V30 659 H 62.0461 -2.61836 1.53869 0
M  V30 660 H 59.6311 -1.25352 0.812854 0
M  V30 661 H 61.5131 -4.20062 -0.335538 0
M  V30 662 H 60.1881 -3.12255 -0.853138 0
M  V30 663 H 59.0951 -3.45251 1.44057 0
M  V30 664 H 60.4281 -4.54998 1.87716 0
M  V30 665 N 62.0802 -0.821533 -1.34494 0
M  V30 666 C 63.3102 -0.421272 -2.02259 0
M  V30 667 C 63.7182 0.977047 -1.6202 0
M  V30 668 O 63.0612 1.64348 -0.820703 0
M  V30 669 C 63.1232 -0.44231 -3.56769 0
M  V30 670 C 62.7872 -1.79372 -4.20327 0
M  V30 671 C 63.7842 -2.75435 -4.40944 0
M  V30 672 C 61.4692 -2.08182 -4.57127 0
M  V30 673 C 63.4632 -3.98482 -4.97484 0
M  V30 674 C 61.1502 -3.31489 -5.13379 0
M  V30 675 C 62.1482 -4.26457 -5.33501 0
M  V30 676 O 61.8362 -5.47585 -5.88562 0
M  V30 677 H 61.5682 -0.167473 -0.654927 0
M  V30 678 H 64.1222 -1.11073 -1.72777 0
M  V30 679 H 62.3522 0.303836 -3.85505 0
M  V30 680 H 64.0412 -0.0622925 -4.05852 0
M  V30 681 H 64.8072 -2.54473 -4.12878 0
M  V30 682 H 60.6862 -1.35066 -4.4077 0
M  V30 683 H 64.2302 -4.72618 -5.13106 0
M  V30 684 H 60.1272 -3.52316 -5.40873 0
M  V30 685 H 60.8952 -5.49086 -6.06998 0
M  V30 686 N 63.5583 1.46682 -0.576371 0
M  V30 687 C 64.4903 2.28341 0.198231 0
M  V30 688 C 65.5033 1.38141 0.861453 0
M  V30 689 O 66.6923 1.62797 0.732082 0
M  V30 690 C 63.7923 3.12986 1.29972 0
M  V30 691 C 62.9653 4.31271 0.729639 0
M  V30 692 C 62.0243 4.97363 1.71803 0
M  V30 693 O 61.0503 5.55156 1.25658 0
M  V30 694 N 62.2523 4.93796 3.05198 0
M  V30 695 H 65.0173 2.9546 -0.502324 0
M  V30 696 H 62.5783 1.56525 -0.413715 0
M  V30 697 H 64.5703 3.54066 1.96008 0
M  V30 698 H 63.1403 2.47984 1.90323 0
M  V30 699 H 62.3603 3.94052 -0.108012 0
M  V30 700 H 63.6483 5.07739 0.328438 0
M  V30 701 H 63.0463 4.48077 3.45317 0
M  V30 702 H 61.6033 5.38837 3.6674 0
M  V30 703 N 65.0364 0.313813 1.54444 0
M  V30 704 C 66.2614 -0.296681 2.05267 0
M  V30 705 C 66.6864 -1.45757 1.18897 0
M  V30 706 O 66.0444 -1.80239 0.195886 0
M  V30 707 C 66.0924 -0.71831 3.53373 0
M  V30 708 O 65.1964 -1.82175 3.69981 0
M  V30 709 H 64.5374 -0.0554061 0.661684 0
M  V30 710 H 67.0674 0.459387 1.99376 0
M  V30 711 H 67.0774 -1.00364 3.95463 0
M  V30 712 H 65.7524 0.130821 4.15694 0
M  V30 713 H 64.3294 -1.53598 3.39797 0
M  V30 714 N 66.5145 -1.57545 0.0417849 0
M  V30 715 C 67.4615 -2.10977 -0.935805 0
M  V30 716 C 68.4315 -1.01486 -1.31491 0
M  V30 717 O 69.6165 -1.2898 -1.40602 0
M  V30 718 C 66.7565 -2.65169 -2.2086 0
M  V30 719 C 65.8695 -3.88714 -1.88482 0
M  V30 720 C 65.0045 -4.31254 -3.1015 0
M  V30 721 C 64.0435 -5.47524 -2.7365 0
M  V30 722 N 63.1805 -5.85162 -3.87982 0
M  V30 723 H 68.0205 -2.94218 -0.473249 0
M  V30 724 H 65.5575 -1.45415 -0.221981 0
M  V30 725 H 67.5155 -2.94685 -2.95325 0
M  V30 726 H 66.1455 -1.8474 -2.64709 0
M  V30 727 H 65.1975 -3.65849 -1.04205 0
M  V30 728 H 66.5095 -4.73245 -1.57608 0
M  V30 729 H 65.6635 -4.62273 -3.92923 0
M  V30 730 H 64.4025 -3.45516 -3.44195 0
M  V30 731 H 63.4075 -5.16187 -1.89291 0
M  V30 732 H 64.6325 -6.34971 -2.40807 0
M  V30 733 H 62.5785 -5.02377 -4.21846 0
M  V30 734 H 62.4955 -6.64362 -3.60775 0
M  V30 735 H 63.7635 -6.20791 -4.71422 0
M  V30 736 N 67.9926 0.231505 -1.5589 0
M  V30 737 C 68.9396 1.28682 -1.91598 0
M  V30 738 C 69.9096 1.47071 -0.771974 0
M  V30 739 O 71.0946 1.60802 -1.027 0
M  V30 740 C 68.2346 2.6342 -2.22944 0
M  V30 741 C 67.3476 2.52912 -3.50228 0
M  V30 742 C 66.4826 3.80106 -3.7107 0
M  V30 743 C 65.5216 3.64279 -4.91902 0
M  V30 744 N 64.6586 4.834 -5.09184 0
M  V30 745 H 69.4986 0.975305 -2.81588 0
M  V30 746 H 67.0356 0.470299 -1.39379 0
M  V30 747 H 68.9936 3.41869 -2.39126 0
M  V30 748 H 67.6236 2.92687 -1.36139 0
M  V30 749 H 66.6756 1.6595 -3.42294 0
M  V30 750 H 67.9876 2.37133 -4.38827 0
M  V30 751 H 67.1416 4.66999 -3.87295 0
M  V30 752 H 65.8806 3.98799 -2.80733 0
M  V30 753 H 64.8856 2.7577 -4.75637 0
M  V30 754 H 66.1106 3.47067 -5.83714 0
M  V30 755 H 64.0566 5.02425 -4.21788 0
M  V30 756 H 63.9736 4.70311 -5.91898 0
M  V30 757 H 65.2416 5.71747 -5.29835 0
M  V30 758 N 69.4707 1.49531 0.497807 0
M  V30 759 C 70.4007 1.6935 1.60757 0
M  V30 760 C 71.3817 0.542218 1.61227 0
M  V30 761 O 72.5667 0.778417 1.77917 0
M  V30 762 C 69.6967 1.76298 2.99226 0
M  V30 763 C 68.6507 2.91248 3.13622 0
M  V30 764 C 67.9767 2.83312 4.53474 0
M  V30 765 C 69.2767 4.3214 2.93346 0
M  V30 766 H 70.9707 2.62263 1.44425 0
M  V30 767 H 68.5167 1.26208 0.693367 0
M  V30 768 H 70.4697 1.88749 3.76765 0
M  V30 769 H 69.1937 0.799871 3.16654 0
M  V30 770 H 67.8527 2.78404 2.38509 0
M  V30 771 H 67.5007 1.84902 4.67782 0
M  V30 772 H 67.2007 3.60465 4.64046 0
M  V30 773 H 68.7247 2.97775 5.33069 0
M  V30 774 H 70.1387 4.45649 3.60652 0
M  V30 775 H 68.5357 5.1054 3.15387 0
M  V30 776 H 69.6057 4.46363 1.89441 0
M  V30 777 N 70.9488 -0.749086 1.3866 0
M  V30 778 C 71.8818 -1.87111 1.30631 0
M  V30 779 C 72.8598 -1.61572 0.18251 0
M  V30 780 O 74.0438 -1.85019 0.360592 0
M  V30 781 C 71.1708 -3.22815 1.02511 0
M  V30 782 C 70.2168 -3.67234 2.1689 0
M  V30 783 S 71.0498 -3.78245 3.79066 0
M  V30 784 C 72.2058 -5.16761 3.53142 0
M  V30 785 H 72.4388 -1.93636 2.25594 0
M  V30 786 H 69.9718 -0.912525 1.24549 0
M  V30 787 H 71.9298 -4.01181 0.869701 0
M  V30 788 H 70.5908 -3.13964 0.0925884 0
M  V30 789 H 69.7838 -4.65677 1.92771 0
M  V30 790 H 69.3858 -2.96034 2.28561 0
M  V30 791 H 71.6778 -6.02656 3.09534 0
M  V30 792 H 72.6208 -5.45902 4.50995 0
M  V30 793 H 73.0288 -4.85771 2.87554 0
M  V30 794 N 72.4269 -1.23603 -0.977757 0
M  V30 795 C 73.6519 -1.09735 -1.75991 0
M  V30 796 C 74.0769 0.346858 -1.84874 0
M  V30 797 O 73.4349 1.25093 -1.3123 0
M  V30 798 C 73.4829 -1.73051 -3.16363 0
M  V30 799 O 72.5869 -0.994452 -4.0023 0
M  V30 800 H 71.9279 -0.384476 -0.541364 0
M  V30 801 H 74.4579 -1.6371 -1.2272 0
M  V30 802 H 74.4679 -1.78398 -3.66931 0
M  V30 803 H 73.1429 -2.78137 -3.09213 0
M  V30 804 H 71.7199 -1.01812 -3.58732 0
M  V30 805 N 73.905 1.17692 -1.04816 0
M  V30 806 C 75.182 1.83768 -0.669963 0
M  V30 807 C 75.562 1.93232 0.849986 0
M  V30 808 O 74.91 1.46397 1.75443 0
M  V30 809 C 75.12 3.21641 -1.35455 0
M  V30 810 C 76.468 3.97592 -1.49017 0
M  V30 811 O 77.492 3.31107 -1.31326 0
M  V30 812 O 76.351 5.16729 -1.77914 0
M  V30 813 H 73.445 0.792799 -0.235368 0
M  V30 814 H 75.991 1.25021 -1.14751 0
M  V30 815 H 74.763 3.097 -2.39168 0
M  V30 816 H 74.386 3.88052 -0.866107 0
M  V30 817 N 75.3831 0.828654 1.34056 0
M  V30 818 C 76.3311 0.242973 2.31327 0
M  V30 819 C 77.3251 -0.61944 1.57668 0
M  V30 820 O 78.5311 -0.51014 1.7262 0
M  V30 821 H 74.9061 0.059834 0.749616 0
M  V30 822 H 76.8771 1.07809 2.78244 0
M  V30 823 C 75.6261 -0.575733 3.429 0
M  V30 824 H 74.9491 0.0785582 3.99723 0
M  V30 825 H 76.3891 -0.951547 4.13185 0
M  V30 826 C 74.8481 -1.75044 2.87856 0
M  V30 827 O 75.3781 -2.84882 2.83205 0
M  V30 828 N 73.5841 -1.56903 2.44602 0
M  V30 829 H 73.1311 -0.675547 2.48584 0
M  V30 830 H 73.0891 -2.35652 2.08124 0
M  V30 831 N 76.8612 -1.46375 0.584142 0
M  V30 832 C 78.1092 -2.01978 0.0701287 0
M  V30 833 C 78.4302 -1.4579 -1.295 0
M  V30 834 O 77.7002 -0.64314 -1.85042 0
M  V30 835 H 76.2802 -0.746648 0.0229345 0
M  V30 836 H 78.9422 -1.79461 0.760245 0
M  V30 837 H 78.0382 -3.121 0.0022064 0
M  V30 838 N 78.3393 -0.321999 -1.54275 0
M  V30 839 C 79.5853 0.281461 -2.00837 0
M  V30 840 C 79.9183 1.51909 -1.20985 0
M  V30 841 O 79.1933 1.923 -0.291733 0
M  V30 842 C 79.4763 0.617162 -3.54772 0
M  V30 843 C 79.3293 -0.631064 -4.45351 0
M  V30 844 C 80.6483 1.43542 -4.16033 0
M  V30 845 H 77.7673 0.100826 -0.730071 0
M  V30 846 H 80.4093 -0.438268 -1.84876 0
M  V30 847 H 78.5593 1.23034 -3.68504 0
M  V30 848 H 80.2313 -1.26934 -4.43492 0
M  V30 849 H 78.4743 -1.26025 -4.15091 0
M  V30 850 H 79.1453 -0.351735 -5.50878 0
M  V30 851 H 81.6213 0.917134 -4.05867 0
M  V30 852 H 80.4973 1.63907 -5.23856 0
M  V30 853 H 80.7583 2.43108 -3.69257 0
M  V30 854 N 79.8174 1.5752 -0.0501392 0
M  V30 855 C 81.2334 1.56631 0.306402 0
M  V30 856 C 81.4334 1.0577 1.71508 0
M  V30 857 O 80.4894 0.713837 2.422 0
M  V30 858 C 81.8024 3.00393 0.135811 0
M  V30 859 C 83.3504 3.12315 0.206993 0
M  V30 860 C 83.8254 4.57954 0.064944 0
M  V30 861 N 85.3164 4.63041 0.121254 0
M  V30 862 C 86.0514 5.73389 0.0354381 0
M  V30 863 N 85.5474 6.92724 -0.102666 0
M  V30 864 N 87.3404 5.62026 0.090946 0
M  V30 865 H 79.4914 1.88903 -0.971046 0
M  V30 866 H 81.7544 0.869876 -0.376855 0
M  V30 867 H 81.4604 3.41635 -0.835384 0
M  V30 868 H 81.3344 3.66373 0.897275 0
M  V30 869 H 83.7214 2.70973 1.16866 0
M  V30 870 H 83.8024 2.49016 -0.585208 0
M  V30 871 H 83.4464 4.99981 -0.893394 0
M  V30 872 H 83.3764 5.19258 0.876277 0
M  V30 873 H 85.8674 3.77216 0.227284 0
M  V30 874 H 86.1804 7.72633 -0.160882 0
M  V30 875 H 84.5254 6.94864 -0.137737 0
M  V30 876 H 87.7164 4.67684 0.197388 0
M  V30 877 H 87.8894 6.47997 0.0206089 0
M  V30 878 N 81.2955 -0.223234 1.56011 0
M  V30 879 C 82.5415 -0.949279 1.79211 0
M  V30 880 C 82.8745 -1.84054 0.619494 0
M  V30 881 O 82.1495 -1.90726 -0.381317 0
M  V30 882 C 82.4325 -1.78965 3.12479 0
M  V30 883 C 82.2855 -0.924997 4.40186 0
M  V30 884 C 83.6045 -2.76774 3.42175 0
M  V30 885 H 80.7235 -0.343676 0.651963 0
M  V30 886 H 83.3655 -0.218253 1.88742 0
M  V30 887 H 81.5155 -2.41291 3.04485 0
M  V30 888 H 83.1875 -0.318615 4.60198 0
M  V30 889 H 81.4305 -0.230344 4.33188 0
M  V30 890 H 82.1015 -1.54735 5.29869 0
M  V30 891 H 84.5775 -2.24584 3.50287 0
M  V30 892 H 83.4535 -3.32678 4.36597 0
M  V30 893 H 83.7145 -3.54429 2.64258 0
M  V30 894 N 82.7736 -1.49793 -0.48987 0
M  V30 895 C 83.7056 -1.63413 -1.60713 0
M  V30 896 C 84.7186 -0.516329 -1.54395 0
M  V30 897 O 85.9076 -0.788812 -1.60125 0
M  V30 898 C 83.0076 -1.58516 -2.99543 0
M  V30 899 C 82.1806 -2.86016 -3.30928 0
M  V30 900 C 81.2396 -2.74018 -4.49222 0
M  V30 901 O 80.2656 -3.47964 -4.50455 0
M  V30 902 N 81.4676 -1.86309 -5.4979 0
M  V30 903 H 84.2326 -2.59777 -1.49452 0
M  V30 904 H 81.7936 -1.47022 -0.677955 0
M  V30 905 H 83.7856 -1.48128 -3.76617 0
M  V30 906 H 82.3556 -0.69965 -3.0467 0
M  V30 907 H 81.5756 -3.10672 -2.42645 0
M  V30 908 H 82.8636 -3.70521 -3.487 0
M  V30 909 H 82.2616 -1.2551 -5.51601 0
M  V30 910 H 80.8186 -1.81837 -6.25922 0
M  V30 911 N 84.2517 0.741722 -1.39055 0
M  V30 912 C 85.6677 1.04638 -1.20512 0
M  V30 913 C 85.8677 2.01405 -0.0620218 0
M  V30 914 O 84.9237 2.45547 0.588457 0
M  V30 915 C 86.2367 1.6151 -2.53643 0
M  V30 916 C 87.7847 1.73623 -2.6043 0
M  V30 917 C 88.2597 2.33906 -3.93767 0
M  V30 918 N 89.7507 2.41323 -3.9537 0
M  V30 919 C 90.4857 2.88888 -4.95309 0
M  V30 920 N 89.9817 3.36401 -6.05645 0
M  V30 921 N 91.7747 2.88037 -4.82692 0
M  V30 922 H 83.9257 0.0998155 -2.12165 0
M  V30 923 H 86.1887 0.106907 -0.941953 0
M  V30 924 H 85.8947 0.978739 -3.37807 0
M  V30 925 H 85.7687 2.60411 -2.72885 0
M  V30 926 H 88.1557 2.36384 -1.76655 0
M  V30 927 H 88.2367 0.733945 -2.45045 0
M  V30 928 H 87.8807 1.71776 -4.7797 0
M  V30 929 H 87.8107 3.34799 -4.06469 0
M  V30 930 H 90.3017 2.07734 -3.15682 0
M  V30 931 H 90.6147 3.71186 -6.77821 0
M  V30 932 H 88.9597 3.34427 -6.09248 0
M  V30 933 H 92.1507 2.50237 -3.95599 0
M  V30 934 H 92.3237 3.24792 -5.60726 0
M  V30 935 N 85.7298 1.2412 0.971189 0
M  V30 936 C 86.9768 1.07881 1.71371 0
M  V30 937 C 87.3048 -0.382901 1.90694 0
M  V30 938 O 86.5598 -1.29945 1.46331 0
M  V30 939 C 86.8588 1.75983 3.11071 0
M  V30 940 C 86.5248 3.25909 3.11599 0
M  V30 941 C 85.1868 3.66813 3.11451 0
M  V30 942 C 87.5388 4.21771 3.062 0
M  V30 943 C 84.8668 5.02021 3.03631 0
M  V30 944 C 87.2188 5.56982 2.99923 0
M  V30 945 C 85.8828 5.97237 2.98102 0
M  V30 946 H 85.1528 0.394764 0.62709 0
M  V30 947 H 87.7998 1.54176 1.13587 0
M  V30 948 H 86.1048 1.22072 3.72298 0
M  V30 949 H 87.8018 1.60887 3.6731 0
M  V30 950 H 84.3918 2.93353 3.12477 0
M  V30 951 H 88.5758 3.91172 3.05447 0
M  V30 952 H 83.8318 5.32411 3.0058 0
M  V30 953 H 88.0058 6.30969 2.94704 0
M  V30 954 H 85.6328 7.01967 2.91798 0
M  V30 955 N 87.2079 -1.17134 1.05439 0
M  V30 956 C 88.4549 -1.87456 0.765942 0
M  V30 957 C 88.7829 -1.81189 -0.707153 0
M  V30 958 O 88.0379 -1.21633 -1.5331 0
M  V30 959 C 88.3369 -3.36833 1.19491 0
M  V30 960 C 88.0029 -3.63301 2.67063 0
M  V30 961 C 86.6649 -3.70234 3.07376 0
M  V30 962 C 89.0169 -3.74575 3.62413 0
M  V30 963 C 86.3449 -3.85933 4.41896 0
M  V30 964 C 88.6969 -3.91793 4.9667 0
M  V30 965 C 87.3609 -3.96966 5.36633 0
M  V30 966 H 86.6309 -0.685948 0.280278 0
M  V30 967 H 89.2779 -1.38556 1.32192 0
M  V30 968 H 87.5829 -3.87807 0.557969 0
M  V30 969 H 89.2799 -3.89611 0.948893 0
M  V30 970 H 85.8699 -3.58532 2.34846 0
M  V30 971 H 90.0539 -3.68537 3.32406 0
M  V30 972 H 85.3099 -3.88187 4.72357 0
M  V30 973 H 89.4839 -3.99458 5.70444 0
M  V30 974 H 87.1109 -4.08883 6.40874 0
M  V30 975 N 88.686 -0.835752 -1.33615 0
M  V30 976 C 89.932 -0.430596 -1.98176 0
M  V30 977 C 90.265 1.00684 -1.66061 0
M  V30 978 O 89.54 1.70339 -0.938877 0
M  V30 979 C 89.823 -0.648065 -3.5422 0
M  V30 980 C 89.676 -2.13255 -3.96033 0
M  V30 981 C 90.995 -0.0922113 -4.40003 0
M  V30 982 H 88.114 -0.157924 -0.719881 0
M  V30 983 H 90.756 -1.05069 -1.58305 0
M  V30 984 H 88.906 -0.120237 -3.88314 0
M  V30 985 H 90.578 -2.725 -3.72211 0
M  V30 986 H 88.821 -2.61823 -3.45878 0
M  V30 987 H 89.492 -2.23547 -5.04708 0
M  V30 988 H 91.968 -0.543343 -4.12537 0
M  V30 989 H 90.844 -0.274083 -5.48215 0
M  V30 990 H 91.105 1.00378 -4.30554 0
M  V30 991 N 90.1641 1.46063 -0.591896 0
M  V30 992 C 91.1271 2.28854 0.125973 0
M  V30 993 C 92.1271 1.38903 0.810107 0
M  V30 994 O 93.3171 1.61186 0.66066 0
M  V30 995 C 90.4491 3.19526 1.1881 0
M  V30 996 H 91.6421 2.93802 -0.601717 0
M  V30 997 H 89.1951 1.52325 -0.350254 0
M  V30 998 H 89.9301 2.59345 1.94707 0
M  V30 999 H 89.7151 3.85766 0.701936 0
M  V30 1000 H 91.2051 3.81817 1.69132 0
M  V30 1001 N 91.6422 0.330177 1.54103 0
M  V30 1002 C 92.9192 -0.325007 1.92881 0
M  V30 1003 C 93.2992 -1.6934 1.26045 0
M  V30 1004 O 92.6472 -2.24855 0.406526 0
M  V30 1005 C 92.8572 -0.410634 3.46576 0
M  V30 1006 C 94.2052 -0.667801 4.19316 0
M  V30 1007 O 95.2292 -0.49329 3.52768 0
M  V30 1008 O 94.0882 -1.00491 5.37181 0
M  V30 1009 H 91.1822 -0.186873 0.80561 0
M  V30 1010 H 93.7282 0.380376 1.65382 0
M  V30 1011 H 92.5002 0.550164 3.87413 0
M  V30 1012 H 92.1232 -1.16333 3.802 0
M  V30 1013 N 93.1203 -1.57491 0.0584922 0
M  V30 1014 C 94.3483 -1.97296 -0.623037 0
M  V30 1015 C 94.7633 -0.936338 -1.63946 0
M  V30 1016 O 94.1203 0.0785981 -1.82331 0
M  V30 1017 C 94.1713 -3.37183 -1.30345 0
M  V30 1018 O 93.8923 -4.36872 -0.32773 0
M  V30 1019 C 95.3933 -3.91788 -2.07406 0
M  V30 1020 H 92.6133 -0.649153 -0.169826 0
M  V30 1021 H 95.1573 -2.04106 0.12696 0
M  V30 1022 H 93.3123 -3.31502 -2.00463 0
M  V30 1023 H 93.7263 -5.18141 -0.814269 0
M  V30 1024 H 95.2003 -4.91926 -2.50425 0
M  V30 1025 H 95.6773 -3.27609 -2.92521 0
M  V30 1026 H 96.2833 -4.00829 -1.42184 0
M  V30 1027 N 94.5984 0.214957 -1.56127 0
M  V30 1028 C 95.5614 1.24997 -1.92116 0
M  V30 1029 C 96.5614 1.39467 -0.800344 0
M  V30 1030 O 97.7514 1.37619 -1.06802 0
M  V30 1031 C 94.8834 2.62271 -2.17777 0
M  V30 1032 H 96.0764 0.942875 -2.84693 0
M  V30 1033 H 93.6294 0.455654 -1.49511 0
M  V30 1034 H 94.3644 2.98068 -1.27773 0
M  V30 1035 H 94.1494 2.53143 -2.99434 0
M  V30 1036 H 95.6394 3.36946 -2.46693 0
M  V30 1037 N 96.0765 1.50051 0.48192 0
M  V30 1038 C 97.0245 1.68635 1.60203 0
M  V30 1039 C 98.0185 0.552184 1.60148 0
M  V30 1040 O 99.2245 0.732377 1.64427 0
M  V30 1041 H 95.5995 0.532081 0.531407 0
M  V30 1042 H 97.5705 2.62616 1.41688 0
M  V30 1043 C 96.3195 1.78775 2.9822 0
M  V30 1044 H 95.6425 2.6543 2.98976 0
M  V30 1045 H 97.0825 1.95806 3.7608 0
M  V30 1046 C 95.5415 0.536849 3.32595 0
M  V30 1047 O 96.0715 -0.328897 4.00351 0
M  V30 1048 N 94.2775 0.394091 2.87915 0
M  V30 1049 H 93.8245 1.09962 2.32951 0
M  V30 1050 H 93.7825 -0.441737 3.11281 0
M  V30 1051 N 97.5546 -0.734337 1.39446 0
M  V30 1052 C 98.4646 -1.87879 1.40495 0
M  V30 1053 C 99.4806 -1.714 0.299672 0
M  V30 1054 O 100.657 -1.93991 0.541249 0
M  V30 1055 C 97.7216 -3.23477 1.24754 0
M  V30 1056 C 96.7826 -3.52344 2.45259 0
M  V30 1057 C 96.0156 -4.81473 2.30259 0
M  V30 1058 O 96.2386 -5.55237 1.30643 0
M  V30 1059 O 95.1726 -5.10254 3.19256 0
M  V30 1060 H 98.9986 -1.89949 2.36966 0
M  V30 1061 H 96.5836 -0.882243 1.20569 0
M  V30 1062 H 98.4656 -4.04509 1.18111 0
M  V30 1063 H 97.1406 -3.22176 0.313781 0
M  V30 1064 H 96.0476 -2.71396 2.57478 0
M  V30 1065 H 97.3806 -3.58426 3.37331 0
M  V30 1066 N 99.0327 -1.24633 -0.964593 0
M  V30 1067 C 99.9957 -1.0424 -2.04124 0
M  V30 1068 C 100.996 0.00137563 -1.608 0
M  V30 1069 O 102.186 -0.239883 -1.7254 0
M  V30 1070 C 99.3177 -0.580588 -3.3592 0
M  V30 1071 H 100.511 -1.99803 -2.23649 0
M  V30 1072 H 98.0637 -1.06899 -1.14027 0
M  V30 1073 H 98.7987 0.3781 -3.22088 0
M  V30 1074 H 98.5837 -1.33398 -3.6871 0
M  V30 1075 H 100.074 -0.459034 -4.15069 0
M  V30 1076 N 100.511 1.16574 -1.06058 0
M  V30 1077 C 101.441 2.23057 -0.690488 0
M  V30 1078 C 102.422 1.67141 0.315901 0
M  V30 1079 O 103.607 1.93253 0.191556 0
M  V30 1080 C 100.737 3.47222 -0.073625 0
M  V30 1081 C 99.6908 4.16016 -1.00573 0
M  V30 1082 C 99.0168 5.34104 -0.252289 0
M  V30 1083 C 100.317 4.67264 -2.33371 0
M  V30 1084 H 102.011 2.54271 -1.58072 0
M  V30 1085 H 99.5568 1.22218 -0.76149 0
M  V30 1086 H 101.51 4.20939 0.19714 0
M  V30 1087 H 100.234 3.15302 0.85161 0
M  V30 1088 H 98.8928 3.44223 -1.2612 0
M  V30 1089 H 98.5408 4.98437 0.675988 0
M  V30 1090 H 98.2408 5.81072 -0.873455 0
M  V30 1091 H 99.7648 6.10599 0.0109857 0
M  V30 1092 H 101.179 5.32573 -2.12223 0
M  V30 1093 H 99.5758 5.24843 -2.90963 0
M  V30 1094 H 100.646 3.83602 -2.96611 0
M  V30 1095 N 101.989 0.842826 1.3317 0
M  V30 1096 C 102.899 0.281444 2.32906 0
M  V30 1097 C 103.915 -0.594587 1.63526 0
M  V30 1098 O 105.091 -0.49777 1.95152 0
M  V30 1099 C 102.156 -0.530929 3.42611 0
M  V30 1100 C 101.217 0.369843 4.27704 0
M  V30 1101 C 100.45 -0.403853 5.3217 0
M  V30 1102 O 100.673 -1.63513 5.46461 0
M  V30 1103 O 99.6069 0.224199 6.01482 0
M  V30 1104 H 103.433 1.10744 2.82789 0
M  V30 1105 H 101.018 0.60545 1.36582 0
M  V30 1106 H 102.9 -0.992437 4.09547 0
M  V30 1107 H 101.575 -1.33392 2.94938 0
M  V30 1108 H 100.482 0.879275 3.6362 0
M  V30 1109 H 101.815 1.13771 4.78871 0
M  V30 1110 N 103.467 -1.45747 0.599634 0
M  V30 1111 C 104.43 -2.28917 -0.113835 0
M  V30 1112 C 105.43 -1.3933 -0.802729 0
M  V30 1113 O 106.62 -1.61534 -0.652103 0
M  V30 1114 C 103.752 -3.20152 -1.17114 0
M  V30 1115 H 104.945 -2.93478 0.617289 0
M  V30 1116 H 102.498 -1.52137 0.358327 0
M  V30 1117 H 103.233 -2.60374 -1.93329 0
M  V30 1118 H 103.018 -3.86133 -0.681468 0
M  V30 1119 H 104.508 -3.82708 -1.67105 0
M  V30 1120 N 104.945 -0.338344 -1.53925 0
M  V30 1121 C 105.908 0.508299 -2.23493 0
M  V30 1122 C 106.908 1.03175 -1.23335 0
M  V30 1123 O 108.098 0.921826 -1.47811 0
M  V30 1124 C 105.23 1.70754 -2.95052 0
M  V30 1125 H 106.423 -0.100058 -2.99733 0
M  V30 1126 H 103.976 -0.0896198 -1.56043 0
M  V30 1127 H 104.711 2.35474 -2.22986 0
M  V30 1128 H 104.496 1.33946 -3.68512 0
M  V30 1129 H 105.986 2.30818 -3.48013 0
M  V30 1130 N 106.423 1.57458 -0.0668435 0
M  V30 1131 C 107.37 2.12439 0.902122 0
M  V30 1132 C 108.34 1.03565 1.2986 0
M  V30 1133 O 109.525 1.312 1.38532 0
M  V30 1134 C 106.665 2.6865 2.16614 0
M  V30 1135 C 105.778 3.91663 1.82274 0
M  V30 1136 C 104.913 4.36134 3.0325 0
M  V30 1137 C 103.952 5.51808 2.64904 0
M  V30 1138 N 103.089 5.9126 3.78624 0
M  V30 1139 H 107.929 2.94934 0.426382 0
M  V30 1140 H 105.466 1.4575 0.198819 0
M  V30 1141 H 107.424 2.99346 2.90599 0
M  V30 1142 H 106.054 1.88928 2.61737 0
M  V30 1143 H 105.106 3.6746 0.983719 0
M  V30 1144 H 106.418 4.75693 1.50059 0
M  V30 1145 H 105.572 4.68465 3.85519 0
M  V30 1146 H 104.311 3.50948 3.38655 0
M  V30 1147 H 103.316 5.19133 1.81055 0
M  V30 1148 H 104.541 6.38722 2.30675 0
M  V30 1149 H 102.487 5.09024 4.138 0
M  V30 1150 H 102.404 6.70018 3.5016 0
M  V30 1151 H 103.672 6.28212 4.61486 0
M  V30 1152 N 107.901 -0.206675 1.56239 0
M  V30 1153 C 109.317 -0.557025 1.49564 0
M  V30 1154 C 109.517 -1.86424 0.764735 0
M  V30 1155 O 108.573 -2.50584 0.310491 0
M  V30 1156 C 109.886 -0.622478 2.94186 0
M  V30 1157 C 111.434 -0.712099 3.04792 0
M  V30 1158 C 111.909 -0.808767 4.50803 0
M  V30 1159 N 113.4 -0.8726 4.54907 0
M  V30 1160 C 114.135 -0.967365 5.65181 0
M  V30 1161 N 113.631 -1.02515 6.85173 0
M  V30 1162 N 115.424 -1.00366 5.53067 0
M  V30 1163 H 107.575 0.650943 2.02179 0
M  V30 1164 H 109.838 0.230387 0.919579 0
M  V30 1165 H 109.544 0.268727 3.50672 0
M  V30 1166 H 109.418 -1.4811 3.46905 0
M  V30 1167 H 111.805 -1.59374 2.48363 0
M  V30 1168 H 111.886 0.172489 2.55218 0
M  V30 1169 H 111.53 0.0684754 5.07854 0
M  V30 1170 H 111.46 -1.70899 4.98098 0
M  V30 1171 H 113.951 -0.837657 3.68499 0
M  V30 1172 H 114.264 -1.09765 7.64965 0
M  V30 1173 H 112.609 -0.994026 6.87855 0
M  V30 1174 H 115.8 -0.95527 4.58249 0
M  V30 1175 H 115.973 -1.07405 6.39037 0
M  V30 1176 N 109.379 -1.50304 -0.473955 0
M  V30 1177 C 110.309 -1.71886 -1.58042 0
M  V30 1178 C 111.29 -0.567799 -1.60344 0
M  V30 1179 O 112.475 -0.806623 -1.76656 0
M  V30 1180 C 109.605 -1.81036 -2.96384 0
M  V30 1181 C 108.559 -2.962 -3.08949 0
M  V30 1182 C 107.885 -2.9049 -4.48909 0
M  V30 1183 C 109.185 -4.36752 -2.86434 0
M  V30 1184 H 110.879 -2.64527 -1.40234 0
M  V30 1185 H 108.425 -1.27295 -0.673201 0
M  V30 1186 H 110.378 -1.94719 -3.73714 0
M  V30 1187 H 109.102 -0.850147 -3.15341 0
M  V30 1188 H 107.761 -2.82164 -2.3405 0
M  V30 1189 H 107.409 -1.92321 -4.64781 0
M  V30 1190 H 107.109 -3.67802 -4.58253 0
M  V30 1191 H 108.633 -3.06218 -5.28264 0
M  V30 1192 H 110.047 -4.5133 -3.53517 0
M  V30 1193 H 108.444 -5.15493 -3.07225 0
M  V30 1194 H 109.514 -4.49321 -1.82316 0
M  V30 1195 N 110.857 0.726932 -1.39834 0
M  V30 1196 C 111.805 1.86235 -1.39353 0
M  V30 1197 C 112.799 1.67144 -0.275555 0
M  V30 1198 O 114.005 1.74387 -0.44601 0
M  V30 1199 H 110.38 0.613174 -0.43534 0
M  V30 1200 H 112.351 1.83756 -2.35109 0
M  V30 1201 C 111.1 3.23995 -1.26185 0
M  V30 1202 H 110.423 3.39285 -2.11484 0
M  V30 1203 H 111.863 4.03609 -1.29907 0
M  V30 1204 C 110.322 3.36888 0.0290018 0
M  V30 1205 O 110.852 3.89152 0.99619 0
M  V30 1206 N 109.058 2.90446 0.0947437 0
M  V30 1207 H 108.605 2.48102 -0.693035 0
M  V30 1208 H 108.563 2.99451 0.957932 0
M  V30 1209 N 112.336 1.25143 0.95797 0
M  V30 1210 C 113.299 1.05321 2.03569 0
M  V30 1211 C 114.299 0.007152 1.60798 0
M  V30 1212 O 115.489 0.24903 1.72411 0
M  V30 1213 C 112.621 0.598394 3.35607 0
M  V30 1214 H 113.814 2.00986 2.22586 0
M  V30 1215 H 111.367 1.07502 1.13459 0
M  V30 1216 H 112.102 -0.361014 3.22284 0
M  V30 1217 H 111.887 1.35351 3.67998 0
M  V30 1218 H 113.377 0.48104 4.1482 0
M  V30 1219 N 113.814 -1.1601 1.06675 0
M  V30 1220 C 114.761 -2.20525 0.680967 0
M  V30 1221 C 115.731 -1.62904 -0.324283 0
M  V30 1222 O 116.916 -1.89615 -0.212294 0
M  V30 1223 C 114.056 -3.45013 0.0776551 0
M  V30 1224 C 113.169 -4.16863 1.13355 0
M  V30 1225 C 112.304 -5.2888 0.49597 0
M  V30 1226 C 111.343 -5.92537 1.53513 0
M  V30 1227 N 110.48 -6.96038 0.920631 0
M  V30 1228 H 115.32 -2.52876 1.57663 0
M  V30 1229 H 112.857 -1.24199 0.788223 0
M  V30 1230 H 114.815 -4.16193 -0.289704 0
M  V30 1231 H 113.445 -3.132 -0.781393 0
M  V30 1232 H 112.497 -3.44248 1.61857 0
M  V30 1233 H 113.809 -4.60294 1.92174 0
M  V30 1234 H 112.963 -6.06653 0.0758604 0
M  V30 1235 H 111.702 -4.86622 -0.324062 0
M  V30 1236 H 110.707 -5.13482 1.9651 0
M  V30 1237 H 111.932 -6.36873 2.35733 0
M  V30 1238 H 109.878 -6.55888 0.12138 0
M  V30 1239 H 109.795 -7.3786 1.64616 0
M  V30 1240 H 111.063 -7.77725 0.525795 0
M  V30 1241 N 115.292 -0.849877 -1.32721 0
M  V30 1242 C 116.202 -0.293791 -2.32753 0
M  V30 1243 C 117.218 0.585906 -1.63839 0
M  V30 1244 O 118.394 0.487413 -1.95413 0
M  V30 1245 C 115.459 0.512752 -3.42887 0
M  V30 1246 C 114.52 -0.39252 -4.27502 0
M  V30 1247 C 113.753 0.375625 -5.32377 0
M  V30 1248 O 113.976 1.60613 -5.4732 0
M  V30 1249 O 112.91 -0.256094 -6.01355 0
M  V30 1250 H 116.736 -1.12242 -2.82197 0
M  V30 1251 H 114.321 -0.612685 -1.36259 0
M  V30 1252 H 116.203 0.970704 -4.10067 0
M  V30 1253 H 114.878 1.31826 -2.95641 0
M  V30 1254 H 113.785 -0.898547 -3.63149 0
M  V30 1255 H 115.118 -1.16309 -4.7826 0
M  V30 1256 N 116.77 1.45427 -0.607355 0
M  V30 1257 C 118.019 2.01452 -0.100036 0
M  V30 1258 C 118.332 1.48159 1.27704 0
M  V30 1259 O 119.538 1.96159 1.87707 0
M  V30 1260 C 117.994 3.59672 -0.128158 0
M  V30 1261 C 117.602 4.21962 -1.50507 0
M  V30 1262 C 119.346 4.23262 0.323932 0
M  V30 1263 C 117.253 5.72333 -1.48959 0
M  V30 1264 H 116.183 0.75325 -0.0336299 0
M  V30 1265 H 118.834 1.66901 -0.76265 0
M  V30 1266 H 117.216 3.91411 0.601105 0
M  V30 1267 H 118.39 4.01796 -2.25602 0
M  V30 1268 H 116.705 3.70565 -1.89923 0
M  V30 1269 H 119.302 5.33522 0.354691 0
M  V30 1270 H 119.645 3.93921 1.34656 0
M  V30 1271 H 120.178 3.96239 -0.352056 0
M  V30 1272 H 116.917 6.06373 -2.48981 0
M  V30 1273 H 116.437 5.94691 -0.781214 0
M  V30 1274 H 118.116 6.35525 -1.21313 0
M  V30 1275 N 118.248 0.346503 1.53744 0
M  V30 1276 C 119.494 -0.249473 2.0126 0
M  V30 1277 C 119.827 -1.49965 1.23386 0
M  V30 1278 O 119.102 -1.91811 0.32229 0
M  V30 1279 C 119.385 -0.560643 3.55709 0
M  V30 1280 C 119.238 0.701836 4.44291 0
M  V30 1281 C 120.557 -1.36905 4.18264 0
M  V30 1282 H 117.676 -0.0891987 0.731582 0
M  V30 1283 H 120.318 0.467624 1.84156 0
M  V30 1284 H 118.468 -1.17156 3.70414 0
M  V30 1285 H 120.14 1.33974 4.41417 0
M  V30 1286 H 118.383 1.32612 4.13033 0
M  V30 1287 H 119.054 0.43933 5.50249 0
M  V30 1288 H 121.53 -0.852448 4.07275 0
M  V30 1289 H 120.406 -1.55553 5.26398 0
M  V30 1290 H 120.667 -2.37203 3.73078 0
M  V30 1291 N 119.726 -1.57421 0.075193 0
M  V30 1292 C 120.656 -2.15942 -0.888324 0
M  V30 1293 C 121.637 -1.08737 -1.30806 0
M  V30 1294 O 122.822 -1.36787 -1.37851 0
M  V30 1295 C 119.952 -2.72379 -2.1547 0
M  V30 1296 C 118.906 -3.8478 -1.87425 0
M  V30 1297 C 118.232 -4.27834 -3.20721 0
M  V30 1298 C 119.532 -5.08869 -1.17684 0
M  V30 1299 H 121.226 -2.96705 -0.400799 0
M  V30 1300 H 118.772 -1.42723 -0.191342 0
M  V30 1301 H 120.725 -3.11965 -2.83295 0
M  V30 1302 H 119.449 -1.88841 -2.6647 0
M  V30 1303 H 118.108 -3.45703 -1.22004 0
M  V30 1304 H 117.756 -3.41214 -3.6957 0
M  V30 1305 H 117.456 -5.03605 -3.02746 0
M  V30 1306 H 118.98 -4.70039 -3.89738 0
M  V30 1307 H 120.394 -5.4575 -1.75584 0
M  V30 1308 H 118.791 -5.8994 -1.09956 0
M  V30 1309 H 119.861 -4.84648 -0.156453 0
M  V30 1310 N 121.204 0.198386 -1.56346 0
M  V30 1311 C 122.151 1.24589 -1.94284 0
M  V30 1312 C 123.121 1.454 -0.802997 0
M  V30 1313 O 124.306 1.58588 -1.06087 0
M  V30 1314 C 121.446 2.58631 -2.28482 0
M  V30 1315 C 120.559 2.45426 -3.55514 0
M  V30 1316 C 119.694 3.7215 -3.79049 0
M  V30 1317 C 118.733 3.53763 -4.99518 0
M  V30 1318 N 117.87 4.72491 -5.19323 0
M  V30 1319 H 122.71 0.915356 -2.83593 0
M  V30 1320 H 120.247 0.440629 -1.40346 0
M  V30 1321 H 122.205 3.3672 -2.46324 0
M  V30 1322 H 120.835 2.89734 -1.42317 0
M  V30 1323 H 119.887 1.58652 -3.45737 0
M  V30 1324 H 121.199 2.27772 -4.43758 0
M  V30 1325 H 120.353 4.58679 -3.97113 0
M  V30 1326 H 119.092 3.92754 -2.89129 0
M  V30 1327 H 118.097 2.65619 -4.8138 0
M  V30 1328 H 119.322 3.34607 -5.90944 0
M  V30 1329 H 117.268 4.93365 -4.3235 0
M  V30 1330 H 117.185 4.5765 -6.01741 0
M  V30 1331 H 118.453 5.6038 -5.41843 0
M  V30 1332 N 122.682 1.50554 0.465978 0
M  V30 1333 C 123.645 1.69233 1.54574 0
M  V30 1334 C 124.645 0.562901 1.50626 0
M  V30 1335 O 125.835 0.830016 1.53155 0
M  V30 1336 C 122.967 1.7223 2.94193 0
M  V30 1337 H 124.16 2.65571 1.39327 0
M  V30 1338 H 121.713 1.40111 0.692711 0
M  V30 1339 H 122.448 0.77603 3.14878 0
M  V30 1340 H 122.233 2.54285 2.98466 0
M  V30 1341 H 123.723 1.88618 3.72576 0
M  V30 1342 N 124.16 -0.719506 1.40217 0
M  V30 1343 C 125.092 -1.84428 1.36084 0
M  V30 1344 C 126.105 -1.60597 0.266913 0
M  V30 1345 O 127.294 -1.70544 0.526983 0
M  V30 1346 C 124.394 -3.20757 1.094 0
M  V30 1347 C 123.567 -3.71817 2.30372 0
M  V30 1348 C 122.626 -4.86748 1.99907 0
M  V30 1349 O 121.652 -4.99603 2.72737 0
M  V30 1350 N 122.854 -5.7226 0.974635 0
M  V30 1351 H 125.619 -1.88473 2.33019 0
M  V30 1352 H 123.18 -0.900885 1.3452 0
M  V30 1353 H 125.172 -3.95235 0.870116 0
M  V30 1354 H 123.742 -3.11884 0.211452 0
M  V30 1355 H 122.962 -2.88514 2.68614 0
M  V30 1356 H 124.25 -4.02666 3.11026 0
M  V30 1357 H 123.648 -5.6448 0.371368 0
M  V30 1358 H 122.205 -6.46739 0.810656 0
M  V30 1359 N 125.638 -1.25649 -0.95132 0
M  V30 1360 C 126.887 -1.09988 -1.69073 0
M  V30 1361 C 127.2 0.358355 -1.92289 0
M  V30 1362 O 128.406 0.635466 -2.63958 0
M  V30 1363 C 126.862 -1.92012 -3.044 0
M  V30 1364 C 126.47 -3.42347 -2.88968 0
M  V30 1365 C 128.214 -1.8493 -3.82101 0
M  V30 1366 C 126.121 -4.16655 -4.19705 0
M  V30 1367 H 125.051 -0.407993 -0.63408 0
M  V30 1368 H 127.702 -1.49873 -1.05879 0
M  V30 1369 H 126.084 -1.44952 -3.68517 0
M  V30 1370 H 127.258 -3.97104 -2.33762 0
M  V30 1371 H 125.573 -3.50557 -2.24719 0
M  V30 1372 H 128.17 -2.37739 -4.78941 0
M  V30 1373 H 128.513 -0.817883 -4.08187 0
M  V30 1374 H 129.046 -2.29758 -3.2474 0
M  V30 1375 H 125.785 -5.20224 -3.98807 0
M  V30 1376 H 125.305 -3.66681 -4.74663 0
M  V30 1377 H 126.984 -4.24551 -4.88227 0
M  V30 1378 N 127.117 1.15442 -1.07289 0
M  V30 1379 C 128.047 2.22312 -0.714107 0
M  V30 1380 C 129.028 1.67467 0.298155 0
M  V30 1381 O 130.213 1.93445 0.171048 0
M  V30 1382 C 127.343 3.47124 -0.110448 0
M  V30 1383 C 126.297 4.14926 -1.04979 0
M  V30 1384 C 125.623 5.33807 -0.308924 0
M  V30 1385 C 126.923 4.64762 -2.38314 0
M  V30 1386 H 128.617 2.5258 -1.6076 0
M  V30 1387 H 126.163 1.21404 -0.77441 0
M  V30 1388 H 128.116 4.21124 0.152482 0
M  V30 1389 H 126.84 3.16187 0.81812 0
M  V30 1390 H 125.499 3.42866 -1.29764 0
M  V30 1391 H 125.147 4.99126 0.623084 0
M  V30 1392 H 124.847 5.80113 -0.935036 0
M  V30 1393 H 126.371 6.10576 -0.0537771 0
M  V30 1394 H 127.785 5.30292 -2.1786 0
M  V30 1395 H 126.182 5.21728 -2.96514 0
M  V30 1396 H 127.252 3.80434 -3.00663 0
M  V30 1397 N 128.595 0.856903 1.32268 0
M  V30 1398 C 129.558 0.308171 2.27119 0
M  V30 1399 C 130.558 -0.533421 1.51695 0
M  V30 1400 O 131.748 -0.344607 1.70757 0
M  V30 1401 C 128.88 -0.563757 3.36206 0
M  V30 1402 H 130.073 1.14535 2.77167 0
M  V30 1403 H 127.626 0.631421 1.42978 0
M  V30 1404 H 128.361 -1.42266 2.91429 0
M  V30 1405 H 128.146 0.0386749 3.92081 0
M  V30 1406 H 129.636 -0.940386 4.06874 0
M  V30 1407 N 130.073 -1.45103 0.615059 0
M  V30 1408 C 131.321 -2.01784 0.112955 0
M  V30 1409 C 131.642 -1.48504 -1.26378 0
M  V30 1410 O 130.912 -0.682245 -1.83636 0
M  V30 1411 H 129.492 -0.745993 0.0387668 0
M  V30 1412 H 132.154 -1.77808 0.798141 0
M  V30 1413 H 131.25 -3.12025 0.0684069 0
M  V30 1414 N 131.551 -0.354651 -1.53558 0
M  V30 1415 C 132.799 0.237972 -2.00694 0
M  V30 1416 C 133.12 1.50173 -1.24391 0
M  V30 1417 O 132.39 1.92673 -0.354135 0
M  V30 1418 H 130.97 0.0909256 -0.741446 0
M  V30 1419 H 133.632 -0.478368 -1.88938 0
M  V30 1420 H 132.728 0.47264 -3.085 0
M  V30 1421 N 133.029 1.57378 -0.0835403 0
M  V30 1422 C 134.445 1.57246 0.273109 0
M  V30 1423 C 134.645 1.09385 1.69225 0
M  V30 1424 O 133.701 0.765051 2.40631 0
M  V30 1425 C 135.014 3.00614 0.0720628 0
M  V30 1426 C 136.562 3.12684 0.1407 0
M  V30 1427 C 137.037 4.57989 -0.0322094 0
M  V30 1428 N 138.528 4.63194 0.0230085 0
M  V30 1429 C 139.263 5.73335 -0.0861941 0
M  V30 1430 N 138.759 6.9235 -0.24958 0
M  V30 1431 N 140.552 5.62093 -0.0282886 0
M  V30 1432 H 132.703 1.86801 -1.0109 0
M  V30 1433 H 134.966 0.861687 -0.395222 0
M  V30 1434 H 134.672 3.39786 -0.907662 0
M  V30 1435 H 134.546 3.68193 0.81936 0
M  V30 1436 H 136.933 2.73391 1.11092 0
M  V30 1437 H 137.014 2.47719 -0.637896 0
M  V30 1438 H 136.658 4.97973 -0.999247 0
M  V30 1439 H 136.588 5.21 0.765937 0
M  V30 1440 H 139.079 3.77613 0.14722 0
M  V30 1441 H 139.392 7.72117 -0.324733 0
M  V30 1442 H 137.737 6.94415 -0.285097 0
M  V30 1443 H 140.928 4.67997 0.0981408 0
M  V30 1444 H 141.101 6.47895 -0.116845 0
M  V30 1445 N 134.507 -0.190092 1.56449 0
M  V30 1446 C 135.755 -0.907908 1.80559 0
M  V30 1447 C 136.076 -1.83583 0.657438 0
M  V30 1448 O 135.346 -1.93203 -0.323924 0
M  V30 1449 H 133.926 -0.338247 0.666032 0
M  V30 1450 H 136.588 -0.194403 1.93928 0
M  V30 1451 H 135.684 -1.49604 2.73907 0
M  V30 1452 N 135.985 -1.50799 -0.457987 0
M  V30 1453 C 136.932 -1.70617 -1.5543 0
M  V30 1454 C 137.902 -0.547562 -1.56815 0
M  V30 1455 O 139.087 -0.779647 -1.74144 0
M  V30 1456 C 136.227 -1.81831 -2.93311 0
M  V30 1457 C 135.34 -3.09278 -3.01615 0
M  V30 1458 C 134.475 -3.11209 -4.30491 0
M  V30 1459 C 133.514 -4.33055 -4.32585 0
M  V30 1460 N 132.651 -4.32652 -5.52952 0
M  V30 1461 H 137.491 -2.64207 -1.37836 0
M  V30 1462 H 135.028 -1.30959 -0.669937 0
M  V30 1463 H 136.986 -1.86314 -3.73287 0
M  V30 1464 H 135.616 -0.916685 -3.0951 0
M  V30 1465 H 134.668 -3.14203 -2.1443 0
M  V30 1466 H 135.98 -3.99233 -2.99022 0
M  V30 1467 H 135.134 -3.14494 -5.18824 0
M  V30 1468 H 133.873 -2.19106 -4.35711 0
M  V30 1469 H 132.878 -4.29969 -3.42647 0
M  V30 1470 H 134.103 -5.264 -4.29046 0
M  V30 1471 H 132.049 -3.43409 -5.58933 0
M  V30 1472 H 131.966 -5.16392 -5.52155 0
M  V30 1473 H 133.234 -4.40101 -6.43375 0
M  V30 1474 N 137.463 0.71206 -1.40597 0
M  V30 1475 C 138.711 1.46907 -1.38791 0
M  V30 1476 C 139.032 1.94998 0.00780391 0
M  V30 1477 O 138.302 1.70587 0.963174 0
M  V30 1478 H 136.882 0.545043 -0.51082 0
M  V30 1479 H 139.544 0.843882 -1.75683 0
M  V30 1480 H 138.64 2.34021 -2.06496 0
M  V30 1481 N 138.941 1.26152 0.944643 0
M  V30 1482 C 140.187 1.11657 1.69294 0
M  V30 1483 C 140.52 -0.339926 1.91202 0
M  V30 1484 O 139.795 -1.24994 1.49019 0
M  V30 1485 C 140.078 1.88236 3.06984 0
M  V30 1486 C 139.931 3.41772 2.92424 0
M  V30 1487 C 141.25 1.67343 4.07043 0
M  V30 1488 H 138.369 0.407004 0.614424 0
M  V30 1489 H 141.011 1.55106 1.09737 0
M  V30 1490 H 139.161 1.51308 3.57824 0
M  V30 1491 H 140.833 3.88433 2.48832 0
M  V30 1492 H 139.076 3.68974 2.28124 0
M  V30 1493 H 139.747 3.90579 3.90067 0
M  V30 1494 H 142.223 1.99509 3.65151 0
M  V30 1495 H 141.099 2.23346 5.01406 0
M  V30 1496 H 141.36 0.617158 4.37771 0
M  V30 1497 N 140.419 -1.14872 1.07899 0
M  V30 1498 C 141.666 -1.85789 0.805532 0
M  V30 1499 C 141.994 -1.82649 -0.668561 0
M  V30 1500 O 141.249 -1.24858 -1.50695 0
M  V30 1501 C 141.548 -3.34223 1.26609 0
M  V30 1502 C 141.214 -3.57555 2.74709 0
M  V30 1503 C 139.876 -3.63631 3.1516 0
M  V30 1504 C 142.228 -3.66803 3.70277 0
M  V30 1505 C 139.556 -3.76473 4.49983 0
M  V30 1506 C 141.908 -3.8117 5.04869 0
M  V30 1507 C 140.572 -3.85494 5.44932 0
M  V30 1508 H 139.842 -0.679849 0.294765 0
M  V30 1509 H 142.489 -1.3572 1.35101 0
M  V30 1510 H 140.794 -3.86536 0.640103 0
M  V30 1511 H 142.491 -3.87511 1.03132 0
M  V30 1512 H 139.081 -3.5347 2.42398 0
M  V30 1513 H 143.265 -3.61404 3.40149 0
M  V30 1514 H 138.521 -3.7808 4.80484 0
M  V30 1515 H 142.695 -3.87268 5.78789 0
M  V30 1516 H 140.322 -3.95197 6.49403 0
M  V30 1517 N 141.898 -0.863906 -1.31812 0
M  V30 1518 C 142.846 -0.30422 -2.30602 0
M  V30 1519 C 143.84 0.577419 -1.59255 0
M  V30 1520 O 145.046 0.464194 -1.73912 0
M  V30 1521 H 141.421 -0.0796877 -0.747766 0
M  V30 1522 H 143.392 -1.15148 -2.75288 0
M  V30 1523 C 142.141 0.484617 -3.44306 0
M  V30 1524 H 141.464 -0.18451 -3.99374 0
M  V30 1525 H 142.904 0.841664 -4.15562 0
M  V30 1526 C 141.363 1.6735 -2.92396 0
M  V30 1527 O 141.893 2.77273 -2.90659 0
M  V30 1528 N 140.099 1.50362 -2.48676 0
M  V30 1529 H 139.646 0.609402 -2.50288 0
M  V30 1530 H 139.604 2.30051 -2.14299 0
M  V30 1531 N 143.376 1.44774 -0.622745 0
M  V30 1532 C 144.601 2.06999 -0.128968 0
M  V30 1533 C 145.026 1.4617 1.1839 0
M  V30 1534 O 144.384 0.560007 1.72434 0
M  V30 1535 C 144.432 3.60595 -0.0188351 0
M  V30 1536 O 143.536 3.99398 1.02739 0
M  V30 1537 H 142.877 0.659047 -0.0809544 0
M  V30 1538 H 145.407 1.85784 -0.85705 0
M  V30 1539 H 145.417 4.07627 0.174476 0
M  V30 1540 H 144.092 4.04252 -0.977384 0
M  V30 1541 H 142.669 3.64011 0.809326 0
M  V30 1542 N 144.854 0.36279 1.53368 0
M  V30 1543 C 146.102 -0.227326 2.00817 0
M  V30 1544 C 146.423 -1.49511 1.25186 0
M  V30 1545 O 145.693 -1.92482 0.364348 0
M  V30 1546 H 144.273 -0.0869923 0.741917 0
M  V30 1547 H 146.935 0.488381 1.88682 0
M  V30 1548 H 146.031 -0.456273 3.08747 0
M  V30 1549 N 146.332 -1.57332 0.0918853 0
M  V30 1550 C 147.262 -2.16872 -0.865371 0
M  V30 1551 C 148.243 -1.10118 -1.29646 0
M  V30 1552 O 149.428 -1.38242 -1.36392 0
M  V30 1553 C 146.558 -2.74649 -2.12569 0
M  V30 1554 C 145.512 -3.86747 -1.83333 0
M  V30 1555 C 144.838 -4.31212 -3.16166 0
M  V30 1556 C 146.138 -5.10089 -1.1228 0
M  V30 1557 H 147.832 -2.97114 -0.369307 0
M  V30 1558 H 145.378 -1.42918 -0.176194 0
M  V30 1559 H 147.331 -3.14952 -2.7997 0
M  V30 1560 H 146.055 -1.91657 -2.64452 0
M  V30 1561 H 144.714 -3.46978 -1.18331 0
M  V30 1562 H 144.362 -3.45115 -3.6593 0
M  V30 1563 H 144.062 -5.06788 -2.97388 0
M  V30 1564 H 145.586 -4.74146 -3.84731 0
M  V30 1565 H 147 -5.47582 -1.69785 0
M  V30 1566 H 145.397 -5.91073 -1.03693 0
M  V30 1567 H 146.467 -4.84786 -0.105041 0
M  V30 1568 N 147.81 0.181792 -1.56548 0
M  V30 1569 C 148.757 1.22521 -1.95595 0
M  V30 1570 C 149.727 1.4454 -0.818373 0
M  V30 1571 O 150.912 1.57454 -1.07763 0
M  V30 1572 C 148.052 2.56193 -2.31212 0
M  V30 1573 C 147.165 2.41641 -3.58097 0
M  V30 1574 C 146.3 3.68108 -3.82975 0
M  V30 1575 C 145.339 3.48445 -5.03242 0
M  V30 1576 N 144.476 4.66956 -5.24306 0
M  V30 1577 H 149.316 0.885226 -2.84548 0
M  V30 1578 H 146.853 0.425718 -1.40805 0
M  V30 1579 H 148.811 3.34088 -2.49882 0
M  V30 1580 H 147.441 2.88208 -1.45382 0
M  V30 1581 H 146.493 1.54976 -3.474 0
M  V30 1582 H 147.805 2.23052 -4.46149 0
M  V30 1583 H 146.959 4.54441 -4.01956 0
M  V30 1584 H 145.698 3.89666 -2.93278 0
M  V30 1585 H 144.703 2.60499 -4.8417 0
M  V30 1586 H 145.928 3.2832 -5.9446 0
M  V30 1587 H 143.874 4.88752 -4.37559 0
M  V30 1588 H 143.791 4.51242 -6.06561 0
M  V30 1589 H 145.059 5.54602 -5.47756 0
M  V30 1590 N 149.288 1.51039 0.449983 0
M  V30 1591 C 150.536 1.62759 1.19808 0
M  V30 1592 C 150.857 0.339981 1.92013 0
M  V30 1593 O 150.127 -0.643606 1.85026 0
M  V30 1594 H 148.707 0.599811 0.445237 0
M  V30 1595 H 151.369 1.87914 0.517138 0
M  V30 1596 H 150.465 2.44911 1.93455 0
M  V30 1597 N 150.766 -0.704594 1.40972 0
M  V30 1598 C 152.014 -1.46169 1.39568 0
M  V30 1599 C 152.335 -1.95 0.00253745 0
M  V30 1600 O 151.605 -1.71095 -0.954114 0
M  V30 1601 H 150.185 -0.542326 0.513704 0
M  V30 1602 H 152.847 -0.834553 1.76128 0
M  V30 1603 H 151.943 -2.32922 2.07735 0
M  V30 1604 N 152.244 -1.26651 -0.937939 0
M  V30 1605 C 153.49 -1.12553 -1.687 0
M  V30 1606 C 153.823 0.329782 -1.91379 0
M  V30 1607 O 153.098 1.24202 -1.4968 0
M  V30 1608 C 153.381 -1.89862 -3.05981 0
M  V30 1609 C 153.234 -3.43318 -2.90607 0
M  V30 1610 C 154.553 -1.69499 -4.0615 0
M  V30 1611 H 151.672 -0.410257 -0.612257 0
M  V30 1612 H 154.314 -1.55685 -1.08913 0
M  V30 1613 H 152.464 -1.53204 -3.57017 0
M  V30 1614 H 154.136 -3.89747 -2.46769 0
M  V30 1615 H 152.379 -3.70179 -2.26164 0
M  V30 1616 H 153.05 -3.92642 -3.8799 0
M  V30 1617 H 155.526 -2.01442 -3.64088 0
M  V30 1618 H 154.402 -2.26002 -5.00214 0
M  V30 1619 H 154.663 -0.640365 -4.37438 0
M  V30 1620 N 153.722 1.14298 -1.08507 0
M  V30 1621 C 154.672 2.17449 -0.685569 0
M  V30 1622 C 155.656 1.58167 0.295315 0
M  V30 1623 O 156.848 1.76675 0.107172 0
M  V30 1624 C 153.977 3.43161 -0.0975318 0
M  V30 1625 C 153.063 4.09471 -1.10426 0
M  V30 1626 N 153.454 4.51089 -2.28806 0
M  V30 1627 C 151.752 4.35976 -0.940258 0
M  V30 1628 C 152.453 5.02654 -2.9277 0
M  V30 1629 N 151.429 4.96927 -2.20374 0
M  V30 1630 H 155.231 2.47369 -1.587 0
M  V30 1631 H 152.745 1.30992 -0.959936 0
M  V30 1632 H 154.742 4.16388 0.20664 0
M  V30 1633 H 153.402 3.14719 0.798872 0
M  V30 1634 H 154.413 4.44097 -2.66455 0
M  V30 1635 H 151.09 4.17386 -0.0977441 0
M  V30 1636 H 152.48 5.44723 -3.93352 0
M  V30 1637 N 155.201 0.870884 1.31352 0
M  V30 1638 C 156.131 0.343096 2.30966 0
M  V30 1639 C 157.112 -0.566507 1.60389 0
M  V30 1640 O 158.297 -0.483336 1.88089 0
M  V30 1641 C 155.427 -0.455487 3.443 0
M  V30 1642 C 154.381 0.361103 4.26474 0
M  V30 1643 C 153.707 -0.563221 5.31725 0
M  V30 1644 C 155.007 1.59566 4.97329 0
M  V30 1645 H 156.701 1.17548 2.75359 0
M  V30 1646 H 154.247 0.566686 1.32381 0
M  V30 1647 H 156.2 -0.83525 4.13039 0
M  V30 1648 H 154.924 -1.32139 2.98675 0
M  V30 1649 H 153.583 0.722825 3.59403 0
M  V30 1650 H 153.231 -1.42643 4.82351 0
M  V30 1651 H 152.931 -0.0207409 5.87596 0
M  V30 1652 H 154.455 -0.939808 6.03324 0
M  V30 1653 H 155.869 1.28728 5.58661 0
M  V30 1654 H 154.266 2.07728 5.63 0
M  V30 1655 H 155.336 2.34798 4.24262 0
M  V30 1656 N 156.679 -1.44442 0.630414 0
M  V30 1657 C 157.907 -2.06414 0.141671 0
M  V30 1658 C 158.322 -1.47105 -1.18345 0
M  V30 1659 O 157.679 -0.593662 -1.72574 0
M  V30 1660 C 157.73 -3.61494 0.0199784 0
M  V30 1661 O 157.451 -4.18594 1.29269 0
M  V30 1662 C 158.952 -4.40499 -0.497544 0
M  V30 1663 H 156.172 -0.666292 0.0793452 0
M  V30 1664 H 158.716 -1.85323 0.864614 0
M  V30 1665 H 156.871 -3.8185 -0.653402 0
M  V30 1666 H 157.285 -5.12026 1.13707 0
M  V30 1667 H 158.759 -5.49433 -0.531708 0
M  V30 1668 H 159.236 -4.11895 -1.52445 0
M  V30 1669 H 159.842 -4.25061 0.142562 0
M  V30 1670 N 158.157 -0.370918 -1.53173 0
M  V30 1671 C 159.104 0.473035 -2.259 0
M  V30 1672 C 160.074 1.07311 -1.26781 0
M  V30 1673 O 161.259 1.1046 -1.55574 0
M  V30 1674 C 158.399 1.60405 -3.05556 0
M  V30 1675 C 157.512 1.02863 -4.19575 0
M  V30 1676 C 156.647 2.12918 -4.86661 0
M  V30 1677 C 155.686 1.52869 -5.92704 0
M  V30 1678 N 154.823 2.56779 -6.53459 0
M  V30 1679 H 159.663 -0.153649 -2.97604 0
M  V30 1680 H 157.2 -0.0875946 -1.46839 0
M  V30 1681 H 159.158 2.27034 -3.50016 0
M  V30 1682 H 157.788 2.20131 -2.36097 0
M  V30 1683 H 156.84 0.252465 -3.79561 0
M  V30 1684 H 158.152 0.549642 -4.95762 0
M  V30 1685 H 157.306 2.87356 -5.34333 0
M  V30 1686 H 156.045 2.6417 -4.09958 0
M  V30 1687 H 155.05 0.769479 -5.44389 0
M  V30 1688 H 156.275 1.02435 -6.7133 0
M  V30 1689 H 154.221 3.07235 -5.79606 0
M  V30 1690 H 154.138 2.13583 -7.25202 0
M  V30 1691 H 155.406 3.30903 -7.05779 0
M  V30 1692 N 159.635 1.57281 -0.100228 0
M  V30 1693 C 160.912 1.86014 0.604812 0
M  V30 1694 C 161.292 0.998025 1.86018 0
M  V30 1695 O 160.64 0.0718184 2.28387 0
M  V30 1696 C 160.85 3.36784 0.915278 0
M  V30 1697 C 162.198 4.04957 1.27651 0
M  V30 1698 O 163.222 3.41695 1.00613 0
M  V30 1699 O 162.081 5.16593 1.7831 0
M  V30 1700 H 159.175 0.76942 0.303185 0
M  V30 1701 H 161.721 1.69176 -0.133313 0
M  V30 1702 H 160.493 3.91292 0.0248896 0
M  V30 1703 H 160.116 3.58987 1.70921 0
M  V30 1704 N 161.113 -0.173488 1.56642 0
M  V30 1705 C 162.524 -0.736155 1.71574 0
M  V30 1706 C 162.875 -1.82888 0.710389 0
M  V30 1707 O 162 -2.16017 -0.1287 0
M  V30 1708 C 162.595 -1.34211 3.11083 0
M  V30 1709 C 161.154 -1.85162 3.27707 0
M  V30 1710 C 160.301 -0.729765 2.67525 0
M  V30 1711 H 163.252 0.0518786 1.58615 0
M  V30 1712 H 163.273 -2.21178 3.09613 0
M  V30 1713 H 162.785 -0.546579 3.84232 0
M  V30 1714 H 160.886 -2.67366 2.59512 0
M  V30 1715 H 160.999 -1.99855 4.35425 0
M  V30 1716 H 159.363 -1.14965 2.27278 0
M  V30 1717 H 160.146 0.0538806 3.43258 0
M  V30 1718 N 162.591 -1.51276 -0.441967 0
M  V30 1719 C 163.539 -1.72823 -1.55676 0
M  V30 1720 C 164.533 -0.59445 -1.58627 0
M  V30 1721 O 165.739 -0.775715 -1.62427 0
M  V30 1722 H 162.114 -0.545983 -0.517113 0
M  V30 1723 H 164.085 -2.6628 -1.34675 0
M  V30 1724 C 162.834 -1.86619 -2.93375 0
M  V30 1725 H 162.157 -2.73264 -2.91834 0
M  V30 1726 H 163.597 -2.05709 -3.70756 0
M  V30 1727 C 162.056 -0.624842 -3.31055 0
M  V30 1728 O 162.586 0.222636 -4.01083 0
M  V30 1729 N 160.792 -0.470288 -2.86769 0
M  V30 1730 H 160.339 -1.161 -2.29953 0
M  V30 1731 H 160.297 0.359051 -3.12343 0
M  V30 1732 N 164.069 0.697108 -1.41344 0
M  V30 1733 C 165.315 1.4593 -1.40827 0
M  V30 1734 C 165.648 1.94193 -0.0167098 0
M  V30 1735 O 164.923 1.69425 0.955263 0
M  V30 1736 C 165.206 2.67229 -2.41373 0
M  V30 1737 C 165.059 2.24741 -3.8963 0
M  V30 1738 C 166.378 3.69423 -2.39196 0
M  V30 1739 H 163.497 0.529303 -0.512842 0
M  V30 1740 H 166.139 0.794112 -1.72609 0
M  V30 1741 H 164.289 3.23982 -2.14401 0
M  V30 1742 H 165.961 1.73327 -4.27499 0
M  V30 1743 H 164.204 1.56542 -4.0457 0
M  V30 1744 H 164.875 3.1177 -4.55525 0
M  V30 1745 H 167.351 3.2234 -2.63128 0
M  V30 1746 H 166.227 4.51907 -3.11563 0
M  V30 1747 H 166.488 4.19012 -1.41001 0
M  V30 1748 N 165.547 1.27147 0.931209 0
M  V30 1749 C 166.793 1.13446 1.68101 0
M  V30 1750 C 167.126 -0.319628 1.91552 0
M  V30 1751 O 166.401 -1.23407 1.50336 0
M  V30 1752 C 166.684 1.91482 3.0497 0
M  V30 1753 C 166.537 3.44855 2.88782 0
M  V30 1754 C 167.856 1.71651 4.05246 0
M  V30 1755 H 164.975 0.413498 0.610072 0
M  V30 1756 H 167.617 1.56261 1.08086 0
M  V30 1757 H 165.767 1.55095 3.56199 0
M  V30 1758 H 167.439 3.9105 2.44698 0
M  V30 1759 H 165.682 3.71373 2.24198 0
M  V30 1760 H 166.353 3.94694 3.85902 0
M  V30 1761 H 168.829 2.0337 3.63015 0
M  V30 1762 H 167.705 2.28651 4.99009 0
M  V30 1763 H 167.966 0.663555 4.37092 0
M  V30 1764 N 167.025 -1.13721 1.09112 0
M  V30 1765 C 168.273 -1.84559 0.823562 0
M  V30 1766 C 168.594 -1.83754 -0.652658 0
M  V30 1767 O 167.864 -1.29102 -1.47342 0
M  V30 1768 H 166.444 -0.683376 0.301673 0
M  V30 1769 H 169.106 -1.37771 1.37859 0
M  V30 1770 H 168.202 -2.8917 1.17419 0
M  V30 1771 N 168.503 -0.877838 -1.30888 0
M  V30 1772 C 169.435 -0.296607 -2.27273 0
M  V30 1773 C 170.448 0.544799 -1.53414 0
M  V30 1774 O 171.637 0.365511 -1.74718 0
M  V30 1775 C 168.737 0.597481 -3.33592 0
M  V30 1776 C 167.91 -0.213251 -4.3688 0
M  V30 1777 C 166.969 0.610208 -5.2265 0
M  V30 1778 O 165.995 0.035441 -5.69189 0
M  V30 1779 N 167.197 1.92071 -5.47804 0
M  V30 1780 H 169.962 -1.12492 -2.77787 0
M  V30 1781 H 167.523 -0.740105 -1.43993 0
M  V30 1782 H 169.515 1.15425 -3.87891 0
M  V30 1783 H 168.085 1.32647 -2.83061 0
M  V30 1784 H 167.305 -0.951466 -3.82545 0
M  V30 1785 H 168.593 -0.769262 -5.02951 0
M  V30 1786 H 167.991 2.4107 -5.11763 0
M  V30 1787 H 166.548 2.42508 -6.05007 0
M  V30 1788 N 169.982 1.44106 -0.638065 0
M  V30 1789 C 170.912 2.33448 0.0494287 0
M  V30 1790 C 171.893 1.48606 0.827672 0
M  V30 1791 O 173.078 1.77308 0.792173 0
M  V30 1792 C 170.208 3.31771 1.02691 0
M  V30 1793 C 169.162 4.26485 0.359823 0
M  V30 1794 C 168.488 5.14729 1.44769 0
M  V30 1795 C 169.788 5.17056 -0.738296 0
M  V30 1796 H 171.482 2.91183 -0.696636 0
M  V30 1797 H 169.028 1.40014 -0.336456 0
M  V30 1798 H 170.981 3.93161 1.51666 0
M  V30 1799 H 169.705 2.7226 1.80395 0
M  V30 1800 H 168.364 3.66437 -0.10934 0
M  V30 1801 H 168.012 4.51566 2.21578 0
M  V30 1802 H 167.712 5.78913 1.00668 0
M  V30 1803 H 169.236 5.78991 1.93911 0
M  V30 1804 H 170.65 5.72342 -0.331354 0
M  V30 1805 H 169.047 5.89879 -1.10286 0
M  V30 1806 H 170.117 4.57652 -1.60258 0
M  V30 1807 N 171.46 0.379036 1.52974 0
M  V30 1808 C 172.423 -0.448865 2.24762 0
M  V30 1809 C 173.423 -0.998689 1.26027 0
M  V30 1810 O 174.613 -0.882313 1.50203 0
M  V30 1811 C 171.745 -1.62872 2.99476 0
M  V30 1812 H 172.938 0.179491 2.99362 0
M  V30 1813 H 170.491 0.13096 1.5575 0
M  V30 1814 H 171.226 -2.29479 2.29151 0
M  V30 1815 H 171.011 -1.24128 3.71934 0
M  V30 1816 H 172.501 -2.2151 3.5401 0
M  V30 1817 N 172.938 -1.57226 0.108567 0
M  V30 1818 C 173.885 -2.14756 -0.845481 0
M  V30 1819 C 174.855 -1.06971 -1.27068 0
M  V30 1820 O 176.04 -1.34827 -1.35005 0
M  V30 1821 C 173.18 -2.74298 -2.09415 0
M  V30 1822 C 172.293 -3.96358 -1.71826 0
M  V30 1823 C 171.428 -4.44021 -2.9158 0
M  V30 1824 C 170.467 -5.58637 -2.50181 0
M  V30 1825 N 169.604 -6.01091 -3.62814 0
M  V30 1826 H 174.444 -2.95961 -0.348035 0
M  V30 1827 H 171.981 -1.46226 -0.160106 0
M  V30 1828 H 173.939 -3.06945 -2.82561 0
M  V30 1829 H 172.569 -1.95801 -2.56636 0
M  V30 1830 H 171.621 -3.69939 -0.885947 0
M  V30 1831 H 172.933 -4.79504 -1.37394 0
M  V30 1832 H 172.087 -4.78522 -3.72963 0
M  V30 1833 H 170.826 -3.59803 -3.29231 0
M  V30 1834 H 169.831 -5.23751 -1.67228 0
M  V30 1835 H 171.056 -6.44613 -2.13659 0
M  V30 1836 H 169.002 -5.19817 -4.00158 0
M  V30 1837 H 168.919 -6.79066 -3.32273 0
M  V30 1838 H 170.187 -6.40227 -4.44668 0
M  V30 1839 N 174.416 0.165178 -1.56732 0
M  V30 1840 C 175.348 1.22911 -1.93457 0
M  V30 1841 C 176.361 1.40152 -0.828333 0
M  V30 1842 O 177.55 1.40046 -1.10677 0
M  V30 1843 C 174.65 2.59686 -2.17753 0
M  V30 1844 C 173.823 2.63663 -3.48999 0
M  V30 1845 C 172.882 3.81845 -3.62051 0
M  V30 1846 O 171.908 3.67559 -4.34613 0
M  V30 1847 N 173.11 4.98557 -2.97357 0
M  V30 1848 H 175.875 0.917118 -2.85323 0
M  V30 1849 H 173.436 0.354895 -1.57962 0
M  V30 1850 H 175.428 3.37225 -2.23743 0
M  V30 1851 H 173.998 2.83251 -1.32242 0
M  V30 1852 H 173.218 1.72173 -3.54612 0
M  V30 1853 H 174.506 2.63336 -4.35352 0
M  V30 1854 H 173.904 5.13065 -2.38287 0
M  V30 1855 H 172.461 5.73936 -3.08934 0
M  V30 1856 N 175.894 1.51508 0.433938 0
M  V30 1857 C 176.827 1.67756 1.54704 0
M  V30 1858 C 177.805 0.525127 1.53887 0
M  V30 1859 O 178.989 0.749393 1.72963 0
M  V30 1860 C 176.116 1.69424 2.9328 0
M  V30 1861 C 175.162 2.90673 3.12108 0
M  V30 1862 S 175.995 4.51431 2.88046 0
M  V30 1863 C 177.151 4.55849 4.28897 0
M  V30 1864 H 177.384 2.61904 1.40689 0
M  V30 1865 H 174.917 1.41235 0.62386 0
M  V30 1866 H 176.875 1.7107 3.73156 0
M  V30 1867 H 175.536 0.764464 3.04655 0
M  V30 1868 H 174.729 2.88251 4.13434 0
M  V30 1869 H 174.331 2.86786 2.40062 0
M  V30 1870 H 176.623 4.31699 5.22152 0
M  V30 1871 H 177.566 5.57676 4.36351 0
M  V30 1872 H 177.974 3.85137 4.12711 0
M  V30 1873 N 177.372 -0.689602 1.41712 0
M  V30 1874 C 178.621 -1.44534 1.40686 0
M  V30 1875 C 178.934 -1.95588 0.0213352 0
M  V30 1876 O 180.14 -2.71271 -0.111534 0
M  V30 1877 C 178.596 -2.61387 2.47396 0
M  V30 1878 C 178.204 -2.17094 3.91885 0
M  V30 1879 C 179.948 -3.38986 2.55517 0
M  V30 1880 C 177.855 -3.3094 4.90135 0
M  V30 1881 H 176.785 -0.542925 0.52321 0
M  V30 1882 H 179.436 -0.748054 1.6756 0
M  V30 1883 H 177.818 -3.33412 2.13664 0
M  V30 1884 H 178.992 -1.52318 4.34897 0
M  V30 1885 H 177.307 -1.52473 3.8748 0
M  V30 1886 H 179.904 -4.23747 3.26102 0
M  V30 1887 H 180.247 -3.84578 1.59391 0
M  V30 1888 H 180.78 -2.74021 2.8837 0
M  V30 1889 H 177.519 -2.90355 5.87685 0
M  V30 1890 H 177.039 -3.94546 4.51767 0
M  V30 1891 H 178.718 -3.9663 5.11169 0
M  V30 1892 N 178.85 -1.27639 -0.924453 0
M  V30 1893 C 180.098 -1.13941 -1.66918 0
M  V30 1894 C 180.419 0.314589 -1.92446 0
M  V30 1895 O 179.689 1.21964 -1.53303 0
M  V30 1896 H 178.269 -0.418678 -0.618642 0
M  V30 1897 H 180.931 -1.60213 -1.10985 0
M  V30 1898 H 180.027 -1.67094 -2.63602 0
M  V30 1899 N 180.328 1.1314 -1.09713 0
M  V30 1900 C 181.558 1.88048 -0.855656 0
M  V30 1901 C 181.966 1.79537 0.596919 0
M  V30 1902 O 181.309 1.16196 1.42282 0
M  V30 1903 C 181.371 3.38314 -1.21589 0
M  V30 1904 C 181.035 3.70605 -2.67397 0
M  V30 1905 C 182.032 3.69596 -3.65643 0
M  V30 1906 C 179.717 4.0017 -3.03593 0
M  V30 1907 C 181.711 3.977 -4.9811 0
M  V30 1908 C 179.398 4.27935 -4.36251 0
M  V30 1909 C 180.396 4.26685 -5.33318 0
M  V30 1910 O 180.084 4.53767 -6.63589 0
M  V30 1911 H 179.816 0.60208 -0.307368 0
M  V30 1912 H 182.37 1.44128 -1.46343 0
M  V30 1913 H 180.6 3.82752 -0.551177 0
M  V30 1914 H 182.289 3.94552 -0.953083 0
M  V30 1915 H 183.055 3.46826 -3.39023 0
M  V30 1916 H 178.934 4.00289 -2.2867 0
M  V30 1917 H 182.478 3.9664 -5.73866 0
M  V30 1918 H 178.375 4.50178 -4.62613 0
M  V30 1919 H 179.143 4.71422 -6.69107 0
M  V30 1920 N 181.806 0.884767 1.30421 0
M  V30 1921 C 182.754 0.340869 2.30089 0
M  V30 1922 C 183.748 -0.55201 1.60154 0
M  V30 1923 O 184.954 -0.436467 1.74628 0
M  V30 1924 H 181.329 0.0915739 0.746404 0
M  V30 1925 H 183.3 1.19513 2.73421 0
M  V30 1926 C 182.049 -0.429779 3.45034 0
M  V30 1927 H 181.372 0.248024 3.9903 0
M  V30 1928 H 182.812 -0.775445 4.16849 0
M  V30 1929 C 181.271 -1.62677 2.95022 0
M  V30 1930 O 181.801 -2.72614 2.95033 0
M  V30 1931 N 180.007 -1.46387 2.51036 0
M  V30 1932 H 179.554 -0.569506 2.51226 0
M  V30 1933 H 179.512 -2.26612 2.17932 0
M  V30 1934 N 183.284 -1.43765 0.645699 0
M  V30 1935 C 184.214 -2.33471 -0.0370477 0
M  V30 1936 C 185.195 -1.49042 -0.819779 0
M  V30 1937 O 186.38 -1.77726 -0.782758 0
M  V30 1938 C 183.51 -3.32311 -1.0093 0
M  V30 1939 C 182.464 -4.2667 -0.337201 0
M  V30 1940 C 181.79 -5.1549 -1.42037 0
M  V30 1941 C 183.09 -5.16657 0.765706 0
M  V30 1942 H 184.784 -2.90809 0.712069 0
M  V30 1943 H 182.33 -1.39834 0.343876 0
M  V30 1944 H 184.283 -3.9396 -1.49578 0
M  V30 1945 H 183.007 -2.73213 -1.78948 0
M  V30 1946 H 181.666 -3.66374 0.128771 0
M  V30 1947 H 181.314 -4.52735 -2.1918 0
M  V30 1948 H 181.014 -5.79438 -0.975966 0
M  V30 1949 H 182.538 -5.80012 -1.90838 0
M  V30 1950 H 183.952 -5.72158 0.361702 0
M  V30 1951 H 182.349 -5.89286 1.13413 0
M  V30 1952 H 183.419 -4.56796 1.62683 0
M  V30 1953 N 184.763 -0.387143 -1.52771 0
M  V30 1954 C 185.726 0.436939 -2.24997 0
M  V30 1955 C 186.726 0.991991 -1.26555 0
M  V30 1956 O 187.916 0.874335 -1.50669 0
M  V30 1957 C 185.048 1.61281 -3.00335 0
M  V30 1958 H 186.241 -0.195365 -2.99263 0
M  V30 1959 H 183.794 -0.139218 -1.55679 0
M  V30 1960 H 184.529 2.2826 -2.30364 0
M  V30 1961 H 184.314 1.22154 -3.72587 0
M  V30 1962 H 185.804 2.19629 -3.5518 0
M  V30 1963 N 186.241 1.57166 -0.116904 0
M  V30 1964 C 187.469 1.99473 0.549383 0
M  V30 1965 C 187.884 0.996541 1.60357 0
M  V30 1966 O 187.241 -0.0108731 1.82497 0
M  V30 1967 C 187.292 3.41788 1.17741 0
M  V30 1968 O 187.013 4.37788 0.165362 0
M  V30 1969 C 188.514 3.99216 1.92722 0
M  V30 1970 H 185.734 0.655009 0.145616 0
M  V30 1971 H 188.278 2.03494 -0.202625 0
M  V30 1972 H 186.433 3.38713 1.88021 0
M  V30 1973 H 186.847 5.20806 0.621403 0
M  V30 1974 H 188.321 5.00882 2.31995 0
M  V30 1975 H 188.798 3.3824 2.80161 0
M  V30 1976 H 189.404 4.0583 1.27209 0
M  V30 1977 N 187.719 -0.156864 1.56817 0
M  V30 1978 C 188.666 -1.19394 1.97519 0
M  V30 1979 C 189.636 -1.4322 0.841265 0
M  V30 1980 O 190.821 -1.55719 1.10255 0
M  V30 1981 C 187.961 -2.52483 2.35258 0
M  V30 1982 C 187.074 -2.35914 3.61896 0
M  V30 1983 C 186.209 -3.61969 3.88782 0
M  V30 1984 C 185.248 -3.40395 5.08722 0
M  V30 1985 N 184.385 -4.58556 5.31668 0
M  V30 1986 H 189.225 -0.839845 2.85921 0
M  V30 1987 H 186.762 -0.403264 1.41464 0
M  V30 1988 H 188.72 -3.30071 2.55165 0
M  V30 1989 H 187.35 -2.85859 1.49949 0
M  V30 1990 H 186.402 -1.49429 3.49821 0
M  V30 1991 H 187.714 -2.15926 4.49641 0
M  V30 1992 H 186.868 -4.47989 4.09135 0
M  V30 1993 H 185.607 -3.84951 2.9944 0
M  V30 1994 H 184.612 -2.52763 4.88253 0
M  V30 1995 H 185.837 -3.18822 5.99608 0
M  V30 1996 H 183.783 -4.81729 4.45279 0
M  V30 1997 H 183.7 -4.41535 6.13664 0
M  V30 1998 H 184.968 -5.45817 5.5651 0
M  V30 1999 N 189.197 -1.51736 -0.425897 0
M  V30 2000 C 190.129 -1.70083 -1.53638 0
M  V30 2001 C 191.142 -0.581349 -1.52066 0
M  V30 2002 O 192.331 -0.856017 -1.56635 0
M  V30 2003 C 189.431 -1.71078 -2.9255 0
M  V30 2004 C 188.604 -2.99795 -3.185 0
M  V30 2005 C 187.663 -2.92825 -4.37196 0
M  V30 2006 O 186.689 -3.66756 -4.35291 0
M  V30 2007 N 187.891 -2.0946 -5.41393 0
M  V30 2008 H 190.656 -2.65882 -1.383 0
M  V30 2009 H 188.217 -1.49765 -0.614988 0
M  V30 2010 H 190.209 -1.63969 -3.69995 0
M  V30 2011 H 188.779 -0.828242 -3.01428 0
M  V30 2012 H 187.999 -3.20684 -2.2925 0
M  V30 2013 H 189.287 -3.84977 -3.32671 0
M  V30 2014 H 188.685 -1.48792 -5.45781 0
M  V30 2015 H 187.242 -2.08221 -6.17647 0
M  V30 2016 N 190.675 0.682077 -1.42076 0
M  V30 2017 C 191.903 1.47057 -1.4554 0
M  V30 2018 C 192.318 1.8869 -0.0645779 0
M  V30 2019 O 191.675 1.57666 0.919115 0
M  V30 2020 C 191.726 2.72442 -2.37609 0
M  V30 2021 O 191.447 2.32559 -3.71279 0
M  V30 2022 C 192.948 3.66069 -2.50017 0
M  V30 2023 H 190.168 0.452737 -0.495248 0
M  V30 2024 H 192.712 0.838695 -1.8651 0
M  V30 2025 H 190.867 3.31835 -1.9991 0
M  V30 2026 H 191.281 3.13475 -4.20516 0
M  V30 2027 H 192.755 4.50792 -3.18576 0
M  V30 2028 H 193.232 4.11476 -1.53572 0
M  V30 2029 H 193.838 3.12572 -2.88407 0
M  V30 2030 N 192.153 1.28127 0.917671 0
M  V30 2031 C 193.564 1.13622 1.48145 0
M  V30 2032 C 193.915 -0.275207 1.9426 0
M  V30 2033 O 193.04 -1.1691 1.82102 0
M  V30 2034 C 193.635 2.05648 2.69248 0
M  V30 2035 C 192.194 1.95219 3.21818 0
M  V30 2036 C 191.341 1.97618 1.94532 0
M  V30 2037 H 194.292 1.40874 0.730772 0
M  V30 2038 H 194.313 1.61818 3.44377 0
M  V30 2039 H 193.825 3.08365 2.35653 0
M  V30 2040 H 191.926 0.955244 3.60147 0
M  V30 2041 H 192.039 2.81976 3.87333 0
M  V30 2042 H 190.403 1.41973 2.11461 0
M  V30 2043 H 191.186 3.02007 1.63238 0
M  V30 2044 N 193.631 -1.12557 1.10312 0
M  V30 2045 C 194.578 -2.18247 0.750781 0
M  V30 2046 C 195.548 -1.63853 -0.272293 0
M  V30 2047 O 196.733 -1.90195 -0.151862 0
M  V30 2048 C 193.873 -3.44591 0.187379 0
M  V30 2049 C 192.986 -4.13046 1.2656 0
M  V30 2050 C 192.121 -5.27034 0.663978 0
M  V30 2051 C 191.16 -5.87353 1.72287 0
M  V30 2052 N 190.297 -6.92757 1.1416 0
M  V30 2053 H 195.137 -2.47732 1.65628 0
M  V30 2054 H 192.674 -1.21629 0.827337 0
M  V30 2055 H 194.632 -4.16904 -0.157148 0
M  V30 2056 H 193.262 -3.15527 -0.681355 0
M  V30 2057 H 192.314 -3.38924 1.72727 0
M  V30 2058 H 193.626 -4.53947 2.06721 0
M  V30 2059 H 192.78 -6.06104 0.268824 0
M  V30 2060 H 191.519 -4.87407 -0.169082 0
M  V30 2061 H 190.524 -5.06971 2.12746 0
M  V30 2062 H 191.749 -6.29051 2.55875 0
M  V30 2063 H 189.695 -6.5517 0.329984 0
M  V30 2064 H 189.612 -7.3225 1.88007 0
M  V30 2065 H 190.88 -7.75658 0.772956 0
M  V30 2066 N 195.109 -0.891671 -1.2995 0
M  V30 2067 C 196.019 -0.367691 -2.31701 0
M  V30 2068 C 197.035 0.533486 -1.6562 0
M  V30 2069 O 198.211 0.424997 -1.96865 0
M  V30 2070 C 195.276 0.403406 -3.44345 0
M  V30 2071 C 194.337 -0.528328 -4.26037 0
M  V30 2072 C 193.57 0.206063 -5.33302 0
M  V30 2073 O 193.793 1.43119 -5.52153 0
M  V30 2074 O 192.727 -0.447281 -6.00236 0
M  V30 2075 H 196.553 -1.21163 -2.78484 0
M  V30 2076 H 194.138 -0.655725 -1.34241 0
M  V30 2077 H 196.02 0.839753 -4.12948 0
M  V30 2078 H 194.695 1.22354 -2.99685 0
M  V30 2079 H 193.602 -1.01362 -3.60106 0
M  V30 2080 H 194.935 -1.31465 -4.74318 0
M  V30 2081 N 196.587 1.43421 -0.653314 0
M  V30 2082 C 197.835 2.01414 -0.166415 0
M  V30 2083 C 198.156 1.51803 1.22397 0
M  V30 2084 O 197.426 0.730693 1.81763 0
M  V30 2085 H 196.006 0.744703 -0.0585319 0
M  V30 2086 H 198.668 1.75629 -0.845003 0
M  V30 2087 H 197.764 3.11734 -0.151111 0
M  V30 2088 N 198.065 0.39524 1.52563 0
M  V30 2089 C 199.311 -0.185318 2.01952 0
M  V30 2090 C 199.644 -1.45964 1.28095 0
M  V30 2091 O 198.919 -1.90689 0.38315 0
M  V30 2092 C 199.202 -0.447193 3.57312 0
M  V30 2093 C 199.055 0.842828 4.41833 0
M  V30 2094 C 200.374 -1.23529 4.22408 0
M  V30 2095 H 197.493 -0.0658788 0.73405 0
M  V30 2096 H 200.135 0.525975 1.82575 0
M  V30 2097 H 198.285 -1.05312 3.73954 0
M  V30 2098 H 199.957 1.4795 4.36931 0
M  V30 2099 H 198.2 1.45686 4.08605 0
M  V30 2100 H 198.871 0.614165 5.48573 0
M  V30 2101 H 201.347 -0.722445 4.0978 0
M  V30 2102 H 200.223 -1.38727 5.3108 0
M  V30 2103 H 200.484 -2.25213 3.80436 0
M  V30 2104 N 199.544 -1.57102 0.125237 0
M  V30 2105 C 200.491 -2.15641 -0.822655 0
M  V30 2106 C 201.461 -1.08313 -1.25927 0
M  V30 2107 O 202.646 -1.36251 -1.33567 0
M  V30 2108 C 199.786 -2.76504 -2.06494 0
M  V30 2109 C 198.899 -3.98158 -1.67612 0
M  V30 2110 C 198.034 -4.47088 -2.86854 0
M  V30 2111 C 197.073 -5.6126 -2.44242 0
M  V30 2112 N 196.21 -6.04905 -3.56419 0
M  V30 2113 H 201.05 -2.96313 -0.316625 0
M  V30 2114 H 198.587 -1.46388 -0.144588 0
M  V30 2115 H 200.545 -3.09925 -2.79289 0
M  V30 2116 H 199.175 -1.98512 -2.54545 0
M  V30 2117 H 198.227 -3.70858 -0.846661 0
M  V30 2118 H 199.539 -4.80934 -1.32301 0
M  V30 2119 H 198.693 -4.82451 -3.67867 0
M  V30 2120 H 197.432 -3.63275 -3.25396 0
M  V30 2121 H 196.437 -5.25495 -1.61663 0
M  V30 2122 H 197.662 -6.46843 -2.0681 0
M  V30 2123 H 195.608 -5.24032 -3.94623 0
M  V30 2124 H 195.525 -6.82552 -3.25051 0
M  V30 2125 H 196.793 -6.44907 -4.37853 0
M  V30 2126 N 201.022 0.148545 -1.56898 0
M  V30 2127 C 202.268 0.862694 -1.83536 0
M  V30 2128 C 202.601 1.80889 -0.706604 0
M  V30 2129 O 201.876 1.92328 0.289885 0
M  V30 2130 C 202.159 1.63853 -3.20662 0
M  V30 2131 C 202.012 0.713925 -4.44098 0
M  V30 2132 C 203.331 2.60133 -3.54991 0
M  V30 2133 H 200.45 0.312179 -0.667618 0
M  V30 2134 H 203.092 0.127953 -1.89569 0
M  V30 2135 H 201.242 2.26489 -3.1565 0
M  V30 2136 H 202.914 0.098686 -4.61194 0
M  V30 2137 H 201.157 0.0234019 -4.33794 0
M  V30 2138 H 201.828 1.29278 -5.36648 0
M  V30 2139 H 204.304 2.07616 -3.60603 0
M  V30 2140 H 203.18 3.11468 -4.51972 0
M  V30 2141 H 203.441 3.41417 -2.80868 0
M  V30 2142 N 202.5 1.5196 0.417844 0
M  V30 2143 C 203.448 1.75278 1.52907 0
M  V30 2144 C 204.442 0.619611 1.57662 0
M  V30 2145 O 205.648 0.801457 1.61173 0
M  V30 2146 H 202.023 0.554141 0.508362 0
M  V30 2147 H 203.994 2.68389 1.30422 0
M  V30 2148 C 202.743 1.91262 2.90369 0
M  V30 2149 H 202.066 2.77872 2.8745 0
M  V30 2150 H 203.506 2.11581 3.67436 0
M  V30 2151 C 201.965 0.677431 3.30019 0
M  V30 2152 O 202.495 -0.158799 4.01386 0
M  V30 2153 N 200.701 0.515851 2.85985 0
M  V30 2154 H 200.248 1.19744 2.28077 0
M  V30 2155 H 200.206 -0.309315 3.12875 0
M  V30 2156 N 203.978 -0.674533 1.42435 0
M  V30 2157 C 204.925 -1.78807 1.45934 0
M  V30 2158 C 205.895 -1.63157 0.311271 0
M  V30 2159 O 207.08 -1.83707 0.515383 0
M  V30 2160 C 204.22 -3.16839 1.36773 0
M  V30 2161 C 203.333 -3.43774 2.61617 0
M  V30 2162 C 202.468 -4.71536 2.44597 0
M  V30 2163 C 201.507 -4.91505 3.64814 0
M  V30 2164 N 200.644 -6.10508 3.46734 0
M  V30 2165 H 205.484 -1.75151 2.41093 0
M  V30 2166 H 203.021 -0.85504 1.19697 0
M  V30 2167 H 204.979 -3.96606 1.29459 0
M  V30 2168 H 203.609 -3.19619 0.452089 0
M  V30 2169 H 202.661 -2.58259 2.79297 0
M  V30 2170 H 203.973 -3.54423 3.50978 0
M  V30 2171 H 203.127 -5.59393 2.3487 0
M  V30 2172 H 201.866 -4.6317 1.52726 0
M  V30 2173 H 200.871 -4.0209 3.74972 0
M  V30 2174 H 202.096 -5.01716 4.57665 0
M  V30 2175 H 200.042 -6.03315 2.5758 0
M  V30 2176 H 199.959 -6.2202 4.29682 0
M  V30 2177 H 201.227 -7.01044 3.40819 0
M  V30 2178 N 205.456 -1.28612 -0.910864 0
M  V30 2179 C 206.702 -1.16106 -1.66274 0
M  V30 2180 C 207.035 0.289113 -1.92036 0
M  V30 2181 O 206.31 1.21 -1.52281 0
M  V30 2182 C 206.593 -1.96309 -3.01885 0
M  V30 2183 C 206.446 -3.49405 -2.8326 0
M  V30 2184 C 207.765 -1.78076 -4.02463 0
M  V30 2185 H 204.884 -0.423152 -0.603417 0
M  V30 2186 H 207.526 -1.57961 -1.05586 0
M  V30 2187 H 205.676 -1.60742 -3.53687 0
M  V30 2188 H 207.348 -3.94894 -2.38446 0
M  V30 2189 H 205.591 -3.74893 -2.18261 0
M  V30 2190 H 206.262 -4.00784 -3.79574 0
M  V30 2191 H 208.738 -2.0912 -3.59733 0
M  V30 2192 H 207.614 -2.36561 -4.95308 0
M  V30 2193 H 207.875 -0.733008 -4.35981 0
M  V30 2194 N 206.934 1.1197 -1.10907 0
M  V30 2195 C 207.867 2.16998 -0.706192 0
M  V30 2196 C 208.845 1.59903 0.294897 0
M  V30 2197 O 210.029 1.87513 0.192636 0
M  V30 2198 C 207.156 3.38673 -0.0427664 0
M  V30 2199 C 206.202 4.14414 -1.00811 0
M  V30 2200 S 207.035 4.72079 -2.52789 0
M  V30 2201 C 208.191 5.97083 -1.87731 0
M  V30 2202 H 208.424 2.50837 -1.59587 0
M  V30 2203 H 205.957 1.23508 -0.926555 0
M  V30 2204 H 207.915 4.09142 0.333668 0
M  V30 2205 H 206.576 3.03105 0.823788 0
M  V30 2206 H 205.769 5.016 -0.491259 0
M  V30 2207 H 205.371 3.49678 -1.3267 0
M  V30 2208 H 207.663 6.66599 -1.21044 0
M  V30 2209 H 208.606 6.53403 -2.72892 0
M  V30 2210 H 209.014 5.4837 -1.33979 0
M  V30 2211 N 208.412 0.89855 1.29475 0
M  V30 2212 C 209.658 0.524658 1.95896 0
M  V30 2213 C 209.991 -0.926468 1.70676 0
M  V30 2214 O 209.266 -1.65665 1.01908 0
M  V30 2215 C 209.549 0.81633 3.50725 0
M  V30 2216 C 209.402 2.31907 3.85408 0
M  V30 2217 C 210.721 0.302038 4.39062 0
M  V30 2218 H 207.84 0.19209 0.711527 0
M  V30 2219 H 210.482 1.12502 1.53112 0
M  V30 2220 H 208.632 0.305369 3.87298 0
M  V30 2221 H 210.304 2.89949 3.58786 0
M  V30 2222 H 208.547 2.78027 3.32992 0
M  V30 2223 H 209.218 2.47373 4.93468 0
M  V30 2224 H 211.694 0.739551 4.09475 0
M  V30 2225 H 210.57 0.535331 5.46283 0
M  V30 2226 H 210.831 -0.797216 4.34853 0
M  V30 2227 N 209.89 -1.43072 0.660911 0
M  V30 2228 C 210.853 -2.29194 -0.0166406 0
M  V30 2229 C 211.853 -1.42609 -0.742912 0
M  V30 2230 O 213.043 -1.64155 -0.583004 0
M  V30 2231 C 210.175 -3.24831 -1.0343 0
M  V30 2232 H 211.368 -2.90596 0.741208 0
M  V30 2233 H 208.921 -1.5048 0.422532 0
M  V30 2234 H 209.656 -2.68339 -1.82111 0
M  V30 2235 H 209.441 -3.88676 -0.517082 0
M  V30 2236 H 210.931 -3.89451 -1.50723 0
M  V30 2237 N 211.368 -0.403325 -1.52352 0
M  V30 2238 C 212.278 0.432009 -2.30588 0
M  V30 2239 C 213.294 1.05884 -1.38075 0
M  V30 2240 O 214.47 1.06161 -1.71148 0
M  V30 2241 C 211.535 1.53669 -3.10784 0
M  V30 2242 C 210.596 0.933525 -4.19027 0
M  V30 2243 C 209.829 1.98557 -4.9539 0
M  V30 2244 O 210.052 3.20283 -4.71991 0
M  V30 2245 O 208.986 1.59504 -5.80381 0
M  V30 2246 H 212.812 -0.205739 -3.03002 0
M  V30 2247 H 210.397 -0.166675 -1.48467 0
M  V30 2248 H 212.279 2.17814 -3.60742 0
M  V30 2249 H 210.954 2.15915 -2.41169 0
M  V30 2250 H 209.861 0.254954 -3.7323 0
M  V30 2251 H 211.194 0.35508 -4.90918 0
M  V30 2252 N 212.846 1.57033 -0.133567 0
M  V30 2253 C 213.809 2.14897 0.796995 0
M  V30 2254 C 214.809 1.0874 1.18458 0
M  V30 2255 O 215.999 1.34446 1.1077 0
M  V30 2256 C 213.131 2.70112 2.07973 0
M  V30 2257 H 214.324 2.98457 0.293873 0
M  V30 2258 H 211.877 1.55871 0.115787 0
M  V30 2259 H 212.612 1.9018 2.62682 0
M  V30 2260 H 212.397 3.47764 1.81115 0
M  V30 2261 H 213.887 3.14738 2.74462 0
M  V30 2262 N 214.325 -0.140222 1.56975 0
M  V30 2263 C 215.255 -1.17456 2.01808 0
M  V30 2264 C 216.236 -1.44415 0.898794 0
M  V30 2265 O 217.421 -1.5522 1.16707 0
M  V30 2266 C 214.551 -2.50607 2.40444 0
M  V30 2267 C 213.505 -2.38155 3.55621 0
M  V30 2268 C 212.831 -3.76078 3.80091 0
M  V30 2269 C 214.131 -1.85991 4.88062 0
M  V30 2270 H 215.825 -0.801743 2.88466 0
M  V30 2271 H 213.371 -0.38422 1.38779 0
M  V30 2272 H 215.324 -3.23197 2.7041 0
M  V30 2273 H 214.048 -2.89737 1.50732 0
M  V30 2274 H 212.707 -1.68016 3.25832 0
M  V30 2275 H 212.355 -4.12656 2.87618 0
M  V30 2276 H 212.055 -3.68606 4.57606 0
M  V30 2277 H 213.579 -4.50206 4.12488 0
M  V30 2278 H 214.993 -2.4838 5.16701 0
M  V30 2279 H 213.39 -1.89393 5.6943 0
M  V30 2280 H 214.46 -0.816023 4.77984 0
M  V30 2281 N 215.803 -1.52179 -0.40978 0
M  V30 2282 C 217.08 -1.56769 -1.16974 0
M  V30 2283 C 217.46 -0.348322 -2.08206 0
M  V30 2284 O 216.808 0.664862 -2.18613 0
M  V30 2285 C 217.018 -2.89603 -1.9476 0
M  V30 2286 C 218.366 -3.42579 -2.50849 0
M  V30 2287 O 219.39 -2.91338 -2.04941 0
M  V30 2288 O 218.249 -4.32054 -3.34652 0
M  V30 2289 H 215.343 -0.631439 -0.534054 0
M  V30 2290 H 217.889 -1.64507 -0.416613 0
M  V30 2291 H 216.661 -3.698 -1.27921 0
M  V30 2292 H 216.284 -2.85155 -2.77079 0
M  V30 2293 N 217.281 0.66697 -1.42791 0
M  V30 2294 C 218.53 1.42278 -1.42968 0
M  V30 2295 C 218.843 1.9553 -0.0524489 0
M  V30 2296 O 220.049 2.71414 0.068363 0
M  V30 2297 C 218.505 2.57418 -2.51524 0
M  V30 2298 C 218.113 2.10832 -3.9529 0
M  V30 2299 C 219.857 3.34878 -2.60877 0
M  V30 2300 C 217.764 3.23101 -4.95338 0
M  V30 2301 H 216.694 0.534533 -0.531781 0
M  V30 2302 H 219.345 0.721302 -1.68729 0
M  V30 2303 H 217.727 3.29971 -2.18941 0
M  V30 2304 H 218.901 1.4538 -4.37266 0
M  V30 2305 H 217.216 1.46289 -3.89857 0
M  V30 2306 H 219.813 4.18505 -3.32802 0
M  V30 2307 H 220.156 3.81993 -1.6549 0
M  V30 2308 H 220.689 2.69398 -2.92693 0
M  V30 2309 H 217.428 2.80969 -5.9223 0
M  V30 2310 H 216.948 3.87309 -4.57987 0
M  V30 2311 H 218.627 3.88447 -5.17415 0
M  V30 2312 N 218.759 1.29093 0.90403 0
M  V30 2313 C 219.984 1.19809 1.69294 0
M  V30 2314 C 220.409 -0.238481 1.86582 0
M  V30 2315 O 219.767 -1.1723 1.383 0
M  V30 2316 C 219.815 1.91202 3.05736 0
M  V30 2317 O 218.919 1.22611 3.93752 0
M  V30 2318 H 218.26 0.415385 0.518027 0
M  V30 2319 H 220.79 1.70586 1.12967 0
M  V30 2320 H 220.8 1.99487 3.55906 0
M  V30 2321 H 219.475 2.95692 2.92471 0
M  V30 2322 H 218.052 1.22554 3.52186 0
M  V30 2323 N 220.237 -1.11381 1.11499 0
M  V30 2324 C 221.653 -1.35143 0.849031 0
M  V30 2325 C 221.853 -1.94515 -0.525938 0
M  V30 2326 O 220.909 -2.1785 -1.27662 0
M  V30 2327 C 222.222 -2.28249 1.95762 0
M  V30 2328 C 223.77 -2.41812 1.98736 0
M  V30 2329 C 224.245 -3.3824 3.088 0
M  V30 2330 N 225.736 -3.45803 3.08179 0
M  V30 2331 C 226.471 -4.20358 3.89982 0
M  V30 2332 N 225.967 -4.97884 4.8175 0
M  V30 2333 N 227.76 -4.15877 3.78157 0
M  V30 2334 H 219.911 -0.712062 2.00109 0
M  V30 2335 H 222.174 -0.376025 0.870235 0
M  V30 2336 H 221.88 -1.91817 2.94787 0
M  V30 2337 H 221.754 -3.28473 1.85433 0
M  V30 2338 H 224.141 -2.77518 1.00338 0
M  V30 2339 H 224.222 -1.41437 2.13141 0
M  V30 2340 H 223.866 -3.03261 4.07425 0
M  V30 2341 H 223.796 -4.38471 2.91635 0
M  V30 2342 H 226.287 -2.90506 2.41691 0
M  V30 2343 H 226.6 -5.52142 5.40702 0
M  V30 2344 H 224.945 -4.97043 4.85771 0
M  V30 2345 H 228.136 -3.544 3.05808 0
M  V30 2346 H 228.309 -4.73723 4.42143 0
M  V30 2347 N 221.715 -0.905404 -1.28997 0
M  V30 2348 C 222.625 -0.392246 -2.31298 0
M  V30 2349 C 223.641 0.515889 -1.66176 0
M  V30 2350 O 224.817 0.404093 -1.97304 0
M  V30 2351 C 221.882 0.36686 -3.44754 0
M  V30 2352 C 220.943 -0.573485 -4.25452 0
M  V30 2353 C 220.176 0.149488 -5.33491 0
M  V30 2354 O 220.399 1.37255 -5.5364 0
M  V30 2355 O 219.333 -0.510919 -5.99728 0
M  V30 2356 H 223.159 -1.2411 -2.77183 0
M  V30 2357 H 220.744 -0.669926 -1.33538 0
M  V30 2358 H 222.626 0.795907 -4.13816 0
M  V30 2359 H 221.301 1.19169 -3.00966 0
M  V30 2360 H 220.208 -1.05176 -3.59011 0
M  V30 2361 H 221.541 -1.36489 -4.72897 0
M  V30 2362 N 223.193 1.4272 -0.668489 0
M  V30 2363 C 224.421 2.05966 -0.196348 0
M  V30 2364 C 224.836 1.50191 1.14403 0
M  V30 2365 O 224.193 0.639208 1.7094 0
M  V30 2366 C 224.244 3.61314 -0.115815 0
M  V30 2367 O 223.965 4.1502 -1.40322 0
M  V30 2368 C 225.466 4.41663 0.380579 0
M  V30 2369 H 222.686 0.663954 -0.0969829 0
M  V30 2370 H 225.23 1.82966 -0.913446 0
M  V30 2371 H 223.385 3.83448 0.551931 0
M  V30 2372 H 223.799 5.08832 -1.27243 0
M  V30 2373 H 225.273 5.5065 0.385848 0
M  V30 2374 H 225.75 4.15792 1.41471 0
M  V30 2375 H 226.356 4.24534 -0.255209 0
M  V30 2376 N 224.671 0.411399 1.52136 0
M  V30 2377 C 225.901 -0.16284 2.05957 0
M  V30 2378 C 226.309 -1.3922 1.28119 0
M  V30 2379 O 225.652 -1.80768 0.326881 0
M  V30 2380 C 225.714 -0.575946 3.54856 0
M  V30 2381 C 225.378 0.542998 4.53763 0
M  V30 2382 C 226.375 1.40726 5.00492 0
M  V30 2383 C 224.06 0.716337 4.97166 0
M  V30 2384 C 226.054 2.4298 5.8927 0
M  V30 2385 C 223.741 1.74218 5.8574 0
M  V30 2386 C 224.739 2.59731 6.31687 0
M  V30 2387 O 224.427 3.60558 7.18507 0
M  V30 2388 H 224.159 -0.0229125 0.675612 0
M  V30 2389 H 226.713 0.581634 1.96993 0
M  V30 2390 H 224.943 -1.37274 3.61515 0
M  V30 2391 H 226.632 -1.07836 3.91313 0
M  V30 2392 H 227.398 1.28476 4.67674 0
M  V30 2393 H 223.277 0.0603857 4.6096 0
M  V30 2394 H 226.821 3.0976 6.25055 0
M  V30 2395 H 222.718 1.86498 6.17971 0
M  V30 2396 H 223.486 3.56829 7.36624 0
M  V30 2397 N 226.149 -1.5696 0.141893 0
M  V30 2398 C 227.079 -2.19516 -0.795936 0
M  V30 2399 C 228.06 -1.14187 -1.26077 0
M  V30 2400 O 229.245 -1.42511 -1.31925 0
M  V30 2401 C 226.375 -2.81272 -2.03723 0
M  V30 2402 C 225.329 -3.92384 -1.70936 0
M  V30 2403 C 224.655 -4.41052 -3.02287 0
M  V30 2404 C 225.955 -5.13403 -0.959954 0
M  V30 2405 H 227.649 -2.98138 -0.274596 0
M  V30 2406 H 225.195 -1.43406 -0.130636 0
M  V30 2407 H 227.148 -3.237 -2.69808 0
M  V30 2408 H 225.872 -1.99973 -2.58221 0
M  V30 2409 H 224.531 -3.50566 -1.07232 0
M  V30 2410 H 224.179 -3.56582 -3.54765 0
M  V30 2411 H 223.879 -5.15993 -2.81114 0
M  V30 2412 H 225.403 -4.86146 -3.69451 0
M  V30 2413 H 226.817 -5.52706 -1.52279 0
M  V30 2414 H 225.214 -5.94073 -0.848357 0
M  V30 2415 H 226.284 -4.84875 0.0492434 0
M  V30 2416 N 227.627 0.131896 -1.57047 0
M  V30 2417 C 228.59 1.14638 -1.98471 0
M  V30 2418 C 229.59 1.35029 -0.873148 0
M  V30 2419 O 230.78 1.31764 -1.13946 0
M  V30 2420 C 227.912 2.50358 -2.31373 0
M  V30 2421 H 229.105 0.79064 -2.8929 0
M  V30 2422 H 226.658 0.375761 -1.51716 0
M  V30 2423 H 227.393 2.90876 -1.43393 0
M  V30 2424 H 227.178 2.36915 -3.12432 0
M  V30 2425 H 228.668 3.23395 -2.64207 0
M  V30 2426 N 229.106 1.52395 0.401703 0
M  V30 2427 C 230.355 1.66044 1.14509 0
M  V30 2428 C 230.668 0.400216 1.91462 0
M  V30 2429 O 231.874 0.416632 2.68284 0
M  V30 2430 C 230.33 2.93388 2.0845 0
M  V30 2431 C 229.938 4.26545 1.36978 0
M  V30 2432 C 231.682 3.16402 2.83001 0
M  V30 2433 C 229.589 5.45007 2.29611 0
M  V30 2434 H 228.519 0.618562 0.431158 0
M  V30 2435 H 231.17 1.78886 0.40892 0
M  V30 2436 H 229.552 2.74263 2.8565 0
M  V30 2437 H 230.726 4.56179 0.650916 0
M  V30 2438 H 229.041 4.09692 0.74438 0
M  V30 2439 H 231.638 4.02085 3.52465 0
M  V30 2440 H 231.981 2.30943 3.46368 0
M  V30 2441 H 232.514 3.36034 2.12898 0
M  V30 2442 H 229.253 6.32835 1.70879 0
M  V30 2443 H 228.773 5.19702 2.9945 0
M  V30 2444 H 230.452 5.7838 2.89974 0
M  V30 2445 N 230.584 -0.659388 1.43143 0
M  V30 2446 C 231.514 -1.78422 1.50625 0
M  V30 2447 C 232.495 -1.66216 0.361443 0
M  V30 2448 O 233.68 -1.85404 0.577834 0
M  V30 2449 C 230.81 -3.16815 1.42287 0
M  V30 2450 C 229.764 -3.43777 2.54954 0
M  V30 2451 C 229.09 -4.81905 2.31671 0
M  V30 2452 C 230.39 -3.39134 3.97222 0
M  V30 2453 H 232.084 -1.72417 2.44771 0
M  V30 2454 H 229.63 -0.828084 1.17808 0
M  V30 2455 H 231.583 -3.95253 1.46127 0
M  V30 2456 H 230.307 -3.23534 0.446435 0
M  V30 2457 H 228.966 -2.67707 2.50457 0
M  V30 2458 H 228.614 -4.85294 1.32284 0
M  V30 2459 H 228.314 -5.00906 3.07192 0
M  V30 2460 H 229.838 -5.62609 2.37284 0
M  V30 2461 H 231.252 -4.07518 4.03239 0
M  V30 2462 H 229.649 -3.69671 4.72719 0
M  V30 2463 H 230.719 -2.37426 4.22797 0
M  V30 2464 N 232.062 -1.29571 -0.897171 0
M  V30 2465 C 232.995 -1.0924 -2.00354 0
M  V30 2466 C 233.973 -0.00354011 -1.626 0
M  V30 2467 O 235.157 -0.15473 -1.87864 0
M  V30 2468 C 232.284 -0.66352 -3.32137 0
M  V30 2469 C 231.33 -1.75146 -3.88878 0
M  V30 2470 S 232.163 -3.35124 -4.17674 0
M  V30 2471 C 233.319 -2.9411 -5.52494 0
M  V30 2472 H 233.552 -2.02907 -2.17292 0
M  V30 2473 H 231.085 -1.13746 -1.04408 0
M  V30 2474 H 233.043 -0.422791 -4.08317 0
M  V30 2475 H 231.704 0.253588 -3.13075 0
M  V30 2476 H 230.897 -1.40337 -4.84068 0
M  V30 2477 H 230.499 -1.94584 -3.19395 0
M  V30 2478 H 232.791 -2.41312 -6.33068 0
M  V30 2479 H 233.734 -3.88161 -5.9223 0
M  V30 2480 H 234.142 -2.32332 -5.14473 0
M  V30 2481 N 233.54 1.10788 -1.12088 0
M  V30 2482 C 234.817 1.79136 -0.785476 0
M  V30 2483 C 235.197 1.98246 0.725377 0
M  V30 2484 O 234.545 1.57258 1.65778 0
M  V30 2485 C 234.755 3.12375 -1.55636 0
M  V30 2486 C 236.103 3.8731 -1.74001 0
M  V30 2487 O 237.127 3.22085 -1.52117 0
M  V30 2488 O 235.986 5.04369 -2.10415 0
M  V30 2489 H 233.08 0.776226 -0.285311 0
M  V30 2490 H 235.626 1.1747 -1.2247 0
M  V30 2491 H 234.398 2.93863 -2.5838 0
M  V30 2492 H 234.021 3.81758 -1.11114 0
M  V30 2493 N 235.018 0.912232 1.28515 0
M  V30 2494 C 236.434 0.610159 1.47476 0
M  V30 2495 C 236.634 -0.844955 1.82928 0
M  V30 2496 O 235.69 -1.62416 1.93332 0
M  V30 2497 C 237.003 1.54675 2.57868 0
M  V30 2498 C 238.551 1.55331 2.71738 0
M  V30 2499 C 239.026 2.47649 3.85272 0
M  V30 2500 N 240.517 2.45767 3.92623 0
M  V30 2501 C 241.252 3.13896 4.79851 0
M  V30 2502 N 240.748 3.9135 5.71679 0
M  V30 2503 N 242.541 3.02991 4.73448 0
M  V30 2504 H 234.692 1.85318 1.03783 0
M  V30 2505 H 236.955 0.794777 0.516753 0
M  V30 2506 H 236.661 2.5841 2.38574 0
M  V30 2507 H 236.535 1.27671 3.54937 0
M  V30 2508 H 238.922 0.52335 2.90422 0
M  V30 2509 H 239.003 1.86378 1.75205 0
M  V30 2510 H 238.647 3.50745 3.67342 0
M  V30 2511 H 238.577 2.13904 4.81199 0
M  V30 2512 H 241.068 1.89503 3.26951 0
M  V30 2513 H 241.381 4.40359 6.35062 0
M  V30 2514 H 239.726 3.95455 5.71524 0
M  V30 2515 H 242.917 2.41987 4.007 0
M  V30 2516 H 243.09 3.5636 5.41213 0
M  V30 2517 N 236.496 -1.42363 0.676048 0
M  V30 2518 C 237.721 -2.06377 0.205705 0
M  V30 2519 C 238.146 -1.50463 -1.12883 0
M  V30 2520 O 237.504 -0.623619 -1.70237 0
M  V30 2521 C 237.552 -3.60277 0.152655 0
M  V30 2522 O 236.656 -4.02935 -0.87845 0
M  V30 2523 H 235.997 -0.655588 0.105359 0
M  V30 2524 H 238.527 -1.82475 0.925412 0
M  V30 2525 H 238.537 -4.07993 -0.0230675 0
M  V30 2526 H 237.212 -4.00346 1.12675 0
M  V30 2527 H 235.789 -3.66764 -0.673668 0
M  V30 2528 N 237.974 -0.419461 -1.51915 0
M  V30 2529 C 239.214 0.152336 -2.03832 0
M  V30 2530 C 239.578 1.41501 -1.29775 0
M  V30 2531 O 240.779 2.06591 -1.7197 0
M  V30 2532 C 239.05 0.383812 -3.55333 0
M  V30 2533 S 240.609 0.921577 -4.29013 0
M  V30 2534 H 237.427 0.0402193 -0.709862 0
M  V30 2535 H 240.029 -0.574758 -1.8686 0
M  V30 2536 H 238.733 -0.541794 -4.06808 0
M  V30 2537 H 238.264 1.13849 -3.76566 0
M  V30 2538 H 240.279 2.20108 -4.4471 0
M  V30 2539 N 239.452 1.56882 -0.150215 0
M  V30 2540 C 240.4 2.18214 0.805313 0
M  V30 2541 C 241.394 1.14006 1.25296 0
M  V30 2542 O 242.6 1.3225 1.22107 0
M  V30 2543 H 238.975 0.698762 0.277913 0
M  V30 2544 H 240.946 2.97231 0.263862 0
M  V30 2545 C 239.695 2.82065 2.03309 0
M  V30 2546 H 239.018 3.61968 1.69763 0
M  V30 2547 H 240.458 3.28477 2.68103 0
M  V30 2548 C 238.917 1.80739 2.84315 0
M  V30 2549 O 239.447 1.27983 3.80767 0
M  V30 2550 N 237.653 1.4997 2.48913 0
M  V30 2551 H 237.2 1.93062 1.70542 0
M  V30 2552 H 237.158 0.824217 3.03404 0
M  V30 2553 N 240.93 -0.123565 1.57115 0
M  V30 2554 C 242.178 -0.83051 1.84247 0
M  V30 2555 C 242.499 -1.80629 0.73471 0
M  V30 2556 O 241.769 -1.94403 -0.241688 0
M  V30 2557 H 240.349 -0.309694 0.679778 0
M  V30 2558 H 243.011 -0.111976 1.94578 0
M  V30 2559 H 242.107 -1.37852 2.80006 0
M  V30 2560 N 242.408 -1.52605 -0.393616 0
M  V30 2561 C 243.819 -1.59417 -0.971761 0
M  V30 2562 C 244.17 -0.444173 -1.91106 0
M  V30 2563 O 243.295 0.433382 -2.12016 0
M  V30 2564 C 243.89 -2.88936 -1.76921 0
M  V30 2565 C 242.449 -2.98175 -2.29714 0
M  V30 2566 C 241.596 -2.54491 -1.10135 0
M  V30 2567 H 244.547 -1.57751 -0.173317 0
M  V30 2568 H 244.568 -2.75163 -2.62804 0
M  V30 2569 H 244.08 -3.72616 -1.08532 0
M  V30 2570 H 242.181 -2.19024 -3.01429 0
M  V30 2571 H 242.294 -4.02726 -2.59517 0
M  V30 2572 H 240.658 -2.08702 -1.45999 0
M  V30 2573 H 241.441 -3.4056 -0.432874 0
M  V30 2574 N 243.887 0.651787 -1.4349 0
M  V30 2575 C 245.133 1.41376 -1.45398 0
M  V30 2576 C 245.466 1.94041 -0.0784823 0
M  V30 2577 O 244.741 1.72379 0.900878 0
M  V30 2578 C 245.024 2.59414 -2.49752 0
M  V30 2579 C 244.877 2.12232 -3.96582 0
M  V30 2580 C 246.196 3.61626 -2.50827 0
M  V30 2581 H 243.315 0.512719 -0.529422 0
M  V30 2582 H 245.957 0.738796 -1.75048 0
M  V30 2583 H 244.107 3.16997 -2.246 0
M  V30 2584 H 245.779 1.59639 -4.32797 0
M  V30 2585 H 244.022 1.43592 -4.09346 0
M  V30 2586 H 244.693 2.9712 -4.65214 0
M  V30 2587 H 247.169 3.13805 -2.7325 0
M  V30 2588 H 246.045 4.41766 -3.25783 0
M  V30 2589 H 246.306 4.14314 -1.5426 0
M  V30 2590 N 245.365 1.30045 0.890287 0
M  V30 2591 C 246.295 1.18541 2.01172 0
M  V30 2592 C 247.276 0.0773356 1.69924 0
M  V30 2593 O 248.461 0.25845 1.92473 0
M  V30 2594 C 245.591 0.870941 3.36202 0
M  V30 2595 C 244.545 1.93637 3.81692 0
M  V30 2596 C 243.871 1.475 5.13953 0
M  V30 2597 C 245.171 3.34666 4.00994 0
M  V30 2598 H 246.865 2.12359 2.11054 0
M  V30 2599 H 244.411 1.02238 1.01407 0
M  V30 2600 H 246.364 0.777141 4.14172 0
M  V30 2601 H 245.088 -0.102926 3.26438 0
M  V30 2602 H 243.747 2.01972 3.05946 0
M  V30 2603 H 243.395 0.489551 5.00612 0
M  V30 2604 H 243.095 2.1876 5.4536 0
M  V30 2605 H 244.619 1.39489 5.94454 0
M  V30 2606 H 246.033 3.2912 4.69417 0
M  V30 2607 H 244.43 4.03966 4.43769 0
M  V30 2608 H 245.5 3.76949 3.05021 0
M  V30 2609 N 246.843 -1.10192 1.12674 0
M  V30 2610 C 248.089 -1.82475 0.884915 0
M  V30 2611 C 248.422 -1.85093 -0.58773 0
M  V30 2612 O 247.697 -1.3134 -1.43457 0
M  V30 2613 C 247.98 -3.29018 1.46353 0
M  V30 2614 C 247.833 -3.34718 3.00473 0
M  V30 2615 C 249.152 -4.25473 1.12519 0
M  V30 2616 H 246.271 -0.662492 0.322915 0
M  V30 2617 H 248.913 -1.2913 1.39375 0
M  V30 2618 H 247.063 -3.74576 1.03077 0
M  V30 2619 H 248.735 -2.97622 3.52447 0
M  V30 2620 H 246.978 -2.74541 3.35872 0
M  V30 2621 H 247.649 -4.37918 3.36053 0
M  V30 2622 H 250.125 -3.88161 1.499 0
M  V30 2623 H 249.001 -5.26365 1.55663 0
M  V30 2624 H 249.262 -4.42084 0.0377407 0
M  V30 2625 N 248.321 -0.919034 -1.28029 0
M  V30 2626 C 249.569 -0.553838 -1.94363 0
M  V30 2627 C 249.89 0.906357 -1.72656 0
M  V30 2628 O 249.16 1.64143 -1.0693 0
M  V30 2629 H 247.74 -0.201834 -0.719216 0
M  V30 2630 H 250.402 -1.16954 -1.55909 0
M  V30 2631 H 249.498 -0.752758 -3.02886 0
M  V30 2632 N 249.799 1.42003 -0.683588 0
M  V30 2633 C 251.024 2.06265 -0.216647 0
M  V30 2634 C 251.449 1.51059 1.12083 0
M  V30 2635 O 250.807 0.632638 1.69904 0
M  V30 2636 C 250.855 3.60191 -0.171759 0
M  V30 2637 O 249.959 4.03396 0.857069 0
M  V30 2638 H 249.3 0.65502 -0.108834 0
M  V30 2639 H 251.83 1.81982 -0.935077 0
M  V30 2640 H 251.84 4.08 0.0014303 0
M  V30 2641 H 250.515 3.99743 -1.14796 0
M  V30 2642 H 249.092 3.67117 0.654208 0
M  V30 2643 N 251.277 0.427512 1.51691 0
M  V30 2644 C 252.688 -0.0378867 1.86662 0
M  V30 2645 C 253.039 -1.42819 1.34525 0
M  V30 2646 O 252.164 -2.05037 0.692014 0
M  V30 2647 C 252.759 -0.0755266 3.38716 0
M  V30 2648 C 251.318 -0.485309 3.73258 0
M  V30 2649 C 250.465 0.328399 2.75349 0
M  V30 2650 H 253.416 0.64379 1.45055 0
M  V30 2651 H 253.437 -0.887056 3.70016 0
M  V30 2652 H 252.949 0.936487 3.76632 0
M  V30 2653 H 251.05 -1.50329 3.40928 0
M  V30 2654 H 251.163 -0.21693 4.78609 0
M  V30 2655 H 249.527 -0.211905 2.53817 0
M  V30 2656 H 250.31 1.3391 3.16106 0
M  V30 2657 N 252.755 -1.56801 0.158532 0
M  V30 2658 C 253.687 -2.14488 -0.807923 0
M  V30 2659 C 254.7 -1.09721 -1.20271 0
M  V30 2660 O 255.889 -1.36956 -1.14478 0
M  V30 2661 C 252.989 -2.66217 -2.09718 0
M  V30 2662 C 252.162 -3.95507 -1.86796 0
M  V30 2663 C 251.221 -4.3243 -2.99818 0
M  V30 2664 O 250.247 -5.00543 -2.71008 0
M  V30 2665 N 251.449 -3.92947 -4.27285 0
M  V30 2666 H 254.214 -2.98042 -0.314816 0
M  V30 2667 H 251.775 -1.61881 -0.0246692 0
M  V30 2668 H 253.767 -2.87924 -2.84398 0
M  V30 2669 H 252.337 -1.87324 -2.50257 0
M  V30 2670 H 251.557 -3.82309 -0.96089 0
M  V30 2671 H 252.845 -4.79972 -1.68833 0
M  V30 2672 H 252.243 -3.38087 -4.53557 0
M  V30 2673 H 250.8 -4.19681 -4.9871 0
M  V30 2674 N 254.233 0.115231 -1.57178 0
M  V30 2675 C 255.481 0.820727 -1.84685 0
M  V30 2676 C 255.802 1.80237 -0.744279 0
M  V30 2677 O 255.072 1.94529 0.231375 0
M  V30 2678 H 253.652 0.306084 -0.681411 0
M  V30 2679 H 256.314 0.101656 -1.94635 0
M  V30 2680 H 255.41 1.36366 -2.80733 0
M  V30 2681 N 255.711 1.52812 0.385517 0
M  V30 2682 C 256.959 1.67694 1.12797 0
M  V30 2683 C 257.28 0.421115 1.90399 0
M  V30 2684 O 256.55 -0.564551 1.87589 0
M  V30 2685 H 255.13 0.618155 0.419396 0
M  V30 2686 H 257.792 1.89938 0.436972 0
M  V30 2687 H 256.888 2.52896 1.82894 0
M  V30 2688 N 257.189 -0.644168 1.43834 0
M  V30 2689 C 258.435 -1.40603 1.46146 0
M  V30 2690 C 258.768 -1.93997 0.0887717 0
M  V30 2691 O 258.043 -1.72854 -0.891724 0
M  V30 2692 C 258.326 -2.58086 2.51124 0
M  V30 2693 C 258.179 -2.10126 3.97702 0
M  V30 2694 C 259.498 -3.60291 2.52742 0
M  V30 2695 H 256.617 -0.509905 0.532134 0
M  V30 2696 H 259.259 -0.729502 1.75437 0
M  V30 2697 H 257.409 -3.15801 2.26278 0
M  V30 2698 H 259.081 -1.57342 4.33637 0
M  V30 2699 H 257.324 -1.41419 4.10101 0
M  V30 2700 H 257.995 -2.94649 4.66783 0
M  V30 2701 H 260.471 -3.12352 2.7491 0
M  V30 2702 H 259.347 -4.40032 3.28121 0
M  V30 2703 H 259.608 -4.1349 1.56455 0
M  V30 2704 N 258.668 -1.30515 -0.883378 0
M  V30 2705 C 259.945 -1.10086 -1.6168 0
M  V30 2706 C 260.325 0.349269 -2.08191 0
M  V30 2707 O 259.673 1.34105 -1.85008 0
M  V30 2708 C 259.883 -2.10315 -2.78511 0
M  V30 2709 C 261.231 -2.42119 -3.48803 0
M  V30 2710 O 262.255 -2.08638 -2.88702 0
M  V30 2711 O 261.114 -2.99396 -4.57192 0
M  V30 2712 H 258.208 -0.422907 -0.710689 0
M  V30 2713 H 260.754 -1.41947 -0.930015 0
M  V30 2714 H 259.526 -3.07917 -2.41459 0
M  V30 2715 H 259.149 -1.79282 -3.54886 0
M  V30 2716 N 260.146 1.09593 -1.13257 0
M  V30 2717 C 261.395 1.81105 -0.887917 0
M  V30 2718 C 261.708 1.86563 0.587672 0
M  V30 2719 O 262.914 2.54367 0.949204 0
M  V30 2720 C 261.37 3.25338 -1.53895 0
M  V30 2721 C 260.978 3.28151 -3.04994 0
M  V30 2722 C 262.722 4.01617 -1.37492 0
M  V30 2723 C 260.629 4.66897 -3.6299 0
M  V30 2724 H 259.559 0.678661 -0.328534 0
M  V30 2725 H 262.21 1.23183 -1.36008 0
M  V30 2726 H 260.592 3.8331 -0.994446 0
M  V30 2727 H 261.766 2.79953 -3.66009 0
M  V30 2728 H 260.081 2.65361 -3.20893 0
M  V30 2729 H 262.678 5.04119 -1.78235 0
M  V30 2730 H 263.021 4.15072 -0.31957 0
M  V30 2731 H 263.554 3.50082 -1.88912 0
M  V30 2732 H 260.293 4.58643 -4.68323 0
M  V30 2733 H 259.813 5.15426 -3.06752 0
M  V30 2734 H 261.492 5.3587 -3.62563 0
M  V30 2735 N 261.624 0.925811 1.2754 0
M  V30 2736 C 262.534 0.428993 2.30644 0
M  V30 2737 C 263.55 -0.489387 1.66976 0
M  V30 2738 O 264.726 -0.372653 1.97922 0
M  V30 2739 C 261.791 -0.311967 3.45294 0
M  V30 2740 C 260.852 0.641098 4.24486 0
M  V30 2741 C 260.085 -0.0645955 5.33661 0
M  V30 2742 O 260.308 -1.28429 5.55754 0
M  V30 2743 O 259.242 0.606265 5.98839 0
M  V30 2744 H 263.068 1.28504 2.75173 0
M  V30 2745 H 260.653 0.691086 1.32455 0
M  V30 2746 H 262.535 -0.729972 4.15029 0
M  V30 2747 H 261.21 -1.14365 3.02824 0
M  V30 2748 H 260.117 1.10874 3.57292 0
M  V30 2749 H 261.45 1.43995 4.70666 0
M  V30 2750 N 263.102 -1.41638 0.69111 0
M  V30 2751 C 264.012 -2.34588 0.0233487 0
M  V30 2752 C 265.028 -1.55987 -0.770984 0
M  V30 2753 O 266.204 -1.88486 -0.709569 0
M  V30 2754 C 263.269 -3.34684 -0.904851 0
M  V30 2755 C 262.33 -4.29176 -0.103225 0
M  V30 2756 C 261.563 -5.2449 -0.987216 0
M  V30 2757 O 261.786 -5.2514 -2.22674 0
M  V30 2758 O 260.72 -6.00295 -0.439281 0
M  V30 2759 H 264.546 -2.93261 0.789416 0
M  V30 2760 H 262.131 -1.42417 0.45142 0
M  V30 2761 H 264.013 -3.96133 -1.43724 0
M  V30 2762 H 262.688 -2.78461 -1.65049 0
M  V30 2763 H 261.595 -3.71089 0.473655 0
M  V30 2764 H 262.928 -4.88484 0.60365 0
M  V30 2765 N 264.58 -0.43555 -1.51462 0
M  V30 2766 C 265.826 0.131709 -2.02372 0
M  V30 2767 C 266.159 1.42516 -1.3192 0
M  V30 2768 O 265.434 1.89606 -0.433573 0
M  V30 2769 C 265.717 0.352301 -3.58373 0
M  V30 2770 C 265.57 -0.959676 -4.39443 0
M  V30 2771 C 266.889 1.12286 -4.25535 0
M  V30 2772 H 264.008 0.0463936 -0.735538 0
M  V30 2773 H 266.65 -0.574197 -1.81116 0
M  V30 2774 H 264.8 0.9536 -3.76615 0
M  V30 2775 H 266.472 -1.59482 -4.32855 0
M  V30 2776 H 264.715 -1.56468 -4.04599 0
M  V30 2777 H 265.386 -0.759394 -5.46752 0
M  V30 2778 H 267.862 0.613545 -4.11552 0
M  V30 2779 H 266.738 1.24598 -5.34571 0
M  V30 2780 H 266.999 2.15048 -3.86273 0
M  V30 2781 N 266.058 1.56714 -0.166846 0
M  V30 2782 C 267.021 2.16539 0.751232 0
M  V30 2783 C 268.021 1.11228 1.16125 0
M  V30 2784 O 269.211 1.36765 1.07894 0
M  V30 2785 C 266.343 2.74462 2.02196 0
M  V30 2786 H 267.536 2.99013 0.230499 0
M  V30 2787 H 265.089 1.56081 0.0826982 0
M  V30 2788 H 265.824 1.95709 2.58589 0
M  V30 2789 H 265.609 3.51527 1.73698 0
M  V30 2790 H 267.099 3.20489 2.67725 0
M  V30 2791 N 267.536 -0.106894 1.57237 0
M  V30 2792 C 268.499 -1.11466 2.0027 0
M  V30 2793 C 269.499 -1.33623 0.894519 0
M  V30 2794 O 270.689 -1.29935 1.16028 0
M  V30 2795 C 267.821 -2.46646 2.35327 0
M  V30 2796 H 269.014 -0.744516 2.90512 0
M  V30 2797 H 266.567 -0.351576 1.52295 0
M  V30 2798 H 267.302 -2.88558 1.48003 0
M  V30 2799 H 267.087 -2.31915 3.16161 0
M  V30 2800 H 268.577 -3.19151 2.69318 0
M  V30 2801 N 269.014 -1.53014 -0.377408 0
M  V30 2802 C 270.239 -1.72818 -1.14668 0
M  V30 2803 C 270.664 -0.450725 -1.8262 0
M  V30 2804 O 270.022 0.59439 -1.7128 0
M  V30 2805 C 270.07 -2.88627 -2.16164 0
M  V30 2806 O 269.174 -2.56409 -3.22998 0
M  V30 2807 H 268.515 -0.574301 -0.333278 0
M  V30 2808 H 271.045 -1.99853 -0.438152 0
M  V30 2809 H 271.055 -3.14455 -2.59966 0
M  V30 2810 H 269.73 -3.81294 -1.66095 0
M  V30 2811 H 268.307 -2.4136 -2.84253 0
M  V30 2812 N 270.492 0.636531 -1.44174 0
M  V30 2813 C 271.44 1.76995 -1.50915 0
M  V30 2814 C 272.434 1.65053 -0.381295 0
M  V30 2815 O 273.64 1.71197 -0.55601 0
M  V30 2816 H 270.015 0.584247 -0.473455 0
M  V30 2817 H 271.986 1.68432 -2.4632 0
M  V30 2818 C 270.735 3.15314 -1.46534 0
M  V30 2819 H 270.058 3.25149 -2.32633 0
M  V30 2820 H 271.498 3.9453 -1.55312 0
M  V30 2821 C 269.957 3.3639 -0.185305 0
M  V30 2822 O 270.487 3.94699 0.746688 0
M  V30 2823 N 268.693 2.9046 -0.0901606 0
M  V30 2824 H 268.24 2.43193 -0.849416 0
M  V30 2825 H 268.198 3.04937 0.765553 0
M  V30 2826 N 271.97 1.30982 0.876444 0
M  V30 2827 C 273.381 1.18277 1.44456 0
M  V30 2828 C 273.732 -0.213265 1.95037 0
M  V30 2829 O 272.857 -1.11057 1.85729 0
M  V30 2830 C 273.452 2.1411 2.62569 0
M  V30 2831 C 272.011 2.05358 3.15444 0
M  V30 2832 C 271.158 2.03706 1.88146 0
M  V30 2833 H 274.109 1.43127 0.685584 0
M  V30 2834 H 274.13 1.72692 3.39054 0
M  V30 2835 H 273.642 3.15706 2.25724 0
M  V30 2836 H 271.743 1.06934 3.56926 0
M  V30 2837 H 271.856 2.94156 3.78166 0
M  V30 2838 H 270.22 1.48629 2.06837 0
M  V30 2839 H 271.003 3.07047 1.53547 0
M  V30 2840 N 273.449 -1.08991 1.13837 0
M  V30 2841 C 274.359 -2.19301 0.833333 0
M  V30 2842 C 275.375 -1.73026 -0.183847 0
M  V30 2843 O 276.551 -2.01395 -0.0138092 0
M  V30 2844 C 273.616 -3.45323 0.308651 0
M  V30 2845 C 272.677 -4.06255 1.38764 0
M  V30 2846 C 271.91 -5.26262 0.887896 0
M  V30 2847 O 272.133 -5.69747 -0.27287 0
M  V30 2848 O 271.067 -5.78435 1.66421 0
M  V30 2849 H 274.893 -2.47854 1.75506 0
M  V30 2850 H 272.478 -1.18012 0.916166 0
M  V30 2851 H 274.36 -4.21394 0.0216739 0
M  V30 2852 H 273.035 -3.18362 -0.585431 0
M  V30 2853 H 271.942 -3.318 1.72799 0
M  V30 2854 H 273.275 -4.37452 2.25602 0
M  V30 2855 N 274.927 -0.932562 -1.27047 0
M  V30 2856 C 275.857 -0.452902 -2.29066 0
M  V30 2857 C 276.838 0.489338 -1.62909 0
M  V30 2858 O 278.023 0.393046 -1.90181 0
M  V30 2859 C 275.153 0.290698 -3.46081 0
M  V30 2860 C 274.107 -0.564168 -4.24265 0
M  V30 2861 C 273.433 0.308886 -5.33807 0
M  V30 2862 C 274.733 -1.83112 -4.89149 0
M  V30 2863 H 276.427 -1.30552 -2.69437 0
M  V30 2864 H 273.973 -0.629201 -1.29526 0
M  V30 2865 H 275.926 0.637233 -4.16554 0
M  V30 2866 H 274.65 1.17738 -3.0464 0
M  V30 2867 H 273.309 -0.893477 -3.55545 0
M  V30 2868 H 272.957 1.19467 -4.88607 0
M  V30 2869 H 272.657 -0.259633 -5.87026 0
M  V30 2870 H 274.181 0.650884 -6.07121 0
M  V30 2871 H 275.595 -1.55236 -5.51883 0
M  V30 2872 H 273.992 -2.34353 -5.52448 0
M  V30 2873 H 275.062 -2.54772 -4.12576 0
M  V30 2874 N 276.405 1.4127 -0.698611 0
M  V30 2875 C 277.654 2.00408 -0.227949 0
M  V30 2876 C 277.967 1.55981 1.18023 0
M  V30 2877 O 279.173 2.07699 1.74852 0
M  V30 2878 C 277.629 3.58129 -0.356636 0
M  V30 2879 C 277.237 4.11536 -1.77037 0
M  V30 2880 C 278.981 4.24466 0.0540969 0
M  V30 2881 C 276.888 5.61701 -1.85055 0
M  V30 2882 H 275.818 0.749586 -0.0814657 0
M  V30 2883 H 278.469 1.61713 -0.867249 0
M  V30 2884 H 276.851 3.94442 0.350965 0
M  V30 2885 H 278.025 3.86636 -2.50698 0
M  V30 2886 H 276.34 3.57736 -2.13105 0
M  V30 2887 H 278.937 5.34698 0.0146723 0
M  V30 2888 H 279.28 4.01687 1.09332 0
M  V30 2889 H 279.813 3.93198 -0.603337 0
M  V30 2890 H 276.552 5.89312 -2.8704 0
M  V30 2891 H 276.072 5.88519 -1.15783 0
M  V30 2892 H 277.751 6.26524 -1.61484 0
M  V30 2893 N 277.883 0.443576 1.51229 0
M  V30 2894 C 279.13 -0.120796 2.02139 0
M  V30 2895 C 279.458 -1.42166 1.32736 0
M  V30 2896 O 278.713 -1.90849 0.43301 0
M  V30 2897 C 279.012 -0.380579 3.55368 0
M  V30 2898 C 278.678 0.83523 4.43097 0
M  V30 2899 C 277.34 1.16864 4.66794 0
M  V30 2900 C 279.692 1.64601 4.94526 0
M  V30 2901 C 277.02 2.31339 5.39165 0
M  V30 2902 C 279.372 2.78181 5.68153 0
M  V30 2903 C 278.036 3.11969 5.90112 0
M  V30 2904 H 277.306 -0.0442023 0.73968 0
M  V30 2905 H 279.953 0.592046 1.82118 0
M  V30 2906 H 278.258 -1.17538 3.73754 0
M  V30 2907 H 279.955 -0.830777 3.923 0
M  V30 2908 H 276.545 0.565437 4.24854 0
M  V30 2909 H 280.729 1.40163 4.76097 0
M  V30 2910 H 275.985 2.57823 5.5438 0
M  V30 2911 H 280.159 3.41371 6.06992 0
M  V30 2912 H 277.786 4.00784 6.45969 0
M  V30 2913 N 279.361 -1.56624 0.175154 0
M  V30 2914 C 280.308 -2.18149 -0.753634 0
M  V30 2915 C 281.278 -1.12265 -1.22417 0
M  V30 2916 O 282.463 -1.40432 -1.29165 0
M  V30 2917 C 279.603 -2.82933 -1.97592 0
M  V30 2918 C 278.716 -4.03289 -1.5486 0
M  V30 2919 C 277.851 -4.55988 -2.72485 0
M  V30 2920 C 276.89 -5.68746 -2.26262 0
M  V30 2921 N 276.027 -6.15938 -3.36994 0
M  V30 2922 H 280.867 -2.9717 -0.222195 0
M  V30 2923 H 278.404 -1.46774 -0.0979422 0
M  V30 2924 H 280.362 -3.18653 -2.69288 0
M  V30 2925 H 278.992 -2.06509 -2.481 0
M  V30 2926 H 278.044 -3.73364 -0.728246 0
M  V30 2927 H 279.356 -4.849 -1.16933 0
M  V30 2928 H 278.51 -4.9391 -3.52332 0
M  V30 2929 H 277.249 -3.73443 -3.13674 0
M  V30 2930 H 276.254 -5.30372 -1.44863 0
M  V30 2931 H 277.479 -6.53095 -1.86127 0
M  V30 2932 H 275.425 -5.36321 -3.77751 0
M  V30 2933 H 275.342 -6.92548 -3.03172 0
M  V30 2934 H 276.61 -6.58511 -4.17114 0
M  V30 2935 N 280.839 0.0985539 -1.57292 0
M  V30 2936 C 281.749 1.13824 -2.05137 0
M  V30 2937 C 282.765 1.44076 -0.975604 0
M  V30 2938 O 283.941 1.54786 -1.28853 0
M  V30 2939 C 281.006 2.43969 -2.46333 0
M  V30 2940 C 280.067 2.2093 -3.68087 0
M  V30 2941 C 279.3 3.44869 -4.0731 0
M  V30 2942 O 279.523 4.52972 -3.46659 0
M  V30 2943 O 278.457 3.34661 -5.00285 0
M  V30 2944 H 282.283 0.761881 -2.93988 0
M  V30 2945 H 279.868 0.310818 -1.46131 0
M  V30 2946 H 281.75 3.20609 -2.73473 0
M  V30 2947 H 280.425 2.81038 -1.60621 0
M  V30 2948 H 279.332 1.42081 -3.46069 0
M  V30 2949 H 280.665 1.88755 -4.54568 0
M  V30 2950 N 282.317 1.53212 0.369288 0
M  V30 2951 C 283.249 1.75668 1.47219 0
M  V30 2952 C 284.262 0.637387 1.49804 0
M  V30 2953 O 285.451 0.913561 1.5335 0
M  V30 2954 C 282.551 1.81818 2.85999 0
M  V30 2955 C 281.724 3.11409 3.07153 0
M  V30 2956 C 280.783 3.08849 4.26026 0
M  V30 2957 O 279.809 3.82659 4.2138 0
M  V30 2958 N 281.011 2.29409 5.33246 0
M  V30 2959 H 283.776 2.70832 1.28337 0
M  V30 2960 H 281.337 1.51944 0.55898 0
M  V30 2961 H 283.329 1.77588 3.63655 0
M  V30 2962 H 281.899 0.939544 2.98146 0
M  V30 2963 H 281.119 3.28971 2.1719 0
M  V30 2964 H 282.407 3.97059 3.18154 0
M  V30 2965 H 281.805 1.68946 5.39883 0
M  V30 2966 H 280.362 2.31001 6.09493 0
M  V30 2967 N 283.795 -0.628877 1.44509 0
M  V30 2968 C 285.044 -1.38437 1.4669 0
M  V30 2969 C 285.357 -1.95322 0.104272 0
M  V30 2970 O 286.563 -2.715 0.00362163 0
M  V30 2971 C 285.019 -2.50659 2.5826 0
M  V30 2972 C 284.627 -2.00277 4.0074 0
M  V30 2973 C 286.371 -3.27844 2.69664 0
M  V30 2974 C 284.278 -3.09854 5.0373 0
M  V30 2975 H 283.208 -0.520245 0.545766 0
M  V30 2976 H 285.859 -0.676313 1.70582 0
M  V30 2977 H 284.241 -3.2405 2.27612 0
M  V30 2978 H 285.415 -1.33736 4.40966 0
M  V30 2979 H 283.73 -1.35901 3.93599 0
M  V30 2980 H 286.327 -4.09534 3.43781 0
M  V30 2981 H 286.67 -3.77471 1.75559 0
M  V30 2982 H 287.203 -2.61543 2.99733 0
M  V30 2983 H 283.942 -2.65168 5.99472 0
M  V30 2984 H 283.462 -3.7503 4.68095 0
M  V30 2985 H 285.141 -3.74592 5.27532 0
M  V30 2986 N 285.273 -1.31445 -0.869486 0
M  V30 2987 C 286.55 -1.11795 -1.60503 0
M  V30 2988 C 286.93 0.327168 -2.08549 0
M  V30 2989 O 286.278 1.32135 -1.8642 0
M  V30 2990 C 286.488 -2.13258 -2.76265 0
M  V30 2991 C 287.836 -2.45805 -3.46215 0
M  V30 2992 O 288.86 -2.11688 -2.86473 0
M  V30 2993 O 287.719 -3.04228 -4.5399 0
M  V30 2994 H 284.813 -0.430421 -0.706163 0
M  V30 2995 H 287.359 -1.42925 -0.914907 0
M  V30 2996 H 286.131 -3.10461 -2.3818 0
M  V30 2997 H 285.754 -1.83035 -3.52964 0
M  V30 2998 N 286.751 1.08385 -1.14413 0
M  V30 2999 C 288 1.80153 -0.907076 0
M  V30 3000 C 288.313 1.87176 0.567851 0
M  V30 3001 O 289.519 2.55359 0.922172 0
M  V30 3002 C 287.975 3.23687 -1.57336 0
M  V30 3003 C 287.583 3.24897 -3.08457 0
M  V30 3004 C 289.327 4.00136 -1.41744 0
M  V30 3005 C 287.234 4.6302 -3.67921 0
M  V30 3006 H 286.164 0.675139 -0.335714 0
M  V30 3007 H 288.815 1.21733 -1.37307 0
M  V30 3008 H 287.197 3.82234 -1.03505 0
M  V30 3009 H 288.371 2.76055 -3.68958 0
M  V30 3010 H 286.686 2.61943 -3.2369 0
M  V30 3011 H 289.283 5.02201 -1.83572 0
M  V30 3012 H 289.626 4.14709 -0.363576 0
M  V30 3013 H 290.159 3.48058 -1.92614 0
M  V30 3014 H 286.898 4.5365 -4.73161 0
M  V30 3015 H 286.418 5.12143 -3.12201 0
M  V30 3016 H 288.097 5.31994 -3.68227 0
M  V30 3017 N 288.23 0.939286 1.26551 0
M  V30 3018 C 289.477 0.585847 1.9384 0
M  V30 3019 C 289.805 -0.874784 1.73718 0
M  V30 3020 O 289.06 -1.64092 1.06642 0
M  V30 3021 C 289.359 0.872106 3.46596 0
M  V30 3022 C 289.025 2.31632 3.86856 0
M  V30 3023 C 287.687 2.71111 3.97558 0
M  V30 3024 C 290.039 3.25494 4.07066 0
M  V30 3025 C 287.367 4.03553 4.25866 0
M  V30 3026 C 289.719 4.57531 4.36862 0
M  V30 3027 C 288.383 4.96828 4.45778 0
M  V30 3028 H 287.653 0.214377 0.709312 0
M  V30 3029 H 290.3 1.18544 1.50398 0
M  V30 3030 H 288.605 0.18996 3.91339 0
M  V30 3031 H 290.302 0.577442 3.96821 0
M  V30 3032 H 286.892 2.00008 3.79071 0
M  V30 3033 H 291.076 2.9619 3.98227 0
M  V30 3034 H 286.332 4.33665 4.30981 0
M  V30 3035 H 290.506 5.30254 4.51446 0
M  V30 3036 H 288.133 5.99482 4.67468 0
M  V30 3037 N 289.708 -1.40897 0.706093 0
M  V30 3038 C 290.618 -2.3455 0.0482286 0
M  V30 3039 C 291.634 -1.56796 -0.754396 0
M  V30 3040 O 292.81 -1.89228 -0.689538 0
M  V30 3041 C 289.875 -3.35625 -0.869303 0
M  V30 3042 C 288.936 -4.29261 -0.0576994 0
M  V30 3043 C 288.169 -5.25508 -0.931531 0
M  V30 3044 O 288.392 -5.27472 -2.17092 0
M  V30 3045 O 287.326 -6.00727 -0.375587 0
M  V30 3046 H 291.152 -2.92407 0.820476 0
M  V30 3047 H 288.737 -1.4193 0.4665 0
M  V30 3048 H 290.619 -3.97635 -1.39514 0
M  V30 3049 H 289.294 -2.80196 -1.62086 0
M  V30 3050 H 288.201 -3.70566 0.512988 0
M  V30 3051 H 289.534 -4.87817 0.655426 0
M  V30 3052 N 291.186 -0.45159 -1.50991 0
M  V30 3053 C 292.434 0.109857 -2.01801 0
M  V30 3054 C 292.755 1.41958 -1.3369 0
M  V30 3055 O 292.025 1.9003 -0.475951 0
M  V30 3056 H 290.605 0.0435884 -0.745727 0
M  V30 3057 H 293.267 -0.597557 -1.85514 0
M  V30 3058 H 292.363 0.275489 -3.10882 0
M  V30 3059 N 292.664 1.56529 -0.183458 0
M  V30 3060 C 293.913 1.96419 0.458511 0
M  V30 3061 C 294.226 1.0727 1.63562 0
M  V30 3062 O 295.432 1.36893 2.34462 0
M  V30 3063 C 293.888 3.49298 0.867122 0
M  V30 3064 C 293.496 4.47092 -0.285057 0
M  V30 3065 C 295.24 3.97983 1.47683 0
M  V30 3066 C 293.147 5.91225 0.143862 0
M  V30 3067 H 292.077 0.733394 0.175071 0
M  V30 3068 H 294.728 1.81448 -0.273624 0
M  V30 3069 H 293.11 3.59731 1.65559 0
M  V30 3070 H 294.284 4.48383 -1.0625 0
M  V30 3071 H 292.599 4.08535 -0.805503 0
M  V30 3072 H 295.196 5.03134 1.80999 0
M  V30 3073 H 295.539 3.41618 2.37914 0
M  V30 3074 H 296.072 3.90617 0.752562 0
M  V30 3075 H 292.811 6.5149 -0.723974 0
M  V30 3076 H 292.331 5.93214 0.886413 0
M  V30 3077 H 294.01 6.44362 0.583628 0
M  V30 3078 N 294.142 -0.090211 1.57342 0
M  V30 3079 C 295.089 -1.10909 2.02405 0
M  V30 3080 C 296.059 -1.39523 0.901252 0
M  V30 3081 O 297.244 -1.50903 1.1676 0
M  V30 3082 C 294.384 -2.42277 2.45755 0
M  V30 3083 C 293.497 -2.20352 3.71576 0
M  V30 3084 C 292.632 -3.45154 4.03785 0
M  V30 3085 C 291.671 -3.18512 5.22701 0
M  V30 3086 N 290.808 -4.35593 5.50639 0
M  V30 3087 H 295.648 -0.71782 2.89225 0
M  V30 3088 H 293.185 -0.342901 1.43048 0
M  V30 3089 H 295.143 -3.18951 2.68935 0
M  V30 3090 H 293.773 -2.79242 1.61938 0
M  V30 3091 H 292.825 -1.34458 3.55844 0
M  V30 3092 H 294.137 -1.96661 4.58395 0
M  V30 3093 H 293.291 -4.30233 4.27767 0
M  V30 3094 H 292.03 -3.71904 3.15498 0
M  V30 3095 H 291.035 -2.31827 4.98534 0
M  V30 3096 H 292.26 -2.93103 6.12591 0
M  V30 3097 H 290.206 -4.6241 4.6531 0
M  V30 3098 H 290.123 -4.1511 6.31838 0
M  V30 3099 H 291.391 -5.21723 5.7916 0
M  V30 3100 N 295.62 -1.53406 -0.361157 0
M  V30 3101 C 296.897 -1.60411 -1.11927 0
M  V30 3102 C 297.277 -0.414385 -2.06993 0
M  V30 3103 O 296.625 0.594976 -2.20618 0
M  V30 3104 C 296.835 -2.95652 -1.85448 0
M  V30 3105 C 298.183 -3.50386 -2.39823 0
M  V30 3106 O 299.207 -2.97711 -1.95568 0
M  V30 3107 O 298.066 -4.42482 -3.20737 0
M  V30 3108 H 295.16 -0.64811 -0.513695 0
M  V30 3109 H 297.706 -1.65749 -0.364065 0
M  V30 3110 H 296.478 -3.73682 -1.16091 0
M  V30 3111 H 296.101 -2.93825 -2.67866 0
M  V30 3112 N 297.098 0.621204 -1.44841 0
M  V30 3113 C 298.323 1.41244 -1.51871 0
M  V30 3114 C 298.748 1.87519 -0.147764 0
M  V30 3115 O 298.106 1.59334 0.865 0
M  V30 3116 C 298.154 2.60221 -2.49634 0
M  V30 3117 O 297.258 3.60395 -2.00473 0
M  V30 3118 H 296.599 0.42223 -0.512463 0
M  V30 3119 H 299.129 0.757305 -1.90069 0
M  V30 3120 H 299.139 3.0764 -2.67996 0
M  V30 3121 H 297.814 2.25887 -3.4921 0
M  V30 3122 H 296.391 3.19717 -1.91925 0
M  V30 3123 N 298.576 1.31904 0.862503 0
M  V30 3124 C 299.508 1.16005 1.97675 0
M  V30 3125 C 300.521 0.0971234 1.6251 0
M  V30 3126 O 301.71 0.345337 1.75128 0
M  V30 3127 C 298.81 0.751791 3.30456 0
M  V30 3128 C 297.983 1.90133 3.93914 0
M  V30 3129 C 297.042 1.4779 5.05019 0
M  V30 3130 O 296.068 2.18872 5.25437 0
M  V30 3131 N 297.27 0.369491 5.79323 0
M  V30 3132 H 300.035 2.11982 2.11857 0
M  V30 3133 H 297.596 1.24337 1.03691 0
M  V30 3134 H 299.588 0.451084 4.02178 0
M  V30 3135 H 298.158 -0.116593 3.12382 0
M  V30 3136 H 297.378 2.36896 3.15078 0
M  V30 3137 H 298.666 2.67111 4.33047 0
M  V30 3138 H 298.064 -0.222299 5.65263 0
M  V30 3139 H 296.621 0.128354 6.51674 0
M  V30 3140 N 300.054 -1.07777 1.14986 0
M  V30 3141 C 301.017 -2.13041 0.845358 0
M  V30 3142 C 302.017 -1.60071 -0.152931 0
M  V30 3143 O 303.207 -1.74033 0.0761879 0
M  V30 3144 C 300.339 -3.39896 0.261383 0
M  V30 3145 H 301.532 -2.41485 1.77834 0
M  V30 3146 H 299.085 -1.23595 0.956757 0
M  V30 3147 H 299.82 -3.17091 -0.68 0
M  V30 3148 H 299.605 -3.79642 0.980514 0
M  V30 3149 H 301.095 -4.17548 0.0657687 0
M  V30 3150 N 301.532 -0.945985 -1.26051 0
M  V30 3151 C 302.464 -0.416662 -2.25381 0
M  V30 3152 C 303.477 0.462712 -1.56086 0
M  V30 3153 O 304.666 0.272383 -1.7641 0
M  V30 3154 C 301.766 0.419812 -3.3629 0
M  V30 3155 C 300.939 -0.444531 -4.35135 0
M  V30 3156 C 299.998 0.332305 -5.2515 0
M  V30 3157 O 299.024 -0.266324 -5.68577 0
M  V30 3158 N 300.226 1.62763 -5.57215 0
M  V30 3159 H 302.991 -1.27059 -2.71433 0
M  V30 3160 H 300.552 -0.815392 -1.39868 0
M  V30 3161 H 302.544 0.947013 -3.93464 0
M  V30 3162 H 301.114 1.17456 -2.89694 0
M  V30 3163 H 300.334 -1.15291 -3.76964 0
M  V30 3164 H 301.622 -1.03478 -4.98166 0
M  V30 3165 H 301.02 2.13603 -5.23823 0
M  V30 3166 H 299.577 2.10097 -6.17011 0
M  V30 3167 N 303.011 1.40521 -0.713556 0
M  V30 3168 C 304.427 1.54839 -0.386907 0
M  V30 3169 C 304.627 1.68532 1.1045 0
M  V30 3170 O 303.683 1.67377 1.89053 0
M  V30 3171 C 304.996 2.77792 -1.15118 0
M  V30 3172 C 306.544 2.91607 -1.13729 0
M  V30 3173 C 307.019 4.1747 -1.88368 0
M  V30 3174 N 308.51 4.24466 -1.85427 0
M  V30 3175 C 309.245 5.20755 -2.40004 0
M  V30 3176 N 308.741 6.22965 -3.03129 0
M  V30 3177 N 310.534 5.1282 -2.30158 0
M  V30 3178 H 302.685 1.29879 -1.68063 0
M  V30 3179 H 304.948 0.627896 -0.710247 0
M  V30 3180 H 304.654 2.73944 -2.20561 0
M  V30 3181 H 304.528 3.6984 -0.741477 0
M  V30 3182 H 306.915 2.94959 -0.0910608 0
M  V30 3183 H 306.996 2.00682 -1.5862 0
M  V30 3184 H 306.64 4.1488 -2.9298 0
M  V30 3185 H 306.57 5.074 -1.40898 0
M  V30 3186 H 309.061 3.51241 -1.3942 0
M  V30 3187 H 309.374 6.92859 -3.42295 0
M  V30 3188 H 307.719 6.23415 -3.07212 0
M  V30 3189 H 310.91 4.31899 -1.80501 0
M  V30 3190 H 311.083 5.87689 -2.72993 0
M  V30 3191 N 304.489 0.459591 1.5075 0
M  V30 3192 C 305.422 -0.386257 2.24907 0
M  V30 3193 C 306.4 -1.006 1.27744 0
M  V30 3194 O 307.584 -1.04416 1.56938 0
M  V30 3195 C 304.711 -1.54021 3.01654 0
M  V30 3196 C 303.757 -1.03898 4.13651 0
M  V30 3197 S 304.59 0.0370501 5.35487 0
M  V30 3198 C 305.746 -1.12105 6.15779 0
M  V30 3199 H 305.979 0.243272 2.96303 0
M  V30 3200 H 303.512 0.244339 1.52454 0
M  V30 3201 H 305.47 -2.20163 3.46466 0
M  V30 3202 H 304.131 -2.14121 2.29806 0
M  V30 3203 H 303.324 -1.90254 4.66711 0
M  V30 3204 H 302.926 -0.45545 3.71216 0
M  V30 3205 H 305.218 -2.03501 6.46215 0
M  V30 3206 H 306.161 -0.62995 7.05292 0
M  V30 3207 H 306.569 -1.36967 5.47631 0
M  V30 3208 N 305.967 -1.56429 0.191757 0
M  V30 3209 C 306.93 -2.17707 -0.716688 0
M  V30 3210 C 307.93 -1.13061 -1.14341 0
M  V30 3211 O 309.12 -1.38464 -1.05704 0
M  V30 3212 C 306.252 -2.77644 -1.97804 0
M  V30 3213 H 307.445 -2.99342 -0.1829 0
M  V30 3214 H 304.998 -1.56193 -0.0578566 0
M  V30 3215 H 305.733 -1.99799 -2.55443 0
M  V30 3216 H 305.518 -3.54246 -1.68083 0
M  V30 3217 H 307.008 -3.24708 -2.62592 0
M  V30 3218 N 307.445 0.0818655 -1.57387 0
M  V30 3219 C 308.355 1.11642 -2.06333 0
M  V30 3220 C 309.371 1.43033 -0.99083 0
M  V30 3221 O 310.547 1.53411 -1.30488 0
M  V30 3222 C 307.612 2.41342 -2.48907 0
M  V30 3223 C 306.673 2.17014 -3.7041 0
M  V30 3224 C 305.906 3.4053 -4.10944 0
M  V30 3225 O 306.129 4.4927 -3.51444 0
M  V30 3226 O 305.063 3.29336 -5.03807 0
M  V30 3227 H 308.889 0.730657 -2.9478 0
M  V30 3228 H 306.474 0.295301 -1.46452 0
M  V30 3229 H 308.356 3.17691 -2.76858 0
M  V30 3230 H 307.031 2.79319 -1.63593 0
M  V30 3231 H 305.938 1.38403 -3.47556 0
M  V30 3232 H 307.271 1.83923 -4.56545 0
M  V30 3233 N 308.923 1.53595 0.353017 0
M  V30 3234 C 309.871 1.81605 1.45335 0
M  V30 3235 C 310.865 0.685923 1.54892 0
M  V30 3236 O 312.071 0.869095 1.57628 0
M  V30 3237 H 308.446 0.575204 0.484401 0
M  V30 3238 H 310.417 2.73679 1.18921 0
M  V30 3239 C 309.166 2.03406 2.81995 0
M  V30 3240 H 308.489 2.89814 2.75405 0
M  V30 3241 H 309.929 2.26975 3.58132 0
M  V30 3242 C 308.388 0.816794 3.26849 0
M  V30 3243 O 308.918 0.0115856 4.01698 0
M  V30 3244 N 307.124 0.636682 2.8354 0
M  V30 3245 H 306.671 1.2931 2.22793 0
M  V30 3246 H 306.629 -0.176336 3.13905 0
M  V30 3247 N 310.401 -0.613514 1.45168 0
M  V30 3248 C 311.331 -1.7354 1.56225 0
M  V30 3249 C 312.312 -1.64981 0.41414 0
M  V30 3250 O 313.497 -1.83472 0.636526 0
M  V30 3251 C 310.627 -3.12128 1.52295 0
M  V30 3252 C 309.581 -3.35491 2.65762 0
M  V30 3253 C 308.907 -4.74291 2.46885 0
M  V30 3254 C 310.207 -3.26325 4.0781 0
M  V30 3255 H 311.901 -1.64543 2.50132 0
M  V30 3256 H 309.447 -0.790185 1.20383 0
M  V30 3257 H 311.4 -3.90404 1.58628 0
M  V30 3258 H 310.124 -3.2195 0.549139 0
M  V30 3259 H 308.783 -2.59603 2.58847 0
M  V30 3260 H 308.431 -4.80839 1.47657 0
M  V30 3261 H 308.131 -4.9088 3.22972 0
M  V30 3262 H 309.655 -5.54775 2.55063 0
M  V30 3263 H 311.069 -3.94483 4.16 0
M  V30 3264 H 309.466 -3.54445 4.8424 0
M  V30 3265 H 310.536 -2.23855 4.30136 0
M  V30 3266 N 311.879 -1.3236 -0.855495 0
M  V30 3267 C 313.127 -1.22629 -1.60644 0
M  V30 3268 C 313.448 0.212136 -1.93843 0
M  V30 3269 O 312.718 1.13666 -1.59552 0
M  V30 3270 H 311.298 -0.450882 -0.595579 0
M  V30 3271 H 313.96 -1.65871 -1.02337 0
M  V30 3272 H 313.056 -1.80832 -2.54374 0
M  V30 3273 N 313.357 1.07166 -1.15556 0
M  V30 3274 C 314.604 1.79798 -0.931604 0
M  V30 3275 C 314.932 1.8682 0.54115 0
M  V30 3276 O 314.187 1.34942 1.41736 0
M  V30 3277 C 314.486 3.24707 -1.49332 0
M  V30 3278 C 314.152 3.37781 -2.98688 0
M  V30 3279 C 312.814 3.41057 -3.39461 0
M  V30 3280 C 315.166 3.40424 -3.94665 0
M  V30 3281 C 312.494 3.4458 -4.74849 0
M  V30 3282 C 314.846 3.45485 -5.29927 0
M  V30 3283 C 313.51 3.47039 -5.70193 0
M  V30 3284 H 312.78 0.657928 -0.340898 0
M  V30 3285 H 315.427 1.26091 -1.44129 0
M  V30 3286 H 313.732 3.81208 -0.904859 0
M  V30 3287 H 315.429 3.79486 -1.29582 0
M  V30 3288 H 312.019 3.35932 -2.66172 0
M  V30 3289 H 316.203 3.37113 -3.64237 0
M  V30 3290 H 311.459 3.44083 -5.05388 0
M  V30 3291 H 315.633 3.46476 -6.04092 0
M  V30 3292 H 313.26 3.49522 -6.75084 0
M  V30 3293 N 314.835 0.952656 1.25548 0
M  V30 3294 C 316.081 0.607272 1.93494 0
M  V30 3295 C 316.414 -0.853245 1.74452 0
M  V30 3296 O 315.689 -1.61194 1.08843 0
M  V30 3297 C 315.972 0.96435 3.46947 0
M  V30 3298 C 315.825 2.48045 3.75225 0
M  V30 3299 C 317.144 0.487987 4.37386 0
M  V30 3300 H 314.263 0.222096 0.702739 0
M  V30 3301 H 316.905 1.18895 1.48203 0
M  V30 3302 H 315.055 0.469361 3.85654 0
M  V30 3303 H 316.727 3.04905 3.46166 0
M  V30 3304 H 314.97 2.919 3.209 0
M  V30 3305 H 315.641 2.6808 4.82532 0
M  V30 3306 H 318.117 0.912558 4.0597 0
M  V30 3307 H 316.993 0.766547 5.43521 0
M  V30 3308 H 317.254 -0.612063 4.37843 0
M  V30 3309 N 316.313 -1.40141 0.720998 0
M  V30 3310 C 317.561 -2.0039 0.262323 0
M  V30 3311 C 317.882 -1.57469 -1.15015 0
M  V30 3312 O 317.152 -0.816582 -1.78069 0
M  V30 3313 H 315.732 -0.741063 0.093996 0
M  V30 3314 H 318.394 -1.71398 0.927835 0
M  V30 3315 H 317.49 -3.10658 0.299671 0
M  V30 3316 N 317.792 -0.46758 -1.50504 0
M  V30 3317 C 319.203 -0.0116166 -1.86696 0
M  V30 3318 C 319.554 1.39202 -1.38265 0
M  V30 3319 O 318.679 2.0313 -0.746132 0
M  V30 3320 C 319.274 -0.0143044 -3.38797 0
M  V30 3321 C 317.833 0.386175 -3.74414 0
M  V30 3322 C 316.98 -0.401287 -2.74381 0
M  V30 3323 H 319.931 -0.682022 -1.43297 0
M  V30 3324 H 319.952 0.788641 -3.72237 0
M  V30 3325 H 319.464 -1.03602 -3.74016 0
M  V30 3326 H 317.565 1.41237 -3.44794 0
M  V30 3327 H 317.678 0.0899596 -4.79016 0
M  V30 3328 H 316.042 0.144536 -2.5429 0
M  V30 3329 H 316.825 -1.42244 -3.12444 0
M  V30 3330 N 319.27 1.56325 -0.20005 0
M  V30 3331 C 320.2 2.22318 0.713916 0
M  V30 3332 C 321.181 1.18788 1.21752 0
M  V30 3333 O 322.366 1.47309 1.26545 0
M  V30 3334 C 319.496 2.88639 1.93144 0
M  V30 3335 C 318.45 3.98457 1.56255 0
M  V30 3336 C 317.776 4.51967 2.85709 0
M  V30 3337 C 319.076 5.16612 0.768747 0
M  V30 3338 H 320.77 2.98952 0.163755 0
M  V30 3339 H 318.316 1.43792 0.0773219 0
M  V30 3340 H 320.269 3.33491 2.57608 0
M  V30 3341 H 318.993 2.09419 2.50621 0
M  V30 3342 H 317.652 3.54305 0.941471 0
M  V30 3343 H 317.3 3.69503 3.41287 0
M  V30 3344 H 317 5.26071 2.6177 0
M  V30 3345 H 318.524 4.99523 3.51154 0
M  V30 3346 H 319.938 5.57977 1.3166 0
M  V30 3347 H 318.335 5.96812 0.627286 0
M  V30 3348 H 319.405 4.84358 -0.229168 0
M  V30 3349 N 320.748 -0.0735177 1.57428 0
M  V30 3350 C 321.695 -1.08756 2.0357 0
M  V30 3351 C 322.665 -1.38559 0.916 0
M  V30 3352 O 323.85 -1.49656 1.18354 0
M  V30 3353 C 320.99 -2.39657 2.48311 0
M  V30 3354 C 320.103 -2.16399 3.73892 0
M  V30 3355 C 319.238 -3.40852 4.07423 0
M  V30 3356 C 318.277 -3.1295 5.2605 0
M  V30 3357 N 317.414 -4.29729 5.55228 0
M  V30 3358 H 322.254 -0.687104 2.8997 0
M  V30 3359 H 319.791 -0.327709 1.43403 0
M  V30 3360 H 321.749 -3.16081 2.72303 0
M  V30 3361 H 320.379 -2.77508 1.64891 0
M  V30 3362 H 319.431 -1.30676 3.57251 0
M  V30 3363 H 320.743 -1.91788 4.60455 0
M  V30 3364 H 319.897 -4.25671 4.32306 0
M  V30 3365 H 318.636 -3.68537 3.19425 0
M  V30 3366 H 317.641 -2.26526 5.00965 0
M  V30 3367 H 318.866 -2.86589 6.15665 0
M  V30 3368 H 316.812 -4.57448 4.70188 0
M  V30 3369 H 316.729 -4.08385 6.36206 0
M  V30 3370 H 317.997 -5.1555 5.84661 0
M  V30 3371 N 322.226 -1.5378 -0.344866 0
M  V30 3372 C 323.451 -1.75211 -1.10977 0
M  V30 3373 C 323.876 -0.48936 -1.81623 0
M  V30 3374 O 323.234 0.557925 -1.72502 0
M  V30 3375 C 323.282 -2.93147 -2.09993 0
M  V30 3376 O 322.386 -2.63203 -3.17487 0
M  V30 3377 H 321.727 -0.581241 -0.321021 0
M  V30 3378 H 324.257 -2.00738 -0.395661 0
M  V30 3379 H 324.267 -3.19898 -2.53237 0
M  V30 3380 H 322.942 -3.84731 -1.5797 0
M  V30 3381 H 321.519 -2.47336 -2.79069 0
M  V30 3382 N 323.704 0.605807 -1.45491 0
M  V30 3383 C 324.636 1.73031 -1.5031 0
M  V30 3384 C 325.649 1.57968 -0.393687 0
M  V30 3385 O 326.838 1.65817 -0.660839 0
M  V30 3386 C 323.938 3.11049 -1.34543 0
M  V30 3387 C 323.111 3.52334 -2.59189 0
M  V30 3388 C 322.17 4.69323 -2.37954 0
M  V30 3389 O 321.196 4.7635 -3.11575 0
M  V30 3390 N 322.398 5.62705 -1.4263 0
M  V30 3391 H 325.163 1.6936 -2.4726 0
M  V30 3392 H 322.724 0.79114 -1.41254 0
M  V30 3393 H 324.716 3.87071 -1.18144 0
M  V30 3394 H 323.286 3.09217 -0.458623 0
M  V30 3395 H 322.506 2.66256 -2.90691 0
M  V30 3396 H 323.794 3.76677 -3.42041 0
M  V30 3397 H 323.192 5.59744 -0.818758 0
M  V30 3398 H 321.749 6.38252 -1.32202 0
M  V30 3399 N 325.182 1.32811 0.848464 0
M  V30 3400 C 326.145 1.22194 1.9391 0
M  V30 3401 C 327.145 0.143404 1.60159 0
M  V30 3402 O 328.335 0.394253 1.6968 0
M  V30 3403 C 325.467 0.88067 3.29328 0
M  V30 3404 H 326.66 2.19127 2.04752 0
M  V30 3405 H 324.213 1.16731 1.0394 0
M  V30 3406 H 324.948 -0.0865776 3.24184 0
M  V30 3407 H 324.733 1.66052 3.55203 0
M  V30 3408 H 326.223 0.830871 4.09251 0
M  V30 3409 N 326.66 -1.06551 1.16123 0
M  V30 3410 C 327.623 -2.12132 0.867906 0
M  V30 3411 C 328.623 -1.60224 -0.135944 0
M  V30 3412 O 329.813 -1.73943 0.0946422 0
M  V30 3413 C 326.945 -3.396 0.297419 0
M  V30 3414 H 328.138 -2.39586 1.80385 0
M  V30 3415 H 325.691 -1.22574 0.969812 0
M  V30 3416 H 326.426 -3.17794 -0.64633 0
M  V30 3417 H 326.211 -3.78581 1.02073 0
M  V30 3418 H 327.701 -4.17455 0.110052 0
M  V30 3419 N 328.138 -0.959301 -1.25041 0
M  V30 3420 C 329.415 -0.533805 -1.88175 0
M  V30 3421 C 329.795 0.988994 -1.865 0
M  V30 3422 O 329.143 1.85677 -1.33177 0
M  V30 3423 C 329.353 -1.11575 -3.30684 0
M  V30 3424 C 330.701 -1.19548 -4.07423 0
M  V30 3425 O 331.725 -1.06765 -3.39823 0
M  V30 3426 O 330.584 -1.39656 -5.28354 0
M  V30 3427 H 327.678 -0.176772 -0.807887 0
M  V30 3428 H 330.224 -1.05303 -1.33076 0
M  V30 3429 H 328.996 -2.15884 -3.26358 0
M  V30 3430 H 328.619 -0.580059 -3.93346 0
M  V30 3431 N 329.616 1.39756 -0.72842 0
M  V30 3432 C 330.548 2.29157 -0.0446202 0
M  V30 3433 C 331.561 1.46484 0.710367 0
M  V30 3434 O 332.75 1.69632 0.55562 0
M  V30 3435 C 329.85 3.24987 0.961071 0
M  V30 3436 C 329.023 4.36572 0.268967 0
M  V30 3437 C 328.082 5.12756 1.18184 0
M  V30 3438 O 327.108 5.6534 0.661794 0
M  V30 3439 N 328.31 5.23331 2.51206 0
M  V30 3440 H 331.075 2.88482 -0.812295 0
M  V30 3441 H 328.636 1.51265 -0.577098 0
M  V30 3442 H 330.628 3.72827 1.57423 0
M  V30 3443 H 329.198 2.66739 1.63 0
M  V30 3444 H 328.418 3.90694 -0.524574 0
M  V30 3445 H 329.706 5.08363 -0.210934 0
M  V30 3446 H 329.104 4.82116 2.9594 0
M  V30 3447 H 327.661 5.74634 3.07634 0
M  V30 3448 N 331.094 0.475555 1.50254 0
M  V30 3449 C 332.343 -0.0795996 2.01543 0
M  V30 3450 C 332.656 -1.4038 1.36209 0
M  V30 3451 O 333.862 -2.04415 1.7868 0
M  V30 3452 C 332.318 -0.192363 3.59386 0
M  V30 3453 C 331.926 1.12367 4.33679 0
M  V30 3454 C 333.67 -0.699238 4.18701 0
M  V30 3455 C 331.577 0.974453 5.83317 0
M  V30 3456 H 330.507 -0.0335228 0.753254 0
M  V30 3457 H 333.158 0.611128 1.73025 0
M  V30 3458 H 331.54 -0.946974 3.84511 0
M  V30 3459 H 332.714 1.88958 4.20276 0
M  V30 3460 H 331.029 1.562 3.85993 0
M  V30 3461 H 333.626 -0.827978 5.28251 0
M  V30 3462 H 333.969 -1.69171 3.80377 0
M  V30 3463 H 334.502 -0.00188807 3.978 0
M  V30 3464 H 331.241 1.94042 6.26121 0
M  V30 3465 H 330.761 0.248998 5.99283 0
M  V30 3466 H 332.44 0.642867 6.43798 0
M  V30 3467 N 332.573 -1.56217 0.208337 0
M  V30 3468 C 333.801 -2.02337 -0.43215 0
M  V30 3469 C 334.216 -1.08834 -1.54275 0
M  V30 3470 O 333.573 -0.0955462 -1.8225 0
M  V30 3471 C 333.624 -3.48072 -0.976138 0
M  V30 3472 O 333.345 -4.38007 0.0901621 0
M  V30 3473 C 334.846 -4.09773 -1.69119 0
M  V30 3474 H 332.066 -0.662385 -0.10718 0
M  V30 3475 H 334.61 -2.01966 0.320923 0
M  V30 3476 H 332.765 -3.49099 -1.67954 0
M  V30 3477 H 333.179 -5.23543 -0.316701 0
M  V30 3478 H 334.653 -5.13556 -2.02397 0
M  V30 3479 H 335.13 -3.53999 -2.59964 0
M  V30 3480 H 335.736 -4.12556 -1.03332 0
M  V30 3481 N 334.051 0.0651679 -1.57465 0
M  V30 3482 C 334.998 1.07675 -2.04144 0
M  V30 3483 C 335.968 1.38071 -0.923335 0
M  V30 3484 O 337.153 1.49026 -1.19146 0
M  V30 3485 C 334.293 2.38337 -2.49579 0
M  V30 3486 C 333.406 2.14413 -3.75035 0
M  V30 3487 C 332.541 3.38686 -4.09225 0
M  V30 3488 C 331.58 3.10156 -5.27702 0
M  V30 3489 N 330.717 4.26778 -5.57499 0
M  V30 3490 H 335.557 0.671716 -2.90331 0
M  V30 3491 H 333.094 0.3201 -1.43575 0
M  V30 3492 H 335.052 3.14632 -2.73975 0
M  V30 3493 H 333.682 2.7663 -1.6636 0
M  V30 3494 H 332.734 1.2878 -3.57939 0
M  V30 3495 H 334.046 1.89344 -4.61466 0
M  V30 3496 H 333.2 4.23373 -4.34558 0
M  V30 3497 H 331.939 3.66837 -3.21374 0
M  V30 3498 H 330.944 2.23866 -5.02159 0
M  V30 3499 H 332.169 2.8332 -6.17176 0
M  V30 3500 H 330.115 4.54948 -4.72608 0
M  V30 3501 H 330.032 4.05005 -6.38362 0
M  V30 3502 H 331.3 5.12443 -5.87386 0
M  V30 3503 N 335.529 1.53961 0.336706 0
M  V30 3504 C 336.459 1.85417 1.41925 0
M  V30 3505 C 337.44 0.709856 1.5458 0
M  V30 3506 O 338.625 0.962396 1.68676 0
M  V30 3507 C 335.755 2.06985 2.78881 0
M  V30 3508 C 334.709 3.22813 2.81026 0
M  V30 3509 C 334.035 3.29727 4.20932 0
M  V30 3510 C 335.335 4.60767 2.45949 0
M  V30 3511 H 337.029 2.76079 1.15848 0
M  V30 3512 H 334.575 1.32839 0.555859 0
M  V30 3513 H 336.528 2.27575 3.54665 0
M  V30 3514 H 335.252 1.13061 3.06406 0
M  V30 3515 H 333.911 3.0209 2.07695 0
M  V30 3516 H 333.559 2.33385 4.45579 0
M  V30 3517 H 333.259 4.07566 4.23277 0
M  V30 3518 H 334.783 3.52536 4.98549 0
M  V30 3519 H 336.197 4.81325 3.11446 0
M  V30 3520 H 334.594 5.4106 2.59566 0
M  V30 3521 H 335.664 4.6391 1.41122 0
M  V30 3522 N 337.007 -0.598083 1.45811 0
M  V30 3523 C 338.237 -1.38121 1.53643 0
M  V30 3524 C 338.645 -1.88425 0.171081 0
M  V30 3525 O 337.988 -1.63409 -0.839237 0
M  V30 3526 C 338.05 -2.61432 2.46766 0
M  V30 3527 C 337.714 -2.32702 3.93318 0
M  V30 3528 C 338.711 -1.92479 4.82957 0
M  V30 3529 C 336.396 -2.45321 4.38318 0
M  V30 3530 C 338.39 -1.65248 6.15607 0
M  V30 3531 C 336.077 -2.17703 5.71007 0
M  V30 3532 C 337.075 -1.7773 6.5947 0
M  V30 3533 O 336.763 -1.50441 7.89698 0
M  V30 3534 H 336.495 -0.428863 0.522544 0
M  V30 3535 H 339.049 -0.73557 1.91777 0
M  V30 3536 H 337.279 -3.28749 2.0362 0
M  V30 3537 H 338.968 -3.23487 2.45175 0
M  V30 3538 H 339.734 -1.82258 4.49452 0
M  V30 3539 H 335.613 -2.75399 3.69697 0
M  V30 3540 H 339.157 -1.33973 6.84614 0
M  V30 3541 H 335.054 -2.27544 6.04065 0
M  V30 3542 H 335.822 -1.64415 8.01817 0
M  V30 3543 N 338.485 -1.33259 -0.841409 0
M  V30 3544 C 339.433 -1.23279 -1.97244 0
M  V30 3545 C 340.427 -0.134706 -1.68864 0
M  V30 3546 O 341.633 -0.298501 -1.77508 0
M  V30 3547 H 338.008 -0.382497 -0.647457 0
M  V30 3548 H 339.979 -2.18906 -2.02787 0
M  V30 3549 C 338.728 -0.986268 -3.33419 0
M  V30 3550 H 338.051 -1.82347 -3.55794 0
M  V30 3551 H 339.491 -0.956728 -4.13065 0
M  V30 3552 C 337.95 0.310842 -3.35463 0
M  V30 3553 O 338.48 1.31838 -3.79449 0
M  V30 3554 N 336.686 0.337485 -2.88634 0
M  V30 3555 H 336.233 -0.482967 -2.53032 0
M  V30 3556 H 336.191 1.20518 -2.90384 0
M  V30 3557 N 339.963 1.05934 -1.16686 0
M  V30 3558 C 340.893 2.1546 -0.899949 0
M  V30 3559 C 341.874 1.69391 0.155154 0
M  V30 3560 O 343.059 1.94199 0.00648693 0
M  V30 3561 C 340.189 3.44939 -0.404241 0
M  V30 3562 C 339.143 4.04536 -1.39767 0
M  V30 3563 C 338.469 5.29268 -0.760216 0
M  V30 3564 C 339.769 4.42893 -2.76845 0
M  V30 3565 H 341.463 2.38046 -1.81588 0
M  V30 3566 H 339.009 1.14404 -0.874514 0
M  V30 3567 H 340.962 4.20901 -0.204971 0
M  V30 3568 H 339.686 3.21983 0.547206 0
M  V30 3569 H 338.345 3.30635 -1.58355 0
M  V30 3570 H 337.993 5.02611 0.197831 0
M  V30 3571 H 337.693 5.70101 -1.42332 0
M  V30 3572 H 339.217 6.07924 -0.57105 0
M  V30 3573 H 340.631 5.09921 -2.62019 0
M  V30 3574 H 339.028 4.94721 -3.39663 0
M  V30 3575 H 340.098 3.53584 -3.31823 0
M  V30 3576 N 341.441 0.965919 1.2453 0
M  V30 3577 C 342.688 0.626831 1.92554 0
M  V30 3578 C 343.016 -0.837739 1.75534 0
M  V30 3579 O 342.271 -1.61793 1.10098 0
M  V30 3580 C 342.57 0.945428 3.44669 0
M  V30 3581 C 342.236 2.39785 3.81856 0
M  V30 3582 C 340.898 2.79483 3.91718 0
M  V30 3583 C 343.25 3.34055 4.00071 0
M  V30 3584 C 340.578 4.12496 4.1721 0
M  V30 3585 C 342.93 4.66694 4.27059 0
M  V30 3586 C 341.594 5.06172 4.3514 0
M  V30 3587 H 340.864 0.229374 0.704605 0
M  V30 3588 H 343.511 1.21707 1.4785 0
M  V30 3589 H 341.816 0.272926 3.90848 0
M  V30 3590 H 343.513 0.661484 3.95507 0
M  V30 3591 H 340.103 2.08003 3.74743 0
M  V30 3592 H 344.287 3.04571 3.91855 0
M  V30 3593 H 339.543 4.42709 4.21685 0
M  V30 3594 H 343.717 5.3971 4.40097 0
M  V30 3595 H 341.344 6.09262 4.54646 0
M  V30 3596 N 342.919 -1.39368 0.735821 0
M  V30 3597 C 343.849 -2.33234 0.111506 0
M  V30 3598 C 344.83 -1.53954 -0.723334 0
M  V30 3599 O 346.015 -1.82344 -0.668147 0
M  V30 3600 C 343.145 -3.38057 -0.795917 0
M  V30 3601 C 342.099 -4.2795 -0.065172 0
M  V30 3602 C 341.425 -5.23479 -1.08967 0
M  V30 3603 C 342.725 -5.10741 1.09273 0
M  V30 3604 H 344.419 -2.85692 0.895571 0
M  V30 3605 H 341.965 -1.37364 0.432109 0
M  V30 3606 H 343.918 -4.02675 -1.24221 0
M  V30 3607 H 342.642 -2.8404 -1.61211 0
M  V30 3608 H 341.301 -3.64813 0.361511 0
M  V30 3609 H 340.949 -4.65758 -1.89944 0
M  V30 3610 H 340.649 -5.84472 -0.605489 0
M  V30 3611 H 342.173 -5.90974 -1.53565 0
M  V30 3612 H 343.587 -5.68699 0.724841 0
M  V30 3613 H 341.984 -5.8088 1.50659 0
M  V30 3614 H 343.054 -4.45525 1.91404 0
M  V30 3615 N 344.397 -0.483516 -1.5 0
M  V30 3616 C 345.344 0.304164 -2.28787 0
M  V30 3617 C 346.314 0.976114 -1.34392 0
M  V30 3618 O 347.499 0.986156 -1.63339 0
M  V30 3619 C 344.639 1.37298 -3.16612 0
M  V30 3620 C 343.752 0.714561 -4.26049 0
M  V30 3621 C 342.887 1.76232 -5.01114 0
M  V30 3622 C 341.926 1.08483 -6.0241 0
M  V30 3623 N 341.063 2.076 -6.70706 0
M  V30 3624 H 345.903 -0.373981 -2.95644 0
M  V30 3625 H 343.44 -0.196275 -1.45785 0
M  V30 3626 H 345.398 2.00445 -3.65893 0
M  V30 3627 H 344.028 2.02012 -2.51776 0
M  V30 3628 H 343.08 -0.0297798 -3.80388 0
M  V30 3629 H 344.392 0.180383 -4.98474 0
M  V30 3630 H 343.546 2.46929 -5.54176 0
M  V30 3631 H 342.285 2.33033 -4.28424 0
M  V30 3632 H 341.29 0.363545 -5.48597 0
M  V30 3633 H 342.515 0.523551 -6.77079 0
M  V30 3634 H 340.461 2.63394 -6.00799 0
M  V30 3635 H 340.378 1.59201 -7.39047 0
M  V30 3636 H 341.646 2.77639 -7.2838 0
M  V30 3637 N 345.875 1.56104 -0.216619 0
M  V30 3638 C 347.124 1.97348 0.416744 0
M  V30 3639 C 347.437 1.10715 1.6125 0
M  V30 3640 O 348.643 1.41836 2.31506 0
M  V30 3641 C 347.099 3.51059 0.792835 0
M  V30 3642 C 346.707 4.46387 -0.379828 0
M  V30 3643 C 348.451 4.01026 1.39208 0
M  V30 3644 C 346.358 5.91397 0.0184223 0
M  V30 3645 H 345.288 0.736942 0.159475 0
M  V30 3646 H 347.939 1.80827 -0.31205 0
M  V30 3647 H 346.321 3.63162 1.57891 0
M  V30 3648 H 347.495 4.46029 -1.15737 0
M  V30 3649 H 345.81 4.06734 -0.891979 0
M  V30 3650 H 348.407 5.0686 1.70286 0
M  V30 3651 H 348.75 3.46587 2.30614 0
M  V30 3652 H 349.283 3.92125 0.669537 0
M  V30 3653 H 346.022 6.49807 -0.862002 0
M  V30 3654 H 345.542 5.94961 0.760384 0
M  V30 3655 H 347.221 6.45455 0.446818 0
M  V30 3656 N 347.353 -0.0568162 1.57498 0
M  V30 3657 C 348.63 -0.786954 1.79071 0
M  V30 3658 C 349.01 -1.95028 0.80792 0
M  V30 3659 O 348.358 -2.27968 -0.155858 0
M  V30 3660 C 348.568 -1.24594 3.26002 0
M  V30 3661 C 349.916 -1.67323 3.90241 0
M  V30 3662 O 350.94 -1.34124 3.29984 0
M  V30 3663 O 349.799 -2.28842 4.9628 0
M  V30 3664 H 346.893 -0.378262 0.735423 0
M  V30 3665 H 349.439 -0.035734 1.69662 0
M  V30 3666 H 348.211 -0.41423 3.89101 0
M  V30 3667 H 347.834 -2.05803 3.40192 0
M  V30 3668 N 348.832 -1.54138 -0.328536 0
M  V30 3669 C 349.795 -1.82462 -1.38709 0
M  V30 3670 C 350.795 -0.696229 -1.44946 0
M  V30 3671 O 351.985 -0.964535 -1.4506 0
M  V30 3672 C 349.117 -1.98018 -2.77492 0
M  V30 3673 H 350.31 -2.77037 -1.14851 0
M  V30 3674 H 347.863 -1.45779 -0.563751 0
M  V30 3675 H 348.598 -1.05637 -3.06613 0
M  V30 3676 H 348.383 -2.80124 -2.74359 0
M  V30 3677 H 349.873 -2.21396 -3.54081 0
M  V30 3678 N 350.31 0.590341 -1.46126 0
M  V30 3679 C 351.538 1.37504 -1.54597 0
M  V30 3680 C 351.953 1.87897 -0.184447 0
M  V30 3681 O 351.31 1.63192 0.816984 0
M  V30 3682 C 351.361 2.56779 -2.54454 0
M  V30 3683 O 351.082 2.08476 -3.85317 0
M  V30 3684 C 352.583 3.49427 -2.72792 0
M  V30 3685 H 349.803 0.420325 -0.523037 0
M  V30 3686 H 352.347 0.718383 -1.91467 0
M  V30 3687 H 350.502 3.1845 -2.20609 0
M  V30 3688 H 350.916 2.86097 -4.396 0
M  V30 3689 H 352.39 4.29619 -3.466 0
M  V30 3690 H 352.867 4.00876 -1.79429 0
M  V30 3691 H 353.473 2.93598 -3.07702 0
M  V30 3692 N 351.788 1.33704 0.83433 0
M  V30 3693 C 352.72 1.20172 1.9517 0
M  V30 3694 C 353.733 0.131572 1.62267 0
M  V30 3695 O 354.922 0.382406 1.74356 0
M  V30 3696 C 352.022 0.821716 3.28787 0
M  V30 3697 C 351.195 1.98446 3.89792 0
M  V30 3698 C 350.254 1.58469 5.01771 0
M  V30 3699 O 349.28 2.29968 5.20676 0
M  V30 3700 N 350.482 0.492291 5.78409 0
M  V30 3701 H 353.247 2.16429 2.07313 0
M  V30 3702 H 350.808 1.26509 1.0103 0
M  V30 3703 H 352.8 0.536291 4.01131 0
M  V30 3704 H 351.37 -0.0503058 3.1256 0
M  V30 3705 H 350.59 2.43526 3.09982 0
M  V30 3706 H 351.878 2.76236 4.27283 0
M  V30 3707 H 351.276 -0.102349 5.65607 0
M  V30 3708 H 349.833 0.266555 6.51255 0
M  V30 3709 N 353.266 -1.05314 1.17247 0
M  V30 3710 C 354.512 -1.78557 0.961513 0
M  V30 3711 C 354.845 -1.87419 -0.508697 0
M  V30 3712 O 354.12 -1.37307 -1.37757 0
M  V30 3713 C 354.403 -3.22514 1.60176 0
M  V30 3714 C 354.256 -3.21673 3.14399 0
M  V30 3715 C 355.575 -4.20318 1.30463 0
M  V30 3716 H 352.694 -0.6482 0.350723 0
M  V30 3717 H 355.336 -1.23102 1.44727 0
M  V30 3718 H 353.486 -3.69867 1.18871 0
M  V30 3719 H 355.158 -2.82405 3.64753 0
M  V30 3720 H 353.401 -2.60048 3.47214 0
M  V30 3721 H 354.072 -4.23271 3.54324 0
M  V30 3722 H 356.548 -3.81454 1.66229 0
M  V30 3723 H 355.424 -5.19289 1.77848 0
M  V30 3724 H 355.685 -4.41526 0.22521 0
M  V30 3725 N 354.744 -0.972509 -1.24016 0
M  V30 3726 C 355.654 -0.5143 -2.28893 0
M  V30 3727 C 356.67 0.427078 -1.68677 0
M  V30 3728 O 357.846 0.298939 -1.99169 0
M  V30 3729 C 354.911 0.183598 -3.46214 0
M  V30 3730 C 353.972 -0.798202 -4.21814 0
M  V30 3731 C 353.205 -0.133514 -5.33533 0
M  V30 3732 O 353.428 1.07714 -5.60137 0
M  V30 3733 O 352.362 -0.828103 -5.96176 0
M  V30 3734 H 356.188 -1.38629 -2.70214 0
M  V30 3735 H 353.773 -0.739769 -1.29799 0
M  V30 3736 H 355.655 0.575433 -4.17453 0
M  V30 3737 H 354.33 1.03048 -3.0686 0
M  V30 3738 H 353.237 -1.24059 -3.52931 0
M  V30 3739 H 354.57 -1.61364 -4.64997 0
M  V30 3740 N 356.222 1.38976 -0.743202 0
M  V30 3741 C 357.468 2.0064 -0.295189 0
M  V30 3742 C 357.801 1.5885 1.11716 0
M  V30 3743 O 357.076 0.821181 1.76315 0
M  V30 3744 C 357.359 3.578 -0.406318 0
M  V30 3745 C 357.212 4.09586 -1.85903 0
M  V30 3746 C 358.531 4.39616 0.206439 0
M  V30 3747 H 355.65 0.728935 -0.108733 0
M  V30 3748 H 358.292 1.65067 -0.940897 0
M  V30 3749 H 356.442 3.88235 0.143419 0
M  V30 3750 H 358.114 3.89837 -2.46627 0
M  V30 3751 H 356.357 3.6284 -2.3776 0
M  V30 3752 H 357.028 5.18708 -1.888 0
M  V30 3753 H 359.504 4.15273 -0.262283 0
M  V30 3754 H 358.38 5.48812 0.0983819 0
M  V30 3755 H 358.641 4.22754 1.2935 0
M  V30 3756 N 357.7 0.491464 1.49741 0
M  V30 3757 C 358.648 -0.305837 2.30581 0
M  V30 3758 C 359.642 -0.971642 1.38764 0
M  V30 3759 O 360.848 -0.90042 1.5586 0
M  V30 3760 H 357.223 -0.117482 0.742767 0
M  V30 3761 H 359.194 0.396093 2.95759 0
M  V30 3762 C 357.943 -1.36319 3.19863 0
M  V30 3763 H 357.266 -0.860258 3.90435 0
M  V30 3764 H 358.706 -1.89323 3.79385 0
M  V30 3765 C 357.165 -2.37621 2.38826 0
M  V30 3766 O 357.695 -3.43311 2.08567 0
M  V30 3767 N 355.901 -2.09849 2.01026 0
M  V30 3768 H 355.448 -1.23922 2.25834 0
M  V30 3769 H 355.406 -2.77859 1.47112 0
M  V30 3770 N 359.178 -1.55987 0.224894 0
M  V30 3771 C 360.589 -1.84553 -0.282345 0
M  V30 3772 C 360.94 -1.14634 -1.59227 0
M  V30 3773 O 360.065 -0.417155 -2.12341 0
M  V30 3774 C 360.66 -3.348 -0.519062 0
M  V30 3775 C 359.219 -3.63671 -0.970604 0
M  V30 3776 C 358.366 -2.77277 -0.0355261 0
M  V30 3777 H 361.317 -1.52245 0.448006 0
M  V30 3778 H 361.338 -3.55187 -1.36463 0
M  V30 3779 H 360.85 -3.8566 0.43449 0
M  V30 3780 H 358.951 -3.1827 -1.9374 0
M  V30 3781 H 359.064 -4.71631 -0.842698 0
M  V30 3782 H 357.428 -2.48846 -0.542927 0
M  V30 3783 H 358.211 -3.30937 0.913003 0
M  V30 3784 N 360.656 0.0484629 -1.57525 0
M  V30 3785 C 361.903 0.743125 -1.88372 0
M  V30 3786 C 362.231 1.76383 -0.819715 0
M  V30 3787 O 361.486 1.94855 0.181659 0
M  V30 3788 C 361.785 1.46632 -3.25935 0
M  V30 3789 C 361.451 0.583427 -4.4711 0
M  V30 3790 C 360.113 0.340191 -4.79996 0
M  V30 3791 C 362.465 -0.0273345 -5.21193 0
M  V30 3792 C 359.793 -0.522903 -5.84365 0
M  V30 3793 C 362.145 -0.878017 -6.26477 0
M  V30 3794 C 360.809 -1.1309 -6.5785 0
M  V30 3795 H 360.079 0.271929 -0.689301 0
M  V30 3796 H 362.726 0.00336166 -1.915 0
M  V30 3797 H 361.031 2.2789 -3.18706 0
M  V30 3798 H 362.728 2.00902 -3.47044 0
M  V30 3799 H 359.318 0.783151 -4.21384 0
M  V30 3800 H 363.502 0.147654 -4.9608 0
M  V30 3801 H 358.758 -0.727335 -6.07058 0
M  V30 3802 H 362.932 -1.35789 -6.83033 0
M  V30 3803 H 360.559 -1.80144 -7.38547 0
M  V30 3804 N 362.134 1.5431 0.320358 0
M  V30 3805 C 363.382 1.72327 1.05583 0
M  V30 3806 C 363.703 0.50149 1.88441 0
M  V30 3807 O 362.973 -0.48448 1.89815 0
M  V30 3808 H 361.553 0.635387 0.3928 0
M  V30 3809 H 364.215 1.91621 0.356019 0
M  V30 3810 H 363.311 2.60426 1.72003 0
M  V30 3811 N 363.613 -0.582584 1.46437 0
M  V30 3812 C 364.523 -1.71949 1.59595 0
M  V30 3813 C 365.539 -1.67264 0.479443 0
M  V30 3814 O 366.715 -1.87171 0.743579 0
M  V30 3815 C 363.78 -3.08452 1.58298 0
M  V30 3816 C 362.841 -3.244 2.81182 0
M  V30 3817 C 362.074 -4.54391 2.79937 0
M  V30 3818 O 362.297 -5.38287 1.8869 0
M  V30 3819 O 361.231 -4.73588 3.71481 0
M  V30 3820 H 365.057 -1.63795 2.55744 0
M  V30 3821 H 362.642 -0.749643 1.29231 0
M  V30 3822 H 364.524 -3.89732 1.60271 0
M  V30 3823 H 363.199 -3.17043 0.653094 0
M  V30 3824 H 362.106 -2.42613 2.84763 0
M  V30 3825 H 363.439 -3.20699 3.7338 0
M  V30 3826 N 365.091 -1.34144 -0.827227 0
M  V30 3827 C 366.319 -1.29325 -1.61501 0
M  V30 3828 C 366.734 0.13354 -1.88327 0
M  V30 3829 O 366.091 1.0793 -1.47164 0
M  V30 3830 C 366.142 -2.07746 -2.95844 0
M  V30 3831 O 365.863 -3.4486 -2.70191 0
M  V30 3832 C 367.364 -2.10273 -3.90256 0
M  V30 3833 H 364.584 -0.445069 -0.50215 0
M  V30 3834 H 367.128 -1.76693 -1.02955 0
M  V30 3835 H 365.283 -1.6403 -3.5096 0
M  V30 3836 H 365.697 -3.85345 -3.55822 0
M  V30 3837 H 367.171 -2.69575 -4.81698 0
M  V30 3838 H 367.648 -1.096 -4.25305 0
M  V30 3839 H 368.254 -2.54059 -3.41078 0
M  V30 3840 N 366.569 1.04691 -1.17803 0
M  V30 3841 C 367.98 1.59238 -0.974689 0
M  V30 3842 C 368.331 1.90306 0.477292 0
M  V30 3843 O 367.456 1.68846 1.35352 0
M  V30 3844 C 368.051 2.89318 -1.76296 0
M  V30 3845 C 366.61 3.40506 -1.60414 0
M  V30 3846 C 365.757 2.14172 -1.76141 0
M  V30 3847 H 368.708 0.874395 -1.32439 0
M  V30 3848 H 368.729 3.5944 -1.24833 0
M  V30 3849 H 368.241 2.66675 -2.81968 0
M  V30 3850 H 366.342 3.68175 -0.572519 0
M  V30 3851 H 366.455 4.14753 -2.39827 0
M  V30 3852 H 364.819 2.25176 -1.19028 0
M  V30 3853 H 365.602 1.93992 -2.83235 0
M  V30 3854 N 368.047 0.979072 1.23499 0
M  V30 3855 C 368.957 0.526431 2.28617 0
M  V30 3856 C 369.973 -0.418126 1.68901 0
M  V30 3857 O 371.149 -0.288372 1.99325 0
M  V30 3858 C 368.214 -0.165235 3.46306 0
M  V30 3859 C 367.275 0.82056 4.21385 0
M  V30 3860 C 366.508 0.161807 5.33455 0
M  V30 3861 O 366.731 -1.04742 5.60701 0
M  V30 3862 O 365.665 0.859708 5.95729 0
M  V30 3863 H 369.491 1.4006 2.69475 0
M  V30 3864 H 367.076 0.746643 1.29405 0
M  V30 3865 H 368.958 -0.553287 4.17752 0
M  V30 3866 H 367.633 -1.01419 3.07402 0
M  V30 3867 H 366.54 1.25929 3.52268 0
M  V30 3868 H 367.873 1.63828 4.64135 0
M  V30 3869 N 369.525 -1.3858 0.750561 0
M  V30 3870 C 370.773 -1.99789 0.30477 0
M  V30 3871 C 371.094 -1.59874 -1.11649 0
M  V30 3872 O 370.364 -0.85417 -1.76297 0
M  V30 3873 H 368.944 -0.738902 0.109694 0
M  V30 3874 H 371.606 -1.69391 0.963983 0
M  V30 3875 H 370.702 -3.09952 0.365499 0
M  V30 3876 N 371.003 -0.499398 -1.49478 0
M  V30 3877 C 371.935 0.316575 -2.27003 0
M  V30 3878 C 372.948 0.932047 -1.33479 0
M  V30 3879 O 374.137 0.815658 -1.58774 0
M  V30 3880 C 371.237 1.46055 -3.05812 0
M  V30 3881 C 370.41 0.952679 -4.26899 0
M  V30 3882 C 369.469 1.97407 -4.87767 0
M  V30 3883 O 368.495 1.54326 -5.4788 0
M  V30 3884 N 369.697 3.30436 -4.77276 0
M  V30 3885 H 372.462 -0.348168 -2.97671 0
M  V30 3886 H 370.023 -0.33185 -1.58463 0
M  V30 3887 H 372.015 2.14135 -3.43407 0
M  V30 3888 H 370.585 2.02948 -2.37762 0
M  V30 3889 H 369.805 0.0968248 -3.94081 0
M  V30 3890 H 371.093 0.59174 -5.05347 0
M  V30 3891 H 370.491 3.68126 -4.29534 0
M  V30 3892 H 369.048 3.94235 -5.19059 0
M  V30 3893 N 372.481 1.55866 -0.233164 0
M  V30 3894 C 373.727 1.98897 0.395959 0
M  V30 3895 C 374.06 1.12091 1.58585 0
M  V30 3896 O 373.335 0.181182 1.93654 0
M  V30 3897 C 373.618 3.50658 0.819224 0
M  V30 3898 C 373.471 4.48233 -0.375109 0
M  V30 3899 C 374.79 4.07135 1.67121 0
M  V30 3900 H 371.909 0.723102 0.142451 0
M  V30 3901 H 374.551 1.87082 -0.331725 0
M  V30 3902 H 372.701 3.60857 1.43925 0
M  V30 3903 H 374.373 4.50031 -1.01341 0
M  V30 3904 H 372.616 4.21624 -1.02058 0
M  V30 3905 H 373.287 5.51988 -0.0358328 0
M  V30 3906 H 375.763 3.99952 1.14795 0
M  V30 3907 H 374.639 5.13615 1.93625 0
M  V30 3908 H 374.9 3.54736 2.63846 0
M  V30 3909 N 373.959 -0.0401083 1.57549 0
M  V30 3910 C 375.205 -0.734211 1.89043 0
M  V30 3911 C 375.538 -1.75591 0.829535 0
M  V30 3912 O 374.813 -1.93868 -0.156706 0
M  V30 3913 C 375.096 -1.41374 3.31188 0
M  V30 3914 C 374.949 -0.406299 4.47961 0
M  V30 3915 C 376.268 -2.35061 3.72068 0
M  V30 3916 H 373.387 -0.265447 0.687537 0
M  V30 3917 H 376.029 0.00294087 1.9 0
M  V30 3918 H 374.179 -2.04206 3.30503 0
M  V30 3919 H 375.851 0.219255 4.60779 0
M  V30 3920 H 374.094 0.275485 4.32924 0
M  V30 3921 H 374.765 -0.920022 5.44279 0
M  V30 3922 H 377.241 -1.82282 3.74049 0
M  V30 3923 H 376.117 -2.79593 4.72355 0
M  V30 3924 H 376.378 -3.21258 3.0372 0
M  V30 3925 N 375.437 -1.54477 -0.31217 0
M  V30 3926 C 376.677 -1.74958 -1.05684 0
M  V30 3927 C 377.041 -0.518414 -1.84869 0
M  V30 3928 O 378.242 -0.600759 -2.62001 0
M  V30 3929 C 376.513 -2.99656 -1.94785 0
M  V30 3930 S 378.072 -3.4109 -2.76049 0
M  V30 3931 H 374.89 -0.615104 -0.356606 0
M  V30 3932 H 377.492 -1.92669 -0.331514 0
M  V30 3933 H 376.196 -3.87397 -1.35468 0
M  V30 3934 H 375.727 -2.845 -2.71704 0
M  V30 3935 H 377.742 -2.97283 -3.97287 0
M  V30 3936 N 376.915 0.57481 -1.46744 0
M  V30 3937 C 378.162 1.33272 -1.52462 0
M  V30 3938 C 378.49 1.93669 -0.179572 0
M  V30 3939 O 377.745 1.7743 0.825664 0
M  V30 3940 C 378.044 2.476 -2.57738 0
M  V30 3941 C 377.71 2.05146 -4.01529 0
M  V30 3942 C 376.372 1.93284 -4.40676 0
M  V30 3943 C 378.724 1.72506 -4.91824 0
M  V30 3944 C 376.052 1.47049 -5.67973 0
M  V30 3945 C 378.404 1.27748 -6.19567 0
M  V30 3946 C 377.068 1.14468 -6.57612 0
M  V30 3947 H 376.338 0.487678 -0.557899 0
M  V30 3948 H 378.985 0.646456 -1.80259 0
M  V30 3949 H 377.29 3.21708 -2.23632 0
M  V30 3950 H 378.987 3.05807 -2.5939 0
M  V30 3951 H 375.577 2.15316 -3.7059 0
M  V30 3952 H 379.761 1.80552 -4.62293 0
M  V30 3953 H 375.017 1.35417 -5.96215 0
M  V30 3954 H 379.191 1.01547 -6.88957 0
M  V30 3955 H 376.818 0.78419 -7.56145 0
M  V30 3956 N 378.394 1.34581 0.820102 0
M  V30 3957 C 379.671 1.17675 1.56244 0
M  V30 3958 C 380.051 -0.249541 2.0962 0
M  V30 3959 O 379.399 -1.25125 1.91196 0
M  V30 3960 C 379.609 2.23364 2.6816 0
M  V30 3961 C 380.957 2.58485 3.36854 0
M  V30 3962 O 381.981 2.22175 2.78418 0
M  V30 3963 O 380.84 3.20868 4.42386 0
M  V30 3964 H 377.934 0.456333 0.689702 0
M  V30 3965 H 380.48 1.46222 0.861231 0
M  V30 3966 H 379.252 3.19087 2.26493 0
M  V30 3967 H 378.875 1.96009 3.45928 0
M  V30 3968 N 379.872 -1.04064 1.18357 0
M  V30 3969 C 380.835 -2.10243 0.912707 0
M  V30 3970 C 381.835 -1.60477 -0.101928 0
M  V30 3971 O 383.025 -1.73703 0.131517 0
M  V30 3972 C 380.157 -3.38893 0.369387 0
M  V30 3973 H 381.35 -2.35706 1.85426 0
M  V30 3974 H 378.903 -1.20489 0.995594 0
M  V30 3975 H 379.638 -3.19094 -0.578776 0
M  V30 3976 H 379.423 -3.76331 1.1008 0
M  V30 3977 H 380.913 -4.17128 0.198575 0
M  V30 3978 N 381.35 -0.985608 -1.22978 0
M  V30 3979 C 382.297 -0.529825 -2.24636 0
M  V30 3980 C 383.267 0.434028 -1.60329 0
M  V30 3981 O 384.452 0.340414 -1.87739 0
M  V30 3982 C 381.592 0.156533 -3.44745 0
M  V30 3983 C 380.705 -0.848197 -4.23591 0
M  V30 3984 C 379.84 -0.136109 -5.31026 0
M  V30 3985 C 378.879 -1.1297 -6.01585 0
M  V30 3986 N 378.016 -0.446415 -7.00679 0
M  V30 3987 H 382.856 -1.40148 -2.62988 0
M  V30 3988 H 380.393 -0.702168 -1.29259 0
M  V30 3989 H 382.351 0.571324 -4.1327 0
M  V30 3990 H 380.981 0.992025 -3.07179 0
M  V30 3991 H 380.033 -1.38135 -3.54433 0
M  V30 3992 H 381.345 -1.60512 -4.72268 0
M  V30 3993 H 380.499 0.335784 -6.0577 0
M  V30 3994 H 379.238 0.653373 -4.83304 0
M  V30 3995 H 378.243 -1.6123 -5.25628 0
M  V30 3996 H 379.468 -1.91993 -6.51395 0
M  V30 3997 H 377.414 0.323763 -6.55201 0
M  V30 3998 H 377.331 -1.1419 -7.47326 0
M  V30 3999 H 378.599 0.00291697 -7.795 0
M  V30 4000 N 382.828 1.3818 -0.7579 0
M  V30 4001 C 384.077 1.99261 -0.312744 0
M  V30 4002 C 384.39 1.60846 1.11301 0
M  V30 4003 O 385.596 2.14929 1.65885 0
M  V30 4004 C 384.052 3.56294 -0.50821 0
M  V30 4005 C 383.66 4.03657 -1.94333 0
M  V30 4006 C 385.404 4.24313 -0.125982 0
M  V30 4007 C 383.311 5.53347 -2.08712 0
M  V30 4008 H 382.241 0.745456 -0.113185 0
M  V30 4009 H 384.892 1.57889 -0.935056 0
M  V30 4010 H 383.274 3.95575 0.183353 0
M  V30 4011 H 384.448 3.75655 -2.66871 0
M  V30 4012 H 382.763 3.48376 -2.28086 0
M  V30 4013 H 385.36 5.34279 -0.212125 0
M  V30 4014 H 385.703 4.05962 0.921964 0
M  V30 4015 H 386.236 3.90285 -0.769563 0
M  V30 4016 H 382.975 5.76607 -3.11777 0
M  V30 4017 H 382.495 5.83078 -1.4064 0
M  V30 4018 H 384.174 6.19111 -1.87912 0
M  V30 4019 N 384.306 0.507319 1.49211 0
M  V30 4020 C 385.254 -0.281364 2.30892 0
M  V30 4021 C 386.248 -0.95687 1.39787 0
M  V30 4022 O 387.454 -0.883838 1.56807 0
M  V30 4023 H 383.829 -0.109597 0.743971 0
M  V30 4024 H 385.8 0.42744 2.95323 0
M  V30 4025 C 384.549 -1.32918 3.21291 0
M  V30 4026 H 383.872 -0.818799 3.91326 0
M  V30 4027 H 385.312 -1.85288 3.81372 0
M  V30 4028 C 383.771 -2.35074 2.41333 0
M  V30 4029 O 384.301 -3.4108 2.12197 0
M  V30 4030 N 382.507 -2.07705 2.03241 0
M  V30 4031 H 382.054 -1.2152 2.27136 0
M  V30 4032 H 382.012 -2.76283 1.50051 0
M  V30 4033 N 385.784 -1.5574 0.241426 0
M  V30 4034 C 387.031 -1.9881 -0.384836 0
M  V30 4035 C 387.359 -1.12947 -1.58346 0
M  V30 4036 O 386.614 -0.178993 -1.9488 0
M  V30 4037 C 386.913 -3.47308 -0.843317 0
M  V30 4038 C 386.579 -4.50223 0.246946 0
M  V30 4039 C 385.241 -4.78088 0.546399 0
M  V30 4040 C 387.593 -5.11841 0.983282 0
M  V30 4041 C 384.921 -5.64846 1.58636 0
M  V30 4042 C 387.273 -5.99727 2.01272 0
M  V30 4043 C 385.937 -6.25927 2.31888 0
M  V30 4044 H 385.207 -0.727496 -0.140821 0
M  V30 4045 H 387.854 -1.8831 0.348106 0
M  V30 4046 H 386.159 -3.55112 -1.65537 0
M  V30 4047 H 387.856 -3.78017 -1.33806 0
M  V30 4048 H 384.446 -4.286 0.00340639 0
M  V30 4049 H 388.63 -4.90366 0.765182 0
M  V30 4050 H 383.886 -5.83403 1.82896 0
M  V30 4051 H 388.06 -6.46517 2.58823 0
M  V30 4052 H 385.687 -6.92949 3.12611 0
M  V30 4053 N 387.262 0.0317525 -1.57568 0
M  V30 4054 C 388.539 0.758366 -1.803 0
M  V30 4055 C 388.919 1.93718 -0.838845 0
M  V30 4056 O 388.267 2.28187 0.119571 0
M  V30 4057 C 388.477 1.19392 -3.27943 0
M  V30 4058 C 389.825 1.61094 -3.92854 0
M  V30 4059 O 390.849 1.28857 -3.32076 0
M  V30 4060 O 389.708 2.20918 -4.99858 0
M  V30 4061 H 386.802 0.366514 -0.741348 0
M  V30 4062 H 389.348 0.00873765 -1.69698 0
M  V30 4063 H 388.12 0.352275 -3.89711 0
M  V30 4064 H 387.743 2.00365 -3.43424 0
M  V30 4065 N 388.74 1.54641 0.303973 0
M  V30 4066 C 390.017 1.64455 1.05896 0
M  V30 4067 C 390.397 0.490923 2.05312 0
M  V30 4068 O 389.745 -0.512685 2.22674 0
M  V30 4069 C 389.955 3.02331 1.74347 0
M  V30 4070 C 391.303 3.59045 2.26653 0
M  V30 4071 O 392.327 3.04764 1.84384 0
M  V30 4072 O 391.186 4.54081 3.04093 0
M  V30 4073 H 388.28 0.666729 0.489287 0
M  V30 4074 H 390.826 1.66986 0.302298 0
M  V30 4075 H 389.598 3.77734 1.02142 0
M  V30 4076 H 389.221 3.03565 2.56777 0
M  V30 4077 N 390.218 -0.567019 1.47046 0
M  V30 4078 C 391.166 -1.69593 1.59188 0
M  V30 4079 C 392.16 -1.63046 0.459609 0
M  V30 4080 O 393.366 -1.6835 0.637058 0
M  V30 4081 H 389.741 -0.560993 0.500791 0
M  V30 4082 H 391.712 -1.56488 2.54075 0
M  V30 4083 C 390.461 -3.07964 1.61411 0
M  V30 4084 H 389.784 -3.13679 2.47881 0
M  V30 4085 H 391.224 -3.86671 1.73958 0
M  V30 4086 C 389.683 -3.35123 0.34559 0
M  V30 4087 O 390.213 -3.97812 -0.557521 0
M  V30 4088 N 388.419 -2.89699 0.22864 0
M  V30 4089 H 387.966 -2.38863 0.964479 0
M  V30 4090 H 387.924 -3.08242 -0.619192 0
M  V30 4091 N 391.696 -1.35014 -0.812953 0
M  V30 4092 C 392.659 -1.27292 -1.90602 0
M  V30 4093 C 393.659 -0.185817 -1.59723 0
M  V30 4094 O 394.849 -0.439102 -1.68575 0
M  V30 4095 C 391.981 -0.967676 -3.26877 0
M  V30 4096 H 393.174 -2.24479 -1.9887 0
M  V30 4097 H 390.727 -1.19446 -1.00808 0
M  V30 4098 H 391.462 0.0005954 -3.243 0
M  V30 4099 H 391.247 -1.75412 -3.50675 0
M  V30 4100 H 392.737 -0.939085 -4.06904 0
M  V30 4101 N 393.175 1.03435 -1.18907 0
M  V30 4102 C 394.085 2.15075 -0.937015 0
M  V30 4103 C 395.101 1.73706 0.101085 0
M  V30 4104 O 396.277 2.01232 -0.0822948 0
M  V30 4105 C 393.342 3.43458 -0.473057 0
M  V30 4106 C 392.403 3.99172 -1.57989 0
M  V30 4107 C 391.636 5.21427 -1.13797 0
M  V30 4108 O 391.859 5.704 0.000725941 0
M  V30 4109 O 390.793 5.69837 -1.9383 0
M  V30 4110 H 394.619 2.39198 -1.87131 0
M  V30 4111 H 392.204 1.13506 -0.971427 0
M  V30 4112 H 394.086 4.20811 -0.222702 0
M  V30 4113 H 392.761 3.20793 0.432869 0
M  V30 4114 H 391.668 3.23178 -1.88433 0
M  V30 4115 H 393.001 4.2619 -2.46217 0
M  V30 4116 N 394.653 0.992116 1.22453 0
M  V30 4117 C 395.9 0.667534 1.91181 0
M  V30 4118 C 396.228 -0.800317 1.77271 0
M  V30 4119 O 395.483 -1.59421 1.13505 0
M  V30 4120 C 395.782 1.01832 3.42586 0
M  V30 4121 C 395.448 2.47831 3.76684 0
M  V30 4122 C 394.11 2.87729 3.85701 0
M  V30 4123 C 396.462 3.42466 3.92895 0
M  V30 4124 C 393.79 4.21252 4.08367 0
M  V30 4125 C 396.142 4.75648 4.17064 0
M  V30 4126 C 394.806 5.15288 4.24305 0
M  V30 4127 H 394.076 0.244268 0.699581 0
M  V30 4128 H 396.723 1.24816 1.45235 0
M  V30 4129 H 395.028 0.355769 3.90181 0
M  V30 4130 H 396.725 0.745228 3.94014 0
M  V30 4131 H 393.315 2.15905 3.70247 0
M  V30 4132 H 397.499 3.12814 3.85307 0
M  V30 4133 H 392.755 4.51554 4.122 0
M  V30 4134 H 396.929 5.48924 4.2855 0
M  V30 4135 H 394.556 6.18769 4.41621 0
M  V30 4136 N 396.131 -1.37776 0.765217 0
M  V30 4137 C 397.547 -1.53297 0.444108 0
M  V30 4138 C 397.747 -1.72515 -1.04119 0
M  V30 4139 O 396.803 -1.74278 -1.82711 0
M  V30 4140 C 398.116 -2.73328 1.25349 0
M  V30 4141 C 399.664 -2.87185 1.24473 0
M  V30 4142 C 400.139 -4.10191 2.03733 0
M  V30 4143 N 401.63 -4.17291 2.01053 0
M  V30 4144 C 402.365 -5.11488 2.59166 0
M  V30 4145 N 401.861 -6.11285 3.26041 0
M  V30 4146 N 403.654 -5.03924 2.49032 0
M  V30 4147 H 395.805 -1.23552 1.72768 0
M  V30 4148 H 398.068 -0.601103 0.733062 0
M  V30 4149 H 397.774 -2.6557 2.30577 0
M  V30 4150 H 397.648 -3.66834 0.87823 0
M  V30 4151 H 400.035 -2.94418 0.20047 0
M  V30 4152 H 400.116 -1.94657 1.65959 0
M  V30 4153 H 399.76 -4.0372 3.08176 0
M  V30 4154 H 399.69 -5.01821 1.59633 0
M  V30 4155 H 402.181 -3.45825 1.5236 0
M  V30 4156 H 402.494 -6.79678 3.67774 0
M  V30 4157 H 400.839 -6.11583 3.30138 0
M  V30 4158 H 404.03 -4.24902 1.96407 0
M  V30 4159 H 404.203 -5.77152 2.94617 0
M  V30 4160 N 397.609 -0.515225 -1.4894 0
M  V30 4161 C 398.541 0.292481 -2.27326 0
M  V30 4162 C 399.554 0.917838 -1.3446 0
M  V30 4163 O 400.743 0.798772 -1.5963 0
M  V30 4164 C 397.843 1.42803 -3.07344 0
M  V30 4165 C 397.016 0.907347 -4.27885 0
M  V30 4166 C 396.075 1.92222 -4.89834 0
M  V30 4167 O 395.101 1.48506 -5.49486 0
M  V30 4168 N 396.303 3.25355 -4.80754 0
M  V30 4169 H 399.068 -0.379721 -2.97285 0
M  V30 4170 H 396.629 -0.348638 -1.58102 0
M  V30 4171 H 398.621 2.10481 -3.45658 0
M  V30 4172 H 397.191 2.00414 -2.39902 0
M  V30 4173 H 396.411 0.0550218 -3.94162 0
M  V30 4174 H 397.699 0.538108 -5.05946 0
M  V30 4175 H 397.097 3.6355 -4.33414 0
M  V30 4176 H 395.654 3.88707 -5.23211 0
M  V30 4177 N 399.087 1.5561 -0.249682 0
M  V30 4178 C 400.034 2.21496 0.648694 0
M  V30 4179 C 401.004 1.17977 1.16921 0
M  V30 4180 O 402.189 1.46434 1.22318 0
M  V30 4181 C 399.329 2.92039 1.83868 0
M  V30 4182 C 398.442 4.10219 1.35442 0
M  V30 4183 C 397.577 4.6847 2.50419 0
M  V30 4184 C 396.616 5.78893 1.98869 0
M  V30 4185 N 395.753 6.31315 3.07223 0
M  V30 4186 H 400.593 2.97892 0.0801582 0
M  V30 4187 H 398.13 1.47074 0.0278031 0
M  V30 4188 H 400.088 3.31138 2.53778 0
M  V30 4189 H 398.718 2.18111 2.37965 0
M  V30 4190 H 397.77 3.76413 0.54928 0
M  V30 4191 H 399.082 4.89927 0.936649 0
M  V30 4192 H 398.236 5.10158 3.28366 0
M  V30 4193 H 396.975 3.87984 2.95499 0
M  V30 4194 H 395.98 5.3668 1.19393 0
M  V30 4195 H 397.205 6.61232 1.54755 0
M  V30 4196 H 395.151 5.53733 3.51732 0
M  V30 4197 H 395.068 7.06224 2.69784 0
M  V30 4198 H 396.336 6.77662 3.8522 0
M  V30 4199 N 400.565 -0.0233959 1.57583 0
M  V30 4200 C 401.842 -0.748794 1.807 0
M  V30 4201 C 402.222 -1.9327 0.849106 0
M  V30 4202 O 401.57 -2.28247 -0.107468 0
M  V30 4203 C 401.78 -1.17651 3.28571 0
M  V30 4204 C 403.128 -1.59008 3.93702 0
M  V30 4205 O 404.152 -1.27094 3.32755 0
M  V30 4206 O 403.011 -2.18264 5.01022 0
M  V30 4207 H 400.105 -0.362578 0.743281 0
M  V30 4208 H 402.651 0.000261958 1.697 0
M  V30 4209 H 401.423 -0.331603 3.89892 0
M  V30 4210 H 401.046 -1.98541 3.44481 0
M  V30 4211 N 402.043 -1.548 -0.295768 0
M  V30 4212 C 403.292 -1.73538 -1.02798 0
M  V30 4213 C 403.605 -0.531159 -1.8825 0
M  V30 4214 O 404.811 -0.600458 -2.64777 0
M  V30 4215 C 403.267 -3.07051 -1.87744 0
M  V30 4216 C 402.875 -4.34968 -1.07269 0
M  V30 4217 C 404.619 -3.35146 -2.60533 0
M  V30 4218 C 402.526 -5.5953 -1.91521 0
M  V30 4219 H 401.456 -0.646794 -0.387522 0
M  V30 4220 H 404.107 -1.81278 -0.284718 0
M  V30 4221 H 402.489 -2.93289 -2.66078 0
M  V30 4222 H 403.663 -4.5958 -0.335117 0
M  V30 4223 H 401.978 -4.13847 -0.460384 0
M  V30 4224 H 404.575 -4.2541 -3.23929 0
M  V30 4225 H 404.918 -2.54255 -3.29636 0
M  V30 4226 H 405.451 -3.49902 -1.89244 0
M  V30 4227 H 402.19 -6.43103 -1.26878 0
M  V30 4228 H 401.71 -5.39096 -2.62937 0
M  V30 4229 H 403.389 -5.96982 -2.49442 0
M  V30 4230 N 403.521 0.559213 -1.47345 0
M  V30 4231 C 404.768 1.31648 -1.53867 0
M  V30 4232 C 405.096 1.93468 -0.200104 0
M  V30 4233 O 404.351 1.78295 0.806799 0
M  V30 4234 C 404.65 2.44853 -2.6035 0
M  V30 4235 C 404.316 2.00876 -4.03683 0
M  V30 4236 C 402.978 1.88599 -4.42701 0
M  V30 4237 C 405.33 1.67279 -4.93626 0
M  V30 4238 C 402.658 1.41017 -5.69501 0
M  V30 4239 C 405.01 1.21169 -6.20887 0
M  V30 4240 C 403.674 1.07487 -6.58789 0
M  V30 4241 H 402.944 0.481734 -0.56304 0
M  V30 4242 H 405.591 0.627301 -1.80934 0
M  V30 4243 H 403.896 3.19318 -2.27032 0
M  V30 4244 H 405.593 3.03039 -2.62619 0
M  V30 4245 H 402.183 2.11374 -3.72853 0
M  V30 4246 H 406.367 1.75638 -4.64182 0
M  V30 4247 H 401.623 1.29086 -5.97618 0
M  V30 4248 H 405.797 0.942345 -6.89995 0
M  V30 4249 H 403.424 0.703946 -7.56934 0
M  V30 4250 N 404.999 1.35443 0.805782 0
M  V30 4251 C 405.962 1.28301 1.89925 0
M  V30 4252 C 406.962 0.194285 1.59622 0
M  V30 4253 O 408.152 0.448036 1.6834 0
M  V30 4254 C 405.284 0.984997 3.2636 0
M  V30 4255 H 406.477 2.2553 1.97677 0
M  V30 4256 H 404.03 1.19979 1.00173 0
M  V30 4257 H 404.765 0.016603 3.24296 0
M  V30 4258 H 404.55 1.77269 3.4974 0
M  V30 4259 H 406.04 0.960651 4.064 0
M  V30 4260 N 406.477 -1.02803 1.19454 0
M  V30 4261 C 407.41 -2.107 0.876396 0
M  V30 4262 C 408.388 -1.61741 -0.166897 0
M  V30 4263 O 409.572 -1.88451 -0.0430195 0
M  V30 4264 C 406.699 -3.37262 0.311758 0
M  V30 4265 C 405.745 -4.05093 1.33424 0
M  V30 4266 S 406.578 -4.50498 2.89503 0
M  V30 4267 C 407.734 -5.80277 2.34584 0
M  V30 4268 H 407.967 -2.37362 1.79016 0
M  V30 4269 H 405.5 -1.15755 1.02177 0
M  V30 4270 H 407.458 -4.10499 -0.00748752 0
M  V30 4271 H 406.119 -3.08693 -0.58032 0
M  V30 4272 H 405.312 -4.9611 0.888302 0
M  V30 4273 H 404.914 -3.3803 1.60037 0
M  V30 4274 H 407.206 -6.54873 1.73633 0
M  V30 4275 H 408.149 -6.29651 3.23952 0
M  V30 4276 H 408.557 -5.3599 1.77131 0
M  V30 4277 N 407.956 -0.998596 -1.21925 0
M  V30 4278 C 409.233 -0.593401 -1.86382 0
M  V30 4279 C 409.613 0.92916 -1.89552 0
M  V30 4280 O 408.961 1.81347 -1.39017 0
M  V30 4281 C 409.171 -1.22039 -3.26967 0
M  V30 4282 C 410.519 -1.32449 -4.03413 0
M  V30 4283 O 411.543 -1.17522 -3.36254 0
M  V30 4284 O 410.402 -1.56395 -5.23644 0
M  V30 4285 H 407.496 -0.202385 -0.801854 0
M  V30 4286 H 410.042 -1.09484 -1.29659 0
M  V30 4287 H 408.814 -2.26158 -3.19325 0
M  V30 4288 H 408.437 -0.704906 -3.91301 0
M  V30 4289 N 409.434 1.37368 -0.772513 0
M  V30 4290 C 410.711 1.93839 -0.26188 0
M  V30 4291 C 411.091 1.7061 1.24319 0
M  V30 4292 O 410.439 1.05534 2.02669 0
M  V30 4293 C 410.649 3.43154 -0.636102 0
M  V30 4294 C 411.997 4.20249 -0.606324 0
M  V30 4295 O 413.021 3.5152 -0.575538 0
M  V30 4296 O 411.88 5.42809 -0.634086 0
M  V30 4297 H 408.974 0.82478 -0.0605555 0
M  V30 4298 H 411.52 1.4665 -0.853917 0
M  V30 4299 H 410.292 3.53647 -1.6748 0
M  V30 4300 H 409.915 3.97596 -0.0170516 0
M  V30 4301 N 410.912 0.523116 1.48665 0
M  V30 4302 C 411.859 -0.243398 2.29513 0
M  V30 4303 C 412.829 -0.940139 1.36933 0
M  V30 4304 O 414.014 -0.942503 1.65896 0
M  V30 4305 C 411.154 -1.28855 3.20141 0
M  V30 4306 C 410.267 -0.60135 4.27794 0
M  V30 4307 C 409.402 -1.62884 5.05611 0
M  V30 4308 C 408.441 -0.924726 6.05075 0
M  V30 4309 N 407.578 -1.89744 6.75975 0
M  V30 4310 H 412.418 0.452234 2.94549 0
M  V30 4311 H 409.955 0.234858 1.45213 0
M  V30 4312 H 411.913 -1.90674 3.71079 0
M  V30 4313 H 410.543 -1.95266 2.57043 0
M  V30 4314 H 409.595 0.130623 3.80176 0
M  V30 4315 H 410.907 -0.0481585 4.98777 0
M  V30 4316 H 410.061 -2.32149 5.60528 0
M  V30 4317 H 408.8 -2.21592 4.34452 0
M  V30 4318 H 407.805 -0.217966 5.49368 0
M  V30 4319 H 409.03 -0.343851 6.78229 0
M  V30 4320 H 406.976 -2.47373 6.07571 0
M  V30 4321 H 406.893 -1.3955 7.43009 0
M  V30 4322 H 408.161 -2.58229 7.35485 0
M  V30 4323 N 412.39 -1.55475 0.257931 0
M  V30 4324 C 413.615 -2.04064 -0.370488 0
M  V30 4325 C 414.04 -1.13565 -1.49948 0
M  V30 4326 O 413.398 -0.130781 -1.80828 0
M  V30 4327 C 413.446 -3.50554 -0.845237 0
M  V30 4328 O 412.55 -3.63173 -1.95394 0
M  V30 4329 H 411.891 -0.659257 -0.0792243 0
M  V30 4330 H 414.421 -2.00903 0.387212 0
M  V30 4331 H 414.431 -3.91588 -1.14555 0
M  V30 4332 H 413.106 -4.15896 -0.0191259 0
M  V30 4333 H 411.683 -3.34039 -1.65748 0
M  V30 4334 N 413.868 0.0150385 -1.57593 0
M  V30 4335 C 414.778 1.02791 -2.10882 0
M  V30 4336 C 415.794 1.38702 -1.0506 0
M  V30 4337 O 416.97 1.47739 -1.36877 0
M  V30 4338 C 414.035 2.30568 -2.58919 0
M  V30 4339 C 413.096 2.01108 -3.79281 0
M  V30 4340 C 412.329 3.22794 -4.25018 0
M  V30 4341 O 412.552 4.33959 -3.70183 0
M  V30 4342 O 411.486 3.07672 -5.17322 0
M  V30 4343 H 415.312 0.604973 -2.97613 0
M  V30 4344 H 412.897 0.23292 -1.47573 0
M  V30 4345 H 414.779 3.05662 -2.90084 0
M  V30 4346 H 413.454 2.72129 -1.75293 0
M  V30 4347 H 412.361 1.23537 -3.53114 0
M  V30 4348 H 413.694 1.64394 -4.63935 0
M  V30 4349 N 415.346 1.54954 0.287554 0
M  V30 4350 C 416.294 1.87606 1.37502 0
M  V30 4351 C 417.288 0.751001 1.51843 0
M  V30 4352 O 418.494 0.935169 1.53801 0
M  V30 4353 H 414.869 0.595231 0.459569 0
M  V30 4354 H 416.84 2.78477 1.07206 0
M  V30 4355 C 415.589 2.15183 2.73115 0
M  V30 4356 H 414.912 3.01234 2.62866 0
M  V30 4357 H 416.352 2.4196 3.48183 0
M  V30 4358 C 414.811 0.954686 3.2309 0
M  V30 4359 O 415.341 0.181949 4.01288 0
M  V30 4360 N 413.547 0.756368 2.80584 0
M  V30 4361 H 413.094 1.38643 2.17108 0
M  V30 4362 H 413.052 -0.0430391 3.14371 0
M  V30 4363 N 416.824 -0.551391 1.4764 0
M  V30 4364 C 417.734 -1.68525 1.63207 0
M  V30 4365 C 418.75 -1.6621 0.514815 0
M  V30 4366 O 419.926 -1.85551 0.783113 0
M  V30 4367 C 416.991 -3.05025 1.64805 0
M  V30 4368 C 416.052 -3.18362 2.88 0
M  V30 4369 C 415.285 -4.4835 2.89513 0
M  V30 4370 O 415.508 -5.34163 2.00065 0
M  V30 4371 O 414.442 -4.65602 3.81443 0
M  V30 4372 H 418.268 -1.58333 2.59161 0
M  V30 4373 H 415.853 -0.722063 1.30792 0
M  V30 4374 H 417.735 -3.86245 1.68502 0
M  V30 4375 H 416.41 -3.15587 0.720197 0
M  V30 4376 H 415.317 -2.36518 2.89845 0
M  V30 4377 H 416.65 -3.12707 3.80099 0
M  V30 4378 N 418.302 -1.35869 -0.798587 0
M  V30 4379 C 419.713 -1.26498 -1.37314 0
M  V30 4380 C 420.064 0.0991899 -1.95949 0
M  V30 4381 O 419.189 1.0004 -1.91888 0
M  V30 4382 C 419.784 -2.29054 -2.49639 0
M  V30 4383 C 418.343 -2.234 -3.02935 0
M  V30 4384 C 417.49 -2.14329 -1.75949 0
M  V30 4385 H 420.441 -1.46881 -0.600971 0
M  V30 4386 H 420.462 -1.92166 -3.28409 0
M  V30 4387 H 419.974 -3.2833 -2.06933 0
M  V30 4388 H 418.075 -1.27562 -3.50084 0
M  V30 4389 H 418.188 -3.15703 -3.60372 0
M  V30 4390 H 416.552 -1.60435 -1.9782 0
M  V30 4391 H 417.335 -3.15477 -1.35384 0
M  V30 4392 N 419.78 1.02168 -1.19998 0
M  V30 4393 C 421.029 1.75091 -1.0013 0
M  V30 4394 C 421.342 1.89923 0.467835 0
M  V30 4395 O 422.548 2.59888 0.785515 0
M  V30 4396 C 421.004 3.14892 -1.74273 0
M  V30 4397 C 420.612 3.0809 -3.25245 0
M  V30 4398 C 422.356 3.9206 -1.62755 0
M  V30 4399 C 420.263 4.42867 -3.91948 0
M  V30 4400 H 419.193 0.656394 -0.37103 0
M  V30 4401 H 421.844 1.14284 -1.43567 0
M  V30 4402 H 420.226 3.7621 -1.2362 0
M  V30 4403 H 421.4 2.5611 -3.83072 0
M  V30 4404 H 419.715 2.44416 -3.3712 0
M  V30 4405 H 422.312 4.91764 -2.09934 0
M  V30 4406 H 422.655 4.12199 -0.582894 0
M  V30 4407 H 423.188 3.37359 -2.10793 0
M  V30 4408 H 419.927 4.27931 -4.96543 0
M  V30 4409 H 419.447 4.94874 -3.3891 0
M  V30 4410 H 421.126 5.11728 -3.95909 0
M  V30 4411 N 421.258 1.00505 1.21394 0
M  V30 4412 C 422.168 0.574806 2.27449 0
M  V30 4413 C 423.184 -0.382206 1.6975 0
M  V30 4414 O 424.36 -0.246027 1.99892 0
M  V30 4415 C 421.425 -0.0917414 3.46579 0
M  V30 4416 C 420.486 0.909758 4.1955 0
M  V30 4417 C 419.719 0.274924 5.32991 0
M  V30 4418 O 419.942 -0.928254 5.62796 0
M  V30 4419 O 418.876 0.985877 5.93771 0
M  V30 4420 H 422.702 1.45744 2.66444 0
M  V30 4421 H 420.287 0.773923 1.27792 0
M  V30 4422 H 422.169 -0.464551 4.18832 0
M  V30 4423 H 420.844 -0.948755 3.09484 0
M  V30 4424 H 419.751 1.33372 3.49518 0
M  V30 4425 H 421.084 1.73636 4.60555 0
M  V30 4426 N 422.737 -1.36956 0.779787 0
M  V30 4427 C 423.685 -2.32053 0.15942 0
M  V30 4428 C 424.679 -1.55333 -0.675878 0
M  V30 4429 O 425.885 -1.70668 -0.57204 0
M  V30 4430 H 422.26 -0.751286 0.0327707 0
M  V30 4431 H 424.231 -2.8195 0.977078 0
M  V30 4432 C 422.98 -3.40602 -0.698977 0
M  V30 4433 H 422.303 -3.99746 -0.0655966 0
M  V30 4434 H 423.743 -4.09486 -1.09989 0
M  V30 4435 C 422.202 -2.81359 -1.85307 0
M  V30 4436 O 422.732 -2.72751 -2.94906 0
M  V30 4437 N 420.938 -2.38786 -1.65619 0
M  V30 4438 H 420.485 -2.45987 -0.764725 0
M  V30 4439 H 420.443 -1.99493 -2.43002 0
M  V30 4440 N 424.215 -0.530993 -1.48385 0
M  V30 4441 C 425.125 0.23503 -2.3342 0
M  V30 4442 C 426.141 0.93801 -1.46552 0
M  V30 4443 O 427.317 0.912745 -1.7953 0
M  V30 4444 C 424.382 1.26778 -3.22689 0
M  V30 4445 C 423.443 0.575038 -4.25431 0
M  V30 4446 C 422.676 1.55858 -5.10435 0
M  V30 4447 O 422.899 2.79129 -4.97437 0
M  V30 4448 O 421.833 1.09742 -5.91811 0
M  V30 4449 H 425.659 -0.461794 -3.00169 0
M  V30 4450 H 423.244 -0.291903 -1.46521 0
M  V30 4451 H 425.126 1.86457 -3.77904 0
M  V30 4452 H 423.801 1.94699 -2.586 0
M  V30 4453 H 422.708 -0.0622782 -3.74048 0
M  V30 4454 H 424.041 -0.062253 -4.92161 0
M  V30 4455 N 425.693 1.55336 -0.266172 0
M  V30 4456 C 426.656 2.20878 0.612001 0
M  V30 4457 C 427.656 1.18388 1.08816 0
M  V30 4458 O 428.846 1.4335 0.989774 0
M  V30 4459 C 425.978 2.86765 1.84332 0
M  V30 4460 H 427.171 2.99873 0.0398718 0
M  V30 4461 H 424.724 1.56291 -0.0167309 0
M  V30 4462 H 425.459 2.11759 2.45619 0
M  V30 4463 H 425.244 3.61862 1.5099 0
M  V30 4464 H 426.734 3.36867 2.46801 0
M  V30 4465 N 427.171 -0.0066808 1.57599 0
M  V30 4466 C 428.134 -0.985035 2.06953 0
M  V30 4467 C 429.134 -1.27663 0.977687 0
M  V30 4468 O 430.324 -1.22293 1.24057 0
M  V30 4469 C 427.456 -2.3118 2.50536 0
M  V30 4470 H 428.649 -0.558255 2.94658 0
M  V30 4471 H 426.202 -0.254011 1.54222 0
M  V30 4472 H 426.937 -2.78561 1.66054 0
M  V30 4473 H 426.722 -2.11338 3.3027 0
M  V30 4474 H 428.212 -3.01377 2.8907 0
M  V30 4475 N 428.649 -1.55105 -0.279332 0
M  V30 4476 C 429.596 -1.8755 -1.34513 0
M  V30 4477 C 430.566 -0.726384 -1.49375 0
M  V30 4478 O 431.751 -0.977063 -1.63884 0
M  V30 4479 C 428.891 -2.14738 -2.70151 0
M  V30 4480 C 428.004 -3.42285 -2.63562 0
M  V30 4481 C 427.139 -3.59206 -3.91337 0
M  V30 4482 C 426.178 -4.80467 -3.79233 0
M  V30 4483 N 425.315 -4.94079 -4.98829 0
M  V30 4484 H 430.155 -2.78456 -1.06143 0
M  V30 4485 H 427.692 -1.37867 -0.512936 0
M  V30 4486 H 429.65 -2.28501 -3.49061 0
M  V30 4487 H 428.28 -1.27075 -2.96735 0
M  V30 4488 H 427.332 -3.37029 -1.76397 0
M  V30 4489 H 428.644 -4.31328 -2.50515 0
M  V30 4490 H 427.798 -3.72751 -4.78687 0
M  V30 4491 H 426.537 -2.68337 -4.07243 0
M  V30 4492 H 425.542 -4.66932 -2.90266 0
M  V30 4493 H 426.767 -5.72765 -3.64852 0
M  V30 4494 H 424.713 -4.06139 -5.15158 0
M  V30 4495 H 424.63 -5.77156 -4.8829 0
M  V30 4496 H 425.898 -5.12003 -5.8777 0
M  V30 4497 N 430.127 0.543554 -1.4793 0
M  V30 4498 C 431.357 1.32324 -1.58663 0
M  V30 4499 C 431.765 1.8766 -0.240896 0
M  V30 4500 O 431.108 1.66411 0.778011 0
M  V30 4501 C 431.17 2.52094 -2.56299 0
M  V30 4502 C 430.834 2.17944 -4.01683 0
M  V30 4503 C 431.831 1.74422 -4.89768 0
M  V30 4504 C 429.516 2.28884 -4.47121 0
M  V30 4505 C 431.51 1.42287 -6.21316 0
M  V30 4506 C 429.197 1.96361 -5.78693 0
M  V30 4507 C 430.195 1.53132 -6.65612 0
M  V30 4508 O 429.883 1.21029 -7.94737 0
M  V30 4509 H 429.615 0.409174 -0.538101 0
M  V30 4510 H 432.169 0.663887 -1.94375 0
M  V30 4511 H 430.399 3.20965 -2.15681 0
M  V30 4512 H 432.088 3.14165 -2.57012 0
M  V30 4513 H 432.854 1.65452 -4.55907 0
M  V30 4514 H 428.733 2.61488 -3.79664 0
M  V30 4515 H 432.277 1.08472 -6.89115 0
M  V30 4516 H 428.174 2.04967 -6.12094 0
M  V30 4517 H 428.942 1.34543 -8.07366 0
M  V30 4518 N 431.605 1.3629 0.791371 0
M  V30 4519 C 432.882 1.20962 1.53712 0
M  V30 4520 C 433.262 -0.205021 2.10102 0
M  V30 4521 O 432.61 -1.21042 1.93807 0
M  V30 4522 C 432.82 2.29002 2.63361 0
M  V30 4523 C 434.168 2.65572 3.31295 0
M  V30 4524 O 435.192 2.2803 2.73643 0
M  V30 4525 O 434.051 3.3018 4.35481 0
M  V30 4526 H 431.145 0.47086 0.679867 0
M  V30 4527 H 433.691 1.48016 0.830021 0
M  V30 4528 H 432.463 3.2382 2.19674 0
M  V30 4529 H 432.086 2.03303 3.41692 0
M  V30 4530 N 433.083 -1.0153 1.20538 0
M  V30 4531 C 434.013 -2.11972 0.979295 0
M  V30 4532 C 434.994 -1.6985 -0.0921787 0
M  V30 4533 O 436.179 -1.94089 0.0655932 0
M  V30 4534 C 433.309 -3.43201 0.531984 0
M  V30 4535 C 432.263 -3.9907 1.54685 0
M  V30 4536 C 431.589 -5.26082 0.956127 0
M  V30 4537 C 432.889 -4.32313 2.93092 0
M  V30 4538 H 434.583 -2.31143 1.90298 0
M  V30 4539 H 432.129 -1.11079 0.916372 0
M  V30 4540 H 434.082 -4.1985 0.361044 0
M  V30 4541 H 432.806 -3.23792 -0.427327 0
M  V30 4542 H 431.465 -3.2453 1.70517 0
M  V30 4543 H 431.113 -5.02999 -0.0111538 0
M  V30 4544 H 430.813 -5.64426 1.63393 0
M  V30 4545 H 432.337 -6.05386 0.796284 0
M  V30 4546 H 433.751 -4.99845 2.80763 0
M  V30 4547 H 432.148 -4.81774 3.57791 0
M  V30 4548 H 433.218 -3.41025 3.44717 0
M  V30 4549 N 434.561 -1.01147 -1.20859 0
M  V30 4550 C 435.508 -0.577354 -2.23462 0
M  V30 4551 C 436.478 0.399922 -1.61214 0
M  V30 4552 O 437.663 0.300515 -1.88419 0
M  V30 4553 C 434.803 0.083372 -3.44999 0
M  V30 4554 C 433.916 -0.937856 -4.21697 0
M  V30 4555 C 433.051 -0.248717 -5.30617 0
M  V30 4556 C 432.09 -1.25705 -5.99053 0
M  V30 4557 N 431.227 -0.594939 -6.99575 0
M  V30 4558 H 436.067 -1.45695 -2.59956 0
M  V30 4559 H 433.604 -0.729428 -1.27741 0
M  V30 4560 H 435.562 0.483535 -4.14388 0
M  V30 4561 H 434.192 0.926645 -3.09214 0
M  V30 4562 H 433.244 -1.45622 -3.51423 0
M  V30 4563 H 434.556 -1.70493 -4.68757 0
M  V30 4564 H 433.71 0.207215 -6.06346 0
M  V30 4565 H 432.449 0.55071 -4.84581 0
M  V30 4566 H 431.454 -1.72343 -5.2209 0
M  V30 4567 H 432.679 -2.05767 -6.47176 0
M  V30 4568 H 430.625 0.184713 -6.5574 0
M  V30 4569 H 430.542 -1.30017 -7.44736 0
M  V30 4570 H 431.81 -0.162427 -7.79331 0
M  V30 4571 N 436.039 1.36541 -0.78704 0
M  V30 4572 C 437.269 2.03266 -0.369662 0
M  V30 4573 C 437.677 1.59481 1.01796 0
M  V30 4574 O 437.02 0.778612 1.66383 0
M  V30 4575 C 437.082 3.57779 -0.351371 0
M  V30 4576 C 436.746 4.24756 -1.68617 0
M  V30 4577 C 437.743 4.47811 -2.64124 0
M  V30 4578 C 435.428 4.62277 -1.96481 0
M  V30 4579 C 437.422 5.07464 -3.85693 0
M  V30 4580 C 435.109 5.21649 -3.18317 0
M  V30 4581 C 436.107 5.44182 -4.12741 0
M  V30 4582 O 435.795 6.02307 -5.32429 0
M  V30 4583 H 435.527 0.658977 -0.150751 0
M  V30 4584 H 438.081 1.75548 -1.0664 0
M  V30 4585 H 436.311 3.84606 0.401847 0
M  V30 4586 H 438 4.05879 0.0410147 0
M  V30 4587 H 438.766 4.19221 -2.43883 0
M  V30 4588 H 434.645 4.44065 -1.23805 0
M  V30 4589 H 438.189 5.24968 -4.59407 0
M  V30 4590 H 434.086 5.49664 -3.38437 0
M  V30 4591 H 434.854 6.20775 -5.33461 0
M  V30 4592 N 437.518 0.538854 1.48102 0
M  V30 4593 C 438.767 0.0059532 2.01699 0
M  V30 4594 C 439.08 -1.34476 1.42041 0
M  V30 4595 O 440.286 -1.96653 1.87189 0
M  V30 4596 C 438.742 -0.0397627 3.59878 0
M  V30 4597 C 438.35 1.30659 4.28523 0
M  V30 4598 C 440.094 -0.521024 4.2129 0
M  V30 4599 C 438.001 1.22098 5.78659 0
M  V30 4600 H 436.931 -0.00154456 0.753998 0
M  V30 4601 H 439.582 0.683963 1.70277 0
M  V30 4602 H 437.964 -0.783037 3.88181 0
M  V30 4603 H 439.138 2.06613 4.11883 0
M  V30 4604 H 437.453 1.7243 3.79021 0
M  V30 4605 H 440.05 -0.603184 5.31287 0
M  V30 4606 H 440.393 -1.52885 3.8721 0
M  V30 4607 H 440.926 0.166834 3.9745 0
M  V30 4608 H 437.665 2.20424 6.17328 0
M  V30 4609 H 437.185 0.50295 5.97688 0
M  V30 4610 H 438.864 0.915345 6.40492 0
M  V30 4611 N 438.996 -1.55193 0.274407 0
M  V30 4612 C 440.244 -1.99187 -0.341902 0
M  V30 4613 C 440.565 -1.16422 -1.56431 0
M  V30 4614 O 439.835 -0.253573 -1.94252 0
M  V30 4615 H 438.415 -0.735721 -0.129317 0
M  V30 4616 H 441.077 -1.91168 0.379578 0
M  V30 4617 H 440.173 -3.05629 -0.632253 0
M  V30 4618 N 440.474 -0.00167713 -1.576 0
M  V30 4619 C 441.404 0.988091 -2.11563 0
M  V30 4620 C 442.385 1.35736 -1.02517 0
M  V30 4621 O 443.57 1.44082 -1.30208 0
M  V30 4622 C 440.7 2.27941 -2.62031 0
M  V30 4623 C 439.654 2.0517 -3.75619 0
M  V30 4624 C 438.98 3.4033 -4.12407 0
M  V30 4625 C 440.28 1.41294 -5.02825 0
M  V30 4626 H 441.974 0.538771 -2.94513 0
M  V30 4627 H 439.52 0.257712 -1.41675 0
M  V30 4628 H 441.473 2.97539 -2.9841 0
M  V30 4629 H 440.197 2.74989 -1.76205 0
M  V30 4630 H 438.856 1.37998 -3.39635 0
M  V30 4631 H 438.504 3.85085 -3.23603 0
M  V30 4632 H 438.204 3.25909 -4.88935 0
M  V30 4633 H 439.728 4.1124 -4.51347 0
M  V30 4634 H 441.142 2.00851 -5.36965 0
M  V30 4635 H 439.539 1.37356 -5.84169 0
M  V30 4636 H 440.609 0.382362 -4.8339 0
M  V30 4637 N 441.952 1.55251 0.271103 0
M  V30 4638 C 443.229 1.66664 1.02384 0
M  V30 4639 C 443.609 0.534363 2.04225 0
M  V30 4640 O 442.957 -0.465337 2.23712 0
M  V30 4641 C 443.167 3.05961 1.67895 0
M  V30 4642 C 444.515 3.63772 2.18986 0
M  V30 4643 O 445.539 3.08606 1.77878 0
M  V30 4644 O 444.398 4.60429 2.94393 0
M  V30 4645 H 441.492 0.676957 0.475035 0
M  V30 4646 H 444.038 1.67589 0.26681 0
M  V30 4647 H 442.81 3.79815 0.941071 0
M  V30 4648 H 442.433 3.08943 2.5028 0
M  V30 4649 N 443.43 -0.535701 1.48216 0
M  V30 4650 C 444.678 -1.28928 1.55634 0
M  V30 4651 C 444.999 -1.93645 0.229514 0
M  V30 4652 O 444.269 -1.81038 -0.74846 0
M  V30 4653 H 442.849 -0.47884 0.573342 0
M  V30 4654 H 445.511 -0.623853 1.84646 0
M  V30 4655 H 444.607 -2.07157 2.33436 0
M  V30 4656 N 444.908 -1.36708 -0.784132 0
M  V30 4657 C 445.856 -1.31533 -1.91838 0
M  V30 4658 C 446.85 -0.206205 -1.6814 0
M  V30 4659 O 448.056 -0.373519 -1.76082 0
M  V30 4660 H 444.431 -0.409613 -0.630651 0
M  V30 4661 H 446.402 -2.2731 -1.9332 0
M  V30 4662 C 445.151 -1.12679 -3.28936 0
M  V30 4663 H 444.474 -1.97274 -3.4774 0
M  V30 4664 H 445.914 -1.13106 -4.08636 0
M  V30 4665 C 444.373 0.168281 -3.36479 0
M  V30 4666 O 444.903 1.15625 -3.84699 0
M  V30 4667 N 443.109 0.214762 -2.89805 0
M  V30 4668 H 442.656 -0.589852 -2.50756 0
M  V30 4669 H 442.614 1.08094 -2.95234 0
M  V30 4670 N 446.386 1.0089 -1.21074 0
M  V30 4671 C 447.635 1.74019 -1.01981 0
M  V30 4672 C 447.948 1.90408 0.447665 0
M  V30 4673 O 449.154 2.60707 0.757906 0
M  V30 4674 C 447.61 3.13026 -1.77603 0
M  V30 4675 C 447.218 3.04623 -3.28495 0
M  V30 4676 C 448.962 3.90312 -1.66904 0
M  V30 4677 C 446.869 4.38685 -3.96623 0
M  V30 4678 H 445.799 0.652422 -0.377971 0
M  V30 4679 H 448.45 1.12755 -1.44771 0
M  V30 4680 H 446.832 3.74878 -1.27604 0
M  V30 4681 H 448.006 2.52032 -3.85767 0
M  V30 4682 H 446.321 2.40827 -3.39693 0
M  V30 4683 H 448.918 4.8951 -2.15138 0
M  V30 4684 H 449.261 4.11558 -0.62658 0
M  V30 4685 H 449.794 3.35104 -2.14359 0
M  V30 4686 H 446.533 4.22641 -5.01054 0
M  V30 4687 H 446.053 4.91252 -3.4414 0
M  V30 4688 H 447.732 5.075 -4.01314 0
M  V30 4689 N 447.864 1.01787 1.20321 0
M  V30 4690 C 448.827 0.593972 2.2137 0
M  V30 4691 C 449.827 -0.336553 1.57239 0
M  V30 4692 O 451.017 -0.125069 1.7375 0
M  V30 4693 C 448.149 -0.132433 3.40643 0
M  V30 4694 H 449.342 1.48791 2.60387 0
M  V30 4695 H 446.895 0.807803 1.33807 0
M  V30 4696 H 447.63 -1.04123 3.0713 0
M  V30 4697 H 447.415 0.53605 3.88418 0
M  V30 4698 H 448.905 -0.416314 4.1552 0
M  V30 4699 N 449.342 -1.36122 0.79427 0
M  V30 4700 C 450.582 -2.00942 0.374376 0
M  V30 4701 C 450.946 -1.61666 -1.03577 0
M  V30 4702 O 452.147 -2.19113 -1.55701 0
M  V30 4703 C 450.418 -3.53323 0.538327 0
M  V30 4704 S 451.977 -4.38311 0.20703 0
M  V30 4705 H 448.795 -0.696515 0.142785 0
M  V30 4706 H 451.397 -1.65929 1.03382 0
M  V30 4707 H 450.101 -3.79395 1.56484 0
M  V30 4708 H 449.632 -3.93162 -0.136882 0
M  V30 4709 H 451.647 -4.8623 -0.989695 0
M  V30 4710 N 450.82 -0.546701 -1.47814 0
M  V30 4711 C 452.067 -0.0187407 -2.02491 0
M  V30 4712 C 452.395 1.32685 -1.42215 0
M  V30 4713 O 451.65 1.87413 -0.563454 0
M  V30 4714 C 451.949 0.134869 -3.57145 0
M  V30 4715 C 451.615 -1.13849 -4.3629 0
M  V30 4716 C 450.277 -1.48743 -4.57634 0
M  V30 4717 C 452.629 -1.98277 -4.82012 0
M  V30 4718 C 449.957 -2.67932 -5.21948 0
M  V30 4719 C 452.309 -3.16659 -5.4764 0
M  V30 4720 C 450.973 -3.51879 -5.67219 0
M  V30 4721 H 450.243 -0.0068577 -0.740968 0
M  V30 4722 H 452.89 -0.716097 -1.77607 0
M  V30 4723 H 451.195 0.915118 -3.80963 0
M  V30 4724 H 452.892 0.558556 -3.97091 0
M  V30 4725 H 449.482 -0.856767 -4.19949 0
M  V30 4726 H 453.666 -1.72628 -4.6531 0
M  V30 4727 H 448.922 -2.95401 -5.35302 0
M  V30 4728 H 453.096 -3.82374 -5.82033 0
M  V30 4729 H 450.723 -4.44331 -6.16825 0
M  V30 4730 N 452.299 1.55045 -0.282633 0
M  V30 4731 C 453.545 2.00056 0.332481 0
M  V30 4732 C 453.878 1.1708 1.54939 0
M  V30 4733 O 453.153 0.2427 1.9298 0
M  V30 4734 C 453.436 3.53086 0.70725 0
M  V30 4735 C 453.289 4.46813 -0.517521 0
M  V30 4736 C 454.608 4.12245 1.54084 0
M  V30 4737 H 451.727 0.727268 0.119373 0
M  V30 4738 H 454.369 1.85932 -0.391076 0
M  V30 4739 H 452.519 3.65253 1.32372 0
M  V30 4740 H 454.191 4.46579 -1.15607 0
M  V30 4741 H 452.434 4.18163 -1.1542 0
M  V30 4742 H 453.105 5.51595 -0.211426 0
M  V30 4743 H 455.581 4.03401 1.02013 0
M  V30 4744 H 454.457 5.19515 1.77186 0
M  V30 4745 H 454.718 3.62951 2.52427 0
M  V30 4746 N 453.777 0.010035 1.57597 0
M  V30 4747 C 454.725 -0.996272 2.10184 0
M  V30 4748 C 455.719 -1.34942 1.02406 0
M  V30 4749 O 456.925 -1.33389 1.20861 0
M  V30 4750 H 453.3 -0.338982 0.671264 0
M  V30 4751 H 455.271 -0.527272 2.93705 0
M  V30 4752 C 454.02 -2.27599 2.62857 0
M  V30 4753 H 453.343 -2.01295 3.45428 0
M  V30 4754 H 454.783 -2.96265 3.0332 0
M  V30 4755 C 453.242 -2.99269 1.54725 0
M  V30 4756 O 453.772 -3.90644 0.93597 0
M  V30 4757 N 451.978 -2.61269 1.27228 0
M  V30 4758 H 451.525 -1.87043 1.77123 0
M  V30 4759 H 451.483 -3.09534 0.550999 0
M  V30 4760 N 455.255 -1.55392 -0.262866 0
M  V30 4761 C 456.503 -1.76127 -0.991147 0
M  V30 4762 C 456.824 -0.571083 -1.8645 0
M  V30 4763 O 456.094 0.413698 -1.91482 0
M  V30 4764 H 454.674 -0.649528 -0.368948 0
M  V30 4765 H 457.336 -1.9281 -0.284655 0
M  V30 4766 H 456.432 -2.6663 -1.62219 0
M  V30 4767 N 456.733 0.527833 -1.48498 0
M  V30 4768 C 457.696 1.61439 -1.62696 0
M  V30 4769 C 458.696 1.52824 -0.500136 0
M  V30 4770 O 459.886 1.56456 -0.765976 0
M  V30 4771 C 457.018 3.01063 -1.59918 0
M  V30 4772 H 458.211 1.50189 -2.59583 0
M  V30 4773 H 455.764 0.750055 -1.37127 0
M  V30 4774 H 456.499 3.17818 -0.645163 0
M  V30 4775 H 456.284 3.08725 -2.41726 0
M  V30 4776 H 457.774 3.80057 -1.73051 0
M  V30 4777 N 458.211 1.37122 0.776871 0
M  V30 4778 C 459.459 1.31787 1.53221 0
M  V30 4779 C 459.78 -0.0987589 1.9475 0
M  V30 4780 O 459.05 -1.0417 1.65908 0
M  V30 4781 H 457.63 0.484839 0.568278 0
M  V30 4782 H 460.292 1.71556 0.924917 0
M  V30 4783 H 459.388 1.95355 2.43398 0
M  V30 4784 N 459.689 -1.00246 1.21608 0
M  V30 4785 C 460.619 -2.10921 1.00172 0
M  V30 4786 C 461.6 -1.69938 -0.0741587 0
M  V30 4787 O 462.785 -1.94009 0.0861753 0
M  V30 4788 C 459.915 -3.42618 0.568355 0
M  V30 4789 C 458.869 -3.97407 1.58909 0
M  V30 4790 C 458.195 -5.25038 1.01187 0
M  V30 4791 C 459.495 -4.2918 2.97661 0
M  V30 4792 H 461.189 -2.29112 1.92739 0
M  V30 4793 H 458.735 -1.10101 0.928102 0
M  V30 4794 H 460.688 -4.19444 0.405555 0
M  V30 4795 H 459.412 -3.24227 -0.392961 0
M  V30 4796 H 458.071 -3.22703 1.73949 0
M  V30 4797 H 457.719 -5.02982 0.0421965 0
M  V30 4798 H 457.419 -5.62661 1.6937 0
M  V30 4799 H 458.943 -6.04507 0.860448 0
M  V30 4800 H 460.357 -4.96839 2.86049 0
M  V30 4801 H 458.754 -4.77952 3.6288 0
M  V30 4802 H 459.824 -3.3735 3.48315 0
M  V30 4803 N 461.167 -1.02423 -1.1978 0
M  V30 4804 C 462.13 -0.605703 -2.21052 0
M  V30 4805 C 463.13 0.328209 -1.57415 0
M  V30 4806 O 464.32 0.115853 -1.73814 0
M  V30 4807 C 461.452 0.114366 -3.40708 0
M  V30 4808 H 462.645 -1.5017 -2.59594 0
M  V30 4809 H 460.198 -0.814888 -1.33376 0
M  V30 4810 H 460.933 1.02492 -3.07678 0
M  V30 4811 H 460.718 -0.556641 -3.88129 0
M  V30 4812 H 462.208 0.394272 -4.15735 0
M  V30 4813 N 462.645 1.35699 -0.801477 0
M  V30 4814 C 463.578 2.2768 -0.153922 0
M  V30 4815 C 464.556 1.47832 0.67709 0
M  V30 4816 O 465.74 1.77104 0.645474 0
M  V30 4817 C 462.867 3.2943 0.786986 0
M  V30 4818 C 461.913 4.26485 0.0362447 0
M  V30 4819 S 462.746 5.19573 -1.2963 0
M  V30 4820 C 463.902 6.24866 -0.359705 0
M  V30 4821 H 464.135 2.82254 -0.9338 0
M  V30 4822 H 461.668 1.42421 -0.596283 0
M  V30 4823 H 463.626 3.8855 1.32436 0
M  V30 4824 H 462.287 2.73745 1.54021 0
M  V30 4825 H 461.48 4.98378 0.750668 0
M  V30 4826 H 461.082 3.71508 -0.431017 0
M  V30 4827 H 463.374 6.75957 0.456954 0
M  V30 4828 H 464.317 7.00307 -1.04768 0
M  V30 4829 H 464.725 5.64484 0.0423274 0
M  V30 4830 N 464.123 0.554532 1.47522 0
M  V30 4831 C 465.086 -0.184174 2.28459 0
M  V30 4832 C 466.086 -0.845195 1.36796 0
M  V30 4833 O 467.276 -0.701467 1.59452 0
M  V30 4834 C 464.408 -1.26903 3.16399 0
M  V30 4835 H 465.601 0.526751 2.95238 0
M  V30 4836 H 463.154 0.311375 1.53167 0
M  V30 4837 H 463.889 -2.01244 2.54306 0
M  V30 4838 H 463.674 -0.799883 3.83854 0
M  V30 4839 H 465.164 -1.78794 3.77389 0
M  V30 4840 N 465.601 -1.54893 0.290851 0
M  V30 4841 C 466.829 -2.04343 -0.324288 0
M  V30 4842 C 467.244 -1.16859 -1.48289 0
M  V30 4843 O 466.601 -0.192018 -1.81487 0
M  V30 4844 C 466.652 -3.52756 -0.79026 0
M  V30 4845 O 466.373 -4.36913 0.322213 0
M  V30 4846 C 467.874 -4.18161 -1.4716 0
M  V30 4847 H 465.094 -0.667135 -0.0719173 0
M  V30 4848 H 467.638 -1.99981 0.427529 0
M  V30 4849 H 465.793 -3.57511 -1.49213 0
M  V30 4850 H 466.207 -5.24486 -0.0387372 0
M  V30 4851 H 467.681 -5.23562 -1.7489 0
M  V30 4852 H 468.158 -3.67282 -2.40834 0
M  V30 4853 H 468.764 -4.17454 -0.813178 0
M  V30 4854 N 467.08 -0.0183926 -1.57589 0
M  V30 4855 C 468.32 0.666846 -1.93216 0
M  V30 4856 C 468.684 1.69905 -0.894215 0
M  V30 4857 O 469.885 2.436 -1.13633 0
M  V30 4858 C 468.156 1.27684 -3.33814 0
M  V30 4859 S 469.715 1.98464 -3.91353 0
M  V30 4860 H 466.533 0.219826 -0.676164 0
M  V30 4861 H 469.135 -0.0794893 -1.95338 0
M  V30 4862 H 467.839 0.513006 -4.07181 0
M  V30 4863 H 467.37 2.06071 -3.3511 0
M  V30 4864 H 469.385 3.26189 -3.73918 0
M  V30 4865 N 468.558 1.5553 0.254621 0
M  V30 4866 C 469.835 1.6774 1.00611 0
M  V30 4867 C 470.215 0.555993 2.03647 0
M  V30 4868 O 469.563 -0.441583 2.24193 0
M  V30 4869 C 469.773 3.07725 1.6464 0
M  V30 4870 C 471.121 3.66074 2.15116 0
M  V30 4871 O 472.145 3.10476 1.74595 0
M  V30 4872 O 471.004 4.63526 2.89493 0
M  V30 4873 H 468.098 0.681958 0.467828 0
M  V30 4874 H 470.644 1.67863 0.24902 0
M  V30 4875 H 469.416 3.80792 0.900734 0
M  V30 4876 H 469.039 3.1158 2.46989 0
M  V30 4877 N 470.036 -0.519951 1.48776 0
M  V30 4878 C 471.285 -1.27175 1.56555 0
M  V30 4879 C 471.598 -1.9401 0.248869 0
M  V30 4880 O 472.804 -2.70725 0.205004 0
M  V30 4881 C 471.26 -2.30811 2.76142 0
M  V30 4882 C 470.868 -1.7 4.14493 0
M  V30 4883 C 472.612 -3.06937 2.9324 0
M  V30 4884 C 470.519 -2.71635 5.25327 0
M  V30 4885 H 469.449 -0.478329 0.582853 0
M  V30 4886 H 472.1 -0.547916 1.75129 0
M  V30 4887 H 470.482 -3.06274 2.51023 0
M  V30 4888 H 471.656 -1.00658 4.49672 0
M  V30 4889 H 469.971 -1.06331 4.02595 0
M  V30 4890 H 472.568 -3.82905 3.73213 0
M  V30 4891 H 472.911 -3.63409 2.03075 0
M  V30 4892 H 473.444 -2.38589 3.18308 0
M  V30 4893 H 470.183 -2.1997 6.1749 0
M  V30 4894 H 469.703 -3.39275 4.94624 0
M  V30 4895 H 471.382 -3.34429 5.53865 0
M  V30 4896 N 471.514 -1.37532 -0.769588 0
M  V30 4897 C 472.763 -1.32183 -1.5235 0
M  V30 4898 C 473.076 0.0906555 -1.9539 0
M  V30 4899 O 474.282 0.266628 -2.70188 0
M  V30 4900 C 472.738 -2.32029 -2.75119 0
M  V30 4901 C 472.346 -3.78816 -2.3917 0
M  V30 4902 C 474.09 -2.35694 -3.53056 0
M  V30 4903 C 471.997 -4.70388 -3.58453 0
M  V30 4904 H 470.927 -0.491275 -0.571984 0
M  V30 4905 H 473.578 -1.63004 -0.842739 0
M  V30 4906 H 471.96 -1.94229 -3.45096 0
M  V30 4907 H 473.134 -4.25466 -1.76962 0
M  V30 4908 H 471.449 -3.78117 -1.74402 0
M  V30 4909 H 474.046 -3.01312 -4.41718 0
M  V30 4910 H 474.389 -1.37117 -3.93071 0
M  V30 4911 H 474.922 -2.72212 -2.90078 0
M  V30 4912 H 471.661 -5.70102 -3.23518 0
M  V30 4913 H 471.181 -4.28442 -4.19758 0
M  V30 4914 H 472.86 -4.87628 -4.25239 0
M  V30 4915 N 472.992 0.995999 -1.22138 0
M  V30 4916 C 474.239 1.7351 -1.04406 0
M  V30 4917 C 474.567 1.89884 0.421244 0
M  V30 4918 O 473.822 1.43683 1.32867 0
M  V30 4919 C 474.121 3.14553 -1.6968 0
M  V30 4920 C 473.787 3.18102 -3.19565 0
M  V30 4921 C 472.449 3.18778 -3.60464 0
M  V30 4922 C 474.801 3.14636 -4.15516 0
M  V30 4923 C 472.129 3.13684 -4.95801 0
M  V30 4924 C 474.481 3.11084 -5.50826 0
M  V30 4925 C 473.145 3.10074 -5.91109 0
M  V30 4926 H 472.415 0.634916 -0.38205 0
M  V30 4927 H 475.062 1.1667 -1.51857 0
M  V30 4928 H 473.367 3.74682 -1.14546 0
M  V30 4929 H 475.064 3.70477 -1.53454 0
M  V30 4930 H 471.654 3.18324 -2.86998 0
M  V30 4931 H 475.838 3.13266 -3.84939 0
M  V30 4932 H 471.094 3.11245 -5.26247 0
M  V30 4933 H 475.268 3.07357 -6.24904 0
M  V30 4934 H 472.895 3.05882 -6.95946 0
M  V30 4935 N 474.47 1.03057 1.19235 0
M  V30 4936 C 475.4 0.633497 2.24742 0
M  V30 4937 C 476.381 -0.358335 1.66283 0
M  V30 4938 O 477.566 -0.240676 1.92703 0
M  V30 4939 C 474.696 -0.0147648 3.47297 0
M  V30 4940 C 473.65 0.899527 4.18441 0
M  V30 4941 C 472.976 0.116281 5.34574 0
M  V30 4942 C 474.276 2.21404 4.73051 0
M  V30 4943 H 475.97 1.5155 2.58211 0
M  V30 4944 H 473.516 0.73014 1.24117 0
M  V30 4945 H 475.469 -0.304202 4.20301 0
M  V30 4946 H 474.193 -0.931577 3.13032 0
M  V30 4947 H 472.852 1.17319 3.47321 0
M  V30 4948 H 472.5 -0.802619 4.96555 0
M  V30 4949 H 472.2 0.725293 5.83107 0
M  V30 4950 H 473.724 -0.166376 6.10373 0
M  V30 4951 H 475.138 1.98601 5.37802 0
M  V30 4952 H 473.535 2.77512 5.32078 0
M  V30 4953 H 474.605 2.86752 3.91026 0
M  V30 4954 N 475.948 -1.35272 0.808662 0
M  V30 4955 C 476.896 -2.31663 0.208606 0
M  V30 4956 C 477.89 -1.56731 -0.642778 0
M  V30 4957 O 479.096 -1.71843 -0.53571 0
M  V30 4958 H 475.471 -0.750421 0.0486993 0
M  V30 4959 H 477.442 -2.79814 1.03666 0
M  V30 4960 C 476.191 -3.42008 -0.626573 0
M  V30 4961 H 475.514 -3.99795 0.0192103 0
M  V30 4962 H 476.954 -4.11727 -1.01278 0
M  V30 4963 C 475.413 -2.85226 -1.79298 0
M  V30 4964 O 475.943 -2.78945 -2.89055 0
M  V30 4965 N 474.149 -2.42245 -1.60516 0
M  V30 4966 H 473.696 -2.47554 -0.712375 0
M  V30 4967 H 473.654 -2.04603 -2.38715 0
M  V30 4968 N 477.426 -0.562348 -1.47226 0
M  V30 4969 C 478.674 -0.0401371 -2.0206 0
M  V30 4970 C 478.995 1.3165 -1.43852 0
M  V30 4971 O 478.265 1.85976 -0.615599 0
M  V30 4972 H 476.845 -0.0118479 -0.746906 0
M  V30 4973 H 479.507 -0.73352 -1.8057 0
M  V30 4974 H 478.603 0.0441254 -3.12069 0
M  V30 4975 N 478.904 1.54736 -0.299062 0
M  V30 4976 C 480.152 1.99706 0.31017 0
M  V30 4977 C 480.473 1.18896 1.54559 0
M  V30 4978 O 479.743 0.284445 1.93824 0
M  V30 4979 H 478.323 0.737686 0.117596 0
M  V30 4980 H 480.985 1.9054 -0.409943 0
M  V30 4981 H 480.081 3.06596 0.58355 0
M  V30 4982 N 480.382 0.0267497 1.57577 0
M  V30 4983 C 481.329 -0.955894 2.10075 0
M  V30 4984 C 482.299 -1.32453 1.00226 0
M  V30 4985 O 483.484 -1.41826 1.27632 0
M  V30 4986 C 480.624 -2.2338 2.6305 0
M  V30 4987 C 479.737 -1.92183 3.86898 0
M  V30 4988 C 478.872 -3.14251 4.28275 0
M  V30 4989 C 477.911 -2.78862 5.44888 0
M  V30 4990 N 477.048 -3.93548 5.81433 0
M  V30 4991 H 481.888 -0.501303 2.93753 0
M  V30 4992 H 479.425 -0.235847 1.45197 0
M  V30 4993 H 481.383 -2.98124 2.91853 0
M  V30 4994 H 480.013 -2.6646 1.82205 0
M  V30 4995 H 479.065 -1.07692 3.64838 0
M  V30 4996 H 480.377 -1.62117 4.7172 0
M  V30 4997 H 479.531 -3.97317 4.58502 0
M  V30 4998 H 478.27 -3.47476 3.42215 0
M  V30 4999 H 477.275 -1.94208 5.14357 0
M  V30 5000 H 478.5 -2.46855 6.32645 0
M  V30 5001 H 476.446 -4.2662 4.98328 0
M  V30 5002 H 476.363 -3.67098 6.6089 0
M  V30 5003 H 477.631 -4.77325 6.16264 0
M  V30 5004 N 481.861 -1.55662 -0.24637 0
M  V30 5005 C 483.272 -1.67953 -0.81539 0
M  V30 5006 C 483.623 -0.624302 -1.86002 0
M  V30 5007 O 482.748 0.229328 -2.15181 0
M  V30 5008 C 483.343 -3.04484 -1.48576 0
M  V30 5009 C 481.902 -3.18713 -2.00248 0
M  V30 5010 C 481.049 -2.6383 -0.853766 0
M  V30 5011 H 484 -1.58685 -0.0221692 0
M  V30 5012 H 484.021 -2.98959 -2.3538 0
M  V30 5013 H 483.533 -3.81264 -0.725222 0
M  V30 5014 H 481.634 -2.46757 -2.79181 0
M  V30 5015 H 481.747 -4.25628 -2.1995 0
M  V30 5016 H 480.111 -2.21667 -1.25442 0
M  V30 5017 H 480.894 -3.43135 -0.106302 0
M  V30 5018 N 483.339 0.512053 -1.4905 0
M  V30 5019 C 484.302 1.59704 -1.64399 0
M  V30 5020 C 485.302 1.52285 -0.516317 0
M  V30 5021 O 486.492 1.55635 -0.782527 0
M  V30 5022 C 483.624 2.9935 -1.63102 0
M  V30 5023 H 484.817 1.47428 -2.61161 0
M  V30 5024 H 482.37 0.735469 -1.37915 0
M  V30 5025 H 483.105 3.17116 -0.678836 0
M  V30 5026 H 482.89 3.06144 -2.44986 0
M  V30 5027 H 484.38 3.782 -1.77072 0
M  V30 5028 N 484.817 1.37938 0.762283 0
M  V30 5029 C 485.765 1.34569 1.89721 0
M  V30 5030 C 486.759 0.232929 1.67791 0
M  V30 5031 O 487.965 0.401485 1.75465 0
M  V30 5032 H 484.34 0.419594 0.624055 0
M  V30 5033 H 486.311 2.30357 1.8968 0
M  V30 5034 C 485.06 1.17898 3.27101 0
M  V30 5035 H 484.383 2.02781 3.44558 0
M  V30 5036 H 485.823 1.19593 4.06784 0
M  V30 5037 C 484.282 -0.114728 3.36705 0
M  V30 5038 O 484.812 -1.0949 3.8649 0
M  V30 5039 N 483.018 -0.16863 2.9011 0
M  V30 5040 H 482.565 0.62967 2.49786 0
M  V30 5041 H 482.523 -1.03383 2.96916 0
M  V30 5042 N 486.295 -0.989507 1.22664 0
M  V30 5043 C 487.542 -1.72953 1.05325 0
M  V30 5044 C 487.87 -1.90104 -0.411168 0
M  V30 5045 O 487.125 -1.44386 -1.32103 0
M  V30 5046 C 487.424 -3.13649 1.71345 0
M  V30 5047 C 487.09 -3.16403 3.21248 0
M  V30 5048 C 485.752 -3.16862 3.62149 0
M  V30 5049 C 488.104 -3.12428 4.17179 0
M  V30 5050 C 485.432 -3.11051 4.97458 0
M  V30 5051 C 487.784 -3.08159 5.52468 0
M  V30 5052 C 486.448 -3.06935 5.92746 0
M  V30 5053 H 485.718 -0.632881 0.385412 0
M  V30 5054 H 488.365 -1.15863 1.52473 0
M  V30 5055 H 486.67 -3.74069 1.16532 0
M  V30 5056 H 488.367 -3.69658 1.55416 0
M  V30 5057 H 484.957 -3.16798 2.88682 0
M  V30 5058 H 489.141 -3.11221 3.86595 0
M  V30 5059 H 484.397 -3.0845 5.27891 0
M  V30 5060 H 488.571 -3.04039 6.26525 0
M  V30 5061 H 486.198 -3.02186 6.97558 0
M  V30 5062 N 487.773 -1.03688 -1.18687 0
M  V30 5063 C 488.703 -0.645407 -2.24403 0
M  V30 5064 C 489.684 0.349511 -1.66471 0
M  V30 5065 O 490.869 0.230453 -1.92828 0
M  V30 5066 C 487.999 -0.00365337 -3.473 0
M  V30 5067 C 486.953 -0.921705 -4.17958 0
M  V30 5068 C 486.279 -0.144629 -5.34504 0
M  V30 5069 C 487.579 -2.23909 -4.71871 0
M  V30 5070 H 489.273 -1.52917 -2.57404 0
M  V30 5071 H 486.819 -0.736711 -1.23728 0
M  V30 5072 H 488.772 0.281908 -4.20456 0
M  V30 5073 H 487.496 0.914963 -3.13522 0
M  V30 5074 H 486.155 -1.19159 -3.46694 0
M  V30 5075 H 485.803 0.776274 -4.96974 0
M  V30 5076 H 485.503 -0.756206 -5.82714 0
M  V30 5077 H 487.027 0.134004 -6.10453 0
M  V30 5078 H 488.441 -2.0145 -5.36741 0
M  V30 5079 H 486.838 -2.8033 -5.30599 0
M  V30 5080 H 487.908 -2.88822 -3.895 0
M  V30 5081 N 489.251 1.34841 -0.815825 0
M  V30 5082 C 490.528 1.92908 -0.323416 0
M  V30 5083 C 490.908 1.74479 1.18828 0
M  V30 5084 O 490.256 1.11928 1.99209 0
M  V30 5085 C 490.466 3.40957 -0.744952 0
M  V30 5086 C 491.814 4.18107 -0.739716 0
M  V30 5087 O 492.838 3.49511 -0.68708 0
M  V30 5088 O 491.697 5.40517 -0.806456 0
M  V30 5089 H 488.791 0.822436 -0.0867646 0
M  V30 5090 H 491.337 1.4386 -0.90014 0
M  V30 5091 H 490.109 3.4814 -1.78646 0
M  V30 5092 H 489.732 3.97341 -0.143535 0
M  V30 5093 N 490.729 0.570148 1.46925 0
M  V30 5094 C 491.659 -0.158274 2.32963 0
M  V30 5095 C 492.64 -0.896093 1.44583 0
M  V30 5096 O 493.825 -0.874022 1.7342 0
M  V30 5097 C 490.955 -1.18055 3.26619 0
M  V30 5098 C 489.909 -0.558379 4.24342 0
M  V30 5099 C 489.235 -1.68623 5.07415 0
M  V30 5100 C 490.535 0.496295 5.19937 0
M  V30 5101 H 492.229 0.560046 2.94115 0
M  V30 5102 H 489.775 0.270775 1.41431 0
M  V30 5103 H 491.728 -1.69841 3.85658 0
M  V30 5104 H 490.452 -1.92899 2.63548 0
M  V30 5105 H 489.111 -0.0617157 3.66548 0
M  V30 5106 H 488.759 -2.42402 4.40738 0
M  V30 5107 H 488.459 -1.27564 5.73586 0
M  V30 5108 H 489.983 -2.20709 5.69315 0
M  V30 5109 H 491.397 0.0640052 5.73264 0
M  V30 5110 H 489.794 0.82649 5.94381 0
M  V30 5111 H 490.864 1.38735 4.6463 0
M  V30 5112 N 492.207 -1.54576 0.307264 0
M  V30 5113 C 493.455 -1.99867 -0.299574 0
M  V30 5114 C 493.776 -1.19714 -1.53927 0
M  V30 5115 O 493.046 -0.29472 -1.9367 0
M  V30 5116 H 491.626 -0.738299 -0.113683 0
M  V30 5117 H 494.288 -1.9032 0.420042 0
M  V30 5118 H 493.384 -3.06901 -0.567283 0
M  V30 5119 N 493.685 -0.035106 -1.57561 0
M  V30 5120 C 494.933 0.64096 -1.91667 0
M  V30 5121 C 495.254 1.72323 -0.912681 0
M  V30 5122 O 494.524 1.95849 0.0449089 0
M  V30 5123 H 493.104 0.239743 -0.707483 0
M  V30 5124 H 495.766 -0.084321 -1.94718 0
M  V30 5125 H 494.862 1.08987 -2.92452 0
M  V30 5126 N 495.163 1.55791 0.238111 0
M  V30 5127 C 496.411 1.77681 0.963001 0
M  V30 5128 C 496.732 0.600674 1.85518 0
M  V30 5129 O 496.002 -0.383182 1.92116 0
M  V30 5130 H 494.582 0.655315 0.358568 0
M  V30 5131 H 497.244 1.93239 0.253945 0
M  V30 5132 H 496.34 2.69177 1.57956 0
M  V30 5133 N 496.642 -0.504142 1.49319 0
M  V30 5134 C 497.888 -1.26033 1.58882 0
M  V30 5135 C 498.221 -1.92268 0.273274 0
M  V30 5136 O 497.496 -1.80567 -0.72291 0
M  V30 5137 C 497.779 -2.32976 2.7458 0
M  V30 5138 C 497.632 -1.71263 4.1592 0
M  V30 5139 C 498.951 -3.34561 2.85932 0
M  V30 5140 H 496.07 -0.456863 0.578312 0
M  V30 5141 H 498.712 -0.558965 1.81592 0
M  V30 5142 H 496.862 -2.92796 2.55348 0
M  V30 5143 H 498.534 -1.15294 4.4666 0
M  V30 5144 H 496.777 -1.01686 4.21714 0
M  V30 5145 H 497.448 -2.48816 4.92742 0
M  V30 5146 H 499.924 -2.84727 3.0343 0
M  V30 5147 H 498.8 -4.06754 3.68568 0
M  V30 5148 H 499.061 -3.96695 1.95154 0
M  V30 5149 N 498.12 -1.38341 -0.754957 0
M  V30 5150 C 499.067 -1.3546 -1.86867 0
M  V30 5151 C 500.037 -0.217369 -1.64672 0
M  V30 5152 O 501.222 -0.409383 -1.86356 0
M  V30 5153 C 498.362 -1.18413 -3.24149 0
M  V30 5154 C 497.475 -2.41511 -3.58185 0
M  V30 5155 C 496.61 -2.17205 -4.84763 0
M  V30 5156 C 495.649 -3.36081 -5.11582 0
M  V30 5157 N 494.786 -3.11219 -6.29354 0
M  V30 5158 H 499.626 -2.30672 -1.88664 0
M  V30 5159 H 497.163 -1.14607 -0.922154 0
M  V30 5160 H 499.121 -1.06545 -4.03366 0
M  V30 5161 H 497.751 -0.268397 -3.21682 0
M  V30 5162 H 496.803 -2.64056 -2.73822 0
M  V30 5163 H 498.115 -3.30115 -3.73932 0
M  V30 5164 H 497.269 -2.02465 -5.7192 0
M  V30 5165 H 496.008 -1.25964 -4.71152 0
M  V30 5166 H 495.013 -3.51341 -4.22894 0
M  V30 5167 H 496.238 -4.28196 -5.27091 0
M  V30 5168 H 494.184 -2.22624 -6.17069 0
M  V30 5169 H 494.101 -3.93373 -6.45596 0
M  V30 5170 H 495.369 -3.00132 -7.19403 0
M  V30 5171 N 499.598 0.982988 -1.23187 0
M  V30 5172 C 500.508 2.10907 -1.02739 0
M  V30 5173 C 501.524 1.73979 0.0273188 0
M  V30 5174 O 502.7 2.00702 -0.16757 0
M  V30 5175 C 499.765 3.41142 -0.618304 0
M  V30 5176 C 498.826 3.92112 -1.74777 0
M  V30 5177 C 498.059 5.16131 -1.3581 0
M  V30 5178 O 498.282 5.6989 -0.241201 0
M  V30 5179 O 497.216 5.61103 -2.17824 0
M  V30 5180 H 501.042 2.31046 -1.97108 0
M  V30 5181 H 498.627 1.09284 -1.01869 0
M  V30 5182 H 500.509 4.19488 -0.400982 0
M  V30 5183 H 499.184 3.2234 0.296421 0
M  V30 5184 H 498.091 3.14895 -2.0197 0
M  V30 5185 H 499.424 4.15364 -2.64071 0
M  V30 5186 N 501.076 1.04316 1.18135 0
M  V30 5187 C 502.039 0.640794 2.2006 0
M  V30 5188 C 503.039 -0.303124 1.57917 0
M  V30 5189 O 504.229 -0.0881855 1.73977 0
M  V30 5190 C 501.361 -0.060148 3.40847 0
M  V30 5191 H 502.554 1.54281 2.57172 0
M  V30 5192 H 500.107 0.836004 1.32063 0
M  V30 5193 H 500.842 -0.975845 3.0927 0
M  V30 5194 H 500.627 0.618319 3.87194 0
M  V30 5195 H 502.117 -0.328082 4.16309 0
M  V30 5196 N 502.554 -1.34406 0.822964 0
M  V30 5197 C 503.486 -2.28305 0.202375 0
M  V30 5198 C 504.499 -1.5103 -0.60777 0
M  V30 5199 O 505.688 -1.73057 -0.437444 0
M  V30 5200 C 502.788 -3.30836 -0.734911 0
M  V30 5201 C 501.961 -4.37388 0.0324177 0
M  V30 5202 C 501.02 -5.1968 -0.825803 0
M  V30 5203 O 500.046 -5.68556 -0.270771 0
M  V30 5204 N 501.248 -5.39393 -2.14558 0
M  V30 5205 H 504.013 -2.82201 1.00909 0
M  V30 5206 H 501.574 -1.4693 0.67993 0
M  V30 5207 H 503.566 -3.82786 -1.31365 0
M  V30 5208 H 502.136 -2.77334 -1.44238 0
M  V30 5209 H 501.356 -3.86152 0.792469 0
M  V30 5210 H 502.644 -5.05702 0.560633 0
M  V30 5211 H 502.042 -5.01357 -2.62025 0
M  V30 5212 H 500.599 -5.94461 -2.67318 0
M  V30 5213 N 504.032 -0.577932 -1.46621 0
M  V30 5214 C 505.278 -0.0617793 -2.02706 0
M  V30 5215 C 505.611 1.29294 -1.44903 0
M  V30 5216 O 504.886 1.8461 -0.61232 0
M  V30 5217 C 505.169 0.00911824 -3.60099 0
M  V30 5218 C 505.022 -1.37416 -4.28295 0
M  V30 5219 C 506.341 0.712159 -4.343 0
M  V30 5220 H 503.46 -0.0239246 -0.736612 0
M  V30 5221 H 506.102 -0.744211 -1.74818 0
M  V30 5222 H 504.252 0.590292 -3.83989 0
M  V30 5223 H 505.924 -2.00013 -4.15683 0
M  V30 5224 H 504.167 -1.94319 -3.87843 0
M  V30 5225 H 504.838 -1.27707 -5.37024 0
M  V30 5226 H 507.314 0.218486 -4.15526 0
M  V30 5227 H 506.19 0.730782 -5.44014 0
M  V30 5228 H 506.451 1.77251 -4.05012 0
M  V30 5229 N 505.51 1.54411 -0.315457 0
M  V30 5230 C 506.74 2.04536 0.291315 0
M  V30 5231 C 507.148 1.19162 1.4696 0
M  V30 5232 O 506.491 0.213199 1.82459 0
M  V30 5233 C 506.553 3.5056 0.796725 0
M  V30 5234 C 506.217 4.5627 -0.258178 0
M  V30 5235 C 507.214 5.08312 -1.09153 0
M  V30 5236 C 504.899 5.00672 -0.404036 0
M  V30 5237 C 506.893 6.03312 -2.05655 0
M  V30 5238 C 504.58 5.95488 -1.37248 0
M  V30 5239 C 505.578 6.46693 -2.19721 0
M  V30 5240 O 505.266 7.39648 -3.14921 0
M  V30 5241 H 504.998 0.672856 0.0651165 0
M  V30 5242 H 507.552 2.00244 -0.457308 0
M  V30 5243 H 505.782 3.52223 1.59612 0
M  V30 5244 H 507.471 3.83804 1.32096 0
M  V30 5245 H 508.237 4.74793 -0.98979 0
M  V30 5246 H 504.116 4.60436 0.22799 0
M  V30 5247 H 507.66 6.43203 -2.70067 0
M  V30 5248 H 503.557 6.28424 -1.47489 0
M  V30 5249 H 504.325 7.57496 -3.10067 0
M  V30 5250 N 506.988 0.0434614 1.5754 0
M  V30 5251 C 507.92 -0.962586 2.08007 0
M  V30 5252 C 508.933 -1.27972 1.00634 0
M  V30 5253 O 510.122 -1.24186 1.28219 0
M  V30 5254 C 507.222 -2.28621 2.50171 0
M  V30 5255 C 506.395 -2.15214 3.80791 0
M  V30 5256 C 505.454 -3.30633 4.09351 0
M  V30 5257 O 504.48 -3.0688 4.79388 0
M  V30 5258 N 505.682 -4.54873 3.60654 0
M  V30 5259 H 508.447 -0.531891 2.94942 0
M  V30 5260 H 506.008 -0.142965 1.61268 0
M  V30 5261 H 508 -3.04689 2.66359 0
M  V30 5262 H 506.57 -2.63283 1.68525 0
M  V30 5263 H 505.79 -1.23785 3.74261 0
M  V30 5264 H 507.078 -2.03475 4.66343 0
M  V30 5265 H 506.476 -4.77063 3.04019 0
M  V30 5266 H 505.033 -5.2806 3.82094 0
M  V30 5267 N 508.466 -1.55915 -0.229846 0
M  V30 5268 C 509.429 -1.90914 -1.26824 0
M  V30 5269 C 510.429 -0.786999 -1.40225 0
M  V30 5270 O 511.619 -1.05484 -1.38632 0
M  V30 5271 C 508.751 -2.15264 -2.64337 0
M  V30 5272 H 509.944 -2.8378 -0.969998 0
M  V30 5273 H 507.497 -1.49069 -0.4699 0
M  V30 5274 H 508.232 -1.24923 -2.99274 0
M  V30 5275 H 508.017 -2.97005 -2.55989 0
M  V30 5276 H 509.507 -2.43467 -3.39284 0
M  V30 5277 N 509.944 0.496216 -1.49584 0
M  V30 5278 C 511.191 1.25003 -1.59312 0
M  V30 5279 C 511.519 1.92445 -0.28198 0
M  V30 5280 O 510.774 1.81557 0.730452 0
M  V30 5281 C 511.073 2.3359 -2.705 0
M  V30 5282 C 510.739 1.83574 -4.11839 0
M  V30 5283 C 509.401 1.69653 -4.50302 0
M  V30 5284 C 511.753 1.46193 -5.00277 0
M  V30 5285 C 509.081 1.16736 -5.74969 0
M  V30 5286 C 511.433 0.947265 -6.25468 0
M  V30 5287 C 510.097 0.794485 -6.62755 0
M  V30 5288 H 509.367 0.45742 -0.582965 0
M  V30 5289 H 512.014 0.549996 -1.83432 0
M  V30 5290 H 510.319 3.09401 -2.40371 0
M  V30 5291 H 512.016 2.91627 -2.75235 0
M  V30 5292 H 508.606 1.9537 -3.81482 0
M  V30 5293 H 512.79 1.55793 -4.71214 0
M  V30 5294 H 508.046 1.03623 -6.02555 0
M  V30 5295 H 512.22 0.648846 -6.93371 0
M  V30 5296 H 509.847 0.382271 -7.59238 0
M  V30 5297 N 511.423 1.38739 0.74761 0
M  V30 5298 C 512.37 1.36449 1.86146 0
M  V30 5299 C 513.34 0.226098 1.64554 0
M  V30 5300 O 514.525 0.41926 1.86137 0
M  V30 5301 C 511.665 1.2013 3.23516 0
M  V30 5302 C 510.778 2.43407 3.56899 0
M  V30 5303 C 509.913 2.19773 4.83605 0
M  V30 5304 C 508.952 3.3879 5.09792 0
M  V30 5305 N 508.089 3.14553 6.27695 0
M  V30 5306 H 512.929 2.3167 1.87438 0
M  V30 5307 H 510.466 1.15094 0.916063 0
M  V30 5308 H 512.424 1.08683 4.02795 0
M  V30 5309 H 511.054 0.285453 3.21535 0
M  V30 5310 H 510.106 2.65504 2.72418 0
M  V30 5311 H 511.418 3.32094 3.72176 0
M  V30 5312 H 510.572 2.05496 5.70838 0
M  V30 5313 H 509.311 1.28461 4.70478 0
M  V30 5314 H 508.316 3.53579 4.21025 0
M  V30 5315 H 509.541 4.30986 5.24812 0
M  V30 5316 H 507.487 2.25893 6.1588 0
M  V30 5317 H 507.404 3.96791 6.435 0
M  V30 5318 H 508.672 3.03943 7.17801 0
M  V30 5319 N 512.901 -0.976442 1.23707 0
M  V30 5320 C 513.831 -2.08749 1.04624 0
M  V30 5321 C 514.812 -1.70057 -0.0380956 0
M  V30 5322 O 515.997 -1.93782 0.127308 0
M  V30 5323 C 513.127 -3.41335 0.640902 0
M  V30 5324 C 512.081 -3.93947 1.67302 0
M  V30 5325 C 511.407 -5.22774 1.12301 0
M  V30 5326 C 512.707 -4.22769 3.06697 0
M  V30 5327 H 514.401 -2.24972 1.97555 0
M  V30 5328 H 511.947 -1.08108 0.951247 0
M  V30 5329 H 513.9 -4.18489 0.494434 0
M  V30 5330 H 512.624 -3.24988 -0.324099 0
M  V30 5331 H 511.283 -3.18941 1.80755 0
M  V30 5332 H 510.931 -5.0278 0.148877 0
M  V30 5333 H 510.631 -5.58942 1.81267 0
M  V30 5334 H 512.155 -6.02546 0.988479 0
M  V30 5335 H 513.569 -4.90659 2.96524 0
M  V30 5336 H 511.966 -4.70147 3.72937 0
M  V30 5337 H 513.036 -3.29885 3.55392 0
M  V30 5338 N 514.379 -1.04941 -1.1758 0
M  V30 5339 C 515.309 -0.669172 -2.23706 0
M  V30 5340 C 516.29 0.331835 -1.66832 0
M  V30 5341 O 517.475 0.209988 -1.93061 0
M  V30 5342 C 514.605 -0.0404889 -3.47276 0
M  V30 5343 C 513.559 -0.965983 -4.16957 0
M  V30 5344 C 512.885 -0.201312 -5.34321 0
M  V30 5345 C 514.185 -2.28902 -4.69469 0
M  V30 5346 H 515.879 -1.55639 -2.55767 0
M  V30 5347 H 513.425 -0.749793 -1.22939 0
M  V30 5348 H 515.378 0.237298 -4.20731 0
M  V30 5349 H 514.102 0.881658 -3.14475 0
M  V30 5350 H 512.761 -1.22829 -3.45411 0
M  V30 5351 H 512.409 0.723519 -4.97769 0
M  V30 5352 H 512.109 -0.817968 -5.81879 0
M  V30 5353 H 513.633 0.0692499 -6.10561 0
M  V30 5354 H 515.047 -2.07132 -5.34574 0
M  V30 5355 H 513.444 -2.85942 -5.27596 0
M  V30 5356 H 514.514 -2.92937 -3.86414 0
M  V30 5357 N 515.857 1.33968 -0.830081 0
M  V30 5358 C 517.085 2.0228 -0.434773 0
M  V30 5359 C 517.5 1.62487 0.961419 0
M  V30 5360 O 516.857 0.833849 1.62337 0
M  V30 5361 C 516.908 3.5751 -0.535625 0
M  V30 5362 O 516.629 3.95864 -1.87679 0
M  V30 5363 C 518.13 4.43091 -0.136137 0
M  V30 5364 H 515.35 0.648151 -0.173613 0
M  V30 5365 H 517.894 1.71089 -1.12022 0
M  V30 5366 H 516.049 3.87266 0.101817 0
M  V30 5367 H 516.463 4.9056 -1.85609 0
M  V30 5368 H 517.937 5.51398 -0.257772 0
M  V30 5369 H 518.414 4.29433 0.921076 0
M  V30 5370 H 519.02 4.18677 -0.747662 0
M  V30 5371 N 517.335 0.585699 1.46312 0
M  V30 5372 C 518.298 -0.135673 2.28798 0
M  V30 5373 C 519.298 -0.815988 1.38558 0
M  V30 5374 O 520.488 -0.667487 1.60904 0
M  V30 5375 C 517.62 -1.20163 3.1902 0
M  V30 5376 H 518.813 0.589257 2.94054 0
M  V30 5377 H 516.366 0.343794 1.52472 0
M  V30 5378 H 517.101 -1.95804 2.58517 0
M  V30 5379 H 516.886 -0.718282 3.85465 0
M  V30 5380 H 518.376 -1.70749 3.81096 0
M  V30 5381 N 518.813 -1.54241 0.323641 0
M  V30 5382 C 520.09 -1.92741 -0.333181 0
M  V30 5383 C 520.47 -1.25326 -1.69872 0
M  V30 5384 O 519.818 -0.396991 -2.25025 0
M  V30 5385 C 520.028 -3.46399 -0.425322 0
M  V30 5386 C 521.376 -4.19029 -0.68557 0
M  V30 5387 O 522.4 -3.52555 -0.50824 0
M  V30 5388 O 521.259 -5.36751 -1.02767 0
M  V30 5389 H 518.353 -0.804811 -0.190286 0
M  V30 5390 H 520.899 -1.65542 0.373361 0
M  V30 5391 H 519.671 -3.87643 0.533737 0
M  V30 5392 H 519.294 -3.79704 -1.17944 0
M  V30 5393 N 520.291 -0.0518155 -1.57515 0
M  V30 5394 C 521.702 0.483787 -1.80323 0
M  V30 5395 C 522.053 1.70879 -0.964099 0
M  V30 5396 O 521.178 2.15643 -0.180872 0
M  V30 5397 C 521.773 0.884459 -3.27052 0
M  V30 5398 C 520.332 1.36504 -3.50776 0
M  V30 5399 C 519.479 0.340539 -2.75201 0
M  V30 5400 H 522.43 -0.277691 -1.56252 0
M  V30 5401 H 522.451 1.74733 -3.38007 0
M  V30 5402 H 521.963 -0.00731093 -3.88099 0
M  V30 5403 H 520.064 2.27598 -2.95009 0
M  V30 5404 H 520.177 1.35675 -4.59488 0
M  V30 5405 H 518.541 0.81356 -2.41357 0
M  V30 5406 H 519.324 -0.543156 -3.38976 0
M  V30 5407 N 521.769 1.56035 0.221574 0
M  V30 5408 C 522.716 1.92413 1.27459 0
M  V30 5409 C 523.686 0.781323 1.46576 0
M  V30 5410 O 524.871 1.03721 1.60145 0
M  V30 5411 C 522.011 2.24617 2.61995 0
M  V30 5412 C 521.124 3.51831 2.50677 0
M  V30 5413 C 520.259 3.73482 3.77736 0
M  V30 5414 C 519.298 4.94211 3.6114 0
M  V30 5415 N 518.435 5.12252 4.80148 0
M  V30 5416 H 523.275 2.82203 0.957355 0
M  V30 5417 H 520.812 1.39676 0.461415 0
M  V30 5418 H 522.77 2.41298 3.40339 0
M  V30 5419 H 521.4 1.38 2.91815 0
M  V30 5420 H 520.452 3.43343 1.63767 0
M  V30 5421 H 521.764 4.40328 2.34334 0
M  V30 5422 H 520.918 3.9026 4.64523 0
M  V30 5423 H 519.657 2.83266 3.97003 0
M  V30 5424 H 518.662 4.77384 2.72736 0
M  V30 5425 H 519.887 5.85912 3.43343 0
M  V30 5426 H 517.833 4.24978 4.99729 0
M  V30 5427 H 517.75 5.94881 4.66532 0
M  V30 5428 H 519.018 5.33465 5.68362 0
M  V30 5429 N 523.247 -0.488276 1.49845 0
M  V30 5430 C 524.493 -1.24341 1.6021 0
M  V30 5431 C 524.826 -1.91967 0.293651 0
M  V30 5432 O 524.101 -1.81323 -0.703718 0
M  V30 5433 C 524.384 -2.3005 2.77036 0
M  V30 5434 C 524.237 -1.66842 4.17713 0
M  V30 5435 C 525.556 -3.31509 2.89464 0
M  V30 5436 H 522.675 -0.450704 0.583125 0
M  V30 5437 H 525.317 -0.539673 1.82174 0
M  V30 5438 H 523.467 -2.90071 2.58439 0
M  V30 5439 H 525.139 -1.1055 4.47858 0
M  V30 5440 H 523.382 -0.972079 4.22768 0
M  V30 5441 H 524.053 -2.43576 4.95353 0
M  V30 5442 H 526.529 -2.81493 3.06433 0
M  V30 5443 H 525.405 -4.02822 3.72861 0
M  V30 5444 H 525.666 -3.94603 1.99351 0
M  V30 5445 N 524.725 -1.39134 -0.740242 0
M  V30 5446 C 525.635 -1.39697 -1.88473 0
M  V30 5447 C 526.651 -0.292403 -1.71526 0
M  V30 5448 O 527.827 -0.533021 -1.94219 0
M  V30 5449 C 524.892 -1.23382 -3.24003 0
M  V30 5450 C 523.953 -2.43763 -3.53381 0
M  V30 5451 C 523.186 -2.28216 -4.82445 0
M  V30 5452 O 523.409 -1.28288 -5.55786 0
M  V30 5453 O 522.343 -3.1709 -5.11603 0
M  V30 5454 H 526.169 -2.36159 -1.90952 0
M  V30 5455 H 523.754 -1.20194 -0.887346 0
M  V30 5456 H 525.636 -1.16395 -4.05006 0
M  V30 5457 H 524.311 -0.300121 -3.22306 0
M  V30 5458 H 523.218 -2.56325 -2.72485 0
M  V30 5459 H 524.551 -3.35808 -3.59852 0
M  V30 5460 N 526.204 0.969867 -1.24223 0
M  V30 5461 C 527.167 2.04564 -1.03373 0
M  V30 5462 C 528.167 1.60798 0.00819206 0
M  V30 5463 O 529.357 1.72641 -0.232567 0
M  V30 5464 C 526.489 3.36163 -0.566343 0
M  V30 5465 H 527.682 2.24494 -1.98853 0
M  V30 5466 H 525.235 1.1448 -1.06415 0
M  V30 5467 H 525.97 3.21925 0.391751 0
M  V30 5468 H 525.755 3.69273 -1.31834 0
M  V30 5469 H 527.245 4.1526 -0.441435 0
M  V30 5470 N 527.682 1.05563 1.17022 0
M  V30 5471 C 528.931 0.763036 1.8671 0
M  V30 5472 C 529.244 -0.712857 1.82147 0
M  V30 5473 O 530.45 -1.11955 2.47343 0
M  V30 5474 C 528.906 1.31474 3.35026 0
M  V30 5475 C 528.514 2.82034 3.48081 0
M  V30 5476 C 530.258 1.09935 4.10018 0
M  V30 5477 C 528.165 3.30486 4.90442 0
M  V30 5478 H 527.095 0.281747 0.699382 0
M  V30 5479 H 529.746 1.2734 1.32124 0
M  V30 5480 H 528.128 0.732171 3.89173 0
M  V30 5481 H 529.302 3.46178 3.04133 0
M  V30 5482 H 527.617 3.02156 2.86515 0
M  V30 5483 H 530.214 1.43632 5.15048 0
M  V30 5484 H 530.557 0.0373072 4.16283 0
M  V30 5485 H 531.09 1.64732 3.62089 0
M  V30 5486 H 527.829 4.36137 4.89352 0
M  V30 5487 H 527.349 2.71086 5.35044 0
M  V30 5488 H 529.028 3.25382 5.59227 0
M  V30 5489 N 529.16 -1.33526 0.837174 0
M  V30 5490 C 530.09 -2.31764 0.284206 0
M  V30 5491 C 531.071 -1.58896 -0.607142 0
M  V30 5492 O 532.256 -1.86798 -0.531047 0
M  V30 5493 C 529.386 -3.43029 -0.542962 0
M  V30 5494 C 528.34 -4.27255 0.252451 0
M  V30 5495 C 527.666 -5.3012 -0.69836 0
M  V30 5496 C 528.966 -5.01229 1.46858 0
M  V30 5497 H 530.66 -2.78262 1.10502 0
M  V30 5498 H 528.206 -1.3378 0.532812 0
M  V30 5499 H 530.159 -4.1078 -0.940096 0
M  V30 5500 H 528.883 -2.95216 -1.39697 0
M  V30 5501 H 527.542 -3.61127 0.631124 0
M  V30 5502 H 527.19 -4.78564 -1.54872 0
M  V30 5503 H 526.89 -5.87353 -0.170274 0
M  V30 5504 H 528.414 -6.00737 -1.09305 0
M  V30 5505 H 529.828 -5.61756 1.14469 0
M  V30 5506 H 528.225 -5.68104 1.93333 0
M  V30 5507 H 529.295 -4.301 2.23924 0
M  V30 5508 N 530.638 -0.59345 -1.46 0
M  V30 5509 C 531.884 -0.0832754 -2.02629 0
M  V30 5510 C 532.217 1.27749 -1.46266 0
M  V30 5511 O 531.492 1.8395 -0.631866 0
M  V30 5512 C 531.775 -0.0290756 -3.60088 0
M  V30 5513 C 531.628 -1.41951 -4.26814 0
M  V30 5514 C 532.947 0.666055 -4.35031 0
M  V30 5515 H 530.066 -0.031736 -0.736316 0
M  V30 5516 H 532.708 -0.762711 -1.74019 0
M  V30 5517 H 530.858 0.549532 -3.84594 0
M  V30 5518 H 532.53 -2.04411 -4.13538 0
M  V30 5519 H 530.773 -1.98422 -3.8576 0
M  V30 5520 H 531.444 -1.33395 -5.3564 0
M  V30 5521 H 533.92 0.174401 -4.15734 0
M  V30 5522 H 532.796 0.673041 -5.44758 0
M  V30 5523 H 533.057 1.72946 -4.06869 0
M  V30 5524 N 532.116 1.54067 -0.331816 0
M  V30 5525 C 533.064 2.26105 0.54582 0
M  V30 5526 C 534.058 1.27816 1.11173 0
M  V30 5527 O 535.264 1.45565 1.05882 0
M  V30 5528 H 531.639 0.726363 0.194683 0
M  V30 5529 H 533.61 2.98282 -0.083931 0
M  V30 5530 C 532.359 3.03814 1.69092 0
M  V30 5531 H 531.682 3.79269 1.26473 0
M  V30 5532 H 533.122 3.57453 2.28043 0
M  V30 5533 C 531.581 2.12606 2.61343 0
M  V30 5534 O 532.111 1.71437 3.6328 0
M  V30 5535 N 530.317 1.77925 2.29763 0
M  V30 5536 H 529.864 2.11602 1.46909 0
M  V30 5537 H 529.822 1.1718 2.91747 0
M  V30 5538 N 533.594 0.0601682 1.57485 0
M  V30 5539 C 534.843 -0.611101 1.9222 0
M  V30 5540 C 535.156 -1.71469 0.941159 0
M  V30 5541 O 536.362 -2.44473 1.18089 0
M  V30 5542 C 534.818 -1.13832 3.41424 0
M  V30 5543 C 534.426 -0.0663596 4.47951 0
M  V30 5544 C 536.17 -1.78432 3.85178 0
M  V30 5545 C 534.077 -0.606965 5.88277 0
M  V30 5546 H 533.007 -0.232033 0.71741 0
M  V30 5547 H 535.658 0.130518 1.83035 0
M  V30 5548 H 534.04 -1.93254 3.45643 0
M  V30 5549 H 535.214 0.707682 4.55333 0
M  V30 5550 H 533.529 0.482715 4.13593 0
M  V30 5551 H 536.126 -2.1989 4.87394 0
M  V30 5552 H 536.469 -2.63966 3.21913 0
M  V30 5553 H 537.002 -1.05651 3.83514 0
M  V30 5554 H 533.741 0.21095 6.5516 0
M  V30 5555 H 533.261 -1.34879 5.84438 0
M  V30 5556 H 534.94 -1.08704 6.37803 0
M  V30 5557 N 535.072 -1.5615 -0.213296 0
M  V30 5558 C 536.319 -1.79546 -0.936462 0
M  V30 5559 C 536.647 -0.630337 -1.84003 0
M  V30 5560 O 535.902 0.384883 -1.91878 0
M  V30 5561 C 536.201 -3.08772 -1.79985 0
M  V30 5562 C 535.867 -4.38532 -1.04882 0
M  V30 5563 C 534.529 -4.73787 -0.841393 0
M  V30 5564 C 536.881 -5.18609 -0.51907 0
M  V30 5565 C 534.209 -5.86627 -0.0924403 0
M  V30 5566 C 536.561 -6.32229 0.216581 0
M  V30 5567 C 535.225 -6.6608 0.435191 0
M  V30 5568 H 534.495 -0.657004 -0.342676 0
M  V30 5569 H 537.142 -1.9041 -0.204051 0
M  V30 5570 H 535.447 -2.93065 -2.60038 0
M  V30 5571 H 537.144 -3.24077 -2.36168 0
M  V30 5572 H 533.734 -4.10855 -1.22048 0
M  V30 5573 H 537.918 -4.91801 -0.666775 0
M  V30 5574 H 533.174 -6.11338 0.087081 0
M  V30 5575 H 537.348 -6.93503 0.634538 0
M  V30 5576 H 534.975 -7.5336 1.01746 0
M  V30 5577 N 536.55 0.480323 -1.50102 0
M  V30 5578 C 537.798 1.23063 -1.60312 0
M  V30 5579 C 538.119 1.92659 -0.301226 0
M  V30 5580 O 537.389 1.83691 0.680753 0
M  V30 5581 H 535.969 0.457231 -0.590719 0
M  V30 5582 H 538.631 0.554893 -1.86834 0
M  V30 5583 H 537.727 1.9835 -2.40964 0
M  V30 5584 N 538.028 1.39524 0.732853 0
M  V30 5585 C 539.276 1.36594 1.48951 0
M  V30 5586 C 539.597 -0.0367507 1.94965 0
M  V30 5587 O 538.867 -0.988391 1.69138 0
M  V30 5588 H 537.447 0.502673 0.552566 0
M  V30 5589 H 540.109 1.74411 0.869869 0
M  V30 5590 H 539.205 2.03 2.3706 0
M  V30 5591 N 539.506 -0.963266 1.24736 0
M  V30 5592 C 540.755 -1.70115 1.08369 0
M  V30 5593 C 541.068 -1.91939 -0.376688 0
M  V30 5594 O 542.274 -2.6334 -0.660624 0
M  V30 5595 C 540.73 -3.06218 1.89099 0
M  V30 5596 C 540.338 -2.92221 3.39574 0
M  V30 5597 C 542.082 -3.83848 1.81275 0
M  V30 5598 C 539.989 -4.23662 4.12631 0
M  V30 5599 H 538.919 -0.637944 0.401924 0
M  V30 5600 H 541.57 -1.07304 1.48856 0
M  V30 5601 H 539.952 -3.69884 1.41429 0
M  V30 5602 H 541.126 -2.37541 3.94856 0
M  V30 5603 H 539.441 -2.28054 3.48397 0
M  V30 5604 H 542.038 -4.81188 2.33158 0
M  V30 5605 H 542.381 -4.08949 0.778895 0
M  V30 5606 H 542.914 -3.26918 2.26649 0
M  V30 5607 H 539.653 -4.03753 5.16395 0
M  V30 5608 H 539.173 -4.78141 3.62135 0
M  V30 5609 H 540.852 -4.92256 4.19873 0
M  V30 5610 N 540.985 -1.06182 -1.16461 0
M  V30 5611 C 542.231 -0.779015 -1.87241 0
M  V30 5612 C 542.564 0.692715 -1.81425 0
M  V30 5613 O 541.839 1.5074 -1.22913 0
M  V30 5614 C 542.122 -1.2728 -3.36856 0
M  V30 5615 C 541.975 -2.80821 -3.51368 0
M  V30 5616 C 543.294 -0.879799 -4.31216 0
M  V30 5617 H 540.413 -0.284464 -0.679889 0
M  V30 5618 H 543.055 -1.31755 -1.36896 0
M  V30 5619 H 541.205 -0.814673 -3.79862 0
M  V30 5620 H 542.877 -3.34833 -3.17308 0
M  V30 5621 H 541.12 -3.19606 -2.93316 0
M  V30 5622 H 541.791 -3.10435 -4.56436 0
M  V30 5623 H 544.267 -1.27436 -3.96105 0
M  V30 5624 H 543.143 -1.25278 -5.34412 0
M  V30 5625 H 543.404 0.215372 -4.41575 0
M  V30 5626 N 542.463 1.3308 -0.844243 0
M  V30 5627 C 543.411 2.31028 -0.269954 0
M  V30 5628 C 544.405 1.58381 0.600997 0
M  V30 5629 O 545.611 1.73203 0.48996 0
M  V30 5630 H 541.986 0.748866 -0.0685782 0
M  V30 5631 H 543.957 2.76967 -1.11049 0
M  V30 5632 C 542.706 3.43549 0.535676 0
M  V30 5633 H 542.029 3.99604 -0.125202 0
M  V30 5634 H 543.469 4.14267 0.903262 0
M  V30 5635 C 541.928 2.8988 1.71672 0
M  V30 5636 O 542.458 2.86511 2.81557 0
M  V30 5637 N 540.664 2.46416 1.54037 0
M  V30 5638 H 540.211 2.49356 0.64649 0
M  V30 5639 H 540.169 2.1086 2.33207 0
M  V30 5640 N 543.941 0.601185 1.45683 0
M  V30 5641 C 545.181 0.0968037 2.04171 0
M  V30 5642 C 545.545 -1.2466 1.46027 0
M  V30 5643 O 546.746 -1.84132 1.95829 0
M  V30 5644 C 545.017 0.051384 3.57363 0
M  V30 5645 S 546.576 -0.392737 4.37039 0
M  V30 5646 H 543.394 0.0464504 0.709481 0
M  V30 5647 H 545.996 0.797846 1.78479 0
M  V30 5648 H 544.7 1.03274 3.97193 0
M  V30 5649 H 544.231 -0.671853 3.87621 0
M  V30 5650 H 546.246 -1.64364 4.68187 0
M  V30 5651 N 545.419 -1.53889 0.339982 0
M  V30 5652 C 546.382 -2.23547 -0.50592 0
M  V30 5653 C 547.382 -1.23445 -1.03044 0
M  V30 5654 O 548.572 -1.47909 -0.920253 0
M  V30 5655 C 545.704 -2.95234 -1.7044 0
M  V30 5656 H 546.897 -2.99722 0.103247 0
M  V30 5657 H 544.45 -1.56033 0.0912804 0
M  V30 5658 H 545.185 -2.23236 -2.35236 0
M  V30 5659 H 544.97 -3.68654 -1.33553 0
M  V30 5660 H 546.46 -3.48258 -2.30447 0
M  V30 5661 N 546.897 -0.0685191 -1.57451 0
M  V30 5662 C 548.146 0.600898 -1.92541 0
M  V30 5663 C 548.459 1.70967 -0.950239 0
M  V30 5664 O 549.665 2.43844 -1.19384 0
M  V30 5665 C 548.121 1.12019 -3.42023 0
M  V30 5666 C 547.729 0.0426028 -4.4798 0
M  V30 5667 C 549.473 1.76386 -3.86119 0
M  V30 5668 C 547.38 0.575759 -5.88591 0
M  V30 5669 H 546.31 0.228225 -0.71863 0
M  V30 5670 H 548.961 -0.140223 -1.82963 0
M  V30 5671 H 547.343 1.91418 -3.46663 0
M  V30 5672 H 548.517 -0.73182 -4.54952 0
M  V30 5673 H 546.832 -0.504642 -4.13331 0
M  V30 5674 H 549.429 2.17302 -4.88553 0
M  V30 5675 H 549.772 2.62255 -3.23308 0
M  V30 5676 H 550.305 1.03615 -3.84069 0
M  V30 5677 H 547.044 -0.245691 -6.55039 0
M  V30 5678 H 546.564 1.31778 -5.85145 0
M  V30 5679 H 548.243 1.0532 -6.3837 0
M  V30 5680 N 548.375 1.56261 0.205012 0
M  V30 5681 C 549.624 1.79236 0.925058 0
M  V30 5682 C 549.937 0.640011 1.84833 0
M  V30 5683 O 551.143 0.753809 2.60826 0
M  V30 5684 C 549.599 3.17475 1.69522 0
M  V30 5685 C 549.207 4.40482 0.817269 0
M  V30 5686 C 550.951 3.49766 2.4055 0
M  V30 5687 C 548.858 5.69744 1.58573 0
M  V30 5688 H 547.788 0.668287 0.349153 0
M  V30 5689 H 550.439 1.82629 0.178544 0
M  V30 5690 H 548.821 3.08304 2.48526 0
M  V30 5691 H 549.995 4.60752 0.0665988 0
M  V30 5692 H 548.31 4.15827 0.218316 0
M  V30 5693 H 550.907 4.43573 2.98575 0
M  V30 5694 H 551.25 2.73041 3.14252 0
M  V30 5695 H 551.783 3.60341 1.68522 0
M  V30 5696 H 548.522 6.49407 0.891679 0
M  V30 5697 H 548.042 5.53509 2.31059 0
M  V30 5698 H 549.721 6.1051 2.14212 0
M  V30 5699 N 549.853 -0.472356 1.50355 0
M  V30 5700 C 550.816 -1.5529 1.68576 0
M  V30 5701 C 551.816 -1.50863 0.556511 0
M  V30 5702 O 553.006 -1.53505 0.823516 0
M  V30 5703 C 550.138 -2.94921 1.70981 0
M  V30 5704 H 551.331 -1.40451 2.64978 0
M  V30 5705 H 548.884 -0.698645 1.39816 0
M  V30 5706 H 549.619 -3.15204 0.762675 0
M  V30 5707 H 549.404 -2.99541 2.53017 0
M  V30 5708 H 550.894 -3.73372 1.87037 0
M  V30 5709 N 551.331 -1.39911 -0.725443 0
M  V30 5710 C 552.279 -1.39552 -1.86086 0
M  V30 5711 C 553.273 -0.277334 -1.67114 0
M  V30 5712 O 554.479 -0.447865 -1.74339 0
M  V30 5713 H 550.854 -0.435993 -0.612711 0
M  V30 5714 H 552.825 -2.35305 -1.83505 0
M  V30 5715 C 551.574 -1.26529 -3.2386 0
M  V30 5716 H 550.897 -2.11845 -3.3906 0
M  V30 5717 H 552.337 -1.30336 -4.03471 0
M  V30 5718 C 550.796 0.0254168 -3.3689 0
M  V30 5719 O 551.326 0.992048 -3.89257 0
M  V30 5720 N 549.532 0.0916528 -2.90455 0
M  V30 5721 H 549.079 -0.695675 -2.48028 0
M  V30 5722 H 549.037 0.954745 -2.99553 0
M  V30 5723 N 552.809 0.956637 -1.25245 0
M  V30 5724 C 554.057 1.69764 -1.09657 0
M  V30 5725 C 554.378 1.91583 0.363464 0
M  V30 5726 O 553.648 1.50149 1.25825 0
M  V30 5727 H 552.228 0.629097 -0.402798 0
M  V30 5728 H 554.89 1.15026 -1.57337 0
M  V30 5729 H 553.986 2.67769 -1.60331 0
M  V30 5730 N 554.287 1.06798 1.15896 0
M  V30 5731 C 555.536 0.782796 1.8589 0
M  V30 5732 C 555.849 -0.693498 1.82893 0
M  V30 5733 O 557.055 -1.09325 2.48516 0
M  V30 5734 C 555.511 1.3502 3.33613 0
M  V30 5735 C 555.119 2.8571 3.45071 0
M  V30 5736 C 556.863 1.14278 4.08829 0
M  V30 5737 C 554.77 3.35669 4.86909 0
M  V30 5738 H 553.7 0.289149 0.696354 0
M  V30 5739 H 556.351 1.28734 1.30766 0
M  V30 5740 H 554.733 0.773407 3.88374 0
M  V30 5741 H 555.907 3.49385 3.00445 0
M  V30 5742 H 554.222 3.05178 2.83294 0
M  V30 5743 H 556.819 1.49087 5.13495 0
M  V30 5744 H 557.162 0.0814575 4.1622 0
M  V30 5745 H 557.695 1.68563 3.60321 0
M  V30 5746 H 554.434 4.41302 4.84698 0
M  V30 5747 H 553.954 2.76745 5.32139 0
M  V30 5748 H 555.633 3.31296 5.55745 0
M  V30 5749 N 555.766 -1.3263 0.851289 0
M  V30 5750 C 556.994 -2.01563 0.466899 0
M  V30 5751 C 557.409 -1.63996 -0.935447 0
M  V30 5752 O 556.766 -0.85957 -1.6099 0
M  V30 5753 C 556.817 -3.56613 0.592433 0
M  V30 5754 O 556.538 -3.92828 1.93954 0
M  V30 5755 C 558.039 -4.42818 0.206612 0
M  V30 5756 H 555.259 -0.645307 0.183902 0
M  V30 5757 H 557.803 -1.69285 1.1473 0
M  V30 5758 H 555.958 -3.87379 -0.0401936 0
M  V30 5759 H 556.372 -4.87545 1.9339 0
M  V30 5760 H 557.846 -5.50918 0.345462 0
M  V30 5761 H 558.323 -4.30844 -0.85264 0
M  V30 5762 H 558.929 -4.17434 0.814176 0
M  V30 5763 N 557.244 -0.608902 -1.45362 0
M  V30 5764 C 558.191 0.109172 -2.30542 0
M  V30 5765 C 559.161 0.858704 -1.42181 0
M  V30 5766 O 560.346 0.844178 -1.71109 0
M  V30 5767 C 557.486 1.09971 -3.27109 0
M  V30 5768 C 556.599 0.350911 -4.30572 0
M  V30 5769 C 555.734 1.33129 -5.14247 0
M  V30 5770 C 554.773 0.570377 -6.09437 0
M  V30 5771 N 553.91 1.5001 -6.85887 0
M  V30 5772 H 558.75 -0.623195 -2.91411 0
M  V30 5773 H 556.287 -0.319122 -1.43597 0
M  V30 5774 H 558.245 1.68714 -3.81564 0
M  V30 5775 H 556.875 1.79947 -2.67991 0
M  V30 5776 H 555.927 -0.352054 -3.78767 0
M  V30 5777 H 557.239 -0.242725 -4.98209 0
M  V30 5778 H 556.393 1.99074 -5.73109 0
M  V30 5779 H 555.132 1.95885 -4.46632 0
M  V30 5780 H 554.137 -0.102702 -5.49704 0
M  V30 5781 H 555.362 -0.0521607 -6.7908 0
M  V30 5782 H 553.308 2.11529 -6.2096 0
M  V30 5783 H 553.225 0.959934 -7.49881 0
M  V30 5784 H 554.493 2.14909 -7.49289 0
M  V30 5785 N 558.722 1.53707 -0.348139 0
M  V30 5786 C 559.685 2.23812 0.494058 0
M  V30 5787 C 560.685 1.23989 1.02388 0
M  V30 5788 O 561.875 1.48395 0.912396 0
M  V30 5789 C 559.007 2.96133 1.68872 0
M  V30 5790 H 560.2 2.99663 -0.119141 0
M  V30 5791 H 557.753 1.55983 -0.0995539 0
M  V30 5792 H 558.488 2.24481 2.34049 0
M  V30 5793 H 558.273 3.69357 1.31596 0
M  V30 5794 H 559.763 3.49475 2.28597 0
M  V30 5795 N 560.2 0.0768682 1.57412 0
M  V30 5796 C 561.44 -0.594676 1.95558 0
M  V30 5797 C 561.804 -1.66469 0.956658 0
M  V30 5798 O 563.005 -2.39215 1.22595 0
M  V30 5799 C 561.276 -1.15206 3.38323 0
M  V30 5800 S 562.835 -1.83803 3.9845 0
M  V30 5801 H 559.653 -0.194579 0.683857 0
M  V30 5802 H 562.255 0.151933 1.94909 0
M  V30 5803 H 560.959 -0.36153 4.08805 0
M  V30 5804 H 560.49 -1.93491 3.42527 0
M  V30 5805 H 562.505 -3.12087 3.85767 0
M  V30 5806 N 561.678 -1.56367 -0.196722 0
M  V30 5807 C 563.094 -1.49916 -0.54749 0
M  V30 5808 C 563.294 -0.77659 -1.85934 0
M  V30 5809 O 562.35 -0.32644 -2.50381 0
M  V30 5810 C 563.663 -2.94577 -0.603734 0
M  V30 5811 C 565.211 -3.05239 -0.692677 0
M  V30 5812 C 565.686 -4.51308 -0.780046 0
M  V30 5813 N 567.177 -4.55453 -0.843616 0
M  V30 5814 C 567.912 -5.65786 -0.931358 0
M  V30 5815 N 567.408 -6.85812 -0.981503 0
M  V30 5816 N 569.201 -5.53695 -0.968421 0
M  V30 5817 H 561.352 -2.01761 0.663803 0
M  V30 5818 H 563.615 -0.918094 0.236238 0
M  V30 5819 H 563.321 -3.50494 0.29105 0
M  V30 5820 H 563.195 -3.47841 -1.45898 0
M  V30 5821 H 565.582 -2.49372 -1.57789 0
M  V30 5822 H 565.663 -2.55103 0.188736 0
M  V30 5823 H 565.307 -5.078 0.100811 0
M  V30 5824 H 565.237 -4.99176 -1.67724 0
M  V30 5825 H 567.728 -3.69025 -0.814176 0
M  V30 5826 H 568.041 -7.65648 -1.04892 0
M  V30 5827 H 566.386 -6.88474 -0.950208 0
M  V30 5828 H 569.577 -4.58848 -0.926072 0
M  V30 5829 H 569.75 -6.39708 -1.03334 0
M  V30 5830 N 563.156 0.464375 -1.50603 0
M  V30 5831 C 564.066 1.58723 -1.72754 0
M  V30 5832 C 565.082 1.62925 -0.610844 0
M  V30 5833 O 566.258 1.8067 -0.889963 0
M  V30 5834 C 563.323 2.94897 -1.82309 0
M  V30 5835 C 562.384 3.0103 -3.06071 0
M  V30 5836 C 561.617 4.30708 -3.1516 0
M  V30 5837 O 561.84 5.2159 -2.30868 0
M  V30 5838 O 560.774 4.42571 -4.0794 0
M  V30 5839 H 564.6 1.42954 -2.67951 0
M  V30 5840 H 562.185 0.644579 -1.3478 0
M  V30 5841 H 564.067 3.75764 -1.90735 0
M  V30 5842 H 562.742 3.10851 -0.902967 0
M  V30 5843 H 561.649 2.19217 -3.03142 0
M  V30 5844 H 562.982 2.90014 -3.97684 0
M  V30 5845 N 564.634 1.40294 0.718013 0
M  V30 5846 C 565.564 1.43118 1.84498 0
M  V30 5847 C 566.545 0.292403 1.67568 0
M  V30 5848 O 567.73 0.500675 1.87635 0
M  V30 5849 C 564.86 1.29065 3.22427 0
M  V30 5850 C 563.814 2.40521 3.54025 0
M  V30 5851 C 563.14 2.11546 4.91073 0
M  V30 5852 C 564.44 3.82859 3.55269 0
M  V30 5853 H 566.134 2.37432 1.82391 0
M  V30 5854 H 563.68 1.14283 0.87609 0
M  V30 5855 H 565.633 1.29658 4.00957 0
M  V30 5856 H 564.357 0.312271 3.25104 0
M  V30 5857 H 563.016 2.39173 2.77834 0
M  V30 5858 H 562.664 1.12104 4.90348 0
M  V30 5859 H 562.364 2.86216 5.1318 0
M  V30 5860 H 563.888 2.13817 5.71939 0
M  V30 5861 H 565.302 3.86044 4.23843 0
M  V30 5862 H 563.699 4.57029 3.88902 0
M  V30 5863 H 564.769 4.12617 2.54706 0
M  V30 5864 N 566.112 -0.949982 1.2575 0
M  V30 5865 C 567.022 -2.08109 1.08295 0
M  V30 5866 C 568.038 -1.7399 0.0188181 0
M  V30 5867 O 569.214 -2.00187 0.220724 0
M  V30 5868 C 566.279 -3.39383 0.708534 0
M  V30 5869 C 565.34 -3.8734 1.85111 0
M  V30 5870 C 564.573 -5.12349 1.49447 0
M  V30 5871 O 564.796 -5.6905 0.392212 0
M  V30 5872 O 563.73 -5.5513 2.32624 0
M  V30 5873 H 567.556 -2.25738 2.03165 0
M  V30 5874 H 565.141 -1.06545 1.04731 0
M  V30 5875 H 567.023 -4.18277 0.512061 0
M  V30 5876 H 565.698 -3.23013 -0.210854 0
M  V30 5877 H 564.605 -3.09429 2.10248 0
M  V30 5878 H 565.938 -4.08216 2.74991 0
M  V30 5879 N 567.59 -1.07411 -1.15328 0
M  V30 5880 C 568.52 -0.716472 -2.22236 0
M  V30 5881 C 569.501 0.296373 -1.67498 0
M  V30 5882 O 570.686 0.168989 -1.93463 0
M  V30 5883 C 567.816 -0.114142 -3.47112 0
M  V30 5884 C 566.77 -1.05421 -4.14814 0
M  V30 5885 C 566.096 -0.314604 -5.33774 0
M  V30 5886 C 567.396 -2.38808 -4.64508 0
M  V30 5887 H 569.09 -1.61029 -2.52408 0
M  V30 5888 H 566.636 -0.775702 -1.21321 0
M  V30 5889 H 568.589 0.148001 -4.2114 0
M  V30 5890 H 567.313 0.814755 -3.16274 0
M  V30 5891 H 565.972 -1.30128 -3.42728 0
M  V30 5892 H 565.62 0.617772 -4.99192 0
M  V30 5893 H 565.32 -0.941209 -5.80013 0
M  V30 5894 H 566.844 -0.0602747 -6.1057 0
M  V30 5895 H 568.258 -2.18424 -5.3006 0
M  V30 5896 H 566.655 -2.97069 -5.21412 0
M  V30 5897 H 567.725 -3.01067 -3.80114 0
M  V30 5898 N 569.068 1.32177 -0.85831 0
M  V30 5899 C 570.015 2.28794 -0.303607 0
M  V30 5900 C 570.985 1.55213 0.591453 0
M  V30 5901 O 572.17 1.83418 0.525585 0
M  V30 5902 C 569.31 3.41475 0.49889 0
M  V30 5903 C 568.423 4.2993 -0.422373 0
M  V30 5904 C 567.558 5.29743 0.393111 0
M  V30 5905 C 566.597 6.09842 -0.525317 0
M  V30 5906 N 565.734 7.01643 0.253208 0
M  V30 5907 H 570.574 2.75631 -1.13276 0
M  V30 5908 H 568.111 1.35606 -0.570026 0
M  V30 5909 H 570.069 4.05531 0.979826 0
M  V30 5910 H 568.699 2.95779 1.29284 0
M  V30 5911 H 567.751 3.66422 -1.02171 0
M  V30 5912 H 569.063 4.85899 -1.12709 0
M  V30 5913 H 568.217 5.9942 0.937056 0
M  V30 5914 H 566.956 4.744 1.13117 0
M  V30 5915 H 565.961 5.39066 -1.08112 0
M  V30 5916 H 567.186 6.6727 -1.26205 0
M  V30 5917 H 565.132 6.48725 0.974295 0
M  V30 5918 H 565.049 7.54981 -0.392398 0
M  V30 5919 H 566.317 7.756 0.778761 0
M  V30 5920 N 570.547 0.616602 1.45037 0
M  V30 5921 C 571.793 0.115501 2.02471 0
M  V30 5922 C 572.126 -1.25406 1.4828 0
M  V30 5923 O 571.401 -1.82922 0.661051 0
M  V30 5924 C 571.684 0.0863588 3.59996 0
M  V30 5925 C 571.537 1.48723 4.24501 0
M  V30 5926 C 572.856 -0.596762 4.36035 0
M  V30 5927 H 569.975 0.0434461 0.735718 0
M  V30 5928 H 572.617 0.7903 1.72784 0
M  V30 5929 H 570.767 -0.488277 3.85419 0
M  V30 5930 H 572.439 2.10964 4.10234 0
M  V30 5931 H 570.682 2.04534 3.82555 0
M  V30 5932 H 571.353 1.419 5.3345 0
M  V30 5933 H 573.829 -0.10824 4.15959 0
M  V30 5934 H 572.705 -0.586289 5.4576 0
M  V30 5935 H 572.966 -1.66451 4.09569 0
M  V30 5936 N 572.025 -1.5352 0.356285 0
M  V30 5937 C 573.436 -1.86282 -0.12492 0
M  V30 5938 C 573.787 -1.27717 -1.48939 0
M  V30 5939 O 572.912 -0.595614 -2.08042 0
M  V30 5940 C 573.507 -3.37995 -0.23345 0
M  V30 5941 C 572.066 -3.70588 -0.658899 0
M  V30 5942 C 571.213 -2.76581 0.199596 0
M  V30 5943 H 574.164 -1.47901 0.575423 0
M  V30 5944 H 574.185 -3.65475 -1.0587 0
M  V30 5945 H 573.697 -3.8059 0.759776 0
M  V30 5946 H 571.798 -3.33544 -1.66069 0
M  V30 5947 H 571.911 -4.77076 -0.439957 0
M  V30 5948 H 570.275 -2.52552 -0.330076 0
M  V30 5949 H 571.058 -3.22008 1.19019 0
M  V30 5950 N 573.503 -0.0852151 -1.57369 0
M  V30 5951 C 574.433 0.874556 -2.16503 0
M  V30 5952 C 575.414 1.30111 -1.09568 0
M  V30 5953 O 576.599 1.36977 -1.37662 0
M  V30 5954 C 573.729 2.13731 -2.73745 0
M  V30 5955 C 572.683 1.84971 -3.85966 0
M  V30 5956 C 572.009 3.17991 -4.29867 0
M  V30 5957 C 573.309 1.14442 -5.09608 0
M  V30 5958 H 575.003 0.381899 -2.96954 0
M  V30 5959 H 572.549 0.18225 -1.42842 0
M  V30 5960 H 574.502 2.81302 -3.13763 0
M  V30 5961 H 573.226 2.65263 -1.90534 0
M  V30 5962 H 571.885 1.19801 -3.46473 0
M  V30 5963 H 571.533 3.6739 -3.4356 0
M  V30 5964 H 571.233 2.99534 -5.05523 0
M  V30 5965 H 572.757 3.86737 -4.72511 0
M  V30 5966 H 574.171 1.72105 -5.46857 0
M  V30 5967 H 572.568 1.06197 -5.90629 0
M  V30 5968 H 573.638 0.12559 -4.84737 0
M  V30 5969 N 574.981 1.5647 0.188427 0
M  V30 5970 C 576.227 1.81281 0.909124 0
M  V30 5971 C 576.56 0.66034 1.82628 0
M  V30 5972 O 575.835 -0.338737 1.91528 0
M  V30 5973 C 576.118 3.16388 1.7196 0
M  V30 5974 C 575.971 4.42137 0.826714 0
M  V30 5975 C 577.29 3.48256 2.69083 0
M  V30 5976 H 574.409 0.659457 0.329068 0
M  V30 5977 H 577.051 1.89182 0.176156 0
M  V30 5978 H 575.201 3.09784 2.34448 0
M  V30 5979 H 576.873 4.60794 0.216025 0
M  V30 5980 H 575.116 4.33594 0.133792 0
M  V30 5981 H 575.787 5.33184 1.42893 0
M  V30 5982 H 578.263 3.55203 2.16726 0
M  V30 5983 H 577.139 4.43899 3.2287 0
M  V30 5984 H 577.4 2.72088 3.48455 0
M  V30 5985 N 576.459 -0.456382 1.50847 0
M  V30 5986 C 577.705 -1.20914 1.62811 0
M  V30 5987 C 578.038 -1.91301 0.334304 0
M  V30 5988 O 577.313 -1.82775 -0.665098 0
M  V30 5989 C 577.596 -2.24122 2.81853 0
M  V30 5990 C 577.449 -1.57944 4.21158 0
M  V30 5991 C 578.768 -3.25295 2.96431 0
M  V30 5992 H 575.887 -0.438233 0.592554 0
M  V30 5993 H 578.529 -0.50091 1.83278 0
M  V30 5994 H 576.679 -2.84524 2.64534 0
M  V30 5995 H 578.351 -1.01025 4.50102 0
M  V30 5996 H 576.594 -0.882185 4.24735 0
M  V30 5997 H 577.265 -2.33014 5.00408 0
M  V30 5998 H 579.741 -2.7493 3.12335 0
M  V30 5999 H 578.617 -3.94822 3.81322 0
M  V30 6000 H 578.878 -3.90286 2.07676 0
M  V30 6001 N 577.937 -1.40673 -0.710563 0
M  V30 6002 C 579.353 -1.22813 -1.01928 0
M  V30 6003 C 579.553 -0.10687 -2.01216 0
M  V30 6004 O 578.609 0.533614 -2.46797 0
M  V30 6005 C 579.922 -2.57178 -1.5582 0
M  V30 6006 C 581.47 -2.64233 -1.67779 0
M  V30 6007 C 581.945 -3.98879 -2.25076 0
M  V30 6008 N 583.436 -4.00647 -2.32456 0
M  V30 6009 C 584.171 -5.01621 -2.77784 0
M  V30 6010 N 583.667 -6.12989 -3.22826 0
M  V30 6011 N 585.46 -4.88988 -2.77213 0
M  V30 6012 H 577.611 -2.12335 -0.05253 0
M  V30 6013 H 579.874 -0.9441 -0.085898 0
M  V30 6014 H 579.58 -3.39903 -0.903249 0
M  V30 6015 H 579.454 -2.78618 -2.54267 0
M  V30 6016 H 581.841 -1.81876 -2.3239 0
M  V30 6017 H 581.922 -2.46619 -0.679178 0
M  V30 6018 H 581.566 -4.81678 -1.61086 0
M  V30 6019 H 581.496 -4.13826 -3.25661 0
M  V30 6020 H 583.987 -3.20231 -2.0065 0
M  V30 6021 H 584.3 -6.85921 -3.55995 0
M  V30 6022 H 582.645 -6.16547 -3.20773 0
M  V30 6023 H 585.836 -4.01075 -2.41363 0
M  V30 6024 H 586.009 -5.67822 -3.12221 0
M  V30 6025 N 579.415 0.9433 -1.26252 0
M  V30 6026 C 580.345 2.05902 -1.10122 0
M  V30 6027 C 581.326 1.70099 -0.00700552 0
M  V30 6028 O 582.511 1.93377 -0.178641 0
M  V30 6029 C 579.641 3.39516 -0.731175 0
M  V30 6030 C 578.595 3.89372 -1.77688 0
M  V30 6031 C 577.921 5.19613 -1.26122 0
M  V30 6032 C 579.221 4.14489 -3.17799 0
M  V30 6033 H 580.915 2.19655 -2.03451 0
M  V30 6034 H 578.461 1.05548 -0.979576 0
M  V30 6035 H 580.414 4.17031 -0.605215 0
M  V30 6036 H 579.138 3.25733 0.23782 0
M  V30 6037 H 577.797 3.14036 -1.89148 0
M  V30 6038 H 577.445 5.02208 -0.282128 0
M  V30 6039 H 577.145 5.53939 -1.96023 0
M  V30 6040 H 578.669 5.99713 -1.14789 0
M  V30 6041 H 580.083 4.82625 -3.09428 0
M  V30 6042 H 578.48 4.60094 -3.85271 0
M  V30 6043 H 579.55 3.20347 -3.64014 0
M  V30 6044 N 580.893 1.08022 1.14757 0
M  V30 6045 C 581.803 0.718292 2.23333 0
M  V30 6046 C 582.819 -0.273477 1.71837 0
M  V30 6047 O 583.995 -0.118406 2.01052 0
M  V30 6048 C 581.06 0.128855 3.4646 0
M  V30 6049 C 580.121 1.17473 4.12915 0
M  V30 6050 C 579.354 0.61333 5.30164 0
M  V30 6051 O 579.577 -0.568458 5.6756 0
M  V30 6052 O 578.511 1.3615 5.86299 0
M  V30 6053 H 582.337 1.62394 2.56636 0
M  V30 6054 H 579.922 0.853628 1.22611 0
M  V30 6055 H 581.804 -0.197249 4.20938 0
M  V30 6056 H 580.479 -0.750014 3.14891 0
M  V30 6057 H 579.386 1.5533 3.40328 0
M  V30 6058 H 580.719 2.02574 4.48581 0
M  V30 6059 N 582.371 -1.3172 0.865308 0
M  V30 6060 C 583.619 -1.96487 0.472995 0
M  V30 6061 C 583.94 -1.68761 -0.976975 0
M  V30 6062 O 583.21 -1.00051 -1.68424 0
M  V30 6063 H 581.79 -0.726947 0.171922 0
M  V30 6064 H 584.452 -1.60612 1.10407 0
M  V30 6065 H 583.548 -3.0574 0.62687 0
M  V30 6066 N 583.85 -0.624285 -1.44708 0
M  V30 6067 C 585.077 -0.132919 -2.06473 0
M  V30 6068 C 585.493 1.18967 -1.46602 0
M  V30 6069 O 584.85 1.72824 -0.586341 0
M  V30 6070 C 584.901 -0.00465418 -3.615 0
M  V30 6071 O 584.622 -1.27494 -4.19138 0
M  V30 6072 C 586.123 0.516213 -4.40284 0
M  V30 6073 H 583.343 -0.0765201 -0.666623 0
M  V30 6074 H 585.887 -0.856751 -1.85688 0
M  V30 6075 H 584.042 0.669583 -3.8157 0
M  V30 6076 H 584.456 -1.11536 -5.12504 0
M  V30 6077 H 585.93 0.554994 -5.49203 0
M  V30 6078 H 586.407 1.5419 -4.11245 0
M  V30 6079 H 587.013 -0.124542 -4.25118 0
M  V30 6080 N 585.328 1.53329 -0.364422 0
M  V30 6081 C 586.276 2.27212 0.497737 0
M  V30 6082 C 587.27 1.30146 1.08437 0
M  V30 6083 O 588.476 1.47778 1.0277 0
M  V30 6084 H 584.851 0.730329 0.179232 0
M  V30 6085 H 586.822 2.98037 -0.147182 0
M  V30 6086 C 585.571 3.07333 1.6261 0
M  V30 6087 H 584.894 3.81866 1.184 0
M  V30 6088 H 586.334 3.62209 2.20409 0
M  V30 6089 C 584.793 2.18102 2.56775 0
M  V30 6090 O 585.323 1.79104 3.59562 0
M  V30 6091 N 583.529 1.82759 2.25937 0
M  V30 6092 H 583.076 2.14671 1.42387 0
M  V30 6093 H 583.034 1.23342 2.89196 0
M  V30 6094 N 586.806 0.0935595 1.57322 0
M  V30 6095 C 588.052 -0.571355 1.94585 0
M  V30 6096 C 588.385 -1.67929 0.975366 0
M  V30 6097 O 587.66 -1.94498 0.00816206 0
M  V30 6098 C 587.943 -1.12797 3.41978 0
M  V30 6099 C 587.796 -0.0251881 4.49793 0
M  V30 6100 C 589.115 -2.02682 3.90651 0
M  V30 6101 H 586.234 -0.206223 0.70756 0
M  V30 6102 H 588.876 0.163956 1.89291 0
M  V30 6103 H 587.026 -1.75461 3.4662 0
M  V30 6104 H 588.698 0.608979 4.57263 0
M  V30 6105 H 586.941 0.641399 4.29032 0
M  V30 6106 H 587.612 -0.455433 5.50118 0
M  V30 6107 H 590.088 -1.49925 3.88152 0
M  V30 6108 H 588.964 -2.38555 4.94351 0
M  V30 6109 H 589.225 -2.94362 3.29854 0
M  V30 6110 N 588.284 -1.56567 -0.180126 0
M  V30 6111 C 589.216 -1.92275 -1.24751 0
M  V30 6112 C 590.229 -0.814922 -1.40936 0
M  V30 6113 O 591.418 -1.09336 -1.41095 0
M  V30 6114 C 588.518 -2.15265 -2.61752 0
M  V30 6115 C 587.691 -3.46467 -2.66981 0
M  V30 6116 C 586.75 -3.58391 -3.85283 0
M  V30 6117 O 585.776 -4.31086 -3.7169 0
M  V30 6118 N 586.978 -2.92587 -5.01371 0
M  V30 6119 H 589.743 -2.84435 -0.944302 0
M  V30 6120 H 587.304 -1.57617 -0.369952 0
M  V30 6121 H 589.296 -2.20515 -3.39345 0
M  V30 6122 H 587.866 -1.29533 -2.845 0
M  V30 6123 H 587.086 -3.52953 -1.75549 0
M  V30 6124 H 588.374 -4.32819 -2.67479 0
M  V30 6125 H 587.772 -2.3338 -5.15316 0
M  V30 6126 H 586.329 -3.03444 -5.76858 0
M  V30 6127 N 589.762 0.448376 -1.51087 0
M  V30 6128 C 590.672 1.56882 -1.74428 0
M  V30 6129 C 591.688 1.62268 -0.62809 0
M  V30 6130 O 592.864 1.79716 -0.909075 0
M  V30 6131 C 589.929 2.92947 -1.85426 0
M  V30 6132 C 588.99 2.97766 -3.09247 0
M  V30 6133 C 588.223 4.27341 -3.19711 0
M  V30 6134 O 588.446 5.19112 -2.36387 0
M  V30 6135 O 587.38 4.38219 -4.12611 0
M  V30 6136 H 591.206 1.40104 -2.69452 0
M  V30 6137 H 588.791 0.630247 -1.35456 0
M  V30 6138 H 590.673 3.73719 -1.94709 0
M  V30 6139 H 589.348 3.09876 -0.935887 0
M  V30 6140 H 588.255 2.15989 -3.0545 0
M  V30 6141 H 589.588 2.8578 -4.00738 0
M  V30 6142 N 591.24 1.41047 0.703093 0
M  V30 6143 C 592.203 1.42036 1.79884 0
M  V30 6144 C 593.203 0.312153 1.57741 0
M  V30 6145 O 594.393 0.571672 1.64553 0
M  V30 6146 C 591.525 1.22437 3.18154 0
M  V30 6147 H 592.718 2.39572 1.80403 0
M  V30 6148 H 590.271 1.27079 0.909977 0
M  V30 6149 H 591.006 0.257112 3.23279 0
M  V30 6150 H 590.791 2.02723 3.35627 0
M  V30 6151 H 592.281 1.25946 3.98155 0
M  V30 6152 N 592.718 -0.936591 1.26751 0
M  V30 6153 C 593.65 -2.03991 1.045 0
M  V30 6154 C 594.663 -1.628 0.00394261 0
M  V30 6155 O 595.852 -1.76817 0.244526 0
M  V30 6156 C 592.952 -3.34218 0.561403 0
M  V30 6157 C 592.125 -4.04151 1.67274 0
M  V30 6158 C 591.184 -5.12651 1.1864 0
M  V30 6159 O 590.21 -5.37104 1.88437 0
M  V30 6160 N 591.412 -5.80488 0.037278 0
M  V30 6161 H 594.177 -2.23644 1.99508 0
M  V30 6162 H 591.738 -1.10638 1.18198 0
M  V30 6163 H 593.73 -4.04101 0.220136 0
M  V30 6164 H 592.3 -3.11203 -0.295211 0
M  V30 6165 H 591.52 -3.28121 2.18472 0
M  V30 6166 H 592.808 -4.47626 2.41885 0
M  V30 6167 H 592.206 -5.63064 -0.545494 0
M  V30 6168 H 590.763 -6.5134 -0.244877 0
M  V30 6169 N 594.196 -1.08629 -1.14182 0
M  V30 6170 C 595.143 -0.718299 -2.19338 0
M  V30 6171 C 596.113 0.296587 -1.63431 0
M  V30 6172 O 597.298 0.180079 -1.89948 0
M  V30 6173 C 594.438 -0.136203 -3.44831 0
M  V30 6174 C 593.551 -1.20414 -4.14879 0
M  V30 6175 C 592.686 -0.585666 -5.27962 0
M  V30 6176 C 591.725 -1.63548 -5.89846 0
M  V30 6177 N 590.862 -1.03864 -6.94375 0
M  V30 6178 H 595.702 -1.61932 -2.50164 0
M  V30 6179 H 593.239 -0.80919 -1.22844 0
M  V30 6180 H 595.197 0.219021 -4.16625 0
M  V30 6181 H 593.827 0.728121 -3.14481 0
M  V30 6182 H 592.879 -1.67676 -3.41451 0
M  V30 6183 H 594.191 -1.99959 -4.56966 0
M  V30 6184 H 593.345 -0.178818 -6.06436 0
M  V30 6185 H 592.084 0.24142 -4.87102 0
M  V30 6186 H 591.089 -2.05197 -5.10073 0
M  V30 6187 H 592.314 -2.46509 -6.3278 0
M  V30 6188 H 590.26 -0.232687 -6.55587 0
M  V30 6189 H 590.177 -1.77116 -7.3496 0
M  V30 6190 H 591.445 -0.657724 -7.7672 0
M  V30 6191 N 595.674 1.31259 -0.872281 0
M  V30 6192 C 596.923 1.95893 -0.480493 0
M  V30 6193 C 597.236 1.697 0.972688 0
M  V30 6194 O 598.442 2.28214 1.47073 0
M  V30 6195 C 596.898 3.50705 -0.808342 0
M  V30 6196 C 596.506 3.85735 -2.27844 0
M  V30 6197 C 598.25 4.21719 -0.485136 0
M  V30 6198 C 596.157 5.33668 -2.54858 0
M  V30 6199 H 595.087 0.733182 -0.175955 0
M  V30 6200 H 597.738 1.49396 -1.0655 0
M  V30 6201 H 596.12 3.95706 -0.152558 0
M  V30 6202 H 597.294 3.51686 -2.97748 0
M  V30 6203 H 595.609 3.27792 -2.56791 0
M  V30 6204 H 598.206 5.30559 -0.664166 0
M  V30 6205 H 598.549 4.12316 0.574592 0
M  V30 6206 H 599.082 3.82359 -1.09756 0
M  V30 6207 H 595.821 5.48109 -3.59523 0
M  V30 6208 H 595.341 5.69061 -1.8955 0
M  V30 6209 H 597.02 6.00958 -2.39706 0
M  V30 6210 N 597.152 0.631951 1.44375 0
M  V30 6211 C 598.082 -0.0593243 2.33425 0
M  V30 6212 C 599.063 -0.833964 1.48253 0
M  V30 6213 O 600.248 -0.799682 1.76971 0
M  V30 6214 C 597.378 -1.04096 3.31333 0
M  V30 6215 C 596.332 -0.377899 4.26328 0
M  V30 6216 C 595.658 -1.4695 5.14111 0
M  V30 6217 C 596.958 0.716371 5.17364 0
M  V30 6218 H 598.652 0.684287 2.91475 0
M  V30 6219 H 596.198 0.330518 1.40156 0
M  V30 6220 H 598.151 -1.53331 3.92514 0
M  V30 6221 H 596.875 -1.81547 2.71493 0
M  V30 6222 H 595.534 0.0938054 3.6648 0
M  V30 6223 H 595.182 -2.2349 4.50623 0
M  V30 6224 H 594.882 -1.03121 5.78481 0
M  V30 6225 H 596.406 -1.96363 5.78164 0
M  V30 6226 H 597.82 0.307089 5.72477 0
M  V30 6227 H 596.217 1.07784 5.90341 0
M  V30 6228 H 597.287 1.58316 4.58327 0
M  V30 6229 N 598.631 -1.53133 0.372548 0
M  V30 6230 C 599.579 -2.27473 -0.485681 0
M  V30 6231 C 600.573 -1.30719 -1.07745 0
M  V30 6232 O 601.779 -1.48321 -1.01985 0
M  V30 6233 H 598.154 -0.731269 -0.175356 0
M  V30 6234 H 600.125 -2.97955 0.162986 0
M  V30 6235 C 598.874 -3.08191 -1.60978 0
M  V30 6236 H 598.197 -3.82488 -1.16373 0
M  V30 6237 H 599.637 -3.63373 -2.18485 0
M  V30 6238 C 598.096 -2.19461 -2.55614 0
M  V30 6239 O 598.626 -1.81008 -3.58607 0
M  V30 6240 N 596.832 -1.83955 -2.24965 0
M  V30 6241 H 596.379 -2.15423 -1.41247 0
M  V30 6242 H 596.337 -1.24874 -2.88538 0
M  V30 6243 N 600.109 -0.101901 -1.5727 0
M  V30 6244 C 601.057 0.872034 -2.15635 0
M  V30 6245 C 602.051 1.28742 -1.10099 0
M  V30 6246 O 603.257 1.26116 -1.28432 0
M  V30 6247 H 599.632 0.299269 -0.689886 0
M  V30 6248 H 601.603 0.355137 -2.96279 0
M  V30 6249 C 600.352 2.11886 -2.7568 0
M  V30 6250 H 599.675 1.80813 -3.56576 0
M  V30 6251 H 601.115 2.78077 -3.20077 0
M  V30 6252 C 599.574 2.89739 -1.7191 0
M  V30 6253 O 600.104 3.84522 -1.16213 0
M  V30 6254 N 598.31 2.53407 -1.42245 0
M  V30 6255 H 597.857 1.76398 -1.87727 0
M  V30 6256 H 597.815 3.05795 -0.730529 0
M  V30 6257 N 601.587 1.56661 0.17182 0
M  V30 6258 C 602.812 1.86459 0.908165 0
M  V30 6259 C 603.237 0.688181 1.75059 0
M  V30 6260 O 602.595 -0.362753 1.77634 0
M  V30 6261 C 602.643 3.14669 1.76112 0
M  V30 6262 O 601.747 2.96858 2.86268 0
M  V30 6263 H 601.088 0.613318 0.254434 0
M  V30 6264 H 603.618 2.03892 0.170113 0
M  V30 6265 H 603.628 3.46061 2.16115 0
M  V30 6266 H 602.303 3.99905 1.14233 0
M  V30 6267 H 600.88 2.76819 2.49852 0
M  V30 6268 N 603.065 -0.440357 1.51323 0
M  V30 6269 C 604.313 -1.18769 1.63518 0
M  V30 6270 C 604.634 -1.91793 0.352201 0
M  V30 6271 O 603.904 -1.85432 -0.631811 0
M  V30 6272 H 602.484 -0.441408 0.602634 0
M  V30 6273 H 605.146 -0.505162 1.8824 0
M  V30 6274 H 604.242 -1.91892 2.46138 0
M  V30 6275 N 604.543 -1.41418 -0.695603 0
M  V30 6276 C 605.473 -1.46035 -1.82197 0
M  V30 6277 C 606.454 -0.319025 -1.67082 0
M  V30 6278 O 607.639 -0.530462 -1.86815 0
M  V30 6279 C 604.769 -1.34179 -3.20333 0
M  V30 6280 C 603.723 -2.46123 -3.50154 0
M  V30 6281 C 603.049 -2.19332 -4.87645 0
M  V30 6282 C 604.349 -3.88463 -3.49133 0
M  V30 6283 H 606.043 -2.40303 -1.78591 0
M  V30 6284 H 603.589 -1.15663 -0.857797 0
M  V30 6285 H 605.542 -1.36021 -3.98844 0
M  V30 6286 H 604.266 -0.363952 -3.24566 0
M  V30 6287 H 602.925 -2.43563 -2.73994 0
M  V30 6288 H 602.573 -1.19891 -4.88503 0
M  V30 6289 H 602.273 -2.94344 -5.08562 0
M  V30 6290 H 603.797 -2.22889 -5.68465 0
M  V30 6291 H 605.211 -3.92738 -4.17648 0
M  V30 6292 H 603.608 -4.63158 -3.81582 0
M  V30 6293 H 604.678 -4.16617 -2.48109 0
M  V30 6294 N 606.021 0.929856 -1.27246 0
M  V30 6295 C 607.432 1.49223 -1.12203 0
M  V30 6296 C 607.783 1.93989 0.293731 0
M  V30 6297 O 606.908 1.80978 1.18642 0
M  V30 6298 C 607.503 2.71198 -2.0307 0
M  V30 6299 C 606.062 3.23666 -1.92139 0
M  V30 6300 C 605.209 1.96409 -1.95752 0
M  V30 6301 H 608.16 0.744181 -1.4017 0
M  V30 6302 H 608.181 3.45905 -1.58524 0
M  V30 6303 H 607.693 2.38585 -3.06102 0
M  V30 6304 H 605.794 3.61042 -0.920834 0
M  V30 6305 H 605.907 3.90006 -2.78267 0
M  V30 6306 H 604.271 2.12806 -1.39949 0
M  V30 6307 H 605.054 1.66113 -3.00436 0
M  V30 6308 N 607.499 1.09233 1.13605 0
M  V30 6309 C 608.748 0.82205 1.84188 0
M  V30 6310 C 609.061 -0.654548 1.84323 0
M  V30 6311 O 610.267 -1.04029 2.50779 0
M  V30 6312 C 608.723 1.42066 3.30674 0
M  V30 6313 C 608.331 2.92965 3.38933 0
M  V30 6314 C 610.075 1.22924 4.06313 0
M  V30 6315 C 607.982 3.45922 4.79679 0
M  V30 6316 H 606.912 0.303854 0.690064 0
M  V30 6317 H 609.563 1.31479 1.28006 0
M  V30 6318 H 607.945 0.855613 3.86646 0
M  V30 6319 H 609.119 3.55679 2.92966 0
M  V30 6320 H 607.434 3.11118 2.76757 0
M  V30 6321 H 610.031 1.59945 5.10217 0
M  V30 6322 H 610.374 0.169726 4.15954 0
M  V30 6323 H 610.907 1.76168 3.56665 0
M  V30 6324 H 607.646 4.51484 4.75229 0
M  V30 6325 H 607.166 2.87971 5.26149 0
M  V30 6326 H 608.845 3.43009 5.48592 0
M  V30 6327 N 608.977 -1.30795 0.87923 0
M  V30 6328 C 610.205 -2.00527 0.509548 0
M  V30 6329 C 610.62 -1.65944 -0.90045 0
M  V30 6330 O 609.977 -0.893525 -1.5913 0
M  V30 6331 C 610.028 -3.55276 0.667943 0
M  V30 6332 O 609.749 -3.88625 2.02242 0
M  V30 6333 C 611.25 -4.4228 0.300494 0
M  V30 6334 H 608.47 -0.641261 0.197549 0
M  V30 6335 H 611.014 -1.66813 1.18295 0
M  V30 6336 H 609.169 -3.87377 0.0419843 0
M  V30 6337 H 609.583 -4.83334 2.03688 0
M  V30 6338 H 611.057 -5.50061 0.462242 0
M  V30 6339 H 611.534 -4.32556 -0.76106 0
M  V30 6340 H 612.14 -4.15613 0.902536 0
M  V30 6341 N 610.455 -0.639598 -1.44038 0
M  V30 6342 C 611.68 -0.153117 -2.06834 0
M  V30 6343 C 612.105 1.16676 -1.47541 0
M  V30 6344 O 611.463 1.71769 -0.580093 0
M  V30 6345 C 611.511 -0.0609169 -3.60549 0
M  V30 6346 O 610.615 0.98071 -4.00569 0
M  V30 6347 H 609.956 -0.0886402 -0.658057 0
M  V30 6348 H 612.486 -0.878674 -1.84771 0
M  V30 6349 H 612.496 0.126892 -4.07803 0
M  V30 6350 H 611.171 -1.0245 -4.03084 0
M  V30 6351 H 609.748 0.766789 -3.64931 0
M  V30 6352 N 611.933 1.52934 -0.380664 0
M  V30 6353 C 612.896 2.24809 0.446473 0
M  V30 6354 C 613.896 1.26133 0.997347 0
M  V30 6355 O 615.086 1.50297 0.880714 0
M  V30 6356 C 612.218 2.99649 1.62553 0
M  V30 6357 H 613.411 2.99343 -0.182677 0
M  V30 6358 H 610.964 1.55736 -0.132618 0
M  V30 6359 H 611.699 2.29395 2.29235 0
M  V30 6360 H 611.484 3.72066 1.23732 0
M  V30 6361 H 612.974 3.54246 2.21133 0
M  V30 6362 N 613.412 0.11024 1.57214 0
M  V30 6363 C 614.661 -0.549638 1.94067 0
M  V30 6364 C 614.974 -1.68388 0.995234 0
M  V30 6365 O 616.18 -2.40593 1.25807 0
M  V30 6366 C 614.636 -1.02912 3.44873 0
M  V30 6367 C 614.244 0.0761861 4.47935 0
M  V30 6368 C 615.988 -1.66087 3.9066 0
M  V30 6369 C 613.895 -0.419502 5.8991 0
M  V30 6370 H 612.825 -0.209092 0.724428 0
M  V30 6371 H 615.476 0.188683 1.82527 0
M  V30 6372 H 613.858 -1.82159 3.51616 0
M  V30 6373 H 615.032 0.852185 4.52851 0
M  V30 6374 H 613.347 0.614052 4.11847 0
M  V30 6375 H 615.944 -2.04272 4.94143 0
M  V30 6376 H 616.287 -2.53591 3.30148 0
M  V30 6377 H 616.82 -0.933959 3.86681 0
M  V30 6378 H 613.559 0.419277 6.54158 0
M  V30 6379 H 613.079 -1.16217 5.88433 0
M  V30 6380 H 614.758 -0.883577 6.40938 0
M  V30 6381 N 614.89 -1.56749 -0.16351 0
M  V30 6382 C 616.167 -1.73321 -0.906599 0
M  V30 6383 C 616.547 -0.673779 -2.00059 0
M  V30 6384 O 615.895 0.310121 -2.26386 0
M  V30 6385 C 616.105 -3.168 -1.46419 0
M  V30 6386 C 617.453 -3.77993 -1.93407 0
M  V30 6387 O 618.477 -3.20127 -1.56196 0
M  V30 6388 O 617.336 -4.79615 -2.61976 0
M  V30 6389 H 614.43 -0.708073 -0.427272 0
M  V30 6390 H 616.976 -1.69029 -0.150727 0
M  V30 6391 H 615.748 -3.85396 -0.677189 0
M  V30 6392 H 615.371 -3.2545 -2.28403 0
M  V30 6393 N 616.368 0.432326 -1.51554 0
M  V30 6394 C 617.298 1.53242 -1.76179 0
M  V30 6395 C 618.279 1.58717 -0.611801 0
M  V30 6396 O 619.464 1.74364 -0.855033 0
M  V30 6397 C 616.594 2.91278 -1.89141 0
M  V30 6398 C 615.548 3.00663 -3.04608 0
M  V30 6399 C 614.874 4.40728 -3.02759 0
M  V30 6400 C 616.174 2.74281 -4.44485 0
M  V30 6401 H 617.868 1.32886 -2.68294 0
M  V30 6402 H 615.414 0.637841 -1.29103 0
M  V30 6403 H 617.367 3.68203 -2.04951 0
M  V30 6404 H 616.091 3.12877 -0.936785 0
M  V30 6405 H 614.75 2.26179 -2.88511 0
M  V30 6406 H 614.398 4.59301 -2.05065 0
M  V30 6407 H 614.098 4.47936 -3.80299 0
M  V30 6408 H 615.622 5.19619 -3.20669 0
M  V30 6409 H 617.036 3.40936 -4.60907 0
M  V30 6410 H 615.433 2.92893 -5.23769 0
M  V30 6411 H 616.503 1.69856 -4.54177 0
M  V30 6412 N 617.846 1.41785 0.688094 0
M  V30 6413 C 618.756 1.46596 1.83158 0
M  V30 6414 C 619.772 0.355862 1.70322 0
M  V30 6415 O 620.948 0.604737 1.92106 0
M  V30 6416 C 618.013 1.35322 3.192 0
M  V30 6417 C 617.074 2.56711 3.4409 0
M  V30 6418 C 616.307 2.45965 4.73642 0
M  V30 6419 O 616.53 1.48827 5.50642 0
M  V30 6420 O 615.464 3.35859 4.99482 0
M  V30 6421 H 619.29 2.43083 1.82056 0
M  V30 6422 H 616.875 1.23404 0.842126 0
M  V30 6423 H 618.757 1.31347 4.00407 0
M  V30 6424 H 617.432 0.419536 3.2097 0
M  V30 6425 H 616.339 2.66262 2.62784 0
M  V30 6426 H 617.672 3.48933 3.47141 0
M  V30 6427 N 619.324 -0.923095 1.27737 0
M  V30 6428 C 620.601 -1.64989 1.05062 0
M  V30 6429 C 620.981 -2.07018 -0.413124 0
M  V30 6430 O 620.329 -1.80797 -1.39731 0
M  V30 6431 C 620.539 -2.84847 2.01652 0
M  V30 6432 C 621.887 -3.56083 2.31279 0
M  V30 6433 O 622.911 -2.94981 1.99662 0
M  V30 6434 O 621.77 -4.66182 2.85196 0
M  V30 6435 H 618.864 -0.723357 0.400853 0
M  V30 6436 H 621.41 -0.973224 1.3902 0
M  V30 6437 H 620.182 -2.50814 3.00347 0
M  V30 6438 H 619.805 -3.60231 1.68284 0
M  V30 6439 N 620.802 -1.09834 -1.13024 0
M  V30 6440 C 621.765 -0.745058 -2.16752 0
M  V30 6441 C 622.765 0.227435 -1.59183 0
M  V30 6442 O 623.955 0.0050786 -1.74199 0
M  V30 6443 C 621.087 -0.102543 -3.40746 0
M  V30 6444 H 622.28 -1.66375 -2.49518 0
M  V30 6445 H 619.833 -0.898061 -1.27924 0
M  V30 6446 H 620.568 0.827177 -3.13573 0
M  V30 6447 H 620.353 -0.80235 -3.83803 0
M  V30 6448 H 621.843 0.129082 -4.174 0
M  V30 6449 N 622.28 1.30327 -0.886154 0
M  V30 6450 C 623.243 2.26376 -0.358687 0
M  V30 6451 C 624.243 1.52845 0.499498 0
M  V30 6452 O 625.433 1.71483 0.306485 0
M  V30 6453 C 622.565 3.37379 0.488726 0
M  V30 6454 H 623.758 2.74547 -1.20681 0
M  V30 6455 H 621.311 1.41536 -0.663113 0
M  V30 6456 H 622.046 2.94526 1.35739 0
M  V30 6457 H 621.831 3.91897 -0.126003 0
M  V30 6458 H 623.321 4.08868 0.84952 0
M  V30 6459 N 623.758 0.647228 1.43697 0
M  V30 6460 C 624.705 -0.0480092 2.3075 0
M  V30 6461 C 625.675 -0.820705 1.44408 0
M  V30 6462 O 626.86 -0.798515 1.73287 0
M  V30 6463 C 624 -1.01259 3.2991 0
M  V30 6464 C 623.113 -0.236629 4.31351 0
M  V30 6465 C 622.248 -1.19447 5.17596 0
M  V30 6466 C 621.287 -0.408595 6.10735 0
M  V30 6467 N 620.424 -1.31772 6.89623 0
M  V30 6468 H 625.264 0.700238 2.89656 0
M  V30 6469 H 622.801 0.357082 1.427 0
M  V30 6470 H 624.759 -1.58538 3.85903 0
M  V30 6471 H 623.389 -1.72778 2.72667 0
M  V30 6472 H 622.441 0.452353 3.77701 0
M  V30 6473 H 623.753 0.374731 4.9739 0
M  V30 6474 H 622.907 -1.83809 5.78186 0
M  V30 6475 H 621.646 -1.83975 4.51669 0
M  V30 6476 H 620.651 0.24841 5.49239 0
M  V30 6477 H 621.876 0.232188 6.78703 0
M  V30 6478 H 619.822 -1.94991 6.2635 0
M  V30 6479 H 619.739 -0.760779 7.52162 0
M  V30 6480 H 621.007 -1.94967 7.54724 0
M  V30 6481 N 625.236 -1.5273 0.388769 0
M  V30 6482 C 626.183 -2.26437 -0.446639 0
M  V30 6483 C 627.153 -1.28025 -1.05824 0
M  V30 6484 O 628.338 -1.56852 -1.08637 0
M  V30 6485 C 625.478 -3.07407 -1.56828 0
M  V30 6486 C 624.591 -4.20747 -0.979589 0
M  V30 6487 C 623.726 -4.89113 -2.07224 0
M  V30 6488 C 622.765 -5.94447 -1.45942 0
M  V30 6489 N 621.902 -6.56411 -2.49135 0
M  V30 6490 H 626.742 -2.97404 0.18837 0
M  V30 6491 H 624.279 -1.46727 0.104725 0
M  V30 6492 H 626.237 -3.52642 -2.22934 0
M  V30 6493 H 624.867 -2.3865 -2.17361 0
M  V30 6494 H 623.919 -3.7983 -0.208151 0
M  V30 6495 H 625.231 -4.9637 -0.491747 0
M  V30 6496 H 624.385 -5.3765 -2.81101 0
M  V30 6497 H 623.124 -4.13013 -2.59368 0
M  V30 6498 H 622.129 -5.4525 -0.705894 0
M  V30 6499 H 623.354 -6.7248 -0.945932 0
M  V30 6500 H 621.3 -5.83152 -3.00449 0
M  V30 6501 H 621.217 -7.27645 -2.05105 0
M  V30 6502 H 622.485 -7.09592 -3.22644 0
M  V30 6503 N 626.714 -0.118576 -1.57153 0
M  V30 6504 C 627.677 0.817464 -2.14127 0
M  V30 6505 C 628.677 1.1949 -1.07604 0
M  V30 6506 O 629.867 1.12048 -1.33382 0
M  V30 6507 C 626.999 2.10541 -2.68115 0
M  V30 6508 H 628.192 0.322339 -2.98163 0
M  V30 6509 H 625.745 0.130655 -1.55753 0
M  V30 6510 H 626.48 2.64485 -1.87665 0
M  V30 6511 H 626.265 1.84425 -3.4602 0
M  V30 6512 H 627.755 2.77453 -3.12105 0
M  V30 6513 N 628.193 1.56834 0.155195 0
M  V30 6514 C 629.439 1.83169 0.870467 0
M  V30 6515 C 629.772 0.698929 1.81187 0
M  V30 6516 O 629.047 -0.298035 1.92203 0
M  V30 6517 C 629.33 3.19965 1.65211 0
M  V30 6518 C 629.183 4.43792 0.732744 0
M  V30 6519 C 630.502 3.53885 2.61636 0
M  V30 6520 H 627.621 0.666288 0.315006 0
M  V30 6521 H 630.263 1.89513 0.135988 0
M  V30 6522 H 628.413 3.14687 2.27825 0
M  V30 6523 H 630.085 4.61148 0.118236 0
M  V30 6524 H 628.328 4.3378 0.0417906 0
M  V30 6525 H 628.999 5.36095 1.31552 0
M  V30 6526 H 631.475 3.5972 2.09143 0
M  V30 6527 H 630.351 4.50648 3.13381 0
M  V30 6528 H 630.612 2.79418 3.42605 0
M  V30 6529 N 629.671 -0.424282 1.51781 0
M  V30 6530 C 630.634 -1.49848 1.73431 0
M  V30 6531 C 631.634 -1.49016 0.604225 0
M  V30 6532 O 632.824 -1.50808 0.871935 0
M  V30 6533 C 629.956 -2.89332 1.80277 0
M  V30 6534 H 631.149 -1.3195 2.69312 0
M  V30 6535 H 628.702 -0.653809 1.41968 0
M  V30 6536 H 629.437 -3.12618 0.862568 0
M  V30 6537 H 629.222 -2.9134 2.62419 0
M  V30 6538 H 630.712 -3.67233 1.98821 0
M  V30 6539 N 631.149 -1.42148 -0.680565 0
M  V30 6540 C 632.374 -1.45901 -1.47403 0
M  V30 6541 C 632.799 -0.0700985 -1.87969 0
M  V30 6542 O 632.157 0.930145 -1.55621 0
M  V30 6543 C 632.205 -2.38661 -2.70321 0
M  V30 6544 O 631.309 -1.85399 -3.68376 0
M  V30 6545 H 630.65 -0.494565 -0.443059 0
M  V30 6546 H 633.18 -1.86774 -0.835251 0
M  V30 6547 H 633.19 -2.55046 -3.18458 0
M  V30 6548 H 631.865 -3.39571 -2.40134 0
M  V30 6549 H 630.442 -1.78541 -3.2738 0
M  V30 6550 N 632.627 0.916307 -1.28225 0
M  V30 6551 C 633.873 1.66765 -1.154 0
M  V30 6552 C 634.206 1.91912 0.297251 0
M  V30 6553 O 633.481 1.51766 1.21644 0
M  V30 6554 C 633.764 3.02715 -1.95028 0
M  V30 6555 C 633.617 2.84738 -3.48201 0
M  V30 6556 C 634.936 4.03215 -1.76369 0
M  V30 6557 H 632.055 0.605205 -0.42059 0
M  V30 6558 H 634.697 1.06255 -1.57512 0
M  V30 6559 H 632.847 3.54365 -1.59242 0
M  V30 6560 H 634.519 2.40118 -3.9388 0
M  V30 6561 H 632.762 2.19848 -3.73964 0
M  V30 6562 H 633.433 3.8127 -3.99171 0
M  V30 6563 H 635.909 3.60617 -2.07593 0
M  V30 6564 H 634.785 4.96306 -2.34459 0
M  V30 6565 H 635.046 4.36288 -0.71452 0
M  V30 6566 N 634.105 1.10431 1.1244 0
M  V30 6567 C 635.068 0.756542 2.16354 0
M  V30 6568 C 636.068 -0.21899 1.59302 0
M  V30 6569 O 637.258 0.00415969 1.742 0
M  V30 6570 C 634.39 0.120612 3.40687 0
M  V30 6571 H 635.583 1.67696 2.48632 0
M  V30 6572 H 633.136 0.904832 1.27446 0
M  V30 6573 H 633.871 -0.810536 3.14008 0
M  V30 6574 H 633.656 0.822693 3.83372 0
M  V30 6575 H 635.146 -0.106945 4.17463 0
M  V30 6576 N 635.583 -1.29855 0.893053 0
M  V30 6577 C 636.53 -2.27909 0.364161 0
M  V30 6578 C 637.5 -1.56726 -0.550093 0
M  V30 6579 O 638.685 -1.84747 -0.47677 0
M  V30 6580 C 635.825 -3.42678 -0.408178 0
M  V30 6581 C 634.938 -4.28659 0.536212 0
M  V30 6582 C 634.073 -5.30599 -0.252521 0
M  V30 6583 C 633.112 -6.08234 0.686822 0
M  V30 6584 N 632.249 -7.02068 -0.0670902 0
M  V30 6585 H 637.089 -2.72531 1.20544 0
M  V30 6586 H 634.626 -1.34047 0.605779 0
M  V30 6587 H 636.584 -4.07986 -0.871962 0
M  V30 6588 H 635.214 -2.99103 -1.21397 0
M  V30 6589 H 634.266 -3.63584 1.1185 0
M  V30 6590 H 635.578 -4.8274 1.25552 0
M  V30 6591 H 634.732 -6.01694 -0.777801 0
M  V30 6592 H 633.471 -4.77233 -1.005 0
M  V30 6593 H 632.476 -5.3601 1.22366 0
M  V30 6594 H 633.701 -6.63689 1.43852 0
M  V30 6595 H 631.647 -6.5108 -0.801955 0
M  V30 6596 H 631.564 -7.53675 0.59243 0
M  V30 6597 H 632.832 -7.77392 -0.572851 0
M  V30 6598 N 637.061 -0.65484 -1.43351 0
M  V30 6599 C 638.008 0.0357713 -2.30772 0
M  V30 6600 C 638.978 0.813035 -1.44841 0
M  V30 6601 O 640.163 0.789314 -1.73708 0
M  V30 6602 C 637.303 0.995084 -3.30442 0
M  V30 6603 C 636.416 0.21375 -4.31471 0
M  V30 6604 C 635.551 1.16701 -5.18222 0
M  V30 6605 C 634.59 0.376201 -6.10943 0
M  V30 6606 N 633.727 1.28113 -6.90313 0
M  V30 6607 H 638.567 -0.71559 -2.89281 0
M  V30 6608 H 636.104 -0.364645 -1.42509 0
M  V30 6609 H 638.062 1.5649 -3.86739 0
M  V30 6610 H 636.692 1.7133 -2.7358 0
M  V30 6611 H 635.744 -0.472377 -3.77456 0
M  V30 6612 H 637.056 -0.401103 -4.97185 0
M  V30 6613 H 636.21 1.8074 -5.79153 0
M  V30 6614 H 634.949 1.81577 -4.52638 0
M  V30 6615 H 633.954 -0.277534 -5.49099 0
M  V30 6616 H 635.179 -0.268178 -6.7857 0
M  V30 6617 H 633.125 1.91666 -6.27376 0
M  V30 6618 H 633.042 0.720879 -7.52555 0
M  V30 6619 H 634.31 1.90962 -7.55747 0
M  V30 6620 O 638.578 1.52239 -0.539034 0
M  V30 6621 H 639.269 1.93674 -0.0315656 0
M  V30 END ATOM
M  V30 BEGIN BOND
M  V30 END BOND
M  V30 END CTAB
M  END
$$$$
