drugbank_target|Q96KG9 N-terminal kinase-like protein (DB05036)
 OpenBabel12092120223D

  0  0  0     0  0            999 V3000
M  V30 BEGIN CTAB
M  V30 COUNTS 12516 12679 0 0 0
M  V30 BEGIN ATOM
M  V30 1 H -0.908 1.98254 -0.117106 0
M  V30 2 N 0 1.576 0 0
M  V30 3 C 0.933 2.03868 1.02534 0
M  V30 4 C 1.911 0.928543 1.3348 0
M  V30 5 O 3.095 1.19667 1.45644 0
M  V30 6 C 0.222 2.43627 2.35294 0
M  V30 7 C -0.732 3.65373 2.2001 0
M  V30 8 S 0.101 5.13292 1.52614 0
M  V30 9 C 1.257 5.56322 2.86805 0
M  V30 10 H 1.49 2.90518 0.631377 0
M  V30 11 H -0.977 1.52953 0.210867 0
M  V30 12 H 0.981 2.67203 3.11629 0
M  V30 13 H -0.358 1.57376 2.7183 0
M  V30 14 H -1.165 3.90944 3.18086 0
M  V30 15 H -1.563 3.418 1.51819 0
M  V30 16 H 0.729 5.58782 3.83104 0
M  V30 17 H 1.672 6.56266 2.65933 0
M  V30 18 H 2.08 4.83886 2.90714 0
M  V30 19 N 1.4781 -0.272755 1.55222 0
M  V30 20 C 2.7241 -1.00172 1.77023 0
M  V30 21 C 3.0791 -1.83928 0.564633 0
M  V30 22 O 2.3721 -1.86416 -0.442674 0
M  V30 23 C 2.5661 -1.91642 3.01675 0
M  V30 24 C 2.3951 -1.16888 4.34243 0
M  V30 25 C 1.1651 -0.884464 4.97499 0
M  V30 26 C 3.3631 -0.55919 5.11251 0
M  V30 27 N 1.3451 -0.11015 6.13801 0
M  V30 28 C 2.7161 0.0809469 6.19947 0
M  V30 29 C 4.7711 -0.467058 4.95705 0
M  V30 30 C 3.4741 0.804335 7.14789 0
M  V30 31 C 5.5001 0.242739 5.90902 0
M  V30 32 C 4.8621 0.871613 6.98987 0
M  V30 33 H 0.9611 -0.348529 0.700037 0
M  V30 34 H 3.5451 -0.277365 1.92714 0
M  V30 35 H 1.7161 -2.61303 2.87359 0
M  V30 36 H 3.4481 -2.57901 3.1188 0
M  V30 37 H 0.2031 -1.18979 4.58411 0
M  V30 38 H 0.6271 0.264344 6.76484 0
M  V30 39 H 5.2691 -0.93894 4.12242 0
M  V30 40 H 2.9871 1.2879 7.97771 0
M  V30 41 H 6.5731 0.314347 5.8095 0
M  V30 42 H 5.4531 1.4121 7.71381 0
M  V30 43 N 2.9562 -1.48159 -0.537278 0
M  V30 44 C 4.2032 -1.55804 -1.29349 0
M  V30 45 C 4.5312 -0.228802 -1.9315 0
M  V30 46 O 3.7862 0.780242 -1.79473 0
M  V30 47 C 4.0852 -2.63956 -2.40961 0
M  V30 48 C 3.7512 -4.0662 -1.94861 0
M  V30 49 C 2.4132 -4.45452 -1.82006 0
M  V30 50 C 4.7652 -4.96055 -1.59933 0
M  V30 51 C 2.0932 -5.71531 -1.32547 0
M  V30 52 C 4.4452 -6.22617 -1.11939 0
M  V30 53 C 3.1092 -6.60312 -0.976951 0
M  V30 54 H 2.3792 -0.570129 -0.473322 0
M  V30 55 H 5.0262 -1.81845 -0.600372 0
M  V30 56 H 3.3312 -2.31747 -3.15912 0
M  V30 57 H 5.0282 -2.67089 -2.99107 0
M  V30 58 H 1.6182 -3.75949 -2.05815 0
M  V30 59 H 5.8022 -4.66738 -1.68728 0
M  V30 60 H 1.0582 -5.99468 -1.202 0
M  V30 61 H 5.2322 -6.91318 -0.839811 0
M  V30 62 H 2.8592 -7.57895 -0.591501 0
M  V30 63 N 4.4343 0.785586 -1.36625 0
M  V30 64 C 5.6813 1.54362 -1.31067 0
M  V30 65 C 6.0093 1.94195 0.10893 0
M  V30 66 O 5.2643 1.63262 1.07908 0
M  V30 67 C 5.5633 2.83007 -2.1827 0
M  V30 68 C 5.2293 2.62294 -3.6676 0
M  V30 69 C 3.8913 2.56353 -4.0723 0
M  V30 70 C 6.2433 2.43371 -4.6089 0
M  V30 71 C 3.5713 2.29461 -5.39967 0
M  V30 72 C 5.9233 2.18005 -5.93849 0
M  V30 73 C 4.5873 2.105 -6.3344 0
M  V30 74 H 3.8573 0.564851 -0.479609 0
M  V30 75 H 6.5043 0.906028 -1.68711 0
M  V30 76 H 4.8093 3.51253 -1.73576 0
M  V30 77 H 6.5063 3.40817 -2.11292 0
M  V30 78 H 3.0963 2.67774 -3.34656 0
M  V30 79 H 7.2803 2.46959 -4.30494 0
M  V30 80 H 2.5363 2.22135 -5.69619 0
M  V30 81 H 6.7103 2.02359 -6.66351 0
M  V30 82 H 4.3373 1.89425 -7.36222 0
M  V30 83 N 5.9124 1.20967 1.01018 0
M  V30 84 C 6.8754 0.965918 2.07853 0
M  V30 85 C 7.8754 -0.0610545 1.60684 0
M  V30 86 O 9.0654 0.175681 1.73312 0
M  V30 87 C 6.1974 0.455513 3.37843 0
M  V30 88 H 7.3904 1.91365 2.3091 0
M  V30 89 H 4.9434 1.02594 1.17916 0
M  V30 90 H 5.6784 -0.497381 3.20463 0
M  V30 91 H 5.4634 1.19622 3.73407 0
M  V30 92 H 6.9534 0.304667 4.16487 0
M  V30 93 N 7.3905 -1.2043 1.01659 0
M  V30 94 C 8.8065 -1.41852 0.731442 0
M  V30 95 C 9.0065 -1.89358 -0.688898 0
M  V30 96 O 8.0625 -2.06247 -1.45666 0
M  V30 97 C 9.3755 -2.44019 1.75714 0
M  V30 98 C 10.9235 -2.57785 1.77527 0
M  V30 99 C 11.3985 -3.63194 2.79023 0
M  V30 100 N 12.8895 -3.70678 2.77763 0
M  V30 101 C 13.6245 -4.51897 3.52954 0
M  V30 102 N 13.1205 -5.36921 4.37821 0
M  V30 103 N 14.9135 -4.4643 3.41551 0
M  V30 104 H 7.0645 -0.879093 1.93354 0
M  V30 105 H 9.3275 -0.448425 0.835236 0
M  V30 106 H 9.0335 -2.1611 2.77469 0
M  V30 107 H 8.9075 -3.43007 1.56927 0
M  V30 108 H 11.2945 -2.85023 0.764569 0
M  V30 109 H 11.3755 -1.58992 2.00387 0
M  V30 110 H 11.0195 -3.36699 3.80258 0
M  V30 111 H 10.9495 -4.61609 2.53425 0
M  V30 112 H 13.4405 -3.09944 2.16201 0
M  V30 113 H 13.7535 -5.95981 4.91962 0
M  V30 114 H 12.0985 -5.36424 4.41899 0
M  V30 115 H 15.2895 -3.79042 2.74672 0
M  V30 116 H 15.4625 -5.09491 4.00404 0
M  V30 117 N 8.8686 -0.792821 -1.36206 0
M  V30 118 C 10.1456 -0.290627 -1.93429 0
M  V30 119 C 10.5256 1.21773 -1.72437 0
M  V30 120 O 9.8736 2.0108 -1.08531 0
M  V30 121 C 10.0836 -0.686973 -3.42172 0
M  V30 122 C 11.4316 -0.668643 -4.19302 0
M  V30 123 O 12.4556 -0.627658 -3.50626 0
M  V30 124 O 11.3146 -0.714597 -5.41808 0
M  V30 125 H 8.4086 -0.0727927 -0.82379 0
M  V30 126 H 10.9546 -0.875593 -1.45367 0
M  V30 127 H 9.7266 -1.72711 -3.51122 0
M  V30 128 H 9.3496 -0.0760733 -3.97527 0
M  V30 129 N 10.3467 1.47872 -0.545128 0
M  V30 130 C 11.7577 1.86384 -0.108581 0
M  V30 131 C 12.1087 1.45309 1.31832 0
M  V30 132 O 11.2337 0.850641 1.9898 0
M  V30 133 C 11.8287 3.38265 -0.190274 0
M  V30 134 C 10.3877 3.75914 0.191164 0
M  V30 135 C 9.5347 2.71926 -0.543273 0
M  V30 136 H 12.4857 1.39561 -0.755537 0
M  V30 137 H 12.5067 3.75831 0.594217 0
M  V30 138 H 12.0187 3.6813 -1.2289 0
M  V30 139 H 10.1197 3.51665 1.23136 0
M  V30 140 H 10.2327 4.78836 -0.158987 0
M  V30 141 H 8.5967 2.54697 0.0122495 0
M  V30 142 H 9.3797 3.04634 -1.58282 0
M  V30 143 N 11.8248 0.280983 1.55075 0
M  V30 144 C 13.0708 -0.33461 2.00021 0
M  V30 145 C 13.4038 -1.55063 1.16915 0
M  V30 146 O 12.6788 -1.93006 0.240646 0
M  V30 147 C 12.9618 -0.711007 3.53011 0
M  V30 148 C 12.8148 0.512766 4.46868 0
M  V30 149 C 14.1338 -1.54522 4.12081 0
M  V30 150 H 11.2528 -0.120147 0.727141 0
M  V30 151 H 13.8948 0.389097 1.85973 0
M  V30 152 H 12.0448 -1.32761 3.65112 0
M  V30 153 H 13.7168 1.15131 4.46702 0
M  V30 154 H 11.9598 1.14975 4.18286 0
M  V30 155 H 12.6308 0.205556 5.51617 0
M  V30 156 H 15.1068 -1.02442 4.03293 0
M  V30 157 H 13.9828 -1.77739 5.19327 0
M  V30 158 H 14.2438 -2.52813 3.62682 0
M  V30 159 N 13.3029 -1.57598 0.00835791 0
M  V30 160 C 14.7189 -1.55764 -0.347822 0
M  V30 161 C 14.9189 -1.01186 -1.74252 0
M  V30 162 O 13.9749 -0.649371 -2.44007 0
M  V30 163 C 15.2879 -2.99927 -0.215407 0
M  V30 164 C 16.8359 -3.11656 -0.289725 0
M  V30 165 C 17.3109 -4.57621 -0.18634 0
M  V30 166 N 18.8019 -4.62557 -0.243978 0
M  V30 167 C 19.5369 -5.73094 -0.18745 0
M  V30 168 N 19.0329 -6.92753 -0.0810331 0
M  V30 169 N 20.8259 -5.61588 -0.239925 0
M  V30 170 H 12.9769 -1.91411 0.92062 0
M  V30 171 H 15.2399 -0.879562 0.353659 0
M  V30 172 H 14.9459 -3.43729 0.744512 0
M  V30 173 H 14.8199 -3.63865 -0.994097 0
M  V30 174 H 17.2069 -2.67779 -1.24009 0
M  V30 175 H 17.2879 -2.5048 0.51898 0
M  V30 176 H 16.9319 -5.02174 0.760519 0
M  V30 177 H 16.8619 -5.16752 -1.01364 0
M  V30 178 H 19.3529 -3.76481 -0.327217 0
M  V30 179 H 19.6659 -7.72787 -0.0440241 0
M  V30 180 H 18.0109 -6.94984 -0.0465419 0
M  V30 181 H 21.2019 -4.66996 -0.321317 0
M  V30 182 H 21.3749 -6.47714 -0.192407 0
M  V30 183 N 14.781 0.264519 -1.55364 0
M  V30 184 C 16.058 1.01677 -1.67096 0
M  V30 185 C 16.438 2.03996 -0.543015 0
M  V30 186 O 15.786 2.23907 0.45585 0
M  V30 187 C 15.996 1.66596 -3.0667 0
M  V30 188 C 17.344 2.17442 -3.64697 0
M  V30 189 O 18.368 1.76568 -3.09358 0
M  V30 190 O 17.227 2.92439 -4.61673 0
M  V30 191 H 14.321 0.472161 -0.678965 0
M  V30 192 H 16.867 0.259703 -1.67701 0
M  V30 193 H 15.639 0.924962 -3.80211 0
M  V30 194 H 15.262 2.48968 -3.10001 0
M  V30 195 N 16.2591 1.48442 0.529413 0
M  V30 196 C 17.5061 1.56488 1.28521 0
M  V30 197 C 17.8341 0.239042 1.93025 0
M  V30 198 O 17.0891 -0.770713 1.79885 0
M  V30 199 C 17.3881 2.6523 2.39558 0
M  V30 200 C 17.0541 4.07648 1.92702 0
M  V30 201 C 15.7161 4.46411 1.79641 0
M  V30 202 C 18.0681 4.96896 1.573 0
M  V30 203 C 15.3961 5.72226 1.29514 0
M  V30 204 C 17.7481 6.23202 1.08636 0
M  V30 205 C 16.4121 6.60821 0.941919 0
M  V30 206 H 15.6821 0.572631 0.470292 0
M  V30 207 H 18.3291 1.82161 0.59072 0
M  V30 208 H 16.6341 2.33419 3.14679 0
M  V30 209 H 18.3311 2.68671 2.97686 0
M  V30 210 H 14.9211 3.77036 2.03819 0
M  V30 211 H 19.1051 4.67626 1.66251 0
M  V30 212 H 14.3611 6.00097 1.17019 0
M  V30 213 H 18.5351 6.91753 0.803136 0
M  V30 214 H 16.1621 7.58198 0.5513 0
M  V30 215 N 17.7372 -0.778329 1.37039 0
M  V30 216 C 19.1482 -1.35421 1.28523 0
M  V30 217 C 19.4992 -1.96075 -0.0700901 0
M  V30 218 O 18.6242 -1.93352 -0.971801 0
M  V30 219 C 19.2192 -2.46211 2.32735 0
M  V30 220 C 17.7782 -2.99585 2.27873 0
M  V30 221 C 16.9252 -1.72748 2.16918 0
M  V30 222 H 19.8762 -0.5791 1.47757 0
M  V30 223 H 19.8972 -3.2552 1.9702 0
M  V30 224 H 19.4092 -2.02036 3.31365 0
M  V30 225 H 17.5102 -3.48152 1.32745 0
M  V30 226 H 17.6232 -3.55646 3.21018 0
M  V30 227 H 15.9872 -1.95416 1.63354 0
M  V30 228 H 16.7702 -1.30686 3.17452 0
M  V30 229 N 19.2153 -1.21501 -1.00376 0
M  V30 230 C 20.4623 -1.03299 -1.74171 0
M  V30 231 C 20.7903 0.433326 -1.89612 0
M  V30 232 O 20.0453 1.33779 -1.42834 0
M  V30 233 C 20.3443 -1.67673 -3.15627 0
M  V30 234 C 20.0103 -3.17533 -3.2013 0
M  V30 235 C 18.6723 -3.58427 -3.21067 0
M  V30 236 C 21.0243 -4.13504 -3.17275 0
M  V30 237 C 18.3523 -4.93794 -3.16835 0
M  V30 238 C 20.7043 -5.48834 -3.14585 0
M  V30 239 C 19.3683 -5.89123 -3.13831 0
M  V30 240 H 18.6383 -0.377999 -0.637336 0
M  V30 241 H 21.2853 -1.51111 -1.17634 0
M  V30 242 H 19.5903 -1.12158 -3.75404 0
M  V30 243 H 21.2873 -1.51091 -3.71446 0
M  V30 244 H 17.8773 -2.84965 -3.20145 0
M  V30 245 H 22.0613 -3.82936 -3.15711 0
M  V30 246 H 17.3173 -5.24255 -3.1459 0
M  V30 247 H 21.4913 -6.22934 -3.1133 0
M  V30 248 H 19.1183 -6.93984 -3.10307 0
M  V30 249 N 20.6934 1.19889 -1.02296 0
M  V30 250 C 21.6034 2.26571 -0.608508 0
M  V30 251 C 22.6194 1.70299 0.356964 0
M  V30 252 O 23.7954 2.00235 0.216326 0
M  V30 253 C 20.8604 3.46677 0.0402814 0
M  V30 254 C 19.9214 4.18153 -0.97194 0
M  V30 255 C 19.1544 5.32525 -0.354016 0
M  V30 256 O 19.3774 5.64112 0.844604 0
M  V30 257 O 18.3114 5.92242 -1.07391 0
M  V30 258 H 22.1374 2.64251 -1.49684 0
M  V30 259 H 19.7224 1.26629 -0.792809 0
M  V30 260 H 21.6044 4.19475 0.402324 0
M  V30 261 H 20.2794 3.10858 0.902707 0
M  V30 262 H 19.1864 3.47499 -1.38546 0
M  V30 263 H 20.5194 4.57927 -1.80454 0
M  V30 264 N 22.1715 0.800033 1.35784 0
M  V30 265 C 23.1015 0.220184 2.3246 0
M  V30 266 C 24.0825 -0.65073 1.57161 0
M  V30 267 O 25.2675 -0.582359 1.85263 0
M  V30 268 C 22.3975 -0.637353 3.41402 0
M  V30 269 C 21.3515 0.134531 4.27789 0
M  V30 270 C 20.6775 -0.844285 5.27992 0
M  V30 271 C 21.9775 1.32979 5.05088 0
M  V30 272 H 23.6715 1.02787 2.81203 0
M  V30 273 H 21.2175 0.495717 1.35199 0
M  V30 274 H 23.1705 -1.05302 4.08031 0
M  V30 275 H 21.8945 -1.47785 2.91251 0
M  V30 276 H 20.5535 0.531296 3.6273 0
M  V30 277 H 20.2015 -1.68011 4.74111 0
M  V30 278 H 19.9015 -0.332184 5.8666 0
M  V30 279 H 21.4255 -1.2583 5.97494 0
M  V30 280 H 22.8395 0.98934 5.64699 0
M  V30 281 H 21.2365 1.77593 5.7322 0
M  V30 282 H 22.3065 2.11978 4.36111 0
M  V30 283 N 23.6496 -1.47581 0.552962 0
M  V30 284 C 24.8986 -2.01684 0.0251995 0
M  V30 285 C 25.2116 -1.43317 -1.33115 0
M  V30 286 O 26.4176 -1.89057 -1.94858 0
M  V30 287 C 24.8736 -3.599 -0.00542052 0
M  V30 288 C 24.4816 -4.27257 1.34742 0
M  V30 289 C 26.2256 -4.21768 -0.4808 0
M  V30 290 C 24.1326 -5.77467 1.27614 0
M  V30 291 H 23.0626 -0.753979 0.00565033 0
M  V30 292 H 25.7136 -1.69616 0.70018 0
M  V30 293 H 24.0956 -3.88911 -0.745961 0
M  V30 294 H 25.2696 -4.09893 2.10534 0
M  V30 295 H 23.5846 -3.77358 1.76039 0
M  V30 296 H 26.1816 -5.31838 -0.55246 0
M  V30 297 H 26.5246 -3.88651 -1.49184 0
M  V30 298 H 27.0576 -3.97273 0.204752 0
M  V30 299 H 23.7966 -6.15196 2.26304 0
M  V30 300 H 23.3166 -5.9718 0.55996 0
M  V30 301 H 24.9956 -6.3959 0.976421 0
M  V30 302 N 25.1277 -0.289203 -1.54924 0
M  V30 303 C 26.5387 0.205791 -1.85562 0
M  V30 304 C 26.8897 1.54351 -1.2112 0
M  V30 305 O 26.0147 2.10435 -0.504601 0
M  V30 306 C 26.6097 0.380177 -3.3666 0
M  V30 307 C 25.1687 0.819395 -3.67373 0
M  V30 308 C 24.3157 -0.079159 -2.77187 0
M  V30 309 H 27.2667 -0.510577 -1.50262 0
M  V30 310 H 27.2877 1.21659 -3.60526 0
M  V30 311 H 26.7997 -0.593589 -3.83534 0
M  V30 312 H 24.9007 1.80413 -3.26009 0
M  V30 313 H 25.0137 0.646957 -4.74712 0
M  V30 314 H 23.3777 0.439565 -2.50878 0
M  V30 315 H 24.1607 -1.04906 -3.26878 0
M  V30 316 N 26.6058 1.57591 -0.0167156 0
M  V30 317 C 27.5158 2.1291 0.98521 0
M  V30 318 C 28.5318 1.07834 1.36557 0
M  V30 319 O 29.7078 1.39826 1.44951 0
M  V30 320 C 26.7728 2.63512 2.25305 0
M  V30 321 C 25.8338 3.83256 1.93426 0
M  V30 322 C 25.0668 4.31435 3.14165 0
M  V30 323 O 25.2898 3.78851 4.26413 0
M  V30 324 O 24.2238 5.23416 2.97186 0
M  V30 325 H 28.0498 2.98772 0.544888 0
M  V30 326 H 25.6348 1.48012 0.203141 0
M  V30 327 H 27.5168 2.96183 2.99756 0
M  V30 328 H 26.1918 1.8074 2.68542 0
M  V30 329 H 25.0988 3.55531 1.16398 0
M  V30 330 H 26.4318 4.67153 1.55013 0
M  V30 331 N 28.0839 -0.256276 1.55502 0
M  V30 332 C 29.4949 -0.826068 1.67431 0
M  V30 333 C 29.8459 -1.86396 0.612446 0
M  V30 334 O 28.9709 -2.15031 -0.243025 0
M  V30 335 C 29.5659 -1.50512 3.03532 0
M  V30 336 C 28.1249 -2.02273 3.17431 0
M  V30 337 C 27.2719 -0.870548 2.63281 0
M  V30 338 H 30.2229 -0.0322728 1.58667 0
M  V30 339 H 30.2439 -2.37279 2.97454 0
M  V30 340 H 29.7559 -0.749484 3.80794 0
M  V30 341 H 27.8569 -2.80746 2.44974 0
M  V30 342 H 27.9699 -2.22655 4.24219 0
M  V30 343 H 26.3339 -1.26851 2.20864 0
M  V30 344 H 27.1169 -0.128149 3.43061 0
M  V30 345 N 29.562 -1.4872 -0.521534 0
M  V30 346 C 30.973 -1.50607 -1.10337 0
M  V30 347 C 31.324 -0.280612 -1.94183 0
M  V30 348 O 30.449 0.611507 -2.0758 0
M  V30 349 C 31.044 -2.72903 -2.00772 0
M  V30 350 C 29.603 -2.77634 -2.54158 0
M  V30 351 C 28.75 -2.44241 -1.31307 0
M  V30 352 H 31.701 -1.55714 -0.306388 0
M  V30 353 H 31.722 -2.519 -2.85178 0
M  V30 354 H 31.234 -3.62077 -1.39721 0
M  V30 355 H 29.335 -1.92689 -3.18907 0
M  V30 356 H 29.448 -3.79283 -2.92714 0
M  V30 357 H 27.812 -1.95577 -1.63161 0
M  V30 358 H 28.595 -3.35666 -0.719943 0
M  V30 359 N 31.0401 0.771051 -1.3745 0
M  V30 360 C 31.9501 1.91538 -1.35464 0
M  V30 361 C 32.9661 1.72134 -0.254123 0
M  V30 362 O 34.1421 1.95358 -0.489626 0
M  V30 363 C 31.2071 3.26671 -1.16134 0
M  V30 364 C 30.2681 3.58723 -2.35831 0
M  V30 365 C 29.5011 4.87409 -2.17413 0
M  V30 366 O 29.7241 5.58506 -1.15876 0
M  V30 367 O 28.6581 5.18539 -3.05615 0
M  V30 368 H 32.4841 1.96165 -2.31847 0
M  V30 369 H 30.0691 0.9139 -1.18187 0
M  V30 370 H 31.9511 4.07499 -1.07345 0
M  V30 371 H 30.6261 3.22894 -0.228251 0
M  V30 372 H 29.5331 2.78127 -2.50192 0
M  V30 373 H 30.8661 3.67243 -3.27709 0
M  V30 374 N 32.5182 1.22032 0.997298 0
M  V30 375 C 33.7662 1.04016 1.73278 0
M  V30 376 C 34.0872 -0.426255 1.90284 0
M  V30 377 O 33.3572 -1.30694 1.45931 0
M  V30 378 H 31.9372 0.381897 0.642 0
M  V30 379 H 34.5992 1.5347 1.20137 0
M  V30 380 H 33.6952 1.51441 2.72896 0
M  V30 381 N 33.9963 -1.19345 1.0293 0
M  V30 382 C 35.2443 -1.88665 0.724574 0
M  V30 383 C 35.5653 -1.80036 -0.749144 0
M  V30 384 O 34.8353 -1.2111 -1.53978 0
M  V30 385 H 33.4153 -0.698406 0.265025 0
M  V30 386 H 36.0773 -1.44885 1.30362 0
M  V30 387 H 35.1733 -2.94987 1.01926 0
M  V30 388 N 35.4744 -0.807222 -1.35358 0
M  V30 389 C 36.4044 -0.232509 -2.3234 0
M  V30 390 C 37.3854 0.642386 -1.57504 0
M  V30 391 O 38.5704 0.572526 -1.85569 0
M  V30 392 C 35.7004 0.619238 -3.41735 0
M  V30 393 C 34.6544 -0.157215 -4.27711 0
M  V30 394 C 33.9804 0.816273 -5.28433 0
M  V30 395 C 35.2804 -1.35656 -5.04376 0
M  V30 396 H 36.9744 -1.04276 -2.80654 0
M  V30 397 H 34.5204 -0.50288 -1.34934 0
M  V30 398 H 36.4734 1.03137 -4.08584 0
M  V30 399 H 35.1974 1.46239 -2.92031 0
M  V30 400 H 33.8564 -0.550525 -3.62443 0
M  V30 401 H 33.5044 1.65494 -4.74996 0
M  V30 402 H 33.2044 0.301067 -5.86828 0
M  V30 403 H 34.7284 1.22659 -5.98153 0
M  V30 404 H 36.1424 -1.01927 -5.64166 0
M  V30 405 H 34.5394 -1.8063 -5.7227 0
M  V30 406 H 35.6094 -2.14288 -4.34981 0
M  V30 407 N 36.9525 1.47285 -0.560781 0
M  V30 408 C 38.3635 1.86258 -0.128343 0
M  V30 409 C 38.7145 1.46699 1.30284 0
M  V30 410 O 37.8395 0.871698 1.98067 0
M  V30 411 C 38.4345 3.38044 -0.22614 0
M  V30 412 C 36.9935 3.76096 0.151283 0
M  V30 413 C 36.1405 2.71335 -0.572084 0
M  V30 414 H 39.0915 1.38752 -0.770297 0
M  V30 415 H 39.1125 3.76441 0.554322 0
M  V30 416 H 38.6245 3.66806 -1.26788 0
M  V30 417 H 36.7255 3.52951 1.19399 0
M  V30 418 H 36.8385 4.78641 -0.209765 0
M  V30 419 H 35.2025 2.54696 -0.0147653 0
M  V30 420 H 35.9855 3.02938 -1.61504 0
M  V30 421 N 38.4306 0.297415 1.54768 0
M  V30 422 C 39.6786 -0.312295 1.99673 0
M  V30 423 C 39.9996 -1.54686 1.18732 0
M  V30 424 O 39.2696 -1.93854 0.282382 0
M  V30 425 H 37.8496 -0.118381 0.73756 0
M  V30 426 H 40.5116 0.407915 1.90583 0
M  V30 427 H 39.6076 -0.586813 3.06534 0
M  V30 428 N 39.9087 -1.5758 0.0250728 0
M  V30 429 C 41.3197 -1.79476 -0.514323 0
M  V30 430 C 41.6707 -0.934956 -1.72491 0
M  V30 431 O 40.7957 -0.144245 -2.15919 0
M  V30 432 C 41.3907 -3.25503 -0.939842 0
M  V30 433 C 39.9497 -3.48408 -1.42438 0
M  V30 434 C 39.0967 -2.74583 -0.387201 0
M  V30 435 H 42.0477 -1.567 0.25113 0
M  V30 436 H 42.0687 -3.34992 -1.80445 0
M  V30 437 H 41.5807 -3.88056 -0.0585628 0
M  V30 438 H 39.6817 -2.91103 -2.32572 0
M  V30 439 H 39.7947 -4.57119 -1.43455 0
M  V30 440 H 38.1587 -2.39942 -0.854409 0
M  V30 441 H 38.9417 -3.39849 0.485543 0
M  V30 442 N 41.3868 0.248026 -1.55636 0
M  V30 443 C 42.6328 0.973427 -1.78594 0
M  V30 444 C 42.9878 1.83007 -0.593823 0
M  V30 445 O 42.2808 1.87097 0.412961 0
M  V30 446 C 42.4748 1.86819 -3.04686 0
M  V30 447 C 42.3038 1.09965 -4.36048 0
M  V30 448 C 41.0738 0.805204 -4.98843 0
M  V30 449 C 43.2718 0.477783 -5.12076 0
M  V30 450 N 41.2538 0.0124859 -6.13899 0
M  V30 451 C 42.6248 -0.179565 -6.1974 0
M  V30 452 C 44.6798 0.388136 -4.96385 0
M  V30 453 C 43.3828 -0.91795 -7.13419 0
M  V30 454 C 45.4088 -0.336716 -5.90441 0
M  V30 455 C 44.7708 -0.982705 -6.97511 0
M  V30 456 H 40.8698 0.337348 -0.705493 0
M  V30 457 H 43.4538 0.24667 -1.93131 0
M  V30 458 H 41.6248 2.56698 -2.9148 0
M  V30 459 H 43.3568 2.52907 -3.15944 0
M  V30 460 H 40.1118 1.11671 -4.60246 0
M  V30 461 H 40.5358 -0.371933 -6.75978 0
M  V30 462 H 45.1778 0.873237 -4.13684 0
M  V30 463 H 42.8958 -1.41466 -7.95621 0
M  V30 464 H 46.4818 -0.406731 -5.80377 0
M  V30 465 H 45.3618 -1.53464 -7.69037 0
M  V30 466 N 42.8649 1.48995 0.513639 0
M  V30 467 C 43.8279 1.64229 1.59879 0
M  V30 468 C 44.8279 0.514696 1.5234 0
M  V30 469 O 46.0179 0.78087 1.55718 0
M  V30 470 C 43.1499 1.62783 2.99524 0
M  V30 471 H 44.3429 2.61004 1.47705 0
M  V30 472 H 41.8959 1.37837 0.736936 0
M  V30 473 H 42.6309 0.675461 3.17188 0
M  V30 474 H 42.4159 2.4466 3.06404 0
M  V30 475 H 43.9059 1.76669 3.78388 0
M  V30 476 N 44.343 -0.763751 1.37857 0
M  V30 477 C 45.273 -1.89103 1.36975 0
M  V30 478 C 46.254 -1.68439 0.237152 0
M  V30 479 O 47.439 -1.8918 0.438713 0
M  V30 480 C 44.569 -3.26496 1.18395 0
M  V30 481 C 43.523 -3.61741 2.28751 0
M  V30 482 C 42.849 -4.97762 1.95286 0
M  V30 483 C 44.149 -3.67665 3.70972 0
M  V30 484 H 45.843 -1.90099 2.31307 0
M  V30 485 H 43.389 -0.91319 1.11341 0
M  V30 486 H 45.342 -4.05003 1.16406 0
M  V30 487 H 44.066 -3.25955 0.205215 0
M  V30 488 H 42.725 -2.85547 2.29909 0
M  V30 489 H 42.373 -4.93769 0.959221 0
M  V30 490 H 42.073 -5.22313 2.69189 0
M  V30 491 H 43.597 -5.7866 1.94898 0
M  V30 492 H 45.011 -4.36307 3.719 0
M  V30 493 H 43.408 -4.03718 4.43995 0
M  V30 494 H 44.478 -2.68134 4.0402 0
M  V30 495 N 45.8211 -1.22559 -0.990812 0
M  V30 496 C 46.7711 -0.964807 -2.0658 0
M  V30 497 C 47.7551 0.0853472 -1.60673 0
M  V30 498 O 48.9471 -0.125443 -1.76555 0
M  V30 499 C 46.0761 -0.546707 -3.38919 0
M  V30 500 C 45.1621 -1.6317 -3.91454 0
M  V30 501 N 45.5531 -2.85985 -4.17189 0
M  V30 502 C 43.8511 -1.50387 -4.19881 0
M  V30 503 C 44.5521 -3.56159 -4.59919 0
M  V30 504 N 43.5281 -2.83637 -4.63736 0
M  V30 505 H 47.3301 -1.89769 -2.24421 0
M  V30 506 H 44.8441 -1.12343 -1.17273 0
M  V30 507 H 46.8411 -0.34119 -4.15502 0
M  V30 508 H 45.5011 0.379254 -3.22478 0
M  V30 509 H 46.5121 -3.22392 -4.05319 0
M  V30 510 H 43.1891 -0.644254 -4.12499 0
M  V30 511 H 44.5791 -4.6139 -4.88435 0
M  V30 512 N 47.2992 1.18797 -1.03562 0
M  V30 513 C 48.7152 1.40671 -0.753917 0
M  V30 514 C 48.9152 1.9043 0.658686 0
M  V30 515 O 47.9712 2.08538 1.42366 0
M  V30 516 C 49.2842 2.41192 -1.79574 0
M  V30 517 C 50.8322 2.54928 -1.81606 0
M  V30 518 C 51.3072 3.58709 -2.84766 0
M  V30 519 N 52.7982 3.66212 -2.83625 0
M  V30 520 C 53.5332 4.46225 -3.60098 0
M  V30 521 N 53.0292 5.29888 -4.46308 0
M  V30 522 N 54.8222 4.40939 -3.4861 0
M  V30 523 H 46.9732 0.848221 -1.94728 0
M  V30 524 H 49.2362 0.435081 -0.842264 0
M  V30 525 H 48.9422 2.11669 -2.80872 0
M  V30 526 H 48.8162 3.40467 -1.62365 0
M  V30 527 H 51.2032 2.83771 -0.809817 0
M  V30 528 H 51.2842 1.55784 -2.02891 0
M  V30 529 H 50.9282 3.30607 -3.85566 0
M  V30 530 H 50.8582 4.57519 -2.60737 0
M  V30 531 H 53.3492 3.06466 -2.21105 0
M  V30 532 H 53.6622 5.88078 -5.01382 0
M  V30 533 H 52.0072 5.29326 -4.50377 0
M  V30 534 H 55.1982 3.74624 -2.80668 0
M  V30 535 H 55.3712 5.03056 -4.08459 0
M  V30 536 N 48.7773 0.814389 1.34928 0
M  V30 537 C 50.0253 0.397636 1.9815 0
M  V30 538 C 50.3463 -1.04069 1.64908 0
M  V30 539 O 49.6163 -1.72121 0.93548 0
M  V30 540 H 48.1963 0.144043 0.732981 0
M  V30 541 H 50.8583 1.04195 1.6471 0
M  V30 542 H 49.9543 0.509688 3.0791 0
M  V30 543 N 50.2554 -1.46986 0.568584 0
M  V30 544 C 51.6714 -1.57946 0.229189 0
M  V30 545 C 51.8714 -1.56567 -1.26843 0
M  V30 546 O 50.9274 -1.47511 -2.04931 0
M  V30 547 C 52.2404 -2.87963 0.865909 0
M  V30 548 C 53.7884 -3.01568 0.838188 0
M  V30 549 C 54.2634 -4.34301 1.45419 0
M  V30 550 N 55.7544 -4.40965 1.41788 0
M  V30 551 C 56.4894 -5.42256 1.86403 0
M  V30 552 N 55.9854 -6.50297 2.38926 0
M  V30 553 N 57.7784 -5.3337 1.77405 0
M  V30 554 H 49.9294 -1.46126 1.54146 0
M  V30 555 H 52.1924 -0.696156 0.643484 0
M  V30 556 H 51.8984 -2.94742 1.91886 0
M  V30 557 H 51.7724 -3.75423 0.365687 0
M  V30 558 H 54.1594 -2.94379 -0.206106 0
M  V30 559 H 54.2404 -2.1562 1.37629 0
M  V30 560 H 53.8844 -4.42247 2.49761 0
M  V30 561 H 53.8144 -5.19 0.891435 0
M  V30 562 H 56.3054 -3.63484 1.03381 0
M  V30 563 H 56.6184 -7.23777 2.70863 0
M  V30 564 H 54.9634 -6.51155 2.42944 0
M  V30 565 H 58.1544 -4.47865 1.3614 0
M  V30 566 H 58.3274 -6.12169 2.12492 0
M  V30 567 N 51.7335 -0.305618 -1.54608 0
M  V30 568 C 52.6805 0.568421 -2.23691 0
M  V30 569 C 53.6505 1.12592 -1.22116 0
M  V30 570 O 54.8355 1.16959 -1.50749 0
M  V30 571 C 51.9755 1.7322 -2.98477 0
M  V30 572 C 51.0885 1.20566 -4.14835 0
M  V30 573 C 50.2235 2.33368 -4.77193 0
M  V30 574 C 49.2625 1.7787 -5.85686 0
M  V30 575 N 48.3995 2.84263 -6.4198 0
M  V30 576 H 53.2395 -0.0272867 -2.97988 0
M  V30 577 H 50.7765 -0.0252363 -1.47078 0
M  V30 578 H 52.7345 2.41675 -3.40072 0
M  V30 579 H 51.3645 2.29947 -2.26548 0
M  V30 580 H 50.4165 0.413223 -3.78149 0
M  V30 581 H 51.7285 0.759417 -4.92985 0
M  V30 582 H 50.8825 3.09761 -5.21664 0
M  V30 583 H 49.6215 2.8132 -3.98385 0
M  V30 584 H 48.6265 0.99968 -5.40635 0
M  V30 585 H 49.8515 1.30816 -6.66381 0
M  V30 586 H 47.7975 3.31541 -5.66053 0
M  V30 587 H 47.7145 2.44149 -7.15491 0
M  V30 588 H 48.9825 3.6054 -6.91109 0
M  V30 589 N 53.2116 1.57565 -0.0334293 0
M  V30 590 C 54.1586 2.10478 0.946981 0
M  V30 591 C 55.1286 1.00787 1.32027 0
M  V30 592 O 56.3136 1.28232 1.41284 0
M  V30 593 C 53.4536 2.63994 2.22263 0
M  V30 594 C 52.5666 3.87709 1.90541 0
M  V30 595 C 51.7016 4.29604 3.12433 0
M  V30 596 C 50.7406 5.46065 2.76549 0
M  V30 597 N 49.8776 5.83096 3.9108 0
M  V30 598 H 54.7176 2.93963 0.488846 0
M  V30 599 H 52.2546 1.45296 0.22969 0
M  V30 600 H 54.2126 2.93114 2.96884 0
M  V30 601 H 52.8426 1.83333 2.65685 0
M  V30 602 H 51.8946 3.65291 1.06144 0
M  V30 603 H 53.2066 4.72403 1.60116 0
M  V30 604 H 52.3606 4.60182 3.9537 0
M  V30 605 H 51.0996 3.43685 3.46023 0
M  V30 606 H 50.1046 5.15176 1.92026 0
M  V30 607 H 51.3296 6.33685 2.44171 0
M  V30 608 H 49.2756 5.00132 4.24504 0
M  V30 609 H 49.1926 6.6244 3.64293 0
M  V30 610 H 50.4606 6.18282 4.74708 0
M  V30 611 N 54.6897 -0.239769 1.55765 0
M  V30 612 C 55.6527 -1.28038 1.90103 0
M  V30 613 C 56.6527 -1.40723 0.778055 0
M  V30 614 O 57.8427 -1.39301 1.04599 0
M  V30 615 C 54.9747 -2.65702 2.13577 0
M  V30 616 H 56.1677 -0.988048 2.83157 0
M  V30 617 H 53.7207 -0.479382 1.48767 0
M  V30 618 H 54.4557 -3.00063 1.23015 0
M  V30 619 H 54.2407 -2.57875 2.95369 0
M  V30 620 H 55.7307 -3.40828 2.41301 0
M  V30 621 N 56.1678 -1.49265 -0.50573 0
M  V30 622 C 57.3958 -1.62215 -1.28429 0
M  V30 623 C 57.8108 -0.291697 -1.86533 0
M  V30 624 O 57.1678 0.722233 -1.67601 0
M  V30 625 C 57.2188 -2.68735 -2.41793 0
M  V30 626 O 56.9398 -3.96619 -1.86078 0
M  V30 627 C 58.4408 -2.92346 -3.3324 0
M  V30 628 H 55.6608 -0.546239 -0.389697 0
M  V30 629 H 58.2048 -1.95265 -0.607609 0
M  V30 630 H 56.3598 -2.38476 -3.053 0
M  V30 631 H 56.7738 -4.55256 -2.60465 0
M  V30 632 H 58.2478 -3.70623 -4.09075 0
M  V30 633 H 58.7248 -2.02081 -3.89948 0
M  V30 634 H 59.3308 -3.24003 -2.75503 0
M  V30 635 N 57.6459 0.756429 -1.3826 0
M  V30 636 C 58.8939 1.51248 -1.34047 0
M  V30 637 C 59.2149 1.94875 0.0698372 0
M  V30 638 O 58.4849 1.67436 1.01696 0
M  V30 639 H 57.0649 0.561018 -0.493222 0
M  V30 640 H 59.7269 0.899347 -1.7291 0
M  V30 641 H 58.8229 2.40472 -1.98947 0
M  V30 642 N 59.124 1.23083 0.984299 0
M  V30 643 C 60.349 1.088 1.76571 0
M  V30 644 C 60.774 -0.356657 1.84688 0
M  V30 645 O 60.132 -1.25788 1.30565 0
M  V30 646 C 60.18 1.71371 3.17277 0
M  V30 647 O 59.284 0.973213 4.00752 0
M  V30 648 H 58.625 0.381599 0.543395 0
M  V30 649 H 61.155 1.63057 1.23587 0
M  V30 650 H 61.165 1.76449 3.67872 0
M  V30 651 H 59.84 2.76493 3.10684 0
M  V30 652 H 58.417 0.999078 3.59267 0
M  V30 653 N 60.6021 -1.18246 1.0419 0
M  V30 654 C 62.0131 -1.69914 0.773698 0
M  V30 655 C 62.3641 -1.83085 -0.705297 0
M  V30 656 O 61.4891 -1.51123 -1.5489 0
M  V30 657 C 62.0841 -3.08619 1.39784 0
M  V30 658 C 60.6431 -3.57494 1.17792 0
M  V30 659 C 59.7901 -2.34013 1.48773 0
M  V30 660 H 62.7411 -1.02904 1.20816 0
M  V30 661 H 62.7621 -3.71958 0.801714 0
M  V30 662 H 62.2741 -2.99001 2.47426 0
M  V30 663 H 60.3751 -3.72406 0.120295 0
M  V30 664 H 60.4881 -4.40852 1.87581 0
M  V30 665 H 58.8521 -2.37986 0.907463 0
M  V30 666 H 59.6351 -2.27013 2.57527 0
M  V30 667 N 62.0802 -0.821533 -1.34494 0
M  V30 668 C 63.3262 -0.409552 -1.98622 0
M  V30 669 C 63.6592 1.0244 -1.64984 0
M  V30 670 O 62.9342 1.71325 -0.920758 0
M  V30 671 C 63.2172 -0.610458 -3.54888 0
M  V30 672 C 63.0702 -2.09043 -3.98273 0
M  V30 673 C 64.3892 -0.0455379 -4.40076 0
M  V30 674 H 61.5082 -0.15028 -0.721516 0
M  V30 675 H 64.1502 -1.03384 -1.59411 0
M  V30 676 H 62.3002 -0.079044 -3.8842 0
M  V30 677 H 63.9722 -2.68537 -3.75081 0
M  V30 678 H 62.2152 -2.58139 -3.48635 0
M  V30 679 H 62.8862 -2.18182 -5.07051 0
M  V30 680 H 65.3622 -0.499557 -4.1309 0
M  V30 681 H 64.2382 -0.215922 -5.48475 0
M  V30 682 H 64.4992 1.04939 -4.29465 0
M  V30 683 N 63.5583 1.46682 -0.576371 0
M  V30 684 C 64.7833 2.07304 -0.0630475 0
M  V30 685 C 65.2083 1.42329 1.2298 0
M  V30 686 O 64.5663 0.504865 1.74129 0
M  V30 687 C 64.6143 3.60472 0.095895 0
M  V30 688 O 63.7183 3.95927 1.15394 0
M  V30 689 H 63.0593 0.661288 -0.0599463 0
M  V30 690 H 65.5893 1.88417 -0.797511 0
M  V30 691 H 65.5993 4.06865 0.304071 0
M  V30 692 H 64.2743 4.07157 -0.84828 0
M  V30 693 H 62.8513 3.61252 0.924724 0
M  V30 694 N 65.0364 0.313813 1.54444 0
M  V30 695 C 66.2854 -0.292519 1.99568 0
M  V30 696 C 66.5984 -1.54011 1.20582 0
M  V30 697 O 67.8044 -2.22183 1.56035 0
M  V30 698 C 66.2604 -0.571752 3.55329 0
M  V30 699 C 65.8684 0.658229 4.43138 0
M  V30 700 C 67.6124 -1.13857 4.08946 0
M  V30 701 C 65.5194 0.351439 5.90355 0
M  V30 702 H 64.4494 -0.113079 0.745472 0
M  V30 703 H 67.1004 0.424518 1.78522 0
M  V30 704 H 65.4824 -1.34872 3.72325 0
M  V30 705 H 66.6564 1.43403 4.37918 0
M  V30 706 H 64.9714 1.14458 4.0036 0
M  V30 707 H 67.5684 -1.38257 5.16516 0
M  V30 708 H 67.9114 -2.08489 3.6033 0
M  V30 709 H 68.4444 -0.423015 3.95544 0
M  V30 710 H 65.1834 1.26667 6.43145 0
M  V30 711 H 64.7034 -0.386842 5.98551 0
M  V30 712 H 66.3824 -0.0423134 6.46986 0
M  V30 713 N 66.5145 -1.57545 0.0417849 0
M  V30 714 C 67.7615 -1.92317 -0.634082 0
M  V30 715 C 68.0895 -0.919334 -1.71402 0
M  V30 716 O 67.3445 0.0698253 -1.95575 0
M  V30 717 C 67.6435 -3.33794 -1.27735 0
M  V30 718 C 67.3095 -4.49716 -0.326543 0
M  V30 719 C 65.9715 -4.81156 -0.0648814 0
M  V30 720 C 68.3235 -5.20182 0.325623 0
M  V30 721 C 65.6515 -5.80414 0.856539 0
M  V30 722 C 68.0035 -6.20424 1.23518 0
M  V30 723 C 66.6675 -6.50298 1.5056 0
M  V30 724 H 65.9375 -0.703736 -0.232027 0
M  V30 725 H 68.5845 -1.91205 0.106259 0
M  V30 726 H 66.8895 -3.31228 -2.09274 0
M  V30 727 H 68.5865 -3.57975 -1.80707 0
M  V30 728 H 65.1765 -4.25176 -0.540665 0
M  V30 729 H 69.3605 -4.96112 0.136546 0
M  V30 730 H 64.6165 -6.019 1.07363 0
M  V30 731 H 68.7905 -6.74141 1.74664 0
M  V30 732 H 66.4175 -7.27025 2.22123 0
M  V30 733 N 67.9926 0.231505 -1.5589 0
M  V30 734 C 69.2386 0.95877 -1.78705 0
M  V30 735 C 69.5716 1.8438 -0.609725 0
M  V30 736 O 68.8466 1.90521 0.391426 0
M  V30 737 C 69.1296 1.8062 -3.11526 0
M  V30 738 C 68.9826 0.948328 -4.39689 0
M  V30 739 C 70.3016 2.78585 -3.40703 0
M  V30 740 H 67.4206 0.347129 -0.650131 0
M  V30 741 H 70.0626 0.228259 -1.88624 0
M  V30 742 H 68.2126 2.42902 -3.03201 0
M  V30 743 H 69.8846 0.343016 -4.60023 0
M  V30 744 H 68.1276 0.253314 -4.3306 0
M  V30 745 H 68.7986 1.57543 -5.29041 0
M  V30 746 H 71.2746 2.26439 -3.49091 0
M  V30 747 H 70.1506 3.34988 -4.34826 0
M  V30 748 H 70.4116 3.55825 -2.62375 0
M  V30 749 N 69.4707 1.49531 0.497807 0
M  V30 750 C 70.7007 1.62657 1.27382 0
M  V30 751 C 71.1087 0.298488 1.86831 0
M  V30 752 O 70.4517 -0.72647 1.68725 0
M  V30 753 C 70.5137 2.6393 2.44093 0
M  V30 754 C 70.1777 4.08195 2.05489 0
M  V30 755 C 71.1747 4.949 1.59279 0
M  V30 756 C 68.8597 4.53948 2.15026 0
M  V30 757 C 70.8537 6.25397 1.23113 0
M  V30 758 C 68.5407 5.84458 1.78473 0
M  V30 759 C 69.5387 6.70006 1.32591 0
M  V30 760 O 69.2267 7.98083 0.965327 0
M  V30 761 H 68.9587 0.550429 0.392434 0
M  V30 762 H 71.5127 1.96325 0.603801 0
M  V30 763 H 69.7427 2.25449 3.14181 0
M  V30 764 H 71.4317 2.66552 3.06113 0
M  V30 765 H 72.1977 4.60779 1.51354 0
M  V30 766 H 68.0767 3.87525 2.4969 0
M  V30 767 H 71.6207 6.92125 0.872299 0
M  V30 768 H 67.5177 6.18107 1.86048 0
M  V30 769 H 68.2857 8.11122 1.09652 0
M  V30 770 N 70.9488 -0.749086 1.3866 0
M  V30 771 C 72.2258 -1.4992 1.25632 0
M  V30 772 C 72.6058 -2.10633 -0.140317 0
M  V30 773 O 71.9538 -1.97437 -1.15025 0
M  V30 774 C 72.1638 -2.56195 2.36992 0
M  V30 775 C 73.5118 -3.22972 2.75634 0
M  V30 776 O 74.5358 -2.66502 2.36337 0
M  V30 777 O 73.3948 -4.25122 3.43415 0
M  V30 778 H 70.4888 -0.665067 0.491544 0
M  V30 779 H 73.0348 -0.784113 1.50498 0
M  V30 780 H 71.8068 -2.09612 3.30422 0
M  V30 781 H 71.4298 -3.35279 2.13714 0
M  V30 782 N 72.4269 -1.23603 -0.977757 0
M  V30 783 C 73.6729 -1.07129 -1.72195 0
M  V30 784 C 74.0059 0.390501 -1.90233 0
M  V30 785 O 73.2809 1.28902 -1.45653 0
M  V30 786 C 73.5639 -1.80031 -3.11867 0
M  V30 787 C 73.4169 -3.33899 -3.01383 0
M  V30 788 C 74.7359 -1.56492 -4.11337 0
M  V30 789 H 71.8549 -0.390571 -0.624999 0
M  V30 790 H 74.4969 -1.52142 -1.13811 0
M  V30 791 H 72.6469 -1.41768 -3.6171 0
M  V30 792 H 74.3189 -3.81699 -2.59043 0
M  V30 793 H 72.5619 -3.62796 -2.37827 0
M  V30 794 H 73.2329 -3.801 -4.00285 0
M  V30 795 H 75.7089 -1.89757 -3.70313 0
M  V30 796 H 74.5849 -2.09973 -5.07151 0
M  V30 797 H 74.8459 -0.500874 -4.39254 0
M  V30 798 N 73.905 1.17692 -1.04816 0
M  V30 799 C 74.852 2.21581 -0.645797 0
M  V30 800 C 75.822 1.62367 0.350159 0
M  V30 801 O 77.007 1.89254 0.242433 0
M  V30 802 C 74.147 3.45092 -0.0227568 0
M  V30 803 C 73.26 4.18613 -1.06709 0
M  V30 804 C 72.395 5.29602 -0.411767 0
M  V30 805 C 71.434 5.94904 -1.44067 0
M  V30 806 N 70.571 6.97414 -0.809781 0
M  V30 807 H 75.411 2.55353 -1.5362 0
M  V30 808 H 72.948 1.25438 -0.768364 0
M  V30 809 H 74.906 4.15679 0.35588 0
M  V30 810 H 73.536 3.11917 0.831122 0
M  V30 811 H 72.588 3.46779 -1.5636 0
M  V30 812 H 73.9 4.63293 -1.84827 0
M  V30 813 H 73.054 6.06696 0.0206623 0
M  V30 814 H 71.793 4.86045 0.401438 0
M  V30 815 H 70.798 5.16544 -1.88316 0
M  V30 816 H 72.023 6.40542 -2.25571 0
M  V30 817 H 69.969 6.55998 -0.0170186 0
M  V30 818 H 69.886 7.40386 -1.52856 0
M  V30 819 H 71.154 7.78463 -0.401999 0
M  V30 820 N 75.3831 0.828654 1.34056 0
M  V30 821 C 76.7941 0.477534 1.8049 0
M  V30 822 C 77.1451 -1.00258 1.6865 0
M  V30 823 O 76.2701 -1.78057 1.22982 0
M  V30 824 C 76.8651 0.860018 3.27703 0
M  V30 825 C 75.4241 0.561185 3.72193 0
M  V30 826 C 74.5711 1.07385 2.55663 0
M  V30 827 H 77.5221 1.0183 1.21722 0
M  V30 828 H 77.5431 0.166038 3.80138 0
M  V30 829 H 77.0551 1.93731 3.36288 0
M  V30 830 H 75.1561 -0.506465 3.69142 0
M  V30 831 H 75.2691 1.10926 4.66082 0
M  V30 832 H 73.6331 0.495149 2.49841 0
M  V30 833 H 74.4161 2.15771 2.67016 0
M  V30 834 N 76.8612 -1.46375 0.584142 0
M  V30 835 C 78.1092 -2.01978 0.0701287 0
M  V30 836 C 78.4302 -1.4579 -1.295 0
M  V30 837 O 77.7002 -0.64314 -1.85042 0
M  V30 838 H 76.2802 -0.746648 0.0229345 0
M  V30 839 H 78.9422 -1.79461 0.760245 0
M  V30 840 H 78.0382 -3.121 0.0022064 0
M  V30 841 N 78.3393 -0.321999 -1.54275 0
M  V30 842 C 79.3023 0.531975 -2.22941 0
M  V30 843 C 80.3023 1.04478 -1.22234 0
M  V30 844 O 81.4923 0.937452 -1.46825 0
M  V30 845 C 78.6243 1.73874 -2.93224 0
M  V30 846 H 79.8173 -0.0682612 -2.99822 0
M  V30 847 H 77.3703 -0.0730644 -1.56129 0
M  V30 848 H 78.1053 2.37825 -2.20476 0
M  V30 849 H 77.8903 1.37847 -3.6707 0
M  V30 850 H 79.3803 2.34496 -3.45545 0
M  V30 851 N 79.8174 1.5752 -0.0501392 0
M  V30 852 C 80.7274 2.14952 0.939827 0
M  V30 853 C 81.7434 1.10706 1.34239 0
M  V30 854 O 82.9194 1.42869 1.41952 0
M  V30 855 C 79.9844 2.68232 2.19665 0
M  V30 856 C 79.0454 3.87272 1.85253 0
M  V30 857 C 78.2784 4.38002 3.04943 0
M  V30 858 O 78.5014 3.87811 4.18281 0
M  V30 859 O 77.4354 5.29602 2.86017 0
M  V30 860 H 81.2614 2.9986 0.481392 0
M  V30 861 H 78.8464 1.4841 0.171699 0
M  V30 862 H 80.7284 3.02475 2.93406 0
M  V30 863 H 79.4034 1.86395 2.64648 0
M  V30 864 H 78.3104 3.5792 1.0883 0
M  V30 865 H 79.6434 4.70336 1.4507 0
M  V30 866 N 81.2955 -0.223234 1.56011 0
M  V30 867 C 82.2055 -1.29766 1.95443 0
M  V30 868 C 83.2215 -1.51373 0.858028 0
M  V30 869 O 84.3975 -1.64536 1.16146 0
M  V30 870 C 81.4625 -2.62772 2.26167 0
M  V30 871 C 80.5235 -2.49482 3.49367 0
M  V30 872 C 79.7565 -3.76145 3.78616 0
M  V30 873 O 79.9795 -4.79087 3.09568 0
M  V30 874 O 78.9135 -3.73358 4.72109 0
M  V30 875 H 82.7395 -0.99309 2.87004 0
M  V30 876 H 80.3245 -0.425958 1.43199 0
M  V30 877 H 82.2065 -3.41327 2.47131 0
M  V30 878 H 80.8815 -2.92913 1.37781 0
M  V30 879 H 79.7885 -1.69133 3.33684 0
M  V30 880 H 81.1215 -2.2428 4.38131 0
M  V30 881 N 82.7736 -1.49793 -0.48987 0
M  V30 882 C 83.7056 -1.63413 -1.60713 0
M  V30 883 C 84.7186 -0.516329 -1.54395 0
M  V30 884 O 85.9076 -0.788812 -1.60125 0
M  V30 885 C 83.0076 -1.58516 -2.99543 0
M  V30 886 C 82.1806 -2.86016 -3.30928 0
M  V30 887 C 81.2396 -2.74018 -4.49222 0
M  V30 888 O 80.2656 -3.47964 -4.50455 0
M  V30 889 N 81.4676 -1.86309 -5.4979 0
M  V30 890 H 84.2326 -2.59777 -1.49452 0
M  V30 891 H 81.7936 -1.47022 -0.677955 0
M  V30 892 H 83.7856 -1.48128 -3.76617 0
M  V30 893 H 82.3556 -0.69965 -3.0467 0
M  V30 894 H 81.5756 -3.10672 -2.42645 0
M  V30 895 H 82.8636 -3.70521 -3.487 0
M  V30 896 H 82.2616 -1.2551 -5.51601 0
M  V30 897 H 80.8186 -1.81837 -6.25922 0
M  V30 898 N 84.2517 0.741722 -1.39055 0
M  V30 899 C 85.4797 1.53098 -1.39171 0
M  V30 900 C 85.8947 1.88794 0.0155099 0
M  V30 901 O 85.2517 1.53626 0.985159 0
M  V30 902 C 85.3027 2.82274 -2.2584 0
M  V30 903 O 85.0237 2.48097 -3.61081 0
M  V30 904 C 86.5247 3.76343 -2.34266 0
M  V30 905 H 83.7447 0.473335 -0.4756 0
M  V30 906 H 86.2887 0.917045 -1.82785 0
M  V30 907 H 84.4437 3.40015 -1.85656 0
M  V30 908 H 84.8577 3.31029 -4.06842 0
M  V30 909 H 86.3317 4.63898 -2.9917 0
M  V30 910 H 86.8087 4.17619 -1.35982 0
M  V30 911 H 87.4147 3.24523 -2.74891 0
M  V30 912 N 85.7298 1.2412 0.971189 0
M  V30 913 C 86.6618 0.988349 2.06795 0
M  V30 914 C 87.6748 -0.0409541 1.62748 0
M  V30 915 O 88.8638 0.195673 1.77424 0
M  V30 916 C 85.9638 0.469023 3.35639 0
M  V30 917 C 85.1368 1.56065 4.08611 0
M  V30 918 C 84.1958 1.04458 5.15728 0
M  V30 919 O 83.2218 1.73553 5.42096 0
M  V30 920 N 84.4238 -0.122817 5.8037 0
M  V30 921 H 87.1888 1.93265 2.29061 0
M  V30 922 H 84.7498 1.15102 1.13856 0
M  V30 923 H 86.7418 0.108613 4.04554 0
M  V30 924 H 85.3118 -0.380919 3.1027 0
M  V30 925 H 84.5318 2.09341 3.34021 0
M  V30 926 H 85.8198 2.29449 4.54126 0
M  V30 927 H 85.2178 -0.700563 5.61345 0
M  V30 928 H 83.7748 -0.424404 6.50417 0
M  V30 929 N 87.2079 -1.17134 1.05439 0
M  V30 930 C 88.4539 -1.87733 0.767077 0
M  V30 931 C 88.7869 -1.8098 -0.704253 0
M  V30 932 O 88.0619 -1.21951 -1.5152 0
M  V30 933 C 88.3449 -3.37659 1.25133 0
M  V30 934 C 88.1979 -3.53149 2.78578 0
M  V30 935 C 89.5169 -4.31768 0.852324 0
M  V30 936 H 86.6359 -0.681687 0.280129 0
M  V30 937 H 89.2779 -1.37732 1.30881 0
M  V30 938 H 87.4279 -3.80373 0.790469 0
M  V30 939 H 89.0999 -3.19434 3.32806 0
M  V30 940 H 87.3429 -2.95345 3.17732 0
M  V30 941 H 88.0139 -4.58403 3.07523 0
M  V30 942 H 90.4899 -3.96909 1.24911 0
M  V30 943 H 89.3659 -5.35199 1.21873 0
M  V30 944 H 89.6269 -4.41429 -0.243485 0
M  V30 945 N 88.686 -0.835752 -1.33615 0
M  V30 946 C 89.649 -0.272 -2.2758 0
M  V30 947 C 90.649 0.557487 -1.50827 0
M  V30 948 O 91.839 0.37173 -1.70188 0
M  V30 949 C 88.971 0.617173 -3.35267 0
M  V30 950 H 90.164 -1.10111 -2.78954 0
M  V30 951 H 87.717 -0.608594 -1.43965 0
M  V30 952 H 88.452 1.46884 -2.89129 0
M  V30 953 H 88.237 0.0237066 -3.92093 0
M  V30 954 H 89.727 1.005 -4.05326 0
M  V30 955 N 90.1641 1.46063 -0.591896 0
M  V30 956 C 91.1111 2.30399 0.136069 0
M  V30 957 C 92.0811 1.41169 0.875238 0
M  V30 958 O 93.2661 1.70112 0.86409 0
M  V30 959 C 90.4061 3.25804 1.13781 0
M  V30 960 C 89.5191 4.30134 0.401137 0
M  V30 961 C 88.6541 5.12659 1.39121 0
M  V30 962 C 87.6931 6.0873 0.641462 0
M  V30 963 N 86.8301 6.8409 1.58004 0
M  V30 964 H 91.6701 2.92118 -0.589144 0
M  V30 965 H 89.2071 1.43959 -0.302342 0
M  V30 966 H 91.1651 3.79569 1.73156 0
M  V30 967 H 89.7951 2.65872 1.83062 0
M  V30 968 H 88.8471 3.79152 -0.307826 0
M  V30 969 H 90.1591 4.98458 -0.184565 0
M  V30 970 H 89.3131 5.70747 2.05749 0
M  V30 971 H 88.0521 4.44316 2.01084 0
M  V30 972 H 87.0571 5.49786 -0.0385419 0
M  V30 973 H 88.2821 6.79095 0.0270945 0
M  V30 974 H 86.2281 6.18449 2.18761 0
M  V30 975 H 86.1451 7.48709 1.04738 0
M  V30 976 H 87.4131 7.4673 2.23639 0
M  V30 977 N 91.6422 0.330177 1.54103 0
M  V30 978 C 92.6052 -0.520144 2.2322 0
M  V30 979 C 93.6052 -1.03828 1.22786 0
M  V30 980 O 94.7952 -0.929652 1.4732 0
M  V30 981 C 91.9272 -1.72317 2.94142 0
M  V30 982 H 93.1202 0.0841605 2.99782 0
M  V30 983 H 90.6732 0.0813433 1.56088 0
M  V30 984 H 91.4082 -2.36653 2.21734 0
M  V30 985 H 91.1932 -1.35898 3.67796 0
M  V30 986 H 92.6832 -2.3266 3.46784 0
M  V30 987 N 93.1203 -1.57491 0.0584922 0
M  V30 988 C 94.0833 -2.1085 -0.898617 0
M  V30 989 C 95.0833 -1.02964 -1.23511 0
M  V30 990 O 96.2733 -1.29007 -1.17059 0
M  V30 991 C 93.4053 -2.59881 -2.20623 0
M  V30 992 H 94.5983 -2.96715 -0.435936 0
M  V30 993 H 92.1513 -1.55141 -0.190023 0
M  V30 994 H 92.8863 -1.77431 -2.71457 0
M  V30 995 H 92.6713 -3.38727 -1.97501 0
M  V30 996 H 94.1613 -3.01285 -2.89166 0
M  V30 997 N 94.5984 0.214957 -1.56127 0
M  V30 998 C 95.8454 0.938372 -1.79446 0
M  V30 999 C 96.1734 1.8407 -0.628378 0
M  V30 1000 O 95.4284 1.91837 0.386925 0
M  V30 1001 C 95.7274 1.80314 -3.0858 0
M  V30 1002 C 95.3934 1.05349 -4.3842 0
M  V30 1003 C 94.0554 0.846435 -4.73697 0
M  V30 1004 C 96.4074 0.524588 -5.18553 0
M  V30 1005 C 93.7354 0.098683 -5.86617 0
M  V30 1006 C 96.0874 -0.209853 -6.32252 0
M  V30 1007 C 94.7514 -0.428102 -6.66126 0
M  V30 1008 H 94.0214 0.343375 -0.656639 0
M  V30 1009 H 96.6684 0.206077 -1.90388 0
M  V30 1010 H 94.9734 2.6035 -2.92789 0
M  V30 1011 H 96.6704 2.36513 -3.23825 0
M  V30 1012 H 93.2604 1.22486 -4.10725 0
M  V30 1013 H 97.4444 0.672008 -4.91729 0
M  V30 1014 H 92.7004 -0.0805753 -6.11347 0
M  V30 1015 H 96.8744 -0.627157 -6.9357 0
M  V30 1016 H 94.5014 -1.00944 -7.53468 0
M  V30 1017 N 96.0765 1.50051 0.48192 0
M  V30 1018 C 97.0235 1.68122 1.58125 0
M  V30 1019 C 97.9935 0.522545 1.57666 0
M  V30 1020 O 99.1785 0.751844 1.75362 0
M  V30 1021 C 96.3185 1.77142 2.96167 0
M  V30 1022 C 95.4315 3.0444 3.06497 0
M  V30 1023 C 94.5665 3.04321 4.35387 0
M  V30 1024 C 93.6055 4.26118 4.3942 0
M  V30 1025 N 92.7425 4.238 5.59766 0
M  V30 1026 H 97.5825 2.6198 1.42022 0
M  V30 1027 H 95.1195 1.29877 0.690687 0
M  V30 1028 H 97.0775 1.80352 3.76203 0
M  V30 1029 H 95.7075 0.867329 3.1093 0
M  V30 1030 H 94.7595 3.10752 2.19402 0
M  V30 1031 H 96.0715 3.94426 3.05336 0
M  V30 1032 H 95.2255 3.062 5.23762 0
M  V30 1033 H 93.9645 2.12147 4.39141 0
M  V30 1034 H 92.9695 4.24463 3.49444 0
M  V30 1035 H 94.1945 5.19507 4.37366 0
M  V30 1036 H 92.1405 3.34474 5.64326 0
M  V30 1037 H 92.0575 5.07542 5.60301 0
M  V30 1038 H 93.3255 4.2981 6.50295 0
M  V30 1039 N 97.5546 -0.734337 1.39446 0
M  V30 1040 C 98.9706 -1.03997 1.21065 0
M  V30 1041 C 99.1706 -2.01369 0.0727019 0
M  V30 1042 O 98.2266 -2.45856 -0.575426 0
M  V30 1043 C 99.5396 -1.60163 2.54496 0
M  V30 1044 C 101.088 -1.7224 2.61347 0
M  V30 1045 C 101.563 -2.31814 3.95002 0
M  V30 1046 N 103.054 -2.39223 3.96644 0
M  V30 1047 C 103.789 -2.86258 4.96834 0
M  V30 1048 N 103.285 -3.33184 6.07421 0
M  V30 1049 N 105.078 -2.85473 4.84213 0
M  V30 1050 H 97.2286 -0.0885624 2.12215 0
M  V30 1051 H 99.4916 -0.10191 0.942506 0
M  V30 1052 H 99.1976 -0.960811 3.38321 0
M  V30 1053 H 99.0716 -2.5896 2.74262 0
M  V30 1054 H 101.459 -2.35443 1.77906 0
M  V30 1055 H 101.54 -0.720939 2.4543 0
M  V30 1056 H 101.184 -1.69238 4.78875 0
M  V30 1057 H 101.114 -3.32638 4.08239 0
M  V30 1058 H 103.605 -2.06057 3.16779 0
M  V30 1059 H 103.918 -3.67586 6.7978 0
M  V30 1060 H 102.263 -3.31191 6.11013 0
M  V30 1061 H 105.454 -2.48136 3.96921 0
M  V30 1062 H 105.627 -3.21814 5.62441 0
M  V30 1063 N 99.0327 -1.24633 -0.964593 0
M  V30 1064 C 100.28 -1.08788 -1.70796 0
M  V30 1065 C 100.608 0.372783 -1.90894 0
M  V30 1066 O 99.8627 1.29167 -1.47018 0
M  V30 1067 C 100.162 -1.7763 -3.10133 0
M  V30 1068 C 99.8277 -3.27557 -3.09866 0
M  V30 1069 C 98.4897 -3.6846 -3.09501 0
M  V30 1070 C 100.842 -4.23389 -3.03959 0
M  V30 1071 C 98.1697 -5.03624 -3.00965 0
M  V30 1072 C 100.522 -5.58565 -2.96965 0
M  V30 1073 C 99.1857 -5.98809 -2.9493 0
M  V30 1074 H 98.4557 -0.398084 -0.624988 0
M  V30 1075 H 101.103 -1.54777 -1.12767 0
M  V30 1076 H 99.4077 -1.24044 -3.71645 0
M  V30 1077 H 101.105 -1.62832 -3.66451 0
M  V30 1078 H 97.6947 -2.95006 -3.10917 0
M  V30 1079 H 101.879 -3.92787 -3.03368 0
M  V30 1080 H 97.1347 -5.33998 -2.97752 0
M  V30 1081 H 101.309 -6.32523 -2.91354 0
M  V30 1082 H 98.9357 -7.03505 -2.88071 0
M  V30 1083 N 100.511 1.16574 -1.06058 0
M  V30 1084 C 101.458 2.20883 -0.669263 0
M  V30 1085 C 102.428 1.62729 0.332918 0
M  V30 1086 O 103.613 1.895 0.222346 0
M  V30 1087 C 100.753 3.45049 -0.0593572 0
M  V30 1088 C 99.8658 4.17458 -1.11143 0
M  V30 1089 C 99.0008 5.29135 -0.467916 0
M  V30 1090 C 98.0398 5.93343 -1.50369 0
M  V30 1091 N 97.1768 6.96516 -0.883706 0
M  V30 1092 H 102.017 2.53709 -1.5632 0
M  V30 1093 H 99.5538 1.24616 -0.781625 0
M  V30 1094 H 101.512 4.16033 0.311771 0
M  V30 1095 H 100.142 3.12781 0.797992 0
M  V30 1096 H 99.1938 3.45101 -1.60029 0
M  V30 1097 H 100.506 4.61307 -1.89731 0
M  V30 1098 H 99.6598 6.06684 -0.0436871 0
M  V30 1099 H 98.3988 4.86443 0.349864 0
M  V30 1100 H 97.4038 5.14517 -1.93784 0
M  V30 1101 H 98.6288 6.38114 -2.32352 0
M  V30 1102 H 96.5748 6.55943 -0.086595 0
M  V30 1103 H 96.4918 7.38723 -1.607 0
M  V30 1104 H 97.7598 7.77993 -0.484543 0
M  V30 1105 N 101.989 0.842826 1.3317 0
M  V30 1106 C 103.217 0.454055 2.01856 0
M  V30 1107 C 103.632 -0.94587 1.63397 0
M  V30 1108 O 102.989 -1.61534 0.849302 0
M  V30 1109 C 103.04 0.569715 3.56982 0
M  V30 1110 O 102.761 1.91448 3.94055 0
M  V30 1111 C 104.262 0.178412 4.42941 0
M  V30 1112 H 101.482 0.17979 0.646465 0
M  V30 1113 H 104.026 1.1365 1.70012 0
M  V30 1114 H 102.181 -0.0648587 3.87346 0
M  V30 1115 H 102.595 1.90282 4.88767 0
M  V30 1116 H 104.069 0.310376 5.51127 0
M  V30 1117 H 104.546 -0.880056 4.30293 0
M  V30 1118 H 105.152 0.787579 4.17944 0
M  V30 1119 N 103.467 -1.45747 0.599634 0
M  V30 1120 C 104.397 -2.33235 -0.111306 0
M  V30 1121 C 105.378 -1.46359 -0.866781 0
M  V30 1122 O 106.563 -1.75146 -0.838904 0
M  V30 1123 C 103.693 -3.28932 -1.11451 0
M  V30 1124 C 102.647 -4.25381 -0.472772 0
M  V30 1125 C 101.973 -5.1071 -1.58365 0
M  V30 1126 C 103.273 -5.18831 0.600948 0
M  V30 1127 H 104.967 -2.92927 0.61919 0
M  V30 1128 H 102.513 -1.40857 0.299215 0
M  V30 1129 H 104.466 -3.89002 -1.62036 0
M  V30 1130 H 103.19 -2.67381 -1.8755 0
M  V30 1131 H 101.849 -3.66598 0.0121472 0
M  V30 1132 H 101.497 -4.45533 -2.33473 0
M  V30 1133 H 101.197 -5.7604 -1.15982 0
M  V30 1134 H 102.721 -5.73647 -2.09194 0
M  V30 1135 H 104.135 -5.73019 0.179491 0
M  V30 1136 H 102.532 -5.92595 0.946076 0
M  V30 1137 H 103.602 -4.6174 1.48068 0
M  V30 1138 N 104.945 -0.338344 -1.53925 0
M  V30 1139 C 106.361 0.0137736 -1.59594 0
M  V30 1140 C 106.561 1.49186 -1.35447 0
M  V30 1141 O 105.617 2.24987 -1.14616 0
M  V30 1142 C 106.93 -0.41773 -2.97784 0
M  V30 1143 C 108.478 -0.369633 -3.1081 0
M  V30 1144 C 108.953 -0.776524 -4.51369 0
M  V30 1145 N 110.444 -0.730506 -4.57403 0
M  V30 1146 C 111.179 -1.01736 -5.64303 0
M  V30 1147 N 110.675 -1.3721 -6.79077 0
M  V30 1148 N 112.468 -0.941942 -5.54151 0
M  V30 1149 H 104.619 -1.3012 -1.67876 0
M  V30 1150 H 106.882 -0.530082 -0.78595 0
M  V30 1151 H 106.588 -1.44811 -3.20504 0
M  V30 1152 H 106.462 0.209729 -3.76616 0
M  V30 1153 H 108.849 0.651568 -2.87817 0
M  V30 1154 H 108.93 -1.03223 -2.34049 0
M  V30 1155 H 108.574 -1.79571 -4.75096 0
M  V30 1156 H 108.504 -0.0914649 -5.26521 0
M  V30 1157 H 110.995 -0.468783 -3.74981 0
M  V30 1158 H 111.308 -1.57597 -7.5656 0
M  V30 1159 H 109.653 -1.4105 -6.80536 0
M  V30 1160 H 112.844 -0.664184 -4.63364 0
M  V30 1161 H 113.017 -1.16884 -6.37371 0
M  V30 1162 N 106.423 1.57458 -0.0668435 0
M  V30 1163 C 107.373 2.0896 0.912119 0
M  V30 1164 C 108.357 0.998186 1.26195 0
M  V30 1165 O 109.549 1.26133 1.24175 0
M  V30 1166 C 106.678 2.6508 2.18145 0
M  V30 1167 C 105.764 3.81218 1.85832 0
M  V30 1168 N 106.155 4.90378 1.23948 0
M  V30 1169 C 104.453 3.9042 2.15612 0
M  V30 1170 C 105.154 5.71279 1.09616 0
M  V30 1171 N 104.13 5.19389 1.60423 0
M  V30 1172 H 107.932 2.90749 0.42924 0
M  V30 1173 H 105.446 1.6182 0.137184 0
M  V30 1174 H 107.443 3.0029 2.89192 0
M  V30 1175 H 106.103 1.84736 2.67025 0
M  V30 1176 H 107.114 5.09847 0.909731 0
M  V30 1177 H 103.791 3.21043 2.66903 0
M  V30 1178 H 105.181 6.69085 0.614425 0
M  V30 1179 N 107.901 -0.206675 1.56239 0
M  V30 1180 C 109.312 -0.772383 1.69974 0
M  V30 1181 C 109.663 -1.84353 0.671436 0
M  V30 1182 O 108.788 -2.15695 -0.174491 0
M  V30 1183 C 109.383 -1.40779 3.08167 0
M  V30 1184 C 107.942 -1.92072 3.23706 0
M  V30 1185 C 107.089 -0.786347 2.65917 0
M  V30 1186 H 110.04 0.0182223 1.5869 0
M  V30 1187 H 110.061 -2.27696 3.04852 0
M  V30 1188 H 109.573 -0.627958 3.82986 0
M  V30 1189 H 107.674 -2.7281 2.53782 0
M  V30 1190 H 107.787 -2.09046 4.31087 0
M  V30 1191 H 106.151 -1.1976 2.24788 0
M  V30 1192 H 106.934 -0.0189416 3.43295 0
M  V30 1193 N 109.379 -1.50304 -0.473955 0
M  V30 1194 C 110.327 -1.69482 -1.59307 0
M  V30 1195 C 111.321 -0.560669 -1.59853 0
M  V30 1196 O 112.527 -0.741087 -1.64036 0
M  V30 1197 H 108.902 -0.534892 -0.528578 0
M  V30 1198 H 110.873 -2.63364 -1.40293 0
M  V30 1199 C 109.622 -1.80354 -2.97267 0
M  V30 1200 H 108.945 -2.67012 -2.97564 0
M  V30 1201 H 110.385 -1.97798 -3.75036 0
M  V30 1202 C 108.844 -0.55448 -3.32306 0
M  V30 1203 O 109.374 0.307661 -4.0052 0
M  V30 1204 N 107.58 -0.409354 -2.87702 0
M  V30 1205 H 107.127 -1.11196 -2.32364 0
M  V30 1206 H 107.085 0.425223 -3.11511 0
M  V30 1207 N 110.857 0.726932 -1.39834 0
M  V30 1208 C 112.106 1.48214 -1.36805 0
M  V30 1209 C 112.419 1.95576 0.0305291 0
M  V30 1210 O 113.625 2.7088 0.183417 0
M  V30 1211 C 112.081 2.67854 -2.40379 0
M  V30 1212 C 111.689 2.27408 -3.85992 0
M  V30 1213 C 113.433 3.45641 -2.46439 0
M  V30 1214 C 111.34 3.43819 -4.81189 0
M  V30 1215 H 110.27 0.556606 -0.508631 0
M  V30 1216 H 112.921 0.792216 -1.65518 0
M  V30 1217 H 111.303 3.3896 -2.04749 0
M  V30 1218 H 112.477 1.63795 -4.30706 0
M  V30 1219 H 110.792 1.62692 -3.83302 0
M  V30 1220 H 113.389 4.32244 -3.14753 0
M  V30 1221 H 113.732 3.88669 -1.49139 0
M  V30 1222 H 114.265 2.8157 -2.81004 0
M  V30 1223 H 111.004 3.05834 -5.79781 0
M  V30 1224 H 110.524 4.06385 -4.41148 0
M  V30 1225 H 112.203 4.10043 -5.00474 0
M  V30 1226 N 112.336 1.25143 0.95797 0
M  V30 1227 C 113.266 1.07711 2.07173 0
M  V30 1228 C 114.247 -0.0128462 1.70095 0
M  V30 1229 O 115.432 0.156061 1.93572 0
M  V30 1230 C 112.562 0.691503 3.40346 0
M  V30 1231 C 111.516 1.73132 3.9142 0
M  V30 1232 C 110.842 1.20049 5.21049 0
M  V30 1233 C 112.142 3.1294 4.1817 0
M  V30 1234 H 113.836 2.00873 2.22014 0
M  V30 1235 H 111.382 0.967191 1.06684 0
M  V30 1236 H 113.335 0.556505 4.17709 0
M  V30 1237 H 112.059 -0.275819 3.25433 0
M  V30 1238 H 110.718 1.8547 3.16222 0
M  V30 1239 H 110.366 0.223499 5.02503 0
M  V30 1240 H 110.066 1.89545 5.56189 0
M  V30 1241 H 111.59 1.07782 6.01012 0
M  V30 1242 H 113.004 3.03775 4.86203 0
M  V30 1243 H 111.401 3.79875 4.64559 0
M  V30 1244 H 112.471 3.6025 3.24573 0
M  V30 1245 N 113.814 -1.1601 1.06675 0
M  V30 1246 C 114.777 -2.18724 0.685001 0
M  V30 1247 C 115.777 -1.58496 -0.271246 0
M  V30 1248 O 116.967 -1.74119 -0.0531156 0
M  V30 1249 C 114.099 -3.40899 0.00853648 0
M  V30 1250 H 115.292 -2.54011 1.59431 0
M  V30 1251 H 112.845 -1.30352 0.862441 0
M  V30 1252 H 113.58 -3.11173 -0.913337 0
M  V30 1253 H 113.365 -3.8587 0.696204 0
M  V30 1254 H 114.855 -4.16886 -0.24414 0
M  V30 1255 N 115.292 -0.849877 -1.32721 0
M  V30 1256 C 116.522 -0.46408 -2.0132 0
M  V30 1257 C 116.93 0.94246 -1.64056 0
M  V30 1258 O 116.273 1.6257 -0.855379 0
M  V30 1259 C 116.335 -0.517887 -3.5575 0
M  V30 1260 C 115.999 -1.88248 -4.16427 0
M  V30 1261 C 116.996 -2.84726 -4.35002 0
M  V30 1262 C 114.681 -2.17832 -4.52609 0
M  V30 1263 C 116.675 -4.08945 -4.8892 0
M  V30 1264 C 114.362 -3.42304 -5.06232 0
M  V30 1265 C 115.36 -4.37677 -5.24335 0
M  V30 1266 O 115.048 -5.59946 -5.76815 0
M  V30 1267 H 114.78 -0.181327 -0.651227 0
M  V30 1268 H 117.334 -1.14713 -1.70382 0
M  V30 1269 H 115.564 0.221997 -3.86062 0
M  V30 1270 H 117.253 -0.148366 -4.05629 0
M  V30 1271 H 118.019 -2.63174 -4.07388 0
M  V30 1272 H 113.898 -1.44385 -4.37806 0
M  V30 1273 H 117.442 -4.83396 -5.02966 0
M  V30 1274 H 113.339 -3.63709 -5.33278 0
M  V30 1275 H 114.107 -5.61838 -5.95214 0
M  V30 1276 N 116.77 1.45427 -0.607355 0
M  V30 1277 C 118.019 2.01452 -0.100036 0
M  V30 1278 C 118.332 1.48159 1.27704 0
M  V30 1279 O 119.538 1.96159 1.87707 0
M  V30 1280 C 117.994 3.59672 -0.128158 0
M  V30 1281 C 117.602 4.21962 -1.50507 0
M  V30 1282 C 119.346 4.23262 0.323932 0
M  V30 1283 C 117.253 5.72333 -1.48959 0
M  V30 1284 H 116.183 0.75325 -0.0336299 0
M  V30 1285 H 118.834 1.66901 -0.76265 0
M  V30 1286 H 117.216 3.91411 0.601105 0
M  V30 1287 H 118.39 4.01796 -2.25602 0
M  V30 1288 H 116.705 3.70565 -1.89923 0
M  V30 1289 H 119.302 5.33522 0.354691 0
M  V30 1290 H 119.645 3.93921 1.34656 0
M  V30 1291 H 120.178 3.96239 -0.352056 0
M  V30 1292 H 116.917 6.06373 -2.48981 0
M  V30 1293 H 116.437 5.94691 -0.781214 0
M  V30 1294 H 118.116 6.35525 -1.21313 0
M  V30 1295 N 118.248 0.346503 1.53744 0
M  V30 1296 C 119.525 -0.304532 1.93215 0
M  V30 1297 C 119.905 -1.67993 1.27834 0
M  V30 1298 O 119.253 -2.24411 0.430352 0
M  V30 1299 C 119.463 -0.373852 3.46992 0
M  V30 1300 C 120.811 -0.62329 4.2 0
M  V30 1301 O 121.835 -0.455847 3.53271 0
M  V30 1302 O 120.694 -0.947879 5.38217 0
M  V30 1303 H 117.788 -0.178318 0.807547 0
M  V30 1304 H 120.334 0.397895 1.64969 0
M  V30 1305 H 119.106 0.591224 3.86808 0
M  V30 1306 H 118.729 -1.12294 3.81413 0
M  V30 1307 N 119.726 -1.57421 0.075193 0
M  V30 1308 C 120.974 -1.93236 -0.591974 0
M  V30 1309 C 121.295 -0.956241 -1.69944 0
M  V30 1310 O 120.565 -0.00494792 -1.95899 0
M  V30 1311 H 119.145 -0.713355 -0.22166 0
M  V30 1312 H 121.807 -1.9444 0.133848 0
M  V30 1313 H 120.903 -2.95131 -1.01509 0
M  V30 1314 N 121.204 0.198386 -1.56346 0
M  V30 1315 C 122.134 1.24865 -1.9731 0
M  V30 1316 C 123.115 1.47651 -0.844576 0
M  V30 1317 O 124.3 1.59444 -1.10866 0
M  V30 1318 C 121.43 2.59358 -2.30977 0
M  V30 1319 C 120.384 2.5119 -3.46537 0
M  V30 1320 C 119.71 3.89926 -3.65871 0
M  V30 1321 C 121.01 2.03977 -4.80823 0
M  V30 1322 H 122.704 0.908252 -2.85291 0
M  V30 1323 H 120.25 0.435462 -1.37258 0
M  V30 1324 H 122.203 3.33011 -2.58228 0
M  V30 1325 H 120.927 2.95132 -1.39874 0
M  V30 1326 H 119.586 1.79993 -3.19371 0
M  V30 1327 H 119.234 4.23046 -2.72105 0
M  V30 1328 H 118.934 3.85336 -4.4361 0
M  V30 1329 H 120.458 4.65205 -3.95495 0
M  V30 1330 H 121.872 2.67386 -5.07127 0
M  V30 1331 H 120.269 2.10397 -5.62008 0
M  V30 1332 H 121.339 0.992861 -4.74626 0
M  V30 1333 N 122.682 1.50554 0.465978 0
M  V30 1334 C 123.592 1.72585 1.58907 0
M  V30 1335 C 124.608 0.60911 1.6299 0
M  V30 1336 O 125.784 0.88804 1.80765 0
M  V30 1337 C 122.849 1.81995 2.95091 0
M  V30 1338 C 121.91 3.05751 3.01355 0
M  V30 1339 C 121.143 3.14702 4.31043 0
M  V30 1340 O 121.366 2.30313 5.21835 0
M  V30 1341 O 120.3 4.07468 4.43005 0
M  V30 1342 H 124.126 2.67799 1.43239 0
M  V30 1343 H 121.711 1.34711 0.646013 0
M  V30 1344 H 123.593 1.90335 3.75966 0
M  V30 1345 H 122.268 0.899659 3.10947 0
M  V30 1346 H 121.175 3.02908 2.19539 0
M  V30 1347 H 122.508 3.97375 2.90437 0
M  V30 1348 N 124.16 -0.719506 1.40217 0
M  V30 1349 C 125.388 -1.50864 1.41589 0
M  V30 1350 C 125.803 -1.88794 0.0145275 0
M  V30 1351 O 125.16 -1.55174 -0.960594 0
M  V30 1352 C 125.211 -2.78646 2.30302 0
M  V30 1353 O 124.932 -2.42321 3.64983 0
M  V30 1354 C 126.433 -3.72569 2.40224 0
M  V30 1355 H 123.653 -0.465709 0.48307 0
M  V30 1356 H 126.197 -0.88785 1.84221 0
M  V30 1357 H 124.352 -3.37019 1.91042 0
M  V30 1358 H 124.766 -3.24514 4.12057 0
M  V30 1359 H 126.24 -4.5908 3.06512 0
M  V30 1360 H 126.717 -4.15403 1.42608 0
M  V30 1361 H 127.323 -3.20109 2.80019 0
M  V30 1362 N 125.638 -1.25649 -0.95132 0
M  V30 1363 C 126.548 -1.08073 -2.08224 0
M  V30 1364 C 127.564 -0.0169666 -1.73992 0
M  V30 1365 O 128.74 -0.218593 -2.0021 0
M  V30 1366 C 125.805 -0.704922 -3.39458 0
M  V30 1367 C 124.866 -1.84699 -3.87537 0
M  V30 1368 C 124.099 -1.48902 -5.12508 0
M  V30 1369 O 124.322 -0.386156 -5.69091 0
M  V30 1370 O 123.256 -2.32033 -5.55378 0
M  V30 1371 H 127.082 -2.02924 -2.25954 0
M  V30 1372 H 124.667 -1.04618 -1.06656 0
M  V30 1373 H 126.549 -0.507609 -4.18332 0
M  V30 1374 H 125.224 0.214291 -3.2299 0
M  V30 1375 H 124.131 -2.09919 -3.09653 0
M  V30 1376 H 125.464 -2.74557 -4.08509 0
M  V30 1377 N 127.117 1.15442 -1.07289 0
M  V30 1378 C 128.064 2.20161 -0.692653 0
M  V30 1379 C 129.034 1.63073 0.31564 0
M  V30 1380 O 130.219 1.89725 0.202235 0
M  V30 1381 C 127.359 3.44967 -0.0959509 0
M  V30 1382 C 126.472 4.16256 -1.15564 0
M  V30 1383 C 125.607 5.28609 -0.524011 0
M  V30 1384 C 124.646 5.91715 -1.56653 0
M  V30 1385 N 123.783 6.9554 -0.957531 0
M  V30 1386 H 128.623 2.52037 -1.59002 0
M  V30 1387 H 126.16 1.2378 -0.794798 0
M  V30 1388 H 128.118 4.16341 0.267628 0
M  V30 1389 H 126.748 3.1361 0.764772 0
M  V30 1390 H 125.8 3.43385 -1.6368 0
M  V30 1391 H 127.112 4.59268 -1.94613 0
M  V30 1392 H 126.266 6.06604 -0.108032 0
M  V30 1393 H 125.005 4.86787 0.29825 0
M  V30 1394 H 124.01 5.12433 -1.9923 0
M  V30 1395 H 125.235 6.35614 -2.39107 0
M  V30 1396 H 123.181 6.55814 -0.156162 0
M  V30 1397 H 123.098 7.36977 -1.68526 0
M  V30 1398 H 124.366 7.77435 -0.567032 0
M  V30 1399 N 128.595 0.856903 1.32268 0
M  V30 1400 C 129.835 0.467705 1.98977 0
M  V30 1401 C 130.199 -0.959231 1.66321 0
M  V30 1402 O 131.4 -1.4531 2.26138 0
M  V30 1403 C 129.671 0.70256 3.50427 0
M  V30 1404 S 131.23 0.411269 4.36868 0
M  V30 1405 H 128.048 0.175121 0.689096 0
M  V30 1406 H 130.65 1.1101 1.60925 0
M  V30 1407 H 129.354 1.74012 3.71683 0
M  V30 1408 H 128.885 0.0466707 3.93372 0
M  V30 1409 H 130.9 -0.761799 4.90317 0
M  V30 1410 N 130.073 -1.45103 0.615059 0
M  V30 1411 C 131.003 -2.33339 -0.0865619 0
M  V30 1412 C 131.984 -1.4727 -0.851209 0
M  V30 1413 O 133.169 -1.76026 -0.820281 0
M  V30 1414 C 130.299 -3.30095 -1.07956 0
M  V30 1415 C 129.253 -4.25858 -0.427628 0
M  V30 1416 C 128.579 -5.12361 -1.5294 0
M  V30 1417 C 129.879 -5.18165 0.655944 0
M  V30 1418 H 131.573 -2.92254 0.650224 0
M  V30 1419 H 129.119 -1.40532 0.314138 0
M  V30 1420 H 131.072 -3.90698 -1.57901 0
M  V30 1421 H 129.796 -2.69355 -1.84703 0
M  V30 1422 H 128.455 -3.66564 0.0510292 0
M  V30 1423 H 128.103 -4.47984 -2.28734 0
M  V30 1424 H 127.803 -5.77238 -1.09865 0
M  V30 1425 H 129.327 -5.75833 -2.03098 0
M  V30 1426 H 130.741 -5.72796 0.240257 0
M  V30 1427 H 129.138 -5.91559 1.00888 0
M  V30 1428 H 130.208 -4.60144 1.52957 0
M  V30 1429 N 131.551 -0.354651 -1.53558 0
M  V30 1430 C 132.501 0.513179 -2.2215 0
M  V30 1431 C 133.485 1.05734 -1.21281 0
M  V30 1432 O 134.677 0.989202 -1.46778 0
M  V30 1433 C 131.806 1.65798 -3.00609 0
M  V30 1434 C 130.892 1.12722 -4.08845 0
M  V30 1435 N 131.283 0.318563 -5.04796 0
M  V30 1436 C 129.581 1.40307 -4.23356 0
M  V30 1437 C 130.282 0.0292224 -5.81693 0
M  V30 1438 N 129.258 0.623891 -5.40008 0
M  V30 1439 H 133.06 -0.111586 -2.93688 0
M  V30 1440 H 130.574 -0.162091 -1.61589 0
M  V30 1441 H 132.571 2.29176 -3.48258 0
M  V30 1442 H 131.231 2.28591 -2.306 0
M  V30 1443 H 132.242 -0.0413091 -5.17884 0
M  V30 1444 H 128.919 2.03458 -3.6457 0
M  V30 1445 H 130.309 -0.623808 -6.68998 0
M  V30 1446 N 133.029 1.57378 -0.0835403 0
M  V30 1447 C 134.275 1.94217 0.583733 0
M  V30 1448 C 134.608 0.964653 1.68547 0
M  V30 1449 O 133.883 -0.00422258 1.945 0
M  V30 1450 C 134.166 3.41253 1.14972 0
M  V30 1451 C 134.019 4.49768 0.0538277 0
M  V30 1452 C 135.338 3.89352 2.05166 0
M  V30 1453 H 132.457 0.706233 0.210724 0
M  V30 1454 H 135.099 1.89392 -0.1519 0
M  V30 1455 H 133.249 3.45496 1.77665 0
M  V30 1456 H 134.921 4.57641 -0.579851 0
M  V30 1457 H 133.164 4.29432 -0.614068 0
M  V30 1458 H 133.835 5.49817 0.490452 0
M  V30 1459 H 136.311 3.87189 1.52393 0
M  V30 1460 H 135.187 4.92822 2.41698 0
M  V30 1461 H 135.448 3.27973 2.96456 0
M  V30 1462 N 134.507 -0.190092 1.56449 0
M  V30 1463 C 135.753 -0.911052 1.81184 0
M  V30 1464 C 136.086 -1.82699 0.658396 0
M  V30 1465 O 135.361 -1.91491 -0.340775 0
M  V30 1466 C 135.644 -1.72297 3.16205 0
M  V30 1467 C 135.497 -0.831419 4.42049 0
M  V30 1468 C 136.816 -2.69454 3.47969 0
M  V30 1469 H 133.935 -0.32977 0.659106 0
M  V30 1470 H 136.577 -0.178169 1.89163 0
M  V30 1471 H 134.727 -2.34778 3.09534 0
M  V30 1472 H 136.399 -0.220929 4.60771 0
M  V30 1473 H 134.642 -0.138406 4.33579 0
M  V30 1474 H 135.313 -1.43461 5.33032 0
M  V30 1475 H 137.789 -2.17104 3.54972 0
M  V30 1476 H 136.665 -3.23342 4.43555 0
M  V30 1477 H 136.926 -3.48744 2.71717 0
M  V30 1478 N 135.985 -1.50799 -0.457987 0
M  V30 1479 C 137.213 -1.66218 -1.23203 0
M  V30 1480 C 137.628 -0.350894 -1.85511 0
M  V30 1481 O 136.985 0.668546 -1.69814 0
M  V30 1482 C 137.036 -2.76291 -2.33121 0
M  V30 1483 O 136.757 -4.02338 -1.73366 0
M  V30 1484 C 138.258 -3.028 -3.2377 0
M  V30 1485 H 135.478 -0.558361 -0.372121 0
M  V30 1486 H 138.022 -1.97099 -0.545179 0
M  V30 1487 H 136.177 -2.48068 -2.97558 0
M  V30 1488 H 136.591 -4.63312 -2.4585 0
M  V30 1489 H 138.065 -3.8345 -3.97077 0
M  V30 1490 H 138.542 -2.14385 -3.83322 0
M  V30 1491 H 139.148 -3.32604 -2.65056 0
M  V30 1492 N 137.463 0.71206 -1.40597 0
M  V30 1493 C 138.373 1.8562 -1.43466 0
M  V30 1494 C 139.389 1.70902 -0.326902 0
M  V30 1495 O 140.565 1.93105 -0.572043 0
M  V30 1496 C 137.63 3.21451 -1.29884 0
M  V30 1497 C 136.691 3.48398 -2.50833 0
M  V30 1498 C 135.924 4.77749 -2.3789 0
M  V30 1499 O 136.147 5.53089 -1.39459 0
M  V30 1500 O 135.081 5.05111 -3.27333 0
M  V30 1501 H 138.907 1.86155 -2.39958 0
M  V30 1502 H 136.492 0.86295 -1.21957 0
M  V30 1503 H 138.374 4.02579 -1.24531 0
M  V30 1504 H 137.049 3.21636 -0.364997 0
M  V30 1505 H 135.956 2.67265 -2.61763 0
M  V30 1506 H 137.289 3.53014 -3.4299 0
M  V30 1507 N 138.941 1.26152 0.944643 0
M  V30 1508 C 139.904 1.07474 2.0244 0
M  V30 1509 C 140.904 0.0242064 1.60782 0
M  V30 1510 O 142.094 0.267302 1.72137 0
M  V30 1511 C 139.226 0.633956 3.34953 0
M  V30 1512 H 140.419 2.03336 2.20442 0
M  V30 1513 H 137.972 1.087 1.12312 0
M  V30 1514 H 138.707 -0.326811 3.22649 0
M  V30 1515 H 138.492 1.39247 3.66542 0
M  V30 1516 H 139.982 0.52501 4.14287 0
M  V30 1517 N 140.419 -1.14872 1.07899 0
M  V30 1518 C 141.665 -1.86064 0.806725 0
M  V30 1519 C 141.998 -1.82434 -0.665706 0
M  V30 1520 O 141.273 -1.25138 -1.48899 0
M  V30 1521 C 141.556 -3.34929 1.32267 0
M  V30 1522 C 141.409 -3.47161 2.86006 0
M  V30 1523 C 142.728 -4.29863 0.943717 0
M  V30 1524 H 139.847 -0.675591 0.294526 0
M  V30 1525 H 142.489 -1.34925 1.33773 0
M  V30 1526 H 140.639 -3.78611 0.870974 0
M  V30 1527 H 142.311 -3.12302 3.39507 0
M  V30 1528 H 140.554 -2.88539 3.23925 0
M  V30 1529 H 141.225 -4.51777 3.17177 0
M  V30 1530 H 143.701 -3.9417 1.33302 0
M  V30 1531 H 142.577 -5.32494 1.33198 0
M  V30 1532 H 142.838 -4.41846 -0.149796 0
M  V30 1533 N 141.898 -0.863906 -1.31812 0
M  V30 1534 C 143.126 -0.486111 -2.01108 0
M  V30 1535 C 143.541 0.919755 -1.64882 0
M  V30 1536 O 142.898 1.60162 -0.874893 0
M  V30 1537 C 142.949 -0.626435 -3.56031 0
M  V30 1538 O 142.67 -1.97693 -3.90959 0
M  V30 1539 C 144.171 -0.248857 -4.42601 0
M  V30 1540 H 141.391 -0.190052 -0.643523 0
M  V30 1541 H 143.935 -1.1634 -1.68182 0
M  V30 1542 H 142.09 0.00322717 -3.874 0
M  V30 1543 H 142.504 -1.98034 -4.85678 0
M  V30 1544 H 143.978 -0.398016 -5.50563 0
M  V30 1545 H 144.455 0.811489 -4.31638 0
M  V30 1546 H 145.061 -0.853971 -4.16638 0
M  V30 1547 N 143.376 1.44774 -0.622745 0
M  V30 1548 C 144.787 1.85546 -0.207226 0
M  V30 1549 C 145.138 1.52093 1.23944 0
M  V30 1550 O 144.263 0.95492 1.94191 0
M  V30 1551 C 144.858 3.36781 -0.369313 0
M  V30 1552 C 143.417 3.76399 -0.00836847 0
M  V30 1553 C 142.564 2.68664 -0.686651 0
M  V30 1554 H 145.515 1.3536 -0.828454 0
M  V30 1555 H 145.536 3.78453 0.394162 0
M  V30 1556 H 145.048 3.61098 -1.42231 0
M  V30 1557 H 143.149 3.57698 1.04322 0
M  V30 1558 H 143.262 4.7732 -0.412584 0
M  V30 1559 H 141.626 2.54404 -0.122777 0
M  V30 1560 H 142.409 2.95815 -1.74208 0
M  V30 1561 N 144.854 0.36279 1.53368 0
M  V30 1562 C 145.784 -0.476976 2.28576 0
M  V30 1563 C 146.765 -1.08631 1.30894 0
M  V30 1564 O 147.95 -1.10409 1.59761 0
M  V30 1565 C 145.08 -1.61828 3.07293 0
M  V30 1566 C 144.034 -1.13633 4.1264 0
M  V30 1567 C 143.36 -2.36766 4.79423 0
M  V30 1568 C 144.66 -0.223061 5.21823 0
M  V30 1569 H 146.354 0.150474 2.99022 0
M  V30 1570 H 143.9 0.0738103 1.43811 0
M  V30 1571 H 145.853 -2.21237 3.58653 0
M  V30 1572 H 144.577 -2.27292 2.34533 0
M  V30 1573 H 143.236 -0.564945 3.62221 0
M  V30 1574 H 142.884 -3.0068 4.03238 0
M  V30 1575 H 142.584 -2.05192 5.50609 0
M  V30 1576 H 144.108 -2.96865 5.33576 0
M  V30 1577 H 145.522 -0.724545 5.68703 0
M  V30 1578 H 143.919 0.001678 6.001 0
M  V30 1579 H 144.989 0.735553 4.79289 0
M  V30 1580 N 146.332 -1.57332 0.0918853 0
M  V30 1581 C 147.58 -1.93853 -0.571446 0
M  V30 1582 C 147.901 -0.974212 -1.6892 0
M  V30 1583 O 147.171 -0.0257254 -1.95883 0
M  V30 1584 H 145.751 -0.715666 -0.214082 0
M  V30 1585 H 148.413 -1.94287 0.154464 0
M  V30 1586 H 147.509 -2.96191 -0.983729 0
M  V30 1587 N 147.81 0.181792 -1.56548 0
M  V30 1588 C 149.059 0.898348 -1.8059 0
M  V30 1589 C 149.372 1.83862 -0.667379 0
M  V30 1590 O 150.578 2.59678 -0.792446 0
M  V30 1591 C 149.034 1.64791 -3.19956 0
M  V30 1592 C 148.642 0.751789 -4.41647 0
M  V30 1593 C 150.386 2.35331 -3.53298 0
M  V30 1594 C 148.293 1.50098 -5.72035 0
M  V30 1595 H 147.223 0.339194 -0.673397 0
M  V30 1596 H 149.874 0.151413 -1.82874 0
M  V30 1597 H 148.256 2.43921 -3.11959 0
M  V30 1598 H 149.43 -0.0018076 -4.608 0
M  V30 1599 H 147.745 0.156562 -4.16106 0
M  V30 1600 H 150.342 2.91958 -4.47956 0
M  V30 1601 H 150.685 3.10164 -2.77676 0
M  V30 1602 H 151.218 1.63154 -3.62803 0
M  V30 1603 H 147.957 0.795175 -6.50659 0
M  V30 1604 H 147.477 2.22817 -5.56878 0
M  V30 1605 H 149.156 2.05125 -6.13622 0
M  V30 1606 N 149.288 1.51039 0.449983 0
M  V30 1607 C 150.518 1.66627 1.22143 0
M  V30 1608 C 150.926 0.357776 1.85786 0
M  V30 1609 O 150.269 -0.672424 1.70951 0
M  V30 1610 C 150.331 2.71562 2.35573 0
M  V30 1611 C 149.995 4.14526 1.92399 0
M  V30 1612 C 150.992 4.99717 1.43453 0
M  V30 1613 C 148.677 4.60559 2.00475 0
M  V30 1614 C 150.671 6.28998 1.03155 0
M  V30 1615 C 148.358 5.8984 1.59788 0
M  V30 1616 C 149.356 6.73886 1.11208 0
M  V30 1617 O 149.044 8.0075 0.710935 0
M  V30 1618 H 148.776 0.562635 0.374724 0
M  V30 1619 H 151.33 1.98146 0.541036 0
M  V30 1620 H 149.56 2.3533 3.06849 0
M  V30 1621 H 151.249 2.76156 2.97478 0
M  V30 1622 H 152.015 4.65361 1.36618 0
M  V30 1623 H 147.894 3.95273 2.37235 0
M  V30 1624 H 151.438 6.9455 0.651663 0
M  V30 1625 H 147.335 6.23713 1.66289 0
M  V30 1626 H 148.103 8.142 0.837913 0
M  V30 1627 N 150.766 -0.704594 1.40972 0
M  V30 1628 C 151.696 -1.83124 1.44872 0
M  V30 1629 C 152.677 -1.67281 0.30838 0
M  V30 1630 O 153.862 -1.87149 0.518556 0
M  V30 1631 C 150.992 -3.21181 1.32136 0
M  V30 1632 C 149.946 -3.51714 2.43888 0
M  V30 1633 C 149.272 -4.89032 2.16222 0
M  V30 1634 C 150.572 -3.516 3.86232 0
M  V30 1635 H 152.266 -1.80117 2.39161 0
M  V30 1636 H 149.812 -0.865145 1.15114 0
M  V30 1637 H 151.765 -3.99702 1.33479 0
M  V30 1638 H 150.489 -3.24791 0.343279 0
M  V30 1639 H 149.148 -2.75539 2.41813 0
M  V30 1640 H 148.796 -4.89256 1.16778 0
M  V30 1641 H 148.496 -5.10426 2.911 0
M  V30 1642 H 150.02 -5.69873 2.19265 0
M  V30 1643 H 151.434 -4.2014 3.9007 0
M  V30 1644 H 149.831 -3.84523 4.60719 0
M  V30 1645 H 150.901 -2.50757 4.15029 0
M  V30 1646 N 152.244 -1.26651 -0.937939 0
M  V30 1647 C 153.191 -1.0849 -2.03712 0
M  V30 1648 C 154.161 0.011033 -1.66096 0
M  V30 1649 O 155.346 -0.149353 -1.90215 0
M  V30 1650 C 152.486 -0.72735 -3.37348 0
M  V30 1651 C 151.599 -1.89986 -3.87981 0
M  V30 1652 C 150.734 -1.48513 -5.10017 0
M  V30 1653 C 149.773 -2.62575 -5.5292 0
M  V30 1654 N 148.91 -2.21762 -6.66158 0
M  V30 1655 H 153.75 -2.02551 -2.18579 0
M  V30 1656 H 151.287 -1.00844 -1.07093 0
M  V30 1657 H 153.245 -0.50092 -4.14182 0
M  V30 1658 H 151.875 0.176298 -3.22318 0
M  V30 1659 H 150.927 -2.23913 -3.07518 0
M  V30 1660 H 152.239 -2.75586 -4.15757 0
M  V30 1661 H 151.393 -1.21934 -5.94321 0
M  V30 1662 H 150.132 -0.60009 -4.83994 0
M  V30 1663 H 149.137 -2.8988 -4.67172 0
M  V30 1664 H 150.362 -3.51685 -5.80943 0
M  V30 1665 H 148.308 -1.35696 -6.41812 0
M  V30 1666 H 148.225 -3.00903 -6.93537 0
M  V30 1667 H 149.493 -1.98403 -7.53828 0
M  V30 1668 N 153.722 1.14298 -1.08507 0
M  V30 1669 C 154.685 2.17607 -0.719711 0
M  V30 1670 C 155.685 1.58907 0.245997 0
M  V30 1671 O 156.875 1.74181 0.0254081 0
M  V30 1672 C 154.007 3.40842 -0.0627695 0
M  V30 1673 H 155.2 2.51443 -1.63452 0
M  V30 1674 H 152.753 1.28963 -0.88307 0
M  V30 1675 H 153.488 3.12587 0.863716 0
M  V30 1676 H 153.273 3.84713 -0.757504 0
M  V30 1677 H 154.763 4.17221 0.177786 0
M  V30 1678 N 155.201 0.870884 1.31352 0
M  V30 1679 C 156.617 0.562932 1.49343 0
M  V30 1680 C 156.817 -0.902725 1.80148 0
M  V30 1681 O 155.873 -1.68484 1.88067 0
M  V30 1682 C 157.186 1.46393 2.62659 0
M  V30 1683 C 158.734 1.46607 2.76542 0
M  V30 1684 C 159.209 2.35266 3.92955 0
M  V30 1685 N 160.7 2.33151 4.00243 0
M  V30 1686 C 161.435 2.98471 4.89594 0
M  V30 1687 N 160.931 3.72964 5.8384 0
M  V30 1688 N 162.724 2.87775 4.82848 0
M  V30 1689 H 154.875 1.81923 1.09626 0
M  V30 1690 H 157.138 0.777934 0.541777 0
M  V30 1691 H 156.844 2.50689 2.46674 0
M  V30 1692 H 156.718 1.16314 3.58819 0
M  V30 1693 H 159.105 0.43069 2.9194 0
M  V30 1694 H 159.186 1.8071 1.81046 0
M  V30 1695 H 158.83 3.38881 3.78315 0
M  V30 1696 H 158.76 1.98487 4.87761 0
M  V30 1697 H 161.251 1.79006 3.32814 0
M  V30 1698 H 161.564 4.19932 6.4875 0
M  V30 1699 H 159.909 3.77073 5.83816 0
M  V30 1700 H 163.1 2.29116 4.08195 0
M  V30 1701 H 163.273 3.38961 5.52277 0
M  V30 1702 N 156.679 -1.44442 0.630414 0
M  V30 1703 C 157.925 -2.02351 0.134816 0
M  V30 1704 C 158.258 -1.4947 -1.23986 0
M  V30 1705 O 157.533 -0.678475 -1.82283 0
M  V30 1706 C 157.816 -3.59898 0.120707 0
M  V30 1707 C 157.669 -4.23063 1.52767 0
M  V30 1708 C 158.988 -4.36585 -0.555127 0
M  V30 1709 H 156.107 -0.73527 0.0504646 0
M  V30 1710 H 158.749 -1.72022 0.806751 0
M  V30 1711 H 156.899 -3.85868 -0.451477 0
M  V30 1712 H 158.571 -4.08202 2.14869 0
M  V30 1713 H 156.814 -3.80586 2.08175 0
M  V30 1714 H 157.485 -5.32071 1.46984 0
M  V30 1715 H 159.961 -4.16044 -0.0685429 0
M  V30 1716 H 158.837 -5.46294 -0.534185 0
M  V30 1717 H 159.098 -4.11138 -1.62535 0
M  V30 1718 N 158.157 -0.370918 -1.53173 0
M  V30 1719 C 159.067 0.480823 -2.2962 0
M  V30 1720 C 160.083 1.08789 -1.35798 0
M  V30 1721 O 161.259 1.09768 -1.68858 0
M  V30 1722 C 158.324 1.60227 -3.07454 0
M  V30 1723 C 157.385 1.0222 -4.16953 0
M  V30 1724 C 156.618 2.0902 -4.91066 0
M  V30 1725 O 156.841 3.30222 -4.65091 0
M  V30 1726 O 155.775 1.71778 -5.76867 0
M  V30 1727 H 159.601 -0.141421 -3.03371 0
M  V30 1728 H 157.186 -0.135146 -1.48787 0
M  V30 1729 H 159.068 2.25417 -3.56041 0
M  V30 1730 H 157.743 2.20982 -2.36535 0
M  V30 1731 H 156.65 0.334064 -3.72605 0
M  V30 1732 H 157.983 0.459131 -4.90054 0
M  V30 1733 N 159.635 1.57281 -0.100228 0
M  V30 1734 C 160.598 2.13158 0.842398 0
M  V30 1735 C 161.598 1.06202 1.20738 0
M  V30 1736 O 162.788 1.32066 1.13597 0
M  V30 1737 C 159.92 2.65639 2.13655 0
M  V30 1738 H 161.113 2.97766 0.357114 0
M  V30 1739 H 158.666 1.5559 0.148823 0
M  V30 1740 H 159.401 1.84566 2.66657 0
M  V30 1741 H 159.186 3.43844 1.88451 0
M  V30 1742 H 160.676 3.08846 2.81077 0
M  V30 1743 N 161.113 -0.173488 1.56642 0
M  V30 1744 C 162.361 -0.888706 1.81512 0
M  V30 1745 C 162.682 -1.82875 0.676872 0
M  V30 1746 O 161.952 -1.93536 -0.303414 0
M  V30 1747 H 160.532 -0.331164 0.669582 0
M  V30 1748 H 163.194 -0.173823 1.94123 0
M  V30 1749 H 162.29 -1.46691 2.75478 0
M  V30 1750 N 162.591 -1.51276 -0.441967 0
M  V30 1751 C 163.839 -1.63392 -1.18943 0
M  V30 1752 C 164.16 -0.350159 -1.9183 0
M  V30 1753 O 163.43 0.633784 -1.85364 0
M  V30 1754 H 162.01 -0.602164 -0.442049 0
M  V30 1755 H 164.672 -1.88186 -0.507165 0
M  V30 1756 H 163.768 -2.45934 -1.92154 0
M  V30 1757 N 164.069 0.697108 -1.41344 0
M  V30 1758 C 164.999 1.82353 -1.45841 0
M  V30 1759 C 165.98 1.67115 -0.317247 0
M  V30 1760 O 167.165 1.86871 -0.528474 0
M  V30 1761 C 164.295 3.20476 -1.33838 0
M  V30 1762 C 163.249 3.50415 -2.4575 0
M  V30 1763 C 162.575 4.87878 -2.18813 0
M  V30 1764 C 163.875 3.49546 -3.88091 0
M  V30 1765 H 165.569 1.78846 -2.40113 0
M  V30 1766 H 163.115 0.859028 -1.15571 0
M  V30 1767 H 165.068 3.98988 -1.35596 0
M  V30 1768 H 163.792 3.24604 -0.360498 0
M  V30 1769 H 162.451 2.74253 -2.43271 0
M  V30 1770 H 162.099 4.8863 -1.19371 0
M  V30 1771 H 161.799 5.08875 -2.93803 0
M  V30 1772 H 163.323 5.68702 -2.22284 0
M  V30 1773 H 164.737 4.18066 -3.92293 0
M  V30 1774 H 163.134 3.82075 -4.62751 0
M  V30 1775 H 164.204 2.48552 -4.16353 0
M  V30 1776 N 165.547 1.27147 0.931209 0
M  V30 1777 C 166.494 1.09568 2.03134 0
M  V30 1778 C 167.464 -0.00222433 1.661 0
M  V30 1779 O 168.649 0.159439 1.90133 0
M  V30 1780 C 165.789 0.745231 3.36957 0
M  V30 1781 C 164.902 1.92041 3.86968 0
M  V30 1782 C 164.037 1.51216 5.09222 0
M  V30 1783 C 163.076 2.65504 5.5152 0
M  V30 1784 N 162.213 2.25291 6.64972 0
M  V30 1785 H 167.053 2.03708 2.17502 0
M  V30 1786 H 164.59 1.01411 1.06556 0
M  V30 1787 H 166.548 0.522878 4.1391 0
M  V30 1788 H 165.178 -0.159202 3.22407 0
M  V30 1789 H 164.23 2.25541 3.06326 0
M  V30 1790 H 165.542 2.77787 4.1429 0
M  V30 1791 H 164.696 1.25084 5.93666 0
M  V30 1792 H 163.435 0.625749 4.83669 0
M  V30 1793 H 162.44 2.92354 4.65628 0
M  V30 1794 H 163.665 3.54761 5.7907 0
M  V30 1795 H 161.611 1.39098 6.41083 0
M  V30 1796 H 161.528 3.04577 6.91931 0
M  V30 1797 H 162.796 2.02398 7.52765 0
M  V30 1798 N 167.025 -1.13721 1.09112 0
M  V30 1799 C 167.935 -2.22638 0.73957 0
M  V30 1800 C 168.951 -1.72091 -0.257068 0
M  V30 1801 O 170.127 -2.01155 -0.0992154 0
M  V30 1802 C 167.192 -3.46322 0.16191 0
M  V30 1803 C 166.253 -4.11775 1.21408 0
M  V30 1804 C 165.486 -5.29555 0.663891 0
M  V30 1805 O 165.709 -5.68077 -0.514274 0
M  V30 1806 O 164.643 -5.84973 1.41738 0
M  V30 1807 H 168.469 -2.55074 1.64836 0
M  V30 1808 H 166.054 -1.21791 0.865289 0
M  V30 1809 H 167.936 -4.21107 -0.157073 0
M  V30 1810 H 166.611 -3.15593 -0.719932 0
M  V30 1811 H 165.518 -3.3883 1.58571 0
M  V30 1812 H 166.851 -4.46627 2.06845 0
M  V30 1813 N 168.503 -0.877838 -1.30888 0
M  V30 1814 C 169.433 -0.35534 -2.3078 0
M  V30 1815 C 170.414 0.557994 -1.60687 0
M  V30 1816 O 171.599 0.473355 -1.88343 0
M  V30 1817 C 168.729 0.437221 -3.44537 0
M  V30 1818 C 167.683 -0.383715 -4.26276 0
M  V30 1819 C 167.009 0.535014 -5.32017 0
M  V30 1820 C 168.309 -1.62201 -4.96476 0
M  V30 1821 H 170.003 -1.19007 -2.74732 0
M  V30 1822 H 167.549 -0.573698 -1.32078 0
M  V30 1823 H 169.502 0.813334 -4.13477 0
M  V30 1824 H 168.226 1.30553 -2.99372 0
M  V30 1825 H 166.885 -0.741874 -3.59015 0
M  V30 1826 H 166.533 1.40083 -4.831 0
M  V30 1827 H 166.233 -0.0104211 -5.87599 0
M  V30 1828 H 167.757 0.907799 -6.03814 0
M  V30 1829 H 169.171 -1.31689 -5.5797 0
M  V30 1830 H 167.568 -2.10711 -5.61891 0
M  V30 1831 H 168.638 -2.37044 -4.23011 0
M  V30 1832 N 169.982 1.44106 -0.638065 0
M  V30 1833 C 170.892 2.34513 0.0637334 0
M  V30 1834 C 171.908 1.53018 0.828346 0
M  V30 1835 O 173.084 1.85723 0.779036 0
M  V30 1836 C 170.149 3.31095 1.02844 0
M  V30 1837 C 169.21 4.28497 0.26244 0
M  V30 1838 C 168.443 5.20465 1.1812 0
M  V30 1839 O 168.666 5.16514 2.42011 0
M  V30 1840 O 167.6 5.98251 0.661774 0
M  V30 1841 H 171.426 2.95989 -0.68003 0
M  V30 1842 H 169.011 1.43994 -0.398252 0
M  V30 1843 H 170.893 3.90526 1.58327 0
M  V30 1844 H 169.568 2.72144 1.7527 0
M  V30 1845 H 168.475 3.72592 -0.335602 0
M  V30 1846 H 169.808 4.90388 -0.421936 0
M  V30 1847 N 171.46 0.379036 1.52974 0
M  V30 1848 C 172.709 -0.207612 2.00629 0
M  V30 1849 C 173.022 -1.48758 1.27006 0
M  V30 1850 O 174.228 -2.15365 1.65318 0
M  V30 1851 C 172.684 -0.42053 3.57435 0
M  V30 1852 C 172.292 0.845587 4.39948 0
M  V30 1853 C 174.036 -0.964102 4.13407 0
M  V30 1854 C 171.943 0.601513 5.88333 0
M  V30 1855 H 170.873 -0.0813591 0.749598 0
M  V30 1856 H 173.524 0.499853 1.76561 0
M  V30 1857 H 171.906 -1.18959 3.7771 0
M  V30 1858 H 173.08 1.61848 4.31442 0
M  V30 1859 H 171.395 1.31336 3.95145 0
M  V30 1860 H 173.992 -1.16225 5.21916 0
M  V30 1861 H 174.335 -1.93019 3.68849 0
M  V30 1862 H 174.868 -0.25487 3.96983 0
M  V30 1863 H 171.607 1.53831 6.37194 0
M  V30 1864 H 171.127 -0.132628 5.99653 0
M  V30 1865 H 172.806 0.232134 6.46583 0
M  V30 1866 N 172.938 -1.57226 0.108567 0
M  V30 1867 C 174.163 -1.99604 -0.563303 0
M  V30 1868 C 174.588 -0.987563 -1.6009 0
M  V30 1869 O 173.946 0.0421687 -1.81251 0
M  V30 1870 C 173.994 -3.40902 -1.17552 0
M  V30 1871 O 173.098 -3.42896 -2.2912 0
M  V30 1872 H 172.439 -0.648704 -0.1417 0
M  V30 1873 H 174.969 -2.03679 0.193961 0
M  V30 1874 H 174.979 -3.78886 -1.51357 0
M  V30 1875 H 173.654 -4.1382 -0.415445 0
M  V30 1876 H 172.231 -3.1672 -1.96832 0
M  V30 1877 N 174.416 0.165178 -1.56732 0
M  V30 1878 C 175.662 0.877389 -1.83503 0
M  V30 1879 C 176.017 1.79602 -0.689996 0
M  V30 1880 O 175.31 1.89023 0.313205 0
M  V30 1881 C 175.504 1.70405 -3.1416 0
M  V30 1882 C 175.333 0.866961 -4.41264 0
M  V30 1883 C 174.103 0.539646 -5.0241 0
M  V30 1884 C 176.301 0.205671 -5.13889 0
M  V30 1885 N 174.283 -0.312946 -6.13102 0
M  V30 1886 C 175.654 -0.507823 -6.17917 0
M  V30 1887 C 177.709 0.124468 -4.97744 0
M  V30 1888 C 176.412 -1.29483 -7.0755 0
M  V30 1889 C 178.438 -0.649222 -5.87826 0
M  V30 1890 C 177.8 -1.35106 -6.91322 0
M  V30 1891 H 173.899 0.299477 -0.722383 0
M  V30 1892 H 176.483 0.143949 -1.94167 0
M  V30 1893 H 174.654 2.40887 -3.04677 0
M  V30 1894 H 176.386 2.35804 -3.28905 0
M  V30 1895 H 173.141 0.871176 -4.65519 0
M  V30 1896 H 173.565 -0.729731 -6.73056 0
M  V30 1897 H 178.207 0.652724 -4.17731 0
M  V30 1898 H 175.925 -1.83441 -7.87004 0
M  V30 1899 H 179.511 -0.713804 -5.77405 0
M  V30 1900 H 178.391 -1.94013 -7.59821 0
M  V30 1901 N 175.894 1.51508 0.433938 0
M  V30 1902 C 177.142 1.6402 1.18075 0
M  V30 1903 C 177.463 0.360328 1.91642 0
M  V30 1904 O 176.733 -0.623945 1.85698 0
M  V30 1905 H 175.313 0.6045 0.43885 0
M  V30 1906 H 177.975 1.88452 0.497178 0
M  V30 1907 H 177.071 2.46949 1.90847 0
M  V30 1908 N 177.372 -0.689602 1.41712 0
M  V30 1909 C 178.302 -1.81577 1.46806 0
M  V30 1910 C 179.283 -1.66945 0.326105 0
M  V30 1911 O 180.468 -1.86588 0.538377 0
M  V30 1912 C 177.598 -3.19762 1.35535 0
M  V30 1913 C 176.552 -3.49107 2.47605 0
M  V30 1914 C 175.878 -4.86711 2.21397 0
M  V30 1915 C 177.178 -3.47483 3.89939 0
M  V30 1916 H 178.872 -1.7757 2.41058 0
M  V30 1917 H 176.418 -0.852887 1.16025 0
M  V30 1918 H 178.371 -3.98263 1.3771 0
M  V30 1919 H 177.095 -3.24409 0.377708 0
M  V30 1920 H 175.754 -2.72959 2.44722 0
M  V30 1921 H 175.402 -4.8799 1.21961 0
M  V30 1922 H 175.102 -5.0731 2.96497 0
M  V30 1923 H 176.626 -5.67515 2.25297 0
M  V30 1924 H 178.04 -4.1598 3.94505 0
M  V30 1925 H 176.437 -3.79615 4.64771 0
M  V30 1926 H 177.507 -2.46341 4.17665 0
M  V30 1927 N 178.85 -1.27639 -0.924453 0
M  V30 1928 C 179.8 -1.07295 -2.01176 0
M  V30 1929 C 180.784 5.77352e-05 -1.609 0
M  V30 1930 O 181.976 -0.218855 -1.75642 0
M  V30 1931 C 179.105 -0.725592 -3.35544 0
M  V30 1932 C 178.191 -1.83691 -3.82254 0
M  V30 1933 N 178.582 -3.07697 -4.01443 0
M  V30 1934 C 176.88 -1.72433 -4.11319 0
M  V30 1935 C 177.581 -3.80037 -4.40394 0
M  V30 1936 N 176.557 -3.0782 -4.48049 0
M  V30 1937 H 180.359 -2.01399 -2.14046 0
M  V30 1938 H 177.873 -1.18401 -1.11153 0
M  V30 1939 H 179.87 -0.560959 -4.13109 0
M  V30 1940 H 178.53 0.207782 -3.24034 0
M  V30 1941 H 179.541 -3.43424 -3.8766 0
M  V30 1942 H 176.218 -0.862005 -4.08504 0
M  V30 1943 H 177.608 -4.86632 -4.63291 0
M  V30 1944 N 180.328 1.1314 -1.09713 0
M  V30 1945 C 181.26 2.18343 -0.697056 0
M  V30 1946 C 182.273 1.60669 0.262551 0
M  V30 1947 O 183.462 1.78435 0.0481527 0
M  V30 1948 C 180.562 3.38899 -0.00684728 0
M  V30 1949 C 179.735 4.26078 -0.988741 0
M  V30 1950 C 178.794 5.25155 -0.331394 0
M  V30 1951 O 177.82 5.60701 -0.979926 0
M  V30 1952 N 179.022 5.73271 0.913261 0
M  V30 1953 H 181.787 2.5328 -1.60216 0
M  V30 1954 H 179.348 1.28491 -0.984971 0
M  V30 1955 H 181.34 4.02255 0.444191 0
M  V30 1956 H 179.91 3.02175 0.800551 0
M  V30 1957 H 179.13 3.59453 -1.61826 0
M  V30 1958 H 180.418 4.81178 -1.65364 0
M  V30 1959 H 179.816 5.46544 1.45966 0
M  V30 1960 H 178.373 6.3855 1.30757 0
M  V30 1961 N 181.806 0.884767 1.30421 0
M  V30 1962 C 183.055 0.499164 1.95426 0
M  V30 1963 C 183.368 -0.95645 1.70621 0
M  V30 1964 O 184.574 -1.44889 2.29607 0
M  V30 1965 C 183.03 0.84177 3.49917 0
M  V30 1966 C 182.638 2.31514 3.83543 0
M  V30 1967 C 184.382 0.525355 4.21237 0
M  V30 1968 C 182.289 2.59939 5.31212 0
M  V30 1969 H 181.219 0.182944 0.73147 0
M  V30 1970 H 183.87 1.07971 1.48373 0
M  V30 1971 H 182.252 0.190311 3.95542 0
M  V30 1972 H 183.426 3.0109 3.48829 0
M  V30 1973 H 181.741 2.59907 3.25326 0
M  V30 1974 H 184.338 0.714762 5.29901 0
M  V30 1975 H 184.681 -0.535222 4.12845 0
M  V30 1976 H 185.214 1.134 3.81294 0
M  V30 1977 H 181.953 3.64736 5.44654 0
M  V30 1978 H 181.473 1.94972 5.67227 0
M  V30 1979 H 183.152 2.45429 5.98643 0
M  V30 1980 N 183.284 -1.43765 0.645699 0
M  V30 1981 C 184.53 -2.02197 0.156271 0
M  V30 1982 C 184.863 -1.50776 -1.22393 0
M  V30 1983 O 184.138 -0.697771 -1.81553 0
M  V30 1984 C 184.421 -3.59749 0.158872 0
M  V30 1985 C 184.274 -4.21419 1.57245 0
M  V30 1986 C 185.593 -4.37149 -0.50879 0
M  V30 1987 H 182.712 -0.734694 0.0582602 0
M  V30 1988 H 185.354 -1.71157 0.824951 0
M  V30 1989 H 183.504 -3.86325 -0.410525 0
M  V30 1990 H 185.176 -4.059 2.19186 0
M  V30 1991 H 183.419 -3.78356 2.122 0
M  V30 1992 H 184.09 -5.30482 1.52619 0
M  V30 1993 H 186.566 -4.16093 -0.024412 0
M  V30 1994 H 185.442 -5.4683 -0.476213 0
M  V30 1995 H 185.703 -4.12839 -1.58165 0
M  V30 1996 N 184.763 -0.387143 -1.52771 0
M  V30 1997 C 185.71 0.449048 -2.26389 0
M  V30 1998 C 186.68 1.05961 -1.27912 0
M  V30 1999 O 187.865 1.08804 -1.56737 0
M  V30 2000 C 185.005 1.57155 -3.0724 0
M  V30 2001 C 184.118 0.984066 -4.20643 0
M  V30 2002 C 183.253 2.07745 -4.88892 0
M  V30 2003 C 182.292 1.46574 -5.94292 0
M  V30 2004 N 181.429 2.49834 -6.56146 0
M  V30 2005 H 186.269 -0.185205 -2.97424 0
M  V30 2006 H 183.806 -0.103164 -1.46738 0
M  V30 2007 H 185.764 2.23309 -3.52405 0
M  V30 2008 H 184.394 2.17615 -2.38419 0
M  V30 2009 H 183.446 0.212193 -3.79808 0
M  V30 2010 H 184.758 0.497029 -4.96318 0
M  V30 2011 H 183.912 2.81673 -5.3735 0
M  V30 2012 H 182.651 2.59807 -4.12737 0
M  V30 2013 H 181.656 0.711696 -5.45174 0
M  V30 2014 H 182.881 0.953088 -6.72379 0
M  V30 2015 H 180.827 3.0107 -5.82832 0
M  V30 2016 H 180.744 2.05879 -7.27427 0
M  V30 2017 H 182.012 3.23399 -7.09249 0
M  V30 2018 N 186.241 1.57166 -0.116904 0
M  V30 2019 C 187.204 2.14039 0.819742 0
M  V30 2020 C 188.204 1.07477 1.19605 0
M  V30 2021 O 189.394 1.33263 1.1219 0
M  V30 2022 C 186.526 2.67891 2.10826 0
M  V30 2023 H 187.719 2.98128 0.325511 0
M  V30 2024 H 185.272 1.55739 0.132312 0
M  V30 2025 H 186.007 1.87384 2.64685 0
M  V30 2026 H 185.792 3.45823 1.84793 0
M  V30 2027 H 187.282 3.11809 2.77785 0
M  V30 2028 N 187.719 -0.156864 1.56817 0
M  V30 2029 C 188.649 -1.19589 2.00551 0
M  V30 2030 C 189.63 -1.4536 0.883426 0
M  V30 2031 O 190.815 -1.56449 1.15054 0
M  V30 2032 C 187.945 -2.53143 2.37773 0
M  V30 2033 C 186.899 -2.41913 3.53075 0
M  V30 2034 C 186.225 -3.80088 3.76081 0
M  V30 2035 C 187.525 -1.91157 4.86062 0
M  V30 2036 H 189.219 -0.832293 2.87599 0
M  V30 2037 H 186.765 -0.398918 1.38364 0
M  V30 2038 H 188.718 -3.26047 2.66967 0
M  V30 2039 H 187.442 -2.91319 1.4765 0
M  V30 2040 H 186.101 -1.71462 3.24031 0
M  V30 2041 H 185.749 -4.15683 2.83225 0
M  V30 2042 H 185.449 -3.73439 4.53671 0
M  V30 2043 H 186.973 -4.54556 4.0769 0
M  V30 2044 H 188.387 -2.53846 5.14038 0
M  V30 2045 H 186.784 -1.95422 5.67389 0
M  V30 2046 H 187.854 -0.866673 4.77092 0
M  V30 2047 N 189.197 -1.51736 -0.425897 0
M  V30 2048 C 190.422 -1.69082 -1.20108 0
M  V30 2049 C 190.847 -0.392398 -1.83962 0
M  V30 2050 O 190.205 0.64858 -1.69302 0
M  V30 2051 C 190.253 -2.81604 -2.25237 0
M  V30 2052 O 189.357 -2.46004 -3.30992 0
M  V30 2053 H 188.698 -0.563408 -0.35138 0
M  V30 2054 H 191.228 -1.98358 -0.501512 0
M  V30 2055 H 191.238 -3.06025 -2.69838 0
M  V30 2056 H 189.913 -3.75817 -1.78142 0
M  V30 2057 H 188.49 -2.32195 -2.91787 0
M  V30 2058 N 190.675 0.682077 -1.42076 0
M  V30 2059 C 191.922 1.44215 -1.42156 0
M  V30 2060 C 192.25 1.94468 -0.0354186 0
M  V30 2061 O 191.505 1.70816 0.955002 0
M  V30 2062 C 191.804 2.66036 -2.38662 0
M  V30 2063 C 191.47 2.34366 -3.85206 0
M  V30 2064 C 190.132 2.25439 -4.25124 0
M  V30 2065 C 192.484 2.08513 -4.77673 0
M  V30 2066 C 189.812 1.88775 -5.55501 0
M  V30 2067 C 192.164 1.73354 -6.08384 0
M  V30 2068 C 190.828 1.62933 -6.47309 0
M  V30 2069 H 190.098 0.527718 -0.520187 0
M  V30 2070 H 192.745 0.778387 -1.74967 0
M  V30 2071 H 191.05 3.3741 -1.99152 0
M  V30 2072 H 192.747 3.24205 -2.35991 0
M  V30 2073 H 189.337 2.42213 -3.53597 0
M  V30 2074 H 193.521 2.14346 -4.47626 0
M  V30 2075 H 188.777 1.7927 -5.84527 0
M  V30 2076 H 192.951 1.52373 -6.79526 0
M  V30 2077 H 190.578 1.34292 -7.48244 0
M  V30 2078 N 192.153 1.28127 0.917671 0
M  V30 2079 C 193.083 1.14248 2.03641 0
M  V30 2080 C 194.064 0.0412748 1.7005 0
M  V30 2081 O 195.249 0.217566 1.92977 0
M  V30 2082 C 192.379 0.799431 3.37974 0
M  V30 2083 C 191.333 1.85497 3.85713 0
M  V30 2084 C 190.659 1.36565 5.16966 0
M  V30 2085 C 191.959 3.26085 4.08002 0
M  V30 2086 H 193.653 2.07835 2.15511 0
M  V30 2087 H 191.199 1.00064 1.03553 0
M  V30 2088 H 193.152 0.689114 4.15727 0
M  V30 2089 H 191.876 -0.172145 3.26146 0
M  V30 2090 H 190.535 1.95437 3.10161 0
M  V30 2091 H 190.183 0.383253 5.01538 0
M  V30 2092 H 189.883 2.07143 5.49878 0
M  V30 2093 H 191.407 1.26848 5.97279 0
M  V30 2094 H 192.821 3.19089 4.76293 0
M  V30 2095 H 191.218 3.94462 4.52238 0
M  V30 2096 H 192.288 3.70394 3.12948 0
M  V30 2097 N 193.631 -1.12557 1.10312 0
M  V30 2098 C 194.877 -1.84311 0.846011 0
M  V30 2099 C 195.21 -1.83805 -0.626859 0
M  V30 2100 O 194.485 -1.28268 -1.46211 0
M  V30 2101 C 194.768 -3.32048 1.39341 0
M  V30 2102 C 194.621 -3.41016 2.93305 0
M  V30 2103 C 195.94 -4.27764 1.03468 0
M  V30 2104 H 193.059 -0.669192 0.30879 0
M  V30 2105 H 195.701 -1.32057 1.36605 0
M  V30 2106 H 193.851 -3.76678 0.951087 0
M  V30 2107 H 195.523 -3.05031 3.46055 0
M  V30 2108 H 193.766 -2.81603 3.29973 0
M  V30 2109 H 194.437 -4.44948 3.26689 0
M  V30 2110 H 196.913 -3.91253 1.41633 0
M  V30 2111 H 195.789 -5.29549 1.44463 0
M  V30 2112 H 196.05 -4.42064 -0.0560404 0
M  V30 2113 N 195.109 -0.891671 -1.2995 0
M  V30 2114 C 196.057 -0.353066 -2.29905 0
M  V30 2115 C 197.051 0.543509 -1.60444 0
M  V30 2116 O 198.257 0.4272 -1.74857 0
M  V30 2117 H 194.632 -0.095531 -0.745907 0
M  V30 2118 H 196.603 -1.20961 -2.72784 0
M  V30 2119 C 195.352 0.411475 -3.45257 0
M  V30 2120 H 194.675 -0.269182 -3.98893 0
M  V30 2121 H 196.115 0.753328 -4.17254 0
M  V30 2122 C 194.574 1.6111 -2.9588 0
M  V30 2123 O 195.104 2.71045 -2.96475 0
M  V30 2124 N 193.31 1.45054 -2.51809 0
M  V30 2125 H 192.857 0.556175 -2.51524 0
M  V30 2126 H 192.815 2.25453 -2.1913 0
M  V30 2127 N 196.587 1.43421 -0.653314 0
M  V30 2128 C 197.864 1.95361 -0.0966581 0
M  V30 2129 C 198.244 1.59461 1.38331 0
M  V30 2130 O 197.592 0.879777 2.10884 0
M  V30 2131 C 197.802 3.47311 -0.342988 0
M  V30 2132 C 199.15 4.23875 -0.24798 0
M  V30 2133 O 200.174 3.55133 -0.275553 0
M  V30 2134 O 199.033 5.4623 -0.171771 0
M  V30 2135 H 196.127 0.826945 0.00956291 0
M  V30 2136 H 198.673 1.5336 -0.726558 0
M  V30 2137 H 197.445 3.66569 -1.36906 0
M  V30 2138 H 197.068 3.9631 0.319975 0
M  V30 2139 N 198.065 0.39524 1.52563 0
M  V30 2140 C 199.305 -0.184744 2.03563 0
M  V30 2141 C 199.669 -1.43548 1.27507 0
M  V30 2142 O 200.87 -2.093 1.68662 0
M  V30 2143 C 199.141 -0.440294 3.54678 0
M  V30 2144 S 200.7 -0.989712 4.27493 0
M  V30 2145 H 197.518 -0.0515075 0.709132 0
M  V30 2146 H 200.12 0.544957 1.87751 0
M  V30 2147 H 198.824 0.477005 4.07618 0
M  V30 2148 H 198.355 -1.19825 3.74707 0
M  V30 2149 H 200.37 -2.27155 4.41152 0
M  V30 2150 N 199.544 -1.57102 0.125237 0
M  V30 2151 C 200.769 -2.0019 -0.542101 0
M  V30 2152 C 201.194 -1.00449 -1.59034 0
M  V30 2153 O 200.552 0.0229423 -1.81285 0
M  V30 2154 C 200.6 -3.42129 -1.13929 0
M  V30 2155 O 199.704 -3.45307 -2.2547 0
M  V30 2156 H 199.045 -0.650171 -0.134812 0
M  V30 2157 H 201.575 -2.03461 0.215553 0
M  V30 2158 H 201.585 -3.80471 -1.4733 0
M  V30 2159 H 200.26 -4.14237 -0.371531 0
M  V30 2160 H 198.837 -3.1879 -1.93462 0
M  V30 2161 N 201.022 0.148545 -1.56898 0
M  V30 2162 C 201.952 1.18524 -2.01182 0
M  V30 2163 C 202.933 1.4489 -0.891123 0
M  V30 2164 O 204.118 1.55836 -1.15882 0
M  V30 2165 C 201.248 2.51879 -2.39112 0
M  V30 2166 C 200.202 2.40038 -3.54353 0
M  V30 2167 C 199.528 3.78089 -3.78091 0
M  V30 2168 C 200.828 1.88577 -4.87069 0
M  V30 2169 H 202.522 0.817029 -2.88036 0
M  V30 2170 H 200.068 0.391575 -1.38574 0
M  V30 2171 H 202.021 3.24627 -2.68692 0
M  V30 2172 H 200.745 2.90532 -1.49193 0
M  V30 2173 H 199.404 1.69742 -3.24936 0
M  V30 2174 H 199.052 4.14175 -2.85426 0
M  V30 2175 H 198.752 3.71028 -4.55645 0
M  V30 2176 H 200.276 4.52387 -4.10095 0
M  V30 2177 H 201.69 2.51117 -5.15377 0
M  V30 2178 H 200.087 1.9241 -5.68417 0
M  V30 2179 H 201.157 0.84136 -4.77545 0
M  V30 2180 N 202.5 1.5196 0.417844 0
M  V30 2181 C 203.749 1.6482 1.16264 0
M  V30 2182 C 204.062 0.379886 1.91876 0
M  V30 2183 O 205.268 0.388154 2.68711 0
M  V30 2184 C 203.724 2.91161 2.1155 0
M  V30 2185 C 203.332 4.25068 1.41495 0
M  V30 2186 C 205.076 3.13383 2.86341 0
M  V30 2187 C 202.983 5.42541 2.35379 0
M  V30 2188 H 201.913 0.613954 0.437694 0
M  V30 2189 H 204.564 1.78442 0.427871 0
M  V30 2190 H 202.946 2.71218 2.88543 0
M  V30 2191 H 204.12 4.55463 0.699263 0
M  V30 2192 H 202.435 4.0888 0.787792 0
M  V30 2193 H 205.032 3.98324 3.5671 0
M  V30 2194 H 205.375 2.27256 3.48798 0
M  V30 2195 H 205.908 3.33757 2.1645 0
M  V30 2196 H 202.647 6.30987 1.77582 0
M  V30 2197 H 202.167 5.16497 3.04945 0
M  V30 2198 H 203.846 5.75272 2.96093 0
M  V30 2199 N 203.978 -0.674533 1.42435 0
M  V30 2200 C 204.928 -1.7807 1.4239 0
M  V30 2201 C 205.912 -1.58169 0.295202 0
M  V30 2202 O 207.104 -1.68643 0.537449 0
M  V30 2203 C 204.233 -3.16532 1.32901 0
M  V30 2204 C 203.319 -3.42055 2.50717 0
M  V30 2205 N 203.71 -3.38162 3.76139 0
M  V30 2206 C 202.008 -3.72692 2.44983 0
M  V30 2207 C 202.709 -3.63177 4.54398 0
M  V30 2208 N 201.685 -3.83954 3.84812 0
M  V30 2209 H 205.487 -1.73454 2.37257 0
M  V30 2210 H 203.001 -0.875381 1.36788 0
M  V30 2211 H 204.998 -3.958 1.30951 0
M  V30 2212 H 203.658 -3.22345 0.390363 0
M  V30 2213 H 204.669 -3.18057 4.0873 0
M  V30 2214 H 201.346 -3.85749 1.59699 0
M  V30 2215 H 202.736 -3.66125 5.63384 0
M  V30 2216 N 205.456 -1.28612 -0.910864 0
M  V30 2217 C 206.404 -1.1265 -2.03501 0
M  V30 2218 C 207.398 -0.0450054 -1.6934 0
M  V30 2219 O 208.604 -0.203988 -1.7884 0
M  V30 2220 H 204.979 -0.347639 -0.666822 0
M  V30 2221 H 206.95 -2.07849 -2.14106 0
M  V30 2222 C 205.699 -0.808143 -3.38178 0
M  V30 2223 H 205.022 -1.63231 -3.6496 0
M  V30 2224 H 206.462 -0.736426 -4.17556 0
M  V30 2225 C 204.921 0.488226 -3.33344 0
M  V30 2226 O 205.451 1.51766 -3.71927 0
M  V30 2227 N 203.657 0.490009 -2.86439 0
M  V30 2228 H 203.204 -0.348161 -2.55236 0
M  V30 2229 H 203.162 1.35741 -2.83587 0
M  V30 2230 N 206.934 1.1197 -1.10907 0
M  V30 2231 C 207.882 2.19927 -0.757303 0
M  V30 2232 C 208.876 1.67564 0.248747 0
M  V30 2233 O 210.082 1.79672 0.108605 0
M  V30 2234 H 206.457 0.716925 -0.226987 0
M  V30 2235 H 208.428 2.46847 -1.67658 0
M  V30 2236 C 207.177 3.47061 -0.210671 0
M  V30 2237 H 206.5 3.87703 -0.976049 0
M  V30 2238 H 207.94 4.24 -0.0026584 0
M  V30 2239 C 206.399 3.19864 1.05777 0
M  V30 2240 O 206.929 3.40049 2.13845 0
M  V30 2241 N 205.135 2.73636 0.978349 0
M  V30 2242 H 204.682 2.5741 0.0988246 0
M  V30 2243 H 204.64 2.55815 1.82773 0
M  V30 2244 N 208.412 0.89855 1.29475 0
M  V30 2245 C 209.658 0.524658 1.95896 0
M  V30 2246 C 209.991 -0.926468 1.70676 0
M  V30 2247 O 209.266 -1.65665 1.01908 0
M  V30 2248 C 209.549 0.81633 3.50725 0
M  V30 2249 C 209.402 2.31907 3.85408 0
M  V30 2250 C 210.721 0.302038 4.39062 0
M  V30 2251 H 207.84 0.19209 0.711527 0
M  V30 2252 H 210.482 1.12502 1.53112 0
M  V30 2253 H 208.632 0.305369 3.87298 0
M  V30 2254 H 210.304 2.89949 3.58786 0
M  V30 2255 H 208.547 2.78027 3.32992 0
M  V30 2256 H 209.218 2.47373 4.93468 0
M  V30 2257 H 211.694 0.739551 4.09475 0
M  V30 2258 H 210.57 0.535331 5.46283 0
M  V30 2259 H 210.831 -0.797216 4.34853 0
M  V30 2260 N 209.89 -1.43072 0.660911 0
M  V30 2261 C 211.13 -2.03596 0.181146 0
M  V30 2262 C 211.494 -1.51057 -1.18515 0
M  V30 2263 O 212.695 -2.03275 -1.75877 0
M  V30 2264 C 210.966 -3.56845 0.19911 0
M  V30 2265 S 212.525 -4.38289 -0.211684 0
M  V30 2266 H 209.343 -0.706954 0.0757479 0
M  V30 2267 H 211.945 -1.75027 0.870965 0
M  V30 2268 H 210.649 -3.92583 1.1961 0
M  V30 2269 H 210.18 -3.90067 -0.510996 0
M  V30 2270 H 212.195 -4.74583 -1.44863 0
M  V30 2271 N 211.368 -0.403325 -1.52352 0
M  V30 2272 C 212.301 0.469463 -2.23319 0
M  V30 2273 C 213.279 1.05272 -1.23922 0
M  V30 2274 O 214.463 1.10169 -1.52954 0
M  V30 2275 C 211.59 1.6511 -2.9573 0
M  V30 2276 C 210.636 1.19178 -4.0951 0
M  V30 2277 S 211.469 0.161718 -5.35256 0
M  V30 2278 C 212.625 1.34882 -6.11194 0
M  V30 2279 H 212.858 -0.133134 -2.97002 0
M  V30 2280 H 210.391 -0.187588 -1.53256 0
M  V30 2281 H 212.349 2.3287 -3.38056 0
M  V30 2282 H 211.01 2.22503 -2.21701 0
M  V30 2283 H 210.203 2.07444 -4.59329 0
M  V30 2284 H 209.805 0.592911 -3.6927 0
M  V30 2285 H 212.097 2.27345 -6.38217 0
M  V30 2286 H 213.04 0.89128 -7.02468 0
M  V30 2287 H 213.448 1.57198 -5.42171 0
M  V30 2288 N 212.846 1.57033 -0.133567 0
M  V30 2289 C 213.809 2.14897 0.796995 0
M  V30 2290 C 214.809 1.0874 1.18458 0
M  V30 2291 O 215.999 1.34446 1.1077 0
M  V30 2292 C 213.131 2.70112 2.07973 0
M  V30 2293 H 214.324 2.98457 0.293873 0
M  V30 2294 H 211.877 1.55871 0.115787 0
M  V30 2295 H 212.612 1.9018 2.62682 0
M  V30 2296 H 212.397 3.47764 1.81115 0
M  V30 2297 H 213.887 3.14738 2.74462 0
M  V30 2298 N 214.325 -0.140222 1.56975 0
M  V30 2299 C 215.288 -1.15689 1.97861 0
M  V30 2300 C 216.288 -1.3549 0.865974 0
M  V30 2301 O 217.478 -1.32367 1.13246 0
M  V30 2302 C 214.61 -2.51582 2.30042 0
M  V30 2303 H 215.803 -0.805971 2.88867 0
M  V30 2304 H 213.356 -0.383801 1.51515 0
M  V30 2305 H 214.091 -2.91632 1.41849 0
M  V30 2306 H 213.876 -2.38569 3.11171 0
M  V30 2307 H 215.366 -3.24792 2.62488 0
M  V30 2308 N 215.803 -1.52179 -0.40978 0
M  V30 2309 C 217.049 -1.66453 -1.15851 0
M  V30 2310 C 217.382 -0.392972 -1.90182 0
M  V30 2311 O 216.657 0.608579 -1.84734 0
M  V30 2312 C 216.94 -2.88612 -2.15349 0
M  V30 2313 C 216.793 -4.25815 -1.44918 0
M  V30 2314 C 218.112 -3.06294 -3.16026 0
M  V30 2315 H 215.231 -0.60575 -0.419805 0
M  V30 2316 H 217.873 -1.84732 -0.444314 0
M  V30 2317 H 216.023 -2.73158 -2.76255 0
M  V30 2318 H 217.695 -4.52995 -0.871365 0
M  V30 2319 H 215.938 -4.27247 -0.751159 0
M  V30 2320 H 216.609 -5.07337 -2.17516 0
M  V30 2321 H 219.085 -3.20641 -2.65195 0
M  V30 2322 H 217.961 -3.93283 -3.8291 0
M  V30 2323 H 218.222 -2.19579 -3.83715 0
M  V30 2324 N 217.281 0.66697 -1.42791 0
M  V30 2325 C 218.528 1.42699 -1.43678 0
M  V30 2326 C 218.856 1.94419 -0.0560425 0
M  V30 2327 O 218.111 1.7182 0.936831 0
M  V30 2328 C 218.41 2.6349 -2.4147 0
M  V30 2329 C 218.076 2.30267 -3.8767 0
M  V30 2330 C 216.738 2.20918 -4.27491 0
M  V30 2331 C 219.09 2.03435 -4.79858 0
M  V30 2332 C 216.418 1.82873 -5.57471 0
M  V30 2333 C 218.77 1.66892 -6.10188 0
M  V30 2334 C 217.434 1.56058 -6.49001 0
M  V30 2335 H 216.704 0.522171 -0.525755 0
M  V30 2336 H 219.351 0.759785 -1.75783 0
M  V30 2337 H 217.656 3.35279 -2.0272 0
M  V30 2338 H 219.353 3.21684 -2.39417 0
M  V30 2339 H 215.943 2.38449 -3.56146 0
M  V30 2340 H 220.127 2.09586 -4.49875 0
M  V30 2341 H 215.383 1.7306 -5.86396 0
M  V30 2342 H 219.557 1.45157 -6.81104 0
M  V30 2343 H 217.184 1.26348 -7.49627 0
M  V30 2344 N 218.759 1.29093 0.90403 0
M  V30 2345 C 220.005 1.16986 1.65656 0
M  V30 2346 C 220.338 -0.278925 1.92186 0
M  V30 2347 O 219.613 -1.2019 1.5292 0
M  V30 2348 C 219.896 1.97908 3.0084 0
M  V30 2349 C 219.749 3.50903 2.81403 0
M  V30 2350 C 221.068 1.80208 4.01513 0
M  V30 2351 H 218.187 0.426346 0.601164 0
M  V30 2352 H 220.829 1.58518 1.04747 0
M  V30 2353 H 218.979 1.62616 3.52829 0
M  V30 2354 H 220.651 3.96153 2.36348 0
M  V30 2355 H 218.894 3.76045 2.1627 0
M  V30 2356 H 219.565 4.02791 3.77443 0
M  V30 2357 H 222.041 2.11025 3.58619 0
M  V30 2358 H 220.917 2.39184 4.94047 0
M  V30 2359 H 221.178 0.756119 4.35586 0
M  V30 2360 N 220.237 -1.11381 1.11499 0
M  V30 2361 C 221.514 -1.7955 0.775965 0
M  V30 2362 C 221.894 -1.97859 -0.73588 0
M  V30 2363 O 221.242 -1.56376 -1.66609 0
M  V30 2364 C 221.452 -3.13196 1.53977 0
M  V30 2365 C 222.8 -3.88227 1.71944 0
M  V30 2366 O 223.824 -3.22887 1.50407 0
M  V30 2367 O 222.683 -5.05477 2.07738 0
M  V30 2368 H 219.777 -0.777728 0.28119 0
M  V30 2369 H 222.323 -1.18118 1.21845 0
M  V30 2370 H 221.095 -2.95229 2.56818 0
M  V30 2371 H 220.718 -3.82342 1.09088 0
M  V30 2372 N 221.715 -0.905404 -1.28997 0
M  V30 2373 C 223.131 -0.60233 -1.47798 0
M  V30 2374 C 223.331 0.854645 -1.82478 0
M  V30 2375 O 222.387 1.63439 -1.92468 0
M  V30 2376 C 223.7 -1.53306 -2.58685 0
M  V30 2377 C 225.248 -1.53887 -2.72558 0
M  V30 2378 C 225.723 -2.45602 -3.86579 0
M  V30 2379 N 227.214 -2.43681 -3.93921 0
M  V30 2380 C 227.949 -3.11347 -4.81509 0
M  V30 2381 N 227.445 -3.88313 -5.73746 0
M  V30 2382 N 229.238 -3.00476 -4.75048 0
M  V30 2383 H 221.389 -1.84765 -1.04764 0
M  V30 2384 H 223.652 -0.792025 -0.520961 0
M  V30 2385 H 223.358 -2.57141 -2.39941 0
M  V30 2386 H 223.232 -1.25787 -3.55609 0
M  V30 2387 H 225.619 -0.507941 -2.90696 0
M  V30 2388 H 225.7 -1.85447 -1.76191 0
M  V30 2389 H 225.344 -3.48792 -3.69197 0
M  V30 2390 H 225.274 -2.11349 -4.82327 0
M  V30 2391 H 227.765 -1.87767 -3.27951 0
M  V30 2392 H 228.078 -4.36985 -6.37389 0
M  V30 2393 H 226.423 -3.92419 -5.73614 0
M  V30 2394 H 229.614 -2.39858 -4.01977 0
M  V30 2395 H 229.787 -3.53485 -5.43095 0
M  V30 2396 N 223.193 1.4272 -0.668489 0
M  V30 2397 C 224.156 2.292 0.00448567 0
M  V30 2398 C 225.156 1.43001 0.735339 0
M  V30 2399 O 226.346 1.64461 0.57429 0
M  V30 2400 C 223.478 3.25375 1.01705 0
M  V30 2401 H 224.671 2.90199 -0.756608 0
M  V30 2402 H 222.224 1.50254 -0.430506 0
M  V30 2403 H 222.959 2.69301 1.80686 0
M  V30 2404 H 222.744 3.88944 0.496463 0
M  V30 2405 H 224.234 3.90245 1.48655 0
M  V30 2406 N 224.671 0.411399 1.52136 0
M  V30 2407 C 225.919 -0.163322 2.01439 0
M  V30 2408 C 226.24 -1.45453 1.29879 0
M  V30 2409 O 225.51 -1.91225 0.4254 0
M  V30 2410 H 224.09 -0.0633447 0.744309 0
M  V30 2411 H 226.752 0.548161 1.87033 0
M  V30 2412 H 225.848 -0.357817 3.10042 0
M  V30 2413 N 226.149 -1.5696 0.141893 0
M  V30 2414 C 227.059 -2.20066 -0.812905 0
M  V30 2415 C 228.075 -1.18344 -1.27557 0
M  V30 2416 O 229.251 -1.50902 -1.33381 0
M  V30 2417 C 226.316 -2.80583 -2.03652 0
M  V30 2418 C 225.377 -3.97414 -1.62359 0
M  V30 2419 C 224.61 -4.55036 -2.78887 0
M  V30 2420 O 224.833 -4.11538 -3.94959 0
M  V30 2421 O 223.767 -5.45376 -2.54653 0
M  V30 2422 H 227.593 -3.02157 -0.305746 0
M  V30 2423 H 225.178 -1.49159 -0.0848799 0
M  V30 2424 H 227.06 -3.19067 -2.75272 0
M  V30 2425 H 225.735 -2.01508 -2.5333 0
M  V30 2426 H 224.642 -3.63656 -0.877775 0
M  V30 2427 H 225.975 -4.77994 -1.17401 0
M  V30 2428 N 227.627 0.131896 -1.57047 0
M  V30 2429 C 228.873 0.838268 -1.85323 0
M  V30 2430 C 229.228 1.78098 -0.727937 0
M  V30 2431 O 228.521 1.89645 0.27304 0
M  V30 2432 C 228.715 1.63703 -3.17704 0
M  V30 2433 C 228.544 0.773167 -4.43004 0
M  V30 2434 C 227.314 0.432956 -5.03442 0
M  V30 2435 C 229.512 0.0966216 -5.14209 0
M  V30 2436 N 227.494 -0.442924 -6.123 0
M  V30 2437 C 228.865 -0.638778 -6.16701 0
M  V30 2438 C 230.92 0.018861 -4.97896 0
M  V30 2439 C 229.623 -1.44462 -7.04644 0
M  V30 2440 C 231.649 -0.773762 -5.86316 0
M  V30 2441 C 231.011 -1.4974 -6.883 0
M  V30 2442 H 227.11 0.284086 -0.728573 0
M  V30 2443 H 229.694 0.102731 -1.94429 0
M  V30 2444 H 227.865 2.3437 -3.09718 0
M  V30 2445 H 229.597 2.28774 -3.33833 0
M  V30 2446 H 226.352 0.772237 -4.67262 0
M  V30 2447 H 226.776 -0.872332 -6.71356 0
M  V30 2448 H 231.418 0.56397 -4.19022 0
M  V30 2449 H 229.136 -2.00093 -7.82936 0
M  V30 2450 H 232.722 -0.83612 -5.75761 0
M  V30 2451 H 231.602 -2.10087 -7.55535 0
M  V30 2452 N 229.106 1.52395 0.401703 0
M  V30 2453 C 230.053 1.76268 1.48991 0
M  V30 2454 C 231.023 0.605386 1.54675 0
M  V30 2455 O 232.208 0.843742 1.7113 0
M  V30 2456 C 229.348 1.92592 2.86361 0
M  V30 2457 C 228.461 3.20259 2.89928 0
M  V30 2458 C 227.596 3.26972 4.18644 0
M  V30 2459 C 226.635 4.48812 4.16214 0
M  V30 2460 N 225.772 4.52877 5.36514 0
M  V30 2461 H 230.612 2.6914 1.27935 0
M  V30 2462 H 228.149 1.33355 0.620871 0
M  V30 2463 H 230.107 2.0004 3.66115 0
M  V30 2464 H 228.737 1.03093 3.05895 0
M  V30 2465 H 227.789 3.21945 2.02621 0
M  V30 2466 H 229.101 4.10056 2.83999 0
M  V30 2467 H 228.255 3.33533 5.06794 0
M  V30 2468 H 226.994 2.35126 4.27278 0
M  V30 2469 H 225.999 4.4239 3.26453 0
M  V30 2470 H 227.224 5.41961 4.09213 0
M  V30 2471 H 225.17 3.63917 5.45802 0
M  V30 2472 H 225.087 5.36529 5.32609 0
M  V30 2473 H 226.355 4.63676 6.26597 0
M  V30 2474 N 230.584 -0.659388 1.43143 0
M  V30 2475 C 231.514 -1.78422 1.50625 0
M  V30 2476 C 232.495 -1.66216 0.361443 0
M  V30 2477 O 233.68 -1.85404 0.577834 0
M  V30 2478 C 230.81 -3.16815 1.42287 0
M  V30 2479 C 229.764 -3.43777 2.54954 0
M  V30 2480 C 229.09 -4.81905 2.31671 0
M  V30 2481 C 230.39 -3.39134 3.97222 0
M  V30 2482 H 232.084 -1.72417 2.44771 0
M  V30 2483 H 229.63 -0.828084 1.17808 0
M  V30 2484 H 231.583 -3.95253 1.46127 0
M  V30 2485 H 230.307 -3.23534 0.446435 0
M  V30 2486 H 228.966 -2.67707 2.50457 0
M  V30 2487 H 228.614 -4.85294 1.32284 0
M  V30 2488 H 228.314 -5.00906 3.07192 0
M  V30 2489 H 229.838 -5.62609 2.37284 0
M  V30 2490 H 231.252 -4.07518 4.03239 0
M  V30 2491 H 229.649 -3.69671 4.72719 0
M  V30 2492 H 230.719 -2.37426 4.22797 0
M  V30 2493 N 232.062 -1.29571 -0.897171 0
M  V30 2494 C 233.31 -1.17456 -1.64464 0
M  V30 2495 C 233.631 0.273698 -1.9307 0
M  V30 2496 O 232.901 1.18684 -1.55855 0
M  V30 2497 H 231.481 -0.431706 -0.609622 0
M  V30 2498 H 234.143 -1.62531 -1.07562 0
M  V30 2499 H 233.239 -1.72648 -2.59998 0
M  V30 2500 N 233.54 1.10788 -1.12088 0
M  V30 2501 C 234.788 1.8231 -0.872205 0
M  V30 2502 C 235.109 1.85419 0.603709 0
M  V30 2503 O 234.379 1.32963 1.43867 0
M  V30 2504 H 232.959 0.675137 -0.319686 0
M  V30 2505 H 235.621 1.34068 -1.41463 0
M  V30 2506 H 234.717 2.85955 -1.25045 0
M  V30 2507 N 235.018 0.912232 1.28515 0
M  V30 2508 C 235.948 0.416403 2.29757 0
M  V30 2509 C 236.929 -0.515194 1.6211 0
M  V30 2510 O 238.114 -0.423253 1.89532 0
M  V30 2511 C 235.244 -0.34572 3.45575 0
M  V30 2512 C 234.198 0.496599 4.25109 0
M  V30 2513 C 233.524 -0.393771 5.33248 0
M  V30 2514 C 234.824 1.75307 4.92001 0
M  V30 2515 H 236.518 1.26249 2.7148 0
M  V30 2516 H 234.064 0.608515 1.30511 0
M  V30 2517 H 236.017 -0.703422 4.15488 0
M  V30 2518 H 234.741 -1.2257 3.02728 0
M  V30 2519 H 233.4 0.8368 3.56922 0
M  V30 2520 H 233.048 -1.27225 4.86644 0
M  V30 2521 H 232.748 0.166209 5.87365 0
M  V30 2522 H 234.272 -0.747389 6.06009 0
M  V30 2523 H 235.686 1.46437 5.54283 0
M  V30 2524 H 234.083 2.25534 5.56106 0
M  V30 2525 H 235.153 2.48176 4.16577 0
M  V30 2526 N 236.496 -1.42363 0.676048 0
M  V30 2527 C 237.773 -1.95183 0.127726 0
M  V30 2528 C 238.153 -1.61641 -1.35777 0
M  V30 2529 O 237.501 -0.913216 -2.09458 0
M  V30 2530 C 237.711 -3.46721 0.398199 0
M  V30 2531 C 239.059 -4.23427 0.315383 0
M  V30 2532 O 240.083 -3.54649 0.332016 0
M  V30 2533 O 238.942 -5.45888 0.25865 0
M  V30 2534 H 236.036 -0.826992 0.00359427 0
M  V30 2535 H 238.582 -1.52184 0.750864 0
M  V30 2536 H 237.354 -3.64344 1.4272 0
M  V30 2537 H 236.977 -3.96769 -0.256885 0
M  V30 2538 N 237.974 -0.419461 -1.51915 0
M  V30 2539 C 239.204 0.151915 -2.06041 0
M  V30 2540 C 239.612 1.38539 -1.28855 0
M  V30 2541 O 238.955 1.80592 -0.336463 0
M  V30 2542 C 239.017 0.557119 -3.55157 0
M  V30 2543 C 238.681 -0.567054 -4.53468 0
M  V30 2544 C 239.678 -1.43379 -4.99738 0
M  V30 2545 C 237.363 -0.742693 -4.96779 0
M  V30 2546 C 239.357 -2.46102 -5.87973 0
M  V30 2547 C 237.044 -1.77322 -5.84808 0
M  V30 2548 C 238.042 -2.63078 -6.30301 0
M  V30 2549 O 237.73 -3.64364 -7.16585 0
M  V30 2550 H 237.462 0.0193293 -0.675724 0
M  V30 2551 H 240.016 -0.592073 -1.96682 0
M  V30 2552 H 238.246 1.35355 -3.62238 0
M  V30 2553 H 239.935 1.05759 -3.9188 0
M  V30 2554 H 240.701 -1.30954 -4.66986 0
M  V30 2555 H 236.58 -0.0848307 -4.60922 0
M  V30 2556 H 240.124 -3.13071 -6.23404 0
M  V30 2557 H 236.021 -1.89773 -6.16974 0
M  V30 2558 H 236.789 -3.60731 -7.34721 0
M  V30 2559 N 239.452 1.56882 -0.150215 0
M  V30 2560 C 240.385 2.12712 0.826358 0
M  V30 2561 C 241.363 1.05154 1.24022 0
M  V30 2562 O 242.547 1.33004 1.33575 0
M  V30 2563 C 239.674 2.64945 2.11002 0
M  V30 2564 C 238.72 3.8468 1.84183 0
M  V30 2565 S 239.553 5.25502 1.02995 0
M  V30 2566 C 240.709 5.81125 2.32474 0
M  V30 2567 H 240.942 2.95214 0.351598 0
M  V30 2568 H 238.475 1.54267 0.0641211 0
M  V30 2569 H 240.433 2.95689 2.84742 0
M  V30 2570 H 239.094 1.82568 2.55593 0
M  V30 2571 H 238.287 4.19482 2.79375 0
M  V30 2572 H 237.889 3.54714 1.1855 0
M  V30 2573 H 240.181 5.92753 3.281 0
M  V30 2574 H 241.124 6.78625 2.02171 0
M  V30 2575 H 241.532 5.09392 2.43269 0
M  V30 2576 N 240.93 -0.123565 1.57115 0
M  V30 2577 C 242.16 -0.845233 1.88519 0
M  V30 2578 C 242.568 -1.74168 0.739064 0
M  V30 2579 O 241.911 -1.81244 -0.299355 0
M  V30 2580 C 241.973 -1.73452 3.14888 0
M  V30 2581 C 241.637 -1.01285 4.45635 0
M  V30 2582 C 242.634 -0.355774 5.18681 0
M  V30 2583 C 240.319 -0.99538 4.92339 0
M  V30 2584 C 242.313 0.309114 6.3665 0
M  V30 2585 C 240 -0.32669 6.10226 0
M  V30 2586 C 240.998 0.324406 6.82229 0
M  V30 2587 O 240.686 0.982437 7.97874 0
M  V30 2588 H 240.418 -0.248534 0.628655 0
M  V30 2589 H 242.972 -0.113907 2.05084 0
M  V30 2590 H 241.202 -2.50737 2.94394 0
M  V30 2591 H 242.891 -2.33021 3.32349 0
M  V30 2592 H 243.657 -0.360918 4.83655 0
M  V30 2593 H 239.536 -1.49159 4.36202 0
M  V30 2594 H 243.08 0.8179 6.92789 0
M  V30 2595 H 238.977 -0.319294 6.4471 0
M  V30 2596 H 239.745 0.886454 8.13686 0
M  V30 2597 N 242.408 -1.52605 -0.393616 0
M  V30 2598 C 243.633 -1.71592 -1.16495 0
M  V30 2599 C 244.058 -0.43133 -1.83088 0
M  V30 2600 O 243.416 0.612523 -1.7064 0
M  V30 2601 C 243.464 -2.86318 -2.19213 0
M  V30 2602 O 242.568 -2.52969 -3.257 0
M  V30 2603 H 241.909 -0.570734 -0.33935 0
M  V30 2604 H 244.439 -1.99377 -0.459324 0
M  V30 2605 H 244.449 -3.1168 -2.63286 0
M  V30 2606 H 243.124 -3.79511 -1.7013 0
M  V30 2607 H 241.701 -2.38332 -2.86797 0
M  V30 2608 N 243.887 0.651787 -1.4349 0
M  V30 2609 C 244.85 1.74647 -1.48429 0
M  V30 2610 C 245.85 1.56513 -0.368817 0
M  V30 2611 O 247.04 1.62385 -0.630623 0
M  V30 2612 C 244.172 3.13533 -1.33827 0
M  V30 2613 H 245.365 1.71649 -2.4592 0
M  V30 2614 H 242.918 0.863573 -1.30277 0
M  V30 2615 H 243.653 3.22142 -0.37349 0
M  V30 2616 H 243.438 3.28101 -2.14691 0
M  V30 2617 H 244.928 3.93356 -1.40218 0
M  V30 2618 N 245.365 1.30045 0.890287 0
M  V30 2619 C 246.297 1.11786 2.00091 0
M  V30 2620 C 247.31 0.0626307 1.62679 0
M  V30 2621 O 248.499 0.308112 1.75821 0
M  V30 2622 C 245.599 0.681527 3.31977 0
M  V30 2623 C 244.772 1.81735 3.97858 0
M  V30 2624 C 243.831 1.37045 5.08041 0
M  V30 2625 O 242.857 2.07677 5.29961 0
M  V30 2626 N 244.059 0.246525 5.79976 0
M  V30 2627 H 246.824 2.07441 2.16306 0
M  V30 2628 H 244.385 1.2211 1.06305 0
M  V30 2629 H 246.377 0.365675 4.03045 0
M  V30 2630 H 244.947 -0.182828 3.12065 0
M  V30 2631 H 244.167 2.30159 3.20032 0
M  V30 2632 H 245.455 2.57865 4.38615 0
M  V30 2633 H 244.853 -0.34215 5.64664 0
M  V30 2634 H 243.41 -0.00990438 6.51799 0
M  V30 2635 N 246.843 -1.10192 1.12674 0
M  V30 2636 C 248.091 -1.81845 0.881861 0
M  V30 2637 C 248.412 -1.85737 -0.593867 0
M  V30 2638 O 247.682 -1.33724 -1.4316 0
M  V30 2639 H 246.262 -0.673432 0.323261 0
M  V30 2640 H 248.924 -1.33316 1.42172 0
M  V30 2641 H 248.02 -2.85288 1.2656 0
M  V30 2642 N 248.321 -0.919034 -1.28029 0
M  V30 2643 C 249.269 -0.401753 -2.29104 0
M  V30 2644 C 250.263 0.509354 -1.61561 0
M  V30 2645 O 251.469 0.390014 -1.75724 0
M  V30 2646 H 247.844 -0.111331 -0.743713 0
M  V30 2647 H 249.815 -1.2672 -2.70156 0
M  V30 2648 C 248.564 0.338148 -3.46052 0
M  V30 2649 H 247.887 -0.353732 -3.98232 0
M  V30 2650 H 249.327 0.664653 -4.18758 0
M  V30 2651 C 247.786 1.54798 -2.99231 0
M  V30 2652 O 248.316 2.64696 -3.02157 0
M  V30 2653 N 246.522 1.3968 -2.54829 0
M  V30 2654 H 246.069 0.502698 -2.52647 0
M  V30 2655 H 246.027 2.20755 -2.23863 0
M  V30 2656 N 249.799 1.42003 -0.683588 0
M  V30 2657 C 251.047 2.01015 -0.209101 0
M  V30 2658 C 251.368 1.54365 1.19149 0
M  V30 2659 O 250.638 0.769083 1.80172 0
M  V30 2660 H 249.218 0.743294 -0.074315 0
M  V30 2661 H 251.88 1.73798 -0.882066 0
M  V30 2662 H 250.976 3.11343 -0.2172 0
M  V30 2663 N 251.277 0.427512 1.51691 0
M  V30 2664 C 252.525 -0.141948 2.01601 0
M  V30 2665 C 252.846 -1.44067 1.31414 0
M  V30 2666 O 252.116 -1.90763 0.445658 0
M  V30 2667 H 250.696 -0.0554468 0.744939 0
M  V30 2668 H 253.358 0.567968 1.86441 0
M  V30 2669 H 252.454 -0.324913 3.10404 0
M  V30 2670 N 252.755 -1.56801 0.158532 0
M  V30 2671 C 254.003 -1.96102 -0.488712 0
M  V30 2672 C 254.324 -1.04498 -1.64636 0
M  V30 2673 O 253.594 -0.108783 -1.95598 0
M  V30 2674 H 252.174 -0.724102 -0.183535 0
M  V30 2675 H 254.836 -1.93457 0.236728 0
M  V30 2676 H 253.932 -3.00097 -0.857219 0
M  V30 2677 N 254.233 0.115231 -1.57178 0
M  V30 2678 C 255.644 0.67197 -1.74188 0
M  V30 2679 C 255.995 1.80125 -0.777777 0
M  V30 2680 O 255.12 2.16346 0.0484376 0
M  V30 2681 C 255.715 1.22573 -3.1585 0
M  V30 2682 C 254.274 1.72872 -3.34353 0
M  V30 2683 C 253.421 0.629972 -2.70049 0
M  V30 2684 H 256.372 -0.110712 -1.58313 0
M  V30 2685 H 256.393 2.09535 -3.17609 0
M  V30 2686 H 255.905 0.403598 -3.85996 0
M  V30 2687 H 254.006 2.5755 -2.69256 0
M  V30 2688 H 254.119 1.83557 -4.42542 0
M  V30 2689 H 252.483 1.0645 -2.31388 0
M  V30 2690 H 253.266 -0.181241 -3.42821 0
M  V30 2691 N 255.711 1.52812 0.385517 0
M  V30 2692 C 257.122 1.5993 0.963293 0
M  V30 2693 C 257.473 0.454302 1.90868 0
M  V30 2694 O 256.598 -0.422132 2.12243 0
M  V30 2695 C 257.193 2.89871 1.75387 0
M  V30 2696 C 255.752 2.99389 2.28129 0
M  V30 2697 C 254.899 2.55071 1.08783 0
M  V30 2698 H 257.85 1.5784 0.164948 0
M  V30 2699 H 257.871 2.76553 2.61341 0
M  V30 2700 H 257.383 3.73186 1.06554 0
M  V30 2701 H 255.484 2.20619 3.00263 0
M  V30 2702 H 255.597 4.04096 2.57377 0
M  V30 2703 H 253.961 2.09473 1.4489 0
M  V30 2704 H 254.744 3.40785 0.414807 0
M  V30 2705 N 257.189 -0.644168 1.43834 0
M  V30 2706 C 258.605 -0.960875 1.27434 0
M  V30 2707 C 258.805 -2.00499 0.200618 0
M  V30 2708 O 257.861 -2.49018 -0.417906 0
M  V30 2709 C 259.174 -1.43653 2.64167 0
M  V30 2710 C 260.722 -1.55271 2.71772 0
M  V30 2711 C 261.197 -2.06224 4.08944 0
M  V30 2712 N 262.688 -2.13513 4.11055 0
M  V30 2713 C 263.423 -2.54081 5.14033 0
M  V30 2714 N 262.919 -2.9388 6.27381 0
M  V30 2715 N 264.712 -2.54101 5.01387 0
M  V30 2716 H 256.863 0.0465779 2.12349 0
M  V30 2717 H 259.126 -0.0417638 0.94708 0
M  V30 2718 H 258.832 -0.743706 3.43747 0
M  V30 2719 H 258.706 -2.40993 2.90176 0
M  V30 2720 H 261.093 -2.23653 1.92519 0
M  V30 2721 H 261.174 -0.563395 2.49519 0
M  V30 2722 H 260.818 -1.38441 4.88668 0
M  V30 2723 H 260.748 -3.06003 4.28567 0
M  V30 2724 H 263.239 -1.85493 3.29242 0
M  V30 2725 H 263.552 -3.2361 7.01781 0
M  V30 2726 H 261.897 -2.91663 6.30839 0
M  V30 2727 H 265.088 -2.22391 4.11898 0
M  V30 2728 H 265.261 -2.85394 5.81768 0
M  V30 2729 N 258.668 -1.30515 -0.883378 0
M  V30 2730 C 259.615 -1.17032 -1.98927 0
M  V30 2731 C 260.585 -0.0594241 -1.65994 0
M  V30 2732 O 261.77 -0.229895 -1.8941 0
M  V30 2733 C 258.91 -0.869777 -3.33959 0
M  V30 2734 C 258.023 -2.06271 -3.79574 0
M  V30 2735 C 257.158 -1.70011 -5.03259 0
M  V30 2736 C 256.197 -2.8579 -5.41286 0
M  V30 2737 N 255.334 -2.49816 -6.56153 0
M  V30 2738 H 260.174 -2.1164 -2.09792 0
M  V30 2739 H 257.711 -1.05296 -1.02719 0
M  V30 2740 H 259.669 -0.676138 -4.11685 0
M  V30 2741 H 258.299 0.0394332 -3.22776 0
M  V30 2742 H 257.351 -2.36755 -2.97744 0
M  V30 2743 H 258.663 -2.92971 -4.03694 0
M  V30 2744 H 257.817 -1.47032 -5.88614 0
M  V30 2745 H 256.556 -0.804829 -4.81013 0
M  V30 2746 H 255.561 -3.09434 -4.54456 0
M  V30 2747 H 256.786 -3.76008 -5.65504 0
M  V30 2748 H 254.732 -1.62795 -6.35479 0
M  V30 2749 H 254.649 -3.30048 -6.8015 0
M  V30 2750 H 255.917 -2.30197 -7.44735 0
M  V30 2751 N 260.146 1.09593 -1.13257 0
M  V30 2752 C 261.394 1.81375 -0.891492 0
M  V30 2753 C 261.715 1.86049 0.584009 0
M  V30 2754 O 260.985 1.34481 1.42449 0
M  V30 2755 H 259.565 0.671708 -0.326828 0
M  V30 2756 H 262.227 1.3256 -1.42877 0
M  V30 2757 H 261.323 2.84612 -1.28071 0
M  V30 2758 N 261.624 0.925811 1.2754 0
M  V30 2759 C 262.873 0.561084 1.93739 0
M  V30 2760 C 263.186 -0.901685 1.73577 0
M  V30 2761 O 264.392 -1.37511 2.34101 0
M  V30 2762 C 262.848 0.952668 3.47062 0
M  V30 2763 C 262.456 2.43599 3.75983 0
M  V30 2764 C 264.2 0.659103 4.19352 0
M  V30 2765 C 262.107 2.76707 5.22673 0
M  V30 2766 H 261.037 0.206122 0.725279 0
M  V30 2767 H 263.688 1.12637 1.44863 0
M  V30 2768 H 262.07 0.316053 3.94737 0
M  V30 2769 H 263.244 3.12035 3.39073 0
M  V30 2770 H 261.559 2.70125 3.16893 0
M  V30 2771 H 264.156 0.882985 5.27359 0
M  V30 2772 H 264.499 -0.403607 4.14339 0
M  V30 2773 H 265.032 1.25473 3.77494 0
M  V30 2774 H 261.771 3.8188 5.32774 0
M  V30 2775 H 261.291 2.12919 5.60737 0
M  V30 2776 H 262.97 2.6435 5.90532 0
M  V30 2777 N 263.102 -1.41638 0.69111 0
M  V30 2778 C 264.513 -1.84346 0.295517 0
M  V30 2779 C 264.864 -1.57833 -1.16547 0
M  V30 2780 O 263.989 -1.04648 -1.89414 0
M  V30 2781 C 264.584 -3.34636 0.529575 0
M  V30 2782 C 263.143 -3.7593 0.187944 0
M  V30 2783 C 262.29 -2.65082 0.814052 0
M  V30 2784 H 265.241 -1.31253 0.892092 0
M  V30 2785 H 265.262 -3.79903 -0.213148 0
M  V30 2786 H 264.774 -3.53901 1.59297 0
M  V30 2787 H 262.875 -3.62268 -0.871367 0
M  V30 2788 H 262.988 -4.74808 0.63985 0
M  V30 2789 H 261.352 -2.53528 0.244017 0
M  V30 2790 H 262.135 -2.87167 1.88123 0
M  V30 2791 N 264.58 -0.43555 -1.51462 0
M  V30 2792 C 265.49 0.383001 -2.31453 0
M  V30 2793 C 266.506 1.02931 -1.4029 0
M  V30 2794 O 267.682 1.02507 -1.73362 0
M  V30 2795 C 264.747 1.47043 -3.13973 0
M  V30 2796 C 263.808 0.844433 -4.20913 0
M  V30 2797 C 263.041 1.88004 -4.9949 0
M  V30 2798 O 263.264 3.10199 -4.78678 0
M  V30 2799 O 262.198 1.47157 -5.83634 0
M  V30 2800 H 266.024 -0.269964 -3.02498 0
M  V30 2801 H 263.609 -0.19813 -1.4808 0
M  V30 2802 H 265.491 2.10113 -3.65281 0
M  V30 2803 H 264.166 2.10751 -2.45695 0
M  V30 2804 H 263.073 0.175729 -3.73687 0
M  V30 2805 H 264.406 0.250869 -4.9156 0
M  V30 2806 N 266.058 1.56714 -0.166846 0
M  V30 2807 C 266.988 2.20754 0.760913 0
M  V30 2808 C 267.969 1.16178 1.24244 0
M  V30 2809 O 269.154 1.44592 1.29641 0
M  V30 2810 C 266.284 2.84478 1.99223 0
M  V30 2811 C 265.238 3.95053 1.64672 0
M  V30 2812 C 264.564 4.45805 2.95232 0
M  V30 2813 C 265.864 5.14865 0.878155 0
M  V30 2814 H 267.558 2.98537 0.22713 0
M  V30 2815 H 265.104 1.43596 0.107805 0
M  V30 2816 H 267.057 3.27951 2.64624 0
M  V30 2817 H 265.781 2.04056 2.55007 0
M  V30 2818 H 264.44 3.52228 1.01641 0
M  V30 2819 H 264.088 3.62181 3.49047 0
M  V30 2820 H 263.788 5.204 2.7287 0
M  V30 2821 H 265.312 4.91962 3.6167 0
M  V30 2822 H 266.726 5.55059 1.43466 0
M  V30 2823 H 265.123 5.95348 0.753738 0
M  V30 2824 H 266.193 4.84735 -0.126377 0
M  V30 2825 N 267.536 -0.106894 1.57237 0
M  V30 2826 C 268.446 -1.14911 2.0453 0
M  V30 2827 C 269.462 -1.44592 0.96795 0
M  V30 2828 O 270.638 -1.55468 1.2803 0
M  V30 2829 C 267.703 -2.45272 2.45036 0
M  V30 2830 C 266.764 -2.22879 3.66911 0
M  V30 2831 C 265.997 -3.47024 4.05475 0
M  V30 2832 O 266.22 -4.54804 3.44252 0
M  V30 2833 O 265.154 -3.3731 4.98504 0
M  V30 2834 H 268.98 -0.777461 2.9358 0
M  V30 2835 H 266.565 -0.318563 1.45964 0
M  V30 2836 H 268.447 -3.22055 2.71769 0
M  V30 2837 H 267.122 -2.81886 1.59129 0
M  V30 2838 H 266.029 -1.43915 3.45311 0
M  V30 2839 H 267.362 -1.91163 4.53561 0
M  V30 2840 N 269.014 -1.53014 -0.377408 0
M  V30 2841 C 269.946 -1.74884 -1.48149 0
M  V30 2842 C 270.959 -0.629433 -1.5014 0
M  V30 2843 O 272.148 -0.905416 -1.53833 0
M  V30 2844 C 269.248 -1.80299 -2.86959 0
M  V30 2845 C 268.421 -3.09776 -3.08801 0
M  V30 2846 C 267.48 -3.06586 -4.27658 0
M  V30 2847 O 266.506 -3.80419 -4.23403 0
M  V30 2848 N 267.708 -2.26578 -5.34455 0
M  V30 2849 H 270.473 -2.70147 -1.29771 0
M  V30 2850 H 268.034 -1.51646 -0.56703 0
M  V30 2851 H 270.026 -1.75657 -3.64591 0
M  V30 2852 H 268.596 -0.92372 -2.98641 0
M  V30 2853 H 267.816 -3.27815 -2.18931 0
M  V30 2854 H 269.104 -3.95366 -3.20255 0
M  V30 2855 H 268.502 -1.66081 -5.40771 0
M  V30 2856 H 267.059 -2.27766 -6.10709 0
M  V30 2857 N 270.492 0.636531 -1.44174 0
M  V30 2858 C 271.722 1.42146 -1.49927 0
M  V30 2859 C 272.13 1.88812 -0.121063 0
M  V30 2860 O 271.473 1.61126 0.882267 0
M  V30 2861 C 271.535 2.67883 -2.39748 0
M  V30 2862 C 271.199 2.43048 -3.8701 0
M  V30 2863 C 272.196 2.05216 -4.77684 0
M  V30 2864 C 269.881 2.56856 -4.3166 0
M  V30 2865 C 271.875 1.81512 -6.11009 0
M  V30 2866 C 269.562 2.32766 -5.65034 0
M  V30 2867 C 270.56 1.95152 -6.54526 0
M  V30 2868 O 270.248 1.71326 -7.85431 0
M  V30 2869 H 269.98 0.442567 -0.51099 0
M  V30 2870 H 272.534 0.786158 -1.8976 0
M  V30 2871 H 270.764 3.34032 -1.94832 0
M  V30 2872 H 272.453 3.29874 -2.36513 0
M  V30 2873 H 273.219 1.94111 -4.44462 0
M  V30 2874 H 269.098 2.85104 -3.62266 0
M  V30 2875 H 272.642 1.52077 -6.80822 0
M  V30 2876 H 268.539 2.43479 -5.97819 0
M  V30 2877 H 269.307 1.85616 -7.97176 0
M  V30 2878 N 271.97 1.30982 0.876444 0
M  V30 2879 C 273.247 1.10942 1.61094 0
M  V30 2880 C 273.627 -0.338223 2.08373 0
M  V30 2881 O 272.975 -1.33122 1.85717 0
M  V30 2882 C 273.185 2.11789 2.77392 0
M  V30 2883 C 274.533 2.43965 3.47514 0
M  V30 2884 O 275.557 2.10166 2.87591 0
M  V30 2885 O 274.416 3.01817 4.55597 0
M  V30 2886 H 271.51 0.42667 0.708436 0
M  V30 2887 H 274.056 1.42438 0.922474 0
M  V30 2888 H 272.828 3.09194 2.39823 0
M  V30 2889 H 272.451 1.81161 3.5393 0
M  V30 2890 N 273.449 -1.08991 1.13837 0
M  V30 2891 C 274.86 -1.62746 0.914917 0
M  V30 2892 C 275.211 -1.88403 -0.547594 0
M  V30 2893 O 274.336 -1.63706 -1.41525 0
M  V30 2894 C 274.931 -2.95662 1.65437 0
M  V30 2895 C 273.49 -3.46225 1.47666 0
M  V30 2896 C 272.637 -2.20562 1.6807 0
M  V30 2897 H 275.588 -0.922946 1.29102 0
M  V30 2898 H 275.609 -3.63825 1.11407 0
M  V30 2899 H 275.121 -2.76956 2.71877 0
M  V30 2900 H 273.222 -3.70046 0.435478 0
M  V30 2901 H 273.335 -4.23368 2.24268 0
M  V30 2902 H 271.699 -2.29439 1.10589 0
M  V30 2903 H 272.482 -2.0437 2.7584 0
M  V30 2904 N 274.927 -0.932562 -1.27047 0
M  V30 2905 C 276.338 -0.619451 -1.76124 0
M  V30 2906 C 276.689 0.865397 -1.76083 0
M  V30 2907 O 275.814 1.67722 -1.36742 0
M  V30 2908 C 276.409 -1.11771 -3.19832 0
M  V30 2909 C 274.968 -0.855174 -3.66557 0
M  V30 2910 C 274.115 -1.27362 -2.46321 0
M  V30 2911 H 277.066 -1.11181 -1.13245 0
M  V30 2912 H 277.087 -0.46759 -3.77616 0
M  V30 2913 H 276.599 -2.19842 -3.1983 0
M  V30 2914 H 274.7 0.211524 -3.71999 0
M  V30 2915 H 274.813 -1.47613 -4.55793 0
M  V30 2916 H 273.177 -0.692119 -2.45116 0
M  V30 2917 H 273.96 -2.36307 -2.49025 0
M  V30 2918 N 276.405 1.4127 -0.698611 0
M  V30 2919 C 277.315 2.34573 -0.0357891 0
M  V30 2920 C 278.331 1.56393 0.762701 0
M  V30 2921 O 279.507 1.8886 0.699564 0
M  V30 2922 C 276.572 3.35159 0.887089 0
M  V30 2923 C 275.633 4.29225 0.0804634 0
M  V30 2924 C 274.866 5.25006 0.959387 0
M  V30 2925 O 275.089 5.26314 2.19886 0
M  V30 2926 O 274.023 6.00519 0.407439 0
M  V30 2927 H 277.849 2.92838 -0.804957 0
M  V30 2928 H 275.434 1.42175 -0.458966 0
M  V30 2929 H 277.316 3.9689 1.41621 0
M  V30 2930 H 275.991 2.79333 1.6357 0
M  V30 2931 H 274.898 3.70833 -0.493328 0
M  V30 2932 H 276.231 4.88157 -0.629547 0
M  V30 2933 N 277.883 0.443576 1.51229 0
M  V30 2934 C 278.813 -0.355142 2.30783 0
M  V30 2935 C 279.794 -1.0154 1.36468 0
M  V30 2936 O 280.979 -1.01785 1.65389 0
M  V30 2937 C 278.109 -1.45312 3.15439 0
M  V30 2938 C 277.063 -0.916002 4.18083 0
M  V30 2939 C 276.389 -2.1102 4.91299 0
M  V30 2940 C 277.689 0.0538602 5.22272 0
M  V30 2941 H 279.383 0.308767 2.97804 0
M  V30 2942 H 276.929 0.149937 1.43217 0
M  V30 2943 H 278.882 -2.01914 3.69876 0
M  V30 2944 H 277.606 -2.14541 2.46252 0
M  V30 2945 H 276.265 -0.372145 3.64706 0
M  V30 2946 H 275.913 -2.78882 4.18609 0
M  V30 2947 H 275.613 -1.75717 5.60712 0
M  V30 2948 H 277.137 -2.68164 5.48562 0
M  V30 2949 H 278.551 -0.422069 5.71744 0
M  V30 2950 H 276.948 0.319776 5.99247 0
M  V30 2951 H 278.018 0.98858 4.74716 0
M  V30 2952 N 279.361 -1.56624 0.175154 0
M  V30 2953 C 280.324 -2.16934 -0.739738 0
M  V30 2954 C 281.324 -1.11842 -1.15533 0
M  V30 2955 O 282.514 -1.37335 -1.07167 0
M  V30 2956 C 279.646 -2.75531 -2.00738 0
M  V30 2957 H 280.839 -2.99131 -0.214639 0
M  V30 2958 H 278.392 -1.56123 -0.0744197 0
M  V30 2959 H 279.127 -1.97078 -2.57548 0
M  V30 2960 H 278.912 -3.52444 -1.71831 0
M  V30 2961 H 280.402 -3.21904 -2.66021 0
M  V30 2962 N 280.839 0.0985539 -1.57292 0
M  V30 2963 C 282.116 0.834155 -1.76921 0
M  V30 2964 C 282.496 1.97101 -0.755928 0
M  V30 2965 O 281.844 2.27474 0.216245 0
M  V30 2966 C 282.054 1.33194 -3.22584 0
M  V30 2967 C 283.402 1.77611 -3.85668 0
M  V30 2968 O 284.426 1.42825 -3.26312 0
M  V30 2969 O 283.285 2.4192 -4.90038 0
M  V30 2970 H 280.379 0.397628 -0.725135 0
M  V30 2971 H 282.925 0.0807044 -1.69508 0
M  V30 2972 H 281.697 0.517248 -3.87866 0
M  V30 2973 H 281.32 2.1475 -3.34616 0
M  V30 2974 N 282.317 1.53212 0.369288 0
M  V30 2975 C 283.542 1.73423 1.1375 0
M  V30 2976 C 283.967 0.460404 1.82378 0
M  V30 2977 O 283.325 -0.585298 1.71592 0
M  V30 2978 C 283.373 2.89769 2.1463 0
M  V30 2979 O 282.477 2.58119 3.21634 0
M  V30 2980 H 281.818 0.576061 0.330227 0
M  V30 2981 H 284.348 2.00083 0.427547 0
M  V30 2982 H 284.358 3.15829 2.58294 0
M  V30 2983 H 283.033 3.8217 1.64071 0
M  V30 2984 H 281.61 2.42864 2.82969 0
M  V30 2985 N 283.795 -0.628877 1.44509 0
M  V30 2986 C 285.02 -1.42048 1.5112 0
M  V30 2987 C 285.445 -1.87594 0.137818 0
M  V30 2988 O 284.803 -1.58873 -0.873437 0
M  V30 2989 C 284.851 -2.61541 2.48251 0
M  V30 2990 O 283.955 -3.61453 1.98559 0
M  V30 2991 H 283.296 -0.424942 0.510216 0
M  V30 2992 H 285.826 -0.767374 1.89664 0
M  V30 2993 H 285.836 -3.09057 2.66361 0
M  V30 2994 H 284.511 -2.27736 3.48007 0
M  V30 2995 H 283.088 -3.20731 1.90227 0
M  V30 2996 N 285.273 -1.31445 -0.869486 0
M  V30 2997 C 286.521 -1.20918 -1.61936 0
M  V30 2998 C 286.842 0.232683 -1.93607 0
M  V30 2999 O 286.112 1.15352 -1.58338 0
M  V30 3000 H 284.692 -0.44454 -0.600328 0
M  V30 3001 H 287.354 -1.64776 -1.0409 0
M  V30 3002 H 286.45 -1.78124 -2.56278 0
M  V30 3003 N 286.751 1.08385 -1.14413 0
M  V30 3004 C 288.167 1.32844 -0.884563 0
M  V30 3005 C 288.367 1.95841 0.474181 0
M  V30 3006 O 287.423 2.21158 1.21842 0
M  V30 3007 C 288.736 2.22978 -2.01745 0
M  V30 3008 C 290.284 2.36458 -2.05077 0
M  V30 3009 C 290.759 3.29934 -3.1766 0
M  V30 3010 N 292.25 3.37511 -3.17239 0
M  V30 3011 C 292.985 4.09871 -4.0099 0
M  V30 3012 N 292.481 4.84936 -4.94781 0
M  V30 3013 N 294.274 4.05704 -3.89051 0
M  V30 3014 H 286.425 0.658756 -2.01926 0
M  V30 3015 H 288.688 0.352821 -0.879899 0
M  V30 3016 H 288.394 1.83934 -2.99769 0
M  V30 3017 H 288.268 3.23441 -1.94077 0
M  V30 3018 H 290.655 2.7476 -1.0766 0
M  V30 3019 H 290.736 1.35736 -2.16816 0
M  V30 3020 H 290.38 2.92352 -4.15322 0
M  V30 3021 H 290.31 4.30584 -3.03158 0
M  V30 3022 H 292.801 2.83996 -2.49308 0
M  V30 3023 H 293.114 5.37612 -5.55151 0
M  V30 3024 H 291.459 4.83988 -4.98779 0
M  V30 3025 H 294.65 3.46167 -3.15097 0
M  V30 3026 H 294.823 4.61834 -4.54547 0
M  V30 3027 N 288.23 0.939286 1.26551 0
M  V30 3028 C 289.476 0.586715 1.94128 0
M  V30 3029 C 289.809 -0.8717 1.73537 0
M  V30 3030 O 289.084 -1.62339 1.07127 0
M  V30 3031 C 289.367 0.927497 3.4795 0
M  V30 3032 C 289.22 2.44052 3.77834 0
M  V30 3033 C 290.539 0.441569 4.37879 0
M  V30 3034 H 287.658 0.21463 0.705055 0
M  V30 3035 H 290.3 1.17316 1.49455 0
M  V30 3036 H 288.45 0.428431 3.8613 0
M  V30 3037 H 290.122 3.01216 3.4938 0
M  V30 3038 H 288.365 2.8848 3.23978 0
M  V30 3039 H 289.036 2.62947 4.85348 0
M  V30 3040 H 291.512 0.869448 4.06915 0
M  V30 3041 H 290.388 0.708856 5.44304 0
M  V30 3042 H 290.649 -0.658467 4.37169 0
M  V30 3043 N 289.708 -1.40897 0.706093 0
M  V30 3044 C 290.954 -2.01352 0.241889 0
M  V30 3045 C 291.287 -1.55832 -1.15888 0
M  V30 3046 O 290.562 -0.774145 -1.7843 0
M  V30 3047 C 290.845 -3.58752 0.311311 0
M  V30 3048 C 290.698 -4.1437 1.74978 0
M  V30 3049 C 292.017 -4.38914 -0.322922 0
M  V30 3050 H 289.136 -0.731562 0.0893687 0
M  V30 3051 H 291.778 -1.67504 0.896802 0
M  V30 3052 H 289.928 -3.87718 -0.246302 0
M  V30 3053 H 291.6 -3.96239 2.36205 0
M  V30 3054 H 289.843 -3.69016 2.28057 0
M  V30 3055 H 290.514 -5.23532 1.74981 0
M  V30 3056 H 292.99 -4.15822 0.152089 0
M  V30 3057 H 291.866 -5.48358 -0.243855 0
M  V30 3058 H 292.127 -4.19176 -1.40513 0
M  V30 3059 N 291.186 -0.45159 -1.50991 0
M  V30 3060 C 292.602 -0.104647 -1.59257 0
M  V30 3061 C 292.802 1.38728 -1.4614 0
M  V30 3062 O 291.858 2.15866 -1.30989 0
M  V30 3063 C 293.171 -0.637468 -2.93865 0
M  V30 3064 C 294.719 -0.599166 -3.07212 0
M  V30 3065 C 295.194 -1.1092 -4.44366 0
M  V30 3066 N 296.685 -1.06778 -4.50725 0
M  V30 3067 C 297.42 -1.43314 -5.55201 0
M  V30 3068 N 296.916 -1.87204 -6.67028 0
M  V30 3069 N 298.709 -1.3504 -5.45638 0
M  V30 3070 H 290.86 -1.42214 -1.57762 0
M  V30 3071 H 293.123 -0.586921 -0.744465 0
M  V30 3072 H 292.829 -1.68187 -3.08879 0
M  V30 3073 H 292.703 -0.0702139 -3.77135 0
M  V30 3074 H 295.09 0.436277 -2.91857 0
M  V30 3075 H 295.171 -1.20299 -2.25747 0
M  V30 3076 H 294.815 -2.14318 -4.60467 0
M  V30 3077 H 294.745 -0.481773 -5.24392 0
M  V30 3078 H 297.236 -0.745643 -3.70471 0
M  V30 3079 H 297.549 -2.13282 -7.42786 0
M  V30 3080 H 295.894 -1.91142 -6.68199 0
M  V30 3081 H 299.085 -1.00607 -4.57161 0
M  V30 3082 H 299.258 -1.63841 -6.26945 0
M  V30 3083 N 292.664 1.56529 -0.183458 0
M  V30 3084 C 293.574 2.22144 0.754272 0
M  V30 3085 C 294.59 1.21684 1.24374 0
M  V30 3086 O 295.766 1.54385 1.29333 0
M  V30 3087 C 292.831 2.85884 1.96141 0
M  V30 3088 C 291.892 4.01579 1.51765 0
M  V30 3089 C 291.125 4.6227 2.66725 0
M  V30 3090 O 291.348 4.21865 3.83909 0
M  V30 3091 O 290.282 5.51936 2.40104 0
M  V30 3092 H 294.108 3.02861 0.225527 0
M  V30 3093 H 291.693 1.49331 0.0453032 0
M  V30 3094 H 293.575 3.26253 2.66715 0
M  V30 3095 H 292.25 2.08154 2.47899 0
M  V30 3096 H 291.157 3.65856 0.781049 0
M  V30 3097 H 292.49 4.80938 1.04686 0
M  V30 3098 N 294.142 -0.090211 1.57342 0
M  V30 3099 C 295.089 -1.10909 2.02405 0
M  V30 3100 C 296.059 -1.39523 0.901252 0
M  V30 3101 O 297.244 -1.50903 1.1676 0
M  V30 3102 C 294.384 -2.42277 2.45755 0
M  V30 3103 C 293.497 -2.20352 3.71576 0
M  V30 3104 C 292.632 -3.45154 4.03785 0
M  V30 3105 C 291.671 -3.18512 5.22701 0
M  V30 3106 N 290.808 -4.35593 5.50639 0
M  V30 3107 H 295.648 -0.71782 2.89225 0
M  V30 3108 H 293.185 -0.342901 1.43048 0
M  V30 3109 H 295.143 -3.18951 2.68935 0
M  V30 3110 H 293.773 -2.79242 1.61938 0
M  V30 3111 H 292.825 -1.34458 3.55844 0
M  V30 3112 H 294.137 -1.96661 4.58395 0
M  V30 3113 H 293.291 -4.30233 4.27767 0
M  V30 3114 H 292.03 -3.71904 3.15498 0
M  V30 3115 H 291.035 -2.31827 4.98534 0
M  V30 3116 H 292.26 -2.93103 6.12591 0
M  V30 3117 H 290.206 -4.6241 4.6531 0
M  V30 3118 H 290.123 -4.1511 6.31838 0
M  V30 3119 H 291.391 -5.21723 5.7916 0
M  V30 3120 N 295.62 -1.53406 -0.361157 0
M  V30 3121 C 296.866 -1.70999 -1.1014 0
M  V30 3122 C 297.221 -0.458425 -1.86859 0
M  V30 3123 O 296.514 0.548654 -1.83577 0
M  V30 3124 C 296.708 -2.90211 -2.08596 0
M  V30 3125 C 296.537 -4.26841 -1.41553 0
M  V30 3126 C 295.307 -4.91621 -1.16778 0
M  V30 3127 C 297.505 -5.07212 -0.850915 0
M  V30 3128 N 295.487 -6.12164 -0.461312 0
M  V30 3129 C 296.858 -6.19394 -0.274046 0
M  V30 3130 C 298.913 -4.92218 -0.750036 0
M  V30 3131 C 297.616 -7.18221 0.393868 0
M  V30 3132 C 299.642 -5.91322 -0.095894 0
M  V30 3133 C 299.004 -7.0283 0.470081 0
M  V30 3134 H 295.103 -0.678939 -0.388028 0
M  V30 3135 H 297.687 -1.90811 -0.38722 0
M  V30 3136 H 295.858 -2.71931 -2.77323 0
M  V30 3137 H 297.59 -2.96606 -2.7533 0
M  V30 3138 H 294.345 -4.50849 -1.45024 0
M  V30 3139 H 294.769 -6.76888 -0.123312 0
M  V30 3140 H 299.411 -4.06192 -1.17337 0
M  V30 3141 H 297.129 -8.03835 0.82914 0
M  V30 3142 H 300.715 -5.81797 -0.0187075 0
M  V30 3143 H 299.595 -7.782 0.968241 0
M  V30 3144 N 297.098 0.621204 -1.44841 0
M  V30 3145 C 298.323 1.41244 -1.51871 0
M  V30 3146 C 298.748 1.87519 -0.147764 0
M  V30 3147 O 298.106 1.59334 0.865 0
M  V30 3148 C 298.154 2.60221 -2.49634 0
M  V30 3149 O 297.258 3.60395 -2.00473 0
M  V30 3150 H 296.599 0.42223 -0.512463 0
M  V30 3151 H 299.129 0.757305 -1.90069 0
M  V30 3152 H 299.139 3.0764 -2.67996 0
M  V30 3153 H 297.814 2.25887 -3.4921 0
M  V30 3154 H 296.391 3.19717 -1.91925 0
M  V30 3155 N 298.576 1.31904 0.862503 0
M  V30 3156 C 299.539 1.20131 1.95195 0
M  V30 3157 C 300.539 0.126409 1.60302 0
M  V30 3158 O 301.729 0.376234 1.70089 0
M  V30 3159 C 298.861 0.845691 3.30244 0
M  V30 3160 H 300.054 2.16943 2.07064 0
M  V30 3161 H 297.607 1.15622 1.05172 0
M  V30 3162 H 298.342 -0.120957 3.24074 0
M  V30 3163 H 298.127 1.62276 3.56944 0
M  V30 3164 H 299.617 0.787418 4.10109 0
M  V30 3165 N 300.054 -1.07777 1.14986 0
M  V30 3166 C 301.331 -1.7699 0.832695 0
M  V30 3167 C 301.711 -2.001 -0.672561 0
M  V30 3168 O 301.059 -1.61598 -1.6155 0
M  V30 3169 C 301.269 -3.08139 1.63863 0
M  V30 3170 C 302.617 -3.8256 1.84208 0
M  V30 3171 O 303.641 -3.17939 1.60603 0
M  V30 3172 O 302.5 -4.98612 2.23714 0
M  V30 3173 H 299.594 -0.768389 0.305791 0
M  V30 3174 H 302.14 -1.14182 1.25541 0
M  V30 3175 H 300.912 -2.86909 2.6608 0
M  V30 3176 H 300.535 -3.78678 1.21197 0
M  V30 3177 N 301.532 -0.945985 -1.26051 0
M  V30 3178 C 302.465 -0.403619 -2.24602 0
M  V30 3179 C 303.443 0.510241 -1.54387 0
M  V30 3180 O 304.627 0.446593 -1.83133 0
M  V30 3181 C 301.754 0.419564 -3.36091 0
M  V30 3182 C 300.8 -0.433454 -4.24292 0
M  V30 3183 S 301.633 -1.86037 -5.02146 0
M  V30 3184 C 302.789 -1.04538 -6.17108 0
M  V30 3185 H 303.022 -1.23883 -2.7026 0
M  V30 3186 H 300.555 -0.749438 -1.34992 0
M  V30 3187 H 302.513 0.888595 -4.00767 0
M  V30 3188 H 301.174 1.22951 -2.89036 0
M  V30 3189 H 300.367 0.197486 -5.03613 0
M  V30 3190 H 299.969 -0.837357 -3.64506 0
M  V30 3191 H 302.261 -0.289923 -6.76879 0
M  V30 3192 H 303.204 -1.81222 -6.84518 0
M  V30 3193 H 303.612 -0.579319 -5.61519 0
M  V30 3194 N 303.011 1.40521 -0.713556 0
M  V30 3195 C 304.257 2.01714 -0.261382 0
M  V30 3196 C 304.612 1.55562 1.13217 0
M  V30 3197 O 303.905 0.764893 1.7567 0
M  V30 3198 C 304.099 3.56317 -0.278 0
M  V30 3199 C 303.928 4.17476 -1.67163 0
M  V30 3200 C 302.698 4.50998 -2.2788 0
M  V30 3201 C 304.896 4.42472 -2.6215 0
M  V30 3202 N 302.878 4.9754 -3.5962 0
M  V30 3203 C 304.249 4.90985 -3.78594 0
M  V30 3204 C 306.304 4.24508 -2.60188 0
M  V30 3205 C 305.007 5.2342 -4.9338 0
M  V30 3206 C 307.033 4.58043 -3.741 0
M  V30 3207 C 306.395 5.06743 -4.89276 0
M  V30 3208 H 302.494 0.769104 -0.141434 0
M  V30 3209 H 305.078 1.70785 -0.934915 0
M  V30 3210 H 303.249 3.8668 0.36509 0
M  V30 3211 H 304.981 4.0425 0.190695 0
M  V30 3212 H 301.736 4.38062 -1.79997 0
M  V30 3213 H 302.16 5.25196 -4.27198 0
M  V30 3214 H 306.802 3.86078 -1.72348 0
M  V30 3215 H 304.52 5.60765 -5.81866 0
M  V30 3216 H 308.106 4.45785 -3.73854 0
M  V30 3217 H 306.986 5.32204 -5.75959 0
M  V30 3218 N 304.489 0.459591 1.5075 0
M  V30 3219 C 305.905 0.113092 1.59199 0
M  V30 3220 C 306.105 -1.37951 1.46874 0
M  V30 3221 O 305.161 -2.15168 1.32132 0
M  V30 3222 C 306.474 0.653043 2.93523 0
M  V30 3223 C 308.022 0.615449 3.0689 0
M  V30 3224 C 308.497 1.13275 4.43771 0
M  V30 3225 N 309.988 1.09167 4.50152 0
M  V30 3226 C 310.723 1.46256 5.54434 0
M  V30 3227 N 310.219 1.90739 6.66026 0
M  V30 3228 N 312.012 1.37932 5.44914 0
M  V30 3229 H 304.163 1.43049 1.57005 0
M  V30 3230 H 306.426 0.590861 0.741341 0
M  V30 3231 H 306.132 1.69822 3.07983 0
M  V30 3232 H 306.006 0.0902132 3.77092 0
M  V30 3233 H 308.393 -0.420793 2.92084 0
M  V30 3234 H 308.474 1.21495 2.25106 0
M  V30 3235 H 308.118 2.16757 4.59324 0
M  V30 3236 H 308.048 0.509576 5.24129 0
M  V30 3237 H 310.539 0.76528 3.7007 0
M  V30 3238 H 310.852 2.17218 7.41644 0
M  V30 3239 H 309.197 1.94683 6.67176 0
M  V30 3240 H 312.388 1.0303 4.56621 0
M  V30 3241 H 312.561 1.67164 6.26067 0
M  V30 3242 N 305.967 -1.56429 0.191757 0
M  V30 3243 C 306.897 -2.21937 -0.725696 0
M  V30 3244 C 307.878 -1.1814 -1.2238 0
M  V30 3245 O 309.063 -1.46636 -1.27325 0
M  V30 3246 C 306.193 -2.87611 -1.94672 0
M  V30 3247 C 305.147 -3.97623 -1.58366 0
M  V30 3248 C 304.473 -4.50446 -2.88102 0
M  V30 3249 C 305.773 -5.16197 -0.796133 0
M  V30 3250 H 307.467 -2.98861 -0.179606 0
M  V30 3251 H 305.013 -1.43749 -0.0849464 0
M  V30 3252 H 306.966 -3.3212 -2.59373 0
M  V30 3253 H 305.69 -2.08087 -2.51728 0
M  V30 3254 H 304.349 -3.53801 -0.960247 0
M  V30 3255 H 303.997 -3.67688 -3.43241 0
M  V30 3256 H 303.697 -5.24675 -2.64556 0
M  V30 3257 H 305.221 -4.97654 -3.53798 0
M  V30 3258 H 306.635 -5.57271 -1.34618 0
M  V30 3259 H 305.032 -5.96471 -0.658928 0
M  V30 3260 H 306.102 -4.84473 0.203478 0
M  V30 3261 N 307.445 0.0818655 -1.57387 0
M  V30 3262 C 308.693 0.781368 -1.86384 0
M  V30 3263 C 309.014 1.78618 -0.782342 0
M  V30 3264 O 308.284 1.94976 0.190061 0
M  V30 3265 H 306.864 0.291562 -0.687751 0
M  V30 3266 H 309.526 0.060348 -1.94807 0
M  V30 3267 H 308.622 1.3038 -2.83562 0
M  V30 3268 N 308.923 1.53595 0.353017 0
M  V30 3269 C 310.163 1.72094 1.10286 0
M  V30 3270 C 310.527 0.469217 1.86178 0
M  V30 3271 O 311.728 0.531083 2.63501 0
M  V30 3272 C 309.999 2.94386 2.02661 0
M  V30 3273 S 311.558 3.33651 2.84996 0
M  V30 3274 H 308.376 0.605433 0.372789 0
M  V30 3275 H 310.978 1.91722 0.38248 0
M  V30 3276 H 309.682 3.83669 1.45691 0
M  V30 3277 H 309.213 2.77197 2.79152 0
M  V30 3278 H 311.228 2.86645 4.0503 0
M  V30 3279 N 310.401 -0.613514 1.45168 0
M  V30 3280 C 311.331 -1.7354 1.56225 0
M  V30 3281 C 312.312 -1.64981 0.41414 0
M  V30 3282 O 313.497 -1.83472 0.636526 0
M  V30 3283 C 310.627 -3.12128 1.52295 0
M  V30 3284 C 309.581 -3.35491 2.65762 0
M  V30 3285 C 308.907 -4.74291 2.46885 0
M  V30 3286 C 310.207 -3.26325 4.0781 0
M  V30 3287 H 311.901 -1.64543 2.50132 0
M  V30 3288 H 309.447 -0.790185 1.20383 0
M  V30 3289 H 311.4 -3.90404 1.58628 0
M  V30 3290 H 310.124 -3.2195 0.549139 0
M  V30 3291 H 308.783 -2.59603 2.58847 0
M  V30 3292 H 308.431 -4.80839 1.47657 0
M  V30 3293 H 308.131 -4.9088 3.22972 0
M  V30 3294 H 309.655 -5.54775 2.55063 0
M  V30 3295 H 311.069 -3.94483 4.16 0
M  V30 3296 H 309.466 -3.54445 4.8424 0
M  V30 3297 H 310.536 -2.23855 4.30136 0
M  V30 3298 N 311.879 -1.3236 -0.855495 0
M  V30 3299 C 313.128 -1.22226 -1.60448 0
M  V30 3300 C 313.441 0.214733 -1.94418 0
M  V30 3301 O 314.647 0.437917 -2.67945 0
M  V30 3302 C 313.103 -2.14063 -2.89318 0
M  V30 3303 C 312.711 -3.62839 -2.62777 0
M  V30 3304 C 314.455 -2.12764 -3.67331 0
M  V30 3305 C 312.362 -4.4664 -3.87643 0
M  V30 3306 H 311.292 -0.453904 -0.602069 0
M  V30 3307 H 313.943 -1.57314 -0.944698 0
M  V30 3308 H 312.325 -1.71889 -3.5675 0
M  V30 3309 H 313.499 -4.1335 -2.03662 0
M  V30 3310 H 311.814 -3.66261 -1.98096 0
M  V30 3311 H 314.411 -2.72611 -4.59987 0
M  V30 3312 H 314.754 -1.11841 -4.00995 0
M  V30 3313 H 315.287 -2.53214 -3.06802 0
M  V30 3314 H 312.026 -5.48373 -3.5912 0
M  V30 3315 H 311.546 -4.0088 -4.46156 0
M  V30 3316 H 313.225 -4.59597 -4.55389 0
M  V30 3317 N 313.357 1.07166 -1.15556 0
M  V30 3318 C 314.603 1.80222 -0.942961 0
M  V30 3319 C 314.958 1.85121 0.524209 0
M  V30 3320 O 314.251 1.32531 1.38369 0
M  V30 3321 C 314.445 3.24707 -1.49332 0
M  V30 3322 C 314.274 3.33887 -3.01247 0
M  V30 3323 C 313.044 3.44337 -3.69811 0
M  V30 3324 C 315.242 3.24484 -3.99017 0
M  V30 3325 N 313.224 3.42439 -5.09518 0
M  V30 3326 C 314.595 3.29726 -5.25053 0
M  V30 3327 C 316.65 3.08307 -3.90962 0
M  V30 3328 C 315.353 3.20455 -6.43973 0
M  V30 3329 C 317.379 3.00371 -5.09442 0
M  V30 3330 C 316.741 3.06227 -6.34354 0
M  V30 3331 H 312.84 0.672709 -0.398731 0
M  V30 3332 H 315.424 1.27905 -1.46794 0
M  V30 3333 H 313.595 3.7544 -0.994946 0
M  V30 3334 H 315.327 3.85894 -1.21935 0
M  V30 3335 H 312.082 3.48762 -3.20409 0
M  V30 3336 H 312.506 3.45013 -5.8249 0
M  V30 3337 H 317.148 3.02633 -2.95251 0
M  V30 3338 H 314.866 3.24888 -7.39914 0
M  V30 3339 H 318.452 2.88955 -5.04971 0
M  V30 3340 H 317.332 3.00132 -7.24493 0
M  V30 3341 N 314.835 0.952656 1.25548 0
M  V30 3342 C 315.745 0.47782 2.29682 0
M  V30 3343 C 316.761 -0.453859 1.67977 0
M  V30 3344 O 317.937 -0.330587 1.98668 0
M  V30 3345 C 315.002 -0.238655 3.45878 0
M  V30 3346 C 314.063 0.730994 4.23031 0
M  V30 3347 C 313.296 0.0486165 5.33678 0
M  V30 3348 O 313.519 -1.16612 5.58353 0
M  V30 3349 O 312.453 0.733152 5.97418 0
M  V30 3350 H 316.279 1.34312 2.72386 0
M  V30 3351 H 313.864 0.719026 1.30959 0
M  V30 3352 H 315.746 -0.641774 4.16484 0
M  V30 3353 H 314.421 -1.07916 3.05181 0
M  V30 3354 H 313.328 1.18428 3.5486 0
M  V30 3355 H 314.661 1.53946 4.67506 0
M  V30 3356 N 316.313 -1.40141 0.720998 0
M  V30 3357 C 317.559 -2.01084 0.263231 0
M  V30 3358 C 317.892 -1.57052 -1.14229 0
M  V30 3359 O 317.167 -0.793027 -1.77599 0
M  V30 3360 C 317.45 -3.58401 0.349344 0
M  V30 3361 C 317.303 -4.12491 1.79363 0
M  V30 3362 C 318.622 -4.39231 -0.276351 0
M  V30 3363 H 315.741 -0.730572 0.0971228 0
M  V30 3364 H 318.383 -1.66543 0.914518 0
M  V30 3365 H 316.533 -3.87958 -0.205165 0
M  V30 3366 H 318.205 -3.93711 2.40394 0
M  V30 3367 H 316.448 -3.66576 2.31958 0
M  V30 3368 H 317.119 -5.21646 1.80524 0
M  V30 3369 H 319.595 -4.15637 0.196184 0
M  V30 3370 H 318.471 -5.48586 -0.185681 0
M  V30 3371 H 318.732 -4.20643 -1.36059 0
M  V30 3372 N 317.792 -0.46758 -1.50504 0
M  V30 3373 C 319.039 0.0886219 -2.02306 0
M  V30 3374 C 319.367 1.40037 -1.34981 0
M  V30 3375 O 318.622 1.90136 -0.463318 0
M  V30 3376 C 318.921 0.323995 -3.55928 0
M  V30 3377 C 318.587 -0.905618 -4.41712 0
M  V30 3378 C 317.249 -1.24275 -4.64875 0
M  V30 3379 C 319.601 -1.72448 -4.91845 0
M  V30 3380 C 316.929 -2.39888 -5.35417 0
M  V30 3381 C 319.281 -2.87185 -5.63656 0
M  V30 3382 C 317.945 -3.21317 -5.85074 0
M  V30 3383 H 317.215 0.0324291 -0.74029 0
M  V30 3384 H 319.862 -0.620945 -1.81153 0
M  V30 3385 H 318.167 1.11577 -3.75577 0
M  V30 3386 H 319.864 0.76826 -3.93572 0
M  V30 3387 H 316.454 -0.632956 -4.239 0
M  V30 3388 H 320.638 -1.4772 -4.73806 0
M  V30 3389 H 315.894 -2.66611 -5.50208 0
M  V30 3390 H 320.068 -3.50985 -6.01484 0
M  V30 3391 H 317.695 -4.1101 -6.39511 0
M  V30 3392 N 319.27 1.56325 -0.20005 0
M  V30 3393 C 320.218 2.20666 0.735482 0
M  V30 3394 C 321.212 1.17934 1.21605 0
M  V30 3395 O 322.418 1.36068 1.17837 0
M  V30 3396 H 318.793 0.70725 0.255542 0
M  V30 3397 H 320.764 2.9792 0.169166 0
M  V30 3398 C 319.513 2.88391 1.94232 0
M  V30 3399 H 318.836 3.67185 1.58161 0
M  V30 3400 H 320.276 3.3684 2.57517 0
M  V30 3401 C 318.735 1.89692 2.78421 0
M  V30 3402 O 319.265 1.40032 3.76502 0
M  V30 3403 N 317.471 1.57813 2.44015 0
M  V30 3404 H 317.018 1.9839 1.64314 0
M  V30 3405 H 316.976 0.920325 3.00628 0
M  V30 3406 N 320.748 -0.0735177 1.57428 0
M  V30 3407 C 321.996 -0.771472 1.86796 0
M  V30 3408 C 322.317 -1.78201 0.791804 0
M  V30 3409 O 321.587 -1.95074 -0.179718 0
M  V30 3410 H 320.167 -0.28791 0.689287 0
M  V30 3411 H 322.829 -0.0500161 1.94836 0
M  V30 3412 H 321.925 -1.28874 2.8425 0
M  V30 3413 N 322.226 -1.5378 -0.344866 0
M  V30 3414 C 323.637 -1.62428 -0.920552 0
M  V30 3415 C 323.988 -0.504747 -1.89596 0
M  V30 3416 O 323.113 0.365711 -2.13287 0
M  V30 3417 C 323.708 -2.94419 -1.67639 0
M  V30 3418 C 322.267 -3.05333 -2.20111 0
M  V30 3419 C 321.414 -2.57866 -1.01982 0
M  V30 3420 H 324.365 -1.58222 -0.123042 0
M  V30 3421 H 324.386 -2.83384 -2.53917 0
M  V30 3422 H 323.898 -3.7588 -0.966224 0
M  V30 3423 H 321.999 -2.28502 -2.94308 0
M  V30 3424 H 322.112 -4.10778 -2.46573 0
M  V30 3425 H 320.476 -2.13241 -1.39285 0
M  V30 3426 H 321.259 -3.41765 -0.324308 0
M  V30 3427 N 323.704 0.605807 -1.45491 0
M  V30 3428 C 324.634 1.72709 -1.57143 0
M  V30 3429 C 325.615 1.6476 -0.422884 0
M  V30 3430 O 326.8 1.83132 -0.646247 0
M  V30 3431 C 323.93 3.11316 -1.53948 0
M  V30 3432 C 322.884 3.34077 -2.67537 0
M  V30 3433 C 322.21 4.72975 -2.49397 0
M  V30 3434 C 323.51 3.24158 -4.09535 0
M  V30 3435 H 325.204 1.63214 -2.51001 0
M  V30 3436 H 322.75 0.78379 -1.208 0
M  V30 3437 H 324.703 3.89557 -1.60696 0
M  V30 3438 H 323.427 3.21655 -0.566205 0
M  V30 3439 H 322.086 2.58227 -2.6022 0
M  V30 3440 H 321.734 4.8005 -1.50205 0
M  V30 3441 H 321.434 4.8916 -3.25571 0
M  V30 3442 H 322.958 5.53414 -2.58002 0
M  V30 3443 H 324.372 3.92271 -4.18086 0
M  V30 3444 H 322.769 3.51872 -4.86113 0
M  V30 3445 H 323.839 2.2157 -4.31317 0
M  V30 3446 N 325.182 1.32811 0.848464 0
M  V30 3447 C 326.593 1.21315 1.41914 0
M  V30 3448 C 326.944 -0.171847 1.95446 0
M  V30 3449 O 326.069 -1.07093 1.88043 0
M  V30 3450 C 326.664 2.19631 2.57968 0
M  V30 3451 C 325.223 2.12003 3.11017 0
M  V30 3452 C 324.37 2.07651 1.83783 0
M  V30 3453 H 327.321 1.44549 0.655071 0
M  V30 3454 H 327.342 1.79845 3.35315 0
M  V30 3455 H 326.854 3.20423 2.18976 0
M  V30 3456 H 324.955 1.14481 3.54577 0
M  V30 3457 H 325.068 3.02111 3.71841 0
M  V30 3458 H 323.432 1.52983 2.03638 0
M  V30 3459 H 324.215 3.10235 1.47 0
M  V30 3460 N 326.66 -1.06551 1.16123 0
M  V30 3461 C 328.076 -1.3142 0.905585 0
M  V30 3462 C 328.276 -1.96571 -0.442964 0
M  V30 3463 O 327.332 -2.23068 -1.18308 0
M  V30 3464 C 328.645 -2.19741 2.05267 0
M  V30 3465 C 330.193 -2.33165 2.08813 0
M  V30 3466 C 330.668 -3.24838 3.22868 0
M  V30 3467 N 332.159 -3.32421 3.22568 0
M  V30 3468 C 332.894 -4.0344 4.0746 0
M  V30 3469 N 332.39 -4.77003 5.02434 0
M  V30 3470 N 334.183 -3.99464 3.95456 0
M  V30 3471 H 326.334 -0.626548 2.02949 0
M  V30 3472 H 328.597 -0.338777 0.8854 0
M  V30 3473 H 328.303 -1.79142 3.02657 0
M  V30 3474 H 328.177 -3.20313 1.99198 0
M  V30 3475 H 330.564 -2.73013 1.12018 0
M  V30 3476 H 330.645 -1.3227 2.18948 0
M  V30 3477 H 330.289 -2.85708 4.19921 0
M  V30 3478 H 330.219 -4.25707 3.0997 0
M  V30 3479 H 332.71 -2.79994 2.53795 0
M  V30 3480 H 333.023 -5.28712 5.63634 0
M  V30 3481 H 331.368 -4.75992 5.06415 0
M  V30 3482 H 334.559 -3.4111 3.20564 0
M  V30 3483 H 334.732 -4.54544 4.61837 0
M  V30 3484 N 328.138 -0.959301 -1.25041 0
M  V30 3485 C 329.101 -0.487677 -2.23952 0
M  V30 3486 C 330.101 0.41119 -1.55454 0
M  V30 3487 O 331.291 0.207825 -1.72956 0
M  V30 3488 C 328.423 0.294807 -3.39623 0
M  V30 3489 H 329.616 -1.36198 -2.67189 0
M  V30 3490 H 327.169 -0.743042 -1.37508 0
M  V30 3491 H 327.904 1.18658 -3.01813 0
M  V30 3492 H 327.689 -0.35012 -3.90534 0
M  V30 3493 H 329.179 0.614089 -4.1306 0
M  V30 3494 N 329.616 1.39756 -0.72842 0
M  V30 3495 C 330.579 2.29012 -0.0927297 0
M  V30 3496 C 331.579 1.45992 0.674025 0
M  V30 3497 O 332.769 1.66749 0.50402 0
M  V30 3498 C 329.901 3.29396 0.878137 0
M  V30 3499 H 331.094 2.86729 -0.879011 0
M  V30 3500 H 328.647 1.48293 -0.493847 0
M  V30 3501 H 329.382 2.76722 1.69101 0
M  V30 3502 H 329.167 3.907 0.331051 0
M  V30 3503 H 330.657 3.96199 1.3197 0
M  V30 3504 N 331.094 0.475555 1.50254 0
M  V30 3505 C 332.057 -0.305016 2.27161 0
M  V30 3506 C 333.057 -0.916519 1.32123 0
M  V30 3507 O 334.247 -0.785003 1.5551 0
M  V30 3508 C 331.379 -1.43496 3.09227 0
M  V30 3509 H 332.572 0.369511 2.97615 0
M  V30 3510 H 330.125 0.229747 1.54602 0
M  V30 3511 H 330.86 -2.14441 2.43281 0
M  V30 3512 H 330.645 -1.00223 3.79075 0
M  V30 3513 H 332.135 -1.98548 3.67381 0
M  V30 3514 N 332.573 -1.56217 0.208337 0
M  V30 3515 C 333.503 -2.22694 -0.702116 0
M  V30 3516 C 334.484 -1.19432 -1.2112 0
M  V30 3517 O 335.669 -1.47978 -1.25762 0
M  V30 3518 C 332.799 -2.8966 -1.9161 0
M  V30 3519 C 331.753 -3.9928 -1.5414 0
M  V30 3520 C 331.079 -4.53476 -2.83308 0
M  V30 3521 C 332.379 -5.17012 -0.741339 0
M  V30 3522 H 334.073 -2.99034 -0.147898 0
M  V30 3523 H 331.619 -1.43831 -0.0696951 0
M  V30 3524 H 333.572 -3.34852 -2.55836 0
M  V30 3525 H 332.296 -2.10746 -2.49507 0
M  V30 3526 H 330.955 -3.54799 -0.922668 0
M  V30 3527 H 330.603 -3.71308 -3.39322 0
M  V30 3528 H 330.303 -5.27451 -2.58976 0
M  V30 3529 H 331.827 -5.01378 -3.485 0
M  V30 3530 H 333.241 -5.58667 -1.28699 0
M  V30 3531 H 331.638 -5.97137 -0.595627 0
M  V30 3532 H 332.708 -4.8423 0.254851 0
M  V30 3533 N 334.051 0.0651679 -1.57465 0
M  V30 3534 C 335.467 0.420105 -1.53972 0
M  V30 3535 C 335.667 1.78782 -0.929474 0
M  V30 3536 O 334.723 2.46771 -0.534839 0
M  V30 3537 C 336.036 0.355084 -2.98596 0
M  V30 3538 C 337.584 0.434792 -3.09965 0
M  V30 3539 C 338.059 0.399609 -4.56253 0
M  V30 3540 N 339.55 0.459488 -4.60915 0
M  V30 3541 C 340.285 0.454584 -5.71595 0
M  V30 3542 N 339.781 0.404102 -6.9162 0
M  V30 3543 N 341.574 0.501635 -5.59857 0
M  V30 3544 H 333.725 -0.830328 -1.95498 0
M  V30 3545 H 335.988 -0.312244 -0.895102 0
M  V30 3546 H 335.694 -0.583357 -3.46828 0
M  V30 3547 H 335.568 1.16275 -3.58831 0
M  V30 3548 H 337.955 1.36366 -2.61703 0
M  V30 3549 H 338.036 -0.40157 -2.52628 0
M  V30 3550 H 337.68 -0.525436 -5.05175 0
M  V30 3551 H 337.61 1.25359 -5.11461 0
M  V30 3552 H 340.101 0.502482 -3.74544 0
M  V30 3553 H 340.414 0.404468 -7.71741 0
M  V30 3554 H 338.759 0.37069 -6.94011 0
M  V30 3555 H 341.95 0.538812 -4.64989 0
M  V30 3556 H 342.123 0.494345 -6.46112 0
M  V30 3557 N 335.529 1.53961 0.336706 0
M  V30 3558 C 336.477 1.83136 1.43401 0
M  V30 3559 C 337.471 0.702313 1.54156 0
M  V30 3560 O 338.677 0.885765 1.56698 0
M  V30 3561 H 335.052 0.580309 0.478273 0
M  V30 3562 H 337.023 2.74925 1.16012 0
M  V30 3563 C 335.772 2.06385 2.79822 0
M  V30 3564 H 335.095 2.92718 2.72316 0
M  V30 3565 H 336.535 2.30761 3.55704 0
M  V30 3566 C 334.994 0.851414 3.25964 0
M  V30 3567 O 335.524 0.0541904 4.01663 0
M  V30 3568 N 333.73 0.66672 2.82848 0
M  V30 3569 H 333.277 1.31665 2.21409 0
M  V30 3570 H 333.235 -0.143032 3.14074 0
M  V30 3571 N 337.007 -0.598083 1.45811 0
M  V30 3572 C 338.418 -1.18011 1.44673 0
M  V30 3573 C 338.769 -1.95378 0.179364 0
M  V30 3574 O 337.894 -2.04124 -0.718509 0
M  V30 3575 C 338.489 -2.14677 2.62105 0
M  V30 3576 C 337.048 -2.68236 2.64057 0
M  V30 3577 C 336.195 -1.43816 2.37091 0
M  V30 3578 H 339.146 -0.38686 1.53913 0
M  V30 3579 H 339.167 -2.97878 2.36746 0
M  V30 3580 H 338.679 -1.5834 3.5433 0
M  V30 3581 H 336.78 -3.28486 1.75864 0
M  V30 3582 H 336.893 -3.12021 3.63566 0
M  V30 3583 H 335.257 -1.731 1.86838 0
M  V30 3584 H 336.04 -0.893333 3.31473 0
M  V30 3585 N 338.485 -1.33259 -0.841409 0
M  V30 3586 C 339.733 -1.24326 -1.59334 0
M  V30 3587 C 340.054 0.191564 -1.94057 0
M  V30 3588 O 339.324 1.11967 -1.60749 0
M  V30 3589 H 337.904 -0.457174 -0.590763 0
M  V30 3590 H 340.566 -1.66947 -1.00571 0
M  V30 3591 H 339.662 -1.8352 -2.52442 0
M  V30 3592 N 339.963 1.05934 -1.16686 0
M  V30 3593 C 340.91 2.13499 -0.876748 0
M  V30 3594 C 341.88 1.65162 0.176299 0
M  V30 3595 O 343.065 1.90757 0.0407143 0
M  V30 3596 C 340.205 3.42912 -0.387967 0
M  V30 3597 C 339.318 4.04964 -1.50426 0
M  V30 3598 C 338.453 5.22266 -0.970125 0
M  V30 3599 C 337.492 5.76309 -2.06238 0
M  V30 3600 N 336.629 6.84922 -1.54356 0
M  V30 3601 H 341.469 2.37654 -1.7979 0
M  V30 3602 H 339.006 1.16598 -0.896843 0
M  V30 3603 H 340.964 4.17111 -0.086186 0
M  V30 3604 H 339.594 3.18963 0.496235 0
M  V30 3605 H 338.646 3.28277 -1.92193 0
M  V30 3606 H 339.958 4.41122 -2.32836 0
M  V30 3607 H 339.112 6.03506 -0.621743 0
M  V30 3608 H 337.851 4.87564 -0.115377 0
M  V30 3609 H 336.856 4.93704 -2.41942 0
M  V30 3610 H 338.081 6.13062 -2.92115 0
M  V30 3611 H 336.027 6.52131 -0.711406 0
M  V30 3612 H 335.944 7.20043 -2.30379 0
M  V30 3613 H 337.212 7.69832 -1.22387 0
M  V30 3614 N 341.441 0.965919 1.2453 0
M  V30 3615 C 342.69 0.622437 1.91856 0
M  V30 3616 C 343.003 -0.846006 1.76358 0
M  V30 3617 O 344.209 -1.29993 2.38357 0
M  V30 3618 C 342.665 1.0626 3.43856 0
M  V30 3619 C 342.273 2.55437 3.68043 0
M  V30 3620 C 344.017 0.792183 4.17043 0
M  V30 3621 C 341.924 2.93196 5.13605 0
M  V30 3622 H 340.854 0.229092 0.718354 0
M  V30 3623 H 343.505 1.17189 1.41206 0
M  V30 3624 H 341.887 0.441476 3.93531 0
M  V30 3625 H 343.061 3.22665 3.28974 0
M  V30 3626 H 341.376 2.8007 3.08139 0
M  V30 3627 H 343.973 1.05031 5.24283 0
M  V30 3628 H 344.316 -0.271584 4.15413 0
M  V30 3629 H 344.849 1.37419 3.73311 0
M  V30 3630 H 341.588 3.98636 5.20355 0
M  V30 3631 H 341.108 2.30651 5.53679 0
M  V30 3632 H 342.787 2.83004 5.81823 0
M  V30 3633 N 342.919 -1.39368 0.735821 0
M  V30 3634 C 344.33 -1.83313 0.354015 0
M  V30 3635 C 344.681 -1.61461 -1.11466 0
M  V30 3636 O 343.806 -1.10621 -1.85989 0
M  V30 3637 C 344.401 -3.32781 0.635769 0
M  V30 3638 C 342.96 -3.75142 0.307448 0
M  V30 3639 C 342.107 -2.62358 0.897974 0
M  V30 3640 H 345.058 -1.28349 0.933398 0
M  V30 3641 H 345.079 -3.80388 -0.0921773 0
M  V30 3642 H 344.591 -3.48654 1.70476 0
M  V30 3643 H 342.692 -3.64857 -0.755674 0
M  V30 3644 H 342.805 -4.72532 0.790583 0
M  V30 3645 H 341.169 -2.52624 0.324551 0
M  V30 3646 H 341.952 -2.81036 1.97164 0
M  V30 3647 N 344.397 -0.483516 -1.5 0
M  V30 3648 C 345.344 0.304164 -2.28787 0
M  V30 3649 C 346.314 0.976114 -1.34392 0
M  V30 3650 O 347.499 0.986156 -1.63339 0
M  V30 3651 C 344.639 1.37298 -3.16612 0
M  V30 3652 C 343.752 0.714561 -4.26049 0
M  V30 3653 C 342.887 1.76232 -5.01114 0
M  V30 3654 C 341.926 1.08483 -6.0241 0
M  V30 3655 N 341.063 2.076 -6.70706 0
M  V30 3656 H 345.903 -0.373981 -2.95644 0
M  V30 3657 H 343.44 -0.196275 -1.45785 0
M  V30 3658 H 345.398 2.00445 -3.65893 0
M  V30 3659 H 344.028 2.02012 -2.51776 0
M  V30 3660 H 343.08 -0.0297798 -3.80388 0
M  V30 3661 H 344.392 0.180383 -4.98474 0
M  V30 3662 H 343.546 2.46929 -5.54176 0
M  V30 3663 H 342.285 2.33033 -4.28424 0
M  V30 3664 H 341.29 0.363545 -5.48597 0
M  V30 3665 H 342.515 0.523551 -6.77079 0
M  V30 3666 H 340.461 2.63394 -6.00799 0
M  V30 3667 H 340.378 1.59201 -7.39047 0
M  V30 3668 H 341.646 2.77639 -7.2838 0
M  V30 3669 N 345.875 1.56104 -0.216619 0
M  V30 3670 C 347.103 2.02563 0.421413 0
M  V30 3671 C 347.518 1.0965 1.53695 0
M  V30 3672 O 346.875 0.10521 1.82196 0
M  V30 3673 C 346.926 3.48584 0.957665 0
M  V30 3674 O 346.647 4.37953 -0.113389 0
M  V30 3675 C 348.148 4.10664 1.66943 0
M  V30 3676 H 345.368 0.662944 0.103665 0
M  V30 3677 H 347.912 2.01793 -0.331629 0
M  V30 3678 H 346.067 3.49985 1.661 0
M  V30 3679 H 346.481 5.23704 0.288932 0
M  V30 3680 H 347.955 5.14622 1.99671 0
M  V30 3681 H 348.432 3.55373 2.58083 0
M  V30 3682 H 349.038 4.13098 1.01142 0
M  V30 3683 N 347.353 -0.0568162 1.57498 0
M  V30 3684 C 348.283 -1.06593 2.0775 0
M  V30 3685 C 349.264 -1.39448 0.974082 0
M  V30 3686 O 350.449 -1.48815 1.24771 0
M  V30 3687 C 347.579 -2.37509 2.5339 0
M  V30 3688 C 346.533 -2.1897 3.67745 0
M  V30 3689 C 345.859 -3.55402 3.99492 0
M  V30 3690 C 347.159 -1.59859 4.97235 0
M  V30 3691 H 348.853 -0.647706 2.9231 0
M  V30 3692 H 346.399 -0.310116 1.40621 0
M  V30 3693 H 348.352 -3.08409 2.87162 0
M  V30 3694 H 347.076 -2.8134 1.65878 0
M  V30 3695 H 345.735 -1.50508 3.3428 0
M  V30 3696 H 345.383 -3.9683 3.09088 0
M  V30 3697 H 345.083 -3.43831 4.76502 0
M  V30 3698 H 346.607 -4.27708 4.35773 0
M  V30 3699 H 348.021 -2.20642 5.29141 0
M  V30 3700 H 346.418 -1.58942 5.78669 0
M  V30 3701 H 347.488 -0.561506 4.81638 0
M  V30 3702 N 348.832 -1.54138 -0.328536 0
M  V30 3703 C 350.078 -1.7236 -1.06865 0
M  V30 3704 C 350.411 -0.493231 -1.87832 0
M  V30 3705 O 349.686 0.5098 -1.877 0
M  V30 3706 C 349.969 -2.99621 -1.99747 0
M  V30 3707 C 349.822 -4.32899 -1.22143 0
M  V30 3708 C 351.141 -3.22615 -2.99345 0
M  V30 3709 H 348.26 -0.627151 -0.387105 0
M  V30 3710 H 350.902 -1.86827 -0.345767 0
M  V30 3711 H 349.052 -2.87418 -2.61387 0
M  V30 3712 H 350.724 -4.56978 -0.630017 0
M  V30 3713 H 348.967 -4.30628 -0.523628 0
M  V30 3714 H 349.638 -5.18154 -1.90318 0
M  V30 3715 H 352.114 -3.34248 -2.47826 0
M  V30 3716 H 350.99 -4.13027 -3.61524 0
M  V30 3717 H 351.251 -2.3961 -3.71536 0
M  V30 3718 N 350.31 0.590341 -1.46126 0
M  V30 3719 C 351.721 1.17243 -1.45296 0
M  V30 3720 C 352.072 1.95281 -0.189723 0
M  V30 3721 O 351.197 2.04502 0.707674 0
M  V30 3722 C 351.792 2.13284 -2.6324 0
M  V30 3723 C 350.351 2.66832 -2.65476 0
M  V30 3724 C 349.498 1.42557 -2.3785 0
M  V30 3725 H 352.449 0.378692 -1.54116 0
M  V30 3726 H 352.47 2.96619 -2.38323 0
M  V30 3727 H 351.982 1.56459 -3.55165 0
M  V30 3728 H 350.083 3.27548 -1.77603 0
M  V30 3729 H 350.196 3.10088 -3.65215 0
M  V30 3730 H 348.56 1.72107 -1.87753 0
M  V30 3731 H 349.343 0.875741 -3.31942 0
M  V30 3732 N 351.788 1.33704 0.83433 0
M  V30 3733 C 352.738 1.20899 1.93306 0
M  V30 3734 C 353.722 0.110783 1.60518 0
M  V30 3735 O 354.914 0.339331 1.73717 0
M  V30 3736 C 352.043 0.955018 3.29749 0
M  V30 3737 C 351.129 2.09587 3.68692 0
M  V30 3738 N 351.52 3.34621 3.79292 0
M  V30 3739 C 349.818 2.00358 3.98463 0
M  V30 3740 C 350.519 4.09472 4.13167 0
M  V30 3741 N 349.495 3.37954 4.25779 0
M  V30 3742 H 353.297 2.15665 1.99664 0
M  V30 3743 H 350.811 1.25777 1.02732 0
M  V30 3744 H 352.808 0.844208 4.08263 0
M  V30 3745 H 351.468 0.0159317 3.24696 0
M  V30 3746 H 352.479 3.69313 3.63082 0
M  V30 3747 H 349.156 1.14137 4.01596 0
M  V30 3748 H 350.546 5.17391 4.28668 0
M  V30 3749 N 353.266 -1.05314 1.17247 0
M  V30 3750 C 354.496 -1.81707 0.983166 0
M  V30 3751 C 354.904 -1.83222 -0.471822 0
M  V30 3752 O 354.247 -1.25721 -1.3394 0
M  V30 3753 C 354.309 -3.29134 1.44606 0
M  V30 3754 C 353.973 -3.51304 2.92292 0
M  V30 3755 C 354.97 -3.4353 3.90235 0
M  V30 3756 C 352.655 -3.78306 3.30439 0
M  V30 3757 C 354.649 -3.62442 5.24323 0
M  V30 3758 C 352.336 -3.96866 4.64694 0
M  V30 3759 C 353.334 -3.88933 5.61445 0
M  V30 3760 O 353.022 -4.06976 6.93272 0
M  V30 3761 H 352.754 -0.579476 0.348114 0
M  V30 3762 H 355.308 -1.33705 1.55924 0
M  V30 3763 H 353.538 -3.78046 0.813537 0
M  V30 3764 H 355.227 -3.87049 1.22262 0
M  V30 3765 H 355.993 -3.22648 3.62109 0
M  V30 3766 H 351.872 -3.83585 2.55702 0
M  V30 3767 H 355.416 -3.56165 5.99827 0
M  V30 3768 H 351.313 -4.1724 4.92525 0
M  V30 3769 H 352.081 -4.24209 6.99992 0
M  V30 3770 N 354.744 -0.972509 -1.24016 0
M  V30 3771 C 355.984 -0.644951 -1.93958 0
M  V30 3772 C 356.348 0.80559 -1.74282 0
M  V30 3773 O 357.549 1.2436 -2.38302 0
M  V30 3774 C 355.82 -1.01521 -3.42678 0
M  V30 3775 S 357.379 -0.802927 -4.31391 0
M  V30 3776 H 354.197 -0.236452 -0.670531 0
M  V30 3777 H 356.799 -1.25048 -1.50277 0
M  V30 3778 H 355.503 -2.06769 -3.54506 0
M  V30 3779 H 355.034 -0.400648 -3.91355 0
M  V30 3780 H 357.049 0.317256 -4.95185 0
M  V30 3781 N 356.222 1.38976 -0.743202 0
M  V30 3782 C 357.132 2.3434 -0.110399 0
M  V30 3783 C 358.148 1.58741 0.712559 0
M  V30 3784 O 359.324 1.9099 0.639125 0
M  V30 3785 C 356.389 3.37812 0.780012 0
M  V30 3786 C 355.45 4.29263 -0.0561319 0
M  V30 3787 C 354.683 5.27793 0.791875 0
M  V30 3788 O 354.906 5.33043 2.03031 0
M  V30 3789 O 353.84 6.01512 0.216183 0
M  V30 3790 H 357.666 2.90129 -0.897714 0
M  V30 3791 H 355.251 1.40643 -0.503966 0
M  V30 3792 H 357.133 4.01194 1.28923 0
M  V30 3793 H 355.808 2.84395 1.546 0
M  V30 3794 H 354.715 3.69076 -0.611056 0
M  V30 3795 H 356.048 4.85907 -0.784531 0
M  V30 3796 N 357.7 0.491464 1.49741 0
M  V30 3797 C 358.63 -0.28154 2.31796 0
M  V30 3798 C 359.611 -0.971473 1.3963 0
M  V30 3799 O 360.796 -0.964719 1.68543 0
M  V30 3800 C 357.926 -1.35203 3.19902 0
M  V30 3801 C 356.88 -0.782529 4.20786 0
M  V30 3802 C 356.206 -1.95283 4.97764 0
M  V30 3803 C 357.506 0.21999 5.21837 0
M  V30 3804 H 359.2 0.403355 2.96671 0
M  V30 3805 H 356.746 0.195425 1.42668 0
M  V30 3806 H 358.699 -1.90045 3.76113 0
M  V30 3807 H 357.423 -2.06598 2.52953 0
M  V30 3808 H 356.082 -0.255928 3.65706 0
M  V30 3809 H 355.73 -2.65423 4.2727 0
M  V30 3810 H 355.43 -1.57789 5.66018 0
M  V30 3811 H 356.954 -2.50577 5.56816 0
M  V30 3812 H 358.368 -0.23996 5.72798 0
M  V30 3813 H 356.765 0.51026 5.97927 0
M  V30 3814 H 357.835 1.13911 4.7133 0
M  V30 3815 N 359.178 -1.55987 0.224894 0
M  V30 3816 C 360.424 -1.98684 -0.406502 0
M  V30 3817 C 360.757 -1.11248 -1.59177 0
M  V30 3818 O 360.032 -0.170909 -1.93748 0
M  V30 3819 C 360.315 -3.50218 -0.837808 0
M  V30 3820 C 360.168 -4.48426 0.351332 0
M  V30 3821 C 361.487 -4.06243 -1.69278 0
M  V30 3822 H 358.606 -0.722337 -0.146283 0
M  V30 3823 H 361.248 -1.87255 0.321799 0
M  V30 3824 H 359.398 -3.60089 -1.45837 0
M  V30 3825 H 361.07 -4.50562 0.989526 0
M  V30 3826 H 359.313 -4.22159 0.998207 0
M  V30 3827 H 359.984 -5.52 0.00655905 0
M  V30 3828 H 362.46 -3.99337 -1.16914 0
M  V30 3829 H 361.336 -5.12581 -1.96346 0
M  V30 3830 H 361.597 -3.53332 -2.65723 0
M  V30 3831 N 360.656 0.0484629 -1.57525 0
M  V30 3832 C 361.904 0.741657 -1.88 0
M  V30 3833 C 362.225 1.76918 -0.820054 0
M  V30 3834 O 361.495 1.95335 0.148661 0
M  V30 3835 H 360.075 0.276908 -0.69378 0
M  V30 3836 H 362.737 0.019013 -1.94891 0
M  V30 3837 H 361.833 1.24336 -2.86264 0
M  V30 3838 N 362.134 1.5431 0.320358 0
M  V30 3839 C 363.097 1.83195 1.3774 0
M  V30 3840 C 364.097 0.703906 1.44575 0
M  V30 3841 O 365.287 0.972214 1.44546 0
M  V30 3842 C 362.419 1.99487 2.76438 0
M  V30 3843 H 363.612 2.77642 1.1338 0
M  V30 3844 H 361.165 1.46076 0.556012 0
M  V30 3845 H 361.9 1.07262 3.06048 0
M  V30 3846 H 361.685 2.81575 2.7287 0
M  V30 3847 H 363.175 2.23271 3.52902 0
M  V30 3848 N 363.613 -0.582584 1.46437 0
M  V30 3849 C 364.561 -1.71272 1.5738 0
M  V30 3850 C 365.555 -1.63524 0.44229 0
M  V30 3851 O 366.761 -1.69016 0.619166 0
M  V30 3852 H 363.136 -0.566273 0.494813 0
M  V30 3853 H 365.107 -1.59174 2.52401 0
M  V30 3854 C 363.856 -3.09658 1.58136 0
M  V30 3855 H 363.179 -3.16291 2.44541 0
M  V30 3856 H 364.619 -3.88494 1.69847 0
M  V30 3857 C 363.078 -3.3547 0.310026 0
M  V30 3858 O 363.608 -3.97199 -0.599683 0
M  V30 3859 N 361.814 -2.89925 0.197901 0
M  V30 3860 H 361.361 -2.39873 0.93909 0
M  V30 3861 H 361.319 -3.07568 -0.65185 0
M  V30 3862 N 365.091 -1.34144 -0.827227 0
M  V30 3863 C 366.502 -1.23557 -1.39966 0
M  V30 3864 C 366.853 0.140731 -1.95695 0
M  V30 3865 O 365.978 1.04087 -1.89723 0
M  V30 3866 C 366.573 -2.23708 -2.54441 0
M  V30 3867 C 365.132 -2.16924 -3.07605 0
M  V30 3868 C 364.279 -2.10549 -1.80456 0
M  V30 3869 H 367.23 -1.45573 -0.631991 0
M  V30 3870 H 367.251 -1.85157 -3.32411 0
M  V30 3871 H 366.763 -3.23866 -2.13851 0
M  V30 3872 H 364.864 -1.20107 -3.52711 0
M  V30 3873 H 364.977 -3.07988 -3.66988 0
M  V30 3874 H 363.341 -1.56203 -2.01178 0
M  V30 3875 H 364.124 -3.12535 -1.42046 0
M  V30 3876 N 366.569 1.04691 -1.17803 0
M  V30 3877 C 367.516 2.12557 -0.899343 0
M  V30 3878 C 368.486 1.65339 0.158771 0
M  V30 3879 O 369.671 1.90789 0.0204797 0
M  V30 3880 C 366.811 3.42481 -0.424315 0
M  V30 3881 C 365.924 4.03346 -1.54713 0
M  V30 3882 C 365.059 5.21208 -1.02546 0
M  V30 3883 C 364.098 5.74089 -2.12339 0
M  V30 3884 N 363.235 6.83247 -1.61612 0
M  V30 3885 H 368.075 2.35734 -1.823 0
M  V30 3886 H 365.612 1.1564 -0.909159 0
M  V30 3887 H 367.57 4.16996 -0.130421 0
M  V30 3888 H 366.2 3.19471 0.462377 0
M  V30 3889 H 365.252 3.2622 -1.95664 0
M  V30 3890 H 366.564 4.38628 -2.37501 0
M  V30 3891 H 365.718 6.02812 -0.685718 0
M  V30 3892 H 364.457 4.87414 -0.167084 0
M  V30 3893 H 363.462 4.91111 -2.47165 0
M  V30 3894 H 364.687 6.0993 -2.98601 0
M  V30 3895 H 362.633 6.5134 -0.780533 0
M  V30 3896 H 362.55 7.17559 -2.38003 0
M  V30 3897 H 363.818 7.68491 -1.30545 0
M  V30 3898 N 368.047 0.979072 1.23499 0
M  V30 3899 C 369.293 0.648178 1.92163 0
M  V30 3900 C 369.626 -0.816049 1.76222 0
M  V30 3901 O 368.901 -1.58849 1.12237 0
M  V30 3902 C 369.184 1.03773 3.44824 0
M  V30 3903 C 369.037 2.55948 3.69879 0
M  V30 3904 C 370.356 0.580653 4.36253 0
M  V30 3905 H 367.475 0.236952 0.69787 0
M  V30 3906 H 370.117 1.22012 1.45647 0
M  V30 3907 H 368.267 0.551058 3.84572 0
M  V30 3908 H 369.939 3.12179 3.3962 0
M  V30 3909 H 368.182 2.98641 3.14636 0
M  V30 3910 H 368.853 2.78255 4.76737 0
M  V30 3911 H 371.329 0.998465 4.03943 0
M  V30 3912 H 370.205 0.881663 5.41773 0
M  V30 3913 H 370.466 -0.519052 4.39042 0
M  V30 3914 N 369.525 -1.3858 0.750561 0
M  V30 3915 C 370.941 -1.53759 0.427824 0
M  V30 3916 C 371.141 -1.71401 -1.05943 0
M  V30 3917 O 370.197 -1.72331 -1.84549 0
M  V30 3918 C 371.51 -2.74642 1.22443 0
M  V30 3919 C 373.058 -2.88489 1.2142 0
M  V30 3920 C 373.533 -4.12329 1.9937 0
M  V30 3921 N 375.024 -4.194 1.96616 0
M  V30 3922 C 375.759 -5.14209 2.53727 0
M  V30 3923 N 375.255 -6.14709 3.19539 0
M  V30 3924 N 377.048 -5.06537 2.43673 0
M  V30 3925 H 369.199 -1.25377 1.71447 0
M  V30 3926 H 371.462 -0.608844 0.726645 0
M  V30 3927 H 371.168 -2.68 2.27747 0
M  V30 3928 H 371.042 -3.67745 0.839273 0
M  V30 3929 H 373.429 -2.94614 0.169232 0
M  V30 3930 H 373.51 -1.96406 1.63885 0
M  V30 3931 H 373.154 -4.06966 3.03877 0
M  V30 3932 H 373.084 -5.03486 1.54302 0
M  V30 3933 H 375.575 -3.47421 1.48684 0
M  V30 3934 H 375.888 -6.8354 3.60545 0
M  V30 3935 H 374.233 -6.1505 3.23633 0
M  V30 3936 H 377.424 -4.26962 1.91889 0
M  V30 3937 H 377.597 -5.80245 2.88479 0
M  V30 3938 N 371.003 -0.499398 -1.49478 0
M  V30 3939 C 372.414 -0.051215 -1.8663 0
M  V30 3940 C 372.765 1.36238 -1.41186 0
M  V30 3941 O 371.89 2.01502 -0.789051 0
M  V30 3942 C 372.485 -0.0861651 -3.3869 0
M  V30 3943 C 371.044 0.30667 -3.75149 0
M  V30 3944 C 370.191 -0.459397 -2.73468 0
M  V30 3945 H 373.142 -0.712264 -1.41818 0
M  V30 3946 H 373.163 0.709507 -3.73826 0
M  V30 3947 H 372.675 -1.11512 -3.71735 0
M  V30 3948 H 370.776 1.33892 -3.47712 0
M  V30 3949 H 370.889 -0.0116669 -4.79099 0
M  V30 3950 H 369.253 0.0905645 -2.54539 0
M  V30 3951 H 370.036 -1.4884 -3.09357 0
M  V30 3952 N 372.481 1.55866 -0.233164 0
M  V30 3953 C 373.429 2.22176 0.68851 0
M  V30 3954 C 374.423 1.20487 1.19076 0
M  V30 3955 O 375.629 1.38536 1.14925 0
M  V30 3956 H 372.004 0.712511 0.240483 0
M  V30 3957 H 373.975 2.98212 0.105935 0
M  V30 3958 C 372.724 2.92446 1.88071 0
M  V30 3959 H 372.047 3.70458 1.50337 0
M  V30 3960 H 373.487 3.42226 2.50314 0
M  V30 3961 C 371.946 1.95555 2.74335 0
M  V30 3962 O 372.476 1.47986 3.73447 0
M  V30 3963 N 370.682 1.62953 2.40613 0
M  V30 3964 H 370.229 2.01831 1.60069 0
M  V30 3965 H 370.187 0.983886 2.98609 0
M  V30 3966 N 373.959 -0.0401083 1.57549 0
M  V30 3967 C 375.37 -0.588097 1.77196 0
M  V30 3968 C 375.721 -1.76209 0.862832 0
M  V30 3969 O 374.846 -2.16331 0.0548389 0
M  V30 3970 C 375.441 -1.07363 3.21339 0
M  V30 3971 C 374 -1.56723 3.42221 0
M  V30 3972 C 373.147 -0.50041 2.72747 0
M  V30 3973 H 376.098 0.186119 1.57605 0
M  V30 3974 H 376.119 -1.94143 3.27244 0
M  V30 3975 H 375.631 -0.218975 3.87482 0
M  V30 3976 H 373.732 -2.4441 2.81237 0
M  V30 3977 H 373.845 -1.62234 4.50796 0
M  V30 3978 H 372.209 -0.952894 2.36203 0
M  V30 3979 H 372.992 0.344599 3.41566 0
M  V30 3980 N 375.437 -1.54477 -0.31217 0
M  V30 3981 C 376.4 -1.83923 -1.36766 0
M  V30 3982 C 377.4 -0.711563 -1.44199 0
M  V30 3983 O 378.59 -0.979866 -1.44029 0
M  V30 3984 C 375.722 -2.0095 -2.75376 0
M  V30 3985 H 376.915 -2.78239 -1.11906 0
M  V30 3986 H 374.468 -1.46369 -0.548257 0
M  V30 3987 H 375.203 -1.08883 -3.05475 0
M  V30 3988 H 374.988 -2.83018 -2.71373 0
M  V30 3989 H 376.478 -2.2514 -3.51713 0
M  V30 3990 N 376.915 0.57481 -1.46744 0
M  V30 3991 C 378.331 0.898981 -1.31873 0
M  V30 3992 C 378.531 1.99313 -0.29605 0
M  V30 3993 O 377.587 2.50728 0.298621 0
M  V30 3994 C 378.9 1.30886 -2.7072 0
M  V30 3995 C 380.448 1.42127 -2.78871 0
M  V30 3996 C 380.923 1.86478 -4.18318 0
M  V30 3997 N 382.414 1.93658 -4.20774 0
M  V30 3998 C 383.149 2.29267 -5.2557 0
M  V30 3999 N 382.645 2.63612 -6.40688 0
M  V30 4000 N 384.438 2.29889 -5.1294 0
M  V30 4001 H 376.589 -0.147839 -2.11885 0
M  V30 4002 H 378.852 -0.00347013 -0.947994 0
M  V30 4003 H 378.558 0.578853 -3.46904 0
M  V30 4004 H 378.432 2.26874 -3.01343 0
M  V30 4005 H 380.819 2.14213 -2.0297 0
M  V30 4006 H 380.9 0.443705 -2.51922 0
M  V30 4007 H 380.544 1.14968 -4.94717 0
M  V30 4008 H 380.474 2.85207 -4.42679 0
M  V30 4009 H 382.965 1.69574 -3.37718 0
M  V30 4010 H 383.278 2.89759 -7.16421 0
M  V30 4011 H 381.623 2.61232 -6.44036 0
M  V30 4012 H 384.814 2.02485 -4.22039 0
M  V30 4013 H 384.987 2.57312 -5.94722 0
M  V30 4014 N 378.394 1.34581 0.820102 0
M  V30 4015 C 379.641 1.27096 1.57648 0
M  V30 4016 C 379.969 -0.158317 1.93855 0
M  V30 4017 O 379.224 -1.12028 1.60463 0
M  V30 4018 C 379.523 2.10997 2.8847 0
M  V30 4019 C 379.189 3.59966 2.71543 0
M  V30 4020 C 377.851 4.00575 2.66634 0
M  V30 4021 C 380.203 4.54548 2.55021 0
M  V30 4022 C 377.531 5.33953 2.43128 0
M  V30 4023 C 379.883 5.88109 2.33047 0
M  V30 4024 C 378.547 6.27878 2.26552 0
M  V30 4025 H 377.817 0.465078 0.576874 0
M  V30 4026 H 380.464 1.6635 0.948671 0
M  V30 4027 H 378.769 1.6458 3.55557 0
M  V30 4028 H 380.466 2.0255 3.46084 0
M  V30 4029 H 377.056 3.27733 2.76205 0
M  V30 4030 H 381.24 4.24069 2.57835 0
M  V30 4031 H 376.496 5.63781 2.3656 0
M  V30 4032 H 380.67 6.60985 2.19251 0
M  V30 4033 H 378.297 7.31162 2.081 0
M  V30 4034 N 379.872 -1.04064 1.18357 0
M  V30 4035 C 380.802 -2.14001 0.934113 0
M  V30 4036 C 381.783 -1.69616 -0.128186 0
M  V30 4037 O 382.968 -1.94185 0.0244093 0
M  V30 4038 C 380.098 -3.44253 0.459066 0
M  V30 4039 C 379.052 -4.02261 1.46185 0
M  V30 4040 C 378.378 -5.27992 0.844322 0
M  V30 4041 C 379.678 -4.38432 2.83856 0
M  V30 4042 H 381.372 -2.35127 1.85352 0
M  V30 4043 H 378.918 -1.12998 0.892604 0
M  V30 4044 H 380.871 -4.20522 0.271907 0
M  V30 4045 H 379.595 -3.22813 -0.495912 0
M  V30 4046 H 378.254 -3.28074 1.63595 0
M  V30 4047 H 377.902 -5.02862 -0.117845 0
M  V30 4048 H 377.602 -5.67765 1.51384 0
M  V30 4049 H 379.126 -6.06938 0.667693 0
M  V30 4050 H 380.54 -5.05688 2.70098 0
M  V30 4051 H 378.937 -4.89254 3.47491 0
M  V30 4052 H 380.007 -3.4826 3.37406 0
M  V30 4053 N 381.35 -0.985608 -1.22978 0
M  V30 4054 C 382.282 -0.488154 -2.23941 0
M  V30 4055 C 383.295 0.41282 -1.57479 0
M  V30 4056 O 384.484 0.216121 -1.77187 0
M  V30 4057 C 381.584 0.312611 -3.37455 0
M  V30 4058 C 380.757 -0.582741 -4.33501 0
M  V30 4059 C 379.816 0.165064 -5.25941 0
M  V30 4060 O 378.842 -0.447077 -5.67442 0
M  V30 4061 N 380.044 1.44953 -5.62111 0
M  V30 4062 H 382.809 -1.3563 -2.67254 0
M  V30 4063 H 380.37 -0.859477 -1.37203 0
M  V30 4064 H 382.362 0.821357 -3.96277 0
M  V30 4065 H 380.932 1.0818 -2.93285 0
M  V30 4066 H 380.152 -1.27225 -3.73105 0
M  V30 4067 H 381.44 -1.19275 -4.94622 0
M  V30 4068 H 380.838 1.9683 -5.30353 0
M  V30 4069 H 379.395 1.90361 -6.23383 0
M  V30 4070 N 382.828 1.3818 -0.7579 0
M  V30 4071 C 383.776 2.32277 -0.122482 0
M  V30 4072 C 384.77 1.54238 0.700505 0
M  V30 4073 O 385.976 1.69737 0.599119 0
M  V30 4074 H 382.351 0.751712 -0.0208143 0
M  V30 4075 H 384.322 2.83469 -0.932099 0
M  V30 4076 C 383.071 3.39447 0.753076 0
M  V30 4077 H 382.394 3.99591 0.129184 0
M  V30 4078 H 383.834 4.07684 1.16489 0
M  V30 4079 C 382.293 2.78375 1.8976 0
M  V30 4080 O 382.823 2.68025 2.99208 0
M  V30 4081 N 381.029 2.36121 1.69397 0
M  V30 4082 H 380.576 2.4474 0.803762 0
M  V30 4083 H 380.534 1.95602 2.46145 0
M  V30 4084 N 384.306 0.507319 1.49211 0
M  V30 4085 C 385.546 -0.0332372 2.04373 0
M  V30 4086 C 385.91 -1.33694 1.37804 0
M  V30 4087 O 387.111 -1.96213 1.83722 0
M  V30 4088 C 385.382 -0.17599 3.56966 0
M  V30 4089 S 386.941 -0.669882 4.33657 0
M  V30 4090 H 383.759 0.00123603 0.710999 0
M  V30 4091 H 386.361 0.682725 1.83191 0
M  V30 4092 H 385.065 0.778053 4.02957 0
M  V30 4093 H 384.596 -0.917005 3.82563 0
M  V30 4094 H 386.611 -1.93806 4.56786 0
M  V30 4095 N 385.784 -1.5574 0.241426 0
M  V30 4096 C 387.2 -1.59196 -0.113548 0
M  V30 4097 C 387.4 -1.25852 -1.57364 0
M  V30 4098 O 386.456 -1.00322 -2.31715 0
M  V30 4099 C 387.769 -2.99814 0.230695 0
M  V30 4100 C 389.317 -3.12513 0.174547 0
M  V30 4101 C 389.792 -4.55342 0.492744 0
M  V30 4102 N 391.283 -4.61076 0.443043 0
M  V30 4103 C 392.018 -5.6956 0.662484 0
M  V30 4104 N 391.514 -6.86328 0.944761 0
M  V30 4105 N 393.307 -5.58957 0.593564 0
M  V30 4106 H 385.458 -1.75685 1.19368 0
M  V30 4107 H 387.721 -0.81756 0.479896 0
M  V30 4108 H 387.427 -3.28932 1.24485 0
M  V30 4109 H 387.301 -3.74568 -0.444833 0
M  V30 4110 H 389.688 -2.83179 -0.830277 0
M  V30 4111 H 389.769 -2.40045 0.883845 0
M  V30 4112 H 389.413 -4.85396 1.4951 0
M  V30 4113 H 389.343 -5.26062 -0.23797 0
M  V30 4114 H 391.834 -3.77179 0.233374 0
M  V30 4115 H 392.147 -7.64935 1.09977 0
M  V30 4116 H 390.492 -6.88025 0.982175 0
M  V30 4117 H 393.683 -4.66611 0.373123 0
M  V30 4118 H 393.856 -6.43433 0.767981 0
M  V30 4119 N 387.262 0.0317525 -1.57568 0
M  V30 4120 C 388.225 1.01783 -2.0536 0
M  V30 4121 C 389.225 1.29203 -0.957253 0
M  V30 4122 O 390.415 1.24251 -1.22095 0
M  V30 4123 C 387.547 2.35137 -2.46827 0
M  V30 4124 H 388.74 0.605062 -2.93733 0
M  V30 4125 H 386.293 0.278514 -1.53799 0
M  V30 4126 H 387.028 2.81168 -1.61602 0
M  V30 4127 H 386.813 2.16566 -3.26866 0
M  V30 4128 H 388.303 3.05938 -2.84239 0
M  V30 4129 N 388.74 1.54641 0.303973 0
M  V30 4130 C 390.151 1.64811 0.877163 0
M  V30 4131 C 390.502 0.554838 1.88191 0
M  V30 4132 O 389.627 -0.309033 2.14182 0
M  V30 4133 C 390.222 2.9876 1.59775 0
M  V30 4134 C 388.781 3.11061 2.11938 0
M  V30 4135 C 387.928 2.60479 0.951097 0
M  V30 4136 H 390.879 1.58493 0.0810486 0
M  V30 4137 H 390.9 2.90017 2.46314 0
M  V30 4138 H 390.412 3.7831 0.866226 0
M  V30 4139 H 388.513 2.36225 2.88146 0
M  V30 4140 H 388.626 4.17171 2.35595 0
M  V30 4141 H 386.99 2.16859 1.33583 0
M  V30 4142 H 387.773 3.42504 0.233581 0
M  V30 4143 N 390.218 -0.567019 1.47046 0
M  V30 4144 C 391.466 -1.322 1.52864 0
M  V30 4145 C 391.787 -1.94088 0.188388 0
M  V30 4146 O 391.057 -1.7941 -0.786693 0
M  V30 4147 H 389.637 -0.490894 0.563056 0
M  V30 4148 H 392.299 -0.662879 1.83281 0
M  V30 4149 H 391.395 -2.12062 2.2899 0
M  V30 4150 N 391.696 -1.35014 -0.812953 0
M  V30 4151 C 392.944 -1.27678 -1.56661 0
M  V30 4152 C 393.265 0.150359 -1.94419 0
M  V30 4153 O 392.535 1.08532 -1.63088 0
M  V30 4154 H 391.115 -0.469602 -0.580933 0
M  V30 4155 H 393.777 -1.69043 -0.970076 0
M  V30 4156 H 392.873 -1.88833 -2.48492 0
M  V30 4157 N 393.175 1.03435 -1.18907 0
M  V30 4158 C 394.422 1.76743 -0.988334 0
M  V30 4159 C 394.75 1.88447 0.481441 0
M  V30 4160 O 394.005 1.39383 1.37371 0
M  V30 4161 C 394.304 3.19792 -1.59586 0
M  V30 4162 C 393.97 3.28108 -3.09283 0
M  V30 4163 C 392.632 3.30084 -3.5014 0
M  V30 4164 C 394.984 3.27696 -4.05296 0
M  V30 4165 C 392.312 3.29299 -4.85571 0
M  V30 4166 C 394.664 3.28451 -5.4065 0
M  V30 4167 C 393.328 3.28723 -5.80946 0
M  V30 4168 H 392.598 0.64675 -0.361657 0
M  V30 4169 H 395.245 1.21442 -1.48068 0
M  V30 4170 H 393.55 3.78136 -1.02568 0
M  V30 4171 H 395.247 3.75171 -1.41589 0
M  V30 4172 H 391.837 3.27294 -2.76725 0
M  V30 4173 H 396.021 3.25354 -3.74778 0
M  V30 4174 H 391.277 3.2783 -5.16079 0
M  V30 4175 H 395.451 3.27082 -6.14809 0
M  V30 4176 H 393.078 3.27868 -6.85862 0
M  V30 4177 N 394.653 0.992116 1.22453 0
M  V30 4178 C 395.586 0.486701 2.22949 0
M  V30 4179 C 396.564 -0.45259 1.56174 0
M  V30 4180 O 397.748 -0.378317 1.84665 0
M  V30 4181 C 394.875 -0.294537 3.37417 0
M  V30 4182 C 393.921 0.590628 4.22391 0
M  V30 4183 S 394.754 2.04546 4.94895 0
M  V30 4184 C 395.91 1.27369 6.12803 0
M  V30 4185 H 396.143 1.33828 2.65475 0
M  V30 4186 H 393.676 0.799023 1.32117 0
M  V30 4187 H 395.634 -0.739241 4.03789 0
M  V30 4188 H 394.295 -1.12139 2.934 0
M  V30 4189 H 393.488 -0.0104375 5.03999 0
M  V30 4190 H 393.09 0.972064 3.61147 0
M  V30 4191 H 395.382 0.540943 6.75337 0
M  V30 4192 H 396.325 2.06502 6.7732 0
M  V30 4193 H 396.733 0.787324 5.58983 0
M  V30 4194 N 396.131 -1.37776 0.765217 0
M  V30 4195 C 397.356 -2.04651 0.336537 0
M  V30 4196 C 397.781 -1.57337 -1.03086 0
M  V30 4197 O 397.139 -0.730621 -1.65927 0
M  V30 4198 C 397.187 -3.58577 0.381468 0
M  V30 4199 O 396.291 -4.07706 -0.62042 0
M  V30 4200 H 395.632 -0.64756 0.146838 0
M  V30 4201 H 398.162 -1.76221 1.03959 0
M  V30 4202 H 398.172 -4.07314 0.236448 0
M  V30 4203 H 396.847 -3.9237 1.37907 0
M  V30 4204 H 395.424 -3.70306 -0.439056 0
M  V30 4205 N 397.609 -0.515225 -1.4894 0
M  V30 4206 C 398.557 0.269115 -2.31038 0
M  V30 4207 C 399.551 0.949443 -1.40292 0
M  V30 4208 O 400.757 0.87551 -1.57273 0
M  V30 4209 H 397.132 0.10565 -0.744542 0
M  V30 4210 H 399.103 -0.443096 -2.95092 0
M  V30 4211 C 397.852 1.31213 -3.21991 0
M  V30 4212 H 397.175 0.798034 -3.91754 0
M  V30 4213 H 398.615 1.83263 -3.82349 0
M  V30 4214 C 397.074 2.33791 -2.42576 0
M  V30 4215 O 397.604 3.3995 -2.14003 0
M  V30 4216 N 395.81 2.06625 -2.0434 0
M  V30 4217 H 395.357 1.20314 -2.27777 0
M  V30 4218 H 395.315 2.75483 -1.51514 0
M  V30 4219 N 399.087 1.5561 -0.249682 0
M  V30 4220 C 400.503 1.59254 0.105103 0
M  V30 4221 C 400.703 1.26685 1.56694 0
M  V30 4222 O 399.759 1.0155 2.31179 0
M  V30 4223 C 401.072 2.99687 -0.246592 0
M  V30 4224 C 402.62 3.12416 -0.191118 0
M  V30 4225 C 403.095 4.55074 -0.516885 0
M  V30 4226 N 404.586 4.60835 -0.467489 0
M  V30 4227 C 405.321 5.69201 -0.69268 0
M  V30 4228 N 404.817 6.85817 -0.981146 0
M  V30 4229 N 406.61 5.58635 -0.623198 0
M  V30 4230 H 398.761 1.75049 -1.20298 0
M  V30 4231 H 401.024 0.815003 -0.484225 0
M  V30 4232 H 400.73 3.28267 -1.26228 0
M  V30 4233 H 400.604 3.74798 0.424962 0
M  V30 4234 H 402.991 2.83615 0.815247 0
M  V30 4235 H 403.072 2.39573 -0.896563 0
M  V30 4236 H 402.716 4.84596 -1.52082 0
M  V30 4237 H 402.646 5.26181 0.210068 0
M  V30 4238 H 405.137 3.7705 -0.253373 0
M  V30 4239 H 405.45 7.64341 -1.14032 0
M  V30 4240 H 403.795 6.87494 -1.01865 0
M  V30 4241 H 406.986 4.66406 -0.397863 0
M  V30 4242 H 407.159 6.43017 -0.802093 0
M  V30 4243 N 400.565 -0.0233959 1.57583 0
M  V30 4244 C 401.812 -0.713063 1.8953 0
M  V30 4245 C 402.14 -1.75056 0.847673 0
M  V30 4246 O 401.395 -1.95119 -0.150636 0
M  V30 4247 C 401.694 -1.41428 3.28227 0
M  V30 4248 C 401.36 -0.512222 4.47981 0
M  V30 4249 C 400.022 -0.263785 4.80476 0
M  V30 4250 C 402.374 0.110248 5.21083 0
M  V30 4251 C 399.702 0.615804 5.83459 0
M  V30 4252 C 402.054 0.977573 6.25001 0
M  V30 4253 C 400.718 1.23542 6.55968 0
M  V30 4254 H 399.988 -0.260928 0.69354 0
M  V30 4255 H 402.635 0.0271047 1.91481 0
M  V30 4256 H 400.94 -2.22791 3.22291 0
M  V30 4257 H 402.637 -1.95355 3.50196 0
M  V30 4258 H 399.227 -0.716013 4.22577 0
M  V30 4259 H 403.411 -0.0687137 4.96252 0
M  V30 4260 H 398.667 0.82382 6.05824 0
M  V30 4261 H 402.841 1.46638 6.80786 0
M  V30 4262 H 400.468 1.91871 7.35588 0
M  V30 4263 N 402.043 -1.548 -0.295768 0
M  V30 4264 C 403.289 -1.74588 -1.03184 0
M  V30 4265 C 403.622 -0.532962 -1.86744 0
M  V30 4266 O 402.897 0.469872 -1.88739 0
M  V30 4267 C 403.18 -3.03791 -1.93347 0
M  V30 4268 C 403.033 -4.35392 -1.12933 0
M  V30 4269 C 404.352 -3.28892 -2.92435 0
M  V30 4270 H 401.471 -0.635221 -0.373715 0
M  V30 4271 H 404.113 -1.87519 -0.30606 0
M  V30 4272 H 402.263 -2.92898 -2.55232 0
M  V30 4273 H 403.935 -4.58211 -0.532943 0
M  V30 4274 H 402.178 -4.31642 -0.432168 0
M  V30 4275 H 402.849 -5.22074 -1.79284 0
M  V30 4276 H 405.325 -3.39429 -2.4068 0
M  V30 4277 H 404.201 -4.20603 -3.52682 0
M  V30 4278 H 404.462 -2.47437 -3.6637 0
M  V30 4279 N 403.521 0.559213 -1.47345 0
M  V30 4280 C 404.431 1.69388 -1.62311 0
M  V30 4281 C 405.447 1.6648 -0.505993 0
M  V30 4282 O 406.623 1.85964 -0.773262 0
M  V30 4283 C 403.688 3.05894 -1.63185 0
M  V30 4284 C 402.749 3.19885 -2.86307 0
M  V30 4285 C 401.982 4.49879 -2.87131 0
M  V30 4286 O 402.205 5.35217 -1.97229 0
M  V30 4287 O 401.139 4.67618 -3.78968 0
M  V30 4288 H 404.965 1.59706 -2.58317 0
M  V30 4289 H 402.55 0.728989 -1.30407 0
M  V30 4290 H 404.432 3.87133 -1.66451 0
M  V30 4291 H 403.107 3.15964 -0.70345 0
M  V30 4292 H 402.014 2.38052 -2.88587 0
M  V30 4293 H 403.347 3.14718 -3.78435 0
M  V30 4294 N 404.999 1.35443 0.805782 0
M  V30 4295 C 406.227 1.31878 1.59423 0
M  V30 4296 C 406.642 -0.103562 1.88516 0
M  V30 4297 O 405.999 -1.05575 1.48863 0
M  V30 4298 C 406.05 2.12426 2.92502 0
M  V30 4299 O 405.771 3.49115 2.6467 0
M  V30 4300 C 407.272 2.16455 3.86862 0
M  V30 4301 H 404.492 0.453002 0.495005 0
M  V30 4302 H 407.036 1.78309 1.00131 0
M  V30 4303 H 405.191 1.69593 3.48306 0
M  V30 4304 H 405.605 3.90957 3.49647 0
M  V30 4305 H 407.079 2.77204 4.77349 0
M  V30 4306 H 407.556 1.16352 4.23508 0
M  V30 4307 H 408.162 2.59453 3.36993 0
M  V30 4308 N 406.477 -1.02803 1.19454 0
M  V30 4309 C 407.425 -2.13213 0.929673 0
M  V30 4310 C 408.419 -1.69011 -0.114806 0
M  V30 4311 O 409.625 -1.79967 0.0345147 0
M  V30 4312 H 406 -0.69662 0.28324 0
M  V30 4313 H 407.971 -2.32744 1.86743 0
M  V30 4314 C 406.72 -3.4429 0.485797 0
M  V30 4315 H 406.043 -3.7872 1.28105 0
M  V30 4316 H 407.483 -4.22638 0.339582 0
M  V30 4317 C 405.942 -3.27258 -0.800244 0
M  V30 4318 O 406.472 -3.55967 -1.86146 0
M  V30 4319 N 404.678 -2.80545 -0.75781 0
M  V30 4320 H 404.225 -2.57382 0.106039 0
M  V30 4321 H 404.183 -2.6953 -1.61867 0
M  V30 4322 N 407.956 -0.998596 -1.21925 0
M  V30 4323 C 408.886 -0.573688 -2.26343 0
M  V30 4324 C 409.867 0.402296 -1.65274 0
M  V30 4325 O 411.052 0.291683 -1.91997 0
M  V30 4326 C 408.182 0.106839 -3.47136 0
M  V30 4327 C 407.136 -0.788269 -4.20678 0
M  V30 4328 C 406.462 0.0254927 -5.34694 0
M  V30 4329 C 407.762 -2.08784 -4.78755 0
M  V30 4330 H 409.456 -1.44651 -2.62138 0
M  V30 4331 H 407.002 -0.696975 -1.26009 0
M  V30 4332 H 408.955 0.415531 -4.19346 0
M  V30 4333 H 407.679 1.01424 -3.10452 0
M  V30 4334 H 406.338 -1.08069 -3.50309 0
M  V30 4335 H 405.986 0.933989 -4.94253 0
M  V30 4336 H 405.686 -0.570437 -5.84825 0
M  V30 4337 H 407.21 0.328147 -6.09718 0
M  V30 4338 H 408.624 -1.84272 -5.42878 0
M  V30 4339 H 407.021 -2.63307 -5.39249 0
M  V30 4340 H 408.091 -2.76284 -3.98491 0
M  V30 4341 N 409.434 1.37368 -0.772513 0
M  V30 4342 C 410.681 1.99673 -0.337182 0
M  V30 4343 C 411.009 1.61324 1.0865 0
M  V30 4344 O 410.264 0.851377 1.7621 0
M  V30 4345 C 410.563 3.54817 -0.428876 0
M  V30 4346 C 410.229 4.12936 -1.81092 0
M  V30 4347 C 408.891 4.28523 -2.1891 0
M  V30 4348 C 411.243 4.44801 -2.71664 0
M  V30 4349 C 408.571 4.73277 -3.46735 0
M  V30 4350 C 410.923 4.90981 -3.98899 0
M  V30 4351 C 409.587 5.04773 -4.36761 0
M  V30 4352 H 408.857 0.730656 -0.123384 0
M  V30 4353 H 411.504 1.64124 -0.986686 0
M  V30 4354 H 409.809 3.90618 0.304167 0
M  V30 4355 H 411.506 4.00933 -0.0733334 0
M  V30 4356 H 408.096 4.01233 -1.50699 0
M  V30 4357 H 412.28 4.32344 -2.43706 0
M  V30 4358 H 407.536 4.82142 -3.75964 0
M  V30 4359 H 411.71 5.14603 -4.69208 0
M  V30 4360 H 409.337 5.39211 -5.35868 0
M  V30 4361 N 410.912 0.523116 1.48665 0
M  V30 4362 C 411.842 -0.23231 2.32342 0
M  V30 4363 C 412.823 -0.941637 1.41659 0
M  V30 4364 O 414.008 -0.928751 1.70552 0
M  V30 4365 C 411.138 -1.28387 3.22698 0
M  V30 4366 C 410.092 -0.693098 4.22351 0
M  V30 4367 C 409.418 -1.8468 5.01794 0
M  V30 4368 C 410.718 0.33063 5.21252 0
M  V30 4369 H 412.412 0.466192 2.95748 0
M  V30 4370 H 409.958 0.225643 1.42221 0
M  V30 4371 H 411.911 -1.82024 3.80059 0
M  V30 4372 H 410.635 -2.01186 2.57278 0
M  V30 4373 H 409.294 -0.178299 3.66166 0
M  V30 4374 H 408.942 -2.56301 4.32804 0
M  V30 4375 H 408.642 -1.45747 5.69238 0
M  V30 4376 H 410.166 -2.38709 5.62006 0
M  V30 4377 H 411.58 -0.118407 5.73178 0
M  V30 4378 H 409.977 0.636974 5.9671 0
M  V30 4379 H 411.047 1.23883 4.68808 0
M  V30 4380 N 412.39 -1.55475 0.257931 0
M  V30 4381 C 413.3 -2.2549 -0.647425 0
M  V30 4382 C 414.316 -1.2748 -1.18427 0
M  V30 4383 O 415.492 -1.6038 -1.2182 0
M  V30 4384 C 412.557 -2.94916 -1.82278 0
M  V30 4385 C 411.618 -4.08363 -1.32432 0
M  V30 4386 C 410.851 -4.74469 -2.44366 0
M  V30 4387 O 411.074 -4.39701 -3.63344 0
M  V30 4388 O 410.008 -5.62763 -2.13497 0
M  V30 4389 H 413.834 -3.03593 -0.0807707 0
M  V30 4390 H 411.419 -1.49377 0.0259962 0
M  V30 4391 H 413.301 -3.38606 -2.50846 0
M  V30 4392 H 411.976 -2.19744 -2.37685 0
M  V30 4393 H 410.883 -3.69166 -0.605605 0
M  V30 4394 H 412.216 -4.85385 -0.816211 0
M  V30 4395 N 413.868 0.0150385 -1.57593 0
M  V30 4396 C 414.778 1.02791 -2.10882 0
M  V30 4397 C 415.794 1.38702 -1.0506 0
M  V30 4398 O 416.97 1.47739 -1.36877 0
M  V30 4399 C 414.035 2.30568 -2.58919 0
M  V30 4400 C 413.096 2.01108 -3.79281 0
M  V30 4401 C 412.329 3.22794 -4.25018 0
M  V30 4402 O 412.552 4.33959 -3.70183 0
M  V30 4403 O 411.486 3.07672 -5.17322 0
M  V30 4404 H 415.312 0.604973 -2.97613 0
M  V30 4405 H 412.897 0.23292 -1.47573 0
M  V30 4406 H 414.779 3.05662 -2.90084 0
M  V30 4407 H 413.454 2.72129 -1.75293 0
M  V30 4408 H 412.361 1.23537 -3.53114 0
M  V30 4409 H 413.694 1.64394 -4.63935 0
M  V30 4410 N 415.346 1.54954 0.287554 0
M  V30 4411 C 416.595 1.74081 1.01877 0
M  V30 4412 C 416.908 0.541135 1.87966 0
M  V30 4413 O 418.114 0.614491 2.64455 0
M  V30 4414 C 416.57 3.08042 1.86113 0
M  V30 4415 C 416.178 4.35531 1.04961 0
M  V30 4416 C 417.922 3.36523 2.58752 0
M  V30 4417 C 415.829 5.60538 1.88551 0
M  V30 4418 H 414.759 0.64884 0.384087 0
M  V30 4419 H 417.41 1.81426 0.275101 0
M  V30 4420 H 415.792 2.94696 2.64519 0
M  V30 4421 H 416.966 4.59751 0.31074 0
M  V30 4422 H 415.281 4.14085 0.43843 0
M  V30 4423 H 417.878 4.27122 3.21668 0
M  V30 4424 H 418.221 2.56 3.28283 0
M  V30 4425 H 418.754 3.50901 1.87386 0
M  V30 4426 H 415.493 6.43767 1.23466 0
M  V30 4427 H 415.013 5.40483 2.60074 0
M  V30 4428 H 416.692 5.98297 2.46273 0
M  V30 4429 N 416.824 -0.551391 1.4764 0
M  V30 4430 C 417.756 -1.67333 1.56628 0
M  V30 4431 C 418.769 -1.56398 0.452045 0
M  V30 4432 O 419.958 -1.6325 0.721926 0
M  V30 4433 C 417.058 -3.05841 1.45994 0
M  V30 4434 C 416.231 -3.42472 2.72088 0
M  V30 4435 C 415.29 -4.60168 2.55209 0
M  V30 4436 O 414.316 -4.64458 3.2904 0
M  V30 4437 N 415.518 -5.57024 1.63416 0
M  V30 4438 H 418.283 -1.60066 2.53375 0
M  V30 4439 H 415.844 -0.738169 1.44093 0
M  V30 4440 H 417.836 -3.8242 1.32428 0
M  V30 4441 H 416.406 -3.07302 0.573071 0
M  V30 4442 H 415.626 -2.55284 3.00373 0
M  V30 4443 H 416.914 -3.63723 3.55785 0
M  V30 4444 H 416.312 -5.56319 1.02594 0
M  V30 4445 H 414.869 -6.32906 1.558 0
M  V30 4446 N 418.302 -1.35869 -0.798587 0
M  V30 4447 C 419.551 -1.28921 -1.5512 0
M  V30 4448 C 419.864 0.13208 -1.95154 0
M  V30 4449 O 421.07 0.323879 -2.69561 0
M  V30 4450 C 419.526 -2.26141 -2.79979 0
M  V30 4451 C 419.134 -3.73658 -2.47151 0
M  V30 4452 C 420.878 -2.28152 -3.57976 0
M  V30 4453 C 418.785 -4.62679 -3.6835 0
M  V30 4454 H 417.715 -0.479031 -0.582276 0
M  V30 4455 H 420.366 -1.61179 -0.877125 0
M  V30 4456 H 418.748 -1.86865 -3.49138 0
M  V30 4457 H 419.922 -4.21616 -1.85947 0
M  V30 4458 H 418.237 -3.74333 -1.82383 0
M  V30 4459 H 420.834 -2.91875 -4.4801 0
M  V30 4460 H 421.177 -1.28748 -3.95891 0
M  V30 4461 H 421.71 -2.65998 -2.95787 0
M  V30 4462 H 418.449 -5.63111 -3.35538 0
M  V30 4463 H 417.969 -4.19442 -4.28752 0
M  V30 4464 H 419.648 -4.78498 -4.35487 0
M  V30 4465 N 419.78 1.02168 -1.19998 0
M  V30 4466 C 420.727 2.10601 -0.944228 0
M  V30 4467 C 421.697 1.65639 0.123664 0
M  V30 4468 O 422.882 1.9079 -0.0199941 0
M  V30 4469 C 420.022 3.41504 -0.496865 0
M  V30 4470 C 419.135 3.99973 -1.63234 0
M  V30 4471 C 418.27 5.18915 -1.13579 0
M  V30 4472 C 417.309 5.69456 -2.24468 0
M  V30 4473 N 416.446 6.79665 -1.76068 0
M  V30 4474 H 421.286 2.31814 -1.8726 0
M  V30 4475 H 418.823 1.13686 -0.933483 0
M  V30 4476 H 420.781 4.16626 -0.218843 0
M  V30 4477 H 419.411 3.2038 0.394508 0
M  V30 4478 H 418.463 3.21997 -2.0254 0
M  V30 4479 H 419.775 4.33492 -2.46752 0
M  V30 4480 H 418.929 6.01222 -0.813429 0
M  V30 4481 H 417.668 4.8695 -0.270434 0
M  V30 4482 H 416.673 4.85757 -2.57526 0
M  V30 4483 H 417.898 6.03459 -3.11472 0
M  V30 4484 H 415.844 6.49538 -0.918516 0
M  V30 4485 H 415.761 7.12349 -2.5317 0
M  V30 4486 H 417.029 7.65549 -1.46817 0
M  V30 4487 N 421.258 1.00505 1.21394 0
M  V30 4488 C 422.168 0.574806 2.27449 0
M  V30 4489 C 423.184 -0.382206 1.6975 0
M  V30 4490 O 424.36 -0.246027 1.99892 0
M  V30 4491 C 421.425 -0.0917414 3.46579 0
M  V30 4492 C 420.486 0.909758 4.1955 0
M  V30 4493 C 419.719 0.274924 5.32991 0
M  V30 4494 O 419.942 -0.928254 5.62796 0
M  V30 4495 O 418.876 0.985877 5.93771 0
M  V30 4496 H 422.702 1.45744 2.66444 0
M  V30 4497 H 420.287 0.773923 1.27792 0
M  V30 4498 H 422.169 -0.464551 4.18832 0
M  V30 4499 H 420.844 -0.948755 3.09484 0
M  V30 4500 H 419.751 1.33372 3.49518 0
M  V30 4501 H 421.084 1.73636 4.60555 0
M  V30 4502 N 422.737 -1.36956 0.779787 0
M  V30 4503 C 424.148 -1.82094 0.412156 0
M  V30 4504 C 424.499 -1.64926 -1.06273 0
M  V30 4505 O 423.624 -1.16483 -1.82375 0
M  V30 4506 C 424.219 -3.3059 0.741319 0
M  V30 4507 C 422.778 -3.73974 0.426641 0
M  V30 4508 C 421.925 -2.59368 0.980987 0
M  V30 4509 H 424.876 -1.25314 0.973758 0
M  V30 4510 H 424.897 -3.80489 0.028887 0
M  V30 4511 H 424.409 -3.43054 1.81482 0
M  V30 4512 H 422.51 -3.67076 -0.639215 0
M  V30 4513 H 422.623 -4.69778 0.940515 0
M  V30 4514 H 420.987 -2.51463 0.404757 0
M  V30 4515 H 421.77 -2.74621 2.06005 0
M  V30 4516 N 424.215 -0.530993 -1.48385 0
M  V30 4517 C 425.178 0.220497 -2.28137 0
M  V30 4518 C 426.178 0.866851 -1.35434 0
M  V30 4519 O 427.368 0.726746 -1.58316 0
M  V30 4520 C 424.5 1.31921 -3.1434 0
M  V30 4521 H 425.693 -0.479714 -2.96038 0
M  V30 4522 H 423.246 -0.286968 -1.53643 0
M  V30 4523 H 423.981 2.05264 -2.51072 0
M  V30 4524 H 423.766 0.86085 -3.82533 0
M  V30 4525 H 425.256 1.84776 -3.74497 0
M  V30 4526 N 425.693 1.55336 -0.266172 0
M  V30 4527 C 426.603 2.2583 0.635458 0
M  V30 4528 C 427.619 1.28106 1.17749 0
M  V30 4529 O 428.795 1.61024 1.20968 0
M  V30 4530 C 425.86 2.95879 1.80712 0
M  V30 4531 C 424.921 4.09059 1.30265 0
M  V30 4532 C 424.154 4.75759 2.41846 0
M  V30 4533 O 424.377 4.41622 3.61007 0
M  V30 4534 O 423.311 5.63888 2.1051 0
M  V30 4535 H 427.137 3.03631 0.0646693 0
M  V30 4536 H 424.722 1.49361 -0.0339177 0
M  V30 4537 H 426.604 3.39932 2.49047 0
M  V30 4538 H 425.279 2.21002 2.36516 0
M  V30 4539 H 424.186 3.69482 0.586019 0
M  V30 4540 H 425.519 4.85811 0.790458 0
M  V30 4541 N 427.171 -0.0066808 1.57599 0
M  V30 4542 C 428.118 -1.00024 2.08 0
M  V30 4543 C 429.088 -1.34549 0.973943 0
M  V30 4544 O 430.273 -1.44502 1.24595 0
M  V30 4545 C 427.413 -2.2891 2.58252 0
M  V30 4546 C 426.526 -2.00346 3.82734 0
M  V30 4547 C 425.661 -3.23265 4.21513 0
M  V30 4548 C 424.7 -2.90357 5.3885 0
M  V30 4549 N 423.837 -4.05793 5.72954 0
M  V30 4550 H 428.677 -0.563499 2.92624 0
M  V30 4551 H 426.214 -0.266592 1.44664 0
M  V30 4552 H 428.172 -3.04247 2.85464 0
M  V30 4553 H 426.802 -2.70265 1.76512 0
M  V30 4554 H 425.854 -1.15406 3.62471 0
M  V30 4555 H 427.166 -1.72086 4.68175 0
M  V30 4556 H 426.32 -4.06953 4.49971 0
M  V30 4557 H 425.059 -3.54657 3.34768 0
M  V30 4558 H 424.064 -2.05075 5.10122 0
M  V30 4559 H 425.289 -2.60219 6.27266 0
M  V30 4560 H 423.235 -4.37094 4.89167 0
M  V30 4561 H 423.152 -3.81034 6.52954 0
M  V30 4562 H 424.42 -4.90289 6.06001 0
M  V30 4563 N 428.649 -1.55105 -0.279332 0
M  V30 4564 C 429.581 -1.83952 -1.36727 0
M  V30 4565 C 430.594 -0.723642 -1.45833 0
M  V30 4566 O 431.783 -1.00141 -1.47763 0
M  V30 4567 C 428.883 -1.98183 -2.74912 0
M  V30 4568 C 428.056 -3.28787 -2.88475 0
M  V30 4569 C 427.115 -3.33162 -4.07295 0
M  V30 4570 O 426.141 -4.06576 -3.98353 0
M  V30 4571 N 427.343 -2.60109 -5.18964 0
M  V30 4572 H 430.108 -2.77853 -1.12328 0
M  V30 4573 H 427.669 -1.54945 -0.469442 0
M  V30 4574 H 429.661 -1.98488 -3.52682 0
M  V30 4575 H 428.231 -1.11177 -2.92162 0
M  V30 4576 H 427.451 -3.41075 -1.97641 0
M  V30 4577 H 428.739 -4.14933 -2.94463 0
M  V30 4578 H 428.137 -2.00136 -5.29115 0
M  V30 4579 H 426.694 -2.66143 -5.94988 0
M  V30 4580 N 430.127 0.543554 -1.4793 0
M  V30 4581 C 431.074 1.64942 -1.6144 0
M  V30 4582 C 432.044 1.59692 -0.456903 0
M  V30 4583 O 433.229 1.78321 -0.678688 0
M  V30 4584 C 430.369 3.03238 -1.64744 0
M  V30 4585 C 429.482 3.18823 -2.91506 0
M  V30 4586 C 428.617 4.47599 -2.86057 0
M  V30 4587 C 427.656 4.56664 -4.07584 0
M  V30 4588 N 426.793 5.76811 -4.00292 0
M  V30 4589 H 431.633 1.52733 -2.55884 0
M  V30 4590 H 429.17 0.7438 -1.2691 0
M  V30 4591 H 431.128 3.83339 -1.64641 0
M  V30 4592 H 429.758 3.1425 -0.738017 0
M  V30 4593 H 428.81 2.32064 -3.01414 0
M  V30 4594 H 430.122 3.21384 -3.81463 0
M  V30 4595 H 429.276 5.35975 -2.84281 0
M  V30 4596 H 428.015 4.47538 -1.93807 0
M  V30 4597 H 427.02 3.66697 -4.09651 0
M  V30 4598 H 428.245 4.58474 -5.00978 0
M  V30 4599 H 426.191 5.77673 -3.10853 0
M  V30 4600 H 426.108 5.80808 -4.8394 0
M  V30 4601 H 427.376 6.67512 -4.02553 0
M  V30 4602 N 431.605 1.3629 0.791371 0
M  V30 4603 C 432.852 1.30412 1.54916 0
M  V30 4604 C 433.18 -0.117162 1.94147 0
M  V30 4605 O 432.435 -1.08599 1.62803 0
M  V30 4606 C 432.734 2.17068 2.8393 0
M  V30 4607 C 432.4 3.65645 2.63846 0
M  V30 4608 C 431.062 4.0614 2.58077 0
M  V30 4609 C 433.414 4.59855 2.45322 0
M  V30 4610 C 430.742 5.3899 2.31748 0
M  V30 4611 C 433.094 5.9292 2.2052 0
M  V30 4612 C 431.758 6.32542 2.13183 0
M  V30 4613 H 431.028 0.47721 0.566879 0
M  V30 4614 H 433.675 1.68325 0.913172 0
M  V30 4615 H 431.98 1.72085 3.51986 0
M  V30 4616 H 433.677 2.09846 3.4171 0
M  V30 4617 H 430.267 3.33518 2.69191 0
M  V30 4618 H 434.451 4.29443 2.48782 0
M  V30 4619 H 429.707 5.68672 2.24548 0
M  V30 4620 H 433.881 6.65487 2.05182 0
M  V30 4621 H 431.508 7.35412 1.92544 0
M  V30 4622 N 433.083 -1.0153 1.20538 0
M  V30 4623 C 434.33 -1.75149 1.01633 0
M  V30 4624 C 434.658 -1.89189 -0.451399 0
M  V30 4625 O 433.913 -1.41551 -1.35136 0
M  V30 4626 C 434.212 -3.17213 1.64654 0
M  V30 4627 C 433.878 -3.23146 3.14464 0
M  V30 4628 C 432.54 -3.24472 3.55347 0
M  V30 4629 C 434.892 -3.21207 4.10458 0
M  V30 4630 C 432.22 -3.21532 4.90748 0
M  V30 4631 C 434.572 -3.19808 5.45807 0
M  V30 4632 C 433.236 -3.19439 5.86102 0
M  V30 4633 H 432.506 -0.640914 0.3719 0
M  V30 4634 H 435.153 -1.19071 1.49981 0
M  V30 4635 H 433.458 -3.76457 1.08571 0
M  V30 4636 H 435.155 -3.72871 1.4754 0
M  V30 4637 H 431.745 -3.2285 2.81897 0
M  V30 4638 H 435.929 -3.19351 3.79906 0
M  V30 4639 H 431.185 -3.19578 5.21229 0
M  V30 4640 H 435.359 -3.1726 6.19935 0
M  V30 4641 H 432.986 -3.16915 6.90991 0
M  V30 4642 N 434.561 -1.01147 -1.20859 0
M  V30 4643 C 435.493 -0.535546 -2.22855 0
M  V30 4644 C 436.506 0.379323 -1.58319 0
M  V30 4645 O 437.695 0.178489 -1.77605 0
M  V30 4646 C 434.795 0.240962 -3.38042 0
M  V30 4647 C 433.968 -0.674562 -4.32167 0
M  V30 4648 C 433.027 0.053467 -5.26173 0
M  V30 4649 O 432.053 -0.567339 -5.66366 0
M  V30 4650 N 433.255 1.32997 -5.65059 0
M  V30 4651 H 436.02 -1.41268 -2.64317 0
M  V30 4652 H 433.581 -0.888386 -1.35349 0
M  V30 4653 H 435.573 0.737115 -3.97931 0
M  V30 4654 H 434.143 1.01935 -2.95513 0
M  V30 4655 H 433.363 -1.35111 -3.70322 0
M  V30 4656 H 434.651 -1.2974 -4.91981 0
M  V30 4657 H 434.049 1.85536 -5.34409 0
M  V30 4658 H 432.606 1.77095 -6.2728 0
M  V30 4659 N 436.039 1.36541 -0.78704 0
M  V30 4660 C 436.949 2.3387 -0.184896 0
M  V30 4661 C 437.965 1.60927 0.661697 0
M  V30 4662 O 439.141 1.92927 0.57804 0
M  V30 4663 C 436.206 3.40122 0.672145 0
M  V30 4664 C 435.267 4.28867 -0.19267 0
M  V30 4665 C 434.5 5.30045 0.623561 0
M  V30 4666 O 434.723 5.39232 1.8597 0
M  V30 4667 O 433.657 6.01895 0.0247068 0
M  V30 4668 H 437.483 2.87126 -0.989562 0
M  V30 4669 H 435.068 1.38969 -0.548455 0
M  V30 4670 H 436.95 4.05093 1.16094 0
M  V30 4671 H 435.625 2.89169 1.45474 0
M  V30 4672 H 434.532 3.66945 -0.728166 0
M  V30 4673 H 435.865 4.83165 -0.938722 0
M  V30 4674 N 437.518 0.538854 1.48102 0
M  V30 4675 C 438.448 -0.207654 2.32575 0
M  V30 4676 C 439.429 -0.926559 1.4265 0
M  V30 4677 O 440.614 -0.91061 1.71527 0
M  V30 4678 C 437.744 -1.24957 3.24042 0
M  V30 4679 C 436.698 -0.648263 4.23062 0
M  V30 4680 C 436.024 -1.79348 5.03725 0
M  V30 4681 C 437.324 0.385897 5.20872 0
M  V30 4682 H 439.018 0.497534 2.95237 0
M  V30 4683 H 436.564 0.240715 1.41974 0
M  V30 4684 H 438.517 -1.77983 3.81969 0
M  V30 4685 H 437.241 -1.98446 2.59397 0
M  V30 4686 H 435.9 -0.139452 3.66335 0
M  V30 4687 H 435.548 -2.51696 4.35498 0
M  V30 4688 H 435.248 -1.39702 5.70751 0
M  V30 4689 H 436.772 -2.32735 5.64506 0
M  V30 4690 H 438.186 -0.057607 5.73271 0
M  V30 4691 H 436.583 0.700227 5.96001 0
M  V30 4692 H 437.653 1.28848 4.67468 0
M  V30 4693 N 438.996 -1.55193 0.274407 0
M  V30 4694 C 440.221 -2.04446 -0.348824 0
M  V30 4695 C 440.646 -1.15149 -1.48735 0
M  V30 4696 O 440.004 -0.149952 -1.80679 0
M  V30 4697 C 440.052 -3.51431 -0.808009 0
M  V30 4698 O 439.156 -3.65225 -1.91531 0
M  V30 4699 H 438.497 -0.66006 -0.0722276 0
M  V30 4700 H 441.027 -2.00481 0.408498 0
M  V30 4701 H 441.037 -3.92781 -1.10395 0
M  V30 4702 H 439.712 -4.15892 0.0249865 0
M  V30 4703 H 438.289 -3.35778 -1.62196 0
M  V30 4704 N 440.474 -0.00167713 -1.576 0
M  V30 4705 C 441.421 0.989195 -2.08527 0
M  V30 4706 C 442.391 1.34031 -0.981065 0
M  V30 4707 O 443.576 1.43839 -1.2536 0
M  V30 4708 C 440.716 2.27537 -2.59463 0
M  V30 4709 C 439.829 1.98314 -3.83791 0
M  V30 4710 C 438.964 3.21025 -4.23222 0
M  V30 4711 C 438.003 2.87495 -5.40382 0
M  V30 4712 N 437.14 4.02749 -5.75098 0
M  V30 4713 H 441.98 0.547973 -2.92919 0
M  V30 4714 H 439.517 0.258917 -1.44803 0
M  V30 4715 H 441.475 3.02729 -2.87073 0
M  V30 4716 H 440.105 2.69325 -1.77943 0
M  V30 4717 H 439.157 1.13482 -3.63078 0
M  V30 4718 H 440.469 1.69601 -4.69081 0
M  V30 4719 H 439.623 4.04561 -4.52123 0
M  V30 4720 H 438.362 3.52877 -3.36644 0
M  V30 4721 H 437.367 2.02367 -5.11202 0
M  V30 4722 H 438.592 2.56889 -6.28637 0
M  V30 4723 H 436.538 4.34494 -4.91478 0
M  V30 4724 H 436.455 3.77566 -6.54966 0
M  V30 4725 H 437.723 4.87068 -6.08592 0
M  V30 4726 N 441.952 1.55251 0.271103 0
M  V30 4727 C 443.177 1.80306 1.02491 0
M  V30 4728 C 443.602 0.575457 1.79081 0
M  V30 4729 O 442.96 -0.474987 1.74967 0
M  V30 4730 C 443.008 3.02832 1.95768 0
M  V30 4731 O 442.112 2.78051 3.04568 0
M  V30 4732 H 441.453 0.595896 0.292923 0
M  V30 4733 H 443.983 2.02397 0.299436 0
M  V30 4734 H 443.993 3.31616 2.37686 0
M  V30 4735 H 442.668 3.9183 1.39434 0
M  V30 4736 H 441.245 2.60369 2.66951 0
M  V30 4737 N 443.43 -0.535701 1.48216 0
M  V30 4738 C 444.36 -1.65014 1.65204 0
M  V30 4739 C 445.341 -1.62554 0.501011 0
M  V30 4740 O 446.526 -1.7984 0.732886 0
M  V30 4741 C 443.656 -3.03616 1.68626 0
M  V30 4742 C 442.61 -3.20932 2.83172 0
M  V30 4743 C 441.936 -4.60537 2.71679 0
M  V30 4744 C 443.236 -3.04249 4.24535 0
M  V30 4745 H 444.93 -1.51053 2.58502 0
M  V30 4746 H 442.476 -0.725262 1.24402 0
M  V30 4747 H 444.429 -3.81446 1.79099 0
M  V30 4748 H 443.153 -3.18587 0.719026 0
M  V30 4749 H 441.812 -2.45517 2.72244 0
M  V30 4750 H 441.46 -4.72336 1.72937 0
M  V30 4751 H 441.16 -4.73069 3.48538 0
M  V30 4752 H 442.684 -5.40475 2.84112 0
M  V30 4753 H 444.098 -3.71877 4.36326 0
M  V30 4754 H 442.495 -3.28278 5.02348 0
M  V30 4755 H 443.565 -2.00739 4.41397 0
M  V30 4756 N 444.908 -1.36708 -0.784132 0
M  V30 4757 C 446.185 -1.21776 -1.53069 0
M  V30 4758 C 446.565 0.193876 -2.10208 0
M  V30 4759 O 445.913 1.20012 -1.94446 0
M  V30 4760 C 446.123 -2.30395 -2.62143 0
M  V30 4761 C 447.471 -2.67325 -3.29882 0
M  V30 4762 O 448.495 -2.29478 -2.7243 0
M  V30 4763 O 447.354 -3.32485 -4.33724 0
M  V30 4764 H 444.448 -0.474459 -0.677361 0
M  V30 4765 H 446.994 -1.48454 -0.82216 0
M  V30 4766 H 445.766 -3.2498 -2.17953 0
M  V30 4767 H 445.389 -2.05112 -3.40609 0
M  V30 4768 N 446.386 1.0089 -1.21074 0
M  V30 4769 C 447.349 2.0775 -0.968129 0
M  V30 4770 C 448.349 1.6069 0.0593445 0
M  V30 4771 O 449.539 1.73293 -0.177525 0
M  V30 4772 C 446.671 3.37794 -0.459108 0
M  V30 4773 H 447.864 2.30707 -1.9161 0
M  V30 4774 H 445.417 1.17807 -1.02719 0
M  V30 4775 H 446.152 3.20516 0.49397 0
M  V30 4776 H 445.937 3.7328 -1.20019 0
M  V30 4777 H 447.427 4.16454 -0.309099 0
M  V30 4778 N 447.864 1.01787 1.20321 0
M  V30 4779 C 449.111 0.707936 1.89722 0
M  V30 4780 C 449.439 -0.762535 1.78929 0
M  V30 4781 O 448.694 -1.56977 1.16861 0
M  V30 4782 C 448.993 1.09076 3.40349 0
M  V30 4783 C 448.659 2.55765 3.71342 0
M  V30 4784 C 447.321 2.95845 3.79511 0
M  V30 4785 C 449.673 3.50723 3.85542 0
M  V30 4786 C 447.001 4.2982 3.99339 0
M  V30 4787 C 449.353 4.84387 4.06881 0
M  V30 4788 C 448.017 5.24172 4.1328 0
M  V30 4789 H 447.287 0.259052 0.694243 0
M  V30 4790 H 449.934 1.27868 1.42555 0
M  V30 4791 H 448.239 0.438453 3.89339 0
M  V30 4792 H 449.936 0.828636 3.92345 0
M  V30 4793 H 446.526 2.2371 3.65584 0
M  V30 4794 H 450.71 3.20916 3.78585 0
M  V30 4795 H 445.966 4.60196 4.02529 0
M  V30 4796 H 450.14 5.57891 4.1681 0
M  V30 4797 H 447.767 6.27997 4.28396 0
M  V30 4798 N 449.342 -1.36122 0.79427 0
M  V30 4799 C 450.753 -1.81646 0.431446 0
M  V30 4800 C 451.104 -1.66043 -1.04518 0
M  V30 4801 O 450.229 -1.1841 -1.8113 0
M  V30 4802 C 450.824 -3.29785 0.776341 0
M  V30 4803 C 449.383 -3.73501 0.466282 0
M  V30 4804 C 448.53 -2.58313 1.00844 0
M  V30 4805 H 451.481 -1.24274 0.986995 0
M  V30 4806 H 451.502 -3.80437 0.0692413 0
M  V30 4807 H 451.014 -3.4111 1.8511 0
M  V30 4808 H 449.115 -3.67733 -0.600245 0
M  V30 4809 H 449.228 -4.68754 0.990288 0
M  V30 4810 H 447.592 -2.5102 0.431406 0
M  V30 4811 H 448.375 -2.72421 2.08906 0
M  V30 4812 N 450.82 -0.546701 -1.47814 0
M  V30 4813 C 451.73 0.21026 -2.33656 0
M  V30 4814 C 452.746 0.922413 -1.47538 0
M  V30 4815 O 453.922 0.893652 -1.80488 0
M  V30 4816 C 450.987 1.23348 -3.24016 0
M  V30 4817 C 450.048 0.529883 -4.26017 0
M  V30 4818 C 449.281 1.50435 -5.12059 0
M  V30 4819 O 449.504 2.73837 -5.00369 0
M  V30 4820 O 448.438 1.03459 -5.92942 0
M  V30 4821 H 452.264 -0.493605 -2.99662 0
M  V30 4822 H 449.849 -0.307427 -1.46203 0
M  V30 4823 H 451.731 1.82438 -3.79861 0
M  V30 4824 H 450.406 1.91945 -2.60651 0
M  V30 4825 H 449.313 -0.101948 -3.73961 0
M  V30 4826 H 450.646 -0.11445 -4.92067 0
M  V30 4827 N 452.299 1.55045 -0.282633 0
M  V30 4828 C 453.576 1.9179 0.384166 0
M  V30 4829 C 453.956 1.20778 1.73136 0
M  V30 4830 O 453.304 0.33719 2.25998 0
M  V30 4831 C 453.514 3.45149 0.517014 0
M  V30 4832 C 454.862 4.17064 0.796427 0
M  V30 4833 O 455.886 3.51084 0.601535 0
M  V30 4834 O 454.745 5.33837 1.16962 0
M  V30 4835 H 451.839 0.799483 0.211558 0
M  V30 4836 H 454.385 1.66474 -0.32934 0
M  V30 4837 H 453.157 3.88922 -0.430772 0
M  V30 4838 H 452.78 3.76443 1.2797 0
M  V30 4839 N 453.777 0.010035 1.57597 0
M  V30 4840 C 455.024 -0.6727 1.91 0
M  V30 4841 C 455.352 -1.73219 0.884614 0
M  V30 4842 O 454.607 -1.95395 -0.109215 0
M  V30 4843 C 454.906 -1.34434 3.31153 0
M  V30 4844 C 454.572 -0.417083 4.48967 0
M  V30 4845 C 453.234 -0.161809 4.80928 0
M  V30 4846 C 455.586 0.220753 5.20732 0
M  V30 4847 C 452.914 0.739426 5.82022 0
M  V30 4848 C 455.266 1.10993 6.22787 0
M  V30 4849 C 453.93 1.37428 6.532 0
M  V30 4850 H 453.2 -0.246158 0.698918 0
M  V30 4851 H 455.847 0.0677145 1.9138 0
M  V30 4852 H 454.152 -2.15905 3.26944 0
M  V30 4853 H 455.849 -1.87883 3.54261 0
M  V30 4854 H 452.439 -0.626217 4.24001 0
M  V30 4855 H 456.623 0.0365643 4.96287 0
M  V30 4856 H 451.879 0.952139 6.03941 0
M  V30 4857 H 456.053 1.61046 6.77523 0
M  V30 4858 H 453.68 2.0743 7.31353 0
M  V30 4859 N 455.255 -1.55392 -0.262866 0
M  V30 4860 C 456.495 -1.78231 -1.00064 0
M  V30 4861 C 456.859 -0.576966 -1.83126 0
M  V30 4862 O 458.06 -0.683809 -2.59957 0
M  V30 4863 C 456.331 -3.05701 -1.85153 0
M  V30 4864 S 457.89 -3.49699 -2.65058 0
M  V30 4865 H 454.708 -0.626138 -0.336856 0
M  V30 4866 H 457.31 -1.93626 -0.27005 0
M  V30 4867 H 456.014 -3.91511 -1.23074 0
M  V30 4868 H 455.545 -2.93 -2.62515 0
M  V30 4869 H 457.56 -3.09772 -3.87629 0
M  V30 4870 N 456.733 0.527833 -1.48498 0
M  V30 4871 C 458.149 0.856571 -1.34666 0
M  V30 4872 C 458.349 1.98271 -0.35931 0
M  V30 4873 O 457.405 2.51551 0.218703 0
M  V30 4874 C 458.718 1.22207 -2.74747 0
M  V30 4875 C 460.266 1.33183 -2.83251 0
M  V30 4876 C 460.741 1.73075 -4.24039 0
M  V30 4877 N 462.232 1.80174 -4.26722 0
M  V30 4878 C 462.967 2.1243 -5.32598 0
M  V30 4879 N 462.463 2.43096 -6.4875 0
M  V30 4880 N 464.256 2.13454 -5.19994 0
M  V30 4881 H 456.407 -0.215174 -2.11307 0
M  V30 4882 H 458.67 -0.0336281 -0.947403 0
M  V30 4883 H 458.376 0.468195 -3.4857 0
M  V30 4884 H 458.25 2.17173 -3.08409 0
M  V30 4885 H 460.637 2.07647 -2.09683 0
M  V30 4886 H 460.718 0.363333 -2.53206 0
M  V30 4887 H 460.362 0.991712 -4.98124 0
M  V30 4888 H 460.292 2.70979 -4.51529 0
M  V30 4889 H 462.783 1.58744 -3.42942 0
M  V30 4890 H 463.096 2.6682 -7.25277 0
M  V30 4891 H 461.441 2.40611 -6.52021 0
M  V30 4892 H 464.632 1.88956 -4.28268 0
M  V30 4893 H 464.805 2.38261 -6.02608 0
M  V30 4894 N 458.211 1.37122 0.776871 0
M  V30 4895 C 459.161 1.28989 1.88005 0
M  V30 4896 C 460.145 0.178765 1.59904 0
M  V30 4897 O 461.337 0.412705 1.72121 0
M  V30 4898 C 458.466 1.09402 3.25402 0
M  V30 4899 C 457.552 2.25036 3.59471 0
M  V30 4900 N 457.943 3.50407 3.64759 0
M  V30 4901 C 456.241 2.17078 3.89607 0
M  V30 4902 C 456.942 4.26628 3.95428 0
M  V30 4903 N 455.918 3.55709 4.11062 0
M  V30 4904 H 459.72 2.2394 1.90337 0
M  V30 4905 H 457.234 1.30021 0.973052 0
M  V30 4906 H 459.231 1.01661 4.04315 0
M  V30 4907 H 457.891 0.153632 3.24336 0
M  V30 4908 H 458.902 3.8438 3.47091 0
M  V30 4909 H 455.579 1.31067 3.96393 0
M  V30 4910 H 456.969 5.35107 4.06338 0
M  V30 4911 N 459.689 -1.00246 1.21608 0
M  V30 4912 C 460.636 -2.09073 0.977613 0
M  V30 4913 C 461.606 -1.65815 -0.097297 0
M  V30 4914 O 462.791 -1.90734 0.0503445 0
M  V30 4915 C 459.931 -3.40671 0.551133 0
M  V30 4916 C 459.044 -3.97326 1.69576 0
M  V30 4917 C 458.179 -5.17043 1.2182 0
M  V30 4918 C 457.218 -5.65813 2.335 0
M  V30 4919 N 456.355 -6.76778 1.86859 0
M  V30 4920 H 461.195 -2.28806 1.90924 0
M  V30 4921 H 458.732 -1.12186 0.951452 0
M  V30 4922 H 460.69 -4.16225 0.285097 0
M  V30 4923 H 459.32 -3.20967 -0.343489 0
M  V30 4924 H 458.372 -3.18734 2.07637 0
M  V30 4925 H 459.684 -4.29511 2.53617 0
M  V30 4926 H 458.838 -5.99852 0.908975 0
M  V30 4927 H 457.577 -4.86458 0.347869 0
M  V30 4928 H 456.582 -4.81599 2.65222 0
M  V30 4929 H 457.807 -5.98427 3.21033 0
M  V30 4930 H 455.753 -6.47994 1.02174 0
M  V30 4931 H 455.67 -7.08231 2.64471 0
M  V30 4932 H 456.938 -7.63116 1.58978 0
M  V30 4933 N 461.167 -1.02423 -1.1978 0
M  V30 4934 C 462.413 -0.719051 -1.89625 0
M  V30 4935 C 462.746 0.750083 -1.7913 0
M  V30 4936 O 462.021 1.54574 -1.18056 0
M  V30 4937 C 462.304 -1.16499 -3.40735 0
M  V30 4938 C 462.157 -2.695 -3.60125 0
M  V30 4939 C 463.476 -0.742166 -4.33797 0
M  V30 4940 H 460.595 -0.26269 -0.688595 0
M  V30 4941 H 463.237 -1.27333 -1.41018 0
M  V30 4942 H 461.387 -0.69341 -3.82262 0
M  V30 4943 H 463.059 -3.24569 -3.278 0
M  V30 4944 H 461.302 -3.10113 -3.03336 0
M  V30 4945 H 461.973 -2.95757 -4.66081 0
M  V30 4946 H 464.449 -1.1477 -3.99959 0
M  V30 4947 H 463.325 -1.08213 -5.38127 0
M  V30 4948 H 463.586 0.355747 -4.40666 0
M  V30 4949 N 462.645 1.35699 -0.801477 0
M  V30 4950 C 463.575 2.32436 -0.222658 0
M  V30 4951 C 464.556 1.5723 0.649057 0
M  V30 4952 O 465.741 1.85324 0.580387 0
M  V30 4953 C 462.871 3.41469 0.633719 0
M  V30 4954 C 461.825 4.27774 -0.139083 0
M  V30 4955 C 461.151 5.28082 0.838666 0
M  V30 4956 C 462.451 5.04946 -1.33517 0
M  V30 4957 H 464.145 2.81094 -1.03086 0
M  V30 4958 H 461.691 1.35146 -0.497155 0
M  V30 4959 H 463.644 4.08143 1.04868 0
M  V30 4960 H 462.368 2.91408 1.47475 0
M  V30 4961 H 461.027 3.62673 -0.535156 0
M  V30 4962 H 460.675 4.7429 1.67506 0
M  V30 4963 H 460.375 5.86695 0.32594 0
M  V30 4964 H 461.899 5.97628 1.25194 0
M  V30 4965 H 463.313 5.64593 -0.995349 0
M  V30 4966 H 461.71 5.7303 -1.78202 0
M  V30 4967 H 462.78 4.35886 -2.12442 0
M  V30 4968 N 464.123 0.554532 1.47522 0
M  V30 4969 C 465.534 0.120446 1.86311 0
M  V30 4970 C 465.885 -1.30904 1.46145 0
M  V30 4971 O 465.01 -1.98434 0.863294 0
M  V30 4972 C 465.605 0.211808 3.38137 0
M  V30 4973 C 464.164 -0.167224 3.76028 0
M  V30 4974 C 463.311 0.560576 2.71575 0
M  V30 4975 H 466.262 0.764408 1.39077 0
M  V30 4976 H 466.283 -0.570275 3.76202 0
M  V30 4977 H 465.795 1.25232 3.6734 0
M  V30 4978 H 463.896 -1.20894 3.52442 0
M  V30 4979 H 464.009 0.189473 4.78725 0
M  V30 4980 H 462.373 0.00396836 2.547 0
M  V30 4981 H 463.156 1.60219 3.0362 0
M  V30 4982 N 465.601 -1.54893 0.290851 0
M  V30 4983 C 466.533 -2.20564 -0.623236 0
M  V30 4984 C 467.546 -1.19519 -1.1054 0
M  V30 4985 O 468.735 -1.46165 -1.02459 0
M  V30 4986 C 465.835 -2.83033 -1.86401 0
M  V30 4987 C 465.008 -4.09916 -1.52604 0
M  V30 4988 C 464.067 -4.56284 -2.62091 0
M  V30 4989 O 463.093 -5.2171 -2.27612 0
M  V30 4990 N 464.295 -4.27746 -3.92446 0
M  V30 4991 H 467.06 -2.99638 -0.0610915 0
M  V30 4992 H 464.621 -1.61508 0.112615 0
M  V30 4993 H 466.613 -3.1099 -2.58973 0
M  V30 4994 H 465.183 -2.0786 -2.33481 0
M  V30 4995 H 464.403 -3.89078 -0.633424 0
M  V30 4996 H 465.691 -4.92554 -1.27547 0
M  V30 4997 H 465.089 -3.7531 -4.23272 0
M  V30 4998 H 463.646 -4.60437 -4.61347 0
M  V30 4999 N 467.08 -0.0183926 -1.57589 0
M  V30 5000 C 468.01 0.965596 -2.12599 0
M  V30 5001 C 468.991 1.34641 -1.0395 0
M  V30 5002 O 470.176 1.42693 -1.31729 0
M  V30 5003 C 467.306 2.25149 -2.64434 0
M  V30 5004 C 466.26 2.01175 -3.77773 0
M  V30 5005 C 465.586 3.35937 -4.15994 0
M  V30 5006 C 466.886 1.35953 -5.04296 0
M  V30 5007 H 468.58 0.507504 -2.95067 0
M  V30 5008 H 466.126 0.242671 -1.41941 0
M  V30 5009 H 468.079 2.94357 -3.01549 0
M  V30 5010 H 466.803 2.73105 -1.79112 0
M  V30 5011 H 465.462 1.34388 -3.4108 0
M  V30 5012 H 465.11 3.81631 -3.27669 0
M  V30 5013 H 464.81 3.20705 -4.92364 0
M  V30 5014 H 466.334 4.0643 -4.55683 0
M  V30 5015 H 467.748 1.95144 -5.39065 0
M  V30 5016 H 466.145 1.31152 -5.85593 0
M  V30 5017 H 467.215 0.331071 -4.83768 0
M  V30 5018 N 468.558 1.5553 0.254621 0
M  V30 5019 C 469.488 1.9268 1.31897 0
M  V30 5020 C 470.469 0.790797 1.506 0
M  V30 5021 O 471.654 1.05045 1.63337 0
M  V30 5022 C 468.784 2.21477 2.67517 0
M  V30 5023 C 467.738 3.37256 2.63519 0
M  V30 5024 C 467.064 3.51576 4.02862 0
M  V30 5025 C 468.364 4.73157 2.21179 0
M  V30 5026 H 470.058 2.81832 1.01051 0
M  V30 5027 H 467.604 1.35599 0.484662 0
M  V30 5028 H 469.557 2.46055 3.42104 0
M  V30 5029 H 468.281 1.29144 2.99982 0
M  V30 5030 H 466.94 3.12675 1.9139 0
M  V30 5031 H 466.588 2.56676 4.32581 0
M  V30 5032 H 466.288 4.2943 4.01078 0
M  V30 5033 H 467.812 3.78467 4.79161 0
M  V30 5034 H 469.226 4.97158 2.85494 0
M  V30 5035 H 467.623 5.54058 2.30521 0
M  V30 5036 H 468.693 4.70739 1.16332 0
M  V30 5037 N 470.036 -0.519951 1.48776 0
M  V30 5038 C 471.264 -1.29971 1.60982 0
M  V30 5039 C 471.679 -1.86803 0.273885 0
M  V30 5040 O 471.036 -1.66904 -0.738193 0
M  V30 5041 C 471.087 -2.44346 2.66415 0
M  V30 5042 O 470.808 -1.89855 3.94825 0
M  V30 5043 C 472.309 -3.36014 2.89153 0
M  V30 5044 H 469.529 -0.394891 0.542496 0
M  V30 5045 H 472.073 -0.626214 1.94676 0
M  V30 5046 H 470.228 -3.07562 2.35552 0
M  V30 5047 H 470.642 -2.64798 4.5275 0
M  V30 5048 H 472.116 -4.12593 3.66703 0
M  V30 5049 H 472.593 -3.91859 1.98351 0
M  V30 5050 H 473.199 -2.78582 3.21359 0
M  V30 5051 N 471.514 -1.37532 -0.769588 0
M  V30 5052 C 472.477 -1.33292 -1.86456 0
M  V30 5053 C 473.477 -0.236537 -1.59051 0
M  V30 5054 O 474.667 -0.492511 -1.67093 0
M  V30 5055 C 471.799 -1.07118 -3.23633 0
M  V30 5056 H 472.992 -2.30692 -1.91628 0
M  V30 5057 H 470.545 -1.22593 -0.969572 0
M  V30 5058 H 471.28 -0.102578 -3.24138 0
M  V30 5059 H 471.065 -1.86479 -3.44917 0
M  V30 5060 H 472.555 -1.06806 -4.03711 0
M  V30 5061 N 472.992 0.995999 -1.22138 0
M  V30 5062 C 474.239 1.7351 -1.04406 0
M  V30 5063 C 474.567 1.89884 0.421244 0
M  V30 5064 O 473.822 1.43683 1.32867 0
M  V30 5065 C 474.121 3.14553 -1.6968 0
M  V30 5066 C 473.787 3.18102 -3.19565 0
M  V30 5067 C 472.449 3.18778 -3.60464 0
M  V30 5068 C 474.801 3.14636 -4.15516 0
M  V30 5069 C 472.129 3.13684 -4.95801 0
M  V30 5070 C 474.481 3.11084 -5.50826 0
M  V30 5071 C 473.145 3.10074 -5.91109 0
M  V30 5072 H 472.415 0.634916 -0.38205 0
M  V30 5073 H 475.062 1.1667 -1.51857 0
M  V30 5074 H 473.367 3.74682 -1.14546 0
M  V30 5075 H 475.064 3.70477 -1.53454 0
M  V30 5076 H 471.654 3.18324 -2.86998 0
M  V30 5077 H 475.838 3.13266 -3.84939 0
M  V30 5078 H 471.094 3.11245 -5.26247 0
M  V30 5079 H 475.268 3.07357 -6.24904 0
M  V30 5080 H 472.895 3.05882 -6.95946 0
M  V30 5081 N 474.47 1.03057 1.19235 0
M  V30 5082 C 475.38 0.622922 2.26179 0
M  V30 5083 C 476.396 -0.346113 1.70523 0
M  V30 5084 O 477.572 -0.203572 2.00369 0
M  V30 5085 C 474.637 -0.0182063 3.46695 0
M  V30 5086 C 473.698 0.998546 4.17526 0
M  V30 5087 C 472.931 0.387917 5.32288 0
M  V30 5088 O 473.154 -0.808668 5.64639 0
M  V30 5089 O 472.088 1.1116 5.91546 0
M  V30 5090 H 475.914 1.51363 2.63292 0
M  V30 5091 H 473.499 0.800856 1.26122 0
M  V30 5092 H 475.381 -0.375606 4.19723 0
M  V30 5093 H 474.056 -0.882895 3.11427 0
M  V30 5094 H 472.963 1.40756 3.4661 0
M  V30 5095 H 474.296 1.83366 4.56769 0
M  V30 5096 N 475.948 -1.35272 0.808662 0
M  V30 5097 C 477.195 -1.98709 0.390003 0
M  V30 5098 C 477.523 -1.64148 -1.04335 0
M  V30 5099 O 476.778 -0.897797 -1.73891 0
M  V30 5100 C 477.077 -3.53556 0.522798 0
M  V30 5101 C 476.743 -4.0799 1.91977 0
M  V30 5102 C 475.405 -4.22568 2.30195 0
M  V30 5103 C 477.757 -4.37442 2.83361 0
M  V30 5104 C 475.085 -4.63918 3.59162 0
M  V30 5105 C 477.437 -4.80232 4.11776 0
M  V30 5106 C 476.101 -4.93016 4.49991 0
M  V30 5107 H 475.371 -0.727127 0.142712 0
M  V30 5108 H 478.018 -1.6145 1.02985 0
M  V30 5109 H 476.323 -3.91287 -0.200494 0
M  V30 5110 H 478.02 -4.00598 0.179608 0
M  V30 5111 H 474.61 -3.97096 1.61284 0
M  V30 5112 H 478.794 -4.25731 2.55083 0
M  V30 5113 H 474.05 -4.72005 3.88615 0
M  V30 5114 H 478.224 -5.01982 4.82687 0
M  V30 5115 H 475.851 -5.24814 5.49976 0
M  V30 5116 N 477.426 -0.562348 -1.47226 0
M  V30 5117 C 478.674 -0.0401371 -2.0206 0
M  V30 5118 C 478.995 1.3165 -1.43852 0
M  V30 5119 O 478.265 1.85976 -0.615599 0
M  V30 5120 H 476.845 -0.0118479 -0.746906 0
M  V30 5121 H 479.507 -0.73352 -1.8057 0
M  V30 5122 H 478.603 0.0441254 -3.12069 0
M  V30 5123 N 478.904 1.54736 -0.299062 0
M  V30 5124 C 479.852 2.24897 0.593658 0
M  V30 5125 C 480.846 1.25429 1.13859 0
M  V30 5126 O 482.052 1.43286 1.08945 0
M  V30 5127 H 478.427 0.72207 0.210046 0
M  V30 5128 H 480.398 2.98393 -0.0206421 0
M  V30 5129 C 479.147 3.00159 1.75499 0
M  V30 5130 H 478.47 3.76501 1.34489 0
M  V30 5131 H 479.91 3.52535 2.35574 0
M  V30 5132 C 478.369 2.07015 2.65794 0
M  V30 5133 O 478.899 1.63692 3.66835 0
M  V30 5134 N 477.105 1.73012 2.33485 0
M  V30 5135 H 476.652 2.08439 1.51364 0
M  V30 5136 H 476.61 1.10965 2.94167 0
M  V30 5137 N 480.382 0.0267497 1.57577 0
M  V30 5138 C 481.345 -0.940916 2.08996 0
M  V30 5139 C 482.345 -1.25561 1.00455 0
M  V30 5140 O 483.535 -1.19634 1.26623 0
M  V30 5141 C 480.667 -2.25814 2.55384 0
M  V30 5142 H 481.86 -0.495628 2.95776 0
M  V30 5143 H 479.413 -0.221241 1.54726 0
M  V30 5144 H 480.148 -2.74976 1.71926 0
M  V30 5145 H 479.933 -2.04285 3.34679 0
M  V30 5146 H 481.423 -2.95178 2.95398 0
M  V30 5147 N 481.861 -1.55662 -0.24637 0
M  V30 5148 C 483.109 -1.77168 -0.972411 0
M  V30 5149 C 483.43 -0.590827 -1.85834 0
M  V30 5150 O 482.7 0.393365 -1.9191 0
M  V30 5151 H 481.28 -0.653405 -0.362038 0
M  V30 5152 H 483.942 -1.93101 -0.264189 0
M  V30 5153 H 483.038 -2.68335 -1.59382 0
M  V30 5154 N 483.339 0.512053 -1.4905 0
M  V30 5155 C 484.302 1.59704 -1.64399 0
M  V30 5156 C 485.302 1.52285 -0.516317 0
M  V30 5157 O 486.492 1.55635 -0.782527 0
M  V30 5158 C 483.624 2.9935 -1.63102 0
M  V30 5159 H 484.817 1.47428 -2.61161 0
M  V30 5160 H 482.37 0.735469 -1.37915 0
M  V30 5161 H 483.105 3.17116 -0.678836 0
M  V30 5162 H 482.89 3.06144 -2.44986 0
M  V30 5163 H 484.38 3.782 -1.77072 0
M  V30 5164 N 484.817 1.37938 0.762283 0
M  V30 5165 C 486.063 1.33866 1.52341 0
M  V30 5166 C 486.396 -0.0738961 1.94059 0
M  V30 5167 O 485.671 -1.03326 1.64785 0
M  V30 5168 C 485.954 2.28644 2.78197 0
M  V30 5169 C 485.807 3.78722 2.42672 0
M  V30 5170 C 487.126 2.21702 3.80179 0
M  V30 5171 H 484.245 0.487593 0.55265 0
M  V30 5172 H 486.887 1.68717 0.873767 0
M  V30 5173 H 485.037 1.99055 3.33631 0
M  V30 5174 H 486.709 4.18948 1.93081 0
M  V30 5175 H 484.952 3.96827 1.75244 0
M  V30 5176 H 485.623 4.40486 3.3268 0
M  V30 5177 H 488.099 2.47805 3.34263 0
M  V30 5178 H 486.975 2.90143 4.65949 0
M  V30 5179 H 487.236 1.21301 4.25133 0
M  V30 5180 N 486.295 -0.989507 1.22664 0
M  V30 5181 C 487.541 -1.7321 1.05481 0
M  V30 5182 C 487.874 -1.89852 -0.408635 0
M  V30 5183 O 487.149 -1.44416 -1.30285 0
M  V30 5184 C 487.432 -3.1357 1.77047 0
M  V30 5185 C 487.285 -3.04555 3.31008 0
M  V30 5186 C 488.604 -4.12812 1.5256 0
M  V30 5187 H 485.723 -0.628697 0.384589 0
M  V30 5188 H 488.365 -1.15258 1.51049 0
M  V30 5189 H 486.515 -3.63046 1.3831 0
M  V30 5190 H 488.187 -2.62674 3.7921 0
M  V30 5191 H 486.43 -2.41278 3.6051 0
M  V30 5192 H 487.101 -4.03894 3.76263 0
M  V30 5193 H 489.577 -3.72106 1.86215 0
M  V30 5194 H 488.453 -5.09132 2.05124 0
M  V30 5195 H 488.714 -4.39711 0.458936 0
M  V30 5196 N 487.773 -1.03688 -1.18687 0
M  V30 5197 C 488.703 -0.645407 -2.24403 0
M  V30 5198 C 489.684 0.349511 -1.66471 0
M  V30 5199 O 490.869 0.230453 -1.92828 0
M  V30 5200 C 487.999 -0.00365337 -3.473 0
M  V30 5201 C 486.953 -0.921705 -4.17958 0
M  V30 5202 C 486.279 -0.144629 -5.34504 0
M  V30 5203 C 487.579 -2.23909 -4.71871 0
M  V30 5204 H 489.273 -1.52917 -2.57404 0
M  V30 5205 H 486.819 -0.736711 -1.23728 0
M  V30 5206 H 488.772 0.281908 -4.20456 0
M  V30 5207 H 487.496 0.914963 -3.13522 0
M  V30 5208 H 486.155 -1.19159 -3.46694 0
M  V30 5209 H 485.803 0.776274 -4.96974 0
M  V30 5210 H 485.503 -0.756206 -5.82714 0
M  V30 5211 H 487.027 0.134004 -6.10453 0
M  V30 5212 H 488.441 -2.0145 -5.36741 0
M  V30 5213 H 486.838 -2.8033 -5.30599 0
M  V30 5214 H 487.908 -2.88822 -3.895 0
M  V30 5215 N 489.251 1.34841 -0.815825 0
M  V30 5216 C 490.479 2.0273 -0.413294 0
M  V30 5217 C 490.894 1.61459 0.978599 0
M  V30 5218 O 490.251 0.816584 1.63212 0
M  V30 5219 C 490.302 3.58058 -0.497676 0
M  V30 5220 O 490.023 3.97832 -1.8347 0
M  V30 5221 C 491.524 4.4321 -0.0891339 0
M  V30 5222 H 488.744 0.649956 -0.166728 0
M  V30 5223 H 491.288 1.72267 -1.10201 0
M  V30 5224 H 489.443 3.87136 0.142886 0
M  V30 5225 H 489.857 4.92501 -1.80396 0
M  V30 5226 H 491.331 5.5164 -0.199274 0
M  V30 5227 H 491.808 4.28432 0.966571 0
M  V30 5228 H 492.414 4.19446 -0.703214 0
M  V30 5229 N 490.729 0.570148 1.46925 0
M  V30 5230 C 492.14 0.1402 1.86173 0
M  V30 5231 C 492.491 -1.29347 1.47526 0
M  V30 5232 O 491.616 -1.97508 0.884292 0
M  V30 5233 C 492.211 0.247661 3.37894 0
M  V30 5234 C 490.77 -0.127332 3.76185 0
M  V30 5235 C 489.917 0.589349 2.70965 0
M  V30 5236 H 492.868 0.779117 1.38259 0
M  V30 5237 H 492.889 -0.530341 3.76786 0
M  V30 5238 H 492.401 1.29121 3.65991 0
M  V30 5239 H 490.502 -1.17149 3.53704 0
M  V30 5240 H 490.615 0.240238 4.78497 0
M  V30 5241 H 488.979 0.0309824 2.54681 0
M  V30 5242 H 489.762 1.6343 3.01903 0
M  V30 5243 N 492.207 -1.54576 0.307264 0
M  V30 5244 C 493.137 -2.26708 -0.55907 0
M  V30 5245 C 494.118 -1.26893 -1.1328 0
M  V30 5246 O 495.303 -1.55677 -1.16097 0
M  V30 5247 C 492.433 -3.01259 -1.72801 0
M  V30 5248 C 491.387 -4.08275 -1.28435 0
M  V30 5249 C 490.713 -4.70575 -2.53895 0
M  V30 5250 C 492.013 -5.2068 -0.411038 0
M  V30 5251 H 493.707 -2.9937 0.042576 0
M  V30 5252 H 491.253 -1.43983 0.0219173 0
M  V30 5253 H 493.206 -3.50444 -2.34023 0
M  V30 5254 H 491.93 -2.26187 -2.356 0
M  V30 5255 H 490.589 -3.59949 -0.695161 0
M  V30 5256 H 490.237 -3.92136 -3.15021 0
M  V30 5257 H 489.937 -5.42854 -2.24908 0
M  V30 5258 H 491.461 -5.22527 -3.15908 0
M  V30 5259 H 492.875 -5.65721 -0.929097 0
M  V30 5260 H 491.272 -5.99716 -0.214664 0
M  V30 5261 H 492.342 -4.81629 0.562287 0
M  V30 5262 N 493.685 -0.035106 -1.57561 0
M  V30 5263 C 494.932 0.642229 -1.92046 0
M  V30 5264 C 495.26 1.7179 -0.91206 0
M  V30 5265 O 494.515 1.95544 0.0781153 0
M  V30 5266 C 494.814 1.29149 -3.3325 0
M  V30 5267 C 494.48 0.345604 -4.49574 0
M  V30 5268 C 493.142 0.0852775 -4.81124 0
M  V30 5269 C 495.494 -0.303569 -5.20315 0
M  V30 5270 C 492.822 -0.831927 -5.80772 0
M  V30 5271 C 495.174 -1.20886 -6.20942 0
M  V30 5272 C 493.838 -1.47802 -6.50931 0
M  V30 5273 H 493.108 0.235008 -0.702746 0
M  V30 5274 H 495.755 -0.0981529 -1.91248 0
M  V30 5275 H 494.06 2.10676 -3.30337 0
M  V30 5276 H 495.757 1.82223 -3.57205 0
M  V30 5277 H 492.347 0.558683 -4.24943 0
M  V30 5278 H 496.531 -0.115515 -4.96166 0
M  V30 5279 H 491.787 -1.0481 -6.02349 0
M  V30 5280 H 495.961 -1.71804 -6.74875 0
M  V30 5281 H 493.588 -2.19039 -7.2796 0
M  V30 5282 N 495.163 1.55791 0.238111 0
M  V30 5283 C 496.11 1.9105 1.29493 0
M  V30 5284 C 497.08 0.765733 1.47397 0
M  V30 5285 O 498.265 1.02017 1.61236 0
M  V30 5286 C 495.405 2.21826 2.64362 0
M  V30 5287 C 494.518 3.49153 2.54394 0
M  V30 5288 C 493.653 3.69455 3.81676 0
M  V30 5289 C 492.692 4.90353 3.66361 0
M  V30 5290 N 491.829 5.07131 4.85554 0
M  V30 5291 H 496.669 2.81172 0.987233 0
M  V30 5292 H 494.206 1.39179 0.476203 0
M  V30 5293 H 496.164 2.37675 3.4288 0
M  V30 5294 H 494.794 1.34897 2.93262 0
M  V30 5295 H 493.846 3.41587 1.67399 0
M  V30 5296 H 495.158 4.37818 2.38991 0
M  V30 5297 H 494.312 3.85311 4.68636 0
M  V30 5298 H 493.051 2.7904 3.99985 0
M  V30 5299 H 492.056 4.74464 2.77784 0
M  V30 5300 H 493.281 5.82237 3.49538 0
M  V30 5301 H 491.227 4.19654 5.04209 0
M  V30 5302 H 491.144 5.89899 4.72816 0
M  V30 5303 H 492.412 5.27407 5.73988 0
M  V30 5304 N 496.642 -0.504142 1.49319 0
M  V30 5305 C 497.888 -1.26033 1.58882 0
M  V30 5306 C 498.221 -1.92268 0.273274 0
M  V30 5307 O 497.496 -1.80567 -0.72291 0
M  V30 5308 C 497.779 -2.32976 2.7458 0
M  V30 5309 C 497.632 -1.71263 4.1592 0
M  V30 5310 C 498.951 -3.34561 2.85932 0
M  V30 5311 H 496.07 -0.456863 0.578312 0
M  V30 5312 H 498.712 -0.558965 1.81592 0
M  V30 5313 H 496.862 -2.92796 2.55348 0
M  V30 5314 H 498.534 -1.15294 4.4666 0
M  V30 5315 H 496.777 -1.01686 4.21714 0
M  V30 5316 H 497.448 -2.48816 4.92742 0
M  V30 5317 H 499.924 -2.84727 3.0343 0
M  V30 5318 H 498.8 -4.06754 3.68568 0
M  V30 5319 H 499.061 -3.96695 1.95154 0
M  V30 5320 N 498.12 -1.38341 -0.754957 0
M  V30 5321 C 499.368 -1.34208 -1.51105 0
M  V30 5322 C 499.689 0.0677634 -1.94882 0
M  V30 5323 O 498.959 1.01517 -1.67544 0
M  V30 5324 H 497.539 -0.493819 -0.560493 0
M  V30 5325 H 500.201 -1.73005 -0.897507 0
M  V30 5326 H 499.297 -1.99203 -2.4026 0
M  V30 5327 N 499.598 0.982988 -1.23187 0
M  V30 5328 C 500.545 2.07491 -1.01075 0
M  V30 5329 C 501.515 1.65949 0.070905 0
M  V30 5330 O 502.7 1.90629 -0.0806822 0
M  V30 5331 C 499.84 3.39751 -0.605261 0
M  V30 5332 C 498.953 3.94578 -1.75876 0
M  V30 5333 C 498.088 5.15039 -1.3003 0
M  V30 5334 C 497.127 5.62027 -2.42472 0
M  V30 5335 N 496.264 6.73719 -1.97602 0
M  V30 5336 H 501.104 2.25739 -1.9454 0
M  V30 5337 H 498.641 1.10659 -0.969179 0
M  V30 5338 H 500.599 4.15719 -0.351279 0
M  V30 5339 H 499.229 3.21473 0.292382 0
M  V30 5340 H 498.281 3.1539 -2.12681 0
M  V30 5341 H 499.593 4.25422 -2.60418 0
M  V30 5342 H 498.747 5.9833 -1.00429 0
M  V30 5343 H 497.486 4.85843 -0.425216 0
M  V30 5344 H 496.491 4.77318 -2.7285 0
M  V30 5345 H 497.716 5.93244 -3.30512 0
M  V30 5346 H 495.662 6.46287 -1.1247 0
M  V30 5347 H 495.579 7.03934 -2.75705 0
M  V30 5348 H 496.847 7.6049 -1.71098 0
M  V30 5349 N 501.076 1.04316 1.18135 0
M  V30 5350 C 502.323 0.74802 1.88178 0
M  V30 5351 C 502.651 -0.72441 1.80506 0
M  V30 5352 O 501.906 -1.54463 1.20165 0
M  V30 5353 C 502.205 1.16271 3.37958 0
M  V30 5354 C 501.871 2.63585 3.65833 0
M  V30 5355 C 500.533 3.03829 3.73151 0
M  V30 5356 C 502.885 3.58822 3.78016 0
M  V30 5357 C 500.213 4.38194 3.90132 0
M  V30 5358 C 502.565 4.92909 3.96514 0
M  V30 5359 C 501.229 5.3282 4.02068 0
M  V30 5360 H 500.499 0.27372 0.688592 0
M  V30 5361 H 503.146 1.30863 1.39811 0
M  V30 5362 H 501.451 0.520938 3.88321 0
M  V30 5363 H 503.148 0.911672 3.90499 0
M  V30 5364 H 499.738 2.31414 3.60757 0
M  V30 5365 H 503.922 3.28875 3.71692 0
M  V30 5366 H 499.178 4.68631 3.92677 0
M  V30 5367 H 503.352 5.66606 4.04883 0
M  V30 5368 H 500.979 6.36943 4.14979 0
M  V30 5369 N 502.554 -1.34406 0.822964 0
M  V30 5370 C 503.484 -2.32052 0.259608 0
M  V30 5371 C 504.465 -1.58243 -0.623961 0
M  V30 5372 O 505.65 -1.86224 -0.55083 0
M  V30 5373 C 502.78 -3.42434 -0.579314 0
M  V30 5374 C 501.734 -4.27499 0.20712 0
M  V30 5375 C 501.06 -5.29349 -0.754547 0
M  V30 5376 C 502.36 -5.02758 1.41533 0
M  V30 5377 H 504.054 -2.79418 1.07545 0
M  V30 5378 H 501.6 -1.34338 0.518593 0
M  V30 5379 H 503.553 -4.0976 -0.983612 0
M  V30 5380 H 502.277 -2.93717 -1.4282 0
M  V30 5381 H 500.936 -3.61776 0.592787 0
M  V30 5382 H 500.584 -4.76895 -1.59939 0
M  V30 5383 H 500.284 -5.8714 -0.232561 0
M  V30 5384 H 501.808 -5.99544 -1.1567 0
M  V30 5385 H 503.222 -5.62938 1.08504 0
M  V30 5386 H 501.619 -5.70123 1.87296 0
M  V30 5387 H 502.689 -4.32451 2.1935 0
M  V30 5388 N 504.032 -0.577932 -1.46621 0
M  V30 5389 C 505.257 -0.0652536 -2.07297 0
M  V30 5390 C 505.682 1.22828 -1.4246 0
M  V30 5391 O 505.04 1.74075 -0.506718 0
M  V30 5392 C 505.088 0.0920589 -3.60482 0
M  V30 5393 O 504.192 1.14972 -3.96049 0
M  V30 5394 H 503.533 -0.06065 -0.661224 0
M  V30 5395 H 506.063 -0.799515 -1.88332 0
M  V30 5396 H 506.073 0.299741 -4.06897 0
M  V30 5397 H 504.748 -0.852612 -4.07067 0
M  V30 5398 H 503.325 0.920879 -3.61351 0
M  V30 5399 N 505.51 1.54411 -0.315457 0
M  V30 5400 C 506.473 2.22713 0.54142 0
M  V30 5401 C 507.473 1.2179 1.04995 0
M  V30 5402 O 508.663 1.46426 0.943667 0
M  V30 5403 C 505.795 2.92485 1.75116 0
M  V30 5404 H 506.988 2.99849 -0.0555508 0
M  V30 5405 H 504.541 1.56159 -0.0664453 0
M  V30 5406 H 505.276 2.19466 2.38758 0
M  V30 5407 H 505.061 3.66483 1.39401 0
M  V30 5408 H 506.551 3.44548 2.35959 0
M  V30 5409 N 506.988 0.0434614 1.5754 0
M  V30 5410 C 507.898 -0.94893 2.14552 0
M  V30 5411 C 508.914 -1.34707 1.10136 0
M  V30 5412 O 510.09 -1.42557 1.42266 0
M  V30 5413 C 507.155 -2.208 2.67298 0
M  V30 5414 C 506.216 -1.86893 3.86484 0
M  V30 5415 C 505.449 -3.06797 4.36705 0
M  V30 5416 O 505.672 -4.19921 3.86034 0
M  V30 5417 O 504.606 -2.8826 5.28384 0
M  V30 5418 H 508.432 -0.494099 2.99654 0
M  V30 5419 H 506.017 -0.177989 1.48336 0
M  V30 5420 H 507.899 -2.94686 3.01228 0
M  V30 5421 H 506.574 -2.65436 1.85272 0
M  V30 5422 H 505.481 -1.10347 3.57455 0
M  V30 5423 H 506.814 -1.47062 4.69716 0
M  V30 5424 N 508.466 -1.55915 -0.229846 0
M  V30 5425 C 509.376 -1.94891 -1.30593 0
M  V30 5426 C 510.392 -0.851604 -1.51736 0
M  V30 5427 O 511.568 -1.15447 -1.65027 0
M  V30 5428 C 508.633 -2.25052 -2.63728 0
M  V30 5429 C 507.694 -3.48306 -2.5096 0
M  V30 5430 C 506.927 -3.77019 -3.77747 0
M  V30 5431 O 507.15 -3.07534 -4.80395 0
M  V30 5432 O 506.084 -4.70523 -3.75356 0
M  V30 5433 H 509.91 -2.86581 -1.00525 0
M  V30 5434 H 507.495 -1.43017 -0.432025 0
M  V30 5435 H 509.377 -2.45682 -3.42372 0
M  V30 5436 H 508.052 -1.36538 -2.93495 0
M  V30 5437 H 506.959 -3.32964 -1.70546 0
M  V30 5438 H 508.292 -4.37177 -2.26136 0
M  V30 5439 N 509.944 0.496216 -1.49584 0
M  V30 5440 C 511.174 1.27209 -1.62793 0
M  V30 5441 C 511.582 1.86799 -0.300476 0
M  V30 5442 O 510.925 1.68802 0.724674 0
M  V30 5443 C 510.987 2.43812 -2.64189 0
M  V30 5444 C 510.651 2.05055 -4.08414 0
M  V30 5445 C 511.648 1.58752 -4.9507 0
M  V30 5446 C 509.333 2.14543 -4.54177 0
M  V30 5447 C 511.327 1.22448 -6.25528 0
M  V30 5448 C 509.014 1.77851 -5.84647 0
M  V30 5449 C 510.012 1.31878 -6.70147 0
M  V30 5450 O 509.7 0.956834 -7.98185 0
M  V30 5451 H 509.432 0.391848 -0.550846 0
M  V30 5452 H 511.986 0.601712 -1.96389 0
M  V30 5453 H 510.216 3.13941 -2.25783 0
M  V30 5454 H 511.905 3.05829 -2.66877 0
M  V30 5455 H 512.671 1.50863 -4.60939 0
M  V30 5456 H 508.55 2.49277 -3.87791 0
M  V30 5457 H 512.094 0.864933 -6.92217 0
M  V30 5458 H 507.991 1.8539 -6.18305 0
M  V30 5459 H 508.759 1.08789 -8.11238 0
M  V30 5460 N 511.423 1.38739 0.74761 0
M  V30 5461 C 512.355 1.32341 1.87132 0
M  V30 5462 C 513.368 0.234502 1.61102 0
M  V30 5463 O 514.557 0.492516 1.71571 0
M  V30 5464 C 511.657 1.02915 3.22896 0
M  V30 5465 C 510.83 2.22834 3.76383 0
M  V30 5466 C 509.889 1.90059 4.90677 0
M  V30 5467 O 508.915 2.62615 5.04997 0
M  V30 5468 N 510.117 0.859141 5.74107 0
M  V30 5469 H 512.882 2.29175 1.93129 0
M  V30 5470 H 510.443 1.32678 0.927805 0
M  V30 5471 H 512.435 0.79031 3.96908 0
M  V30 5472 H 511.005 0.148572 3.12247 0
M  V30 5473 H 510.225 2.62747 2.93867 0
M  V30 5474 H 511.513 3.02851 4.08851 0
M  V30 5475 H 510.911 0.257564 5.65113 0
M  V30 5476 H 509.468 0.680189 6.48241 0
M  V30 5477 N 512.901 -0.976442 1.23707 0
M  V30 5478 C 513.833 -2.07212 0.979574 0
M  V30 5479 C 514.846 -1.6273 -0.0478528 0
M  V30 5480 O 516.035 -1.77506 0.18815 0
M  V30 5481 C 513.135 -3.35835 0.45479 0
M  V30 5482 C 512.308 -4.09268 1.54331 0
M  V30 5483 C 511.367 -5.16166 1.02271 0
M  V30 5484 O 510.393 -5.42827 1.71254 0
M  V30 5485 N 511.595 -5.80313 -0.147419 0
M  V30 5486 H 514.36 -2.29878 1.92292 0
M  V30 5487 H 511.921 -1.14343 1.14618 0
M  V30 5488 H 513.913 -4.04597 0.0914631 0
M  V30 5489 H 512.483 -3.10106 -0.394068 0
M  V30 5490 H 511.703 -3.34906 2.07923 0
M  V30 5491 H 512.991 -4.55095 2.27522 0
M  V30 5492 H 512.389 -5.61043 -0.724353 0
M  V30 5493 H 510.946 -6.50231 -0.451972 0
M  V30 5494 N 514.379 -1.04941 -1.1758 0
M  V30 5495 C 515.326 -0.648155 -2.21512 0
M  V30 5496 C 516.296 0.348431 -1.62404 0
M  V30 5497 O 517.481 0.240419 -1.89279 0
M  V30 5498 C 514.621 -0.0264291 -3.4509 0
M  V30 5499 C 513.734 -1.07154 -4.185 0
M  V30 5500 C 512.869 -0.417403 -5.29558 0
M  V30 5501 C 511.908 -1.447 -5.94751 0
M  V30 5502 N 511.045 -0.817203 -6.97328 0
M  V30 5503 H 515.885 -1.53891 -2.55189 0
M  V30 5504 H 513.422 -0.769699 -1.25356 0
M  V30 5505 H 515.38 0.351456 -4.15717 0
M  V30 5506 H 514.01 0.827802 -3.12005 0
M  V30 5507 H 513.062 -1.56728 -3.46613 0
M  V30 5508 H 514.374 -1.8532 -4.63096 0
M  V30 5509 H 513.528 0.0142061 -6.06698 0
M  V30 5510 H 512.267 0.396265 -4.86087 0
M  V30 5511 H 511.272 -1.88865 -5.16343 0
M  V30 5512 H 512.497 -2.26252 -6.40302 0
M  V30 5513 H 510.443 -0.0239995 -6.55996 0
M  V30 5514 H 510.36 -1.53644 -7.40223 0
M  V30 5515 H 511.628 -0.410283 -7.7842 0
M  V30 5516 N 515.857 1.33968 -0.830081 0
M  V30 5517 C 517.106 1.97323 -0.417928 0
M  V30 5518 C 517.419 1.6652 1.02618 0
M  V30 5519 O 518.625 2.2342 1.54259 0
M  V30 5520 C 517.081 3.53099 -0.696359 0
M  V30 5521 C 516.689 3.92788 -2.15457 0
M  V30 5522 C 518.433 4.23049 -0.350724 0
M  V30 5523 C 516.34 5.41506 -2.37751 0
M  V30 5524 H 515.27 0.738409 -0.152541 0
M  V30 5525 H 517.921 1.52711 -1.01744 0
M  V30 5526 H 516.303 3.95991 -0.0265904 0
M  V30 5527 H 517.477 3.6098 -2.86408 0
M  V30 5528 H 515.792 3.35795 -2.46232 0
M  V30 5529 H 518.389 5.32403 -0.495036 0
M  V30 5530 H 518.732 4.10279 0.705476 0
M  V30 5531 H 519.265 3.85657 -0.975362 0
M  V30 5532 H 516.004 5.5927 -3.41903 0
M  V30 5533 H 515.524 5.74804 -1.7135 0
M  V30 5534 H 517.203 6.0828 -2.20465 0
M  V30 5535 N 517.335 0.585699 1.46312 0
M  V30 5536 C 518.584 0.0701192 2.01578 0
M  V30 5537 C 518.897 -1.29889 1.46247 0
M  V30 5538 O 520.103 -1.90598 1.93351 0
M  V30 5539 C 518.559 0.0747499 3.59822 0
M  V30 5540 C 518.167 1.44226 4.24149 0
M  V30 5541 C 519.911 -0.38673 4.22735 0
M  V30 5542 C 517.818 1.40446 5.74481 0
M  V30 5543 H 516.748 0.0224441 0.753666 0
M  V30 5544 H 519.399 0.737789 1.68015 0
M  V30 5545 H 517.781 -0.659144 3.90476 0
M  V30 5546 H 518.955 2.19612 4.05101 0
M  V30 5547 H 517.27 1.84401 3.73343 0
M  V30 5548 H 519.867 -0.433853 5.32937 0
M  V30 5549 H 520.21 -1.40489 3.91878 0
M  V30 5550 H 520.743 0.293195 3.96718 0
M  V30 5551 H 517.482 2.39952 6.10003 0
M  V30 5552 H 517.002 0.692845 5.95785 0
M  V30 5553 H 518.681 1.11865 6.37256 0
M  V30 5554 N 518.813 -1.54241 0.323641 0
M  V30 5555 C 520.224 -1.85975 -0.164405 0
M  V30 5556 C 520.575 -1.24529 -1.51615 0
M  V30 5557 O 519.7 -0.551351 -2.09258 0
M  V30 5558 C 520.295 -3.37424 -0.305091 0
M  V30 5559 C 518.854 -3.69107 -0.737358 0
M  V30 5560 C 518.001 -2.76942 0.140884 0
M  V30 5561 H 520.952 -1.49088 0.543922 0
M  V30 5562 H 520.973 -3.63147 -1.13598 0
M  V30 5563 H 520.485 -3.82116 0.678876 0
M  V30 5564 H 518.586 -3.29947 -1.73107 0
M  V30 5565 H 518.699 -4.76035 -0.541053 0
M  V30 5566 H 517.063 -2.51795 -0.383572 0
M  V30 5567 H 517.846 -3.24461 1.12162 0
M  V30 5568 N 520.291 -0.0518155 -1.57515 0
M  V30 5569 C 521.537 0.622745 -1.93002 0
M  V30 5570 C 521.87 1.70456 -0.930499 0
M  V30 5571 O 521.145 1.94452 0.0434086 0
M  V30 5572 C 521.428 1.21824 -3.38867 0
M  V30 5573 C 521.281 0.144434 -4.49568 0
M  V30 5574 C 522.6 2.12968 -3.8514 0
M  V30 5575 H 519.719 0.22491 -0.701844 0
M  V30 5576 H 522.361 -0.113711 -1.89659 0
M  V30 5577 H 520.511 1.8459 -3.41846 0
M  V30 5578 H 522.183 -0.48753 -4.58717 0
M  V30 5579 H 520.426 -0.527424 -4.30582 0
M  V30 5580 H 521.097 0.601127 -5.48717 0
M  V30 5581 H 523.573 1.60163 -3.8404 0
M  V30 5582 H 522.449 2.51578 -4.87852 0
M  V30 5583 H 522.71 3.03004 -3.21934 0
M  V30 5584 N 521.769 1.56035 0.221574 0
M  V30 5585 C 523.015 1.79312 0.947372 0
M  V30 5586 C 523.348 0.621453 1.83988 0
M  V30 5587 O 522.623 -0.379287 1.90766 0
M  V30 5588 C 522.906 3.1267 1.78633 0
M  V30 5589 C 522.759 4.40284 0.920312 0
M  V30 5590 C 524.078 3.4247 2.7641 0
M  V30 5591 H 521.197 0.652328 0.342982 0
M  V30 5592 H 523.839 1.88765 0.216244 0
M  V30 5593 H 521.989 3.04741 2.40967 0
M  V30 5594 H 523.661 4.60232 0.313718 0
M  V30 5595 H 521.904 4.33212 0.225734 0
M  V30 5596 H 522.575 5.30033 1.54171 0
M  V30 5597 H 525.051 3.50526 2.24211 0
M  V30 5598 H 523.927 4.3695 3.32213 0
M  V30 5599 H 524.188 2.64635 3.54148 0
M  V30 5600 N 523.247 -0.488276 1.49845 0
M  V30 5601 C 524.493 -1.24341 1.6021 0
M  V30 5602 C 524.826 -1.91967 0.293651 0
M  V30 5603 O 524.101 -1.81323 -0.703718 0
M  V30 5604 C 524.384 -2.3005 2.77036 0
M  V30 5605 C 524.237 -1.66842 4.17713 0
M  V30 5606 C 525.556 -3.31509 2.89464 0
M  V30 5607 H 522.675 -0.450704 0.583125 0
M  V30 5608 H 525.317 -0.539673 1.82174 0
M  V30 5609 H 523.467 -2.90071 2.58439 0
M  V30 5610 H 525.139 -1.1055 4.47858 0
M  V30 5611 H 523.382 -0.972079 4.22768 0
M  V30 5612 H 524.053 -2.43576 4.95353 0
M  V30 5613 H 526.529 -2.81493 3.06433 0
M  V30 5614 H 525.405 -4.02822 3.72861 0
M  V30 5615 H 525.666 -3.94603 1.99351 0
M  V30 5616 N 524.725 -1.39134 -0.740242 0
M  V30 5617 C 525.672 -1.37434 -1.8542 0
M  V30 5618 C 526.642 -0.234822 -1.64432 0
M  V30 5619 O 527.827 -0.429125 -1.85912 0
M  V30 5620 C 524.967 -1.21844 -3.22875 0
M  V30 5621 C 524.08 -2.45296 -3.55603 0
M  V30 5622 C 523.215 -2.22334 -4.82432 0
M  V30 5623 C 522.254 -3.41488 -5.07988 0
M  V30 5624 N 521.391 -3.17877 -6.26018 0
M  V30 5625 H 526.231 -2.3266 -1.86207 0
M  V30 5626 H 523.768 -1.15578 -0.909946 0
M  V30 5627 H 525.726 -1.10818 -4.02213 0
M  V30 5628 H 524.356 -0.3025 -3.21379 0
M  V30 5629 H 523.408 -2.66945 -2.71006 0
M  V30 5630 H 524.72 -3.34063 -3.7041 0
M  V30 5631 H 523.874 -2.0852 -5.69741 0
M  V30 5632 H 522.613 -1.30954 -4.6979 0
M  V30 5633 H 521.618 -3.55807 -4.19144 0
M  V30 5634 H 522.843 -4.33763 -5.22519 0
M  V30 5635 H 520.789 -2.29156 -6.14673 0
M  V30 5636 H 520.706 -4.00198 -6.41387 0
M  V30 5637 H 521.974 -3.07746 -7.16179 0
M  V30 5638 N 526.204 0.969867 -1.24223 0
M  V30 5639 C 527.137 2.06279 -0.975926 0
M  V30 5640 C 528.115 1.62353 0.0895385 0
M  V30 5641 O 529.299 1.88442 -0.0469418 0
M  V30 5642 C 526.426 3.35391 -0.472315 0
M  V30 5643 C 525.472 3.98266 -1.526 0
M  V30 5644 S 526.305 4.36172 -3.10667 0
M  V30 5645 C 527.461 5.68423 -2.62003 0
M  V30 5646 H 527.694 2.28551 -1.90137 0
M  V30 5647 H 525.227 1.10748 -1.07584 0
M  V30 5648 H 527.185 4.10068 -0.188376 0
M  V30 5649 H 525.846 3.1111 0.432378 0
M  V30 5650 H 525.039 4.91307 -1.12399 0
M  V30 5651 H 524.641 3.30009 -1.75983 0
M  V30 5652 H 526.933 6.45842 -2.0468 0
M  V30 5653 H 527.876 6.13478 -3.53625 0
M  V30 5654 H 528.284 5.26928 -2.02502 0
M  V30 5655 N 527.682 1.05563 1.17022 0
M  V30 5656 C 528.929 0.767937 1.87374 0
M  V30 5657 C 529.257 -0.705224 1.81265 0
M  V30 5658 O 528.512 -1.5318 1.21796 0
M  V30 5659 C 528.811 1.19849 3.36706 0
M  V30 5660 C 528.477 2.6745 3.63017 0
M  V30 5661 C 527.139 3.0777 3.69907 0
M  V30 5662 C 529.491 3.62811 3.74189 0
M  V30 5663 C 526.819 4.42307 3.85463 0
M  V30 5664 C 529.171 4.97087 3.91264 0
M  V30 5665 C 527.835 5.37055 3.96394 0
M  V30 5666 H 527.105 0.281008 0.68565 0
M  V30 5667 H 529.752 1.32339 1.38415 0
M  V30 5668 H 528.057 0.562096 3.87747 0
M  V30 5669 H 529.754 0.953038 3.8951 0
M  V30 5670 H 526.344 2.35228 3.58282 0
M  V30 5671 H 530.528 3.32798 3.68183 0
M  V30 5672 H 525.784 4.72769 3.87684 0
M  V30 5673 H 529.958 5.70869 3.9885 0
M  V30 5674 H 527.585 6.41308 4.082 0
M  V30 5675 N 529.16 -1.33526 0.837174 0
M  V30 5676 C 530.385 -2.0258 0.444545 0
M  V30 5677 C 530.81 -1.6258 -0.946006 0
M  V30 5678 O 530.168 -0.817548 -1.6182 0
M  V30 5679 C 530.216 -3.5605 0.571006 0
M  V30 5680 O 529.32 -4.10422 -0.403431 0
M  V30 5681 H 528.661 -0.638866 0.180958 0
M  V30 5682 H 531.191 -1.70462 1.13154 0
M  V30 5683 H 531.201 -4.05488 0.452024 0
M  V30 5684 H 529.876 -3.84509 1.58512 0
M  V30 5685 H 528.453 -3.72113 -0.242147 0
M  V30 5686 N 530.638 -0.59345 -1.46 0
M  V30 5687 C 531.863 -0.0872365 -2.07216 0
M  V30 5688 C 532.288 1.2131 -1.43755 0
M  V30 5689 O 531.646 1.73528 -0.525152 0
M  V30 5690 C 531.694 0.0538197 -3.6056 0
M  V30 5691 O 530.798 1.10765 -3.97247 0
M  V30 5692 H 530.139 -0.0676598 -0.660544 0
M  V30 5693 H 532.669 -0.819445 -1.87473 0
M  V30 5694 H 532.679 0.256567 -4.07193 0
M  V30 5695 H 531.354 -0.895739 -4.0614 0
M  V30 5696 H 529.931 0.882501 -3.62307 0
M  V30 5697 N 532.116 1.54067 -0.331816 0
M  V30 5698 C 533.344 2.05131 0.269996 0
M  V30 5699 C 533.759 1.20749 1.45138 0
M  V30 5700 O 533.116 0.240069 1.80914 0
M  V30 5701 C 533.167 3.54728 0.696456 0
M  V30 5702 O 532.888 4.35906 -0.43794 0
M  V30 5703 C 534.389 4.21916 1.36021 0
M  V30 5704 H 531.609 0.668807 0.0542042 0
M  V30 5705 H 534.153 1.98777 -0.4804 0
M  V30 5706 H 532.308 3.61342 1.39681 0
M  V30 5707 H 532.722 5.24404 -0.100334 0
M  V30 5708 H 534.196 5.28015 1.60947 0
M  V30 5709 H 534.673 3.73538 2.31011 0
M  V30 5710 H 535.279 4.19463 0.702212 0
M  V30 5711 N 533.594 0.0601682 1.57485 0
M  V30 5712 C 534.871 -0.651956 1.84415 0
M  V30 5713 C 535.251 -1.88498 0.950361 0
M  V30 5714 O 534.599 -2.28496 0.0136719 0
M  V30 5715 C 534.809 -1.00069 3.34346 0
M  V30 5716 C 536.157 -1.37915 4.01578 0
M  V30 5717 O 537.181 -1.09277 3.39024 0
M  V30 5718 O 536.04 -1.91399 5.11887 0
M  V30 5719 H 533.134 -0.322668 0.761455 0
M  V30 5720 H 535.68 0.0902159 1.6946 0
M  V30 5721 H 534.452 -0.124463 3.91102 0
M  V30 5722 H 534.075 -1.80001 3.54521 0
M  V30 5723 N 535.072 -1.5615 -0.213296 0
M  V30 5724 C 536.488 -1.49327 -0.56336 0
M  V30 5725 C 536.688 -0.756826 -1.86747 0
M  V30 5726 O 535.744 -0.299866 -2.50713 0
M  V30 5727 C 537.057 -2.9392 -0.634944 0
M  V30 5728 C 538.605 -3.04487 -0.725013 0
M  V30 5729 C 539.08 -4.50456 -0.82787 0
M  V30 5730 N 540.571 -4.54533 -0.891876 0
M  V30 5731 C 541.306 -5.64766 -0.991315 0
M  V30 5732 N 540.802 -6.84733 -1.05419 0
M  V30 5733 N 542.595 -5.52637 -1.02709 0
M  V30 5734 H 534.746 -2.02453 0.642366 0
M  V30 5735 H 537.009 -0.920548 0.226487 0
M  V30 5736 H 536.715 -3.50783 0.253859 0
M  V30 5737 H 536.589 -3.46274 -1.49579 0
M  V30 5738 H 538.976 -2.47685 -1.60425 0
M  V30 5739 H 539.057 -2.55289 0.161669 0
M  V30 5740 H 538.701 -5.07878 0.0469464 0
M  V30 5741 H 538.631 -4.97369 -1.73009 0
M  V30 5742 H 541.122 -3.68141 -0.85327 0
M  V30 5743 H 541.435 -7.64493 -1.13007 0
M  V30 5744 H 539.78 -6.87427 -1.02318 0
M  V30 5745 H 542.971 -4.5784 -0.974687 0
M  V30 5746 H 543.144 -6.38576 -1.10113 0
M  V30 5747 N 536.55 0.480323 -1.50102 0
M  V30 5748 C 537.513 1.56181 -1.6775 0
M  V30 5749 C 538.513 1.51156 -0.548503 0
M  V30 5750 O 539.703 1.5394 -0.815363 0
M  V30 5751 C 536.835 2.95823 -1.69415 0
M  V30 5752 H 538.028 1.41855 -2.6423 0
M  V30 5753 H 535.581 0.70605 -1.39444 0
M  V30 5754 H 536.316 3.15604 -0.745948 0
M  V30 5755 H 536.101 3.00878 -2.51425 0
M  V30 5756 H 537.591 3.74359 -1.85054 0
M  V30 5757 N 538.028 1.39524 0.732853 0
M  V30 5758 C 538.961 1.32806 1.85574 0
M  V30 5759 C 539.939 0.201354 1.61348 0
M  V30 5760 O 541.123 0.38216 1.84585 0
M  V30 5761 C 538.25 1.06271 3.21596 0
M  V30 5762 C 537.296 2.21161 3.64678 0
M  V30 5763 S 538.129 3.83454 3.73796 0
M  V30 5764 C 539.285 3.59149 5.12604 0
M  V30 5765 H 539.518 2.27838 1.9099 0
M  V30 5766 H 537.051 1.25605 0.897927 0
M  V30 5767 H 539.009 0.916461 4.00139 0
M  V30 5768 H 537.67 0.129223 3.13834 0
M  V30 5769 H 536.863 1.98193 4.63396 0
M  V30 5770 H 536.465 2.32 2.93346 0
M  V30 5771 H 538.757 3.16547 5.99003 0
M  V30 5772 H 539.7 4.57335 5.40602 0
M  V30 5773 H 540.108 2.93203 4.82382 0
M  V30 5774 N 539.506 -0.963266 1.24736 0
M  V30 5775 C 540.922 -1.23273 1.01371 0
M  V30 5776 C 541.122 -1.99618 -0.274776 0
M  V30 5777 O 540.178 -2.32293 -0.989769 0
M  V30 5778 C 541.491 -2.01554 2.23152 0
M  V30 5779 C 543.039 -2.14629 2.27823 0
M  V30 5780 C 543.514 -2.96307 3.49237 0
M  V30 5781 N 545.005 -3.03887 3.49581 0
M  V30 5782 C 545.74 -3.67456 4.40186 0
M  V30 5783 N 545.236 -4.32706 5.41052 0
M  V30 5784 N 547.029 -3.64511 4.27888 0
M  V30 5785 H 539.18 -0.452294 2.07528 0
M  V30 5786 H 541.443 -0.262521 0.910926 0
M  V30 5787 H 541.149 -1.52847 3.1675 0
M  V30 5788 H 541.023 -3.02278 2.25628 0
M  V30 5789 H 543.41 -2.62537 1.34753 0
M  V30 5790 H 543.491 -1.13238 2.2937 0
M  V30 5791 H 543.135 -2.49091 4.42624 0
M  V30 5792 H 543.065 -3.97905 3.44933 0
M  V30 5793 H 545.556 -2.57477 2.76611 0
M  V30 5794 H 545.869 -4.79042 6.06415 0
M  V30 5795 H 544.214 -4.31361 5.44934 0
M  V30 5796 H 547.405 -3.12715 3.4832 0
M  V30 5797 H 547.578 -4.13768 4.98698 0
M  V30 5798 N 540.985 -1.06182 -1.16461 0
M  V30 5799 C 542.234 -0.772927 -1.86303 0
M  V30 5800 C 542.547 0.703187 -1.82523 0
M  V30 5801 O 543.753 1.10641 -2.47933 0
M  V30 5802 C 542.209 -1.33249 -3.34324 0
M  V30 5803 C 541.817 -2.83876 -3.46581 0
M  V30 5804 C 543.561 -1.12108 -4.09429 0
M  V30 5805 C 541.468 -3.33082 -4.88682 0
M  V30 5806 H 540.398 -0.285452 -0.697878 0
M  V30 5807 H 543.049 -1.28039 -1.31447 0
M  V30 5808 H 541.431 -0.7528 -3.88779 0
M  V30 5809 H 542.605 -3.47786 -3.02293 0
M  V30 5810 H 540.92 -3.03671 -2.84909 0
M  V30 5811 H 543.517 -1.46361 -5.14279 0
M  V30 5812 H 543.86 -0.0593832 -4.16258 0
M  V30 5813 H 544.393 -1.6665 -3.6121 0
M  V30 5814 H 541.132 -4.38726 -4.87032 0
M  V30 5815 H 540.652 -2.73919 -5.33599 0
M  V30 5816 H 542.331 -3.28344 -5.57494 0
M  V30 5817 N 542.463 1.3308 -0.844243 0
M  V30 5818 C 543.879 1.50447 -0.532729 0
M  V30 5819 C 544.079 1.78292 0.938837 0
M  V30 5820 O 543.135 1.84635 1.72239 0
M  V30 5821 C 544.448 2.65555 -1.41072 0
M  V30 5822 C 545.996 2.7944 -1.41005 0
M  V30 5823 C 546.471 3.97616 -2.27301 0
M  V30 5824 N 547.962 4.0486 -2.2504 0
M  V30 5825 C 548.697 4.95508 -2.88547 0
M  V30 5826 N 548.193 5.91236 -3.61126 0
M  V30 5827 N 549.986 4.88548 -2.77989 0
M  V30 5828 H 542.137 1.13269 -1.79677 0
M  V30 5829 H 544.4 0.55734 -0.766861 0
M  V30 5830 H 544.106 2.51675 -2.45668 0
M  V30 5831 H 543.98 3.61089 -1.09061 0
M  V30 5832 H 546.367 2.92749 -0.371784 0
M  V30 5833 H 546.448 1.8465 -1.77026 0
M  V30 5834 H 546.092 3.85066 -3.3119 0
M  V30 5835 H 546.022 4.91661 -1.88619 0
M  V30 5836 H 548.513 3.36353 -1.72264 0
M  V30 5837 H 548.826 6.57079 -4.06776 0
M  V30 5838 H 547.171 5.91295 -3.65234 0
M  V30 5839 H 550.362 4.12729 -2.20846 0
M  V30 5840 H 550.535 5.58994 -3.27765 0
M  V30 5841 N 543.941 0.601185 1.45683 0
M  V30 5842 C 544.871 -0.108824 2.33246 0
M  V30 5843 C 545.852 -0.865223 1.46451 0
M  V30 5844 O 547.037 -0.83704 1.75235 0
M  V30 5845 C 544.167 -1.11101 3.2905 0
M  V30 5846 C 543.121 -0.468244 4.25431 0
M  V30 5847 C 542.447 -1.57822 5.10878 0
M  V30 5848 C 543.747 0.606469 5.18767 0
M  V30 5849 H 545.441 0.622306 2.92861 0
M  V30 5850 H 542.987 0.300714 1.40825 0
M  V30 5851 H 544.94 -1.61622 3.89174 0
M  V30 5852 H 543.664 -1.87265 2.67581 0
M  V30 5853 H 542.323 0.0160484 3.66596 0
M  V30 5854 H 541.971 -2.32998 4.45781 0
M  V30 5855 H 541.671 -1.15369 5.76163 0
M  V30 5856 H 543.195 -2.08583 5.73869 0
M  V30 5857 H 544.609 0.185589 5.73 0
M  V30 5858 H 543.006 0.952381 5.92494 0
M  V30 5859 H 544.076 1.48559 4.61582 0
M  V30 5860 N 545.419 -1.53889 0.339982 0
M  V30 5861 C 546.349 -2.27843 -0.510856 0
M  V30 5862 C 547.33 -1.29267 -1.10563 0
M  V30 5863 O 548.515 -1.58104 -1.12768 0
M  V30 5864 C 545.645 -3.04857 -1.66372 0
M  V30 5865 C 544.599 -4.10907 -1.19746 0
M  V30 5866 C 543.925 -4.75855 -2.43857 0
M  V30 5867 C 545.225 -5.21435 -0.300501 0
M  V30 5868 H 546.919 -2.99212 0.106067 0
M  V30 5869 H 544.465 -1.43904 0.0524533 0
M  V30 5870 H 546.418 -3.5533 -2.26537 0
M  V30 5871 H 545.142 -2.31133 -2.30749 0
M  V30 5872 H 543.801 -3.61342 -0.618654 0
M  V30 5873 H 543.449 -3.9873 -3.06633 0
M  V30 5874 H 543.149 -5.47502 -2.13343 0
M  V30 5875 H 544.673 -5.2911 -3.04754 0
M  V30 5876 H 546.087 -5.67565 -0.80889 0
M  V30 5877 H 544.484 -6.00036 -0.0874076 0
M  V30 5878 H 545.554 -4.80328 0.664321 0
M  V30 5879 N 546.897 -0.0685191 -1.57451 0
M  V30 5880 C 547.829 0.929372 -2.09512 0
M  V30 5881 C 548.842 1.26354 -1.02657 0
M  V30 5882 O 550.031 1.2213 -1.30179 0
M  V30 5883 C 547.131 2.24612 -2.53777 0
M  V30 5884 C 546.304 2.09128 -3.84167 0
M  V30 5885 C 545.363 3.24079 -4.14559 0
M  V30 5886 O 544.389 2.99215 -4.8421 0
M  V30 5887 N 545.591 4.49077 -3.67845 0
M  V30 5888 H 548.356 0.484901 -2.95751 0
M  V30 5889 H 545.917 0.11729 -1.61475 0
M  V30 5890 H 547.909 3.00412 -2.71172 0
M  V30 5891 H 546.479 2.60569 -1.72692 0
M  V30 5892 H 545.699 1.17815 -3.76182 0
M  V30 5893 H 546.987 1.9603 -4.69521 0
M  V30 5894 H 546.385 4.72165 -3.11571 0
M  V30 5895 H 544.942 5.21915 -3.90446 0
M  V30 5896 N 548.375 1.56261 0.205012 0
M  V30 5897 C 549.307 1.90266 1.27795 0
M  V30 5898 C 550.32 0.792397 1.42214 0
M  V30 5899 O 551.509 1.07077 1.42817 0
M  V30 5900 C 548.609 2.11074 2.65143 0
M  V30 5901 C 547.782 3.42176 2.7246 0
M  V30 5902 C 546.841 3.52216 3.90936 0
M  V30 5903 O 545.867 4.25119 3.78501 0
M  V30 5904 N 547.069 2.84573 5.05963 0
M  V30 5905 H 549.834 2.82896 0.989434 0
M  V30 5906 H 547.395 1.57008 0.394981 0
M  V30 5907 H 549.387 2.15089 3.4281 0
M  V30 5908 H 547.957 1.2499 2.86524 0
M  V30 5909 H 547.177 3.50116 1.81142 0
M  V30 5910 H 548.465 4.28509 2.74331 0
M  V30 5911 H 547.863 2.25152 5.18963 0
M  V30 5912 H 546.42 2.94228 5.81613 0
M  V30 5913 N 549.853 -0.472356 1.50355 0
M  V30 5914 C 550.786 -1.58923 1.63764 0
M  V30 5915 C 551.764 -1.55173 0.485793 0
M  V30 5916 O 552.948 -1.74815 0.705132 0
M  V30 5917 C 550.075 -2.97497 1.61905 0
M  V30 5918 C 549.121 -3.19405 2.82635 0
M  V30 5919 S 549.954 -2.99441 4.43954 0
M  V30 5920 C 551.11 -4.40359 4.44786 0
M  V30 5921 H 551.343 -1.47309 2.58239 0
M  V30 5922 H 548.876 -0.659601 1.39602 0
M  V30 5923 H 550.834 -3.77389 1.61518 0
M  V30 5924 H 549.495 -3.06502 0.686683 0
M  V30 5925 H 548.688 -4.20636 2.77636 0
M  V30 5926 H 548.29 -2.47283 2.80583 0
M  V30 5927 H 550.582 -5.32969 4.1827 0
M  V30 5928 H 551.525 -4.50403 5.46391 0
M  V30 5929 H 551.933 -4.22378 3.74509 0
M  V30 5930 N 551.331 -1.39911 -0.725443 0
M  V30 5931 C 552.241 -1.41688 -1.8698 0
M  V30 5932 C 553.257 -0.310579 -1.71206 0
M  V30 5933 O 554.433 -0.55359 -1.93642 0
M  V30 5934 C 551.498 -1.26811 -3.22676 0
M  V30 5935 C 550.559 -2.47497 -3.50776 0
M  V30 5936 C 549.792 -2.3332 -4.79997 0
M  V30 5937 O 550.015 -1.34175 -5.54394 0
M  V30 5938 O 548.949 -3.22498 -5.08211 0
M  V30 5939 H 552.775 -2.38171 -1.88436 0
M  V30 5940 H 550.36 -1.21128 -0.874548 0
M  V30 5941 H 552.242 -1.20684 -4.03749 0
M  V30 5942 H 550.917 -0.334289 -3.21969 0
M  V30 5943 H 549.824 -2.59201 -2.69751 0
M  V30 5944 H 551.157 -3.39606 -3.5627 0
M  V30 5945 N 552.809 0.956637 -1.25245 0
M  V30 5946 C 553.741 2.05628 -1.01242 0
M  V30 5947 C 554.754 1.62785 0.0219579 0
M  V30 5948 O 555.943 1.77184 -0.216365 0
M  V30 5949 C 553.043 3.35069 -0.508161 0
M  V30 5950 C 552.216 4.06761 -1.60823 0
M  V30 5951 C 551.275 5.14473 -1.1047 0
M  V30 5952 O 550.301 5.40033 -1.79868 0
M  V30 5953 N 551.503 5.80474 0.0550773 0
M  V30 5954 H 554.268 2.2679 -1.95925 0
M  V30 5955 H 551.829 1.12505 -1.16423 0
M  V30 5956 H 553.821 4.044 -0.155819 0
M  V30 5957 H 552.391 3.10694 0.344683 0
M  V30 5958 H 551.611 3.31555 -2.13224 0
M  V30 5959 H 552.899 4.51418 -2.34733 0
M  V30 5960 H 552.297 5.62125 0.635004 0
M  V30 5961 H 550.854 6.50868 0.348469 0
M  V30 5962 N 554.287 1.06798 1.15896 0
M  V30 5963 C 555.534 0.787767 1.86549 0
M  V30 5964 C 555.862 -0.685959 1.82002 0
M  V30 5965 O 555.117 -1.5188 1.23414 0
M  V30 5966 C 555.416 1.23414 3.35416 0
M  V30 5967 C 555.082 2.71285 3.6016 0
M  V30 5968 C 553.744 3.11676 3.66622 0
M  V30 5969 C 556.096 3.6676 3.7032 0
M  V30 5970 C 553.424 4.4637 3.8075 0
M  V30 5971 C 555.776 5.01209 3.8597 0
M  V30 5972 C 554.44 5.41229 3.90676 0
M  V30 5973 H 553.71 0.288264 0.682631 0
M  V30 5974 H 556.357 1.338 1.37003 0
M  V30 5975 H 554.662 0.60319 3.87129 0
M  V30 5976 H 556.359 0.994298 3.88477 0
M  V30 5977 H 552.949 2.39015 3.55767 0
M  V30 5978 H 557.133 3.36685 3.64633 0
M  V30 5979 H 552.389 4.76855 3.82648 0
M  V30 5980 H 556.563 5.75067 3.92773 0
M  V30 5981 H 554.19 6.45602 4.01375 0
M  V30 5982 N 555.766 -1.3263 0.851289 0
M  V30 5983 C 557.015 -1.96633 0.449267 0
M  V30 5984 C 557.328 -1.68131 -0.999562 0
M  V30 5985 O 558.534 -2.25845 -1.50685 0
M  V30 5986 C 556.99 -3.51946 0.752446 0
M  V30 5987 C 556.598 -3.89311 2.21678 0
M  V30 5988 C 558.342 -4.22437 0.417983 0
M  V30 5989 C 556.249 -5.37655 2.46336 0
M  V30 5990 H 555.179 -0.735888 0.164269 0
M  V30 5991 H 557.83 -1.51073 1.0416 0
M  V30 5992 H 556.212 -3.95899 0.0895858 0
M  V30 5993 H 557.386 -3.56378 2.92115 0
M  V30 5994 H 555.701 -3.31836 2.51543 0
M  V30 5995 H 558.298 -5.31549 0.579674 0
M  V30 5996 H 558.641 -4.11349 -0.640115 0
M  V30 5997 H 559.174 -3.84057 1.03659 0
M  V30 5998 H 555.913 -5.5376 3.50757 0
M  V30 5999 H 555.433 -5.72005 1.80473 0
M  V30 6000 H 557.112 -6.04695 2.30115 0
M  V30 6001 N 557.244 -0.608902 -1.45362 0
M  V30 6002 C 558.176 0.147318 -2.28726 0
M  V30 6003 C 559.189 0.830468 -1.40025 0
M  V30 6004 O 560.378 0.695636 -1.64387 0
M  V30 6005 C 557.478 1.22968 -3.15804 0
M  V30 6006 C 556.651 0.633391 -4.3279 0
M  V30 6007 C 555.71 1.60682 -5.01067 0
M  V30 6008 O 554.736 1.13261 -5.57818 0
M  V30 6009 N 555.938 2.94123 -5.00472 0
M  V30 6010 H 558.703 -0.568014 -2.94268 0
M  V30 6011 H 556.264 -0.448479 -1.55564 0
M  V30 6012 H 558.256 1.88072 -3.58345 0
M  V30 6013 H 556.826 1.84752 -2.52162 0
M  V30 6014 H 556.046 -0.195762 -3.93714 0
M  V30 6015 H 557.334 0.215255 -5.08344 0
M  V30 6016 H 556.732 3.3525 -4.55657 0
M  V30 6017 H 555.289 3.54646 -5.46872 0
M  V30 6018 N 558.722 1.53707 -0.348139 0
M  V30 6019 C 559.952 2.05108 0.247864 0
M  V30 6020 C 560.36 1.22252 1.44399 0
M  V30 6021 O 559.703 0.251853 1.81965 0
M  V30 6022 C 559.765 3.52171 0.722187 0
M  V30 6023 C 559.429 4.5562 -0.354902 0
M  V30 6024 C 560.426 5.05883 -1.19911 0
M  V30 6025 C 558.111 4.99703 -0.510145 0
M  V30 6026 C 560.105 5.98814 -2.18406 0
M  V30 6027 C 557.792 5.92443 -1.49848 0
M  V30 6028 C 558.79 6.41887 -2.33389 0
M  V30 6029 O 558.478 7.32802 -3.3054 0
M  V30 6030 H 558.21 0.674086 0.0508296 0
M  V30 6031 H 560.764 1.99229 -0.49968 0
M  V30 6032 H 558.994 3.55529 1.52105 0
M  V30 6033 H 560.683 3.8652 1.23925 0
M  V30 6034 H 561.449 4.72586 -1.09028 0
M  V30 6035 H 557.328 4.60816 0.130274 0
M  V30 6036 H 560.872 6.3733 -2.83649 0
M  V30 6037 H 556.769 6.25155 -1.60786 0
M  V30 6038 H 557.537 7.50749 -3.26064 0
M  V30 6039 N 560.2 0.0768682 1.57412 0
M  V30 6040 C 561.13 -0.886026 2.16037 0
M  V30 6041 C 562.111 -1.30691 1.08876 0
M  V30 6042 O 563.296 -1.37705 1.36934 0
M  V30 6043 C 560.426 -2.1518 2.72608 0
M  V30 6044 C 559.38 -1.87015 3.8498 0
M  V30 6045 C 558.706 -3.20266 4.28175 0
M  V30 6046 C 560.006 -1.17143 5.08994 0
M  V30 6047 H 561.7 -0.397642 2.96748 0
M  V30 6048 H 559.246 -0.189823 1.42743 0
M  V30 6049 H 561.199 -2.82962 3.12266 0
M  V30 6050 H 559.923 -2.66269 1.89125 0
M  V30 6051 H 558.582 -1.21636 3.45833 0
M  V30 6052 H 558.23 -3.69207 3.41607 0
M  V30 6053 H 557.93 -3.0221 5.03927 0
M  V30 6054 H 559.454 -3.89237 4.70454 0
M  V30 6055 H 560.868 -1.75003 5.45937 0
M  V30 6056 H 559.265 -1.09328 5.90057 0
M  V30 6057 H 560.335 -0.151295 4.84664 0
M  V30 6058 N 561.678 -1.56367 -0.196722 0
M  V30 6059 C 562.955 -1.71359 -0.943159 0
M  V30 6060 C 563.335 -0.631192 -2.01443 0
M  V30 6061 O 562.683 0.358071 -2.25677 0
M  V30 6062 C 562.893 -3.13623 -1.53106 0
M  V30 6063 C 564.241 -3.73806 -2.01381 0
M  V30 6064 O 565.265 -3.16742 -1.62951 0
M  V30 6065 O 564.124 -4.73951 -2.7209 0
M  V30 6066 H 561.218 -0.698851 -0.442195 0
M  V30 6067 H 563.764 -1.68672 -0.186547 0
M  V30 6068 H 562.536 -3.83873 -0.758785 0
M  V30 6069 H 562.159 -3.20532 -2.35255 0
M  V30 6070 N 563.156 0.464375 -1.50603 0
M  V30 6071 C 564.066 1.58723 -1.72754 0
M  V30 6072 C 565.082 1.62925 -0.610844 0
M  V30 6073 O 566.258 1.8067 -0.889963 0
M  V30 6074 C 563.323 2.94897 -1.82309 0
M  V30 6075 C 562.384 3.0103 -3.06071 0
M  V30 6076 C 561.617 4.30708 -3.1516 0
M  V30 6077 O 561.84 5.2159 -2.30868 0
M  V30 6078 O 560.774 4.42571 -4.0794 0
M  V30 6079 H 564.6 1.42954 -2.67951 0
M  V30 6080 H 562.185 0.644579 -1.3478 0
M  V30 6081 H 564.067 3.75764 -1.90735 0
M  V30 6082 H 562.742 3.10851 -0.902967 0
M  V30 6083 H 561.649 2.19217 -3.03142 0
M  V30 6084 H 562.982 2.90014 -3.97684 0
M  V30 6085 N 564.634 1.40294 0.718013 0
M  V30 6086 C 566.045 1.34289 1.29705 0
M  V30 6087 C 566.396 0.0152228 1.96194 0
M  V30 6088 O 565.521 -0.88682 1.97394 0
M  V30 6089 C 566.116 2.43219 2.3586 0
M  V30 6090 C 564.675 2.40682 2.89394 0
M  V30 6091 C 563.822 2.24223 1.63154 0
M  V30 6092 H 566.773 1.50135 0.514312 0
M  V30 6093 H 566.794 2.10986 3.16647 0
M  V30 6094 H 566.306 3.39836 1.87439 0
M  V30 6095 H 564.407 1.47756 3.42051 0
M  V30 6096 H 564.52 3.36177 3.41353 0
M  V30 6097 H 562.884 1.71696 1.88129 0
M  V30 6098 H 563.667 3.22834 1.16761 0
M  V30 6099 N 566.112 -0.949982 1.2575 0
M  V30 6100 C 567.34 -1.72972 1.13527 0
M  V30 6101 C 567.755 -1.8623 -0.310453 0
M  V30 6102 O 567.112 -1.36336 -1.2132 0
M  V30 6103 C 567.163 -3.14108 1.78936 0
M  V30 6104 O 566.884 -3.01493 3.17858 0
M  V30 6105 C 568.385 -4.08338 1.72554 0
M  V30 6106 H 565.605 -0.541864 0.395758 0
M  V30 6107 H 568.149 -1.19151 1.66202 0
M  V30 6108 H 566.304 -3.64858 1.30221 0
M  V30 6109 H 566.718 -3.90559 3.50092 0
M  V30 6110 H 568.192 -5.04963 2.22973 0
M  V30 6111 H 568.669 -4.33742 0.690251 0
M  V30 6112 H 569.275 -3.63506 2.2078 0
M  V30 6113 N 567.59 -1.07411 -1.15328 0
M  V30 6114 C 568.836 -0.798831 -1.86404 0
M  V30 6115 C 569.169 0.673433 -1.8215 0
M  V30 6116 O 568.444 1.49428 -1.24505 0
M  V30 6117 C 568.727 -1.30846 -3.35487 0
M  V30 6118 C 568.58 -2.84532 -3.4837 0
M  V30 6119 C 569.899 -0.925486 -4.30259 0
M  V30 6120 H 567.018 -0.291659 -0.676834 0
M  V30 6121 H 569.66 -1.332 -1.35491 0
M  V30 6122 H 567.81 -0.854916 -3.78977 0
M  V30 6123 H 569.482 -3.3818 -3.13739 0
M  V30 6124 H 567.725 -3.22699 -2.8991 0
M  V30 6125 H 568.396 -3.15259 -4.53118 0
M  V30 6126 H 570.872 -1.3163 -3.94731 0
M  V30 6127 H 569.748 -1.3094 -5.33053 0
M  V30 6128 H 570.009 0.168525 -4.41779 0
M  V30 6129 N 569.068 1.32177 -0.85831 0
M  V30 6130 C 570.016 2.30729 -0.294442 0
M  V30 6131 C 571.01 1.59009 0.584165 0
M  V30 6132 O 572.216 1.73713 0.471562 0
M  V30 6133 H 568.591 0.748097 -0.0765171 0
M  V30 6134 H 570.562 2.75774 -1.1398 0
M  V30 6135 C 569.311 3.44098 0.499208 0
M  V30 6136 H 568.634 3.99449 -0.167579 0
M  V30 6137 H 570.074 4.15202 0.859273 0
M  V30 6138 C 568.533 2.91684 1.68588 0
M  V30 6139 O 569.063 2.89481 2.78503 0
M  V30 6140 N 567.269 2.48036 1.51415 0
M  V30 6141 H 566.816 2.50027 0.620006 0
M  V30 6142 H 566.774 2.13322 2.30957 0
M  V30 6143 N 570.547 0.616602 1.45037 0
M  V30 6144 C 571.775 0.121968 2.0654 0
M  V30 6145 C 572.19 -1.19743 1.45969 0
M  V30 6146 O 571.547 -1.73133 0.577168 0
M  V30 6147 C 571.598 -0.0145171 3.61497 0
M  V30 6148 O 571.319 1.25269 4.19809 0
M  V30 6149 C 572.82 -0.539555 4.40004 0
M  V30 6150 H 570.04 0.0729837 0.667019 0
M  V30 6151 H 572.584 0.846891 1.8614 0
M  V30 6152 H 570.739 -0.689809 3.81209 0
M  V30 6153 H 571.153 1.08816 5.13088 0
M  V30 6154 H 572.627 -0.584112 5.48901 0
M  V30 6155 H 573.104 -1.56368 4.10421 0
M  V30 6156 H 573.71 0.101995 4.25178 0
M  V30 6157 N 572.025 -1.5352 0.356285 0
M  V30 6158 C 572.957 -2.23009 -0.529127 0
M  V30 6159 C 573.97 -1.241 -1.05371 0
M  V30 6160 O 575.159 -1.50379 -0.961679 0
M  V30 6161 C 572.259 -2.90685 -1.74229 0
M  V30 6162 C 571.432 -4.16019 -1.35081 0
M  V30 6163 C 570.491 -4.66989 -2.42502 0
M  V30 6164 O 569.517 -5.30895 -2.05279 0
M  V30 6165 N 570.719 -4.44006 -3.7395 0
M  V30 6166 H 573.484 -2.99627 0.0660501 0
M  V30 6167 H 571.045 -1.60885 0.181014 0
M  V30 6168 H 573.037 -3.21695 -2.4555 0
M  V30 6169 H 571.607 -2.17575 -2.24454 0
M  V30 6170 H 570.827 -3.91414 -0.467833 0
M  V30 6171 H 572.115 -4.9752 -1.06542 0
M  V30 6172 H 571.513 -3.92924 -4.06973 0
M  V30 6173 H 570.07 -4.7959 -4.41403 0
M  V30 6174 N 573.503 -0.0852151 -1.57369 0
M  V30 6175 C 574.752 0.580443 -1.93168 0
M  V30 6176 C 575.065 1.6995 -0.968319 0
M  V30 6177 O 576.271 2.42564 -1.21963 0
M  V30 6178 C 574.727 1.08386 -3.43192 0
M  V30 6179 C 574.335 -0.00491388 -4.48 0
M  V30 6180 C 576.079 1.72281 -3.87968 0
M  V30 6181 C 573.986 0.513299 -5.89168 0
M  V30 6182 H 572.916 0.22059 -0.72101 0
M  V30 6183 H 575.567 -0.159621 -1.82804 0
M  V30 6184 H 573.949 1.8773 -3.48674 0
M  V30 6185 H 575.123 -0.780032 -4.5415 0
M  V30 6186 H 573.438 -0.548453 -4.12772 0
M  V30 6187 H 576.035 2.12108 -4.9083 0
M  V30 6188 H 576.378 2.58811 -3.26071 0
M  V30 6189 H 576.911 0.995359 -3.85146 0
M  V30 6190 H 573.65 -0.315153 -6.54742 0
M  V30 6191 H 573.17 1.25564 -5.8651 0
M  V30 6192 H 574.849 0.985433 -6.39451 0
M  V30 6193 N 574.981 1.5647 0.188427 0
M  V30 6194 C 576.228 1.81013 0.907779 0
M  V30 6195 C 576.556 0.65953 1.82977 0
M  V30 6196 O 575.811 -0.354308 1.92466 0
M  V30 6197 C 576.11 3.11596 1.7505 0
M  V30 6198 C 575.776 4.40145 0.978922 0
M  V30 6199 C 574.438 4.75066 0.765912 0
M  V30 6200 C 576.79 5.19369 0.436498 0
M  V30 6201 C 574.118 5.867 -0.00089868 0
M  V30 6202 C 576.47 6.31805 -0.317136 0
M  V30 6203 C 575.134 6.65303 -0.541103 0
M  V30 6204 H 574.404 0.662373 0.33218 0
M  V30 6205 H 577.051 1.9071 0.173732 0
M  V30 6206 H 575.356 2.97165 2.55343 0
M  V30 6207 H 577.053 3.27793 2.30983 0
M  V30 6208 H 573.643 4.12745 1.15497 0
M  V30 6209 H 577.827 4.92799 0.588449 0
M  V30 6210 H 573.083 6.11122 -0.184329 0
M  V30 6211 H 577.257 6.92406 -0.744788 0
M  V30 6212 H 574.884 7.51646 -1.13718 0
M  V30 6213 N 576.459 -0.456382 1.50847 0
M  V30 6214 C 577.87 -1.03685 1.55262 0
M  V30 6215 C 578.221 -1.92779 0.364771 0
M  V30 6216 O 577.346 -2.10043 -0.52068 0
M  V30 6217 C 577.941 -1.88718 2.81374 0
M  V30 6218 C 576.5 -2.41847 2.88422 0
M  V30 6219 C 575.647 -1.20564 2.49719 0
M  V30 6220 H 578.598 -0.238399 1.56899 0
M  V30 6221 H 578.619 -2.73957 2.6406 0
M  V30 6222 H 578.131 -1.23847 3.67809 0
M  V30 6223 H 576.232 -3.10228 2.06372 0
M  V30 6224 H 576.345 -2.75947 3.9165 0
M  V30 6225 H 574.709 -1.54504 2.02486 0
M  V30 6226 H 575.492 -0.573326 3.38479 0
M  V30 6227 N 577.937 -1.40673 -0.710563 0
M  V30 6228 C 578.887 -1.37812 -1.81636 0
M  V30 6229 C 579.871 -0.254853 -1.58869 0
M  V30 6230 O 581.063 -0.494356 -1.69956 0
M  V30 6231 C 578.192 -1.24802 -3.19811 0
M  V30 6232 C 577.278 -2.41931 -3.48325 0
M  V30 6233 N 577.669 -3.67411 -3.47625 0
M  V30 6234 C 575.967 -2.35419 -3.78806 0
M  V30 6235 C 576.668 -4.45008 -3.74623 0
M  V30 6236 N 575.644 -3.74916 -3.93623 0
M  V30 6237 H 579.446 -2.32766 -1.79436 0
M  V30 6238 H 576.96 -1.34516 -0.909909 0
M  V30 6239 H 578.957 -1.20835 -3.99004 0
M  V30 6240 H 577.617 -0.308202 -3.23234 0
M  V30 6241 H 578.628 -4.00503 -3.28356 0
M  V30 6242 H 575.305 -1.4983 -3.89689 0
M  V30 6243 H 576.695 -5.53884 -3.80344 0
M  V30 6244 N 579.415 0.9433 -1.26252 0
M  V30 6245 C 580.661 1.69175 -1.11837 0
M  V30 6246 C 580.994 1.91238 0.337891 0
M  V30 6247 O 580.269 1.49152 1.24836 0
M  V30 6248 C 580.552 3.06783 -1.88563 0
M  V30 6249 C 580.405 2.9206 -3.42083 0
M  V30 6250 C 581.724 4.06865 -1.67776 0
M  V30 6251 H 578.843 0.61399 -0.407658 0
M  V30 6252 H 581.485 1.09572 -1.55222 0
M  V30 6253 H 579.635 3.57663 -1.51689 0
M  V30 6254 H 581.307 2.48419 -3.88698 0
M  V30 6255 H 579.55 2.27731 -3.69217 0
M  V30 6256 H 580.221 3.89651 -3.90994 0
M  V30 6257 H 582.697 3.64939 -1.99897 0
M  V30 6258 H 581.573 5.01168 -2.23879 0
M  V30 6259 H 581.834 4.37705 -0.621816 0
M  V30 6260 N 580.893 1.08022 1.14757 0
M  V30 6261 C 582.139 0.808705 1.85978 0
M  V30 6262 C 582.472 -0.663764 1.82504 0
M  V30 6263 O 581.747 -1.48765 1.25296 0
M  V30 6264 C 582.03 1.32623 3.34788 0
M  V30 6265 C 581.883 2.86375 3.46856 0
M  V30 6266 C 583.202 0.948291 4.29762 0
M  V30 6267 H 580.321 0.295244 0.675278 0
M  V30 6268 H 582.963 1.33917 1.34783 0
M  V30 6269 H 581.113 0.875002 3.78518 0
M  V30 6270 H 582.785 3.39839 3.11941 0
M  V30 6271 H 581.028 3.24232 2.88194 0
M  V30 6272 H 581.699 3.17658 4.51439 0
M  V30 6273 H 584.175 1.33722 3.94028 0
M  V30 6274 H 583.051 1.33765 5.32352 0
M  V30 6275 H 583.312 -0.145094 4.41862 0
M  V30 6276 N 582.371 -1.3172 0.865308 0
M  V30 6277 C 583.321 -2.26157 0.289305 0
M  V30 6278 C 584.305 -1.50428 -0.570977 0
M  V30 6279 O 585.497 -1.71978 -0.418617 0
M  V30 6280 C 582.626 -3.39457 -0.512237 0
M  V30 6281 C 581.712 -4.22561 0.361028 0
M  V30 6282 N 582.103 -4.84501 1.45231 0
M  V30 6283 C 580.401 -4.45739 0.152641 0
M  V30 6284 C 581.102 -5.46586 1.99043 0
M  V30 6285 N 580.078 -5.28119 1.28809 0
M  V30 6286 H 583.88 -2.71581 1.12344 0
M  V30 6287 H 581.394 -1.45932 0.712565 0
M  V30 6288 H 583.391 -4.06133 -0.941379 0
M  V30 6289 H 582.051 -2.95577 -1.34404 0
M  V30 6290 H 583.062 -4.84293 1.83524 0
M  V30 6291 H 579.739 -4.1251 -0.643583 0
M  V30 6292 H 581.129 -6.05817 2.90577 0
M  V30 6293 N 583.85 -0.624285 -1.44708 0
M  V30 6294 C 585.098 -0.125802 -2.01708 0
M  V30 6295 C 585.418 1.2543 -1.49306 0
M  V30 6296 O 584.689 1.83198 -0.693924 0
M  V30 6297 H 583.269 -0.0435161 -0.745731 0
M  V30 6298 H 585.931 -0.809446 -1.77296 0
M  V30 6299 H 585.027 -0.0882734 -3.11975 0
M  V30 6300 N 585.328 1.53329 -0.364422 0
M  V30 6301 C 586.575 2.01239 0.225634 0
M  V30 6302 C 586.903 1.25172 1.48869 0
M  V30 6303 O 586.158 0.333289 1.92841 0
M  V30 6304 C 586.457 3.52911 0.564661 0
M  V30 6305 C 586.123 4.46837 -0.603936 0
M  V30 6306 C 584.785 4.72234 -0.924585 0
M  V30 6307 C 587.137 5.02409 -1.38691 0
M  V30 6308 C 584.465 5.50454 -2.0302 0
M  V30 6309 C 586.817 5.81836 -2.48293 0
M  V30 6310 C 585.481 6.0552 -2.80894 0
M  V30 6311 H 584.751 0.736386 0.0825654 0
M  V30 6312 H 587.398 1.84948 -0.496645 0
M  V30 6313 H 585.703 3.67144 1.36794 0
M  V30 6314 H 587.4 3.87455 1.03344 0
M  V30 6315 H 583.99 4.27217 -0.343983 0
M  V30 6316 H 588.174 4.82735 -1.15243 0
M  V30 6317 H 583.43 5.67024 -2.28678 0
M  V30 6318 H 587.604 6.23905 -3.0938 0
M  V30 6319 H 585.231 6.65916 -3.66688 0
M  V30 6320 N 586.806 0.0935595 1.57322 0
M  V30 6321 C 587.736 -0.863062 2.16964 0
M  V30 6322 C 588.717 -1.29528 1.10256 0
M  V30 6323 O 589.902 -1.36245 1.38387 0
M  V30 6324 C 587.032 -2.12276 2.74875 0
M  V30 6325 C 585.986 -1.82921 3.86942 0
M  V30 6326 C 585.312 -3.15707 4.31548 0
M  V30 6327 C 586.612 -1.11737 5.10208 0
M  V30 6328 H 588.306 -0.366145 2.97153 0
M  V30 6329 H 585.852 -0.174673 1.42937 0
M  V30 6330 H 587.805 -2.79634 3.1525 0
M  V30 6331 H 586.529 -2.64248 1.91938 0
M  V30 6332 H 585.188 -1.17961 3.47103 0
M  V30 6333 H 584.836 -3.65563 3.45504 0
M  V30 6334 H 584.536 -2.96849 5.07104 0
M  V30 6335 H 586.06 -3.84226 4.74555 0
M  V30 6336 H 587.474 -1.69203 5.47762 0
M  V30 6337 H 585.871 -1.03064 5.91183 0
M  V30 6338 H 586.941 -0.0998818 4.84797 0
M  V30 6339 N 588.284 -1.56567 -0.180126 0
M  V30 6340 C 589.561 -1.7235 -0.924931 0
M  V30 6341 C 589.941 -0.652523 -2.00762 0
M  V30 6342 O 589.289 0.334115 -2.26044 0
M  V30 6343 C 589.499 -3.1523 -1.49771 0
M  V30 6344 C 590.847 -3.75921 -1.97405 0
M  V30 6345 O 591.871 -3.18452 -1.59583 0
M  V30 6346 O 590.73 -4.7681 -2.67048 0
M  V30 6347 H 587.824 -0.703502 -0.434758 0
M  V30 6348 H 590.37 -1.6886 -0.168647 0
M  V30 6349 H 589.142 -3.84656 -0.718027 0
M  V30 6350 H 588.765 -3.23009 -2.31842 0
M  V30 6351 N 589.762 0.448376 -1.51087 0
M  V30 6352 C 590.99 1.22143 -1.66999 0
M  V30 6353 C 591.405 1.85283 -0.362699 0
M  V30 6354 O 590.762 1.70236 0.65772 0
M  V30 6355 C 590.813 2.31357 -2.7777 0
M  V30 6356 O 590.534 1.70801 -4.03434 0
M  V30 6357 C 592.035 3.21836 -3.04855 0
M  V30 6358 H 589.255 0.368558 -0.560719 0
M  V30 6359 H 591.799 0.532618 -1.97442 0
M  V30 6360 H 589.954 2.95973 -2.49958 0
M  V30 6361 H 590.368 2.42895 -4.64868 0
M  V30 6362 H 591.842 3.94627 -3.85971 0
M  V30 6363 H 592.319 3.81949 -2.16821 0
M  V30 6364 H 592.925 2.62933 -3.34285 0
M  V30 6365 N 591.24 1.41047 0.703093 0
M  V30 6366 C 592.188 1.42494 1.83843 0
M  V30 6367 C 593.182 0.303885 1.66652 0
M  V30 6368 O 594.388 0.475544 1.73605 0
M  V30 6369 H 590.763 0.445685 0.605697 0
M  V30 6370 H 592.734 2.38194 1.79739 0
M  V30 6371 C 591.483 1.31666 3.21807 0
M  V30 6372 H 590.806 2.17212 3.35647 0
M  V30 6373 H 592.246 1.36738 4.01346 0
M  V30 6374 C 590.705 0.0281828 3.36888 0
M  V30 6375 O 591.235 -0.929995 3.90786 0
M  V30 6376 N 589.441 -0.0454322 2.90564 0
M  V30 6377 H 588.988 0.735046 2.4689 0
M  V30 6378 H 588.946 -0.906968 3.01034 0
M  V30 6379 N 592.718 -0.936591 1.26751 0
M  V30 6380 C 594.129 -1.49816 1.1141 0
M  V30 6381 C 594.48 -1.9383 -0.304015 0
M  V30 6382 O 593.605 -1.80346 -1.196 0
M  V30 6383 C 594.2 -2.72271 2.01629 0
M  V30 6384 C 592.759 -3.2468 1.9042 0
M  V30 6385 C 591.906 -1.97444 1.94708 0
M  V30 6386 H 594.857 -0.751604 1.39773 0
M  V30 6387 H 594.878 -3.46741 1.56688 0
M  V30 6388 H 594.39 -2.40205 3.04833 0
M  V30 6389 H 592.491 -3.61525 0.901674 0
M  V30 6390 H 592.604 -3.91476 2.76195 0
M  V30 6391 H 590.968 -2.13545 1.38818 0
M  V30 6392 H 591.751 -1.67703 2.9955 0
M  V30 6393 N 594.196 -1.08629 -1.14182 0
M  V30 6394 C 595.159 -0.722027 -2.1753 0
M  V30 6395 C 596.159 0.244305 -1.58933 0
M  V30 6396 O 597.349 0.0235545 -1.74184 0
M  V30 6397 C 594.481 -0.0663966 -3.40835 0
M  V30 6398 H 595.674 -1.63719 -2.51269 0
M  V30 6399 H 593.227 -0.884442 -1.28869 0
M  V30 6400 H 593.962 0.860389 -3.12678 0
M  V30 6401 H 593.747 -0.761598 -3.84632 0
M  V30 6402 H 595.237 0.173346 -4.1724 0
M  V30 6403 N 595.674 1.31259 -0.872281 0
M  V30 6404 C 596.923 1.95893 -0.480493 0
M  V30 6405 C 597.236 1.697 0.972688 0
M  V30 6406 O 598.442 2.28214 1.47073 0
M  V30 6407 C 596.898 3.50705 -0.808342 0
M  V30 6408 C 596.506 3.85735 -2.27844 0
M  V30 6409 C 598.25 4.21719 -0.485136 0
M  V30 6410 C 596.157 5.33668 -2.54858 0
M  V30 6411 H 595.087 0.733182 -0.175955 0
M  V30 6412 H 597.738 1.49396 -1.0655 0
M  V30 6413 H 596.12 3.95706 -0.152558 0
M  V30 6414 H 597.294 3.51686 -2.97748 0
M  V30 6415 H 595.609 3.27792 -2.56791 0
M  V30 6416 H 598.206 5.30559 -0.664166 0
M  V30 6417 H 598.549 4.12316 0.574592 0
M  V30 6418 H 599.082 3.82359 -1.09756 0
M  V30 6419 H 595.821 5.48109 -3.59523 0
M  V30 6420 H 595.341 5.69061 -1.8955 0
M  V30 6421 H 597.02 6.00958 -2.39706 0
M  V30 6422 N 597.152 0.631951 1.44375 0
M  V30 6423 C 598.568 0.297642 1.568 0
M  V30 6424 C 598.768 -1.19916 1.61934 0
M  V30 6425 O 597.824 -1.98324 1.56281 0
M  V30 6426 C 599.137 0.990286 2.83926 0
M  V30 6427 C 600.685 0.968507 2.97639 0
M  V30 6428 C 601.16 1.64163 4.27568 0
M  V30 6429 N 602.651 1.60826 4.34384 0
M  V30 6430 C 603.386 2.09802 5.33639 0
M  V30 6431 N 602.882 2.66973 6.39294 0
M  V30 6432 N 604.675 2.00426 5.25153 0
M  V30 6433 H 596.826 1.60353 1.39286 0
M  V30 6434 H 599.089 0.673142 0.667521 0
M  V30 6435 H 598.795 2.04519 2.8612 0
M  V30 6436 H 598.669 0.528563 3.73478 0
M  V30 6437 H 601.056 -0.0779247 2.94997 0
M  V30 6438 H 601.137 1.46873 2.09433 0
M  V30 6439 H 600.781 2.68752 4.3097 0
M  V30 6440 H 600.711 1.11624 5.14634 0
M  V30 6441 H 603.202 1.19087 3.58646 0
M  V30 6442 H 603.515 3.02074 7.11316 0
M  V30 6443 H 601.86 2.71024 6.39977 0
M  V30 6444 H 605.051 1.55483 4.41523 0
M  V30 6445 H 605.224 2.38906 6.02352 0
M  V30 6446 N 598.631 -1.53133 0.372548 0
M  V30 6447 C 599.541 -2.29671 -0.478379 0
M  V30 6448 C 600.557 -1.35913 -1.08644 0
M  V30 6449 O 601.733 -1.68975 -1.09588 0
M  V30 6450 C 598.798 -3.07625 -1.599 0
M  V30 6451 C 597.859 -4.17061 -1.01776 0
M  V30 6452 C 597.092 -4.91289 -2.08497 0
M  V30 6453 O 597.315 -4.65442 -3.29727 0
M  V30 6454 O 596.249 -5.7705 -1.71164 0
M  V30 6455 H 600.075 -3.03355 0.144649 0
M  V30 6456 H 597.66 -1.48773 0.136729 0
M  V30 6457 H 599.542 -3.56281 -2.25038 0
M  V30 6458 H 598.217 -2.3677 -2.2073 0
M  V30 6459 H 597.124 -3.72641 -0.330098 0
M  V30 6460 H 598.457 -4.90102 -0.453915 0
M  V30 6461 N 600.109 -0.101901 -1.5727 0
M  V30 6462 C 601.041 0.884723 -2.11436 0
M  V30 6463 C 602.054 1.24149 -1.05314 0
M  V30 6464 O 603.243 1.19341 -1.3274 0
M  V30 6465 C 600.343 2.19179 -2.58484 0
M  V30 6466 C 599.516 2.00933 -3.88516 0
M  V30 6467 C 598.575 3.15213 -4.2134 0
M  V30 6468 O 597.601 2.88877 -4.90448 0
M  V30 6469 N 598.803 4.41174 -3.77288 0
M  V30 6470 H 601.568 0.422058 -2.96713 0
M  V30 6471 H 599.129 0.0830128 -1.61687 0
M  V30 6472 H 601.121 2.94593 -2.77484 0
M  V30 6473 H 599.691 2.56847 -1.7818 0
M  V30 6474 H 598.911 1.09809 -3.78597 0
M  V30 6475 H 600.199 1.86026 -4.73573 0
M  V30 6476 H 599.597 4.6545 -3.21516 0
M  V30 6477 H 598.154 5.13515 -4.01429 0
M  V30 6478 N 601.587 1.56661 0.17182 0
M  V30 6479 C 602.815 1.861 0.904115 0
M  V30 6480 C 603.23 0.687227 1.75848 0
M  V30 6481 O 602.587 -0.343671 1.79235 0
M  V30 6482 C 602.638 3.14568 1.78127 0
M  V30 6483 O 602.359 4.27422 0.961366 0
M  V30 6484 C 603.86 3.5735 2.62327 0
M  V30 6485 H 601.08 0.617445 0.262684 0
M  V30 6486 H 603.624 2.03775 0.172068 0
M  V30 6487 H 601.779 2.98721 2.46666 0
M  V30 6488 H 602.193 5.00725 1.56123 0
M  V30 6489 H 603.667 4.50144 3.1949 0
M  V30 6490 H 604.144 2.81445 3.37173 0
M  V30 6491 H 604.75 3.75807 1.99121 0
M  V30 6492 N 603.065 -0.440357 1.51323 0
M  V30 6493 C 604.311 -1.19181 1.64085 0
M  V30 6494 C 604.644 -1.90936 0.354575 0
M  V30 6495 O 603.919 -1.8347 -0.645675 0
M  V30 6496 C 604.202 -2.2112 2.84215 0
M  V30 6497 C 604.055 -1.53468 4.22809 0
M  V30 6498 C 605.374 -3.22133 2.99864 0
M  V30 6499 H 602.493 -0.431924 0.597169 0
M  V30 6500 H 605.135 -0.481443 1.83799 0
M  V30 6501 H 603.285 -2.81703 2.67537 0
M  V30 6502 H 604.957 -0.962455 4.51148 0
M  V30 6503 H 603.2 -0.837086 4.25647 0
M  V30 6504 H 603.871 -2.27694 5.02852 0
M  V30 6505 H 606.347 -2.71601 3.15233 0
M  V30 6506 H 605.223 -3.90756 3.85488 0
M  V30 6507 H 605.484 -3.88061 2.11804 0
M  V30 6508 N 604.543 -1.41418 -0.695603 0
M  V30 6509 C 605.49 -1.43264 -1.80954 0
M  V30 6510 C 606.46 -0.287016 -1.63601 0
M  V30 6511 O 607.645 -0.488054 -1.84452 0
M  V30 6512 C 604.785 -1.32054 -3.18835 0
M  V30 6513 C 603.898 -2.56485 -3.4762 0
M  V30 6514 C 603.033 -2.3757 -4.75115 0
M  V30 6515 C 602.072 -3.57477 -4.96867 0
M  V30 6516 N 601.209 -3.37632 -6.15588 0
M  V30 6517 H 606.049 -2.38467 -1.78711 0
M  V30 6518 H 603.586 -1.18415 -0.872715 0
M  V30 6519 H 605.544 -1.23558 -3.98484 0
M  V30 6520 H 604.174 -0.404592 -3.20254 0
M  V30 6521 H 603.226 -2.75432 -2.62376 0
M  V30 6522 H 604.538 -3.45678 -3.59594 0
M  V30 6523 H 603.692 -2.2654 -5.62818 0
M  V30 6524 H 602.431 -1.45834 -4.65386 0
M  V30 6525 H 601.436 -3.68961 -4.07612 0
M  V30 6526 H 602.661 -4.50167 -5.08455 0
M  V30 6527 H 600.607 -2.48596 -6.07072 0
M  V30 6528 H 600.524 -4.20401 -6.2833 0
M  V30 6529 H 601.792 -3.30375 -7.06026 0
M  V30 6530 N 606.021 0.929856 -1.27246 0
M  V30 6531 C 607.246 1.71674 -1.16374 0
M  V30 6532 C 607.671 1.86064 0.276024 0
M  V30 6533 O 607.029 1.3591 1.19992 0
M  V30 6534 C 607.077 3.09526 -1.85003 0
M  V30 6535 O 606.181 3.96142 -1.14653 0
M  V30 6536 H 605.522 0.52629 -0.404863 0
M  V30 6537 H 608.052 1.16381 -1.68276 0
M  V30 6538 H 608.062 3.59852 -1.92276 0
M  V30 6539 H 606.737 2.98369 -2.89739 0
M  V30 6540 H 605.314 3.54584 -1.15433 0
M  V30 6541 N 607.499 1.09233 1.13605 0
M  V30 6542 C 608.432 0.6739 2.18023 0
M  V30 6543 C 609.41 -0.318603 1.59448 0
M  V30 6544 O 610.594 -0.220452 1.87206 0
M  V30 6545 C 607.721 -0.00751458 3.38699 0
M  V30 6546 C 606.767 0.946481 4.15865 0
M  V30 6547 S 607.6 2.45753 4.75779 0
M  V30 6548 C 608.756 1.78846 5.99804 0
M  V30 6549 H 608.989 1.55846 2.53178 0
M  V30 6550 H 606.522 0.908118 1.2487 0
M  V30 6551 H 608.48 -0.394368 4.08601 0
M  V30 6552 H 607.141 -0.868693 3.01849 0
M  V30 6553 H 606.334 0.416742 5.02274 0
M  V30 6554 H 605.936 1.27464 3.51609 0
M  V30 6555 H 608.228 1.11135 6.68323 0
M  V30 6556 H 609.171 2.63163 6.57382 0
M  V30 6557 H 609.579 1.25823 5.50299 0
M  V30 6558 N 608.977 -1.30795 0.87923 0
M  V30 6559 C 609.907 -2.30742 0.357796 0
M  V30 6560 C 610.888 -1.60747 -0.556283 0
M  V30 6561 O 612.073 -1.88393 -0.47135 0
M  V30 6562 C 609.203 -3.44583 -0.433555 0
M  V30 6563 C 608.157 -4.26235 0.388251 0
M  V30 6564 C 607.483 -5.32073 -0.529352 0
M  V30 6565 C 608.783 -4.96303 1.62729 0
M  V30 6566 H 610.477 -2.74605 1.19299 0
M  V30 6567 H 608.023 -1.32017 0.575104 0
M  V30 6568 H 609.976 -4.13563 -0.808934 0
M  V30 6569 H 608.7 -2.99511 -1.30234 0
M  V30 6570 H 607.359 -3.58936 0.745695 0
M  V30 6571 H 607.007 -4.83249 -1.39569 0
M  V30 6572 H 606.707 -5.87598 0.0166741 0
M  V30 6573 H 608.231 -6.0391 -0.901373 0
M  V30 6574 H 609.645 -5.5783 1.32283 0
M  V30 6575 H 608.042 -5.61666 2.11309 0
M  V30 6576 H 609.112 -4.22758 2.37494 0
M  V30 6577 N 610.455 -0.639598 -1.44038 0
M  V30 6578 C 611.385 0.0469443 -2.33453 0
M  V30 6579 C 612.366 0.82609 -1.48694 0
M  V30 6580 O 613.551 0.790285 -1.77393 0
M  V30 6581 C 610.681 1.02338 -3.3188 0
M  V30 6582 C 609.635 0.355284 -4.26523 0
M  V30 6583 C 608.961 1.44221 -5.14883 0
M  V30 6584 C 610.261 -0.743798 -5.16977 0
M  V30 6585 H 611.955 -0.699735 -2.91108 0
M  V30 6586 H 609.501 -0.337946 -1.39978 0
M  V30 6587 H 611.454 1.51247 -3.93322 0
M  V30 6588 H 610.178 1.80105 -2.72451 0
M  V30 6589 H 608.837 -0.113239 -3.66425 0
M  V30 6590 H 608.485 2.21097 -4.51802 0
M  V30 6591 H 608.185 1.00052 -5.79019 0
M  V30 6592 H 609.709 1.93295 -5.79197 0
M  V30 6593 H 611.123 -0.337444 -5.72306 0
M  V30 6594 H 609.52 -1.10914 -5.89761 0
M  V30 6595 H 610.59 -1.60745 -4.57481 0
M  V30 6596 N 611.933 1.52934 -0.380664 0
M  V30 6597 C 612.863 2.29118 0.450268 0
M  V30 6598 C 613.844 1.32153 1.07096 0
M  V30 6599 O 615.029 1.61038 1.08537 0
M  V30 6600 C 612.159 3.09161 1.58231 0
M  V30 6601 C 611.113 4.13938 1.0881 0
M  V30 6602 C 610.439 4.82153 2.31155 0
M  V30 6603 C 611.739 5.22048 0.162146 0
M  V30 6604 H 613.433 2.98826 -0.185361 0
M  V30 6605 H 610.979 1.43715 -0.0905886 0
M  V30 6606 H 612.932 3.61211 2.17036 0
M  V30 6607 H 611.656 2.3717 2.2454 0
M  V30 6608 H 610.315 3.62855 0.522633 0
M  V30 6609 H 609.963 4.06719 2.95953 0
M  V30 6610 H 609.663 5.52966 1.98752 0
M  V30 6611 H 611.187 5.37004 2.90618 0
M  V30 6612 H 612.601 5.6951 0.658126 0
M  V30 6613 H 610.998 6.00057 -0.0717122 0
M  V30 6614 H 612.068 4.78398 -0.791438 0
M  V30 6615 N 613.412 0.11024 1.57214 0
M  V30 6616 C 614.375 -0.828808 2.1369 0
M  V30 6617 C 615.375 -1.20059 1.06969 0
M  V30 6618 O 616.565 -1.12754 1.32786 0
M  V30 6619 C 613.697 -2.11959 2.66994 0
M  V30 6620 H 614.89 -0.338146 2.97988 0
M  V30 6621 H 612.443 -0.138913 1.55681 0
M  V30 6622 H 613.178 -2.65476 1.8626 0
M  V30 6623 H 612.963 -1.86258 3.45037 0
M  V30 6624 H 614.453 -2.79105 3.10629 0
M  V30 6625 N 614.89 -1.56749 -0.16351 0
M  V30 6626 C 616.301 -1.72039 -0.725216 0
M  V30 6627 C 616.652 -0.72202 -1.82432 0
M  V30 6628 O 615.777 0.114942 -2.16095 0
M  V30 6629 C 616.372 -3.11932 -1.32227 0
M  V30 6630 C 614.931 -3.28879 -1.83072 0
M  V30 6631 C 614.078 -2.67984 -0.712716 0
M  V30 6632 H 617.029 -1.58579 0.0619772 0
M  V30 6633 H 617.05 -3.11015 -2.19202 0
M  V30 6634 H 616.562 -3.84572 -0.522103 0
M  V30 6635 H 614.663 -2.61209 -2.65708 0
M  V30 6636 H 614.776 -4.36688 -1.97079 0
M  V30 6637 H 613.14 -2.28005 -1.13515 0
M  V30 6638 H 613.923 -3.43216 0.0757361 0
M  V30 6639 N 616.368 0.432326 -1.51554 0
M  V30 6640 C 617.315 1.52512 -1.7323 0
M  V30 6641 C 618.285 1.55863 -0.5741 0
M  V30 6642 O 619.47 1.72796 -0.809093 0
M  V30 6643 C 616.61 2.90183 -1.86783 0
M  V30 6644 C 615.723 2.96322 -3.14352 0
M  V30 6645 C 614.858 4.25147 -3.18471 0
M  V30 6646 C 613.897 4.25172 -4.40335 0
M  V30 6647 N 613.034 5.45529 -4.41975 0
M  V30 6648 H 617.874 1.33332 -2.66508 0
M  V30 6649 H 615.411 0.647613 -1.32077 0
M  V30 6650 H 617.369 3.70071 -1.92623 0
M  V30 6651 H 615.999 3.0791 -0.969087 0
M  V30 6652 H 615.051 2.09066 -3.17798 0
M  V30 6653 H 616.363 2.92203 -4.04251 0
M  V30 6654 H 615.517 5.13411 -3.23255 0
M  V30 6655 H 614.256 4.31929 -2.2647 0
M  V30 6656 H 613.261 3.353 -4.35723 0
M  V30 6657 H 614.486 4.20049 -5.33606 0
M  V30 6658 H 612.432 5.53024 -3.52847 0
M  V30 6659 H 612.349 5.43311 -5.25689 0
M  V30 6660 H 613.617 6.35812 -4.50958 0
M  V30 6661 N 617.846 1.41785 0.688094 0
M  V30 6662 C 618.776 1.47 1.8142 0
M  V30 6663 C 619.757 0.327881 1.6691 0
M  V30 6664 O 620.942 0.540362 1.86531 0
M  V30 6665 C 618.072 1.35876 3.19617 0
M  V30 6666 C 617.026 2.47976 3.48844 0
M  V30 6667 C 616.352 2.21915 4.86475 0
M  V30 6668 C 617.652 3.90309 3.47068 0
M  V30 6669 H 619.346 2.41247 1.77314 0
M  V30 6670 H 616.892 1.16116 0.851651 0
M  V30 6671 H 618.845 1.38134 3.98117 0
M  V30 6672 H 617.569 0.38116 3.24368 0
M  V30 6673 H 616.228 2.45013 2.72698 0
M  V30 6674 H 615.876 1.2248 4.8786 0
M  V30 6675 H 615.576 2.97037 5.06994 0
M  V30 6676 H 617.1 2.25901 5.67275 0
M  V30 6677 H 618.514 3.94947 4.1556 0
M  V30 6678 H 616.911 4.65175 3.7912 0
M  V30 6679 H 617.981 4.17927 2.45896 0
M  V30 6680 N 619.324 -0.923095 1.27737 0
M  V30 6681 C 620.272 -2.04567 1.10703 0
M  V30 6682 C 621.266 -1.69375 0.0288445 0
M  V30 6683 O 622.472 -1.79027 0.186913 0
M  V30 6684 H 618.847 -0.670109 0.34126 0
M  V30 6685 H 620.818 -2.1608 2.05796 0
M  V30 6686 C 619.567 -3.38934 0.775837 0
M  V30 6687 H 618.89 -3.66501 1.59741 0
M  V30 6688 H 620.33 -4.18239 0.696548 0
M  V30 6689 C 618.789 -3.32863 -0.520012 0
M  V30 6690 O 619.319 -3.70462 -1.55308 0
M  V30 6691 N 617.525 -2.85958 -0.51732 0
M  V30 6692 H 617.072 -2.55557 0.32379 0
M  V30 6693 H 617.03 -2.82279 -1.38441 0
M  V30 6694 N 620.802 -1.09834 -1.13024 0
M  V30 6695 C 621.712 -0.753731 -2.22162 0
M  V30 6696 C 622.728 0.246105 -1.72251 0
M  V30 6697 O 623.904 0.0864051 -2.01215 0
M  V30 6698 C 620.969 -0.183958 -3.46212 0
M  V30 6699 C 620.03 -1.24028 -4.10993 0
M  V30 6700 C 619.263 -0.697597 -5.29121 0
M  V30 6701 O 619.486 0.478092 -5.68393 0
M  V30 6702 O 618.42 -1.4546 -5.84059 0
M  V30 6703 H 622.246 -1.66456 -2.5402 0
M  V30 6704 H 619.831 -0.873026 -1.21238 0
M  V30 6705 H 621.713 0.130257 -4.21199 0
M  V30 6706 H 620.388 0.699823 -3.16045 0
M  V30 6707 H 619.295 -1.60725 -3.37814 0
M  V30 6708 H 620.628 -2.09685 -4.45301 0
M  V30 6709 N 622.28 1.30327 -0.886154 0
M  V30 6710 C 623.243 2.26376 -0.358687 0
M  V30 6711 C 624.243 1.52845 0.499498 0
M  V30 6712 O 625.433 1.71483 0.306485 0
M  V30 6713 C 622.565 3.37379 0.488726 0
M  V30 6714 H 623.758 2.74547 -1.20681 0
M  V30 6715 H 621.311 1.41536 -0.663113 0
M  V30 6716 H 622.046 2.94526 1.35739 0
M  V30 6717 H 621.831 3.91897 -0.126003 0
M  V30 6718 H 623.321 4.08868 0.84952 0
M  V30 6719 N 623.758 0.647228 1.43697 0
M  V30 6720 C 624.706 -0.0600105 2.32523 0
M  V30 6721 C 625.7 -0.819277 1.48271 0
M  V30 6722 O 626.906 -0.730356 1.64517 0
M  V30 6723 H 623.281 -0.0381872 0.75103 0
M  V30 6724 H 625.252 0.706978 2.89904 0
M  V30 6725 C 624.001 -1.0169 3.32497 0
M  V30 6726 H 623.324 -0.442083 3.97348 0
M  V30 6727 H 624.764 -1.48095 3.97296 0
M  V30 6728 C 623.223 -2.11002 2.6264 0
M  V30 6729 O 623.753 -3.19302 2.4374 0
M  V30 6730 N 621.959 -1.87388 2.22113 0
M  V30 6731 H 621.506 -0.993174 2.37684 0
M  V30 6732 H 621.464 -2.60723 1.75701 0
M  V30 6733 N 625.236 -1.5273 0.388769 0
M  V30 6734 C 626.166 -2.29353 -0.438111 0
M  V30 6735 C 627.147 -1.32719 -1.06394 0
M  V30 6736 O 628.332 -1.61612 -1.07681 0
M  V30 6737 C 625.462 -3.09995 -1.56589 0
M  V30 6738 C 624.416 -4.14509 -1.06613 0
M  V30 6739 C 623.742 -4.83372 -2.28594 0
M  V30 6740 C 625.042 -5.22127 -0.134459 0
M  V30 6741 H 626.736 -2.98723 0.201206 0
M  V30 6742 H 624.282 -1.43665 0.0982089 0
M  V30 6743 H 626.235 -3.62357 -2.15118 0
M  V30 6744 H 624.959 -2.38357 -2.23279 0
M  V30 6745 H 623.618 -3.63128 -0.503383 0
M  V30 6746 H 623.266 -4.08283 -2.93792 0
M  V30 6747 H 622.966 -5.54012 -1.95817 0
M  V30 6748 H 624.49 -5.38538 -2.87766 0
M  V30 6749 H 625.904 -5.69851 -0.627914 0
M  V30 6750 H 624.301 -6.00011 0.103534 0
M  V30 6751 H 625.371 -4.77971 0.816798 0
M  V30 6752 N 626.714 -0.118576 -1.57153 0
M  V30 6753 C 627.662 0.849114 -2.16547 0
M  V30 6754 C 628.656 1.27567 -1.11458 0
M  V30 6755 O 629.862 1.24746 -1.29763 0
M  V30 6756 H 626.237 0.291935 -0.693021 0
M  V30 6757 H 628.208 0.323693 -2.96639 0
M  V30 6758 C 626.957 2.08951 -2.77912 0
M  V30 6759 H 626.28 1.77021 -3.58474 0
M  V30 6760 H 627.72 2.74666 -3.23008 0
M  V30 6761 C 626.179 2.87899 -1.74974 0
M  V30 6762 O 626.709 3.83268 -1.20285 0
M  V30 6763 N 624.915 2.51884 -1.44924 0
M  V30 6764 H 624.462 1.74397 -1.89587 0
M  V30 6765 H 624.42 3.05003 -0.762921 0
M  V30 6766 N 628.193 1.56834 0.155195 0
M  V30 6767 C 629.439 1.83169 0.870467 0
M  V30 6768 C 629.772 0.698929 1.81187 0
M  V30 6769 O 629.047 -0.298035 1.92203 0
M  V30 6770 C 629.33 3.19965 1.65211 0
M  V30 6771 C 629.183 4.43792 0.732744 0
M  V30 6772 C 630.502 3.53885 2.61636 0
M  V30 6773 H 627.621 0.666288 0.315006 0
M  V30 6774 H 630.263 1.89513 0.135988 0
M  V30 6775 H 628.413 3.14687 2.27825 0
M  V30 6776 H 630.085 4.61148 0.118236 0
M  V30 6777 H 628.328 4.3378 0.0417906 0
M  V30 6778 H 628.999 5.36095 1.31552 0
M  V30 6779 H 631.475 3.5972 2.09143 0
M  V30 6780 H 630.351 4.50648 3.13381 0
M  V30 6781 H 630.612 2.79418 3.42605 0
M  V30 6782 N 629.671 -0.424282 1.51781 0
M  V30 6783 C 630.581 -1.54087 1.76902 0
M  V30 6784 C 631.597 -1.61249 0.653826 0
M  V30 6785 O 632.773 -1.78247 0.937552 0
M  V30 6786 C 629.838 -2.8996 1.90063 0
M  V30 6787 C 628.899 -2.92809 3.13945 0
M  V30 6788 C 628.132 -4.22201 3.26469 0
M  V30 6789 O 628.355 -5.15286 2.44616 0
M  V30 6790 O 627.289 -4.31599 4.1953 0
M  V30 6791 H 631.115 -1.358 2.71647 0
M  V30 6792 H 628.7 -0.608618 1.36441 0
M  V30 6793 H 630.582 -3.70575 2.0063 0
M  V30 6794 H 629.257 -3.08347 0.985067 0
M  V30 6795 H 628.164 -2.11102 3.08847 0
M  V30 6796 H 629.497 -2.79369 4.05233 0
M  V30 6797 N 631.149 -1.42148 -0.680565 0
M  V30 6798 C 632.079 -1.4796 -1.80638 0
M  V30 6799 C 633.06 -0.336728 -1.66734 0
M  V30 6800 O 634.245 -0.550247 -1.86242 0
M  V30 6801 C 631.375 -1.37569 -3.18892 0
M  V30 6802 C 630.329 -2.49823 -3.47524 0
M  V30 6803 C 629.655 -2.24491 -4.85291 0
M  V30 6804 C 630.955 -3.92144 -3.44994 0
M  V30 6805 H 632.649 -2.42184 -1.76032 0
M  V30 6806 H 630.195 -1.16566 -0.845481 0
M  V30 6807 H 632.148 -1.40243 -3.97379 0
M  V30 6808 H 630.872 -0.398357 -3.24162 0
M  V30 6809 H 629.531 -2.46455 -2.71395 0
M  V30 6810 H 629.179 -1.25066 -4.87204 0
M  V30 6811 H 628.879 -2.99722 -5.05411 0
M  V30 6812 H 630.403 -2.28906 -5.66069 0
M  V30 6813 H 631.817 -3.97145 -4.13459 0
M  V30 6814 H 630.214 -4.67179 -3.76648 0
M  V30 6815 H 631.284 -4.19225 -2.43676 0
M  V30 6816 N 632.627 0.916307 -1.28225 0
M  V30 6817 C 633.56 2.01954 -1.06254 0
M  V30 6818 C 634.538 1.62587 0.0205983 0
M  V30 6819 O 635.722 1.88073 -0.126824 0
M  V30 6820 C 632.849 3.33086 -0.614141 0
M  V30 6821 C 631.895 3.91435 -1.69354 0
M  V30 6822 S 632.728 4.22603 -3.28887 0
M  V30 6823 C 633.884 5.568 -2.85876 0
M  V30 6824 H 634.117 2.20281 -1.99659 0
M  V30 6825 H 631.65 1.06085 -1.12184 0
M  V30 6826 H 633.608 4.089 -0.36213 0
M  V30 6827 H 632.269 3.12664 0.300036 0
M  V30 6828 H 631.462 4.86098 -1.33136 0
M  V30 6829 H 631.064 3.22248 -1.89821 0
M  V30 6830 H 633.356 6.3658 -2.31888 0
M  V30 6831 H 634.299 5.97927 -3.79326 0
M  V30 6832 H 634.707 5.17865 -2.24669 0
M  V30 6833 N 634.105 1.10431 1.1244 0
M  V30 6834 C 635.052 0.753103 2.18167 0
M  V30 6835 C 636.022 -0.270549 1.63882 0
M  V30 6836 O 637.207 -0.149837 1.90211 0
M  V30 6837 C 634.347 0.191046 3.44571 0
M  V30 6838 C 633.46 1.26999 4.12911 0
M  V30 6839 C 632.595 0.669586 5.26963 0
M  V30 6840 C 631.634 1.72912 5.87169 0
M  V30 6841 N 630.771 1.14898 6.92635 0
M  V30 6842 H 635.611 1.65892 2.47556 0
M  V30 6843 H 633.148 0.828631 1.21541 0
M  V30 6844 H 635.106 -0.152712 4.1692 0
M  V30 6845 H 633.736 -0.677997 3.15599 0
M  V30 6846 H 632.788 1.73087 3.3874 0
M  V30 6847 H 634.1 2.07204 4.53727 0
M  V30 6848 H 633.254 0.275274 6.06075 0
M  V30 6849 H 631.993 -0.163895 4.87425 0
M  V30 6850 H 630.998 2.13286 5.06744 0
M  V30 6851 H 632.223 2.56544 6.28778 0
M  V30 6852 H 630.169 0.336956 6.55134 0
M  V30 6853 H 630.086 1.88786 7.32049 0
M  V30 6854 H 631.354 0.78121 7.75576 0
M  V30 6855 N 635.583 -1.29855 0.893053 0
M  V30 6856 C 636.533 -2.25493 0.337211 0
M  V30 6857 C 637.517 -1.51606 -0.53894 0
M  V30 6858 O 638.709 -1.72828 -0.382043 0
M  V30 6859 C 635.838 -3.40467 -0.440117 0
M  V30 6860 C 634.924 -4.217 0.450578 0
M  V30 6861 N 635.315 -4.81312 1.55476 0
M  V30 6862 C 633.613 -4.45315 0.247154 0
M  V30 6863 C 634.314 -5.42241 2.10593 0
M  V30 6864 N 633.29 -5.25267 1.39982 0
M  V30 6865 H 637.092 -2.69137 1.18079 0
M  V30 6866 H 634.606 -1.44388 0.743359 0
M  V30 6867 H 636.603 -4.08038 -0.855021 0
M  V30 6868 H 635.263 -2.98361 -1.28104 0
M  V30 6869 H 636.274 -4.80291 1.93755 0
M  V30 6870 H 632.951 -4.13782 -0.555939 0
M  V30 6871 H 634.341 -5.99517 3.03362 0
M  V30 6872 N 637.061 -0.65484 -1.43351 0
M  V30 6873 C 638.308 -0.168892 -2.01794 0
M  V30 6874 C 638.636 1.2177 -1.51665 0
M  V30 6875 O 637.891 1.82717 -0.70092 0
M  V30 6876 C 638.19 -0.130424 -3.57162 0
M  V30 6877 C 637.856 -1.45898 -4.26643 0
M  V30 6878 C 636.518 -1.82279 -4.4534 0
M  V30 6879 C 638.87 -2.33485 -4.65976 0
M  V30 6880 C 636.198 -3.0591 -5.00635 0
M  V30 6881 C 638.55 -3.5641 -5.22642 0
M  V30 6882 C 637.214 -3.92985 -5.39555 0
M  V30 6883 H 636.484 -0.061802 -0.738418 0
M  V30 6884 H 639.131 -0.845869 -1.71806 0
M  V30 6885 H 637.436 0.630008 -3.86702 0
M  V30 6886 H 639.133 0.262465 -4.0014 0
M  V30 6887 H 635.723 -1.16591 -4.12437 0
M  V30 6888 H 639.907 -2.06668 -4.51223 0
M  V30 6889 H 635.163 -3.34295 -5.11915 0
M  V30 6890 H 639.337 -4.24495 -5.52066 0
M  V30 6891 H 636.964 -4.88862 -5.82167 0
M  V30 6892 N 638.539 1.52521 -0.396863 0
M  V30 6893 C 639.502 2.2527 0.422604 0
M  V30 6894 C 640.502 1.27184 0.983913 0
M  V30 6895 O 641.692 1.51222 0.864723 0
M  V30 6896 C 638.824 3.01356 1.59365 0
M  V30 6897 H 640.017 2.99133 -0.214416 0
M  V30 6898 H 637.57 1.55587 -0.149128 0
M  V30 6899 H 638.305 2.31813 2.26789 0
M  V30 6900 H 638.09 3.73357 1.19779 0
M  V30 6901 H 639.58 3.56571 2.17363 0
M  V30 6902 N 640.017 0.126909 1.57088 0
M  V30 6903 C 641.433 -0.229641 1.57939 0
M  V30 6904 C 641.633 -1.66145 1.1401 0
M  V30 6905 O 640.689 -2.3843 0.831119 0
M  V30 6906 C 642.002 0.0108648 3.00698 0
M  V30 6907 C 643.55 -0.054418 3.12953 0
M  V30 6908 C 644.025 0.158497 4.57726 0
M  V30 6909 N 645.516 0.104735 4.63082 0
M  V30 6910 C 646.251 0.24427 5.72879 0
M  V30 6911 N 645.747 0.440415 6.91399 0
M  V30 6912 N 647.54 0.183286 5.61801 0
M  V30 6913 H 639.691 1.06203 1.83942 0
M  V30 6914 H 641.954 0.418834 0.85046 0
M  V30 6915 H 641.66 1.00102 3.37154 0
M  V30 6916 H 641.534 -0.717512 3.70313 0
M  V30 6917 H 643.921 -1.0351 2.7635 0
M  V30 6918 H 644.002 0.705967 2.45865 0
M  V30 6919 H 643.646 1.13619 4.95028 0
M  V30 6920 H 643.576 -0.62197 5.22914 0
M  V30 6921 H 646.067 -0.0430298 3.77876 0
M  V30 6922 H 646.38 0.537536 7.70928 0
M  V30 6923 H 644.725 0.476488 6.93365 0
M  V30 6924 H 647.916 0.0309561 4.6809 0
M  V30 6925 H 648.089 0.295471 6.47326 0
M  V30 6926 N 641.495 -1.56914 -0.146875 0
M  V30 6927 C 642.425 -2.01308 -1.1831 0
M  V30 6928 C 643.406 -0.892664 -1.44795 0
M  V30 6929 O 644.591 -1.16048 -1.55713 0
M  V30 6930 C 641.721 -2.3938 -2.51624 0
M  V30 6931 C 640.675 -3.54608 -2.3966 0
M  V30 6932 C 640.001 -3.78493 -3.77686 0
M  V30 6933 C 641.301 -4.87269 -1.88058 0
M  V30 6934 H 642.995 -2.88123 -0.813964 0
M  V30 6935 H 640.541 -1.38615 -0.3901 0
M  V30 6936 H 642.494 -2.69037 -3.24341 0
M  V30 6937 H 641.218 -1.49502 -2.90373 0
M  V30 6938 H 639.877 -3.25116 -1.69396 0
M  V30 6939 H 639.525 -2.85866 -4.13871 0
M  V30 6940 H 639.225 -4.56039 -3.70543 0
M  V30 6941 H 640.749 -4.10576 -4.51951 0
M  V30 6942 H 642.163 -5.15644 -2.50568 0
M  V30 6943 H 640.56 -5.68622 -1.91805 0
M  V30 6944 H 641.63 -4.77634 -0.836277 0
M  V30 6945 N 642.974 0.416227 -1.52004 0
M  V30 6946 C 643.906 1.52552 -1.71058 0
M  V30 6947 C 644.919 1.51693 -0.59102 0
M  V30 6948 O 646.108 1.56087 -0.865973 0
M  V30 6949 C 643.208 2.91455 -1.72937 0
M  V30 6950 C 642.381 3.16584 -3.01816 0
M  V30 6951 C 641.44 4.35322 -2.95603 0
M  V30 6952 O 640.466 4.32947 -3.6952 0
M  V30 6953 N 641.668 5.40049 -2.12903 0
M  V30 6954 H 644.433 1.36604 -2.66757 0
M  V30 6955 H 641.994 0.60544 -1.50153 0
M  V30 6956 H 643.986 3.68944 -1.66321 0
M  V30 6957 H 642.556 3.00895 -0.847418 0
M  V30 6958 H 641.776 2.27203 -3.22137 0
M  V30 6959 H 643.064 3.30213 -3.87088 0
M  V30 6960 H 642.462 5.44823 -1.52265 0
M  V30 6961 H 641.019 6.16308 -2.1215 0
M  V30 6962 N 644.452 1.42507 0.673017 0
M  V30 6963 C 645.415 1.4582 1.76831 0
M  V30 6964 C 646.415 0.345542 1.57043 0
M  V30 6965 O 647.605 0.606447 1.63303 0
M  V30 6966 C 644.737 1.29158 3.15485 0
M  V30 6967 H 645.93 2.43345 1.7528 0
M  V30 6968 H 643.483 1.28981 0.882817 0
M  V30 6969 H 644.218 0.325626 3.22661 0
M  V30 6970 H 644.003 2.09797 3.31252 0
M  V30 6971 H 645.493 1.34363 3.95394 0
M  V30 6972 N 645.93 -0.909495 1.28709 0
M  V30 6973 C 646.877 -2.01245 1.13 0
M  V30 6974 C 647.847 -1.6608 0.0259684 0
M  V30 6975 O 649.032 -1.89835 0.191687 0
M  V30 6976 C 646.172 -3.35644 0.802315 0
M  V30 6977 C 645.285 -3.83653 1.98582 0
M  V30 6978 C 644.42 -5.06582 1.59837 0
M  V30 6979 C 643.459 -5.46934 2.74827 0
M  V30 6980 N 642.596 -6.61053 2.36546 0
M  V30 6981 H 647.436 -2.14013 2.0737 0
M  V30 6982 H 644.973 -1.0482 1.03205 0
M  V30 6983 H 646.931 -4.12963 0.593057 0
M  V30 6984 H 645.561 -3.22631 -0.104457 0
M  V30 6985 H 644.613 -3.02454 2.30708 0
M  V30 6986 H 645.925 -4.09515 2.84779 0
M  V30 6987 H 645.079 -5.91457 1.35143 0
M  V30 6988 H 643.818 -4.82537 0.707753 0
M  V30 6989 H 642.823 -4.60599 3.00215 0
M  V30 6990 H 644.048 -5.72965 3.64538 0
M  V30 6991 H 641.994 -6.3863 1.49959 0
M  V30 6992 H 641.911 -6.86662 3.16277 0
M  V30 6993 H 643.179 -7.49221 2.15146 0
M  V30 6994 N 647.408 -1.11026 -1.11852 0
M  V30 6995 C 648.685 -0.768347 -1.79877 0
M  V30 6996 C 649.065 0.744261 -1.97545 0
M  V30 6997 O 648.413 1.67271 -1.55669 0
M  V30 6998 C 648.623 -1.52648 -3.13846 0
M  V30 6999 C 649.971 -1.70297 -3.88953 0
M  V30 7000 O 650.995 -1.49037 -3.23522 0
M  V30 7001 O 649.854 -2.05593 -5.06353 0
M  V30 7002 H 646.948 -0.277891 -0.778913 0
M  V30 7003 H 649.494 -1.21343 -1.18633 0
M  V30 7004 H 648.266 -2.55564 -2.96315 0
M  V30 7005 H 647.889 -1.07466 -3.82801 0
M  V30 7006 N 648.886 1.2938 -0.899927 0
M  V30 7007 C 649.796 2.31462 -0.382437 0
M  V30 7008 C 650.812 1.65956 0.522929 0
M  V30 7009 O 651.988 1.97131 0.412454 0
M  V30 7010 C 649.053 3.44595 0.381472 0
M  V30 7011 C 648.114 4.25692 -0.555444 0
M  V30 7012 C 647.347 5.33422 0.172102 0
M  V30 7013 O 647.57 5.53053 1.396 0
M  V30 7014 O 646.504 5.99939 -0.485491 0
M  V30 7015 H 650.33 2.77706 -1.22934 0
M  V30 7016 H 647.915 1.33821 -0.664259 0
M  V30 7017 H 649.797 4.13474 0.813442 0
M  V30 7018 H 648.472 3.00458 1.20443 0
M  V30 7019 H 647.379 3.59453 -1.03653 0
M  V30 7020 H 648.712 4.73471 -1.34483 0
M  V30 7021 N 650.364 0.662433 1.43002 0
M  V30 7022 C 651.296 -0.062326 2.29115 0
M  V30 7023 C 652.309 -0.777926 1.43011 0
M  V30 7024 O 653.498 -0.634146 1.66856 0
M  V30 7025 C 650.598 -1.11163 3.2015 0
M  V30 7026 C 649.771 -0.472327 4.34842 0
M  V30 7027 C 648.83 -1.41974 5.06685 0
M  V30 7028 O 647.856 -0.924795 5.61637 0
M  V30 7029 N 649.058 -2.75345 5.11043 0
M  V30 7030 H 651.823 0.676838 2.91957 0
M  V30 7031 H 649.384 0.505907 1.53793 0
M  V30 7032 H 651.376 -1.74643 3.65078 0
M  V30 7033 H 649.946 -1.75266 2.58845 0
M  V30 7034 H 649.166 0.341751 3.92716 0
M  V30 7035 H 650.454 -0.0264381 5.08793 0
M  V30 7036 H 649.852 -3.18108 4.67786 0
M  V30 7037 H 648.409 -3.34105 5.59658 0
M  V30 7038 N 651.842 -1.52309 0.404946 0
M  V30 7039 C 653.09 -2.01368 -0.17186 0
M  V30 7040 C 653.411 -1.29261 -1.46002 0
M  V30 7041 O 652.681 -0.41729 -1.91404 0
M  V30 7042 H 651.261 -0.744034 -0.0664993 0
M  V30 7043 H 653.923 -1.87263 0.540228 0
M  V30 7044 H 653.019 -3.09888 -0.370957 0
M  V30 7045 N 653.32 -0.135238 -1.57019 0
M  V30 7046 C 654.731 0.387521 -1.82634 0
M  V30 7047 C 655.082 1.65528 -1.05332 0
M  V30 7048 O 654.207 2.14381 -0.294926 0
M  V30 7049 C 654.802 0.709852 -3.3128 0
M  V30 7050 C 653.361 1.17718 -3.57518 0
M  V30 7051 C 652.508 0.194183 -2.76619 0
M  V30 7052 H 655.459 -0.360126 -1.5456 0
M  V30 7053 H 655.48 1.5657 -3.46794 0
M  V30 7054 H 654.992 -0.213024 -3.87515 0
M  V30 7055 H 653.093 2.1164 -3.06658 0
M  V30 7056 H 653.206 1.11128 -4.66034 0
M  V30 7057 H 651.57 0.684478 -2.4533 0
M  V30 7058 H 652.353 -0.722076 -3.3562 0
M  V30 7059 N 654.798 1.5699 0.138552 0
M  V30 7060 C 656.047 1.82998 0.848205 0
M  V30 7061 C 656.36 0.717829 1.81952 0
M  V30 7062 O 657.566 0.863756 2.57394 0
M  V30 7063 C 656.022 3.24379 1.55904 0
M  V30 7064 C 655.63 4.43552 0.62971 0
M  V30 7065 C 657.374 3.59654 2.25498 0
M  V30 7066 C 655.281 5.75957 1.34266 0
M  V30 7067 H 654.211 0.682495 0.320495 0
M  V30 7068 H 656.862 1.83222 0.100924 0
M  V30 7069 H 655.244 3.18567 2.35226 0
M  V30 7070 H 656.418 4.6062 -0.128882 0
M  V30 7071 H 654.733 4.16379 0.0417526 0
M  V30 7072 H 657.33 4.55837 2.79493 0
M  V30 7073 H 657.673 2.86124 3.02388 0
M  V30 7074 H 658.206 3.67164 1.53087 0
M  V30 7075 H 654.945 6.52604 0.615441 0
M  V30 7076 H 654.465 5.62811 2.07375 0
M  V30 7077 H 656.144 6.19046 1.88126 0
M  V30 7078 N 656.276 -0.40816 1.52223 0
M  V30 7079 C 657.692 -0.74685 1.41047 0
M  V30 7080 C 657.892 -1.94788 0.51573 0
M  V30 7081 O 656.948 -2.52494 -0.0181156 0
M  V30 7082 C 658.261 -0.999878 2.83589 0
M  V30 7083 C 659.809 -1.10253 2.92939 0
M  V30 7084 C 660.284 -1.38832 4.36451 0
M  V30 7085 N 661.775 -1.45694 4.3969 0
M  V30 7086 C 662.51 -1.69435 5.47795 0
M  V30 7087 N 662.006 -1.90774 6.66016 0
M  V30 7088 N 663.799 -1.71458 5.35312 0
M  V30 7089 H 655.95 0.382409 2.08929 0
M  V30 7090 H 658.213 0.108807 0.941735 0
M  V30 7091 H 657.919 -0.189723 3.51188 0
M  V30 7092 H 657.793 -1.91978 3.24691 0
M  V30 7093 H 660.18 -1.90328 2.2552 0
M  V30 7094 H 660.261 -0.160973 2.55293 0
M  V30 7095 H 659.905 -0.592741 5.04429 0
M  V30 7096 H 659.835 -2.34241 4.71634 0
M  V30 7097 H 662.326 -1.3099 3.54472 0
M  V30 7098 H 662.639 -2.08342 7.44186 0
M  V30 7099 H 660.984 -1.88037 6.69079 0
M  V30 7100 H 664.175 -1.54326 4.41929 0
M  V30 7101 H 664.348 -1.89621 6.19635 0
M  V30 7102 N 657.755 -1.42862 -0.66545 0
M  V30 7103 C 658.995 -1.45323 -1.43738 0
M  V30 7104 C 659.359 -0.0707969 -1.91869 0
M  V30 7105 O 660.56 0.0298852 -2.68783 0
M  V30 7106 C 658.831 -2.45671 -2.59577 0
M  V30 7107 S 660.39 -2.6691 -3.48288 0
M  V30 7108 H 657.208 -0.51442 -0.490809 0
M  V30 7109 H 659.81 -1.79537 -0.773745 0
M  V30 7110 H 658.514 -3.44869 -2.22471 0
M  V30 7111 H 658.045 -2.12914 -3.30804 0
M  V30 7112 H 660.06 -1.95914 -4.55886 0
M  V30 7113 N 659.233 0.902656 -1.29189 0
M  V30 7114 C 660.181 2.0278 -1.13943 0
M  V30 7115 C 661.175 1.69308 -0.055787 0
M  V30 7116 O 662.381 1.78707 -0.215371 0
M  V30 7117 H 658.756 0.664595 -0.351877 0
M  V30 7118 H 660.727 2.12778 -2.09208 0
M  V30 7119 C 659.476 3.37657 -0.82966 0
M  V30 7120 H 658.799 3.63913 -1.65551 0
M  V30 7121 H 660.239 4.17078 -0.762998 0
M  V30 7122 C 658.698 3.33648 0.466991 0
M  V30 7123 O 659.228 3.72886 1.49395 0
M  V30 7124 N 657.434 2.86745 0.471761 0
M  V30 7125 H 656.981 2.55009 -0.364406 0
M  V30 7126 H 656.939 2.84446 1.33933 0
M  V30 7127 N 660.711 1.11618 1.11262 0
M  V30 7128 C 661.939 0.888739 1.8684 0
M  V30 7129 C 662.354 -0.561558 1.80255 0
M  V30 7130 O 661.711 -1.38782 1.18515 0
M  V30 7131 C 661.762 1.34422 3.35579 0
M  V30 7132 O 661.483 2.73766 3.42029 0
M  V30 7133 C 662.984 1.15246 4.28058 0
M  V30 7134 H 660.204 0.318152 0.590779 0
M  V30 7135 H 662.748 1.48398 1.40707 0
M  V30 7136 H 660.903 0.79239 3.7921 0
M  V30 7137 H 661.317 2.9355 4.34659 0
M  V30 7138 H 662.791 1.52015 5.30656 0
M  V30 7139 H 663.268 0.0922007 4.39103 0
M  V30 7140 H 663.874 1.69136 3.90222 0
M  V30 7141 N 662.189 -1.289 0.906776 0
M  V30 7142 C 663.417 -1.99401 0.551969 0
M  V30 7143 C 663.832 -1.67816 -0.865048 0
M  V30 7144 O 663.189 -0.927078 -1.57199 0
M  V30 7145 C 663.24 -3.53779 0.743152 0
M  V30 7146 O 662.961 -3.84248 2.1044 0
M  V30 7147 C 664.462 -4.41543 0.39424 0
M  V30 7148 H 661.682 -0.636926 0.211106 0
M  V30 7149 H 664.226 -1.64266 1.21807 0
M  V30 7150 H 662.381 -3.87201 0.124143 0
M  V30 7151 H 662.795 -4.78904 2.13895 0
M  V30 7152 H 664.269 -5.48957 0.578814 0
M  V30 7153 H 664.746 -4.34073 -0.669137 0
M  V30 7154 H 665.352 -4.13605 0.990491 0
M  V30 7155 N 663.667 -0.670007 -1.42649 0
M  V30 7156 C 664.913 -0.190568 -2.01903 0
M  V30 7157 C 665.246 1.19817 -1.52832 0
M  V30 7158 O 664.521 1.80342 -0.728485 0
M  V30 7159 C 664.804 -0.21991 -3.59428 0
M  V30 7160 C 664.657 -1.64376 -4.18689 0
M  V30 7161 C 665.976 0.434519 -4.3795 0
M  V30 7162 H 663.095 -0.0707219 -0.733599 0
M  V30 7163 H 665.737 -0.853883 -1.69732 0
M  V30 7164 H 663.887 0.344894 -3.86966 0
M  V30 7165 H 665.559 -2.26044 -4.02122 0
M  V30 7166 H 663.802 -2.18591 -3.747 0
M  V30 7167 H 664.473 -1.61601 -5.27815 0
M  V30 7168 H 666.949 -0.0462156 -4.16074 0
M  V30 7169 H 665.825 0.38333 -5.4756 0
M  V30 7170 H 666.086 1.51135 -4.15464 0
M  V30 7171 N 665.145 1.52092 -0.413018 0
M  V30 7172 C 666.385 2.03765 0.160975 0
M  V30 7173 C 666.749 1.29174 1.4205 0
M  V30 7174 O 667.95 1.71093 2.07318 0
M  V30 7175 C 666.221 3.55167 0.398871 0
M  V30 7176 S 667.78 4.28619 0.939755 0
M  V30 7177 H 664.598 0.709685 0.0432281 0
M  V30 7178 H 667.2 1.87102 -0.566831 0
M  V30 7179 H 665.904 4.07034 -0.524544 0
M  V30 7180 H 665.435 3.7608 1.15444 0
M  V30 7181 H 667.45 4.43773 2.21991 0
M  V30 7182 N 666.623 0.143563 1.56945 0
M  V30 7183 C 667.553 -0.7936 2.196 0
M  V30 7184 C 668.534 -1.25955 1.14321 0
M  V30 7185 O 669.719 -1.31773 1.42651 0
M  V30 7186 C 666.849 -2.03424 2.81489 0
M  V30 7187 C 665.803 -1.70519 3.92565 0
M  V30 7188 C 665.129 -3.01817 4.41373 0
M  V30 7189 C 666.429 -0.95449 5.13504 0
M  V30 7190 H 668.123 -0.271423 2.98167 0
M  V30 7191 H 665.669 -0.12911 1.4342 0
M  V30 7192 H 667.622 -2.69463 3.23987 0
M  V30 7193 H 666.346 -2.58008 2.00248 0
M  V30 7194 H 665.005 -1.06859 3.5068 0
M  V30 7195 H 664.653 -3.54386 3.56959 0
M  V30 7196 H 664.353 -2.80565 5.16292 0
M  V30 7197 H 665.877 -3.68934 4.86539 0
M  V30 7198 H 667.291 -1.5169 5.52868 0
M  V30 7199 H 665.688 -0.842035 5.94163 0
M  V30 7200 H 666.758 0.0544033 4.84869 0
M  V30 7201 N 668.101 -1.57061 -0.130224 0
M  V30 7202 C 669.349 -1.83893 -0.838313 0
M  V30 7203 C 669.67 -0.727046 -1.80939 0
M  V30 7204 O 668.94 0.249927 -1.94299 0
M  V30 7205 H 667.52 -0.67846 -0.312573 0
M  V30 7206 H 670.182 -1.94529 -0.120224 0
M  V30 7207 H 669.278 -2.79419 -1.39038 0
M  V30 7208 N 669.579 0.400081 -1.52437 0
M  V30 7209 C 670.526 1.48803 -1.76426 0
M  V30 7210 C 671.496 1.5461 -0.607032 0
M  V30 7211 O 672.681 1.71041 -0.845563 0
M  V30 7212 C 669.821 2.86156 -1.92896 0
M  V30 7213 C 668.934 2.89587 -3.20567 0
M  V30 7214 C 668.069 4.18296 -3.27417 0
M  V30 7215 C 667.108 4.15736 -4.49255 0
M  V30 7216 N 666.245 5.36032 -4.53447 0
M  V30 7217 H 671.085 1.27649 -2.69276 0
M  V30 7218 H 668.622 0.619451 -1.33421 0
M  V30 7219 H 670.58 3.65901 -2.00429 0
M  V30 7220 H 669.21 3.05785 -1.03418 0
M  V30 7221 H 668.262 2.02278 -3.22161 0
M  V30 7222 H 669.574 2.83562 -4.10358 0
M  V30 7223 H 668.728 5.06439 -3.34072 0
M  V30 7224 H 667.467 4.27028 -2.35581 0
M  V30 7225 H 666.472 3.25982 -4.42737 0
M  V30 7226 H 667.697 4.08636 -5.42396 0
M  V30 7227 H 665.643 5.45415 -3.64498 0
M  V30 7228 H 665.56 5.32038 -5.37096 0
M  V30 7229 H 666.828 6.26104 -4.64343 0
M  V30 7230 N 671.057 1.43213 0.657864 0
M  V30 7231 C 672.306 1.43871 1.41365 0
M  V30 7232 C 672.619 0.064898 1.95492 0
M  V30 7233 O 673.825 -0.0510796 2.71452 0
M  V30 7234 C 672.281 2.53158 2.55811 0
M  V30 7235 C 671.889 3.96624 2.08311 0
M  V30 7236 C 673.633 2.63004 3.3321 0
M  V30 7237 C 671.54 4.97385 3.1994 0
M  V30 7238 H 670.47 0.535174 0.531136 0
M  V30 7239 H 673.121 1.69185 0.710543 0
M  V30 7240 H 671.503 2.21037 3.2857 0
M  V30 7241 H 672.677 4.38182 1.42593 0
M  V30 7242 H 670.992 3.90781 1.43804 0
M  V30 7243 H 673.589 3.3546 4.16378 0
M  V30 7244 H 673.932 1.67918 3.80932 0
M  V30 7245 H 674.465 2.94403 2.67529 0
M  V30 7246 H 671.204 5.94007 2.77192 0
M  V30 7247 H 670.724 4.60444 3.84385 0
M  V30 7248 H 672.403 5.19877 3.85145 0
M  V30 7249 N 672.536 -0.895792 1.29666 0
M  V30 7250 C 673.784 -1.64339 1.17631 0
M  V30 7251 C 674.105 -1.93099 -0.271643 0
M  V30 7252 O 673.375 -1.55981 -1.18518 0
M  V30 7253 H 671.955 -0.609162 0.432354 0
M  V30 7254 H 674.617 -1.07389 1.62646 0
M  V30 7255 H 673.713 -2.59815 1.72924 0
M  V30 7256 N 674.014 -1.12206 -1.10668 0
M  V30 7257 C 675.239 -0.898938 -1.86906 0
M  V30 7258 C 675.664 0.546346 -1.79991 0
M  V30 7259 O 675.022 1.38655 -1.1681 0
M  V30 7260 C 675.07 -1.37529 -3.33344 0
M  V30 7261 O 674.174 -0.55218 -4.08687 0
M  V30 7262 H 673.515 -0.323163 -0.580053 0
M  V30 7263 H 676.045 -1.49355 -1.39837 0
M  V30 7264 H 676.055 -1.3733 -3.84193 0
M  V30 7265 H 674.73 -2.42767 -3.37693 0
M  V30 7266 H 673.307 -0.620947 -3.67694 0
M  V30 7267 N 675.492 1.28418 -0.913599 0
M  V30 7268 C 676.722 1.98817 -0.56172 0
M  V30 7269 C 677.13 1.68457 0.861321 0
M  V30 7270 O 676.473 0.933653 1.58204 0
M  V30 7271 C 676.535 3.52801 -0.690785 0
M  V30 7272 C 676.199 4.0675 -2.08334 0
M  V30 7273 C 677.196 4.20597 -3.05604 0
M  V30 7274 C 674.881 4.41445 -2.39648 0
M  V30 7275 C 676.875 4.68392 -4.32305 0
M  V30 7276 C 674.562 4.88934 -3.66588 0
M  V30 7277 C 675.56 5.02364 -4.6273 0
M  V30 7278 O 675.248 5.48817 -5.87414 0
M  V30 7279 H 674.98 0.641608 -0.212874 0
M  V30 7280 H 677.534 1.64584 -1.22887 0
M  V30 7281 H 675.764 3.86686 0.0334336 0
M  V30 7282 H 677.453 4.04422 -0.346031 0
M  V30 7283 H 678.219 3.94067 -2.8273 0
M  V30 7284 H 674.098 4.30242 -1.65567 0
M  V30 7285 H 677.642 4.7879 -5.07352 0
M  V30 7286 H 673.539 5.14904 -3.89287 0
M  V30 7287 H 674.307 5.67103 -5.90201 0
M  V30 7288 N 676.97 0.677563 1.42291 0
M  V30 7289 C 677.9 0.014968 2.33495 0
M  V30 7290 C 678.881 -0.786376 1.50831 0
M  V30 7291 O 680.066 -0.742975 1.79426 0
M  V30 7292 C 677.196 -0.935023 3.34477 0
M  V30 7293 C 676.15 -0.242074 4.27315 0
M  V30 7294 C 675.476 -1.30519 5.18526 0
M  V30 7295 C 676.776 0.880604 5.14823 0
M  V30 7296 H 678.47 0.776671 2.89151 0
M  V30 7297 H 676.016 0.37494 1.39033 0
M  V30 7298 H 677.969 -1.40766 3.97194 0
M  V30 7299 H 676.693 -1.72818 2.77131 0
M  V30 7300 H 675.352 0.210351 3.65996 0
M  V30 7301 H 675 -2.09041 4.57505 0
M  V30 7302 H 674.7 -0.846652 5.81468 0
M  V30 7303 H 676.224 -1.7787 5.84119 0
M  V30 7304 H 677.638 0.489062 5.7121 0
M  V30 7305 H 676.035 1.26511 5.86613 0
M  V30 7306 H 677.105 1.72818 4.53059 0
M  V30 7307 N 678.448 -1.51871 0.421078 0
M  V30 7308 C 679.673 -2.0684 -0.152371 0
M  V30 7309 C 680.098 -1.28802 -1.37083 0
M  V30 7310 O 679.456 -0.321482 -1.78427 0
M  V30 7311 C 679.504 -3.57532 -0.469368 0
M  V30 7312 O 678.608 -3.81818 -1.55848 0
M  V30 7313 H 677.949 -0.663939 -0.00898586 0
M  V30 7314 H 680.479 -1.95674 0.597724 0
M  V30 7315 H 680.489 -4.01515 -0.724553 0
M  V30 7316 H 679.164 -4.13761 0.421276 0
M  V30 7317 H 677.741 -3.49709 -1.29453 0
M  V30 7318 N 679.926 -0.151884 -1.56866 0
M  V30 7319 C 680.889 0.771861 -2.15812 0
M  V30 7320 C 681.889 1.17181 -1.10115 0
M  V30 7321 O 683.079 1.09194 -1.35729 0
M  V30 7322 C 680.211 2.04806 -2.7252 0
M  V30 7323 H 681.404 0.259021 -2.98779 0
M  V30 7324 H 678.957 0.097588 -1.55995 0
M  V30 7325 H 679.692 2.60445 -1.93233 0
M  V30 7326 H 679.477 1.77044 -3.49854 0
M  V30 7327 H 680.967 2.70771 -3.1792 0
M  V30 7328 N 681.404 1.57128 0.121893 0
M  V30 7329 C 682.629 1.89254 0.848385 0
M  V30 7330 C 683.054 0.743527 1.72781 0
M  V30 7331 O 682.412 -0.306056 1.78698 0
M  V30 7332 C 682.46 3.20113 1.66012 0
M  V30 7333 O 681.564 3.05815 2.76679 0
M  V30 7334 H 680.905 0.621103 0.234793 0
M  V30 7335 H 683.435 2.0433 0.10516 0
M  V30 7336 H 683.445 3.52761 2.04996 0
M  V30 7337 H 682.12 4.03336 1.01452 0
M  V30 7338 H 680.697 2.84627 2.40918 0
M  V30 7339 N 682.882 -0.391992 1.52647 0
M  V30 7340 C 684.11 -1.1586 1.71418 0
M  V30 7341 C 684.525 -1.8381 0.431216 0
M  V30 7342 O 683.882 -1.7256 -0.594085 0
M  V30 7343 C 683.933 -2.20888 2.86165 0
M  V30 7344 O 683.654 -1.5571 4.09495 0
M  V30 7345 C 685.155 -3.103 3.1659 0
M  V30 7346 H 682.375 -0.347494 0.574011 0
M  V30 7347 H 684.919 -0.458972 1.99283 0
M  V30 7348 H 683.074 -2.86492 2.6077 0
M  V30 7349 H 683.488 -2.25474 4.73563 0
M  V30 7350 H 684.962 -3.8003 4.00351 0
M  V30 7351 H 685.439 -3.73639 2.30848 0
M  V30 7352 H 686.045 -2.50345 3.43813 0
M  V30 7353 N 684.36 -1.4356 -0.65026 0
M  V30 7354 C 685.776 -1.27025 -0.966269 0
M  V30 7355 C 685.976 -0.192117 -2.00582 0
M  V30 7356 O 685.032 0.428459 -2.48838 0
M  V30 7357 C 686.345 -2.63556 -1.44772 0
M  V30 7358 C 687.893 -2.71111 -1.56421 0
M  V30 7359 C 688.368 -4.08067 -2.07956 0
M  V30 7360 N 689.859 -4.10146 -2.15254 0
M  V30 7361 C 690.594 -5.12952 -2.56258 0
M  V30 7362 N 690.09 -6.26129 -2.96537 0
M  V30 7363 N 691.883 -5.00306 -2.56224 0
M  V30 7364 H 684.034 -2.12367 0.0375758 0
M  V30 7365 H 686.297 -0.946894 -0.0457782 0
M  V30 7366 H 686.003 -3.43429 -0.758271 0
M  V30 7367 H 685.877 -2.89152 -2.42221 0
M  V30 7368 H 688.264 -1.91569 -2.24467 0
M  V30 7369 H 688.345 -2.49277 -0.573967 0
M  V30 7370 H 687.989 -4.88077 -1.40511 0
M  V30 7371 H 687.919 -4.27266 -3.07817 0
M  V30 7372 H 690.41 -3.28453 -1.86887 0
M  V30 7373 H 690.723 -7.00403 -3.26582 0
M  V30 7374 H 689.068 -6.29597 -2.94334 0
M  V30 7375 H 692.259 -4.10952 -2.24135 0
M  V30 7376 H 692.432 -5.80553 -2.87857 0
M  V30 7377 N 685.838 0.888903 -1.30139 0
M  V30 7378 C 686.788 1.9814 -1.12803 0
M  V30 7379 C 687.772 1.60839 -0.0443137 0
M  V30 7380 O 688.964 1.74971 -0.267208 0
M  V30 7381 C 686.093 3.33416 -0.817849 0
M  V30 7382 C 685.179 3.77043 -1.94163 0
M  V30 7383 N 685.57 3.92805 -3.18651 0
M  V30 7384 C 683.868 4.06407 -1.8371 0
M  V30 7385 C 684.569 4.29746 -3.92038 0
M  V30 7386 N 683.545 4.3939 -3.20059 0
M  V30 7387 H 687.347 2.08411 -2.07225 0
M  V30 7388 H 684.861 1.07845 -1.21421 0
M  V30 7389 H 686.858 4.11405 -0.674668 0
M  V30 7390 H 685.518 3.24484 0.118344 0
M  V30 7391 H 686.529 3.78042 -3.53984 0
M  V30 7392 H 683.206 4.05972 -0.974331 0
M  V30 7393 H 684.596 4.49695 -4.99223 0
M  V30 7394 N 687.317 1.12792 1.10072 0
M  V30 7395 C 688.733 0.864745 1.34143 0
M  V30 7396 C 688.933 -0.503201 1.95116 0
M  V30 7397 O 687.989 -1.25111 2.19325 0
M  V30 7398 C 689.302 1.98413 2.25949 0
M  V30 7399 C 690.85 2.01545 2.39476 0
M  V30 7400 C 691.325 3.12727 3.34613 0
M  V30 7401 N 692.816 3.12194 3.42183 0
M  V30 7402 C 693.551 3.94862 4.15779 0
M  V30 7403 N 693.047 4.87528 4.92228 0
M  V30 7404 N 694.84 3.82985 4.11435 0
M  V30 7405 H 686.991 2.00926 0.68866 0
M  V30 7406 H 689.254 0.874564 0.365844 0
M  V30 7407 H 688.96 2.97005 1.88364 0
M  V30 7408 H 688.834 1.89254 3.26287 0
M  V30 7409 H 691.221 1.0357 2.76328 0
M  V30 7410 H 691.302 2.14777 1.3894 0
M  V30 7411 H 690.946 4.10936 2.98486 0
M  V30 7412 H 690.876 2.96732 4.35037 0
M  V30 7413 H 693.367 2.45065 2.87666 0
M  V30 7414 H 693.68 5.47109 5.45794 0
M  V30 7415 H 692.025 4.91539 4.9134 0
M  V30 7416 H 695.216 3.09923 3.50807 0
M  V30 7417 H 695.389 4.47641 4.68531 0
M  V30 7418 N 688.795 -1.27931 0.920396 0
M  V30 7419 C 690.041 -1.94977 0.557832 0
M  V30 7420 C 690.374 -1.72224 -0.897365 0
M  V30 7421 O 689.649 -1.04705 -1.63912 0
M  V30 7422 C 689.932 -3.49289 0.875741 0
M  V30 7423 C 689.785 -3.81416 2.38416 0
M  V30 7424 C 691.104 -4.38486 0.376517 0
M  V30 7425 H 688.223 -0.708164 0.20414 0
M  V30 7426 H 690.865 -1.5118 1.15085 0
M  V30 7427 H 689.015 -3.86724 0.371062 0
M  V30 7428 H 690.687 -3.53813 2.95997 0
M  V30 7429 H 688.93 -3.28225 2.83639 0
M  V30 7430 H 689.601 -4.89198 2.55713 0
M  V30 7431 H 692.077 -4.08161 0.808945 0
M  V30 7432 H 690.953 -5.45296 0.627976 0
M  V30 7433 H 691.214 -4.36143 -0.723293 0
M  V30 7434 N 690.273 -0.685099 -1.4193 0
M  V30 7435 C 691.203 -0.0273506 -2.33484 0
M  V30 7436 C 692.184 0.778366 -1.51246 0
M  V30 7437 O 693.369 0.733449 -1.79817 0
M  V30 7438 C 690.499 0.917272 -3.34968 0
M  V30 7439 C 689.453 0.21941 -4.27437 0
M  V30 7440 C 688.779 1.27768 -5.1921 0
M  V30 7441 C 690.079 -0.907894 -5.14349 0
M  V30 7442 H 691.773 -0.791994 -2.88735 0
M  V30 7443 H 689.319 -0.382308 -1.38832 0
M  V30 7444 H 691.272 1.38657 -3.97935 0
M  V30 7445 H 689.996 1.71346 -2.78043 0
M  V30 7446 H 688.655 -0.229757 -3.65879 0
M  V30 7447 H 688.303 2.06612 -4.58607 0
M  V30 7448 H 688.003 0.815803 -5.81909 0
M  V30 7449 H 689.527 1.7477 -5.85054 0
M  V30 7450 H 690.941 -0.519348 -5.70943 0
M  V30 7451 H 689.338 -1.2962 -5.85934 0
M  V30 7452 H 690.408 -1.75218 -4.52136 0
M  V30 7453 N 691.751 1.51645 -0.429126 0
M  V30 7454 C 692.979 2.06433 0.138994 0
M  V30 7455 C 693.394 1.29735 1.37165 0
M  V30 7456 O 692.751 0.354638 1.79021 0
M  V30 7457 C 692.802 3.58439 0.469452 0
M  V30 7458 O 692.523 4.32238 -0.714273 0
M  V30 7459 C 694.024 4.29712 1.08914 0
M  V30 7460 H 691.244 0.6709 0.0115608 0
M  V30 7461 H 693.788 1.9532 -0.605843 0
M  V30 7462 H 691.943 3.69494 1.16419 0
M  V30 7463 H 692.357 5.22704 -0.433633 0
M  V30 7464 H 693.831 5.37182 1.27042 0
M  V30 7465 H 694.308 3.87473 2.06788 0
M  V30 7466 H 694.914 4.2308 0.434028 0
M  V30 7467 N 693.229 0.160201 1.56784 0
M  V30 7468 C 694.454 -0.497373 2.01348 0
M  V30 7469 C 694.879 -1.56757 1.03966 0
M  V30 7470 O 694.237 -1.81292 0.0174455 0
M  V30 7471 C 694.285 -1.0628 3.44582 0
M  V30 7472 O 693.389 -2.17723 3.50244 0
M  V30 7473 H 692.73 -0.120295 0.653012 0
M  V30 7474 H 695.26 0.260821 2.02931 0
M  V30 7475 H 695.27 -1.38819 3.83658 0
M  V30 7476 H 693.945 -0.279166 4.14962 0
M  V30 7477 H 692.522 -1.86313 3.2302 0
M  V30 7478 N 694.707 -1.5719 -0.113559 0
M  V30 7479 C 695.67 -1.99796 -1.12314 0
M  V30 7480 C 696.67 -0.888847 -1.34001 0
M  V30 7481 O 697.86 -1.15476 -1.30426 0
M  V30 7482 C 694.992 -2.34279 -2.47641 0
M  V30 7483 H 696.185 -2.90193 -0.756825 0
M  V30 7484 H 693.738 -1.52144 -0.358029 0
M  V30 7485 H 694.473 -1.46778 -2.89183 0
M  V30 7486 H 694.258 -3.15175 -2.33253 0
M  V30 7487 H 695.748 -2.67963 -3.2029 0
M  V30 7488 N 696.185 0.383891 -1.52853 0
M  V30 7489 C 697.432 1.12842 -1.68146 0
M  V30 7490 C 697.76 1.89823 -0.423954 0
M  V30 7491 O 697.015 1.86475 0.593765 0
M  V30 7492 C 697.314 2.12881 -2.87082 0
M  V30 7493 C 696.98 1.52519 -4.24322 0
M  V30 7494 C 695.642 1.35783 -4.61645 0
M  V30 7495 C 697.994 1.0868 -5.09743 0
M  V30 7496 C 695.322 0.737643 -5.82044 0
M  V30 7497 C 697.674 0.480699 -6.30771 0
M  V30 7498 C 696.338 0.300681 -6.66822 0
M  V30 7499 H 695.608 0.412917 -0.615289 0
M  V30 7500 H 698.255 0.412416 -1.87006 0
M  V30 7501 H 696.56 2.90719 -2.62659 0
M  V30 7502 H 698.257 2.70408 -2.96109 0
M  V30 7503 H 694.847 1.66534 -3.94923 0
M  V30 7504 H 699.031 1.2041 -4.81472 0
M  V30 7505 H 694.287 0.586415 -6.08581 0
M  V30 7506 H 698.461 0.132733 -6.96273 0
M  V30 7507 H 696.088 -0.181966 -7.59982 0
M  V30 7508 N 697.663 1.43903 0.642637 0
M  V30 7509 C 698.888 1.49758 1.43483 0
M  V30 7510 C 699.313 0.119911 1.87717 0
M  V30 7511 O 698.671 -0.888558 1.58033 0
M  V30 7512 C 698.719 2.45744 2.63898 0
M  V30 7513 O 697.823 1.95101 3.63331 0
M  V30 7514 H 697.164 0.506138 0.429791 0
M  V30 7515 H 699.694 1.88923 0.785438 0
M  V30 7516 H 699.704 2.63399 3.11584 0
M  V30 7517 H 698.379 3.45818 2.31046 0
M  V30 7518 H 696.956 1.87158 3.22531 0
M  V30 7519 N 699.141 -0.881989 1.30609 0
M  V30 7520 C 700.557 -1.16576 1.09005 0
M  V30 7521 C 700.757 -2.00961 -0.14727 0
M  V30 7522 O 699.813 -2.38117 -0.840036 0
M  V30 7523 C 701.126 -1.86954 2.35518 0
M  V30 7524 C 702.674 -1.99706 2.41011 0
M  V30 7525 C 703.149 -2.73497 3.67374 0
M  V30 7526 N 704.64 -2.8104 3.68199 0
M  V30 7527 C 705.375 -3.38718 4.62664 0
M  V30 7528 N 704.871 -3.97421 5.67475 0
M  V30 7529 N 706.664 -3.36561 4.50203 0
M  V30 7530 H 698.815 -0.319398 2.09985 0
M  V30 7531 H 701.078 -0.204058 0.925778 0
M  V30 7532 H 700.784 -1.32393 3.2583 0
M  V30 7533 H 700.658 -2.87317 2.44395 0
M  V30 7534 H 703.045 -2.53436 1.51176 0
M  V30 7535 H 703.126 -0.984218 2.36108 0
M  V30 7536 H 702.77 -2.20438 4.57569 0
M  V30 7537 H 702.7 -3.75163 3.6954 0
M  V30 7538 H 705.191 -2.39365 2.92426 0
M  V30 7539 H 705.504 -4.39507 6.35652 0
M  V30 7540 H 703.849 -3.95832 5.71264 0
M  V30 7541 H 707.04 -2.8993 3.67503 0
M  V30 7542 H 707.213 -3.81215 5.24003 0
M  V30 7543 N 700.619 -1.13374 -1.09472 0
M  V30 7544 C 701.582 -0.813639 -2.14272 0
M  V30 7545 C 702.582 0.176677 -1.59826 0
M  V30 7546 O 703.772 -0.0503441 -1.74127 0
M  V30 7547 C 700.904 -0.210897 -3.40247 0
M  V30 7548 H 702.097 -1.74229 -2.44099 0
M  V30 7549 H 699.65 -0.938304 -1.25002 0
M  V30 7550 H 700.385 0.726998 -3.16046 0
M  V30 7551 H 700.17 -0.924048 -3.81056 0
M  V30 7552 H 701.66 -0.00377603 -4.176 0
M  V30 7553 N 702.098 1.27442 -0.927168 0
M  V30 7554 C 703.326 1.98498 -0.583622 0
M  V30 7555 C 703.741 1.69171 0.838241 0
M  V30 7556 O 703.098 0.951969 1.55704 0
M  V30 7557 C 703.149 3.52552 -0.799341 0
M  V30 7558 O 702.87 3.80851 -2.16527 0
M  V30 7559 C 704.371 4.4086 -0.464436 0
M  V30 7560 H 701.591 0.633487 -0.221213 0
M  V30 7561 H 704.135 1.62308 -1.24404 0
M  V30 7562 H 702.29 3.86955 -0.185728 0
M  V30 7563 H 702.704 4.75441 -2.21487 0
M  V30 7564 H 704.178 5.47967 -0.666075 0
M  V30 7565 H 704.655 4.35082 0.599995 0
M  V30 7566 H 705.261 4.11977 -1.05617 0
M  V30 7567 N 703.576 0.692616 1.41565 0
M  V30 7568 C 704.992 0.363878 1.55397 0
M  V30 7569 C 705.192 -1.1294 1.66874 0
M  V30 7570 O 704.248 -1.91517 1.64552 0
M  V30 7571 C 705.561 1.10982 2.7947 0
M  V30 7572 C 707.109 1.09387 2.93263 0
M  V30 7573 C 707.584 1.8215 4.20221 0
M  V30 7574 N 709.075 1.79105 4.27172 0
M  V30 7575 C 709.81 2.32247 5.2426 0
M  V30 7576 N 709.306 2.93847 6.27396 0
M  V30 7577 N 711.099 2.22519 5.1618 0
M  V30 7578 H 703.25 1.66116 1.3236 0
M  V30 7579 H 705.513 0.700848 0.63837 0
M  V30 7580 H 705.219 2.1647 2.77188 0
M  V30 7581 H 705.093 0.686492 3.709 0
M  V30 7582 H 707.48 0.0472638 2.95062 0
M  V30 7583 H 707.561 1.55623 2.03015 0
M  V30 7584 H 707.205 2.86789 4.19183 0
M  V30 7585 H 707.135 1.33351 5.09436 0
M  V30 7586 H 709.626 1.34191 3.53272 0
M  V30 7587 H 709.939 3.31972 6.97864 0
M  V30 7588 H 708.284 2.97924 6.27906 0
M  V30 7589 H 711.475 1.7407 4.34531 0
M  V30 7590 H 711.648 2.64239 5.91677 0
M  V30 7591 N 705.054 -1.51416 0.437162 0
M  V30 7592 C 706.331 -1.94682 -0.189292 0
M  V30 7593 C 706.711 -1.37581 -1.60108 0
M  V30 7594 O 706.059 -0.562815 -2.2146 0
M  V30 7595 C 706.269 -3.48599 -0.167201 0
M  V30 7596 C 707.617 -4.2296 -0.372856 0
M  V30 7597 O 708.641 -3.55354 -0.245323 0
M  V30 7598 O 707.5 -5.42895 -0.626693 0
M  V30 7599 H 704.594 -0.816708 -0.130063 0
M  V30 7600 H 707.14 -1.62316 0.495128 0
M  V30 7601 H 705.912 -3.82616 0.81981 0
M  V30 7602 H 705.535 -3.87406 -0.894537 0
M  V30 7603 N 706.532 -0.168513 -1.56696 0
M  V30 7604 C 707.943 0.348694 -1.83415 0
M  V30 7605 C 708.294 1.63257 -1.0882 0
M  V30 7606 O 707.419 2.13707 -0.340333 0
M  V30 7607 C 708.014 0.639423 -3.32711 0
M  V30 7608 C 706.573 1.10108 -3.59935 0
M  V30 7609 C 705.72 0.135464 -2.76969 0
M  V30 7610 H 708.671 -0.392829 -1.53761 0
M  V30 7611 H 708.692 1.49179 -3.50037 0
M  V30 7612 H 708.204 -0.295173 -3.86976 0
M  V30 7613 H 706.305 2.05088 -3.11079 0
M  V30 7614 H 706.418 1.01218 -4.68286 0
M  V30 7615 H 704.782 0.632286 -2.46727 0
M  V30 7616 H 705.565 -0.793104 -3.34013 0
M  V30 7617 N 708.01 1.57248 0.105221 0
M  V30 7618 C 709.257 1.8557 0.810552 0
M  V30 7619 C 709.585 0.755595 1.79223 0
M  V30 7620 O 708.84 -0.251788 1.94073 0
M  V30 7621 C 709.139 3.20437 1.58287 0
M  V30 7622 C 708.805 4.44716 0.744235 0
M  V30 7623 C 707.467 4.78458 0.513013 0
M  V30 7624 C 709.819 5.20953 0.160578 0
M  V30 7625 C 707.147 5.8587 -0.311894 0
M  V30 7626 C 709.499 6.29235 -0.651596 0
M  V30 7627 C 708.163 6.615 -0.893005 0
M  V30 7628 H 707.433 0.67905 0.296602 0
M  V30 7629 H 710.08 1.91363 0.0723968 0
M  V30 7630 H 708.385 3.10283 2.39232 0
M  V30 7631 H 710.082 3.39576 2.13282 0
M  V30 7632 H 706.672 4.18287 0.934555 0
M  V30 7633 H 710.856 4.95226 0.3264 0
M  V30 7634 H 706.112 6.09286 -0.508012 0
M  V30 7635 H 710.286 6.87484 -1.11077 0
M  V30 7636 H 707.913 7.44562 -1.53401 0
M  V30 7637 N 709.488 -0.375779 1.53054 0
M  V30 7638 C 710.451 -1.44254 1.7811 0
M  V30 7639 C 711.451 -1.47018 0.651328 0
M  V30 7640 O 712.641 -1.47957 0.919472 0
M  V30 7641 C 709.773 -2.8345 1.89391 0
M  V30 7642 H 710.966 -1.23316 2.73374 0
M  V30 7643 H 708.519 -0.608312 1.43977 0
M  V30 7644 H 709.254 -3.09716 0.961589 0
M  V30 7645 H 709.039 -2.82844 2.71555 0
M  V30 7646 H 710.529 -3.60722 2.10404 0
M  V30 7647 N 710.966 -1.44241 -0.634997 0
M  V30 7648 C 712.377 -1.41622 -1.21655 0
M  V30 7649 C 712.728 -0.129584 -1.95772 0
M  V30 7650 O 711.853 0.770225 -2.02229 0
M  V30 7651 C 712.448 -2.56557 -2.21278 0
M  V30 7652 C 711.007 -2.57145 -2.7487 0
M  V30 7653 C 710.154 -2.33354 -1.49804 0
M  V30 7654 H 713.105 -1.52878 -0.425905 0
M  V30 7655 H 713.126 -2.29089 -3.03807 0
M  V30 7656 H 712.638 -3.50186 -1.67306 0
M  V30 7657 H 710.739 -1.67447 -3.32855 0
M  V30 7658 H 710.852 -3.55507 -3.21172 0
M  V30 7659 H 709.216 -1.82372 -1.77799 0
M  V30 7660 H 709.999 -3.29092 -0.977402 0
M  V30 7661 N 712.444 0.87505 -1.31075 0
M  V30 7662 C 713.669 1.66583 -1.23551 0
M  V30 7663 C 714.094 1.87067 0.19686 0
M  V30 7664 O 713.452 1.40877 1.1412 0
M  V30 7665 C 713.5 3.01401 -1.97965 0
M  V30 7666 O 712.604 3.90923 -1.31351 0
M  V30 7667 H 711.945 0.508645 -0.426821 0
M  V30 7668 H 714.475 1.09139 -1.7306 0
M  V30 7669 H 714.485 3.51374 -2.07366 0
M  V30 7670 H 713.16 2.85812 -3.02133 0
M  V30 7671 H 711.737 3.49369 -1.30368 0
M  V30 7672 N 713.922 1.13953 1.08869 0
M  V30 7673 C 715.338 0.878924 1.33218 0
M  V30 7674 C 715.538 -0.482478 1.95638 0
M  V30 7675 O 714.594 -1.22778 2.2064 0
M  V30 7676 C 715.907 2.00798 2.23832 0
M  V30 7677 C 717.455 2.04073 2.37325 0
M  V30 7678 C 717.93 3.16258 3.31278 0
M  V30 7679 N 719.421 3.15805 3.38853 0
M  V30 7680 C 720.156 3.99249 4.11567 0
M  V30 7681 N 719.652 4.92721 4.87029 0
M  V30 7682 N 721.445 3.87327 4.0735 0
M  V30 7683 H 713.596 2.01645 0.66731 0
M  V30 7684 H 715.859 0.878395 0.356547 0
M  V30 7685 H 715.565 2.98986 1.85203 0
M  V30 7686 H 715.439 1.92704 3.24261 0
M  V30 7687 H 717.826 1.06495 2.75214 0
M  V30 7688 H 717.907 2.16239 1.36654 0
M  V30 7689 H 717.551 4.14079 2.9411 0
M  V30 7690 H 717.481 3.0133 4.31866 0
M  V30 7691 H 719.972 2.48102 2.8505 0
M  V30 7692 H 720.285 5.52867 5.39961 0
M  V30 7693 H 718.63 4.96723 4.86098 0
M  V30 7694 H 721.821 3.13627 3.475 0
M  V30 7695 H 721.994 4.52585 4.63757 0
M  V30 7696 N 715.4 -1.26948 0.933913 0
M  V30 7697 C 716.646 -1.94374 0.57848 0
M  V30 7698 C 716.979 -1.73166 -0.879048 0
M  V30 7699 O 716.254 -1.06438 -1.62792 0
M  V30 7700 C 716.537 -3.4834 0.912739 0
M  V30 7701 C 716.39 -3.78866 2.42448 0
M  V30 7702 C 717.709 -4.38062 0.423003 0
M  V30 7703 H 714.828 -0.705959 0.211639 0
M  V30 7704 H 717.47 -1.49951 1.16682 0
M  V30 7705 H 715.62 -3.86309 0.412058 0
M  V30 7706 H 717.292 -3.50654 2.99733 0
M  V30 7707 H 715.535 -3.25198 2.87104 0
M  V30 7708 H 716.206 -4.86458 2.60887 0
M  V30 7709 H 718.682 -4.0728 0.852191 0
M  V30 7710 H 717.558 -5.44599 0.685776 0
M  V30 7711 H 717.819 -4.36886 -0.676994 0
M  V30 7712 N 716.879 -0.700114 -1.41195 0
M  V30 7713 C 717.842 -0.0465706 -2.29153 0
M  V30 7714 C 718.842 0.703302 -1.44604 0
M  V30 7715 O 720.032 0.537513 -1.657 0
M  V30 7716 C 717.164 0.944324 -3.2756 0
M  V30 7717 H 718.357 -0.821064 -2.88442 0
M  V30 7718 H 715.91 -0.463869 -1.49258 0
M  V30 7719 H 716.645 1.74642 -2.73259 0
M  V30 7720 H 716.43 0.409701 -3.89954 0
M  V30 7721 H 717.92 1.39925 -3.9346 0
M  V30 7722 N 718.357 1.51182 -0.445186 0
M  V30 7723 C 719.605 2.01753 0.11841 0
M  V30 7724 C 719.926 1.33087 1.42523 0
M  V30 7725 O 719.196 0.467891 1.9023 0
M  V30 7726 H 717.776 0.745536 0.0467492 0
M  V30 7727 H 720.438 1.85765 -0.589688 0
M  V30 7728 H 719.534 3.10762 0.288665 0
M  V30 7729 N 719.835 0.176821 1.56605 0
M  V30 7730 C 721.081 -0.467406 1.9734 0
M  V30 7731 C 721.414 -1.62523 1.06301 0
M  V30 7732 O 720.689 -1.94182 0.11125 0
M  V30 7733 C 720.972 -0.945106 3.47476 0
M  V30 7734 C 720.825 0.213273 4.49294 0
M  V30 7735 C 722.144 -1.8169 4.00845 0
M  V30 7736 H 719.263 -0.168426 0.717497 0
M  V30 7737 H 721.905 0.264065 1.88156 0
M  V30 7738 H 720.055 -1.56841 3.55434 0
M  V30 7739 H 721.727 0.850508 4.53392 0
M  V30 7740 H 719.97 0.867918 4.25029 0
M  V30 7741 H 720.641 -0.163187 5.51759 0
M  V30 7742 H 723.117 -1.29139 3.95553 0
M  V30 7743 H 721.993 -2.12015 5.06301 0
M  V30 7744 H 722.254 -2.76463 3.44994 0
M  V30 7745 N 721.313 -1.57302 -0.09688 0
M  V30 7746 C 722.243 -2.0497 -1.11846 0
M  V30 7747 C 723.224 -0.938278 -1.41882 0
M  V30 7748 O 724.409 -1.20943 -1.51942 0
M  V30 7749 C 721.539 -2.47264 -2.43881 0
M  V30 7750 C 720.493 -3.62053 -2.28257 0
M  V30 7751 C 719.819 -3.90318 -3.65453 0
M  V30 7752 C 721.119 -4.93005 -1.72461 0
M  V30 7753 H 722.813 -2.90567 -0.721888 0
M  V30 7754 H 720.359 -1.39786 -0.345803 0
M  V30 7755 H 722.312 -2.7922 -3.15617 0
M  V30 7756 H 721.036 -1.58664 -2.8547 0
M  V30 7757 H 719.695 -3.30341 -1.58967 0
M  V30 7758 H 719.343 -2.98889 -4.04567 0
M  V30 7759 H 719.043 -4.67597 -3.55846 0
M  V30 7760 H 720.567 -4.24747 -4.3866 0
M  V30 7761 H 721.981 -5.23354 -2.34036 0
M  V30 7762 H 720.378 -5.74436 -1.73618 0
M  V30 7763 H 721.448 -4.80053 -0.683898 0
M  V30 7764 N 722.791 0.367657 -1.53252 0
M  V30 7765 C 724.039 1.10832 -1.68999 0
M  V30 7766 C 724.36 1.89894 -0.443306 0
M  V30 7767 O 723.63 1.88235 0.54262 0
M  V30 7768 H 722.21 0.412153 -0.623008 0
M  V30 7769 H 724.872 0.414775 -1.90435 0
M  V30 7770 H 723.968 1.7993 -2.55013 0
M  V30 7771 N 724.269 1.44576 0.627338 0
M  V30 7772 C 725.516 1.47558 1.38682 0
M  V30 7773 C 725.844 0.109636 1.94191 0
M  V30 7774 O 725.099 -0.889092 1.74338 0
M  V30 7775 C 725.398 2.48644 2.56731 0
M  V30 7776 C 725.064 3.93873 2.19489 0
M  V30 7777 C 723.726 4.33421 2.09045 0
M  V30 7778 C 726.078 4.85286 1.90124 0
M  V30 7779 C 723.406 5.62303 1.6743 0
M  V30 7780 C 725.758 6.14559 1.50001 0
M  V30 7781 C 724.422 6.53058 1.38101 0
M  V30 7782 H 723.692 0.539955 0.507474 0
M  V30 7783 H 726.339 1.77811 0.711021 0
M  V30 7784 H 724.644 2.11889 3.29561 0
M  V30 7785 H 726.341 2.48197 3.14959 0
M  V30 7786 H 722.931 3.62587 2.28537 0
M  V30 7787 H 727.115 4.55483 1.971 0
M  V30 7788 H 722.371 5.90945 1.56823 0
M  V30 7789 H 726.545 6.84848 1.26319 0
M  V30 7790 H 724.172 7.52826 1.05628 0
M  V30 7791 N 725.747 -0.868086 1.31537 0
M  V30 7792 C 726.71 -1.95703 1.19302 0
M  V30 7793 C 727.71 -1.60355 0.119612 0
M  V30 7794 O 728.9 -1.70247 0.36902 0
M  V30 7795 C 726.032 -3.30599 0.831684 0
M  V30 7796 H 727.225 -2.07982 2.16064 0
M  V30 7797 H 724.778 -1.05661 1.15176 0
M  V30 7798 H 725.513 -3.2402 -0.134694 0
M  V30 7799 H 725.298 -3.57629 1.60761 0
M  V30 7800 H 726.788 -4.10439 0.770026 0
M  V30 7801 N 727.225 -1.14528 -1.08264 0
M  V30 7802 C 728.188 -0.83632 -2.13397 0
M  V30 7803 C 729.188 0.159715 -1.60005 0
M  V30 7804 O 730.378 -0.0688098 -1.74064 0
M  V30 7805 C 727.51 -0.246973 -3.40004 0
M  V30 7806 H 728.703 -1.76808 -2.42237 0
M  V30 7807 H 726.256 -0.951509 -1.24 0
M  V30 7808 H 726.991 0.693436 -3.168 0
M  V30 7809 H 726.776 -0.964412 -3.80055 0
M  V30 7810 H 728.266 -0.0480679 -4.17572 0
M  V30 7811 N 728.703 1.26451 -0.940633 0
M  V30 7812 C 729.931 1.97868 -0.604642 0
M  V30 7813 C 730.346 1.70051 0.820251 0
M  V30 7814 O 729.703 0.96843 1.54686 0
M  V30 7815 C 729.754 3.51684 -0.836689 0
M  V30 7816 O 729.475 3.78533 -2.20554 0
M  V30 7817 C 730.976 4.40343 -0.511169 0
M  V30 7818 H 728.196 0.631105 -0.227919 0
M  V30 7819 H 730.74 1.60979 -1.26119 0
M  V30 7820 H 728.895 3.86736 -0.226759 0
M  V30 7821 H 729.309 4.73065 -2.26517 0
M  V30 7822 H 730.783 5.47229 -0.724157 0
M  V30 7823 H 731.26 4.35694 0.553815 0
M  V30 7824 H 731.866 4.10834 -1.0998 0
M  V30 7825 N 730.181 0.707592 1.40822 0
M  V30 7826 C 731.131 0.0265008 2.27985 0
M  V30 7827 C 732.115 -0.740685 1.42838 0
M  V30 7828 O 733.307 -0.6142 1.66002 0
M  V30 7829 C 730.436 -0.900382 3.31282 0
M  V30 7830 C 729.522 -0.128807 4.23904 0
M  V30 7831 N 729.913 0.883744 4.9802 0
M  V30 7832 C 728.211 -0.362539 4.44524 0
M  V30 7833 C 728.912 1.34666 5.65898 0
M  V30 7834 N 727.888 0.670306 5.39451 0
M  V30 7835 H 731.69 0.802667 2.82727 0
M  V30 7836 H 729.204 0.539475 1.53178 0
M  V30 7837 H 731.201 -1.40357 3.92563 0
M  V30 7838 H 729.861 -1.67601 2.781 0
M  V30 7839 H 730.872 1.26435 5.0223 0
M  V30 7840 H 727.549 -1.11512 4.02332 0
M  V30 7841 H 728.939 2.18756 6.35292 0
M  V30 7842 N 731.66 -1.50943 0.453197 0
M  V30 7843 C 732.608 -2.29728 -0.364419 0
M  V30 7844 C 733.602 -1.36246 -1.00664 0
M  V30 7845 O 734.808 -1.53518 -0.939794 0
M  V30 7846 H 731.183 -0.739536 -0.136347 0
M  V30 7847 H 733.154 -2.96672 0.320696 0
M  V30 7848 C 731.903 -3.1629 -1.44415 0
M  V30 7849 H 731.226 -3.88119 -0.959343 0
M  V30 7850 H 732.666 -3.74444 -1.98917 0
M  V30 7851 C 731.125 -2.32702 -2.43622 0
M  V30 7852 O 731.655 -1.99763 -3.48508 0
M  V30 7853 N 729.861 -1.95621 -2.14897 0
M  V30 7854 H 729.408 -2.22607 -1.29629 0
M  V30 7855 H 729.366 -1.39993 -2.81513 0
M  V30 7856 N 733.138 -0.185124 -1.56509 0
M  V30 7857 C 734.068 0.735098 -2.21627 0
M  V30 7858 C 735.049 1.2288 -1.1762 0
M  V30 7859 O 736.234 1.27945 -1.46095 0
M  V30 7860 C 733.364 1.95889 -2.86783 0
M  V30 7861 C 732.318 1.6005 -3.96948 0
M  V30 7862 C 731.644 2.90009 -4.4922 0
M  V30 7863 C 732.944 0.818008 -5.15855 0
M  V30 7864 H 734.638 0.192274 -2.98782 0
M  V30 7865 H 732.184 0.0910393 -1.43712 0
M  V30 7866 H 734.137 2.60779 -3.31017 0
M  V30 7867 H 732.861 2.52608 -2.07018 0
M  V30 7868 H 731.52 0.975237 -3.5339 0
M  V30 7869 H 731.168 3.44797 -3.6623 0
M  V30 7870 H 730.868 2.66778 -5.23549 0
M  V30 7871 H 732.392 3.55904 -4.9615 0
M  V30 7872 H 733.806 1.36979 -5.56695 0
M  V30 7873 H 732.203 0.684207 -5.96187 0
M  V30 7874 H 733.273 -0.182939 -4.84555 0
M  V30 7875 N 734.616 1.57351 0.0885366 0
M  V30 7876 C 735.846 1.90355 0.80303 0
M  V30 7877 C 736.254 0.777678 1.72478 0
M  V30 7878 O 735.597 -0.258908 1.81866 0
M  V30 7879 C 735.659 3.18674 1.66395 0
M  V30 7880 C 735.323 4.4778 0.913327 0
M  V30 7881 C 736.32 5.19345 0.240148 0
M  V30 7882 C 734.005 4.94434 0.885462 0
M  V30 7883 C 735.999 6.35803 -0.450854 0
M  V30 7884 C 733.686 6.10802 0.190679 0
M  V30 7885 C 734.684 6.81337 -0.476295 0
M  V30 7886 O 734.372 7.95488 -1.15992 0
M  V30 7887 H 734.104 0.634035 0.234469 0
M  V30 7888 H 736.658 2.05287 0.0681959 0
M  V30 7889 H 734.888 2.99906 2.44117 0
M  V30 7890 H 736.577 3.37458 2.2556 0
M  V30 7891 H 737.343 4.84339 0.253092 0
M  V30 7892 H 733.222 4.39417 1.39406 0
M  V30 7893 H 736.766 6.90795 -0.972019 0
M  V30 7894 H 732.663 6.45261 0.175603 0
M  V30 7895 H 733.431 8.11509 -1.06749 0
M  V30 7896 N 736.094 -0.359525 1.53444 0
M  V30 7897 C 737.319 -1.12644 1.74144 0
M  V30 7898 C 737.744 -1.82082 0.472007 0
M  V30 7899 O 737.102 -1.71962 -0.57436 0
M  V30 7900 C 737.15 -2.12781 2.9113 0
M  V30 7901 O 736.254 -3.19984 2.60162 0
M  V30 7902 H 735.595 -0.326553 0.578152 0
M  V30 7903 H 738.125 -0.414798 2.00351 0
M  V30 7904 H 738.135 -2.56278 3.17467 0
M  V30 7905 H 736.81 -1.61634 3.83207 0
M  V30 7906 H 735.387 -2.81417 2.44661 0
M  V30 7907 N 737.572 -1.44907 -0.619662 0
M  V30 7908 C 738.505 -1.47133 -1.74434 0
M  V30 7909 C 739.483 -0.328933 -1.59238 0
M  V30 7910 O 740.667 -0.527632 -1.80965 0
M  V30 7911 C 737.794 -1.31491 -3.12134 0
M  V30 7912 C 736.84 -2.49441 -3.4595 0
M  V30 7913 S 737.673 -4.11945 -3.42142 0
M  V30 7914 C 738.829 -3.98747 -4.82443 0
M  V30 7915 H 739.062 -2.42295 -1.7228 0
M  V30 7916 H 736.595 -1.32343 -0.795276 0
M  V30 7917 H 738.553 -1.23153 -3.91591 0
M  V30 7918 H 737.214 -0.378203 -3.11815 0
M  V30 7919 H 736.407 -2.3439 -4.46181 0
M  V30 7920 H 736.009 -2.54577 -2.73982 0
M  V30 7921 H 738.301 -3.63145 -5.71954 0
M  V30 7922 H 739.244 -4.98848 -5.0255 0
M  V30 7923 H 739.652 -3.30608 -4.57557 0
M  V30 7924 N 739.05 0.861098 -1.31996 0
M  V30 7925 C 739.998 1.99052 -1.20337 0
M  V30 7926 C 740.992 1.69045 -0.109623 0
M  V30 7927 O 742.198 1.77931 -0.272117 0
M  V30 7928 H 738.573 0.653064 -0.372843 0
M  V30 7929 H 740.544 2.06015 -2.15872 0
M  V30 7930 C 739.293 3.34846 -0.936663 0
M  V30 7931 H 738.616 3.58462 -1.77045 0
M  V30 7932 H 740.056 4.1444 -0.895302 0
M  V30 7933 C 738.515 3.34965 0.360607 0
M  V30 7934 O 739.045 3.7745 1.37456 0
M  V30 7935 N 737.251 2.88101 0.380296 0
M  V30 7936 H 736.798 2.53721 -0.445351 0
M  V30 7937 H 736.756 2.88563 1.24816 0
M  V30 7938 N 740.528 1.15101 1.07655 0
M  V30 7939 C 741.805 0.834578 1.76902 0
M  V30 7940 C 742.185 -0.670431 2.00171 0
M  V30 7941 O 741.533 -1.61378 1.6177 0
M  V30 7942 C 741.743 1.64191 3.07965 0
M  V30 7943 C 743.091 1.84615 3.82364 0
M  V30 7944 O 744.115 1.60941 3.17768 0
M  V30 7945 O 742.974 2.24244 4.98374 0
M  V30 7946 H 740.068 0.306608 0.768063 0
M  V30 7947 H 742.614 1.25663 1.14048 0
M  V30 7948 H 741.386 2.66386 2.86626 0
M  V30 7949 H 741.009 1.216 3.78549 0
M  V30 7950 N 742.006 -1.2595 0.947325 0
M  V30 7951 C 743.246 -1.95218 0.605743 0
M  V30 7952 C 743.61 -1.72624 -0.84054 0
M  V30 7953 O 744.811 -2.35748 -1.29136 0
M  V30 7954 C 743.082 -3.44654 0.94596 0
M  V30 7955 S 744.641 -4.32922 0.715849 0
M  V30 7956 H 741.459 -0.675159 0.222894 0
M  V30 7957 H 744.061 -1.52766 1.21995 0
M  V30 7958 H 742.765 -3.586 1.99585 0
M  V30 7959 H 742.296 -3.92082 0.321718 0
M  V30 7960 H 744.311 -4.94445 -0.416959 0
M  V30 7961 N 743.484 -0.715051 -1.40445 0
M  V30 7962 C 744.447 -0.0708726 -2.2909 0
M  V30 7963 C 745.447 0.687926 -1.45342 0
M  V30 7964 O 746.637 0.519908 -1.66261 0
M  V30 7965 C 743.769 0.909528 -3.28543 0
M  V30 7966 H 744.962 -0.851611 -2.87555 0
M  V30 7967 H 742.515 -0.479674 -1.48758 0
M  V30 7968 H 743.25 1.71734 -2.75096 0
M  V30 7969 H 743.035 0.368318 -3.90366 0
M  V30 7970 H 744.525 1.35744 -3.94922 0
M  V30 7971 N 744.962 1.50701 -0.461195 0
M  V30 7972 C 745.894 2.26124 0.374244 0
M  V30 7973 C 746.907 1.31064 0.965715 0
M  V30 7974 O 748.096 1.56647 0.855801 0
M  V30 7975 C 745.196 3.01996 1.5379 0
M  V30 7976 C 744.369 4.24336 1.06101 0
M  V30 7977 C 743.428 4.82585 2.09756 0
M  V30 7978 O 742.454 5.43775 1.68219 0
M  V30 7979 N 743.656 4.68712 3.42475 0
M  V30 7980 H 746.421 2.9846 -0.2723 0
M  V30 7981 H 743.982 1.59256 -0.291415 0
M  V30 7982 H 745.974 3.37846 2.22806 0
M  V30 7983 H 744.544 2.32521 2.08933 0
M  V30 7984 H 743.764 3.93707 0.197085 0
M  V30 7985 H 745.052 5.03678 0.720156 0
M  V30 7986 H 744.45 4.20026 3.78938 0
M  V30 7987 H 743.007 5.08858 4.07317 0
M  V30 7988 N 746.441 0.193421 1.56409 0
M  V30 7989 C 747.388 -0.728124 2.19014 0
M  V30 7990 C 748.358 -1.21098 1.13686 0
M  V30 7991 O 749.543 -1.27517 1.4193 0
M  V30 7992 C 746.683 -1.94277 2.8522 0
M  V30 7993 C 745.796 -1.50143 4.05069 0
M  V30 7994 C 744.931 -2.67145 4.59137 0
M  V30 7995 C 743.97 -2.19609 5.71348 0
M  V30 7996 N 743.107 -3.29782 6.19829 0
M  V30 7997 H 747.947 -0.187499 2.9741 0
M  V30 7998 H 745.484 -0.0808064 1.46878 0
M  V30 7999 H 747.442 -2.65551 3.21774 0
M  V30 8000 H 746.072 -2.45673 2.09391 0
M  V30 8001 H 745.124 -0.684624 3.74189 0
M  V30 8002 H 746.436 -1.11266 4.86232 0
M  V30 8003 H 745.59 -3.46544 4.97988 0
M  V30 8004 H 744.329 -3.09295 3.77078 0
M  V30 8005 H 743.334 -1.38664 5.32027 0
M  V30 8006 H 744.559 -1.78492 6.55223 0
M  V30 8007 H 742.505 -3.71466 5.40693 0
M  V30 8008 H 742.422 -2.95069 6.96039 0
M  V30 8009 H 743.69 -4.094 6.63334 0
M  V30 8010 N 747.919 -1.57396 -0.0801906 0
M  V30 8011 C 749.168 -1.8602 -0.779702 0
M  V30 8012 C 749.481 -0.784864 -1.79163 0
M  V30 8013 O 750.687 -0.958691 -2.54011 0
M  V30 8014 C 749.143 -3.29942 -1.43758 0
M  V30 8015 C 748.751 -4.45584 -0.464654 0
M  V30 8016 C 750.495 -3.67775 -2.11995 0
M  V30 8017 C 748.402 -5.80544 -1.12797 0
M  V30 8018 H 747.332 -0.69392 -0.294943 0
M  V30 8019 H 749.983 -1.83471 -0.0328527 0
M  V30 8020 H 748.365 -3.27078 -2.2324 0
M  V30 8021 H 749.539 -4.59824 0.299749 0
M  V30 8022 H 747.854 -4.16247 0.112813 0
M  V30 8023 H 750.451 -4.65896 -2.62383 0
M  V30 8024 H 750.794 -2.9715 -2.91561 0
M  V30 8025 H 751.327 -3.72593 -1.39354 0
M  V30 8026 H 748.066 -6.54439 -0.372807 0
M  V30 8027 H 747.586 -5.70119 -1.86344 0
M  V30 8028 H 749.265 -6.25602 -1.6502 0
M  V30 8029 N 749.397 0.351382 -1.53633 0
M  V30 8030 C 750.327 1.43688 -1.84055 0
M  V30 8031 C 751.308 1.55251 -0.695073 0
M  V30 8032 O 752.493 1.69587 -0.946257 0
M  V30 8033 C 749.623 2.80843 -2.04315 0
M  V30 8034 C 748.577 2.84094 -3.20117 0
M  V30 8035 C 747.903 4.2406 -3.25696 0
M  V30 8036 C 749.203 2.50334 -4.58399 0
M  V30 8037 H 750.897 1.18478 -2.74961 0
M  V30 8038 H 748.443 0.568509 -1.32303 0
M  V30 8039 H 750.396 3.56821 -2.2418 0
M  V30 8040 H 749.12 3.07471 -1.10132 0
M  V30 8041 H 747.779 2.10568 -3.00094 0
M  V30 8042 H 747.427 4.47785 -2.29123 0
M  V30 8043 H 747.127 4.27147 -4.03509 0
M  V30 8044 H 748.651 5.0189 -3.47762 0
M  V30 8045 H 750.065 3.16025 -4.78332 0
M  V30 8046 H 748.462 2.64717 -5.38558 0
M  V30 8047 H 749.532 1.45542 -4.62543 0
M  V30 8048 N 750.875 1.45233 0.611969 0
M  V30 8049 C 752.286 1.4354 1.19387 0
M  V30 8050 C 752.637 0.160713 1.95541 0
M  V30 8051 O 751.762 -0.737954 2.03429 0
M  V30 8052 C 752.357 2.60045 2.17169 0
M  V30 8053 C 750.916 2.61486 2.70744 0
M  V30 8054 C 750.063 2.35708 1.46072 0
M  V30 8055 H 753.014 1.53536 0.401529 0
M  V30 8056 H 753.035 2.33893 3.00124 0
M  V30 8057 H 752.547 3.52803 1.61714 0
M  V30 8058 H 750.648 1.72721 3.30149 0
M  V30 8059 H 750.761 3.60572 3.15476 0
M  V30 8060 H 749.125 1.85178 1.74875 0
M  V30 8061 H 749.908 3.30606 0.924922 0
M  V30 8062 N 752.353 -0.854086 1.3245 0
M  V30 8063 C 753.599 -1.61069 1.23225 0
M  V30 8064 C 753.932 -1.93111 -0.205349 0
M  V30 8065 O 753.207 -1.57397 -1.14265 0
M  V30 8066 C 753.49 -2.93065 2.09249 0
M  V30 8067 C 753.343 -2.67801 3.6139 0
M  V30 8068 C 754.662 -3.94341 1.95406 0
M  V30 8069 H 751.781 -0.584449 0.448986 0
M  V30 8070 H 754.423 -0.986189 1.62402 0
M  V30 8071 H 752.573 -3.46364 1.75967 0
M  V30 8072 H 754.245 -2.21052 4.04887 0
M  V30 8073 H 752.488 -2.01756 3.84027 0
M  V30 8074 H 753.159 -3.6179 4.16907 0
M  V30 8075 H 755.635 -3.50301 2.24562 0
M  V30 8076 H 754.511 -4.84555 2.57872 0
M  V30 8077 H 754.772 -4.32382 0.921865 0
M  V30 8078 N 753.831 -1.1567 -1.07043 0
M  V30 8079 C 754.761 -0.879348 -2.16309 0
M  V30 8080 C 755.742 0.171311 -1.69235 0
M  V30 8081 O 756.927 0.0250175 -1.94184 0
M  V30 8082 C 754.057 -0.371307 -3.45309 0
M  V30 8083 C 753.011 -1.359 -4.05851 0
M  V30 8084 C 752.337 -0.709678 -5.29969 0
M  V30 8085 C 753.637 -2.72606 -4.45514 0
M  V30 8086 H 755.331 -1.79308 -2.39768 0
M  V30 8087 H 752.877 -0.863558 -1.15233 0
M  V30 8088 H 754.83 -0.164798 -4.21078 0
M  V30 8089 H 753.554 0.577906 -3.21446 0
M  V30 8090 H 752.213 -1.55193 -3.32131 0
M  V30 8091 H 751.861 0.245782 -5.02399 0
M  V30 8092 H 751.561 -1.36886 -5.71433 0
M  V30 8093 H 753.085 -0.513015 -6.08441 0
M  V30 8094 H 754.499 -2.57141 -5.12398 0
M  V30 8095 H 752.896 -3.34927 -4.97939 0
M  V30 8096 H 753.966 -3.28434 -3.56734 0
M  V30 8097 N 755.309 1.25446 -0.953992 0
M  V30 8098 C 756.549 1.94894 -0.616087 0
M  V30 8099 C 756.913 1.73067 0.831374 0
M  V30 8100 O 758.114 2.3643 1.27884 0
M  V30 8101 C 756.385 3.44147 -0.964225 0
M  V30 8102 S 757.944 4.32536 -0.738798 0
M  V30 8103 H 754.762 0.673967 -0.226472 0
M  V30 8104 H 757.364 1.52117 -1.22803 0
M  V30 8105 H 756.068 3.57537 -2.01484 0
M  V30 8106 H 755.599 3.91906 -0.342507 0
M  V30 8107 H 757.614 4.94659 0.390732 0
M  V30 8108 N 756.787 0.722489 1.40064 0
M  V30 8109 C 758.035 0.264455 2.00362 0
M  V30 8110 C 758.356 -1.14847 1.57592 0
M  V30 8111 O 757.626 -1.77982 0.818477 0
M  V30 8112 H 756.206 0.0947846 0.740962 0
M  V30 8113 H 758.868 0.929659 1.71299 0
M  V30 8114 H 757.964 0.302977 3.10626 0
M  V30 8115 N 758.265 -1.50454 0.469181 0
M  V30 8116 C 759.195 -2.31353 -0.31592 0
M  V30 8117 C 760.176 -1.38172 -0.992094 0
M  V30 8118 O 761.361 -1.67093 -0.989633 0
M  V30 8119 C 758.491 -3.1786 -1.39937 0
M  V30 8120 C 757.445 -4.19578 -0.844909 0
M  V30 8121 C 756.771 -4.9481 -2.0265 0
M  V30 8122 C 758.071 -5.22106 0.142499 0
M  V30 8123 H 759.765 -2.97237 0.359269 0
M  V30 8124 H 757.311 -1.42942 0.174224 0
M  V30 8125 H 759.264 -3.7325 -1.95607 0
M  V30 8126 H 757.988 -2.49858 -2.1033 0
M  V30 8127 H 756.647 -3.65285 -0.310189 0
M  V30 8128 H 756.295 -4.23282 -2.71737 0
M  V30 8129 H 755.995 -5.63613 -1.66174 0
M  V30 8130 H 757.519 -5.53035 -2.58815 0
M  V30 8131 H 758.933 -5.72378 -0.324966 0
M  V30 8132 H 757.33 -5.98618 0.421441 0
M  V30 8133 H 758.4 -4.7297 1.06901 0
M  V30 8134 N 759.743 -0.201713 -1.56304 0
M  V30 8135 C 760.971 0.440723 -2.02152 0
M  V30 8136 C 761.386 1.54735 -1.08179 0
M  V30 8137 O 760.743 1.82289 -0.0878196 0
M  V30 8138 C 760.794 0.990884 -3.47655 0
M  V30 8139 O 760.515 -0.0715937 -4.38041 0
M  V30 8140 C 762.016 1.70854 -4.09052 0
M  V30 8141 H 759.236 0.109987 -0.661924 0
M  V30 8142 H 761.78 -0.312358 -2.021 0
M  V30 8143 H 759.935 1.69432 -3.48384 0
M  V30 8144 H 760.349 0.338892 -5.23404 0
M  V30 8145 H 761.823 2.04572 -5.12693 0
M  V30 8146 H 762.3 2.61462 -3.52894 0
M  V30 8147 H 762.906 1.0508 -4.12114 0
M  V30 8148 N 761.222 1.57436 0.0718424 0
M  V30 8149 C 762.468 1.87525 0.772149 0
M  V30 8150 C 762.801 0.79399 1.77227 0
M  V30 8151 O 762.076 -0.195733 1.93513 0
M  V30 8152 C 762.359 3.28272 1.48018 0
M  V30 8153 C 762.212 4.47052 0.49647 0
M  V30 8154 C 763.531 3.67256 2.42509 0
M  V30 8155 H 760.65 0.682049 0.279245 0
M  V30 8156 H 763.292 1.89967 0.03534 0
M  V30 8157 H 761.442 3.26321 2.10824 0
M  V30 8158 H 763.114 4.61127 -0.126375 0
M  V30 8159 H 761.357 4.33392 -0.188205 0
M  V30 8160 H 762.028 5.42315 1.02949 0
M  V30 8161 H 764.504 3.70301 1.89781 0
M  V30 8162 H 763.38 4.66626 2.89053 0
M  V30 8163 H 763.641 2.97186 3.27312 0
M  V30 8164 N 762.7 -0.34323 1.53817 0
M  V30 8165 C 763.977 -1.10047 1.61706 0
M  V30 8166 C 764.357 -2.06495 0.438514 0
M  V30 8167 O 763.705 -2.21297 -0.569188 0
M  V30 8168 C 763.915 -1.81985 2.97796 0
M  V30 8169 C 765.263 -2.35717 3.53161 0
M  V30 8170 O 766.287 -1.9208 2.99973 0
M  V30 8171 O 765.146 -3.15551 4.46195 0
M  V30 8172 H 762.24 -0.506096 0.654061 0
M  V30 8173 H 764.786 -0.344697 1.66162 0
M  V30 8174 H 763.558 -1.11722 3.75012 0
M  V30 8175 H 763.181 -2.64419 2.96931 0
M  V30 8176 N 764.178 -1.45556 -0.604258 0
M  V30 8177 C 765.589 -1.44171 -1.18624 0
M  V30 8178 C 765.94 -0.171081 -1.95453 0
M  V30 8179 O 765.065 0.727156 -2.03817 0
M  V30 8180 C 765.66 -2.61193 -2.15786 0
M  V30 8181 C 764.219 -2.62918 -2.69353 0
M  V30 8182 C 763.366 -2.36479 -1.4482 0
M  V30 8183 H 766.317 -1.53747 -0.393381 0
M  V30 8184 H 766.338 -2.35481 -2.98879 0
M  V30 8185 H 765.85 -3.53656 -1.59841 0
M  V30 8186 H 763.951 -1.7447 -3.29228 0
M  V30 8187 H 764.064 -3.6224 -3.13559 0
M  V30 8188 H 762.428 -1.86103 -1.73891 0
M  V30 8189 H 763.211 -3.31091 -0.907376 0
M  V30 8190 N 765.656 0.84705 -1.32902 0
M  V30 8191 C 766.566 1.98845 -1.2449 0
M  V30 8192 C 767.582 1.7329 -0.15702 0
M  V30 8193 O 768.758 1.978 -0.379104 0
M  V30 8194 C 765.823 3.32679 -0.975985 0
M  V30 8195 C 764.884 3.71405 -2.15306 0
M  V30 8196 C 764.117 4.98853 -1.89688 0
M  V30 8197 O 764.34 5.64134 -0.843168 0
M  V30 8198 O 763.274 5.34889 -2.76002 0
M  V30 8199 H 767.1 2.0888 -2.2046 0
M  V30 8200 H 764.685 0.978852 -1.12867 0
M  V30 8201 H 766.567 4.12885 -0.842826 0
M  V30 8202 H 765.242 3.23667 -0.0464954 0
M  V30 8203 H 764.149 2.91743 -2.34172 0
M  V30 8204 H 765.482 3.85073 -3.06561 0
M  V30 8205 N 767.134 1.16236 1.06428 0
M  V30 8206 C 768.081 0.86769 2.13869 0
M  V30 8207 C 769.051 -0.183298 1.65086 0
M  V30 8208 O 770.236 -0.0488002 1.90738 0
M  V30 8209 C 767.376 0.373427 3.43074 0
M  V30 8210 C 766.489 1.48708 4.05598 0
M  V30 8211 C 765.624 0.947977 5.22673 0
M  V30 8212 C 764.663 2.03793 5.77178 0
M  V30 8213 N 763.8 1.51451 6.85571 0
M  V30 8214 H 768.64 1.78781 2.38414 0
M  V30 8215 H 766.177 0.891892 1.16977 0
M  V30 8216 H 768.135 0.0685035 4.17144 0
M  V30 8217 H 766.765 -0.509752 3.1875 0
M  V30 8218 H 765.817 1.908 3.29089 0
M  V30 8219 H 767.129 2.30964 4.42105 0
M  V30 8220 H 766.283 0.596154 6.03764 0
M  V30 8221 H 765.022 0.0947081 4.87608 0
M  V30 8222 H 764.027 2.39847 4.94726 0
M  V30 8223 H 765.252 2.89514 6.14295 0
M  V30 8224 H 763.198 0.683755 6.52427 0
M  V30 8225 H 763.115 2.27325 7.21013 0
M  V30 8226 H 764.383 1.19123 7.70344 0
M  V30 8227 N 768.612 -1.24939 0.960631 0
M  V30 8228 C 769.837 -1.9742 0.635608 0
M  V30 8229 C 770.262 -1.70857 -0.786737 0
M  V30 8230 O 769.62 -0.968063 -1.53291 0
M  V30 8231 C 769.668 -3.48987 0.907771 0
M  V30 8232 O 768.772 -4.12399 -0.0104053 0
M  V30 8233 H 768.113 -0.61871 0.241027 0
M  V30 8234 H 770.643 -1.58901 1.28886 0
M  V30 8235 H 770.653 -3.99334 0.836453 0
M  V30 8236 H 769.328 -3.6765 1.94439 0
M  V30 8237 H 767.905 -3.72727 0.113631 0
M  V30 8238 N 770.09 -0.729906 -1.39679 0
M  V30 8239 C 771.336 -0.27603 -2.00913 0
M  V30 8240 C 771.669 1.13227 -1.57776 0
M  V30 8241 O 770.944 1.7709 -0.804319 0
M  V30 8242 C 771.227 -0.372157 -3.58172 0
M  V30 8243 C 771.08 -1.81986 -4.11341 0
M  V30 8244 C 772.399 0.248378 -4.39399 0
M  V30 8245 H 769.518 -0.101773 -0.729939 0
M  V30 8246 H 772.16 -0.925104 -1.65957 0
M  V30 8247 H 770.31 0.180459 -3.88081 0
M  V30 8248 H 771.982 -2.42896 -3.92172 0
M  V30 8249 H 770.225 -2.34287 -3.65092 0
M  V30 8250 H 770.896 -1.83842 -5.20486 0
M  V30 8251 H 773.372 -0.222645 -4.15504 0
M  V30 8252 H 772.248 0.150746 -5.48693 0
M  V30 8253 H 772.509 1.33378 -4.21501 0
M  V30 8254 N 771.568 1.50203 -0.477153 0
M  V30 8255 C 772.984 1.59056 -0.131663 0
M  V30 8256 C 773.184 1.48473 1.36227 0
M  V30 8257 O 772.24 1.34635 2.13611 0
M  V30 8258 C 773.553 2.92741 -0.687254 0
M  V30 8259 C 775.101 3.0615 -0.651223 0
M  V30 8260 C 775.576 4.42419 -1.18446 0
M  V30 8261 N 777.067 4.48847 -1.14413 0
M  V30 8262 C 777.802 5.52689 -1.52717 0
M  V30 8263 N 777.298 6.63754 -1.98499 0
M  V30 8264 N 779.091 5.43267 -1.44282 0
M  V30 8265 H 771.242 1.55325 -1.44872 0
M  V30 8266 H 773.505 0.734395 -0.599473 0
M  V30 8267 H 773.211 3.0598 -1.73405 0
M  V30 8268 H 773.085 3.76961 -0.134215 0
M  V30 8269 H 775.472 2.92556 0.386677 0
M  V30 8270 H 775.553 2.23673 -1.24114 0
M  V30 8271 H 775.197 4.56763 -2.22103 0
M  V30 8272 H 775.127 5.23498 -0.570709 0
M  V30 8273 H 777.618 3.69152 -0.808416 0
M  V30 8274 H 777.931 7.39059 -2.25859 0
M  V30 8275 H 776.276 6.64858 -2.02456 0
M  V30 8276 H 779.467 4.55387 -1.08352 0
M  V30 8277 H 779.64 6.24074 -1.74459 0
M  V30 8278 N 773.046 0.209999 1.56195 0
M  V30 8279 C 774.323 -0.473214 1.89789 0
M  V30 8280 C 774.703 -1.78581 1.1257 0
M  V30 8281 O 774.051 -2.27325 0.231398 0
M  V30 8282 C 774.261 -0.677458 3.42362 0
M  V30 8283 C 775.609 -0.990114 4.12895 0
M  V30 8284 O 776.633 -0.764655 3.47896 0
M  V30 8285 O 775.492 -1.41737 5.278 0
M  V30 8286 H 772.586 -0.248622 0.788743 0
M  V30 8287 H 775.132 0.251324 1.67829 0
M  V30 8288 H 773.904 0.248878 3.90508 0
M  V30 8289 H 773.527 -1.45391 3.70064 0
M  V30 8290 N 774.524 -1.57472 -0.0634922 0
M  V30 8291 C 775.456 -2.00999 -1.10145 0
M  V30 8292 C 776.469 -0.917219 -1.34503 0
M  V30 8293 O 777.658 -1.19501 -1.32596 0
M  V30 8294 C 774.758 -2.34089 -2.45063 0
M  V30 8295 C 773.931 -3.65317 -2.40546 0
M  V30 8296 C 772.99 -3.85982 -3.57637 0
M  V30 8297 O 772.016 -4.5747 -3.38689 0
M  V30 8298 N 773.218 -3.28971 -4.78287 0
M  V30 8299 H 775.983 -2.90656 -0.730714 0
M  V30 8300 H 773.544 -1.59926 -0.252017 0
M  V30 8301 H 775.536 -2.4508 -3.22053 0
M  V30 8302 H 774.106 -1.50279 -2.74107 0
M  V30 8303 H 773.326 -3.65003 -1.48885 0
M  V30 8304 H 774.614 -4.51468 -2.34636 0
M  V30 8305 H 774.012 -2.70962 -4.96584 0
M  V30 8306 H 772.569 -3.45398 -5.5276 0
M  V30 8307 N 776.003 0.335068 -1.53997 0
M  V30 8308 C 776.966 1.39481 -1.81872 0
M  V30 8309 C 777.966 1.4524 -0.690078 0
M  V30 8310 O 779.156 1.45467 -0.958377 0
M  V30 8311 C 776.288 2.78329 -1.9684 0
M  V30 8312 H 777.481 1.16024 -2.76547 0
M  V30 8313 H 775.034 0.569926 -1.45539 0
M  V30 8314 H 775.769 3.07058 -1.04337 0
M  V30 8315 H 775.554 2.75544 -2.78958 0
M  V30 8316 H 777.044 3.55016 -2.19894 0
M  V30 8317 N 777.481 1.45874 0.596531 0
M  V30 8318 C 778.728 1.50467 1.35521 0
M  V30 8319 C 779.056 0.150802 1.93915 0
M  V30 8320 O 778.311 -0.851913 1.76184 0
M  V30 8321 C 778.61 2.54034 2.51399 0
M  V30 8322 C 778.276 3.9844 2.11085 0
M  V30 8323 C 776.938 4.37758 1.99804 0
M  V30 8324 C 779.29 4.89209 1.79788 0
M  V30 8325 C 776.618 5.65727 1.55465 0
M  V30 8326 C 778.97 6.17602 1.36931 0
M  V30 8327 C 777.634 6.5584 1.24218 0
M  V30 8328 H 776.904 0.550597 0.495907 0
M  V30 8329 H 779.551 1.79279 0.673145 0
M  V30 8330 H 777.856 2.18832 3.24992 0
M  V30 8331 H 779.553 2.54822 3.09624 0
M  V30 8332 H 776.143 3.67353 2.20794 0
M  V30 8333 H 780.327 4.59562 1.87395 0
M  V30 8334 H 775.583 5.94139 1.44253 0
M  V30 8335 H 779.757 6.87373 1.11764 0
M  V30 8336 H 777.384 7.54897 0.896353 0
M  V30 8337 N 778.959 -0.83999 1.33349 0
M  V30 8338 C 779.906 -1.94972 1.23509 0
M  V30 8339 C 780.876 -1.65709 0.113967 0
M  V30 8340 O 782.061 -1.88552 0.292045 0
M  V30 8341 C 779.201 -3.30919 0.979105 0
M  V30 8342 C 778.314 -3.72587 2.18639 0
M  V30 8343 C 777.449 -4.97397 1.86465 0
M  V30 8344 C 776.488 -5.31597 3.03432 0
M  V30 8345 N 775.625 -6.47584 2.71254 0
M  V30 8346 H 780.465 -2.0272 2.18423 0
M  V30 8347 H 778.002 -0.992017 1.08616 0
M  V30 8348 H 779.96 -4.09239 0.811126 0
M  V30 8349 H 778.59 -3.22731 0.0667099 0
M  V30 8350 H 777.642 -2.89799 2.46416 0
M  V30 8351 H 778.954 -3.93844 3.06086 0
M  V30 8352 H 778.108 -5.83462 1.66305 0
M  V30 8353 H 776.847 -4.78107 0.96254 0
M  V30 8354 H 775.852 -4.44037 3.24208 0
M  V30 8355 H 777.077 -5.52836 3.94397 0
M  V30 8356 H 775.023 -6.29783 1.836 0
M  V30 8357 H 774.94 -6.68931 3.52231 0
M  V30 8358 H 776.208 -7.36764 2.54558 0
M  V30 8359 N 780.437 -1.16799 -1.0581 0
M  V30 8360 C 781.4 -0.881396 -2.11575 0
M  V30 8361 C 782.4 0.12574 -1.60308 0
M  V30 8362 O 783.59 -0.105716 -1.73879 0
M  V30 8363 C 780.722 -0.319037 -3.39404 0
M  V30 8364 H 781.915 -1.81907 -2.38432 0
M  V30 8365 H 779.468 -0.977597 -1.21954 0
M  V30 8366 H 780.203 0.626082 -3.18199 0
M  V30 8367 H 779.988 -1.04481 -3.77923 0
M  V30 8368 H 781.478 -0.13663 -4.17376 0
M  V30 8369 N 781.915 1.24427 -0.967243 0
M  V30 8370 C 783.164 1.91789 -0.624478 0
M  V30 8371 C 783.477 1.76448 0.844129 0
M  V30 8372 O 784.683 2.38495 1.2974 0
M  V30 8373 C 783.139 3.43743 -1.06626 0
M  V30 8374 C 782.747 3.67771 -2.55829 0
M  V30 8375 C 784.491 4.16958 -0.79662 0
M  V30 8376 C 782.398 5.13293 -2.93742 0
M  V30 8377 H 781.328 0.71811 -0.229856 0
M  V30 8378 H 783.979 1.41081 -1.17339 0
M  V30 8379 H 782.361 3.93484 -0.445663 0
M  V30 8380 H 783.535 3.28631 -3.23015 0
M  V30 8381 H 781.85 3.07841 -2.80398 0
M  V30 8382 H 784.447 5.24171 -1.05589 0
M  V30 8383 H 784.79 4.15442 0.267163 0
M  V30 8384 H 785.323 3.73164 -1.37816 0
M  V30 8385 H 782.062 5.19931 -3.9919 0
M  V30 8386 H 781.582 5.53433 -2.3124 0
M  V30 8387 H 783.261 5.81521 -2.83623 0
M  V30 8388 N 783.393 0.737304 1.3929 0
M  V30 8389 C 784.809 0.413132 1.5416 0
M  V30 8390 C 785.009 -1.07574 1.70382 0
M  V30 8391 O 784.065 -1.86185 1.70562 0
M  V30 8392 C 785.378 1.19817 2.75798 0
M  V30 8393 C 786.926 1.18662 2.89635 0
M  V30 8394 C 787.401 1.95427 4.14213 0
M  V30 8395 N 788.892 1.92605 4.21257 0
M  V30 8396 C 789.627 2.48808 5.16606 0
M  V30 8397 N 789.123 3.13659 6.1773 0
M  V30 8398 N 790.916 2.38829 5.08839 0
M  V30 8399 H 783.067 1.70243 1.27008 0
M  V30 8400 H 785.33 0.720802 0.61575 0
M  V30 8401 H 785.036 2.25179 2.70161 0
M  V30 8402 H 784.91 0.804144 3.68529 0
M  V30 8403 H 787.297 0.141112 2.94762 0
M  V30 8404 H 787.378 1.62003 1.97961 0
M  V30 8405 H 787.022 2.9998 4.09847 0
M  V30 8406 H 786.952 1.4949 5.04936 0
M  V30 8407 H 789.443 1.45362 3.48824 0
M  V30 8408 H 789.756 3.54006 6.8695 0
M  V30 8409 H 788.101 3.17749 6.1811 0
M  V30 8410 H 791.292 1.87806 4.28773 0
M  V30 8411 H 791.465 2.82929 5.82971 0
M  V30 8412 N 784.871 -1.49948 0.485112 0
M  V30 8413 C 786.096 -2.073 -0.0645059 0
M  V30 8414 C 786.521 -1.345 -1.31497 0
M  V30 8415 O 785.879 -0.39687 -1.76903 0
M  V30 8416 C 785.927 -3.59201 -0.317304 0
M  V30 8417 O 785.031 -3.88085 -1.39514 0
M  V30 8418 H 784.372 -0.663723 0.0191822 0
M  V30 8419 H 786.902 -1.92963 0.680179 0
M  V30 8420 H 786.912 -4.04227 -0.553604 0
M  V30 8421 H 785.587 -4.11602 0.596387 0
M  V30 8422 H 784.164 -3.54885 -1.14504 0
M  V30 8423 N 786.349 -0.21828 -1.56081 0
M  V30 8424 C 787.596 0.414307 -1.98216 0
M  V30 8425 C 787.924 1.60005 -1.10584 0
M  V30 8426 O 787.179 1.95124 -0.150043 0
M  V30 8427 C 787.478 0.894782 -3.46018 0
M  V30 8428 C 787.144 -0.180083 -4.5054 0
M  V30 8429 C 785.806 -0.475367 -4.78846 0
M  V30 8430 C 788.158 -0.907191 -5.13244 0
M  V30 8431 C 785.486 -1.50233 -5.67139 0
M  V30 8432 C 787.838 -1.92347 -6.02649 0
M  V30 8433 C 786.502 -2.22571 -6.293 0
M  V30 8434 H 785.772 0.151606 -0.725325 0
M  V30 8435 H 788.419 -0.320113 -1.88806 0
M  V30 8436 H 786.724 1.7079 -3.52616 0
M  V30 8437 H 788.421 1.39403 -3.75989 0
M  V30 8438 H 785.011 0.06022 -4.28558 0
M  V30 8439 H 789.195 -0.692303 -4.91448 0
M  V30 8440 H 784.451 -1.74215 -5.86054 0
M  V30 8441 H 788.625 -2.49197 -6.50288 0
M  V30 8442 H 786.252 -3.0229 -6.97513 0
M  V30 8443 N 787.827 1.57504 0.0551401 0
M  V30 8444 C 788.757 2.07864 1.06372 0
M  V30 8445 C 789.738 0.975565 1.39344 0
M  V30 8446 O 790.923 1.24929 1.48682 0
M  V30 8447 C 788.053 2.53643 2.3724 0
M  V30 8448 C 787.007 3.67978 2.18578 0
M  V30 8449 C 786.333 3.9987 3.54976 0
M  V30 8450 C 787.633 4.97405 1.59329 0
M  V30 8451 H 789.327 2.92379 0.644595 0
M  V30 8452 H 786.873 1.40654 0.308619 0
M  V30 8453 H 788.826 2.8749 3.08103 0
M  V30 8454 H 787.55 1.66177 2.81163 0
M  V30 8455 H 786.209 3.3444 1.50152 0
M  V30 8456 H 785.857 3.0951 3.965 0
M  V30 8457 H 785.557 4.76867 3.43324 0
M  V30 8458 H 787.081 4.36228 4.27244 0
M  V30 8459 H 788.495 5.29375 2.20078 0
M  V30 8460 H 786.892 5.78837 1.58327 0
M  V30 8461 H 787.962 4.81697 0.55638 0
M  V30 8462 N 789.305 -0.326896 1.54172 0
M  V30 8463 C 790.53 -1.08924 1.76494 0
M  V30 8464 C 790.955 -1.81039 0.510523 0
M  V30 8465 O 790.313 -1.73141 -0.537756 0
M  V30 8466 C 790.361 -2.06558 2.95578 0
M  V30 8467 O 789.465 -3.14394 2.6689 0
M  V30 8468 H 788.806 -0.314216 0.584948 0
M  V30 8469 H 791.336 -0.372207 2.01186 0
M  V30 8470 H 791.346 -2.49487 3.22832 0
M  V30 8471 H 790.021 -1.53469 3.86549 0
M  V30 8472 H 788.598 -2.76164 2.50576 0
M  V30 8473 N 790.784 -1.46188 -0.588786 0
M  V30 8474 C 791.731 -1.56292 -1.69828 0
M  V30 8475 C 792.701 -0.407581 -1.61022 0
M  V30 8476 O 793.886 -0.623532 -1.80324 0
M  V30 8477 C 791.026 -1.55341 -3.08161 0
M  V30 8478 C 790.139 -2.81564 -3.27636 0
M  V30 8479 C 789.274 -2.72158 -4.56183 0
M  V30 8480 C 788.313 -3.93348 -4.68981 0
M  V30 8481 N 787.45 -3.82365 -5.88848 0
M  V30 8482 H 792.29 -2.51066 -1.6053 0
M  V30 8483 H 789.827 -1.24562 -0.782474 0
M  V30 8484 H 791.785 -1.52776 -3.88221 0
M  V30 8485 H 790.415 -0.641034 -3.16371 0
M  V30 8486 H 789.467 -2.94136 -2.41223 0
M  V30 8487 H 790.779 -3.714 -3.32962 0
M  V30 8488 H 789.933 -2.67665 -5.44464 0
M  V30 8489 H 788.672 -1.79953 -4.53286 0
M  V30 8490 H 787.677 -3.98181 -3.7912 0
M  V30 8491 H 788.902 -4.86643 -4.73662 0
M  V30 8492 H 786.848 -2.92942 -5.86959 0
M  V30 8493 H 786.765 -4.65851 -5.95415 0
M  V30 8494 H 788.033 -3.81836 -6.79575 0
M  V30 8495 N 792.262 0.832906 -1.33792 0
M  V30 8496 C 793.192 1.95828 -1.27176 0
M  V30 8497 C 794.173 1.69427 -0.15114 0
M  V30 8498 O 795.358 1.91167 -0.341886 0
M  V30 8499 C 792.488 3.32098 -1.01629 0
M  V30 8500 C 791.442 3.72912 -2.10049 0
M  V30 8501 C 790.768 5.07054 -1.69706 0
M  V30 8502 C 792.068 3.86064 -3.51783 0
M  V30 8503 H 793.762 2.01622 -2.21334 0
M  V30 8504 H 791.308 0.96866 -1.0655 0
M  V30 8505 H 793.261 4.10402 -0.956474 0
M  V30 8506 H 791.985 3.26577 -0.0390956 0
M  V30 8507 H 790.644 2.96876 -2.15082 0
M  V30 8508 H 790.292 4.9801 -0.706737 0
M  V30 8509 H 789.992 5.35333 -2.42264 0
M  V30 8510 H 791.516 5.87827 -1.65202 0
M  V30 8511 H 792.93 4.54665 -3.49218 0
M  V30 8512 H 791.327 4.25787 -4.22878 0
M  V30 8513 H 792.397 2.88344 -3.89854 0
M  V30 8514 N 793.74 1.17359 1.05189 0
M  V30 8515 C 794.65 0.904984 2.16442 0
M  V30 8516 C 795.666 -0.12686 1.73537 0
M  V30 8517 O 796.842 0.0524127 2.01332 0
M  V30 8518 C 793.907 0.422019 3.44122 0
M  V30 8519 C 792.968 1.52045 4.01473 0
M  V30 8520 C 792.201 1.06044 5.23059 0
M  V30 8521 O 792.424 -0.0854023 5.70336 0
M  V30 8522 O 791.358 1.85349 5.72651 0
M  V30 8523 H 795.184 1.8356 2.41949 0
M  V30 8524 H 792.769 0.95447 1.14936 0
M  V30 8525 H 794.651 0.160208 4.21095 0
M  V30 8526 H 793.326 -0.480444 3.20115 0
M  V30 8527 H 792.233 1.83615 3.25939 0
M  V30 8528 H 793.566 2.39863 4.29798 0
M  V30 8529 N 795.218 -1.23913 0.973828 0
M  V30 8530 C 796.443 -1.96735 0.656511 0
M  V30 8531 C 796.868 -1.71682 -0.768571 0
M  V30 8532 O 796.226 -0.984267 -1.52256 0
M  V30 8533 C 796.274 -3.48004 0.944735 0
M  V30 8534 O 795.378 -4.12387 0.0333357 0
M  V30 8535 H 794.719 -0.616119 0.247575 0
M  V30 8536 H 797.249 -1.57525 1.30564 0
M  V30 8537 H 797.259 -3.98424 0.87876 0
M  V30 8538 H 795.934 -3.65567 1.98328 0
M  V30 8539 H 794.511 -3.72585 0.153157 0
M  V30 8540 N 796.696 -0.74468 -1.38897 0
M  V30 8541 C 797.942 -0.297324 -2.00609 0
M  V30 8542 C 798.275 1.11547 -1.58968 0
M  V30 8543 O 797.55 1.76227 -0.823057 0
M  V30 8544 C 797.833 -0.410125 -3.57757 0
M  V30 8545 C 797.686 -1.86338 -4.09387 0
M  V30 8546 C 799.005 0.20176 -4.39637 0
M  V30 8547 H 796.124 -0.109509 -0.728819 0
M  V30 8548 H 798.766 -0.942653 -1.64967 0
M  V30 8549 H 796.916 0.139287 -3.8825 0
M  V30 8550 H 798.588 -2.47042 -3.89574 0
M  V30 8551 H 796.831 -2.38146 -3.62586 0
M  V30 8552 H 797.502 -1.89352 -5.18507 0
M  V30 8553 H 799.978 -0.266703 -4.15244 0
M  V30 8554 H 798.854 0.0925415 -5.48822 0
M  V30 8555 H 799.115 1.289 -4.22891 0
M  V30 8556 N 798.174 1.49689 -0.493057 0
M  V30 8557 C 799.399 2.07331 0.0535114 0
M  V30 8558 C 799.824 1.35196 1.30781 0
M  V30 8559 O 799.182 0.406246 1.7669 0
M  V30 8560 C 799.23 3.59364 0.29825 0
M  V30 8561 O 798.334 3.88819 1.37454 0
M  V30 8562 H 797.675 0.663612 -0.0227018 0
M  V30 8563 H 800.205 1.926 -0.690402 0
M  V30 8564 H 800.215 4.04515 0.532159 0
M  V30 8565 H 798.89 4.1128 -0.618207 0
M  V30 8566 H 797.467 3.55487 1.12621 0
M  V30 8567 N 799.652 0.226554 1.55963 0
M  V30 8568 C 800.562 -0.692725 2.24139 0
M  V30 8569 C 801.578 -1.20971 1.25068 0
M  V30 8570 O 802.754 -1.25027 1.57893 0
M  V30 8571 C 799.819 -1.88183 2.91184 0
M  V30 8572 C 798.88 -1.40633 4.05612 0
M  V30 8573 C 798.113 -2.53875 4.6945 0
M  V30 8574 O 798.336 -3.72129 4.32292 0
M  V30 8575 O 797.27 -2.24792 5.58348 0
M  V30 8576 H 801.096 -0.141921 3.03368 0
M  V30 8577 H 798.681 -0.0041049 1.49399 0
M  V30 8578 H 800.563 -2.57617 3.33484 0
M  V30 8579 H 799.238 -2.42064 2.14911 0
M  V30 8580 H 798.145 -0.67986 3.67871 0
M  V30 8581 H 799.478 -0.913838 4.83642 0
M  V30 8582 N 801.13 -1.57531 -0.0467866 0
M  V30 8583 C 802.407 -1.79568 -0.775536 0
M  V30 8584 C 802.787 -0.820322 -1.94509 0
M  V30 8585 O 802.135 0.14134 -2.28062 0
M  V30 8586 C 802.345 -3.26789 -1.22516 0
M  V30 8587 C 803.693 -3.91299 -1.64835 0
M  V30 8588 O 804.717 -3.30831 -1.3202 0
M  V30 8589 O 803.576 -4.97727 -2.25677 0
M  V30 8590 H 800.67 -0.737817 -0.373572 0
M  V30 8591 H 803.216 -1.69682 -0.0249302 0
M  V30 8592 H 801.988 -3.89357 -0.389446 0
M  V30 8593 H 801.611 -3.41496 -2.03633 0
M  V30 8594 N 802.608 0.318715 -1.54344 0
M  V30 8595 C 804.019 0.89285 -1.63967 0
M  V30 8596 C 804.37 1.88712 -0.536855 0
M  V30 8597 O 803.495 2.13877 0.329457 0
M  V30 8598 C 804.09 1.62618 -2.97222 0
M  V30 8599 C 802.649 2.14897 -3.09025 0
M  V30 8600 C 801.796 0.975909 -2.5956 0
M  V30 8601 H 804.747 0.0961687 -1.58408 0
M  V30 8602 H 804.768 2.4907 -2.87653 0
M  V30 8603 H 804.28 0.902286 -3.77466 0
M  V30 8604 H 802.381 2.90387 -2.33465 0
M  V30 8605 H 802.494 2.39565 -4.14904 0
M  V30 8606 H 800.858 1.35646 -2.15574 0
M  V30 8607 H 801.641 0.266253 -3.42266 0
M  V30 8608 N 804.086 1.46499 0.581025 0
M  V30 8609 C 805.314 1.5547 1.36517 0
M  V30 8610 C 805.729 0.196407 1.87776 0
M  V30 8611 O 805.086 -0.806577 1.63709 0
M  V30 8612 C 805.137 2.56084 2.55154 0
M  V30 8613 O 804.858 3.86637 2.06018 0
M  V30 8614 C 806.359 2.75011 3.47683 0
M  V30 8615 H 803.579 0.525703 0.416986 0
M  V30 8616 H 806.123 1.9192 0.706177 0
M  V30 8617 H 804.278 2.22633 3.17039 0
M  V30 8618 H 804.692 4.41413 2.83292 0
M  V30 8619 H 806.166 3.49329 4.27403 0
M  V30 8620 H 806.643 1.81978 3.99726 0
M  V30 8621 H 807.249 3.09565 2.91632 0
M  V30 8622 N 805.565 -0.825799 1.34232 0
M  V30 8623 C 806.497 -1.94401 1.21413 0
M  V30 8624 C 807.51 -1.6218 0.141902 0
M  V30 8625 O 808.699 -1.74109 0.3935 0
M  V30 8626 C 805.799 -3.28257 0.842635 0
M  V30 8627 C 804.972 -3.88521 2.00924 0
M  V30 8628 C 804.031 -5.00752 1.61661 0
M  V30 8629 O 803.057 -5.19201 2.33279 0
M  V30 8630 N 804.259 -5.78084 0.52911 0
M  V30 8631 H 807.024 -2.05931 2.17744 0
M  V30 8632 H 804.585 -1.00223 1.27149 0
M  V30 8633 H 806.577 -4.00781 0.561822 0
M  V30 8634 H 805.147 -3.12585 -0.0304029 0
M  V30 8635 H 804.367 -3.08425 2.45495 0
M  V30 8636 H 805.655 -4.25516 2.78951 0
M  V30 8637 H 805.053 -5.65661 -0.0663322 0
M  V30 8638 H 803.61 -6.51072 0.308017 0
M  V30 8639 N 807.043 -1.17915 -1.04565 0
M  V30 8640 C 807.973 -0.925033 -2.14395 0
M  V30 8641 C 808.954 0.135375 -1.6956 0
M  V30 8642 O 810.139 -0.0161774 -1.94193 0
M  V30 8643 C 807.269 -0.444469 -3.44444 0
M  V30 8644 C 806.223 -1.44478 -4.02877 0
M  V30 8645 C 805.549 -0.821933 -5.28345 0
M  V30 8646 C 806.849 -2.81995 -4.39632 0
M  V30 8647 H 808.543 -1.84354 -2.35911 0
M  V30 8648 H 806.089 -0.887806 -1.13375 0
M  V30 8649 H 808.042 -0.254078 -4.20633 0
M  V30 8650 H 806.766 0.509592 -3.226 0
M  V30 8651 H 805.425 -1.62203 -3.28764 0
M  V30 8652 H 805.073 0.139161 -5.02807 0
M  V30 8653 H 804.773 -1.48976 -5.68401 0
M  V30 8654 H 806.297 -0.641959 -6.07216 0
M  V30 8655 H 807.711 -2.67952 -5.06828 0
M  V30 8656 H 806.108 -3.45414 -4.90723 0
M  V30 8657 H 807.178 -3.35927 -3.49687 0
M  V30 8658 N 808.521 1.23394 -0.980386 0
M  V30 8659 C 809.431 2.28561 -0.528864 0
M  V30 8660 C 810.447 1.68946 0.416329 0
M  V30 8661 O 811.623 1.99355 0.286251 0
M  V30 8662 C 808.688 3.46323 0.16155 0
M  V30 8663 C 807.749 4.21297 -0.825044 0
M  V30 8664 C 806.982 5.33437 -0.167483 0
M  V30 8665 O 807.205 5.60812 1.04146 0
M  V30 8666 O 806.139 5.95637 -0.866047 0
M  V30 8667 H 809.965 2.69326 -1.40346 0
M  V30 8668 H 807.55 1.29325 -0.748019 0
M  V30 8669 H 809.432 4.17811 0.548841 0
M  V30 8670 H 808.107 3.0751 1.01092 0
M  V30 8671 H 807.014 3.52134 -1.26303 0
M  V30 8672 H 808.347 4.6396 -1.64322 0
M  V30 8673 N 809.999 0.752036 1.385 0
M  V30 8674 C 810.909 0.125318 2.34265 0
M  V30 8675 C 811.925 -0.702437 1.59191 0
M  V30 8676 O 813.101 -0.626951 1.91393 0
M  V30 8677 C 810.166 -0.758486 3.38301 0
M  V30 8678 C 809.227 0.0834636 4.29219 0
M  V30 8679 C 808.46 -0.758252 5.28286 0
M  V30 8680 O 808.683 -1.99632 5.34325 0
M  V30 8681 O 807.617 -0.177878 6.01637 0
M  V30 8682 H 811.443 0.91617 2.89551 0
M  V30 8683 H 809.028 0.512911 1.4032 0
M  V30 8684 H 810.91 -1.26365 4.02007 0
M  V30 8685 H 809.585 -1.52786 2.85374 0
M  V30 8686 H 808.492 0.634545 3.68679 0
M  V30 8687 H 809.825 0.815455 4.85398 0
M  V30 8688 N 811.477 -1.49425 0.500989 0
M  V30 8689 C 812.723 -2.02753 -0.0436 0
M  V30 8690 C 813.056 -1.37991 -1.36646 0
M  V30 8691 O 812.331 -0.515597 -1.87542 0
M  V30 8692 C 812.614 -3.59565 -0.19616 0
M  V30 8693 C 812.467 -4.34855 1.14982 0
M  V30 8694 C 813.786 -4.30014 -0.936795 0
M  V30 8695 H 810.905 -0.73686 -0.0143711 0
M  V30 8696 H 813.547 -1.78448 0.652397 0
M  V30 8697 H 811.697 -3.80405 -0.788959 0
M  V30 8698 H 813.369 -4.25512 1.7815 0
M  V30 8699 H 811.612 -3.97414 1.73911 0
M  V30 8700 H 812.283 -5.42933 0.996385 0
M  V30 8701 H 814.759 -4.1383 -0.434036 0
M  V30 8702 H 813.635 -5.39483 -1.01238 0
M  V30 8703 H 813.896 -3.95257 -1.9805 0
M  V30 8704 N 812.955 -0.234822 -1.55841 0
M  V30 8705 C 813.865 0.680828 -2.24504 0
M  V30 8706 C 814.881 1.20306 -1.25708 0
M  V30 8707 O 816.057 1.24188 -1.58554 0
M  V30 8708 C 813.122 1.86636 -2.92178 0
M  V30 8709 C 812.183 1.3848 -4.06352 0
M  V30 8710 C 811.416 2.51382 -4.70789 0
M  V30 8711 O 811.639 3.69831 -4.34259 0
M  V30 8712 O 810.573 2.21828 -5.59532 0
M  V30 8713 H 814.399 0.12583 -3.03439 0
M  V30 8714 H 811.984 -0.00381817 -1.494 0
M  V30 8715 H 813.866 2.55845 -3.34845 0
M  V30 8716 H 812.541 2.40921 -2.16192 0
M  V30 8717 H 811.448 0.660341 -3.68226 0
M  V30 8718 H 812.781 0.888177 -4.8412 0
M  V30 8719 N 814.433 1.57553 0.0384317 0
M  V30 8720 C 815.38 2.05942 1.04194 0
M  V30 8721 C 816.35 0.946637 1.36484 0
M  V30 8722 O 817.535 1.21658 1.46983 0
M  V30 8723 C 814.675 2.53588 2.34066 0
M  V30 8724 C 813.788 3.7862 2.08017 0
M  V30 8725 C 812.923 4.14915 3.31692 0
M  V30 8726 C 811.962 5.32891 3.01155 0
M  V30 8727 N 811.099 5.64662 4.17254 0
M  V30 8728 H 815.939 2.91429 0.622341 0
M  V30 8729 H 813.476 1.44098 0.295684 0
M  V30 8730 H 815.434 2.79276 3.09937 0
M  V30 8731 H 814.064 1.71031 2.73767 0
M  V30 8732 H 813.116 3.60073 1.22686 0
M  V30 8733 H 814.428 4.64613 1.81484 0
M  V30 8734 H 813.582 4.41681 4.15936 0
M  V30 8735 H 812.321 3.27555 3.6133 0
M  V30 8736 H 811.326 5.05887 2.15311 0
M  V30 8737 H 812.551 6.21896 2.72804 0
M  V30 8738 H 810.497 4.80261 4.46861 0
M  V30 8739 H 810.414 6.45145 3.94112 0
M  V30 8740 H 811.682 5.96 5.02399 0
M  V30 8741 N 815.911 -0.310526 1.54511 0
M  V30 8742 C 817.188 -1.06593 1.64004 0
M  V30 8743 C 817.568 -2.05519 0.482216 0
M  V30 8744 O 816.916 -2.22455 -0.52212 0
M  V30 8745 C 817.126 -1.75627 3.01589 0
M  V30 8746 C 818.474 -2.28173 3.58081 0
M  V30 8747 O 819.498 -1.85674 3.03979 0
M  V30 8748 O 818.357 -3.06015 4.52788 0
M  V30 8749 H 815.451 -0.492109 0.664649 0
M  V30 8750 H 817.997 -0.309374 1.66856 0
M  V30 8751 H 816.769 -1.03743 3.77297 0
M  V30 8752 H 816.392 -2.58061 3.02473 0
M  V30 8753 N 817.389 -1.46805 -0.573248 0
M  V30 8754 C 818.635 -1.5283 -1.33307 0
M  V30 8755 C 818.968 -0.183287 -1.93333 0
M  V30 8756 O 818.243 0.806354 -1.76998 0
M  V30 8757 C 818.526 -2.63414 -2.45531 0
M  V30 8758 C 818.379 -4.07478 -1.90478 0
M  V30 8759 C 819.698 -2.70014 -3.47535 0
M  V30 8760 H 816.817 -0.556371 -0.483343 0
M  V30 8761 H 819.459 -1.78787 -0.643066 0
M  V30 8762 H 817.609 -2.41412 -3.04389 0
M  V30 8763 H 819.281 -4.40795 -1.36004 0
M  V30 8764 H 817.524 -4.16511 -1.21248 0
M  V30 8765 H 818.195 -4.80598 -2.71531 0
M  V30 8766 H 820.671 -2.89817 -2.98572 0
M  V30 8767 H 819.547 -3.49192 -4.23504 0
M  V30 8768 H 819.808 -1.76436 -4.05367 0
M  V30 8769 N 818.867 0.818669 -1.34668 0
M  V30 8770 C 819.817 1.91882 -1.23147 0
M  V30 8771 C 820.801 1.60378 -0.129509 0
M  V30 8772 O 821.993 1.73309 -0.359581 0
M  V30 8773 C 819.122 3.28612 -0.993436 0
M  V30 8774 C 818.208 3.66221 -2.13876 0
M  V30 8775 N 818.599 3.75361 -3.39024 0
M  V30 8776 C 816.897 3.96098 -2.04994 0
M  V30 8777 C 817.598 4.0836 -4.14266 0
M  V30 8778 N 816.574 4.21806 -3.429 0
M  V30 8779 H 820.376 1.97133 -2.17981 0
M  V30 8780 H 817.89 1.01257 -1.26967 0
M  V30 8781 H 819.887 4.0725 -0.891797 0
M  V30 8782 H 818.547 3.24655 -0.053824 0
M  V30 8783 H 819.558 3.58747 -3.73525 0
M  V30 8784 H 816.235 4.00236 -1.18816 0
M  V30 8785 H 817.625 4.226 -5.22359 0
M  V30 8786 N 820.346 1.18468 1.03938 0
M  V30 8787 C 821.309 0.914944 2.10146 0
M  V30 8788 C 822.309 -0.10022 1.60487 0
M  V30 8789 O 823.499 0.133365 1.73689 0
M  V30 8790 C 820.631 0.372993 3.38853 0
M  V30 8791 H 821.824 1.85677 2.35508 0
M  V30 8792 H 819.377 0.996876 1.20383 0
M  V30 8793 H 820.112 -0.57538 3.19155 0
M  V30 8794 H 819.897 1.1048 3.76213 0
M  V30 8795 H 821.387 0.203014 4.17106 0
M  V30 8796 N 821.824 -1.22873 0.986916 0
M  V30 8797 C 822.787 -2.2281 0.537442 0
M  V30 8798 C 823.787 -1.56331 -0.37646 0
M  V30 8799 O 824.977 -1.73376 -0.169247 0
M  V30 8800 C 822.109 -3.40195 -0.219082 0
M  V30 8801 H 823.302 -2.64089 1.42116 0
M  V30 8802 H 820.855 -1.35819 0.773488 0
M  V30 8803 H 821.59 -3.04381 -1.11905 0
M  V30 8804 H 821.375 -3.89657 0.437026 0
M  V30 8805 H 822.865 -4.14326 -0.521926 0
M  V30 8806 N 823.302 -0.75937 -1.38099 0
M  V30 8807 C 824.527 -0.327859 -2.04792 0
M  V30 8808 C 824.952 1.03752 -1.56899 0
M  V30 8809 O 824.31 1.66235 -0.723581 0
M  V30 8810 C 824.358 -0.366264 -3.58735 0
M  V30 8811 O 823.462 0.637697 -4.0744 0
M  V30 8812 H 822.803 -0.144092 -0.648177 0
M  V30 8813 H 825.333 -1.03211 -1.7666 0
M  V30 8814 H 825.343 -0.219179 -4.07411 0
M  V30 8815 H 824.018 -1.36243 -3.92951 0
M  V30 8816 H 822.595 0.454749 -3.70117 0
M  V30 8817 N 824.78 1.49157 -0.508906 0
M  V30 8818 C 826.005 2.07376 0.0315182 0
M  V30 8819 C 826.43 1.36575 1.2934 0
M  V30 8820 O 825.788 0.424963 1.76249 0
M  V30 8821 C 825.836 3.59661 0.260118 0
M  V30 8822 O 824.94 3.90255 1.33322 0
M  V30 8823 H 824.281 0.663334 -0.029739 0
M  V30 8824 H 826.811 1.91857 -0.710791 0
M  V30 8825 H 826.821 4.05056 0.489225 0
M  V30 8826 H 825.496 4.10601 -0.661794 0
M  V30 8827 H 824.073 3.56661 1.08844 0
M  V30 8828 N 826.258 0.243083 1.55714 0
M  V30 8829 C 827.669 -0.260788 1.8487 0
M  V30 8830 C 828.02 -1.57879 1.16485 0
M  V30 8831 O 827.145 -2.1184 0.441908 0
M  V30 8832 C 827.74 -0.479954 3.35383 0
M  V30 8833 C 826.299 -0.928096 3.64778 0
M  V30 8834 C 825.446 -0.00316416 2.773 0
M  V30 8835 H 828.397 0.465743 1.51712 0
M  V30 8836 H 828.418 -1.32308 3.56756 0
M  V30 8837 H 827.93 0.479468 3.85127 0
M  V30 8838 H 826.031 -1.90012 3.20509 0
M  V30 8839 H 826.144 -0.7876 4.72582 0
M  V30 8840 H 824.508 -0.513849 2.49463 0
M  V30 8841 H 825.291 0.951562 3.29849 0
M  V30 8842 N 827.736 -1.57571 -0.0300757 0
M  V30 8843 C 828.984 -1.88852 -0.719666 0
M  V30 8844 C 829.305 -0.840645 -1.75949 0
M  V30 8845 O 828.575 0.125854 -1.95495 0
M  V30 8846 H 827.155 -0.696965 -0.268792 0
M  V30 8847 H 829.817 -1.949 0.00373285 0
M  V30 8848 H 828.913 -2.87695 -1.20987 0
M  V30 8849 N 829.214 0.302327 -1.54673 0
M  V30 8850 C 830.147 1.39738 -1.80412 0
M  V30 8851 C 831.125 1.48813 -0.655241 0
M  V30 8852 O 832.309 1.65895 -0.89505 0
M  V30 8853 C 829.436 2.7766 -1.93966 0
M  V30 8854 C 828.482 2.86014 -3.16383 0
M  V30 8855 S 829.315 2.48246 -4.74483 0
M  V30 8856 C 830.471 3.88198 -4.90971 0
M  V30 8857 H 830.704 1.17696 -2.73011 0
M  V30 8858 H 828.237 0.500364 -1.46068 0
M  V30 8859 H 830.195 3.571 -2.0246 0
M  V30 8860 H 828.856 2.96971 -1.02307 0
M  V30 8861 H 828.049 3.87174 -3.22664 0
M  V30 8862 H 827.651 2.14568 -3.06328 0
M  V30 8863 H 829.943 4.83181 -4.74913 0
M  V30 8864 H 830.886 3.86887 -5.93063 0
M  V30 8865 H 831.294 3.78139 -4.19131 0
M  V30 8866 N 830.692 1.47107 0.565454 0
M  V30 8867 C 831.94 1.53005 1.32038 0
M  V30 8868 C 832.261 0.190453 1.94068 0
M  V30 8869 O 831.531 -0.784783 1.79494 0
M  V30 8870 H 830.111 0.563578 0.490294 0
M  V30 8871 H 832.773 1.83351 0.660928 0
M  V30 8872 H 831.869 2.29215 2.11818 0
M  V30 8873 N 832.17 -0.811516 1.35101 0
M  V30 8874 C 833.418 -1.56525 1.27845 0
M  V30 8875 C 833.739 -1.94435 -0.14829 0
M  V30 8876 O 833.009 -1.63203 -1.08359 0
M  V30 8877 H 831.589 -0.580433 0.47022 0
M  V30 8878 H 834.251 -0.968277 1.69146 0
M  V30 8879 H 833.347 -2.48291 1.89097 0
M  V30 8880 N 833.648 -1.19017 -1.03309 0
M  V30 8881 C 834.611 -0.926076 -2.09658 0
M  V30 8882 C 835.611 0.0917077 -1.60538 0
M  V30 8883 O 836.801 -0.142574 -1.73616 0
M  V30 8884 C 833.933 -0.390958 -3.38651 0
M  V30 8885 H 835.126 -1.86923 -2.3452 0
M  V30 8886 H 832.679 -1.00325 -1.19853 0
M  V30 8887 H 833.414 0.558446 -3.19456 0
M  V30 8888 H 833.199 -1.12474 -3.75622 0
M  V30 8889 H 834.689 -0.225131 -4.16993 0
M  V30 8890 N 835.127 1.22348 -0.993418 0
M  V30 8891 C 836.09 2.22522 -0.549251 0
M  V30 8892 C 837.09 1.56529 0.368164 0
M  V30 8893 O 838.28 1.73463 0.16005 0
M  V30 8894 C 835.412 3.40307 0.201037 0
M  V30 8895 H 836.605 2.63332 -1.43515 0
M  V30 8896 H 834.158 1.35407 -0.78068 0
M  V30 8897 H 834.893 3.0497 1.10289 0
M  V30 8898 H 834.678 3.8942 -0.457685 0
M  V30 8899 H 836.168 4.14597 0.499946 0
M  V30 8900 N 836.605 0.766683 1.37694 0
M  V30 8901 C 837.568 0.155849 2.2867 0
M  V30 8902 C 838.568 -0.633509 1.47795 0
M  V30 8903 O 839.758 -0.457844 1.68076 0
M  V30 8904 C 836.89 -0.786965 3.31692 0
M  V30 8905 H 838.083 0.957748 2.84196 0
M  V30 8906 H 835.636 0.534554 1.46875 0
M  V30 8907 H 836.371 -1.61406 2.8128 0
M  V30 8908 H 836.156 -0.223182 3.91464 0
M  V30 8909 H 837.646 -1.20994 3.99688 0
M  V30 8910 N 838.083 -1.48885 0.516809 0
M  V30 8911 C 839.308 -2.0739 -0.0205201 0
M  V30 8912 C 839.733 -1.37259 -1.28614 0
M  V30 8913 O 839.091 -0.434304 -1.76021 0
M  V30 8914 C 839.139 -3.59793 -0.24104 0
M  V30 8915 O 838.243 -3.90957 -1.31251 0
M  V30 8916 H 837.584 -0.663167 0.0332564 0
M  V30 8917 H 840.114 -1.91477 0.720956 0
M  V30 8918 H 840.124 -4.0531 -0.467737 0
M  V30 8919 H 838.799 -4.10244 0.68356 0
M  V30 8920 H 837.376 -3.57234 -1.06951 0
M  V30 8921 N 839.561 -0.251338 -1.55583 0
M  V30 8922 C 840.807 0.365823 -2.00083 0
M  V30 8923 C 841.162 1.55242 -1.13656 0
M  V30 8924 O 840.455 1.90624 -0.193108 0
M  V30 8925 C 840.649 0.821186 -3.47838 0
M  V30 8926 C 840.478 -0.319746 -4.48562 0
M  V30 8927 C 839.248 -0.795866 -4.98993 0
M  V30 8928 C 841.446 -1.14825 -5.01318 0
M  V30 8929 N 839.428 -1.90875 -5.83472 0
M  V30 8930 C 840.799 -2.10943 -5.83012 0
M  V30 8931 C 842.854 -1.18431 -4.8361 0
M  V30 8932 C 841.557 -3.10383 -6.48888 0
M  V30 8933 C 843.583 -2.16703 -5.50267 0
M  V30 8934 C 842.945 -3.11557 -6.31753 0
M  V30 8935 H 839.044 0.0996971 -0.775619 0
M  V30 8936 H 841.628 -0.36993 -1.91153 0
M  V30 8937 H 839.799 1.52622 -3.57157 0
M  V30 8938 H 841.531 1.41367 -3.79206 0
M  V30 8939 H 838.286 -0.379242 -4.72079 0
M  V30 8940 H 838.71 -2.46808 -6.30408 0
M  V30 8941 H 843.352 -0.464824 -4.20237 0
M  V30 8942 H 841.07 -3.83277 -7.11424 0
M  V30 8943 H 844.656 -2.20204 -5.38518 0
M  V30 8944 H 843.536 -3.86357 -6.82421 0
M  V30 8945 N 841.039 1.57585 0.0217189 0
M  V30 8946 C 842.002 2.06004 1.00474 0
M  V30 8947 C 843.002 0.965461 1.2859 0
M  V30 8948 O 844.192 1.22884 1.23471 0
M  V30 8949 C 841.324 2.48319 2.33561 0
M  V30 8950 H 842.517 2.94112 0.586346 0
M  V30 8951 H 840.07 1.53973 0.268716 0
M  V30 8952 H 840.805 1.63389 2.80133 0
M  V30 8953 H 840.59 3.28239 2.1448 0
M  V30 8954 H 842.08 2.86181 3.04122 0
M  V30 8955 N 842.517 -0.29412 1.54831 0
M  V30 8956 C 843.765 -1.02643 1.74094 0
M  V30 8957 C 844.086 -1.87563 0.533402 0
M  V30 8958 O 843.356 -1.9061 -0.452192 0
M  V30 8959 H 841.936 -0.381959 0.641963 0
M  V30 8960 H 844.598 -0.323444 1.92197 0
M  V30 8961 H 843.694 -1.67558 2.63307 0
M  V30 8962 N 843.995 -1.47404 -0.557645 0
M  V30 8963 C 845.241 -1.55219 -1.31449 0
M  V30 8964 C 845.596 -0.211457 -1.91234 0
M  V30 8965 O 844.889 0.782795 -1.7488 0
M  V30 8966 C 845.083 -2.6061 -2.44575 0
M  V30 8967 C 844.912 -4.048 -1.95875 0
M  V30 8968 C 843.682 -4.72252 -1.79738 0
M  V30 8969 C 845.88 -4.91833 -1.50348 0
M  V30 8970 N 843.862 -6.00962 -1.25372 0
M  V30 8971 C 845.233 -6.10566 -1.07745 0
M  V30 8972 C 847.288 -4.78279 -1.38396 0
M  V30 8973 C 845.991 -7.17242 -0.543767 0
M  V30 8974 C 848.017 -5.8505 -0.864293 0
M  V30 8975 C 847.379 -7.02973 -0.44818 0
M  V30 8976 H 843.478 -0.622694 -0.47305 0
M  V30 8977 H 846.062 -1.84152 -0.632144 0
M  V30 8978 H 844.233 -2.33545 -3.10341 0
M  V30 8979 H 845.965 -2.5827 -3.11574 0
M  V30 8980 H 842.72 -4.28153 -2.0244 0
M  V30 8981 H 843.144 -6.69532 -1.00278 0
M  V30 8982 H 847.786 -3.87477 -1.69179 0
M  V30 8983 H 845.504 -8.07791 -0.223563 0
M  V30 8984 H 849.09 -5.7661 -0.775371 0
M  V30 8985 H 847.97 -7.84183 -0.0522964 0
M  V30 8986 N 845.473 0.80434 -1.35529 0
M  V30 8987 C 846.436 1.89788 -1.28503 0
M  V30 8988 C 847.436 1.59601 -0.195983 0
M  V30 8989 O 848.626 1.68292 -0.449827 0
M  V30 8990 C 845.758 3.26255 -0.98847 0
M  V30 8991 H 846.951 1.97436 -2.25741 0
M  V30 8992 H 844.504 1.00046 -1.20086 0
M  V30 8993 H 845.239 3.24294 -0.0200541 0
M  V30 8994 H 845.024 3.49551 -1.77641 0
M  V30 8995 H 846.514 4.06298 -0.964975 0
M  V30 8996 N 846.951 1.19563 1.02676 0
M  V30 8997 C 848.197 1.00105 1.76371 0
M  V30 8998 C 848.53 -0.466823 1.88506 0
M  V30 8999 O 847.805 -1.34665 1.40341 0
M  V30 9000 C 848.088 1.67321 3.18866 0
M  V30 9001 C 847.941 3.21486 3.1459 0
M  V30 9002 C 849.26 1.39794 4.17308 0
M  V30 9003 H 846.379 0.365075 0.640226 0
M  V30 9004 H 849.021 1.47433 1.19848 0
M  V30 9005 H 847.171 1.27081 3.67128 0
M  V30 9006 H 848.843 3.70953 2.7421 0
M  V30 9007 H 847.086 3.5292 2.52249 0
M  V30 9008 H 847.757 3.63665 4.15273 0
M  V30 9009 H 850.233 1.74685 3.77657 0
M  V30 9010 H 849.109 1.89371 5.15199 0
M  V30 9011 H 849.37 0.323505 4.40915 0
M  V30 9012 N 848.429 -1.21819 0.999893 0
M  V30 9013 C 849.657 -1.94758 0.698359 0
M  V30 9014 C 850.072 -1.73771 -0.738183 0
M  V30 9015 O 849.429 -1.04113 -1.49889 0
M  V30 9016 C 849.48 -3.47292 1.00353 0
M  V30 9017 O 849.201 -3.67579 2.38363 0
M  V30 9018 C 850.702 -4.37403 0.72068 0
M  V30 9019 H 847.922 -0.619512 0.257771 0
M  V30 9020 H 850.466 -1.54778 1.33656 0
M  V30 9021 H 848.621 -3.85213 0.411018 0
M  V30 9022 H 849.035 -4.61719 2.48829 0
M  V30 9023 H 850.509 -5.43151 0.984422 0
M  V30 9024 H 850.986 -4.3784 -0.345309 0
M  V30 9025 H 851.592 -4.05119 1.29456 0
M  V30 9026 N 849.908 -0.773975 -1.37286 0
M  V30 9027 C 851.156 -0.338636 -1.99243 0
M  V30 9028 C 851.477 1.08919 -1.61746 0
M  V30 9029 O 850.747 1.74822 -0.88397 0
M  V30 9030 H 849.327 -0.12222 -0.736934 0
M  V30 9031 H 851.989 -0.992595 -1.67731 0
M  V30 9032 H 851.085 -0.418055 -3.09287 0
M  V30 9033 N 851.386 1.48609 -0.524698 0
M  V30 9034 C 852.632 2.02797 0.0113382 0
M  V30 9035 C 852.965 1.40147 1.34433 0
M  V30 9036 O 852.24 0.545368 1.86698 0
M  V30 9037 C 852.523 3.59832 0.138931 0
M  V30 9038 C 852.376 4.32971 -1.21886 0
M  V30 9039 C 853.695 4.3145 0.868265 0
M  V30 9040 H 850.814 0.736995 0.00264645 0
M  V30 9041 H 853.456 1.77388 -0.680704 0
M  V30 9042 H 851.606 3.81612 0.72834 0
M  V30 9043 H 853.278 4.22624 -1.84897 0
M  V30 9044 H 851.521 3.94597 -1.80211 0
M  V30 9045 H 852.192 5.41279 -1.08263 0
M  V30 9046 H 854.668 4.14468 0.368145 0
M  V30 9047 H 853.544 5.41025 0.926428 0
M  V30 9048 H 853.805 3.98358 1.91737 0
M  V30 9049 N 852.864 0.259585 1.55447 0
M  V30 9050 C 854.089 -0.368317 2.04103 0
M  V30 9051 C 854.514 -1.49827 1.13725 0
M  V30 9052 O 853.872 -1.80814 0.132705 0
M  V30 9053 C 853.92 -0.841506 3.50644 0
M  V30 9054 O 853.024 -1.95008 3.63381 0
M  V30 9055 H 852.365 -0.0785227 0.659341 0
M  V30 9056 H 854.895 0.389349 2.00861 0
M  V30 9057 H 854.905 -1.14138 3.9171 0
M  V30 9058 H 853.58 -0.0147001 4.15897 0
M  V30 9059 H 852.157 -1.65393 3.34215 0
M  V30 9060 N 854.342 -1.57594 -0.0133615 0
M  V30 9061 C 855.567 -1.94649 -0.715996 0
M  V30 9062 C 855.992 -0.860786 -1.67249 0
M  V30 9063 O 855.35 0.182228 -1.80382 0
M  V30 9064 C 855.398 -3.30789 -1.43566 0
M  V30 9065 O 854.502 -3.24148 -2.54955 0
M  V30 9066 H 853.843 -0.635801 -0.191449 0
M  V30 9067 H 856.373 -2.04569 0.0358478 0
M  V30 9068 H 856.383 -3.66045 -1.80208 0
M  V30 9069 H 855.058 -4.09367 -0.734263 0
M  V30 9070 H 853.635 -3.00548 -2.20739 0
M  V30 9071 N 855.82 0.285905 -1.54985 0
M  V30 9072 C 856.75 1.35752 -1.89983 0
M  V30 9073 C 857.731 1.52163 -0.760295 0
M  V30 9074 O 858.916 1.65421 -1.01733 0
M  V30 9075 C 856.046 2.71925 -2.16042 0
M  V30 9076 C 855 2.70261 -3.31878 0
M  V30 9077 C 854.326 4.09864 -3.43388 0
M  V30 9078 C 855.626 2.30667 -4.68604 0
M  V30 9079 H 857.32 1.06709 -2.79738 0
M  V30 9080 H 854.866 0.511884 -1.34595 0
M  V30 9081 H 856.819 3.46992 -2.39113 0
M  V30 9082 H 855.543 3.02523 -1.23074 0
M  V30 9083 H 854.202 1.97651 -3.08755 0
M  V30 9084 H 853.85 4.37664 -2.47909 0
M  V30 9085 H 853.55 4.09648 -4.21262 0
M  V30 9086 H 855.074 4.86689 -3.68736 0
M  V30 9087 H 856.488 2.95453 -4.91305 0
M  V30 9088 H 854.885 2.41637 -5.49301 0
M  V30 9089 H 855.955 1.25793 -4.68299 0
M  V30 9090 N 857.298 1.47698 0.54982 0
M  V30 9091 C 858.526 1.5833 1.33188 0
M  V30 9092 C 858.941 0.236193 1.87317 0
M  V30 9093 O 858.298 -0.77167 1.65383 0
M  V30 9094 C 858.349 2.61438 2.49664 0
M  V30 9095 O 858.07 3.9092 1.97771 0
M  V30 9096 C 859.571 2.82324 3.41772 0
M  V30 9097 H 856.791 0.53443 0.405741 0
M  V30 9098 H 859.335 1.93375 0.665309 0
M  V30 9099 H 857.49 2.29307 3.12245 0
M  V30 9100 H 857.904 4.47323 2.73866 0
M  V30 9101 H 859.378 3.58316 4.19897 0
M  V30 9102 H 859.855 1.90416 3.95776 0
M  V30 9103 H 860.461 3.15682 2.85 0
M  V30 9104 N 858.776 -0.797141 1.35954 0
M  V30 9105 C 860.001 -1.59097 1.33053 0
M  V30 9106 C 860.426 -1.87897 -0.0874592 0
M  V30 9107 O 859.784 -1.47291 -1.05712 0
M  V30 9108 C 859.832 -2.89346 2.152 0
M  V30 9109 O 858.936 -3.826 1.5392 0
M  V30 9110 H 858.277 -0.482895 0.45575 0
M  V30 9111 H 860.807 -0.988633 1.79129 0
M  V30 9112 H 860.817 -3.38686 2.27499 0
M  V30 9113 H 859.492 -2.6771 3.18283 0
M  V30 9114 H 858.069 -3.41174 1.50516 0
M  V30 9115 N 860.254 -1.20106 -1.0204 0
M  V30 9116 C 861.201 -0.946468 -2.10501 0
M  V30 9117 C 862.171 0.121902 -1.65652 0
M  V30 9118 O 863.356 -0.0220244 -1.90787 0
M  V30 9119 C 860.496 -0.500499 -3.41451 0
M  V30 9120 C 859.609 -1.63659 -3.998 0
M  V30 9121 C 858.744 -1.14131 -5.18794 0
M  V30 9122 C 857.783 -2.25074 -5.69217 0
M  V30 9123 N 856.92 -1.76791 -6.79477 0
M  V30 9124 H 861.76 -1.87506 -2.31615 0
M  V30 9125 H 859.297 -0.934693 -1.13587 0
M  V30 9126 H 861.255 -0.223276 -4.16602 0
M  V30 9127 H 859.885 0.391099 -3.20422 0
M  V30 9128 H 858.937 -2.02882 -3.21781 0
M  V30 9129 H 860.249 -2.47213 -4.33229 0
M  V30 9130 H 859.403 -0.819826 -6.01135 0
M  V30 9131 H 858.142 -0.275615 -4.86921 0
M  V30 9132 H 857.147 -2.58043 -4.85483 0
M  V30 9133 H 858.372 -3.12114 -6.03127 0
M  V30 9134 H 856.318 -0.925428 -6.4944 0
M  V30 9135 H 856.235 -2.53928 -7.12079 0
M  V30 9136 H 857.503 -1.47631 -7.65392 0
M  V30 9137 N 861.732 1.21287 -1.00634 0
M  V30 9138 C 862.662 2.25973 -0.588089 0
M  V30 9139 C 863.643 1.65527 0.391764 0
M  V30 9140 O 864.828 1.92179 0.279452 0
M  V30 9141 C 861.958 3.47197 0.0847336 0
M  V30 9142 C 860.912 4.20168 -0.815039 0
M  V30 9143 C 860.238 5.34699 -0.00855393 0
M  V30 9144 C 861.538 4.77416 -2.11828 0
M  V30 9145 H 863.232 2.61212 -1.46317 0
M  V30 9146 H 860.778 1.25563 -0.704985 0
M  V30 9147 H 862.731 4.19602 0.388821 0
M  V30 9148 H 861.455 3.11092 0.994456 0
M  V30 9149 H 860.114 3.49614 -1.10297 0
M  V30 9150 H 859.762 4.94837 0.902499 0
M  V30 9151 H 859.462 5.84449 -0.607664 0
M  V30 9152 H 860.986 6.09914 0.289317 0
M  V30 9153 H 862.4 5.41694 -1.87725 0
M  V30 9154 H 860.797 5.37561 -2.66736 0
M  V30 9155 H 861.867 3.96724 -2.78816 0
M  V30 9156 N 863.21 0.781244 1.36873 0
M  V30 9157 C 864.459 0.34652 1.98701 0
M  V30 9158 C 864.772 -1.08555 1.62712 0
M  V30 9159 O 865.978 -1.62213 2.17713 0
M  V30 9160 C 864.434 0.568611 3.5538 0
M  V30 9161 C 864.042 2.01156 4.003 0
M  V30 9162 C 865.786 0.197983 4.24038 0
M  V30 9163 C 863.693 2.18074 5.49725 0
M  V30 9164 H 862.623 0.125821 0.743428 0
M  V30 9165 H 865.274 0.961721 1.56279 0
M  V30 9166 H 863.656 -0.116185 3.9583 0
M  V30 9167 H 864.83 2.73209 3.71071 0
M  V30 9168 H 863.145 2.33967 3.44454 0
M  V30 9169 H 865.742 0.302778 5.33842 0
M  V30 9170 H 866.085 -0.852927 4.07469 0
M  V30 9171 H 866.618 0.835696 3.88923 0
M  V30 9172 H 863.357 3.21519 5.71232 0
M  V30 9173 H 862.877 1.50517 5.80607 0
M  V30 9174 H 864.556 1.98393 6.15832 0
M  V30 9175 N 864.689 -1.48329 0.532571 0
M  V30 9176 C 866.105 -1.58458 0.190605 0
M  V30 9177 C 866.305 -1.53427 -1.30623 0
M  V30 9178 O 865.361 -1.4247 -2.08467 0
M  V30 9179 C 866.674 -2.89989 0.79543 0
M  V30 9180 C 868.222 -3.03523 0.7644 0
M  V30 9181 C 868.697 -4.37718 1.34785 0
M  V30 9182 N 870.188 -4.44292 1.30993 0
M  V30 9183 C 870.923 -5.4664 1.73124 0
M  V30 9184 N 870.419 -6.5593 2.22997 0
M  V30 9185 N 872.212 -5.37538 1.64346 0
M  V30 9186 H 864.363 -1.49842 1.50537 0
M  V30 9187 H 866.626 -0.71164 0.626316 0
M  V30 9188 H 866.332 -2.99333 1.84642 0
M  V30 9189 H 866.206 -3.76203 0.27403 0
M  V30 9190 H 868.593 -2.93789 -0.277831 0
M  V30 9191 H 868.674 -2.18912 1.3233 0
M  V30 9192 H 868.318 -4.48206 2.38902 0
M  V30 9193 H 868.248 -5.21019 0.764609 0
M  V30 9194 H 870.739 -3.65897 0.944868 0
M  V30 9195 H 871.052 -7.30167 2.53133 0
M  V30 9196 H 869.397 -6.56886 2.26992 0
M  V30 9197 H 872.588 -4.51052 1.25178 0
M  V30 9198 H 872.761 -6.17169 1.97501 0
M  V30 9199 N 866.167 -0.267825 -1.55308 0
M  V30 9200 C 867.392 0.357487 -2.04296 0
M  V30 9201 C 867.817 1.49222 -1.14518 0
M  V30 9202 O 867.175 1.80741 -0.142292 0
M  V30 9203 C 867.223 0.822899 -3.51085 0
M  V30 9204 O 866.327 1.93078 -3.6441 0
M  V30 9205 H 865.668 0.075025 -0.659748 0
M  V30 9206 H 868.198 -0.399996 -2.00652 0
M  V30 9207 H 868.208 1.12059 -3.92309 0
M  V30 9208 H 866.883 -0.0073562 -4.15899 0
M  V30 9209 H 865.46 1.63618 -3.35087 0
M  V30 9210 N 867.645 1.57599 0.00500368 0
M  V30 9211 C 868.595 2.04585 1.00643 0
M  V30 9212 C 869.579 0.939622 1.30614 0
M  V30 9213 O 870.771 1.20342 1.29796 0
M  V30 9214 C 867.9 2.5486 2.30002 0
M  V30 9215 C 866.986 3.7235 2.03017 0
M  V30 9216 N 867.377 4.84218 1.46173 0
M  V30 9217 C 865.675 3.80185 2.33185 0
M  V30 9218 C 866.376 5.65688 1.35544 0
M  V30 9219 N 865.352 5.11536 1.83933 0
M  V30 9220 H 869.154 2.8849 0.561332 0
M  V30 9221 H 866.668 1.61026 0.210808 0
M  V30 9222 H 868.665 2.86794 3.0258 0
M  V30 9223 H 867.325 1.72372 2.75169 0
M  V30 9224 H 868.336 5.0517 1.1412 0
M  V30 9225 H 865.013 3.08543 2.81261 0
M  V30 9226 H 866.403 6.65588 0.918791 0
M  V30 9227 N 869.123 -0.277682 1.55134 0
M  V30 9228 C 870.534 -0.849063 1.66276 0
M  V30 9229 C 870.885 -1.87223 0.5867 0
M  V30 9230 O 870.01 -2.14676 -0.272635 0
M  V30 9231 C 870.605 -1.54681 3.01429 0
M  V30 9232 C 869.164 -2.06628 3.14614 0
M  V30 9233 C 868.311 -0.906748 2.62056 0
M  V30 9234 H 871.262 -0.0541357 1.58608 0
M  V30 9235 H 871.283 -2.41356 2.94156 0
M  V30 9236 H 870.795 -0.80189 3.79725 0
M  V30 9237 H 868.896 -2.84095 2.41082 0
M  V30 9238 H 869.009 -2.2848 4.2111 0
M  V30 9239 H 867.373 -1.29882 2.19095 0
M  V30 9240 H 868.156 -0.175414 3.42852 0
M  V30 9241 N 870.601 -1.47988 -0.541979 0
M  V30 9242 C 871.829 -1.59034 -1.32347 0
M  V30 9243 C 872.244 -0.246123 -1.87189 0
M  V30 9244 O 871.601 0.762889 -1.6579 0
M  V30 9245 C 871.652 -2.62759 -2.48274 0
M  V30 9246 O 871.373 -3.91963 -1.95695 0
M  V30 9247 C 872.874 -2.84133 -3.4027 0
M  V30 9248 H 870.094 -0.536574 -0.402901 0
M  V30 9249 H 872.638 -1.93725 -0.655045 0
M  V30 9250 H 870.793 -2.3096 -3.11025 0
M  V30 9251 H 871.207 -4.48769 -2.7149 0
M  V30 9252 H 872.681 -3.60538 -4.17991 0
M  V30 9253 H 873.158 -1.92512 -3.9476 0
M  V30 9254 H 873.764 -3.17188 -2.83322 0
M  V30 9255 N 872.079 0.78992 -1.36375 0
M  V30 9256 C 873.307 1.57873 -1.3373 0
M  V30 9257 C 873.722 1.88624 0.0815544 0
M  V30 9258 O 873.079 1.50085 1.03831 0
M  V30 9259 C 873.13 2.90003 -2.15825 0
M  V30 9260 O 872.851 2.60578 -3.5218 0
M  V30 9261 C 874.352 3.84309 -2.20955 0
M  V30 9262 H 871.572 0.489685 -0.458748 0
M  V30 9263 H 874.116 0.980436 -1.79465 0
M  V30 9264 H 872.271 3.46303 -1.73646 0
M  V30 9265 H 872.685 3.4506 -3.95011 0
M  V30 9266 H 874.159 4.74081 -2.82756 0
M  V30 9267 H 874.636 4.22121 -1.21287 0
M  V30 9268 H 875.242 3.33942 -2.63368 0
M  V30 9269 N 873.557 1.20646 1.01402 0
M  V30 9270 C 874.52 0.959314 2.08158 0
M  V30 9271 C 875.52 -0.0661558 1.60664 0
M  V30 9272 O 876.71 0.170177 1.73367 0
M  V30 9273 C 873.842 0.444785 3.37986 0
M  V30 9274 H 875.035 1.90631 2.31517 0
M  V30 9275 H 872.588 1.02219 1.18241 0
M  V30 9276 H 873.323 -0.507553 3.20304 0
M  V30 9277 H 873.108 1.18435 3.73785 0
M  V30 9278 H 874.598 0.291443 4.16582 0
M  V30 9279 N 875.035 -1.20752 1.01276 0
M  V30 9280 C 876.446 -1.7175 0.732033 0
M  V30 9281 C 876.797 -1.8131 -0.749733 0
M  V30 9282 O 875.922 -1.47301 -1.58529 0
M  V30 9283 C 876.517 -3.11936 1.32217 0
M  V30 9284 C 875.076 -3.6026 1.09039 0
M  V30 9285 C 874.223 -2.37571 1.43022 0
M  V30 9286 H 877.174 -1.0582 1.1827 0
M  V30 9287 H 877.195 -3.73802 0.710771 0
M  V30 9288 H 876.707 -3.04946 2.40061 0
M  V30 9289 H 874.808 -3.72588 0.0294464 0
M  V30 9290 H 874.921 -4.45295 1.76775 0
M  V30 9291 H 873.285 -2.40128 0.849159 0
M  V30 9292 H 874.068 -2.33225 2.51915 0
M  V30 9293 N 876.513 -0.788492 -1.36457 0
M  V30 9294 C 877.741 -0.372365 -2.03522 0
M  V30 9295 C 878.156 1.01093 -1.59454 0
M  V30 9296 O 877.513 1.64824 -0.783535 0
M  V30 9297 C 877.564 -0.425435 -3.58988 0
M  V30 9298 O 877.285 -1.75418 -4.01448 0
M  V30 9299 C 878.786 0.000180167 -4.433 0
M  V30 9300 H 876.006 -0.1536 -0.653183 0
M  V30 9301 H 878.55 -1.06708 -1.74452 0
M  V30 9302 H 876.705 0.220856 -3.8677 0
M  V30 9303 H 877.119 -1.70437 -4.96036 0
M  V30 9304 H 878.593 -0.0880919 -5.5193 0
M  V30 9305 H 879.07 1.05269 -4.26398 0
M  V30 9306 H 879.676 -0.618563 -4.20778 0
M  V30 9307 N 877.991 1.48044 -0.54043 0
M  V30 9308 C 878.901 2.33565 0.220163 0
M  V30 9309 C 879.917 1.47146 0.928659 0
M  V30 9310 O 881.093 1.80107 0.901295 0
M  V30 9311 C 878.158 3.2349 1.2472 0
M  V30 9312 C 877.219 4.25789 0.547938 0
M  V30 9313 C 876.452 5.11417 1.52605 0
M  V30 9314 O 876.675 4.99204 2.75956 0
M  V30 9315 O 875.609 5.92498 1.05972 0
M  V30 9316 H 879.435 2.99868 -0.480898 0
M  V30 9317 H 877.02 1.46332 -0.301226 0
M  V30 9318 H 878.902 3.79084 1.84047 0
M  V30 9319 H 877.577 2.59835 1.93048 0
M  V30 9320 H 876.484 3.74001 -0.0860941 0
M  V30 9321 H 877.817 4.92111 -0.0935896 0
M  V30 9322 N 879.47 0.276058 1.55163 0
M  V30 9323 C 880.698 -0.343772 2.04024 0
M  V30 9324 C 881.113 -1.49397 1.15438 0
M  V30 9325 O 880.47 -1.81662 0.174692 0
M  V30 9326 C 880.521 -0.823885 3.51986 0
M  V30 9327 O 880.242 0.280507 4.37201 0
M  V30 9328 C 881.743 -1.51143 4.16738 0
M  V30 9329 H 878.963 -0.07828 0.666418 0
M  V30 9330 H 881.507 0.408427 2.0038 0
M  V30 9331 H 879.662 -1.52617 3.56071 0
M  V30 9332 H 880.076 -0.0887831 5.24425 0
M  V30 9333 H 881.55 -1.79878 5.2187 0
M  V30 9334 H 882.027 -2.44327 3.64967 0
M  V30 9335 H 882.633 -0.852975 4.16659 0
M  V30 9336 N 880.948 -1.576 0.00335426 0
M  V30 9337 C 881.896 -2.09759 -1.00517 0
M  V30 9338 C 882.89 -1.01833 -1.35375 0
M  V30 9339 O 884.096 -1.20294 -1.339 0
M  V30 9340 H 880.471 -0.669821 -0.341825 0
M  V30 9341 H 882.442 -2.93478 -0.539718 0
M  V30 9342 C 881.191 -2.6189 -2.28711 0
M  V30 9343 H 880.514 -3.44571 -2.02758 0
M  V30 9344 H 881.954 -3.02061 -2.97548 0
M  V30 9345 C 880.413 -1.53455 -2.99922 0
M  V30 9346 O 880.943 -0.919402 -3.91037 0
M  V30 9347 N 879.149 -1.2612 -2.61806 0
M  V30 9348 H 878.696 -1.76329 -1.87792 0
M  V30 9349 H 878.654 -0.537872 -3.09765 0
M  V30 9350 N 882.426 0.269451 -1.5528 0
M  V30 9351 C 883.675 0.998381 -1.75258 0
M  V30 9352 C 883.988 1.87321 -0.563034 0
M  V30 9353 O 885.194 2.63719 -0.645313 0
M  V30 9354 C 883.65 1.82505 -3.10193 0
M  V30 9355 C 883.258 0.99871 -4.36726 0
M  V30 9356 C 885.002 2.54807 -3.3952 0
M  V30 9357 C 882.909 1.81997 -5.627 0
M  V30 9358 H 881.839 0.376488 -0.653278 0
M  V30 9359 H 884.49 0.253909 -1.81735 0
M  V30 9360 H 882.872 2.61061 -2.97763 0
M  V30 9361 H 884.046 0.257064 -4.60082 0
M  V30 9362 H 882.361 0.390074 -4.14569 0
M  V30 9363 H 884.958 3.16662 -4.30847 0
M  V30 9364 H 885.301 3.25273 -2.59813 0
M  V30 9365 H 885.834 1.83278 -3.53064 0
M  V30 9366 H 882.573 1.15945 -6.45164 0
M  V30 9367 H 882.093 2.53749 -5.43481 0
M  V30 9368 H 883.772 2.39274 -6.0113 0
M  V30 9369 N 883.904 1.48273 0.534124 0
M  V30 9370 C 885.315 1.49667 1.1161 0
M  V30 9371 C 885.666 0.264139 1.94414 0
M  V30 9372 O 884.791 -0.629084 2.07054 0
M  V30 9373 C 885.386 2.71191 2.03079 0
M  V30 9374 C 883.945 2.7547 2.56502 0
M  V30 9375 C 883.092 2.43119 1.33373 0
M  V30 9376 H 886.043 1.55449 0.319578 0
M  V30 9377 H 886.064 2.49473 2.87304 0
M  V30 9378 H 885.576 3.60879 1.42785 0
M  V30 9379 H 883.677 1.89979 3.20529 0
M  V30 9380 H 883.79 3.76787 2.95919 0
M  V30 9381 H 882.154 1.94187 1.64813 0
M  V30 9382 H 882.937 3.35044 0.748375 0
M  V30 9383 N 885.382 -0.782676 1.36792 0
M  V30 9384 C 886.314 -1.9044 1.27536 0
M  V30 9385 C 887.327 -1.61647 0.193426 0
M  V30 9386 O 888.516 -1.72769 0.448692 0
M  V30 9387 C 885.616 -3.2541 0.946641 0
M  V30 9388 C 884.789 -3.81932 2.13183 0
M  V30 9389 C 883.848 -4.95355 1.7751 0
M  V30 9390 O 882.874 -5.11517 2.49678 0
M  V30 9391 N 884.076 -5.76108 0.712755 0
M  V30 9392 H 886.841 -1.98899 2.24186 0
M  V30 9393 H 884.402 -0.96127 1.30274 0
M  V30 9394 H 886.394 -3.98791 0.689043 0
M  V30 9395 H 884.964 -3.12524 0.0690591 0
M  V30 9396 H 884.184 -3.00459 2.55183 0
M  V30 9397 H 885.472 -4.16426 2.92347 0
M  V30 9398 H 884.87 -5.65586 0.113662 0
M  V30 9399 H 883.427 -6.49762 0.514995 0
M  V30 9400 N 886.86 -1.21182 -1.00761 0
M  V30 9401 C 888.276 -0.968607 -1.26847 0
M  V30 9402 C 888.476 0.346561 -1.98497 0
M  V30 9403 O 887.532 1.07287 -2.28573 0
M  V30 9404 C 888.845 -2.1574 -2.09467 0
M  V30 9405 C 890.393 -2.19937 -2.22703 0
M  V30 9406 C 890.868 -3.38328 -3.08704 0
M  V30 9407 N 892.359 -3.38398 -3.16293 0
M  V30 9408 C 893.094 -4.26653 -3.83086 0
M  V30 9409 N 892.59 -5.25101 -4.5193 0
M  V30 9410 N 894.383 -4.14469 -3.797 0
M  V30 9411 H 886.534 -2.05763 -0.526816 0
M  V30 9412 H 888.797 -0.90087 -0.29519 0
M  V30 9413 H 888.503 -3.11034 -1.64167 0
M  V30 9414 H 888.377 -2.14584 -3.10216 0
M  V30 9415 H 890.764 -1.25201 -2.67224 0
M  V30 9416 H 890.845 -2.25139 -1.21433 0
M  V30 9417 H 890.489 -4.33356 -2.64886 0
M  V30 9418 H 890.419 -3.30364 -4.10082 0
M  V30 9419 H 892.91 -2.67149 -2.67282 0
M  V30 9420 H 893.223 -5.8875 -5.00592 0
M  V30 9421 H 891.568 -5.29029 -4.50726 0
M  V30 9422 H 894.759 -3.3682 -3.25069 0
M  V30 9423 H 894.932 -4.83458 -4.31477 0
M  V30 9424 N 888.338 1.20213 -1.01915 0
M  V30 9425 C 889.749 1.7136 -0.741131 0
M  V30 9426 C 890.1 1.81705 0.740107 0
M  V30 9427 O 889.225 1.48139 1.57746 0
M  V30 9428 C 889.82 3.11231 -1.33869 0
M  V30 9429 C 888.379 3.59677 -1.10948 0
M  V30 9430 C 887.526 2.36809 -1.4428 0
M  V30 9431 H 890.477 1.05191 -1.1883 0
M  V30 9432 H 890.498 3.7342 -0.730585 0
M  V30 9433 H 890.01 3.03669 -2.41675 0
M  V30 9434 H 888.111 3.72568 -0.0492052 0
M  V30 9435 H 888.224 4.44351 -1.79134 0
M  V30 9436 H 886.588 2.39674 -0.861881 0
M  V30 9437 H 887.371 2.31886 -2.53148 0
M  V30 9438 N 889.816 0.795718 1.36037 0
M  V30 9439 C 891.044 0.383153 2.03321 0
M  V30 9440 C 891.459 -1.00246 1.59988 0
M  V30 9441 O 890.816 -1.64406 0.792265 0
M  V30 9442 C 890.867 0.444467 3.58757 0
M  V30 9443 O 890.588 1.77544 4.00512 0
M  V30 9444 C 892.089 0.0233291 4.43294 0
M  V30 9445 H 889.309 0.157061 0.652359 0
M  V30 9446 H 891.853 1.07632 1.73884 0
M  V30 9447 H 890.008 -0.200341 3.86882 0
M  V30 9448 H 890.422 1.73065 4.95125 0
M  V30 9449 H 891.896 0.117361 5.51875 0
M  V30 9450 H 892.373 -1.03007 4.2695 0
M  V30 9451 H 892.979 0.64087 4.20444 0
M  V30 9452 N 891.294 -1.47756 0.548274 0
M  V30 9453 C 892.705 -1.8636 0.112547 0
M  V30 9454 C 893.056 -1.45589 -1.31523 0
M  V30 9455 O 892.181 -0.854874 -1.98799 0
M  V30 9456 C 892.776 -3.38224 0.197473 0
M  V30 9457 C 891.335 -3.75954 -0.183163 0
M  V30 9458 C 890.482 -2.7181 0.549059 0
M  V30 9459 H 893.433 -1.394 0.758506 0
M  V30 9460 H 893.454 -3.75957 -0.586217 0
M  V30 9461 H 892.966 -3.67868 1.23673 0
M  V30 9462 H 891.067 -3.51926 -1.22387 0
M  V30 9463 H 891.18 -4.78801 0.169178 0
M  V30 9464 H 889.544 -2.54699 -0.00682862 0
M  V30 9465 H 890.327 -3.04296 1.5893 0
M  V30 9466 N 892.772 -0.284283 -1.55015 0
M  V30 9467 C 893.682 0.60906 -2.26556 0
M  V30 9468 C 894.698 1.16246 -1.29472 0
M  V30 9469 O 895.874 1.1908 -1.62425 0
M  V30 9470 C 892.939 1.77246 -2.97968 0
M  V30 9471 C 892 1.25482 -4.10552 0
M  V30 9472 C 891.233 2.36277 -4.78549 0
M  V30 9473 O 891.456 3.55829 -4.45805 0
M  V30 9474 O 890.39 2.03914 -5.66306 0
M  V30 9475 H 894.216 0.0292298 -3.03686 0
M  V30 9476 H 891.801 -0.0513466 -1.49312 0
M  V30 9477 H 893.683 2.45062 -3.42815 0
M  V30 9478 H 892.358 2.33921 -2.23747 0
M  V30 9479 H 891.265 0.542859 -3.7014 0
M  V30 9480 H 892.598 0.733708 -4.86701 0
M  V30 9481 N 894.251 1.57596 -0.0117121 0
M  V30 9482 C 895.499 1.90694 0.669342 0
M  V30 9483 C 895.82 0.886999 1.73659 0
M  V30 9484 O 895.09 -0.0739779 1.9576 0
M  V30 9485 H 893.67 0.703846 0.250219 0
M  V30 9486 H 896.332 1.94821 -0.0554057 0
M  V30 9487 H 895.428 2.90802 1.13316 0
M  V30 9488 N 895.729 -0.261212 1.5542 0
M  V30 9489 C 896.975 -0.992699 1.76843 0
M  V30 9490 C 897.308 -1.8551 0.574428 0
M  V30 9491 O 896.583 -1.89739 -0.427713 0
M  V30 9492 C 896.866 -1.86532 3.08022 0
M  V30 9493 C 896.719 -1.03206 4.378 0
M  V30 9494 C 898.038 -2.85036 3.35324 0
M  V30 9495 H 895.157 -0.359473 0.643388 0
M  V30 9496 H 897.799 -0.264214 1.88154 0
M  V30 9497 H 895.949 -2.48644 2.9851 0
M  V30 9498 H 897.621 -0.430743 4.59285 0
M  V30 9499 H 895.864 -0.335911 4.32497 0
M  V30 9500 H 896.535 -1.6761 5.25938 0
M  V30 9501 H 899.011 -2.3306 3.44706 0
M  V30 9502 H 897.887 -3.43226 4.28354 0
M  V30 9503 H 898.148 -3.60768 2.55537 0
M  V30 9504 N 897.207 -1.48554 -0.526253 0
M  V30 9505 C 898.618 -1.50256 -1.10815 0
M  V30 9506 C 898.969 -0.274445 -1.94271 0
M  V30 9507 O 898.094 0.618094 -2.07385 0
M  V30 9508 C 898.689 -2.72264 -2.01638 0
M  V30 9509 C 897.248 -2.76826 -2.55038 0
M  V30 9510 C 896.395 -2.43823 -1.32081 0
M  V30 9511 H 899.346 -1.55616 -0.31133 0
M  V30 9512 H 899.367 -2.50993 -2.85977 0
M  V30 9513 H 898.879 -3.61632 -1.4087 0
M  V30 9514 H 896.98 -1.91676 -3.19517 0
M  V30 9515 H 897.093 -3.78351 -2.93917 0
M  V30 9516 H 895.457 -1.95058 -1.63781 0
M  V30 9517 H 896.24 -3.35436 -0.730596 0
M  V30 9518 N 898.685 0.775411 -1.37205 0
M  V30 9519 C 899.648 1.8702 -1.325 0
M  V30 9520 C 900.648 1.5915 -0.229793 0
M  V30 9521 O 901.838 1.673 -0.485423 0
M  V30 9522 C 898.97 3.24085 -1.05745 0
M  V30 9523 H 900.163 1.92604 -2.29878 0
M  V30 9524 H 897.716 0.97476 -1.22181 0
M  V30 9525 H 898.451 3.24178 -0.0888371 0
M  V30 9526 H 898.236 3.45705 -1.85016 0
M  V30 9527 H 899.726 4.0416 -1.05094 0
M  V30 9528 N 900.163 1.21714 1.00117 0
M  V30 9529 C 901.574 1.03477 1.55401 0
M  V30 9530 C 901.925 -0.40429 1.91989 0
M  V30 9531 O 901.05 -1.28807 1.7389 0
M  V30 9532 C 901.645 1.87213 2.82377 0
M  V30 9533 C 900.204 1.73297 3.34133 0
M  V30 9534 C 899.351 1.84189 2.07291 0
M  V30 9535 H 902.302 1.3568 0.823195 0
M  V30 9536 H 902.323 1.38465 3.54412 0
M  V30 9537 H 901.835 2.91944 2.55715 0
M  V30 9538 H 899.936 0.712662 3.65721 0
M  V30 9539 H 900.049 2.55486 4.05294 0
M  V30 9540 H 898.413 1.27538 2.20468 0
M  V30 9541 H 899.196 2.90435 1.83037 0
M  V30 9542 N 901.641 -1.19671 1.02551 0
M  V30 9543 C 902.604 -2.20987 0.608055 0
M  V30 9544 C 903.604 -1.5745 -0.326534 0
M  V30 9545 O 904.794 -1.73827 -0.114003 0
M  V30 9546 C 901.926 -3.4072 -0.11074 0
M  V30 9547 H 903.119 -2.59434 1.50446 0
M  V30 9548 H 900.672 -1.3329 0.816307 0
M  V30 9549 H 901.407 -3.07787 -1.02165 0
M  V30 9550 H 901.192 -3.88069 0.560772 0
M  V30 9551 H 902.682 -4.15776 -0.389848 0
M  V30 9552 N 903.119 -0.802921 -1.35613 0
M  V30 9553 C 904.53 -0.443004 -1.81368 0
M  V30 9554 C 904.881 1.03459 -1.66706 0
M  V30 9555 O 904.006 1.80372 -1.19561 0
M  V30 9556 C 904.601 -0.797324 -3.29284 0
M  V30 9557 C 903.16 -0.490055 -3.73196 0
M  V30 9558 C 902.307 -1.02487 -2.57666 0
M  V30 9559 H 905.258 -0.994888 -1.23643 0
M  V30 9560 H 905.279 -0.0934638 -3.80385 0
M  V30 9561 H 904.791 -1.87278 -3.39924 0
M  V30 9562 H 902.892 0.576818 -3.68108 0
M  V30 9563 H 903.005 -1.02012 -4.68114 0
M  V30 9564 H 901.369 -0.44738 -2.5074 0
M  V30 9565 H 902.152 -2.10636 -2.71085 0
M  V30 9566 N 904.597 1.47463 -0.556102 0
M  V30 9567 C 905.825 2.06868 -0.0364585 0
M  V30 9568 C 906.24 1.40893 1.25677 0
M  V30 9569 O 905.597 0.505083 1.75371 0
M  V30 9570 C 905.648 3.61128 0.163984 0
M  V30 9571 O 905.369 4.24629 -1.07803 0
M  V30 9572 C 906.87 4.37397 0.721036 0
M  V30 9573 H 904.09 0.669466 -0.0453399 0
M  V30 9574 H 906.634 1.89482 -0.769198 0
M  V30 9575 H 904.789 3.78031 0.84685 0
M  V30 9576 H 905.203 5.17149 -0.875067 0
M  V30 9577 H 906.677 5.46016 0.810584 0
M  V30 9578 H 907.154 4.03604 1.73206 0
M  V30 9579 H 907.76 4.25236 0.073904 0
M  V30 9580 N 906.075 0.2925 1.54862 0
M  V30 9581 C 907.486 -0.201841 1.85606 0
M  V30 9582 C 907.837 -1.54093 1.21449 0
M  V30 9583 O 906.962 -2.10327 0.509079 0
M  V30 9584 C 907.557 -0.373011 3.3674 0
M  V30 9585 C 906.116 -0.811574 3.67547 0
M  V30 9586 C 905.263 0.0850583 2.7717 0
M  V30 9587 H 908.214 0.513774 1.50153 0
M  V30 9588 H 908.235 -1.20892 3.60785 0
M  V30 9589 H 907.747 0.601751 3.83407 0
M  V30 9590 H 905.848 -1.79719 3.26392 0
M  V30 9591 H 905.961 -0.636853 4.74848 0
M  V30 9592 H 904.325 -0.434224 2.50971 0
M  V30 9593 H 905.108 1.05602 3.26654 0
M  V30 9594 N 907.553 -1.57587 0.0200696 0
M  V30 9595 C 908.799 -1.91708 -0.661503 0
M  V30 9596 C 909.132 -0.895968 -1.72296 0
M  V30 9597 O 908.407 0.082577 -1.94325 0
M  V30 9598 C 908.69 -3.36344 -1.28627 0
M  V30 9599 C 908.543 -4.49186 -0.234982 0
M  V30 9600 C 909.862 -3.80771 -2.20685 0
M  V30 9601 H 906.981 -0.69717 -0.239005 0
M  V30 9602 H 909.623 -1.8985 0.0754764 0
M  V30 9603 H 907.773 -3.38058 -1.91439 0
M  V30 9604 H 909.445 -4.59606 0.395011 0
M  V30 9605 H 907.688 -4.31557 0.440565 0
M  V30 9606 H 908.359 -5.47395 -0.711558 0
M  V30 9607 H 910.835 -3.80735 -1.67868 0
M  V30 9608 H 909.711 -4.82685 -2.61356 0
M  V30 9609 H 909.972 -3.15764 -3.09428 0
M  V30 9610 N 909.032 0.252966 -1.55557 0
M  V30 9611 C 910.443 0.822503 -1.67606 0
M  V30 9612 C 910.794 1.86265 -0.616411 0
M  V30 9613 O 909.919 2.15082 0.238447 0
M  V30 9614 C 910.514 1.49866 -3.03852 0
M  V30 9615 C 909.073 2.01597 -3.17861 0
M  V30 9616 C 908.22 0.864943 -2.63465 0
M  V30 9617 H 911.171 0.0288958 -1.58674 0
M  V30 9618 H 911.192 2.36646 -2.97958 0
M  V30 9619 H 910.704 0.741378 -3.80953 0
M  V30 9620 H 908.805 2.80224 -2.45571 0
M  V30 9621 H 908.918 2.21752 -4.24692 0
M  V30 9622 H 907.282 1.2638 -2.21134 0
M  V30 9623 H 908.065 0.120847 -3.43087 0
M  V30 9624 N 910.51 1.48831 0.518367 0
M  V30 9625 C 911.473 1.63721 1.604 0
M  V30 9626 C 912.473 0.509857 1.52503 0
M  V30 9627 O 913.663 0.775922 1.55965 0
M  V30 9628 C 910.795 1.61831 3.00039 0
M  V30 9629 H 911.988 2.60534 1.48533 0
M  V30 9630 H 909.541 1.37602 0.741309 0
M  V30 9631 H 910.276 0.665387 3.17401 0
M  V30 9632 H 910.061 2.43686 3.0718 0
M  V30 9633 H 911.551 1.75467 3.78947 0
M  V30 9634 N 911.988 -0.768124 1.37614 0
M  V30 9635 C 913.216 -1.55726 1.36224 0
M  V30 9636 C 913.631 -1.8873 -0.0515357 0
M  V30 9637 O 912.988 -1.51718 -1.0143 0
M  V30 9638 C 913.039 -2.86533 2.20412 0
M  V30 9639 O 912.76 -2.54942 3.56281 0
M  V30 9640 C 914.261 -3.80745 2.27041 0
M  V30 9641 H 911.481 -0.482325 0.46648 0
M  V30 9642 H 914.025 -0.95176 1.81002 0
M  V30 9643 H 912.18 -3.43496 1.79134 0
M  V30 9644 H 912.594 -3.38732 4.00451 0
M  V30 9645 H 914.068 -4.69523 2.90263 0
M  V30 9646 H 914.545 -4.20138 1.27987 0
M  V30 9647 H 915.151 -3.2971 2.68647 0
M  V30 9648 N 913.466 -1.22244 -0.994698 0
M  V30 9649 C 914.877 -1.043 -1.5485 0
M  V30 9650 C 915.228 0.394102 -1.92201 0
M  V30 9651 O 914.353 1.27883 -1.74571 0
M  V30 9652 C 914.948 -1.88708 -2.8138 0
M  V30 9653 C 913.507 -1.75067 -3.3321 0
M  V30 9654 C 912.654 -1.85286 -2.06312 0
M  V30 9655 H 915.605 -1.36115 -0.815988 0
M  V30 9656 H 915.626 -1.40342 -3.53673 0
M  V30 9657 H 915.138 -2.93296 -2.54164 0
M  V30 9658 H 913.239 -0.732047 -3.65338 0
M  V30 9659 H 913.352 -2.57632 -4.03934 0
M  V30 9660 H 911.716 -1.28706 -2.19788 0
M  V30 9661 H 912.499 -2.91401 -1.81494 0
M  V30 9662 N 914.944 1.19125 -1.03184 0
M  V30 9663 C 916.172 1.92838 -0.74975 0
M  V30 9664 C 916.587 1.75667 0.691851 0
M  V30 9665 O 915.944 1.0805 1.47076 0
M  V30 9666 C 915.995 3.44509 -1.09525 0
M  V30 9667 O 915.716 3.6113 -2.48025 0
M  V30 9668 C 917.217 4.35338 -0.836397 0
M  V30 9669 H 914.437 0.61246 -0.274105 0
M  V30 9670 H 916.981 1.5118 -1.37712 0
M  V30 9671 H 915.136 3.83988 -0.513006 0
M  V30 9672 H 915.55 4.54959 -2.60984 0
M  V30 9673 H 917.024 5.4035 -1.12808 0
M  V30 9674 H 917.501 4.38602 0.229102 0
M  V30 9675 H 918.107 4.01544 -1.40152 0
M  V30 9676 N 916.422 0.810101 1.35185 0
M  V30 9677 C 917.65 0.404696 2.02903 0
M  V30 9678 C 918.065 -0.985434 1.61042 0
M  V30 9679 O 917.422 -1.63557 0.809658 0
M  V30 9680 C 917.473 0.482493 3.58266 0
M  V30 9681 O 917.194 1.81782 3.98606 0
M  V30 9682 C 918.695 0.070345 4.43244 0
M  V30 9683 H 915.915 0.163972 0.650657 0
M  V30 9684 H 918.459 1.0947 1.72733 0
M  V30 9685 H 916.614 -0.159296 3.87072 0
M  V30 9686 H 917.028 1.78306 4.93262 0
M  V30 9687 H 918.502 0.175888 5.5172 0
M  V30 9688 H 918.979 -0.984724 4.28018 0
M  V30 9689 H 919.585 0.685427 4.1974 0
M  V30 9690 N 917.9 -1.47166 0.563914 0
M  V30 9691 C 919.125 -2.0735 0.0454698 0
M  V30 9692 C 919.55 -1.41281 -1.24182 0
M  V30 9693 O 918.908 -0.490084 -1.7455 0
M  V30 9694 C 918.956 -3.60378 -0.126453 0
M  V30 9695 O 918.06 -3.94934 -1.18746 0
M  V30 9696 H 917.401 -0.661773 0.0543377 0
M  V30 9697 H 919.931 -1.89086 0.781508 0
M  V30 9698 H 919.941 -4.06593 -0.338554 0
M  V30 9699 H 918.616 -4.07862 0.81373 0
M  V30 9700 H 917.193 -3.60455 -0.955318 0
M  V30 9701 N 919.378 -0.300708 -1.54705 0
M  V30 9702 C 920.626 0.308044 -1.99739 0
M  V30 9703 C 920.947 1.54433 -1.19061 0
M  V30 9704 O 920.217 1.93794 -0.286507 0
M  V30 9705 H 918.797 0.116811 -0.73781 0
M  V30 9706 H 921.459 -0.41197 -1.90496 0
M  V30 9707 H 920.555 0.580287 -3.06658 0
M  V30 9708 N 920.856 1.57574 -0.0284266 0
M  V30 9709 C 921.806 2.06674 0.962804 0
M  V30 9710 C 922.79 0.967115 1.28591 0
M  V30 9711 O 923.982 1.23068 1.27214 0
M  V30 9712 C 921.111 2.59682 2.24545 0
M  V30 9713 C 920.197 3.76573 1.95073 0
M  V30 9714 N 920.588 4.8721 1.35869 0
M  V30 9715 C 918.886 3.85046 2.25068 0
M  V30 9716 C 919.587 5.68436 1.23514 0
M  V30 9717 N 918.563 5.15323 1.73041 0
M  V30 9718 H 922.365 2.89615 0.500013 0
M  V30 9719 H 919.879 1.61437 0.176604 0
M  V30 9720 H 921.876 2.93148 2.96428 0
M  V30 9721 H 920.536 1.7817 2.71451 0
M  V30 9722 H 921.547 5.07477 1.03379 0
M  V30 9723 H 918.224 3.14439 2.74653 0
M  V30 9724 H 919.614 6.67387 0.777403 0
M  V30 9725 N 922.334 -0.244713 1.55689 0
M  V30 9726 C 923.58 -0.969623 1.78801 0
M  V30 9727 C 923.935 -1.8288 0.597716 0
M  V30 9728 O 923.228 -1.87184 -0.408978 0
M  V30 9729 C 923.422 -1.8617 3.05083 0
M  V30 9730 C 923.251 -1.09036 4.36281 0
M  V30 9731 C 922.021 -0.794585 4.99013 0
M  V30 9732 C 924.219 -0.466883 5.12176 0
M  V30 9733 N 922.201 0.000579944 6.139 0
M  V30 9734 C 923.572 0.192755 6.197 0
M  V30 9735 C 925.627 -0.377571 4.96466 0
M  V30 9736 C 924.33 0.933132 7.13222 0
M  V30 9737 C 926.356 0.349281 5.90368 0
M  V30 9738 C 925.718 0.997549 6.97301 0
M  V30 9739 H 921.817 -0.335845 0.70621 0
M  V30 9740 H 924.401 -0.242559 1.93183 0
M  V30 9741 H 922.572 -2.56077 2.92026 0
M  V30 9742 H 924.304 -2.52234 3.16481 0
M  V30 9743 H 921.059 -1.10691 4.60483 0
M  V30 9744 H 921.483 0.38632 6.75897 0
M  V30 9745 H 926.125 -0.86443 4.13869 0
M  V30 9746 H 923.843 1.43159 7.95318 0
M  V30 9747 H 927.429 0.419082 5.80289 0
M  V30 9748 H 926.309 1.551 7.68709 0
M  V30 9749 N 923.813 -1.49104 -0.510467 0
M  V30 9750 C 924.723 -1.67792 -1.6396 0
M  V30 9751 C 925.739 -0.560454 -1.64727 0
M  V30 9752 O 926.915 -0.833985 -1.83321 0
M  V30 9753 C 923.98 -1.73154 -3.00364 0
M  V30 9754 C 923.041 -2.9667 -3.10299 0
M  V30 9755 C 922.274 -3.01767 -4.40196 0
M  V30 9756 O 922.497 -2.1472 -5.28443 0
M  V30 9757 O 921.431 -3.94137 -4.54906 0
M  V30 9758 H 925.257 -2.63428 -1.51126 0
M  V30 9759 H 922.842 -1.32734 -0.685719 0
M  V30 9760 H 924.724 -1.79089 -3.81451 0
M  V30 9761 H 923.399 -0.806952 -3.1348 0
M  V30 9762 H 922.306 -2.96257 -2.28435 0
M  V30 9763 H 923.639 -3.88578 -3.02106 0
M  V30 9764 N 925.291 0.760815 -1.38019 0
M  V30 9765 C 926.519 1.55001 -1.37048 0
M  V30 9766 C 926.934 1.88754 0.0415261 0
M  V30 9767 O 926.291 1.52254 1.00624 0
M  V30 9768 C 926.342 2.8536 -2.21928 0
M  V30 9769 O 926.063 2.53049 -3.57628 0
M  V30 9770 C 927.564 3.79536 -2.29057 0
M  V30 9771 H 924.784 0.479844 -0.469032 0
M  V30 9772 H 927.328 0.942148 -1.81504 0
M  V30 9773 H 925.483 3.42542 -1.80953 0
M  V30 9774 H 925.897 3.36604 -4.02241 0
M  V30 9775 H 927.371 4.67977 -2.92749 0
M  V30 9776 H 927.848 4.19453 -1.30213 0
M  V30 9777 H 928.454 3.28281 -2.70392 0
M  V30 9778 N 926.769 1.22769 0.988202 0
M  V30 9779 C 927.701 0.959757 2.08138 0
M  V30 9780 C 928.714 -0.0633787 1.62677 0
M  V30 9781 O 929.903 0.171203 1.77677 0
M  V30 9782 C 927.003 0.422724 3.36253 0
M  V30 9783 C 926.176 1.50419 4.10722 0
M  V30 9784 C 925.235 0.973407 5.17118 0
M  V30 9785 O 924.261 1.66066 5.44436 0
M  V30 9786 N 925.463 -0.202787 5.80146 0
M  V30 9787 H 928.228 1.9009 2.31702 0
M  V30 9788 H 925.789 1.13522 1.15431 0
M  V30 9789 H 927.781 0.0528514 4.04665 0
M  V30 9790 H 926.351 -0.423642 3.09716 0
M  V30 9791 H 925.571 2.04718 3.36874 0
M  V30 9792 H 926.859 2.23169 4.57245 0
M  V30 9793 H 926.257 -0.777856 5.60327 0
M  V30 9794 H 924.814 -0.513998 6.4977 0
M  V30 9795 N 928.247 -1.18576 1.03814 0
M  V30 9796 C 929.157 -2.25778 0.637311 0
M  V30 9797 C 930.173 -1.7074 -0.335248 0
M  V30 9798 O 931.349 -2.00494 -0.19081 0
M  V30 9799 C 928.414 -3.467 0.00386953 0
M  V30 9800 C 927.475 -4.16881 1.02511 0
M  V30 9801 C 926.708 -5.32031 0.421802 0
M  V30 9802 O 926.931 -5.65142 -0.772699 0
M  V30 9803 O 925.865 -5.90826 1.14925 0
M  V30 9804 H 929.691 -2.62323 1.53037 0
M  V30 9805 H 927.276 -1.25609 0.80887 0
M  V30 9806 H 929.158 -4.19953 -0.348873 0
M  V30 9807 H 927.833 -3.11983 -0.863047 0
M  V30 9808 H 926.74 -3.45707 1.4296 0
M  V30 9809 H 928.073 -4.55592 1.86271 0
M  V30 9810 N 929.725 -0.817259 -1.34754 0
M  V30 9811 C 930.635 -0.236946 -2.334 0
M  V30 9812 C 931.651 0.625685 -1.62361 0
M  V30 9813 O 932.827 0.534921 -1.94166 0
M  V30 9814 C 929.892 0.596215 -3.41535 0
M  V30 9815 C 928.953 -0.288154 -4.28332 0
M  V30 9816 C 928.186 0.505337 -5.31302 0
M  V30 9817 O 928.409 1.73912 -5.43241 0
M  V30 9818 O 927.343 -0.109374 -6.01801 0
M  V30 9819 H 931.169 -1.05327 -2.84851 0
M  V30 9820 H 928.754 -0.579275 -1.37713 0
M  V30 9821 H 930.636 1.07041 -4.07578 0
M  V30 9822 H 929.311 1.38997 -2.92338 0
M  V30 9823 H 928.218 -0.809724 -3.65232 0
M  V30 9824 H 929.551 -1.04612 -4.80955 0
M  V30 9825 N 931.203 1.46865 -0.571711 0
M  V30 9826 C 932.48 1.95596 0.0132445 0
M  V30 9827 C 932.86 1.51438 1.47071 0
M  V30 9828 O 932.208 0.759917 2.15494 0
M  V30 9829 C 932.418 3.48689 -0.147335 0
M  V30 9830 C 933.766 4.24599 -0.00946329 0
M  V30 9831 O 934.79 3.5612 -0.0756112 0
M  V30 9832 O 933.649 5.46332 0.135361 0
M  V30 9833 H 930.743 0.825102 0.0560039 0
M  V30 9834 H 933.289 1.57199 -0.639256 0
M  V30 9835 H 932.061 3.73681 -1.16096 0
M  V30 9836 H 931.684 3.93887 0.542109 0
M  V30 9837 N 932.681 0.308908 1.54543 0
M  V30 9838 C 933.628 -0.563659 2.23811 0
M  V30 9839 C 934.598 -1.12332 1.22355 0
M  V30 9840 O 935.783 -1.16638 1.50997 0
M  V30 9841 C 932.923 -1.72585 2.98845 0
M  V30 9842 C 932.036 -1.19682 4.1509 0
M  V30 9843 C 931.171 -2.32351 4.77688 0
M  V30 9844 C 930.21 -1.76623 5.86064 0
M  V30 9845 N 929.347 -2.82896 6.42584 0
M  V30 9846 H 934.187 0.0336288 2.97981 0
M  V30 9847 H 931.724 0.0283666 1.47073 0
M  V30 9848 H 933.682 -2.40951 3.40586 0
M  V30 9849 H 932.312 -2.29464 2.27037 0
M  V30 9850 H 931.364 -0.405173 3.78236 0
M  V30 9851 H 932.676 -0.748923 4.93146 0
M  V30 9852 H 931.83 -3.0865 5.22322 0
M  V30 9853 H 930.569 -2.80472 3.98982 0
M  V30 9854 H 929.574 -0.988171 5.40847 0
M  V30 9855 H 930.799 -1.29398 6.66658 0
M  V30 9856 H 928.745 -3.30336 5.66758 0
M  V30 9857 H 928.662 -2.42626 7.16009 0
M  V30 9858 H 929.93 -3.59068 6.91875 0
M  V30 9859 N 934.159 -1.57557 0.0367827 0
M  V30 9860 C 935.436 -1.83427 -0.679261 0
M  V30 9861 C 935.816 -0.922274 -1.89888 0
M  V30 9862 O 935.164 0.02025 -2.28491 0
M  V30 9863 C 935.374 -3.32823 -1.05022 0
M  V30 9864 C 936.722 -3.99486 -1.43861 0
M  V30 9865 O 937.746 -3.37364 -1.14297 0
M  V30 9866 O 936.605 -5.0899 -1.98977 0
M  V30 9867 H 933.699 -0.756581 -0.333936 0
M  V30 9868 H 936.245 -1.69575 0.0650494 0
M  V30 9869 H 935.017 -3.90874 -0.182509 0
M  V30 9870 H 934.64 -3.5181 -1.85244 0
M  V30 9871 N 935.637 0.236453 -1.55816 0
M  V30 9872 C 936.865 0.980295 -1.82203 0
M  V30 9873 C 937.28 1.7854 -0.613926 0
M  V30 9874 O 936.637 1.77661 0.417491 0
M  V30 9875 C 936.688 1.90982 -3.06933 0
M  V30 9876 O 936.409 1.13728 -4.23081 0
M  V30 9877 C 937.91 2.76879 -3.46198 0
M  V30 9878 H 935.13 0.28799 -0.606055 0
M  V30 9879 H 937.674 0.256182 -2.02889 0
M  V30 9880 H 935.829 2.58808 -2.88266 0
M  V30 9881 H 936.243 1.76694 -4.93842 0
M  V30 9882 H 937.717 3.37831 -4.36548 0
M  V30 9883 H 938.194 3.48522 -2.67262 0
M  V30 9884 H 938.8 2.1449 -3.67252 0
M  V30 9885 N 937.115 1.49373 0.502552 0
M  V30 9886 C 938.078 1.65413 1.58654 0
M  V30 9887 C 939.078 0.526003 1.51953 0
M  V30 9888 O 940.268 0.792421 1.55133 0
M  V30 9889 C 937.4 1.65005 2.98306 0
M  V30 9890 H 938.593 2.62095 1.45762 0
M  V30 9891 H 936.146 1.38381 0.726672 0
M  V30 9892 H 936.881 0.699014 3.16677 0
M  V30 9893 H 936.666 2.46931 3.04578 0
M  V30 9894 H 938.156 1.79477 3.77065 0
M  V30 9895 N 938.594 -0.753485 1.38421 0
M  V30 9896 C 939.504 -1.89797 1.37892 0
M  V30 9897 C 940.52 -1.71797 0.276023 0
M  V30 9898 O 941.696 -1.94718 0.514464 0
M  V30 9899 C 938.761 -3.25166 1.20284 0
M  V30 9900 C 937.822 -3.55691 2.4038 0
M  V30 9901 C 937.055 -4.84601 2.23602 0
M  V30 9902 O 937.278 -5.56985 1.22979 0
M  V30 9903 O 936.212 -5.14605 3.12194 0
M  V30 9904 H 940.038 -1.93197 2.34326 0
M  V30 9905 H 937.623 -0.898775 1.19342 0
M  V30 9906 H 939.505 -4.06099 1.12525 0
M  V30 9907 H 938.18 -3.22577 0.269352 0
M  V30 9908 H 937.087 -2.74919 2.53714 0
M  V30 9909 H 938.42 -3.6304 3.32359 0
M  V30 9910 N 940.072 -1.23292 -0.981677 0
M  V30 9911 C 941.349 -0.972514 -1.6971 0
M  V30 9912 C 941.729 0.509244 -2.04866 0
M  V30 9913 O 941.077 1.48013 -1.74082 0
M  V30 9914 C 941.287 -1.88144 -2.93943 0
M  V30 9915 C 942.635 -2.14416 -3.66485 0
M  V30 9916 O 943.659 -1.85684 -3.03974 0
M  V30 9917 O 942.518 -2.63139 -4.78978 0
M  V30 9918 H 939.612 -0.366673 -0.741269 0
M  V30 9919 H 942.158 -1.34328 -1.03701 0
M  V30 9920 H 940.93 -2.8832 -2.64551 0
M  V30 9921 H 940.553 -1.51296 -3.67689 0
M  V30 9922 N 941.55 1.18024 -1.04442 0
M  V30 9923 C 942.775 1.92573 -0.770097 0
M  V30 9924 C 943.2 1.75871 0.667169 0
M  V30 9925 O 942.558 1.07136 1.46258 0
M  V30 9926 C 942.606 3.41904 -1.14602 0
M  V30 9927 O 941.71 4.11491 -0.273712 0
M  V30 9928 H 941.051 0.600636 -0.283076 0
M  V30 9929 H 943.581 1.49645 -1.39526 0
M  V30 9930 H 943.591 3.92623 -1.10956 0
M  V30 9931 H 942.266 3.53382 -2.19304 0
M  V30 9932 H 940.843 3.71059 -0.370124 0
M  V30 9933 N 943.028 0.824394 1.34319 0
M  V30 9934 C 944.253 0.425194 2.02995 0
M  V30 9935 C 944.678 -0.961476 1.6167 0
M  V30 9936 O 944.036 -1.62593 0.80207 0
M  V30 9937 C 944.084 0.537004 3.56579 0
M  V30 9938 O 943.188 -0.442576 4.10018 0
M  V30 9939 H 942.529 0.174853 0.640564 0
M  V30 9940 H 945.059 1.11522 1.71534 0
M  V30 9941 H 945.069 0.413311 4.05901 0
M  V30 9942 H 943.744 1.54836 3.86004 0
M  V30 9943 H 942.321 -0.277644 3.71865 0
M  V30 9944 N 944.506 -1.46559 0.579492 0
M  V30 9945 C 945.734 -2.06784 0.0693648 0
M  V30 9946 C 946.149 -1.42875 -1.23419 0
M  V30 9947 O 945.506 -0.532919 -1.74546 0
M  V30 9948 C 945.557 -3.61343 -0.106511 0
M  V30 9949 O 945.278 -4.22861 1.14545 0
M  V30 9950 C 946.779 -4.38489 -0.651359 0
M  V30 9951 H 943.999 -0.66866 0.0559848 0
M  V30 9952 H 946.543 -1.88235 0.799245 0
M  V30 9953 H 944.698 -3.7933 -0.786601 0
M  V30 9954 H 945.112 -5.15691 0.95723 0
M  V30 9955 H 946.586 -5.47237 -0.723615 0
M  V30 9956 H 947.063 -4.06309 -1.66763 0
M  V30 9957 H 947.669 -4.253 -0.0062433 0
M  V30 9958 N 945.984 -0.3171 -1.54377 0
M  V30 9959 C 946.947 0.53905 -2.22771 0
M  V30 9960 C 947.947 1.04865 -1.21901 0
M  V30 9961 O 949.137 0.942108 -1.46526 0
M  V30 9962 C 946.269 1.74804 -2.92671 0
M  V30 9963 H 947.462 -0.0587417 -2.99842 0
M  V30 9964 H 945.015 -0.068107 -1.56152 0
M  V30 9965 H 945.75 2.38524 -2.1972 0
M  V30 9966 H 945.535 1.39011 -3.66631 0
M  V30 9967 H 947.025 2.35592 -3.44799 0
M  V30 9968 N 947.462 1.57535 -0.0451378 0
M  V30 9969 C 948.739 1.83785 0.669523 0
M  V30 9970 C 949.119 0.932331 1.89396 0
M  V30 9971 O 948.467 -0.00813229 2.28499 0
M  V30 9972 C 948.677 3.33376 1.03255 0
M  V30 9973 C 950.025 4.00243 1.41741 0
M  V30 9974 O 951.049 3.37965 1.12507 0
M  V30 9975 O 949.908 5.10038 1.96275 0
M  V30 9976 H 947.002 0.758342 0.329919 0
M  V30 9977 H 949.548 1.69538 -0.0740415 0
M  V30 9978 H 948.32 3.90965 0.161777 0
M  V30 9979 H 947.943 3.52787 1.83376 0
M  V30 9980 N 948.94 -0.228186 1.55939 0
M  V30 9981 C 950.356 -0.577583 1.48782 0
M  V30 9982 C 950.556 -1.87461 0.738972 0
M  V30 9983 O 949.612 -2.50988 0.275929 0
M  V30 9984 C 950.925 -0.662961 2.93301 0
M  V30 9985 C 952.473 -0.754035 3.03782 0
M  V30 9986 C 952.948 -0.870815 4.49645 0
M  V30 9987 N 954.439 -0.935208 4.53661 0
M  V30 9988 C 955.174 -1.04516 5.63794 0
M  V30 9989 N 954.67 -1.11948 6.83696 0
M  V30 9990 N 956.463 -1.07978 5.51631 0
M  V30 9991 H 948.614 0.623018 2.03057 0
M  V30 9992 H 950.877 0.217692 0.922667 0
M  V30 9993 H 950.583 0.220375 3.51009 0
M  V30 9994 H 950.457 -1.52876 3.44831 0
M  V30 9995 H 952.844 -1.62782 2.46143 0
M  V30 9996 H 952.925 0.137301 2.55431 0
M  V30 9997 H 952.569 -0.0015186 5.079 0
M  V30 9998 H 952.499 -1.77747 4.95695 0
M  V30 9999 H 954.99 -0.88836 3.6731 0
M  V30 10000 H 955.303 -1.20297 7.6338 0
M  V30 10001 H 953.648 -1.08873 6.8642 0
M  V30 10002 H 956.839 -1.01833 4.56889 0
M  V30 10003 H 957.012 -1.16202 6.37496 0
M  V30 10004 N 950.418 -1.49637 -0.494624 0
M  V30 10005 C 951.664 -1.60654 -1.24747 0
M  V30 10006 C 952.019 -0.292376 -1.90166 0
M  V30 10007 O 951.312 0.707918 -1.78042 0
M  V30 10008 C 951.506 -2.70749 -2.33302 0
M  V30 10009 C 951.335 -4.12744 -1.7853 0
M  V30 10010 C 950.105 -4.79451 -1.59546 0
M  V30 10011 C 952.303 -4.97767 -1.29353 0
M  V30 10012 N 950.285 -6.05738 -0.997702 0
M  V30 10013 C 951.656 -6.14587 -0.817517 0
M  V30 10014 C 953.711 -4.83719 -1.17986 0
M  V30 10015 C 952.414 -7.18903 -0.23907 0
M  V30 10016 C 954.44 -5.8819 -0.615375 0
M  V30 10017 C 953.802 -7.04241 -0.149622 0
M  V30 10018 H 949.901 -0.642198 -0.446213 0
M  V30 10019 H 952.485 -1.86668 -0.553469 0
M  V30 10020 H 950.656 -2.46497 -3.00156 0
M  V30 10021 H 952.388 -2.71253 -3.0034 0
M  V30 10022 H 949.143 -4.36354 -1.84098 0
M  V30 10023 H 949.567 -6.73183 -0.717911 0
M  V30 10024 H 954.209 -3.94304 -1.52592 0
M  V30 10025 H 951.927 -8.08012 0.11925 0
M  V30 10026 H 955.513 -5.7938 -0.530114 0
M  V30 10027 H 954.393 -7.83699 0.280349 0
M  V30 10028 N 951.896 0.746133 -1.38819 0
M  V30 10029 C 953.173 1.49652 -1.25951 0
M  V30 10030 C 953.553 2.10663 0.135833 0
M  V30 10031 O 952.901 1.97682 1.14604 0
M  V30 10032 C 953.111 2.5569 -2.37537 0
M  V30 10033 C 954.459 3.22385 -2.76321 0
M  V30 10034 O 955.483 2.65998 -2.36904 0
M  V30 10035 O 954.342 4.2439 -3.44319 0
M  V30 10036 H 951.436 0.664019 -0.492958 0
M  V30 10037 H 953.982 0.780908 -1.50665 0
M  V30 10038 H 952.754 2.08908 -3.30867 0
M  V30 10039 H 952.377 3.34823 -2.14427 0
M  V30 10040 N 953.375 1.23811 0.975125 0
M  V30 10041 C 954.652 0.9815 1.69192 0
M  V30 10042 C 955.032 -0.498373 2.05133 0
M  V30 10043 O 954.38 -1.47087 1.74864 0
M  V30 10044 C 954.59 1.89701 2.92941 0
M  V30 10045 C 955.938 2.16357 3.65342 0
M  V30 10046 O 956.962 1.87293 3.02985 0
M  V30 10047 O 955.821 2.65675 4.77576 0
M  V30 10048 H 952.915 0.370599 0.739314 0
M  V30 10049 H 955.461 1.34876 1.02988 0
M  V30 10050 H 954.233 2.89719 2.63018 0
M  V30 10051 H 953.856 1.53244 3.66881 0
M  V30 10052 N 954.853 -1.17469 1.05066 0
M  V30 10053 C 955.763 -2.25089 0.661222 0
M  V30 10054 C 956.779 -1.71086 -0.31712 0
M  V30 10055 O 957.955 -2.00685 -0.169534 0
M  V30 10056 C 955.02 -3.46676 0.0406415 0
M  V30 10057 C 954.081 -4.15771 1.06927 0
M  V30 10058 C 953.314 -5.31553 0.478208 0
M  V30 10059 O 953.537 -5.6593 -0.712714 0
M  V30 10060 O 952.471 -5.89574 1.21185 0
M  V30 10061 H 956.297 -2.60685 1.5581 0
M  V30 10062 H 953.882 -1.24744 0.822147 0
M  V30 10063 H 955.764 -4.203 -0.304312 0
M  V30 10064 H 954.439 -3.1288 -0.829909 0
M  V30 10065 H 953.346 -3.44171 1.46619 0
M  V30 10066 H 954.679 -4.53591 1.91092 0
M  V30 10067 N 956.331 -0.831506 -1.3388 0
M  V30 10068 C 957.608 -0.345907 -1.92517 0
M  V30 10069 C 957.988 1.16784 -1.75854 0
M  V30 10070 O 957.336 1.97889 -1.14245 0
M  V30 10071 C 957.546 -0.784692 -3.40064 0
M  V30 10072 C 958.894 -0.78846 -4.17215 0
M  V30 10073 O 959.918 -0.727823 -3.48685 0
M  V30 10074 O 958.777 -0.869481 -5.39539 0
M  V30 10075 H 955.871 -0.0963568 -0.821367 0
M  V30 10076 H 958.417 -0.916868 -1.42799 0
M  V30 10077 H 957.189 -1.82697 -3.46031 0
M  V30 10078 H 956.812 -0.189897 -3.97146 0
M  V30 10079 N 957.809 1.4625 -0.587256 0
M  V30 10080 C 959.055 2.0323 -0.0830359 0
M  V30 10081 C 959.41 1.45007 1.26455 0
M  V30 10082 O 958.703 0.607494 1.81714 0
M  V30 10083 C 958.897 3.57382 0.036328 0
M  V30 10084 C 958.726 4.30556 -1.29814 0
M  V30 10085 C 957.496 4.69285 -1.87349 0
M  V30 10086 C 959.694 4.63806 -2.22236 0
M  V30 10087 N 957.676 5.27229 -3.14488 0
M  V30 10088 C 959.047 5.22368 -3.33964 0
M  V30 10089 C 961.102 4.45738 -2.2186 0
M  V30 10090 C 959.805 5.64769 -4.45454 0
M  V30 10091 C 961.831 4.89158 -3.32383 0
M  V30 10092 C 961.193 5.47795 -4.42832 0
M  V30 10093 H 957.292 0.77856 -0.0732716 0
M  V30 10094 H 959.876 1.78343 -0.781152 0
M  V30 10095 H 958.047 3.81973 0.703621 0
M  V30 10096 H 959.779 4.01009 0.545347 0
M  V30 10097 H 956.534 4.5219 -1.40789 0
M  V30 10098 H 956.958 5.60719 -3.79372 0
M  V30 10099 H 961.6 3.99735 -1.37739 0
M  V30 10100 H 959.318 6.09748 -5.30314 0
M  V30 10101 H 962.904 4.76926 -3.33216 0
M  V30 10102 H 961.784 5.80778 -5.26941 0
M  V30 10103 N 959.287 0.325282 1.54207 0
M  V30 10104 C 960.535 -0.276229 2.00203 0
M  V30 10105 C 960.856 -1.52519 1.21503 0
M  V30 10106 O 960.126 -1.93313 0.317302 0
M  V30 10107 H 958.706 -0.105059 0.739575 0
M  V30 10108 H 961.368 0.442225 1.89817 0
M  V30 10109 H 960.464 -0.531427 3.07542 0
M  V30 10110 N 960.765 -1.57509 0.0534917 0
M  V30 10111 C 961.99 -1.97511 -0.632794 0
M  V30 10112 C 962.415 -0.930947 -1.63447 0
M  V30 10113 O 961.773 0.105558 -1.80992 0
M  V30 10114 C 961.821 -3.3658 -1.29407 0
M  V30 10115 O 960.925 -3.3467 -2.40977 0
M  V30 10116 H 960.266 -0.643349 -0.16431 0
M  V30 10117 H 962.796 -2.04232 0.12258 0
M  V30 10118 H 962.806 -3.73359 -1.64521 0
M  V30 10119 H 961.481 -4.12113 -0.559976 0
M  V30 10120 H 960.058 -3.09639 -2.07793 0
M  V30 10121 N 962.243 0.219913 -1.56058 0
M  V30 10122 C 963.173 1.27572 -1.9557 0
M  V30 10123 C 964.154 1.48801 -0.824148 0
M  V30 10124 O 965.339 1.60957 -1.08658 0
M  V30 10125 C 962.469 2.62517 -2.27381 0
M  V30 10126 C 961.423 2.55941 -3.43042 0
M  V30 10127 C 960.749 3.94931 -3.60463 0
M  V30 10128 C 962.049 2.10584 -4.77966 0
M  V30 10129 H 963.743 0.947482 -2.84013 0
M  V30 10130 H 961.289 0.454337 -1.36645 0
M  V30 10131 H 963.242 3.36538 -2.53615 0
M  V30 10132 H 961.966 2.97031 -1.35794 0
M  V30 10133 H 960.625 1.84377 -3.1686 0
M  V30 10134 H 960.273 4.26756 -2.66249 0
M  V30 10135 H 959.973 3.91413 -4.38258 0
M  V30 10136 H 961.497 4.70611 -3.89046 0
M  V30 10137 H 962.911 2.74349 -5.03394 0
M  V30 10138 H 961.308 2.18122 -5.59055 0
M  V30 10139 H 962.378 1.05818 -4.73213 0
M  V30 10140 N 963.721 1.49897 0.486681 0
M  V30 10141 C 964.631 1.70379 1.6127 0
M  V30 10142 C 965.647 0.58659 1.63814 0
M  V30 10143 O 966.823 0.863044 1.81971 0
M  V30 10144 C 963.888 1.77911 2.97571 0
M  V30 10145 C 962.949 3.01569 3.0554 0
M  V30 10146 C 962.182 3.08732 4.35339 0
M  V30 10147 O 962.405 2.23099 5.2496 0
M  V30 10148 O 961.339 4.01325 4.48578 0
M  V30 10149 H 965.165 2.65799 1.46916 0
M  V30 10150 H 962.75 1.33808 0.664516 0
M  V30 10151 H 964.632 1.85135 3.78554 0
M  V30 10152 H 963.307 0.856722 3.12157 0
M  V30 10153 H 962.214 2.99854 2.23693 0
M  V30 10154 H 963.547 3.93335 2.95886 0
M  V30 10155 N 965.199 -0.738761 1.39212 0
M  V30 10156 C 966.131 -1.86286 1.3353 0
M  V30 10157 C 967.144 -1.6095 0.244755 0
M  V30 10158 O 968.333 -1.71254 0.50343 0
M  V30 10159 C 965.433 -3.22234 1.04969 0
M  V30 10160 C 964.606 -3.74956 2.25226 0
M  V30 10161 C 963.665 -4.89457 1.9318 0
M  V30 10162 O 962.691 -5.03314 2.65826 0
M  V30 10163 N 963.893 -5.73548 0.895679 0
M  V30 10164 H 966.658 -1.91666 2.304 0
M  V30 10165 H 964.219 -0.919338 1.33266 0
M  V30 10166 H 966.211 -3.96397 0.815566 0
M  V30 10167 H 964.781 -3.12146 0.168451 0
M  V30 10168 H 964.001 -2.92188 2.64612 0
M  V30 10169 H 965.289 -4.06914 3.05448 0
M  V30 10170 H 964.687 -5.64938 0.293541 0
M  V30 10171 H 963.244 -6.47795 0.721451 0
M  V30 10172 N 966.677 -1.24326 -0.968545 0
M  V30 10173 C 967.587 -1.05194 -2.09694 0
M  V30 10174 C 968.603 0.00701291 -1.73999 0
M  V30 10175 O 969.779 -0.190981 -2.00492 0
M  V30 10176 C 966.844 -0.658075 -3.40397 0
M  V30 10177 C 965.905 -1.79341 -3.90045 0
M  V30 10178 C 965.138 -1.41824 -5.14511 0
M  V30 10179 O 965.361 -0.307693 -5.69569 0
M  V30 10180 O 964.295 -2.24358 -5.58522 0
M  V30 10181 H 968.121 -1.99791 -2.2873 0
M  V30 10182 H 965.706 -1.03138 -1.08088 0
M  V30 10183 H 967.588 -0.449911 -4.18991 0
M  V30 10184 H 966.263 0.258782 -3.22664 0
M  V30 10185 H 965.17 -2.05632 -3.12516 0
M  V30 10186 H 966.503 -2.68901 -4.12254 0
M  V30 10187 N 968.156 1.1691 -1.05688 0
M  V30 10188 C 969.119 2.19297 -0.666433 0
M  V30 10189 C 970.119 1.5826 0.284674 0
M  V30 10190 O 971.309 1.74068 0.0678757 0
M  V30 10191 C 968.441 3.40894 0.0203656 0
M  V30 10192 H 969.634 2.55354 -1.57272 0
M  V30 10193 H 967.187 1.31078 -0.851359 0
M  V30 10194 H 967.922 3.10388 0.939686 0
M  V30 10195 H 967.707 3.86446 -0.663464 0
M  V30 10196 H 969.197 4.16664 0.279475 0
M  V30 10197 N 969.634 0.838594 1.33437 0
M  V30 10198 C 970.544 0.274048 2.32994 0
M  V30 10199 C 971.56 -0.599776 1.63336 0
M  V30 10200 O 972.736 -0.503963 1.94993 0
M  V30 10201 C 969.801 -0.541804 3.4244 0
M  V30 10202 C 968.862 0.356262 4.27819 0
M  V30 10203 C 968.095 -0.420747 5.32039 0
M  V30 10204 O 968.318 -1.65247 5.45939 0
M  V30 10205 O 967.252 0.205101 6.0155 0
M  V30 10206 H 971.078 1.09846 2.83139 0
M  V30 10207 H 968.663 0.601111 1.36774 0
M  V30 10208 H 970.545 -1.00544 4.0923 0
M  V30 10209 H 969.22 -1.34328 2.94513 0
M  V30 10210 H 968.127 0.867726 3.63897 0
M  V30 10211 H 969.46 1.1225 4.79229 0
M  V30 10212 N 971.112 -1.45937 0.595003 0
M  V30 10213 C 972.337 -2.07207 0.0894416 0
M  V30 10214 C 972.762 -1.43884 -1.21157 0
M  V30 10215 O 972.12 -0.526998 -1.73472 0
M  V30 10216 C 972.168 -3.60565 -0.0499828 0
M  V30 10217 O 971.272 -3.97364 -1.10342 0
M  V30 10218 H 970.613 -0.660471 0.0683627 0
M  V30 10219 H 973.143 -1.87386 0.82144 0
M  V30 10220 H 973.153 -4.0722 -0.252234 0
M  V30 10221 H 971.828 -4.06044 0.90006 0
M  V30 10222 H 970.405 -3.62401 -0.878645 0
M  V30 10223 N 972.59 -0.333456 -1.54032 0
M  V30 10224 C 973.836 0.266527 -2.01041 0
M  V30 10225 C 974.169 1.51006 -1.2211 0
M  V30 10226 O 973.444 1.92078 -0.306016 0
M  V30 10227 C 973.727 0.59078 -3.55221 0
M  V30 10228 C 973.58 -0.664143 -4.4487 0
M  V30 10229 C 974.899 1.40447 -4.17088 0
M  V30 10230 H 972.018 0.0953979 -0.7308 0
M  V30 10231 H 974.66 -0.451995 -1.84545 0
M  V30 10232 H 972.81 1.20292 -3.69408 0
M  V30 10233 H 974.482 -1.30227 -4.42537 0
M  V30 10234 H 972.725 -1.29106 -4.14143 0
M  V30 10235 H 973.396 -0.392664 -5.50602 0
M  V30 10236 H 975.872 0.886946 -4.06537 0
M  V30 10237 H 974.748 1.6001 -5.2506 0
M  V30 10238 H 975.009 2.40357 -3.71054 0
M  V30 10239 N 974.068 1.57479 -0.061844 0
M  V30 10240 C 974.998 2.15181 0.9066 0
M  V30 10241 C 975.979 1.07624 1.31724 0
M  V30 10242 O 977.164 1.35614 1.39006 0
M  V30 10243 C 974.294 2.70542 2.17771 0
M  V30 10244 C 973.248 3.83178 1.9068 0
M  V30 10245 C 972.574 4.25099 3.24337 0
M  V30 10246 C 973.874 5.07853 1.21994 0
M  V30 10247 H 975.568 2.96355 0.42594 0
M  V30 10248 H 973.114 1.42556 0.203435 0
M  V30 10249 H 975.067 3.09552 2.85929 0
M  V30 10250 H 973.791 1.86575 2.68062 0
M  V30 10251 H 972.45 3.44656 1.24931 0
M  V30 10252 H 972.098 3.38069 3.72449 0
M  V30 10253 H 971.798 5.01021 3.07005 0
M  V30 10254 H 973.322 4.66718 3.93709 0
M  V30 10255 H 974.736 5.44242 1.80204 0
M  V30 10256 H 973.133 5.88987 1.14954 0
M  V30 10257 H 974.203 4.84497 0.197536 0
M  V30 10258 N 975.546 -0.211634 1.56173 0
M  V30 10259 C 976.509 -1.24588 1.92381 0
M  V30 10260 C 977.509 -1.39297 0.803311 0
M  V30 10261 O 978.699 -1.37392 1.07094 0
M  V30 10262 C 975.831 -2.61807 2.18335 0
M  V30 10263 H 977.024 -0.936814 2.84893 0
M  V30 10264 H 974.577 -0.452471 1.49607 0
M  V30 10265 H 975.312 -2.97795 1.28407 0
M  V30 10266 H 975.097 -2.52506 2.99972 0
M  V30 10267 H 976.587 -3.3642 2.4741 0
M  V30 10268 N 977.024 -1.50153 -0.478725 0
M  V30 10269 C 977.956 -1.64603 -1.59494 0
M  V30 10270 C 978.969 -0.527789 -1.54007 0
M  V30 10271 O 980.158 -0.80069 -1.59534 0
M  V30 10272 C 977.258 -1.60738 -2.98356 0
M  V30 10273 C 976.431 -2.88468 -3.28794 0
M  V30 10274 C 975.49 -2.77349 -4.47173 0
M  V30 10275 O 974.516 -3.51302 -4.47857 0
M  V30 10276 N 975.718 -1.9039 -5.4839 0
M  V30 10277 H 978.483 -2.6088 -1.47518 0
M  V30 10278 H 976.044 -1.47521 -0.667011 0
M  V30 10279 H 978.036 -1.50923 -3.75505 0
M  V30 10280 H 976.606 -0.722273 -3.04141 0
M  V30 10281 H 975.826 -3.12467 -2.40329 0
M  V30 10282 H 977.114 -3.73102 -3.45937 0
M  V30 10283 H 976.512 -1.29606 -5.50653 0
M  V30 10284 H 975.069 -1.86484 -6.24553 0
M  V30 10285 N 978.502 0.731368 -1.39602 0
M  V30 10286 C 979.434 1.85575 -1.34516 0
M  V30 10287 C 980.447 1.60818 -0.253287 0
M  V30 10288 O 981.636 1.70984 -0.512505 0
M  V30 10289 C 978.736 3.21673 -1.06676 0
M  V30 10290 C 977.909 3.73757 -2.27211 0
M  V30 10291 C 976.968 4.88426 -1.95773 0
M  V30 10292 O 975.994 5.01898 -2.68491 0
M  V30 10293 N 977.196 5.73065 -0.926083 0
M  V30 10294 H 979.961 1.90442 -2.31413 0
M  V30 10295 H 977.522 0.912258 -1.33752 0
M  V30 10296 H 979.514 3.95959 -0.836577 0
M  V30 10297 H 978.084 3.12052 -0.185003 0
M  V30 10298 H 977.304 2.90781 -2.66158 0
M  V30 10299 H 978.592 4.05289 -3.07601 0
M  V30 10300 H 977.99 5.64774 -0.323497 0
M  V30 10301 H 976.547 6.47403 -0.755795 0
M  V30 10302 N 979.98 1.24838 0.961938 0
M  V30 10303 C 981.257 0.99939 1.68141 0
M  V30 10304 C 981.637 -0.476588 2.0565 0
M  V30 10305 O 980.985 -1.45224 1.76415 0
M  V30 10306 C 981.195 1.92797 2.90913 0
M  V30 10307 C 982.543 2.20219 3.63027 0
M  V30 10308 O 983.567 1.90496 3.00981 0
M  V30 10309 O 982.426 2.70725 4.74731 0
M  V30 10310 H 979.52 0.37842 0.735342 0
M  V30 10311 H 982.066 1.35961 1.01551 0
M  V30 10312 H 980.838 2.92492 2.59931 0
M  V30 10313 H 980.461 1.57127 3.65235 0
M  V30 10314 N 981.458 -1.16348 1.06306 0
M  V30 10315 C 982.735 -1.829 0.69331 0
M  V30 10316 C 983.115 -1.94298 -0.82531 0
M  V30 10317 O 982.463 -1.48619 -1.73565 0
M  V30 10318 C 982.673 -3.1989 1.3954 0
M  V30 10319 C 984.021 -3.95662 1.54068 0
M  V30 10320 O 985.045 -3.29408 1.35532 0
M  V30 10321 O 983.904 -5.14422 1.84479 0
M  V30 10322 H 980.998 -0.789738 0.245445 0
M  V30 10323 H 983.544 -1.23549 1.16334 0
M  V30 10324 H 982.316 -3.06629 2.43093 0
M  V30 10325 H 981.939 -3.86918 0.915453 0
M  V30 10326 N 982.937 -0.845659 -1.3299 0
M  V30 10327 C 984.183 -0.454563 -1.98256 0
M  V30 10328 C 984.538 0.976983 -1.65749 0
M  V30 10329 O 983.831 1.67481 -0.930631 0
M  V30 10330 C 984.025 -0.6201 -3.51979 0
M  V30 10331 C 983.854 -2.06619 -3.99423 0
M  V30 10332 C 982.624 -2.70283 -4.26937 0
M  V30 10333 C 984.822 -3.03573 -4.15148 0
M  V30 10334 N 982.804 -4.05896 -4.60567 0
M  V30 10335 C 984.175 -4.24149 -4.52214 0
M  V30 10336 C 986.23 -2.99888 -3.97457 0
M  V30 10337 C 984.933 -5.41527 -4.73435 0
M  V30 10338 C 986.959 -4.16502 -4.19858 0
M  V30 10339 C 986.321 -5.35835 -4.57231 0
M  V30 10340 H 982.42 -0.214896 -0.751893 0
M  V30 10341 H 985.004 -1.09515 -1.6098 0
M  V30 10342 H 983.175 -0.00926528 -3.88399 0
M  V30 10343 H 984.907 -0.199782 -4.04207 0
M  V30 10344 H 981.662 -2.21377 -4.18676 0
M  V30 10345 H 982.086 -4.75824 -4.81581 0
M  V30 10346 H 986.728 -2.08753 -3.67671 0
M  V30 10347 H 984.446 -6.332 -5.02079 0
M  V30 10348 H 988.032 -4.15075 -4.07681 0
M  V30 10349 H 986.912 -6.24568 -4.74219 0
M  V30 10350 N 984.415 1.45619 -0.602734 0
M  V30 10351 C 985.64 2.07157 -0.100429 0
M  V30 10352 C 986.065 1.44524 1.20393 0
M  V30 10353 O 985.423 0.536191 1.7319 0
M  V30 10354 C 985.471 3.60587 0.0308604 0
M  V30 10355 O 984.575 3.97944 1.08234 0
M  V30 10356 H 983.916 0.6601 -0.0718643 0
M  V30 10357 H 986.446 1.86948 -0.831366 0
M  V30 10358 H 986.456 4.07348 0.230634 0
M  V30 10359 H 985.131 4.05561 -0.921581 0
M  V30 10360 H 983.708 3.62862 0.859414 0
M  V30 10361 N 985.893 0.34162 1.53853 0
M  V30 10362 C 987.121 -0.256929 2.05299 0
M  V30 10363 C 987.536 -1.44366 1.21671 0
M  V30 10364 O 986.893 -1.80758 0.251584 0
M  V30 10365 C 986.944 -0.673854 3.55164 0
M  V30 10366 O 986.665 0.465687 4.35618 0
M  V30 10367 C 988.166 -1.33332 4.22773 0
M  V30 10368 H 985.386 -0.0499445 0.669139 0
M  V30 10369 H 987.93 0.493048 1.98467 0
M  V30 10370 H 986.085 -1.37378 3.62224 0
M  V30 10371 H 986.499 0.133723 5.2433 0
M  V30 10372 H 987.973 -1.57582 5.29029 0
M  V30 10373 H 988.45 -2.28628 3.75001 0
M  V30 10374 H 989.056 -0.675489 4.19901 0
M  V30 10375 N 987.371 -1.57444 0.0701946 0
M  V30 10376 C 988.619 -1.93047 -0.598106 0
M  V30 10377 C 988.94 -0.950841 -1.70247 0
M  V30 10378 O 988.21 0.00127177 -1.959 0
M  V30 10379 H 986.79 -0.712648 -0.223924 0
M  V30 10380 H 989.452 -1.94481 0.127674 0
M  V30 10381 H 988.548 -2.94807 -1.02445 0
M  V30 10382 N 988.849 0.203349 -1.56283 0
M  V30 10383 C 990.097 0.923183 -1.79782 0
M  V30 10384 C 990.418 1.84134 -0.64185 0
M  V30 10385 O 989.688 1.92922 0.340292 0
M  V30 10386 H 988.268 0.343881 -0.66314 0
M  V30 10387 H 990.93 0.210837 -1.93756 0
M  V30 10388 H 990.026 1.51921 -2.72629 0
M  V30 10389 N 990.327 1.50405 0.470755 0
M  V30 10390 C 991.259 1.65447 1.58619 0
M  V30 10391 C 992.272 0.535949 1.53725 0
M  V30 10392 O 993.461 0.80914 1.59107 0
M  V30 10393 C 990.561 1.62318 2.975 0
M  V30 10394 C 989.734 2.90207 3.27259 0
M  V30 10395 C 988.793 2.79717 4.45696 0
M  V30 10396 O 987.819 3.53672 4.45987 0
M  V30 10397 N 989.021 1.93296 5.47373 0
M  V30 10398 H 991.786 2.61659 1.46132 0
M  V30 10399 H 989.347 1.47873 0.659178 0
M  V30 10400 H 991.339 1.52912 3.747 0
M  V30 10401 H 989.909 0.738392 3.03754 0
M  V30 10402 H 989.129 3.13737 2.38669 0
M  V30 10403 H 990.417 3.74931 3.43953 0
M  V30 10404 H 989.815 1.32524 5.49958 0
M  V30 10405 H 988.372 1.89793 6.23556 0
M  V30 10406 N 991.805 -0.723954 1.39988 0
M  V30 10407 C 993.051 -1.48591 1.38017 0
M  V30 10408 C 993.384 -1.94189 -0.0203522 0
M  V30 10409 O 992.659 -1.67572 -0.987422 0
M  V30 10410 C 992.942 -2.71786 2.36229 0
M  V30 10411 C 992.795 -2.32136 3.8527 0
M  V30 10412 C 994.114 -3.73921 2.32102 0
M  V30 10413 H 991.233 -0.538993 0.502648 0
M  V30 10414 H 993.875 -0.826908 1.71062 0
M  V30 10415 H 992.025 -3.28015 2.0818 0
M  V30 10416 H 993.697 -1.81454 4.24113 0
M  V30 10417 H 991.94 -1.64234 4.01509 0
M  V30 10418 H 992.611 -3.20406 4.49493 0
M  V30 10419 H 995.087 -3.27303 2.56928 0
M  V30 10420 H 993.963 -4.5777 3.02882 0
M  V30 10421 H 994.224 -4.21627 1.32979 0
M  V30 10422 N 993.283 -1.25346 -0.955304 0
M  V30 10423 C 994.508 -1.12892 -1.73983 0
M  V30 10424 C 994.933 0.313455 -1.8547 0
M  V30 10425 O 994.291 1.22706 -1.33465 0
M  V30 10426 C 994.339 -1.78729 -3.1319 0
M  V30 10427 O 993.443 -1.06648 -3.98372 0
M  V30 10428 H 992.784 -0.394178 -0.534341 0
M  V30 10429 H 995.314 -1.65897 -1.19747 0
M  V30 10430 H 995.324 -1.84987 -3.63653 0
M  V30 10431 H 993.999 -2.83669 -3.04146 0
M  V30 10432 H 992.576 -1.08266 -3.56837 0
M  V30 10433 N 994.761 1.15782 -1.06922 0
M  V30 10434 C 996.177 1.38454 -0.793896 0
M  V30 10435 C 996.377 1.92238 0.603875 0
M  V30 10436 O 995.433 2.1253 1.36335 0
M  V30 10437 C 996.746 2.3595 -1.86408 0
M  V30 10438 C 998.294 2.49622 -1.88833 0
M  V30 10439 C 998.769 3.50406 -2.94923 0
M  V30 10440 N 1000.26 3.57938 -2.93997 0
M  V30 10441 C 1001 4.35728 -3.72731 0
M  V30 10442 N 1000.49 5.16888 -4.61301 0
M  V30 10443 N 1002.28 4.30774 -3.61096 0
M  V30 10444 H 994.435 0.792101 -1.97077 0
M  V30 10445 H 996.698 0.410779 -0.85438 0
M  V30 10446 H 996.404 2.03537 -2.86819 0
M  V30 10447 H 996.278 3.35677 -1.72049 0
M  V30 10448 H 998.665 2.81335 -0.890759 0
M  V30 10449 H 998.746 1.49909 -2.0727 0
M  V30 10450 H 998.39 3.19429 -3.94877 0
M  V30 10451 H 998.32 4.49864 -2.73734 0
M  V30 10452 H 1000.81 3.00007 -2.29791 0
M  V30 10453 H 1001.12 5.73477 -5.18019 0
M  V30 10454 H 999.469 5.16209 -4.65353 0
M  V30 10455 H 1002.66 3.66432 -2.91282 0
M  V30 10456 H 1002.83 4.91151 -4.22699 0
M  V30 10457 N 996.239 0.8527 1.3254 0
M  V30 10458 C 997.202 0.300959 2.27215 0
M  V30 10459 C 998.202 -0.538235 1.51525 0
M  V30 10460 O 999.392 -0.350027 1.70647 0
M  V30 10461 C 996.524 -0.574428 3.36025 0
M  V30 10462 H 997.717 1.13655 2.77529 0
M  V30 10463 H 995.27 0.626878 1.43178 0
M  V30 10464 H 996.005 -1.43191 2.90976 0
M  V30 10465 H 995.79 0.0262265 3.92091 0
M  V30 10466 H 997.28 -0.9533 4.06573 0
M  V30 10467 N 997.718 -1.45297 0.610449 0
M  V30 10468 C 998.943 -2.07101 0.111414 0
M  V30 10469 C 999.368 -1.45161 -1.19625 0
M  V30 10470 O 998.726 -0.545368 -1.72903 0
M  V30 10471 C 998.774 -3.60598 -0.0117372 0
M  V30 10472 O 997.878 -3.98512 -1.06122 0
M  V30 10473 H 997.219 -0.659709 0.075364 0
M  V30 10474 H 999.749 -1.86504 0.841269 0
M  V30 10475 H 999.759 -4.07464 -0.209028 0
M  V30 10476 H 998.434 -4.05067 0.943076 0
M  V30 10477 H 997.011 -3.63312 -0.840158 0
M  V30 10478 N 999.196 -0.349774 -1.5367 0
M  V30 10479 C 1000.13 0.538575 -2.22782 0
M  V30 10480 C 1001.14 1.05896 -1.23652 0
M  V30 10481 O 1002.33 0.968045 -1.4997 0
M  V30 10482 C 999.43 1.7546 -2.89943 0
M  V30 10483 C 998.603 1.36843 -4.15443 0
M  V30 10484 C 997.662 2.4448 -4.65957 0
M  V30 10485 O 996.688 2.07528 -5.3002 0
M  V30 10486 N 997.89 3.75829 -4.42417 0
M  V30 10487 H 1000.65 -0.053348 -2.99653 0
M  V30 10488 H 998.216 -0.174193 -1.6096 0
M  V30 10489 H 1000.21 2.46911 -3.20651 0
M  V30 10490 H 998.778 2.25375 -2.16622 0
M  V30 10491 H 997.998 0.484421 -3.91212 0
M  V30 10492 H 999.286 1.0865 -4.97064 0
M  V30 10493 H 998.684 4.08635 -3.91196 0
M  V30 10494 H 997.241 4.43432 -4.77714 0
M  V30 10495 N 1000.67 1.57404 -0.0785433 0
M  V30 10496 C 1001.92 1.94031 0.589896 0
M  V30 10497 C 1002.25 0.959297 1.68852 0
M  V30 10498 O 1001.53 -0.0103978 1.94497 0
M  V30 10499 C 1001.81 3.40886 1.16055 0
M  V30 10500 C 1001.66 4.49748 0.0681072 0
M  V30 10501 C 1002.98 3.88699 2.06401 0
M  V30 10502 H 1000.1 0.70556 0.212965 0
M  V30 10503 H 1002.74 1.89439 -0.145886 0
M  V30 10504 H 1000.89 3.4493 1.78761 0
M  V30 10505 H 1002.57 4.57823 -0.565318 0
M  V30 10506 H 1000.81 4.29625 -0.600431 0
M  V30 10507 H 1001.48 5.49658 0.507906 0
M  V30 10508 H 1003.96 3.86703 1.53622 0
M  V30 10509 H 1002.83 4.92052 2.43261 0
M  V30 10510 H 1003.09 3.2703 2.97496 0
M  V30 10511 N 1002.15 -0.195058 1.56388 0
M  V30 10512 C 1003.38 -0.935745 1.85091 0
M  V30 10513 C 1003.8 -1.76061 0.662118 0
M  V30 10514 O 1003.16 -1.77076 -0.389083 0
M  V30 10515 C 1003.21 -1.80764 3.1202 0
M  V30 10516 O 1002.31 -2.90643 2.92575 0
M  V30 10517 H 1001.65 -0.26351 0.609474 0
M  V30 10518 H 1004.18 -0.200362 2.03617 0
M  V30 10519 H 1004.19 -2.21229 3.42815 0
M  V30 10520 H 1002.87 -1.20157 3.98165 0
M  V30 10521 H 1001.44 -2.53934 2.73079 0
M  V30 10522 N 1003.63 -1.50653 -0.462772 0
M  V30 10523 C 1004.58 -1.70661 -1.58043 0
M  V30 10524 C 1005.57 -0.572533 -1.59432 0
M  V30 10525 O 1006.78 -0.753257 -1.63481 0
M  V30 10526 H 1003.15 -0.538805 -0.524588 0
M  V30 10527 H 1005.12 -2.64399 -1.38332 0
M  V30 10528 C 1003.87 -1.82558 -2.95919 0
M  V30 10529 H 1003.2 -2.69216 -2.95572 0
M  V30 10530 H 1004.64 -2.0058 -3.73556 0
M  V30 10531 C 1003.09 -0.57916 -3.31885 0
M  V30 10532 O 1003.62 0.277888 -4.00738 0
M  V30 10533 N 1001.83 -0.430723 -2.8739 0
M  V30 10534 H 1001.38 -1.1292 -2.31531 0
M  V30 10535 H 1001.34 0.402061 -3.11819 0
M  V30 10536 N 1005.11 0.71652 -1.4037 0
M  V30 10537 C 1006.33 1.51069 -1.42102 0
M  V30 10538 C 1006.76 1.88087 -0.0222387 0
M  V30 10539 O 1006.12 1.53204 0.969448 0
M  V30 10540 C 1006.16 2.76307 -2.31704 0
M  V30 10541 O 1005.27 3.72975 -1.75964 0
M  V30 10542 H 1004.61 0.455502 -0.483129 0
M  V30 10543 H 1007.14 0.882514 -1.84588 0
M  V30 10544 H 1007.15 3.24846 -2.46859 0
M  V30 10545 H 1005.82 2.48698 -3.3335 0
M  V30 10546 H 1004.4 3.31818 -1.70151 0
M  V30 10547 N 1006.59 1.25851 0.948643 0
M  V30 10548 C 1007.86 1.01717 1.67072 0
M  V30 10549 C 1008.24 -0.454749 2.06144 0
M  V30 10550 O 1007.59 -1.43345 1.77945 0
M  V30 10551 C 1007.8 1.95872 2.88852 0
M  V30 10552 C 1009.15 2.24057 3.60671 0
M  V30 10553 O 1010.17 1.93678 2.98944 0
M  V30 10554 O 1009.03 2.75745 4.71833 0
M  V30 10555 H 1006.13 0.386198 0.731287 0
M  V30 10556 H 1008.67 1.37031 1.00104 0
M  V30 10557 H 1007.44 2.95233 2.56814 0
M  V30 10558 H 1007.07 1.60992 3.63548 0
M  V30 10559 N 1008.06 -1.15214 1.07534 0
M  V30 10560 C 1009.01 -2.18022 0.667108 0
M  V30 10561 C 1010 -1.57911 -0.308714 0
M  V30 10562 O 1011.19 -1.76578 -0.122147 0
M  V30 10563 C 1008.32 -3.43232 0.0684348 0
M  V30 10564 C 1007.41 -4.10393 1.06951 0
M  V30 10565 N 1007.8 -4.53013 2.24973 0
M  V30 10566 C 1006.09 -4.36758 0.903262 0
M  V30 10567 C 1006.8 -5.05118 2.88498 0
M  V30 10568 N 1005.77 -4.98777 2.16153 0
M  V30 10569 H 1009.57 -2.48706 1.56597 0
M  V30 10570 H 1007.09 -1.31801 0.948796 0
M  V30 10571 H 1009.08 -4.16197 -0.241934 0
M  V30 10572 H 1007.74 -3.14031 -0.825525 0
M  V30 10573 H 1008.76 -4.4634 2.6268 0
M  V30 10574 H 1005.43 -4.17453 0.0623543 0
M  V30 10575 H 1006.82 -5.48039 3.8872 0
M  V30 10576 N 1009.54 -0.859717 -1.32086 0
M  V30 10577 C 1010.49 -0.306042 -2.28762 0
M  V30 10578 C 1011.46 0.589801 -1.55276 0
M  V30 10579 O 1012.64 0.523633 -1.83474 0
M  V30 10580 C 1009.78 0.495256 -3.41528 0
M  V30 10581 C 1008.9 -0.426947 -4.29885 0
M  V30 10582 C 1008.03 0.387474 -5.29785 0
M  V30 10583 C 1007.07 -0.531807 -6.09785 0
M  V30 10584 N 1006.21 0.245741 -7.0167 0
M  V30 10585 H 1011.05 -1.1357 -2.7551 0
M  V30 10586 H 1008.59 -0.571468 -1.35546 0
M  V30 10587 H 1010.54 0.97551 -4.05635 0
M  V30 10588 H 1009.17 1.28969 -2.95917 0
M  V30 10589 H 1008.23 -1.02561 -3.66313 0
M  V30 10590 H 1009.54 -1.13226 -4.85779 0
M  V30 10591 H 1008.69 0.930677 -5.99519 0
M  V30 10592 H 1007.43 1.12612 -4.74521 0
M  V30 10593 H 1006.44 -1.08685 -5.3895 0
M  V30 10594 H 1007.66 -1.26915 -6.67135 0
M  V30 10595 H 1005.61 0.967391 -6.48828 0
M  V30 10596 H 1005.52 -0.400432 -7.54939 0
M  V30 10597 H 1006.79 0.770507 -7.75683 0
M  V30 10598 N 1011.02 1.44971 -0.618145 0
M  V30 10599 C 1012.25 2.07039 -0.122395 0
M  V30 10600 C 1012.67 1.45793 1.18853 0
M  V30 10601 O 1012.03 0.55453 1.72611 0
M  V30 10602 C 1012.08 3.60599 -0.0073864 0
M  V30 10603 O 1011.18 3.99069 1.04007 0
M  V30 10604 H 1010.52 0.6593 -0.0788615 0
M  V30 10605 H 1013.05 1.86055 -0.851147 0
M  V30 10606 H 1013.06 4.07569 0.187417 0
M  V30 10607 H 1011.74 4.04561 -0.964544 0
M  V30 10608 H 1010.31 3.63753 0.820879 0
M  V30 10609 N 1012.5 0.357919 1.53482 0
M  V30 10610 C 1013.72 -0.237769 2.06033 0
M  V30 10611 C 1014.15 -1.42292 1.23023 0
M  V30 10612 O 1013.51 -1.79604 0.247427 0
M  V30 10613 C 1013.55 -0.616806 3.55286 0
M  V30 10614 O 1012.66 -1.71503 3.75047 0
M  V30 10615 H 1012 -0.0364322 0.663 0
M  V30 10616 H 1014.53 0.516301 1.97979 0
M  V30 10617 H 1014.54 -0.88996 3.98175 0
M  V30 10618 H 1013.21 0.249825 4.15149 0
M  V30 10619 H 1011.79 -1.43803 3.44057 0
M  V30 10620 N 1013.98 -1.5736 0.0868897 0
M  V30 10621 C 1014.92 -2.13571 -0.874996 0
M  V30 10622 C 1015.89 -1.0521 -1.2853 0
M  V30 10623 O 1017.08 -1.32954 -1.3685 0
M  V30 10624 C 1014.22 -2.71386 -2.13175 0
M  V30 10625 C 1013.33 -3.93953 -1.77272 0
M  V30 10626 C 1012.47 -4.3996 -2.97671 0
M  V30 10627 C 1011.51 -5.55137 -2.57856 0
M  V30 10628 N 1010.64 -5.96034 -3.71064 0
M  V30 10629 H 1015.48 -2.95453 -0.388789 0
M  V30 10630 H 1013.02 -1.45992 -0.180242 0
M  V30 10631 H 1014.98 -3.03022 -2.86764 0
M  V30 10632 H 1013.61 -1.92245 -2.5931 0
M  V30 10633 H 1012.66 -3.68683 -0.936845 0
M  V30 10634 H 1013.97 -4.77565 -1.43989 0
M  V30 10635 H 1013.13 -4.73337 -3.79522 0
M  V30 10636 H 1011.86 -3.55232 -3.34158 0
M  V30 10637 H 1010.87 -5.21397 -1.7443 0
M  V30 10638 H 1012.09 -6.41608 -2.22522 0
M  V30 10639 H 1010.04 -5.14253 -4.07284 0
M  V30 10640 H 1009.96 -6.74423 -3.41599 0
M  V30 10641 H 1011.23 -6.34038 -4.53449 0
M  V30 10642 N 1015.45 0.186762 -1.56489 0
M  V30 10643 C 1016.68 0.925916 -1.85584 0
M  V30 10644 C 1017.1 1.75708 -0.671446 0
M  V30 10645 O 1016.46 1.7728 0.379687 0
M  V30 10646 C 1016.51 1.79107 -3.12975 0
M  V30 10647 O 1015.61 2.89088 -2.94112 0
M  V30 10648 H 1014.96 0.260275 -0.610863 0
M  V30 10649 H 1017.49 0.189561 -2.0372 0
M  V30 10650 H 1017.5 2.19408 -3.43983 0
M  V30 10651 H 1016.17 1.18044 -3.98796 0
M  V30 10652 H 1014.75 2.52482 -2.74422 0
M  V30 10653 N 1016.93 1.50896 0.454776 0
M  V30 10654 C 1018.34 1.55372 1.0352 0
M  V30 10655 C 1018.69 0.366822 1.9274 0
M  V30 10656 O 1017.82 -0.518444 2.10098 0
M  V30 10657 C 1018.41 2.81574 1.88418 0
M  V30 10658 C 1016.97 2.88679 2.4154 0
M  V30 10659 C 1016.12 2.49847 1.20298 0
M  V30 10660 H 1019.07 1.56924 0.236729 0
M  V30 10661 H 1019.09 2.64352 2.73676 0
M  V30 10662 H 1018.6 3.67941 1.23455 0
M  V30 10663 H 1016.71 2.06702 3.10008 0
M  V30 10664 H 1016.82 3.91944 2.7553 0
M  V30 10665 H 1015.18 2.02651 1.54288 0
M  V30 10666 H 1015.97 3.3854 0.569723 0
M  V30 10667 N 1018.41 -0.709066 1.40748 0
M  V30 10668 C 1019.32 -1.85314 1.43861 0
M  V30 10669 C 1020.34 -1.70832 0.330539 0
M  V30 10670 O 1021.51 -1.92983 0.576152 0
M  V30 10671 C 1018.58 -3.21174 1.30568 0
M  V30 10672 C 1017.64 -3.47863 2.51574 0
M  V30 10673 C 1016.87 -4.77241 2.38906 0
M  V30 10674 O 1017.09 -5.52791 1.40636 0
M  V30 10675 O 1016.03 -5.04413 3.28407 0
M  V30 10676 H 1019.85 -1.85644 2.40354 0
M  V30 10677 H 1017.44 -0.860352 1.2214 0
M  V30 10678 H 1019.32 -4.02313 1.25388 0
M  V30 10679 H 1018 -3.21557 0.371841 0
M  V30 10680 H 1016.9 -2.66708 2.62331 0
M  V30 10681 H 1018.24 -3.52283 3.43741 0
M  V30 10682 N 1019.89 -1.26353 -0.941956 0
M  V30 10683 C 1021.11 -1.14731 -1.72776 0
M  V30 10684 C 1021.54 0.293766 -1.85792 0
M  V30 10685 O 1020.9 1.21284 -1.34759 0
M  V30 10686 C 1020.95 -1.82041 -3.11277 0
M  V30 10687 O 1020.05 -1.10867 -3.97218 0
M  V30 10688 H 1019.39 -0.399823 -0.53013 0
M  V30 10689 H 1021.92 -1.67157 -1.17981 0
M  V30 10690 H 1021.93 -1.88834 -3.61671 0
M  V30 10691 H 1020.61 -2.86879 -3.0112 0
M  V30 10692 H 1019.18 -1.12044 -3.55669 0
M  V30 10693 N 1021.37 1.14642 -1.08144 0
M  V30 10694 C 1022.64 1.81774 -0.72232 0
M  V30 10695 C 1023.02 1.95587 0.794294 0
M  V30 10696 O 1022.37 1.51361 1.71178 0
M  V30 10697 C 1022.58 3.1763 -1.44611 0
M  V30 10698 C 1023.93 3.93161 -1.60343 0
M  V30 10699 O 1024.95 3.2721 -1.40755 0
M  V30 10700 O 1023.81 5.11422 -1.9264 0
M  V30 10701 H 1020.91 0.785733 -0.257978 0
M  V30 10702 H 1023.45 1.21683 -1.18285 0
M  V30 10703 H 1022.23 3.02723 -2.4794 0
M  V30 10704 H 1021.85 3.85412 -0.976892 0
M  V30 10705 N 1022.85 0.866709 1.31628 0
M  V30 10706 C 1024.09 0.486046 1.97507 0
M  V30 10707 C 1024.45 -0.95049 1.67283 0
M  V30 10708 O 1023.74 -1.65979 0.957158 0
M  V30 10709 C 1023.93 0.676018 3.50948 0
M  V30 10710 C 1023.76 2.12947 3.96086 0
M  V30 10711 C 1022.53 2.77041 4.22583 0
M  V30 10712 C 1024.73 3.10139 4.10266 0
M  V30 10713 N 1022.71 4.13172 4.54051 0
M  V30 10714 C 1024.08 4.3129 4.45409 0
M  V30 10715 C 1026.14 3.06173 3.92635 0
M  V30 10716 C 1024.84 5.4899 4.6476 0
M  V30 10717 C 1026.87 4.23128 4.13178 0
M  V30 10718 C 1026.23 5.43041 4.48649 0
M  V30 10719 H 1022.33 0.226831 0.748379 0
M  V30 10720 H 1024.91 1.12063 1.59217 0
M  V30 10721 H 1023.08 0.071055 3.88335 0
M  V30 10722 H 1024.82 0.264062 4.03838 0
M  V30 10723 H 1021.57 2.28009 4.15101 0
M  V30 10724 H 1021.99 4.83426 4.7395 0
M  V30 10725 H 1026.64 2.14576 3.64303 0
M  V30 10726 H 1024.35 6.41108 4.91942 0
M  V30 10727 H 1027.94 4.21509 4.01026 0
M  V30 10728 H 1026.82 6.32034 4.64223 0
M  V30 10729 N 1024.32 -1.44642 0.625825 0
M  V30 10730 C 1025.55 -2.06971 0.133373 0
M  V30 10731 C 1025.97 -1.46421 -1.18078 0
M  V30 10732 O 1025.33 -0.563676 -1.72315 0
M  V30 10733 C 1025.38 -3.6059 0.0265097 0
M  V30 10734 O 1024.48 -3.99615 -1.01889 0
M  V30 10735 H 1023.82 -0.658873 0.0823568 0
M  V30 10736 H 1026.35 -1.85601 0.861002 0
M  V30 10737 H 1026.36 -4.07663 -0.1658 0
M  V30 10738 H 1025.04 -4.04043 0.985986 0
M  V30 10739 H 1023.62 -3.64183 -0.801577 0
M  V30 10740 N 1025.8 -0.366053 -1.5329 0
M  V30 10741 C 1027.03 0.226839 -2.06156 0
M  V30 10742 C 1027.45 1.41637 -1.23776 0
M  V30 10743 O 1026.81 1.7947 -0.256948 0
M  V30 10744 C 1026.86 0.597956 -3.55608 0
M  V30 10745 O 1025.96 1.69512 -3.75951 0
M  V30 10746 H 1025.3 0.0329156 -0.663184 0
M  V30 10747 H 1027.83 -0.526793 -1.97702 0
M  V30 10748 H 1027.84 0.868831 -3.98642 0
M  V30 10749 H 1026.52 -0.271838 -4.15011 0
M  V30 10750 H 1025.09 1.41976 -3.44815 0
M  V30 10751 N 1027.28 1.57312 -0.0952337 0
M  V30 10752 C 1028.53 1.95449 0.563155 0
M  V30 10753 C 1028.88 0.976396 1.65784 0
M  V30 10754 O 1028.17 0.00241533 1.916 0
M  V30 10755 C 1028.37 3.37937 1.16332 0
M  V30 10756 C 1028.2 4.49517 0.128308 0
M  V30 10757 C 1026.97 5.04437 -0.295252 0
M  V30 10758 C 1029.16 5.10257 -0.643571 0
M  V30 10759 N 1027.15 5.99573 -1.31852 0
M  V30 10760 C 1028.52 6.01113 -1.51867 0
M  V30 10761 C 1030.57 4.92996 -0.697074 0
M  V30 10762 C 1029.28 6.76559 -2.44256 0
M  V30 10763 C 1031.3 5.69104 -1.60857 0
M  V30 10764 C 1030.66 6.59626 -2.47129 0
M  V30 10765 H 1026.76 0.761844 0.176402 0
M  V30 10766 H 1029.35 1.93886 -0.177833 0
M  V30 10767 H 1027.52 3.40193 1.87413 0
M  V30 10768 H 1029.25 3.63253 1.78408 0
M  V30 10769 H 1026 4.7351 0.0925153 0
M  V30 10770 H 1026.43 6.51843 -1.82836 0
M  V30 10771 H 1031.07 4.22777 -0.0442422 0
M  V30 10772 H 1028.79 7.4604 -3.10564 0
M  V30 10773 H 1032.37 5.57761 -1.65511 0
M  V30 10774 H 1031.25 7.17487 -3.16515 0
M  V30 10775 N 1028.76 -0.17846 1.56586 0
M  V30 10776 C 1029.67 -1.24115 1.9908 0
M  V30 10777 C 1030.68 -1.48854 0.901031 0
M  V30 10778 O 1031.86 -1.61142 1.2081 0
M  V30 10779 C 1028.92 -2.56187 2.33601 0
M  V30 10780 C 1027.99 -2.39373 3.56369 0
M  V30 10781 C 1027.22 -3.65147 3.89234 0
M  V30 10782 O 1027.44 -4.70024 3.23162 0
M  V30 10783 O 1026.38 -3.59683 4.82609 0
M  V30 10784 H 1030.2 -0.910482 2.89731 0
M  V30 10785 H 1027.79 -0.38477 1.4436 0
M  V30 10786 H 1029.67 -3.34109 2.56806 0
M  V30 10787 H 1028.34 -2.88847 1.46113 0
M  V30 10788 H 1027.25 -1.59506 3.38391 0
M  V30 10789 H 1028.58 -2.1164 4.44375 0
M  V30 10790 N 1030.24 -1.51135 -0.446768 0
M  V30 10791 C 1031.2 -1.71187 -1.52406 0
M  V30 10792 C 1032.2 -0.582037 -1.49897 0
M  V30 10793 O 1033.39 -0.849452 -1.52085 0
M  V30 10794 C 1030.52 -1.75962 -2.91976 0
M  V30 10795 H 1031.71 -2.67324 -1.35934 0
M  V30 10796 H 1029.27 -1.40982 -0.674813 0
M  V30 10797 H 1030 -0.816065 -3.13864 0
M  V30 10798 H 1029.79 -2.58065 -2.95203 0
M  V30 10799 H 1031.28 -1.93347 -3.70144 0
M  V30 10800 N 1031.71 0.701592 -1.41122 0
M  V30 10801 C 1032.62 1.84548 -1.44841 0
M  V30 10802 C 1033.64 1.70654 -0.339594 0
M  V30 10803 O 1034.82 1.92675 -0.586378 0
M  V30 10804 C 1031.88 3.20477 -1.3227 0
M  V30 10805 C 1030.94 3.46524 -2.53415 0
M  V30 10806 C 1030.17 4.75968 -2.41434 0
M  V30 10807 O 1030.4 5.52037 -1.43566 0
M  V30 10808 O 1029.33 5.02664 -3.31078 0
M  V30 10809 H 1033.16 1.84367 -2.41335 0
M  V30 10810 H 1030.74 0.853863 -1.22595 0
M  V30 10811 H 1032.62 4.01642 -1.2752 0
M  V30 10812 H 1031.3 3.21355 -0.388889 0
M  V30 10813 H 1030.21 2.65313 -2.63742 0
M  V30 10814 H 1031.54 3.50455 -3.45604 0
M  V30 10815 N 1033.19 1.2685 0.935242 0
M  V30 10816 C 1034.44 1.12522 1.67878 0
M  V30 10817 C 1034.76 -0.330894 1.92172 0
M  V30 10818 O 1034.03 -1.23259 1.52263 0
M  V30 10819 H 1032.61 0.413418 0.622169 0
M  V30 10820 H 1035.27 1.59267 1.12339 0
M  V30 10821 H 1034.37 1.64853 2.65009 0
M  V30 10822 N 1034.67 -1.14067 1.0875 0
M  V30 10823 C 1035.9 -1.89582 0.841038 0
M  V30 10824 C 1036.32 -1.78226 -0.601436 0
M  V30 10825 O 1035.68 -1.12491 -1.42181 0
M  V30 10826 C 1035.73 -3.37415 1.27213 0
M  V30 10827 O 1034.83 -4.10191 0.426246 0
M  V30 10828 H 1034.17 -0.589716 0.305173 0
M  V30 10829 H 1036.7 -1.44364 1.44984 0
M  V30 10830 H 1036.71 -3.88234 1.25451 0
M  V30 10831 H 1035.39 -3.44999 2.32268 0
M  V30 10832 H 1033.96 -3.69429 0.507585 0
M  V30 10833 N 1036.15 -0.873678 -1.31166 0
M  V30 10834 C 1037.39 -0.496513 -1.97247 0
M  V30 10835 C 1037.75 0.941605 -1.67784 0
M  V30 10836 O 1037.04 1.65469 -0.965947 0
M  V30 10837 C 1037.24 -0.69462 -3.50585 0
M  V30 10838 C 1037.07 -2.15044 -3.94951 0
M  V30 10839 C 1035.84 -2.79278 -4.21108 0
M  V30 10840 C 1038.03 -3.1231 -4.08616 0
M  V30 10841 N 1036.02 -4.15574 -4.51853 0
M  V30 10842 C 1037.39 -4.33646 -4.43115 0
M  V30 10843 C 1039.44 -3.08251 -3.91006 0
M  V30 10844 C 1038.14 -5.51447 -4.61842 0
M  V30 10845 C 1040.17 -4.25314 -4.10929 0
M  V30 10846 C 1039.53 -5.45413 -4.45763 0
M  V30 10847 H 1035.63 -0.230797 -0.747166 0
M  V30 10848 H 1038.22 -1.12905 -1.58621 0
M  V30 10849 H 1036.39 -0.0916484 -3.88292 0
M  V30 10850 H 1038.12 -0.285475 -4.03692 0
M  V30 10851 H 1034.87 -2.30207 -4.13886 0
M  V30 10852 H 1035.3 -4.85932 -4.7138 0
M  V30 10853 H 1039.94 -2.16505 -3.6316 0
M  V30 10854 H 1037.66 -6.43707 -4.88535 0
M  V30 10855 H 1041.24 -4.2363 -3.98785 0
M  V30 10856 H 1040.12 -6.34487 -4.60865 0
M  V30 10857 N 1037.63 1.44308 -0.633487 0
M  V30 10858 C 1038.54 2.34492 0.0711787 0
M  V30 10859 C 1039.55 1.52754 0.8332 0
M  V30 10860 O 1040.73 1.85475 0.784929 0
M  V30 10861 C 1037.79 3.30767 1.03895 0
M  V30 10862 C 1036.85 4.28412 0.276043 0
M  V30 10863 C 1036.09 5.20087 1.19772 0
M  V30 10864 O 1036.31 5.15743 2.4365 0
M  V30 10865 O 1035.24 5.98038 0.680764 0
M  V30 10866 H 1039.07 2.96203 -0.67063 0
M  V30 10867 H 1036.66 1.4412 -0.393678 0
M  V30 10868 H 1038.54 3.90021 1.59566 0
M  V30 10869 H 1037.21 2.71586 1.76133 0
M  V30 10870 H 1036.12 3.72696 -0.32377 0
M  V30 10871 H 1037.45 4.9052 -0.406364 0
M  V30 10872 N 1039.1 0.374177 1.53094 0
M  V30 10873 C 1040.04 -0.503065 2.23611 0
M  V30 10874 C 1041.05 -1.03915 1.25321 0
M  V30 10875 O 1042.24 -0.944064 1.51492 0
M  V30 10876 C 1039.34 -1.70825 2.92698 0
M  V30 10877 C 1038.51 -1.30217 4.17567 0
M  V30 10878 C 1037.57 -2.37036 4.69788 0
M  V30 10879 O 1036.6 -1.99069 5.33254 0
M  V30 10880 N 1037.8 -3.68743 4.4834 0
M  V30 10881 H 1040.56 0.101013 2.9953 0
M  V30 10882 H 1038.12 0.199778 1.60663 0
M  V30 10883 H 1040.12 -2.41779 3.24538 0
M  V30 10884 H 1038.69 -2.219 2.2018 0
M  V30 10885 H 1037.91 -0.422121 3.91933 0
M  V30 10886 H 1039.19 -1.00728 4.9873 0
M  V30 10887 H 1038.59 -4.0236 3.97647 0
M  V30 10888 H 1037.15 -4.35776 4.84709 0
M  V30 10889 N 1040.58 -1.57259 0.103575 0
M  V30 10890 C 1041.83 -1.94272 -0.557024 0
M  V30 10891 C 1042.15 -0.986739 -1.68192 0
M  V30 10892 O 1041.42 -0.0402818 -1.95859 0
M  V30 10893 H 1040 -0.717237 -0.208757 0
M  V30 10894 H 1042.66 -1.94167 0.168898 0
M  V30 10895 H 1041.76 -2.96914 -0.961691 0
M  V30 10896 N 1042.06 0.170153 -1.56679 0
M  V30 10897 C 1043.31 0.883211 -1.83224 0
M  V30 10898 C 1043.66 1.7982 -0.68429 0
M  V30 10899 O 1042.95 1.88922 0.319204 0
M  V30 10900 C 1043.15 1.71402 -3.13618 0
M  V30 10901 C 1042.98 0.880967 -4.40986 0
M  V30 10902 C 1041.75 0.555594 -5.02236 0
M  V30 10903 C 1043.95 0.221986 -5.13821 0
M  V30 10904 N 1041.93 -0.293479 -6.13198 0
M  V30 10905 C 1043.3 -0.488202 -6.18075 0
M  V30 10906 C 1045.35 0.14027 -4.97702 0
M  V30 10907 C 1044.06 -1.27236 -7.07957 0
M  V30 10908 C 1046.08 -0.630556 -5.88029 0
M  V30 10909 C 1045.44 -1.3291 -6.91747 0
M  V30 10910 H 1041.54 0.301769 -0.721429 0
M  V30 10911 H 1044.13 0.150113 -1.9412 0
M  V30 10912 H 1042.3 2.41853 -3.03911 0
M  V30 10913 H 1044.03 2.36847 -3.28155 0
M  V30 10914 H 1040.79 0.885952 -4.6524 0
M  V30 10915 H 1041.21 -0.708359 -6.73284 0
M  V30 10916 H 1045.85 0.665983 -4.17522 0
M  V30 10917 H 1043.57 -1.80941 -7.87582 0
M  V30 10918 H 1047.16 -0.695468 -5.77628 0
M  V30 10919 H 1046.04 -1.916 -7.60433 0
M  V30 10920 N 1043.54 1.5137 0.438746 0
M  V30 10921 C 1044.47 1.68774 1.55074 0
M  V30 10922 C 1045.48 0.568436 1.52554 0
M  V30 10923 O 1046.67 0.842707 1.57355 0
M  V30 10924 C 1043.77 1.68592 2.9399 0
M  V30 10925 C 1042.95 2.97084 3.2103 0
M  V30 10926 C 1042 2.89108 4.39663 0
M  V30 10927 O 1041.03 3.63052 4.38385 0
M  V30 10928 N 1042.23 2.04863 5.4315 0
M  V30 10929 H 1045 2.647 1.40549 0
M  V30 10930 H 1042.56 1.49238 0.627663 0
M  V30 10931 H 1044.55 1.60826 3.71372 0
M  V30 10932 H 1043.12 0.802657 3.02119 0
M  V30 10933 H 1042.34 3.18729 2.3196 0
M  V30 10934 H 1043.63 3.82143 3.35923 0
M  V30 10935 H 1043.03 1.4416 5.47023 0
M  V30 10936 H 1041.58 2.02977 6.1939 0
M  V30 10937 N 1045.02 -0.694098 1.41492 0
M  V30 10938 C 1045.93 -1.83778 1.45818 0
M  V30 10939 C 1046.94 -1.70471 0.348639 0
M  V30 10940 O 1048.12 -1.92361 0.596588 0
M  V30 10941 C 1045.18 -3.19771 1.33967 0
M  V30 10942 C 1044.24 -3.45175 2.5525 0
M  V30 10943 C 1043.48 -4.74681 2.43955 0
M  V30 10944 O 1043.7 -5.51268 1.46491 0
M  V30 10945 O 1042.63 -5.00901 3.33739 0
M  V30 10946 H 1046.46 -1.83084 2.42309 0
M  V30 10947 H 1044.05 -0.847349 1.23046 0
M  V30 10948 H 1045.93 -4.00961 1.29648 0
M  V30 10949 H 1044.6 -3.21145 0.405926 0
M  V30 10950 H 1043.51 -2.6391 2.65146 0
M  V30 10951 H 1044.84 -3.48617 3.47458 0
M  V30 10952 N 1046.49 -1.27344 -0.928501 0
M  V30 10953 C 1047.91 -1.12361 -1.49103 0
M  V30 10954 C 1048.26 0.291667 -1.9402 0
M  V30 10955 O 1047.38 1.18449 -1.81104 0
M  V30 10956 C 1047.98 -2.03358 -2.70981 0
M  V30 10957 C 1046.54 -1.92483 -3.23461 0
M  V30 10958 C 1045.68 -1.95961 -1.962 0
M  V30 10959 H 1048.63 -1.40249 -0.742689 0
M  V30 10960 H 1048.65 -1.58892 -3.45736 0
M  V30 10961 H 1048.17 -3.06356 -2.38259 0
M  V30 10962 H 1046.27 -0.924676 -3.60944 0
M  V30 10963 H 1046.38 -2.78682 -3.89709 0
M  V30 10964 H 1044.74 -1.40175 -2.12657 0
M  V30 10965 H 1045.53 -3.00612 -1.65793 0
M  V30 10966 N 1047.97 1.13488 -1.09353 0
M  V30 10967 C 1049.2 1.89133 -0.85108 0
M  V30 10968 C 1049.62 1.78542 0.591976 0
M  V30 10969 O 1048.98 1.13243 1.41583 0
M  V30 10970 C 1049.03 3.36736 -1.29001 0
M  V30 10971 O 1048.13 4.09959 -0.447993 0
M  V30 10972 H 1047.47 0.58809 -0.308296 0
M  V30 10973 H 1050 1.43593 -1.45747 0
M  V30 10974 H 1050.01 3.87564 -1.27508 0
M  V30 10975 H 1048.69 3.43762 -2.34095 0
M  V30 10976 H 1047.27 3.69155 -0.52717 0
M  V30 10977 N 1049.45 0.880621 1.30701 0
M  V30 10978 C 1050.68 0.510909 2.01009 0
M  V30 10979 C 1051.1 -0.892041 1.65603 0
M  V30 10980 O 1050.46 -1.59045 0.870309 0
M  V30 10981 C 1050.51 0.687759 3.53981 0
M  V30 10982 O 1049.61 -0.268275 4.11526 0
M  V30 10983 H 1048.95 0.201864 0.632572 0
M  V30 10984 H 1051.48 1.18697 1.6665 0
M  V30 10985 H 1051.49 0.585095 4.03783 0
M  V30 10986 H 1050.17 1.71068 3.79089 0
M  V30 10987 H 1048.74 -0.119673 3.72708 0
M  V30 10988 N 1050.93 -1.4397 0.641131 0
M  V30 10989 C 1051.86 -2.28997 -0.0963315 0
M  V30 10990 C 1052.87 -1.4184 -0.799071 0
M  V30 10991 O 1054.06 -1.65896 -0.658846 0
M  V30 10992 C 1051.16 -3.18465 -1.15903 0
M  V30 10993 C 1050.34 -4.34093 -0.536828 0
M  V30 10994 C 1049.4 -5.04522 -1.4948 0
M  V30 10995 O 1048.42 -5.60202 -1.00807 0
M  V30 10996 N 1049.62 -5.06899 -2.82901 0
M  V30 10997 H 1052.39 -2.9293 0.633422 0
M  V30 10998 H 1049.95 -1.54527 0.48302 0
M  V30 10999 H 1051.94 -3.62445 -1.80044 0
M  V30 11000 H 1050.51 -2.56214 -1.79089 0
M  V30 11001 H 1049.73 -3.9318 0.283414 0
M  V30 11002 H 1051.02 -5.08698 -0.101966 0
M  V30 11003 H 1050.42 -4.63012 -3.25017 0
M  V30 11004 H 1048.97 -5.54637 -3.42376 0
M  V30 11005 N 1052.41 -0.382291 -1.52893 0
M  V30 11006 C 1053.32 0.463745 -2.29971 0
M  V30 11007 C 1054.33 1.07777 -1.36602 0
M  V30 11008 O 1055.51 1.0851 -1.69669 0
M  V30 11009 C 1052.57 1.57938 -3.08637 0
M  V30 11010 C 1051.64 0.991182 -4.17701 0
M  V30 11011 C 1050.87 2.05365 -4.92606 0
M  V30 11012 O 1051.09 3.26757 -4.67532 0
M  V30 11013 O 1050.03 1.67487 -5.78128 0
M  V30 11014 H 1053.85 -0.163962 -3.03257 0
M  V30 11015 H 1051.44 -0.146199 -1.48683 0
M  V30 11016 H 1053.32 2.22765 -3.57706 0
M  V30 11017 H 1051.99 2.19218 -2.3817 0
M  V30 11018 H 1050.9 0.306364 -3.72843 0
M  V30 11019 H 1052.23 0.422699 -4.90382 0
M  V30 11020 N 1053.89 1.57202 -0.111913 0
M  V30 11021 C 1055.3 1.82039 0.414591 0
M  V30 11022 C 1055.65 1.02863 1.67074 0
M  V30 11023 O 1054.77 0.263068 2.14795 0
M  V30 11024 C 1055.37 3.3019 0.758953 0
M  V30 11025 C 1053.93 3.55732 1.23012 0
M  V30 11026 C 1053.07 2.76301 0.235226 0
M  V30 11027 H 1056.02 1.55078 -0.337142 0
M  V30 11028 H 1056.05 3.44431 1.61701 0
M  V30 11029 H 1055.56 3.87788 -0.155473 0
M  V30 11030 H 1053.66 3.03483 2.16169 0
M  V30 11031 H 1053.77 4.64333 1.18034 0
M  V30 11032 H 1052.14 2.44287 0.720822 0
M  V30 11033 H 1052.92 3.36655 -0.672173 0
M  V30 11034 N 1055.36 -0.161842 1.56767 0
M  V30 11035 C 1056.77 -0.723385 1.72116 0
M  V30 11036 C 1057.13 -1.82355 0.723961 0
M  V30 11037 O 1056.25 -2.16107 -0.112643 0
M  V30 11038 C 1056.85 -1.31895 3.12072 0
M  V30 11039 C 1055.4 -1.82722 3.29074 0
M  V30 11040 C 1054.55 -0.709863 2.6806 0
M  V30 11041 H 1057.5 0.0636647 1.58572 0
M  V30 11042 H 1057.52 -2.18871 3.11249 0
M  V30 11043 H 1057.04 -0.51801 3.84627 0
M  V30 11044 H 1055.14 -2.6543 2.61491 0
M  V30 11045 H 1055.25 -1.96614 4.36898 0
M  V30 11046 H 1053.61 -1.13273 2.28126 0
M  V30 11047 H 1054.4 0.0793884 3.43208 0
M  V30 11048 N 1056.84 -1.516 -0.430713 0
M  V30 11049 C 1058.25 -1.57 -1.01035 0
M  V30 11050 C 1058.6 -0.397439 -1.92132 0
M  V30 11051 O 1057.73 0.484954 -2.10896 0
M  V30 11052 C 1058.32 -2.84536 -1.83915 0
M  V30 11053 C 1056.88 -2.92485 -2.36917 0
M  V30 11054 C 1056.03 -2.5173 -1.16308 0
M  V30 11055 H 1058.98 -1.57281 -0.211734 0
M  V30 11056 H 1059 -2.68672 -2.69435 0
M  V30 11057 H 1058.51 -3.69858 -1.17586 0
M  V30 11058 H 1056.61 -2.11608 -3.0668 0
M  V30 11059 H 1056.73 -3.96277 -2.6926 0
M  V30 11060 H 1055.09 -2.05079 -1.51045 0
M  V30 11061 H 1055.87 -3.39403 -0.515793 0
M  V30 11062 N 1058.32 0.686584 -1.41858 0
M  V30 11063 C 1059.6 1.44176 -1.32185 0
M  V30 11064 C 1059.98 2.11049 0.046362 0
M  V30 11065 O 1059.32 2.02365 1.06117 0
M  V30 11066 C 1059.53 2.45385 -2.48168 0
M  V30 11067 C 1060.88 3.10375 -2.89746 0
M  V30 11068 O 1061.91 2.55711 -2.47973 0
M  V30 11069 O 1060.77 4.09404 -3.62009 0
M  V30 11070 H 1057.86 0.642513 -0.520678 0
M  V30 11071 H 1060.41 0.716303 -1.53841 0
M  V30 11072 H 1059.18 1.94687 -3.3943 0
M  V30 11073 H 1058.8 3.25428 -2.28435 0
M  V30 11074 N 1059.8 1.27835 0.921735 0
M  V30 11075 C 1061.05 1.14296 1.66676 0
M  V30 11076 C 1061.37 -0.310493 1.92512 0
M  V30 11077 O 1060.64 -1.21637 1.53562 0
M  V30 11078 H 1059.22 0.419994 0.617749 0
M  V30 11079 H 1061.88 1.60449 1.10644 0
M  V30 11080 H 1060.97 1.67654 2.63246 0
M  V30 11081 N 1061.28 -1.12907 1.09954 0
M  V30 11082 C 1062.5 -1.88138 0.860905 0
M  V30 11083 C 1062.92 -1.79402 -0.588256 0
M  V30 11084 O 1062.28 -1.16442 -1.40526 0
M  V30 11085 C 1062.33 -3.37537 1.29425 0
M  V30 11086 O 1062.05 -3.46056 2.68658 0
M  V30 11087 C 1063.55 -4.29721 1.08879 0
M  V30 11088 H 1060.77 -0.595437 0.309347 0
M  V30 11089 H 1063.31 -1.42894 1.46292 0
M  V30 11090 H 1061.47 -3.80344 0.736009 0
M  V30 11091 H 1061.88 -4.38969 2.87065 0
M  V30 11092 H 1063.36 -5.32854 1.4412 0
M  V30 11093 H 1063.83 -4.39192 0.0270053 0
M  V30 11094 H 1064.44 -3.9269 1.63325 0
M  V30 11095 N 1062.75 -0.88754 -1.30232 0
M  V30 11096 C 1064.17 -0.581904 -1.48614 0
M  V30 11097 C 1064.37 0.879711 -1.81282 0
M  V30 11098 O 1063.43 1.66076 -1.90198 0
M  V30 11099 C 1064.74 -1.49726 -2.60773 0
M  V30 11100 C 1066.29 -1.50117 -2.74653 0
M  V30 11101 C 1066.76 -2.40251 -3.89927 0
M  V30 11102 N 1068.25 -2.38229 -3.97242 0
M  V30 11103 C 1068.99 -3.04682 -4.85754 0
M  V30 11104 N 1068.48 -3.80369 -5.79043 0
M  V30 11105 N 1070.28 -2.93901 -4.79144 0
M  V30 11106 H 1062.43 -1.83304 -1.073 0
M  V30 11107 H 1064.69 -0.78477 -0.531826 0
M  V30 11108 H 1064.4 -2.5381 -2.43462 0
M  V30 11109 H 1064.27 -1.20874 -3.57308 0
M  V30 11110 H 1066.66 -0.467832 -2.91368 0
M  V30 11111 H 1066.74 -1.83001 -1.7873 0
M  V30 11112 H 1066.38 -3.43671 -3.73969 0
M  V30 11113 H 1066.31 -2.04682 -4.85194 0
M  V30 11114 H 1068.8 -1.83229 -3.30508 0
M  V30 11115 H 1069.12 -4.28159 -6.4335 0
M  V30 11116 H 1067.46 -3.84477 -5.78967 0
M  V30 11117 H 1070.65 -2.34296 -4.05245 0
M  V30 11118 H 1070.83 -3.45967 -5.47915 0
M  V30 11119 N 1064.23 1.43628 -0.648757 0
M  V30 11120 C 1065.16 2.33478 0.0320785 0
M  V30 11121 C 1066.14 1.49217 0.816605 0
M  V30 11122 O 1067.33 1.77892 0.778974 0
M  V30 11123 C 1064.46 3.32525 1.00222 0
M  V30 11124 C 1063.41 4.2674 0.328119 0
M  V30 11125 C 1062.74 5.15791 1.4094 0
M  V30 11126 C 1064.04 5.16493 -0.776701 0
M  V30 11127 H 1065.73 2.90657 -0.718257 0
M  V30 11128 H 1063.28 1.3976 -0.346852 0
M  V30 11129 H 1065.23 3.94277 1.4874 0
M  V30 11130 H 1063.96 2.73593 1.78366 0
M  V30 11131 H 1062.61 3.66346 -0.136569 0
M  V30 11132 H 1062.26 4.53201 2.18216 0
M  V30 11133 H 1061.96 5.79645 0.963631 0
M  V30 11134 H 1063.49 5.80416 1.89603 0
M  V30 11135 H 1064.9 5.7208 -0.373878 0
M  V30 11136 H 1063.3 5.89043 -1.14667 0
M  V30 11137 H 1064.37 4.56448 -1.63654 0
M  V30 11138 N 1065.71 0.390394 1.52688 0
M  V30 11139 C 1066.67 -0.432149 2.25089 0
M  V30 11140 C 1067.67 -0.989296 1.26766 0
M  V30 11141 O 1068.86 -0.871126 1.50854 0
M  V30 11142 C 1066 -1.60642 3.00678 0
M  V30 11143 H 1067.19 0.201734 2.99221 0
M  V30 11144 H 1064.74 0.142531 1.55649 0
M  V30 11145 H 1065.48 -2.2777 2.3085 0
M  V30 11146 H 1065.26 -1.21361 3.72846 0
M  V30 11147 H 1066.75 -2.18873 3.55647 0
M  V30 11148 N 1067.19 -1.57141 0.120249 0
M  V30 11149 C 1068.41 -2.00017 -0.548454 0
M  V30 11150 C 1068.84 -0.999433 -1.59352 0
M  V30 11151 O 1068.2 0.0286978 -1.81277 0
M  V30 11152 C 1068.24 -3.41766 -1.15015 0
M  V30 11153 O 1067.35 -3.44589 -2.26566 0
M  V30 11154 H 1066.69 -0.649739 -0.136875 0
M  V30 11155 H 1069.22 -2.03529 0.209092 0
M  V30 11156 H 1069.23 -3.80001 -1.48537 0
M  V30 11157 H 1067.9 -4.14117 -0.384681 0
M  V30 11158 H 1066.48 -3.18174 -1.94473 0
M  V30 11159 N 1068.67 0.153526 -1.5685 0
M  V30 11160 C 1069.58 1.20932 -2.01029 0
M  V30 11161 C 1070.59 1.47401 -0.924598 0
M  V30 11162 O 1071.77 1.592 -1.23359 0
M  V30 11163 C 1068.83 2.52438 -2.37647 0
M  V30 11164 C 1067.89 2.33673 -3.60132 0
M  V30 11165 C 1067.13 3.58909 -3.94994 0
M  V30 11166 O 1067.35 4.64823 -3.30599 0
M  V30 11167 O 1066.28 3.5196 -4.8827 0
M  V30 11168 H 1070.11 0.864273 -2.91143 0
M  V30 11169 H 1067.7 0.361755 -1.44954 0
M  V30 11170 H 1069.58 3.29981 -2.62088 0
M  V30 11171 H 1068.25 2.86486 -1.5069 0
M  V30 11172 H 1067.16 1.54102 -3.40886 0
M  V30 11173 H 1068.49 2.04544 -4.47686 0
M  V30 11174 N 1070.14 1.51827 0.422667 0
M  V30 11175 C 1071.37 1.68803 1.19117 0
M  V30 11176 C 1071.78 0.391228 1.85111 0
M  V30 11177 O 1071.13 -0.64148 1.72136 0
M  V30 11178 C 1071.19 2.75767 2.30636 0
M  V30 11179 C 1070.85 4.17929 1.8489 0
M  V30 11180 C 1071.85 5.02223 1.34416 0
M  V30 11181 C 1069.53 4.641 1.92136 0
M  V30 11182 C 1071.53 6.30756 0.917925 0
M  V30 11183 C 1069.21 5.92626 1.49123 0
M  V30 11184 C 1070.21 6.75782 0.990352 0
M  V30 11185 O 1069.9 8.01902 0.566386 0
M  V30 11186 H 1069.63 0.569303 0.364514 0
M  V30 11187 H 1072.19 1.9909 0.505208 0
M  V30 11188 H 1070.42 2.40827 3.02555 0
M  V30 11189 H 1072.11 2.81476 2.92448 0
M  V30 11190 H 1072.87 4.67749 1.28202 0
M  V30 11191 H 1068.75 3.99488 2.30066 0
M  V30 11192 H 1072.29 6.95612 0.52628 0
M  V30 11193 H 1068.19 6.26611 1.55012 0
M  V30 11194 H 1068.96 8.15579 0.690918 0
M  V30 11195 N 1071.62 -0.679052 1.4222 0
M  V30 11196 C 1072.57 -1.81398 1.45594 0
M  V30 11197 C 1073.56 -1.66112 0.332127 0
M  V30 11198 O 1074.77 -1.72772 0.504942 0
M  V30 11199 H 1071.15 -0.598045 0.455902 0
M  V30 11200 H 1073.12 -1.7567 2.41211 0
M  V30 11201 C 1071.87 -3.19525 1.37109 0
M  V30 11202 H 1071.19 -3.31912 2.22878 0
M  V30 11203 H 1072.63 -3.98967 1.43531 0
M  V30 11204 C 1071.09 -3.36792 0.0853593 0
M  V30 11205 O 1071.62 -3.92309 -0.863532 0
M  V30 11206 N 1069.82 -2.906 0.00389229 0
M  V30 11207 H 1069.37 -2.45607 0.776846 0
M  V30 11208 H 1069.33 -3.0253 -0.855742 0
M  V30 11209 N 1073.1 -1.28322 -0.914942 0
M  V30 11210 C 1074.35 -1.16587 -1.6667 0
M  V30 11211 C 1074.7 0.282961 -1.90308 0
M  V30 11212 O 1073.99 1.20269 -1.49151 0
M  V30 11213 C 1074.19 -1.89663 -3.02924 0
M  V30 11214 C 1074.02 -3.41504 -2.92584 0
M  V30 11215 C 1072.79 -4.10841 -2.94173 0
M  V30 11216 C 1074.99 -4.37266 -2.70745 0
M  V30 11217 N 1072.97 -5.49157 -2.74409 0
M  V30 11218 C 1074.34 -5.62937 -2.59812 0
M  V30 11219 C 1076.39 -4.27207 -2.55732 0
M  V30 11220 C 1075.1 -6.79692 -2.35397 0
M  V30 11221 C 1077.12 -5.43697 -2.32697 0
M  V30 11222 C 1076.48 -6.6833 -2.22517 0
M  V30 11223 H 1072.58 -0.481552 -0.616142 0
M  V30 11224 H 1075.17 -1.61957 -1.08065 0
M  V30 11225 H 1073.34 -1.46729 -3.59618 0
M  V30 11226 H 1075.07 -1.70323 -3.67113 0
M  V30 11227 H 1071.83 -3.62412 -3.04884 0
M  V30 11228 H 1072.25 -6.21858 -2.67622 0
M  V30 11229 H 1076.89 -3.31557 -2.62354 0
M  V30 11230 H 1074.61 -7.75412 -2.27514 0
M  V30 11231 H 1078.2 -5.37802 -2.21947 0
M  V30 11232 H 1077.08 -7.56949 -2.04936 0
M  V30 11233 N 1074.58 1.12322 -1.10551 0
M  V30 11234 C 1075.83 1.83495 -0.846998 0
M  V30 11235 C 1076.15 1.8457 0.629205 0
M  V30 11236 O 1075.42 1.30968 1.45686 0
M  V30 11237 H 1074 0.679479 -0.310351 0
M  V30 11238 H 1076.66 1.36004 -1.39602 0
M  V30 11239 H 1075.76 2.87651 -1.21092 0
M  V30 11240 N 1076.06 0.894434 1.2976 0
M  V30 11241 C 1077.3 0.516646 1.95385 0
M  V30 11242 C 1077.63 -0.939141 1.70895 0
M  V30 11243 O 1076.9 -1.66153 1.03778 0
M  V30 11244 H 1075.48 0.188072 0.722937 0
M  V30 11245 H 1078.14 1.13958 1.58113 0
M  V30 11246 H 1077.23 0.694819 3.04267 0
M  V30 11247 N 1077.53 -1.43282 0.656365 0
M  V30 11248 C 1078.95 -1.85012 0.250475 0
M  V30 11249 C 1079.3 -1.54944 -1.20361 0
M  V30 11250 O 1078.42 -0.999983 -1.9191 0
M  V30 11251 C 1079.02 -3.35827 0.447815 0
M  V30 11252 C 1077.58 -3.76277 0.0962151 0
M  V30 11253 C 1076.72 -2.66988 0.749168 0
M  V30 11254 H 1079.67 -1.3339 0.85982 0
M  V30 11255 H 1079.69 -3.7927 -0.305726 0
M  V30 11256 H 1079.21 -3.5768 1.5062 0
M  V30 11257 H 1077.31 -3.60035 -0.959449 0
M  V30 11258 H 1077.42 -4.76227 0.523875 0
M  V30 11259 H 1075.78 -2.54048 0.18212 0
M  V30 11260 H 1076.57 -2.91669 1.81064 0
M  V30 11261 N 1079.01 -0.398486 -1.52479 0
M  V30 11262 C 1079.92 0.439328 -2.3045 0
M  V30 11263 C 1080.94 1.06322 -1.37738 0
M  V30 11264 O 1082.12 1.06704 -1.7081 0
M  V30 11265 C 1079.18 1.54655 -3.10294 0
M  V30 11266 C 1078.24 0.946824 -4.18729 0
M  V30 11267 C 1077.47 2.00129 -4.94757 0
M  V30 11268 O 1077.7 3.2178 -4.70971 0
M  V30 11269 O 1076.63 1.61345 -5.79872 0
M  V30 11270 H 1080.46 -0.196118 -3.03066 0
M  V30 11271 H 1078.04 -0.161961 -1.4852 0
M  V30 11272 H 1079.92 2.18958 -3.60049 0
M  V30 11273 H 1078.6 2.1668 -2.40482 0
M  V30 11274 H 1077.51 0.266802 -3.73147 0
M  V30 11275 H 1078.84 0.370664 -4.90802 0
M  V30 11276 N 1080.49 1.57075 -0.12858 0
M  V30 11277 C 1081.72 2.00305 0.537839 0
M  V30 11278 C 1082.14 1.00787 1.58819 0
M  V30 11279 O 1081.5 -0.0190839 1.8129 0
M  V30 11280 C 1081.55 3.42371 1.13201 0
M  V30 11281 O 1080.65 3.45786 2.24735 0
M  V30 11282 H 1079.99 0.650456 0.133428 0
M  V30 11283 H 1082.52 2.03415 -0.219882 0
M  V30 11284 H 1082.53 3.80783 1.4652 0
M  V30 11285 H 1081.21 4.14315 0.362713 0
M  V30 11286 H 1079.78 3.19201 1.92783 0
M  V30 11287 N 1081.97 -0.145205 1.5693 0
M  V30 11288 C 1083.19 -0.876386 1.87974 0
M  V30 11289 C 1083.62 -1.73866 0.717795 0
M  V30 11290 O 1082.98 -1.78224 -0.332551 0
M  V30 11291 C 1083.03 -1.70746 3.17613 0
M  V30 11292 O 1082.13 -2.81188 3.01674 0
M  V30 11293 H 1081.47 -0.243987 0.617549 0
M  V30 11294 H 1084 -0.135482 2.04151 0
M  V30 11295 H 1084.01 -2.1021 3.49679 0
M  V30 11296 H 1082.69 -1.07429 4.01786 0
M  V30 11297 H 1081.26 -2.45117 2.81019 0
M  V30 11298 N 1083.45 -1.52049 -0.414609 0
M  V30 11299 C 1084.72 -1.56397 -1.17471 0
M  V30 11300 C 1085.1 -0.34171 -2.08316 0
M  V30 11301 O 1084.45 0.6718 -2.18401 0
M  V30 11302 C 1084.66 -2.88983 -1.95678 0
M  V30 11303 C 1086.01 -3.41781 -2.51935 0
M  V30 11304 O 1087.03 -2.90686 -2.05865 0
M  V30 11305 O 1085.89 -4.30989 -3.36022 0
M  V30 11306 H 1082.99 -0.62974 -0.536056 0
M  V30 11307 H 1085.53 -1.64374 -0.421834 0
M  V30 11308 H 1084.31 -3.69392 -1.29094 0
M  V30 11309 H 1083.93 -2.84274 -2.77983 0
M  V30 11310 N 1084.93 0.6715 -1.42579 0
M  V30 11311 C 1085.87 1.78496 -1.46314 0
M  V30 11312 C 1086.84 1.63091 -0.314743 0
M  V30 11313 O 1088.03 1.83597 -0.519292 0
M  V30 11314 C 1085.17 3.16548 -1.37447 0
M  V30 11315 C 1084.28 3.43216 -2.62348 0
M  V30 11316 C 1083.42 4.71014 -2.456 0
M  V30 11317 C 1082.45 4.90728 -3.65859 0
M  V30 11318 N 1081.59 6.09769 -3.48032 0
M  V30 11319 H 1086.43 1.74638 -2.41466 0
M  V30 11320 H 1083.97 0.852491 -1.19879 0
M  V30 11321 H 1085.93 3.96329 -1.30303 0
M  V30 11322 H 1084.56 3.19522 -0.458891 0
M  V30 11323 H 1083.61 2.57664 -2.79846 0
M  V30 11324 H 1084.92 3.53675 -3.51732 0
M  V30 11325 H 1084.07 5.58892 -2.3606 0
M  V30 11326 H 1082.81 4.62843 -1.53712 0
M  V30 11327 H 1081.82 4.01291 -3.75827 0
M  V30 11328 H 1083.04 5.00741 -4.58732 0
M  V30 11329 H 1080.99 6.02765 -2.58864 0
M  V30 11330 H 1080.91 6.21104 -4.31005 0
M  V30 11331 H 1082.17 7.00317 -3.42311 0
M  V30 11332 N 1086.4 1.28806 0.908124 0
M  V30 11333 C 1087.65 1.16058 1.65454 0
M  V30 11334 C 1087.97 -0.290057 1.92831 0
M  V30 11335 O 1087.24 -1.20001 1.54843 0
M  V30 11336 H 1085.82 0.426522 0.61326 0
M  V30 11337 H 1088.48 1.61614 1.08936 0
M  V30 11338 H 1087.58 1.70437 2.61453 0
M  V30 11339 N 1087.88 -1.11734 1.11145 0
M  V30 11340 C 1089.16 -1.79795 0.770261 0
M  V30 11341 C 1089.54 -1.97624 -0.742158 0
M  V30 11342 O 1088.89 -1.55847 -1.67105 0
M  V30 11343 C 1089.1 -3.13684 1.52982 0
M  V30 11344 C 1090.44 -3.88771 1.70711 0
M  V30 11345 O 1091.47 -3.23363 1.49381 0
M  V30 11346 O 1090.33 -5.06134 2.06132 0
M  V30 11347 H 1087.42 -0.778617 0.27872 0
M  V30 11348 H 1089.97 -1.18504 1.2147 0
M  V30 11349 H 1088.74 -2.96043 2.55879 0
M  V30 11350 H 1088.36 -3.82687 1.07873 0
M  V30 11351 N 1089.36 -0.901303 -1.29284 0
M  V30 11352 C 1090.77 -0.576317 -1.77582 0
M  V30 11353 C 1091.12 0.908078 -1.73921 0
M  V30 11354 O 1090.25 1.71006 -1.32611 0
M  V30 11355 C 1090.84 -1.03938 -3.22463 0
M  V30 11356 C 1089.4 -0.765533 -3.68533 0
M  V30 11357 C 1088.55 -1.21318 -2.49354 0
M  V30 11358 H 1091.5 -1.08386 -1.15923 0
M  V30 11359 H 1091.52 -0.375367 -3.78644 0
M  V30 11360 H 1091.03 -2.11977 -3.25096 0
M  V30 11361 H 1089.13 0.302176 -3.71373 0
M  V30 11362 H 1089.25 -1.36454 -4.59257 0
M  V30 11363 H 1087.61 -0.632141 -2.46731 0
M  V30 11364 H 1088.39 -2.30165 -2.54714 0
M  V30 11365 N 1090.84 1.42931 -0.663954 0
M  V30 11366 C 1092.08 2.01683 -0.181738 0
M  V30 11367 C 1092.41 1.52437 1.20802 0
M  V30 11368 O 1091.67 0.71254 1.82267 0
M  V30 11369 C 1091.97 3.57072 -0.153163 0
M  V30 11370 C 1091.63 4.25706 -1.48612 0
M  V30 11371 C 1090.29 4.4417 -1.85111 0
M  V30 11372 C 1092.65 4.6448 -2.36448 0
M  V30 11373 C 1089.97 4.98677 -3.09092 0
M  V30 11374 C 1092.33 5.20362 -3.5973 0
M  V30 11375 C 1090.99 5.37041 -3.96412 0
M  V30 11376 H 1090.26 0.73801 -0.0665026 0
M  V30 11377 H 1092.91 1.71264 -0.856791 0
M  V30 11378 H 1091.21 3.87095 0.605372 0
M  V30 11379 H 1092.91 4.00299 0.236981 0
M  V30 11380 H 1089.5 4.11686 -1.19215 0
M  V30 11381 H 1093.68 4.49898 -2.09537 0
M  V30 11382 H 1088.94 5.09776 -3.37547 0
M  V30 11383 H 1093.11 5.49352 -4.28001 0
M  V30 11384 H 1090.74 5.79042 -4.92559 0
M  V30 11385 N 1092.32 0.406567 1.52266 0
M  V30 11386 C 1093.28 -0.408251 2.25535 0
M  V30 11387 C 1094.28 -0.975795 1.27808 0
M  V30 11388 O 1095.47 -0.855077 1.5177 0
M  V30 11389 C 1092.6 -1.57443 3.02365 0
M  V30 11390 H 1093.79 0.233459 2.9899 0
M  V30 11391 H 1091.35 0.159032 1.55489 0
M  V30 11392 H 1092.08 -2.25308 2.33252 0
M  V30 11393 H 1091.87 -1.17399 3.74112 0
M  V30 11394 H 1093.36 -2.15088 3.57948 0
M  V30 11395 N 1093.79 -1.57004 0.136909 0
M  V30 11396 C 1095.02 -2.00156 -0.523936 0
M  V30 11397 C 1095.44 -1.01688 -1.59075 0
M  V30 11398 O 1094.79 -0.0123678 -1.82496 0
M  V30 11399 C 1094.85 -3.4326 -1.13379 0
M  V30 11400 O 1094.57 -4.37963 -0.109598 0
M  V30 11401 C 1096.07 -4.01637 -1.87623 0
M  V30 11402 H 1093.29 -0.65681 -0.137263 0
M  V30 11403 H 1095.83 -2.03219 0.228522 0
M  V30 11404 H 1093.99 -3.4108 -1.83693 0
M  V30 11405 H 1094.4 -5.21555 -0.55503 0
M  V30 11406 H 1095.87 -5.03795 -2.25597 0
M  V30 11407 H 1096.35 -3.41781 -2.75831 0
M  V30 11408 H 1096.96 -4.07417 -1.22031 0
M  V30 11409 N 1095.27 0.136881 -1.57004 0
M  V30 11410 C 1096.2 1.17026 -2.02057 0
M  V30 11411 C 1097.18 1.44223 -0.901866 0
M  V30 11412 O 1098.37 1.54971 -1.17037 0
M  V30 11413 C 1095.5 2.50095 -2.40977 0
M  V30 11414 C 1094.45 2.37398 -3.56127 0
M  V30 11415 C 1093.78 3.75268 -3.80891 0
M  V30 11416 C 1095.08 1.84952 -4.88457 0
M  V30 11417 H 1096.77 0.795601 -2.88636 0
M  V30 11418 H 1094.32 0.381266 -1.38861 0
M  V30 11419 H 1096.27 3.22621 -2.71097 0
M  V30 11420 H 1095 2.89416 -1.51348 0
M  V30 11421 H 1093.65 1.67322 -3.26188 0
M  V30 11422 H 1093.3 4.12043 -2.88496 0
M  V30 11423 H 1093 3.67631 -4.5839 0
M  V30 11424 H 1094.53 4.49327 -4.13446 0
M  V30 11425 H 1095.94 2.4728 -5.17229 0
M  V30 11426 H 1094.34 1.88181 -5.69832 0
M  V30 11427 H 1095.41 0.805848 -4.78157 0
M  V30 11428 N 1096.75 1.52266 0.40654 0
M  V30 11429 C 1097.98 1.70598 1.17945 0
M  V30 11430 C 1098.4 0.415793 1.83447 0
M  V30 11431 O 1097.76 -0.626968 1.70114 0
M  V30 11432 C 1097.81 2.84449 2.21633 0
M  V30 11433 O 1096.91 2.50199 3.27833 0
M  V30 11434 H 1096.25 0.567837 0.344177 0
M  V30 11435 H 1098.78 1.98981 0.476211 0
M  V30 11436 H 1098.79 3.09436 2.65919 0
M  V30 11437 H 1097.47 3.78055 1.73341 0
M  V30 11438 H 1096.04 2.35892 2.88807 0
M  V30 11439 N 1098.23 -0.663929 1.42933 0
M  V30 11440 C 1099.19 -1.75899 1.46943 0
M  V30 11441 C 1100.19 -1.5682 0.355535 0
M  V30 11442 O 1101.38 -1.62914 0.616833 0
M  V30 11443 C 1098.51 -3.14657 1.31164 0
M  V30 11444 H 1099.71 -1.73727 2.44456 0
M  V30 11445 H 1097.26 -0.874587 1.2954 0
M  V30 11446 H 1097.99 -3.22447 0.346165 0
M  V30 11447 H 1097.78 -3.29909 2.11902 0
M  V30 11448 H 1099.27 -3.9453 1.36878 0
M  V30 11449 N 1099.71 -1.29285 -0.901281 0
M  V30 11450 C 1101.12 -1.07263 -1.18182 0
M  V30 11451 C 1101.32 0.177087 -2.0072 0
M  V30 11452 O 1100.38 0.875292 -2.36844 0
M  V30 11453 C 1101.69 -2.32717 -1.9043 0
M  V30 11454 C 1103.24 -2.3802 -2.03262 0
M  V30 11455 C 1103.71 -3.63273 -2.7892 0
M  V30 11456 N 1105.21 -3.63986 -2.86475 0
M  V30 11457 C 1105.94 -4.57585 -3.45549 0
M  V30 11458 N 1105.44 -5.61513 -4.05801 0
M  V30 11459 N 1107.23 -4.45157 -3.43208 0
M  V30 11460 H 1099.38 -2.09487 -0.350536 0
M  V30 11461 H 1101.64 -0.922647 -0.217778 0
M  V30 11462 H 1101.35 -3.23828 -1.37216 0
M  V30 11463 H 1101.22 -2.40102 -2.90913 0
M  V30 11464 H 1103.61 -1.47398 -2.55652 0
M  V30 11465 H 1103.69 -2.3462 -1.01916 0
M  V30 11466 H 1103.34 -4.54246 -2.27206 0
M  V30 11467 H 1103.27 -3.6393 -3.80608 0
M  V30 11468 H 1105.76 -2.8884 -2.43679 0
M  V30 11469 H 1106.07 -6.29058 -4.48894 0
M  V30 11470 H 1104.41 -5.65325 -4.04268 0
M  V30 11471 H 1107.61 -3.63158 -2.95354 0
M  V30 11472 H 1107.78 -5.18286 -3.88952 0
M  V30 11473 N 1101.18 1.11143 -1.11736 0
M  V30 11474 C 1102.6 1.64462 -0.883693 0
M  V30 11475 C 1102.95 1.87324 0.583448 0
M  V30 11476 O 1102.07 1.60975 1.44623 0
M  V30 11477 C 1102.67 2.98765 -1.59764 0
M  V30 11478 C 1101.23 3.4898 -1.41032 0
M  V30 11479 C 1100.37 2.23729 -1.63831 0
M  V30 11480 H 1103.32 0.947415 -1.27317 0
M  V30 11481 H 1103.34 3.65885 -1.04443 0
M  V30 11482 H 1102.86 2.82094 -2.66542 0
M  V30 11483 H 1100.96 3.7081 -0.364781 0
M  V30 11484 H 1101.07 4.27571 -2.16148 0
M  V30 11485 H 1099.43 2.31507 -1.06191 0
M  V30 11486 H 1100.22 2.09597 -2.7189 0
M  V30 11487 N 1102.66 0.908147 1.28804 0
M  V30 11488 C 1103.89 0.553431 1.9988 0
M  V30 11489 C 1104.31 -0.856714 1.67458 0
M  V30 11490 O 1103.67 -1.57163 0.903849 0
M  V30 11491 C 1103.72 0.762688 3.52442 0
M  V30 11492 O 1102.82 -0.180924 4.12003 0
M  V30 11493 H 1102.16 0.215237 0.628147 0
M  V30 11494 H 1104.69 1.22205 1.64095 0
M  V30 11495 H 1104.7 0.670612 4.02451 0
M  V30 11496 H 1103.38 1.79071 3.75375 0
M  V30 11497 H 1101.96 -0.0405897 3.72878 0
M  V30 11498 N 1104.14 -1.42577 0.671525 0
M  V30 11499 C 1105.37 -2.05924 0.200731 0
M  V30 11500 C 1105.78 -1.50434 -1.14083 0
M  V30 11501 O 1105.14 -0.642845 -1.70803 0
M  V30 11502 C 1105.19 -3.61289 0.123505 0
M  V30 11503 O 1104.91 -4.1472 1.41205 0
M  V30 11504 C 1106.41 -4.41743 -0.371178 0
M  V30 11505 H 1103.63 -0.663746 0.0983958 0
M  V30 11506 H 1106.18 -1.82771 0.917338 0
M  V30 11507 H 1104.33 -3.83565 -0.543769 0
M  V30 11508 H 1104.75 -5.0856 1.28325 0
M  V30 11509 H 1106.22 -5.50731 -0.374128 0
M  V30 11510 H 1106.7 -4.16092 -1.40585 0
M  V30 11511 H 1107.3 -4.24478 0.264244 0
M  V30 11512 N 1105.62 -0.414636 -1.52048 0
M  V30 11513 C 1106.55 0.443601 -2.24866 0
M  V30 11514 C 1107.56 1.00556 -1.28032 0
M  V30 11515 O 1108.75 0.903566 -1.53941 0
M  V30 11516 C 1105.85 1.63004 -2.97124 0
M  V30 11517 C 1105.03 1.191 -4.20873 0
M  V30 11518 C 1104.08 2.24497 -4.75907 0
M  V30 11519 O 1103.11 1.84861 -5.38345 0
M  V30 11520 N 1104.31 3.56727 -4.57959 0
M  V30 11521 H 1107.08 -0.180393 -2.99157 0
M  V30 11522 H 1104.64 -0.242305 -1.60077 0
M  V30 11523 H 1106.63 2.33089 -3.30835 0
M  V30 11524 H 1105.2 2.15984 -2.25986 0
M  V30 11525 H 1104.42 0.318059 -3.92915 0
M  V30 11526 H 1105.71 0.874699 -5.01225 0
M  V30 11527 H 1105.11 3.91675 -4.08175 0
M  V30 11528 H 1103.66 4.22772 -4.96092 0
M  V30 11529 N 1107.1 1.56929 -0.145233 0
M  V30 11530 C 1108.51 1.82877 0.375884 0
M  V30 11531 C 1108.86 1.06384 1.64854 0
M  V30 11532 O 1107.98 0.30857 2.14189 0
M  V30 11533 C 1108.58 3.31725 0.688744 0
M  V30 11534 C 1107.14 3.58261 1.15439 0
M  V30 11535 C 1106.28 2.76737 0.176565 0
M  V30 11536 H 1109.24 1.54328 -0.36996 0
M  V30 11537 H 1109.26 3.47784 1.54359 0
M  V30 11538 H 1108.77 3.87371 -0.237694 0
M  V30 11539 H 1106.87 3.08 2.09683 0
M  V30 11540 H 1106.98 4.66732 1.08158 0
M  V30 11541 H 1105.35 2.45761 0.668843 0
M  V30 11542 H 1106.13 3.35154 -0.743432 0
M  V30 11543 N 1108.58 -0.128553 1.57075 0
M  V30 11544 C 1109.99 -0.481794 1.52154 0
M  V30 11545 C 1110.19 -1.82381 0.856694 0
M  V30 11546 O 1109.25 -2.48725 0.434989 0
M  V30 11547 C 1110.56 -0.475091 2.96923 0
M  V30 11548 C 1112.11 -0.559315 3.07962 0
M  V30 11549 C 1112.58 -0.583095 4.54273 0
M  V30 11550 N 1114.07 -0.644803 4.5869 0
M  V30 11551 C 1114.81 -0.684493 5.693 0
M  V30 11552 N 1114.31 -0.682407 6.89431 0
M  V30 11553 N 1116.1 -0.726777 5.57382 0
M  V30 11554 H 1108.25 0.750894 1.98684 0
M  V30 11555 H 1110.51 0.27593 0.906955 0
M  V30 11556 H 1110.22 0.443157 3.48897 0
M  V30 11557 H 1110.09 -1.30637 3.53856 0
M  V30 11558 H 1112.48 -1.46798 2.55997 0
M  V30 11559 H 1112.56 0.299468 2.54041 0
M  V30 11560 H 1112.2 0.32149 5.06881 0
M  V30 11561 H 1112.13 -1.45863 5.05996 0
M  V30 11562 H 1114.63 -0.652967 3.72216 0
M  V30 11563 H 1114.94 -0.715051 7.69485 0
M  V30 11564 H 1113.28 -0.649984 6.91954 0
M  V30 11565 H 1116.47 -0.725704 4.6244 0
M  V30 11566 H 1116.65 -0.754242 6.43596 0
M  V30 11567 N 1110.05 -1.5248 -0.398459 0
M  V30 11568 C 1111.46 -1.59107 -0.976817 0
M  V30 11569 C 1111.82 -0.438104 -1.91246 0
M  V30 11570 O 1110.94 0.440111 -2.11877 0
M  V30 11571 C 1111.54 -2.88373 -1.77838 0
M  V30 11572 C 1110.09 -2.97445 -2.30659 0
M  V30 11573 C 1109.24 -2.5414 -1.10942 0
M  V30 11574 H 1112.19 -1.57695 -0.178324 0
M  V30 11575 H 1112.21 -2.74327 -2.63676 0
M  V30 11576 H 1111.73 -3.72269 -1.09714 0
M  V30 11577 H 1109.83 -2.18066 -3.02123 0
M  V30 11578 H 1109.94 -4.019 -2.60794 0
M  V30 11579 H 1108.3 -2.08237 -1.46661 0
M  V30 11580 H 1109.09 -3.40421 -0.443684 0
M  V30 11581 N 1111.53 0.65634 -1.43283 0
M  V30 11582 C 1112.81 1.41339 -1.35213 0
M  V30 11583 C 1113.19 2.111 0.00158494 0
M  V30 11584 O 1112.54 2.0457 1.018 0
M  V30 11585 C 1112.75 2.40066 -2.53317 0
M  V30 11586 C 1114.09 3.04159 -2.96264 0
M  V30 11587 O 1115.12 2.50393 -2.53341 0
M  V30 11588 O 1113.98 4.01633 -3.70612 0
M  V30 11589 H 1111.07 0.631325 -0.534189 0
M  V30 11590 H 1113.62 0.68351 -1.55326 0
M  V30 11591 H 1112.39 1.87444 -3.43483 0
M  V30 11592 H 1112.01 3.20509 -2.35287 0
M  V30 11593 N 1113.01 1.29761 0.894412 0
M  V30 11594 C 1114.23 1.21064 1.68399 0
M  V30 11595 C 1114.66 -0.224608 1.86754 0
M  V30 11596 O 1114.02 -1.16199 1.39167 0
M  V30 11597 C 1114.07 1.93468 3.04306 0
M  V30 11598 O 1113.17 1.25533 3.9283 0
M  V30 11599 H 1112.51 0.419223 0.514925 0
M  V30 11600 H 1115.04 1.71421 1.11696 0
M  V30 11601 H 1115.05 2.02127 3.54413 0
M  V30 11602 H 1113.73 2.97857 2.90265 0
M  V30 11603 H 1112.3 1.25168 3.51266 0
M  V30 11604 N 1114.49 -1.10549 1.12324 0
M  V30 11605 C 1115.73 -1.82941 0.889043 0
M  V30 11606 C 1116.09 -1.83483 -0.578935 0
M  V30 11607 O 1115.38 -1.28365 -1.42243 0
M  V30 11608 C 1115.58 -3.28997 1.39626 0
M  V30 11609 C 1115.4 -3.42683 2.91202 0
M  V30 11610 C 1114.17 -3.55164 3.59426 0
M  V30 11611 C 1116.37 -3.36187 3.89208 0
M  V30 11612 N 1114.35 -3.57414 4.99128 0
M  V30 11613 C 1115.73 -3.45168 5.15033 0
M  V30 11614 C 1117.78 -3.19778 3.81637 0
M  V30 11615 C 1116.48 -3.39431 6.34176 0
M  V30 11616 C 1118.51 -3.15362 5.003 0
M  V30 11617 C 1117.87 -3.24924 6.24983 0
M  V30 11618 H 1113.97 -0.684249 0.378585 0
M  V30 11619 H 1116.55 -1.32206 1.42932 0
M  V30 11620 H 1114.73 -3.78228 0.883051 0
M  V30 11621 H 1116.46 -3.89343 1.10425 0
M  V30 11622 H 1113.21 -3.5812 3.09914 0
M  V30 11623 H 1113.64 -3.62153 5.71991 0
M  V30 11624 H 1118.28 -3.11264 2.86137 0
M  V30 11625 H 1116 -3.46711 7.29943 0
M  V30 11626 H 1119.58 -3.03819 4.96171 0
M  V30 11627 H 1118.46 -3.21508 7.15264 0
M  V30 11628 N 1115.97 -0.914965 -1.28321 0
M  V30 11629 C 1117.21 -0.547665 -1.94538 0
M  V30 11630 C 1117.53 0.911834 -1.72368 0
M  V30 11631 O 1116.8 1.64481 -1.06408 0
M  V30 11632 H 1115.38 -0.199549 -0.719853 0
M  V30 11633 H 1118.05 -1.16459 -1.5628 0
M  V30 11634 H 1117.14 -0.743138 -3.03124 0
M  V30 11635 N 1117.44 1.42219 -0.679077 0
M  V30 11636 C 1118.35 2.346 -0.00345919 0
M  V30 11637 C 1119.37 1.55327 0.784181 0
M  V30 11638 O 1120.55 1.87878 0.725524 0
M  V30 11639 C 1117.61 3.33905 0.933194 0
M  V30 11640 C 1116.67 4.29073 0.139607 0
M  V30 11641 C 1115.9 5.23634 1.03165 0
M  V30 11642 O 1116.13 5.23234 2.27119 0
M  V30 11643 O 1115.06 5.99901 0.490159 0
M  V30 11644 H 1118.89 2.9392 -0.764525 0
M  V30 11645 H 1116.47 1.42794 -0.439329 0
M  V30 11646 H 1118.35 3.949 1.47077 0
M  V30 11647 H 1117.03 2.77052 1.67404 0
M  V30 11648 H 1115.94 3.71478 -0.442177 0
M  V30 11649 H 1117.27 4.88979 -0.562214 0
M  V30 11650 N 1118.92 0.422693 1.51826 0
M  V30 11651 C 1120.2 -0.20786 1.94492 0
M  V30 11652 C 1120.58 -1.61414 1.36047 0
M  V30 11653 O 1119.93 -2.21987 0.541657 0
M  V30 11654 C 1120.14 -0.200457 3.48424 0
M  V30 11655 C 1121.48 -0.413199 4.22585 0
M  V30 11656 O 1122.51 -0.27922 3.55104 0
M  V30 11657 O 1121.37 -0.678469 5.42272 0
M  V30 11658 H 1118.46 -0.137851 0.81543 0
M  V30 11659 H 1121.01 0.479617 1.62781 0
M  V30 11660 H 1119.78 0.783263 3.83381 0
M  V30 11661 H 1119.4 -0.931464 3.86535 0
M  V30 11662 N 1120.4 -1.5685 0.153553 0
M  V30 11663 C 1121.35 -2.18385 -0.800667 0
M  V30 11664 C 1122.34 -1.14272 -1.25053 0
M  V30 11665 O 1123.55 -1.32509 -1.21825 0
M  V30 11666 H 1119.92 -0.699352 -0.276425 0
M  V30 11667 H 1121.89 -2.97287 -0.257535 0
M  V30 11668 C 1120.64 -2.82497 -2.02708 0
M  V30 11669 H 1119.97 -3.62328 -1.68992 0
M  V30 11670 H 1121.41 -3.29047 -2.67403 0
M  V30 11671 C 1119.86 -1.81343 -2.8393 0
M  V30 11672 O 1120.39 -1.28793 -3.80493 0
M  V30 11673 N 1118.6 -1.50499 -2.48593 0
M  V30 11674 H 1118.15 -1.93425 -1.70131 0
M  V30 11675 H 1118.11 -0.830672 -3.03228 0
M  V30 11676 N 1121.88 0.120221 -1.57141 0
M  V30 11677 C 1123.12 0.824472 -1.85941 0
M  V30 11678 C 1123.48 1.77552 -0.741152 0
M  V30 11679 O 1122.77 1.89842 0.258939 0
M  V30 11680 C 1122.97 1.61338 -3.18912 0
M  V30 11681 C 1122.79 0.740224 -4.43566 0
M  V30 11682 C 1121.56 0.39553 -5.0375 0
M  V30 11683 C 1123.76 0.0584053 -5.14267 0
M  V30 11684 N 1121.74 -0.488415 -6.11954 0
M  V30 11685 C 1123.12 -0.684591 -6.16209 0
M  V30 11686 C 1125.17 -0.0181409 -4.97897 0
M  V30 11687 C 1123.87 -1.49694 -7.03551 0
M  V30 11688 C 1125.9 -0.817313 -5.85725 0
M  V30 11689 C 1125.26 -1.54851 -6.87169 0
M  V30 11690 H 1121.36 0.278664 -0.730664 0
M  V30 11691 H 1123.94 0.0882789 -1.945 0
M  V30 11692 H 1122.12 2.32062 -3.11451 0
M  V30 11693 H 1123.85 2.26287 -3.35524 0
M  V30 11694 H 1120.6 0.737491 -4.67823 0
M  V30 11695 H 1121.03 -0.9222 -6.7069 0
M  V30 11696 H 1125.67 0.532815 -4.19429 0
M  V30 11697 H 1123.39 -2.05906 -7.81427 0
M  V30 11698 H 1126.97 -0.878884 -5.75123 0
M  V30 11699 H 1125.85 -2.15696 -7.53953 0
M  V30 11700 N 1123.36 1.52689 0.390367 0
M  V30 11701 C 1124.27 1.8029 1.50108 0
M  V30 11702 C 1125.28 0.689582 1.59752 0
M  V30 11703 O 1126.46 0.977024 1.76114 0
M  V30 11704 C 1123.52 1.96475 2.85654 0
M  V30 11705 C 1122.58 3.2039 2.85743 0
M  V30 11706 C 1121.82 3.35793 4.14824 0
M  V30 11707 O 1122.04 2.56033 5.09709 0
M  V30 11708 O 1120.97 4.2904 4.22147 0
M  V30 11709 H 1124.8 2.74605 1.29715 0
M  V30 11710 H 1122.39 1.37763 0.578074 0
M  V30 11711 H 1124.27 2.08835 3.66013 0
M  V30 11712 H 1122.94 1.05351 3.06077 0
M  V30 11713 H 1121.85 3.13473 2.0417 0
M  V30 11714 H 1123.18 4.11356 2.70272 0
M  V30 11715 N 1124.83 -0.648732 1.43629 0
M  V30 11716 C 1126.08 -1.40579 1.45196 0
M  V30 11717 C 1126.4 -1.9484 0.0790556 0
M  V30 11718 O 1125.67 -1.74707 -0.886239 0
M  V30 11719 H 1124.25 -0.52175 0.53459 0
M  V30 11720 H 1126.92 -0.764796 1.79268 0
M  V30 11721 H 1126.01 -2.24591 2.16715 0
M  V30 11722 N 1126.31 -1.30234 -0.887518 0
M  V30 11723 C 1127.24 -1.18969 -2.00919 0
M  V30 11724 C 1128.22 -0.080952 -1.69907 0
M  V30 11725 O 1129.41 -0.262546 -1.92417 0
M  V30 11726 C 1126.54 -0.878094 -3.36016 0
M  V30 11727 C 1125.49 -1.94449 -3.81279 0
M  V30 11728 C 1124.82 -1.48594 -5.13638 0
M  V30 11729 C 1126.12 -3.35519 -4.00281 0
M  V30 11730 H 1127.81 -2.12808 -2.10602 0
M  V30 11731 H 1125.36 -1.02454 -1.01189 0
M  V30 11732 H 1127.31 -0.785954 -4.14006 0
M  V30 11733 H 1126.04 0.0959779 -3.26459 0
M  V30 11734 H 1124.69 -2.02622 -3.05516 0
M  V30 11735 H 1124.34 -0.500204 -5.00507 0
M  V30 11736 H 1124.04 -2.19921 -5.44893 0
M  V30 11737 H 1125.57 -1.40754 -5.94156 0
M  V30 11738 H 1126.98 -3.30119 -4.68716 0
M  V30 11739 H 1125.38 -4.0491 -4.42909 0
M  V30 11740 H 1126.45 -3.77597 -3.04218 0
M  V30 11741 N 1127.79 1.09952 -1.12909 0
M  V30 11742 C 1128.7 2.19999 -0.81471 0
M  V30 11743 C 1129.72 1.72864 0.19851 0
M  V30 11744 O 1130.89 2.01376 0.0308832 0
M  V30 11745 C 1127.96 3.45573 -0.279363 0
M  V30 11746 C 1127.02 4.07417 -1.35314 0
M  V30 11747 C 1126.25 5.26996 -0.843247 0
M  V30 11748 O 1126.47 5.69495 0.321164 0
M  V30 11749 O 1125.41 5.79826 -1.61511 0
M  V30 11750 H 1129.23 2.49333 -1.73398 0
M  V30 11751 H 1126.82 1.18784 -0.906128 0
M  V30 11752 H 1128.7 4.21398 0.0140531 0
M  V30 11753 H 1127.38 3.17854 0.612401 0
M  V30 11754 H 1126.28 3.33253 -1.6998 0
M  V30 11755 H 1127.62 4.39349 -2.21885 0
M  V30 11756 N 1129.27 0.921757 1.27833 0
M  V30 11757 C 1130.5 0.575202 1.98744 0
M  V30 11758 C 1130.91 -0.845405 1.68815 0
M  V30 11759 O 1130.27 -1.56106 0.94536 0
M  V30 11760 C 1130.32 0.784389 3.52888 0
M  V30 11761 O 1130.04 2.1491 3.81766 0
M  V30 11762 C 1131.54 0.445744 4.41053 0
M  V30 11763 H 1128.76 0.218525 0.634419 0
M  V30 11764 H 1131.31 1.23715 1.62834 0
M  V30 11765 H 1129.46 0.169323 3.8703 0
M  V30 11766 H 1129.87 2.19469 4.76375 0
M  V30 11767 H 1131.35 0.64284 5.48244 0
M  V30 11768 H 1131.83 -0.618433 4.34824 0
M  V30 11769 H 1132.43 1.03869 4.12421 0
M  V30 11770 N 1130.75 -1.41857 0.686609 0
M  V30 11771 C 1132.02 -1.95082 0.142228 0
M  V30 11772 C 1132.4 -1.62646 -1.34572 0
M  V30 11773 O 1131.75 -0.928757 -2.08773 0
M  V30 11774 C 1131.96 -3.46415 0.423955 0
M  V30 11775 C 1133.31 -4.23181 0.346842 0
M  V30 11776 O 1134.33 -3.54393 0.358363 0
M  V30 11777 O 1133.19 -5.4568 0.299211 0
M  V30 11778 H 1130.29 -0.826943 0.00974 0
M  V30 11779 H 1132.83 -1.51622 0.762153 0
M  V30 11780 H 1131.6 -3.63273 1.45424 0
M  V30 11781 H 1131.23 -3.96949 -0.227391 0
M  V30 11782 N 1132.22 -0.430739 -1.51599 0
M  V30 11783 C 1133.45 0.139197 -2.06932 0
M  V30 11784 C 1133.87 1.3626 -1.29672 0
M  V30 11785 O 1133.23 1.78219 -0.332836 0
M  V30 11786 C 1133.28 0.446593 -3.57824 0
M  V30 11787 O 1132.38 1.53414 -3.82803 0
M  V30 11788 H 1131.73 0.00475812 -0.663983 0
M  V30 11789 H 1134.26 -0.610171 -1.9529 0
M  V30 11790 H 1134.27 0.698972 -4.01968 0
M  V30 11791 H 1132.94 -0.447613 -4.13484 0
M  V30 11792 H 1131.52 1.27224 -3.50526 0
M  V30 11793 N 1133.7 1.56767 -0.161869 0
M  V30 11794 C 1135.12 1.58412 0.194403 0
M  V30 11795 C 1135.32 1.17682 1.63564 0
M  V30 11796 O 1134.37 0.884024 2.36519 0
M  V30 11797 C 1135.69 3.00599 -0.0778438 0
M  V30 11798 C 1137.24 3.12996 -0.015307 0
M  V30 11799 C 1137.71 4.57259 -0.260418 0
M  V30 11800 N 1139.2 4.62733 -0.207863 0
M  V30 11801 C 1139.94 5.72193 -0.371821 0
M  V30 11802 N 1139.43 6.90246 -0.594318 0
M  V30 11803 N 1141.23 5.61253 -0.308384 0
M  V30 11804 H 1133.38 1.81531 -1.10274 0
M  V30 11805 H 1135.64 0.840919 -0.437675 0
M  V30 11806 H 1135.35 3.3484 -1.07587 0
M  V30 11807 H 1135.22 3.71819 0.634845 0
M  V30 11808 H 1137.61 2.78588 0.97329 0
M  V30 11809 H 1137.69 2.44232 -0.760559 0
M  V30 11810 H 1137.33 4.92375 -1.24618 0
M  V30 11811 H 1137.26 5.2417 0.505334 0
M  V30 11812 H 1139.75 3.77878 -0.0411541 0
M  V30 11813 H 1140.07 7.6954 -0.70913 0
M  V30 11814 H 1138.41 6.92131 -0.630819 0
M  V30 11815 H 1141.6 4.67905 -0.135217 0
M  V30 11816 H 1141.77 6.46507 -0.439592 0
M  V30 11817 N 1135.18 -0.111886 1.57202 0
M  V30 11818 C 1136.11 -1.16274 1.97517 0
M  V30 11819 C 1137.13 -1.37259 0.875425 0
M  V30 11820 O 1138.31 -1.36208 1.15367 0
M  V30 11821 C 1135.41 -2.52145 2.26442 0
M  V30 11822 C 1134.59 -2.51666 3.57747 0
M  V30 11823 C 1133.65 -3.69337 3.74802 0
M  V30 11824 O 1132.67 -3.52596 4.46839 0
M  V30 11825 N 1133.87 -4.88177 3.14108 0
M  V30 11826 H 1136.64 -0.819747 2.88271 0
M  V30 11827 H 1134.2 -0.301076 1.59076 0
M  V30 11828 H 1136.19 -3.29437 2.3506 0
M  V30 11829 H 1134.76 -2.78599 1.41779 0
M  V30 11830 H 1133.98 -1.60038 3.60252 0
M  V30 11831 H 1135.27 -2.48408 4.44039 0
M  V30 11832 H 1134.67 -5.04682 2.55564 0
M  V30 11833 H 1133.23 -5.6312 3.28237 0
M  V30 11834 N 1136.66 -1.52894 -0.382264 0
M  V30 11835 C 1137.9 -1.68515 -1.12829 0
M  V30 11836 C 1138.24 -0.427211 -1.89443 0
M  V30 11837 O 1137.51 0.57516 -1.85801 0
M  V30 11838 C 1137.8 -2.92449 -2.10108 0
M  V30 11839 C 1137.65 -4.2836 -1.37214 0
M  V30 11840 C 1138.97 -3.11944 -3.1045 0
M  V30 11841 H 1136.09 -0.613223 -0.408811 0
M  V30 11842 H 1138.73 -1.85503 -0.410921 0
M  V30 11843 H 1136.88 -2.78097 -2.71283 0
M  V30 11844 H 1138.55 -4.54493 -0.789516 0
M  V30 11845 H 1136.79 -4.28532 -0.673973 0
M  V30 11846 H 1137.46 -5.11178 -2.0833 0
M  V30 11847 H 1139.94 -3.25372 -2.59369 0
M  V30 11848 H 1138.82 -4.00125 -3.75754 0
M  V30 11849 H 1139.08 -2.26465 -3.79692 0
M  V30 11850 N 1138.14 0.641106 -1.43971 0
M  V30 11851 C 1139.08 1.75352 -1.50068 0
M  V30 11852 C 1140.05 1.62386 -0.349266 0
M  V30 11853 O 1141.24 1.82455 -0.558118 0
M  V30 11854 C 1138.38 3.13561 -1.4413 0
M  V30 11855 C 1137.49 3.37574 -2.6957 0
M  V30 11856 C 1136.63 4.65698 -2.55535 0
M  V30 11857 C 1135.67 4.82857 -3.76186 0
M  V30 11858 N 1134.8 6.02249 -3.60888 0
M  V30 11859 H 1139.64 1.69477 -2.45116 0
M  V30 11860 H 1137.18 0.826871 -1.2166 0
M  V30 11861 H 1139.14 3.93476 -1.38681 0
M  V30 11862 H 1137.77 3.18476 -0.526563 0
M  V30 11863 H 1136.82 2.5167 -2.85248 0
M  V30 11864 H 1138.13 3.46135 -3.59154 0
M  V30 11865 H 1137.29 5.53759 -2.47862 0
M  V30 11866 H 1136.03 4.59479 -1.63495 0
M  V30 11867 H 1135.03 3.93229 -3.84254 0
M  V30 11868 H 1136.26 4.90898 -4.6925 0
M  V30 11869 H 1134.2 5.97138 -2.71591 0
M  V30 11870 H 1134.12 6.11822 -4.44083 0
M  V30 11871 H 1135.39 6.92898 -3.57088 0
M  V30 11872 N 1139.62 1.30703 0.880598 0
M  V30 11873 C 1140.58 1.17429 1.96832 0
M  V30 11874 C 1141.58 0.104305 1.60461 0
M  V30 11875 O 1142.77 0.352758 1.70591 0
M  V30 11876 C 1139.9 0.800099 3.31378 0
M  V30 11877 H 1141.09 2.14069 2.10034 0
M  V30 11878 H 1138.65 1.14162 1.06755 0
M  V30 11879 H 1139.38 -0.165606 3.23877 0
M  V30 11880 H 1139.17 1.57341 3.59146 0
M  V30 11881 H 1140.66 0.730826 4.11155 0
M  V30 11882 N 1141.09 -1.09351 1.1349 0
M  V30 11883 C 1142 -2.19564 0.826366 0
M  V30 11884 C 1143.02 -1.72967 -0.189339 0
M  V30 11885 O 1144.2 -2.0139 -0.0202033 0
M  V30 11886 C 1141.26 -3.4542 0.297685 0
M  V30 11887 C 1140.32 -4.06694 1.37473 0
M  V30 11888 C 1139.55 -5.26542 0.871183 0
M  V30 11889 O 1139.78 -5.69657 -0.290958 0
M  V30 11890 O 1138.71 -5.78961 1.64584 0
M  V30 11891 H 1142.54 -2.4841 1.74718 0
M  V30 11892 H 1140.12 -1.18302 0.912414 0
M  V30 11893 H 1142 -4.21399 0.00829479 0
M  V30 11894 H 1140.68 -3.18175 -0.595536 0
M  V30 11895 H 1139.59 -3.32347 1.71745 0
M  V30 11896 H 1140.92 -4.38166 2.24212 0
M  V30 11897 N 1142.57 -0.928524 -1.27343 0
M  V30 11898 C 1143.5 -0.445627 -2.29208 0
M  V30 11899 C 1144.48 0.494508 -1.62753 0
M  V30 11900 O 1145.67 0.399082 -1.90055 0
M  V30 11901 C 1142.8 0.301684 -3.45987 0
M  V30 11902 C 1141.75 -0.550695 -4.24442 0
M  V30 11903 C 1141.08 0.325833 -5.33706 0
M  V30 11904 C 1142.38 -1.81559 -4.89728 0
M  V30 11905 H 1144.07 -1.29696 -2.69851 0
M  V30 11906 H 1141.62 -0.625085 -1.29725 0
M  V30 11907 H 1143.57 0.650455 -4.1635 0
M  V30 11908 H 1142.29 1.18705 -3.04264 0
M  V30 11909 H 1140.95 -0.882185 -3.55827 0
M  V30 11910 H 1140.6 1.21018 -4.88225 0
M  V30 11911 H 1140.3 -0.240994 -5.87106 0
M  V30 11912 H 1141.83 0.670156 -6.06911 0
M  V30 11913 H 1143.24 -1.53483 -5.52373 0
M  V30 11914 H 1141.64 -2.32598 -5.53189 0
M  V30 11915 H 1142.71 -2.53461 -4.13383 0
M  V30 11916 N 1144.05 1.41491 -0.694123 0
M  V30 11917 C 1145.01 2.2917 -0.0368562 0
M  V30 11918 C 1146.01 1.44305 0.709426 0
M  V30 11919 O 1147.2 1.6547 0.544533 0
M  V30 11920 C 1144.33 3.27156 0.958201 0
M  V30 11921 H 1145.53 2.88787 -0.808829 0
M  V30 11922 H 1143.08 1.49453 -0.457538 0
M  V30 11923 H 1143.82 2.72516 1.75799 0
M  V30 11924 H 1143.6 3.89776 0.426227 0
M  V30 11925 H 1145.09 3.92863 1.41592 0
M  V30 11926 N 1145.53 0.438773 1.51369 0
M  V30 11927 C 1146.94 0.0911416 1.5934 0
M  V30 11928 C 1147.14 -1.39962 1.44958 0
M  V30 11929 O 1146.2 -2.16968 1.29155 0
M  V30 11930 C 1147.51 0.612531 2.94395 0
M  V30 11931 C 1149.06 0.573098 3.07709 0
M  V30 11932 C 1149.54 1.07149 4.4529 0
M  V30 11933 N 1151.03 1.02953 4.51614 0
M  V30 11934 C 1151.76 1.38602 5.56397 0
M  V30 11935 N 1151.26 1.81543 6.68591 0
M  V30 11936 N 1153.05 1.30409 5.46763 0
M  V30 11937 H 1145.2 1.40872 1.58962 0
M  V30 11938 H 1147.46 0.580589 0.749414 0
M  V30 11939 H 1147.17 1.65562 3.10294 0
M  V30 11940 H 1147.04 0.0382375 3.77181 0
M  V30 11941 H 1149.43 -0.461006 2.91477 0
M  V30 11942 H 1149.51 1.18381 2.26759 0
M  V30 11943 H 1149.16 2.10406 4.62268 0
M  V30 11944 H 1149.09 0.437297 5.24781 0
M  V30 11945 H 1151.58 0.714208 3.7109 0
M  V30 11946 H 1151.89 2.06977 7.44567 0
M  V30 11947 H 1150.24 1.8547 6.69795 0
M  V30 11948 H 1153.43 0.967272 4.57997 0
M  V30 11949 H 1153.6 1.5852 6.28312 0
M  V30 11950 N 1147.01 -1.56678 0.170181 0
M  V30 11951 C 1147.95 -2.17909 -0.760556 0
M  V30 11952 C 1148.92 -1.11875 -1.22773 0
M  V30 11953 O 1150.11 -1.40021 -1.2961 0
M  V30 11954 C 1147.25 -2.82305 -1.9849 0
M  V30 11955 C 1146.36 -4.02796 -1.5614 0
M  V30 11956 C 1145.5 -4.55121 -2.73932 0
M  V30 11957 C 1144.53 -5.68025 -2.28067 0
M  V30 11958 N 1143.67 -6.14865 -3.38947 0
M  V30 11959 H 1148.51 -2.97098 -0.231629 0
M  V30 11960 H 1146.05 -1.46742 -0.102602 0
M  V30 11961 H 1148.01 -3.17797 -2.70298 0
M  V30 11962 H 1146.64 -2.05721 -2.48755 0
M  V30 11963 H 1145.69 -3.73131 -0.740097 0
M  V30 11964 H 1147 -4.84526 -1.18472 0
M  V30 11965 H 1146.15 -4.92789 -3.53898 0
M  V30 11966 H 1144.89 -3.72445 -3.14858 0
M  V30 11967 H 1143.9 -5.2991 -1.46546 0
M  V30 11968 H 1145.12 -6.52501 -1.88199 0
M  V30 11969 H 1143.07 -5.35119 -3.79452 0
M  V30 11970 H 1142.99 -6.91582 -3.05369 0
M  V30 11971 H 1144.25 -6.57183 -4.19203 0
M  V30 11972 N 1148.48 0.103547 -1.57259 0
M  V30 11973 C 1149.43 1.12621 -2.01458 0
M  V30 11974 C 1150.4 1.40282 -0.889391 0
M  V30 11975 O 1151.59 1.51887 -1.15477 0
M  V30 11976 C 1148.73 2.44352 -2.43692 0
M  V30 11977 C 1147.84 2.23495 -3.69695 0
M  V30 11978 C 1146.97 3.48565 -4.00844 0
M  V30 11979 C 1146.01 3.22932 -5.19982 0
M  V30 11980 N 1145.15 4.40246 -5.46926 0
M  V30 11981 H 1149.99 0.742315 -2.88606 0
M  V30 11982 H 1147.53 0.355016 -1.42752 0
M  V30 11983 H 1149.48 3.2122 -2.66221 0
M  V30 11984 H 1148.11 2.80605 -1.59565 0
M  V30 11985 H 1147.17 1.3747 -3.54692 0
M  V30 11986 H 1148.48 2.0054 -4.56711 0
M  V30 11987 H 1147.63 4.33844 -4.24104 0
M  V30 11988 H 1146.37 3.74565 -3.12333 0
M  V30 11989 H 1145.38 2.36045 -4.96551 0
M  V30 11990 H 1146.6 2.98286 -6.10084 0
M  V30 11991 H 1144.55 4.66338 -4.61373 0
M  V30 11992 H 1144.46 4.20452 -6.28296 0
M  V30 11993 H 1145.73 5.26614 -5.74716 0
M  V30 11994 N 1149.96 1.53094 0.37415 0
M  V30 11995 C 1151.38 1.42676 0.715246 0
M  V30 11996 C 1151.58 0.558992 1.93591 0
M  V30 11997 O 1150.63 0.0381328 2.52471 0
M  V30 11998 C 1151.95 2.85746 0.936459 0
M  V30 11999 C 1153.49 2.95322 1.03701 0
M  V30 12000 C 1153.97 4.39436 1.29075 0
M  V30 12001 N 1155.46 4.42826 1.35864 0
M  V30 12002 C 1156.2 5.51433 1.57191 0
M  V30 12003 N 1155.69 6.701 1.75891 0
M  V30 12004 N 1157.48 5.38998 1.59491 0
M  V30 12005 H 1149.64 2.08025 -0.428854 0
M  V30 12006 H 1151.9 0.939078 -0.129758 0
M  V30 12007 H 1151.6 3.51523 0.111448 0
M  V30 12008 H 1151.48 3.28887 1.84698 0
M  V30 12009 H 1153.87 2.29704 1.85257 0
M  V30 12010 H 1153.95 2.55588 0.104066 0
M  V30 12011 H 1153.59 5.05625 0.480231 0
M  V30 12012 H 1153.52 4.76735 2.23677 0
M  V30 12013 H 1156.01 3.57301 1.23061 0
M  V30 12014 H 1156.32 7.48643 1.91713 0
M  V30 12015 H 1154.67 6.73102 1.73086 0
M  V30 12016 H 1157.86 4.45257 1.44444 0
M  V30 12017 H 1158.03 6.23705 1.75771 0
M  V30 12018 N 1151.44 -0.633461 1.44309 0
M  V30 12019 C 1152.35 -1.77428 1.53481 0
M  V30 12020 C 1153.37 -1.68839 0.420628 0
M  V30 12021 O 1154.54 -1.89658 0.677638 0
M  V30 12022 C 1151.61 -3.13801 1.47409 0
M  V30 12023 C 1150.67 -3.34039 2.6966 0
M  V30 12024 C 1149.9 -4.63907 2.63868 0
M  V30 12025 O 1150.12 -5.44559 1.69741 0
M  V30 12026 O 1149.06 -4.86295 3.54684 0
M  V30 12027 H 1152.88 -1.72642 2.49857 0
M  V30 12028 H 1150.47 -0.794399 1.26529 0
M  V30 12029 H 1152.35 -3.95101 1.46537 0
M  V30 12030 H 1151.03 -3.19134 0.541769 0
M  V30 12031 H 1149.93 -2.52427 2.761 0
M  V30 12032 H 1151.27 -3.33566 3.61931 0
M  V30 12033 N 1152.92 -1.31168 -0.873655 0
M  V30 12034 C 1153.83 -1.20458 -2.01313 0
M  V30 12035 C 1154.84 -0.122074 -1.73571 0
M  V30 12036 O 1156.02 -0.339176 -1.98523 0
M  V30 12037 C 1153.09 -0.90876 -3.34578 0
M  V30 12038 C 1152.15 -2.07779 -3.75668 0
M  V30 12039 C 1151.38 -1.79599 -5.02573 0
M  V30 12040 O 1151.6 -0.729338 -5.65718 0
M  V30 12041 O 1150.54 -2.65169 -5.40341 0
M  V30 12042 H 1154.36 -2.16207 -2.13279 0
M  V30 12043 H 1151.95 -1.10871 -1.00139 0
M  V30 12044 H 1153.83 -0.759469 -4.145 0
M  V30 12045 H 1152.5 0.0187249 -3.23695 0
M  V30 12046 H 1151.41 -2.28247 -2.96402 0
M  V30 12047 H 1152.74 -2.9874 -3.91172 0
M  V30 12048 N 1154.4 1.08748 -1.14068 0
M  V30 12049 C 1155.81 1.33125 -0.880341 0
M  V30 12050 C 1156.01 1.9569 0.480396 0
M  V30 12051 O 1155.07 2.2077 1.22543 0
M  V30 12052 C 1156.38 2.23618 -2.01036 0
M  V30 12053 C 1157.93 2.37108 -2.04326 0
M  V30 12054 C 1158.4 3.30941 -3.1661 0
M  V30 12055 N 1159.9 3.38517 -3.16166 0
M  V30 12056 C 1160.63 4.11142 -3.99687 0
M  V30 12057 N 1160.13 4.86505 -4.93239 0
M  V30 12058 N 1161.92 4.06938 -3.87761 0
M  V30 12059 H 1154.07 0.665164 -2.01716 0
M  V30 12060 H 1156.33 0.355612 -0.878774 0
M  V30 12061 H 1156.04 1.84885 -2.99183 0
M  V30 12062 H 1155.91 3.24056 -1.93049 0
M  V30 12063 H 1158.3 2.75101 -1.06787 0
M  V30 12064 H 1158.38 1.36424 -2.16384 0
M  V30 12065 H 1158.03 2.93669 -4.14392 0
M  V30 12066 H 1157.96 4.31545 -3.01789 0
M  V30 12067 H 1160.45 2.84786 -2.48405 0
M  V30 12068 H 1160.76 5.39372 -5.53441 0
M  V30 12069 H 1159.1 4.8557 -4.9724 0
M  V30 12070 H 1162.3 3.47166 -3.13996 0
M  V30 12071 H 1162.47 4.63275 -4.53079 0
M  V30 12072 N 1155.87 0.935264 1.26849 0
M  V30 12073 C 1157.29 0.636661 1.46352 0
M  V30 12074 C 1157.49 -0.811823 1.84423 0
M  V30 12075 O 1156.55 -1.58902 1.9623 0
M  V30 12076 C 1157.86 1.59301 2.55036 0
M  V30 12077 C 1159.41 1.60207 2.68892 0
M  V30 12078 C 1159.88 2.54558 3.80742 0
M  V30 12079 N 1161.37 2.52809 3.88126 0
M  V30 12080 C 1162.11 3.225 4.74111 0
M  V30 12081 N 1161.6 4.01598 5.64527 0
M  V30 12082 N 1163.4 3.11481 4.67906 0
M  V30 12083 H 1155.55 1.8716 1.00423 0
M  V30 12084 H 1157.81 0.803968 0.502334 0
M  V30 12085 H 1157.52 2.62671 2.33874 0
M  V30 12086 H 1157.39 1.34052 3.52576 0
M  V30 12087 H 1159.78 0.575649 2.89431 0
M  V30 12088 H 1159.86 1.89508 1.71815 0
M  V30 12089 H 1159.5 3.57314 3.60956 0
M  V30 12090 H 1159.43 2.22549 4.77263 0
M  V30 12091 H 1161.92 1.9537 3.2348 0
M  V30 12092 H 1162.24 4.51742 6.27016 0
M  V30 12093 H 1160.58 4.057 5.64298 0
M  V30 12094 H 1163.77 2.49175 3.9627 0
M  V30 12095 H 1163.95 3.66064 5.34697 0
M  V30 12096 N 1157.35 -1.41121 0.701616 0
M  V30 12097 C 1158.77 -1.55162 0.373766 0
M  V30 12098 C 1158.97 -1.6759 -1.11875 0
M  V30 12099 O 1158.02 -1.65768 -1.90465 0
M  V30 12100 C 1159.34 -2.78758 1.12759 0
M  V30 12101 C 1160.89 -2.92561 1.11253 0
M  V30 12102 C 1161.36 -4.19052 1.84822 0
M  V30 12103 N 1162.85 -4.26023 1.81821 0
M  V30 12104 C 1163.59 -5.22771 2.3558 0
M  V30 12105 N 1163.08 -6.25512 2.97836 0
M  V30 12106 N 1164.88 -5.14752 2.25802 0
M  V30 12107 H 1157.03 -1.31299 1.66956 0
M  V30 12108 H 1159.29 -0.633894 0.704898 0
M  V30 12109 H 1159 -2.75804 2.18231 0
M  V30 12110 H 1158.87 -3.70456 0.710095 0
M  V30 12111 H 1161.26 -2.95026 0.0660506 0
M  V30 12112 H 1161.34 -2.0202 1.56913 0
M  V30 12113 H 1160.98 -4.17349 2.89452 0
M  V30 12114 H 1160.91 -5.08577 1.36592 0
M  V30 12115 H 1163.4 -3.52411 1.36438 0
M  V30 12116 H 1163.72 -6.95736 3.36409 0
M  V30 12117 H 1162.06 -6.25997 3.01916 0
M  V30 12118 H 1165.25 -4.33414 1.76833 0
M  V30 12119 H 1165.42 -5.89983 2.68001 0
M  V30 12120 N 1158.83 -0.446794 -1.51134 0
M  V30 12121 C 1159.74 0.36579 -2.31731 0
M  V30 12122 C 1160.76 1.01886 -1.41051 0
M  V30 12123 O 1161.93 1.01216 -1.74119 0
M  V30 12124 C 1159 1.44705 -3.15058 0
M  V30 12125 C 1158.06 0.813129 -4.21529 0
M  V30 12126 C 1157.29 1.84287 -5.00873 0
M  V30 12127 O 1157.51 3.06633 -4.8097 0
M  V30 12128 O 1156.45 1.42816 -5.84711 0
M  V30 12129 H 1160.27 -0.292436 -3.02289 0
M  V30 12130 H 1157.86 -0.209129 -1.47929 0
M  V30 12131 H 1159.74 2.07393 -3.66833 0
M  V30 12132 H 1158.42 2.08919 -2.47254 0
M  V30 12133 H 1157.32 0.147953 -3.73807 0
M  V30 12134 H 1158.66 0.214331 -4.91733 0
M  V30 12135 N 1160.31 1.56586 -0.178487 0
M  V30 12136 C 1161.24 2.14168 0.787856 0
M  V30 12137 C 1162.22 1.07374 1.22105 0
M  V30 12138 O 1163.4 1.35391 1.31154 0
M  V30 12139 C 1160.53 2.68708 2.06189 0
M  V30 12140 C 1159.58 3.8794 1.77215 0
M  V30 12141 S 1160.41 5.27274 0.935002 0
M  V30 12142 C 1161.57 5.85224 2.21954 0
M  V30 12143 H 1161.8 2.958 0.298293 0
M  V30 12144 H 1159.33 1.54357 0.0362853 0
M  V30 12145 H 1161.29 3.00777 2.79363 0
M  V30 12146 H 1159.95 1.87149 2.52258 0
M  V30 12147 H 1159.14 4.24453 2.71764 0
M  V30 12148 H 1158.75 3.56795 1.12132 0
M  V30 12149 H 1161.04 5.98575 3.17355 0
M  V30 12150 H 1161.98 6.82162 1.89898 0
M  V30 12151 H 1162.39 5.13697 2.34042 0
M  V30 12152 N 1161.79 -0.095206 1.57312 0
M  V30 12153 C 1162.7 -1.13388 2.05379 0
M  V30 12154 C 1163.71 -1.43868 0.978668 0
M  V30 12155 O 1164.89 -1.54512 1.29182 0
M  V30 12156 C 1161.95 -2.43444 2.46852 0
M  V30 12157 C 1161.01 -2.20146 3.68557 0
M  V30 12158 C 1160.25 -3.44001 4.08043 0
M  V30 12159 O 1160.47 -4.52233 3.47623 0
M  V30 12160 O 1159.4 -3.33596 5.00997 0
M  V30 12161 H 1163.23 -0.755622 2.9415 0
M  V30 12162 H 1160.82 -0.307707 1.46197 0
M  V30 12163 H 1162.7 -3.20027 2.74155 0
M  V30 12164 H 1161.37 -2.80696 1.61219 0
M  V30 12165 H 1160.28 -1.41345 3.46371 0
M  V30 12166 H 1161.61 -1.87787 4.54969 0
M  V30 12167 N 1163.26 -1.53291 -0.366026 0
M  V30 12168 C 1164.23 -1.79025 -1.43117 0
M  V30 12169 C 1165.23 -0.660676 -1.46601 0
M  V30 12170 O 1166.42 -0.928875 -1.47369 0
M  V30 12171 C 1163.55 -1.91192 -2.82238 0
M  V30 12172 H 1164.74 -2.74154 -1.21572 0
M  V30 12173 H 1162.3 -1.44361 -0.599132 0
M  V30 12174 H 1163.03 -0.98129 -3.09097 0
M  V30 12175 H 1162.82 -2.7335 -2.81109 0
M  V30 12176 H 1164.31 -2.12696 -3.59375 0
M  V30 12177 N 1164.74 0.6258 -1.44643 0
M  V30 12178 C 1165.69 1.73751 -1.51919 0
M  V30 12179 C 1166.66 1.62007 -0.36647 0
M  V30 12180 O 1167.84 1.81852 -0.577439 0
M  V30 12181 C 1164.98 3.12015 -1.47448 0
M  V30 12182 C 1164.1 3.34696 -2.73135 0
M  V30 12183 C 1163.23 4.62962 -2.6046 0
M  V30 12184 C 1162.27 4.7884 -3.81286 0
M  V30 12185 N 1161.41 5.98388 -3.67255 0
M  V30 12186 H 1166.25 1.66867 -2.46899 0
M  V30 12187 H 1163.79 0.813921 -1.22531 0
M  V30 12188 H 1165.74 3.91983 -1.42846 0
M  V30 12189 H 1164.37 3.179 -0.560312 0
M  V30 12190 H 1163.43 2.4863 -2.87901 0
M  V30 12191 H 1164.74 3.42306 -3.62806 0
M  V30 12192 H 1163.89 5.51099 -2.53722 0
M  V30 12193 H 1162.63 4.57719 -1.68359 0
M  V30 12194 H 1161.64 3.89131 -3.88403 0
M  V30 12195 H 1162.86 4.85893 -4.74431 0
M  V30 12196 H 1160.81 5.94224 -2.77909 0
M  V30 12197 H 1160.72 6.07078 -4.50547 0
M  V30 12198 H 1161.99 6.89072 -3.64417 0
M  V30 12199 N 1166.22 1.31629 0.866686 0
M  V30 12200 C 1167.64 1.10358 1.15296 0
M  V30 12201 C 1167.84 -0.123807 2.01119 0
M  V30 12202 O 1166.89 -0.81219 2.39081 0
M  V30 12203 C 1168.21 2.37684 1.84193 0
M  V30 12204 C 1169.75 2.43326 1.9688 0
M  V30 12205 C 1170.23 3.70541 2.69191 0
M  V30 12206 N 1171.72 3.71454 2.76724 0
M  V30 12207 C 1172.45 4.66585 3.33295 0
M  V30 12208 N 1171.95 5.72075 3.90771 0
M  V30 12209 N 1173.74 4.541 3.31284 0
M  V30 12210 H 1165.89 2.10343 0.29487 0
M  V30 12211 H 1168.16 0.928096 0.193239 0
M  V30 12212 H 1167.86 3.27352 1.28582 0
M  V30 12213 H 1167.74 2.47731 2.84445 0
M  V30 12214 H 1170.12 1.54124 2.51654 0
M  V30 12215 H 1170.21 2.3724 0.956596 0
M  V30 12216 H 1169.85 4.60111 2.15083 0
M  V30 12217 H 1169.78 3.73894 3.70825 0
M  V30 12218 H 1172.27 2.952 2.35936 0
M  V30 12219 H 1172.58 6.40738 4.32058 0
M  V30 12220 H 1170.93 5.75844 3.89138 0
M  V30 12221 H 1174.12 3.70861 2.85622 0
M  V30 12222 H 1174.29 5.28416 3.75074 0
M  V30 12223 N 1167.7 -1.08142 1.14644 0
M  V30 12224 C 1168.66 -2.13308 0.83859 0
M  V30 12225 C 1169.66 -1.60022 -0.158012 0
M  V30 12226 O 1170.85 -1.74057 0.0706621 0
M  V30 12227 C 1167.98 -3.39978 0.250591 0
M  V30 12228 H 1169.18 -2.42049 1.77066 0
M  V30 12229 H 1166.73 -1.23899 0.952828 0
M  V30 12230 H 1167.47 -3.16873 -0.690064 0
M  V30 12231 H 1167.25 -3.79952 0.968456 0
M  V30 12232 H 1168.74 -4.17567 0.0525115 0
M  V30 12233 N 1169.18 -0.941978 -1.26351 0
M  V30 12234 C 1170.09 -0.45833 -2.30079 0
M  V30 12235 C 1171.1 0.468084 -1.67586 0
M  V30 12236 O 1172.28 0.347418 -1.98381 0
M  V30 12237 C 1169.34 0.26797 -3.45663 0
M  V30 12238 C 1168.41 -0.695102 -4.23635 0
M  V30 12239 C 1167.64 -0.003369 -5.337 0
M  V30 12240 O 1167.86 1.21342 -5.57344 0
M  V30 12241 O 1166.8 -0.682476 -5.98018 0
M  V30 12242 H 1170.62 -1.31998 -2.73514 0
M  V30 12243 H 1168.21 -0.707897 -1.31564 0
M  V30 12244 H 1170.09 0.677061 -4.15925 0
M  V30 12245 H 1168.76 1.105 -3.04256 0
M  V30 12246 H 1167.67 -1.15415 -3.55851 0
M  V30 12247 H 1169 -1.49977 -4.68794 0
M  V30 12248 N 1170.66 1.40747 -0.709091 0
M  V30 12249 C 1172.07 1.54961 -0.381989 0
M  V30 12250 C 1172.27 1.68181 1.10985 0
M  V30 12251 O 1171.33 1.66776 1.89584 0
M  V30 12252 C 1172.64 2.78156 -1.14236 0
M  V30 12253 C 1174.19 2.91967 -1.12803 0
M  V30 12254 C 1174.66 4.18066 -1.87042 0
M  V30 12255 N 1176.15 4.25052 -1.84078 0
M  V30 12256 C 1176.89 5.21514 -2.38349 0
M  V30 12257 N 1176.39 6.23924 -3.01149 0
M  V30 12258 N 1178.18 5.13548 -2.28528 0
M  V30 12259 H 1170.33 1.30412 -1.6765 0
M  V30 12260 H 1172.59 0.630147 -0.70825 0
M  V30 12261 H 1172.3 2.74643 -2.19691 0
M  V30 12262 H 1172.17 3.70074 -0.729731 0
M  V30 12263 H 1174.56 2.94987 -0.0816956 0
M  V30 12264 H 1174.64 2.01185 -1.57982 0
M  V30 12265 H 1174.28 4.15808 -2.91662 0
M  V30 12266 H 1174.21 5.07845 -1.39287 0
M  V30 12267 H 1176.71 3.51682 -1.38305 0
M  V30 12268 H 1177.02 6.93942 -3.40094 0
M  V30 12269 H 1175.36 6.24387 -3.05231 0
M  V30 12270 H 1178.55 4.3247 -1.79129 0
M  V30 12271 H 1178.73 5.88553 -2.71126 0
M  V30 12272 N 1172.13 0.454803 1.50895 0
M  V30 12273 C 1173.08 -0.347769 2.28165 0
M  V30 12274 C 1174.05 -1.00158 1.32505 0
M  V30 12275 O 1175.24 -1.01715 1.61427 0
M  V30 12276 C 1172.38 -1.43315 3.13934 0
M  V30 12277 C 1171.49 -0.795736 4.24608 0
M  V30 12278 C 1170.62 -1.85763 4.9766 0
M  V30 12279 C 1169.66 -1.19959 6.0023 0
M  V30 12280 N 1168.8 -2.20361 6.66622 0
M  V30 12281 H 1173.64 0.317493 2.96304 0
M  V30 12282 H 1171.18 0.168418 1.46133 0
M  V30 12283 H 1173.13 -2.07391 3.62001 0
M  V30 12284 H 1171.76 -2.0678 2.47875 0
M  V30 12285 H 1170.82 -0.0428173 3.80376 0
M  V30 12286 H 1172.13 -0.275477 4.98039 0
M  V30 12287 H 1171.28 -2.5746 5.49363 0
M  V30 12288 H 1170.02 -2.41166 4.23899 0
M  V30 12289 H 1169.03 -0.46817 5.47803 0
M  V30 12290 H 1170.25 -0.652666 6.75956 0
M  V30 12291 H 1168.2 -2.74812 5.95663 0
M  V30 12292 H 1168.11 -1.73275 7.35875 0
M  V30 12293 H 1169.38 -2.91488 7.22949 0
M  V30 12294 N 1173.61 -1.56489 0.186789 0
M  V30 12295 C 1174.86 -1.97634 -0.454831 0
M  V30 12296 C 1175.19 -1.07334 -1.61843 0
M  V30 12297 O 1174.47 -0.123612 -1.94107 0
M  V30 12298 C 1174.75 -3.48071 -0.922962 0
M  V30 12299 C 1174.6 -4.49149 0.241877 0
M  V30 12300 C 1175.92 -4.01994 -1.79134 0
M  V30 12301 H 1173.04 -0.718555 -0.163854 0
M  V30 12302 H 1175.68 -1.87984 0.27604 0
M  V30 12303 H 1173.83 -3.56425 -1.54575 0
M  V30 12304 H 1175.5 -4.52841 0.87936 0
M  V30 12305 H 1173.75 -4.24468 0.894964 0
M  V30 12306 H 1174.42 -5.51851 -0.128051 0
M  V30 12307 H 1176.89 -3.96367 -1.26618 0
M  V30 12308 H 1175.77 -5.07641 -2.08787 0
M  V30 12309 H 1176.03 -3.46747 -2.74261 0
M  V30 12310 N 1175.09 0.086862 -1.5736 0
M  V30 12311 C 1176.05 1.08906 -2.01673 0
M  V30 12312 C 1177.05 1.32473 -0.911463 0
M  V30 12313 O 1178.24 1.28447 -1.17673 0
M  V30 12314 C 1175.37 2.43629 -2.38449 0
M  V30 12315 H 1176.57 0.707461 -2.91436 0
M  V30 12316 H 1174.12 0.332154 -1.5273 0
M  V30 12317 H 1174.86 2.8665 -1.51665 0
M  V30 12318 H 1174.64 2.2787 -3.19089 0
M  V30 12319 H 1176.13 3.15695 -2.73361 0
M  V30 12320 N 1176.57 1.53483 0.357892 0
M  V30 12321 C 1177.51 1.80463 1.43881 0
M  V30 12322 C 1178.48 0.649438 1.52877 0
M  V30 12323 O 1179.67 0.892409 1.68644 0
M  V30 12324 C 1176.81 2.00714 2.80727 0
M  V30 12325 C 1175.92 3.28431 2.80637 0
M  V30 12326 C 1175.06 3.38828 4.09107 0
M  V30 12327 C 1174.1 4.60549 4.03189 0
M  V30 12328 N 1173.23 4.68057 5.23323 0
M  V30 12329 H 1178.07 2.72694 1.20174 0
M  V30 12330 H 1175.61 1.35079 0.582422 0
M  V30 12331 H 1177.57 2.10444 3.60235 0
M  V30 12332 H 1176.2 1.11811 3.02817 0
M  V30 12333 H 1175.25 3.27617 1.93317 0
M  V30 12334 H 1176.56 4.18022 2.72138 0
M  V30 12335 H 1175.72 3.47911 4.97034 0
M  V30 12336 H 1174.46 2.47267 4.20369 0
M  V30 12337 H 1173.46 4.51558 3.13649 0
M  V30 12338 H 1174.69 5.53459 3.93523 0
M  V30 12339 H 1172.63 3.794 5.35156 0
M  V30 12340 H 1172.55 5.51563 5.17024 0
M  V30 12341 H 1173.82 4.81433 6.1306 0
M  V30 12342 N 1178.05 -0.61812 1.44973 0
M  V30 12343 C 1179.29 -1.37468 1.48145 0
M  V30 12344 C 1179.61 -1.94628 0.120366 0
M  V30 12345 O 1178.88 -1.76548 -0.848982 0
M  V30 12346 H 1177.46 -0.510293 0.545536 0
M  V30 12347 H 1180.13 -0.726598 1.8085 0
M  V30 12348 H 1179.22 -2.19944 2.2143 0
M  V30 12349 N 1179.52 -1.32087 -0.859693 0
M  V30 12350 C 1180.93 -1.20107 -1.42938 0
M  V30 12351 C 1181.29 0.188411 -1.95293 0
M  V30 12352 O 1180.41 1.08683 -1.87128 0
M  V30 12353 C 1181.01 -2.17436 -2.59821 0
M  V30 12354 C 1179.56 -2.09359 -3.12803 0
M  V30 12355 C 1178.71 -2.06086 -1.85537 0
M  V30 12356 H 1181.66 -1.43989 -0.667302 0
M  V30 12357 H 1181.68 -1.76996 -3.36828 0
M  V30 12358 H 1181.2 -3.18555 -2.21685 0
M  V30 12359 H 1179.3 -1.1147 -3.55535 0
M  V30 12360 H 1179.41 -2.98947 -3.74389 0
M  V30 12361 H 1177.77 -1.51251 -2.04928 0
M  V30 12362 H 1178.56 -3.08978 -1.49625 0
M  V30 12363 N 1181 1.07532 -1.15215 0
M  V30 12364 C 1181.93 2.1406 -0.7908 0
M  V30 12365 C 1182.91 1.60938 0.231922 0
M  V30 12366 O 1184.1 1.88125 0.118906 0
M  V30 12367 C 1181.22 3.38244 -0.175633 0
M  V30 12368 C 1180.27 4.10139 -1.16996 0
M  V30 12369 S 1181.1 4.61795 -2.71119 0
M  V30 12370 C 1182.26 5.89256 -2.11016 0
M  V30 12371 H 1182.49 2.44381 -1.69308 0
M  V30 12372 H 1180.02 1.19777 -0.974308 0
M  V30 12373 H 1181.98 4.10136 0.172859 0
M  V30 12374 H 1180.64 3.06104 0.704211 0
M  V30 12375 H 1179.84 4.99286 -0.687714 0
M  V30 12376 H 1179.44 3.44203 -1.46289 0
M  V30 12377 H 1181.73 6.61336 -1.47109 0
M  V30 12378 H 1182.67 6.42191 -2.98322 0
M  V30 12379 H 1183.08 5.4269 -1.55394 0
M  V30 12380 N 1182.48 0.948665 1.2585 0
M  V30 12381 C 1183.43 0.462904 2.2611 0
M  V30 12382 C 1184.4 -0.481433 1.5897 0
M  V30 12383 O 1185.58 -0.395997 1.86645 0
M  V30 12384 C 1182.72 -0.258808 3.44128 0
M  V30 12385 C 1181.84 0.722072 4.25923 0
M  V30 12386 C 1180.97 -0.0215958 5.31196 0
M  V30 12387 C 1180.01 0.950612 6.04673 0
M  V30 12388 N 1179.15 0.238209 7.01696 0
M  V30 12389 H 1183.99 1.32279 2.67032 0
M  V30 12390 H 1181.52 0.663485 1.31287 0
M  V30 12391 H 1183.48 -0.693759 4.11391 0
M  V30 12392 H 1182.11 -1.08278 3.04098 0
M  V30 12393 H 1181.16 1.27552 3.58378 0
M  V30 12394 H 1182.48 1.46421 4.76825 0
M  V30 12395 H 1181.63 -0.51547 6.04506 0
M  V30 12396 H 1180.37 -0.796563 4.81151 0
M  V30 12397 H 1179.37 1.45554 5.30183 0
M  V30 12398 H 1180.6 1.72571 6.56808 0
M  V30 12399 H 1178.54 -0.518129 6.53951 0
M  V30 12400 H 1178.46 0.919542 7.50387 0
M  V30 12401 H 1179.73 -0.234325 7.79148 0
M  V30 12402 N 1183.96 -1.40369 0.716545 0
M  V30 12403 C 1184.89 -2.33365 0.0793533 0
M  V30 12404 C 1185.87 -1.52943 -0.744482 0
M  V30 12405 O 1187.05 -1.81406 -0.693212 0
M  V30 12406 C 1184.18 -3.36928 -0.842429 0
M  V30 12407 C 1183.14 -4.2782 -0.124142 0
M  V30 12408 C 1182.46 -5.21928 -1.1617 0
M  V30 12409 C 1183.76 -5.12199 1.02224 0
M  V30 12410 H 1185.46 -2.86899 0.856115 0
M  V30 12411 H 1183 -1.37946 0.413138 0
M  V30 12412 H 1184.96 -4.00925 -1.29759 0
M  V30 12413 H 1183.68 -2.81791 -1.6511 0
M  V30 12414 H 1182.34 -3.65277 0.311201 0
M  V30 12415 H 1181.99 -4.63096 -1.96345 0
M  V30 12416 H 1181.69 -5.83582 -0.685978 0
M  V30 12417 H 1183.21 -5.88802 -1.61694 0
M  V30 12418 H 1184.63 -5.69644 0.646399 0
M  V30 12419 H 1183.02 -5.82901 1.4264 0
M  V30 12420 H 1184.09 -4.4812 1.85246 0
M  V30 12421 N 1185.44 -0.462799 -1.50652 0
M  V30 12422 C 1186.68 0.0948568 -2.01877 0
M  V30 12423 C 1187.01 1.4096 -1.34741 0
M  V30 12424 O 1186.28 1.89671 -0.49006 0
M  V30 12425 H 1184.86 0.0380453 -0.746031 0
M  V30 12426 H 1187.52 -0.611327 -1.85064 0
M  V30 12427 H 1186.61 0.252378 -3.11078 0
M  V30 12428 N 1186.91 1.56388 -0.195085 0
M  V30 12429 C 1187.88 2.17859 0.712053 0
M  V30 12430 C 1188.88 1.13304 1.141 0
M  V30 12431 O 1190.07 1.38689 1.05409 0
M  V30 12432 C 1187.2 2.78065 1.97213 0
M  V30 12433 H 1188.39 2.9938 0.176529 0
M  V30 12434 H 1185.95 1.56205 0.0545322 0
M  V30 12435 H 1186.68 2.00342 2.55017 0
M  V30 12436 H 1186.47 3.54603 1.67329 0
M  V30 12437 H 1187.96 3.25266 2.619 0
M  V30 12438 N 1188.39 -0.0785156 1.57404 0
M  V30 12439 C 1189.81 -0.433143 1.5361 0
M  V30 12440 C 1190.01 -1.79564 0.914283 0
M  V30 12441 O 1189.06 -2.47215 0.513899 0
M  V30 12442 C 1190.38 -0.380387 2.98284 0
M  V30 12443 C 1191.93 -0.461056 3.09586 0
M  V30 12444 C 1192.4 -0.438276 4.55898 0
M  V30 12445 N 1193.89 -0.498548 4.60509 0
M  V30 12446 C 1194.63 -0.503028 5.71189 0
M  V30 12447 N 1194.12 -0.462724 6.91253 0
M  V30 12448 N 1195.92 -0.549083 5.59412 0
M  V30 12449 H 1188.07 0.813724 1.96195 0
M  V30 12450 H 1190.33 0.304644 0.897717 0
M  V30 12451 H 1190.04 0.553932 3.4731 0
M  V30 12452 H 1189.91 -1.19313 3.57833 0
M  V30 12453 H 1192.3 -1.3858 2.60537 0
M  V30 12454 H 1192.38 0.380138 2.5296 0
M  V30 12455 H 1192.02 0.482588 5.05602 0
M  V30 12456 H 1191.95 -1.29691 5.1038 0
M  V30 12457 H 1194.44 -0.534219 3.74105 0
M  V30 12458 H 1194.76 -0.469883 7.7137 0
M  V30 12459 H 1193.1 -0.429515 6.93672 0
M  V30 12460 H 1196.29 -0.578215 4.64515 0
M  V30 12461 H 1196.46 -0.549105 6.45669 0
M  V30 12462 N 1189.87 -1.5367 -0.349747 0
M  V30 12463 C 1190.82 -1.81223 -1.42922 0
M  V30 12464 C 1191.79 -0.657536 -1.52531 0
M  V30 12465 O 1192.97 -0.90134 -1.68168 0
M  V30 12466 C 1190.11 -2.022 -2.79659 0
M  V30 12467 C 1189.23 -3.29915 -2.78891 0
M  V30 12468 C 1188.36 -3.40993 -4.07305 0
M  V30 12469 C 1187.4 -4.6268 -4.00741 0
M  V30 12470 N 1186.54 -4.70826 -5.20833 0
M  V30 12471 H 1191.38 -2.73328 -1.18727 0
M  V30 12472 H 1188.91 -1.35386 -0.57525 0
M  V30 12473 H 1190.87 -2.12351 -3.59114 0
M  V30 12474 H 1189.5 -1.13416 -3.0222 0
M  V30 12475 H 1188.55 -3.28637 -1.91577 0
M  V30 12476 H 1189.87 -4.19459 -2.69917 0
M  V30 12477 H 1189.02 -3.50542 -4.95182 0
M  V30 12478 H 1187.76 -2.49493 -4.19052 0
M  V30 12479 H 1186.76 -4.53215 -3.11249 0
M  V30 12480 H 1187.99 -5.55538 -3.90582 0
M  V30 12481 H 1185.93 -3.82233 -5.33136 0
M  V30 12482 H 1185.85 -5.54297 -5.14092 0
M  V30 12483 H 1187.12 -4.84677 -6.10499 0
M  V30 12484 N 1191.35 0.610423 -1.45298 0
M  V30 12485 C 1192.28 1.73207 -1.56594 0
M  V30 12486 C 1193.26 1.64893 -0.417651 0
M  V30 12487 O 1194.44 1.83336 -0.64043 0
M  V30 12488 C 1191.57 3.11803 -1.52959 0
M  V30 12489 C 1190.53 3.34925 -2.66475 0
M  V30 12490 C 1189.85 4.73764 -2.47894 0
M  V30 12491 C 1191.15 3.25456 -4.08504 0
M  V30 12492 H 1192.85 1.6401 -2.50482 0
M  V30 12493 H 1190.39 0.787621 -1.20551 0
M  V30 12494 H 1192.35 3.90065 -1.59458 0
M  V30 12495 H 1191.07 3.21833 -0.55599 0
M  V30 12496 H 1189.73 2.59051 -2.59399 0
M  V30 12497 H 1189.38 4.80524 -1.4868 0
M  V30 12498 H 1189.08 4.90191 -3.24016 0
M  V30 12499 H 1190.6 5.54231 -2.56243 0
M  V30 12500 H 1192.02 3.93597 -4.16839 0
M  V30 12501 H 1190.41 3.53414 -4.84994 0
M  V30 12502 H 1191.48 2.22939 -4.30612 0
M  V30 12503 N 1192.83 1.32541 0.852676 0
M  V30 12504 C 1194.1 1.1383 1.59067 0
M  V30 12505 C 1194.48 -0.300584 2.08949 0
M  V30 12506 O 1193.83 -1.29751 1.88088 0
M  V30 12507 C 1194.04 2.16758 2.73527 0
M  V30 12508 C 1195.39 2.50194 3.43057 0
M  V30 12509 O 1196.41 2.15319 2.83754 0
M  V30 12510 O 1195.27 3.09985 4.50079 0
M  V30 12511 H 1192.37 0.439379 0.700625 0
M  V30 12512 H 1194.91 1.44078 0.896632 0
M  V30 12513 H 1193.68 3.13469 2.34207 0
M  V30 12514 H 1193.31 1.87515 3.50605 0
M  V30 12515 O 1194.34 -0.990024 1.27596 0
M  V30 12516 H 1195.03 -1.61284 1.07271 0
M  V30 END ATOM
M  V30 BEGIN BOND
M  V30 END BOND
M  V30 END CTAB
M  END
$$$$
