drugbank_target|Q96L34 MAP/microtubule affinity-regulating kinase 4 (DB12010)
 OpenBabel12092121173D

  0  0  0     0  0            999 V3000
M  V30 BEGIN CTAB
M  V30 COUNTS 11617 11745 0 0 0
M  V30 BEGIN ATOM
M  V30 1 H -0.908 1.98254 -0.117106 0
M  V30 2 N 0 1.576 0 0
M  V30 3 C 0.933 2.03868 1.02534 0
M  V30 4 C 1.911 0.928543 1.3348 0
M  V30 5 O 3.095 1.19667 1.45644 0
M  V30 6 C 0.222 2.43627 2.35294 0
M  V30 7 C -0.732 3.65373 2.2001 0
M  V30 8 S 0.101 5.13292 1.52614 0
M  V30 9 C 1.257 5.56322 2.86805 0
M  V30 10 H 1.49 2.90518 0.631377 0
M  V30 11 H -0.977 1.52953 0.210867 0
M  V30 12 H 0.981 2.67203 3.11629 0
M  V30 13 H -0.358 1.57376 2.7183 0
M  V30 14 H -1.165 3.90944 3.18086 0
M  V30 15 H -1.563 3.418 1.51819 0
M  V30 16 H 0.729 5.58782 3.83104 0
M  V30 17 H 1.672 6.56266 2.65933 0
M  V30 18 H 2.08 4.83886 2.90714 0
M  V30 19 N 1.4781 -0.272755 1.55222 0
M  V30 20 C 2.7031 -1.02683 1.80197 0
M  V30 21 C 3.1281 -1.79142 0.573551 0
M  V30 22 O 2.4861 -1.74917 -0.476849 0
M  V30 23 C 2.5341 -1.9609 3.02624 0
M  V30 24 O 1.6381 -3.04863 2.77727 0
M  V30 25 H 0.9791 -0.293557 0.595584 0
M  V30 26 H 3.5091 -0.30159 2.02365 0
M  V30 27 H 3.5191 -2.38039 3.31363 0
M  V30 28 H 2.1941 -1.39851 3.91682 0
M  V30 29 H 0.7711 -2.67228 2.60084 0
M  V30 30 N 2.9562 -1.48159 -0.537278 0
M  V30 31 C 4.1812 -1.59707 -1.32319 0
M  V30 32 C 4.6062 -0.254859 -1.86365 0
M  V30 33 O 3.9642 0.772378 -1.64024 0
M  V30 34 C 4.0122 -2.6412 -2.45505 0
M  V30 35 O 3.1162 -2.20774 -3.48328 0
M  V30 36 H 2.4572 -0.535791 -0.392204 0
M  V30 37 H 4.9872 -1.94092 -0.647268 0
M  V30 38 H 4.9972 -2.85166 -2.91795 0
M  V30 39 H 3.6722 -3.61567 -2.05528 0
M  V30 40 H 2.2492 -2.09911 -3.08207 0
M  V30 41 N 4.4343 0.785586 -1.36625 0
M  V30 42 C 5.8503 1.08419 -1.17122 0
M  V30 43 C 6.0503 2.015 0.00208491 0
M  V30 44 O 5.1063 2.43551 0.666278 0
M  V30 45 C 6.4193 1.69498 -2.48377 0
M  V30 46 C 7.9673 1.81821 -2.54775 0
M  V30 47 C 8.4423 2.46315 -3.86126 0
M  V30 48 N 9.9333 2.53779 -3.87492 0
M  V30 49 C 10.6683 3.045 -4.85868 0
M  V30 50 N 10.1643 3.55499 -5.94637 0
M  V30 51 N 11.9573 3.03247 -4.73284 0
M  V30 52 H 4.1083 0.167264 -2.1174 0
M  V30 53 H 6.3713 0.13682 -0.938075 0
M  V30 54 H 6.0773 1.08571 -3.34522 0
M  V30 55 H 5.9513 2.6896 -2.64462 0
M  V30 56 H 8.3383 2.41884 -1.69045 0
M  V30 57 H 8.4193 0.811532 -2.42586 0
M  V30 58 H 8.0633 1.86895 -4.72263 0
M  V30 59 H 7.9933 3.47561 -3.95612 0
M  V30 60 H 10.4843 2.17672 -3.08913 0
M  V30 61 H 10.7973 3.92562 -6.65669 0
M  V30 62 H 9.1423 3.5364 -5.98301 0
M  V30 63 H 12.3333 2.62696 -3.87438 0
M  V30 64 H 12.5063 3.42467 -5.50109 0
M  V30 65 N 5.9124 1.20967 1.01018 0
M  V30 66 C 7.1404 1.04956 1.78303 0
M  V30 67 C 7.5554 -0.400915 1.84494 0
M  V30 68 O 6.9124 -1.27826 1.30257 0
M  V30 69 C 6.9634 1.63403 3.22462 0
M  V30 70 O 6.6844 3.02775 3.16637 0
M  V30 71 C 8.1854 1.52432 4.16268 0
M  V30 72 H 5.4054 0.368858 0.560522 0
M  V30 73 H 7.9494 1.60193 1.27116 0
M  V30 74 H 6.1044 1.1227 3.70775 0
M  V30 75 H 6.5184 3.30626 4.07169 0
M  V30 76 H 7.9924 1.98078 5.15237 0
M  V30 77 H 8.4694 0.477875 4.36592 0
M  V30 78 H 9.0754 2.02787 3.73841 0
M  V30 79 N 7.3905 -1.2043 1.01659 0
M  V30 80 C 8.6365 -1.90079 0.706963 0
M  V30 81 C 8.9695 -1.78648 -0.761474 0
M  V30 82 O 8.2445 -1.17069 -1.55323 0
M  V30 83 C 8.5275 -3.41469 1.14327 0
M  V30 84 C 8.3805 -3.61833 2.67201 0
M  V30 85 C 9.6995 -4.34261 0.714529 0
M  V30 86 H 6.8185 -0.690254 0.2583 0
M  V30 87 H 9.4605 -1.41826 1.26433 0
M  V30 88 H 7.6105 -3.82696 0.669056 0
M  V30 89 H 9.2825 -3.2986 3.22475 0
M  V30 90 H 7.5255 -3.05304 3.08175 0
M  V30 91 H 8.1965 -4.67955 2.92783 0
M  V30 92 H 10.6725 -4.00682 1.12221 0
M  V30 93 H 9.5485 -5.38806 1.04784 0
M  V30 94 H 9.8095 -4.40431 -0.383799 0
M  V30 95 N 8.8686 -0.792821 -1.36206 0
M  V30 96 C 9.7986 -0.207853 -2.32573 0
M  V30 97 C 10.7796 0.659055 -1.56813 0
M  V30 98 O 11.9646 0.592176 -1.84951 0
M  V30 99 C 9.0946 0.655449 -3.41059 0
M  V30 100 C 8.0486 -0.111842 -4.27854 0
M  V30 101 C 7.3746 0.872274 -5.27537 0
M  V30 102 C 8.6746 -1.30299 -5.05786 0
M  V30 103 H 10.3686 -1.01294 -2.81744 0
M  V30 104 H 7.9146 -0.48854 -1.3546 0
M  V30 105 H 9.8676 1.07464 -4.07467 0
M  V30 106 H 8.5916 1.49328 -2.90463 0
M  V30 107 H 7.2506 -0.512053 -3.63006 0
M  V30 108 H 6.8986 1.70523 -4.73214 0
M  V30 109 H 6.5986 0.363291 -5.86476 0
M  V30 110 H 8.1226 1.28996 -5.96818 0
M  V30 111 H 9.5366 -0.959379 -5.65216 0
M  V30 112 H 7.9336 -1.7455 -5.74154 0
M  V30 113 H 9.0036 -2.09663 -4.37229 0
M  V30 114 N 10.3467 1.47872 -0.545128 0
M  V30 115 C 11.3097 2.28337 0.198717 0
M  V30 116 C 12.3097 1.36255 0.853888 0
M  V30 117 O 13.4997 1.59003 0.711606 0
M  V30 118 C 10.6317 3.15585 1.28915 0
M  V30 119 H 11.8247 2.95567 -0.507941 0
M  V30 120 H 9.3777 1.53362 -0.301616 0
M  V30 121 H 10.1127 2.53019 2.02859 0
M  V30 122 H 9.8977 3.83337 0.824309 0
M  V30 123 H 11.3877 3.76243 1.81194 0
M  V30 124 N 11.8248 0.280983 1.55075 0
M  V30 125 C 13.2358 -0.215629 1.85451 0
M  V30 126 C 13.5868 -1.54991 1.203 0
M  V30 127 O 12.7118 -2.10699 0.493435 0
M  V30 128 C 13.3068 -0.398026 3.36454 0
M  V30 129 C 11.8658 -0.838866 3.66933 0
M  V30 130 C 11.0128 0.064458 2.77225 0
M  V30 131 H 13.9638 0.502601 1.50531 0
M  V30 132 H 13.9848 -1.23569 3.59876 0
M  V30 133 H 13.4968 0.573241 3.83843 0
M  V30 134 H 11.5978 -1.8214 3.25048 0
M  V30 135 H 11.7108 -0.672123 4.74362 0
M  V30 136 H 10.0748 -0.452863 2.50642 0
M  V30 137 H 10.8578 1.03172 3.2743 0
M  V30 138 N 13.3029 -1.57598 0.00835791 0
M  V30 139 C 14.5509 -1.90551 -0.6734 0
M  V30 140 C 14.8719 -0.883301 -1.73847 0
M  V30 141 O 14.1419 0.0781442 -1.95744 0
M  V30 142 H 12.7219 -0.703312 -0.251717 0
M  V30 143 H 15.3839 -1.94833 0.0512592 0
M  V30 144 H 14.4799 -2.9056 -1.13935 0
M  V30 145 N 14.781 0.264519 -1.55364 0
M  V30 146 C 15.729 1.34702 -1.89626 0
M  V30 147 C 16.723 1.50712 -0.773459 0
M  V30 148 O 17.929 1.52395 -0.957897 0
M  V30 149 H 14.304 0.450682 -0.601988 0
M  V30 150 H 16.275 1.0306 -2.80038 0
M  V30 151 C 15.024 2.6989 -2.19214 0
M  V30 152 H 14.347 2.58365 -3.05103 0
M  V30 153 H 15.787 3.44553 -2.47102 0
M  V30 154 C 14.246 3.21637 -1.00254 0
M  V30 155 O 14.776 4.00973 -0.241501 0
M  V30 156 N 12.982 2.7943 -0.797938 0
M  V30 157 H 12.529 2.15026 -1.4185 0
M  V30 158 H 12.487 3.144 -0.00363422 0
M  V30 159 N 16.2591 1.48442 0.529413 0
M  V30 160 C 17.5361 1.46978 1.29062 0
M  V30 161 C 17.9161 0.181769 2.10316 0
M  V30 162 O 17.2641 -0.836481 2.12639 0
M  V30 163 C 17.4741 2.7321 2.17157 0
M  V30 164 C 18.8221 3.21562 2.77278 0
M  V30 165 O 19.8461 2.74131 2.27444 0
M  V30 166 O 18.7051 4.04094 3.67927 0
M  V30 167 H 15.7991 0.587003 0.582543 0
M  V30 168 H 18.3451 1.60676 0.546021 0
M  V30 169 H 17.1171 3.58465 1.56903 0
M  V30 170 H 16.7401 2.62235 2.98862 0
M  V30 171 N 17.7372 -0.778329 1.37039 0
M  V30 172 C 19.1532 -1.07796 1.17695 0
M  V30 173 C 19.3532 -2.01498 0.00860115 0
M  V30 174 O 18.4092 -2.43901 -0.653352 0
M  V30 175 C 19.7222 -1.68178 2.49272 0
M  V30 176 C 21.2702 -1.80467 2.55735 0
M  V30 177 C 21.7452 -2.44263 3.87427 0
M  V30 178 N 23.2362 -2.51721 3.88833 0
M  V30 179 C 23.9712 -3.01919 4.87476 0
M  V30 180 N 23.4672 -3.5234 5.96513 0
M  V30 181 N 25.2602 -3.00733 4.74885 0
M  V30 182 H 17.4112 -0.156032 2.11826 0
M  V30 183 H 19.6742 -0.131844 0.938787 0
M  V30 184 H 19.3802 -1.06796 3.35093 0
M  V30 185 H 19.2542 -2.67554 2.65885 0
M  V30 186 H 21.6412 -2.40984 1.70325 0
M  V30 187 H 21.7222 -0.798656 2.43013 0
M  V30 188 H 21.3662 -1.84388 4.73248 0
M  V30 189 H 21.2962 -3.45458 3.9745 0
M  V30 190 H 23.7872 -2.1603 3.10063 0
M  V30 191 H 24.1002 -3.89027 6.67741 0
M  V30 192 H 22.4452 -3.50462 6.00168 0
M  V30 193 H 25.6362 -2.60638 3.88826 0
M  V30 194 H 25.8092 -3.39545 5.51918 0
M  V30 195 N 19.2153 -1.21501 -1.00376 0
M  V30 196 C 20.1633 -0.972442 -2.11297 0
M  V30 197 C 21.1573 0.080731 -1.69208 0
M  V30 198 O 22.3633 -0.0707666 -1.79861 0
M  V30 199 H 18.7383 -0.297218 -0.690772 0
M  V30 200 H 20.7093 -1.91394 -2.28934 0
M  V30 201 C 19.4583 -0.555065 -3.43241 0
M  V30 202 H 18.7813 -1.35709 -3.76062 0
M  V30 203 H 20.2213 -0.424664 -4.21868 0
M  V30 204 C 18.6803 0.734147 -3.28804 0
M  V30 205 O 19.2103 1.78937 -3.59645 0
M  V30 206 N 17.4163 0.701133 -2.82015 0
M  V30 207 H 16.9633 -0.157874 -2.57116 0
M  V30 208 H 16.9213 1.56403 -2.72737 0
M  V30 209 N 20.6934 1.19889 -1.02296 0
M  V30 210 C 21.9184 1.9393 -0.735237 0
M  V30 211 C 22.3434 1.74639 0.698782 0
M  V30 212 O 21.7014 1.04481 1.48167 0
M  V30 213 C 21.7494 3.43916 -1.08417 0
M  V30 214 O 20.8534 4.11917 -0.199446 0
M  V30 215 H 20.1944 0.605645 -0.272196 0
M  V30 216 H 22.7244 1.52137 -1.36804 0
M  V30 217 H 22.7344 3.9456 -1.03856 0
M  V30 218 H 21.4094 3.5728 -2.12894 0
M  V30 219 H 19.9864 3.71666 -0.303136 0
M  V30 220 N 22.1715 0.800033 1.35784 0
M  V30 221 C 23.4485 0.30088 1.93272 0
M  V30 222 C 23.8285 -1.20857 1.73081 0
M  V30 223 O 23.1765 -2.00502 1.09596 0
M  V30 224 C 23.3865 0.70511 3.41803 0
M  V30 225 C 24.7345 0.690871 4.18942 0
M  V30 226 O 25.7585 0.646244 3.50289 0
M  V30 227 O 24.6175 0.74332 5.41421 0
M  V30 228 H 21.7115 0.0771605 0.823393 0
M  V30 229 H 24.2575 0.88329 1.449 0
M  V30 230 H 23.0295 1.74571 3.50201 0
M  V30 231 H 22.6525 0.0971541 3.97481 0
M  V30 232 N 23.6496 -1.47581 0.552962 0
M  V30 233 C 24.8776 -2.06875 0.0320556 0
M  V30 234 C 25.2926 -1.40625 -1.25976 0
M  V30 235 O 24.6496 -0.501349 -1.75479 0
M  V30 236 C 24.7006 -3.61092 -0.17167 0
M  V30 237 O 24.4216 -4.24858 1.06899 0
M  V30 238 C 25.9226 -4.37242 -0.730344 0
M  V30 239 H 23.1426 -0.669561 0.043915 0
M  V30 240 H 25.6866 -1.89646 0.765163 0
M  V30 241 H 23.8416 -3.7785 -0.854894 0
M  V30 242 H 24.2556 -5.17334 0.864059 0
M  V30 243 H 25.7296 -5.45842 -0.822203 0
M  V30 244 H 26.2066 -4.03235 -1.74064 0
M  V30 245 H 26.8126 -4.25219 -0.0829543 0
M  V30 246 N 25.1277 -0.289203 -1.54924 0
M  V30 247 C 26.0777 0.606939 -2.19773 0
M  V30 248 C 27.0617 1.10783 -1.16687 0
M  V30 249 O 28.2537 1.05057 -1.4245 0
M  V30 250 C 25.3827 1.78398 -2.93307 0
M  V30 251 C 24.4687 1.29961 -4.03697 0
M  V30 252 N 24.8597 0.532377 -5.0299 0
M  V30 253 C 23.1577 1.58136 -4.17024 0
M  V30 254 C 23.8587 0.275912 -5.81045 0
M  V30 255 N 22.8347 0.852365 -5.36876 0
M  V30 256 H 26.6367 0.0130779 -2.93897 0
M  V30 257 H 24.1507 -0.09341 -1.62131 0
M  V30 258 H 26.1477 2.43741 -3.38225 0
M  V30 259 H 24.8077 2.38166 -2.20697 0
M  V30 260 H 25.8187 0.17838 -5.17593 0
M  V30 261 H 22.4957 2.18738 -3.55612 0
M  V30 262 H 23.8857 -0.339502 -6.71042 0
M  V30 263 N 26.6058 1.57591 -0.0167156 0
M  V30 264 C 27.8538 1.90906 0.663285 0
M  V30 265 C 28.1748 0.892509 1.73376 0
M  V30 266 O 27.4448 -0.0677623 1.95783 0
M  V30 267 H 26.0248 0.704637 0.247983 0
M  V30 268 H 28.6868 1.94803 -0.0615909 0
M  V30 269 H 27.7828 2.9116 1.12393 0
M  V30 270 N 28.0839 -0.256276 1.55502 0
M  V30 271 C 29.3119 -1.00342 1.8094 0
M  V30 272 C 29.7269 -1.79307 0.59114 0
M  V30 273 O 29.0839 -1.77114 -0.440081 0
M  V30 274 C 29.1349 -1.94875 3.04476 0
M  V30 275 O 28.8559 -1.19107 4.21598 0
M  V30 276 C 30.3569 -2.81266 3.42644 0
M  V30 277 H 27.5769 -0.295685 0.602338 0
M  V30 278 H 30.1209 -0.281998 2.02546 0
M  V30 279 H 28.2759 -2.62457 2.84947 0
M  V30 280 H 28.6899 -1.82969 4.91551 0
M  V30 281 H 30.1639 -3.43362 4.32211 0
M  V30 282 H 30.6409 -3.51897 2.62802 0
M  V30 283 H 31.2469 -2.1915 3.64491 0
M  V30 284 N 29.562 -1.4872 -0.521534 0
M  V30 285 C 30.492 -1.66771 -1.63431 0
M  V30 286 C 31.473 -0.516499 -1.62069 0
M  V30 287 O 32.658 -0.750013 -1.79132 0
M  V30 288 C 29.788 -1.71515 -3.01993 0
M  V30 289 C 28.742 -2.86222 -3.18216 0
M  V30 290 C 28.068 -2.76061 -4.57924 0
M  V30 291 C 29.368 -4.27419 -3.00184 0
M  V30 292 H 31.062 -2.59932 -1.48579 0
M  V30 293 H 28.608 -1.25089 -0.713358 0
M  V30 294 H 30.561 -1.82731 -3.7972 0
M  V30 295 H 29.285 -0.749393 -3.17886 0
M  V30 296 H 27.944 -2.74575 -2.42908 0
M  V30 297 H 27.592 -1.77437 -4.70665 0
M  V30 298 H 27.292 -3.53037 -4.69722 0
M  V30 299 H 28.816 -2.89256 -5.37739 0
M  V30 300 H 30.23 -4.39855 -3.67697 0
M  V30 301 H 28.627 -5.05458 -3.2347 0
M  V30 302 H 29.697 -4.43293 -1.96518 0
M  V30 303 N 31.0401 0.771051 -1.3745 0
M  V30 304 C 32.2881 1.52661 -1.32435 0
M  V30 305 C 32.6091 1.9479 0.0905024 0
M  V30 306 O 31.8791 1.66348 1.03466 0
M  V30 307 H 30.4591 0.566218 -0.487244 0
M  V30 308 H 33.1211 0.917636 -1.71946 0
M  V30 309 H 32.2171 2.42568 -1.96385 0
M  V30 310 N 32.5182 1.22032 0.997298 0
M  V30 311 C 33.7432 1.06921 1.77715 0
M  V30 312 C 34.1682 -0.376226 1.84299 0
M  V30 313 O 33.5262 -1.27165 1.29223 0
M  V30 314 C 33.5742 1.67996 3.19076 0
M  V30 315 O 32.6782 0.930653 4.01762 0
M  V30 316 H 32.0192 0.375814 0.547412 0
M  V30 317 H 34.5492 1.61737 1.25309 0
M  V30 318 H 34.5592 1.72538 3.69723 0
M  V30 319 H 33.2342 2.73182 3.13599 0
M  V30 320 H 31.8112 0.960917 3.60307 0
M  V30 321 N 33.9963 -1.19345 1.0293 0
M  V30 322 C 35.2443 -1.88665 0.724574 0
M  V30 323 C 35.5653 -1.80036 -0.749144 0
M  V30 324 O 34.8353 -1.2111 -1.53978 0
M  V30 325 H 33.4153 -0.698406 0.265025 0
M  V30 326 H 36.0773 -1.44885 1.30362 0
M  V30 327 H 35.1733 -2.94987 1.01926 0
M  V30 328 N 35.4744 -0.807222 -1.35358 0
M  V30 329 C 36.8904 -0.491038 -1.51858 0
M  V30 330 C 37.0904 0.987648 -1.75635 0
M  V30 331 O 36.1464 1.77265 -1.79815 0
M  V30 332 C 37.4594 -1.33695 -2.69344 0
M  V30 333 C 39.0074 -1.33246 -2.83222 0
M  V30 334 C 39.4824 -2.1625 -4.03733 0
M  V30 335 N 40.9734 -2.1379 -4.10911 0
M  V30 336 C 41.7084 -2.74772 -5.03277 0
M  V30 337 N 41.2044 -3.44684 -6.0097 0
M  V30 338 N 42.9974 -2.6441 -4.96028 0
M  V30 339 H 35.1484 -1.76485 -1.18181 0
M  V30 340 H 37.4114 -0.751199 -0.578276 0
M  V30 341 H 37.1174 -2.38634 -2.58354 0
M  V30 342 H 36.9914 -0.990618 -3.6396 0
M  V30 343 H 39.3784 -0.290911 -2.93663 0
M  V30 344 H 39.4594 -1.71866 -1.89461 0
M  V30 345 H 39.1034 -3.20445 -3.94052 0
M  V30 346 H 39.0334 -1.74989 -4.96675 0
M  V30 347 H 41.5244 -1.62923 -3.40976 0
M  V30 348 H 41.8374 -3.88501 -6.68047 0
M  V30 349 H 40.1824 -3.48788 -6.01142 0
M  V30 350 H 43.3734 -2.0938 -4.18662 0
M  V30 351 H 43.5464 -3.12225 -5.6782 0
M  V30 352 N 36.9525 1.47285 -0.560781 0
M  V30 353 C 38.1775 2.07359 -0.0410566 0
M  V30 354 C 38.6025 1.41017 1.24483 0
M  V30 355 O 37.9605 0.486368 1.74654 0
M  V30 356 C 38.0085 3.6035 0.134123 0
M  V30 357 O 37.1125 3.94681 1.19587 0
M  V30 358 H 36.4535 0.661887 -0.0529291 0
M  V30 359 H 38.9835 1.89252 -0.777482 0
M  V30 360 H 38.9935 4.0652 0.347207 0
M  V30 361 H 37.6685 4.08034 -0.805047 0
M  V30 362 H 36.2455 3.60251 0.962987 0
M  V30 363 N 38.4306 0.297415 1.54768 0
M  V30 364 C 39.6556 -0.318435 2.04941 0
M  V30 365 C 40.0806 -1.4701 1.17345 0
M  V30 366 O 39.4386 -1.80436 0.176758 0
M  V30 367 C 39.4866 -0.755749 3.52592 0
M  V30 368 O 38.5906 -1.86088 3.68028 0
M  V30 369 H 37.9316 -0.062421 0.661059 0
M  V30 370 H 40.4616 0.438215 1.99852 0
M  V30 371 H 40.4716 -1.04552 3.94376 0
M  V30 372 H 39.1466 0.0867233 4.1581 0
M  V30 373 H 37.7236 -1.57193 3.38149 0
M  V30 374 N 39.9087 -1.5758 0.0250728 0
M  V30 375 C 41.1857 -1.82917 -0.692873 0
M  V30 376 C 41.5657 -0.908137 -1.90568 0
M  V30 377 O 40.9137 0.0372298 -2.2847 0
M  V30 378 C 41.1237 -3.32034 -1.07492 0
M  V30 379 C 42.4717 -3.98406 -1.46826 0
M  V30 380 O 43.4957 -3.36505 -1.16801 0
M  V30 381 O 42.3547 -5.07497 -2.02754 0
M  V30 382 H 39.4487 -0.754079 -0.33955 0
M  V30 383 H 41.9947 -1.69619 0.0524456 0
M  V30 384 H 40.7667 -3.90728 -0.211552 0
M  V30 385 H 40.3897 -3.50424 -1.87854 0
M  V30 386 N 41.3868 0.248026 -1.55636 0
M  V30 387 C 42.3338 1.30707 -1.90222 0
M  V30 388 C 43.3038 1.47881 -0.756332 0
M  V30 389 O 44.4888 1.61883 -1.00988 0
M  V30 390 C 41.6288 2.65769 -2.20138 0
M  V30 391 C 40.7418 2.56612 -3.47526 0
M  V30 392 C 39.8768 3.8402 -3.67017 0
M  V30 393 C 38.9158 3.69476 -4.8801 0
M  V30 394 N 38.0528 4.88774 -5.04029 0
M  V30 395 H 42.8928 1.00512 -2.80538 0
M  V30 396 H 40.4298 0.485055 -1.38873 0
M  V30 397 H 42.3878 3.44386 -2.35487 0
M  V30 398 H 41.0178 2.94115 -1.33027 0
M  V30 399 H 40.0698 1.69571 -3.40514 0
M  V30 400 H 41.3818 2.41774 -4.36287 0
M  V30 401 H 40.5358 4.7108 -3.8232 0
M  V30 402 H 39.2748 4.01754 -2.76487 0
M  V30 403 H 38.2798 2.80799 -4.72686 0
M  V30 404 H 39.5048 3.53238 -5.8 0
M  V30 405 H 37.4508 5.0687 -4.16435 0
M  V30 406 H 37.3678 4.76562 -5.86877 0
M  V30 407 H 38.6358 5.77335 -5.23741 0
M  V30 408 N 42.8649 1.48995 0.513639 0
M  V30 409 C 44.1129 1.57531 1.26604 0
M  V30 410 C 44.4339 0.258236 1.93283 0
M  V30 411 O 43.7039 -0.721502 1.8213 0
M  V30 412 H 42.2839 0.580387 0.470276 0
M  V30 413 H 44.9459 1.85552 0.596373 0
M  V30 414 H 44.0419 2.36486 2.03669 0
M  V30 415 N 44.343 -0.763751 1.37857 0
M  V30 416 C 45.754 -1.3405 1.29952 0
M  V30 417 C 46.105 -1.96138 -0.0492898 0
M  V30 418 O 45.23 -1.94372 -0.951239 0
M  V30 419 C 45.825 -2.43729 2.35333 0
M  V30 420 C 44.384 -2.97151 2.31037 0
M  V30 421 C 43.531 -1.70438 2.18738 0
M  V30 422 H 46.482 -0.563396 1.48363 0
M  V30 423 H 46.503 -3.23412 2.00462 0
M  V30 424 H 46.015 -1.9851 3.33489 0
M  V30 425 H 44.116 -3.46724 1.3643 0
M  V30 426 H 44.229 -3.52221 3.24772 0
M  V30 427 H 42.593 -1.93673 1.65418 0
M  V30 428 H 43.376 -1.27312 3.18821 0
M  V30 429 N 45.8211 -1.22559 -0.990812 0
M  V30 430 C 47.0461 -1.07862 -1.77145 0
M  V30 431 C 47.4711 0.366447 -1.84496 0
M  V30 432 O 46.8291 1.26478 -1.29896 0
M  V30 433 C 46.8771 -1.69686 -3.18181 0
M  V30 434 O 45.9811 -0.951946 -4.01263 0
M  V30 435 H 45.3221 -0.378712 -0.545411 0
M  V30 436 H 47.8521 -1.62399 -1.2445 0
M  V30 437 H 47.8621 -1.74496 -3.68802 0
M  V30 438 H 46.5371 -2.74841 -3.12146 0
M  V30 439 H 45.1141 -0.980011 -3.59792 0
M  V30 440 N 47.2992 1.18797 -1.03562 0
M  V30 441 C 48.5452 1.89192 -0.746867 0
M  V30 442 C 48.9002 1.78531 0.717245 0
M  V30 443 O 48.1932 1.17137 1.51622 0
M  V30 444 C 48.3872 3.38692 -1.14117 0
M  V30 445 C 48.2162 3.63902 -2.64207 0
M  V30 446 C 46.9862 3.81553 -3.31279 0
M  V30 447 C 49.1842 3.64903 -3.62423 0
M  V30 448 N 47.1662 3.94455 -4.70402 0
M  V30 449 C 48.5372 3.83458 -4.87196 0
M  V30 450 C 50.5922 3.47965 -3.56125 0
M  V30 451 C 49.2952 3.86829 -6.06429 0
M  V30 452 C 51.3212 3.52616 -4.7478 0
M  V30 453 C 50.6832 3.71663 -5.9837 0
M  V30 454 H 46.7822 0.711141 -0.325273 0
M  V30 455 H 49.3662 1.42727 -1.32428 0
M  V30 456 H 47.5372 3.83864 -0.591889 0
M  V30 457 H 49.2692 3.96634 -0.803966 0
M  V30 458 H 46.0242 3.80723 -2.81686 0
M  V30 459 H 46.4482 4.0474 -5.42692 0
M  V30 460 H 51.0902 3.32189 -2.61553 0
M  V30 461 H 48.8082 4.01395 -7.01362 0
M  V30 462 H 52.3942 3.40791 -4.71543 0
M  V30 463 H 51.2742 3.75145 -6.88648 0
M  V30 464 N 48.7773 0.814389 1.34928 0
M  V30 465 C 50.0023 0.410097 2.03305 0
M  V30 466 C 50.4273 -0.973464 1.60951 0
M  V30 467 O 49.7853 -1.63185 0.789964 0
M  V30 468 C 49.8333 0.51049 3.56968 0
M  V30 469 O 48.9373 -0.473035 4.09678 0
M  V30 470 H 48.2783 0.170088 0.641846 0
M  V30 471 H 50.8083 1.10244 1.72358 0
M  V30 472 H 50.8183 0.383135 4.06197 0
M  V30 473 H 49.4933 1.51963 3.87144 0
M  V30 474 H 48.0703 -0.305272 3.71648 0
M  V30 475 N 50.2554 -1.46986 0.568584 0
M  V30 476 C 51.4804 -2.07335 0.0520528 0
M  V30 477 C 51.9054 -1.41675 -1.23733 0
M  V30 478 O 51.2634 -0.495623 -1.74394 0
M  V30 479 C 51.3114 -3.60417 -0.11501 0
M  V30 480 O 50.4154 -3.95309 -1.17492 0
M  V30 481 H 49.7564 -0.661597 0.0564385 0
M  V30 482 H 52.2864 -1.88837 0.787507 0
M  V30 483 H 52.2964 -4.06698 -0.325644 0
M  V30 484 H 50.9714 -4.07601 0.826675 0
M  V30 485 H 49.5484 -3.60757 -0.943869 0
M  V30 486 N 51.7335 -0.305618 -1.54608 0
M  V30 487 C 53.1495 0.0476228 -1.59529 0
M  V30 488 C 53.3495 1.52025 -1.32252 0
M  V30 489 O 52.4055 2.27368 -1.09818 0
M  V30 490 C 53.7185 -0.354471 -2.98603 0
M  V30 491 C 55.2665 -0.303622 -3.11524 0
M  V30 492 C 55.7415 -0.680608 -4.52915 0
M  V30 493 N 57.2325 -0.63332 -4.5885 0
M  V30 494 C 57.9675 -0.897432 -5.66334 0
M  V30 495 N 57.4635 -1.22775 -6.81834 0
M  V30 496 N 59.2565 -0.824186 -5.56025 0
M  V30 497 H 51.4075 -1.2653 -1.70599 0
M  V30 498 H 53.6705 -0.513291 -0.797017 0
M  V30 499 H 53.3765 -1.3798 -3.23503 0
M  V30 500 H 53.2505 0.289568 -3.76087 0
M  V30 501 H 55.6375 0.712472 -2.8637 0
M  V30 502 H 55.7185 -0.982348 -2.36185 0
M  V30 503 H 55.3625 -1.69453 -4.78799 0
M  V30 504 H 55.2925 0.0202385 -5.26596 0
M  V30 505 H 57.7835 -0.389138 -3.75891 0
M  V30 506 H 58.0965 -1.41513 -7.59733 0
M  V30 507 H 56.4415 -1.26583 -6.83375 0
M  V30 508 H 59.6325 -0.565748 -4.64669 0
M  V30 509 H 59.8055 -1.03338 -6.39707 0
M  V30 510 N 53.2116 1.57565 -0.0334293 0
M  V30 511 C 54.4366 1.96689 0.657895 0
M  V30 512 C 54.8616 0.910057 1.64619 0
M  V30 513 O 54.2196 -0.128598 1.80843 0
M  V30 514 C 54.2676 3.34905 1.33683 0
M  V30 515 O 53.3716 3.31574 2.45219 0
M  V30 516 H 52.7126 0.641205 0.172489 0
M  V30 517 H 55.2426 2.04372 -0.0965621 0
M  V30 518 H 55.2526 3.71234 1.69262 0
M  V30 519 H 53.9276 4.11366 0.612411 0
M  V30 520 H 52.5046 3.06968 2.11719 0
M  V30 521 N 54.6897 -0.239769 1.55765 0
M  V30 522 C 55.6197 -1.30052 1.9393 0
M  V30 523 C 56.6007 -1.49839 0.805132 0
M  V30 524 O 57.7857 -1.62328 1.06599 0
M  V30 525 C 54.9157 -2.65391 2.2402 0
M  V30 526 C 53.8697 -2.60289 3.39755 0
M  V30 527 C 53.1957 -3.99489 3.55405 0
M  V30 528 C 54.4957 -2.16654 4.75246 0
M  V30 529 H 56.1897 -0.983573 2.82783 0
M  V30 530 H 53.7357 -0.471701 1.36055 0
M  V30 531 H 55.6887 -3.3974 2.49308 0
M  V30 532 H 54.4127 -2.98736 1.32 0
M  V30 533 H 53.0717 -1.88398 3.14487 0
M  V30 534 H 52.7197 -4.30112 2.60793 0
M  V30 535 H 52.4197 -3.96962 4.33238 0
M  V30 536 H 53.9437 -4.75528 3.83022 0
M  V30 537 H 55.3577 -2.80737 4.99859 0
M  V30 538 H 53.7547 -2.25223 5.56232 0
M  V30 539 H 54.8247 -1.11835 4.71827 0
M  V30 540 N 56.1678 -1.49265 -0.50573 0
M  V30 541 C 57.4158 -1.582 -1.25766 0
M  V30 542 C 57.7368 -0.268482 -1.93143 0
M  V30 543 O 57.0068 0.711833 -1.8251 0
M  V30 544 H 55.5868 -0.582873 -0.467191 0
M  V30 545 H 58.2488 -1.85865 -0.586525 0
M  V30 546 H 57.3448 -2.37563 -2.02412 0
M  V30 547 N 57.6459 0.756429 -1.3826 0
M  V30 548 C 58.6089 1.85176 -1.35065 0
M  V30 549 C 59.6089 1.58818 -0.251703 0
M  V30 550 O 60.7989 1.66615 -0.508433 0
M  V30 551 C 57.9309 3.22596 -1.10201 0
M  V30 552 H 59.1239 1.89417 -2.3251 0
M  V30 553 H 56.6769 0.95783 -1.23512 0
M  V30 554 H 57.4119 3.24025 -0.133504 0
M  V30 555 H 57.1969 3.43122 -1.89762 0
M  V30 556 H 58.6869 4.02673 -1.10654 0
M  V30 557 N 59.124 1.23083 0.984299 0
M  V30 558 C 60.54 0.992637 1.24975 0
M  V30 559 C 60.74 -0.308618 1.99123 0
M  V30 560 O 59.796 -1.02905 2.30579 0
M  V30 561 C 61.109 2.19698 2.05312 0
M  V30 562 C 62.657 2.24147 2.18465 0
M  V30 563 C 63.132 3.44157 3.02192 0
M  V30 564 N 64.623 3.44372 3.09777 0
M  V30 565 C 65.358 4.33886 3.74874 0
M  V30 566 N 64.854 5.3363 4.41827 0
M  V30 567 N 66.647 4.21639 3.71721 0
M  V30 568 H 58.798 2.06731 0.487453 0
M  V30 569 H 61.061 0.906339 0.277944 0
M  V30 570 H 60.767 3.1411 1.58201 0
M  V30 571 H 60.641 2.20465 3.06064 0
M  V30 572 H 63.028 1.30277 2.64786 0
M  V30 573 H 63.109 2.27415 1.17115 0
M  V30 574 H 62.753 4.38332 2.56568 0
M  V30 575 H 62.683 3.3813 4.03702 0
M  V30 576 H 65.174 2.72201 2.62135 0
M  V30 577 H 65.487 5.98196 4.89266 0
M  V30 578 H 63.832 5.37534 4.40548 0
M  V30 579 H 67.023 3.42962 3.18582 0
M  V30 580 H 67.196 4.91604 4.22173 0
M  V30 581 N 60.6021 -1.18246 1.0419 0
M  V30 582 C 61.8421 -1.89948 0.754916 0
M  V30 583 C 62.2061 -1.78608 -0.70451 0
M  V30 584 O 63.4071 -2.4503 -1.10516 0
M  V30 585 C 61.6781 -3.36305 1.20969 0
M  V30 586 S 63.2371 -4.26088 1.04854 0
M  V30 587 H 60.0551 -0.655897 0.274446 0
M  V30 588 H 62.6571 -1.42873 1.33445 0
M  V30 589 H 61.3611 -3.42089 2.26722 0
M  V30 590 H 60.8921 -3.8842 0.624004 0
M  V30 591 H 62.9071 -4.96189 -0.0332896 0
M  V30 592 N 62.0802 -0.821533 -1.34494 0
M  V30 593 C 63.4962 -0.507117 -1.51329 0
M  V30 594 C 63.6962 0.968964 -1.76673 0
M  V30 595 O 62.7522 1.75348 -1.81685 0
M  V30 596 C 64.0652 -1.36544 -2.67911 0
M  V30 597 C 65.6132 -1.36242 -2.81793 0
M  V30 598 C 66.0882 -2.2052 -4.01416 0
M  V30 599 N 67.5792 -2.18136 -4.08621 0
M  V30 600 C 68.3142 -2.80095 -5.00334 0
M  V30 601 N 67.8102 -3.51039 -5.9728 0
M  V30 602 N 69.6032 -2.69656 -4.93196 0
M  V30 603 H 61.7542 -1.77729 -1.16302 0
M  V30 604 H 64.0172 -0.757291 -0.570276 0
M  V30 605 H 63.7232 -2.41361 -2.55808 0
M  V30 606 H 63.5972 -1.02917 -3.62888 0
M  V30 607 H 65.9842 -0.322041 -2.93338 0
M  V30 608 H 66.0652 -1.73866 -1.87628 0
M  V30 609 H 65.7092 -3.24607 -3.90631 0
M  V30 610 H 65.6392 -1.80247 -4.94791 0
M  V30 611 H 68.1302 -1.6653 -3.39229 0
M  V30 612 H 68.4432 -3.95565 -6.63889 0
M  V30 613 H 66.7882 -3.55145 -5.97409 0
M  V30 614 H 69.9792 -2.13808 -4.16418 0
M  V30 615 H 70.1522 -3.1823 -5.64476 0
M  V30 616 N 63.5583 1.46682 -0.576371 0
M  V30 617 C 64.5063 2.31953 0.17335 0
M  V30 618 C 65.5003 1.44098 0.89062 0
M  V30 619 O 66.7063 1.60759 0.809728 0
M  V30 620 H 63.0813 0.748273 0.0747727 0
M  V30 621 H 65.0523 2.93007 -0.564738 0
M  V30 622 C 63.8013 3.27142 1.17786 0
M  V30 623 H 63.1243 3.94719 0.635361 0
M  V30 624 H 64.5643 3.896 1.67296 0
M  V30 625 C 63.0233 2.52036 2.23561 0
M  V30 626 O 63.5533 2.27877 3.3081 0
M  V30 627 N 61.7593 2.12709 1.97998 0
M  V30 628 H 61.3063 2.32557 1.10792 0
M  V30 629 H 61.2643 1.62776 2.68982 0
M  V30 630 N 65.0364 0.313813 1.54444 0
M  V30 631 C 66.2614 -0.296681 2.05267 0
M  V30 632 C 66.6864 -1.45757 1.18897 0
M  V30 633 O 66.0444 -1.80239 0.195886 0
M  V30 634 C 66.0924 -0.71831 3.53373 0
M  V30 635 O 65.1964 -1.82175 3.69981 0
M  V30 636 H 64.5374 -0.0554061 0.661684 0
M  V30 637 H 67.0674 0.459387 1.99376 0
M  V30 638 H 67.0774 -1.00364 3.95463 0
M  V30 639 H 65.7524 0.130821 4.15694 0
M  V30 640 H 64.3294 -1.53598 3.39797 0
M  V30 641 N 66.5145 -1.57545 0.0417849 0
M  V30 642 C 67.7635 -1.91494 -0.633492 0
M  V30 643 C 68.0765 -0.921084 -1.72556 0
M  V30 644 O 69.2825 -1.15228 -2.45835 0
M  V30 645 C 67.7385 -3.40072 -1.17808 0
M  V30 646 C 67.3465 -4.47843 -0.118633 0
M  V30 647 C 69.0905 -3.8307 -1.82915 0
M  V30 648 C 66.9975 -5.87529 -0.675578 0
M  V30 649 H 65.9275 -0.714653 -0.24039 0
M  V30 650 H 68.5785 -1.83175 0.109148 0
M  V30 651 H 66.9605 -3.43364 -1.97274 0
M  V30 652 H 68.1345 -4.56128 0.654494 0
M  V30 653 H 66.4495 -4.14128 0.434414 0
M  V30 654 H 69.0465 -4.84794 -2.25563 0
M  V30 655 H 69.3895 -3.1881 -2.67705 0
M  V30 656 H 69.9225 -3.82255 -1.10119 0
M  V30 657 H 66.6615 -6.55362 0.134475 0
M  V30 658 H 66.1815 -5.82824 -1.4169 0
M  V30 659 H 67.8605 -6.36491 -1.1614 0
M  V30 660 N 67.9926 0.231505 -1.5589 0
M  V30 661 C 68.9556 1.27028 -1.90779 0
M  V30 662 C 69.9556 1.40308 -0.785507 0
M  V30 663 O 71.1456 1.38744 -1.05336 0
M  V30 664 C 68.2776 2.64566 -2.14983 0
M  V30 665 H 69.4706 0.973017 -2.83677 0
M  V30 666 H 67.0236 0.471486 -1.49019 0
M  V30 667 H 67.7586 2.99406 -1.24604 0
M  V30 668 H 67.5436 2.56305 -2.96732 0
M  V30 669 H 69.0336 3.39543 -2.43105 0
M  V30 670 N 69.4707 1.49531 0.497807 0
M  V30 671 C 70.6957 1.63159 1.28039 0
M  V30 672 C 71.1207 0.30418 1.85624 0
M  V30 673 O 70.4787 -0.728618 1.66015 0
M  V30 674 C 70.5267 2.70537 2.38416 0
M  V30 675 O 69.6307 2.29931 3.42353 0
M  V30 676 H 68.9717 0.546001 0.377861 0
M  V30 677 H 71.5017 1.9574 0.59558 0
M  V30 678 H 71.5117 2.92802 2.84132 0
M  V30 679 H 70.1867 3.6689 1.95869 0
M  V30 680 H 68.7637 2.18009 3.02533 0
M  V30 681 N 70.9488 -0.749086 1.3866 0
M  V30 682 C 72.1888 -1.52112 1.36534 0
M  V30 683 C 72.5528 -1.91951 -0.0432316 0
M  V30 684 O 73.7538 -2.68132 -0.189396 0
M  V30 685 C 72.0248 -2.73704 2.29828 0
M  V30 686 S 73.5838 -3.63519 2.45763 0
M  V30 687 H 70.4018 -0.520482 0.484375 0
M  V30 688 H 73.0038 -0.878963 1.74627 0
M  V30 689 H 71.7078 -2.42552 3.31054 0
M  V30 690 H 71.2388 -3.4286 1.929 0
M  V30 691 H 73.2538 -4.66712 1.68505 0
M  V30 692 N 72.4269 -1.23603 -0.977757 0
M  V30 693 C 73.8379 -1.06424 -1.53398 0
M  V30 694 C 74.1889 0.367578 -1.92726 0
M  V30 695 O 73.3139 1.25465 -1.76316 0
M  V30 696 C 73.9089 -1.92568 -2.78753 0
M  V30 697 C 72.4679 -1.79642 -3.30765 0
M  V30 698 C 71.6149 -1.88111 -2.03739 0
M  V30 699 H 74.5659 -1.37227 -0.797152 0
M  V30 700 H 74.5869 -1.45203 -3.51705 0
M  V30 701 H 74.0989 -2.96771 -2.50098 0
M  V30 702 H 72.1999 -0.782325 -3.64294 0
M  V30 703 H 72.3129 -2.63174 -4.00345 0
M  V30 704 H 70.6769 -1.31723 -2.17994 0
M  V30 705 H 71.4599 -2.93875 -1.77461 0
M  V30 706 N 73.905 1.17692 -1.04816 0
M  V30 707 C 74.815 2.25229 -0.65643 0
M  V30 708 C 75.831 1.71018 0.320761 0
M  V30 709 O 77.007 2.00649 0.173805 0
M  V30 710 C 74.072 3.46684 -0.0332629 0
M  V30 711 C 73.133 4.15997 -1.06042 0
M  V30 712 C 72.366 5.31654 -0.466893 0
M  V30 713 O 72.589 5.65777 0.724758 0
M  V30 714 O 71.523 5.89831 -1.1993 0
M  V30 715 H 75.349 2.61016 -1.55255 0
M  V30 716 H 72.934 1.24919 -0.81949 0
M  V30 717 H 74.816 4.20234 0.313256 0
M  V30 718 H 73.491 3.12703 0.836566 0
M  V30 719 H 72.398 3.44482 -1.45886 0
M  V30 720 H 73.731 4.53996 -1.90127 0
M  V30 721 N 75.3831 0.828654 1.34056 0
M  V30 722 C 76.2931 0.256725 2.33191 0
M  V30 723 C 77.3091 -0.611898 1.62886 0
M  V30 724 O 78.4851 -0.51844 1.94613 0
M  V30 725 C 75.5501 -0.567238 3.42028 0
M  V30 726 C 74.6111 0.324458 4.28072 0
M  V30 727 C 73.8441 -0.460274 5.31712 0
M  V30 728 O 74.0671 -1.693 5.44696 0
M  V30 729 O 73.0011 0.160391 6.01686 0
M  V30 730 H 76.8271 1.07739 2.83947 0
M  V30 731 H 74.4121 0.59093 1.37217 0
M  V30 732 H 76.2941 -1.03582 4.08471 0
M  V30 733 H 74.9691 -1.36513 2.93506 0
M  V30 734 H 73.8761 0.840659 3.64532 0
M  V30 735 H 75.2091 1.08685 4.8005 0
M  V30 736 N 76.8612 -1.46375 0.584142 0
M  V30 737 C 77.7932 -2.28443 -0.186119 0
M  V30 738 C 78.8062 -1.38596 -0.854115 0
M  V30 739 O 79.9952 -1.63183 -0.723438 0
M  V30 740 C 77.0952 -3.13671 -1.28311 0
M  V30 741 C 76.2682 -4.31652 -0.706758 0
M  V30 742 C 75.3272 -4.98267 -1.69163 0
M  V30 743 O 74.3532 -5.55815 -1.22712 0
M  V30 744 N 75.5552 -4.95408 -3.02575 0
M  V30 745 H 78.3202 -2.9519 0.517986 0
M  V30 746 H 75.8812 -1.56303 0.42201 0
M  V30 747 H 77.8732 -3.55101 -1.94128 0
M  V30 748 H 76.4432 -2.48989 -1.89005 0
M  V30 749 H 75.6632 -3.93989 0.128908 0
M  V30 750 H 76.9512 -5.07906 -0.301506 0
M  V30 751 H 76.3492 -4.49902 -3.42936 0
M  V30 752 H 74.9062 -5.40774 -3.63877 0
M  V30 753 N 78.3393 -0.321999 -1.54275 0
M  V30 754 C 79.7503 0.166384 -1.85957 0
M  V30 755 C 80.1013 1.51747 -1.24367 0
M  V30 756 O 79.2263 2.09317 -0.549124 0
M  V30 757 C 79.8213 0.308681 -3.37391 0
M  V30 758 C 78.3803 0.741286 -3.69028 0
M  V30 759 C 77.5273 -0.137937 -2.76957 0
M  V30 760 H 80.4783 -0.542335 -1.49146 0
M  V30 761 H 80.4993 1.13984 -3.63026 0
M  V30 762 H 80.0113 -0.674809 -3.82188 0
M  V30 763 H 78.1123 1.73458 -3.29762 0
M  V30 764 H 78.2253 0.546118 -4.75977 0
M  V30 765 H 76.5893 0.386251 -2.51754 0
M  V30 766 H 77.3723 -1.11816 -3.2458 0
M  V30 767 N 79.8174 1.5752 -0.0501392 0
M  V30 768 C 80.7674 2.07981 0.934231 0
M  V30 769 C 81.7514 0.984745 1.27246 0
M  V30 770 O 82.9434 1.24809 1.25506 0
M  V30 771 C 80.0724 2.62751 2.20945 0
M  V30 772 C 79.1584 3.79225 1.89865 0
M  V30 773 N 79.5494 4.89036 1.29142 0
M  V30 774 C 77.8474 3.88111 2.19741 0
M  V30 775 C 78.5484 5.70084 1.15669 0
M  V30 776 N 77.5244 5.17659 1.65923 0
M  V30 777 H 81.3264 2.90277 0.460053 0
M  V30 778 H 78.8404 1.61665 0.15434 0
M  V30 779 H 80.8374 2.97205 2.9236 0
M  V30 780 H 79.4974 1.81894 2.6897 0
M  V30 781 H 80.5084 5.08854 0.963756 0
M  V30 782 H 77.1854 3.18194 2.70293 0
M  V30 783 H 78.5754 6.68395 0.685356 0
M  V30 784 N 81.2955 -0.223234 1.56011 0
M  V30 785 C 82.5415 -0.949279 1.79211 0
M  V30 786 C 82.8745 -1.84054 0.619494 0
M  V30 787 O 82.1495 -1.90726 -0.381317 0
M  V30 788 C 82.4325 -1.78965 3.12479 0
M  V30 789 C 82.2855 -0.924997 4.40186 0
M  V30 790 C 83.6045 -2.76774 3.42175 0
M  V30 791 H 80.7235 -0.343676 0.651963 0
M  V30 792 H 83.3655 -0.218253 1.88742 0
M  V30 793 H 81.5155 -2.41291 3.04485 0
M  V30 794 H 83.1875 -0.318615 4.60198 0
M  V30 795 H 81.4305 -0.230344 4.33188 0
M  V30 796 H 82.1015 -1.54735 5.29869 0
M  V30 797 H 84.5775 -2.24584 3.50287 0
M  V30 798 H 83.4535 -3.32678 4.36597 0
M  V30 799 H 83.7145 -3.54429 2.64258 0
M  V30 800 N 82.7736 -1.49793 -0.48987 0
M  V30 801 C 84.0216 -1.59525 -1.24081 0
M  V30 802 C 84.3426 -0.288953 -1.92847 0
M  V30 803 O 83.6126 0.692436 -1.83254 0
M  V30 804 H 82.1926 -0.587796 -0.460983 0
M  V30 805 H 84.8546 -1.86477 -0.566778 0
M  V30 806 H 83.9506 -2.39696 -1.99881 0
M  V30 807 N 84.2517 0.741722 -1.39055 0
M  V30 808 C 85.1997 1.87702 -1.3737 0
M  V30 809 C 86.1937 1.67427 -0.257812 0
M  V30 810 O 87.3997 1.7485 -0.427489 0
M  V30 811 H 83.7747 0.617757 -0.428812 0
M  V30 812 H 85.7457 1.86239 -2.33147 0
M  V30 813 C 84.4947 3.25315 -1.22741 0
M  V30 814 H 83.8177 3.41509 -2.07873 0
M  V30 815 H 85.2577 4.04964 -1.25618 0
M  V30 816 C 83.7167 3.36838 0.0647316 0
M  V30 817 O 84.2467 3.88073 1.03741 0
M  V30 818 N 82.4527 2.90329 0.125544 0
M  V30 819 H 81.9997 2.48823 -0.666682 0
M  V30 820 H 81.9577 2.98418 0.989639 0
M  V30 821 N 85.7298 1.2412 0.971189 0
M  V30 822 C 86.9598 1.10415 1.7462 0
M  V30 823 C 87.3678 -0.346462 1.86001 0
M  V30 824 O 86.7108 -1.25104 1.34517 0
M  V30 825 C 86.7728 1.66596 3.18568 0
M  V30 826 C 86.4368 3.15446 3.3067 0
M  V30 827 C 87.4338 4.12636 3.16271 0
M  V30 828 C 85.1188 3.55337 3.55022 0
M  V30 829 C 87.1128 5.47699 3.26044 0
M  V30 830 C 84.7998 4.90542 3.64434 0
M  V30 831 C 85.7978 5.86532 3.49956 0
M  V30 832 O 85.4858 7.19279 3.59017 0
M  V30 833 H 85.2178 0.386616 0.55453 0
M  V30 834 H 87.7718 1.64633 1.22821 0
M  V30 835 H 86.0018 1.06808 3.71657 0
M  V30 836 H 87.6908 1.48232 3.77865 0
M  V30 837 H 88.4568 3.8316 2.97344 0
M  V30 838 H 84.3358 2.8113 3.65359 0
M  V30 839 H 87.8798 6.22603 3.14661 0
M  V30 840 H 83.7768 5.19691 3.82873 0
M  V30 841 H 84.5448 7.27153 3.75754 0
M  V30 842 N 87.2079 -1.17134 1.05439 0
M  V30 843 C 88.6239 -1.39454 0.776201 0
M  V30 844 C 88.8239 -1.91454 -0.628307 0
M  V30 845 O 87.8799 -2.10777 -1.39031 0
M  V30 846 C 89.1929 -2.38305 1.83388 0
M  V30 847 C 90.7409 -2.52006 1.85639 0
M  V30 848 C 91.2159 -3.54133 2.90437 0
M  V30 849 N 92.7069 -3.61653 2.89415 0
M  V30 850 C 93.4419 -4.4044 3.67152 0
M  V30 851 N 92.9379 -5.22721 4.54681 0
M  V30 852 N 94.7309 -4.35337 3.55581 0
M  V30 853 H 86.8819 -0.817134 1.96053 0
M  V30 854 H 89.1449 -0.421626 0.849079 0
M  V30 855 H 88.8509 -2.07173 2.84204 0
M  V30 856 H 88.7249 -3.37841 1.67761 0
M  V30 857 H 91.1119 -2.82447 0.85486 0
M  V30 858 H 91.1929 -1.52537 2.05344 0
M  V30 859 H 90.8369 -3.24431 3.90777 0
M  V30 860 H 90.7669 -4.53313 2.67983 0
M  V30 861 H 93.2579 -3.02909 2.25952 0
M  V30 862 H 93.5709 -5.80027 5.10674 0
M  V30 863 H 91.9159 -5.22093 4.58741 0
M  V30 864 H 95.1069 -3.70112 2.86592 0
M  V30 865 H 95.2799 -4.96494 4.1641 0
M  V30 866 N 88.686 -0.835752 -1.33615 0
M  V30 867 C 89.616 -0.281739 -2.31794 0
M  V30 868 C 90.597 0.608833 -1.58831 0
M  V30 869 O 91.782 0.533035 -1.86741 0
M  V30 870 C 88.912 0.546612 -3.42971 0
M  V30 871 C 87.866 -0.247904 -4.27281 0
M  V30 872 C 87.192 0.704001 -5.30045 0
M  V30 873 C 88.492 -1.46324 -5.01385 0
M  V30 874 H 90.186 -1.10206 -2.78379 0
M  V30 875 H 87.732 -0.531388 -1.33837 0
M  V30 876 H 89.685 0.944467 -4.1068 0
M  V30 877 H 88.409 1.40011 -2.95067 0
M  V30 878 H 87.068 -0.627281 -3.61194 0
M  V30 879 H 86.716 1.55381 -4.78399 0
M  V30 880 H 86.416 0.176524 -5.87335 0
M  V30 881 H 87.94 1.09944 -6.0062 0
M  V30 882 H 89.354 -1.13871 -5.61877 0
M  V30 883 H 87.751 -1.92728 -5.6831 0
M  V30 884 H 88.821 -2.23467 -4.30338 0
M  V30 885 N 90.1641 1.46063 -0.591896 0
M  V30 886 C 91.0941 2.33172 0.123673 0
M  V30 887 C 92.0751 1.45897 0.87453 0
M  V30 888 O 93.2601 1.74698 0.848181 0
M  V30 889 C 90.3901 3.28336 1.13194 0
M  V30 890 C 89.3441 4.25124 0.495324 0
M  V30 891 C 88.6701 5.09863 1.61071 0
M  V30 892 C 89.9701 5.19143 -0.573425 0
M  V30 893 H 91.6641 2.93252 -0.603646 0
M  V30 894 H 89.2101 1.41014 -0.291741 0
M  V30 895 H 91.1631 3.88137 1.64097 0
M  V30 896 H 89.8871 2.66383 1.88965 0
M  V30 897 H 88.5461 3.66599 0.00729452 0
M  V30 898 H 88.1941 4.44288 2.35832 0
M  V30 899 H 87.8941 5.75417 1.19035 0
M  V30 900 H 89.4181 5.72529 2.12233 0
M  V30 901 H 90.8321 5.73106 -0.1491 0
M  V30 902 H 89.2291 5.93089 -0.914636 0
M  V30 903 H 90.2991 4.62519 -1.45617 0
M  V30 904 N 91.6422 0.330177 1.54103 0
M  V30 905 C 93.0582 -0.0222371 1.59585 0
M  V30 906 C 93.2582 -1.49902 1.34654 0
M  V30 907 O 92.3142 -2.25592 1.13421 0
M  V30 908 C 93.6272 0.401932 2.98002 0
M  V30 909 C 95.1752 0.353145 3.11001 0
M  V30 910 C 95.6502 0.752576 4.51775 0
M  V30 911 N 97.1412 0.706239 4.57784 0
M  V30 912 C 97.8762 0.987417 5.64834 0
M  V30 913 N 97.3722 1.33607 6.79795 0
M  V30 914 N 99.1652 0.91254 5.54643 0
M  V30 915 H 91.3162 1.29228 1.68564 0
M  V30 916 H 93.5792 0.525906 0.78875 0
M  V30 917 H 93.2852 1.4311 3.21267 0
M  V30 918 H 93.1592 -0.229699 3.765 0
M  V30 919 H 95.5462 -0.666822 2.87467 0
M  V30 920 H 95.6272 1.0198 2.34593 0
M  V30 921 H 95.2712 1.77049 4.76042 0
M  V30 922 H 95.2012 0.0635409 5.26562 0
M  V30 923 H 97.6922 0.44889 3.75224 0
M  V30 924 H 98.0052 1.53582 7.57385 0
M  V30 925 H 96.3502 1.37439 6.81275 0
M  V30 926 H 99.5412 0.639601 4.6371 0
M  V30 927 H 99.7142 1.13503 6.37982 0
M  V30 928 N 93.1203 -1.57491 0.0584922 0
M  V30 929 C 94.3483 -1.97296 -0.623037 0
M  V30 930 C 94.7633 -0.936338 -1.63946 0
M  V30 931 O 94.1203 0.0785981 -1.82331 0
M  V30 932 C 94.1713 -3.37183 -1.30345 0
M  V30 933 O 93.8923 -4.36872 -0.32773 0
M  V30 934 C 95.3933 -3.91788 -2.07406 0
M  V30 935 H 92.6133 -0.649153 -0.169826 0
M  V30 936 H 95.1573 -2.04106 0.12696 0
M  V30 937 H 93.3123 -3.31502 -2.00463 0
M  V30 938 H 93.7263 -5.18141 -0.814269 0
M  V30 939 H 95.2003 -4.91926 -2.50425 0
M  V30 940 H 95.6773 -3.27609 -2.92521 0
M  V30 941 H 96.2833 -4.00829 -1.42184 0
M  V30 942 N 94.5984 0.214957 -1.56127 0
M  V30 943 C 95.8474 0.936451 -1.78643 0
M  V30 944 C 96.1604 1.85237 -0.628229 0
M  V30 945 O 97.3664 2.613 -0.737186 0
M  V30 946 C 95.8224 1.7154 -3.16389 0
M  V30 947 C 95.4304 0.845299 -4.39953 0
M  V30 948 C 97.1744 2.42772 -3.48227 0
M  V30 949 C 95.0814 1.62198 -5.68723 0
M  V30 950 H 94.0114 0.353401 -0.666051 0
M  V30 951 H 96.6624 0.190169 -1.82512 0
M  V30 952 H 95.0444 2.50484 -3.06715 0
M  V30 953 H 96.2184 0.0959353 -4.607 0
M  V30 954 H 94.5334 0.244789 -4.1568 0
M  V30 955 H 97.1304 3.01394 -4.41663 0
M  V30 956 H 97.4734 3.15984 -2.71035 0
M  V30 957 H 98.0064 1.70813 -3.5926 0
M  V30 958 H 94.7454 0.933011 -6.48826 0
M  V30 959 H 94.2654 2.34579 -5.52026 0
M  V30 960 H 95.9444 2.18095 -6.09133 0
M  V30 961 N 96.0765 1.50051 0.48192 0
M  V30 962 C 97.3245 1.60181 1.23234 0
M  V30 963 C 97.6455 0.299176 1.92691 0
M  V30 964 O 96.9155 -0.682708 1.83619 0
M  V30 965 H 95.4955 0.590232 0.457859 0
M  V30 966 H 98.1575 1.86775 0.556881 0
M  V30 967 H 97.2535 2.40753 1.98607 0
M  V30 968 N 97.5546 -0.734337 1.39446 0
M  V30 969 C 98.5016 -1.84835 1.38219 0
M  V30 970 C 99.4716 -1.64331 0.24179 0
M  V30 971 O 100.657 -1.85728 0.437002 0
M  V30 972 C 97.7966 -3.22355 1.23212 0
M  V30 973 C 96.9096 -3.5456 2.46801 0
M  V30 974 C 96.0446 -4.81485 2.24377 0
M  V30 975 C 95.0836 -5.06536 3.43639 0
M  V30 976 N 94.2206 -6.24665 3.20528 0
M  V30 977 H 99.0606 -1.85219 2.33448 0
M  V30 978 H 96.5976 -0.905039 1.15963 0
M  V30 979 H 98.5556 -4.0174 1.12522 0
M  V30 980 H 97.1856 -3.21248 0.316121 0
M  V30 981 H 96.2376 -2.69872 2.68092 0
M  V30 982 H 97.5496 -3.6899 3.3563 0
M  V30 983 H 96.7036 -5.68852 2.10933 0
M  V30 984 H 95.4426 -4.6923 1.32944 0
M  V30 985 H 94.4476 -4.17632 3.5758 0
M  V30 986 H 95.6726 -5.20676 4.35974 0
M  V30 987 H 93.6186 -6.13696 2.3176 0
M  V30 988 H 93.5356 -6.39685 4.02913 0
M  V30 989 H 94.8036 -7.14868 3.10779 0
M  V30 990 N 99.0327 -1.24633 -0.964593 0
M  V30 991 C 100.281 -1.08573 -1.70459 0
M  V30 992 C 100.602 0.375655 -1.91347 0
M  V30 993 O 99.8717 1.26779 -1.49345 0
M  V30 994 H 98.4517 -0.398784 -0.631649 0
M  V30 995 H 101.114 -1.56601 -1.16026 0
M  V30 996 H 100.21 -1.58623 -2.68785 0
M  V30 997 N 100.511 1.16574 -1.06058 0
M  V30 998 C 101.459 2.22941 -0.663343 0
M  V30 999 C 102.453 1.66358 0.319593 0
M  V30 1000 O 103.659 1.7905 0.184713 0
M  V30 1001 H 100.034 0.725907 -0.196376 0
M  V30 1002 H 102.005 2.53736 -1.57037 0
M  V30 1003 C 100.754 3.47642 -0.0632808 0
M  V30 1004 H 100.077 3.91493 -0.810733 0
M  V30 1005 H 101.517 4.2363 0.177177 0
M  V30 1006 C 99.9758 3.1509 1.19248 0
M  V30 1007 O 100.506 3.30673 2.28075 0
M  V30 1008 N 98.7118 2.6924 1.09353 0
M  V30 1009 H 98.2588 2.5676 0.207912 0
M  V30 1010 H 98.2168 2.47833 1.93458 0
M  V30 1011 N 101.989 0.842826 1.3317 0
M  V30 1012 C 103.236 0.440447 1.97652 0
M  V30 1013 C 103.564 -1.00123 1.6675 0
M  V30 1014 O 102.819 -1.7155 0.941761 0
M  V30 1015 C 103.118 0.612607 3.52111 0
M  V30 1016 C 102.784 2.02297 4.02972 0
M  V30 1017 C 101.446 2.40874 4.16573 0
M  V30 1018 C 103.798 2.94402 4.30089 0
M  V30 1019 C 101.126 3.70852 4.54627 0
M  V30 1020 C 103.478 4.23865 4.69597 0
M  V30 1021 C 102.142 4.62392 4.81404 0
M  V30 1022 H 101.412 0.161171 0.72326 0
M  V30 1023 H 104.059 1.07061 1.58777 0
M  V30 1024 H 102.364 -0.100849 3.9167 0
M  V30 1025 H 104.061 0.2815 4.00011 0
M  V30 1026 H 100.651 1.71338 3.92863 0
M  V30 1027 H 104.835 2.65835 4.19101 0
M  V30 1028 H 100.091 4.00501 4.61962 0
M  V30 1029 H 104.265 4.95306 4.89536 0
M  V30 1030 H 101.892 5.63154 5.10648 0
M  V30 1031 N 103.467 -1.45747 0.599634 0
M  V30 1032 C 104.43 -2.28917 -0.113835 0
M  V30 1033 C 105.43 -1.3933 -0.802729 0
M  V30 1034 O 106.62 -1.61534 -0.652103 0
M  V30 1035 C 103.752 -3.20152 -1.17114 0
M  V30 1036 H 104.945 -2.93478 0.617289 0
M  V30 1037 H 102.498 -1.52137 0.358327 0
M  V30 1038 H 103.233 -2.60374 -1.93329 0
M  V30 1039 H 103.018 -3.86133 -0.681468 0
M  V30 1040 H 104.508 -3.82708 -1.67105 0
M  V30 1041 N 104.945 -0.338344 -1.53925 0
M  V30 1042 C 105.892 0.520845 -2.24846 0
M  V30 1043 C 106.862 1.09976 -1.24477 0
M  V30 1044 O 108.047 1.13735 -1.53196 0
M  V30 1045 C 105.187 1.6685 -3.02084 0
M  V30 1046 C 104.3 1.11739 -4.17299 0
M  V30 1047 C 103.435 2.23193 -4.82036 0
M  V30 1048 C 102.474 1.65407 -5.89328 0
M  V30 1049 N 101.611 2.70582 -6.47866 0
M  V30 1050 H 106.451 -0.0904881 -2.97863 0
M  V30 1051 H 103.988 -0.0564282 -1.46992 0
M  V30 1052 H 105.946 2.34407 -3.45122 0
M  V30 1053 H 104.576 2.2509 -2.31375 0
M  V30 1054 H 103.628 0.332919 -3.7894 0
M  V30 1055 H 104.94 0.654677 -4.94485 0
M  V30 1056 H 104.094 2.98626 -5.28117 0
M  V30 1057 H 102.833 2.72807 -4.04262 0
M  V30 1058 H 101.838 0.884779 -5.42634 0
M  V30 1059 H 103.063 1.16652 -6.69006 0
M  V30 1060 H 101.009 3.1946 -5.72959 0
M  V30 1061 H 100.926 2.28917 -7.20509 0
M  V30 1062 H 102.194 3.45799 -6.98601 0
M  V30 1063 N 106.423 1.57458 -0.0668435 0
M  V30 1064 C 107.669 1.93587 0.6043 0
M  V30 1065 C 108.002 0.946722 1.69561 0
M  V30 1066 O 107.277 -0.0248516 1.94484 0
M  V30 1067 C 107.56 3.40014 1.18585 0
M  V30 1068 C 107.413 4.49685 0.101529 0
M  V30 1069 C 108.732 3.87154 2.09284 0
M  V30 1070 H 105.851 0.703958 0.218202 0
M  V30 1071 H 108.493 1.89542 -0.131804 0
M  V30 1072 H 106.643 3.43592 1.81319 0
M  V30 1073 H 108.315 4.5823 -0.531279 0
M  V30 1074 H 106.558 4.30059 -0.568487 0
M  V30 1075 H 107.229 5.49266 0.54874 0
M  V30 1076 H 109.705 3.85551 1.56491 0
M  V30 1077 H 108.581 4.90231 2.46911 0
M  V30 1078 H 108.842 3.2481 2.99918 0
M  V30 1079 N 107.901 -0.206675 1.56239 0
M  V30 1080 C 108.848 -1.25617 1.93621 0
M  V30 1081 C 109.818 -1.45824 0.795274 0
M  V30 1082 O 111.003 -1.59148 1.05245 0
M  V30 1083 C 108.143 -2.59839 2.27107 0
M  V30 1084 C 107.256 -2.47308 3.54207 0
M  V30 1085 C 106.391 -3.74155 3.7707 0
M  V30 1086 C 105.43 -3.56407 4.97635 0
M  V30 1087 N 104.567 -4.75238 5.1681 0
M  V30 1088 H 109.407 -0.930383 2.83104 0
M  V30 1089 H 106.944 -0.448065 1.4011 0
M  V30 1090 H 108.902 -3.38021 2.44535 0
M  V30 1091 H 107.532 -2.90485 1.40778 0
M  V30 1092 H 106.584 -1.60483 3.4489 0
M  V30 1093 H 107.896 -2.30122 4.42544 0
M  V30 1094 H 107.05 -4.60778 3.94675 0
M  V30 1095 H 105.789 -3.94282 2.87042 0
M  V30 1096 H 104.794 -2.68168 4.79964 0
M  V30 1097 H 106.019 -3.37736 5.89161 0
M  V30 1098 H 103.965 -4.95651 4.29728 0
M  V30 1099 H 103.882 -4.60835 5.99306 0
M  V30 1100 H 105.15 -5.63246 5.38864 0
M  V30 1101 N 109.379 -1.50304 -0.473955 0
M  V30 1102 C 110.309 -1.71886 -1.58042 0
M  V30 1103 C 111.29 -0.567799 -1.60344 0
M  V30 1104 O 112.475 -0.806623 -1.76656 0
M  V30 1105 C 109.605 -1.81036 -2.96384 0
M  V30 1106 C 108.559 -2.962 -3.08949 0
M  V30 1107 C 107.885 -2.9049 -4.48909 0
M  V30 1108 C 109.185 -4.36752 -2.86434 0
M  V30 1109 H 110.879 -2.64527 -1.40234 0
M  V30 1110 H 108.425 -1.27295 -0.673201 0
M  V30 1111 H 110.378 -1.94719 -3.73714 0
M  V30 1112 H 109.102 -0.850147 -3.15341 0
M  V30 1113 H 107.761 -2.82164 -2.3405 0
M  V30 1114 H 107.409 -1.92321 -4.64781 0
M  V30 1115 H 107.109 -3.67802 -4.58253 0
M  V30 1116 H 108.633 -3.06218 -5.28264 0
M  V30 1117 H 110.047 -4.5133 -3.53517 0
M  V30 1118 H 108.444 -5.15493 -3.07225 0
M  V30 1119 H 109.514 -4.49321 -1.82316 0
M  V30 1120 N 110.857 0.726932 -1.39834 0
M  V30 1121 C 111.82 1.82269 -1.38962 0
M  V30 1122 C 112.82 1.58248 -0.285334 0
M  V30 1123 O 114.01 1.65499 -0.54366 0
M  V30 1124 C 111.142 3.20186 -1.17019 0
M  V30 1125 H 112.335 1.84443 -2.36476 0
M  V30 1126 H 109.888 0.931416 -1.25516 0
M  V30 1127 H 110.623 3.23669 -0.202204 0
M  V30 1128 H 110.408 3.3902 -1.96998 0
M  V30 1129 H 111.898 4.00235 -1.1917 0
M  V30 1130 N 112.336 1.25143 0.95797 0
M  V30 1131 C 113.752 1.01892 1.22842 0
M  V30 1132 C 113.952 -0.266311 1.99732 0
M  V30 1133 O 113.008 -0.979913 2.3271 0
M  V30 1134 C 114.321 2.24004 2.00606 0
M  V30 1135 C 115.869 2.28731 2.13662 0
M  V30 1136 C 116.344 3.5049 2.94823 0
M  V30 1137 N 117.835 3.50866 3.02403 0
M  V30 1138 C 118.57 4.4174 3.65586 0
M  V30 1139 N 118.066 5.42882 4.30408 0
M  V30 1140 N 119.859 4.29429 3.62694 0
M  V30 1141 H 112.01 2.07718 0.443493 0
M  V30 1142 H 114.273 0.912031 0.258657 0
M  V30 1143 H 113.979 3.17395 1.51503 0
M  V30 1144 H 113.853 2.26907 3.01319 0
M  V30 1145 H 116.24 1.35865 2.61963 0
M  V30 1146 H 116.321 2.29848 1.12265 0
M  V30 1147 H 115.965 4.43676 2.47213 0
M  V30 1148 H 115.895 3.46617 3.96439 0
M  V30 1149 H 118.386 2.777 2.56302 0
M  V30 1150 H 118.699 6.0844 4.76467 0
M  V30 1151 H 117.044 5.46758 4.29047 0
M  V30 1152 H 120.235 3.49643 3.11236 0
M  V30 1153 H 120.408 5.00448 4.1165 0
M  V30 1154 N 113.814 -1.1601 1.06675 0
M  V30 1155 C 114.764 -2.18512 0.650888 0
M  V30 1156 C 115.748 -1.57677 -0.320441 0
M  V30 1157 O 116.94 -1.76482 -0.135266 0
M  V30 1158 C 114.069 -3.43273 0.0429255 0
M  V30 1159 C 113.155 -4.11176 1.03898 0
M  V30 1160 N 113.546 -4.54672 2.216 0
M  V30 1161 C 111.844 -4.37417 0.870779 0
M  V30 1162 C 112.545 -5.07248 2.84736 0
M  V30 1163 N 111.521 -5.0037 2.12441 0
M  V30 1164 H 115.323 -2.49863 1.54745 0
M  V30 1165 H 112.837 -1.32503 0.938975 0
M  V30 1166 H 114.834 -4.16006 -0.272857 0
M  V30 1167 H 113.494 -3.13408 -0.84884 0
M  V30 1168 H 114.505 -4.4828 2.59356 0
M  V30 1169 H 111.182 -4.17488 0.0313293 0
M  V30 1170 H 112.572 -5.50912 3.84636 0
M  V30 1171 N 115.292 -0.849877 -1.32721 0
M  V30 1172 C 116.541 -0.447175 -1.96681 0
M  V30 1173 C 116.854 1.00135 -1.68025 0
M  V30 1174 O 118.06 1.50926 -2.25685 0
M  V30 1175 C 116.516 -0.7487 -3.52026 0
M  V30 1176 C 116.124 -2.21264 -3.89546 0
M  V30 1177 C 117.868 -0.413487 -4.22481 0
M  V30 1178 C 115.775 -2.45763 -5.37917 0
M  V30 1179 H 114.705 -0.163486 -0.736063 0
M  V30 1180 H 117.356 -1.03999 -1.51183 0
M  V30 1181 H 115.738 -0.0853727 -3.95908 0
M  V30 1182 H 116.912 -2.91736 -3.56689 0
M  V30 1183 H 115.227 -2.5119 -3.32103 0
M  V30 1184 H 117.824 -0.574017 -5.3161 0
M  V30 1185 H 118.167 0.644492 -4.11281 0
M  V30 1186 H 118.7 -1.03251 -3.84167 0
M  V30 1187 H 115.439 -3.50168 -5.54132 0
M  V30 1188 H 114.959 -1.79864 -5.72197 0
M  V30 1189 H 116.638 -2.29471 -6.0494 0
M  V30 1190 N 116.77 1.45427 -0.607355 0
M  V30 1191 C 117.7 2.3329 0.0989352 0
M  V30 1192 C 118.681 1.46816 0.859007 0
M  V30 1193 O 119.866 1.75588 0.829604 0
M  V30 1194 C 116.996 3.29518 1.09705 0
M  V30 1195 C 115.95 4.25626 0.450206 0
M  V30 1196 C 115.276 5.11542 1.55655 0
M  V30 1197 C 116.576 5.18505 -0.628455 0
M  V30 1198 H 118.27 2.92595 -0.634716 0
M  V30 1199 H 115.816 1.40696 -0.306681 0
M  V30 1200 H 117.769 3.89855 1.59971 0
M  V30 1201 H 116.493 2.68372 1.86129 0
M  V30 1202 H 115.152 3.66586 -0.0315886 0
M  V30 1203 H 114.8 4.46765 2.31107 0
M  V30 1204 H 114.5 5.76647 1.12925 0
M  V30 1205 H 116.024 5.74748 2.06148 0
M  V30 1206 H 117.438 5.72916 -0.209877 0
M  V30 1207 H 115.835 5.92085 -0.977489 0
M  V30 1208 H 116.905 4.60948 -1.50514 0
M  V30 1209 N 118.248 0.346503 1.53744 0
M  V30 1210 C 119.476 -0.25041 2.05379 0
M  V30 1211 C 119.891 -1.43979 1.22129 0
M  V30 1212 O 119.248 -1.80677 0.257321 0
M  V30 1213 C 119.299 -0.662575 3.55376 0
M  V30 1214 O 119.02 0.479515 4.35468 0
M  V30 1215 C 120.521 -1.31989 4.23195 0
M  V30 1216 H 117.741 -0.0478198 0.669294 0
M  V30 1217 H 120.285 0.499346 1.9831 0
M  V30 1218 H 118.44 -1.36227 3.62658 0
M  V30 1219 H 118.854 0.15037 5.24284 0
M  V30 1220 H 120.328 -1.55902 5.29527 0
M  V30 1221 H 120.805 -2.27436 3.75725 0
M  V30 1222 H 121.411 -0.662154 4.20114 0
M  V30 1223 N 119.726 -1.57421 0.075193 0
M  V30 1224 C 120.974 -1.93236 -0.591974 0
M  V30 1225 C 121.295 -0.956241 -1.69944 0
M  V30 1226 O 120.565 -0.00494792 -1.95899 0
M  V30 1227 H 119.145 -0.713355 -0.22166 0
M  V30 1228 H 121.807 -1.9444 0.133848 0
M  V30 1229 H 120.903 -2.95131 -1.01509 0
M  V30 1230 N 121.204 0.198386 -1.56346 0
M  V30 1231 C 122.62 0.549085 -1.49857 0
M  V30 1232 C 122.82 1.86016 -0.774611 0
M  V30 1233 O 121.876 2.50416 -0.323776 0
M  V30 1234 C 123.189 0.606868 -2.94512 0
M  V30 1235 C 124.737 0.695925 -3.05165 0
M  V30 1236 C 125.212 0.784848 -4.51225 0
M  V30 1237 N 126.703 0.848463 -4.55363 0
M  V30 1238 C 127.438 0.937378 -5.65686 0
M  V30 1239 N 126.934 0.9888 -6.85707 0
M  V30 1240 N 128.727 0.974312 -5.53592 0
M  V30 1241 H 120.878 -0.661655 -2.01831 0
M  V30 1242 H 123.141 -0.235261 -0.918344 0
M  V30 1243 H 122.847 -0.28732 -3.50524 0
M  V30 1244 H 122.721 1.46268 -3.47686 0
M  V30 1245 H 125.108 1.58055 -2.49204 0
M  V30 1246 H 125.189 -0.186022 -2.55123 0
M  V30 1247 H 124.833 -0.0954072 -5.0781 0
M  V30 1248 H 124.763 1.68255 -4.98997 0
M  V30 1249 H 127.254 0.818103 -3.68938 0
M  V30 1250 H 127.567 1.05707 -7.65536 0
M  V30 1251 H 125.912 0.957534 -6.88372 0
M  V30 1252 H 129.103 0.930954 -4.58749 0
M  V30 1253 H 129.276 1.04015 -6.39597 0
M  V30 1254 N 122.682 1.50554 0.465978 0
M  V30 1255 C 123.592 1.72585 1.58907 0
M  V30 1256 C 124.608 0.60911 1.6299 0
M  V30 1257 O 125.784 0.88804 1.80765 0
M  V30 1258 C 122.849 1.81995 2.95091 0
M  V30 1259 C 121.91 3.05751 3.01355 0
M  V30 1260 C 121.143 3.14702 4.31043 0
M  V30 1261 O 121.366 2.30313 5.21835 0
M  V30 1262 O 120.3 4.07468 4.43005 0
M  V30 1263 H 124.126 2.67799 1.43239 0
M  V30 1264 H 121.711 1.34711 0.646013 0
M  V30 1265 H 123.593 1.90335 3.75966 0
M  V30 1266 H 122.268 0.899659 3.10947 0
M  V30 1267 H 121.175 3.02908 2.19539 0
M  V30 1268 H 122.508 3.97375 2.90437 0
M  V30 1269 N 124.16 -0.719506 1.40217 0
M  V30 1270 C 125.406 -1.48152 1.38488 0
M  V30 1271 C 125.739 -1.94195 -0.0141867 0
M  V30 1272 O 125.014 -1.67884 -0.982096 0
M  V30 1273 C 125.297 -2.71035 2.37091 0
M  V30 1274 C 125.15 -2.30912 3.86005 0
M  V30 1275 C 126.469 -3.73182 2.33288 0
M  V30 1276 H 123.588 -0.537395 0.504357 0
M  V30 1277 H 126.23 -0.821472 1.71324 0
M  V30 1278 H 124.38 -3.27352 2.0922 0
M  V30 1279 H 126.052 -1.80107 4.24687 0
M  V30 1280 H 124.295 -1.62958 4.02029 0
M  V30 1281 H 124.966 -3.18978 4.50508 0
M  V30 1282 H 127.442 -3.26485 2.57966 0
M  V30 1283 H 126.318 -4.56806 3.04334 0
M  V30 1284 H 126.579 -4.21202 1.34317 0
M  V30 1285 N 125.638 -1.25649 -0.95132 0
M  V30 1286 C 126.601 -1.06399 -2.03007 0
M  V30 1287 C 127.601 -0.0156794 -1.60792 0
M  V30 1288 O 128.791 -0.25817 -1.72276 0
M  V30 1289 C 125.923 -0.616184 -3.35285 0
M  V30 1290 H 127.116 -2.02164 -2.21517 0
M  V30 1291 H 124.669 -1.08103 -1.12887 0
M  V30 1292 H 125.404 0.343917 -3.22471 0
M  V30 1293 H 125.189 -1.37301 -3.67275 0
M  V30 1294 H 126.679 -0.503032 -4.14559 0
M  V30 1295 N 127.117 1.15442 -1.07289 0
M  V30 1296 C 128.366 1.85557 -0.790669 0
M  V30 1297 C 128.679 1.83186 0.685739 0
M  V30 1298 O 129.885 2.48977 1.0827 0
M  V30 1299 C 128.341 3.33038 -1.36433 0
M  V30 1300 C 127.949 3.43856 -2.8717 0
M  V30 1301 C 129.693 4.0834 -1.1601 0
M  V30 1302 C 127.6 4.85482 -3.3773 0
M  V30 1303 H 126.53 0.695122 -0.292098 0
M  V30 1304 H 129.181 1.30219 -1.29287 0
M  V30 1305 H 127.563 3.88043 -0.789864 0
M  V30 1306 H 128.737 2.98961 -3.50655 0
M  V30 1307 H 127.052 2.81998 -3.06376 0
M  V30 1308 H 129.649 5.12859 -1.51262 0
M  V30 1309 H 129.992 4.16182 -0.0991007 0
M  V30 1310 H 130.525 3.59603 -1.70089 0
M  V30 1311 H 127.264 4.82823 -4.43353 0
M  V30 1312 H 126.784 5.30961 -2.78999 0
M  V30 1313 H 128.463 5.54335 -3.33648 0
M  V30 1314 N 128.595 0.856903 1.32268 0
M  V30 1315 C 129.542 0.301172 2.28827 0
M  V30 1316 C 130.512 -0.593104 1.5515 0
M  V30 1317 O 131.697 -0.527537 1.83362 0
M  V30 1318 C 128.837 -0.502523 3.41422 0
M  V30 1319 C 127.95 0.417797 4.29975 0
M  V30 1320 C 127.085 -0.398749 5.29701 0
M  V30 1321 C 126.124 0.518827 6.09897 0
M  V30 1322 N 125.261 -0.260674 7.01616 0
M  V30 1323 H 130.101 1.12983 2.75751 0
M  V30 1324 H 127.638 0.568582 1.35667 0
M  V30 1325 H 129.596 -0.984141 4.05426 0
M  V30 1326 H 128.226 -1.29599 2.95642 0
M  V30 1327 H 127.278 1.01781 3.66531 0
M  V30 1328 H 128.59 1.12191 4.86019 0
M  V30 1329 H 127.744 -0.943435 5.9932 0
M  V30 1330 H 126.483 -1.13622 4.7428 0
M  V30 1331 H 125.488 1.07538 5.39181 0
M  V30 1332 H 126.713 1.25495 6.67404 0
M  V30 1333 H 124.659 -0.981198 6.4862 0
M  V30 1334 H 124.576 0.384364 7.55022 0
M  V30 1335 H 125.844 -0.787014 7.75517 0
M  V30 1336 N 130.073 -1.45103 0.615059 0
M  V30 1337 C 131.322 -2.01396 0.110718 0
M  V30 1338 C 131.635 -1.48834 -1.26916 0
M  V30 1339 O 132.841 -1.97152 -1.86664 0
M  V30 1340 C 131.297 -3.59599 0.14723 0
M  V30 1341 C 130.905 -4.21158 1.52743 0
M  V30 1342 C 132.649 -4.23428 -0.30148 0
M  V30 1343 C 130.556 -5.71535 1.51992 0
M  V30 1344 H 129.486 -0.753061 0.0376241 0
M  V30 1345 H 132.137 -1.66494 0.77149 0
M  V30 1346 H 130.519 -3.91724 -0.580339 0
M  V30 1347 H 131.693 -4.00594 2.2773 0
M  V30 1348 H 130.008 -3.69552 1.91886 0
M  V30 1349 H 132.605 -5.33703 -0.326392 0
M  V30 1350 H 132.948 -3.94629 -1.32565 0
M  V30 1351 H 133.481 -3.96047 0.373065 0
M  V30 1352 H 130.22 -6.05044 2.52193 0
M  V30 1353 H 129.74 -5.94268 0.81274 0
M  V30 1354 H 131.419 -6.34873 1.24681 0
M  V30 1355 N 131.551 -0.354651 -1.53558 0
M  V30 1356 C 132.8 0.239504 -2.00273 0
M  V30 1357 C 133.113 1.50759 -1.24623 0
M  V30 1358 O 134.319 2.17968 -1.61871 0
M  V30 1359 C 132.775 0.477341 -3.5672 0
M  V30 1360 C 132.383 -0.775488 -4.41237 0
M  V30 1361 C 134.127 1.02975 -4.11821 0
M  V30 1362 C 132.034 -0.507838 -5.89216 0
M  V30 1363 H 130.964 0.0932743 -0.748208 0
M  V30 1364 H 133.615 -0.471701 -1.77334 0
M  V30 1365 H 131.997 1.24953 -3.7577 0
M  V30 1366 H 133.171 -1.54963 -4.33962 0
M  V30 1367 H 131.486 -1.25033 -3.97185 0
M  V30 1368 H 134.083 1.24513 -5.2 0
M  V30 1369 H 134.426 1.98862 -3.65731 0
M  V30 1370 H 134.959 0.317994 -3.96527 0
M  V30 1371 H 131.698 -1.43674 -6.39561 0
M  V30 1372 H 131.218 0.228011 -5.99366 0
M  V30 1373 H 132.897 -0.129238 -6.46871 0
M  V30 1374 N 133.029 1.57378 -0.0835403 0
M  V30 1375 C 134.306 1.85363 0.624507 0
M  V30 1376 C 134.686 0.978239 1.87066 0
M  V30 1377 O 134.034 0.0475908 2.2845 0
M  V30 1378 C 134.244 3.35795 0.950947 0
M  V30 1379 C 135.592 4.03581 1.31939 0
M  V30 1380 O 136.616 3.40609 1.04232 0
M  V30 1381 O 135.475 5.14672 1.83779 0
M  V30 1382 H 132.569 0.766162 0.311329 0
M  V30 1383 H 135.115 1.69307 -0.115362 0
M  V30 1384 H 133.887 3.91244 0.0663899 0
M  V30 1385 H 133.51 3.57154 1.74719 0
M  V30 1386 N 134.507 -0.190092 1.56449 0
M  V30 1387 C 135.454 -1.23557 1.94942 0
M  V30 1388 C 136.424 -1.44972 0.810696 0
M  V30 1389 O 137.609 -1.58023 1.06927 0
M  V30 1390 C 134.749 -2.57416 2.2985 0
M  V30 1391 C 133.862 -2.43537 3.5681 0
M  V30 1392 C 132.997 -3.70134 3.81017 0
M  V30 1393 C 132.036 -3.51109 5.01387 0
M  V30 1394 N 131.173 -4.6973 5.21822 0
M  V30 1395 H 136.013 -0.900304 2.84075 0
M  V30 1396 H 133.55 -0.43318 1.40577 0
M  V30 1397 H 135.508 -3.35409 2.48106 0
M  V30 1398 H 134.138 -2.88975 1.43852 0
M  V30 1399 H 133.19 -1.56816 3.46573 0
M  V30 1400 H 134.502 -2.25415 4.4496 0
M  V30 1401 H 133.656 -4.56566 3.9954 0
M  V30 1402 H 132.395 -3.91215 2.91207 0
M  V30 1403 H 131.4 -2.63063 4.82782 0
M  V30 1404 H 132.625 -3.31468 5.9271 0
M  V30 1405 H 130.571 -4.91065 4.34961 0
M  V30 1406 H 130.488 -4.54452 6.0416 0
M  V30 1407 H 131.756 -5.57499 5.44808 0
M  V30 1408 N 135.985 -1.50799 -0.457987 0
M  V30 1409 C 137.213 -1.66218 -1.23203 0
M  V30 1410 C 137.628 -0.350894 -1.85511 0
M  V30 1411 O 136.985 0.668546 -1.69814 0
M  V30 1412 C 137.036 -2.76291 -2.33121 0
M  V30 1413 O 136.757 -4.02338 -1.73366 0
M  V30 1414 C 138.258 -3.028 -3.2377 0
M  V30 1415 H 135.478 -0.558361 -0.372121 0
M  V30 1416 H 138.022 -1.97099 -0.545179 0
M  V30 1417 H 136.177 -2.48068 -2.97558 0
M  V30 1418 H 136.591 -4.63312 -2.4585 0
M  V30 1419 H 138.065 -3.8345 -3.97077 0
M  V30 1420 H 138.542 -2.14385 -3.83322 0
M  V30 1421 H 139.148 -3.32604 -2.65056 0
M  V30 1422 N 137.463 0.71206 -1.40597 0
M  V30 1423 C 138.395 1.83704 -1.37061 0
M  V30 1424 C 139.408 1.60453 -0.275426 0
M  V30 1425 O 140.597 1.70262 -0.53602 0
M  V30 1426 C 137.697 3.20172 -1.11099 0
M  V30 1427 C 136.87 3.7059 -2.3234 0
M  V30 1428 C 135.929 4.85681 -2.02485 0
M  V30 1429 O 134.955 4.9815 -2.75382 0
M  V30 1430 N 136.157 5.71735 -1.00497 0
M  V30 1431 H 138.922 1.87235 -2.34016 0
M  V30 1432 H 136.483 0.893739 -1.34996 0
M  V30 1433 H 138.475 3.94768 -0.891064 0
M  V30 1434 H 137.045 3.11767 -0.227989 0
M  V30 1435 H 136.265 2.87085 -2.7014 0
M  V30 1436 H 137.553 4.01011 -3.13157 0
M  V30 1437 H 136.951 5.64275 -0.401298 0
M  V30 1438 H 135.508 6.463 -0.844942 0
M  V30 1439 N 138.941 1.26152 0.944643 0
M  V30 1440 C 139.871 1.09902 2.06019 0
M  V30 1441 C 140.852 0.00519538 1.70099 0
M  V30 1442 O 142.037 0.176583 1.93396 0
M  V30 1443 C 139.167 0.727562 3.39594 0
M  V30 1444 C 138.121 1.77274 3.89561 0
M  V30 1445 C 137.447 1.25569 5.19747 0
M  V30 1446 C 138.747 3.17357 4.14827 0
M  V30 1447 H 140.441 2.03217 2.19871 0
M  V30 1448 H 137.987 0.978452 1.05652 0
M  V30 1449 H 139.94 0.600777 4.17095 0
M  V30 1450 H 138.664 -0.241287 3.25707 0
M  V30 1451 H 137.323 1.88814 3.14237 0
M  V30 1452 H 136.971 0.276783 5.02238 0
M  V30 1453 H 136.671 1.95433 5.54148 0
M  V30 1454 H 138.195 1.1415 5.99835 0
M  V30 1455 H 139.609 3.08914 4.82954 0
M  V30 1456 H 138.006 3.84781 4.60504 0
M  V30 1457 H 139.076 3.63673 3.20734 0
M  V30 1458 N 140.419 -1.14872 1.07899 0
M  V30 1459 C 141.367 -2.21857 0.698727 0
M  V30 1460 C 142.361 -1.66845 -0.293086 0
M  V30 1461 O 143.567 -1.79321 -0.156204 0
M  V30 1462 H 139.942 -0.722691 0.207899 0
M  V30 1463 H 141.913 -2.51205 1.61054 0
M  V30 1464 C 140.662 -3.47498 0.11858 0
M  V30 1465 H 139.985 -3.90154 0.872914 0
M  V30 1466 H 141.425 -4.23858 -0.109759 0
M  V30 1467 C 139.884 -3.16947 -1.1422 0
M  V30 1468 O 140.414 -3.3426 -2.22785 0
M  V30 1469 N 138.62 -2.70946 -1.05055 0
M  V30 1470 H 138.167 -2.57058 -0.167038 0
M  V30 1471 H 138.125 -2.50879 -1.89491 0
M  V30 1472 N 141.898 -0.863906 -1.31812 0
M  V30 1473 C 143.309 -0.52522 -1.7916 0
M  V30 1474 C 143.66 0.957518 -1.71248 0
M  V30 1475 O 142.785 1.74734 -1.27659 0
M  V30 1476 C 143.38 -0.9466 -3.25307 0
M  V30 1477 C 141.939 -0.659668 -3.70574 0
M  V30 1478 C 141.086 -1.14126 -2.52726 0
M  V30 1479 H 144.037 -1.05022 -1.1898 0
M  V30 1480 H 144.058 -0.266766 -3.79564 0
M  V30 1481 H 143.57 -2.02579 -3.31034 0
M  V30 1482 H 141.671 0.408416 -3.70355 0
M  V30 1483 H 141.784 -1.23245 -4.62977 0
M  V30 1484 H 140.148 -0.561216 -2.4844 0
M  V30 1485 H 140.931 -2.22775 -2.61201 0
M  V30 1486 N 143.376 1.44774 -0.622745 0
M  V30 1487 C 144.601 2.06999 -0.128968 0
M  V30 1488 C 145.026 1.4617 1.1839 0
M  V30 1489 O 144.384 0.560007 1.72434 0
M  V30 1490 C 144.432 3.60595 -0.0188351 0
M  V30 1491 O 143.536 3.99398 1.02739 0
M  V30 1492 H 142.877 0.659047 -0.0809544 0
M  V30 1493 H 145.407 1.85784 -0.85705 0
M  V30 1494 H 145.417 4.07627 0.174476 0
M  V30 1495 H 144.092 4.04252 -0.977384 0
M  V30 1496 H 142.669 3.64011 0.809326 0
M  V30 1497 N 144.854 0.36279 1.53368 0
M  V30 1498 C 146.079 -0.231226 2.06107 0
M  V30 1499 C 146.504 -1.419 1.23474 0
M  V30 1500 O 145.862 -1.79524 0.253128 0
M  V30 1501 C 145.91 -0.605523 3.5548 0
M  V30 1502 O 145.014 -1.70312 3.7559 0
M  V30 1503 H 144.355 -0.034327 0.663112 0
M  V30 1504 H 146.885 0.522584 1.97814 0
M  V30 1505 H 146.895 -0.877314 3.98456 0
M  V30 1506 H 145.57 0.263004 4.15068 0
M  V30 1507 H 144.147 -1.4271 3.44512 0
M  V30 1508 N 146.332 -1.57332 0.0918853 0
M  V30 1509 C 147.262 -2.16872 -0.865371 0
M  V30 1510 C 148.243 -1.10118 -1.29646 0
M  V30 1511 O 149.428 -1.38242 -1.36392 0
M  V30 1512 C 146.558 -2.74649 -2.12569 0
M  V30 1513 C 145.512 -3.86747 -1.83333 0
M  V30 1514 C 144.838 -4.31212 -3.16166 0
M  V30 1515 C 146.138 -5.10089 -1.1228 0
M  V30 1516 H 147.832 -2.97114 -0.369307 0
M  V30 1517 H 145.378 -1.42918 -0.176194 0
M  V30 1518 H 147.331 -3.14952 -2.7997 0
M  V30 1519 H 146.055 -1.91657 -2.64452 0
M  V30 1520 H 144.714 -3.46978 -1.18331 0
M  V30 1521 H 144.362 -3.45115 -3.6593 0
M  V30 1522 H 144.062 -5.06788 -2.97388 0
M  V30 1523 H 145.586 -4.74146 -3.84731 0
M  V30 1524 H 147 -5.47582 -1.69785 0
M  V30 1525 H 145.397 -5.91073 -1.03693 0
M  V30 1526 H 146.467 -4.84786 -0.105041 0
M  V30 1527 N 147.81 0.181792 -1.56548 0
M  V30 1528 C 148.742 1.24956 -1.92142 0
M  V30 1529 C 149.755 1.41022 -0.813422 0
M  V30 1530 O 150.944 1.41212 -1.09186 0
M  V30 1531 C 148.044 2.61981 -2.14987 0
M  V30 1532 C 147.217 2.6735 -3.46183 0
M  V30 1533 C 146.276 3.85664 -3.5798 0
M  V30 1534 O 145.302 3.72148 -4.30691 0
M  V30 1535 N 146.504 5.01683 -2.92053 0
M  V30 1536 H 149.269 0.947329 -2.84334 0
M  V30 1537 H 146.83 0.371629 -1.57577 0
M  V30 1538 H 148.822 3.3958 -2.20154 0
M  V30 1539 H 147.392 2.84637 -1.2923 0
M  V30 1540 H 146.612 1.75925 -3.52766 0
M  V30 1541 H 147.9 2.67939 -4.32534 0
M  V30 1542 H 147.298 5.15564 -2.32832 0
M  V30 1543 H 145.855 5.77181 -3.0283 0
M  V30 1544 N 149.288 1.51039 0.449983 0
M  V30 1545 C 150.235 1.71439 1.54523 0
M  V30 1546 C 151.205 0.555871 1.56522 0
M  V30 1547 O 152.39 0.788871 1.73728 0
M  V30 1548 C 149.53 1.83384 2.92343 0
M  V30 1549 C 148.643 3.10873 2.9997 0
M  V30 1550 C 147.778 3.13488 4.28834 0
M  V30 1551 C 146.817 4.35343 4.30282 0
M  V30 1552 N 145.954 4.35579 5.5065 0
M  V30 1553 H 150.794 2.64934 1.36433 0
M  V30 1554 H 148.331 1.31312 0.662982 0
M  V30 1555 H 150.289 1.88291 3.72293 0
M  V30 1556 H 148.919 0.933086 3.0902 0
M  V30 1557 H 147.971 3.15336 2.12761 0
M  V30 1558 H 149.283 4.00814 2.96901 0
M  V30 1559 H 148.437 3.17241 5.17149 0
M  V30 1560 H 147.176 2.21414 4.34543 0
M  V30 1561 H 146.181 4.3178 3.40362 0
M  V30 1562 H 147.406 5.28668 4.26248 0
M  V30 1563 H 145.352 3.46369 5.57104 0
M  V30 1564 H 145.269 5.19313 5.49409 0
M  V30 1565 H 146.537 4.43507 6.41032 0
M  V30 1566 N 150.766 -0.704594 1.40972 0
M  V30 1567 C 151.696 -1.83124 1.44872 0
M  V30 1568 C 152.677 -1.67281 0.30838 0
M  V30 1569 O 153.862 -1.87149 0.518556 0
M  V30 1570 C 150.992 -3.21181 1.32136 0
M  V30 1571 C 149.946 -3.51714 2.43888 0
M  V30 1572 C 149.272 -4.89032 2.16222 0
M  V30 1573 C 150.572 -3.516 3.86232 0
M  V30 1574 H 152.266 -1.80117 2.39161 0
M  V30 1575 H 149.812 -0.865145 1.15114 0
M  V30 1576 H 151.765 -3.99702 1.33479 0
M  V30 1577 H 150.489 -3.24791 0.343279 0
M  V30 1578 H 149.148 -2.75539 2.41813 0
M  V30 1579 H 148.796 -4.89256 1.16778 0
M  V30 1580 H 148.496 -5.10426 2.911 0
M  V30 1581 H 150.02 -5.69873 2.19265 0
M  V30 1582 H 151.434 -4.2014 3.9007 0
M  V30 1583 H 149.831 -3.84523 4.60719 0
M  V30 1584 H 150.901 -2.50757 4.15029 0
M  V30 1585 N 152.244 -1.26651 -0.937939 0
M  V30 1586 C 153.491 -1.12387 -1.6845 0
M  V30 1587 C 153.819 0.332208 -1.91642 0
M  V30 1588 O 153.074 1.2602 -1.49725 0
M  V30 1589 C 153.373 -1.84168 -3.06295 0
M  V30 1590 C 153.039 -3.34056 -3.02849 0
M  V30 1591 C 151.701 -3.74942 -3.01616 0
M  V30 1592 C 154.053 -4.29741 -2.9491 0
M  V30 1593 C 151.381 -5.09894 -2.90215 0
M  V30 1594 C 153.733 -5.64738 -2.8505 0
M  V30 1595 C 152.397 -6.0493 -2.82162 0
M  V30 1596 H 151.667 -0.411252 -0.616403 0
M  V30 1597 H 154.314 -1.57134 -1.09459 0
M  V30 1598 H 152.619 -1.319 -3.6893 0
M  V30 1599 H 154.316 -1.70569 -3.62915 0
M  V30 1600 H 150.906 -3.01534 -3.0459 0
M  V30 1601 H 155.09 -3.99133 -2.94969 0
M  V30 1602 H 150.346 -5.40194 -2.86358 0
M  V30 1603 H 154.52 -6.38561 -2.77872 0
M  V30 1604 H 152.147 -7.09457 -2.73084 0
M  V30 1605 N 153.722 1.14298 -1.08507 0
M  V30 1606 C 155.138 1.37347 -0.812901 0
M  V30 1607 C 155.338 1.93052 0.577325 0
M  V30 1608 O 154.394 2.14389 1.33393 0
M  V30 1609 C 155.707 2.33359 -1.89642 0
M  V30 1610 C 157.255 2.46996 -1.92255 0
M  V30 1611 C 157.73 3.46309 -2.99724 0
M  V30 1612 N 159.221 3.53853 -2.98902 0
M  V30 1613 C 159.956 4.3055 -3.787 0
M  V30 1614 N 159.452 5.10482 -4.6838 0
M  V30 1615 N 161.245 4.25757 -3.66998 0
M  V30 1616 H 153.396 0.764867 -1.9815 0
M  V30 1617 H 155.659 0.398966 -0.859959 0
M  V30 1618 H 155.365 1.99565 -2.89597 0
M  V30 1619 H 155.239 3.33274 -1.76659 0
M  V30 1620 H 157.626 2.80081 -0.929445 0
M  V30 1621 H 157.707 1.47039 -2.09316 0
M  V30 1622 H 157.351 3.13957 -3.99241 0
M  V30 1623 H 157.281 4.46049 -2.79907 0
M  V30 1624 H 159.772 2.96812 -2.33904 0
M  V30 1625 H 160.085 5.66284 -5.25873 0
M  V30 1626 H 158.43 5.09747 -4.72422 0
M  V30 1627 H 161.621 3.62383 -2.96304 0
M  V30 1628 H 161.794 4.85279 -4.29427 0
M  V30 1629 N 155.201 0.870884 1.31352 0
M  V30 1630 C 156.111 0.330783 2.32256 0
M  V30 1631 C 157.127 -0.559767 1.6475 0
M  V30 1632 O 158.303 -0.456263 1.96164 0
M  V30 1633 C 155.368 -0.458137 3.4366 0
M  V30 1634 C 154.429 0.460482 4.26823 0
M  V30 1635 C 153.662 -0.290881 5.32907 0
M  V30 1636 O 153.885 -1.51885 5.49806 0
M  V30 1637 O 152.819 0.351732 6.00871 0
M  V30 1638 H 156.645 1.16718 2.80376 0
M  V30 1639 H 154.23 0.634285 1.35267 0
M  V30 1640 H 156.112 -0.905343 4.1156 0
M  V30 1641 H 154.787 -1.27106 2.97701 0
M  V30 1642 H 153.694 0.956207 3.61673 0
M  V30 1643 H 155.027 1.23903 4.7635 0
M  V30 1644 N 156.679 -1.44442 0.630414 0
M  V30 1645 C 157.925 -2.02351 0.134816 0
M  V30 1646 C 158.258 -1.4947 -1.23986 0
M  V30 1647 O 157.533 -0.678475 -1.82283 0
M  V30 1648 C 157.816 -3.59898 0.120707 0
M  V30 1649 C 157.669 -4.23063 1.52767 0
M  V30 1650 C 158.988 -4.36585 -0.555127 0
M  V30 1651 H 156.107 -0.73527 0.0504646 0
M  V30 1652 H 158.749 -1.72022 0.806751 0
M  V30 1653 H 156.899 -3.85868 -0.451477 0
M  V30 1654 H 158.571 -4.08202 2.14869 0
M  V30 1655 H 156.814 -3.80586 2.08175 0
M  V30 1656 H 157.485 -5.32071 1.46984 0
M  V30 1657 H 159.961 -4.16044 -0.0685429 0
M  V30 1658 H 158.837 -5.46294 -0.534185 0
M  V30 1659 H 159.098 -4.11138 -1.62535 0
M  V30 1660 N 158.157 -0.370918 -1.53173 0
M  V30 1661 C 159.573 -0.0200818 -1.59587 0
M  V30 1662 C 159.773 1.46279 -1.38581 0
M  V30 1663 O 158.829 2.22506 -1.19363 0
M  V30 1664 C 160.142 -0.4808 -2.96831 0
M  V30 1665 C 161.69 -0.435477 -3.09956 0
M  V30 1666 C 162.165 -0.872092 -4.4962 0
M  V30 1667 N 163.656 -0.827364 -4.55751 0
M  V30 1668 C 164.391 -1.13683 -5.62018 0
M  V30 1669 N 163.887 -1.51584 -6.76014 0
M  V30 1670 N 165.68 -1.05927 -5.52029 0
M  V30 1671 H 157.831 -1.33652 -1.65079 0
M  V30 1672 H 160.094 -0.546634 -0.774529 0
M  V30 1673 H 159.8 -1.51577 -3.1736 0
M  V30 1674 H 159.674 0.129796 -3.76977 0
M  V30 1675 H 162.061 0.590371 -2.89134 0
M  V30 1676 H 162.142 -1.08164 -2.31806 0
M  V30 1677 H 161.786 -1.89608 -4.71181 0
M  V30 1678 H 161.716 -0.203127 -5.26208 0
M  V30 1679 H 164.207 -0.548216 -3.73902 0
M  V30 1680 H 164.52 -1.73609 -7.53047 0
M  V30 1681 H 162.865 -1.55454 -6.77391 0
M  V30 1682 H 166.056 -0.762321 -4.61851 0
M  V30 1683 H 166.229 -1.30378 -6.34749 0
M  V30 1684 N 159.635 1.57281 -0.100228 0
M  V30 1685 C 160.884 1.93713 0.561984 0
M  V30 1686 C 161.197 0.984492 1.69018 0
M  V30 1687 O 162.403 1.24273 2.41389 0
M  V30 1688 C 160.859 3.4421 1.05106 0
M  V30 1689 C 160.467 4.47975 -0.0476628 0
M  V30 1690 C 162.211 3.89595 1.68571 0
M  V30 1691 C 160.118 5.89631 0.457055 0
M  V30 1692 H 159.048 0.723082 0.2137 0
M  V30 1693 H 161.699 1.82644 -0.177057 0
M  V30 1694 H 160.081 3.50449 1.84395 0
M  V30 1695 H 161.255 4.53385 -0.823333 0
M  V30 1696 H 159.57 4.1223 -0.587816 0
M  V30 1697 H 162.167 4.92832 2.07414 0
M  V30 1698 H 162.51 3.28526 2.55688 0
M  V30 1699 H 163.043 3.86078 0.958562 0
M  V30 1700 H 159.782 6.54411 -0.377616 0
M  V30 1701 H 159.302 5.87681 1.19962 0
M  V30 1702 H 160.981 6.40363 0.92437 0
M  V30 1703 N 161.113 -0.173488 1.56642 0
M  V30 1704 C 162.046 -1.24353 1.91342 0
M  V30 1705 C 163.024 -1.4289 0.775965 0
M  V30 1706 O 164.208 -1.57932 1.02907 0
M  V30 1707 C 161.335 -2.60683 2.16245 0
M  V30 1708 C 160.381 -2.58894 3.38934 0
M  V30 1709 S 161.214 -2.0819 4.93373 0
M  V30 1710 C 162.37 -3.46302 5.21369 0
M  V30 1711 H 162.603 -0.947345 2.81803 0
M  V30 1712 H 160.136 -0.377958 1.49703 0
M  V30 1713 H 162.094 -3.39149 2.31275 0
M  V30 1714 H 160.755 -2.87502 1.26496 0
M  V30 1715 H 159.948 -3.59188 3.53553 0
M  V30 1716 H 159.55 -1.88522 3.2301 0
M  V30 1717 H 161.842 -4.42287 5.13214 0
M  V30 1718 H 162.785 -3.3656 6.23003 0
M  V30 1719 H 163.193 -3.42214 4.48943 0
M  V30 1720 N 162.591 -1.51276 -0.441967 0
M  V30 1721 C 163.538 -1.72256 -1.53612 0
M  V30 1722 C 164.508 -0.564164 -1.56225 0
M  V30 1723 O 165.693 -0.798074 -1.73307 0
M  V30 1724 C 162.833 -1.84932 -2.91366 0
M  V30 1725 C 161.946 -3.12459 -2.98317 0
M  V30 1726 C 161.081 -3.15758 -4.27166 0
M  V30 1727 C 160.12 -4.37619 -4.27967 0
M  V30 1728 N 159.257 -4.38493 -5.48333 0
M  V30 1729 H 164.097 -2.65654 -1.35026 0
M  V30 1730 H 161.634 -1.31662 -0.656009 0
M  V30 1731 H 163.592 -1.90263 -3.7129 0
M  V30 1732 H 162.222 -0.949461 -3.08521 0
M  V30 1733 H 161.274 -3.1646 -2.11086 0
M  V30 1734 H 162.586 -4.02382 -2.94771 0
M  V30 1735 H 161.74 -3.19979 -5.15459 0
M  V30 1736 H 160.479 -2.23715 -4.33362 0
M  V30 1737 H 159.484 -4.33579 -3.38067 0
M  V30 1738 H 160.709 -5.30921 -4.23438 0
M  V30 1739 H 158.655 -3.49318 -5.55259 0
M  V30 1740 H 158.572 -5.22219 -5.46647 0
M  V30 1741 H 159.84 -4.469 -6.38671 0
M  V30 1742 N 164.069 0.697108 -1.41344 0
M  V30 1743 C 165.317 1.45426 -1.40341 0
M  V30 1744 C 165.638 1.94996 -0.0128787 0
M  V30 1745 O 164.908 1.71599 0.945027 0
M  V30 1746 H 163.488 0.539594 -0.516573 0
M  V30 1747 H 166.15 0.825201 -1.76569 0
M  V30 1748 H 165.246 2.31817 -2.08967 0
M  V30 1749 N 165.547 1.27147 0.931209 0
M  V30 1750 C 166.477 1.12081 2.04842 0
M  V30 1751 C 167.458 0.0232364 1.70084 0
M  V30 1752 O 168.643 0.197085 1.93197 0
M  V30 1753 C 165.773 0.76354 3.38803 0
M  V30 1754 C 164.727 1.81396 3.87659 0
M  V30 1755 C 164.053 1.31075 5.18385 0
M  V30 1756 C 165.353 3.21739 4.11438 0
M  V30 1757 H 167.047 2.05537 2.17703 0
M  V30 1758 H 164.593 0.989603 1.04608 0
M  V30 1759 H 166.546 0.644982 4.16435 0
M  V30 1760 H 165.27 -0.206727 3.25945 0
M  V30 1761 H 163.929 1.92136 3.12217 0
M  V30 1762 H 163.577 0.330037 5.01916 0
M  V30 1763 H 163.277 2.013 5.52044 0
M  V30 1764 H 164.801 1.20506 5.98591 0
M  V30 1765 H 166.215 3.14019 4.79651 0
M  V30 1766 H 164.612 3.89644 4.56397 0
M  V30 1767 H 165.682 3.67054 3.16859 0
M  V30 1768 N 167.025 -1.13721 1.09112 0
M  V30 1769 C 167.973 -2.21103 0.722219 0
M  V30 1770 C 168.967 -1.67147 -0.275374 0
M  V30 1771 O 170.173 -1.79477 -0.137176 0
M  V30 1772 H 166.548 -0.720445 0.215553 0
M  V30 1773 H 168.519 -2.49483 1.63709 0
M  V30 1774 C 167.268 -3.47352 0.15543 0
M  V30 1775 H 166.591 -3.89206 0.914246 0
M  V30 1776 H 168.031 -4.2395 -0.0647967 0
M  V30 1777 C 166.49 -3.1814 -1.10852 0
M  V30 1778 O 167.02 -3.36604 -2.19227 0
M  V30 1779 N 165.226 -2.72045 -1.02176 0
M  V30 1780 H 164.773 -2.57221 -0.139764 0
M  V30 1781 H 164.731 -2.52875 -1.8682 0
M  V30 1782 N 168.503 -0.877838 -1.30888 0
M  V30 1783 C 169.453 -0.310872 -2.25871 0
M  V30 1784 C 170.437 0.556596 -1.50966 0
M  V30 1785 O 171.629 0.402187 -1.7237 0
M  V30 1786 C 168.758 0.479821 -3.3993 0
M  V30 1787 C 167.844 -0.401333 -4.22197 0
M  V30 1788 N 168.235 -1.49848 -4.83093 0
M  V30 1789 C 166.533 -0.195167 -4.45573 0
M  V30 1790 C 167.234 -2.0425 -5.44662 0
M  V30 1791 N 166.21 -1.33843 -5.26865 0
M  V30 1792 H 170.012 -1.1493 -2.70496 0
M  V30 1793 H 167.526 -0.726458 -1.45246 0
M  V30 1794 H 169.523 0.902582 -4.07012 0
M  V30 1795 H 168.183 1.31577 -2.96846 0
M  V30 1796 H 169.194 -1.88137 -4.82519 0
M  V30 1797 H 165.871 0.604192 -4.13105 0
M  V30 1798 H 167.261 -2.96345 -6.03017 0
M  V30 1799 N 169.982 1.44106 -0.638065 0
M  V30 1800 C 171.393 1.85316 -0.226894 0
M  V30 1801 C 171.744 1.53399 1.22324 0
M  V30 1802 O 170.869 0.975463 1.93167 0
M  V30 1803 C 171.464 3.3637 -0.405013 0
M  V30 1804 C 170.023 3.76369 -0.0482902 0
M  V30 1805 C 169.17 2.67921 -0.715108 0
M  V30 1806 H 172.121 1.34474 -0.842764 0
M  V30 1807 H 172.142 3.7885 0.354 0
M  V30 1808 H 171.654 3.59569 -1.46053 0
M  V30 1809 H 169.755 3.58784 1.00522 0
M  V30 1810 H 169.868 4.76856 -0.463187 0
M  V30 1811 H 168.232 2.54259 -0.149753 0
M  V30 1812 H 169.015 2.93951 -1.77335 0
M  V30 1813 N 171.46 0.379036 1.52974 0
M  V30 1814 C 172.408 -0.476033 2.27677 0
M  V30 1815 C 173.402 -1.0719 1.31174 0
M  V30 1816 O 174.608 -1.01355 1.48752 0
M  V30 1817 H 170.983 -0.172255 0.732006 0
M  V30 1818 H 172.954 0.175615 2.97883 0
M  V30 1819 C 171.703 -1.5967 3.0887 0
M  V30 1820 H 171.026 -1.1475 3.82978 0
M  V30 1821 H 172.466 -2.16943 3.64296 0
M  V30 1822 C 170.925 -2.54682 2.20542 0
M  V30 1823 O 171.455 -3.57836 1.82527 0
M  V30 1824 N 169.661 -2.24183 1.84907 0
M  V30 1825 H 169.208 -1.40333 2.1602 0
M  V30 1826 H 169.166 -2.88006 1.26096 0
M  V30 1827 N 172.938 -1.57226 0.108567 0
M  V30 1828 C 174.187 -1.94008 -0.551703 0
M  V30 1829 C 174.5 -0.993442 -1.68494 0
M  V30 1830 O 175.706 -1.25551 -2.40726 0
M  V30 1831 C 174.162 -3.44763 -1.03279 0
M  V30 1832 C 173.77 -4.47943 0.0714193 0
M  V30 1833 C 175.514 -3.90483 -1.66503 0
M  V30 1834 C 173.421 -5.89865 -0.425779 0
M  V30 1835 H 172.351 -0.724206 -0.209863 0
M  V30 1836 H 175.002 -1.82547 0.186741 0
M  V30 1837 H 173.384 -3.51422 -1.82533 0
M  V30 1838 H 174.558 -4.52942 0.847365 0
M  V30 1839 H 172.873 -4.11913 0.609669 0
M  V30 1840 H 175.47 -4.93925 -2.04798 0
M  V30 1841 H 175.813 -3.29877 -2.53942 0
M  V30 1842 H 176.346 -3.86581 -0.938074 0
M  V30 1843 H 173.085 -6.54202 0.412316 0
M  V30 1844 H 172.605 -5.88309 -1.16843 0
M  V30 1845 H 174.284 -6.40844 -0.890397 0
M  V30 1846 N 174.416 0.165178 -1.56732 0
M  V30 1847 C 175.662 0.882112 -1.82611 0
M  V30 1848 C 175.995 1.81628 -0.687378 0
M  V30 1849 O 175.27 1.92009 0.310267 0
M  V30 1850 C 175.553 1.67245 -3.18906 0
M  V30 1851 C 175.406 0.760987 -4.43316 0
M  V30 1852 C 176.725 2.63884 -3.52212 0
M  V30 1853 H 173.844 0.319242 -0.664269 0
M  V30 1854 H 176.486 0.148052 -1.89422 0
M  V30 1855 H 174.636 2.29824 -3.1323 0
M  V30 1856 H 176.308 0.147596 -4.61064 0
M  V30 1857 H 174.551 0.0694102 -4.33744 0
M  V30 1858 H 175.222 1.34962 -5.35247 0
M  V30 1859 H 177.698 2.11429 -3.58381 0
M  V30 1860 H 176.574 3.16245 -4.48643 0
M  V30 1861 H 176.835 3.44377 -2.77231 0
M  V30 1862 N 175.894 1.51508 0.433938 0
M  V30 1863 C 176.841 1.73068 1.52696 0
M  V30 1864 C 177.811 0.572441 1.55924 0
M  V30 1865 O 178.996 0.807253 1.72882 0
M  V30 1866 C 176.136 1.86474 2.90381 0
M  V30 1867 C 175.249 3.14037 2.96656 0
M  V30 1868 C 174.384 3.18019 4.25485 0
M  V30 1869 C 173.423 4.39882 4.2564 0
M  V30 1870 N 172.56 4.41394 5.45999 0
M  V30 1871 H 177.4 2.66366 1.33615 0
M  V30 1872 H 174.937 1.32008 0.649018 0
M  V30 1873 H 176.895 1.92229 3.70275 0
M  V30 1874 H 175.525 0.965809 3.08013 0
M  V30 1875 H 174.577 3.17575 2.09404 0
M  V30 1876 H 175.889 4.0394 2.92633 0
M  V30 1877 H 175.043 3.22708 5.13755 0
M  V30 1878 H 173.782 2.2601 4.3217 0
M  V30 1879 H 172.787 4.35366 3.35763 0
M  V30 1880 H 174.012 5.33159 4.20617 0
M  V30 1881 H 171.958 3.52258 5.53399 0
M  V30 1882 H 171.875 5.25111 5.4387 0
M  V30 1883 H 173.143 4.50281 6.36292 0
M  V30 1884 N 177.372 -0.689602 1.41712 0
M  V30 1885 C 178.302 -1.81577 1.46806 0
M  V30 1886 C 179.283 -1.66945 0.326105 0
M  V30 1887 O 180.468 -1.86588 0.538377 0
M  V30 1888 C 177.598 -3.19762 1.35535 0
M  V30 1889 C 176.552 -3.49107 2.47605 0
M  V30 1890 C 175.878 -4.86711 2.21397 0
M  V30 1891 C 177.178 -3.47483 3.89939 0
M  V30 1892 H 178.872 -1.7757 2.41058 0
M  V30 1893 H 176.418 -0.852887 1.16025 0
M  V30 1894 H 178.371 -3.98263 1.3771 0
M  V30 1895 H 177.095 -3.24409 0.377708 0
M  V30 1896 H 175.754 -2.72959 2.44722 0
M  V30 1897 H 175.402 -4.8799 1.21961 0
M  V30 1898 H 175.102 -5.0731 2.96497 0
M  V30 1899 H 176.626 -5.67515 2.25297 0
M  V30 1900 H 178.04 -4.1598 3.94505 0
M  V30 1901 H 176.437 -3.79615 4.64771 0
M  V30 1902 H 177.507 -2.46341 4.17665 0
M  V30 1903 N 178.85 -1.27639 -0.924453 0
M  V30 1904 C 180.097 -1.14167 -1.67249 0
M  V30 1905 C 180.425 0.311863 -1.91984 0
M  V30 1906 O 179.68 1.24425 -1.51053 0
M  V30 1907 C 179.979 -1.87407 -3.04325 0
M  V30 1908 C 179.645 -3.37249 -2.99289 0
M  V30 1909 C 178.307 -3.7812 -2.97622 0
M  V30 1910 C 180.659 -4.32845 -2.90336 0
M  V30 1911 C 177.987 -5.12944 -2.8479 0
M  V30 1912 C 180.339 -5.6773 -2.79045 0
M  V30 1913 C 179.003 -6.07889 -2.7573 0
M  V30 1914 H 178.273 -0.417766 -0.612007 0
M  V30 1915 H 180.92 -1.58286 -1.07786 0
M  V30 1916 H 179.225 -1.35805 -3.67511 0
M  V30 1917 H 180.922 -1.74408 -3.61086 0
M  V30 1918 H 177.512 -3.04748 -3.01374 0
M  V30 1919 H 181.696 -4.02239 -2.90719 0
M  V30 1920 H 176.952 -5.432 -2.80612 0
M  V30 1921 H 181.126 -6.41472 -2.71083 0
M  V30 1922 H 178.753 -7.12314 -2.65544 0
M  V30 1923 N 180.328 1.1314 -1.09713 0
M  V30 1924 C 181.238 2.22242 -0.751367 0
M  V30 1925 C 182.254 1.72224 0.247938 0
M  V30 1926 O 183.43 2.01205 0.0885463 0
M  V30 1927 C 180.495 3.46231 -0.180274 0
M  V30 1928 C 179.556 4.11125 -1.2359 0
M  V30 1929 C 178.789 5.29195 -0.691966 0
M  V30 1930 O 179.012 5.68342 0.48414 0
M  V30 1931 O 177.946 5.84214 -1.44838 0
M  V30 1932 H 181.772 2.54197 -1.66186 0
M  V30 1933 H 179.357 1.21331 -0.871735 0
M  V30 1934 H 181.239 4.21185 0.134739 0
M  V30 1935 H 179.914 3.1597 0.703185 0
M  V30 1936 H 178.821 3.37985 -1.60366 0
M  V30 1937 H 180.154 4.45524 -2.09211 0
M  V30 1938 N 181.806 0.884767 1.30421 0
M  V30 1939 C 183.052 0.503851 1.96441 0
M  V30 1940 C 183.385 -0.944518 1.69684 0
M  V30 1941 O 182.66 -1.66737 1.00145 0
M  V30 1942 C 182.943 0.779085 3.51571 0
M  V30 1943 C 182.796 2.27807 3.87846 0
M  V30 1944 C 184.115 0.255452 4.39358 0
M  V30 1945 H 181.234 0.184533 0.713524 0
M  V30 1946 H 183.876 1.10872 1.54297 0
M  V30 1947 H 182.026 0.264274 3.876 0
M  V30 1948 H 183.698 2.86127 3.61841 0
M  V30 1949 H 181.941 2.74479 3.35922 0
M  V30 1950 H 182.612 2.42125 4.96064 0
M  V30 1951 H 185.088 0.696079 4.10236 0
M  V30 1952 H 183.964 0.477361 5.4682 0
M  V30 1953 H 184.225 -0.843293 4.33983 0
M  V30 1954 N 183.284 -1.43765 0.645699 0
M  V30 1955 C 184.533 -2.01116 0.153412 0
M  V30 1956 C 184.846 -1.51493 -1.23731 0
M  V30 1957 O 186.052 -2.01067 -1.8244 0
M  V30 1958 C 184.508 -3.59206 0.223473 0
M  V30 1959 C 184.116 -4.17823 1.61642 0
M  V30 1960 C 185.86 -4.23972 -0.211597 0
M  V30 1961 C 183.767 -5.68183 1.64081 0
M  V30 1962 H 182.697 -0.752093 0.0535891 0
M  V30 1963 H 185.348 -1.6482 0.806633 0
M  V30 1964 H 183.73 -3.92867 -0.497118 0
M  V30 1965 H 184.904 -3.95674 2.36176 0
M  V30 1966 H 183.219 -3.65399 1.99681 0
M  V30 1967 H 185.816 -5.34275 -0.213112 0
M  V30 1968 H 186.159 -3.97352 -1.24165 0
M  V30 1969 H 186.692 -3.95166 0.456988 0
M  V30 1970 H 183.431 -5.99559 2.64971 0
M  V30 1971 H 182.951 -5.9241 0.938611 0
M  V30 1972 H 184.63 -6.32085 1.3812 0
M  V30 1973 N 184.763 -0.387143 -1.52771 0
M  V30 1974 C 185.673 0.456442 -2.30117 0
M  V30 1975 C 186.689 1.07342 -1.36944 0
M  V30 1976 O 187.865 1.07971 -1.70013 0
M  V30 1977 C 184.93 1.56957 -3.09136 0
M  V30 1978 C 183.991 0.977916 -4.18014 0
M  V30 1979 C 183.224 2.038 -4.93256 0
M  V30 1980 O 183.447 3.25271 -4.68567 0
M  V30 1981 O 182.381 1.6565 -5.78657 0
M  V30 1982 H 186.207 -0.17359 -3.03203 0
M  V30 1983 H 183.792 -0.150919 -1.48636 0
M  V30 1984 H 185.674 2.21628 -3.58412 0
M  V30 1985 H 184.349 2.18461 -2.38865 0
M  V30 1986 H 183.256 0.294525 -3.72939 0
M  V30 1987 H 184.589 0.407128 -4.90513 0
M  V30 1988 N 186.241 1.57166 -0.116904 0
M  V30 1989 C 187.469 1.99473 0.549383 0
M  V30 1990 C 187.884 0.996541 1.60357 0
M  V30 1991 O 187.241 -0.0108731 1.82497 0
M  V30 1992 C 187.292 3.41788 1.17741 0
M  V30 1993 O 187.013 4.37788 0.165362 0
M  V30 1994 C 188.514 3.99216 1.92722 0
M  V30 1995 H 185.734 0.655009 0.145616 0
M  V30 1996 H 188.278 2.03494 -0.202625 0
M  V30 1997 H 186.433 3.38713 1.88021 0
M  V30 1998 H 186.847 5.20806 0.621403 0
M  V30 1999 H 188.321 5.00882 2.31995 0
M  V30 2000 H 188.798 3.3824 2.80161 0
M  V30 2001 H 189.404 4.0583 1.27209 0
M  V30 2002 N 187.719 -0.156864 1.56817 0
M  V30 2003 C 188.629 -1.2136 2.00771 0
M  V30 2004 C 189.645 -1.47598 0.921459 0
M  V30 2005 O 190.821 -1.59462 1.2302 0
M  V30 2006 C 187.886 -2.52943 2.37109 0
M  V30 2007 C 186.947 -2.34439 3.59634 0
M  V30 2008 C 186.18 -3.59748 3.94229 0
M  V30 2009 O 186.403 -4.65526 3.29609 0
M  V30 2010 O 185.337 -3.52998 4.8752 0
M  V30 2011 H 189.163 -0.870468 2.90958 0
M  V30 2012 H 186.748 -0.36484 1.44877 0
M  V30 2013 H 188.63 -3.30538 2.61386 0
M  V30 2014 H 187.305 -2.86806 1.5008 0
M  V30 2015 H 186.212 -1.54828 3.40557 0
M  V30 2016 H 187.545 -2.05496 4.4725 0
M  V30 2017 N 189.197 -1.51736 -0.425897 0
M  V30 2018 C 190.144 -1.73875 -1.51776 0
M  V30 2019 C 191.114 -0.580702 -1.55618 0
M  V30 2020 O 192.299 -0.81641 -1.72451 0
M  V30 2021 C 189.439 -1.88012 -2.89388 0
M  V30 2022 C 188.552 -3.15606 -2.94986 0
M  V30 2023 C 187.687 -3.20271 -4.23793 0
M  V30 2024 C 186.726 -4.42134 -4.23302 0
M  V30 2025 N 185.863 -4.44284 -5.43651 0
M  V30 2026 H 190.703 -2.67071 -1.32201 0
M  V30 2027 H 188.24 -1.32351 -0.642008 0
M  V30 2028 H 190.198 -1.9419 -3.69251 0
M  V30 2029 H 188.828 -0.98213 -3.07496 0
M  V30 2030 H 187.88 -3.18681 -2.07717 0
M  V30 2031 H 189.192 -4.05486 -2.90486 0
M  V30 2032 H 188.346 -3.25428 -5.12036 0
M  V30 2033 H 187.085 -2.28299 -4.30965 0
M  V30 2034 H 186.09 -4.3714 -3.3345 0
M  V30 2035 H 187.315 -5.35382 -4.17783 0
M  V30 2036 H 185.261 -3.55188 -5.51523 0
M  V30 2037 H 185.178 -5.27988 -5.41078 0
M  V30 2038 H 186.446 -4.53649 -6.33895 0
M  V30 2039 N 190.675 0.682077 -1.42076 0
M  V30 2040 C 191.903 1.47057 -1.4554 0
M  V30 2041 C 192.318 1.8869 -0.0645779 0
M  V30 2042 O 191.675 1.57666 0.919115 0
M  V30 2043 C 191.726 2.72442 -2.37609 0
M  V30 2044 O 191.447 2.32559 -3.71279 0
M  V30 2045 C 192.948 3.66069 -2.50017 0
M  V30 2046 H 190.168 0.452737 -0.495248 0
M  V30 2047 H 192.712 0.838695 -1.8651 0
M  V30 2048 H 190.867 3.31835 -1.9991 0
M  V30 2049 H 191.281 3.13475 -4.20516 0
M  V30 2050 H 192.755 4.50792 -3.18576 0
M  V30 2051 H 193.232 4.11476 -1.53572 0
M  V30 2052 H 193.838 3.12572 -2.88407 0
M  V30 2053 N 192.153 1.28127 0.917671 0
M  V30 2054 C 193.083 1.14248 2.03641 0
M  V30 2055 C 194.064 0.0412748 1.7005 0
M  V30 2056 O 195.249 0.217566 1.92977 0
M  V30 2057 C 192.379 0.799431 3.37974 0
M  V30 2058 C 191.333 1.85497 3.85713 0
M  V30 2059 C 190.659 1.36565 5.16966 0
M  V30 2060 C 191.959 3.26085 4.08002 0
M  V30 2061 H 193.653 2.07835 2.15511 0
M  V30 2062 H 191.199 1.00064 1.03553 0
M  V30 2063 H 193.152 0.689114 4.15727 0
M  V30 2064 H 191.876 -0.172145 3.26146 0
M  V30 2065 H 190.535 1.95437 3.10161 0
M  V30 2066 H 190.183 0.383253 5.01538 0
M  V30 2067 H 189.883 2.07143 5.49878 0
M  V30 2068 H 191.407 1.26848 5.97279 0
M  V30 2069 H 192.821 3.19089 4.76293 0
M  V30 2070 H 191.218 3.94462 4.52238 0
M  V30 2071 H 192.288 3.70394 3.12948 0
M  V30 2072 N 193.631 -1.12557 1.10312 0
M  V30 2073 C 194.861 -1.87592 0.865617 0
M  V30 2074 C 195.269 -1.79851 -0.587389 0
M  V30 2075 O 194.612 -1.16949 -1.41664 0
M  V30 2076 C 194.674 -3.37665 1.23381 0
M  V30 2077 C 194.338 -3.69181 2.69359 0
M  V30 2078 C 195.335 -3.67652 3.67597 0
M  V30 2079 C 193.02 -3.98555 3.05711 0
M  V30 2080 C 195.014 -3.95053 5.00212 0
M  V30 2081 C 192.701 -4.25616 4.38514 0
M  V30 2082 C 193.699 -4.23851 5.35574 0
M  V30 2083 O 193.387 -4.50242 6.65986 0
M  V30 2084 H 193.119 -0.600442 0.310557 0
M  V30 2085 H 195.673 -1.4335 1.47105 0
M  V30 2086 H 193.903 -3.82454 0.571467 0
M  V30 2087 H 195.592 -3.94041 0.973994 0
M  V30 2088 H 196.358 -3.45024 3.40857 0
M  V30 2089 H 192.237 -3.99071 2.30789 0
M  V30 2090 H 195.781 -3.93591 5.75962 0
M  V30 2091 H 191.678 -4.47718 4.64994 0
M  V30 2092 H 192.446 -4.67867 6.71597 0
M  V30 2093 N 195.109 -0.891671 -1.2995 0
M  V30 2094 C 196.039 -0.379797 -2.30391 0
M  V30 2095 C 197.02 0.540919 -1.6127 0
M  V30 2096 O 198.205 0.453352 -1.88834 0
M  V30 2097 C 195.335 0.400654 -3.44981 0
M  V30 2098 C 194.289 -0.428905 -4.25846 0
M  V30 2099 C 193.615 0.478557 -5.32554 0
M  V30 2100 C 194.915 -1.67458 -4.94727 0
M  V30 2101 H 196.609 -1.21914 -2.73454 0
M  V30 2102 H 194.155 -0.587675 -1.31462 0
M  V30 2103 H 196.108 0.769434 -4.14316 0
M  V30 2104 H 194.832 1.27371 -3.0074 0
M  V30 2105 H 193.491 -0.779911 -3.58208 0
M  V30 2106 H 193.139 1.34951 -4.84559 0
M  V30 2107 H 192.839 -0.0727433 -5.87555 0
M  V30 2108 H 194.363 0.843705 -6.04743 0
M  V30 2109 H 195.777 -1.376 -5.56542 0
M  V30 2110 H 194.174 -2.16659 -5.59624 0
M  V30 2111 H 195.244 -2.41518 -4.20473 0
M  V30 2112 N 196.587 1.43421 -0.653314 0
M  V30 2113 C 197.833 2.02111 -0.166992 0
M  V30 2114 C 198.166 1.51423 1.21592 0
M  V30 2115 O 197.441 0.707389 1.8118 0
M  V30 2116 C 197.724 3.5966 -0.177948 0
M  V30 2117 C 197.577 4.20579 -1.59478 0
M  V30 2118 C 198.896 4.37413 0.4856 0
M  V30 2119 H 196.015 0.734374 -0.0621557 0
M  V30 2120 H 198.657 1.70717 -0.834016 0
M  V30 2121 H 196.807 3.86537 0.390032 0
M  V30 2122 H 198.479 4.04732 -2.21336 0
M  V30 2123 H 196.722 3.77226 -2.14204 0
M  V30 2124 H 197.393 5.29665 -1.5543 0
M  V30 2125 H 199.869 4.161 0.00234528 0
M  V30 2126 H 198.745 5.47075 0.447207 0
M  V30 2127 H 199.006 4.13672 1.55974 0
M  V30 2128 N 198.065 0.39524 1.52563 0
M  V30 2129 C 198.998 -0.4813 2.23067 0
M  V30 2130 C 199.976 -1.05927 1.23362 0
M  V30 2131 O 201.16 -1.10979 1.52368 0
M  V30 2132 C 198.287 -1.66676 2.9485 0
M  V30 2133 C 197.333 -1.21348 4.08873 0
M  V30 2134 S 198.166 -0.190102 5.35162 0
M  V30 2135 C 199.322 -1.38121 6.1047 0
M  V30 2136 H 199.555 0.117381 2.97068 0
M  V30 2137 H 197.088 0.179458 1.53354 0
M  V30 2138 H 199.046 -2.3466 3.36816 0
M  V30 2139 H 197.707 -2.23676 2.20518 0
M  V30 2140 H 196.9 -2.09877 4.58222 0
M  V30 2141 H 196.502 -0.612486 3.68951 0
M  V30 2142 H 198.794 -2.30726 6.37002 0
M  V30 2143 H 199.737 -0.928521 7.01986 0
M  V30 2144 H 200.145 -1.60071 5.41329 0
M  V30 2145 N 199.544 -1.57102 0.125237 0
M  V30 2146 C 200.454 -2.19191 -0.8362 0
M  V30 2147 C 201.47 -1.16985 -1.28805 0
M  V30 2148 O 202.646 -1.49479 -1.34974 0
M  V30 2149 C 199.711 -2.78407 -2.06617 0
M  V30 2150 C 198.772 -3.9567 -1.66565 0
M  V30 2151 C 198.005 -4.52052 -2.83698 0
M  V30 2152 O 198.228 -4.07326 -3.99302 0
M  V30 2153 O 197.162 -5.42645 -2.60423 0
M  V30 2154 H 200.988 -3.01816 -0.337776 0
M  V30 2155 H 198.573 -1.4906 -0.100695 0
M  V30 2156 H 200.455 -3.16129 -2.7864 0
M  V30 2157 H 199.13 -1.9881 -2.55453 0
M  V30 2158 H 198.037 -3.62705 -0.916296 0
M  V30 2159 H 199.37 -4.76722 -1.22464 0
M  V30 2160 N 201.022 0.148545 -1.56898 0
M  V30 2161 C 202.252 0.875118 -1.8715 0
M  V30 2162 C 202.66 1.75322 -0.711262 0
M  V30 2163 O 202.003 1.80745 0.328151 0
M  V30 2164 C 202.065 1.7844 -3.12089 0
M  V30 2165 C 201.729 1.08361 -4.43967 0
M  V30 2166 C 202.726 0.438247 -5.1805 0
M  V30 2167 C 200.411 1.07358 -4.90693 0
M  V30 2168 C 202.405 -0.20779 -6.37061 0
M  V30 2169 C 200.092 0.42373 -6.09629 0
M  V30 2170 C 201.09 -0.215829 -6.82659 0
M  V30 2171 O 200.778 -0.855378 -7.99336 0
M  V30 2172 H 200.51 0.258504 -0.624621 0
M  V30 2173 H 203.064 0.14652 -2.04877 0
M  V30 2174 H 201.294 2.55389 -2.90367 0
M  V30 2175 H 202.983 2.38279 -3.286 0
M  V30 2176 H 203.749 0.437817 -4.8302 0
M  V30 2177 H 199.628 1.5608 -4.33774 0
M  V30 2178 H 203.172 -0.70758 -6.94002 0
M  V30 2179 H 199.069 0.421822 -6.4412 0
M  V30 2180 H 199.837 -0.756892 -8.14993 0
M  V30 2181 N 202.5 1.5196 0.417844 0
M  V30 2182 C 203.463 1.74065 1.49111 0
M  V30 2183 C 204.463 0.610537 1.48758 0
M  V30 2184 O 205.653 0.87832 1.50437 0
M  V30 2185 C 202.785 1.81502 2.88565 0
M  V30 2186 H 203.978 2.69869 1.30807 0
M  V30 2187 H 201.531 1.42244 0.647785 0
M  V30 2188 H 202.266 0.875813 3.1225 0
M  V30 2189 H 202.051 2.63651 2.90225 0
M  V30 2190 H 203.541 2.00376 3.66387 0
M  V30 2191 N 203.978 -0.674533 1.42435 0
M  V30 2192 C 205.203 -1.46784 1.46524 0
M  V30 2193 C 205.628 -1.87938 0.078066 0
M  V30 2194 O 204.986 -1.56014 -0.92354 0
M  V30 2195 C 205.034 -2.69307 2.39805 0
M  V30 2196 O 204.138 -3.67587 1.86959 0
M  V30 2197 H 203.479 -0.440959 0.496439 0
M  V30 2198 H 206.009 -0.827326 1.87127 0
M  V30 2199 H 206.019 -3.17374 2.56393 0
M  V30 2200 H 204.694 -2.38692 3.40586 0
M  V30 2201 H 203.271 -3.2662 1.79927 0
M  V30 2202 N 205.456 -1.28612 -0.910864 0
M  V30 2203 C 206.419 -1.12803 -1.9952 0
M  V30 2204 C 207.419 -0.0668264 -1.60661 0
M  V30 2205 O 208.609 -0.312847 -1.71368 0
M  V30 2206 C 205.741 -0.72254 -3.33155 0
M  V30 2207 H 206.934 -2.09109 -2.14973 0
M  V30 2208 H 204.487 -1.11639 -1.09391 0
M  V30 2209 H 205.222 0.241152 -3.23402 0
M  V30 2210 H 205.007 -1.48916 -3.62721 0
M  V30 2211 H 206.497 -0.634666 -4.12749 0
M  V30 2212 N 206.934 1.1197 -1.10907 0
M  V30 2213 C 208.182 1.83225 -0.852819 0
M  V30 2214 C 208.503 1.84769 0.623341 0
M  V30 2215 O 207.773 1.3143 1.45269 0
M  V30 2216 H 206.353 0.67849 -0.312507 0
M  V30 2217 H 209.015 1.3556 -1.40033 0
M  V30 2218 H 208.111 2.87265 -1.22005 0
M  V30 2219 N 208.412 0.89855 1.29475 0
M  V30 2220 C 209.322 0.379974 2.31502 0
M  V30 2221 C 210.338 -0.524695 1.659 0
M  V30 2222 O 211.514 -0.414551 1.97087 0
M  V30 2223 C 208.579 -0.385138 3.44554 0
M  V30 2224 C 207.64 0.550914 4.2575 0
M  V30 2225 C 206.873 -0.177778 5.33404 0
M  V30 2226 O 207.096 -1.40189 5.52904 0
M  V30 2227 O 206.03 0.479106 5.9999 0
M  V30 2228 H 209.856 1.22639 2.77837 0
M  V30 2229 H 207.441 0.662834 1.33891 0
M  V30 2230 H 209.323 -0.817841 4.13388 0
M  V30 2231 H 207.998 -1.20763 3.0033 0
M  V30 2232 H 206.905 1.03271 3.59564 0
M  V30 2233 H 208.238 1.33979 4.73614 0
M  V30 2234 N 209.89 -1.43072 0.660911 0
M  V30 2235 C 211.136 -2.0202 0.177708 0
M  V30 2236 C 211.469 -1.52066 -1.20787 0
M  V30 2237 O 210.744 -0.716987 -1.80802 0
M  V30 2238 C 211.027 -3.59561 0.197019 0
M  V30 2239 C 210.88 -4.19727 1.61706 0
M  V30 2240 C 212.199 -4.37664 -0.462396 0
M  V30 2241 H 209.318 -0.734034 0.0660494 0
M  V30 2242 H 211.96 -1.70272 0.843058 0
M  V30 2243 H 210.11 -3.86739 -0.369527 0
M  V30 2244 H 211.782 -4.03553 2.23479 0
M  V30 2245 H 210.025 -3.76084 2.16201 0
M  V30 2246 H 210.696 -5.28834 1.58237 0
M  V30 2247 H 213.172 -4.16095 0.0197215 0
M  V30 2248 H 212.048 -5.47305 -0.418188 0
M  V30 2249 H 212.309 -4.14493 -1.53778 0
M  V30 2250 N 211.368 -0.403325 -1.52352 0
M  V30 2251 C 212.615 0.174347 -2.01748 0
M  V30 2252 C 212.943 1.45636 -1.2892 0
M  V30 2253 O 212.198 1.9193 -0.382258 0
M  V30 2254 C 212.497 0.474665 -3.54234 0
M  V30 2255 C 212.163 -0.717458 -4.45155 0
M  V30 2256 C 210.825 -1.04447 -4.69728 0
M  V30 2257 C 213.177 -1.51432 -4.98716 0
M  V30 2258 C 210.505 -2.16963 -5.45109 0
M  V30 2259 C 212.857 -2.6302 -5.75329 0
M  V30 2260 C 211.521 -2.96213 -5.98175 0
M  V30 2261 H 210.791 0.0637981 -0.738248 0
M  V30 2262 H 213.438 -0.543553 -1.83624 0
M  V30 2263 H 211.743 1.27406 -3.70506 0
M  V30 2264 H 213.44 0.934496 -3.89959 0
M  V30 2265 H 210.03 -0.452596 -4.26204 0
M  V30 2266 H 214.214 -1.27491 -4.79645 0
M  V30 2267 H 209.47 -2.43034 -5.61021 0
M  V30 2268 H 213.644 -3.25158 -6.15829 0
M  V30 2269 H 211.271 -3.83516 -6.56368 0
M  V30 2270 N 212.846 1.57033 -0.133567 0
M  V30 2271 C 214.123 1.87256 0.56522 0
M  V30 2272 C 214.503 1.03726 1.83859 0
M  V30 2273 O 213.851 0.120247 2.28183 0
M  V30 2274 C 214.061 3.3865 0.843636 0
M  V30 2275 C 215.409 4.07574 1.19032 0
M  V30 2276 O 216.433 3.43752 0.933429 0
M  V30 2277 O 215.292 5.20259 1.67312 0
M  V30 2278 H 212.386 0.775678 0.286796 0
M  V30 2279 H 214.932 1.68855 -0.169168 0
M  V30 2280 H 213.704 3.91257 -0.0581149 0
M  V30 2281 H 213.327 3.62532 1.63268 0
M  V30 2282 N 214.325 -0.140222 1.56975 0
M  V30 2283 C 215.555 -0.865181 1.87612 0
M  V30 2284 C 215.963 -1.74942 0.72055 0
M  V30 2285 O 215.306 -1.80917 -0.318561 0
M  V30 2286 C 215.368 -1.76782 3.13031 0
M  V30 2287 C 215.032 -1.06005 4.44536 0
M  V30 2288 C 216.029 -0.410768 5.18275 0
M  V30 2289 C 213.714 -1.04754 4.91255 0
M  V30 2290 C 215.708 0.241572 6.36942 0
M  V30 2291 C 213.395 -0.391394 6.09845 0
M  V30 2292 C 214.393 0.252029 6.82535 0
M  V30 2293 O 214.081 0.897757 7.98871 0
M  V30 2294 H 213.813 -0.255188 0.625983 0
M  V30 2295 H 216.367 -0.135653 2.04952 0
M  V30 2296 H 214.597 -2.53846 2.91718 0
M  V30 2297 H 216.286 -2.36533 3.29859 0
M  V30 2298 H 217.052 -0.412195 4.83245 0
M  V30 2299 H 212.931 -1.53777 4.34596 0
M  V30 2300 H 216.475 0.744375 6.93617 0
M  V30 2301 H 212.372 -0.387656 6.44335 0
M  V30 2302 H 213.14 0.800102 8.1458 0
M  V30 2303 N 215.803 -1.52179 -0.40978 0
M  V30 2304 C 216.733 -1.78435 -1.5061 0
M  V30 2305 C 217.714 -0.635295 -1.57791 0
M  V30 2306 O 218.899 -0.880823 -1.73076 0
M  V30 2307 C 216.029 -1.93444 -2.88439 0
M  V30 2308 C 214.983 -3.09038 -2.96108 0
M  V30 2309 C 214.309 -3.09268 -4.36185 0
M  V30 2310 C 215.609 -4.48508 -2.67652 0
M  V30 2311 H 217.303 -2.70237 -1.28889 0
M  V30 2312 H 214.849 -1.30036 -0.618605 0
M  V30 2313 H 216.802 -2.10394 -3.65119 0
M  V30 2314 H 215.526 -0.983129 -3.11452 0
M  V30 2315 H 214.185 -2.91837 -2.21872 0
M  V30 2316 H 213.833 -2.11861 -4.56206 0
M  V30 2317 H 213.533 -3.86907 -4.42241 0
M  V30 2318 H 215.057 -3.28348 -5.14801 0
M  V30 2319 H 216.471 -4.65918 -3.34056 0
M  V30 2320 H 214.868 -5.28059 -2.85085 0
M  V30 2321 H 215.938 -4.56649 -1.63095 0
M  V30 2322 N 217.281 0.66697 -1.42791 0
M  V30 2323 C 218.527 1.4291 -1.43891 0
M  V30 2324 C 218.86 1.94114 -0.0578972 0
M  V30 2325 O 218.135 1.71414 0.91911 0
M  V30 2326 C 218.418 2.62049 -2.46987 0
M  V30 2327 C 218.271 2.16426 -3.94309 0
M  V30 2328 C 219.59 3.64266 -2.46978 0
M  V30 2329 H 216.709 0.518306 -0.523954 0
M  V30 2330 H 219.351 0.757321 -1.74255 0
M  V30 2331 H 217.501 3.19361 -2.21225 0
M  V30 2332 H 219.173 1.64221 -4.31079 0
M  V30 2333 H 217.416 1.47925 -4.078 0
M  V30 2334 H 218.087 3.02038 -4.62036 0
M  V30 2335 H 220.563 3.16686 -2.69906 0
M  V30 2336 H 219.439 4.45196 -3.21079 0
M  V30 2337 H 219.7 4.15927 -1.49857 0
M  V30 2338 N 218.759 1.29093 0.90403 0
M  V30 2339 C 219.984 1.19809 1.69294 0
M  V30 2340 C 220.409 -0.238481 1.86582 0
M  V30 2341 O 219.767 -1.1723 1.383 0
M  V30 2342 C 219.815 1.91202 3.05736 0
M  V30 2343 O 218.919 1.22611 3.93752 0
M  V30 2344 H 218.26 0.415385 0.518027 0
M  V30 2345 H 220.79 1.70586 1.12967 0
M  V30 2346 H 220.8 1.99487 3.55906 0
M  V30 2347 H 219.475 2.95692 2.92471 0
M  V30 2348 H 218.052 1.22554 3.52186 0
M  V30 2349 N 220.237 -1.11381 1.11499 0
M  V30 2350 C 221.187 -2.15555 0.74298 0
M  V30 2351 C 222.171 -1.58894 -0.253276 0
M  V30 2352 O 223.363 -1.76897 -0.0602918 0
M  V30 2353 C 220.492 -3.42782 0.188481 0
M  V30 2354 C 219.578 -4.064 1.21244 0
M  V30 2355 N 219.969 -4.44864 2.40685 0
M  V30 2356 C 218.267 -4.3333 1.05552 0
M  V30 2357 C 218.968 -4.94715 3.05994 0
M  V30 2358 N 217.944 -4.90909 2.33472 0
M  V30 2359 H 221.746 -2.43074 1.65203 0
M  V30 2360 H 219.26 -1.28401 0.994329 0
M  V30 2361 H 221.257 -4.16789 -0.0961693 0
M  V30 2362 H 219.917 -3.16727 -0.715149 0
M  V30 2363 H 220.928 -4.36876 2.78136 0
M  V30 2364 H 217.605 -4.1698 0.208372 0
M  V30 2365 H 218.995 -5.34103 4.07656 0
M  V30 2366 N 221.715 -0.905404 -1.28997 0
M  V30 2367 C 222.963 -0.533192 -1.9494 0
M  V30 2368 C 223.284 0.924618 -1.71685 0
M  V30 2369 O 222.554 1.65268 -1.05183 0
M  V30 2370 H 221.134 -0.194194 -0.721317 0
M  V30 2371 H 223.796 -1.15294 -1.57141 0
M  V30 2372 H 222.892 -0.72059 -3.03667 0
M  V30 2373 N 223.193 1.4272 -0.668489 0
M  V30 2374 C 224.609 1.55992 -0.33745 0
M  V30 2375 C 224.809 1.64933 1.15756 0
M  V30 2376 O 223.865 1.61278 1.94282 0
M  V30 2377 C 225.178 2.81314 -1.06222 0
M  V30 2378 C 226.726 2.95078 -1.04394 0
M  V30 2379 C 227.201 4.23252 -1.74991 0
M  V30 2380 N 228.692 4.3015 -1.71829 0
M  V30 2381 C 229.427 5.28127 -2.23315 0
M  V30 2382 N 228.923 6.32293 -2.83156 0
M  V30 2383 N 230.716 5.19882 -2.13726 0
M  V30 2384 H 222.867 1.3516 -1.63846 0
M  V30 2385 H 225.13 0.650174 -0.689912 0
M  V30 2386 H 224.836 2.80823 -2.11734 0
M  V30 2387 H 224.71 3.72012 -0.62344 0
M  V30 2388 H 227.097 2.951 0.0028244 0
M  V30 2389 H 227.178 2.05627 -1.52155 0
M  V30 2390 H 226.822 4.2399 -2.79633 0
M  V30 2391 H 226.752 5.11626 -1.24685 0
M  V30 2392 H 229.243 3.55499 -1.28175 0
M  V30 2393 H 229.556 7.03398 -3.20079 0
M  V30 2394 H 227.901 6.32873 -2.87223 0
M  V30 2395 H 231.092 4.37423 -1.66669 0
M  V30 2396 H 231.265 5.96077 -2.54158 0
M  V30 2397 N 224.671 0.411399 1.52136 0
M  V30 2398 C 225.604 -0.457614 2.23565 0
M  V30 2399 C 226.582 -1.04613 1.24478 0
M  V30 2400 O 227.766 -1.09356 1.53536 0
M  V30 2401 C 224.893 -1.6354 2.96602 0
M  V30 2402 C 223.939 -1.17005 4.10137 0
M  V30 2403 S 224.772 -0.13333 5.35334 0
M  V30 2404 C 225.928 -1.31638 6.119 0
M  V30 2405 H 226.161 0.148883 2.96927 0
M  V30 2406 H 223.694 0.195713 1.53155 0
M  V30 2407 H 225.652 -2.31074 3.39286 0
M  V30 2408 H 224.313 -2.21324 2.22878 0
M  V30 2409 H 223.506 -2.05005 4.60422 0
M  V30 2410 H 223.108 -0.573319 3.6958 0
M  V30 2411 H 225.4 -2.23957 6.39413 0
M  V30 2412 H 226.343 -0.854014 7.02931 0
M  V30 2413 H 226.751 -1.54321 5.42997 0
M  V30 2414 N 226.149 -1.5696 0.141893 0
M  V30 2415 C 227.096 -2.16501 -0.799737 0
M  V30 2416 C 228.066 -1.09643 -1.24771 0
M  V30 2417 O 229.251 -1.3766 -1.32115 0
M  V30 2418 C 226.391 -2.78679 -2.03549 0
M  V30 2419 C 225.504 -3.99914 -1.6338 0
M  V30 2420 C 224.639 -4.50106 -2.82096 0
M  V30 2421 C 223.678 -5.63819 -2.38275 0
M  V30 2422 N 222.815 -6.08651 -3.49983 0
M  V30 2423 H 227.655 -2.96632 -0.285179 0
M  V30 2424 H 225.192 -1.46533 -0.129053 0
M  V30 2425 H 227.15 -3.1287 -2.75986 0
M  V30 2426 H 225.78 -2.012 -2.52425 0
M  V30 2427 H 224.832 -3.71735 -0.807279 0
M  V30 2428 H 226.144 -4.82311 -1.27192 0
M  V30 2429 H 225.298 -4.86325 -3.62729 0
M  V30 2430 H 224.037 -3.66706 -3.21525 0
M  V30 2431 H 223.042 -5.2718 -1.56081 0
M  V30 2432 H 224.267 -6.49 -1.99938 0
M  V30 2433 H 222.213 -5.28188 -3.89042 0
M  V30 2434 H 222.13 -6.85961 -3.17794 0
M  V30 2435 H 223.398 -6.49515 -4.30988 0
M  V30 2436 N 227.627 0.131896 -1.57047 0
M  V30 2437 C 228.537 1.1815 -2.02676 0
M  V30 2438 C 229.553 1.46113 -0.944824 0
M  V30 2439 O 230.729 1.57485 -1.25541 0
M  V30 2440 C 227.794 2.49139 -2.41103 0
M  V30 2441 C 226.855 2.28688 -3.63318 0
M  V30 2442 C 226.088 3.53431 -3.99903 0
M  V30 2443 O 226.311 4.60223 -3.36973 0
M  V30 2444 O 225.245 3.45198 -4.93074 0
M  V30 2445 H 229.071 0.824069 -2.92306 0
M  V30 2446 H 226.656 0.341745 -1.45439 0
M  V30 2447 H 228.538 3.26338 -2.66611 0
M  V30 2448 H 227.213 2.84382 -1.54624 0
M  V30 2449 H 226.12 1.4939 -3.42977 0
M  V30 2450 H 227.453 1.98355 -4.50462 0
M  V30 2451 N 229.106 1.52395 0.401703 0
M  V30 2452 C 230.053 1.76268 1.48991 0
M  V30 2453 C 231.023 0.605386 1.54675 0
M  V30 2454 O 232.208 0.843742 1.7113 0
M  V30 2455 C 229.348 1.92592 2.86361 0
M  V30 2456 C 228.461 3.20259 2.89928 0
M  V30 2457 C 227.596 3.26972 4.18644 0
M  V30 2458 C 226.635 4.48812 4.16214 0
M  V30 2459 N 225.772 4.52877 5.36514 0
M  V30 2460 H 230.612 2.6914 1.27935 0
M  V30 2461 H 228.149 1.33355 0.620871 0
M  V30 2462 H 230.107 2.0004 3.66115 0
M  V30 2463 H 228.737 1.03093 3.05895 0
M  V30 2464 H 227.789 3.21945 2.02621 0
M  V30 2465 H 229.101 4.10056 2.83999 0
M  V30 2466 H 228.255 3.33533 5.06794 0
M  V30 2467 H 226.994 2.35126 4.27278 0
M  V30 2468 H 225.999 4.4239 3.26453 0
M  V30 2469 H 227.224 5.41961 4.09213 0
M  V30 2470 H 225.17 3.63917 5.45802 0
M  V30 2471 H 225.087 5.36529 5.32609 0
M  V30 2472 H 226.355 4.63676 6.26597 0
M  V30 2473 N 230.584 -0.659388 1.43143 0
M  V30 2474 C 231.494 -1.80167 1.50256 0
M  V30 2475 C 232.51 -1.69571 0.390106 0
M  V30 2476 O 233.686 -1.90849 0.643319 0
M  V30 2477 C 230.751 -3.16409 1.41725 0
M  V30 2478 C 229.812 -3.38848 2.63591 0
M  V30 2479 C 229.045 -4.68591 2.55458 0
M  V30 2480 O 229.268 -5.47532 1.59891 0
M  V30 2481 O 228.202 -4.92614 3.45854 0
M  V30 2482 H 232.028 -1.77121 2.46702 0
M  V30 2483 H 229.613 -0.817092 1.25076 0
M  V30 2484 H 231.495 -3.9768 1.39387 0
M  V30 2485 H 230.17 -3.20059 0.484118 0
M  V30 2486 H 229.077 -2.57366 2.71502 0
M  V30 2487 H 230.41 -3.4004 3.55856 0
M  V30 2488 N 232.062 -1.29571 -0.897171 0
M  V30 2489 C 233.025 -1.14913 -1.98312 0
M  V30 2490 C 234.025 -0.0838629 -1.60581 0
M  V30 2491 O 235.215 -0.331006 -1.71026 0
M  V30 2492 C 232.347 -0.757835 -3.3237 0
M  V30 2493 H 233.54 -2.11377 -2.12743 0
M  V30 2494 H 231.093 -1.12793 -1.08201 0
M  V30 2495 H 231.828 0.206837 -3.2364 0
M  V30 2496 H 231.613 -1.52755 -3.61121 0
M  V30 2497 H 233.103 -0.678408 -4.12053 0
M  V30 2498 N 233.54 1.10788 -1.12088 0
M  V30 2499 C 234.956 1.34691 -0.856186 0
M  V30 2500 C 235.156 1.94791 0.515615 0
M  V30 2501 O 234.212 2.18524 1.26505 0
M  V30 2502 C 235.525 2.27208 -1.9697 0
M  V30 2503 C 237.073 2.40755 -2.00016 0
M  V30 2504 C 237.548 3.36598 -3.1059 0
M  V30 2505 N 239.039 3.44164 -3.10008 0
M  V30 2506 C 239.774 4.18284 -3.92206 0
M  V30 2507 N 239.27 4.95322 -4.84384 0
M  V30 2508 N 241.063 4.13865 -3.80357 0
M  V30 2509 H 233.214 0.70144 -2.00483 0
M  V30 2510 H 235.477 0.371405 -0.872217 0
M  V30 2511 H 235.183 1.90251 -2.958 0
M  V30 2512 H 235.057 3.27485 -1.87172 0
M  V30 2513 H 237.444 2.76982 -1.01808 0
M  V30 2514 H 237.525 1.40305 -2.13888 0
M  V30 2515 H 237.169 3.01096 -4.09028 0
M  V30 2516 H 237.099 4.36918 -2.93956 0
M  V30 2517 H 239.59 2.8922 -2.43228 0
M  V30 2518 H 239.903 5.49267 -5.43623 0
M  V30 2519 H 238.248 4.94459 -4.884 0
M  V30 2520 H 241.439 3.52773 -3.07683 0
M  V30 2521 H 241.612 4.71372 -4.44649 0
M  V30 2522 N 235.018 0.912232 1.28515 0
M  V30 2523 C 235.981 0.404223 2.25607 0
M  V30 2524 C 236.981 -0.468602 1.53821 0
M  V30 2525 O 238.171 -0.271873 1.72065 0
M  V30 2526 C 235.303 -0.420653 3.38295 0
M  V30 2527 H 236.496 1.26188 2.7206 0
M  V30 2528 H 234.049 0.691495 1.40171 0
M  V30 2529 H 234.784 -1.29777 2.97201 0
M  V30 2530 H 234.569 0.204935 3.91564 0
M  V30 2531 H 236.059 -0.766971 4.10496 0
M  V30 2532 N 236.496 -1.42363 0.676048 0
M  V30 2533 C 237.443 -2.308 -0.00150904 0
M  V30 2534 C 238.413 -1.46032 -0.791444 0
M  V30 2535 O 239.598 -1.74861 -0.76344 0
M  V30 2536 C 236.738 -3.31883 -0.945919 0
M  V30 2537 C 235.851 -4.31741 -0.149675 0
M  V30 2538 C 234.986 -5.19898 -1.08995 0
M  V30 2539 C 234.025 -6.11434 -0.285465 0
M  V30 2540 N 233.162 -6.92138 -1.17851 0
M  V30 2541 H 238.002 -2.88187 0.758455 0
M  V30 2542 H 235.539 -1.41952 0.38576 0
M  V30 2543 H 237.497 -3.89019 -1.50731 0
M  V30 2544 H 236.127 -2.76093 -1.6725 0
M  V30 2545 H 235.179 -3.76713 0.528359 0
M  V30 2546 H 236.491 -4.96534 0.474866 0
M  V30 2547 H 235.645 -5.81772 -1.72123 0
M  V30 2548 H 234.384 -4.55284 -1.74837 0
M  V30 2549 H 233.389 -5.48627 0.359018 0
M  V30 2550 H 234.614 -6.78097 0.368883 0
M  V30 2551 H 232.56 -6.30152 -1.82332 0
M  V30 2552 H 232.477 -7.53542 -0.609082 0
M  V30 2553 H 233.745 -7.58499 -1.79722 0
M  V30 2554 N 237.974 -0.419461 -1.51915 0
M  V30 2555 C 239.221 0.152939 -2.01922 0
M  V30 2556 C 239.549 1.4426 -1.30458 0
M  V30 2557 O 238.804 1.91514 -0.402593 0
M  V30 2558 C 239.103 0.437067 -3.54717 0
M  V30 2559 C 238.769 -0.764632 -4.44369 0
M  V30 2560 C 237.431 -1.09423 -4.68594 0
M  V30 2561 C 239.783 -1.56713 -4.97082 0
M  V30 2562 C 237.111 -2.22732 -5.42777 0
M  V30 2563 C 239.463 -2.69107 -5.72507 0
M  V30 2564 C 238.127 -3.02541 -5.95 0
M  V30 2565 H 237.397 0.0559644 -0.738884 0
M  V30 2566 H 240.044 -0.562998 -1.83037 0
M  V30 2567 H 238.349 1.23469 -3.71837 0
M  V30 2568 H 240.046 0.893083 -3.90928 0
M  V30 2569 H 236.636 -0.497775 -4.257 0
M  V30 2570 H 240.82 -1.32571 -4.78266 0
M  V30 2571 H 236.076 -2.48971 -5.58411 0
M  V30 2572 H 240.25 -3.31671 -6.12346 0
M  V30 2573 H 237.877 -3.90457 -6.52264 0
M  V30 2574 N 239.452 1.56882 -0.150215 0
M  V30 2575 C 240.868 1.58263 0.20617 0
M  V30 2576 C 241.068 1.16464 1.64434 0
M  V30 2577 O 240.124 0.866422 2.3717 0
M  V30 2578 C 241.437 3.00649 -0.0555025 0
M  V30 2579 C 242.985 3.12999 0.00795388 0
M  V30 2580 C 243.46 4.5744 -0.226429 0
M  V30 2581 N 244.951 4.62875 -0.173469 0
M  V30 2582 C 245.686 5.72454 -0.329288 0
M  V30 2583 N 245.182 6.90669 -0.543005 0
M  V30 2584 N 246.975 5.61467 -0.266666 0
M  V30 2585 H 239.126 1.82345 -1.08922 0
M  V30 2586 H 241.389 0.844149 -0.431413 0
M  V30 2587 H 241.095 3.3563 -1.05096 0
M  V30 2588 H 240.969 3.71337 0.66246 0
M  V30 2589 H 243.356 2.77857 0.993966 0
M  V30 2590 H 243.437 2.4479 -0.742388 0
M  V30 2591 H 243.081 4.93287 -1.20956 0
M  V30 2592 H 243.011 5.2378 0.544274 0
M  V30 2593 H 245.502 3.77898 -0.0130709 0
M  V30 2594 H 245.815 7.70045 -0.651922 0
M  V30 2595 H 244.16 6.92581 -0.579366 0
M  V30 2596 H 247.351 4.67992 -0.100441 0
M  V30 2597 H 247.524 6.46816 -0.391535 0
M  V30 2598 N 240.93 -0.123565 1.57115 0
M  V30 2599 C 241.862 -1.17739 1.96648 0
M  V30 2600 C 242.875 -1.37906 0.865201 0
M  V30 2601 O 244.064 -1.37062 1.14351 0
M  V30 2602 C 241.164 -2.53821 2.24562 0
M  V30 2603 C 240.337 -2.54317 3.55867 0
M  V30 2604 C 239.396 -3.72112 3.72047 0
M  V30 2605 O 238.422 -3.55907 4.44206 0
M  V30 2606 N 239.624 -4.90498 3.10471 0
M  V30 2607 H 242.389 -0.841147 2.87654 0
M  V30 2608 H 239.95 -0.31289 1.58848 0
M  V30 2609 H 241.942 -3.31175 2.32606 0
M  V30 2610 H 240.512 -2.79645 1.39705 0
M  V30 2611 H 239.732 -1.62711 3.59053 0
M  V30 2612 H 241.02 -2.51701 4.42181 0
M  V30 2613 H 240.418 -5.06567 2.51806 0
M  V30 2614 H 238.975 -5.65544 3.24043 0
M  V30 2615 N 242.408 -1.52605 -0.393616 0
M  V30 2616 C 243.657 -1.66649 -1.13627 0
M  V30 2617 C 243.97 -0.410364 -1.91247 0
M  V30 2618 O 245.176 -0.430854 -2.68059 0
M  V30 2619 C 243.632 -2.9449 -2.06891 0
M  V30 2620 C 243.24 -4.27266 -1.34714 0
M  V30 2621 C 244.984 -3.17899 -2.81319 0
M  V30 2622 C 242.891 -5.46217 -2.26717 0
M  V30 2623 H 241.821 -0.62084 -0.427871 0
M  V30 2624 H 244.472 -1.791 -0.399428 0
M  V30 2625 H 242.854 -2.75774 -2.84191 0
M  V30 2626 H 244.028 -4.56518 -0.626714 0
M  V30 2627 H 242.343 -4.10081 -0.722643 0
M  V30 2628 H 244.94 -4.03949 -3.50328 0
M  V30 2629 H 245.283 -2.32777 -3.45139 0
M  V30 2630 H 245.816 -3.37159 -2.11113 0
M  V30 2631 H 242.555 -6.33733 -1.67521 0
M  V30 2632 H 242.075 -5.21283 -2.96689 0
M  V30 2633 H 243.754 -5.7991 -2.86903 0
M  V30 2634 N 243.887 0.651787 -1.4349 0
M  V30 2635 C 245.133 1.41376 -1.45398 0
M  V30 2636 C 245.466 1.94041 -0.0784823 0
M  V30 2637 O 244.741 1.72379 0.900878 0
M  V30 2638 C 245.024 2.59414 -2.49752 0
M  V30 2639 C 244.877 2.12232 -3.96582 0
M  V30 2640 C 246.196 3.61626 -2.50827 0
M  V30 2641 H 243.315 0.512719 -0.529422 0
M  V30 2642 H 245.957 0.738796 -1.75048 0
M  V30 2643 H 244.107 3.16997 -2.246 0
M  V30 2644 H 245.779 1.59639 -4.32797 0
M  V30 2645 H 244.022 1.43592 -4.09346 0
M  V30 2646 H 244.693 2.9712 -4.65214 0
M  V30 2647 H 247.169 3.13805 -2.7325 0
M  V30 2648 H 246.045 4.41766 -3.25783 0
M  V30 2649 H 246.306 4.14314 -1.5426 0
M  V30 2650 N 245.365 1.30045 0.890287 0
M  V30 2651 C 246.59 1.21598 1.68014 0
M  V30 2652 C 247.015 -0.218678 1.86825 0
M  V30 2653 O 246.373 -1.15756 1.39536 0
M  V30 2654 C 246.421 1.94434 3.03691 0
M  V30 2655 O 245.525 1.2678 3.92429 0
M  V30 2656 H 244.866 0.420856 0.513592 0
M  V30 2657 H 247.396 1.71775 1.11151 0
M  V30 2658 H 247.406 2.03251 3.5377 0
M  V30 2659 H 246.081 2.98777 2.89318 0
M  V30 2660 H 244.658 1.26282 3.50866 0
M  V30 2661 N 246.843 -1.10192 1.12674 0
M  V30 2662 C 247.806 -2.14786 0.799979 0
M  V30 2663 C 248.806 -1.59711 -0.18685 0
M  V30 2664 O 249.996 -1.74156 0.0392558 0
M  V30 2665 C 247.128 -3.40374 0.189228 0
M  V30 2666 H 248.321 -2.45203 1.72671 0
M  V30 2667 H 245.874 -1.25597 0.930326 0
M  V30 2668 H 246.609 -3.15577 -0.747107 0
M  V30 2669 H 246.394 -3.81637 0.899766 0
M  V30 2670 H 247.884 -4.17594 -0.0228143 0
M  V30 2671 N 248.321 -0.919034 -1.28029 0
M  V30 2672 C 249.567 -0.555757 -1.95036 0
M  V30 2673 C 249.9 0.899198 -1.72128 0
M  V30 2674 O 249.175 1.64023 -1.04531 0
M  V30 2675 C 249.458 -0.872024 -3.49382 0
M  V30 2676 C 249.311 -2.3801 -3.81669 0
M  V30 2677 C 250.63 -0.37185 -4.38526 0
M  V30 2678 H 247.749 -0.203386 -0.708381 0
M  V30 2679 H 250.391 -1.14924 -1.51303 0
M  V30 2680 H 248.541 -0.366946 -3.86763 0
M  V30 2681 H 250.213 -2.9562 -3.54128 0
M  V30 2682 H 248.456 -2.83289 -3.28526 0
M  V30 2683 H 249.127 -2.55192 -4.8947 0
M  V30 2684 H 251.603 -0.804602 -4.08247 0
M  V30 2685 H 250.479 -0.622173 -5.45362 0
M  V30 2686 H 250.74 0.727934 -4.36066 0
M  V30 2687 N 249.799 1.42003 -0.683588 0
M  V30 2688 C 250.749 2.27997 0.0121992 0
M  V30 2689 C 251.733 1.4156 0.764822 0
M  V30 2690 O 252.925 1.64935 0.642287 0
M  V30 2691 C 250.054 3.29706 0.956482 0
M  V30 2692 C 249.14 4.23625 0.200739 0
M  V30 2693 N 249.531 4.99448 -0.799087 0
M  V30 2694 C 247.829 4.43845 0.437937 0
M  V30 2695 C 248.53 5.68102 -1.25041 0
M  V30 2696 N 247.506 5.40511 -0.578648 0
M  V30 2697 H 251.308 2.84048 -0.754564 0
M  V30 2698 H 248.822 1.54071 -0.513398 0
M  V30 2699 H 250.819 3.90124 1.47 0
M  V30 2700 H 249.479 2.75216 1.72297 0
M  V30 2701 H 250.49 5.04303 -1.17893 0
M  V30 2702 H 247.167 4.00382 1.18325 0
M  V30 2703 H 248.557 6.38913 -2.07942 0
M  V30 2704 N 251.277 0.427512 1.51691 0
M  V30 2705 C 252.507 -0.140986 2.06118 0
M  V30 2706 C 252.915 -1.37854 1.29588 0
M  V30 2707 O 252.258 -1.80411 0.346036 0
M  V30 2708 C 252.32 -0.538276 3.55447 0
M  V30 2709 C 251.984 0.591095 4.53161 0
M  V30 2710 C 252.981 1.46027 4.98971 0
M  V30 2711 C 250.666 0.769028 4.96378 0
M  V30 2712 C 252.66 2.49216 5.8666 0
M  V30 2713 C 250.347 1.80421 5.83859 0
M  V30 2714 C 251.345 2.66417 6.28897 0
M  V30 2715 O 251.033 3.68159 7.14643 0
M  V30 2716 H 250.765 -0.0157455 0.675817 0
M  V30 2717 H 253.319 0.602495 1.96365 0
M  V30 2718 H 251.549 -1.33432 3.6295 0
M  V30 2719 H 253.238 -1.0368 3.92435 0
M  V30 2720 H 254.004 1.33429 4.66285 0
M  V30 2721 H 249.883 0.109273 4.6087 0
M  V30 2722 H 253.427 3.16372 6.21735 0
M  V30 2723 H 249.324 1.93042 6.15959 0
M  V30 2724 H 250.092 3.64622 7.32798 0
M  V30 2725 N 252.755 -1.56801 0.158532 0
M  V30 2726 C 253.995 -1.98383 -0.49229 0
M  V30 2727 C 254.359 -1.04184 -1.61275 0
M  V30 2728 O 255.56 -1.34856 -2.32524 0
M  V30 2729 C 253.831 -3.4385 -0.974766 0
M  V30 2730 S 255.39 -4.07459 -1.62857 0
M  V30 2731 H 252.208 -0.693041 -0.158794 0
M  V30 2732 H 254.81 -1.93856 0.252974 0
M  V30 2733 H 253.514 -4.10131 -0.148688 0
M  V30 2734 H 253.045 -3.52115 -1.75438 0
M  V30 2735 H 255.06 -4.01458 -2.91627 0
M  V30 2736 N 254.233 0.115231 -1.57178 0
M  V30 2737 C 255.183 1.14707 -1.97044 0
M  V30 2738 C 256.167 1.36866 -0.845957 0
M  V30 2739 O 257.359 1.37895 -1.10968 0
M  V30 2740 C 254.488 2.47266 -2.38148 0
M  V30 2741 C 253.574 2.28566 -3.57237 0
M  V30 2742 N 253.965 1.79685 -4.72807 0
M  V30 2743 C 252.263 2.59208 -3.62943 0
M  V30 2744 C 252.964 1.74781 -5.54821 0
M  V30 2745 N 251.94 2.19264 -4.97417 0
M  V30 2746 H 255.742 0.761754 -2.83857 0
M  V30 2747 H 253.256 0.322928 -1.59157 0
M  V30 2748 H 255.253 3.219 -2.64927 0
M  V30 2749 H 253.913 2.86552 -1.52702 0
M  V30 2750 H 254.924 1.49177 -4.9595 0
M  V30 2751 H 251.601 3.02154 -2.88113 0
M  V30 2752 H 252.991 1.38212 -6.57531 0
M  V30 2753 N 255.711 1.52812 0.385517 0
M  V30 2754 C 256.643 1.74096 1.49074 0
M  V30 2755 C 257.656 0.621462 1.50472 0
M  V30 2756 O 258.845 0.897245 1.54311 0
M  V30 2757 C 255.945 1.78774 2.87911 0
M  V30 2758 C 255.118 3.08134 3.10439 0
M  V30 2759 C 254.177 3.04313 4.29278 0
M  V30 2760 O 253.203 3.78168 4.25415 0
M  V30 2761 N 254.405 2.23741 5.35649 0
M  V30 2762 H 257.17 2.69455 1.31202 0
M  V30 2763 H 254.731 1.51343 0.575065 0
M  V30 2764 H 256.723 1.73721 3.65518 0
M  V30 2765 H 255.293 0.907869 2.99126 0
M  V30 2766 H 254.513 3.26649 2.20667 0
M  V30 2767 H 255.801 3.93662 3.22347 0
M  V30 2768 H 255.199 1.63211 5.41645 0
M  V30 2769 H 253.756 2.24524 6.11909 0
M  V30 2770 N 257.189 -0.644168 1.43834 0
M  V30 2771 C 258.136 -1.75671 1.49694 0
M  V30 2772 C 259.106 -1.6246 0.345809 0
M  V30 2773 O 260.291 -1.82573 0.554234 0
M  V30 2774 C 257.431 -3.13867 1.43463 0
M  V30 2775 C 256.544 -3.38147 2.6885 0
M  V30 2776 C 255.679 -4.66241 2.54544 0
M  V30 2777 C 254.718 -4.83657 3.75157 0
M  V30 2778 N 253.855 -6.03016 3.59605 0
M  V30 2779 H 258.695 -1.69998 2.44754 0
M  V30 2780 H 256.232 -0.829458 1.21484 0
M  V30 2781 H 258.19 -3.9377 1.37843 0
M  V30 2782 H 256.82 -3.18588 0.519783 0
M  V30 2783 H 255.872 -2.52276 2.84712 0
M  V30 2784 H 257.184 -3.46899 3.58417 0
M  V30 2785 H 256.338 -5.54285 2.46683 0
M  V30 2786 H 255.077 -4.59826 1.62516 0
M  V30 2787 H 254.082 -3.94046 3.83416 0
M  V30 2788 H 255.307 -4.91896 4.68204 0
M  V30 2789 H 253.253 -5.97715 2.7032 0
M  V30 2790 H 253.17 -6.12766 4.42779 0
M  V30 2791 H 254.438 -6.93657 3.55613 0
M  V30 2792 N 258.668 -1.30515 -0.883378 0
M  V30 2793 C 259.616 -1.16941 -2.01066 0
M  V30 2794 C 260.61 -0.0809148 -1.69207 0
M  V30 2795 O 261.816 -0.241877 -1.78367 0
M  V30 2796 H 258.191 -0.361705 -0.659298 0
M  V30 2797 H 260.162 -2.12344 -2.09649 0
M  V30 2798 C 258.911 -0.879694 -3.36388 0
M  V30 2799 H 258.234 -1.70936 -3.61415 0
M  V30 2800 H 259.674 -0.82483 -4.159 0
M  V30 2801 C 258.133 0.417409 -3.34304 0
M  V30 2802 O 258.663 1.43843 -3.75063 0
M  V30 2803 N 256.869 0.429141 -2.87414 0
M  V30 2804 H 256.416 -0.402222 -2.5444 0
M  V30 2805 H 256.374 1.29696 -2.86403 0
M  V30 2806 N 260.146 1.09593 -1.13257 0
M  V30 2807 C 261.395 1.81105 -0.887917 0
M  V30 2808 C 261.708 1.86563 0.587672 0
M  V30 2809 O 262.914 2.54367 0.949204 0
M  V30 2810 C 261.37 3.25338 -1.53895 0
M  V30 2811 C 260.978 3.28151 -3.04994 0
M  V30 2812 C 262.722 4.01617 -1.37492 0
M  V30 2813 C 260.629 4.66897 -3.6299 0
M  V30 2814 H 259.559 0.678661 -0.328534 0
M  V30 2815 H 262.21 1.23183 -1.36008 0
M  V30 2816 H 260.592 3.8331 -0.994446 0
M  V30 2817 H 261.766 2.79953 -3.66009 0
M  V30 2818 H 260.081 2.65361 -3.20893 0
M  V30 2819 H 262.678 5.04119 -1.78235 0
M  V30 2820 H 263.021 4.15072 -0.31957 0
M  V30 2821 H 263.554 3.50082 -1.88912 0
M  V30 2822 H 260.293 4.58643 -4.68323 0
M  V30 2823 H 259.813 5.15426 -3.06752 0
M  V30 2824 H 261.492 5.3587 -3.62563 0
M  V30 2825 N 261.624 0.925811 1.2754 0
M  V30 2826 C 262.87 0.566092 1.94739 0
M  V30 2827 C 263.203 -0.890057 1.72603 0
M  V30 2828 O 262.478 -1.63467 1.05399 0
M  V30 2829 C 262.761 0.89054 3.48915 0
M  V30 2830 C 262.614 2.4003 3.80402 0
M  V30 2831 C 263.933 0.395101 4.38323 0
M  V30 2832 H 261.052 0.20714 0.707292 0
M  V30 2833 H 263.694 1.15725 1.50691 0
M  V30 2834 H 261.844 0.387452 3.86563 0
M  V30 2835 H 263.516 2.97494 3.52555 0
M  V30 2836 H 261.759 2.85028 3.2702 0
M  V30 2837 H 262.43 2.57785 4.8811 0
M  V30 2838 H 264.906 0.826241 4.07814 0
M  V30 2839 H 263.782 0.651086 5.45025 0
M  V30 2840 H 264.043 -0.704798 4.36446 0
M  V30 2841 N 263.102 -1.41638 0.69111 0
M  V30 2842 C 264.052 -2.28 -0.000107832 0
M  V30 2843 C 265.036 -1.41964 -0.757304 0
M  V30 2844 O 266.228 -1.65274 -0.633532 0
M  V30 2845 C 263.357 -3.30209 -0.938983 0
M  V30 2846 C 262.443 -4.23725 -0.17827 0
M  V30 2847 N 262.834 -4.99017 0.825563 0
M  V30 2848 C 261.132 -4.44071 -0.414392 0
M  V30 2849 C 261.833 -5.67431 1.28052 0
M  V30 2850 N 260.809 -5.40197 0.607304 0
M  V30 2851 H 264.611 -2.83644 0.769617 0
M  V30 2852 H 262.125 -1.53797 0.521562 0
M  V30 2853 H 264.122 -3.90898 -1.44929 0
M  V30 2854 H 262.782 -2.76126 -1.70836 0
M  V30 2855 H 263.793 -5.03671 1.20566 0
M  V30 2856 H 260.47 -4.01004 -1.162 0
M  V30 2857 H 261.86 -6.37801 2.11327 0
M  V30 2858 N 264.58 -0.43555 -1.51462 0
M  V30 2859 C 265.996 -0.0877501 -1.59359 0
M  V30 2860 C 266.196 1.4027 -1.4466 0
M  V30 2861 O 265.252 2.17243 -1.28693 0
M  V30 2862 C 266.565 -0.606264 -2.94525 0
M  V30 2863 C 268.113 -0.566548 -3.0783 0
M  V30 2864 C 268.588 -1.06201 -4.45517 0
M  V30 2865 N 270.079 -1.01992 -4.51832 0
M  V30 2866 C 270.814 -1.37417 -5.5669 0
M  V30 2867 N 270.31 -1.80119 -6.68976 0
M  V30 2868 N 272.103 -1.29245 -5.47039 0
M  V30 2869 H 264.254 -1.40533 -1.59261 0
M  V30 2870 H 266.517 -0.578992 -0.750648 0
M  V30 2871 H 266.223 -1.64901 -3.10645 0
M  V30 2872 H 266.097 -0.0302097 -3.77188 0
M  V30 2873 H 268.484 0.467208 -2.91378 0
M  V30 2874 H 268.565 -1.17898 -2.2701 0
M  V30 2875 H 268.209 -2.09422 -4.62715 0
M  V30 2876 H 268.139 -0.426127 -5.24873 0
M  V30 2877 H 270.63 -0.706308 -3.71241 0
M  V30 2878 H 270.943 -2.05392 -7.45006 0
M  V30 2879 H 269.288 -1.84044 -6.70189 0
M  V30 2880 H 272.479 -0.957522 -4.58202 0
M  V30 2881 H 272.652 -1.57182 -6.28648 0
M  V30 2882 N 266.058 1.56714 -0.166846 0
M  V30 2883 C 267.335 1.88412 0.525373 0
M  V30 2884 C 267.715 1.07602 1.81618 0
M  V30 2885 O 267.063 0.168621 2.27877 0
M  V30 2886 C 267.273 3.40363 0.771613 0
M  V30 2887 C 268.621 4.10007 1.1036 0
M  V30 2888 O 269.645 3.45655 0.860304 0
M  V30 2889 O 268.504 5.2369 1.56239 0
M  V30 2890 H 265.598 0.781587 0.270278 0
M  V30 2891 H 268.144 1.68458 -0.204946 0
M  V30 2892 H 266.916 3.91046 -0.141093 0
M  V30 2893 H 266.539 3.65914 1.55541 0
M  V30 2894 N 267.536 -0.106894 1.57237 0
M  V30 2895 C 268.466 -1.13148 2.04254 0
M  V30 2896 C 269.447 -1.42476 0.929224 0
M  V30 2897 O 270.632 -1.52709 1.19973 0
M  V30 2898 C 267.762 -2.4545 2.45706 0
M  V30 2899 C 266.716 -2.30558 3.60592 0
M  V30 2900 C 266.042 -3.67931 3.87983 0
M  V30 2901 C 267.342 -1.75597 4.91897 0
M  V30 2902 H 269.036 -0.740374 2.90101 0
M  V30 2903 H 266.582 -0.354696 1.39563 0
M  V30 2904 H 268.535 -3.17389 2.77205 0
M  V30 2905 H 267.259 -2.86475 1.56843 0
M  V30 2906 H 265.918 -1.61067 3.29322 0
M  V30 2907 H 265.566 -4.06462 2.96306 0
M  V30 2908 H 265.266 -3.58817 4.65322 0
M  V30 2909 H 266.79 -4.41356 4.21945 0
M  V30 2910 H 268.204 -2.37364 5.21854 0
M  V30 2911 H 266.601 -1.77272 5.73319 0
M  V30 2912 H 267.671 -0.714451 4.79608 0
M  V30 2913 N 269.014 -1.53014 -0.377408 0
M  V30 2914 C 269.961 -1.78616 -1.46168 0
M  V30 2915 C 270.931 -0.629917 -1.53692 0
M  V30 2916 O 272.116 -0.870861 -1.69766 0
M  V30 2917 C 269.256 -1.97123 -2.8326 0
M  V30 2918 C 268.369 -3.24831 -2.84796 0
M  V30 2919 C 267.504 -3.33591 -4.13389 0
M  V30 2920 C 266.543 -4.55377 -4.09021 0
M  V30 2921 N 265.68 -4.61355 -5.29241 0
M  V30 2922 H 270.52 -2.71142 -1.23637 0
M  V30 2923 H 268.057 -1.34326 -0.599577 0
M  V30 2924 H 270.015 -2.05839 -3.62886 0
M  V30 2925 H 268.645 -1.07946 -3.04216 0
M  V30 2926 H 267.697 -3.25128 -1.97474 0
M  V30 2927 H 269.009 -4.14523 -2.77439 0
M  V30 2928 H 268.163 -3.41554 -5.01424 0
M  V30 2929 H 266.902 -2.41894 -4.23484 0
M  V30 2930 H 265.907 -4.47527 -3.19373 0
M  V30 2931 H 267.132 -5.48402 -4.00539 0
M  V30 2932 H 265.078 -3.72554 -5.39944 0
M  V30 2933 H 264.995 -5.44935 -5.24006 0
M  V30 2934 H 266.263 -4.73586 -6.19141 0
M  V30 2935 N 270.492 0.636531 -1.44174 0
M  V30 2936 C 271.455 1.73063 -1.50273 0
M  V30 2937 C 272.455 1.56113 -0.385397 0
M  V30 2938 O 273.645 1.61707 -0.64781 0
M  V30 2939 C 270.777 3.12096 -1.37145 0
M  V30 2940 H 271.97 1.69031 -2.47727 0
M  V30 2941 H 269.523 0.849706 -1.31186 0
M  V30 2942 H 270.258 3.21728 -0.407636 0
M  V30 2943 H 270.043 3.25805 -2.18159 0
M  V30 2944 H 271.533 3.91846 -1.44382 0
M  V30 2945 N 271.97 1.30982 0.876444 0
M  V30 2946 C 272.88 1.2003 2.01569 0
M  V30 2947 C 273.896 0.11838 1.73597 0
M  V30 2948 O 275.072 0.33495 1.98595 0
M  V30 2949 C 272.137 0.901637 3.34771 0
M  V30 2950 C 271.198 2.06979 3.76109 0
M  V30 2951 C 270.431 1.78529 5.02954 0
M  V30 2952 O 270.654 0.717296 5.65872 0
M  V30 2953 O 269.588 2.64019 5.40905 0
M  V30 2954 H 273.414 2.15753 2.13739 0
M  V30 2955 H 270.999 1.10658 1.00375 0
M  V30 2956 H 272.881 0.750645 4.1466 0
M  V30 2957 H 271.556 -0.0256141 3.2369 0
M  V30 2958 H 270.463 2.27616 2.96887 0
M  V30 2959 H 271.796 2.97907 3.91807 0
M  V30 2960 N 273.449 -1.08991 1.13837 0
M  V30 2961 C 274.397 -2.17841 0.815347 0
M  V30 2962 C 275.391 -1.68164 -0.204233 0
M  V30 2963 O 276.597 -1.79897 -0.0609304 0
M  V30 2964 H 272.972 -0.710654 0.245915 0
M  V30 2965 H 274.943 -2.42315 1.74143 0
M  V30 2966 C 273.692 -3.46381 0.302614 0
M  V30 2967 H 273.015 -3.84979 1.0785 0
M  V30 2968 H 274.455 -4.23844 0.115074 0
M  V30 2969 C 272.914 -3.22556 -0.972591 0
M  V30 2970 O 273.444 -3.45599 -2.04754 0
M  V30 2971 N 271.65 -2.76134 -0.905455 0
M  V30 2972 H 271.197 -2.57582 -0.0305421 0
M  V30 2973 H 271.155 -2.60571 -1.75926 0
M  V30 2974 N 274.927 -0.932562 -1.27047 0
M  V30 2975 C 275.857 -0.452902 -2.29066 0
M  V30 2976 C 276.838 0.489338 -1.62909 0
M  V30 2977 O 278.023 0.393046 -1.90181 0
M  V30 2978 C 275.153 0.290698 -3.46081 0
M  V30 2979 C 274.107 -0.564168 -4.24265 0
M  V30 2980 C 273.433 0.308886 -5.33807 0
M  V30 2981 C 274.733 -1.83112 -4.89149 0
M  V30 2982 H 276.427 -1.30552 -2.69437 0
M  V30 2983 H 273.973 -0.629201 -1.29526 0
M  V30 2984 H 275.926 0.637233 -4.16554 0
M  V30 2985 H 274.65 1.17738 -3.0464 0
M  V30 2986 H 273.309 -0.893477 -3.55545 0
M  V30 2987 H 272.957 1.19467 -4.88607 0
M  V30 2988 H 272.657 -0.259633 -5.87026 0
M  V30 2989 H 274.181 0.650884 -6.07121 0
M  V30 2990 H 275.595 -1.55236 -5.51883 0
M  V30 2991 H 273.992 -2.34353 -5.52448 0
M  V30 2992 H 275.062 -2.54772 -4.12576 0
M  V30 2993 N 276.405 1.4127 -0.698611 0
M  V30 2994 C 277.335 2.33447 -0.049629 0
M  V30 2995 C 278.316 1.51982 0.763898 0
M  V30 2996 O 279.501 1.80509 0.716257 0
M  V30 2997 C 276.631 3.35828 0.885267 0
M  V30 2998 C 275.585 4.27627 0.178613 0
M  V30 2999 C 274.911 5.20406 1.22807 0
M  V30 3000 C 276.211 5.13459 -0.956933 0
M  V30 3001 H 277.905 2.87966 -0.81951 0
M  V30 3002 H 275.451 1.38461 -0.395538 0
M  V30 3003 H 277.404 3.9924 1.34854 0
M  V30 3004 H 276.128 2.79666 1.68685 0
M  V30 3005 H 274.787 3.65643 -0.26466 0
M  V30 3006 H 274.435 4.60558 2.02226 0
M  V30 3007 H 274.135 5.82661 0.760239 0
M  V30 3008 H 275.659 5.86695 1.69179 0
M  V30 3009 H 277.073 5.70421 -0.573805 0
M  V30 3010 H 275.47 5.8467 -1.35205 0
M  V30 3011 H 276.54 4.50443 -1.79524 0
M  V30 3012 N 277.883 0.443576 1.51229 0
M  V30 3013 C 278.813 -0.355142 2.30783 0
M  V30 3014 C 279.794 -1.0154 1.36468 0
M  V30 3015 O 280.979 -1.01785 1.65389 0
M  V30 3016 C 278.109 -1.45312 3.15439 0
M  V30 3017 C 277.063 -0.916002 4.18083 0
M  V30 3018 C 276.389 -2.1102 4.91299 0
M  V30 3019 C 277.689 0.0538602 5.22272 0
M  V30 3020 H 279.383 0.308767 2.97804 0
M  V30 3021 H 276.929 0.149937 1.43217 0
M  V30 3022 H 278.882 -2.01914 3.69876 0
M  V30 3023 H 277.606 -2.14541 2.46252 0
M  V30 3024 H 276.265 -0.372145 3.64706 0
M  V30 3025 H 275.913 -2.78882 4.18609 0
M  V30 3026 H 275.613 -1.75717 5.60712 0
M  V30 3027 H 277.137 -2.68164 5.48562 0
M  V30 3028 H 278.551 -0.422069 5.71744 0
M  V30 3029 H 276.948 0.319776 5.99247 0
M  V30 3030 H 278.018 0.98858 4.74716 0
M  V30 3031 N 279.361 -1.56624 0.175154 0
M  V30 3032 C 280.638 -1.88688 -0.515373 0
M  V30 3033 C 281.018 -1.08564 -1.81044 0
M  V30 3034 O 280.366 -0.180703 -2.27784 0
M  V30 3035 C 280.576 -3.40768 -0.753552 0
M  V30 3036 C 281.924 -4.10587 -1.08184 0
M  V30 3037 O 282.948 -3.46106 -0.841961 0
M  V30 3038 O 281.807 -5.24512 -1.53459 0
M  V30 3039 H 278.901 -0.78301 -0.26613 0
M  V30 3040 H 281.447 -1.68347 0.213877 0
M  V30 3041 H 280.219 -3.90965 0.161829 0
M  V30 3042 H 279.842 -3.66733 -1.53598 0
M  V30 3043 N 280.839 0.0985539 -1.57292 0
M  V30 3044 C 281.802 1.10402 -2.00858 0
M  V30 3045 C 282.802 1.33146 -0.901593 0
M  V30 3046 O 283.992 1.29318 -1.16716 0
M  V30 3047 C 281.124 2.45394 -2.36632 0
M  V30 3048 H 282.317 0.729099 -2.90902 0
M  V30 3049 H 279.87 0.343495 -1.52479 0
M  V30 3050 H 280.605 2.87769 -1.49531 0
M  V30 3051 H 280.39 2.30235 -3.17387 0
M  V30 3052 H 281.88 3.17718 -2.71007 0
M  V30 3053 N 282.317 1.53212 0.369288 0
M  V30 3054 C 283.227 1.82342 1.47609 0
M  V30 3055 C 284.243 0.711532 1.58787 0
M  V30 3056 O 285.419 1.0012 1.74751 0
M  V30 3057 C 282.484 2.00393 2.8292 0
M  V30 3058 C 281.545 3.24297 2.81301 0
M  V30 3059 C 280.778 3.41478 4.10157 0
M  V30 3060 O 281.001 2.63033 5.06132 0
M  V30 3061 O 279.935 4.34817 4.16194 0
M  V30 3062 H 283.761 2.76366 1.25918 0
M  V30 3063 H 281.346 1.38547 0.559034 0
M  V30 3064 H 283.228 2.13859 3.63101 0
M  V30 3065 H 281.903 1.09559 3.04596 0
M  V30 3066 H 280.81 3.16257 1.99831 0
M  V30 3067 H 282.143 4.15041 2.64578 0
M  V30 3068 N 283.795 -0.628877 1.44509 0
M  V30 3069 C 284.758 -1.72263 1.51188 0
M  V30 3070 C 285.758 -1.55907 0.39367 0
M  V30 3071 O 286.948 -1.61361 0.656377 0
M  V30 3072 C 284.08 -3.11365 1.38798 0
M  V30 3073 H 285.273 -1.67714 2.4862 0
M  V30 3074 H 282.826 -0.842737 1.31634 0
M  V30 3075 H 283.561 -3.21507 0.424693 0
M  V30 3076 H 283.346 -3.24644 2.19884 0
M  V30 3077 H 284.836 -3.91075 1.46458 0
M  V30 3078 N 285.273 -1.31445 -0.869486 0
M  V30 3079 C 286.221 -1.19067 -1.99814 0
M  V30 3080 C 287.215 -0.0988569 -1.69111 0
M  V30 3081 O 288.421 -0.260781 -1.78101 0
M  V30 3082 H 284.796 -0.368677 -0.655425 0
M  V30 3083 H 286.767 -2.14555 -2.07385 0
M  V30 3084 C 285.516 -0.915323 -3.35436 0
M  V30 3085 H 284.839 -1.74759 -3.59582 0
M  V30 3086 H 286.279 -0.868895 -4.15001 0
M  V30 3087 C 284.738 0.381928 -3.34728 0
M  V30 3088 O 285.268 1.39857 -3.76567 0
M  V30 3089 N 283.474 0.398633 -2.87853 0
M  V30 3090 H 283.021 -0.429186 -2.54 0
M  V30 3091 H 282.979 1.26651 -2.87762 0
M  V30 3092 N 286.751 1.08385 -1.14413 0
M  V30 3093 C 288 1.80153 -0.907076 0
M  V30 3094 C 288.313 1.87176 0.567851 0
M  V30 3095 O 289.519 2.55359 0.922172 0
M  V30 3096 C 287.975 3.23687 -1.57336 0
M  V30 3097 C 287.583 3.24897 -3.08457 0
M  V30 3098 C 289.327 4.00136 -1.41744 0
M  V30 3099 C 287.234 4.6302 -3.67921 0
M  V30 3100 H 286.164 0.675139 -0.335714 0
M  V30 3101 H 288.815 1.21733 -1.37307 0
M  V30 3102 H 287.197 3.82234 -1.03505 0
M  V30 3103 H 288.371 2.76055 -3.68958 0
M  V30 3104 H 286.686 2.61943 -3.2369 0
M  V30 3105 H 289.283 5.02201 -1.83572 0
M  V30 3106 H 289.626 4.14709 -0.363576 0
M  V30 3107 H 290.159 3.48058 -1.92614 0
M  V30 3108 H 286.898 4.5365 -4.73161 0
M  V30 3109 H 286.418 5.12143 -3.12201 0
M  V30 3110 H 288.097 5.31994 -3.68227 0
M  V30 3111 N 288.23 0.939286 1.26551 0
M  V30 3112 C 289.177 0.446088 2.26448 0
M  V30 3113 C 290.147 -0.493234 1.58608 0
M  V30 3114 O 291.332 -0.409857 1.86346 0
M  V30 3115 C 288.472 -0.284375 3.43926 0
M  V30 3116 C 287.585 0.690399 4.26448 0
M  V30 3117 C 286.72 -0.0610712 5.31165 0
M  V30 3118 C 285.759 0.905649 6.05363 0
M  V30 3119 N 284.896 0.186055 7.01853 0
M  V30 3120 H 289.736 1.30291 2.68008 0
M  V30 3121 H 287.273 0.65371 1.31776 0
M  V30 3122 H 289.231 -0.724313 4.10864 0
M  V30 3123 H 287.861 -1.10535 3.03285 0
M  V30 3124 H 286.913 1.24885 3.59316 0
M  V30 3125 H 288.225 1.42873 4.779 0
M  V30 3126 H 287.379 -0.56038 6.04106 0
M  V30 3127 H 286.118 -0.832297 4.80546 0
M  V30 3128 H 285.123 1.4161 5.3125 0
M  V30 3129 H 286.348 1.67685 6.58072 0
M  V30 3130 H 284.294 -0.566714 6.53548 0
M  V30 3131 H 284.211 0.863752 7.51049 0
M  V30 3132 H 285.479 -0.292221 7.78952 0
M  V30 3133 N 289.708 -1.40897 0.706093 0
M  V30 3134 C 290.957 -2.00284 0.238574 0
M  V30 3135 C 291.27 -1.56604 -1.17194 0
M  V30 3136 O 292.476 -2.08624 -1.73748 0
M  V30 3137 C 290.932 -3.57934 0.375623 0
M  V30 3138 C 290.54 -4.10591 1.79217 0
M  V30 3139 C 292.284 -4.24488 -0.0315857 0
M  V30 3140 C 290.191 -5.60712 1.88032 0
M  V30 3141 H 289.121 -0.749144 0.0854398 0
M  V30 3142 H 291.772 -1.61251 0.875813 0
M  V30 3143 H 290.154 -3.94622 -0.330042 0
M  V30 3144 H 291.328 -3.85301 2.52745 0
M  V30 3145 H 289.643 -3.56601 2.15 0
M  V30 3146 H 292.24 -5.34698 0.0136842 0
M  V30 3147 H 292.583 -4.02261 -1.072 0
M  V30 3148 H 293.116 -3.92873 0.624181 0
M  V30 3149 H 289.855 -5.87781 2.90161 0
M  V30 3150 H 289.375 -5.87896 1.18903 0
M  V30 3151 H 291.054 -6.25658 1.64805 0
M  V30 3152 N 291.186 -0.45159 -1.50991 0
M  V30 3153 C 292.149 0.341117 -2.26647 0
M  V30 3154 C 293.149 0.937422 -1.30649 0
M  V30 3155 O 294.339 0.809644 -1.54241 0
M  V30 3156 C 291.471 1.48398 -3.06905 0
M  V30 3157 H 292.664 -0.322117 -2.98165 0
M  V30 3158 H 290.217 -0.205122 -1.54948 0
M  V30 3159 H 290.952 2.18284 -2.39838 0
M  V30 3160 H 290.737 1.06241 -3.77432 0
M  V30 3161 H 292.227 2.04367 -3.64176 0
M  V30 3162 N 292.664 1.56529 -0.183458 0
M  V30 3163 C 293.941 1.88959 0.50536 0
M  V30 3164 C 294.321 1.09523 1.80466 0
M  V30 3165 O 293.669 0.19278 2.27685 0
M  V30 3166 C 293.879 3.41162 0.73547 0
M  V30 3167 C 295.227 4.11155 1.06005 0
M  V30 3168 O 296.251 3.46548 0.823594 0
M  V30 3169 O 295.11 5.25318 1.50675 0
M  V30 3170 H 292.204 0.78441 0.261973 0
M  V30 3171 H 294.75 1.68231 -0.222802 0
M  V30 3172 H 293.522 3.90874 -0.182561 0
M  V30 3173 H 293.145 3.67543 1.51651 0
M  V30 3174 N 294.142 -0.090211 1.57342 0
M  V30 3175 C 295.389 -0.792807 1.86335 0
M  V30 3176 C 295.717 -1.78494 0.772662 0
M  V30 3177 O 294.972 -1.94305 -0.233258 0
M  V30 3178 C 295.271 -1.55222 3.21933 0
M  V30 3179 C 294.937 -0.701765 4.45406 0
M  V30 3180 C 293.599 -0.467334 4.78925 0
M  V30 3181 C 295.951 -0.11086 5.21082 0
M  V30 3182 C 293.279 0.367785 5.85546 0
M  V30 3183 C 295.631 0.711609 6.28585 0
M  V30 3184 C 294.295 0.956086 6.60617 0
M  V30 3185 H 293.565 -0.290109 0.681849 0
M  V30 3186 H 296.212 -0.0541332 1.91423 0
M  V30 3187 H 294.517 -2.3626 3.12551 0
M  V30 3188 H 296.214 -2.10032 3.41595 0
M  V30 3189 H 292.804 -0.894598 4.1916 0
M  V30 3190 H 296.988 -0.279129 4.95514 0
M  V30 3191 H 292.244 0.566128 6.08773 0
M  V30 3192 H 296.418 1.17632 6.86393 0
M  V30 3193 H 294.045 1.60499 7.43064 0
M  V30 3194 N 295.62 -1.53406 -0.361157 0
M  V30 3195 C 296.868 -1.69467 -1.10115 0
M  V30 3196 C 297.189 -0.451352 -1.89705 0
M  V30 3197 O 296.459 0.534636 -1.88463 0
M  V30 3198 H 295.039 -0.624749 -0.409508 0
M  V30 3199 H 297.701 -1.90609 -0.406699 0
M  V30 3200 H 296.797 -2.55774 -1.78847 0
M  V30 3201 N 297.098 0.621204 -1.44841 0
M  V30 3202 C 298.345 1.38055 -1.48145 0
M  V30 3203 C 298.673 1.94143 -0.117867 0
M  V30 3204 O 297.928 1.74713 0.881694 0
M  V30 3205 C 298.227 2.55675 -2.4973 0
M  V30 3206 C 297.893 2.17817 -3.94799 0
M  V30 3207 C 296.555 2.07205 -4.34303 0
M  V30 3208 C 298.907 1.88065 -4.86087 0
M  V30 3209 C 296.235 1.65045 -5.63007 0
M  V30 3210 C 298.587 1.47394 -6.15189 0
M  V30 3211 C 297.251 1.35331 -6.53637 0
M  V30 3212 H 296.521 0.505181 -0.542101 0
M  V30 3213 H 299.168 0.703477 -1.78111 0
M  V30 3214 H 297.473 3.2866 -2.13284 0
M  V30 3215 H 299.17 3.13904 -2.4953 0
M  V30 3216 H 295.76 2.26998 -3.63552 0
M  V30 3217 H 299.944 1.95168 -4.56315 0
M  V30 3218 H 295.2 1.54317 -5.91605 0
M  V30 3219 H 299.374 1.23415 -6.85377 0
M  V30 3220 H 297.001 1.02435 -7.53267 0
M  V30 3221 N 298.576 1.31904 0.862503 0
M  V30 3222 C 299.801 1.25135 1.65397 0
M  V30 3223 C 300.226 -0.179 1.87246 0
M  V30 3224 O 299.584 -1.1277 1.4196 0
M  V30 3225 C 299.632 2.00832 2.99498 0
M  V30 3226 O 298.736 1.35075 3.89652 0
M  V30 3227 H 298.077 0.431655 0.504549 0
M  V30 3228 H 300.607 1.74094 1.07483 0
M  V30 3229 H 300.617 2.10709 3.49379 0
M  V30 3230 H 299.292 3.04847 2.82916 0
M  V30 3231 H 297.869 1.33696 3.48109 0
M  V30 3232 N 300.054 -1.07777 1.14986 0
M  V30 3233 C 301.002 -2.16964 0.838406 0
M  V30 3234 C 301.996 -1.68372 -0.186386 0
M  V30 3235 O 303.202 -1.79951 -0.0418465 0
M  V30 3236 H 299.577 -0.708006 0.253439 0
M  V30 3237 H 301.548 -2.40454 1.76704 0
M  V30 3238 C 300.297 -3.4604 0.339335 0
M  V30 3239 H 299.62 -3.83813 1.11927 0
M  V30 3240 H 301.06 -4.23698 0.160021 0
M  V30 3241 C 299.519 -3.23569 -0.938325 0
M  V30 3242 O 300.049 -3.47752 -2.01077 0
M  V30 3243 N 298.255 -2.77079 -0.876117 0
M  V30 3244 H 297.802 -2.576 -0.00322037 0
M  V30 3245 H 297.76 -2.62422 -1.73153 0
M  V30 3246 N 301.532 -0.945985 -1.26051 0
M  V30 3247 C 302.442 -0.465633 -2.29933 0
M  V30 3248 C 303.458 0.462761 -1.67733 0
M  V30 3249 O 304.634 0.341118 -1.9849 0
M  V30 3250 C 301.699 0.256994 -3.45746 0
M  V30 3251 C 300.76 -0.708549 -4.23412 0
M  V30 3252 C 299.993 -0.0203135 -5.33696 0
M  V30 3253 O 300.216 1.19571 -5.57726 0
M  V30 3254 O 299.15 -0.701459 -5.97799 0
M  V30 3255 H 302.976 -1.32866 -2.73094 0
M  V30 3256 H 300.561 -0.712071 -1.31339 0
M  V30 3257 H 302.443 0.663852 -4.16138 0
M  V30 3258 H 301.118 1.09533 -3.04605 0
M  V30 3259 H 300.025 -1.16545 -3.55483 0
M  V30 3260 H 301.358 -1.51465 -4.68315 0
M  V30 3261 N 303.011 1.40521 -0.713556 0
M  V30 3262 C 304.258 2.00923 -0.25219 0
M  V30 3263 C 304.586 1.56571 1.15395 0
M  V30 3264 O 303.841 0.775874 1.79663 0
M  V30 3265 C 304.14 3.56317 -0.278 0
M  V30 3266 C 303.806 4.20246 -1.63415 0
M  V30 3267 C 302.468 4.37422 -2.00538 0
M  V30 3268 C 304.82 4.55923 -2.52554 0
M  V30 3269 C 302.148 4.87558 -3.2635 0
M  V30 3270 C 304.5 5.07458 -3.77716 0
M  V30 3271 C 303.164 5.22843 -4.14959 0
M  V30 3272 H 302.434 0.735231 -0.0922829 0
M  V30 3273 H 305.081 1.68161 -0.916188 0
M  V30 3274 H 303.386 3.88976 0.469567 0
M  V30 3275 H 305.083 4.00883 0.0967819 0
M  V30 3276 H 301.673 4.07263 -1.33546 0
M  V30 3277 H 305.857 4.42291 -2.25149 0
M  V30 3278 H 301.113 4.97654 -3.55176 0
M  V30 3279 H 305.287 5.34041 -4.4696 0
M  V30 3280 H 302.914 5.61454 -5.12516 0
M  V30 3281 N 304.489 0.459591 1.5075 0
M  V30 3282 C 305.717 -0.0973749 2.06671 0
M  V30 3283 C 306.132 -1.34524 1.32472 0
M  V30 3284 O 305.489 -1.7827 0.390634 0
M  V30 3285 C 305.54 -0.39714 3.59312 0
M  V30 3286 O 305.261 0.801214 4.30711 0
M  V30 3287 C 306.762 -1.00234 4.31819 0
M  V30 3288 H 303.982 0.00195854 0.670997 0
M  V30 3289 H 306.526 0.645072 1.94059 0
M  V30 3290 H 304.681 -1.08951 3.71764 0
M  V30 3291 H 305.095 0.538857 5.21725 0
M  V30 3292 H 306.569 -1.16193 5.39632 0
M  V30 3293 H 307.046 -1.98939 3.91561 0
M  V30 3294 H 307.652 -0.348699 4.23868 0
M  V30 3295 N 305.967 -1.56429 0.191757 0
M  V30 3296 C 306.897 -2.21937 -0.725696 0
M  V30 3297 C 307.878 -1.1814 -1.2238 0
M  V30 3298 O 309.063 -1.46636 -1.27325 0
M  V30 3299 C 306.193 -2.87611 -1.94672 0
M  V30 3300 C 305.147 -3.97623 -1.58366 0
M  V30 3301 C 304.473 -4.50446 -2.88102 0
M  V30 3302 C 305.773 -5.16197 -0.796133 0
M  V30 3303 H 307.467 -2.98861 -0.179606 0
M  V30 3304 H 305.013 -1.43749 -0.0849464 0
M  V30 3305 H 306.966 -3.3212 -2.59373 0
M  V30 3306 H 305.69 -2.08087 -2.51728 0
M  V30 3307 H 304.349 -3.53801 -0.960247 0
M  V30 3308 H 303.997 -3.67688 -3.43241 0
M  V30 3309 H 303.697 -5.24675 -2.64556 0
M  V30 3310 H 305.221 -4.97654 -3.53798 0
M  V30 3311 H 306.635 -5.57271 -1.34618 0
M  V30 3312 H 305.032 -5.96471 -0.658928 0
M  V30 3313 H 306.102 -4.84473 0.203478 0
M  V30 3314 N 307.445 0.0818655 -1.57387 0
M  V30 3315 C 308.693 0.781368 -1.86384 0
M  V30 3316 C 309.014 1.78618 -0.782342 0
M  V30 3317 O 308.284 1.94976 0.190061 0
M  V30 3318 H 306.864 0.291562 -0.687751 0
M  V30 3319 H 309.526 0.060348 -1.94807 0
M  V30 3320 H 308.622 1.3038 -2.83562 0
M  V30 3321 N 308.923 1.53595 0.353017 0
M  V30 3322 C 310.148 1.7462 1.11904 0
M  V30 3323 C 310.573 0.479721 1.8188 0
M  V30 3324 O 309.931 -0.567066 1.72204 0
M  V30 3325 C 309.979 2.92029 2.11545 0
M  V30 3326 O 309.083 2.61516 3.18878 0
M  V30 3327 H 308.424 0.579531 0.324099 0
M  V30 3328 H 310.954 2.00525 0.406301 0
M  V30 3329 H 310.964 3.18551 2.5493 0
M  V30 3330 H 309.639 3.83888 1.60008 0
M  V30 3331 H 308.216 2.45852 2.80377 0
M  V30 3332 N 310.401 -0.613514 1.45168 0
M  V30 3333 C 311.348 -1.72456 1.53387 0
M  V30 3334 C 312.318 -1.6169 0.380191 0
M  V30 3335 O 313.503 -1.81356 0.592836 0
M  V30 3336 C 310.643 -3.10753 1.50088 0
M  V30 3337 C 309.756 -3.32368 2.75963 0
M  V30 3338 C 308.891 -4.60737 2.64376 0
M  V30 3339 C 307.93 -4.7559 3.85332 0
M  V30 3340 N 307.067 -5.95253 3.72315 0
M  V30 3341 H 311.907 -1.64768 2.48305 0
M  V30 3342 H 309.444 -0.803503 1.23216 0
M  V30 3343 H 311.402 -3.90758 1.46164 0
M  V30 3344 H 310.032 -3.17413 0.587243 0
M  V30 3345 H 309.084 -2.4618 2.89999 0
M  V30 3346 H 310.396 -3.39218 3.65695 0
M  V30 3347 H 309.55 -5.48928 2.58385 0
M  V30 3348 H 308.289 -4.56275 1.72233 0
M  V30 3349 H 307.294 -3.85824 3.91688 0
M  V30 3350 H 308.519 -4.81854 4.78533 0
M  V30 3351 H 306.465 -5.91847 2.82937 0
M  V30 3352 H 306.382 -6.03236 4.55677 0
M  V30 3353 H 307.65 -6.85958 3.70246 0
M  V30 3354 N 311.879 -1.3236 -0.855495 0
M  V30 3355 C 312.809 -1.23833 -1.97958 0
M  V30 3356 C 313.79 -0.122361 -1.69659 0
M  V30 3357 O 314.975 -0.30939 -1.9172 0
M  V30 3358 C 312.105 -0.959772 -3.33775 0
M  V30 3359 C 311.059 -2.03689 -3.76424 0
M  V30 3360 C 310.385 -1.61075 -5.09862 0
M  V30 3361 C 311.685 -3.4518 -3.9198 0
M  V30 3362 H 313.379 -2.1788 -2.0535 0
M  V30 3363 H 310.925 -1.04891 -0.986605 0
M  V30 3364 H 312.878 -0.886678 -4.11966 0
M  V30 3365 H 311.602 0.0163404 -3.26596 0
M  V30 3366 H 310.261 -2.10012 -3.00484 0
M  V30 3367 H 309.909 -0.622107 -4.99138 0
M  V30 3368 H 309.609 -2.33143 -5.39368 0
M  V30 3369 H 311.133 -1.55201 -5.90546 0
M  V30 3370 H 312.547 -3.4145 -4.60526 0
M  V30 3371 H 310.944 -4.1559 -4.32903 0
M  V30 3372 H 312.014 -3.84903 -2.94919 0
M  V30 3373 N 313.357 1.07166 -1.15556 0
M  V30 3374 C 314.634 1.76546 -0.842069 0
M  V30 3375 C 315.014 2.00453 0.661939 0
M  V30 3376 O 314.362 1.62452 1.60691 0
M  V30 3377 C 314.572 3.07266 -1.65495 0
M  V30 3378 C 315.92 3.81578 -1.86234 0
M  V30 3379 O 316.944 3.17083 -1.62287 0
M  V30 3380 O 315.803 4.97419 -2.26355 0
M  V30 3381 H 312.897 0.766756 -0.309862 0
M  V30 3382 H 315.443 1.13514 -1.26145 0
M  V30 3383 H 314.215 2.85494 -2.67598 0
M  V30 3384 H 313.838 3.7803 -1.23203 0
M  V30 3385 N 314.835 0.952656 1.25548 0
M  V30 3386 C 316.063 0.623496 1.97282 0
M  V30 3387 C 316.478 -0.803987 1.70826 0
M  V30 3388 O 315.835 -1.53755 0.983147 0
M  V30 3389 C 315.886 0.870209 3.5087 0
M  V30 3390 O 315.607 2.24156 3.76412 0
M  V30 3391 C 317.108 0.553164 4.39835 0
M  V30 3392 H 314.328 0.233931 0.628902 0
M  V30 3393 H 316.872 1.27649 1.59768 0
M  V30 3394 H 315.027 0.263652 3.86502 0
M  V30 3395 H 315.441 2.31021 4.70882 0
M  V30 3396 H 316.915 0.776342 5.46513 0
M  V30 3397 H 317.392 -0.512215 4.36203 0
M  V30 3398 H 317.998 1.13896 4.09766 0
M  V30 3399 N 316.313 -1.40141 0.720998 0
M  V30 3400 C 317.56 -2.00787 0.262842 0
M  V30 3401 C 317.888 -1.5718 -1.14563 0
M  V30 3402 O 317.143 -0.785391 -1.79249 0
M  V30 3403 C 317.442 -3.56165 0.296892 0
M  V30 3404 C 317.108 -4.19373 1.65641 0
M  V30 3405 C 315.77 -4.36352 2.02855 0
M  V30 3406 C 318.122 -4.54578 2.54968 0
M  V30 3407 C 315.45 -4.8582 3.28931 0
M  V30 3408 C 317.802 -5.05447 3.80402 0
M  V30 3409 C 316.466 -5.20635 4.17726 0
M  V30 3410 H 315.736 -0.734731 0.0961807 0
M  V30 3411 H 318.383 -1.67673 0.925093 0
M  V30 3412 H 316.688 -3.8922 -0.448932 0
M  V30 3413 H 318.385 -4.00929 -0.0755208 0
M  V30 3414 H 314.975 -4.06549 1.35704 0
M  V30 3415 H 319.159 -4.41091 2.27491 0
M  V30 3416 H 314.415 -4.95764 3.57811 0
M  V30 3417 H 318.589 -5.31663 4.49786 0
M  V30 3418 H 316.216 -5.58728 5.15487 0
M  V30 3419 N 317.792 -0.46758 -1.50504 0
M  V30 3420 C 319.032 0.0874114 -2.04213 0
M  V30 3421 C 319.396 1.37301 -1.34211 0
M  V30 3422 O 320.597 2.01015 -1.78456 0
M  V30 3423 C 318.868 0.270571 -3.56374 0
M  V30 3424 S 320.427 0.784623 -4.31728 0
M  V30 3425 H 317.245 0.0176153 -0.710782 0
M  V30 3426 H 319.847 -0.633915 -1.84937 0
M  V30 3427 H 318.551 -0.670942 -4.04878 0
M  V30 3428 H 318.082 1.01811 -3.79997 0
M  V30 3429 H 320.097 2.05849 -4.51487 0
M  V30 3430 N 319.27 1.56325 -0.20005 0
M  V30 3431 C 320.518 1.97329 0.436547 0
M  V30 3432 C 320.839 1.08826 1.61808 0
M  V30 3433 O 320.109 0.160604 1.95241 0
M  V30 3434 H 318.689 0.728714 0.164272 0
M  V30 3435 H 321.351 1.92761 -0.287937 0
M  V30 3436 H 320.447 3.02264 0.777353 0
M  V30 3437 N 320.748 -0.0735177 1.57428 0
M  V30 3438 C 321.973 -0.789787 1.91774 0
M  V30 3439 C 322.398 -1.70413 0.796306 0
M  V30 3440 O 321.756 -1.79555 -0.250961 0
M  V30 3441 C 321.804 -1.5609 3.25067 0
M  V30 3442 O 320.908 -2.67144 3.14178 0
M  V30 3443 H 320.249 -0.215582 0.628029 0
M  V30 3444 H 322.779 -0.0422781 2.04556 0
M  V30 3445 H 322.789 -1.94052 3.58898 0
M  V30 3446 H 321.464 -0.890015 4.06265 0
M  V30 3447 H 320.041 -2.32052 2.91901 0
M  V30 3448 N 322.226 -1.5378 -0.344866 0
M  V30 3449 C 323.637 -1.62428 -0.920552 0
M  V30 3450 C 323.988 -0.504747 -1.89596 0
M  V30 3451 O 323.113 0.365711 -2.13287 0
M  V30 3452 C 323.708 -2.94419 -1.67639 0
M  V30 3453 C 322.267 -3.05333 -2.20111 0
M  V30 3454 C 321.414 -2.57866 -1.01982 0
M  V30 3455 H 324.365 -1.58222 -0.123042 0
M  V30 3456 H 324.386 -2.83384 -2.53917 0
M  V30 3457 H 323.898 -3.7588 -0.966224 0
M  V30 3458 H 321.999 -2.28502 -2.94308 0
M  V30 3459 H 322.112 -4.10778 -2.46573 0
M  V30 3460 H 320.476 -2.13241 -1.39285 0
M  V30 3461 H 321.259 -3.41765 -0.324308 0
M  V30 3462 N 323.704 0.605807 -1.45491 0
M  V30 3463 C 325.115 1.18777 -1.44045 0
M  V30 3464 C 325.466 1.95471 -0.169001 0
M  V30 3465 O 324.591 2.0374 0.729324 0
M  V30 3466 C 325.186 2.16064 -2.60963 0
M  V30 3467 C 323.745 2.69633 -2.62631 0
M  V30 3468 C 322.892 1.45072 -2.36325 0
M  V30 3469 H 325.843 0.395017 -1.53705 0
M  V30 3470 H 325.864 2.9913 -2.35163 0
M  V30 3471 H 325.376 1.60217 -3.53486 0
M  V30 3472 H 323.477 3.29414 -1.74119 0
M  V30 3473 H 323.59 3.13944 -3.61906 0
M  V30 3474 H 321.954 1.74089 -1.85917 0
M  V30 3475 H 322.737 0.910899 -3.30995 0
M  V30 3476 N 325.182 1.32811 0.848464 0
M  V30 3477 C 326.412 1.26556 1.63301 0
M  V30 3478 C 326.82 -0.1676 1.88456 0
M  V30 3479 O 326.163 -1.11713 1.45828 0
M  V30 3480 C 326.225 1.96202 3.01239 0
M  V30 3481 C 325.889 3.45528 2.99098 0
M  V30 3482 C 326.886 4.40903 2.75501 0
M  V30 3483 C 324.571 3.87558 3.19537 0
M  V30 3484 C 326.565 5.76282 2.72356 0
M  V30 3485 C 324.252 5.23044 3.16019 0
M  V30 3486 C 325.25 6.17217 2.92458 0
M  V30 3487 O 324.938 7.50223 2.88825 0
M  V30 3488 H 324.67 0.43771 0.515156 0
M  V30 3489 H 327.224 1.7559 1.0657 0
M  V30 3490 H 325.454 1.41746 3.59785 0
M  V30 3491 H 327.143 1.83573 3.62016 0
M  V30 3492 H 327.909 4.09756 2.5947 0
M  V30 3493 H 323.788 3.14674 3.369 0
M  V30 3494 H 327.332 6.4976 2.53886 0
M  V30 3495 H 323.229 5.53818 3.31596 0
M  V30 3496 H 323.997 7.59657 3.04735 0
M  V30 3497 N 326.66 -1.06551 1.16123 0
M  V30 3498 C 327.623 -2.12132 0.867906 0
M  V30 3499 C 328.623 -1.60224 -0.135944 0
M  V30 3500 O 329.813 -1.73943 0.0946422 0
M  V30 3501 C 326.945 -3.396 0.297419 0
M  V30 3502 H 328.138 -2.39586 1.80385 0
M  V30 3503 H 325.691 -1.22574 0.969812 0
M  V30 3504 H 326.426 -3.17794 -0.64633 0
M  V30 3505 H 326.211 -3.78581 1.02073 0
M  V30 3506 H 327.701 -4.17455 0.110052 0
M  V30 3507 N 328.138 -0.959301 -1.25041 0
M  V30 3508 C 329.101 -0.487677 -2.23952 0
M  V30 3509 C 330.101 0.41119 -1.55454 0
M  V30 3510 O 331.291 0.207825 -1.72956 0
M  V30 3511 C 328.423 0.294807 -3.39623 0
M  V30 3512 H 329.616 -1.36198 -2.67189 0
M  V30 3513 H 327.169 -0.743042 -1.37508 0
M  V30 3514 H 327.904 1.18658 -3.01813 0
M  V30 3515 H 327.689 -0.35012 -3.90534 0
M  V30 3516 H 329.179 0.614089 -4.1306 0
M  V30 3517 N 329.616 1.39756 -0.72842 0
M  V30 3518 C 331.027 1.83498 -0.344289 0
M  V30 3519 C 331.378 1.60868 1.12321 0
M  V30 3520 O 330.503 1.09634 1.86573 0
M  V30 3521 C 331.098 3.33114 -0.618112 0
M  V30 3522 C 329.657 3.753 -0.287549 0
M  V30 3523 C 328.804 2.62831 -0.884048 0
M  V30 3524 H 331.755 1.28842 -0.926578 0
M  V30 3525 H 331.776 3.80334 0.112349 0
M  V30 3526 H 331.288 3.49553 -1.68625 0
M  V30 3527 H 329.389 3.64451 0.775012 0
M  V30 3528 H 329.502 4.72945 -0.765512 0
M  V30 3529 H 327.866 2.52792 -0.311149 0
M  V30 3530 H 328.649 2.82078 -1.95671 0
M  V30 3531 N 331.094 0.475555 1.50254 0
M  V30 3532 C 332.004 -0.321501 2.32387 0
M  V30 3533 C 333.02 -0.991755 1.42969 0
M  V30 3534 O 334.196 -0.978747 1.76018 0
M  V30 3535 C 331.261 -1.38667 3.17762 0
M  V30 3536 C 330.322 -0.732538 4.23004 0
M  V30 3537 C 329.555 -1.74695 5.04299 0
M  V30 3538 O 329.778 -2.97399 4.86734 0
M  V30 3539 O 328.712 -1.31631 5.8733 0
M  V30 3540 H 332.538 0.350071 3.01676 0
M  V30 3541 H 330.123 0.237321 1.47503 0
M  V30 3542 H 332.005 -2.00354 3.70724 0
M  V30 3543 H 330.68 -2.04163 2.51196 0
M  V30 3544 H 329.587 -0.0765902 3.74022 0
M  V30 3545 H 330.92 -0.120452 4.92053 0
M  V30 3546 N 332.573 -1.56217 0.208337 0
M  V30 3547 C 333.503 -2.22694 -0.702116 0
M  V30 3548 C 334.484 -1.19432 -1.2112 0
M  V30 3549 O 335.669 -1.47978 -1.25762 0
M  V30 3550 C 332.799 -2.8966 -1.9161 0
M  V30 3551 C 331.753 -3.9928 -1.5414 0
M  V30 3552 C 331.079 -4.53476 -2.83308 0
M  V30 3553 C 332.379 -5.17012 -0.741339 0
M  V30 3554 H 334.073 -2.99034 -0.147898 0
M  V30 3555 H 331.619 -1.43831 -0.0696951 0
M  V30 3556 H 333.572 -3.34852 -2.55836 0
M  V30 3557 H 332.296 -2.10746 -2.49507 0
M  V30 3558 H 330.955 -3.54799 -0.922668 0
M  V30 3559 H 330.603 -3.71308 -3.39322 0
M  V30 3560 H 330.303 -5.27451 -2.58976 0
M  V30 3561 H 331.827 -5.01378 -3.485 0
M  V30 3562 H 333.241 -5.58667 -1.28699 0
M  V30 3563 H 331.638 -5.97137 -0.595627 0
M  V30 3564 H 332.708 -4.8423 0.254851 0
M  V30 3565 N 334.051 0.0651679 -1.57465 0
M  V30 3566 C 335.298 0.763063 -1.87573 0
M  V30 3567 C 335.626 1.77242 -0.800961 0
M  V30 3568 O 334.881 1.94651 0.202316 0
M  V30 3569 C 335.18 1.50081 -3.24362 0
M  V30 3570 C 334.846 0.630816 -4.46466 0
M  V30 3571 C 333.508 0.391082 -4.79608 0
M  V30 3572 C 335.86 0.0279465 -5.21193 0
M  V30 3573 C 333.188 -0.460894 -5.84887 0
M  V30 3574 C 335.54 -0.811522 -6.27373 0
M  V30 3575 C 334.204 -1.06106 -6.59013 0
M  V30 3576 H 333.474 0.279224 -0.686378 0
M  V30 3577 H 336.121 0.0236726 -1.91485 0
M  V30 3578 H 334.426 2.31258 -3.16271 0
M  V30 3579 H 336.123 2.04571 -3.44894 0
M  V30 3580 H 332.713 0.8278 -4.2053 0
M  V30 3581 H 336.897 0.200262 -4.95896 0
M  V30 3582 H 332.153 -0.662907 -6.07796 0
M  V30 3583 H 336.327 -1.28537 -6.84435 0
M  V30 3584 H 333.954 -1.723 -7.40417 0
M  V30 3585 N 335.529 1.53961 0.336706 0
M  V30 3586 C 336.461 1.78751 1.4346 0
M  V30 3587 C 337.474 0.669019 1.48418 0
M  V30 3588 O 338.663 0.945884 1.51378 0
M  V30 3589 C 335.763 1.87844 2.82078 0
M  V30 3590 C 334.936 3.17854 3.00479 0
M  V30 3591 C 333.995 3.17816 4.19379 0
M  V30 3592 O 333.021 3.91511 4.13168 0
M  V30 3593 N 334.223 2.40669 5.2826 0
M  V30 3594 H 336.988 2.73493 1.22563 0
M  V30 3595 H 334.549 1.53096 0.526625 0
M  V30 3596 H 336.541 1.85261 3.59806 0
M  V30 3597 H 335.111 1.00257 2.96086 0
M  V30 3598 H 334.331 3.33504 2.10163 0
M  V30 3599 H 335.619 4.03718 3.0966 0
M  V30 3600 H 335.017 1.8036 5.36178 0
M  V30 3601 H 333.574 2.43877 6.04456 0
M  V30 3602 N 337.007 -0.598083 1.45811 0
M  V30 3603 C 338.255 -1.35413 1.50026 0
M  V30 3604 C 338.576 -1.94444 0.147177 0
M  V30 3605 O 337.846 -1.77701 -0.824571 0
M  V30 3606 H 336.426 -0.502727 0.552517 0
M  V30 3607 H 339.088 -0.701606 1.81834 0
M  V30 3608 H 338.184 -2.16871 2.2444 0
M  V30 3609 N 338.485 -1.33259 -0.841409 0
M  V30 3610 C 339.432 -1.23302 -1.95103 0
M  V30 3611 C 340.402 -0.112204 -1.65721 0
M  V30 3612 O 341.587 -0.290038 -1.88583 0
M  V30 3613 C 338.727 -0.975583 -3.31023 0
M  V30 3614 C 337.84 -2.18243 -3.72819 0
M  V30 3615 C 336.975 -1.85936 -4.97595 0
M  V30 3616 C 336.014 -3.02866 -5.3192 0
M  V30 3617 N 335.151 -2.70565 -6.47873 0
M  V30 3618 H 339.991 -2.18207 -2.02952 0
M  V30 3619 H 337.528 -1.0851 -0.993173 0
M  V30 3620 H 339.486 -0.80677 -4.09325 0
M  V30 3621 H 338.116 -0.0632755 -3.22738 0
M  V30 3622 H 337.168 -2.46107 -2.90061 0
M  V30 3623 H 338.48 -3.05666 -3.94169 0
M  V30 3624 H 337.634 -1.65684 -5.83638 0
M  V30 3625 H 336.373 -0.957452 -4.78209 0
M  V30 3626 H 335.378 -3.23736 -4.44382 0
M  V30 3627 H 336.603 -3.93809 -5.53255 0
M  V30 3628 H 334.549 -1.8293 -6.29978 0
M  V30 3629 H 334.466 -3.51519 -6.69306 0
M  V30 3630 H 335.734 -2.53774 -7.37034 0
M  V30 3631 N 339.963 1.05934 -1.16686 0
M  V30 3632 C 340.91 2.13499 -0.876748 0
M  V30 3633 C 341.88 1.65162 0.176299 0
M  V30 3634 O 343.065 1.90757 0.0407143 0
M  V30 3635 C 340.205 3.42912 -0.387967 0
M  V30 3636 C 339.318 4.04964 -1.50426 0
M  V30 3637 C 338.453 5.22266 -0.970125 0
M  V30 3638 C 337.492 5.76309 -2.06238 0
M  V30 3639 N 336.629 6.84922 -1.54356 0
M  V30 3640 H 341.469 2.37654 -1.7979 0
M  V30 3641 H 339.006 1.16598 -0.896843 0
M  V30 3642 H 340.964 4.17111 -0.086186 0
M  V30 3643 H 339.594 3.18963 0.496235 0
M  V30 3644 H 338.646 3.28277 -1.92193 0
M  V30 3645 H 339.958 4.41122 -2.32836 0
M  V30 3646 H 339.112 6.03506 -0.621743 0
M  V30 3647 H 337.851 4.87564 -0.115377 0
M  V30 3648 H 336.856 4.93704 -2.41942 0
M  V30 3649 H 338.081 6.13062 -2.92115 0
M  V30 3650 H 336.027 6.52131 -0.711406 0
M  V30 3651 H 335.944 7.20043 -2.30379 0
M  V30 3652 H 337.212 7.69832 -1.22387 0
M  V30 3653 N 341.441 0.965919 1.2453 0
M  V30 3654 C 342.671 0.643451 1.96324 0
M  V30 3655 C 343.079 -0.790927 1.71875 0
M  V30 3656 O 342.422 -1.54208 0.998273 0
M  V30 3657 C 342.484 0.836078 3.49643 0
M  V30 3658 C 342.148 2.24975 3.97788 0
M  V30 3659 C 343.145 3.22735 4.07601 0
M  V30 3660 C 340.83 2.57697 4.31158 0
M  V30 3661 C 342.824 4.51303 4.50116 0
M  V30 3662 C 340.511 3.86492 4.73357 0
M  V30 3663 C 341.509 4.83107 4.828 0
M  V30 3664 O 341.197 6.09605 5.24058 0
M  V30 3665 H 340.929 0.239223 0.632257 0
M  V30 3666 H 343.483 1.29587 1.59362 0
M  V30 3667 H 341.713 0.12649 3.86493 0
M  V30 3668 H 343.402 0.512965 4.02646 0
M  V30 3669 H 344.168 2.98783 3.82039 0
M  V30 3670 H 340.047 1.83216 4.23028 0
M  V30 3671 H 343.591 5.26716 4.57401 0
M  V30 3672 H 339.488 4.10245 4.98366 0
M  V30 3673 H 340.256 6.13146 5.42213 0
M  V30 3674 N 342.919 -1.39368 0.735821 0
M  V30 3675 C 344.196 -1.94465 0.210395 0
M  V30 3676 C 344.576 -1.67254 -1.28799 0
M  V30 3677 O 343.924 -1.00123 -2.05396 0
M  V30 3678 C 344.134 -3.4472 0.544897 0
M  V30 3679 C 345.482 -4.21708 0.494689 0
M  V30 3680 O 346.506 -3.52922 0.482136 0
M  V30 3681 O 345.365 -5.44299 0.489947 0
M  V30 3682 H 342.459 -0.826096 0.0386666 0
M  V30 3683 H 345.005 -1.48863 0.814735 0
M  V30 3684 H 343.777 -3.57963 1.58045 0
M  V30 3685 H 343.4 -3.97502 -0.08837 0
M  V30 3686 N 344.397 -0.483516 -1.5 0
M  V30 3687 C 345.645 0.067027 -2.01989 0
M  V30 3688 C 345.966 1.3909 -1.36671 0
M  V30 3689 O 345.236 1.88978 -0.516152 0
M  V30 3690 H 343.816 0.0277606 -0.746484 0
M  V30 3691 H 346.478 -0.636773 -1.84204 0
M  V30 3692 H 345.574 0.209484 -3.11396 0
M  V30 3693 N 345.875 1.56104 -0.216619 0
M  V30 3694 C 347.286 1.844 0.292128 0
M  V30 3695 C 347.637 1.13788 1.59833 0
M  V30 3696 O 346.762 0.405888 2.12559 0
M  V30 3697 C 347.357 3.3452 0.53681 0
M  V30 3698 C 345.916 3.63151 0.989876 0
M  V30 3699 C 345.063 2.77255 0.0502302 0
M  V30 3700 H 348.014 1.52481 -0.439926 0
M  V30 3701 H 348.035 3.54459 1.38345 0
M  V30 3702 H 347.547 3.85885 -0.414031 0
M  V30 3703 H 345.648 3.17238 1.95425 0
M  V30 3704 H 345.761 4.71177 0.867698 0
M  V30 3705 H 344.125 2.48555 0.556117 0
M  V30 3706 H 344.908 3.31416 -0.89544 0
M  V30 3707 N 347.353 -0.0568162 1.57498 0
M  V30 3708 C 348.263 -1.08346 2.08083 0
M  V30 3709 C 349.279 -1.41439 1.01346 0
M  V30 3710 O 350.455 -1.51316 1.32912 0
M  V30 3711 C 347.52 -2.37352 2.52715 0
M  V30 3712 C 346.581 -2.11093 3.73816 0
M  V30 3713 C 345.814 -3.33949 4.1631 0
M  V30 3714 O 346.037 -4.43622 3.58547 0
M  V30 3715 O 344.971 -3.21279 5.08983 0
M  V30 3716 H 348.797 -0.683667 2.95905 0
M  V30 3717 H 346.382 -0.271965 1.46904 0
M  V30 3718 H 348.264 -3.13246 2.81877 0
M  V30 3719 H 346.939 -2.76681 1.68016 0
M  V30 3720 H 345.846 -1.32856 3.49714 0
M  V30 3721 H 347.179 -1.76637 4.59413 0
M  V30 3722 N 348.832 -1.54138 -0.328536 0
M  V30 3723 C 350.078 -1.7236 -1.06865 0
M  V30 3724 C 350.411 -0.493231 -1.87832 0
M  V30 3725 O 349.686 0.5098 -1.877 0
M  V30 3726 C 349.969 -2.99621 -1.99747 0
M  V30 3727 C 349.822 -4.32899 -1.22143 0
M  V30 3728 C 351.141 -3.22615 -2.99345 0
M  V30 3729 H 348.26 -0.627151 -0.387105 0
M  V30 3730 H 350.902 -1.86827 -0.345767 0
M  V30 3731 H 349.052 -2.87418 -2.61387 0
M  V30 3732 H 350.724 -4.56978 -0.630017 0
M  V30 3733 H 348.967 -4.30628 -0.523628 0
M  V30 3734 H 349.638 -5.18154 -1.90318 0
M  V30 3735 H 352.114 -3.34248 -2.47826 0
M  V30 3736 H 350.99 -4.13027 -3.61524 0
M  V30 3737 H 351.251 -2.3961 -3.71536 0
M  V30 3738 N 350.31 0.590341 -1.46126 0
M  V30 3739 C 351.587 1.35029 -1.41515 0
M  V30 3740 C 351.967 2.10888 -0.0946472 0
M  V30 3741 O 351.315 2.08998 0.923693 0
M  V30 3742 C 351.525 2.28269 -2.63997 0
M  V30 3743 C 352.873 2.90338 -3.09821 0
M  V30 3744 O 353.897 2.38585 -2.64492 0
M  V30 3745 O 352.756 3.84321 -3.88535 0
M  V30 3746 H 349.85 0.606317 -0.562413 0
M  V30 3747 H 352.396 0.611994 -1.58281 0
M  V30 3748 H 351.168 1.71591 -3.51671 0
M  V30 3749 H 350.791 3.0945 -2.49652 0
M  V30 3750 N 351.788 1.33704 0.83433 0
M  V30 3751 C 353.037 1.24763 1.58484 0
M  V30 3752 C 353.35 -0.183775 1.94735 0
M  V30 3753 O 354.556 -0.395234 2.68608 0
M  V30 3754 C 353.012 2.18638 2.85876 0
M  V30 3755 C 352.62 3.66974 2.56971 0
M  V30 3756 C 354.364 2.18581 3.63899 0
M  V30 3757 C 352.271 4.5275 3.80488 0
M  V30 3758 H 351.201 0.463425 0.594772 0
M  V30 3759 H 353.852 1.58797 0.919551 0
M  V30 3760 H 352.234 1.77542 3.5397 0
M  V30 3761 H 353.408 4.16538 1.9706 0
M  V30 3762 H 351.723 3.69366 1.92244 0
M  V30 3763 H 354.32 2.79894 4.55591 0
M  V30 3764 H 354.663 1.18207 3.99165 0
M  V30 3765 H 355.196 2.58062 3.02735 0
M  V30 3766 H 351.935 5.54017 3.5035 0
M  V30 3767 H 351.455 4.07927 4.39722 0
M  V30 3768 H 353.134 4.66784 4.4802 0
M  V30 3769 N 353.266 -1.05314 1.17247 0
M  V30 3770 C 354.512 -1.78699 0.971513 0
M  V30 3771 C 354.867 -1.85932 -0.494692 0
M  V30 3772 O 354.16 -1.34716 -1.36243 0
M  V30 3773 C 354.354 -3.2229 1.54479 0
M  V30 3774 C 354.183 -3.29052 3.06521 0
M  V30 3775 C 352.953 -3.3841 3.75242 0
M  V30 3776 C 355.151 -3.18095 4.04129 0
M  V30 3777 N 353.133 -3.34289 5.14902 0
M  V30 3778 C 354.504 -3.21331 5.30232 0
M  V30 3779 C 356.559 -3.02049 3.95817 0
M  V30 3780 C 355.262 -3.10169 6.4899 0
M  V30 3781 C 357.288 -2.92228 5.14156 0
M  V30 3782 C 356.65 -2.96096 6.39145 0
M  V30 3783 H 352.749 -0.66628 0.409383 0
M  V30 3784 H 355.333 -1.25553 1.4881 0
M  V30 3785 H 353.504 -3.7381 1.05455 0
M  V30 3786 H 355.236 -3.83905 1.28059 0
M  V30 3787 H 351.991 -3.43621 3.25917 0
M  V30 3788 H 352.415 -3.35702 5.87906 0
M  V30 3789 H 357.057 -2.97897 3.00029 0
M  V30 3790 H 354.775 -3.13076 7.44989 0
M  V30 3791 H 358.361 -2.80885 5.09505 0
M  V30 3792 H 357.241 -2.88568 7.29176 0
M  V30 3793 N 354.744 -0.972509 -1.24016 0
M  V30 3794 C 355.969 -0.654417 -1.96805 0
M  V30 3795 C 356.394 0.770398 -1.716 0
M  V30 3796 O 355.752 1.52361 -0.982647 0
M  V30 3797 C 355.8 -0.941031 -3.48105 0
M  V30 3798 O 354.904 -0.0289472 -4.1239 0
M  V30 3799 H 354.245 -0.24692 -0.616382 0
M  V30 3800 H 356.775 -1.30396 -1.57664 0
M  V30 3801 H 356.785 -0.87452 -3.98517 0
M  V30 3802 H 355.46 -1.97939 -3.65777 0
M  V30 3803 H 354.037 -0.149192 -3.72601 0
M  V30 3804 N 356.222 1.38976 -0.743202 0
M  V30 3805 C 357.152 2.33171 -0.123873 0
M  V30 3806 C 358.133 1.54336 0.71516 0
M  V30 3807 O 359.318 1.82696 0.658467 0
M  V30 3808 C 356.448 3.38474 0.777978 0
M  V30 3809 C 355.402 4.27979 0.0424758 0
M  V30 3810 C 354.728 5.2405 1.06189 0
M  V30 3811 C 356.028 5.10155 -1.1198 0
M  V30 3812 H 357.722 2.85213 -0.910709 0
M  V30 3813 H 355.268 1.37133 -0.439388 0
M  V30 3814 H 357.221 4.03328 1.22084 0
M  V30 3815 H 355.945 2.84891 1.59702 0
M  V30 3816 H 354.604 3.64616 -0.380853 0
M  V30 3817 H 354.252 4.66758 1.87472 0
M  V30 3818 H 353.952 5.84785 0.574485 0
M  V30 3819 H 355.476 5.9178 1.50428 0
M  V30 3820 H 356.89 5.68307 -0.75499 0
M  V30 3821 H 355.287 5.80073 -1.53738 0
M  V30 3822 H 356.357 4.44504 -1.93764 0
M  V30 3823 N 357.7 0.491464 1.49741 0
M  V30 3824 C 358.948 -0.0563141 2.02022 0
M  V30 3825 C 359.269 -1.38363 1.37407 0
M  V30 3826 O 358.539 -1.88702 0.526166 0
M  V30 3827 H 357.119 -0.0238014 0.746621 0
M  V30 3828 H 359.781 0.646533 1.83864 0
M  V30 3829 H 358.877 -0.192967 3.11503 0
M  V30 3830 N 359.178 -1.55987 0.224894 0
M  V30 3831 C 360.424 -1.98684 -0.406502 0
M  V30 3832 C 360.757 -1.11248 -1.59177 0
M  V30 3833 O 360.032 -0.170909 -1.93748 0
M  V30 3834 C 360.315 -3.50218 -0.837808 0
M  V30 3835 C 360.168 -4.48426 0.351332 0
M  V30 3836 C 361.487 -4.06243 -1.69278 0
M  V30 3837 H 358.606 -0.722337 -0.146283 0
M  V30 3838 H 361.248 -1.87255 0.321799 0
M  V30 3839 H 359.398 -3.60089 -1.45837 0
M  V30 3840 H 361.07 -4.50562 0.989526 0
M  V30 3841 H 359.313 -4.22159 0.998207 0
M  V30 3842 H 359.984 -5.52 0.00655905 0
M  V30 3843 H 362.46 -3.99337 -1.16914 0
M  V30 3844 H 361.336 -5.12581 -1.96346 0
M  V30 3845 H 361.597 -3.53332 -2.65723 0
M  V30 3846 N 360.656 0.0484629 -1.57525 0
M  V30 3847 C 361.905 0.742065 -1.87553 0
M  V30 3848 C 362.218 1.77545 -0.820802 0
M  V30 3849 O 363.424 2.52027 -1.00967 0
M  V30 3850 C 361.88 1.37081 -3.32771 0
M  V30 3851 C 361.488 0.374786 -4.4643 0
M  V30 3852 C 363.232 2.04542 -3.71972 0
M  V30 3853 C 361.139 1.01077 -5.82698 0
M  V30 3854 H 360.069 0.280903 -0.699721 0
M  V30 3855 H 362.72 -0.00411877 -1.835 0
M  V30 3856 H 361.102 2.16605 -3.31509 0
M  V30 3857 H 362.276 -0.392331 -4.59127 0
M  V30 3858 H 360.591 -0.196653 -4.15935 0
M  V30 3859 H 363.188 2.52943 -4.71088 0
M  V30 3860 H 363.531 2.85515 -3.02964 0
M  V30 3861 H 364.064 1.31819 -3.75325 0
M  V30 3862 H 360.803 0.240878 -6.55057 0
M  V30 3863 H 360.323 1.74819 -5.73758 0
M  V30 3864 H 362.002 1.52383 -6.28799 0
M  V30 3865 N 362.134 1.5431 0.320358 0
M  V30 3866 C 363.064 1.86912 1.3995 0
M  V30 3867 C 364.045 0.726211 1.53819 0
M  V30 3868 O 365.23 0.980233 1.67646 0
M  V30 3869 C 362.36 2.09932 2.7667 0
M  V30 3870 C 361.314 3.25776 2.77586 0
M  V30 3871 C 360.64 3.34173 4.17412 0
M  V30 3872 C 361.94 4.6335 2.41048 0
M  V30 3873 H 363.634 2.77292 1.12914 0
M  V30 3874 H 361.18 1.33421 0.541738 0
M  V30 3875 H 363.133 2.31324 3.52232 0
M  V30 3876 H 361.857 1.16304 3.0519 0
M  V30 3877 H 360.516 3.04276 2.04479 0
M  V30 3878 H 360.164 2.38098 4.43078 0
M  V30 3879 H 359.864 4.12033 4.18931 0
M  V30 3880 H 361.388 3.57803 4.94782 0
M  V30 3881 H 362.802 4.84602 3.06324 0
M  V30 3882 H 361.199 5.43782 2.53813 0
M  V30 3883 H 362.269 4.65381 1.36193 0
M  V30 3884 N 363.613 -0.582584 1.46437 0
M  V30 3885 C 364.843 -1.36484 1.55099 0
M  V30 3886 C 365.251 -1.88233 0.191056 0
M  V30 3887 O 364.594 -1.6429 -0.821858 0
M  V30 3888 C 364.656 -2.588 2.49525 0
M  V30 3889 C 364.32 -2.28517 3.95764 0
M  V30 3890 C 365.317 -1.87346 4.84972 0
M  V30 3891 C 363.002 -2.40658 4.40896 0
M  V30 3892 C 364.996 -1.5871 6.17325 0
M  V30 3893 C 362.683 -2.11635 5.73284 0
M  V30 3894 C 363.681 -1.70725 6.61318 0
M  V30 3895 O 363.369 -1.42057 7.91249 0
M  V30 3896 H 363.101 -0.423297 0.527063 0
M  V30 3897 H 365.655 -0.715188 1.92547 0
M  V30 3898 H 363.885 -3.26571 2.07095 0
M  V30 3899 H 365.574 -3.20868 2.48593 0
M  V30 3900 H 366.34 -1.77481 4.5136 0
M  V30 3901 H 362.219 -2.71463 3.72598 0
M  V30 3902 H 365.763 -1.26704 6.85997 0
M  V30 3903 H 361.66 -2.21124 6.06444 0
M  V30 3904 H 362.428 -1.55901 8.03515 0
M  V30 3905 N 365.091 -1.34144 -0.827227 0
M  V30 3906 C 366.319 -1.29325 -1.61501 0
M  V30 3907 C 366.734 0.13354 -1.88327 0
M  V30 3908 O 366.091 1.0793 -1.47164 0
M  V30 3909 C 366.142 -2.07746 -2.95844 0
M  V30 3910 O 365.863 -3.4486 -2.70191 0
M  V30 3911 C 367.364 -2.10273 -3.90256 0
M  V30 3912 H 364.584 -0.445069 -0.50215 0
M  V30 3913 H 367.128 -1.76693 -1.02955 0
M  V30 3914 H 365.283 -1.6403 -3.5096 0
M  V30 3915 H 365.697 -3.85345 -3.55822 0
M  V30 3916 H 367.171 -2.69575 -4.81698 0
M  V30 3917 H 367.648 -1.096 -4.25305 0
M  V30 3918 H 368.254 -2.54059 -3.41078 0
M  V30 3919 N 366.569 1.04691 -1.17803 0
M  V30 3920 C 367.499 2.14494 -0.92275 0
M  V30 3921 C 368.48 1.69546 0.137179 0
M  V30 3922 O 369.665 1.94195 -0.0141108 0
M  V30 3923 C 366.795 3.44491 -0.440803 0
M  V30 3924 C 365.749 4.03031 -1.4405 0
M  V30 3925 C 365.075 5.28432 -0.81631 0
M  V30 3926 C 366.375 4.39932 -2.81527 0
M  V30 3927 H 368.069 2.36107 -1.84103 0
M  V30 3928 H 365.615 1.1347 -0.886599 0
M  V30 3929 H 367.568 4.2066 -0.249602 0
M  V30 3930 H 366.292 3.22546 0.513025 0
M  V30 3931 H 364.951 3.28937 -1.61853 0
M  V30 3932 H 364.599 5.02792 0.144511 0
M  V30 3933 H 364.299 5.68559 -1.48371 0
M  V30 3934 H 365.823 6.07284 -0.635496 0
M  V30 3935 H 367.237 5.07113 -2.67412 0
M  V30 3936 H 365.634 4.9109 -3.44892 0
M  V30 3937 H 366.704 3.50045 -3.35554 0
M  V30 3938 N 368.047 0.979072 1.23499 0
M  V30 3939 C 369.293 0.648178 1.92163 0
M  V30 3940 C 369.626 -0.816049 1.76222 0
M  V30 3941 O 368.901 -1.58849 1.12237 0
M  V30 3942 C 369.184 1.03773 3.44824 0
M  V30 3943 C 369.037 2.55948 3.69879 0
M  V30 3944 C 370.356 0.580653 4.36253 0
M  V30 3945 H 367.475 0.236952 0.69787 0
M  V30 3946 H 370.117 1.22012 1.45647 0
M  V30 3947 H 368.267 0.551058 3.84572 0
M  V30 3948 H 369.939 3.12179 3.3962 0
M  V30 3949 H 368.182 2.98641 3.14636 0
M  V30 3950 H 368.853 2.78255 4.76737 0
M  V30 3951 H 371.329 0.998465 4.03943 0
M  V30 3952 H 370.205 0.881663 5.41773 0
M  V30 3953 H 370.466 -0.519052 4.39042 0
M  V30 3954 N 369.525 -1.3858 0.750561 0
M  V30 3955 C 370.75 -2.04997 0.314812 0
M  V30 3956 C 371.175 -1.56235 -1.04749 0
M  V30 3957 O 370.533 -0.712981 -1.66692 0
M  V30 3958 C 370.581 -3.58961 0.343415 0
M  V30 3959 O 369.685 -4.07025 -0.663628 0
M  V30 3960 H 369.026 -0.649081 0.139962 0
M  V30 3961 H 371.556 -1.77313 1.02084 0
M  V30 3962 H 371.566 -4.07542 0.193233 0
M  V30 3963 H 370.241 -3.93811 1.33738 0
M  V30 3964 H 368.818 -3.6982 -0.478307 0
M  V30 3965 N 371.003 -0.499398 -1.49478 0
M  V30 3966 C 372.251 0.0455996 -2.02049 0
M  V30 3967 C 372.572 1.37633 -1.38138 0
M  V30 3968 O 371.842 1.8842 -0.536166 0
M  V30 3969 H 370.422 0.0198416 -0.746736 0
M  V30 3970 H 373.084 -0.656274 -1.83519 0
M  V30 3971 H 372.18 0.176445 -3.11601 0
M  V30 3972 N 372.481 1.55866 -0.233164 0
M  V30 3973 C 373.706 2.03449 0.402906 0
M  V30 3974 C 374.131 1.11166 1.51736 0
M  V30 3975 O 373.489 0.101996 1.81013 0
M  V30 3976 C 373.537 3.49165 0.9009 0
M  V30 3977 O 372.641 3.60019 2.01147 0
M  V30 3978 H 371.982 0.657913 0.0897025 0
M  V30 3979 H 374.512 2.01493 -0.355201 0
M  V30 3980 H 374.522 3.89716 1.2077 0
M  V30 3981 H 373.197 4.15813 0.0852889 0
M  V30 3982 H 371.774 3.3136 1.71042 0
M  V30 3983 N 373.959 -0.0401083 1.57549 0
M  V30 3984 C 374.889 -1.04384 2.08869 0
M  V30 3985 C 375.87 -1.38407 0.988817 0
M  V30 3986 O 377.055 -1.47483 1.26342 0
M  V30 3987 C 374.185 -2.34808 2.55895 0
M  V30 3988 C 373.139 -2.15057 3.70047 0
M  V30 3989 C 372.465 -3.51145 4.03239 0
M  V30 3990 C 373.765 -1.54576 4.98902 0
M  V30 3991 H 375.459 -0.616666 2.92981 0
M  V30 3992 H 373.005 -0.295184 1.40942 0
M  V30 3993 H 374.958 -3.05346 2.90417 0
M  V30 3994 H 373.682 -2.79565 1.68853 0
M  V30 3995 H 372.341 -1.46954 3.35857 0
M  V30 3996 H 371.989 -3.93529 3.13279 0
M  V30 3997 H 371.689 -3.38758 4.80122 0
M  V30 3998 H 373.213 -4.23062 4.40285 0
M  V30 3999 H 374.627 -2.15017 5.31451 0
M  V30 4000 H 373.024 -1.52796 5.80322 0
M  V30 4001 H 374.094 -0.51039 4.82206 0
M  V30 4002 N 375.437 -1.54477 -0.31217 0
M  V30 4003 C 376.848 -1.64344 -0.885891 0
M  V30 4004 C 377.199 -0.54485 -1.88483 0
M  V30 4005 O 376.324 0.320387 -2.14015 0
M  V30 4006 C 376.919 -2.97908 -1.61357 0
M  V30 4007 C 375.478 -3.09933 -2.13585 0
M  V30 4008 C 374.625 -2.59971 -0.964897 0
M  V30 4009 H 377.576 -1.58448 -0.0894528 0
M  V30 4010 H 377.597 -2.88706 -2.47848 0
M  V30 4011 H 377.109 -3.77845 -0.886277 0
M  V30 4012 H 375.21 -2.34694 -2.89395 0
M  V30 4013 H 375.323 -4.15916 -2.37804 0
M  V30 4014 H 373.687 -2.16147 -1.34731 0
M  V30 4015 H 374.47 -3.42376 -0.251742 0
M  V30 4016 N 376.915 0.57481 -1.46744 0
M  V30 4017 C 378.162 1.33272 -1.52462 0
M  V30 4018 C 378.49 1.93669 -0.179572 0
M  V30 4019 O 377.745 1.7743 0.825664 0
M  V30 4020 C 378.044 2.476 -2.57738 0
M  V30 4021 C 377.71 2.05146 -4.01529 0
M  V30 4022 C 376.372 1.93284 -4.40676 0
M  V30 4023 C 378.724 1.72506 -4.91824 0
M  V30 4024 C 376.052 1.47049 -5.67973 0
M  V30 4025 C 378.404 1.27748 -6.19567 0
M  V30 4026 C 377.068 1.14468 -6.57612 0
M  V30 4027 H 376.338 0.487678 -0.557899 0
M  V30 4028 H 378.985 0.646456 -1.80259 0
M  V30 4029 H 377.29 3.21708 -2.23632 0
M  V30 4030 H 378.987 3.05807 -2.5939 0
M  V30 4031 H 375.577 2.15316 -3.7059 0
M  V30 4032 H 379.761 1.80552 -4.62293 0
M  V30 4033 H 375.017 1.35417 -5.96215 0
M  V30 4034 H 379.191 1.01547 -6.88957 0
M  V30 4035 H 376.818 0.78419 -7.56145 0
M  V30 4036 N 378.394 1.34581 0.820102 0
M  V30 4037 C 379.671 1.17675 1.56244 0
M  V30 4038 C 380.051 -0.249541 2.0962 0
M  V30 4039 O 379.399 -1.25125 1.91196 0
M  V30 4040 C 379.609 2.23364 2.6816 0
M  V30 4041 C 380.957 2.58485 3.36854 0
M  V30 4042 O 381.981 2.22175 2.78418 0
M  V30 4043 O 380.84 3.20868 4.42386 0
M  V30 4044 H 377.934 0.456333 0.689702 0
M  V30 4045 H 380.48 1.46222 0.861231 0
M  V30 4046 H 379.252 3.19087 2.26493 0
M  V30 4047 H 378.875 1.96009 3.45928 0
M  V30 4048 N 379.872 -1.04064 1.18357 0
M  V30 4049 C 381.12 -1.76915 0.977013 0
M  V30 4050 C 381.441 -1.88624 -0.494577 0
M  V30 4051 O 380.711 -1.41125 -1.3587 0
M  V30 4052 H 379.291 -0.65535 0.358504 0
M  V30 4053 H 381.953 -1.25592 1.49039 0
M  V30 4054 H 381.049 -2.78178 1.41504 0
M  V30 4055 N 381.35 -0.985608 -1.22978 0
M  V30 4056 C 382.3 -0.50118 -2.22423 0
M  V30 4057 C 383.284 0.426649 -1.5514 0
M  V30 4058 O 384.476 0.254656 -1.75159 0
M  V30 4059 C 381.605 0.190003 -3.42774 0
M  V30 4060 C 380.691 -0.757703 -4.17276 0
M  V30 4061 N 381.082 -1.90251 -4.68656 0
M  V30 4062 C 379.38 -0.57209 -4.42316 0
M  V30 4063 C 380.081 -2.49676 -5.25392 0
M  V30 4064 N 379.057 -1.78013 -5.13627 0
M  V30 4065 H 382.859 -1.37441 -2.59783 0
M  V30 4066 H 380.373 -0.846941 -1.38567 0
M  V30 4067 H 382.37 0.55439 -4.13197 0
M  V30 4068 H 381.03 1.05946 -3.06929 0
M  V30 4069 H 382.041 -2.28354 -4.64839 0
M  V30 4070 H 378.718 0.251909 -4.16739 0
M  V30 4071 H 380.108 -3.46384 -5.75732 0
M  V30 4072 N 382.828 1.3818 -0.7579 0
M  V30 4073 C 383.776 2.32277 -0.122482 0
M  V30 4074 C 384.77 1.54238 0.700505 0
M  V30 4075 O 385.976 1.69737 0.599119 0
M  V30 4076 H 382.351 0.751712 -0.0208143 0
M  V30 4077 H 384.322 2.83469 -0.932099 0
M  V30 4078 C 383.071 3.39447 0.753076 0
M  V30 4079 H 382.394 3.99591 0.129184 0
M  V30 4080 H 383.834 4.07684 1.16489 0
M  V30 4081 C 382.293 2.78375 1.8976 0
M  V30 4082 O 382.823 2.68025 2.99208 0
M  V30 4083 N 381.029 2.36121 1.69397 0
M  V30 4084 H 380.576 2.4474 0.803762 0
M  V30 4085 H 380.534 1.95602 2.46145 0
M  V30 4086 N 384.306 0.507319 1.49211 0
M  V30 4087 C 385.236 -0.256939 2.32082 0
M  V30 4088 C 386.217 -0.956609 1.40652 0
M  V30 4089 O 387.402 -0.946788 1.69557 0
M  V30 4090 C 384.532 -1.31802 3.21318 0
M  V30 4091 C 383.486 -0.737855 4.21592 0
M  V30 4092 C 382.812 -1.89992 4.99807 0
M  V30 4093 C 384.112 0.275325 5.21574 0
M  V30 4094 H 385.806 0.434798 2.96226 0
M  V30 4095 H 383.352 0.210546 1.42452 0
M  V30 4096 H 385.305 -1.86045 3.78107 0
M  V30 4097 H 384.029 -2.03903 2.5513 0
M  V30 4098 H 382.688 -0.217126 3.65956 0
M  V30 4099 H 382.336 -2.60877 4.30061 0
M  V30 4100 H 382.036 -1.51777 5.6766 0
M  V30 4101 H 383.56 -2.44657 5.59442 0
M  V30 4102 H 384.974 -0.179193 5.7302 0
M  V30 4103 H 383.371 0.573649 5.97352 0
M  V30 4104 H 384.441 1.18903 4.70096 0
M  V30 4105 N 385.784 -1.5574 0.241426 0
M  V30 4106 C 386.731 -2.21149 -0.660432 0
M  V30 4107 C 387.701 -1.17356 -1.17545 0
M  V30 4108 O 388.886 -1.45784 -1.23093 0
M  V30 4109 C 386.026 -2.91059 -1.85414 0
M  V30 4110 C 385.139 -4.09495 -1.37616 0
M  V30 4111 C 384.274 -4.67135 -2.529 0
M  V30 4112 C 383.313 -5.77831 -2.01936 0
M  V30 4113 N 382.45 -6.29677 -3.10566 0
M  V30 4114 H 387.29 -2.97845 -0.095955 0
M  V30 4115 H 384.827 -1.47057 -0.0356024 0
M  V30 4116 H 386.785 -3.29788 -2.5553 0
M  V30 4117 H 385.415 -2.16846 -2.39118 0
M  V30 4118 H 384.467 -3.76117 -0.569235 0
M  V30 4119 H 385.779 -4.89423 -0.962618 0
M  V30 4120 H 384.933 -5.08409 -3.31067 0
M  V30 4121 H 383.672 -3.86411 -2.97553 0
M  V30 4122 H 382.677 -5.36039 -1.22238 0
M  V30 4123 H 383.902 -6.60402 -1.58259 0
M  V30 4124 H 381.848 -5.5186 -3.54664 0
M  V30 4125 H 381.765 -7.04783 -2.73526 0
M  V30 4126 H 383.033 -6.75609 -3.88809 0
M  V30 4127 N 387.262 0.0317525 -1.57568 0
M  V30 4128 C 388.172 1.05021 -2.0978 0
M  V30 4129 C 389.188 1.39809 -1.03583 0
M  V30 4130 O 390.364 1.49182 -1.35302 0
M  V30 4131 C 387.429 2.33301 -2.56459 0
M  V30 4132 C 386.49 2.0512 -3.77127 0
M  V30 4133 C 385.723 3.27283 -4.2157 0
M  V30 4134 O 385.946 4.37861 -3.65559 0
M  V30 4135 O 384.88 3.13141 -5.14029 0
M  V30 4136 H 388.706 0.636505 -2.96955 0
M  V30 4137 H 386.291 0.248559 -1.47318 0
M  V30 4138 H 388.173 3.08722 -2.86825 0
M  V30 4139 H 386.848 2.73973 -1.72397 0
M  V30 4140 H 385.755 1.27276 -3.51784 0
M  V30 4141 H 387.088 1.69305 -4.62165 0
M  V30 4142 N 388.74 1.54641 0.303973 0
M  V30 4143 C 389.67 1.88386 1.3796 0
M  V30 4144 C 390.651 0.742485 1.5304 0
M  V30 4145 O 391.836 0.997959 1.66597 0
M  V30 4146 C 388.966 2.12854 2.74427 0
M  V30 4147 C 387.92 3.28702 2.74115 0
M  V30 4148 C 387.246 3.38582 4.13844 0
M  V30 4149 C 388.546 4.65881 2.3612 0
M  V30 4150 H 390.24 2.78474 1.09966 0
M  V30 4151 H 387.786 1.33988 0.527556 0
M  V30 4152 H 389.739 2.35047 3.49758 0
M  V30 4153 H 388.463 1.19535 3.03939 0
M  V30 4154 H 387.122 3.06428 2.0124 0
M  V30 4155 H 386.77 2.42784 4.40528 0
M  V30 4156 H 386.47 4.16453 4.14537 0
M  V30 4157 H 387.994 3.63031 4.90959 0
M  V30 4158 H 389.408 4.87823 3.01167 0
M  V30 4159 H 387.805 5.46444 2.48031 0
M  V30 4160 H 388.875 4.66799 1.3125 0
M  V30 4161 N 390.218 -0.567019 1.47046 0
M  V30 4162 C 391.634 -0.891975 1.32348 0
M  V30 4163 C 391.834 -1.99154 0.306616 0
M  V30 4164 O 390.89 -2.50883 -0.28532 0
M  V30 4165 C 392.203 -1.29449 2.7141 0
M  V30 4166 C 393.751 -1.40646 2.79621 0
M  V30 4167 C 394.226 -1.84257 4.19301 0
M  V30 4168 N 395.717 -1.91424 4.21795 0
M  V30 4169 C 396.452 -2.26476 5.26779 0
M  V30 4170 N 395.948 -2.60211 6.42077 0
M  V30 4171 N 397.741 -2.27166 5.14152 0
M  V30 4172 H 389.892 0.159074 2.11803 0
M  V30 4173 H 392.155 0.00849752 0.947962 0
M  V30 4174 H 391.861 -0.560448 3.47206 0
M  V30 4175 H 391.735 -2.25273 3.02542 0
M  V30 4176 H 394.122 -2.13133 2.04104 0
M  V30 4177 H 394.203 -0.430339 2.52154 0
M  V30 4178 H 393.847 -1.12343 4.95319 0
M  V30 4179 H 393.777 -2.82855 4.44185 0
M  V30 4180 H 396.268 -1.6778 3.38612 0
M  V30 4181 H 396.581 -2.85956 7.17948 0
M  V30 4182 H 394.926 -2.57813 6.45413 0
M  V30 4183 H 398.117 -2.00244 4.23107 0
M  V30 4184 H 398.29 -2.54154 5.96079 0
M  V30 4185 N 391.696 -1.35014 -0.812953 0
M  V30 4186 C 392.606 -1.2951 -1.95613 0
M  V30 4187 C 393.622 -0.20107 -1.72834 0
M  V30 4188 O 394.798 -0.42932 -1.96771 0
M  V30 4189 C 391.863 -1.06033 -3.30088 0
M  V30 4190 C 390.924 -2.24688 -3.65805 0
M  V30 4191 C 390.157 -2.02322 -4.93864 0
M  V30 4192 O 390.38 -0.986464 -5.61805 0
M  V30 4193 O 389.314 -2.89525 -5.27692 0
M  V30 4194 H 393.14 -2.25705 -2.03202 0
M  V30 4195 H 390.725 -1.15321 -0.949811 0
M  V30 4196 H 392.607 -0.94763 -4.10607 0
M  V30 4197 H 391.282 -0.128852 -3.23443 0
M  V30 4198 H 390.189 -2.41521 -2.85689 0
M  V30 4199 H 391.522 -3.16261 -3.77147 0
M  V30 4200 N 393.175 1.03435 -1.18907 0
M  V30 4201 C 394.591 1.28973 -0.940111 0
M  V30 4202 C 394.791 1.97676 0.390691 0
M  V30 4203 O 393.847 2.26127 1.12352 0
M  V30 4204 C 395.16 2.14221 -2.11021 0
M  V30 4205 C 396.708 2.27547 -2.14922 0
M  V30 4206 C 397.183 3.16164 -3.31367 0
M  V30 4207 N 398.674 3.23752 -3.31269 0
M  V30 4208 C 399.409 3.92495 -4.18014 0
M  V30 4209 N 398.905 4.63515 -5.14904 0
M  V30 4210 N 400.698 3.88838 -4.05908 0
M  V30 4211 H 392.849 0.57252 -2.04538 0
M  V30 4212 H 395.112 0.315184 -0.894071 0
M  V30 4213 H 394.818 1.71054 -3.073 0
M  V30 4214 H 394.692 3.14919 -2.0762 0
M  V30 4215 H 397.079 2.69947 -1.19217 0
M  V30 4216 H 397.16 1.26418 -2.22378 0
M  V30 4217 H 396.804 2.74474 -4.27348 0
M  V30 4218 H 396.734 4.17339 -3.21148 0
M  V30 4219 H 399.225 2.73167 -2.61129 0
M  V30 4220 H 399.538 5.13583 -5.77453 0
M  V30 4221 H 397.883 4.62398 -5.18857 0
M  V30 4222 H 401.074 3.32491 -3.29495 0
M  V30 4223 H 401.247 4.4214 -4.73726 0
M  V30 4224 N 394.653 0.992116 1.22453 0
M  V30 4225 C 395.899 0.668523 1.91464 0
M  V30 4226 C 396.232 -0.797313 1.77078 0
M  V30 4227 O 395.507 -1.5765 1.13916 0
M  V30 4228 C 395.79 1.07424 3.43703 0
M  V30 4229 C 395.643 2.59857 3.67143 0
M  V30 4230 C 396.962 0.626891 4.35612 0
M  V30 4231 H 394.081 0.244341 0.695318 0
M  V30 4232 H 396.723 1.2355 1.44345 0
M  V30 4233 H 394.873 0.591816 3.83966 0
M  V30 4234 H 396.545 3.15764 3.3629 0
M  V30 4235 H 394.788 3.01961 3.11451 0
M  V30 4236 H 395.459 2.83296 4.73759 0
M  V30 4237 H 397.935 1.04125 4.02861 0
M  V30 4238 H 396.811 0.939076 5.40807 0
M  V30 4239 H 397.072 -0.472457 4.39568 0
M  V30 4240 N 396.131 -1.37776 0.765217 0
M  V30 4241 C 397.061 -2.32945 0.160953 0
M  V30 4242 C 398.042 -1.55454 -0.690516 0
M  V30 4243 O 399.227 -1.83721 -0.629318 0
M  V30 4244 C 396.357 -3.39669 -0.724031 0
M  V30 4245 C 395.311 -4.27992 0.0256173 0
M  V30 4246 C 394.637 -5.25673 -0.978383 0
M  V30 4247 C 395.937 -5.08309 1.20082 0
M  V30 4248 H 397.631 -2.83728 0.955969 0
M  V30 4249 H 395.177 -1.36416 0.461149 0
M  V30 4250 H 397.13 -4.05219 -1.15652 0
M  V30 4251 H 395.854 -2.87396 -1.5515 0
M  V30 4252 H 394.513 -3.63964 0.438812 0
M  V30 4253 H 394.161 -4.69682 -1.80022 0
M  V30 4254 H 393.861 -5.85625 -0.481378 0
M  V30 4255 H 395.385 -5.94098 -1.40995 0
M  V30 4256 H 396.799 -5.67034 0.845307 0
M  V30 4257 H 395.196 -5.77554 1.62947 0
M  V30 4258 H 396.266 -4.41365 2.00811 0
M  V30 4259 N 397.609 -0.515225 -1.4894 0
M  V30 4260 C 399.025 -0.172099 -1.58669 0
M  V30 4261 C 399.225 1.32405 -1.51892 0
M  V30 4262 O 398.281 2.10116 -1.40027 0
M  V30 4263 C 399.594 -0.761533 -2.90897 0
M  V30 4264 C 401.142 -0.728926 -3.04394 0
M  V30 4265 C 401.617 -1.29667 -4.39261 0
M  V30 4266 N 403.108 -1.25799 -4.4579 0
M  V30 4267 C 403.843 -1.66733 -5.48623 0
M  V30 4268 N 403.339 -2.15327 -6.58488 0
M  V30 4269 N 405.132 -1.58061 -5.39419 0
M  V30 4270 H 397.283 -1.48778 -1.51588 0
M  V30 4271 H 399.546 -0.617968 -0.718901 0
M  V30 4272 H 399.252 -1.81136 -3.01468 0
M  V30 4273 H 399.126 -0.230106 -3.76497 0
M  V30 4274 H 401.513 0.312098 -2.93445 0
M  V30 4275 H 401.594 -1.29766 -2.20442 0
M  V30 4276 H 401.238 -2.33655 -4.50963 0
M  V30 4277 H 401.168 -0.703752 -5.21876 0
M  V30 4278 H 403.659 -0.902102 -3.66975 0
M  V30 4279 H 403.972 -2.44594 -7.33071 0
M  V30 4280 H 402.317 -2.19311 -6.59491 0
M  V30 4281 H 405.508 -1.19906 -4.52482 0
M  V30 4282 H 405.681 -1.90284 -6.19432 0
M  V30 4283 N 399.087 1.5561 -0.249682 0
M  V30 4284 C 400.335 1.98618 0.373548 0
M  V30 4285 C 400.656 1.13919 1.58264 0
M  V30 4286 O 399.926 0.222637 1.94631 0
M  V30 4287 H 398.506 0.733571 0.141006 0
M  V30 4288 H 401.168 1.91748 -0.349117 0
M  V30 4289 H 400.264 3.04584 0.680796 0
M  V30 4290 N 400.565 -0.0233959 1.57583 0
M  V30 4291 C 401.512 -1.02224 2.06927 0
M  V30 4292 C 402.482 -1.35575 0.959617 0
M  V30 4293 O 403.667 -1.45815 1.23055 0
M  V30 4294 C 400.807 -2.31636 2.5581 0
M  V30 4295 C 399.92 -2.04394 3.80588 0
M  V30 4296 C 399.055 -3.27717 4.18061 0
M  V30 4297 C 398.094 -2.96056 5.3574 0
M  V30 4298 N 397.231 -4.11847 5.68618 0
M  V30 4299 H 402.071 -0.594504 2.9201 0
M  V30 4300 H 399.608 -0.281921 1.44373 0
M  V30 4301 H 401.566 -3.07258 2.82221 0
M  V30 4302 H 400.196 -2.72122 1.73636 0
M  V30 4303 H 399.248 -1.19244 3.61227 0
M  V30 4304 H 400.56 -1.77042 4.66323 0
M  V30 4305 H 399.714 -4.11702 4.4563 0
M  V30 4306 H 398.453 -3.58188 3.30988 0
M  V30 4307 H 397.458 -2.10474 5.07918 0
M  V30 4308 H 398.683 -2.66857 6.24471 0
M  V30 4309 H 396.629 -4.42258 4.84504 0
M  V30 4310 H 396.546 -3.87938 6.48876 0
M  V30 4311 H 397.814 -4.96689 6.00766 0
M  V30 4312 N 402.043 -1.548 -0.295768 0
M  V30 4313 C 403.273 -1.78069 -1.04762 0
M  V30 4314 C 403.681 -0.542847 -1.81245 0
M  V30 4315 O 403.024 0.497051 -1.76848 0
M  V30 4316 C 403.086 -2.93881 -2.07061 0
M  V30 4317 C 402.75 -4.31777 -1.49725 0
M  V30 4318 C 403.747 -5.11613 -0.924581 0
M  V30 4319 C 401.432 -4.78389 -1.5313 0
M  V30 4320 C 403.426 -6.36184 -0.393594 0
M  V30 4321 C 401.113 -6.02921 -0.996447 0
M  V30 4322 C 402.111 -6.81654 -0.428569 0
M  V30 4323 O 401.799 -8.0384 0.0981593 0
M  V30 4324 H 401.531 -0.597475 -0.316226 0
M  V30 4325 H 404.085 -2.02584 -0.338973 0
M  V30 4326 H 402.315 -2.65003 -2.81621 0
M  V30 4327 H 404.004 -3.04679 -2.6819 0
M  V30 4328 H 404.77 -4.76743 -0.891136 0
M  V30 4329 H 400.649 -4.17132 -1.9627 0
M  V30 4330 H 404.193 -6.97582 0.0503014 0
M  V30 4331 H 400.09 -6.37277 -1.02706 0
M  V30 4332 H 400.858 -8.18499 -0.0146455 0
M  V30 4333 N 403.521 0.559213 -1.47345 0
M  V30 4334 C 404.937 0.884943 -1.32819 0
M  V30 4335 C 405.137 1.98988 -0.317173 0
M  V30 4336 O 404.193 2.51031 0.272011 0
M  V30 4337 C 405.506 1.28007 -2.72093 0
M  V30 4338 C 407.054 1.39161 -2.80363 0
M  V30 4339 C 407.529 1.82031 -4.20272 0
M  V30 4340 N 409.02 1.89185 -4.22804 0
M  V30 4341 C 409.755 2.2368 -5.27973 0
M  V30 4342 N 409.251 2.56802 -6.43447 0
M  V30 4343 N 411.044 2.24436 -5.15349 0
M  V30 4344 H 403.195 -0.170304 -2.11716 0
M  V30 4345 H 405.458 -0.0135247 -0.947904 0
M  V30 4346 H 405.164 0.542027 -3.47498 0
M  V30 4347 H 405.038 2.23665 -3.03733 0
M  V30 4348 H 407.425 2.12048 -2.05231 0
M  V30 4349 H 407.506 0.41696 -2.52379 0
M  V30 4350 H 407.15 1.09715 -4.95908 0
M  V30 4351 H 407.08 2.80495 -4.45679 0
M  V30 4352 H 409.571 1.65982 -3.39497 0
M  V30 4353 H 409.884 2.82144 -7.19454 0
M  V30 4354 H 408.229 2.54387 -6.46771 0
M  V30 4355 H 411.42 1.97998 -4.24163 0
M  V30 4356 H 411.593 2.50989 -5.97418 0
M  V30 4357 N 404.999 1.35443 0.805782 0
M  V30 4358 C 406.245 1.28952 1.56522 0
M  V30 4359 C 406.578 -0.135597 1.93726 0
M  V30 4360 O 405.853 -1.08516 1.61414 0
M  V30 4361 C 406.136 2.19678 2.85331 0
M  V30 4362 C 405.989 3.7081 2.54598 0
M  V30 4363 C 407.308 2.09495 3.8704 0
M  V30 4364 H 404.427 0.469764 0.567883 0
M  V30 4365 H 407.069 1.65851 0.927001 0
M  V30 4366 H 405.219 1.8834 3.39795 0
M  V30 4367 H 406.891 4.12593 2.06312 0
M  V30 4368 H 405.134 3.91051 1.8778 0
M  V30 4369 H 405.805 4.29679 3.46525 0
M  V30 4370 H 408.281 2.37045 3.41978 0
M  V30 4371 H 407.157 2.75173 4.74943 0
M  V30 4372 H 407.418 1.07714 4.28777 0
M  V30 4373 N 406.477 -1.02803 1.19454 0
M  V30 4374 C 407.888 -1.57667 0.999899 0
M  V30 4375 C 408.239 -1.91041 -0.446956 0
M  V30 4376 O 407.364 -1.70978 -1.32648 0
M  V30 4377 C 407.959 -2.86477 1.80877 0
M  V30 4378 C 406.518 -3.37911 1.65811 0
M  V30 4379 C 405.665 -2.11343 1.79526 0
M  V30 4380 H 408.616 -0.853214 1.33813 0
M  V30 4381 H 408.637 -3.57408 1.30536 0
M  V30 4382 H 408.149 -2.62155 2.86175 0
M  V30 4383 H 406.25 -3.67218 0.63102 0
M  V30 4384 H 406.363 -4.10885 2.46395 0
M  V30 4385 H 404.727 -2.23254 1.22596 0
M  V30 4386 H 405.51 -1.89461 2.86285 0
M  V30 4387 N 407.956 -0.998596 -1.21925 0
M  V30 4388 C 409.203 -0.677663 -1.90824 0
M  V30 4389 C 409.531 0.790905 -1.77693 0
M  V30 4390 O 408.786 1.58817 -1.14349 0
M  V30 4391 C 409.085 -1.03648 -3.42041 0
M  V30 4392 C 408.751 -2.49825 -3.75364 0
M  V30 4393 C 407.413 -2.8977 -3.8417 0
M  V30 4394 C 409.765 -3.44545 -3.91073 0
M  V30 4395 C 407.093 -4.23412 -4.06127 0
M  V30 4396 C 409.445 -4.77853 -4.14535 0
M  V30 4397 C 408.109 -5.17531 -4.21566 0
M  V30 4398 H 407.379 -0.247975 -0.698276 0
M  V30 4399 H 410.026 -1.25584 -1.44571 0
M  V30 4400 H 408.331 -0.376457 -3.89987 0
M  V30 4401 H 410.028 -0.766113 -3.93614 0
M  V30 4402 H 406.618 -2.17866 -3.69097 0
M  V30 4403 H 410.802 -3.14853 -3.83642 0
M  V30 4404 H 406.058 -4.53734 -4.09799 0
M  V30 4405 H 410.232 -5.51189 -4.25633 0
M  V30 4406 H 407.859 -6.21102 -4.38333 0
M  V30 4407 N 409.434 1.37368 -0.772513 0
M  V30 4408 C 410.664 2.03647 -0.348082 0
M  V30 4409 C 411.072 1.58392 1.03482 0
M  V30 4410 O 410.415 0.760921 1.672 0
M  V30 4411 C 410.477 3.58131 -0.313404 0
M  V30 4412 C 410.141 4.2652 -1.64102 0
M  V30 4413 C 411.138 4.50587 -2.5936 0
M  V30 4414 C 408.823 4.64335 -1.91567 0
M  V30 4415 C 410.817 5.11526 -3.80289 0
M  V30 4416 C 408.504 5.24996 -3.12766 0
M  V30 4417 C 409.502 5.48529 -4.06946 0
M  V30 4418 O 409.19 6.07921 -5.26011 0
M  V30 4419 H 408.922 0.660538 -0.143753 0
M  V30 4420 H 411.476 1.76669 -1.04772 0
M  V30 4421 H 409.706 3.84159 0.442617 0
M  V30 4422 H 411.395 4.05813 0.0840613 0
M  V30 4423 H 412.161 4.21784 -2.39423 0
M  V30 4424 H 408.04 4.45353 -1.19088 0
M  V30 4425 H 411.584 5.29811 -4.53813 0
M  V30 4426 H 407.481 5.53223 -3.32588 0
M  V30 4427 H 408.249 6.26398 -5.26847 0
M  V30 4428 N 410.912 0.523116 1.48665 0
M  V30 4429 C 411.845 -0.290518 2.26343 0
M  V30 4430 C 412.823 -0.950913 1.31895 0
M  V30 4431 O 414.007 -0.976662 1.61225 0
M  V30 4432 C 411.134 -1.41088 3.07915 0
M  V30 4433 C 410.18 -0.862597 4.17686 0
M  V30 4434 S 411.013 0.264135 5.34848 0
M  V30 4435 C 412.169 -0.858864 6.19979 0
M  V30 4436 H 412.402 0.368726 2.95005 0
M  V30 4437 H 409.935 0.30878 1.51281 0
M  V30 4438 H 411.893 -2.0527 3.55492 0
M  V30 4439 H 410.554 -2.04182 2.38681 0
M  V30 4440 H 409.747 -1.70287 4.74361 0
M  V30 4441 H 409.349 -0.297595 3.72814 0
M  V30 4442 H 411.641 -1.7591 6.54264 0
M  V30 4443 H 412.584 -0.330244 7.07329 0
M  V30 4444 H 412.992 -1.13617 5.52948 0
M  V30 4445 N 412.39 -1.55475 0.257931 0
M  V30 4446 C 413.615 -2.04064 -0.370488 0
M  V30 4447 C 414.04 -1.13565 -1.49948 0
M  V30 4448 O 413.398 -0.130781 -1.80828 0
M  V30 4449 C 413.446 -3.50554 -0.845237 0
M  V30 4450 O 412.55 -3.63173 -1.95394 0
M  V30 4451 H 411.891 -0.659257 -0.0792243 0
M  V30 4452 H 414.421 -2.00903 0.387212 0
M  V30 4453 H 414.431 -3.91588 -1.14555 0
M  V30 4454 H 413.106 -4.15896 -0.0191259 0
M  V30 4455 H 411.683 -3.34039 -1.65748 0
M  V30 4456 N 413.868 0.0150385 -1.57593 0
M  V30 4457 C 415.096 0.714395 -1.94175 0
M  V30 4458 C 415.511 1.68135 -0.858841 0
M  V30 4459 O 414.868 1.81766 0.163567 0
M  V30 4460 C 414.919 1.45933 -3.30735 0
M  V30 4461 O 414.64 0.531167 -4.34868 0
M  V30 4462 C 416.141 2.25456 -3.81686 0
M  V30 4463 H 413.361 0.199923 -0.640525 0
M  V30 4464 H 415.905 -0.0316096 -2.04476 0
M  V30 4465 H 414.06 2.15709 -3.21789 0
M  V30 4466 H 414.474 1.05509 -5.13778 0
M  V30 4467 H 415.948 2.731 -4.79709 0
M  V30 4468 H 416.425 3.07485 -3.13607 0
M  V30 4469 H 417.031 1.60727 -3.9376 0
M  V30 4470 N 415.346 1.54954 0.287554 0
M  V30 4471 C 416.623 1.65569 1.04146 0
M  V30 4472 C 417.003 0.512672 2.0478 0
M  V30 4473 O 416.351 -0.489038 2.23205 0
M  V30 4474 C 416.561 3.04163 1.71131 0
M  V30 4475 C 417.909 3.61429 2.22832 0
M  V30 4476 O 418.933 3.06702 1.81141 0
M  V30 4477 O 417.792 4.57281 2.9926 0
M  V30 4478 H 414.886 0.671881 0.482188 0
M  V30 4479 H 417.432 1.67297 0.28457 0
M  V30 4480 H 416.204 3.78796 0.981303 0
M  V30 4481 H 415.827 3.06271 2.53543 0
M  V30 4482 N 416.824 -0.551391 1.4764 0
M  V30 4483 C 418.064 -1.31901 1.56145 0
M  V30 4484 C 418.428 -1.90724 0.221013 0
M  V30 4485 O 419.629 -2.6819 0.180945 0
M  V30 4486 C 417.9 -2.39517 2.65267 0
M  V30 4487 S 419.459 -3.26289 2.93395 0
M  V30 4488 H 416.277 -0.448965 0.551318 0
M  V30 4489 H 418.879 -0.630599 1.85051 0
M  V30 4490 H 417.583 -1.94747 3.6125 0
M  V30 4491 H 417.114 -3.13092 2.38195 0
M  V30 4492 H 419.129 -4.39122 2.31055 0
M  V30 4493 N 418.302 -1.35869 -0.798587 0
M  V30 4494 C 419.212 -1.31578 -1.94228 0
M  V30 4495 C 420.228 -0.21939 -1.72611 0
M  V30 4496 O 421.404 -0.450167 -1.96305 0
M  V30 4497 C 418.469 -1.09528 -3.28944 0
M  V30 4498 C 417.53 -2.28556 -3.63402 0
M  V30 4499 C 416.763 -2.07549 -4.9169 0
M  V30 4500 O 416.986 -1.046 -5.60727 0
M  V30 4501 O 415.92 -2.95106 -5.24591 0
M  V30 4502 H 419.746 -2.27847 -2.00796 0
M  V30 4503 H 417.331 -1.16322 -0.937526 0
M  V30 4504 H 419.213 -0.991127 -4.09579 0
M  V30 4505 H 417.888 -0.16315 -3.23289 0
M  V30 4506 H 416.795 -2.44538 -2.83112 0
M  V30 4507 H 418.128 -3.20244 -3.73771 0
M  V30 4508 N 419.78 1.02168 -1.19998 0
M  V30 4509 C 421.005 1.79833 -1.03319 0
M  V30 4510 C 421.43 1.83504 0.413281 0
M  V30 4511 O 420.788 1.26635 1.29743 0
M  V30 4512 C 420.836 3.22396 -1.61533 0
M  V30 4513 O 419.94 4.03555 -0.849519 0
M  V30 4514 H 419.281 0.554872 -0.364709 0
M  V30 4515 H 421.811 1.28542 -1.59179 0
M  V30 4516 H 421.821 3.73124 -1.65054 0
M  V30 4517 H 420.496 3.19039 -2.66809 0
M  V30 4518 H 419.073 3.62169 -0.888129 0
M  V30 4519 N 421.258 1.00505 1.21394 0
M  V30 4520 C 422.507 0.683159 1.89778 0
M  V30 4521 C 422.82 -0.789471 1.7896 0
M  V30 4522 O 424.026 -1.22344 2.42372 0
M  V30 4523 C 422.482 1.17146 3.40301 0
M  V30 4524 C 422.09 2.67017 3.5973 0
M  V30 4525 C 423.834 0.924461 4.14311 0
M  V30 4526 C 421.741 3.09387 5.04017 0
M  V30 4527 H 420.671 0.25183 0.710702 0
M  V30 4528 H 423.322 1.21622 1.37406 0
M  V30 4529 H 421.704 0.566451 3.91928 0
M  V30 4530 H 422.878 3.32968 3.18542 0
M  V30 4531 H 421.193 2.89732 2.99073 0
M  V30 4532 H 423.79 1.21658 5.20676 0
M  V30 4533 H 424.133 -0.139286 4.16067 0
M  V30 4534 H 424.666 1.49226 3.6875 0
M  V30 4535 H 421.405 4.14989 5.07409 0
M  V30 4536 H 420.925 2.48149 5.46061 0
M  V30 4537 H 422.604 3.01371 5.72525 0
M  V30 4538 N 422.737 -1.36956 0.779787 0
M  V30 4539 C 423.667 -2.32761 0.185651 0
M  V30 4540 C 424.648 -1.56177 -0.673989 0
M  V30 4541 O 425.833 -1.84378 -0.609797 0
M  V30 4542 C 422.963 -3.40418 -0.687964 0
M  V30 4543 C 421.917 -4.27941 0.0710102 0
M  V30 4544 C 421.243 -5.26681 -0.922573 0
M  V30 4545 C 422.543 -5.07006 1.25467 0
M  V30 4546 H 424.237 -2.82698 0.986008 0
M  V30 4547 H 421.783 -1.3592 0.475592 0
M  V30 4548 H 423.736 -4.06423 -1.11348 0
M  V30 4549 H 422.46 -2.89025 -1.52093 0
M  V30 4550 H 421.119 -3.63478 0.47739 0
M  V30 4551 H 420.767 -4.71565 -1.7503 0
M  V30 4552 H 420.467 -5.86103 -0.419237 0
M  V30 4553 H 421.991 -5.9556 -1.34686 0
M  V30 4554 H 423.405 -5.66105 0.905401 0
M  V30 4555 H 421.802 -5.75793 1.69063 0
M  V30 4556 H 422.872 -4.3921 2.05481 0
M  V30 4557 N 424.215 -0.530993 -1.48385 0
M  V30 4558 C 425.631 -0.188919 -1.58478 0
M  V30 4559 C 425.831 1.30786 -1.53288 0
M  V30 4560 O 424.887 2.08619 -1.42248 0
M  V30 4561 C 426.2 -0.792343 -2.90073 0
M  V30 4562 C 427.748 -0.76117 -3.03604 0
M  V30 4563 C 428.223 -1.34319 -4.37861 0
M  V30 4564 N 429.714 -1.3052 -4.44431 0
M  V30 4565 C 430.449 -1.72543 -5.46824 0
M  V30 4566 N 429.945 -2.22299 -6.56167 0
M  V30 4567 N 431.738 -1.63773 -5.37712 0
M  V30 4568 H 423.889 -1.50377 -1.50002 0
M  V30 4569 H 426.152 -0.625559 -0.712306 0
M  V30 4570 H 425.858 -1.84323 -2.99529 0
M  V30 4571 H 425.732 -0.270026 -3.76232 0
M  V30 4572 H 428.119 0.280957 -2.93759 0
M  V30 4573 H 428.2 -1.32097 -2.19053 0
M  V30 4574 H 427.844 -2.38425 -4.4846 0
M  V30 4575 H 427.774 -0.759064 -5.21101 0
M  V30 4576 H 430.265 -0.940973 -3.65997 0
M  V30 4577 H 430.578 -2.52356 -7.30436 0
M  V30 4578 H 428.923 -2.26293 -6.57127 0
M  V30 4579 H 432.114 -1.24698 -4.51185 0
M  V30 4580 H 432.287 -1.96844 -6.17379 0
M  V30 4581 N 425.693 1.55336 -0.266172 0
M  V30 4582 C 427.109 1.59356 0.0882065 0
M  V30 4583 C 427.309 1.2834 1.55342 0
M  V30 4584 O 426.365 1.03996 2.30089 0
M  V30 4585 C 427.678 2.99409 -0.278364 0
M  V30 4586 C 429.226 3.12196 -0.224243 0
M  V30 4587 C 429.701 4.545 -0.565123 0
M  V30 4588 N 431.192 4.60313 -0.51634 0
M  V30 4589 C 431.927 5.68434 -0.753013 0
M  V30 4590 N 431.423 6.84738 -1.05383 0
M  V30 4591 N 433.216 5.57942 -0.682414 0
M  V30 4592 H 425.367 1.73764 -1.22147 0
M  V30 4593 H 427.63 0.809822 -0.492841 0
M  V30 4594 H 427.336 3.2691 -1.29703 0
M  V30 4595 H 427.21 3.75228 0.385186 0
M  V30 4596 H 429.597 2.84464 0.78512 0
M  V30 4597 H 429.678 2.38609 -0.921922 0
M  V30 4598 H 429.322 4.82956 -1.57213 0
M  V30 4599 H 429.252 5.26374 0.154248 0
M  V30 4600 H 431.743 3.7676 -0.29335 0
M  V30 4601 H 432.056 7.63088 -1.22133 0
M  V30 4602 H 430.401 6.86375 -1.09151 0
M  V30 4603 H 433.592 4.65958 -0.44731 0
M  V30 4604 H 433.765 6.4213 -0.870248 0
M  V30 4605 N 427.171 -0.0066808 1.57599 0
M  V30 4606 C 428.418 -0.69292 1.90276 0
M  V30 4607 C 428.746 -1.74148 0.866192 0
M  V30 4608 O 428.001 -1.95268 -0.129933 0
M  V30 4609 C 428.3 -1.37939 3.29708 0
M  V30 4610 C 427.966 -0.464679 4.48499 0
M  V30 4611 C 426.628 -0.212809 4.80729 0
M  V30 4612 C 428.98 0.16551 5.20937 0
M  V30 4613 C 426.308 0.677653 5.82773 0
M  V30 4614 C 428.66 1.04381 6.23929 0
M  V30 4615 C 427.324 1.30492 6.54621 0
M  V30 4616 H 426.594 -0.253558 0.696268 0
M  V30 4617 H 429.241 0.0474123 1.91441 0
M  V30 4618 H 427.546 -2.1936 3.24636 0
M  V30 4619 H 429.243 -1.9163 3.52249 0
M  V30 4620 H 425.833 -0.671153 4.23313 0
M  V30 4621 H 430.017 -0.0160756 4.96297 0
M  V30 4622 H 425.273 0.88803 6.04917 0
M  V30 4623 H 429.447 1.53851 6.79193 0
M  V30 4624 H 427.074 1.99662 7.33512 0
M  V30 4625 N 428.649 -1.55105 -0.279332 0
M  V30 4626 C 429.579 -1.90557 -1.34945 0
M  V30 4627 C 430.56 -0.766738 -1.51839 0
M  V30 4628 O 431.745 -1.02434 -1.64988 0
M  V30 4629 C 428.875 -2.17193 -2.71006 0
M  V30 4630 C 427.829 -3.33021 -2.68851 0
M  V30 4631 C 427.155 -3.45123 -4.08405 0
M  V30 4632 C 428.455 -4.69578 -2.28678 0
M  V30 4633 H 430.149 -2.80188 -1.05522 0
M  V30 4634 H 427.695 -1.34811 -0.506173 0
M  V30 4635 H 429.648 -2.40581 -3.45975 0
M  V30 4636 H 428.372 -1.24355 -3.01999 0
M  V30 4637 H 427.031 -3.0959 -1.9634 0
M  V30 4638 H 426.679 -2.49762 -4.3661 0
M  V30 4639 H 426.379 -4.22995 -4.07859 0
M  V30 4640 H 427.903 -3.70796 -4.85121 0
M  V30 4641 H 429.317 -4.92553 -2.93368 0
M  V30 4642 H 427.714 -5.5032 -2.39306 0
M  V30 4643 H 428.784 -4.68828 -1.23807 0
M  V30 4644 N 430.127 0.543554 -1.4793 0
M  V30 4645 C 431.373 1.30201 -1.55485 0
M  V30 4646 C 431.706 1.92925 -0.222201 0
M  V30 4647 O 430.981 1.78586 0.77053 0
M  V30 4648 C 431.264 2.40174 -2.68307 0
M  V30 4649 C 431.117 1.8223 -4.11233 0
M  V30 4650 C 432.436 3.42024 -2.76961 0
M  V30 4651 H 429.555 0.472036 -0.565996 0
M  V30 4652 H 432.197 0.606914 -1.80046 0
M  V30 4653 H 430.347 2.99463 -2.47495 0
M  V30 4654 H 432.019 1.27096 -4.43446 0
M  V30 4655 H 430.262 1.12832 -4.18869 0
M  V30 4656 H 430.933 2.61793 -4.85972 0
M  V30 4657 H 433.409 2.92672 -2.95774 0
M  V30 4658 H 432.285 4.16383 -3.57654 0
M  V30 4659 H 432.546 4.0173 -1.84568 0
M  V30 4660 N 431.605 1.3629 0.791371 0
M  V30 4661 C 432.535 1.33137 1.91825 0
M  V30 4662 C 433.516 0.203168 1.68882 0
M  V30 4663 O 434.701 0.400509 1.90025 0
M  V30 4664 C 431.831 1.11793 3.28816 0
M  V30 4665 C 430.785 2.21417 3.66277 0
M  V30 4666 C 430.111 1.85218 5.01596 0
M  V30 4667 C 431.411 3.63489 3.75064 0
M  V30 4668 H 433.105 2.2743 1.9472 0
M  V30 4669 H 430.651 1.09479 0.935437 0
M  V30 4670 H 432.604 1.08222 4.07266 0
M  V30 4671 H 431.328 0.139501 3.26302 0
M  V30 4672 H 429.987 2.2411 2.90121 0
M  V30 4673 H 429.635 0.859544 4.95602 0
M  V30 4674 H 429.335 2.58611 5.27631 0
M  V30 4675 H 430.859 1.832 5.82469 0
M  V30 4676 H 432.273 3.63034 4.43711 0
M  V30 4677 H 430.67 4.35771 4.12582 0
M  V30 4678 H 431.74 3.98536 2.76219 0
M  V30 4679 N 433.083 -1.0153 1.20538 0
M  V30 4680 C 434.031 -2.12215 0.952235 0
M  V30 4681 C 435.025 -1.69123 -0.0968735 0
M  V30 4682 O 436.231 -1.7992 0.0536006 0
M  V30 4683 H 432.606 -0.693576 0.290613 0
M  V30 4684 H 434.577 -2.3075 1.89201 0
M  V30 4685 C 433.326 -3.43755 0.522287 0
M  V30 4686 H 432.649 -3.7734 1.32115 0
M  V30 4687 H 434.089 -4.22254 0.384389 0
M  V30 4688 C 432.548 -3.28088 -0.765489 0
M  V30 4689 O 433.078 -3.57921 -1.8236 0
M  V30 4690 N 431.284 -2.81333 -0.728011 0
M  V30 4691 H 430.831 -2.57255 0.133332 0
M  V30 4692 H 430.789 -2.71232 -1.58999 0
M  V30 4693 N 434.561 -1.01147 -1.20859 0
M  V30 4694 C 435.972 -0.730205 -1.71828 0
M  V30 4695 C 436.323 0.751662 -1.8123 0
M  V30 4696 O 435.448 1.58686 -1.47132 0
M  V30 4697 C 436.043 -1.31885 -3.12077 0
M  V30 4698 C 434.602 -1.08656 -3.60376 0
M  V30 4699 C 433.749 -1.42769 -2.37723 0
M  V30 4700 H 436.7 -1.18158 -1.05945 0
M  V30 4701 H 436.721 -0.706793 -3.73878 0
M  V30 4702 H 436.233 -2.39737 -3.05201 0
M  V30 4703 H 434.334 -0.0254814 -3.72591 0
M  V30 4704 H 434.447 -1.76301 -4.45483 0
M  V30 4705 H 432.811 -0.846603 -2.40218 0
M  V30 4706 H 433.594 -2.51666 -2.33493 0
M  V30 4707 N 436.039 1.36541 -0.78704 0
M  V30 4708 C 437.002 2.28413 -0.189778 0
M  V30 4709 C 438.002 1.48719 0.611499 0
M  V30 4710 O 439.192 1.68737 0.432842 0
M  V30 4711 C 436.324 3.32824 0.737638 0
M  V30 4712 H 437.517 2.82743 -0.999831 0
M  V30 4713 H 435.07 1.46065 -0.556298 0
M  V30 4714 H 435.805 2.83646 1.57212 0
M  V30 4715 H 435.59 3.91752 0.165044 0
M  V30 4716 H 437.08 4.0144 1.15047 0
M  V30 4717 N 437.518 0.538854 1.48102 0
M  V30 4718 C 438.465 -0.219042 2.29758 0
M  V30 4719 C 439.435 -0.925562 1.37922 0
M  V30 4720 O 440.62 -0.924855 1.66886 0
M  V30 4721 C 437.76 -1.25452 3.2149 0
M  V30 4722 C 436.873 -0.555943 4.28408 0
M  V30 4723 C 436.008 -1.57512 5.0731 0
M  V30 4724 C 435.047 -0.860498 6.06021 0
M  V30 4725 N 434.184 -1.82564 6.77949 0
M  V30 4726 H 439.024 0.483449 2.94052 0
M  V30 4727 H 436.561 0.250247 1.44956 0
M  V30 4728 H 438.519 -1.86727 3.7308 0
M  V30 4729 H 437.149 -1.92528 2.591 0
M  V30 4730 H 436.201 0.170938 3.80016 0
M  V30 4731 H 437.513 0.00474616 4.988 0
M  V30 4732 H 436.667 -2.26191 5.62959 0
M  V30 4733 H 435.406 -2.16972 4.36778 0
M  V30 4734 H 434.411 -0.159686 5.49568 0
M  V30 4735 H 435.636 -0.271897 6.78555 0
M  V30 4736 H 433.582 -2.40915 6.10161 0
M  V30 4737 H 433.499 -1.31662 7.44447 0
M  V30 4738 H 434.767 -2.50414 7.38182 0
M  V30 4739 N 438.996 -1.55193 0.274407 0
M  V30 4740 C 440.412 -1.59401 -0.0797543 0
M  V30 4741 C 440.612 -1.29162 -1.54659 0
M  V30 4742 O 439.668 -1.05215 -2.29534 0
M  V30 4743 C 440.981 -2.99257 0.294238 0
M  V30 4744 C 442.529 -3.12072 0.240796 0
M  V30 4745 C 443.004 -4.54194 0.589218 0
M  V30 4746 N 444.495 -4.60033 0.540744 0
M  V30 4747 C 445.23 -5.68027 0.783147 0
M  V30 4748 N 444.726 -6.8417 1.09013 0
M  V30 4749 N 446.519 -5.57572 0.711993 0
M  V30 4750 H 438.67 -1.73113 1.23067 0
M  V30 4751 H 440.933 -0.807197 0.497129 0
M  V30 4752 H 440.639 -3.26217 1.31435 0
M  V30 4753 H 440.513 -3.75427 -0.365281 0
M  V30 4754 H 442.9 -2.84877 -0.770024 0
M  V30 4755 H 442.981 -2.38117 0.934563 0
M  V30 4756 H 442.625 -4.82115 1.59772 0
M  V30 4757 H 442.555 -5.26448 -0.126331 0
M  V30 4758 H 445.046 -3.76599 0.313327 0
M  V30 4759 H 445.359 -7.6243 1.26178 0
M  V30 4760 H 443.704 -6.85787 1.12789 0
M  V30 4761 H 446.895 -4.65714 0.472014 0
M  V30 4762 H 447.068 -6.41659 0.90429 0
M  V30 4763 N 440.474 -0.00167713 -1.576 0
M  V30 4764 C 441.714 0.687302 -1.92498 0
M  V30 4765 C 442.078 1.70844 -0.876144 0
M  V30 4766 O 443.279 2.44792 -1.11043 0
M  V30 4767 C 441.55 1.31217 -3.32441 0
M  V30 4768 S 443.109 2.02604 -3.89226 0
M  V30 4769 H 439.927 0.226985 -0.673794 0
M  V30 4770 H 442.529 -0.0587666 -1.95412 0
M  V30 4771 H 441.233 0.556164 -4.06614 0
M  V30 4772 H 440.764 2.09613 -3.32905 0
M  V30 4773 H 442.779 3.30137 -3.70438 0
M  V30 4774 N 441.952 1.55251 0.271103 0
M  V30 4775 C 443.18 1.79974 1.02064 0
M  V30 4776 C 443.595 0.574003 1.79863 0
M  V30 4777 O 442.952 -0.456962 1.76686 0
M  V30 4778 C 443.003 3.02603 1.97772 0
M  V30 4779 O 442.724 4.20443 1.23124 0
M  V30 4780 C 444.225 3.39944 2.84522 0
M  V30 4781 H 441.445 0.599489 0.301419 0
M  V30 4782 H 443.989 2.02268 0.301313 0
M  V30 4783 H 442.144 2.8243 2.65165 0
M  V30 4784 H 442.558 4.89783 1.87651 0
M  V30 4785 H 444.032 4.28915 3.47471 0
M  V30 4786 H 444.509 2.59432 3.54389 0
M  V30 4787 H 445.115 3.62383 2.22618 0
M  V30 4788 N 443.43 -0.535701 1.48216 0
M  V30 4789 C 444.36 -1.65014 1.65204 0
M  V30 4790 C 445.341 -1.62554 0.501011 0
M  V30 4791 O 446.526 -1.7984 0.732886 0
M  V30 4792 C 443.656 -3.03616 1.68626 0
M  V30 4793 C 442.61 -3.20932 2.83172 0
M  V30 4794 C 441.936 -4.60537 2.71679 0
M  V30 4795 C 443.236 -3.04249 4.24535 0
M  V30 4796 H 444.93 -1.51053 2.58502 0
M  V30 4797 H 442.476 -0.725262 1.24402 0
M  V30 4798 H 444.429 -3.81446 1.79099 0
M  V30 4799 H 443.153 -3.18587 0.719026 0
M  V30 4800 H 441.812 -2.45517 2.72244 0
M  V30 4801 H 441.46 -4.72336 1.72937 0
M  V30 4802 H 441.16 -4.73069 3.48538 0
M  V30 4803 H 442.684 -5.40475 2.84112 0
M  V30 4804 H 444.098 -3.71877 4.36326 0
M  V30 4805 H 442.495 -3.28278 5.02348 0
M  V30 4806 H 443.565 -2.00739 4.41397 0
M  V30 4807 N 444.908 -1.36708 -0.784132 0
M  V30 4808 C 445.818 -1.3363 -1.92822 0
M  V30 4809 C 446.834 -0.237686 -1.72369 0
M  V30 4810 O 448.01 -0.470962 -1.95816 0
M  V30 4811 C 445.075 -1.13011 -3.27764 0
M  V30 4812 C 444.136 -2.32397 -3.60957 0
M  V30 4813 C 443.369 -2.12752 -4.89461 0
M  V30 4814 O 443.592 -1.10541 -5.59586 0
M  V30 4815 O 442.526 -3.00653 -5.21432 0
M  V30 4816 H 446.352 -2.29964 -1.98369 0
M  V30 4817 H 443.937 -1.1731 -0.925136 0
M  V30 4818 H 445.819 -1.03451 -4.08504 0
M  V30 4819 H 444.494 -0.19743 -3.23097 0
M  V30 4820 H 443.401 -2.47527 -2.80502 0
M  V30 4821 H 444.734 -3.2419 -3.70354 0
M  V30 4822 N 446.386 1.0089 -1.21074 0
M  V30 4823 C 447.318 2.09737 -0.924291 0
M  V30 4824 C 448.331 1.62546 0.0909809 0
M  V30 4825 O 449.52 1.77942 -0.141021 0
M  V30 4826 C 446.62 3.36922 -0.36559 0
M  V30 4827 C 445.793 4.13216 -1.43426 0
M  V30 4828 C 444.852 5.18696 -0.885496 0
M  V30 4829 O 443.878 5.47176 -1.56801 0
M  V30 4830 N 445.08 5.79718 0.301227 0
M  V30 4831 H 447.845 2.34895 -1.8613 0
M  V30 4832 H 445.406 1.17341 -1.11546 0
M  V30 4833 H 447.398 4.04697 0.0158407 0
M  V30 4834 H 445.968 3.08952 0.476149 0
M  V30 4835 H 445.188 3.40301 -1.9897 0
M  V30 4836 H 446.476 4.60967 -2.15376 0
M  V30 4837 H 445.874 5.58926 0.872849 0
M  V30 4838 H 444.431 6.48804 0.624211 0
M  V30 4839 N 447.864 1.01787 1.20321 0
M  V30 4840 C 449.113 0.703249 1.89043 0
M  V30 4841 C 449.426 -0.770445 1.79787 0
M  V30 4842 O 450.632 -1.19767 2.43656 0
M  V30 4843 C 449.088 1.20749 3.3904 0
M  V30 4844 C 448.696 2.70817 3.56878 0
M  V30 4845 C 450.44 0.968352 4.13308 0
M  V30 4846 C 448.347 3.14716 5.00708 0
M  V30 4847 H 447.277 0.259354 0.707991 0
M  V30 4848 H 449.928 1.23072 1.36108 0
M  V30 4849 H 448.31 0.607989 3.91305 0
M  V30 4850 H 449.484 3.36327 3.14993 0
M  V30 4851 H 447.799 2.92888 2.95983 0
M  V30 4852 H 450.396 1.27173 5.19356 0
M  V30 4853 H 450.739 -0.095149 4.16191 0
M  V30 4854 H 451.272 1.53129 3.67146 0
M  V30 4855 H 448.011 4.20347 5.02979 0
M  V30 4856 H 447.531 2.53927 5.43398 0
M  V30 4857 H 449.21 3.07426 5.69296 0
M  V30 4858 N 449.342 -1.36122 0.79427 0
M  V30 4859 C 450.275 -2.27759 0.141845 0
M  V30 4860 C 451.253 -1.47471 -0.684921 0
M  V30 4861 O 452.437 -1.76759 -0.654857 0
M  V30 4862 C 449.564 -3.29008 -0.804446 0
M  V30 4863 C 448.61 -4.26459 -0.0588617 0
M  V30 4864 S 449.443 -5.20253 1.26873 0
M  V30 4865 C 450.599 -6.25048 0.326562 0
M  V30 4866 H 450.832 -2.82746 0.918818 0
M  V30 4867 H 448.365 -1.42736 0.588722 0
M  V30 4868 H 450.323 -3.87842 -1.34495 0
M  V30 4869 H 448.984 -2.72924 -1.5547 0
M  V30 4870 H 448.177 -4.97973 -0.777087 0
M  V30 4871 H 447.779 -3.71731 0.411309 0
M  V30 4872 H 450.071 -6.75705 -0.492795 0
M  V30 4873 H 451.014 -7.00852 1.01053 0
M  V30 4874 H 451.422 -5.64454 -0.0722627 0
M  V30 4875 N 450.82 -0.546701 -1.47814 0
M  V30 4876 C 451.767 0.206854 -2.29871 0
M  V30 4877 C 452.737 0.918235 -1.38411 0
M  V30 4878 O 453.922 0.915991 -1.67375 0
M  V30 4879 C 451.062 1.23746 -3.22151 0
M  V30 4880 C 450.175 0.533216 -4.28697 0
M  V30 4881 C 449.31 1.5482 -5.08138 0
M  V30 4882 C 448.349 0.828347 -6.06469 0
M  V30 4883 N 447.486 1.78966 -6.78908 0
M  V30 4884 H 452.326 -0.499037 -2.93792 0
M  V30 4885 H 449.863 -0.25793 -1.44821 0
M  V30 4886 H 451.821 1.84746 -3.74065 0
M  V30 4887 H 450.451 1.91151 -2.60117 0
M  V30 4888 H 449.503 -0.191089 -3.7992 0
M  V30 4889 H 450.815 -0.0311987 -4.9879 0
M  V30 4890 H 449.969 2.23202 -5.6415 0
M  V30 4891 H 448.708 2.14652 -4.37922 0
M  V30 4892 H 447.713 0.130539 -5.49645 0
M  V30 4893 H 448.938 0.235907 -6.7869 0
M  V30 4894 H 446.884 2.37675 -6.1143 0
M  V30 4895 H 446.801 1.27712 -7.45135 0
M  V30 4896 H 448.069 2.46496 -7.395 0
M  V30 4897 N 452.299 1.55045 -0.282633 0
M  V30 4898 C 453.576 1.9179 0.384166 0
M  V30 4899 C 453.956 1.20778 1.73136 0
M  V30 4900 O 453.304 0.33719 2.25998 0
M  V30 4901 C 453.514 3.45149 0.517014 0
M  V30 4902 C 454.862 4.17064 0.796427 0
M  V30 4903 O 455.886 3.51084 0.601535 0
M  V30 4904 O 454.745 5.33837 1.16962 0
M  V30 4905 H 451.839 0.799483 0.211558 0
M  V30 4906 H 454.385 1.66474 -0.32934 0
M  V30 4907 H 453.157 3.88922 -0.430772 0
M  V30 4908 H 452.78 3.76443 1.2797 0
M  V30 4909 N 453.777 0.010035 1.57597 0
M  V30 4910 C 454.724 -0.978122 2.09049 0
M  V30 4911 C 455.694 -1.33509 0.988159 0
M  V30 4912 O 456.879 -1.43172 1.26121 0
M  V30 4913 C 454.019 -2.26158 2.60666 0
M  V30 4914 C 453.132 -1.96275 3.84838 0
M  V30 4915 C 452.267 -3.18776 4.24918 0
M  V30 4916 C 451.306 -2.84625 5.41899 0
M  V30 4917 N 450.443 -3.99693 5.77226 0
M  V30 4918 H 455.283 -0.532431 2.93205 0
M  V30 4919 H 452.82 -0.251234 1.44939 0
M  V30 4920 H 454.778 -3.01202 2.88675 0
M  V30 4921 H 453.408 -2.68378 1.79369 0
M  V30 4922 H 452.46 -1.11555 3.63675 0
M  V30 4923 H 453.772 -1.67111 4.69974 0
M  V30 4924 H 452.926 -4.02157 4.54262 0
M  V30 4925 H 451.665 -3.51087 3.38511 0
M  V30 4926 H 450.67 -1.99653 5.12268 0
M  V30 4927 H 451.895 -2.53551 6.29991 0
M  V30 4928 H 449.841 -4.31882 4.93776 0
M  V30 4929 H 449.758 -3.74087 6.56959 0
M  V30 4930 H 451.026 -4.83834 6.11167 0
M  V30 4931 N 455.255 -1.55392 -0.262866 0
M  V30 4932 C 456.501 -1.77657 -0.990424 0
M  V30 4933 C 456.856 -0.576333 -1.83565 0
M  V30 4934 O 456.149 0.430795 -1.86694 0
M  V30 4935 C 456.343 -3.02889 -1.89718 0
M  V30 4936 C 456.172 -4.34979 -1.14121 0
M  V30 4937 C 454.942 -4.98052 -0.852768 0
M  V30 4938 C 457.14 -5.11597 -0.526625 0
M  V30 4939 N 455.122 -6.13859 -0.0710649 0
M  V30 4940 C 456.493 -6.19883 0.12042 0
M  V30 4941 C 458.548 -4.95992 -0.435485 0
M  V30 4942 C 457.251 -7.14262 0.849833 0
M  V30 4943 C 459.277 -5.90735 0.280359 0
M  V30 4944 C 458.639 -6.98417 0.916103 0
M  V30 4945 H 454.738 -0.702242 -0.344064 0
M  V30 4946 H 457.322 -1.92887 -0.265088 0
M  V30 4947 H 455.493 -2.89017 -2.59468 0
M  V30 4948 H 457.225 -3.13516 -2.5591 0
M  V30 4949 H 453.98 -4.5916 -1.16058 0
M  V30 4950 H 454.404 -6.76302 0.307413 0
M  V30 4951 H 459.046 -4.12832 -0.912671 0
M  V30 4952 H 456.764 -7.96935 1.33867 0
M  V30 4953 H 460.35 -5.80738 0.351332 0
M  V30 4954 H 459.23 -7.70467 1.46119 0
M  V30 4955 N 456.733 0.527833 -1.48498 0
M  V30 4956 C 457.982 1.28003 -1.55878 0
M  V30 4957 C 458.295 1.9414 -0.238577 0
M  V30 4958 O 459.501 2.7083 -0.190643 0
M  V30 4959 C 457.957 2.32272 -2.74914 0
M  V30 4960 C 457.565 1.72196 -4.13585 0
M  V30 4961 C 459.309 3.08488 -2.91608 0
M  V30 4962 C 457.216 2.74417 -5.23879 0
M  V30 4963 H 456.146 0.481413 -0.580308 0
M  V30 4964 H 458.797 0.557195 -1.74836 0
M  V30 4965 H 457.179 3.07601 -2.49395 0
M  V30 4966 H 458.353 1.03041 -4.49132 0
M  V30 4967 H 456.668 1.08464 -4.02025 0
M  V30 4968 H 459.265 3.84879 -3.71177 0
M  V30 4969 H 459.608 3.64481 -2.01145 0
M  V30 4970 H 460.141 2.40274 -3.17038 0
M  V30 4971 H 456.88 2.23242 -6.16314 0
M  V30 4972 H 456.4 3.41893 -4.92818 0
M  V30 4973 H 458.079 3.37362 -5.52083 0
M  V30 4974 N 458.211 1.37122 0.776871 0
M  V30 4975 C 459.159 1.32549 1.91138 0
M  V30 4976 C 460.153 0.215119 1.68029 0
M  V30 4977 O 461.359 0.382852 1.75881 0
M  V30 4978 H 457.734 0.412952 0.62847 0
M  V30 4979 H 459.705 2.28332 1.92112 0
M  V30 4980 C 458.454 1.14422 3.28333 0
M  V30 4981 H 457.777 1.99115 3.46689 0
M  V30 4982 H 459.217 1.15272 4.0803 0
M  V30 4983 C 457.676 -0.150434 3.36564 0
M  V30 4984 O 458.206 -1.13584 3.85307 0
M  V30 4985 N 456.412 -0.19939 2.89915 0
M  V30 4986 H 455.959 0.603142 2.5044 0
M  V30 4987 H 455.917 -1.06526 2.95803 0
M  V30 4988 N 459.689 -1.00246 1.21608 0
M  V30 4989 C 460.938 -1.73476 1.02902 0
M  V30 4990 C 461.251 -1.90643 -0.437561 0
M  V30 4991 O 462.457 -2.61105 -0.74407 0
M  V30 4992 C 460.913 -3.12079 1.79261 0
M  V30 4993 C 460.521 -3.02877 3.30106 0
M  V30 4994 C 462.265 -3.89421 1.68972 0
M  V30 4995 C 460.172 -4.36575 3.98944 0
M  V30 4996 H 459.102 -0.650408 0.381425 0
M  V30 4997 H 461.753 -1.11985 1.45367 0
M  V30 4998 H 460.135 -3.74196 1.2959 0
M  V30 4999 H 461.309 -2.49983 3.87098 0
M  V30 5000 H 459.624 -2.39022 3.40965 0
M  V30 5001 H 462.221 -4.88362 2.17731 0
M  V30 5002 H 462.564 -4.1122 0.648397 0
M  V30 5003 H 463.097 -3.33963 2.16133 0
M  V30 5004 H 459.836 -4.19978 5.03288 0
M  V30 5005 H 459.356 -4.8942 3.4674 0
M  V30 5006 H 461.035 -5.05364 4.04 0
M  V30 5007 N 461.167 -1.02423 -1.1978 0
M  V30 5008 C 462.415 -0.716569 -1.8897 0
M  V30 5009 C 462.736 0.756769 -1.79716 0
M  V30 5010 O 462.006 1.5449 -1.20456 0
M  V30 5011 H 460.586 -0.262062 -0.699523 0
M  V30 5012 H 463.248 -1.29747 -1.45436 0
M  V30 5013 H 462.344 -1.00675 -2.95417 0
M  V30 5014 N 462.645 1.35699 -0.801477 0
M  V30 5015 C 463.875 2.02862 -0.3912 0
M  V30 5016 C 464.283 1.60552 1.00099 0
M  V30 5017 O 463.626 0.796215 1.65548 0
M  V30 5018 C 463.688 3.57386 -0.389299 0
M  V30 5019 C 463.352 4.22943 -1.73113 0
M  V30 5020 C 464.349 4.44984 -2.68859 0
M  V30 5021 C 462.034 4.60167 -2.01373 0
M  V30 5022 C 464.028 5.03345 -3.91053 0
M  V30 5023 C 461.715 5.18243 -3.23832 0
M  V30 5024 C 462.713 5.39773 -4.1849 0
M  V30 5025 O 462.401 5.96626 -5.38788 0
M  V30 5026 H 462.133 0.657341 -0.157732 0
M  V30 5027 H 464.687 1.74407 -1.08496 0
M  V30 5028 H 462.917 3.85011 0.361031 0
M  V30 5029 H 464.606 4.059 -0.0020365 0
M  V30 5030 H 465.372 4.1661 -2.48316 0
M  V30 5031 H 461.251 4.42726 -1.28508 0
M  V30 5032 H 464.795 5.20065 -4.64949 0
M  V30 5033 H 460.692 5.46044 -3.44248 0
M  V30 5034 H 461.46 6.15082 -5.40015 0
M  V30 5035 N 464.123 0.554532 1.47522 0
M  V30 5036 C 465.033 -0.197865 2.33764 0
M  V30 5037 C 466.049 -0.914576 1.48025 0
M  V30 5038 O 467.225 -0.884067 1.80959 0
M  V30 5039 C 464.29 -1.21628 3.24665 0
M  V30 5040 C 463.351 -0.507283 4.26292 0
M  V30 5041 C 462.584 -1.47718 5.1285 0
M  V30 5042 O 462.807 -2.7118 5.01814 0
M  V30 5043 O 461.741 -1.00313 5.93482 0
M  V30 5044 H 465.567 0.50949 2.99396 0
M  V30 5045 H 463.152 0.315176 1.46038 0
M  V30 5046 H 465.034 -1.80421 3.80823 0
M  V30 5047 H 463.709 -1.9056 2.61665 0
M  V30 5048 H 462.616 0.121778 3.73902 0
M  V30 5049 H 463.949 0.140544 4.91999 0
M  V30 5050 N 465.601 -1.54893 0.290851 0
M  V30 5051 C 466.849 -1.99538 -0.320756 0
M  V30 5052 C 467.17 -1.18075 -1.55188 0
M  V30 5053 O 466.44 -0.274162 -1.93972 0
M  V30 5054 H 465.02 -0.737052 -0.121507 0
M  V30 5055 H 467.682 -1.90755 0.399832 0
M  V30 5056 H 466.778 -3.06282 -0.599802 0
M  V30 5057 N 467.08 -0.0183926 -1.57589 0
M  V30 5058 C 467.99 0.982943 -2.13015 0
M  V30 5059 C 469.006 1.36443 -1.07979 0
M  V30 5060 O 470.182 1.44802 -1.3998 0
M  V30 5061 C 467.247 2.25024 -2.63752 0
M  V30 5062 C 466.308 1.93018 -3.83461 0
M  V30 5063 C 465.541 3.13706 -4.31769 0
M  V30 5064 O 465.764 4.2601 -3.79305 0
M  V30 5065 O 464.698 2.96629 -5.23732 0
M  V30 5066 H 468.524 0.541709 -2.9883 0
M  V30 5067 H 466.109 0.201565 -1.48034 0
M  V30 5068 H 467.991 2.99441 -2.96502 0
M  V30 5069 H 466.666 2.68349 -1.81026 0
M  V30 5070 H 465.573 1.16019 -3.55655 0
M  V30 5071 H 466.906 1.54516 -4.67317 0
M  V30 5072 N 468.558 1.5553 0.254621 0
M  V30 5073 C 469.468 1.92789 1.33677 0
M  V30 5074 C 470.484 0.827356 1.53071 0
M  V30 5075 O 471.66 1.12807 1.66843 0
M  V30 5076 C 468.725 2.20827 2.67275 0
M  V30 5077 C 467.786 3.4427 2.5647 0
M  V30 5078 C 467.019 3.70961 3.83697 0
M  V30 5079 O 467.242 2.99852 4.85227 0
M  V30 5080 O 466.176 4.64491 3.82794 0
M  V30 5081 H 470.002 2.84945 1.05071 0
M  V30 5082 H 467.587 1.42312 0.454723 0
M  V30 5083 H 469.469 2.40204 3.46237 0
M  V30 5084 H 468.144 1.31851 2.9563 0
M  V30 5085 H 467.051 3.30209 1.75821 0
M  V30 5086 H 468.384 4.33524 2.33062 0
M  V30 5087 N 470.036 -0.519951 1.48776 0
M  V30 5088 C 470.966 -1.63253 1.66945 0
M  V30 5089 C 471.947 -1.62014 0.518224 0
M  V30 5090 O 473.132 -1.79053 0.751919 0
M  V30 5091 C 470.262 -3.0181 1.71836 0
M  V30 5092 C 469.216 -3.17911 2.8656 0
M  V30 5093 C 468.542 -4.5763 2.76548 0
M  V30 5094 C 469.842 -2.99729 4.27738 0
M  V30 5095 H 471.536 -1.48302 2.6009 0
M  V30 5096 H 469.082 -0.712026 1.25165 0
M  V30 5097 H 471.035 -3.79525 1.83135 0
M  V30 5098 H 469.759 -3.17806 0.752775 0
M  V30 5099 H 468.418 -2.42616 2.74833 0
M  V30 5100 H 468.066 -4.70476 1.77937 0
M  V30 5101 H 467.766 -4.69346 3.53536 0
M  V30 5102 H 469.29 -5.37431 2.89828 0
M  V30 5103 H 470.704 -3.67228 4.40246 0
M  V30 5104 H 469.101 -3.22932 5.05801 0
M  V30 5105 H 470.171 -1.96047 4.43502 0
M  V30 5106 N 471.514 -1.37532 -0.769588 0
M  V30 5107 C 472.461 -1.3347 -1.88293 0
M  V30 5108 C 473.431 -0.199891 -1.64893 0
M  V30 5109 O 474.616 -0.389594 -1.8678 0
M  V30 5110 C 471.756 -1.14968 -3.25387 0
M  V30 5111 C 470.869 -2.37698 -3.60727 0
M  V30 5112 C 470.004 -2.12051 -4.8704 0
M  V30 5113 C 469.043 -3.30636 -5.15117 0
M  V30 5114 N 468.18 -3.04527 -6.3262 0
M  V30 5115 H 473.02 -2.28658 -1.911 0
M  V30 5116 H 470.557 -1.13622 -0.934257 0
M  V30 5117 H 472.515 -1.02261 -4.04473 0
M  V30 5118 H 471.145 -0.234263 -3.21949 0
M  V30 5119 H 470.197 -2.61137 -2.76608 0
M  V30 5120 H 471.509 -3.26131 -3.77413 0
M  V30 5121 H 470.663 -1.96388 -5.74035 0
M  V30 5122 H 469.402 -1.20959 -4.72462 0
M  V30 5123 H 468.407 -3.46836 -4.26597 0
M  V30 5124 H 469.632 -4.22582 -5.31603 0
M  V30 5125 H 467.578 -2.16067 -6.19396 0
M  V30 5126 H 467.495 -3.86503 -6.49732 0
M  V30 5127 H 468.763 -2.92485 -7.22546 0
M  V30 5128 N 472.992 0.995999 -1.22138 0
M  V30 5129 C 474.403 1.54961 -1.04135 0
M  V30 5130 C 474.754 1.92159 0.396147 0
M  V30 5131 O 473.879 1.74435 1.28069 0
M  V30 5132 C 474.474 2.81581 -1.88408 0
M  V30 5133 C 473.033 3.33396 -1.74712 0
M  V30 5134 C 472.18 2.06509 -1.85066 0
M  V30 5135 H 475.131 0.817436 -1.36028 0
M  V30 5136 H 475.152 3.53822 -1.39966 0
M  V30 5137 H 474.664 2.54476 -2.93025 0
M  V30 5138 H 472.765 3.65416 -0.728159 0
M  V30 5139 H 472.878 4.04208 -2.57202 0
M  V30 5140 H 471.242 2.19925 -1.28472 0
M  V30 5141 H 472.025 1.81804 -2.91208 0
M  V30 5142 N 474.47 1.03057 1.19235 0
M  V30 5143 C 475.7 0.746613 1.92638 0
M  V30 5144 C 476.108 -0.698708 1.75826 0
M  V30 5145 O 475.451 -1.487 1.07861 0
M  V30 5146 C 475.513 1.02024 3.44719 0
M  V30 5147 C 475.177 2.45745 3.85303 0
M  V30 5148 C 476.174 3.43887 3.8992 0
M  V30 5149 C 473.859 2.8019 4.16892 0
M  V30 5150 C 475.853 4.74529 4.2556 0
M  V30 5151 C 473.54 4.1104 4.52205 0
M  V30 5152 C 474.538 5.0802 4.56513 0
M  V30 5153 O 474.226 6.36527 4.91008 0
M  V30 5154 H 473.958 0.272401 0.618687 0
M  V30 5155 H 476.512 1.37853 1.52269 0
M  V30 5156 H 474.742 0.331184 3.85279 0
M  V30 5157 H 476.431 0.725677 3.9936 0
M  V30 5158 H 477.197 3.18614 3.65664 0
M  V30 5159 H 473.076 2.05382 4.12722 0
M  V30 5160 H 476.62 5.50222 4.28838 0
M  V30 5161 H 472.517 4.36086 4.7592 0
M  V30 5162 H 473.285 6.41025 5.08949 0
M  V30 5163 N 475.948 -1.35272 0.808662 0
M  V30 5164 C 477.176 -2.02946 0.402537 0
M  V30 5165 C 477.591 -1.60937 -0.987147 0
M  V30 5166 O 476.948 -0.807917 -1.63643 0
M  V30 5167 C 476.999 -3.58317 0.47868 0
M  V30 5168 O 476.72 -3.98799 1.81358 0
M  V30 5169 C 478.221 -4.43251 0.0656281 0
M  V30 5170 H 475.441 -0.650831 0.163279 0
M  V30 5171 H 477.985 -1.72849 1.09286 0
M  V30 5172 H 476.14 -3.87055 -0.163415 0
M  V30 5173 H 476.554 -4.93451 1.77781 0
M  V30 5174 H 478.028 -5.51738 0.170017 0
M  V30 5175 H 478.505 -4.27913 -0.989278 0
M  V30 5176 H 479.111 -4.19813 0.68096 0
M  V30 5177 N 477.426 -0.562348 -1.47226 0
M  V30 5178 C 478.336 0.185466 -2.33866 0
M  V30 5179 C 479.352 0.906713 -1.48508 0
M  V30 5180 O 480.528 0.874458 -1.81425 0
M  V30 5181 C 477.593 1.19904 -3.25306 0
M  V30 5182 C 476.654 0.484669 -4.26555 0
M  V30 5183 C 475.887 1.44996 -5.13626 0
M  V30 5184 O 476.11 2.68515 -5.03245 0
M  V30 5185 O 475.044 0.971642 -5.94006 0
M  V30 5186 H 478.87 -0.525361 -2.99121 0
M  V30 5187 H 476.455 -0.322916 -1.45868 0
M  V30 5188 H 478.337 1.78399 -3.81774 0
M  V30 5189 H 477.012 1.8917 -2.62672 0
M  V30 5190 H 475.919 -0.141605 -3.73832 0
M  V30 5191 H 477.252 -0.166634 -4.91918 0
M  V30 5192 N 478.904 1.54736 -0.299062 0
M  V30 5193 C 480.315 1.8569 0.193971 0
M  V30 5194 C 480.666 1.22101 1.53577 0
M  V30 5195 O 479.791 0.51799 2.10109 0
M  V30 5196 C 480.386 3.36895 0.358733 0
M  V30 5197 C 478.945 3.67887 0.795986 0
M  V30 5198 C 478.092 2.77131 -0.096807 0
M  V30 5199 H 481.043 1.49934 -0.520134 0
M  V30 5200 H 481.064 3.61294 1.19361 0
M  V30 5201 H 480.576 3.83148 -0.617998 0
M  V30 5202 H 478.677 3.27151 1.78334 0
M  V30 5203 H 478.79 4.75114 0.616718 0
M  V30 5204 H 477.154 2.51153 0.423581 0
M  V30 5205 H 477.937 3.26204 -1.06986 0
M  V30 5206 N 480.382 0.0267497 1.57577 0
M  V30 5207 C 481.292 -0.971633 2.13533 0
M  V30 5208 C 482.308 -1.35868 1.08701 0
M  V30 5209 O 483.484 -1.44058 1.40746 0
M  V30 5210 C 480.549 -2.23622 2.64941 0
M  V30 5211 C 479.61 -1.90982 3.8448 0
M  V30 5212 C 478.843 -3.11411 4.33427 0
M  V30 5213 O 479.066 -4.23992 3.81558 0
M  V30 5214 O 478 -2.93848 5.25297 0
M  V30 5215 H 481.826 -0.525853 2.99113 0
M  V30 5216 H 479.411 -0.193712 1.48139 0
M  V30 5217 H 481.293 -2.97864 2.98086 0
M  V30 5218 H 479.968 -2.67386 1.82446 0
M  V30 5219 H 478.875 -1.14132 3.56265 0
M  V30 5220 H 480.208 -1.52036 4.6813 0
M  V30 5221 N 481.861 -1.55662 -0.24637 0
M  V30 5222 C 482.771 -1.93495 -1.32653 0
M  V30 5223 C 483.787 -0.835462 -1.5263 0
M  V30 5224 O 484.963 -1.1369 -1.66242 0
M  V30 5225 C 482.028 -2.22242 -2.66101 0
M  V30 5226 C 481.089 -3.45625 -2.54641 0
M  V30 5227 C 480.322 -3.72991 -3.81724 0
M  V30 5228 O 480.545 -3.02421 -4.8363 0
M  V30 5229 O 479.479 -4.66515 -3.80325 0
M  V30 5230 H 483.305 -2.85498 -1.03559 0
M  V30 5231 H 480.89 -1.42551 -0.44717 0
M  V30 5232 H 482.772 -2.42037 -3.44958 0
M  V30 5233 H 481.447 -1.33417 -2.94926 0
M  V30 5234 H 480.354 -3.31136 -1.74067 0
M  V30 5235 H 481.687 -4.34754 -2.3076 0
M  V30 5236 N 483.339 0.512053 -1.4905 0
M  V30 5237 C 484.616 1.27337 -1.48474 0
M  V30 5238 C 484.996 2.1009 -0.206301 0
M  V30 5239 O 484.344 2.136 0.811609 0
M  V30 5240 C 484.554 2.13954 -2.75726 0
M  V30 5241 C 485.902 2.73507 -3.24776 0
M  V30 5242 O 486.926 2.24229 -2.76767 0
M  V30 5243 O 485.785 3.63186 -4.08361 0
M  V30 5244 H 482.879 0.575652 -0.593762 0
M  V30 5245 H 485.425 0.527232 -1.61302 0
M  V30 5246 H 484.197 1.52709 -3.60272 0
M  V30 5247 H 483.82 2.95782 -2.65705 0
M  V30 5248 N 484.817 1.37938 0.762283 0
M  V30 5249 C 486.064 1.33668 1.52115 0
M  V30 5250 C 486.392 -0.0759538 1.94352 0
M  V30 5251 O 485.647 -1.05121 1.6507 0
M  V30 5252 C 485.946 2.23042 2.79261 0
M  V30 5253 C 485.612 3.71159 2.56031 0
M  V30 5254 C 484.274 4.11523 2.49404 0
M  V30 5255 C 486.626 4.64955 2.35513 0
M  V30 5256 C 483.954 5.43784 2.20263 0
M  V30 5257 C 486.306 5.97464 2.07894 0
M  V30 5258 C 484.97 6.36922 1.99718 0
M  V30 5259 H 484.24 0.489127 0.556629 0
M  V30 5260 H 486.887 1.70224 0.877262 0
M  V30 5261 H 485.192 1.79512 3.48256 0
M  V30 5262 H 486.889 2.17047 3.37182 0
M  V30 5263 H 483.479 3.39153 2.62056 0
M  V30 5264 H 487.663 4.34623 2.39617 0
M  V30 5265 H 482.919 5.73307 2.12435 0
M  V30 5266 H 487.093 6.6969 1.91019 0
M  V30 5267 H 484.72 7.39331 1.76902 0
M  V30 5268 N 486.295 -0.989507 1.22664 0
M  V30 5269 C 487.543 -1.72612 1.05117 0
M  V30 5270 C 487.864 -1.90552 -0.414131 0
M  V30 5271 O 487.134 -1.4676 -1.29762 0
M  V30 5272 H 485.714 -0.639555 0.385977 0
M  V30 5273 H 488.376 -1.19158 1.54232 0
M  V30 5274 H 487.472 -2.71926 1.53175 0
M  V30 5275 N 487.773 -1.03688 -1.18687 0
M  V30 5276 C 489.05 -0.652397 -1.84399 0
M  V30 5277 C 489.43 0.868386 -1.92412 0
M  V30 5278 O 488.778 1.76832 -1.44716 0
M  V30 5279 C 488.988 -1.3238 -3.22919 0
M  V30 5280 C 490.336 -1.45216 -3.98996 0
M  V30 5281 O 491.36 -1.2816 -3.32345 0
M  V30 5282 O 490.219 -1.72975 -5.18403 0
M  V30 5283 H 487.313 -0.227793 -0.795009 0
M  V30 5284 H 489.859 -1.13553 -1.2611 0
M  V30 5285 H 488.631 -2.36202 -3.11968 0
M  V30 5286 H 488.254 -0.829039 -3.88861 0
M  V30 5287 N 489.251 1.34841 -0.815825 0
M  V30 5288 C 490.479 2.0273 -0.413294 0
M  V30 5289 C 490.894 1.61459 0.978599 0
M  V30 5290 O 490.251 0.816584 1.63212 0
M  V30 5291 C 490.302 3.58058 -0.497676 0
M  V30 5292 O 490.023 3.97832 -1.8347 0
M  V30 5293 C 491.524 4.4321 -0.0891339 0
M  V30 5294 H 488.744 0.649956 -0.166728 0
M  V30 5295 H 491.288 1.72267 -1.10201 0
M  V30 5296 H 489.443 3.87136 0.142886 0
M  V30 5297 H 489.857 4.92501 -1.80396 0
M  V30 5298 H 491.331 5.5164 -0.199274 0
M  V30 5299 H 491.808 4.28432 0.966571 0
M  V30 5300 H 492.414 4.19446 -0.703214 0
M  V30 5301 N 490.729 0.570148 1.46925 0
M  V30 5302 C 491.676 -0.170257 2.30171 0
M  V30 5303 C 492.646 -0.896099 1.39855 0
M  V30 5304 O 493.831 -0.889248 1.68811 0
M  V30 5305 C 490.971 -1.18605 3.24079 0
M  V30 5306 C 490.084 -0.464947 4.29491 0
M  V30 5307 C 489.219 -1.46716 5.10537 0
M  V30 5308 C 488.258 -0.731758 6.0771 0
M  V30 5309 N 487.395 -1.68142 6.81669 0
M  V30 5310 H 492.235 0.545713 2.92961 0
M  V30 5311 H 489.772 0.280938 1.44392 0
M  V30 5312 H 491.73 -1.78771 3.76957 0
M  V30 5313 H 490.36 -1.86989 2.63125 0
M  V30 5314 H 489.412 0.251506 3.79568 0
M  V30 5315 H 490.724 0.110548 4.98677 0
M  V30 5316 H 489.878 -2.14199 5.6763 0
M  V30 5317 H 488.617 -2.07658 4.41282 0
M  V30 5318 H 487.622 -0.0430787 5.49783 0
M  V30 5319 H 488.847 -0.127904 6.7898 0
M  V30 5320 H 486.793 -2.27918 6.15134 0
M  V30 5321 H 486.71 -1.15841 7.47072 0
M  V30 5322 H 487.978 -2.347 7.43328 0
M  V30 5323 N 492.207 -1.54576 0.307264 0
M  V30 5324 C 493.623 -1.59534 -0.0459251 0
M  V30 5325 C 493.823 -1.32414 -1.51884 0
M  V30 5326 O 492.879 -1.1006 -2.27251 0
M  V30 5327 C 494.192 -2.98566 0.357649 0
M  V30 5328 C 495.74 -3.11491 0.306937 0
M  V30 5329 C 496.215 -4.52842 0.685427 0
M  V30 5330 N 497.706 -4.58782 0.638203 0
M  V30 5331 C 498.441 -5.66238 0.903458 0
M  V30 5332 N 497.937 -6.81703 1.23501 0
M  V30 5333 N 499.73 -5.55937 0.830102 0
M  V30 5334 H 491.881 -1.70464 1.26712 0
M  V30 5335 H 494.144 -0.79647 0.514139 0
M  V30 5336 H 493.85 -3.23356 1.38325 0
M  V30 5337 H 493.724 -3.76117 -0.285565 0
M  V30 5338 H 496.111 -2.86446 -0.709424 0
M  V30 5339 H 496.192 -2.36081 0.984861 0
M  V30 5340 H 495.836 -4.78618 1.69963 0
M  V30 5341 H 495.766 -5.26598 -0.0146346 0
M  V30 5342 H 498.257 -3.75849 0.393138 0
M  V30 5343 H 498.57 -7.59582 1.42322 0
M  V30 5344 H 496.915 -6.8324 1.27311 0
M  V30 5345 H 500.106 -4.64608 0.570693 0
M  V30 5346 H 500.279 -6.39597 1.04019 0
M  V30 5347 N 493.685 -0.035106 -1.57561 0
M  V30 5348 C 494.934 0.641604 -1.91223 0
M  V30 5349 C 495.247 1.72944 -0.913761 0
M  V30 5350 O 496.453 2.46321 -1.14185 0
M  V30 5351 C 494.909 1.19249 -3.3957 0
M  V30 5352 C 494.517 0.137616 -4.47789 0
M  V30 5353 C 496.261 1.84537 -3.82291 0
M  V30 5354 C 494.168 0.700478 -5.87237 0
M  V30 5355 H 493.098 0.243417 -0.713627 0
M  V30 5356 H 495.749 -0.101382 -1.8322 0
M  V30 5357 H 494.131 1.98728 -3.42525 0
M  V30 5358 H 495.305 -0.635153 -4.56402 0
M  V30 5359 H 493.62 -0.416855 -4.14308 0
M  V30 5360 H 496.217 2.27616 -4.83834 0
M  V30 5361 H 496.56 2.69054 -3.17672 0
M  V30 5362 H 497.093 1.11739 -3.81784 0
M  V30 5363 H 493.832 -0.106693 -6.55413 0
M  V30 5364 H 493.352 1.4416 -5.82218 0
M  V30 5365 H 495.031 1.18837 -6.35993 0
M  V30 5366 N 495.163 1.55791 0.238111 0
M  V30 5367 C 496.073 1.94196 1.31625 0
M  V30 5368 C 497.089 0.843545 1.52185 0
M  V30 5369 O 498.265 1.1457 1.65637 0
M  V30 5370 C 495.33 2.2365 2.64918 0
M  V30 5371 C 494.391 3.46971 2.52804 0
M  V30 5372 C 493.624 3.7501 3.79741 0
M  V30 5373 O 493.847 3.04982 4.82019 0
M  V30 5374 O 492.781 4.68525 3.77846 0
M  V30 5375 H 496.607 2.86044 1.02043 0
M  V30 5376 H 494.192 1.42786 0.439603 0
M  V30 5377 H 496.074 2.43863 3.4367 0
M  V30 5378 H 494.749 1.34979 2.94215 0
M  V30 5379 H 493.656 3.32055 1.72309 0
M  V30 5380 H 494.989 4.35971 2.28451 0
M  V30 5381 N 496.642 -0.504142 1.49319 0
M  V30 5382 C 497.888 -1.26033 1.58882 0
M  V30 5383 C 498.221 -1.92268 0.273274 0
M  V30 5384 O 497.496 -1.80567 -0.72291 0
M  V30 5385 C 497.779 -2.32976 2.7458 0
M  V30 5386 C 497.632 -1.71263 4.1592 0
M  V30 5387 C 498.951 -3.34561 2.85932 0
M  V30 5388 H 496.07 -0.456863 0.578312 0
M  V30 5389 H 498.712 -0.558965 1.81592 0
M  V30 5390 H 496.862 -2.92796 2.55348 0
M  V30 5391 H 498.534 -1.15294 4.4666 0
M  V30 5392 H 496.777 -1.01686 4.21714 0
M  V30 5393 H 497.448 -2.48816 4.92742 0
M  V30 5394 H 499.924 -2.84727 3.0343 0
M  V30 5395 H 498.8 -4.06754 3.68568 0
M  V30 5396 H 499.061 -3.96695 1.95154 0
M  V30 5397 N 498.12 -1.38341 -0.754957 0
M  V30 5398 C 499.053 -1.29837 -1.87663 0
M  V30 5399 C 500.031 -0.175659 -1.61648 0
M  V30 5400 O 501.215 -0.352745 -1.8517 0
M  V30 5401 C 498.342 -1.01141 -3.23246 0
M  V30 5402 C 497.388 -2.15331 -3.6815 0
M  V30 5403 S 498.221 -3.77459 -3.79849 0
M  V30 5404 C 499.377 -3.50948 -5.18253 0
M  V30 5405 H 499.61 -2.24771 -1.9459 0
M  V30 5406 H 497.143 -1.24161 -0.917796 0
M  V30 5407 H 499.101 -0.852687 -4.01546 0
M  V30 5408 H 497.762 -0.0792784 -3.14 0
M  V30 5409 H 496.955 -1.90795 -4.6649 0
M  V30 5410 H 496.557 -2.27304 -2.97 0
M  V30 5411 H 498.849 -3.06977 -6.03963 0
M  V30 5412 H 499.792 -4.48677 -5.47809 0
M  V30 5413 H 500.2 -2.85492 -4.86985 0
M  V30 5414 N 499.598 0.982988 -1.23187 0
M  V30 5415 C 500.844 1.72648 -1.06398 0
M  V30 5416 C 501.177 1.90066 0.398561 0
M  V30 5417 O 500.452 1.45105 1.29518 0
M  V30 5418 C 500.735 3.12627 -1.78707 0
M  V30 5419 C 500.588 3.02795 -3.32618 0
M  V30 5420 C 501.907 4.11997 -1.54747 0
M  V30 5421 H 499.026 0.626649 -0.387918 0
M  V30 5422 H 501.668 1.14455 -1.51658 0
M  V30 5423 H 499.818 3.62308 -1.40234 0
M  V30 5424 H 501.49 2.60659 -3.80598 0
M  V30 5425 H 499.733 2.39362 -3.61785 0
M  V30 5426 H 500.404 4.01893 -3.78399 0
M  V30 5427 H 502.88 3.71114 -1.88186 0
M  V30 5428 H 501.756 5.08037 -2.07821 0
M  V30 5429 H 502.017 4.39462 -0.482249 0
M  V30 5430 N 501.076 1.04316 1.18135 0
M  V30 5431 C 502.324 0.746542 1.87806 0
M  V30 5432 C 502.645 -0.728082 1.80898 0
M  V30 5433 O 501.915 -1.52554 1.22899 0
M  V30 5434 H 500.495 0.273157 0.695265 0
M  V30 5435 H 503.157 1.32044 1.43354 0
M  V30 5436 H 502.253 1.05362 2.93778 0
M  V30 5437 N 502.554 -1.34406 0.822964 0
M  V30 5438 C 503.487 -2.27407 0.190124 0
M  V30 5439 C 504.465 -1.4889 -0.653486 0
M  V30 5440 O 505.649 -1.78109 -0.617216 0
M  V30 5441 C 502.776 -3.3064 -0.734477 0
M  V30 5442 C 501.822 -4.26488 0.0316099 0
M  V30 5443 S 502.655 -5.17445 1.3788 0
M  V30 5444 C 503.811 -6.24214 0.45907 0
M  V30 5445 H 504.044 -2.80733 0.978586 0
M  V30 5446 H 501.577 -1.41455 0.618866 0
M  V30 5447 H 503.535 -3.90607 -1.26238 0
M  V30 5448 H 502.196 -2.76161 -1.49646 0
M  V30 5449 H 501.389 -4.9951 -0.671285 0
M  V30 5450 H 500.991 -3.70775 0.490066 0
M  V30 5451 H 503.283 -6.76599 -0.349357 0
M  V30 5452 H 504.226 -6.98551 1.15896 0
M  V30 5453 H 504.634 -5.6448 0.0474825 0
M  V30 5454 N 504.032 -0.577932 -1.46621 0
M  V30 5455 C 505.28 -0.061566 -2.02006 0
M  V30 5456 C 505.601 1.30117 -1.4524 0
M  V30 5457 O 504.871 1.85313 -0.63529 0
M  V30 5458 H 503.451 -0.0197692 -0.746738 0
M  V30 5459 H 506.113 -0.752631 -1.79782 0
M  V30 5460 H 505.209 0.0110238 -3.12098 0
M  V30 5461 N 505.51 1.54411 -0.315457 0
M  V30 5462 C 506.74 2.04536 0.291315 0
M  V30 5463 C 507.148 1.19162 1.4696 0
M  V30 5464 O 506.491 0.213199 1.82459 0
M  V30 5465 C 506.553 3.5056 0.796725 0
M  V30 5466 C 506.217 4.5627 -0.258178 0
M  V30 5467 C 507.214 5.08312 -1.09153 0
M  V30 5468 C 504.899 5.00672 -0.404036 0
M  V30 5469 C 506.893 6.03312 -2.05655 0
M  V30 5470 C 504.58 5.95488 -1.37248 0
M  V30 5471 C 505.578 6.46693 -2.19721 0
M  V30 5472 O 505.266 7.39648 -3.14921 0
M  V30 5473 H 504.998 0.672856 0.0651165 0
M  V30 5474 H 507.552 2.00244 -0.457308 0
M  V30 5475 H 505.782 3.52223 1.59612 0
M  V30 5476 H 507.471 3.83804 1.32096 0
M  V30 5477 H 508.237 4.74793 -0.98979 0
M  V30 5478 H 504.116 4.60436 0.22799 0
M  V30 5479 H 507.66 6.43203 -2.70067 0
M  V30 5480 H 503.557 6.28424 -1.47489 0
M  V30 5481 H 504.325 7.57496 -3.10067 0
M  V30 5482 N 506.988 0.0434614 1.5754 0
M  V30 5483 C 508.216 -0.641835 1.96693 0
M  V30 5484 C 508.631 -1.64832 0.920652 0
M  V30 5485 O 507.988 -1.82247 -0.095993 0
M  V30 5486 C 508.039 -1.33557 3.35924 0
M  V30 5487 O 507.76 -0.369403 4.3654 0
M  V30 5488 C 509.261 -2.11135 3.89791 0
M  V30 5489 H 506.481 -0.176013 0.647503 0
M  V30 5490 H 509.025 0.107478 2.04217 0
M  V30 5491 H 507.18 -2.03617 3.29574 0
M  V30 5492 H 507.594 -0.863674 5.1734 0
M  V30 5493 H 509.068 -2.55107 4.89514 0
M  V30 5494 H 509.545 -2.95634 3.24803 0
M  V30 5495 H 510.151 -1.46002 3.99454 0
M  V30 5496 N 508.466 -1.55915 -0.229846 0
M  V30 5497 C 509.882 -1.48721 -0.579166 0
M  V30 5498 C 510.082 -0.736976 -1.87539 0
M  V30 5499 O 509.138 -0.273258 -2.51017 0
M  V30 5500 C 510.451 -2.9323 -0.666082 0
M  V30 5501 C 511.999 -3.03701 -0.757267 0
M  V30 5502 C 512.474 -4.49552 -0.8756 0
M  V30 5503 N 513.965 -4.53561 -0.940035 0
M  V30 5504 C 514.7 -5.63683 -1.05116 0
M  V30 5505 N 514.196 -6.83576 -1.12675 0
M  V30 5506 N 515.989 -5.51516 -1.08565 0
M  V30 5507 H 508.14 -2.03123 0.620857 0
M  V30 5508 H 510.403 -0.922898 0.21671 0
M  V30 5509 H 510.109 -3.51032 0.21664 0
M  V30 5510 H 509.983 -3.44668 -1.53243 0
M  V30 5511 H 512.37 -2.45969 -1.63043 0
M  V30 5512 H 512.451 -2.55446 0.134583 0
M  V30 5513 H 512.095 -5.079 -0.00692351 0
M  V30 5514 H 512.025 -4.95506 -1.78274 0
M  V30 5515 H 514.516 -3.67215 -0.892269 0
M  V30 5516 H 514.829 -7.63251 -1.21109 0
M  V30 5517 H 513.174 -6.86303 -1.09603 0
M  V30 5518 H 516.365 -4.5678 -1.02319 0
M  V30 5519 H 516.538 -6.37372 -1.1688 0
M  V30 5520 N 509.944 0.496216 -1.49584 0
M  V30 5521 C 510.854 1.62352 -1.69349 0
M  V30 5522 C 511.87 1.64184 -0.576147 0
M  V30 5523 O 513.046 1.82517 -0.85144 0
M  V30 5524 C 510.111 2.98698 -1.76013 0
M  V30 5525 C 509.172 3.07454 -2.99617 0
M  V30 5526 C 508.405 4.37296 -3.05953 0
M  V30 5527 O 508.628 5.2637 -2.19752 0
M  V30 5528 O 507.562 4.51124 -3.9846 0
M  V30 5529 H 511.388 1.48606 -2.64859 0
M  V30 5530 H 508.973 0.673022 -1.33382 0
M  V30 5531 H 510.855 3.79725 -1.82721 0
M  V30 5532 H 509.53 3.12696 -0.836828 0
M  V30 5533 H 508.437 2.25597 -2.98424 0
M  V30 5534 H 509.77 2.98385 -3.91443 0
M  V30 5535 N 511.423 1.38739 0.74761 0
M  V30 5536 C 512.333 1.38696 1.89211 0
M  V30 5537 C 513.349 0.283303 1.71678 0
M  V30 5538 O 514.525 0.522713 1.94498 0
M  V30 5539 C 511.59 1.21662 3.24653 0
M  V30 5540 C 510.651 2.41886 3.54669 0
M  V30 5541 C 509.884 2.25655 4.83648 0
M  V30 5542 O 510.107 1.25339 5.56459 0
M  V30 5543 O 509.041 3.14372 5.13277 0
M  V30 5544 H 512.867 2.35143 1.92202 0
M  V30 5545 H 510.452 1.19721 0.893708 0
M  V30 5546 H 512.334 1.14246 4.05618 0
M  V30 5547 H 511.009 0.283024 3.2246 0
M  V30 5548 H 509.916 2.54877 2.73841 0
M  V30 5549 H 511.249 3.33895 3.61628 0
M  V30 5550 N 512.901 -0.976442 1.23707 0
M  V30 5551 C 514.15 -1.71254 1.06559 0
M  V30 5552 C 514.463 -1.91528 -0.397024 0
M  V30 5553 O 515.669 -2.62625 -0.688518 0
M  V30 5554 C 514.125 -3.08207 1.8584 0
M  V30 5555 C 513.733 -2.95806 3.36456 0
M  V30 5556 C 515.477 -3.85749 1.77194 0
M  V30 5557 C 513.384 -4.28015 4.08114 0
M  V30 5558 H 512.314 -0.642171 0.395136 0
M  V30 5559 H 514.965 -1.08877 1.4771 0
M  V30 5560 H 513.347 -3.71363 1.37498 0
M  V30 5561 H 514.521 -2.41716 3.92314 0
M  V30 5562 H 512.836 -2.31736 3.45959 0
M  V30 5563 H 515.433 -4.83633 2.28041 0
M  V30 5564 H 515.776 -4.09752 0.735477 0
M  V30 5565 H 516.309 -3.29303 2.23169 0
M  V30 5566 H 513.048 -4.09208 5.12083 0
M  V30 5567 H 512.568 -4.81955 3.57043 0
M  V30 5568 H 514.247 -4.96681 4.14629 0
M  V30 5569 N 514.379 -1.04941 -1.1758 0
M  V30 5570 C 515.326 -0.648155 -2.21512 0
M  V30 5571 C 516.296 0.348431 -1.62404 0
M  V30 5572 O 517.481 0.240419 -1.89279 0
M  V30 5573 C 514.621 -0.0264291 -3.4509 0
M  V30 5574 C 513.734 -1.07154 -4.185 0
M  V30 5575 C 512.869 -0.417403 -5.29558 0
M  V30 5576 C 511.908 -1.447 -5.94751 0
M  V30 5577 N 511.045 -0.817203 -6.97328 0
M  V30 5578 H 515.885 -1.53891 -2.55189 0
M  V30 5579 H 513.422 -0.769699 -1.25356 0
M  V30 5580 H 515.38 0.351456 -4.15717 0
M  V30 5581 H 514.01 0.827802 -3.12005 0
M  V30 5582 H 513.062 -1.56728 -3.46613 0
M  V30 5583 H 514.374 -1.8532 -4.63096 0
M  V30 5584 H 513.528 0.0142061 -6.06698 0
M  V30 5585 H 512.267 0.396265 -4.86087 0
M  V30 5586 H 511.272 -1.88865 -5.16343 0
M  V30 5587 H 512.497 -2.26252 -6.40302 0
M  V30 5588 H 510.443 -0.0239995 -6.55996 0
M  V30 5589 H 510.36 -1.53644 -7.40223 0
M  V30 5590 H 511.628 -0.410283 -7.7842 0
M  V30 5591 N 515.857 1.33968 -0.830081 0
M  V30 5592 C 516.767 2.33164 -0.259207 0
M  V30 5593 C 517.783 1.62951 0.610164 0
M  V30 5594 O 518.959 1.94668 0.516369 0
M  V30 5595 C 516.024 3.42088 0.563598 0
M  V30 5596 C 515.085 4.28037 -0.329014 0
M  V30 5597 C 514.318 5.3176 0.454616 0
M  V30 5598 O 514.541 5.44876 1.6872 0
M  V30 5599 O 513.475 6.01669 -0.166794 0
M  V30 5600 H 517.301 2.83832 -1.08041 0
M  V30 5601 H 514.886 1.37154 -0.59239 0
M  V30 5602 H 516.768 4.08581 1.03147 0
M  V30 5603 H 515.443 2.93651 1.36201 0
M  V30 5604 H 514.35 3.64443 -0.844538 0
M  V30 5605 H 515.683 4.79934 -1.09196 0
M  V30 5606 N 517.335 0.585699 1.46312 0
M  V30 5607 C 518.56 0.0762461 2.0726 0
M  V30 5608 C 518.985 -1.22071 1.43109 0
M  V30 5609 O 518.343 -1.73804 0.515942 0
M  V30 5610 C 518.391 -0.0729404 3.60526 0
M  V30 5611 O 517.495 -1.1287 3.96654 0
M  V30 5612 H 516.836 0.0641558 0.660893 0
M  V30 5613 H 519.366 0.809492 1.87905 0
M  V30 5614 H 519.376 -0.278158 4.07051 0
M  V30 5615 H 518.051 0.874188 4.06609 0
M  V30 5616 H 516.628 -0.901703 3.61834 0
M  V30 5617 N 518.813 -1.54241 0.323641 0
M  V30 5618 C 519.743 -2.27289 -0.534993 0
M  V30 5619 C 520.724 -1.28087 -1.11927 0
M  V30 5620 O 521.909 -1.56899 -1.14439 0
M  V30 5621 C 519.039 -3.03075 -1.69596 0
M  V30 5622 C 517.993 -4.09614 -1.24098 0
M  V30 5623 C 517.319 -4.73242 -2.4889 0
M  V30 5624 C 518.619 -5.21087 -0.355789 0
M  V30 5625 H 520.313 -2.99308 0.0743257 0
M  V30 5626 H 517.859 -1.43952 0.0371874 0
M  V30 5627 H 519.812 -3.52907 -2.30293 0
M  V30 5628 H 518.536 -2.28673 -2.33187 0
M  V30 5629 H 517.195 -3.60666 -0.656945 0
M  V30 5630 H 516.843 -3.95455 -3.10845 0
M  V30 5631 H 516.543 -5.45209 -2.19138 0
M  V30 5632 H 518.067 -5.25848 -3.10348 0
M  V30 5633 H 519.481 -5.66675 -0.869042 0
M  V30 5634 H 517.878 -5.9991 -0.151045 0
M  V30 5635 H 518.948 -4.81005 0.613339 0
M  V30 5636 N 520.291 -0.0518155 -1.57515 0
M  V30 5637 C 521.519 0.631395 -1.9703 0
M  V30 5638 C 521.934 1.64341 -0.92938 0
M  V30 5639 O 521.291 1.82296 0.0863266 0
M  V30 5640 C 521.342 1.31774 -3.36627 0
M  V30 5641 O 521.063 0.346247 -4.3673 0
M  V30 5642 C 522.564 2.09065 -3.90905 0
M  V30 5643 H 519.784 0.172576 -0.648428 0
M  V30 5644 H 522.328 -0.118306 -2.04158 0
M  V30 5645 H 520.483 2.01867 -3.30649 0
M  V30 5646 H 520.897 0.836226 -5.17791 0
M  V30 5647 H 522.371 2.52508 -4.9086 0
M  V30 5648 H 522.848 2.93908 -3.26366 0
M  V30 5649 H 523.454 1.43882 -4.00223 0
M  V30 5650 N 521.769 1.56035 0.221574 0
M  V30 5651 C 522.994 1.83476 0.967026 0
M  V30 5652 C 523.419 0.632139 1.7716 0
M  V30 5653 O 522.777 -0.419082 1.7639 0
M  V30 5654 C 522.825 3.08907 1.86034 0
M  V30 5655 O 521.929 2.876 2.95567 0
M  V30 5656 H 521.27 0.604913 0.273817 0
M  V30 5657 H 523.8 2.03247 0.234893 0
M  V30 5658 H 523.81 3.3901 2.27016 0
M  V30 5659 H 522.485 3.96068 1.26898 0
M  V30 5660 H 521.062 2.6873 2.58532 0
M  V30 5661 N 523.247 -0.488276 1.49845 0
M  V30 5662 C 524.179 -1.60539 1.63584 0
M  V30 5663 C 525.192 -1.5434 0.517972 0
M  V30 5664 O 526.381 -1.60041 0.790516 0
M  V30 5665 C 523.481 -2.99374 1.58835 0
M  V30 5666 C 522.654 -3.30624 2.86368 0
M  V30 5667 C 521.713 -4.4893 2.74496 0
M  V30 5668 O 520.739 -4.50085 3.48443 0
M  V30 5669 N 521.941 -5.49591 1.86894 0
M  V30 5670 H 524.706 -1.49176 2.59936 0
M  V30 5671 H 522.267 -0.67639 1.47094 0
M  V30 5672 H 524.259 -3.76459 1.48529 0
M  V30 5673 H 522.829 -3.04595 0.702892 0
M  V30 5674 H 522.049 -2.42314 3.1093 0
M  V30 5675 H 523.337 -3.48305 3.70892 0
M  V30 5676 H 522.735 -5.51467 1.26097 0
M  V30 5677 H 521.292 -6.25728 1.82503 0
M  V30 5678 N 524.725 -1.39134 -0.740242 0
M  V30 5679 C 525.672 -1.37434 -1.8542 0
M  V30 5680 C 526.642 -0.234822 -1.64432 0
M  V30 5681 O 527.827 -0.429125 -1.85912 0
M  V30 5682 C 524.967 -1.21844 -3.22875 0
M  V30 5683 C 524.08 -2.45296 -3.55603 0
M  V30 5684 C 523.215 -2.22334 -4.82432 0
M  V30 5685 C 522.254 -3.41488 -5.07988 0
M  V30 5686 N 521.391 -3.17877 -6.26018 0
M  V30 5687 H 526.231 -2.3266 -1.86207 0
M  V30 5688 H 523.768 -1.15578 -0.909946 0
M  V30 5689 H 525.726 -1.10818 -4.02213 0
M  V30 5690 H 524.356 -0.3025 -3.21379 0
M  V30 5691 H 523.408 -2.66945 -2.71006 0
M  V30 5692 H 524.72 -3.34063 -3.7041 0
M  V30 5693 H 523.874 -2.0852 -5.69741 0
M  V30 5694 H 522.613 -1.30954 -4.6979 0
M  V30 5695 H 521.618 -3.55807 -4.19144 0
M  V30 5696 H 522.843 -4.33763 -5.22519 0
M  V30 5697 H 520.789 -2.29156 -6.14673 0
M  V30 5698 H 520.706 -4.00198 -6.41387 0
M  V30 5699 H 521.974 -3.07746 -7.16179 0
M  V30 5700 N 526.204 0.969867 -1.24223 0
M  V30 5701 C 527.434 1.74502 -1.106 0
M  V30 5702 C 527.842 1.86038 0.344483 0
M  V30 5703 O 527.185 1.3465 1.24961 0
M  V30 5704 C 527.247 3.18391 -1.66935 0
M  V30 5705 C 526.911 3.30334 -3.15798 0
M  V30 5706 C 527.908 3.15832 -4.12973 0
M  V30 5707 C 525.593 3.54644 -3.55715 0
M  V30 5708 C 527.587 3.25461 -5.48045 0
M  V30 5709 C 525.274 3.63912 -4.90929 0
M  V30 5710 C 526.272 3.49332 -5.86904 0
M  V30 5711 O 525.96 3.58251 -7.1966 0
M  V30 5712 H 525.692 0.554119 -0.387206 0
M  V30 5713 H 528.246 1.22646 -1.64764 0
M  V30 5714 H 526.476 3.71543 -1.07203 0
M  V30 5715 H 528.165 3.77707 -1.48634 0
M  V30 5716 H 528.931 2.96937 -3.83476 0
M  V30 5717 H 524.81 3.65059 -2.81519 0
M  V30 5718 H 528.354 3.13998 -6.22937 0
M  V30 5719 H 524.251 3.82319 -5.20098 0
M  V30 5720 H 525.019 3.7498 -7.27552 0
M  V30 5721 N 527.682 1.05563 1.17022 0
M  V30 5722 C 528.63 0.653887 2.2322 0
M  V30 5723 C 529.624 -0.326642 1.66221 0
M  V30 5724 O 530.83 -0.192301 1.7897 0
M  V30 5725 H 527.205 0.193297 0.726733 0
M  V30 5726 H 529.176 1.5596 2.54399 0
M  V30 5727 C 527.925 0.0485434 3.47666 0
M  V30 5728 H 527.248 0.79413 3.91834 0
M  V30 5729 H 528.688 -0.195133 4.23551 0
M  V30 5730 C 527.147 -1.20583 3.14581 0
M  V30 5731 O 527.677 -2.29475 3.29703 0
M  V30 5732 N 525.883 -1.10493 2.68774 0
M  V30 5733 H 525.43 -0.218795 2.56669 0
M  V30 5734 H 525.388 -1.94507 2.47011 0
M  V30 5735 N 529.16 -1.33526 0.837174 0
M  V30 5736 C 530.07 -2.33023 0.271568 0
M  V30 5737 C 531.086 -1.63272 -0.601514 0
M  V30 5738 O 532.262 -1.94939 -0.506038 0
M  V30 5739 C 529.327 -3.42382 -0.545448 0
M  V30 5740 C 528.388 -4.27857 0.351709 0
M  V30 5741 C 527.621 -5.31994 -0.426409 0
M  V30 5742 O 527.844 -5.45763 -1.65828 0
M  V30 5743 O 526.778 -6.01572 0.1987 0
M  V30 5744 H 530.604 -2.83256 1.09545 0
M  V30 5745 H 528.189 -1.36837 0.599655 0
M  V30 5746 H 530.071 -4.09122 -1.00979 0
M  V30 5747 H 528.746 -2.94369 -1.34641 0
M  V30 5748 H 527.653 -3.6399 0.863853 0
M  V30 5749 H 528.986 -4.79349 1.1174 0
M  V30 5750 N 530.638 -0.59345 -1.46 0
M  V30 5751 C 531.884 -0.0832754 -2.02629 0
M  V30 5752 C 532.217 1.27749 -1.46266 0
M  V30 5753 O 531.492 1.8395 -0.631866 0
M  V30 5754 C 531.775 -0.0290756 -3.60088 0
M  V30 5755 C 531.628 -1.41951 -4.26814 0
M  V30 5756 C 532.947 0.666055 -4.35031 0
M  V30 5757 H 530.066 -0.031736 -0.736316 0
M  V30 5758 H 532.708 -0.762711 -1.74019 0
M  V30 5759 H 530.858 0.549532 -3.84594 0
M  V30 5760 H 532.53 -2.04411 -4.13538 0
M  V30 5761 H 530.773 -1.98422 -3.8576 0
M  V30 5762 H 531.444 -1.33395 -5.3564 0
M  V30 5763 H 533.92 0.174401 -4.15734 0
M  V30 5764 H 532.796 0.673041 -5.44758 0
M  V30 5765 H 533.057 1.72946 -4.06869 0
M  V30 5766 N 532.116 1.54067 -0.331816 0
M  V30 5767 C 533.344 2.05131 0.269996 0
M  V30 5768 C 533.759 1.20749 1.45138 0
M  V30 5769 O 533.116 0.240069 1.80914 0
M  V30 5770 C 533.167 3.54728 0.696456 0
M  V30 5771 O 532.888 4.35906 -0.43794 0
M  V30 5772 C 534.389 4.21916 1.36021 0
M  V30 5773 H 531.609 0.668807 0.0542042 0
M  V30 5774 H 534.153 1.98777 -0.4804 0
M  V30 5775 H 532.308 3.61342 1.39681 0
M  V30 5776 H 532.722 5.24404 -0.100334 0
M  V30 5777 H 534.196 5.28015 1.60947 0
M  V30 5778 H 534.673 3.73538 2.31011 0
M  V30 5779 H 535.279 4.19463 0.702212 0
M  V30 5780 N 533.594 0.0601682 1.57485 0
M  V30 5781 C 534.557 -0.896373 2.10945 0
M  V30 5782 C 535.557 -1.23402 1.03095 0
M  V30 5783 O 536.747 -1.16921 1.29132 0
M  V30 5784 C 533.879 -2.20346 2.60116 0
M  V30 5785 H 535.072 -0.432778 2.96761 0
M  V30 5786 H 532.625 -0.188372 1.55161 0
M  V30 5787 H 533.36 -2.71268 1.7772 0
M  V30 5788 H 533.145 -1.9714 3.38937 0
M  V30 5789 H 534.635 -2.88846 3.01592 0
M  V30 5790 N 535.072 -1.5615 -0.213296 0
M  V30 5791 C 536.3 -1.83638 -0.953139 0
M  V30 5792 C 536.715 -0.640362 -1.77609 0
M  V30 5793 O 536.072 0.391071 -1.78261 0
M  V30 5794 C 536.123 -3.09735 -1.86405 0
M  V30 5795 O 535.844 -4.24723 -1.07435 0
M  V30 5796 C 537.345 -3.5027 -2.71709 0
M  V30 5797 H 534.565 -0.610263 -0.278962 0
M  V30 5798 H 537.109 -2.03247 -0.226035 0
M  V30 5799 H 535.264 -2.92077 -2.545 0
M  V30 5800 H 535.678 -4.9641 -1.69343 0
M  V30 5801 H 537.152 -4.41515 -3.31313 0
M  V30 5802 H 537.629 -2.72406 -3.44516 0
M  V30 5803 H 538.235 -3.70396 -2.09015 0
M  V30 5804 N 536.55 0.480323 -1.50102 0
M  V30 5805 C 537.78 1.25475 -1.64133 0
M  V30 5806 C 538.188 1.8647 -0.320272 0
M  V30 5807 O 537.531 1.69561 0.70673 0
M  V30 5808 C 537.593 2.40996 -2.6676 0
M  V30 5809 C 537.257 2.00711 -4.10565 0
M  V30 5810 C 538.254 1.53492 -4.96725 0
M  V30 5811 C 535.939 2.09714 -4.56427 0
M  V30 5812 C 537.933 1.15806 -6.26792 0
M  V30 5813 C 535.62 1.7164 -5.86501 0
M  V30 5814 C 536.618 1.24763 -6.71508 0
M  V30 5815 O 536.306 0.872122 -7.99155 0
M  V30 5816 H 536.038 0.385983 -0.554971 0
M  V30 5817 H 538.592 0.580848 -1.97016 0
M  V30 5818 H 536.822 3.11528 -2.291 0
M  V30 5819 H 538.511 3.02981 -2.70106 0
M  V30 5820 H 539.277 1.45966 -4.62514 0
M  V30 5821 H 535.156 2.4515 -3.90413 0
M  V30 5822 H 538.7 0.791465 -6.93096 0
M  V30 5823 H 534.597 1.78822 -6.20236 0
M  V30 5824 H 535.365 1.00178 -8.12346 0
M  V30 5825 N 538.028 1.39524 0.732853 0
M  V30 5826 C 538.958 1.41153 1.86005 0
M  V30 5827 C 539.939 0.274614 1.67869 0
M  V30 5828 O 541.124 0.480745 1.88155 0
M  V30 5829 C 538.254 1.25638 3.23778 0
M  V30 5830 C 537.208 2.36752 3.56556 0
M  V30 5831 C 536.534 2.06326 4.93289 0
M  V30 5832 C 537.834 3.79069 3.5931 0
M  V30 5833 H 539.528 2.35484 1.84899 0
M  V30 5834 H 537.074 1.13348 0.888162 0
M  V30 5835 H 539.027 1.25398 4.0231 0
M  V30 5836 H 537.751 0.277772 3.25417 0
M  V30 5837 H 536.41 2.36213 2.80355 0
M  V30 5838 H 536.058 1.06897 4.9151 0
M  V30 5839 H 535.758 2.80757 5.16187 0
M  V30 5840 H 537.282 2.07739 5.74175 0
M  V30 5841 H 538.696 3.81526 4.27914 0
M  V30 5842 H 537.093 4.52878 3.93728 0
M  V30 5843 H 538.163 4.09893 2.59068 0
M  V30 5844 N 539.506 -0.963266 1.24736 0
M  V30 5845 C 540.436 -2.07628 1.06832 0
M  V30 5846 C 541.417 -1.70088 -0.0200566 0
M  V30 5847 O 542.602 -1.93636 0.147854 0
M  V30 5848 C 539.732 -3.40636 0.677069 0
M  V30 5849 C 538.686 -3.9215 1.71471 0
M  V30 5850 C 538.012 -5.21553 1.1784 0
M  V30 5851 C 539.312 -4.19493 3.11164 0
M  V30 5852 H 541.006 -2.22864 1.9993 0
M  V30 5853 H 538.552 -1.07093 0.96266 0
M  V30 5854 H 540.505 -4.17941 0.538792 0
M  V30 5855 H 539.229 -3.25313 -0.289612 0
M  V30 5856 H 537.888 -3.17005 1.84128 0
M  V30 5857 H 537.536 -5.02593 0.202195 0
M  V30 5858 H 537.236 -5.56988 1.87185 0
M  V30 5859 H 538.76 -6.01463 1.05233 0
M  V30 5860 H 540.174 -4.87487 3.01711 0
M  V30 5861 H 538.571 -4.66165 3.77902 0
M  V30 5862 H 539.641 -3.26097 3.58871 0
M  V30 5863 N 540.985 -1.06182 -1.16461 0
M  V30 5864 C 541.915 -0.692861 -2.22984 0
M  V30 5865 C 542.896 0.314122 -1.67174 0
M  V30 5866 O 544.081 0.189499 -1.93273 0
M  V30 5867 C 541.211 -0.07732 -3.47214 0
M  V30 5868 C 540.165 -1.01015 -4.15909 0
M  V30 5869 C 539.491 -0.257973 -5.34077 0
M  V30 5870 C 540.791 -2.33868 -4.67015 0
M  V30 5871 H 542.485 -1.58343 -2.54102 0
M  V30 5872 H 540.031 -0.76279 -1.22137 0
M  V30 5873 H 541.984 0.19266 -4.20959 0
M  V30 5874 H 540.708 0.848254 -3.15392 0
M  V30 5875 H 539.367 -1.26486 -3.44088 0
M  V30 5876 H 539.015 0.670684 -4.98509 0
M  V30 5877 H 538.715 -0.879638 -5.80979 0
M  V30 5878 H 540.239 0.00448788 -6.106 0
M  V30 5879 H 541.653 -2.1279 -5.32347 0
M  V30 5880 H 540.05 -2.91522 -5.24533 0
M  V30 5881 H 541.12 -2.97019 -3.83286 0
M  V30 5882 N 542.463 1.3308 -0.844243 0
M  V30 5883 C 543.711 1.97215 -0.441676 0
M  V30 5884 C 544.032 1.67185 1.0037 0
M  V30 5885 O 543.302 0.973588 1.69994 0
M  V30 5886 H 541.882 0.72959 -0.160335 0
M  V30 5887 H 544.544 1.62348 -1.07838 0
M  V30 5888 H 543.64 3.06698 -0.57815 0
M  V30 5889 N 543.941 0.601185 1.45683 0
M  V30 5890 C 545.357 0.264315 1.57396 0
M  V30 5891 C 545.557 -1.23324 1.59353 0
M  V30 5892 O 544.613 -2.01594 1.52039 0
M  V30 5893 C 545.926 0.929839 2.85962 0
M  V30 5894 C 547.474 0.905156 2.99626 0
M  V30 5895 C 547.949 1.55057 4.30954 0
M  V30 5896 N 549.44 1.51576 4.37697 0
M  V30 5897 C 550.175 1.98436 5.37969 0
M  V30 5898 N 549.671 2.53352 6.44813 0
M  V30 5899 N 551.464 1.89242 5.29286 0
M  V30 5900 H 543.615 1.57363 1.42656 0
M  V30 5901 H 545.878 0.658831 0.681649 0
M  V30 5902 H 545.584 1.98404 2.90394 0
M  V30 5903 H 545.458 0.449224 3.74515 0
M  V30 5904 H 547.845 -0.14048 2.94765 0
M  V30 5905 H 547.926 1.42397 2.12501 0
M  V30 5906 H 547.57 2.5955 4.36573 0
M  V30 5907 H 547.5 1.00682 5.16886 0
M  V30 5908 H 549.991 1.11452 3.61091 0
M  V30 5909 H 550.304 2.86918 7.17564 0
M  V30 5910 H 548.649 2.57388 6.45582 0
M  V30 5911 H 551.84 1.46083 4.44722 0
M  V30 5912 H 552.013 2.26075 6.07284 0
M  V30 5913 N 545.419 -1.53889 0.339982 0
M  V30 5914 C 546.366 -2.24902 -0.518452 0
M  V30 5915 C 547.336 -1.24593 -1.09844 0
M  V30 5916 O 548.521 -1.53317 -1.13572 0
M  V30 5917 C 545.661 -3.02262 -1.66529 0
M  V30 5918 C 544.774 -4.17418 -1.11295 0
M  V30 5919 C 543.909 -4.82273 -2.2268 0
M  V30 5920 C 542.948 -5.89503 -1.6478 0
M  V30 5921 N 542.085 -6.48153 -2.69893 0
M  V30 5922 H 546.925 -2.97853 0.0936579 0
M  V30 5923 H 544.462 -1.46986 0.0579924 0
M  V30 5924 H 546.42 -3.45371 -2.3404 0
M  V30 5925 H 545.05 -2.31614 -2.24844 0
M  V30 5926 H 544.102 -3.78976 -0.328886 0
M  V30 5927 H 545.414 -4.94554 -0.649414 0
M  V30 5928 H 544.568 -5.28435 -2.98063 0
M  V30 5929 H 543.307 -4.04552 -2.72376 0
M  V30 5930 H 542.312 -5.42728 -0.879004 0
M  V30 5931 H 543.537 -6.6913 -1.1594 0
M  V30 5932 H 541.483 -5.73298 -3.1885 0
M  V30 5933 H 541.4 -7.20752 -2.28151 0
M  V30 5934 H 542.668 -6.98968 -3.45056 0
M  V30 5935 N 546.897 -0.0685191 -1.57451 0
M  V30 5936 C 548.125 0.610462 -1.97689 0
M  V30 5937 C 548.54 1.63346 -0.946758 0
M  V30 5938 O 547.897 1.82377 0.0669868 0
M  V30 5939 C 547.948 1.28196 -3.38006 0
M  V30 5940 O 547.669 0.299906 -4.37072 0
M  V30 5941 C 549.17 2.04907 -3.931 0
M  V30 5942 H 546.39 0.165689 -0.650222 0
M  V30 5943 H 548.934 -0.139953 -2.04021 0
M  V30 5944 H 547.089 1.98348 -3.32771 0
M  V30 5945 H 547.503 0.78126 -5.18649 0
M  V30 5946 H 548.977 2.47287 -4.93511 0
M  V30 5947 H 549.454 2.9043 -3.29465 0
M  V30 5948 H 550.06 1.39629 -4.01726 0
M  V30 5949 N 548.375 1.56261 0.205012 0
M  V30 5950 C 549.285 1.96944 1.27476 0
M  V30 5951 C 550.301 0.875636 1.50362 0
M  V30 5952 O 551.477 1.18058 1.6317 0
M  V30 5953 C 548.542 2.29219 2.60115 0
M  V30 5954 C 547.603 3.52255 2.45387 0
M  V30 5955 C 546.836 3.8298 3.71701 0
M  V30 5956 O 547.059 3.15138 4.75441 0
M  V30 5957 O 545.993 4.76435 3.67823 0
M  V30 5958 H 549.819 2.88144 0.959527 0
M  V30 5959 H 547.404 1.43686 0.409217 0
M  V30 5960 H 549.286 2.51098 3.3842 0
M  V30 5961 H 547.961 1.4119 2.91285 0
M  V30 5962 H 546.868 3.35635 1.65227 0
M  V30 5963 H 548.201 4.40719 2.19152 0
M  V30 5964 N 549.853 -0.472356 1.50355 0
M  V30 5965 C 550.763 -1.59637 1.7191 0
M  V30 5966 C 551.779 -1.63247 0.602195 0
M  V30 5967 O 552.955 -1.81139 0.880369 0
M  V30 5968 C 550.02 -2.9586 1.80742 0
M  V30 5969 C 549.081 -3.02649 3.04471 0
M  V30 5970 C 548.314 -4.32374 3.12872 0
M  V30 5971 O 548.537 -5.22807 2.28099 0
M  V30 5972 O 547.471 -4.44728 4.05587 0
M  V30 5973 H 551.297 -1.44373 2.67189 0
M  V30 5974 H 548.882 -0.651717 1.34436 0
M  V30 5975 H 550.764 -3.7677 1.88739 0
M  V30 5976 H 549.439 -3.11325 0.88647 0
M  V30 5977 H 548.346 -2.20821 3.01975 0
M  V30 5978 H 549.679 -2.92119 3.9614 0
M  V30 5979 N 551.331 -1.39911 -0.725443 0
M  V30 5980 C 552.579 -1.37382 -1.48224 0
M  V30 5981 C 552.9 0.0264107 -1.94982 0
M  V30 5982 O 552.17 0.979408 -1.6966 0
M  V30 5983 H 550.75 -0.505596 -0.549892 0
M  V30 5984 H 553.412 -1.7487 -0.860608 0
M  V30 5985 H 552.508 -2.04254 -2.3598 0
M  V30 5986 N 552.809 0.956637 -1.25245 0
M  V30 5987 C 554.057 1.69764 -1.09657 0
M  V30 5988 C 554.378 1.91583 0.363464 0
M  V30 5989 O 553.648 1.50149 1.25825 0
M  V30 5990 H 552.228 0.629097 -0.402798 0
M  V30 5991 H 554.89 1.15026 -1.57337 0
M  V30 5992 H 553.986 2.67769 -1.60331 0
M  V30 5993 N 554.287 1.06798 1.15896 0
M  V30 5994 C 555.564 0.701057 1.82605 0
M  V30 5995 C 555.944 -0.817066 1.94646 0
M  V30 5996 O 555.292 -1.72933 1.49353 0
M  V30 5997 C 555.502 1.40895 3.19296 0
M  V30 5998 C 556.85 1.55744 3.95005 0
M  V30 5999 O 557.874 1.36927 3.28831 0
M  V30 6000 O 556.733 1.86658 5.13635 0
M  V30 6001 H 553.827 0.248791 0.78869 0
M  V30 6002 H 556.373 1.16857 1.23055 0
M  V30 6003 H 555.145 2.4439 3.05596 0
M  V30 6004 H 554.768 0.931847 3.86526 0
M  V30 6005 N 555.766 -1.3263 0.851289 0
M  V30 6006 C 557.182 -1.50162 0.5407 0
M  V30 6007 C 557.382 -1.78788 -0.929369 0
M  V30 6008 O 556.438 -1.85545 -1.71258 0
M  V30 6009 C 557.751 -2.64803 1.42478 0
M  V30 6010 C 559.299 -2.78688 1.42485 0
M  V30 6011 C 559.774 -3.96405 2.29407 0
M  V30 6012 N 561.265 -4.0366 2.27184 0
M  V30 6013 C 562 -4.93971 2.9117 0
M  V30 6014 N 561.496 -5.89313 3.64256 0
M  V30 6015 N 563.289 -4.87066 2.80576 0
M  V30 6016 H 555.44 -1.12315 1.80275 0
M  V30 6017 H 557.703 -0.553266 0.769806 0
M  V30 6018 H 557.409 -2.50368 2.46999 0
M  V30 6019 H 557.283 -3.60506 1.10974 0
M  V30 6020 H 559.67 -2.92547 0.387304 0
M  V30 6021 H 559.751 -1.83708 1.78002 0
M  V30 6022 H 559.395 -3.83304 3.33228 0
M  V30 6023 H 559.325 -4.90654 1.91224 0
M  V30 6024 H 561.816 -3.35435 1.74045 0
M  V30 6025 H 562.129 -6.54913 4.10255 0
M  V30 6026 H 560.474 -5.8935 3.68364 0
M  V30 6027 H 563.665 -4.11552 2.23031 0
M  V30 6028 H 563.838 -5.57248 3.30725 0
M  V30 6029 N 557.244 -0.608902 -1.45362 0
M  V30 6030 C 558.492 -0.104401 -2.0183 0
M  V30 6031 C 558.813 1.27007 -1.47967 0
M  V30 6032 O 558.083 1.83924 -0.674455 0
M  V30 6033 H 556.663 -0.0356042 -0.746151 0
M  V30 6034 H 559.325 -0.790596 -1.78145 0
M  V30 6035 H 558.421 -0.0551793 -3.12051 0
M  V30 6036 N 558.722 1.53707 -0.348139 0
M  V30 6037 C 559.685 2.23812 0.494058 0
M  V30 6038 C 560.685 1.23989 1.02388 0
M  V30 6039 O 561.875 1.48395 0.912396 0
M  V30 6040 C 559.007 2.96133 1.68872 0
M  V30 6041 H 560.2 2.99663 -0.119141 0
M  V30 6042 H 557.753 1.55983 -0.0995539 0
M  V30 6043 H 558.488 2.24481 2.34049 0
M  V30 6044 H 558.273 3.69357 1.31596 0
M  V30 6045 H 559.763 3.49475 2.28597 0
M  V30 6046 N 560.2 0.0768682 1.57412 0
M  V30 6047 C 561.611 -0.455037 1.8107 0
M  V30 6048 C 561.962 -1.69323 0.991162 0
M  V30 6049 O 561.087 -2.15328 0.215156 0
M  V30 6050 C 561.682 -0.832316 3.28417 0
M  V30 6051 C 560.241 -1.30906 3.52903 0
M  V30 6052 C 559.388 -0.296714 2.75708 0
M  V30 6053 H 562.339 0.302514 1.5579 0
M  V30 6054 H 562.36 -1.69333 3.40744 0
M  V30 6055 H 561.872 0.0690532 3.88039 0
M  V30 6056 H 559.973 -2.22875 2.98592 0
M  V30 6057 H 560.086 -1.28348 4.61588 0
M  V30 6058 H 558.45 -0.775059 2.42621 0
M  V30 6059 H 559.233 0.597015 3.38069 0
M  V30 6060 N 561.678 -1.56367 -0.196722 0
M  V30 6061 C 562.926 -1.80172 -0.915554 0
M  V30 6062 C 563.247 -0.649649 -1.8386 0
M  V30 6063 O 562.517 0.332111 -1.93064 0
M  V30 6064 H 561.097 -0.664592 -0.341067 0
M  V30 6065 H 563.759 -1.93844 -0.202622 0
M  V30 6066 H 562.855 -2.7327 -1.50764 0
M  V30 6067 N 563.156 0.464375 -1.50603 0
M  V30 6068 C 564.086 1.56944 -1.72889 0
M  V30 6069 C 565.067 1.59979 -0.577997 0
M  V30 6070 O 566.252 1.76138 -0.817855 0
M  V30 6071 C 563.382 2.95225 -1.8292 0
M  V30 6072 C 562.336 3.07056 -2.98162 0
M  V30 6073 C 561.662 4.47051 -2.93343 0
M  V30 6074 C 562.962 2.83648 -4.38567 0
M  V30 6075 H 564.656 1.38547 -2.65415 0
M  V30 6076 H 562.202 0.665082 -1.27721 0
M  V30 6077 H 564.155 3.72467 -1.97095 0
M  V30 6078 H 562.879 3.14793 -0.870209 0
M  V30 6079 H 561.538 2.32248 -2.83648 0
M  V30 6080 H 561.186 4.63547 -1.95276 0
M  V30 6081 H 560.886 4.55902 -3.70712 0
M  V30 6082 H 562.41 5.26304 -3.09575 0
M  V30 6083 H 563.824 3.50636 -4.53572 0
M  V30 6084 H 562.221 3.03937 -5.17438 0
M  V30 6085 H 563.291 1.79451 -4.50472 0
M  V30 6086 N 564.634 1.40294 0.718013 0
M  V30 6087 C 565.597 1.4012 1.81381 0
M  V30 6088 C 566.597 0.295405 1.58063 0
M  V30 6089 O 567.787 0.554187 1.6515 0
M  V30 6090 C 564.919 1.19056 3.19435 0
M  V30 6091 H 566.112 2.37645 1.82933 0
M  V30 6092 H 563.665 1.26107 0.923405 0
M  V30 6093 H 564.4 0.222809 3.23534 0
M  V30 6094 H 564.185 1.99152 3.37758 0
M  V30 6095 H 565.675 1.21716 3.99468 0
M  V30 6096 N 566.112 -0.949982 1.2575 0
M  V30 6097 C 567.042 -2.06483 1.09028 0
M  V30 6098 C 568.023 -1.701 -0.00201532 0
M  V30 6099 O 569.208 -1.93469 0.168383 0
M  V30 6100 C 566.338 -3.39899 0.71316 0
M  V30 6101 C 565.292 -3.90309 1.75621 0
M  V30 6102 C 564.618 -5.20274 1.23365 0
M  V30 6103 C 565.918 -4.16169 3.15596 0
M  V30 6104 H 567.612 -2.20731 2.02283 0
M  V30 6105 H 565.158 -1.06066 0.973964 0
M  V30 6106 H 567.111 -4.17346 0.58309 0
M  V30 6107 H 565.835 -3.25602 -0.255091 0
M  V30 6108 H 564.494 -3.15035 1.8748 0
M  V30 6109 H 564.142 -5.02351 0.255491 0
M  V30 6110 H 563.842 -5.54971 1.93082 0
M  V30 6111 H 565.366 -6.00314 1.11607 0
M  V30 6112 H 566.78 -4.84259 3.06864 0
M  V30 6113 H 565.177 -4.62131 3.82825 0
M  V30 6114 H 566.247 -3.22273 3.6231 0
M  V30 6115 N 567.59 -1.07411 -1.15328 0
M  V30 6116 C 568.553 -0.698914 -2.18284 0
M  V30 6117 C 569.553 0.261149 -1.58665 0
M  V30 6118 O 570.743 0.0420277 -1.74149 0
M  V30 6119 C 567.875 -0.0302427 -3.40887 0
M  V30 6120 H 569.068 -1.61045 -2.52991 0
M  V30 6121 H 566.621 -0.870724 -1.298 0
M  V30 6122 H 567.356 0.893505 -3.11748 0
M  V30 6123 H 567.141 -0.720759 -3.85419 0
M  V30 6124 H 568.631 0.21759 -4.17033 0
M  V30 6125 N 569.068 1.32177 -0.85831 0
M  V30 6126 C 570.484 1.49873 -0.548656 0
M  V30 6127 C 570.684 1.79278 0.919874 0
M  V30 6128 O 569.74 1.86451 1.70271 0
M  V30 6129 C 571.053 2.64043 -1.4388 0
M  V30 6130 C 572.601 2.77928 -1.43961 0
M  V30 6131 C 573.076 3.95182 -2.31506 0
M  V30 6132 N 574.567 4.0245 -2.29321 0
M  V30 6133 C 575.302 4.9242 -2.93786 0
M  V30 6134 N 574.798 5.87373 -3.67376 0
M  V30 6135 N 576.591 4.85572 -2.83155 0
M  V30 6136 H 568.742 1.11357 -1.80868 0
M  V30 6137 H 571.005 0.549175 -0.772729 0
M  V30 6138 H 570.711 2.49055 -2.48324 0
M  V30 6139 H 570.585 3.59912 -1.12885 0
M  V30 6140 H 572.972 2.92338 -0.402813 0
M  V30 6141 H 573.053 1.82762 -1.78974 0
M  V30 6142 H 572.697 3.81531 -3.35256 0
M  V30 6143 H 572.627 4.89633 -1.93823 0
M  V30 6144 H 575.118 3.34507 -1.75822 0
M  V30 6145 H 575.431 6.52728 -4.13722 0
M  V30 6146 H 573.776 5.87388 -3.71484 0
M  V30 6147 H 576.967 4.10363 -2.25211 0
M  V30 6148 H 577.14 5.55486 -3.33676 0
M  V30 6149 N 570.547 0.616602 1.45037 0
M  V30 6150 C 571.793 0.115501 2.02471 0
M  V30 6151 C 572.126 -1.25406 1.4828 0
M  V30 6152 O 571.401 -1.82922 0.661051 0
M  V30 6153 C 571.684 0.0863588 3.59996 0
M  V30 6154 C 571.537 1.48723 4.24501 0
M  V30 6155 C 572.856 -0.596762 4.36035 0
M  V30 6156 H 569.975 0.0434461 0.735718 0
M  V30 6157 H 572.617 0.7903 1.72784 0
M  V30 6158 H 570.767 -0.488277 3.85419 0
M  V30 6159 H 572.439 2.10964 4.10234 0
M  V30 6160 H 570.682 2.04534 3.82555 0
M  V30 6161 H 571.353 1.419 5.3345 0
M  V30 6162 H 573.829 -0.10824 4.15959 0
M  V30 6163 H 572.705 -0.586289 5.4576 0
M  V30 6164 H 572.966 -1.66451 4.09569 0
M  V30 6165 N 572.025 -1.5352 0.356285 0
M  V30 6166 C 573.441 -1.59599 0.00485267 0
M  V30 6167 C 573.641 -1.37179 -1.47595 0
M  V30 6168 O 572.697 -1.17234 -2.23635 0
M  V30 6169 C 574.01 -2.97277 0.452454 0
M  V30 6170 C 575.558 -3.10357 0.405881 0
M  V30 6171 C 576.033 -4.50432 0.829148 0
M  V30 6172 N 577.524 -4.5652 0.783838 0
M  V30 6173 C 578.259 -5.63077 1.08315 0
M  V30 6174 N 577.755 -6.77429 1.45126 0
M  V30 6175 N 579.548 -5.53014 1.00655 0
M  V30 6176 H 571.699 -1.66346 1.32071 0
M  V30 6177 H 573.962 -0.77971 0.539218 0
M  V30 6178 H 573.668 -3.18792 1.48542 0
M  V30 6179 H 573.542 -3.76836 -0.165762 0
M  V30 6180 H 575.929 -2.88558 -0.617934 0
M  V30 6181 H 576.01 -2.32828 1.05947 0
M  V30 6182 H 575.654 -4.72968 1.85103 0
M  V30 6183 H 575.584 -5.26378 0.152906 0
M  V30 6184 H 578.075 -3.74408 0.512513 0
M  V30 6185 H 578.388 -7.54669 1.66415 0
M  V30 6186 H 576.733 -6.78844 1.48983 0
M  V30 6187 H 579.924 -4.62557 0.718215 0
M  V30 6188 H 580.097 -6.35964 1.24315 0
M  V30 6189 N 573.503 -0.0852151 -1.57369 0
M  V30 6190 C 574.466 0.8627 -2.12344 0
M  V30 6191 C 575.466 1.21746 -1.05046 0
M  V30 6192 O 576.656 1.14852 -1.30976 0
M  V30 6193 C 573.788 2.1618 -2.63589 0
M  V30 6194 H 574.981 0.385511 -2.97412 0
M  V30 6195 H 572.534 0.163663 -1.55441 0
M  V30 6196 H 573.269 2.68406 -1.82013 0
M  V30 6197 H 573.054 1.91723 -3.4203 0
M  V30 6198 H 574.544 2.84011 -3.06149 0
M  V30 6199 N 574.981 1.5647 0.188427 0
M  V30 6200 C 576.392 1.70864 0.752494 0
M  V30 6201 C 576.743 0.692905 1.83557 0
M  V30 6202 O 575.868 -0.149307 2.15884 0
M  V30 6203 C 576.463 3.09789 1.37173 0
M  V30 6204 C 575.022 3.25925 1.88281 0
M  V30 6205 C 574.169 2.66817 0.755259 0
M  V30 6206 H 577.12 1.58657 -0.0367408 0
M  V30 6207 H 577.141 3.07489 2.24122 0
M  V30 6208 H 576.653 3.83693 0.583219 0
M  V30 6209 H 574.754 2.56948 2.6983 0
M  V30 6210 H 574.867 4.33498 2.04001 0
M  V30 6211 H 573.231 2.2617 1.17128 0
M  V30 6212 H 574.014 3.43294 -0.0211237 0
M  V30 6213 N 576.459 -0.456382 1.50847 0
M  V30 6214 C 577.684 -1.2349 1.66628 0
M  V30 6215 C 578.109 -1.84715 0.355254 0
M  V30 6216 O 577.467 -1.67961 -0.682559 0
M  V30 6217 C 577.515 -2.30865 2.77009 0
M  V30 6218 O 576.619 -3.35882 2.39285 0
M  V30 6219 H 575.96 -0.36266 0.556214 0
M  V30 6220 H 578.49 -0.541374 1.97308 0
M  V30 6221 H 578.5 -2.75949 3.00526 0
M  V30 6222 H 577.175 -1.85677 3.72152 0
M  V30 6223 H 575.752 -2.96406 2.26269 0
M  V30 6224 N 577.937 -1.40673 -0.710563 0
M  V30 6225 C 579.214 -1.29718 -1.46398 0
M  V30 6226 C 579.594 0.082177 -2.1094 0
M  V30 6227 O 578.942 1.09536 -2.00534 0
M  V30 6228 C 579.152 -2.43967 -2.49562 0
M  V30 6229 C 580.5 -2.84436 -3.15248 0
M  V30 6230 O 581.524 -2.43597 -2.59883 0
M  V30 6231 O 580.383 -3.55008 -4.1549 0
M  V30 6232 H 577.477 -0.509697 -0.651258 0
M  V30 6233 H 580.023 -1.52603 -0.742312 0
M  V30 6234 H 578.795 -3.36076 -2.0042 0
M  V30 6235 H 578.418 -2.22879 -3.29258 0
M  V30 6236 N 579.415 0.9433 -1.26252 0
M  V30 6237 C 580.643 1.72367 -1.14443 0
M  V30 6238 C 581.058 1.86392 0.300572 0
M  V30 6239 O 580.415 1.36978 1.20596 0
M  V30 6240 C 580.466 3.13155 -1.806 0
M  V30 6241 O 580.187 2.99803 -3.19452 0
M  V30 6242 C 581.688 4.07417 -1.74717 0
M  V30 6243 H 578.908 0.539758 -0.398626 0
M  V30 6244 H 581.452 1.18268 -1.66832 0
M  V30 6245 H 579.607 3.64162 -1.32154 0
M  V30 6246 H 580.021 3.88697 -3.52158 0
M  V30 6247 H 581.495 5.03773 -2.25647 0
M  V30 6248 H 581.972 4.3337 -0.713244 0
M  V30 6249 H 582.578 3.6233 -2.22704 0
M  V30 6250 N 580.893 1.08022 1.14757 0
M  V30 6251 C 582.121 0.828847 1.89572 0
M  V30 6252 C 582.536 -0.618621 1.78377 0
M  V30 6253 O 581.893 -1.42482 1.1404 0
M  V30 6254 C 581.944 1.23677 3.39685 0
M  V30 6255 O 581.665 2.62746 3.50566 0
M  V30 6256 C 583.166 1.01569 4.31507 0
M  V30 6257 H 580.386 0.299196 0.600602 0
M  V30 6258 H 582.93 1.43846 1.45357 0
M  V30 6259 H 581.085 0.671347 3.81539 0
M  V30 6260 H 581.499 2.79573 4.43778 0
M  V30 6261 H 582.973 1.35055 5.35223 0
M  V30 6262 H 583.45 -0.0475433 4.39174 0
M  V30 6263 H 584.056 1.56636 3.95405 0
M  V30 6264 N 582.371 -1.3172 0.865308 0
M  V30 6265 C 583.319 -2.30569 0.306674 0
M  V30 6266 C 584.313 -1.59317 -0.575724 0
M  V30 6267 O 585.519 -1.73961 -0.462343 0
M  V30 6268 H 581.894 -0.747681 0.0804834 0
M  V30 6269 H 583.865 -2.75165 1.15441 0
M  V30 6270 C 582.614 -3.44358 -0.480952 0
M  V30 6271 H 581.937 -3.99354 0.18876 0
M  V30 6272 H 583.377 -4.15652 -0.837241 0
M  V30 6273 C 581.836 -2.92574 -1.67039 0
M  V30 6274 O 582.366 -2.90954 -2.76964 0
M  V30 6275 N 580.572 -2.48835 -1.50097 0
M  V30 6276 H 580.119 -2.50353 -0.606738 0
M  V30 6277 H 580.077 -2.14543 -2.29823 0
M  V30 6278 N 583.85 -0.624285 -1.44708 0
M  V30 6279 C 585.098 -0.125802 -2.01708 0
M  V30 6280 C 585.418 1.2543 -1.49306 0
M  V30 6281 O 584.689 1.83198 -0.693924 0
M  V30 6282 H 583.269 -0.0435161 -0.745731 0
M  V30 6283 H 585.931 -0.809446 -1.77296 0
M  V30 6284 H 585.027 -0.0882734 -3.11975 0
M  V30 6285 N 585.328 1.53329 -0.364422 0
M  V30 6286 C 586.556 2.05657 0.226424 0
M  V30 6287 C 586.971 1.23801 1.42544 0
M  V30 6288 O 586.328 0.27839 1.80364 0
M  V30 6289 C 586.379 3.56125 0.621056 0
M  V30 6290 O 586.1 4.34879 -0.530304 0
M  V30 6291 C 587.601 4.24706 1.27041 0
M  V30 6292 H 584.821 0.669806 0.0400056 0
M  V30 6293 H 587.365 1.97714 -0.522456 0
M  V30 6294 H 585.52 3.64223 1.31985 0
M  V30 6295 H 585.934 5.24073 -0.211546 0
M  V30 6296 H 587.408 5.3131 1.49711 0
M  V30 6297 H 587.885 3.78354 2.23036 0
M  V30 6298 H 588.491 4.20858 0.613079 0
M  V30 6299 N 586.806 0.0935595 1.57322 0
M  V30 6300 C 588.031 -0.582324 1.99057 0
M  V30 6301 C 588.456 -1.61025 0.972242 0
M  V30 6302 O 587.814 -1.81202 -0.0594622 0
M  V30 6303 C 587.862 -1.20799 3.39765 0
M  V30 6304 O 586.966 -2.32382 3.40694 0
M  V30 6305 H 586.307 -0.147884 0.647323 0
M  V30 6306 H 588.837 0.174516 2.03854 0
M  V30 6307 H 588.847 -1.54966 3.77425 0
M  V30 6308 H 587.522 -0.454914 4.13405 0
M  V30 6309 H 586.099 -1.99845 3.14827 0
M  V30 6310 N 588.284 -1.56567 -0.180126 0
M  V30 6311 C 589.509 -1.85975 -0.918041 0
M  V30 6312 C 589.934 -0.678888 -1.75422 0
M  V30 6313 O 589.292 0.372168 -1.77439 0
M  V30 6314 C 589.34 -3.13731 -1.77779 0
M  V30 6315 O 588.444 -2.95335 -2.87838 0
M  V30 6316 H 587.785 -0.61196 -0.257683 0
M  V30 6317 H 590.315 -2.03798 -0.180923 0
M  V30 6318 H 590.325 -3.4491 -2.17948 0
M  V30 6319 H 589 -3.99293 -1.16352 0
M  V30 6320 H 587.577 -2.7549 -2.51316 0
M  V30 6321 N 589.762 0.448376 -1.51087 0
M  V30 6322 C 590.987 1.22605 -1.6728 0
M  V30 6323 C 591.412 1.84524 -0.365045 0
M  V30 6324 O 590.77 1.6832 0.673642 0
M  V30 6325 C 590.818 2.29393 -2.78229 0
M  V30 6326 O 589.922 3.34608 -2.41063 0
M  V30 6327 H 589.263 0.359705 -0.558129 0
M  V30 6328 H 591.793 0.530903 -1.97592 0
M  V30 6329 H 591.803 2.74352 -3.01986 0
M  V30 6330 H 590.478 1.83701 -3.73131 0
M  V30 6331 H 589.055 2.95202 -2.27838 0
M  V30 6332 N 591.24 1.41047 0.703093 0
M  V30 6333 C 592.187 1.42302 1.81711 0
M  V30 6334 C 593.157 0.278336 1.63751 0
M  V30 6335 O 594.342 0.478266 1.84709 0
M  V30 6336 C 591.482 1.30362 3.19531 0
M  V30 6337 C 590.595 2.54638 3.48975 0
M  V30 6338 C 589.73 2.35047 4.76368 0
M  V30 6339 C 588.769 3.54837 4.98756 0
M  V30 6340 N 587.906 3.34363 6.1737 0
M  V30 6341 H 592.746 2.37516 1.79973 0
M  V30 6342 H 590.283 1.1795 0.878983 0
M  V30 6343 H 592.241 1.21443 3.99134 0
M  V30 6344 H 590.871 0.387602 3.20464 0
M  V30 6345 H 589.923 2.74037 2.63833 0
M  V30 6346 H 591.235 3.43766 3.61423 0
M  V30 6347 H 590.389 2.23552 5.64012 0
M  V30 6348 H 589.128 1.43363 4.66153 0
M  V30 6349 H 588.133 3.66795 4.09563 0
M  V30 6350 H 589.358 4.47464 5.10835 0
M  V30 6351 H 587.304 2.45373 6.08382 0
M  V30 6352 H 587.221 4.17063 6.30551 0
M  V30 6353 H 588.489 3.26626 7.07768 0
M  V30 6354 N 592.718 -0.936591 1.26751 0
M  V30 6355 C 593.966 -1.67998 1.12343 0
M  V30 6356 C 594.287 -1.92137 -0.332938 0
M  V30 6357 O 593.557 -1.52132 -1.23421 0
M  V30 6358 H 592.137 -0.622609 0.412756 0
M  V30 6359 H 594.799 -1.12509 1.59147 0
M  V30 6360 H 593.895 -2.65185 1.64571 0
M  V30 6361 N 594.196 -1.08629 -1.14182 0
M  V30 6362 C 595.424 -0.838889 -1.8913 0
M  V30 6363 C 595.839 0.609153 -1.78703 0
M  V30 6364 O 595.196 1.41876 -1.14794 0
M  V30 6365 C 595.247 -1.25477 -3.39025 0
M  V30 6366 O 594.968 -2.64601 -3.49167 0
M  V30 6367 C 596.469 -1.03856 -4.30963 0
M  V30 6368 H 593.689 -0.302377 -0.599007 0
M  V30 6369 H 596.233 -1.44615 -1.44592 0
M  V30 6370 H 594.388 -0.691571 -3.81177 0
M  V30 6371 H 594.802 -2.81922 -4.42289 0
M  V30 6372 H 596.276 -1.37892 -5.345 0
M  V30 6373 H 596.753 0.0242522 -4.39193 0
M  V30 6374 H 597.359 -1.58731 -3.94569 0
M  V30 6375 N 595.674 1.31259 -0.872281 0
M  V30 6376 C 596.899 2.0133 -0.498099 0
M  V30 6377 C 597.324 1.65031 0.902568 0
M  V30 6378 O 596.682 0.860164 1.59596 0
M  V30 6379 C 596.73 3.54411 -0.665205 0
M  V30 6380 O 595.834 4.11347 0.294473 0
M  V30 6381 H 595.175 0.633844 -0.197832 0
M  V30 6382 H 597.705 1.67402 -1.17633 0
M  V30 6383 H 597.715 4.04147 -0.559373 0
M  V30 6384 H 596.39 3.80171 -1.68651 0
M  V30 6385 H 594.967 3.72624 0.143403 0
M  V30 6386 N 597.152 0.631951 1.44375 0
M  V30 6387 C 598.102 -0.0943862 2.27805 0
M  V30 6388 C 599.086 -0.815359 1.38711 0
M  V30 6389 O 600.278 -0.701331 1.62513 0
M  V30 6390 C 597.407 -1.07472 3.26044 0
M  V30 6391 C 596.493 -0.353329 4.22626 0
M  V30 6392 N 596.884 0.618512 5.02004 0
M  V30 6393 C 595.182 -0.597662 4.41977 0
M  V30 6394 C 595.883 1.0448 5.7224 0
M  V30 6395 N 594.859 0.383413 5.42246 0
M  V30 6396 H 598.661 0.651672 2.86584 0
M  V30 6397 H 596.175 0.45752 1.55822 0
M  V30 6398 H 598.172 -1.60969 3.84571 0
M  V30 6399 H 596.832 -1.82107 2.68825 0
M  V30 6400 H 597.843 0.996356 5.08226 0
M  V30 6401 H 594.52 -1.32682 3.95856 0
M  V30 6402 H 595.91 1.84773 6.45994 0
M  V30 6403 N 598.631 -1.53133 0.372548 0
M  V30 6404 C 599.856 -2.0625 -0.218098 0
M  V30 6405 C 600.281 -1.24375 -1.41111 0
M  V30 6406 O 599.639 -0.264554 -1.79359 0
M  V30 6407 C 599.687 -3.55858 -0.582876 0
M  V30 6408 O 598.791 -3.76667 -1.67917 0
M  V30 6409 H 598.132 -0.663317 -0.030104 0
M  V30 6410 H 600.662 -1.97477 0.535169 0
M  V30 6411 H 600.672 -3.99007 -0.851925 0
M  V30 6412 H 599.347 -4.14892 0.289428 0
M  V30 6413 H 597.924 -3.45413 -1.40513 0
M  V30 6414 N 600.109 -0.101901 -1.5727 0
M  V30 6415 C 601.056 0.854577 -2.14396 0
M  V30 6416 C 602.026 1.27521 -1.06432 0
M  V30 6417 O 603.211 1.35575 -1.34253 0
M  V30 6418 C 600.351 2.10576 -2.73408 0
M  V30 6419 C 599.464 1.73504 -3.95626 0
M  V30 6420 C 598.599 2.9346 -4.42781 0
M  V30 6421 C 597.638 2.52547 -5.57572 0
M  V30 6422 N 596.775 3.65359 -5.99547 0
M  V30 6423 H 601.615 0.360578 -2.9581 0
M  V30 6424 H 599.152 0.166303 -1.46157 0
M  V30 6425 H 601.11 2.83859 -3.05745 0
M  V30 6426 H 599.74 2.57463 -1.94711 0
M  V30 6427 H 598.792 0.901622 -3.6956 0
M  V30 6428 H 600.104 1.39426 -4.78917 0
M  V30 6429 H 599.258 3.74988 -4.76937 0
M  V30 6430 H 597.997 3.30753 -3.58404 0
M  V30 6431 H 597.002 1.69446 -5.23037 0
M  V30 6432 H 598.227 2.1639 -6.43702 0
M  V30 6433 H 596.173 4.02358 -5.18116 0
M  V30 6434 H 596.09 3.35148 -6.77652 0
M  V30 6435 H 597.358 4.47378 -6.38336 0
M  V30 6436 N 601.587 1.56661 0.17182 0
M  V30 6437 C 602.835 1.81606 0.886774 0
M  V30 6438 C 603.156 0.678818 1.82803 0
M  V30 6439 O 602.426 -0.301354 1.93568 0
M  V30 6440 H 601.006 0.669934 0.330451 0
M  V30 6441 H 603.668 1.94142 0.171757 0
M  V30 6442 H 602.764 2.75634 1.46398 0
M  V30 6443 N 603.065 -0.440357 1.51323 0
M  V30 6444 C 603.997 -1.55254 1.68609 0
M  V30 6445 C 605.01 -1.52614 0.566812 0
M  V30 6446 O 606.199 -1.57445 0.841032 0
M  V30 6447 C 603.299 -2.94169 1.68279 0
M  V30 6448 C 602.472 -3.21346 2.96742 0
M  V30 6449 C 601.531 -4.3997 2.8864 0
M  V30 6450 O 600.557 -4.38771 3.62586 0
M  V30 6451 N 601.759 -5.43367 2.04285 0
M  V30 6452 H 604.524 -1.40831 2.6455 0
M  V30 6453 H 602.085 -0.629251 1.49171 0
M  V30 6454 H 604.077 -3.71543 1.60431 0
M  V30 6455 H 602.647 -3.02205 0.799441 0
M  V30 6456 H 601.867 -2.32299 3.18482 0
M  V30 6457 H 603.155 -3.3633 3.81785 0
M  V30 6458 H 602.553 -5.47176 1.43578 0
M  V30 6459 H 601.11 -6.19605 2.02318 0
M  V30 6460 N 604.543 -1.41418 -0.695603 0
M  V30 6461 C 605.959 -1.23887 -1.00619 0
M  V30 6462 C 606.159 -0.128206 -2.01092 0
M  V30 6463 O 605.215 0.507408 -2.47349 0
M  V30 6464 C 606.528 -2.58816 -1.53083 0
M  V30 6465 C 608.076 -2.65998 -1.64967 0
M  V30 6466 C 608.551 -4.01244 -2.20833 0
M  V30 6467 N 610.042 -4.0309 -2.28194 0
M  V30 6468 C 610.777 -5.04539 -2.72448 0
M  V30 6469 N 610.273 -6.16378 -3.16306 0
M  V30 6470 N 612.066 -4.91901 -2.72011 0
M  V30 6471 H 604.217 -2.12379 -0.0300061 0
M  V30 6472 H 606.48 -0.944958 -0.0758797 0
M  V30 6473 H 606.186 -3.40842 -0.867147 0
M  V30 6474 H 606.06 -2.81299 -2.51298 0
M  V30 6475 H 608.447 -1.84331 -2.30448 0
M  V30 6476 H 608.528 -2.47325 -0.652982 0
M  V30 6477 H 608.172 -4.83359 -1.55968 0
M  V30 6478 H 608.102 -4.17257 -3.21254 0
M  V30 6479 H 610.593 -3.22341 -1.97242 0
M  V30 6480 H 610.906 -6.89658 -3.487 0
M  V30 6481 H 609.251 -6.19914 -3.14215 0
M  V30 6482 H 612.442 -4.03613 -2.37095 0
M  V30 6483 H 612.615 -5.71102 -3.06181 0
M  V30 6484 N 606.021 0.929856 -1.27246 0
M  V30 6485 C 607.246 1.71674 -1.16374 0
M  V30 6486 C 607.671 1.86064 0.276024 0
M  V30 6487 O 607.029 1.3591 1.19992 0
M  V30 6488 C 607.077 3.09526 -1.85003 0
M  V30 6489 O 606.181 3.96142 -1.14653 0
M  V30 6490 H 605.522 0.52629 -0.404863 0
M  V30 6491 H 608.052 1.16381 -1.68276 0
M  V30 6492 H 608.062 3.59852 -1.92276 0
M  V30 6493 H 606.737 2.98369 -2.89739 0
M  V30 6494 H 605.314 3.54584 -1.15433 0
M  V30 6495 N 607.499 1.09233 1.13605 0
M  V30 6496 C 608.724 0.849067 1.89224 0
M  V30 6497 C 609.149 -0.593875 1.78479 0
M  V30 6498 O 608.507 -1.41703 1.13092 0
M  V30 6499 C 608.555 1.28642 3.36873 0
M  V30 6500 O 607.659 0.44363 4.10007 0
M  V30 6501 H 607 0.30767 0.588417 0
M  V30 6502 H 609.53 1.45595 1.43748 0
M  V30 6503 H 609.54 1.27096 3.87699 0
M  V30 6504 H 608.215 2.33729 3.44011 0
M  V30 6505 H 606.792 0.523241 3.69211 0
M  V30 6506 N 608.977 -1.30795 0.87923 0
M  V30 6507 C 610.202 -2.01063 0.508769 0
M  V30 6508 C 610.627 -1.65508 -0.893803 0
M  V30 6509 O 609.985 -0.868616 -1.59138 0
M  V30 6510 C 610.033 -3.54054 0.683991 0
M  V30 6511 O 609.137 -4.11498 -0.272654 0
M  V30 6512 H 608.478 -0.632786 0.201191 0
M  V30 6513 H 611.008 -1.66776 1.18519 0
M  V30 6514 H 611.018 -4.03845 0.580798 0
M  V30 6515 H 609.693 -3.79271 1.70665 0
M  V30 6516 H 608.27 -3.72695 -0.12364 0
M  V30 6517 N 610.455 -0.639598 -1.44038 0
M  V30 6518 C 611.68 -0.153117 -2.06834 0
M  V30 6519 C 612.105 1.16676 -1.47541 0
M  V30 6520 O 611.463 1.71769 -0.580093 0
M  V30 6521 C 611.511 -0.0609169 -3.60549 0
M  V30 6522 O 610.615 0.98071 -4.00569 0
M  V30 6523 H 609.956 -0.0886402 -0.658057 0
M  V30 6524 H 612.486 -0.878674 -1.84771 0
M  V30 6525 H 612.496 0.126892 -4.07803 0
M  V30 6526 H 611.171 -1.0245 -4.03084 0
M  V30 6527 H 609.748 0.766789 -3.64931 0
M  V30 6528 N 611.933 1.52934 -0.380664 0
M  V30 6529 C 613.161 2.05886 0.204599 0
M  V30 6530 C 613.576 1.25305 1.41223 0
M  V30 6531 O 612.933 0.297504 1.80059 0
M  V30 6532 C 612.984 3.56764 0.583249 0
M  V30 6533 O 612.705 4.34292 -0.576398 0
M  V30 6534 C 614.206 4.2603 1.2253 0
M  V30 6535 H 611.426 0.670193 0.0328991 0
M  V30 6536 H 613.97 1.97148 -0.543397 0
M  V30 6537 H 612.125 3.65603 1.28115 0
M  V30 6538 H 612.539 5.23819 -0.267119 0
M  V30 6539 H 614.013 5.32868 1.44068 0
M  V30 6540 H 614.49 3.80698 2.19011 0
M  V30 6541 H 615.096 4.21485 0.568407 0
M  V30 6542 N 613.412 0.11024 1.57214 0
M  V30 6543 C 614.642 -0.557025 1.98949 0
M  V30 6544 C 615.05 -1.61317 0.988606 0
M  V30 6545 O 614.393 -1.83679 -0.0279159 0
M  V30 6546 C 614.455 -1.24956 3.37085 0
M  V30 6547 C 614.119 -0.342398 4.55716 0
M  V30 6548 C 615.116 0.415511 5.18237 0
M  V30 6549 C 612.801 -0.256029 5.01647 0
M  V30 6550 C 614.795 1.24761 6.25071 0
M  V30 6551 C 612.482 0.579713 6.08344 0
M  V30 6552 C 613.48 1.33017 6.69922 0
M  V30 6553 O 613.168 2.15205 7.74559 0
M  V30 6554 H 612.9 -0.152792 0.658506 0
M  V30 6555 H 615.454 0.19076 2.04512 0
M  V30 6556 H 613.684 -2.04424 3.2825 0
M  V30 6557 H 615.373 -1.81286 3.63167 0
M  V30 6558 H 616.139 0.358605 4.83672 0
M  V30 6559 H 612.018 -0.829831 4.5347 0
M  V30 6560 H 615.562 1.83386 6.73064 0
M  V30 6561 H 611.459 0.638044 6.42339 0
M  V30 6562 H 612.227 2.08052 7.91617 0
M  V30 6563 N 614.89 -1.56749 -0.16351 0
M  V30 6564 C 615.84 -1.93424 -1.20712 0
M  V30 6565 C 616.824 -0.803469 -1.39403 0
M  V30 6566 O 618.016 -1.06675 -1.41243 0
M  V30 6567 C 615.145 -2.30431 -2.54473 0
M  V30 6568 C 614.231 -3.5004 -2.39443 0
M  V30 6569 N 614.622 -4.67058 -1.9414 0
M  V30 6570 C 612.92 -3.548 -2.70246 0
M  V30 6571 C 613.621 -5.49184 -1.9176 0
M  V30 6572 N 612.597 -4.9044 -2.34457 0
M  V30 6573 H 616.399 -2.8138 -0.848681 0
M  V30 6574 H 613.913 -1.58089 -0.371717 0
M  V30 6575 H 615.91 -2.54903 -3.29894 0
M  V30 6576 H 614.57 -1.43818 -2.91112 0
M  V30 6577 H 615.581 -4.91128 -1.64357 0
M  V30 6578 H 612.258 -2.78685 -3.10871 0
M  V30 6579 H 613.648 -6.5297 -1.58366 0
M  V30 6580 N 616.368 0.432326 -1.51554 0
M  V30 6581 C 617.784 0.769195 -1.39841 0
M  V30 6582 C 617.984 1.95584 -0.484675 0
M  V30 6583 O 617.04 2.52433 0.0582829 0
M  V30 6584 C 618.353 1.04487 -2.81963 0
M  V30 6585 C 619.901 1.149 -2.91148 0
M  V30 6586 C 620.376 1.45758 -4.34187 0
M  V30 6587 N 621.867 1.52671 -4.37317 0
M  V30 6588 C 622.602 1.78129 -5.4503 0
M  V30 6589 N 622.098 2.01345 -6.62897 0
M  V30 6590 N 623.891 1.79953 -5.32516 0
M  V30 6591 H 616.042 -0.349122 -2.09511 0
M  V30 6592 H 618.305 -0.0938113 -0.943347 0
M  V30 6593 H 618.011 0.24557 -3.50842 0
M  V30 6594 H 617.885 1.97119 -3.21596 0
M  V30 6595 H 620.272 1.93891 -2.22464 0
M  V30 6596 H 620.353 0.201568 -2.55005 0
M  V30 6597 H 619.997 0.672917 -5.03423 0
M  V30 6598 H 619.927 2.41715 -4.67848 0
M  V30 6599 H 622.418 1.36612 -3.52343 0
M  V30 6600 H 622.731 2.20155 -7.40778 0
M  V30 6601 H 621.076 1.98657 -6.66003 0
M  V30 6602 H 624.267 1.61337 -4.39418 0
M  V30 6603 H 624.44 1.99455 -6.1654 0
M  V30 6604 N 617.846 1.41785 0.688094 0
M  V30 6605 C 618.778 1.40159 1.81351 0
M  V30 6606 C 619.791 0.30262 1.59963 0
M  V30 6607 O 620.98 0.564841 1.69327 0
M  V30 6608 C 618.08 1.16517 3.1824 0
M  V30 6609 C 617.253 2.38597 3.66593 0
M  V30 6610 C 616.312 2.10699 4.82174 0
M  V30 6611 O 615.338 2.83798 4.93404 0
M  V30 6612 N 616.54 1.10187 5.69947 0
M  V30 6613 H 619.305 2.3716 1.83236 0
M  V30 6614 H 616.866 1.36494 0.870697 0
M  V30 6615 H 618.858 0.957941 3.93199 0
M  V30 6616 H 617.428 0.280873 3.11336 0
M  V30 6617 H 616.648 2.74974 2.82459 0
M  V30 6618 H 617.936 3.19919 3.95638 0
M  V30 6619 H 617.334 0.497016 5.63512 0
M  V30 6620 H 615.891 0.954518 6.44773 0
M  V30 6621 N 619.324 -0.923095 1.27737 0
M  V30 6622 C 620.74 -1.19985 1.05241 0
M  V30 6623 C 620.94 -2.00391 -0.21113 0
M  V30 6624 O 619.996 -2.35324 -0.915366 0
M  V30 6625 C 621.309 -1.94352 2.29451 0
M  V30 6626 C 622.857 -2.07273 2.34536 0
M  V30 6627 C 623.332 -2.85046 3.58487 0
M  V30 6628 N 624.823 -2.92612 3.59072 0
M  V30 6629 C 625.558 -3.53266 4.51654 0
M  V30 6630 N 625.054 -4.15274 5.54545 0
M  V30 6631 N 626.847 -3.50714 4.39268 0
M  V30 6632 H 618.998 -0.386042 2.08862 0
M  V30 6633 H 621.261 -0.233407 0.918817 0
M  V30 6634 H 620.967 -1.42692 3.21453 0
M  V30 6635 H 620.841 -2.94947 2.3513 0
M  V30 6636 H 623.228 -2.58117 1.43037 0
M  V30 6637 H 623.309 -1.05884 2.32857 0
M  V30 6638 H 622.953 -2.34884 4.50324 0
M  V30 6639 H 622.883 -3.8673 3.57418 0
M  V30 6640 H 625.374 -2.48547 2.84663 0
M  V30 6641 H 625.687 -4.59507 6.21348 0
M  V30 6642 H 624.032 -4.13806 5.58382 0
M  V30 6643 H 627.223 -3.01475 3.58093 0
M  V30 6644 H 627.396 -3.97693 5.1161 0
M  V30 6645 N 620.802 -1.09834 -1.13024 0
M  V30 6646 C 622.218 -0.828875 -1.36388 0
M  V30 6647 C 622.418 0.554756 -1.93713 0
M  V30 6648 O 621.474 1.30882 -2.15931 0
M  V30 6649 C 622.787 -1.92352 -2.3113 0
M  V30 6650 C 624.335 -1.95124 -2.44735 0
M  V30 6651 C 624.81 -3.03745 -3.42787 0
M  V30 6652 N 626.301 -3.03012 -3.5034 0
M  V30 6653 C 627.036 -3.83699 -4.26101 0
M  V30 6654 N 626.532 -4.74306 -5.04981 0
M  V30 6655 N 628.325 -3.71942 -4.21445 0
M  V30 6656 H 620.476 -1.99029 -0.74169 0
M  V30 6657 H 622.739 -0.864557 -0.388903 0
M  V30 6658 H 622.445 -2.91906 -1.96172 0
M  V30 6659 H 622.319 -1.80536 -3.3119 0
M  V30 6660 H 624.706 -0.962069 -2.78977 0
M  V30 6661 H 624.787 -2.11018 -1.44586 0
M  V30 6662 H 624.431 -4.02878 -3.09276 0
M  V30 6663 H 624.361 -2.85094 -4.42752 0
M  V30 6664 H 626.852 -2.37352 -2.94062 0
M  V30 6665 H 627.165 -5.32446 -5.60108 0
M  V30 6666 H 625.51 -4.78339 -5.04199 0
M  V30 6667 H 628.701 -3.00513 -3.589 0
M  V30 6668 H 628.874 -4.35062 -4.80235 0
M  V30 6669 N 622.28 1.30327 -0.886154 0
M  V30 6670 C 623.23 2.25668 -0.325248 0
M  V30 6671 C 624.214 1.51318 0.546972 0
M  V30 6672 O 625.406 1.72623 0.391203 0
M  V30 6673 C 622.535 3.40229 0.458167 0
M  V30 6674 C 621.621 4.21933 -0.428208 0
M  V30 6675 N 622.012 4.82129 -1.52921 0
M  V30 6676 C 620.31 4.45439 -0.223535 0
M  V30 6677 C 621.011 5.43351 -2.07714 0
M  V30 6678 N 619.987 5.26002 -1.37195 0
M  V30 6679 H 623.789 2.69759 -1.1665 0
M  V30 6680 H 621.303 1.4478 -0.735691 0
M  V30 6681 H 623.3 4.07579 0.876648 0
M  V30 6682 H 621.96 2.97678 1.29684 0
M  V30 6683 H 622.971 4.81312 -1.91205 0
M  V30 6684 H 619.648 4.13481 0.577875 0
M  V30 6685 H 621.038 6.01118 -3.00178 0
M  V30 6686 N 623.758 0.647228 1.43697 0
M  V30 6687 C 624.983 0.164083 2.0675 0
M  V30 6688 C 625.408 -1.15892 1.48158 0
M  V30 6689 O 624.766 -1.71459 0.589194 0
M  V30 6690 C 624.814 0.0800368 3.60511 0
M  V30 6691 O 623.918 -0.959453 4.01084 0
M  V30 6692 H 623.259 0.0921288 0.657578 0
M  V30 6693 H 625.789 0.88846 1.84303 0
M  V30 6694 H 625.799 -0.105263 4.07864 0
M  V30 6695 H 624.474 1.04586 4.02535 0
M  V30 6696 H 623.051 -0.747425 3.65333 0
M  V30 6697 N 625.236 -1.5273 0.388769 0
M  V30 6698 C 626.513 -1.93981 -0.251133 0
M  V30 6699 C 626.893 -1.32418 -1.64404 0
M  V30 6700 O 626.241 -0.492074 -2.23139 0
M  V30 6701 C 626.451 -3.47891 -0.27802 0
M  V30 6702 C 627.799 -4.21559 -0.507229 0
M  V30 6703 O 628.823 -3.54394 -0.358252 0
M  V30 6704 O 627.682 -5.40626 -0.799094 0
M  V30 6705 H 624.776 -0.812157 -0.15598 0
M  V30 6706 H 627.322 -1.63809 0.443237 0
M  V30 6707 H 626.094 -3.8503 0.697669 0
M  V30 6708 H 625.717 -3.84364 -1.01733 0
M  V30 6709 N 626.714 -0.118576 -1.57153 0
M  V30 6710 C 627.961 0.539526 -1.9518 0
M  V30 6711 C 628.289 1.66714 -1.00184 0
M  V30 6712 O 627.544 1.95683 -0.0256482 0
M  V30 6713 C 627.843 1.11303 -3.39627 0
M  V30 6714 C 627.509 0.106809 -4.50773 0
M  V30 6715 C 626.171 -0.169876 -4.809 0
M  V30 6716 C 628.523 -0.57895 -5.17975 0
M  V30 6717 C 625.851 -1.13861 -5.75545 0
M  V30 6718 C 628.203 -1.53631 -6.13661 0
M  V30 6719 C 626.867 -1.82099 -6.42181 0
M  V30 6720 H 626.137 0.197427 -0.714215 0
M  V30 6721 H 628.784 -0.199391 -1.90459 0
M  V30 6722 H 627.089 1.92869 -3.4104 0
M  V30 6723 H 628.786 1.63032 -3.66363 0
M  V30 6724 H 625.376 0.332645 -4.27307 0
M  V30 6725 H 629.56 -0.378359 -4.94856 0
M  V30 6726 H 624.816 -1.36592 -5.95947 0
M  V30 6727 H 628.99 -2.07337 -6.64819 0
M  V30 6728 H 626.617 -2.57319 -7.15326 0
M  V30 6729 N 628.193 1.56834 0.155195 0
M  V30 6730 C 629.433 1.84701 0.875488 0
M  V30 6731 C 629.797 0.701747 1.78716 0
M  V30 6732 O 630.998 0.861263 2.54629 0
M  V30 6733 C 629.269 3.1773 1.63654 0
M  V30 6734 S 630.828 3.67128 2.40338 0
M  V30 6735 H 627.646 0.647856 0.292923 0
M  V30 6736 H 630.248 1.95026 0.136024 0
M  V30 6737 H 628.952 3.99059 0.958117 0
M  V30 6738 H 628.483 3.10388 2.41708 0
M  V30 6739 H 630.498 3.35739 3.65368 0
M  V30 6740 N 629.671 -0.424282 1.51781 0
M  V30 6741 C 630.919 -1.17028 1.64769 0
M  V30 6742 C 631.24 -1.91409 0.372523 0
M  V30 6743 O 630.51 -1.86091 -0.612108 0
M  V30 6744 H 629.09 -0.434992 0.607282 0
M  V30 6745 H 631.752 -0.485169 1.88765 0
M  V30 6746 H 630.848 -1.8927 2.4816 0
M  V30 6747 N 631.149 -1.42148 -0.680565 0
M  V30 6748 C 632.56 -1.3768 -1.26099 0
M  V30 6749 C 632.911 -0.0672348 -1.96085 0
M  V30 6750 O 632.036 0.834172 -1.99676 0
M  V30 6751 C 632.631 -2.49387 -2.29328 0
M  V30 6752 C 631.19 -2.4827 -2.82911 0
M  V30 6753 C 630.337 -2.2847 -1.57152 0
M  V30 6754 H 633.288 -1.51446 -0.474326 0
M  V30 6755 H 633.309 -2.19307 -3.10941 0
M  V30 6756 H 632.821 -3.44686 -1.78363 0
M  V30 6757 H 630.922 -1.56773 -3.38013 0
M  V30 6758 H 631.035 -3.45109 -3.3232 0
M  V30 6759 H 629.399 -1.76623 -1.83511 0
M  V30 6760 H 630.182 -3.25816 -1.0816 0
M  V30 6761 N 632.627 0.916307 -1.28225 0
M  V30 6762 C 633.852 1.7043 -1.18188 0
M  V30 6763 C 634.277 1.86346 0.256274 0
M  V30 6764 O 633.635 1.37175 1.18544 0
M  V30 6765 C 633.683 3.07546 -1.88275 0
M  V30 6766 O 632.787 3.94904 -1.18848 0
M  V30 6767 H 632.128 0.521967 -0.410423 0
M  V30 6768 H 634.658 1.14589 -1.69501 0
M  V30 6769 H 634.668 3.57793 -1.96082 0
M  V30 6770 H 633.343 2.95279 -2.92887 0
M  V30 6771 H 631.92 3.53339 -1.19187 0
M  V30 6772 N 634.105 1.10431 1.1244 0
M  V30 6773 C 635.516 0.864439 1.65482 0
M  V30 6774 C 635.867 -0.60527 1.8663 0
M  V30 6775 O 634.992 -1.46492 1.59276 0
M  V30 6776 C 635.587 1.56267 3.0061 0
M  V30 6777 C 634.146 1.3695 3.50602 0
M  V30 6778 C 633.293 1.61209 2.25626 0
M  V30 6779 H 636.244 1.26203 0.962209 0
M  V30 6780 H 636.265 1.00166 3.67079 0
M  V30 6781 H 635.777 2.63231 2.85186 0
M  V30 6782 H 633.878 0.321481 3.71211 0
M  V30 6783 H 633.991 2.11143 4.30064 0
M  V30 6784 H 632.355 1.03482 2.32731 0
M  V30 6785 H 633.138 2.69425 2.12756 0
M  V30 6786 N 635.583 -1.29855 0.893053 0
M  V30 6787 C 636.546 -2.26183 0.370687 0
M  V30 6788 C 637.546 -1.53108 -0.491385 0
M  V30 6789 O 638.736 -1.71643 -0.297386 0
M  V30 6790 C 635.868 -3.37633 -0.470827 0
M  V30 6791 H 637.061 -2.73903 1.22135 0
M  V30 6792 H 634.614 -1.41183 0.67061 0
M  V30 6793 H 635.349 -2.95241 -1.34175 0
M  V30 6794 H 635.134 -3.91825 0.146784 0
M  V30 6795 H 636.624 -4.09313 -0.827825 0
M  V30 6796 N 637.061 -0.65484 -1.43351 0
M  V30 6797 C 638.472 -0.248506 -1.85039 0
M  V30 6798 C 638.823 1.20526 -1.54816 0
M  V30 6799 O 637.948 1.92016 -0.99794 0
M  V30 6800 C 638.543 -0.444241 -3.35875 0
M  V30 6801 C 637.102 -0.0922108 -3.76287 0
M  V30 6802 C 636.249 -0.746327 -2.67068 0
M  V30 6803 H 639.2 -0.8584 -1.33481 0
M  V30 6804 H 639.221 0.309762 -3.79237 0
M  V30 6805 H 638.733 -1.50239 -3.5784 0
M  V30 6806 H 636.834 0.96328 -3.59933 0
M  V30 6807 H 636.947 -0.518807 -4.76283 0
M  V30 6808 H 635.311 -0.179416 -2.54067 0
M  V30 6809 H 636.094 -1.80754 -2.91861 0
M  V30 6810 N 638.539 1.52521 -0.396863 0
M  V30 6811 C 639.469 2.29582 0.425941 0
M  V30 6812 C 640.45 1.33281 1.05689 0
M  V30 6813 O 641.635 1.62181 1.06823 0
M  V30 6814 C 638.765 3.10821 1.54943 0
M  V30 6815 C 637.719 4.15069 1.04413 0
M  V30 6816 C 637.045 4.84578 2.26028 0
M  V30 6817 C 638.345 5.22191 0.106767 0
M  V30 6818 H 640.039 2.98612 -0.217045 0
M  V30 6819 H 637.585 1.43611 -0.105826 0
M  V30 6820 H 639.538 3.63492 2.13193 0
M  V30 6821 H 638.262 2.39538 2.22011 0
M  V30 6822 H 636.921 3.63389 0.484118 0
M  V30 6823 H 636.569 4.09835 2.91623 0
M  V30 6824 H 636.269 5.55043 1.92876 0
M  V30 6825 H 637.793 5.40056 2.84906 0
M  V30 6826 H 639.207 5.70176 0.597685 0
M  V30 6827 H 637.604 5.99947 -0.135352 0
M  V30 6828 H 638.674 4.77531 -0.842134 0
M  V30 6829 N 640.017 0.126909 1.57088 0
M  V30 6830 C 640.967 -0.831678 2.1229 0
M  V30 6831 C 641.951 -1.22292 1.04564 0
M  V30 6832 O 643.143 -1.19269 1.30782 0
M  V30 6833 C 640.272 -2.07866 2.73215 0
M  V30 6834 C 639.358 -1.71143 3.88035 0
M  V30 6835 N 639.749 -1.05136 4.94753 0
M  V30 6836 C 638.047 -2.00549 3.98367 0
M  V30 6837 C 638.748 -0.877257 5.75047 0
M  V30 6838 N 637.724 -1.40477 5.25135 0
M  V30 6839 H 641.526 -0.317926 2.92175 0
M  V30 6840 H 639.04 -0.0753052 1.62225 0
M  V30 6841 H 641.037 -2.77516 3.11111 0
M  V30 6842 H 639.697 -2.59778 1.94796 0
M  V30 6843 H 640.708 -0.71442 5.12949 0
M  V30 6844 H 637.385 -2.54452 3.30999 0
M  V30 6845 H 638.775 -0.358536 6.70943 0
M  V30 6846 N 641.495 -1.56914 -0.146875 0
M  V30 6847 C 642.906 -1.72799 -0.706928 0
M  V30 6848 C 643.257 -0.741329 -1.81656 0
M  V30 6849 O 642.382 0.0920162 -2.16204 0
M  V30 6850 C 642.977 -3.13317 -1.28911 0
M  V30 6851 C 641.536 -3.30803 -1.79573 0
M  V30 6852 C 640.683 -2.68725 -0.684252 0
M  V30 6853 H 643.634 -1.58504 0.0787931 0
M  V30 6854 H 643.655 -3.13323 -2.15891 0
M  V30 6855 H 643.167 -3.85104 -0.481284 0
M  V30 6856 H 641.268 -2.64012 -2.62923 0
M  V30 6857 H 641.381 -4.38754 -1.92436 0
M  V30 6858 H 639.745 -2.29196 -1.11091 0
M  V30 6859 H 640.528 -3.43117 0.112134 0
M  V30 6860 N 642.974 0.416227 -1.52004 0
M  V30 6861 C 643.921 1.50666 -1.74838 0
M  V30 6862 C 644.891 1.55245 -0.590599 0
M  V30 6863 O 646.076 1.71928 -0.827374 0
M  V30 6864 C 643.216 2.88185 -1.89851 0
M  V30 6865 C 642.329 2.92971 -3.17478 0
M  V30 6866 C 641.464 4.21745 -3.22962 0
M  V30 6867 C 640.503 4.20478 -4.4482 0
M  V30 6868 N 639.64 5.40811 -4.47736 0
M  V30 6869 H 644.48 1.30498 -2.67907 0
M  V30 6870 H 642.017 0.633568 -1.32757 0
M  V30 6871 H 643.975 3.68007 -1.96537 0
M  V30 6872 H 642.605 3.06865 -1.00169 0
M  V30 6873 H 641.657 2.05684 -3.19997 0
M  V30 6874 H 642.969 2.87899 -4.07328 0
M  V30 6875 H 642.123 5.09954 -3.28682 0
M  V30 6876 H 640.862 4.29503 -2.31038 0
M  V30 6877 H 639.867 3.30659 -4.39254 0
M  V30 6878 H 641.092 4.14366 -5.38031 0
M  V30 6879 H 639.038 5.4925 -3.58692 0
M  V30 6880 H 638.955 5.37705 -5.31422 0
M  V30 6881 H 640.223 6.30993 -4.57676 0
M  V30 6882 N 644.452 1.42507 0.673017 0
M  V30 6883 C 645.868 1.25472 0.986355 0
M  V30 6884 C 646.068 0.160181 2.00862 0
M  V30 6885 O 645.124 -0.467993 2.48125 0
M  V30 6886 C 646.437 2.61219 1.48947 0
M  V30 6887 C 647.985 2.68589 1.60715 0
M  V30 6888 C 648.46 4.04707 2.14422 0
M  V30 6889 N 649.951 4.0667 2.21752 0
M  V30 6890 C 650.686 5.0881 2.64386 0
M  V30 6891 N 650.182 6.21332 3.0646 0
M  V30 6892 N 651.975 4.96166 2.64151 0
M  V30 6893 H 644.126 2.124 -0.00378532 0
M  V30 6894 H 646.389 0.946046 0.0608367 0
M  V30 6895 H 646.095 3.42179 0.812812 0
M  V30 6896 H 645.969 2.85261 2.46791 0
M  V30 6897 H 648.356 1.87974 2.27486 0
M  V30 6898 H 648.437 2.48333 0.613552 0
M  V30 6899 H 648.081 4.8578 1.48258 0
M  V30 6900 H 648.011 4.22315 3.14575 0
M  V30 6901 H 650.502 3.25438 1.92089 0
M  V30 6902 H 650.815 6.95118 3.37684 0
M  V30 6903 H 649.16 6.24835 3.04313 0
M  V30 6904 H 652.351 4.07334 2.30644 0
M  V30 6905 H 652.524 5.759 2.97057 0
M  V30 6906 N 645.93 -0.909495 1.28709 0
M  V30 6907 C 647.155 -1.69801 1.1909 0
M  V30 6908 C 647.58 -1.86479 -0.246388 0
M  V30 6909 O 646.938 -1.37802 -1.17815 0
M  V30 6910 C 646.986 -3.06543 1.89904 0
M  V30 6911 O 646.09 -3.94268 1.2094 0
M  V30 6912 H 645.431 -0.519783 0.413185 0
M  V30 6913 H 647.961 -1.13689 1.70106 0
M  V30 6914 H 647.971 -3.56748 1.97977 0
M  V30 6915 H 646.646 -2.93722 2.94449 0
M  V30 6916 H 645.223 -3.52702 1.2106 0
M  V30 6917 N 647.408 -1.11026 -1.11852 0
M  V30 6918 C 648.819 -0.873203 -1.65021 0
M  V30 6919 C 649.17 0.595364 -1.86949 0
M  V30 6920 O 648.295 1.45645 -1.60051 0
M  V30 6921 C 648.89 -1.57859 -2.99777 0
M  V30 6922 C 647.449 -1.38807 -3.49871 0
M  V30 6923 C 646.596 -1.62403 -2.24768 0
M  V30 6924 H 649.547 -1.26712 -0.955503 0
M  V30 6925 H 649.568 -1.02111 -3.66543 0
M  V30 6926 H 649.08 -2.6474 -2.83786 0
M  V30 6927 H 647.181 -0.341163 -3.71035 0
M  V30 6928 H 647.294 -2.13421 -4.28938 0
M  V30 6929 H 645.658 -1.04714 -2.32179 0
M  V30 6930 H 646.441 -2.70549 -2.11324 0
M  V30 6931 N 648.886 1.2938 -0.899927 0
M  V30 6932 C 650.114 1.99691 -0.541386 0
M  V30 6933 C 650.529 1.67355 0.873936 0
M  V30 6934 O 649.886 0.918728 1.57688 0
M  V30 6935 C 649.937 3.54168 -0.72438 0
M  V30 6936 O 649.658 3.85359 -2.08399 0
M  V30 6937 C 651.159 4.41746 -0.370819 0
M  V30 6938 H 648.379 0.638037 -0.207726 0
M  V30 6939 H 650.923 1.6491 -1.20934 0
M  V30 6940 H 649.078 3.87261 -0.103607 0
M  V30 6941 H 649.492 4.80032 -2.11352 0
M  V30 6942 H 650.966 5.49256 -0.549693 0
M  V30 6943 H 651.443 4.33712 0.692148 0
M  V30 6944 H 652.049 4.14125 -0.968543 0
M  V30 6945 N 650.364 0.662433 1.43002 0
M  V30 6946 C 651.589 0.186003 2.06564 0
M  V30 6947 C 652.014 -1.14314 1.49379 0
M  V30 6948 O 651.372 -1.70824 0.607346 0
M  V30 6949 C 651.42 0.118269 3.60406 0
M  V30 6950 O 650.524 -0.916859 4.02079 0
M  V30 6951 H 649.865 0.0990981 0.656563 0
M  V30 6952 H 652.395 0.907958 1.8335 0
M  V30 6953 H 652.405 -0.0619981 4.07953 0
M  V30 6954 H 651.08 1.08849 4.01403 0
M  V30 6955 H 649.657 -0.708635 3.66105 0
M  V30 6956 N 651.842 -1.52309 0.404946 0
M  V30 6957 C 653.07 -2.06185 -0.171818 0
M  V30 6958 C 653.485 -1.27536 -1.39212 0
M  V30 6959 O 652.842 -0.326112 -1.79563 0
M  V30 6960 C 652.893 -3.57647 -0.526417 0
M  V30 6961 O 652.614 -4.3332 0.645417 0
M  V30 6962 C 654.115 -4.27925 -1.15736 0
M  V30 6963 H 651.335 -0.670632 -0.0222328 0
M  V30 6964 H 653.879 -1.96259 0.574692 0
M  V30 6965 H 652.034 -3.67595 -1.22282 0
M  V30 6966 H 652.448 -5.23328 0.35042 0
M  V30 6967 H 653.922 -5.35093 -1.35572 0
M  V30 6968 H 654.399 -3.84134 -2.12926 0
M  V30 6969 H 655.005 -4.22335 -0.501281 0
M  V30 6970 N 653.32 -0.135238 -1.57019 0
M  V30 6971 C 654.568 0.51777 -1.95355 0
M  V30 6972 C 654.889 1.6617 -1.02042 0
M  V30 6973 O 654.159 1.95738 -0.0797343 0
M  V30 6974 H 652.739 0.194264 -0.721298 0
M  V30 6975 H 655.401 -0.207983 -1.93787 0
M  V30 6976 H 654.497 0.901675 -2.98791 0
M  V30 6977 N 654.798 1.5699 0.138552 0
M  V30 6978 C 655.708 2.02174 1.19008 0
M  V30 6979 C 656.724 0.938622 1.46512 0
M  V30 6980 O 657.9 1.24872 1.58016 0
M  V30 6981 C 654.965 2.40045 2.50159 0
M  V30 6982 C 654.026 3.62346 2.30226 0
M  V30 6983 C 653.259 3.98401 3.55123 0
M  V30 6984 O 653.482 3.35019 4.61647 0
M  V30 6985 O 652.416 4.91606 3.47285 0
M  V30 6986 H 656.242 2.91954 0.836452 0
M  V30 6987 H 653.827 1.45293 0.347907 0
M  V30 6988 H 655.709 2.65225 3.27465 0
M  V30 6989 H 654.384 1.53417 2.85035 0
M  V30 6990 H 653.291 3.42341 1.50843 0
M  V30 6991 H 654.624 4.49617 2.00262 0
M  V30 6992 N 656.276 -0.40816 1.52223 0
M  V30 6993 C 657.239 -1.48 1.7501 0
M  V30 6994 C 658.239 -1.48367 0.619996 0
M  V30 6995 O 659.429 -1.49874 0.887881 0
M  V30 6996 C 656.561 -2.87403 1.83336 0
M  V30 6997 H 657.754 -1.29086 2.70697 0
M  V30 6998 H 655.307 -0.638715 1.42654 0
M  V30 6999 H 656.042 -3.11686 0.895677 0
M  V30 7000 H 655.827 -2.8854 2.65494 0
M  V30 7001 H 657.317 -3.65103 2.02705 0
M  V30 7002 N 657.755 -1.42862 -0.66545 0
M  V30 7003 C 658.665 -1.49491 -1.80803 0
M  V30 7004 C 659.681 -0.382914 -1.69734 0
M  V30 7005 O 660.857 -0.635223 -1.9112 0
M  V30 7006 C 657.922 -1.40383 -3.17007 0
M  V30 7007 C 656.983 -2.62152 -3.39963 0
M  V30 7008 C 656.216 -2.53469 -4.69669 0
M  V30 7009 O 656.439 -1.57568 -5.48205 0
M  V30 7010 O 655.373 -3.43763 -4.94075 0
M  V30 7011 H 659.199 -2.45949 -1.78165 0
M  V30 7012 H 656.784 -1.24728 -0.822387 0
M  V30 7013 H 658.666 -1.377 -3.98267 0
M  V30 7014 H 657.341 -0.470546 -3.20262 0
M  V30 7015 H 656.248 -2.70409 -2.58515 0
M  V30 7016 H 657.581 -3.54411 -3.41546 0
M  V30 7017 N 659.233 0.902656 -1.29189 0
M  V30 7018 C 660.163 2.02294 -1.16616 0
M  V30 7019 C 661.144 1.6999 -0.0611175 0
M  V30 7020 O 662.329 1.9271 -0.240072 0
M  V30 7021 C 659.459 3.37018 -0.83882 0
M  V30 7022 C 658.413 3.83522 -1.89986 0
M  V30 7023 C 657.739 5.15337 -1.42589 0
M  V30 7024 C 659.039 4.04169 -3.30824 0
M  V30 7025 H 660.733 2.13071 -2.10336 0
M  V30 7026 H 658.279 1.02378 -1.01266 0
M  V30 7027 H 660.232 4.14895 -0.737584 0
M  V30 7028 H 658.956 3.26325 0.134071 0
M  V30 7029 H 657.615 3.07859 -1.99043 0
M  V30 7030 H 657.263 5.01056 -0.441759 0
M  V30 7031 H 656.963 5.47423 -2.13547 0
M  V30 7032 H 658.487 5.95758 -1.3381 0
M  V30 7033 H 659.901 4.72537 -3.24626 0
M  V30 7034 H 658.298 4.47604 -3.99713 0
M  V30 7035 H 659.368 3.08604 -3.74021 0
M  V30 7036 N 660.711 1.11618 1.11262 0
M  V30 7037 C 661.658 0.7762 2.17356 0
M  V30 7038 C 662.628 -0.253152 1.6416 0
M  V30 7039 O 663.813 -0.129655 1.90359 0
M  V30 7040 C 660.953 0.227581 3.44349 0
M  V30 7041 C 660.066 1.31372 4.1154 0
M  V30 7042 C 659.201 0.72544 5.26223 0
M  V30 7043 C 658.24 1.7913 5.85302 0
M  V30 7044 N 657.377 1.22237 6.91377 0
M  V30 7045 H 662.217 1.68508 2.45783 0
M  V30 7046 H 659.754 0.841475 1.20655 0
M  V30 7047 H 661.712 -0.108483 4.17059 0
M  V30 7048 H 660.342 -0.644486 3.16301 0
M  V30 7049 H 659.394 1.7667 3.36885 0
M  V30 7050 H 660.706 2.12005 4.51504 0
M  V30 7051 H 659.86 0.339541 6.05749 0
M  V30 7052 H 658.599 -0.112188 4.87571 0
M  V30 7053 H 657.604 2.18648 5.04453 0
M  V30 7054 H 658.829 2.63199 6.26022 0
M  V30 7055 H 656.775 0.406423 6.5474 0
M  V30 7056 H 656.692 1.9654 7.30006 0
M  V30 7057 H 657.96 0.863426 7.74703 0
M  V30 7058 N 662.189 -1.289 0.906776 0
M  V30 7059 C 663.099 -2.31256 0.394707 0
M  V30 7060 C 664.115 -1.66231 -0.514121 0
M  V30 7061 O 665.291 -1.97347 -0.401994 0
M  V30 7062 C 662.356 -3.44792 -0.363191 0
M  V30 7063 C 661.417 -4.25391 0.578012 0
M  V30 7064 C 660.65 -5.33506 -0.143811 0
M  V30 7065 O 660.873 -5.53786 -1.36665 0
M  V30 7066 O 659.807 -5.99673 0.5173 0
M  V30 7067 H 663.633 -2.77051 1.24405 0
M  V30 7068 H 661.218 -1.33466 0.671346 0
M  V30 7069 H 663.1 -4.139 -0.791503 0
M  V30 7070 H 661.775 -3.01093 -1.18848 0
M  V30 7071 H 660.682 -3.58899 1.05558 0
M  V30 7072 H 662.015 -4.72752 1.36992 0
M  V30 7073 N 663.667 -0.670007 -1.42649 0
M  V30 7074 C 664.577 0.0114788 -2.34597 0
M  V30 7075 C 665.593 0.794055 -1.54825 0
M  V30 7076 O 666.769 0.737472 -1.87412 0
M  V30 7077 C 663.834 0.954436 -3.33304 0
M  V30 7078 C 662.895 0.166925 -4.28975 0
M  V30 7079 C 662.128 1.06497 -5.22967 0
M  V30 7080 O 662.351 2.30446 -5.21777 0
M  V30 7081 O 661.285 0.528347 -5.99577 0
M  V30 7082 H 665.111 -0.745794 -2.944 0
M  V30 7083 H 662.696 -0.430228 -1.43071 0
M  V30 7084 H 664.578 1.49589 -3.93956 0
M  V30 7085 H 663.253 1.69164 -2.7598 0
M  V30 7086 H 662.16 -0.418515 -3.71752 0
M  V30 7087 H 663.493 -0.531067 -4.89327 0
M  V30 7088 N 665.145 1.52092 -0.413018 0
M  V30 7089 C 666.561 1.59471 -0.0640836 0
M  V30 7090 C 666.761 1.42562 1.42402 0
M  V30 7091 O 665.817 1.25453 2.19129 0
M  V30 7092 C 667.13 2.95392 -0.562474 0
M  V30 7093 C 668.678 3.08637 -0.520788 0
M  V30 7094 C 669.153 4.47044 -0.995752 0
M  V30 7095 N 670.644 4.53296 -0.952732 0
M  V30 7096 C 671.379 5.58669 -1.29138 0
M  V30 7097 N 670.875 6.71576 -1.70168 0
M  V30 7098 N 672.668 5.48898 -1.2111 0
M  V30 7099 H 664.819 1.6133 -1.38153 0
M  V30 7100 H 667.082 0.75916 -0.567785 0
M  V30 7101 H 666.788 3.13059 -1.60271 0
M  V30 7102 H 666.662 3.77191 0.0257875 0
M  V30 7103 H 669.049 2.90652 0.510412 0
M  V30 7104 H 669.13 2.28735 -1.14515 0
M  V30 7105 H 668.774 4.65773 -2.0253 0
M  V30 7106 H 668.704 5.25448 -0.348162 0
M  V30 7107 H 671.195 3.72248 -0.651119 0
M  V30 7108 H 671.508 7.47973 -1.9431 0
M  V30 7109 H 669.853 6.72847 -1.74075 0
M  V30 7110 H 673.044 4.59573 -0.889396 0
M  V30 7111 H 673.217 6.30912 -1.47833 0
M  V30 7112 N 666.623 0.143563 1.56945 0
M  V30 7113 C 667.553 -0.7936 2.196 0
M  V30 7114 C 668.534 -1.25955 1.14321 0
M  V30 7115 O 669.719 -1.31773 1.42651 0
M  V30 7116 C 666.849 -2.03424 2.81489 0
M  V30 7117 C 665.803 -1.70519 3.92565 0
M  V30 7118 C 665.129 -3.01817 4.41373 0
M  V30 7119 C 666.429 -0.95449 5.13504 0
M  V30 7120 H 668.123 -0.271423 2.98167 0
M  V30 7121 H 665.669 -0.12911 1.4342 0
M  V30 7122 H 667.622 -2.69463 3.23987 0
M  V30 7123 H 666.346 -2.58008 2.00248 0
M  V30 7124 H 665.005 -1.06859 3.5068 0
M  V30 7125 H 664.653 -3.54386 3.56959 0
M  V30 7126 H 664.353 -2.80565 5.16292 0
M  V30 7127 H 665.877 -3.68934 4.86539 0
M  V30 7128 H 667.291 -1.5169 5.52868 0
M  V30 7129 H 665.688 -0.842035 5.94163 0
M  V30 7130 H 666.758 0.0544033 4.84869 0
M  V30 7131 N 668.101 -1.57061 -0.130224 0
M  V30 7132 C 669.512 -1.73539 -0.68856 0
M  V30 7133 C 669.863 -0.760554 -1.80859 0
M  V30 7134 O 668.988 0.0690796 -2.1629 0
M  V30 7135 C 669.583 -3.14666 -1.25581 0
M  V30 7136 C 668.142 -3.32689 -1.76055 0
M  V30 7137 C 667.289 -2.69436 -0.655712 0
M  V30 7138 H 670.24 -1.58412 0.0956002 0
M  V30 7139 H 670.261 -3.15595 -2.12556 0
M  V30 7140 H 669.773 -3.85593 -0.440412 0
M  V30 7141 H 667.874 -2.66786 -2.60108 0
M  V30 7142 H 667.987 -4.4077 -1.87772 0
M  V30 7143 H 666.351 -2.30362 -1.08654 0
M  V30 7144 H 667.134 -3.42979 0.14852 0
M  V30 7145 N 669.579 0.400081 -1.52437 0
M  V30 7146 C 670.827 1.14392 -1.6661 0
M  V30 7147 C 671.148 1.90792 -0.402927 0
M  V30 7148 O 670.418 1.87042 0.582425 0
M  V30 7149 H 668.998 0.425275 -0.614125 0
M  V30 7150 H 671.66 0.455076 -1.89513 0
M  V30 7151 H 670.756 1.85298 -2.51139 0
M  V30 7152 N 671.057 1.43213 0.657864 0
M  V30 7153 C 672.473 1.26511 0.972992 0
M  V30 7154 C 672.673 0.181477 2.00681 0
M  V30 7155 O 671.729 -0.441649 2.48608 0
M  V30 7156 C 673.042 2.62784 1.46168 0
M  V30 7157 C 674.59 2.70278 1.57857 0
M  V30 7158 C 675.065 4.06958 2.10117 0
M  V30 7159 N 676.556 4.08999 2.17426 0
M  V30 7160 C 677.291 5.11585 2.58975 0
M  V30 7161 N 676.787 6.24548 2.99853 0
M  V30 7162 N 678.58 4.9894 2.58873 0
M  V30 7163 H 670.731 2.12384 -0.0263129 0
M  V30 7164 H 672.994 0.946638 0.0507992 0
M  V30 7165 H 672.7 3.43022 0.776474 0
M  V30 7166 H 672.574 2.87863 2.43751 0
M  V30 7167 H 674.961 1.90376 2.25479 0
M  V30 7168 H 675.042 2.4897 0.587179 0
M  V30 7169 H 674.686 4.87325 1.43098 0
M  V30 7170 H 674.616 4.25628 3.10078 0
M  V30 7171 H 677.107 3.27457 1.88627 0
M  V30 7172 H 677.42 6.98661 3.30292 0
M  V30 7173 H 675.765 6.28027 2.97669 0
M  V30 7174 H 678.956 4.09757 2.26311 0
M  V30 7175 H 679.129 5.79019 2.90932 0
M  V30 7176 N 672.536 -0.895792 1.29666 0
M  V30 7177 C 673.483 -2.00035 1.15129 0
M  V30 7178 C 674.453 -1.66043 0.0435819 0
M  V30 7179 O 675.638 -1.89621 0.211811 0
M  V30 7180 C 672.778 -3.34774 0.83787 0
M  V30 7181 C 671.891 -3.81525 2.0264 0
M  V30 7182 C 671.026 -5.04858 1.65201 0
M  V30 7183 C 670.065 -5.43988 2.80612 0
M  V30 7184 N 669.202 -6.58507 2.43544 0
M  V30 7185 H 674.042 -2.11802 2.09628 0
M  V30 7186 H 671.579 -1.03719 1.04311 0
M  V30 7187 H 673.537 -4.12311 0.636824 0
M  V30 7188 H 672.167 -3.22724 -0.0702314 0
M  V30 7189 H 671.219 -2.9999 2.33903 0
M  V30 7190 H 672.531 -4.06472 2.89106 0
M  V30 7191 H 671.685 -5.8999 1.41408 0
M  V30 7192 H 670.424 -4.81759 0.758893 0
M  V30 7193 H 669.429 -4.57388 3.05083 0
M  V30 7194 H 670.654 -5.69066 3.70595 0
M  V30 7195 H 668.6 -6.37004 1.56724 0
M  V30 7196 H 668.517 -6.83269 3.23542 0
M  V30 7197 H 669.785 -7.46897 2.2308 0
M  V30 7198 N 674.014 -1.12206 -1.10668 0
M  V30 7199 C 674.977 -0.790867 -2.15123 0
M  V30 7200 C 675.977 0.193618 -1.5963 0
M  V30 7201 O 677.167 -0.0318728 -1.74171 0
M  V30 7202 C 674.299 -0.174797 -3.40452 0
M  V30 7203 H 675.492 -1.7163 -2.45933 0
M  V30 7204 H 673.045 -0.924993 -1.2599 0
M  V30 7205 H 673.78 0.760478 -3.15257 0
M  V30 7206 H 673.565 -0.88358 -3.82015 0
M  V30 7207 H 675.055 0.0405162 -4.1758 0
M  V30 7208 N 675.492 1.28418 -0.913599 0
M  V30 7209 C 676.717 1.99643 -0.561899 0
M  V30 7210 C 677.142 1.67819 0.849608 0
M  V30 7211 O 676.5 0.910503 1.56779 0
M  V30 7212 C 676.548 3.52116 -0.777622 0
M  V30 7213 O 675.652 4.12076 0.163457 0
M  V30 7214 H 674.993 0.627229 -0.217898 0
M  V30 7215 H 677.523 1.63575 -1.229 0
M  V30 7216 H 677.533 4.02163 -0.687666 0
M  V30 7217 H 676.208 3.74613 -1.8066 0
M  V30 7218 H 674.785 3.72892 0.0247827 0
M  V30 7219 N 676.97 0.677563 1.42291 0
M  V30 7220 C 678.21 0.204894 2.0337 0
M  V30 7221 C 678.574 -1.16744 1.5243 0
M  V30 7222 O 679.775 -1.73492 2.05314 0
M  V30 7223 C 678.046 0.240742 3.56588 0
M  V30 7224 S 679.605 -0.16052 4.38506 0
M  V30 7225 H 676.423 0.0839932 0.706021 0
M  V30 7226 H 679.025 0.891332 1.73999 0
M  V30 7227 H 677.729 1.24184 3.91161 0
M  V30 7228 H 677.26 -0.465439 3.90637 0
M  V30 7229 H 679.275 -1.39315 4.76241 0
M  V30 7230 N 678.448 -1.51871 0.421078 0
M  V30 7231 C 679.673 -2.0684 -0.152371 0
M  V30 7232 C 680.098 -1.28802 -1.37083 0
M  V30 7233 O 679.456 -0.321482 -1.78427 0
M  V30 7234 C 679.504 -3.57532 -0.469368 0
M  V30 7235 O 678.608 -3.81818 -1.55848 0
M  V30 7236 H 677.949 -0.663939 -0.00898586 0
M  V30 7237 H 680.479 -1.95674 0.597724 0
M  V30 7238 H 680.489 -4.01515 -0.724553 0
M  V30 7239 H 679.164 -4.13761 0.421276 0
M  V30 7240 H 677.741 -3.49709 -1.29453 0
M  V30 7241 N 679.926 -0.151884 -1.56866 0
M  V30 7242 C 681.154 0.504813 -2.00647 0
M  V30 7243 C 681.569 1.58098 -1.03201 0
M  V30 7244 O 680.926 1.82476 -0.0297814 0
M  V30 7245 C 680.977 1.10099 -3.44326 0
M  V30 7246 O 680.698 0.0678021 -4.38048 0
M  V30 7247 C 682.199 1.83782 -4.03409 0
M  V30 7248 H 679.419 0.130989 -0.65809 0
M  V30 7249 H 681.963 -0.247903 -2.02992 0
M  V30 7250 H 680.118 1.8043 -3.42817 0
M  V30 7251 H 680.532 0.505237 -5.22061 0
M  V30 7252 H 682.006 2.2078 -5.05925 0
M  V30 7253 H 682.483 2.72557 -3.44397 0
M  V30 7254 H 683.089 1.18138 -4.08563 0
M  V30 7255 N 681.404 1.57128 0.121893 0
M  V30 7256 C 682.367 1.99197 1.13372 0
M  V30 7257 C 683.367 0.881728 1.3447 0
M  V30 7258 O 684.557 1.14783 1.31036 0
M  V30 7259 C 681.689 2.32963 2.4888 0
M  V30 7260 H 682.882 2.89788 0.772204 0
M  V30 7261 H 680.435 1.51952 0.366093 0
M  V30 7262 H 681.17 1.45243 2.89957 0
M  V30 7263 H 680.955 3.13934 2.34921 0
M  V30 7264 H 682.445 2.66261 3.21706 0
M  V30 7265 N 682.882 -0.391992 1.52647 0
M  V30 7266 C 684.13 -1.13507 1.67214 0
M  V30 7267 C 684.451 -1.90575 0.41304 0
M  V30 7268 O 683.721 -1.87348 -0.572498 0
M  V30 7269 H 682.301 -0.422013 0.616372 0
M  V30 7270 H 684.963 -0.44502 1.89751 0
M  V30 7271 H 684.059 -1.83964 2.52118 0
M  V30 7272 N 684.36 -1.4356 -0.65026 0
M  V30 7273 C 685.585 -1.48995 -1.44275 0
M  V30 7274 C 686.01 -0.109954 -1.87778 0
M  V30 7275 O 685.368 0.896926 -1.57559 0
M  V30 7276 C 685.416 -2.44341 -2.65198 0
M  V30 7277 O 684.52 -1.93172 -3.6436 0
M  V30 7278 H 683.861 -0.503852 -0.432469 0
M  V30 7279 H 686.391 -1.88504 -0.795446 0
M  V30 7280 H 686.401 -2.61743 -3.12977 0
M  V30 7281 H 685.076 -3.44588 -2.32877 0
M  V30 7282 H 683.653 -1.85445 -3.23519 0
M  V30 7283 N 685.838 0.888903 -1.30139 0
M  V30 7284 C 687.086 1.63713 -1.18501 0
M  V30 7285 C 687.407 1.9324 0.261399 0
M  V30 7286 O 686.677 1.56608 1.17689 0
M  V30 7287 H 685.257 0.606861 -0.435579 0
M  V30 7288 H 687.919 1.06525 -1.63213 0
M  V30 7289 H 687.015 2.58894 -1.743 0
M  V30 7290 N 687.317 1.12792 1.10072 0
M  V30 7291 C 688.542 0.908838 1.86427 0
M  V30 7292 C 688.967 -0.536793 1.80278 0
M  V30 7293 O 688.325 -1.38033 1.17543 0
M  V30 7294 C 688.373 1.39295 3.3261 0
M  V30 7295 O 687.477 0.573846 4.08388 0
M  V30 7296 H 686.818 0.326234 0.578331 0
M  V30 7297 H 689.348 1.50094 1.39043 0
M  V30 7298 H 689.358 1.39366 3.83459 0
M  V30 7299 H 688.033 2.44555 3.36401 0
M  V30 7300 H 686.61 0.640438 3.67359 0
M  V30 7301 N 688.795 -1.27931 0.920396 0
M  V30 7302 C 690.211 -1.47085 0.619537 0
M  V30 7303 C 690.411 -1.83463 -0.833291 0
M  V30 7304 O 689.467 -1.94363 -1.61181 0
M  V30 7305 C 690.78 -2.56878 1.56314 0
M  V30 7306 C 692.328 -2.70743 1.57058 0
M  V30 7307 C 692.803 -3.83687 2.50097 0
M  V30 7308 N 694.294 -3.9105 2.48262 0
M  V30 7309 C 695.029 -4.77842 3.16945 0
M  V30 7310 N 694.525 -5.69176 3.94982 0
M  V30 7311 N 696.318 -4.71509 3.06 0
M  V30 7312 H 688.469 -1.02601 1.85975 0
M  V30 7313 H 690.732 -0.511682 0.798051 0
M  V30 7314 H 690.438 -2.36923 2.59923 0
M  V30 7315 H 690.312 -3.54117 1.29928 0
M  V30 7316 H 692.699 -2.90083 0.541832 0
M  V30 7317 H 692.78 -1.74015 1.8749 0
M  V30 7318 H 692.424 -3.65101 3.53077 0
M  V30 7319 H 692.354 -4.79827 2.16964 0
M  V30 7320 H 694.845 -3.25738 1.91581 0
M  V30 7321 H 695.158 -6.32245 4.44394 0
M  V30 7322 H 693.503 -5.68995 3.99086 0
M  V30 7323 H 696.694 -3.99151 2.44533 0
M  V30 7324 H 696.867 -5.38933 3.59799 0
M  V30 7325 N 690.273 -0.685099 -1.4193 0
M  V30 7326 C 691.521 -0.21124 -2.00993 0
M  V30 7327 C 691.842 1.18985 -1.54491 0
M  V30 7328 O 691.112 1.8009 -0.771 0
M  V30 7329 H 689.692 -0.0751059 -0.743215 0
M  V30 7330 H 692.354 -0.883915 -1.73704 0
M  V30 7331 H 691.45 -0.220513 -3.1132 0
M  V30 7332 N 691.751 1.51645 -0.429126 0
M  V30 7333 C 692.681 2.30434 0.377148 0
M  V30 7334 C 693.662 1.35493 1.02838 0
M  V30 7335 O 694.847 1.6441 1.03359 0
M  V30 7336 C 691.977 3.14038 1.48315 0
M  V30 7337 C 690.931 4.1719 0.955855 0
M  V30 7338 C 690.257 4.89263 2.15698 0
M  V30 7339 C 691.557 5.223 -0.00402136 0
M  V30 7340 H 693.251 2.98085 -0.280336 0
M  V30 7341 H 690.797 1.43354 -0.136265 0
M  V30 7342 H 692.75 3.67933 2.05435 0
M  V30 7343 H 691.474 2.44193 2.16881 0
M  V30 7344 H 690.133 3.64335 0.406929 0
M  V30 7345 H 689.781 4.15929 2.82864 0
M  V30 7346 H 689.481 5.59009 1.81059 0
M  V30 7347 H 691.005 5.45978 2.73387 0
M  V30 7348 H 692.419 5.71315 0.476607 0
M  V30 7349 H 690.816 5.99525 -0.26258 0
M  V30 7350 H 691.886 4.75638 -0.943236 0
M  V30 7351 N 693.229 0.160201 1.56784 0
M  V30 7352 C 694.64 -0.358417 1.83227 0
M  V30 7353 C 694.991 -1.63831 1.07952 0
M  V30 7354 O 694.116 -2.13885 0.328995 0
M  V30 7355 C 694.711 -0.657058 3.32368 0
M  V30 7356 C 693.27 -1.12015 3.59346 0
M  V30 7357 C 692.417 -0.15015 2.76893 0
M  V30 7358 H 695.368 0.384669 1.53967 0
M  V30 7359 H 695.389 -1.51033 3.49241 0
M  V30 7360 H 694.901 0.274647 3.87127 0
M  V30 7361 H 693.002 -2.06734 3.09987 0
M  V30 7362 H 693.115 -1.037 4.67743 0
M  V30 7363 H 691.479 -0.645361 2.46388 0
M  V30 7364 H 692.262 0.775379 3.34429 0
M  V30 7365 N 694.707 -1.5719 -0.113559 0
M  V30 7366 C 696.118 -1.74259 -0.670116 0
M  V30 7367 C 696.469 -0.779694 -1.80042 0
M  V30 7368 O 695.594 0.0461353 -2.16351 0
M  V30 7369 C 696.189 -3.15981 -1.22236 0
M  V30 7370 C 694.748 -3.34537 -1.72516 0
M  V30 7371 C 693.895 -2.70116 -0.627098 0
M  V30 7372 H 696.846 -1.58301 0.112396 0
M  V30 7373 H 696.867 -3.17832 -2.09197 0
M  V30 7374 H 696.379 -3.86038 -0.39949 0
M  V30 7375 H 694.48 -2.6953 -2.57263 0
M  V30 7376 H 694.593 -4.42737 -1.83086 0
M  V30 7377 H 692.957 -2.31501 -1.06204 0
M  V30 7378 H 693.74 -3.42802 0.184889 0
M  V30 7379 N 696.185 0.383891 -1.52853 0
M  V30 7380 C 697.41 1.154 -1.7233 0
M  V30 7381 C 697.835 1.82809 -0.44298 0
M  V30 7382 O 697.193 1.71026 0.601645 0
M  V30 7383 C 697.241 2.17386 -2.87708 0
M  V30 7384 O 696.345 3.24082 -2.55038 0
M  V30 7385 H 695.686 0.335709 -0.572883 0
M  V30 7386 H 698.216 0.44662 -1.99666 0
M  V30 7387 H 698.226 2.61296 -3.1335 0
M  V30 7388 H 696.901 1.6771 -3.80587 0
M  V30 7389 H 695.478 2.85273 -2.40153 0
M  V30 7390 N 697.663 1.43903 0.642637 0
M  V30 7391 C 698.888 1.49758 1.43483 0
M  V30 7392 C 699.313 0.119911 1.87717 0
M  V30 7393 O 698.671 -0.888558 1.58033 0
M  V30 7394 C 698.719 2.45744 2.63898 0
M  V30 7395 O 697.823 1.95101 3.63331 0
M  V30 7396 H 697.164 0.506138 0.429791 0
M  V30 7397 H 699.694 1.88923 0.785438 0
M  V30 7398 H 699.704 2.63399 3.11584 0
M  V30 7399 H 698.379 3.45818 2.31046 0
M  V30 7400 H 696.956 1.87158 3.22531 0
M  V30 7401 N 699.141 -0.881989 1.30609 0
M  V30 7402 C 700.552 -1.44956 1.17664 0
M  V30 7403 C 700.903 -1.94945 -0.221531 0
M  V30 7404 O 700.028 -1.85257 -1.11844 0
M  V30 7405 C 700.623 -2.63474 2.12995 0
M  V30 7406 C 699.182 -3.16312 2.04019 0
M  V30 7407 C 698.329 -1.89008 2.02907 0
M  V30 7408 H 701.28 -0.691645 1.42835 0
M  V30 7409 H 701.301 -3.39783 1.71253 0
M  V30 7410 H 700.813 -2.2706 3.14746 0
M  V30 7411 H 698.914 -3.57376 1.0542 0
M  V30 7412 H 699.027 -3.79409 2.9255 0
M  V30 7413 H 697.391 -2.07465 1.47751 0
M  V30 7414 H 698.174 -1.54848 3.06394 0
M  V30 7415 N 700.619 -1.13374 -1.09472 0
M  V30 7416 C 701.552 -0.754354 -2.15371 0
M  V30 7417 C 702.53 0.259205 -1.60521 0
M  V30 7418 O 703.714 0.150819 -1.87896 0
M  V30 7419 C 700.841 -0.118197 -3.38494 0
M  V30 7420 C 699.887 -1.10017 -4.12066 0
M  V30 7421 S 700.72 -2.63242 -4.6633 0
M  V30 7422 C 701.876 -2.00984 -5.92753 0
M  V30 7423 H 702.109 -1.65135 -2.4722 0
M  V30 7424 H 699.642 -0.953838 -1.21414 0
M  V30 7425 H 701.6 0.242447 -4.09783 0
M  V30 7426 H 700.261 0.756065 -3.04865 0
M  V30 7427 H 699.454 -0.60287 -5.00381 0
M  V30 7428 H 699.056 -1.40426 -3.46636 0
M  V30 7429 H 701.348 -1.35863 -6.63738 0
M  V30 7430 H 702.291 -2.8738 -6.47162 0
M  V30 7431 H 702.699 -1.46161 -5.4525 0
M  V30 7432 N 702.098 1.27442 -0.927168 0
M  V30 7433 C 703.344 1.94679 -0.568164 0
M  V30 7434 C 703.677 1.72697 0.888219 0
M  V30 7435 O 702.952 1.05573 1.63354 0
M  V30 7436 C 703.235 3.4882 -0.894253 0
M  V30 7437 C 703.088 3.80146 -2.40435 0
M  V30 7438 C 704.407 4.38281 -0.399766 0
M  V30 7439 H 701.526 0.707071 -0.207892 0
M  V30 7440 H 704.168 1.50568 -1.15885 0
M  V30 7441 H 702.318 3.86522 -0.391566 0
M  V30 7442 H 703.99 3.52238 -2.97869 0
M  V30 7443 H 702.233 3.26716 -2.85375 0
M  V30 7444 H 702.904 4.87835 -2.58304 0
M  V30 7445 H 705.38 4.07726 -0.83058 0
M  V30 7446 H 704.256 5.44955 -0.656885 0
M  V30 7447 H 704.517 4.36521 0.700153 0
M  V30 7448 N 703.576 0.692616 1.41565 0
M  V30 7449 C 704.801 0.229776 2.06123 0
M  V30 7450 C 705.226 -1.11119 1.5177 0
M  V30 7451 O 704.584 -1.69498 0.643444 0
M  V30 7452 C 704.632 0.19469 3.60074 0
M  V30 7453 O 703.736 -0.831366 4.03933 0
M  V30 7454 H 703.077 0.113002 0.654314 0
M  V30 7455 H 705.607 0.946645 1.81383 0
M  V30 7456 H 705.617 0.0245487 4.07993 0
M  V30 7457 H 704.292 1.17339 3.99004 0
M  V30 7458 H 702.869 -0.630819 3.67526 0
M  V30 7459 N 705.054 -1.51416 0.437162 0
M  V30 7460 C 706.279 -2.0699 -0.130424 0
M  V30 7461 C 706.704 -1.30249 -1.35709 0
M  V30 7462 O 706.062 -0.340388 -1.78076 0
M  V30 7463 C 706.11 -3.5801 -0.43142 0
M  V30 7464 O 705.214 -3.8345 -1.5179 0
M  V30 7465 H 704.555 -0.663997 -0.00194339 0
M  V30 7466 H 707.085 -1.95029 0.618445 0
M  V30 7467 H 707.095 -4.02261 -0.681926 0
M  V30 7468 H 705.77 -4.13291 0.465137 0
M  V30 7469 H 704.347 -3.51062 -1.25737 0
M  V30 7470 N 706.532 -0.168513 -1.56696 0
M  V30 7471 C 707.495 0.748928 -2.16619 0
M  V30 7472 C 708.495 1.16007 -1.11351 0
M  V30 7473 O 709.685 1.07748 -1.3688 0
M  V30 7474 C 706.817 2.01904 -2.74677 0
M  V30 7475 H 708.01 0.227317 -2.99037 0
M  V30 7476 H 705.563 0.0810372 -1.5609 0
M  V30 7477 H 706.298 2.58381 -1.95985 0
M  V30 7478 H 706.083 1.73323 -3.51712 0
M  V30 7479 H 707.573 2.67383 -3.20774 0
M  V30 7480 N 708.01 1.57248 0.105221 0
M  V30 7481 C 708.96 1.9777 1.1345 0
M  V30 7482 C 709.944 0.854654 1.36325 0
M  V30 7483 O 711.136 1.11844 1.37186 0
M  V30 7484 C 708.265 2.39717 2.45745 0
M  V30 7485 C 707.351 3.58686 2.26286 0
M  V30 7486 N 707.742 4.73942 1.76671 0
M  V30 7487 C 706.04 3.64586 2.56891 0
M  V30 7488 C 706.741 5.55923 1.71245 0
M  V30 7489 N 705.717 4.98803 2.16093 0
M  V30 7490 H 709.519 2.84336 0.743664 0
M  V30 7491 H 707.033 1.59359 0.312787 0
M  V30 7492 H 709.03 2.66971 3.20206 0
M  V30 7493 H 707.69 1.54523 2.85574 0
M  V30 7494 H 708.701 4.9689 1.46016 0
M  V30 7495 H 705.378 2.90031 3.00314 0
M  V30 7496 H 706.768 6.58398 1.34022 0
M  V30 7497 N 709.488 -0.375779 1.53054 0
M  V30 7498 C 710.436 -1.48015 1.79428 0
M  V30 7499 C 711.43 -1.55893 0.662854 0
M  V30 7500 O 712.636 -1.58901 0.845599 0
M  V30 7501 H 709.011 -0.492887 0.56795 0
M  V30 7502 H 710.982 -1.22971 2.71884 0
M  V30 7503 C 709.731 -2.84984 1.99197 0
M  V30 7504 H 709.054 -2.79677 2.85693 0
M  V30 7505 H 710.494 -3.61462 2.21633 0
M  V30 7506 C 708.953 -3.28025 0.768183 0
M  V30 7507 O 709.483 -4.01671 -0.0480482 0
M  V30 7508 N 707.689 -2.84454 0.594521 0
M  V30 7509 H 707.236 -2.24688 1.25988 0
M  V30 7510 H 707.194 -3.13609 -0.222916 0
M  V30 7511 N 710.966 -1.44241 -0.634997 0
M  V30 7512 C 712.377 -1.41622 -1.21655 0
M  V30 7513 C 712.728 -0.129584 -1.95772 0
M  V30 7514 O 711.853 0.770225 -2.02229 0
M  V30 7515 C 712.448 -2.56557 -2.21278 0
M  V30 7516 C 711.007 -2.57145 -2.7487 0
M  V30 7517 C 710.154 -2.33354 -1.49804 0
M  V30 7518 H 713.105 -1.52878 -0.425905 0
M  V30 7519 H 713.126 -2.29089 -3.03807 0
M  V30 7520 H 712.638 -3.50186 -1.67306 0
M  V30 7521 H 710.739 -1.67447 -3.32855 0
M  V30 7522 H 710.852 -3.55507 -3.21172 0
M  V30 7523 H 709.216 -1.82372 -1.77799 0
M  V30 7524 H 709.999 -3.29092 -0.977402 0
M  V30 7525 N 712.444 0.87505 -1.31075 0
M  V30 7526 C 713.392 2.00317 -1.18219 0
M  V30 7527 C 714.386 1.69152 -0.0916872 0
M  V30 7528 O 715.592 1.7821 -0.253229 0
M  V30 7529 H 711.967 0.656981 -0.365895 0
M  V30 7530 H 713.938 2.08293 -2.13674 0
M  V30 7531 C 712.687 3.35821 -0.901095 0
M  V30 7532 H 712.01 3.6032 -1.73233 0
M  V30 7533 H 713.45 4.15366 -0.851295 0
M  V30 7534 C 711.909 3.34563 0.396114 0
M  V30 7535 O 712.439 3.75971 1.41452 0
M  V30 7536 N 710.645 2.87681 0.410832 0
M  V30 7537 H 710.192 2.54179 -0.418415 0
M  V30 7538 H 710.15 2.87223 1.27869 0
M  V30 7539 N 713.922 1.13953 1.08869 0
M  V30 7540 C 714.869 0.82213 2.15661 0
M  V30 7541 C 715.839 -0.218274 1.6466 0
M  V30 7542 O 717.024 -0.0892475 1.90591 0
M  V30 7543 C 714.164 0.300572 3.43789 0
M  V30 7544 C 713.277 1.40071 4.08661 0
M  V30 7545 C 712.412 0.836897 5.24566 0
M  V30 7546 C 711.451 1.91504 5.81371 0
M  V30 7547 N 710.588 1.36875 6.88629 0
M  V30 7548 H 715.428 1.73683 2.42153 0
M  V30 7549 H 712.965 0.866879 1.18843 0
M  V30 7550 H 714.923 -0.0199943 4.17195 0
M  V30 7551 H 713.553 -0.577248 3.17597 0
M  V30 7552 H 712.605 1.83776 3.33062 0
M  V30 7553 H 713.917 2.21534 4.46905 0
M  V30 7554 H 713.071 0.467953 6.04893 0
M  V30 7555 H 711.81 -0.00874207 4.87699 0
M  V30 7556 H 710.815 2.29299 4.99702 0
M  V30 7557 H 712.04 2.76419 6.20298 0
M  V30 7558 H 709.986 0.545211 6.5373 0
M  V30 7559 H 709.903 2.1198 7.25672 0
M  V30 7560 H 711.171 1.02756 7.72698 0
M  V30 7561 N 715.4 -1.26948 0.933913 0
M  V30 7562 C 716.363 -2.24889 0.442457 0
M  V30 7563 C 717.363 -1.54594 -0.442426 0
M  V30 7564 O 718.553 -1.72502 -0.242629 0
M  V30 7565 C 715.685 -3.3896 -0.363173 0
M  V30 7566 H 716.878 -2.69879 1.30787 0
M  V30 7567 H 714.431 -1.38978 0.715187 0
M  V30 7568 H 715.166 -2.99361 -1.24714 0
M  V30 7569 H 714.951 -3.9116 0.271366 0
M  V30 7570 H 716.441 -4.11739 -0.697186 0
M  V30 7571 N 716.879 -0.700114 -1.41195 0
M  V30 7572 C 717.789 -0.0382854 -2.34569 0
M  V30 7573 C 718.805 0.761036 -1.56474 0
M  V30 7574 O 719.981 0.697553 -1.88934 0
M  V30 7575 C 717.046 0.883522 -3.35253 0
M  V30 7576 C 716.107 0.0758957 -4.29233 0
M  V30 7577 C 715.34 0.9538 -5.25108 0
M  V30 7578 O 715.563 2.19326 -5.26547 0
M  V30 7579 O 714.497 0.401049 -6.00562 0
M  V30 7580 H 718.323 -0.808073 -2.92752 0
M  V30 7581 H 715.908 -0.460479 -1.42127 0
M  V30 7582 H 717.79 1.41199 -3.9704 0
M  V30 7583 H 716.465 1.63272 -2.79506 0
M  V30 7584 H 715.372 -0.497274 -3.7078 0
M  V30 7585 H 716.705 -0.634741 -4.8809 0
M  V30 7586 N 718.357 1.51182 -0.445186 0
M  V30 7587 C 719.606 2.01342 0.120189 0
M  V30 7588 C 719.919 1.33353 1.43095 0
M  V30 7589 O 721.125 1.74525 2.07974 0
M  V30 7590 C 719.581 3.58925 0.264732 0
M  V30 7591 C 719.189 4.35855 -1.03606 0
M  V30 7592 C 720.933 4.17208 0.783455 0
M  V30 7593 C 718.84 5.85162 -0.856731 0
M  V30 7594 H 717.77 0.752426 0.0486922 0
M  V30 7595 H 720.421 1.74221 -0.576143 0
M  V30 7596 H 718.803 3.82525 1.02425 0
M  V30 7597 H 719.977 4.23997 -1.80452 0
M  V30 7598 H 718.292 3.89062 -1.48391 0
M  V30 7599 H 720.889 5.26475 0.934239 0
M  V30 7600 H 721.232 3.76892 1.768 0
M  V30 7601 H 721.765 3.97715 0.0820346 0
M  V30 7602 H 718.504 6.29904 -1.81388 0
M  V30 7603 H 718.024 5.99663 -0.128206 0
M  V30 7604 H 719.703 6.44963 -0.513027 0
M  V30 7605 N 719.835 0.176821 1.56605 0
M  V30 7606 C 721.246 -0.338963 1.83597 0
M  V30 7607 C 721.597 -1.62677 1.09684 0
M  V30 7608 O 720.722 -2.13524 0.351661 0
M  V30 7609 C 721.317 -0.62177 3.33046 0
M  V30 7610 C 719.876 -1.08198 3.60514 0
M  V30 7611 C 719.023 -0.120774 2.77037 0
M  V30 7612 H 721.974 0.400978 1.53551 0
M  V30 7613 H 721.995 -1.47321 3.50823 0
M  V30 7614 H 721.507 0.315692 3.86814 0
M  V30 7615 H 719.608 -2.03435 3.12162 0
M  V30 7616 H 719.721 -0.987329 4.68816 0
M  V30 7617 H 718.085 -0.619192 2.47059 0
M  V30 7618 H 718.868 0.810806 3.33588 0
M  V30 7619 N 721.313 -1.57302 -0.09688 0
M  V30 7620 C 722.223 -2.05258 -1.13606 0
M  V30 7621 C 723.239 -0.977137 -1.43972 0
M  V30 7622 O 724.415 -1.29018 -1.54649 0
M  V30 7623 C 721.48 -2.46593 -2.43706 0
M  V30 7624 C 720.541 -3.68322 -2.20538 0
M  V30 7625 C 719.774 -4.07676 -3.44435 0
M  V30 7626 O 719.997 -3.47141 -4.52603 0
M  V30 7627 O 718.931 -5.00641 -3.34129 0
M  V30 7628 H 722.757 -2.94069 -0.758752 0
M  V30 7629 H 720.342 -1.46164 -0.309263 0
M  V30 7630 H 722.224 -2.73814 -3.20318 0
M  V30 7631 H 720.899 -1.6092 -2.80867 0
M  V30 7632 H 719.806 -3.4622 -1.41713 0
M  V30 7633 H 721.139 -4.54769 -1.88271 0
M  V30 7634 N 722.791 0.367657 -1.53252 0
M  V30 7635 C 724.207 0.709191 -1.42978 0
M  V30 7636 C 724.407 1.93352 -0.567193 0
M  V30 7637 O 723.463 2.52453 -0.0488349 0
M  V30 7638 C 724.776 0.924338 -2.86141 0
M  V30 7639 C 726.324 1.02448 -2.95759 0
M  V30 7640 C 726.799 1.27211 -4.39979 0
M  V30 7641 N 728.29 1.33986 -4.43398 0
M  V30 7642 C 729.025 1.54852 -5.52095 0
M  V30 7643 N 728.521 1.73049 -6.7084 0
M  V30 7644 N 730.314 1.57205 -5.39669 0
M  V30 7645 H 722.465 -0.437669 -2.07842 0
M  V30 7646 H 724.728 -0.133737 -0.938519 0
M  V30 7647 H 724.434 0.0965455 -3.51567 0
M  V30 7648 H 724.308 1.83302 -3.29667 0
M  V30 7649 H 726.695 1.84282 -2.30487 0
M  V30 7650 H 726.776 0.0932301 -2.5563 0
M  V30 7651 H 726.42 0.458792 -5.05824 0
M  V30 7652 H 726.35 2.21654 -4.77679 0
M  V30 7653 H 728.841 1.21545 -3.5782 0
M  V30 7654 H 729.154 1.88538 -7.49449 0
M  V30 7655 H 727.499 1.70231 -6.7383 0
M  V30 7656 H 730.69 1.42555 -4.45865 0
M  V30 7657 H 730.863 1.73126 -6.24445 0
M  V30 7658 N 724.269 1.44576 0.627338 0
M  V30 7659 C 725.685 1.28546 0.945938 0
M  V30 7660 C 725.885 0.224003 2.00251 0
M  V30 7661 O 724.941 -0.388817 2.49488 0
M  V30 7662 C 726.254 2.65825 1.40561 0
M  V30 7663 C 727.802 2.73566 1.52088 0
M  V30 7664 C 728.277 4.11323 2.01438 0
M  V30 7665 N 729.768 4.13519 2.08702 0
M  V30 7666 C 730.503 5.16964 2.48065 0
M  V30 7667 N 729.999 6.30768 2.86538 0
M  V30 7668 N 731.792 5.04319 2.48232 0
M  V30 7669 H 723.943 2.1228 -0.0713567 0
M  V30 7670 H 726.206 0.947503 0.0307081 0
M  V30 7671 H 725.912 3.44591 0.703539 0
M  V30 7672 H 725.786 2.92969 2.37591 0
M  V30 7673 H 728.173 1.95116 2.21391 0
M  V30 7674 H 728.254 2.50159 0.534237 0
M  V30 7675 H 727.898 4.9025 1.32729 0
M  V30 7676 H 727.828 4.32109 3.0098 0
M  V30 7677 H 730.319 3.31385 1.81638 0
M  V30 7678 H 730.632 7.0551 3.15398 0
M  V30 7679 H 728.977 6.342 2.84281 0
M  V30 7680 H 732.168 4.14465 2.17569 0
M  V30 7681 H 732.341 5.85059 2.78585 0
M  V30 7682 N 725.747 -0.868086 1.31537 0
M  V30 7683 C 726.694 -1.97548 1.19346 0
M  V30 7684 C 727.664 -1.65913 0.0787922 0
M  V30 7685 O 728.849 -1.89129 0.251985 0
M  V30 7686 C 725.989 -3.32922 0.908692 0
M  V30 7687 C 725.102 -3.77141 2.10687 0
M  V30 7688 C 724.237 -5.01241 1.75873 0
M  V30 7689 C 723.276 -5.37914 2.92088 0
M  V30 7690 N 722.413 -6.53192 2.57457 0
M  V30 7691 H 727.253 -2.07307 2.14074 0
M  V30 7692 H 724.79 -1.01483 1.06487 0
M  V30 7693 H 726.748 -4.10867 0.724138 0
M  V30 7694 H 725.378 -3.228 -0.0017611 0
M  V30 7695 H 724.43 -2.94961 2.40213 0
M  V30 7696 H 725.742 -4.00248 2.97663 0
M  V30 7697 H 724.896 -5.86858 1.53891 0
M  V30 7698 H 723.635 -4.80041 0.86091 0
M  V30 7699 H 722.64 -4.50814 3.14717 0
M  V30 7700 H 723.865 -5.61077 3.82582 0
M  V30 7701 H 721.811 -6.33536 1.702 0
M  V30 7702 H 721.728 -6.76252 3.37963 0
M  V30 7703 H 722.996 -7.41997 2.38873 0
M  V30 7704 N 727.225 -1.14528 -1.08264 0
M  V30 7705 C 728.502 -0.825185 -1.77342 0
M  V30 7706 C 728.882 0.681037 -1.99813 0
M  V30 7707 O 728.23 1.62234 -1.60912 0
M  V30 7708 C 728.44 -1.62556 -3.08831 0
M  V30 7709 C 729.788 -1.82585 -3.83338 0
M  V30 7710 O 730.812 -1.59254 -3.18617 0
M  V30 7711 O 729.671 -2.21598 -4.99556 0
M  V30 7712 H 726.765 -0.302531 -0.769678 0
M  V30 7713 H 729.311 -1.25056 -1.14713 0
M  V30 7714 H 728.083 -2.64862 -2.88035 0
M  V30 7715 H 727.706 -1.1959 -3.79189 0
M  V30 7716 N 728.703 1.26451 -0.940633 0
M  V30 7717 C 729.928 1.98407 -0.60412 0
M  V30 7718 C 730.353 1.69584 0.81382 0
M  V30 7719 O 729.711 0.943553 1.54812 0
M  V30 7720 C 729.759 3.50387 -0.852136 0
M  V30 7721 O 728.863 4.1233 0.076013 0
M  V30 7722 H 728.204 0.622466 -0.231153 0
M  V30 7723 H 730.734 1.60932 -1.26342 0
M  V30 7724 H 730.744 4.00614 -0.772816 0
M  V30 7725 H 729.419 3.70696 -1.88566 0
M  V30 7726 H 727.996 3.7286 -0.0543187 0
M  V30 7727 N 730.181 0.707592 1.40822 0
M  V30 7728 C 731.409 0.253073 2.05346 0
M  V30 7729 C 731.824 -1.10218 1.53289 0
M  V30 7730 O 731.181 -1.69112 0.686105 0
M  V30 7731 C 731.232 0.215411 3.60858 0
M  V30 7732 O 730.953 1.51714 4.10992 0
M  V30 7733 C 732.454 -0.258636 4.42545 0
M  V30 7734 H 729.674 0.115256 0.661027 0
M  V30 7735 H 732.218 0.963555 1.80377 0
M  V30 7736 H 730.373 -0.445978 3.84824 0
M  V30 7737 H 730.787 1.41226 5.05129 0
M  V30 7738 H 732.261 -0.233849 5.51504 0
M  V30 7739 H 732.738 -1.2995 4.19535 0
M  V30 7740 H 733.344 0.372186 4.23668 0
M  V30 7741 N 731.66 -1.50943 0.453197 0
M  V30 7742 C 732.885 -2.07116 -0.108463 0
M  V30 7743 C 733.31 -1.31681 -1.3432 0
M  V30 7744 O 732.668 -0.359256 -1.77705 0
M  V30 7745 C 732.716 -3.58447 -0.393424 0
M  V30 7746 O 731.82 -3.85038 -1.47714 0
M  V30 7747 H 731.161 -0.66398 0.0050993 0
M  V30 7748 H 733.691 -1.94362 0.639095 0
M  V30 7749 H 733.701 -4.02961 -0.639222 0
M  V30 7750 H 732.376 -4.12774 0.508946 0
M  V30 7751 H 730.953 -3.52376 -1.22006 0
M  V30 7752 N 733.138 -0.185124 -1.56509 0
M  V30 7753 C 734.366 0.462139 -2.01673 0
M  V30 7754 C 734.781 1.55873 -1.06532 0
M  V30 7755 O 734.138 1.82371 -0.0684805 0
M  V30 7756 C 734.189 1.0277 -3.46584 0
M  V30 7757 O 733.91 -0.0251296 -4.38093 0
M  V30 7758 C 735.411 1.75183 -4.07217 0
M  V30 7759 H 732.631 0.117001 -0.660721 0
M  V30 7760 H 735.175 -0.290905 -2.0242 0
M  V30 7761 H 733.33 1.73118 -3.46568 0
M  V30 7762 H 733.744 0.394387 -5.23015 0
M  V30 7763 H 735.218 2.09999 -5.10494 0
M  V30 7764 H 735.695 2.6519 -3.50101 0
M  V30 7765 H 736.301 1.09445 -4.10977 0
M  V30 7766 N 734.616 1.57351 0.0885366 0
M  V30 7767 C 736.027 1.75303 0.642308 0
M  V30 7768 C 736.378 0.808238 1.78779 0
M  V30 7769 O 735.503 -0.01171 2.16397 0
M  V30 7770 C 736.098 3.17885 1.17194 0
M  V30 7771 C 734.657 3.37239 1.67172 0
M  V30 7772 C 733.804 2.7108 0.584045 0
M  V30 7773 H 736.755 1.58103 -0.137567 0
M  V30 7774 H 736.776 3.2112 2.04114 0
M  V30 7775 H 736.288 3.86625 0.338024 0
M  V30 7776 H 734.389 2.73588 2.52943 0
M  V30 7777 H 734.502 4.45594 1.76019 0
M  V30 7778 H 732.866 2.33161 1.02508 0
M  V30 7779 H 733.649 3.42464 -0.239403 0
M  V30 7780 N 736.094 -0.359525 1.53444 0
M  V30 7781 C 737.042 -1.46104 1.80987 0
M  V30 7782 C 738.036 -1.55181 0.679351 0
M  V30 7783 O 739.242 -1.57995 0.862405 0
M  V30 7784 H 735.617 -0.486835 0.573145 0
M  V30 7785 H 737.588 -1.2008 2.73173 0
M  V30 7786 C 736.337 -2.82855 2.02208 0
M  V30 7787 H 735.66 -2.76631 2.88644 0
M  V30 7788 H 737.1 -3.59091 2.25455 0
M  V30 7789 C 735.559 -3.27192 0.802931 0
M  V30 7790 O 736.089 -4.017 -0.00544286 0
M  V30 7791 N 734.295 -2.83807 0.624657 0
M  V30 7792 H 733.842 -2.23339 1.28364 0
M  V30 7793 H 733.8 -3.13828 -0.189641 0
M  V30 7794 N 737.572 -1.44907 -0.619662 0
M  V30 7795 C 738.52 -1.52971 -1.75222 0
M  V30 7796 C 739.514 -0.400531 -1.64597 0
M  V30 7797 O 740.72 -0.575952 -1.70537 0
M  V30 7798 H 737.095 -0.480241 -0.578682 0
M  V30 7799 H 739.066 -2.48269 -1.65545 0
M  V30 7800 C 737.815 -1.50204 -3.13583 0
M  V30 7801 H 737.138 -2.36412 -3.22412 0
M  V30 7802 H 738.578 -1.59905 -3.92691 0
M  V30 7803 C 737.037 -0.22455 -3.36151 0
M  V30 7804 O 737.567 0.700574 -3.95544 0
M  V30 7805 N 735.773 -0.124052 -2.90335 0
M  V30 7806 H 735.32 -0.87774 -2.42185 0
M  V30 7807 H 735.278 0.729914 -3.0581 0
M  V30 7808 N 739.05 0.861098 -1.31996 0
M  V30 7809 C 739.98 1.98482 -1.22993 0
M  V30 7810 C 740.961 1.6971 -0.115168 0
M  V30 7811 O 742.146 1.91849 -0.30126 0
M  V30 7812 C 739.276 3.34179 -0.945615 0
M  V30 7813 C 738.23 3.77284 -2.02091 0
M  V30 7814 C 737.556 5.1054 -1.58912 0
M  V30 7815 C 738.856 3.93439 -3.43515 0
M  V30 7816 H 740.55 2.06271 -2.17008 0
M  V30 7817 H 738.096 0.991043 -1.04472 0
M  V30 7818 H 740.049 4.12338 -0.869206 0
M  V30 7819 H 738.773 3.26586 0.0301849 0
M  V30 7820 H 737.432 3.01371 -2.08737 0
M  V30 7821 H 737.08 4.99397 -0.600942 0
M  V30 7822 H 736.78 5.40352 -2.30854 0
M  V30 7823 H 738.304 5.91199 -1.52696 0
M  V30 7824 H 739.718 4.6197 -3.39495 0
M  V30 7825 H 738.115 4.34661 -4.13751 0
M  V30 7826 H 739.185 2.96548 -3.8365 0
M  V30 7827 N 740.528 1.15101 1.07655 0
M  V30 7828 C 741.939 0.933848 1.61667 0
M  V30 7829 C 742.29 -0.525569 1.8903 0
M  V30 7830 O 741.415 -1.39605 1.65346 0
M  V30 7831 C 742.01 1.68876 2.93711 0
M  V30 7832 C 740.569 1.51697 3.44478 0
M  V30 7833 C 739.716 1.70633 2.18586 0
M  V30 7834 H 742.667 1.30171 0.907816 0
M  V30 7835 H 742.688 1.15645 3.625 0
M  V30 7836 H 742.2 2.7509 2.73764 0
M  V30 7837 H 740.301 0.478635 3.69513 0
M  V30 7838 H 740.414 2.29194 4.20722 0
M  V30 7839 H 738.778 1.13259 2.28132 0
M  V30 7840 H 739.561 2.78206 2.01137 0
M  V30 7841 N 742.006 -1.2595 0.947325 0
M  V30 7842 C 743.417 -1.75389 0.639963 0
M  V30 7843 C 743.768 -1.77081 -0.844788 0
M  V30 7844 O 742.893 -1.3869 -1.66114 0
M  V30 7845 C 743.488 -3.18506 1.15496 0
M  V30 7846 C 742.047 -3.65534 0.897894 0
M  V30 7847 C 741.194 -2.44818 1.30228 0
M  V30 7848 H 744.145 -1.1194 1.12495 0
M  V30 7849 H 744.166 -3.77045 0.511627 0
M  V30 7850 H 743.678 -3.17243 2.23559 0
M  V30 7851 H 741.779 -3.72221 -0.168096 0
M  V30 7852 H 741.892 -4.54039 1.52922 0
M  V30 7853 H 740.256 -2.44291 0.720678 0
M  V30 7854 H 741.039 -2.46251 2.39198 0
M  V30 7855 N 743.484 -0.715051 -1.40445 0
M  V30 7856 C 744.709 -0.26254 -2.05732 0
M  V30 7857 C 745.134 1.08691 -1.53519 0
M  V30 7858 O 744.492 1.68453 -0.670328 0
M  V30 7859 C 744.54 -0.25195 -3.59719 0
M  V30 7860 O 743.644 0.766998 -4.05205 0
M  V30 7861 H 742.985 -0.123398 -0.652433 0
M  V30 7862 H 745.515 -0.975382 -1.79854 0
M  V30 7863 H 745.525 -0.0894537 -4.07902 0
M  V30 7864 H 744.2 -1.23672 -3.97087 0
M  V30 7865 H 742.777 0.572269 -3.68483 0
M  V30 7866 N 744.962 1.50701 -0.461195 0
M  V30 7867 C 745.895 2.24948 0.383863 0
M  V30 7868 C 746.873 1.27851 1.00464 0
M  V30 7869 O 748.057 1.57049 1.04249 0
M  V30 7870 C 745.184 3.01818 1.537 0
M  V30 7871 C 744.23 4.13762 1.03457 0
M  V30 7872 S 745.063 5.35483 -0.0427485 0
M  V30 7873 C 746.219 6.15898 1.11449 0
M  V30 7874 H 746.452 2.96277 -0.246425 0
M  V30 7875 H 743.985 1.52428 -0.245961 0
M  V30 7876 H 745.943 3.467 2.19794 0
M  V30 7877 H 744.604 2.30034 2.13877 0
M  V30 7878 H 743.797 4.66914 1.89757 0
M  V30 7879 H 743.399 3.71265 0.4515 0
M  V30 7880 H 745.691 6.46431 2.02813 0
M  V30 7881 H 746.634 7.05359 0.622444 0
M  V30 7882 H 747.042 5.47777 1.36385 0
M  V30 7883 N 746.441 0.193421 1.56409 0
M  V30 7884 C 747.374 -0.767384 2.1491 0
M  V30 7885 C 748.352 -1.21075 1.08534 0
M  V30 7886 O 749.536 -1.29856 1.36637 0
M  V30 7887 C 746.663 -2.03615 2.70663 0
M  V30 7888 C 745.709 -1.73505 3.89613 0
M  V30 7889 S 746.542 -0.884645 5.28142 0
M  V30 7890 C 747.698 -2.1636 5.87315 0
M  V30 7891 H 747.931 -0.270053 2.96071 0
M  V30 7892 H 745.464 -0.0215546 1.54385 0
M  V30 7893 H 747.422 -2.7648 3.03429 0
M  V30 7894 H 746.083 -2.50461 1.89547 0
M  V30 7895 H 745.276 -2.67701 4.27027 0
M  V30 7896 H 744.878 -1.08723 3.57848 0
M  V30 7897 H 747.17 -3.11629 6.01576 0
M  V30 7898 H 748.113 -1.8338 6.83943 0
M  V30 7899 H 748.521 -2.29129 5.15907 0
M  V30 7900 N 747.919 -1.57396 -0.0801906 0
M  V30 7901 C 749.147 -1.91055 -0.794075 0
M  V30 7902 C 749.562 -0.788583 -1.71542 0
M  V30 7903 O 748.919 0.238587 -1.80934 0
M  V30 7904 C 748.97 -3.24418 -1.59484 0
M  V30 7905 O 748.691 -4.323 -0.710532 0
M  V30 7906 C 750.192 -3.72037 -2.41046 0
M  V30 7907 H 747.412 -0.63171 -0.226238 0
M  V30 7908 H 749.956 -2.04431 -0.0529685 0
M  V30 7909 H 748.111 -3.12595 -2.2883 0
M  V30 7910 H 748.525 -5.08976 -1.26663 0
M  V30 7911 H 749.999 -4.68006 -2.92702 0
M  V30 7912 H 750.476 -3.00624 -3.2019 0
M  V30 7913 H 751.082 -3.86777 -1.76871 0
M  V30 7914 N 749.397 0.351382 -1.53633 0
M  V30 7915 C 750.813 0.693987 -1.43722 0
M  V30 7916 C 751.013 1.9274 -0.587669 0
M  V30 7917 O 750.069 2.52387 -0.0756082 0
M  V30 7918 C 751.382 0.893937 -2.87105 0
M  V30 7919 C 752.93 0.993051 -2.96829 0
M  V30 7920 C 753.405 1.22537 -4.41303 0
M  V30 7921 N 754.896 1.29275 -4.44795 0
M  V30 7922 C 755.631 1.48988 -5.53706 0
M  V30 7923 N 755.127 1.65924 -6.72637 0
M  V30 7924 N 756.92 1.51472 -5.41306 0
M  V30 7925 H 749.071 -0.459688 -2.07366 0
M  V30 7926 H 751.334 -0.143684 -0.937048 0
M  V30 7927 H 751.04 0.0592517 -3.5165 0
M  V30 7928 H 750.914 1.79795 -3.31592 0
M  V30 7929 H 753.301 1.81827 -2.32429 0
M  V30 7930 H 753.382 0.0661119 -2.55715 0
M  V30 7931 H 753.026 0.405117 -5.06282 0
M  V30 7932 H 752.956 2.16575 -4.80003 0
M  V30 7933 H 755.447 1.17743 -3.59089 0
M  V30 7934 H 755.76 1.80578 -7.51406 0
M  V30 7935 H 754.105 1.63075 -6.75597 0
M  V30 7936 H 757.296 1.37818 -4.47352 0
M  V30 7937 H 757.469 1.66493 -6.26246 0
M  V30 7938 N 750.875 1.45233 0.611969 0
M  V30 7939 C 752.291 1.29542 0.932251 0
M  V30 7940 C 752.491 0.24523 2.00002 0
M  V30 7941 O 751.547 -0.362333 2.49887 0
M  V30 7942 C 752.86 2.67301 1.37733 0
M  V30 7943 C 754.408 2.75163 1.49178 0
M  V30 7944 C 754.883 4.13437 1.97064 0
M  V30 7945 N 756.374 4.15709 2.04304 0
M  V30 7946 C 757.109 5.19566 2.42568 0
M  V30 7947 N 756.605 6.33771 2.79832 0
M  V30 7948 N 758.398 5.06923 2.42869 0
M  V30 7949 H 750.549 2.12192 -0.0938679 0
M  V30 7950 H 752.812 0.947775 0.0206569 0
M  V30 7951 H 752.518 3.45318 0.666951 0
M  V30 7952 H 752.392 2.95472 2.3447 0
M  V30 7953 H 754.779 1.97453 2.19309 0
M  V30 7954 H 754.86 2.50712 0.507674 0
M  V30 7955 H 754.504 4.91631 1.27521 0
M  V30 7956 H 754.434 4.35277 2.9638 0
M  V30 7957 H 756.925 3.33293 1.78113 0
M  V30 7958 H 757.238 7.08815 3.07898 0
M  V30 7959 H 755.583 6.37179 2.77538 0
M  V30 7960 H 758.774 4.1675 2.1316 0
M  V30 7961 H 758.947 5.87981 2.72364 0
M  V30 7962 N 752.353 -0.854086 1.3245 0
M  V30 7963 C 753.301 -1.98411 1.21391 0
M  V30 7964 C 754.295 -1.68984 0.118586 0
M  V30 7965 O 755.501 -1.77784 0.281549 0
M  V30 7966 H 751.876 -0.651077 0.376301 0
M  V30 7967 H 753.847 -2.04867 2.16961 0
M  V30 7968 C 752.596 -3.34345 0.954407 0
M  V30 7969 H 751.919 -3.57518 1.78944 0
M  V30 7970 H 753.359 -4.13959 0.917269 0
M  V30 7971 C 751.818 -3.35151 -0.342838 0
M  V30 7972 O 752.348 -3.78174 -1.35452 0
M  V30 7973 N 750.554 -2.88298 -0.365012 0
M  V30 7974 H 750.101 -2.53481 0.4588 0
M  V30 7975 H 750.059 -2.8922 -1.23284 0
M  V30 7976 N 753.831 -1.1567 -1.07043 0
M  V30 7977 C 755.059 -0.957471 -1.83412 0
M  V30 7978 C 755.474 0.494271 -1.82215 0
M  V30 7979 O 754.831 1.34288 -1.23584 0
M  V30 7980 C 754.882 -1.46784 -3.30359 0
M  V30 7981 O 754.603 -2.86271 -3.31633 0
M  V30 7982 C 756.104 -1.31054 -4.23485 0
M  V30 7983 H 753.324 -0.33986 -0.578564 0
M  V30 7984 H 755.868 -1.53518 -1.35102 0
M  V30 7985 H 754.023 -0.932586 -3.76007 0
M  V30 7986 H 754.437 -3.0948 -4.23465 0
M  V30 7987 H 755.911 -1.71605 -5.24648 0
M  V30 7988 H 756.388 -0.255107 -4.38458 0
M  V30 7989 H 756.994 -1.83503 -3.83676 0
M  V30 7990 N 755.309 1.25446 -0.953992 0
M  V30 7991 C 756.539 1.96929 -0.624688 0
M  V30 7992 C 756.947 1.71112 0.807292 0
M  V30 7993 O 756.29 0.983512 1.55154 0
M  V30 7994 C 756.352 3.50425 -0.802676 0
M  V30 7995 C 756.016 3.99916 -2.21169 0
M  V30 7996 C 757.013 4.10662 -3.18831 0
M  V30 7997 C 754.698 4.33598 -2.53571 0
M  V30 7998 C 756.692 4.54401 -4.46988 0
M  V30 7999 C 754.379 4.77024 -3.81958 0
M  V30 8000 C 755.377 4.87388 -4.78478 0
M  V30 8001 O 755.065 5.29851 -6.04577 0
M  V30 8002 H 754.797 0.634511 -0.233179 0
M  V30 8003 H 757.351 1.60591 -1.28061 0
M  V30 8004 H 755.581 3.86596 -0.0896044 0
M  V30 8005 H 757.27 4.03117 -0.47452 0
M  V30 8006 H 758.036 3.84872 -2.95124 0
M  V30 8007 H 753.915 4.24757 -1.79171 0
M  V30 8008 H 757.459 4.62406 -5.22328 0
M  V30 8009 H 753.356 5.02258 -4.05471 0
M  V30 8010 H 754.124 5.48039 -6.07944 0
M  V30 8011 N 756.787 0.722489 1.40064 0
M  V30 8012 C 758.033 0.265371 2.01056 0
M  V30 8013 C 758.366 -1.14062 1.57174 0
M  V30 8014 O 757.641 -1.77514 0.794916 0
M  V30 8015 C 757.924 0.353157 3.58364 0
M  V30 8016 C 757.777 1.79802 4.123 0
M  V30 8017 C 759.096 -0.271677 4.39261 0
M  V30 8018 H 756.215 0.0979002 0.730469 0
M  V30 8019 H 758.857 0.916289 1.66446 0
M  V30 8020 H 757.007 -0.201037 3.87979 0
M  V30 8021 H 758.679 2.40813 3.93455 0
M  V30 8022 H 756.922 2.32348 3.66329 0
M  V30 8023 H 757.593 1.81079 5.21454 0
M  V30 8024 H 760.069 0.200607 4.15616 0
M  V30 8025 H 758.945 -0.179843 5.48605 0
M  V30 8026 H 759.206 -1.35611 4.20787 0
M  V30 8027 N 758.265 -1.50454 0.469181 0
M  V30 8028 C 759.505 -2.04222 -0.0852381 0
M  V30 8029 C 759.869 -1.34357 -1.37158 0
M  V30 8030 O 761.07 -1.78669 -2.00825 0
M  V30 8031 C 759.341 -3.56403 -0.266778 0
M  V30 8032 S 760.9 -4.31811 -0.780028 0
M  V30 8033 H 757.718 -0.7108 -0.0168589 0
M  V30 8034 H 760.32 -1.8487 0.635883 0
M  V30 8035 H 759.024 -4.04807 0.67525 0
M  V30 8036 H 758.555 -3.80106 -1.01407 0
M  V30 8037 H 760.57 -4.51706 -2.05368 0
M  V30 8038 N 759.743 -0.201713 -1.56304 0
M  V30 8039 C 760.971 0.440723 -2.02152 0
M  V30 8040 C 761.386 1.54735 -1.08179 0
M  V30 8041 O 760.743 1.82289 -0.0878196 0
M  V30 8042 C 760.794 0.990884 -3.47655 0
M  V30 8043 O 760.515 -0.0715937 -4.38041 0
M  V30 8044 C 762.016 1.70854 -4.09052 0
M  V30 8045 H 759.236 0.109987 -0.661924 0
M  V30 8046 H 761.78 -0.312358 -2.021 0
M  V30 8047 H 759.935 1.69432 -3.48384 0
M  V30 8048 H 760.349 0.338892 -5.23404 0
M  V30 8049 H 761.823 2.04572 -5.12693 0
M  V30 8050 H 762.3 2.61462 -3.52894 0
M  V30 8051 H 762.906 1.0508 -4.12114 0
M  V30 8052 N 761.222 1.57436 0.0718424 0
M  V30 8053 C 762.132 2.07039 1.10326 0
M  V30 8054 C 763.148 0.999918 1.424 0
M  V30 8055 O 764.324 1.31462 1.52577 0
M  V30 8056 C 761.389 2.50439 2.39752 0
M  V30 8057 C 760.45 3.71784 2.14651 0
M  V30 8058 C 759.683 4.13104 3.37906 0
M  V30 8059 O 759.906 3.54298 4.47023 0
M  V30 8060 O 758.84 5.05894 3.26121 0
M  V30 8061 H 762.666 2.95239 0.711872 0
M  V30 8062 H 760.251 1.46638 0.28597 0
M  V30 8063 H 762.133 2.78876 3.15921 0
M  V30 8064 H 760.808 1.65368 2.78271 0
M  V30 8065 H 759.715 3.48431 1.36187 0
M  V30 8066 H 761.048 4.57707 1.81012 0
M  V30 8067 N 762.7 -0.34323 1.53817 0
M  V30 8068 C 764.116 -0.686355 1.44088 0
M  V30 8069 C 764.316 -1.92426 0.597882 0
M  V30 8070 O 763.372 -2.52343 0.0889918 0
M  V30 8071 C 764.685 -0.878698 2.87575 0
M  V30 8072 C 766.233 -0.977296 2.97352 0
M  V30 8073 C 766.708 -1.20195 4.41947 0
M  V30 8074 N 768.199 -1.26915 4.45474 0
M  V30 8075 C 768.934 -1.46049 5.54488 0
M  V30 8076 N 768.43 -1.62354 6.73508 0
M  V30 8077 N 770.223 -1.48599 5.42102 0
M  V30 8078 H 762.374 0.470679 2.07119 0
M  V30 8079 H 764.637 0.148652 0.936273 0
M  V30 8080 H 764.343 -0.040602 3.51677 0
M  V30 8081 H 764.217 -1.78034 3.32541 0
M  V30 8082 H 766.604 -1.80591 2.3339 0
M  V30 8083 H 766.685 -0.0525498 2.55746 0
M  V30 8084 H 766.329 -0.378262 5.06489 0
M  V30 8085 H 766.259 -2.14027 4.81145 0
M  V30 8086 H 768.75 -1.15837 3.59708 0
M  V30 8087 H 769.063 -1.76591 7.52353 0
M  V30 8088 H 767.408 -1.5949 6.76453 0
M  V30 8089 H 770.599 -1.35443 4.48077 0
M  V30 8090 H 770.772 -1.6317 6.2712 0
M  V30 8091 N 764.178 -1.45556 -0.604258 0
M  V30 8092 C 765.589 -1.44171 -1.18624 0
M  V30 8093 C 765.94 -0.171081 -1.95453 0
M  V30 8094 O 765.065 0.727156 -2.03817 0
M  V30 8095 C 765.66 -2.61193 -2.15786 0
M  V30 8096 C 764.219 -2.62918 -2.69353 0
M  V30 8097 C 763.366 -2.36479 -1.4482 0
M  V30 8098 H 766.317 -1.53747 -0.393381 0
M  V30 8099 H 766.338 -2.35481 -2.98879 0
M  V30 8100 H 765.85 -3.53656 -1.59841 0
M  V30 8101 H 763.951 -1.7447 -3.29228 0
M  V30 8102 H 764.064 -3.6224 -3.13559 0
M  V30 8103 H 762.428 -1.86103 -1.73891 0
M  V30 8104 H 763.211 -3.31091 -0.907376 0
M  V30 8105 N 765.656 0.84705 -1.32902 0
M  V30 8106 C 766.904 1.5986 -1.2365 0
M  V30 8107 C 767.225 1.93974 0.199789 0
M  V30 8108 O 766.495 1.60273 1.12648 0
M  V30 8109 H 765.075 0.592696 -0.454665 0
M  V30 8110 H 767.737 1.01278 -1.66519 0
M  V30 8111 H 766.833 2.53218 -1.82448 0
M  V30 8112 N 767.134 1.16236 1.06428 0
M  V30 8113 C 768.097 0.870163 2.1204 0
M  V30 8114 C 769.097 -0.134239 1.60239 0
M  V30 8115 O 770.287 0.0964932 1.73933 0
M  V30 8116 C 767.419 0.301033 3.39568 0
M  V30 8117 H 768.612 1.8064 2.39394 0
M  V30 8118 H 766.165 0.971116 1.2247 0
M  V30 8119 H 766.9 -0.642948 3.17863 0
M  V30 8120 H 766.685 1.02475 3.78472 0
M  V30 8121 H 768.175 0.114494 4.17443 0
M  V30 8122 N 768.612 -1.24939 0.960631 0
M  V30 8123 C 769.522 -2.29374 0.492435 0
M  V30 8124 C 770.538 -1.68262 -0.443154 0
M  V30 8125 O 771.714 -1.98875 -0.31793 0
M  V30 8126 C 768.779 -3.46023 -0.216626 0
M  V30 8127 C 767.84 -4.22557 0.757915 0
M  V30 8128 C 767.073 -5.33636 0.0825969 0
M  V30 8129 O 767.296 -5.59084 -1.13054 0
M  V30 8130 O 766.23 -5.96939 0.771177 0
M  V30 8131 H 770.056 -2.71525 1.36044 0
M  V30 8132 H 767.641 -1.30499 0.72735 0
M  V30 8133 H 769.523 -4.16885 -0.615241 0
M  V30 8134 H 768.198 -3.05862 -1.05971 0
M  V30 8135 H 767.105 -3.54099 1.20685 0
M  V30 8136 H 768.438 -4.66516 1.5692 0
M  V30 8137 N 770.09 -0.729906 -1.39679 0
M  V30 8138 C 771.506 -0.404951 -1.54377 0
M  V30 8139 C 771.706 1.08476 -1.6981 0
M  V30 8140 O 770.762 1.87087 -1.69572 0
M  V30 8141 C 772.075 -1.18352 -2.76429 0
M  V30 8142 C 773.623 -1.17124 -2.9026 0
M  V30 8143 C 774.098 -1.93227 -4.15244 0
M  V30 8144 N 775.589 -1.90368 -4.22273 0
M  V30 8145 C 776.324 -2.46065 -5.17918 0
M  V30 8146 N 775.82 -3.10378 -6.19385 0
M  V30 8147 N 777.613 -2.36127 -5.10099 0
M  V30 8148 H 769.764 -1.69567 -1.27909 0
M  V30 8149 H 772.027 -0.717527 -0.619564 0
M  V30 8150 H 771.733 -2.23743 -2.71352 0
M  V30 8151 H 771.607 -0.784589 -3.6895 0
M  V30 8152 H 773.994 -0.125478 -2.94833 0
M  V30 8153 H 774.075 -1.60951 -1.98817 0
M  V30 8154 H 773.719 -2.97802 -4.11432 0
M  V30 8155 H 773.649 -1.4681 -5.05722 0
M  V30 8156 H 776.14 -1.4351 -3.4959 0
M  V30 8157 H 776.453 -3.50358 -6.88817 0
M  V30 8158 H 774.798 -3.14467 -6.19787 0
M  V30 8159 H 777.989 -1.85529 -4.29763 0
M  V30 8160 H 778.162 -2.79833 -5.84463 0
M  V30 8161 N 771.568 1.50203 -0.477153 0
M  V30 8162 C 772.979 1.86685 -0.0235041 0
M  V30 8163 C 773.33 1.39148 1.38319 0
M  V30 8164 O 772.455 0.759051 2.02651 0
M  V30 8165 C 773.05 3.38781 -0.0358767 0
M  V30 8166 C 771.609 3.74652 0.362327 0
M  V30 8167 C 770.756 2.7412 -0.41875 0
M  V30 8168 H 773.707 1.4286 -0.691133 0
M  V30 8169 H 773.728 3.72732 0.764924 0
M  V30 8170 H 773.24 3.73349 -1.05981 0
M  V30 8171 H 771.341 3.45686 1.39039 0
M  V30 8172 H 771.454 4.79063 0.059457 0
M  V30 8173 H 769.818 2.54376 0.128341 0
M  V30 8174 H 770.601 3.11532 -1.44231 0
M  V30 8175 N 773.046 0.209999 1.56195 0
M  V30 8176 C 774.271 -0.433064 2.02828 0
M  V30 8177 C 774.696 -1.5337 1.08901 0
M  V30 8178 O 774.054 -1.81144 0.0751132 0
M  V30 8179 C 774.102 -0.952635 3.47789 0
M  V30 8180 O 773.206 -2.0647 3.56993 0
M  V30 8181 H 772.547 -0.0994594 0.656509 0
M  V30 8182 H 775.077 0.32525 2.01998 0
M  V30 8183 H 775.087 -1.26542 3.8788 0
M  V30 8184 H 773.762 -0.147007 4.1564 0
M  V30 8185 H 772.339 -1.75942 3.28784 0
M  V30 8186 N 774.524 -1.57472 -0.0634922 0
M  V30 8187 C 775.454 -2.07297 -1.07473 0
M  V30 8188 C 776.435 -0.968162 -1.39859 0
M  V30 8189 O 777.62 -1.24139 -1.49343 0
M  V30 8190 C 774.75 -2.52381 -2.38581 0
M  V30 8191 C 773.704 -3.66813 -2.20526 0
M  V30 8192 C 773.03 -3.97982 -3.57092 0
M  V30 8193 C 774.33 -4.96553 -1.61965 0
M  V30 8194 H 776.024 -2.92033 -0.660092 0
M  V30 8195 H 773.57 -1.40488 -0.316074 0
M  V30 8196 H 775.523 -2.85852 -3.09624 0
M  V30 8197 H 774.247 -1.64684 -2.8204 0
M  V30 8198 H 772.906 -3.33639 -1.51924 0
M  V30 8199 H 772.554 -3.07403 -3.98136 0
M  V30 8200 H 772.254 -4.7504 -3.45848 0
M  V30 8201 H 773.778 -4.33956 -4.29552 0
M  V30 8202 H 775.192 -5.28201 -2.22883 0
M  V30 8203 H 773.589 -5.7799 -1.61394 0
M  V30 8204 H 774.659 -4.81396 -0.581918 0
M  V30 8205 N 776.003 0.335068 -1.53997 0
M  V30 8206 C 776.933 1.41727 -1.85568 0
M  V30 8207 C 777.914 1.54505 -0.7115 0
M  V30 8208 O 779.099 1.68573 -0.964191 0
M  V30 8209 C 776.229 2.7866 -2.07282 0
M  V30 8210 C 775.183 2.80682 -3.23112 0
M  V30 8211 C 774.509 4.20581 -3.30175 0
M  V30 8212 C 775.809 2.45458 -4.61029 0
M  V30 8213 H 777.503 1.15555 -2.76202 0
M  V30 8214 H 775.049 0.554445 -1.32898 0
M  V30 8215 H 777.002 3.54423 -2.27952 0
M  V30 8216 H 775.726 3.06286 -1.13387 0
M  V30 8217 H 774.385 2.07373 -3.02311 0
M  V30 8218 H 774.033 4.4533 -2.33859 0
M  V30 8219 H 773.733 4.22843 -4.08016 0
M  V30 8220 H 775.257 4.98174 -3.53066 0
M  V30 8221 H 776.671 3.10934 -4.81656 0
M  V30 8222 H 775.068 2.5899 -5.41336 0
M  V30 8223 H 776.138 1.40628 -4.6406 0
M  V30 8224 N 777.481 1.45874 0.596531 0
M  V30 8225 C 778.892 1.44798 1.17857 0
M  V30 8226 C 779.243 0.181443 1.95359 0
M  V30 8227 O 778.368 -0.716336 2.042 0
M  V30 8228 C 778.963 2.62333 2.14398 0
M  V30 8229 C 777.522 2.64342 2.67955 0
M  V30 8230 C 776.669 2.37244 1.43564 0
M  V30 8231 H 779.62 1.53954 0.385222 0
M  V30 8232 H 779.641 2.37063 2.97626 0
M  V30 8233 H 779.153 3.54499 1.57963 0
M  V30 8234 H 777.254 1.76213 3.28298 0
M  V30 8235 H 777.367 3.63897 3.11634 0
M  V30 8236 H 775.731 1.87022 1.72901 0
M  V30 8237 H 776.514 3.31568 0.889805 0
M  V30 8238 N 778.959 -0.83999 1.33349 0
M  V30 8239 C 779.907 -1.97113 1.23488 0
M  V30 8240 C 780.901 -1.68849 0.136503 0
M  V30 8241 O 782.107 -1.77476 0.300389 0
M  V30 8242 H 778.482 -0.647049 0.383185 0
M  V30 8243 H 780.453 -2.02554 2.19122 0
M  V30 8244 C 779.202 -3.33314 0.989815 0
M  V30 8245 H 778.525 -3.556 1.82726 0
M  V30 8246 H 779.965 -4.12963 0.961123 0
M  V30 8247 C 778.424 -3.35496 -0.307272 0
M  V30 8248 O 778.954 -3.79589 -1.31434 0
M  V30 8249 N 777.16 -2.88669 -0.334414 0
M  V30 8250 H 776.707 -2.5298 0.485659 0
M  V30 8251 H 776.665 -2.90512 -1.20209 0
M  V30 8252 N 780.437 -1.16799 -1.0581 0
M  V30 8253 C 781.685 -0.950642 -1.78346 0
M  V30 8254 C 782.006 0.522524 -1.87869 0
M  V30 8255 O 781.276 1.3795 -1.39092 0
M  V30 8256 H 779.856 -0.348736 -0.6606 0
M  V30 8257 H 782.518 -1.47158 -1.27791 0
M  V30 8258 H 781.614 -1.37359 -2.80248 0
M  V30 8259 N 781.915 1.24427 -0.967243 0
M  V30 8260 C 782.862 2.25398 -0.496419 0
M  V30 8261 C 783.832 1.59667 0.457781 0
M  V30 8262 O 785.017 1.87213 0.368246 0
M  V30 8263 C 782.157 3.44474 0.207693 0
M  V30 8264 C 781.27 4.24804 -0.785221 0
M  V30 8265 C 780.405 5.31169 -0.0572631 0
M  V30 8266 C 779.444 6.03195 -1.04027 0
M  V30 8267 N 778.581 7.01265 -0.34235 0
M  V30 8268 H 783.421 2.65039 -1.36229 0
M  V30 8269 H 780.958 1.30288 -0.682902 0
M  V30 8270 H 782.916 4.12376 0.632612 0
M  V30 8271 H 781.546 3.05672 1.03752 0
M  V30 8272 H 780.598 3.56445 -1.32858 0
M  V30 8273 H 781.91 4.74599 -1.53483 0
M  V30 8274 H 781.064 6.05205 0.425674 0
M  V30 8275 H 779.803 4.8228 0.725047 0
M  V30 8276 H 778.808 5.27964 -1.53409 0
M  V30 8277 H 780.033 6.54173 -1.82302 0
M  V30 8278 H 777.979 6.54648 0.420993 0
M  V30 8279 H 777.896 7.48939 -1.03084 0
M  V30 8280 H 779.164 7.7941 0.118634 0
M  V30 8281 N 783.393 0.737304 1.3929 0
M  V30 8282 C 784.303 0.100464 2.34385 0
M  V30 8283 C 785.319 -0.719282 1.58437 0
M  V30 8284 O 786.495 -0.647216 1.90717 0
M  V30 8285 C 783.56 -0.794325 3.37478 0
M  V30 8286 C 782.621 0.0379345 4.29283 0
M  V30 8287 C 781.854 -0.814241 5.27452 0
M  V30 8288 O 782.077 -2.05288 5.32177 0
M  V30 8289 O 781.011 -0.241679 6.01415 0
M  V30 8290 H 784.837 0.885407 2.90507 0
M  V30 8291 H 782.422 0.497999 1.40856 0
M  V30 8292 H 784.304 -1.30622 4.00644 0
M  V30 8293 H 782.979 -1.55804 2.83737 0
M  V30 8294 H 781.886 0.595405 3.69331 0
M  V30 8295 H 783.219 0.763926 4.86236 0
M  V30 8296 N 784.871 -1.49948 0.485112 0
M  V30 8297 C 785.819 -2.30449 -0.315609 0
M  V30 8298 C 786.813 -1.38351 -0.977516 0
M  V30 8299 O 788.019 -1.55477 -0.907019 0
M  V30 8300 H 784.394 -0.742262 -0.120629 0
M  V30 8301 H 786.365 -2.95925 0.383552 0
M  V30 8302 C 785.114 -3.19283 -1.37673 0
M  V30 8303 H 784.437 -3.90067 -0.876801 0
M  V30 8304 H 785.877 -3.78579 -1.90929 0
M  V30 8305 C 784.336 -2.37817 -2.38631 0
M  V30 8306 O 784.866 -2.0711 -3.44192 0
M  V30 8307 N 783.072 -2.00135 -2.107 0
M  V30 8308 H 782.619 -2.25307 -1.24878 0
M  V30 8309 H 782.577 -1.45933 -2.7848 0
M  V30 8310 N 786.349 -0.21828 -1.56081 0
M  V30 8311 C 787.574 0.422302 -2.03055 0
M  V30 8312 C 787.999 1.5279 -1.09713 0
M  V30 8313 O 787.357 1.81102 -0.0847187 0
M  V30 8314 C 787.405 0.934177 -3.48289 0
M  V30 8315 O 786.509 2.04574 -3.58083 0
M  V30 8316 H 785.85 0.0959764 -0.657027 0
M  V30 8317 H 788.38 -0.335958 -2.01823 0
M  V30 8318 H 788.39 1.24484 -3.88546 0
M  V30 8319 H 787.065 0.124963 -4.15712 0
M  V30 8320 H 785.642 1.74196 -3.29712 0
M  V30 8321 N 787.827 1.57504 0.0551401 0
M  V30 8322 C 789.052 1.92682 0.767352 0
M  V30 8323 C 789.477 0.81614 1.69472 0
M  V30 8324 O 788.835 -0.229989 1.79835 0
M  V30 8325 C 788.883 3.26866 1.52286 0
M  V30 8326 O 787.987 3.17274 2.63459 0
M  V30 8327 H 787.328 0.630502 0.208238 0
M  V30 8328 H 789.858 2.04592 0.0184026 0
M  V30 8329 H 789.868 3.61138 1.8985 0
M  V30 8330 H 788.543 4.07276 0.842541 0
M  V30 8331 H 787.12 2.94589 2.2863 0
M  V30 8332 N 789.305 -0.326896 1.54172 0
M  V30 8333 C 790.553 -1.06313 1.71878 0
M  V30 8334 C 790.874 -1.88652 0.493498 0
M  V30 8335 O 790.144 -1.89608 -0.492522 0
M  V30 8336 H 788.724 -0.39549 0.633716 0
M  V30 8337 H 791.386 -0.364139 1.91468 0
M  V30 8338 H 790.482 -1.73105 2.59694 0
M  V30 8339 N 790.784 -1.46188 -0.588786 0
M  V30 8340 C 792.012 -1.54743 -1.37339 0
M  V30 8341 C 792.427 -0.186446 -1.87877 0
M  V30 8342 O 791.784 0.815247 -1.63279 0
M  V30 8343 C 791.835 -2.54727 -2.56508 0
M  V30 8344 O 791.556 -3.85539 -2.08066 0
M  V30 8345 C 793.057 -2.73163 -3.49137 0
M  V30 8346 H 790.277 -0.523484 -0.419768 0
M  V30 8347 H 792.821 -1.91543 -0.716345 0
M  V30 8348 H 790.976 -2.20948 -3.18215 0
M  V30 8349 H 791.39 -4.39905 -2.85629 0
M  V30 8350 H 792.864 -3.47057 -4.2925 0
M  V30 8351 H 793.341 -1.79856 -4.00685 0
M  V30 8352 H 793.947 -3.08014 -2.9327 0
M  V30 8353 N 792.262 0.832906 -1.33792 0
M  V30 8354 C 793.673 1.40489 -1.22963 0
M  V30 8355 C 794.024 1.95633 0.149026 0
M  V30 8356 O 793.149 1.8928 1.04891 0
M  V30 8357 C 793.744 2.55387 -2.22627 0
M  V30 8358 C 792.303 3.08522 -2.15618 0
M  V30 8359 C 791.45 1.81347 -2.09782 0
M  V30 8360 H 794.401 0.638156 -1.45304 0
M  V30 8361 H 794.422 3.33193 -1.83746 0
M  V30 8362 H 793.934 2.15222 -3.22957 0
M  V30 8363 H 792.035 3.53217 -1.18611 0
M  V30 8364 H 792.148 3.6829 -3.0643 0
M  V30 8365 H 790.512 2.01839 -1.55349 0
M  V30 8366 H 791.295 1.43369 -3.1193 0
M  V30 8367 N 793.74 1.17359 1.05189 0
M  V30 8368 C 795.156 0.920861 1.30355 0
M  V30 8369 C 795.356 -0.419993 1.97074 0
M  V30 8370 O 794.412 -1.15696 2.24434 0
M  V30 8371 C 795.725 2.07818 2.1733 0
M  V30 8372 C 797.273 2.1152 2.30712 0
M  V30 8373 C 797.748 3.26637 3.21048 0
M  V30 8374 N 799.239 3.26426 3.28634 0
M  V30 8375 C 799.974 4.12141 3.98657 0
M  V30 8376 N 799.47 5.07966 4.71107 0
M  V30 8377 N 801.263 4.00091 3.94821 0
M  V30 8378 H 793.414 2.03666 0.602821 0
M  V30 8379 H 795.677 0.889294 0.328421 0
M  V30 8380 H 795.383 3.04727 1.75597 0
M  V30 8381 H 795.257 2.02922 3.17966 0
M  V30 8382 H 797.644 1.15196 2.71687 0
M  V30 8383 H 797.725 2.20477 1.29706 0
M  V30 8384 H 797.369 4.23227 2.80788 0
M  V30 8385 H 797.299 3.14917 4.2206 0
M  V30 8386 H 799.79 2.57045 2.77013 0
M  V30 8387 H 800.103 5.69766 5.22099 0
M  V30 8388 H 798.448 5.11936 4.7005 0
M  V30 8389 H 801.639 3.24523 3.37346 0
M  V30 8390 H 801.812 4.6711 4.49123 0
M  V30 8391 N 795.218 -1.23913 0.973828 0
M  V30 8392 C 796.464 -1.92436 0.640026 0
M  V30 8393 C 796.797 -1.75875 -0.823512 0
M  V30 8394 O 796.072 -1.11563 -1.59323 0
M  V30 8395 C 796.355 -3.4526 1.0231 0
M  V30 8396 C 796.208 -3.70961 2.54378 0
M  V30 8397 C 797.527 -4.36495 0.562155 0
M  V30 8398 H 794.646 -0.698868 0.233992 0
M  V30 8399 H 797.288 -1.46163 1.21393 0
M  V30 8400 H 795.438 -3.84802 0.534751 0
M  V30 8401 H 797.11 -3.40941 3.10737 0
M  V30 8402 H 795.353 -3.15899 2.97305 0
M  V30 8403 H 796.024 -4.77912 2.76232 0
M  V30 8404 H 798.5 -4.04363 0.981333 0
M  V30 8405 H 797.376 -5.42142 0.858689 0
M  V30 8406 H 797.637 -4.38818 -0.537659 0
M  V30 8407 N 796.696 -0.74468 -1.38897 0
M  V30 8408 C 798.107 -0.36568 -1.83084 0
M  V30 8409 C 798.458 1.10436 -1.62168 0
M  V30 8410 O 797.583 1.85281 -1.11804 0
M  V30 8411 C 798.178 -0.656946 -3.3237 0
M  V30 8412 C 796.737 -0.331329 -3.74939 0
M  V30 8413 C 795.884 -0.914661 -2.61781 0
M  V30 8414 H 798.835 -0.941551 -1.27752 0
M  V30 8415 H 798.856 0.0679546 -3.80439 0
M  V30 8416 H 798.368 -1.72693 -3.47561 0
M  V30 8417 H 796.469 0.732426 -3.6533 0
M  V30 8418 H 796.582 -0.820655 -4.72019 0
M  V30 8419 H 794.946 -0.34063 -2.52412 0
M  V30 8420 H 795.729 -1.98949 -2.79775 0
M  V30 8421 N 798.174 1.49689 -0.493057 0
M  V30 8422 C 799.585 1.8665 -0.0433032 0
M  V30 8423 C 799.936 1.40607 1.36836 0
M  V30 8424 O 799.061 0.780503 2.01834 0
M  V30 8425 C 799.656 3.38724 -0.0718069 0
M  V30 8426 C 798.215 3.75015 0.32257 0
M  V30 8427 C 797.362 2.7366 -0.4478 0
M  V30 8428 H 800.313 1.42119 -0.706246 0
M  V30 8429 H 800.334 3.73522 0.725347 0
M  V30 8430 H 799.846 3.72204 -1.09935 0
M  V30 8431 H 797.947 3.47142 1.35364 0
M  V30 8432 H 798.06 4.79099 0.00864259 0
M  V30 8433 H 796.424 2.54498 0.101354 0
M  V30 8434 H 797.207 3.09985 -1.47527 0
M  V30 8435 N 799.652 0.226554 1.55963 0
M  V30 8436 C 800.615 -0.668015 2.19249 0
M  V30 8437 C 801.615 -1.11794 1.1558 0
M  V30 8438 O 802.805 -1.02593 1.40784 0
M  V30 8439 C 799.937 -1.91571 2.81981 0
M  V30 8440 H 801.13 -0.116175 2.99675 0
M  V30 8441 H 798.683 -0.0230497 1.56283 0
M  V30 8442 H 799.418 -2.50929 2.05439 0
M  V30 8443 H 799.203 -1.6015 3.57903 0
M  V30 8444 H 800.693 -2.55294 3.30477 0
M  V30 8445 N 801.13 -1.57531 -0.0467866 0
M  V30 8446 C 802.355 -1.93087 -0.757123 0
M  V30 8447 C 802.78 -0.825116 -1.69037 0
M  V30 8448 O 802.138 0.220449 -1.79955 0
M  V30 8449 C 802.186 -3.27669 -1.5055 0
M  V30 8450 O 801.29 -3.18667 -2.61773 0
M  V30 8451 H 800.631 -0.631597 -0.204892 0
M  V30 8452 H 803.161 -2.04599 -0.00755232 0
M  V30 8453 H 803.171 -3.6214 -1.87932 0
M  V30 8454 H 801.846 -4.07717 -0.820931 0
M  V30 8455 H 800.423 -2.95798 -2.27064 0
M  V30 8456 N 802.608 0.318715 -1.54344 0
M  V30 8457 C 804.019 0.89285 -1.63967 0
M  V30 8458 C 804.37 1.88712 -0.536855 0
M  V30 8459 O 803.495 2.13877 0.329457 0
M  V30 8460 C 804.09 1.62618 -2.97222 0
M  V30 8461 C 802.649 2.14897 -3.09025 0
M  V30 8462 C 801.796 0.975909 -2.5956 0
M  V30 8463 H 804.747 0.0961687 -1.58408 0
M  V30 8464 H 804.768 2.4907 -2.87653 0
M  V30 8465 H 804.28 0.902286 -3.77466 0
M  V30 8466 H 802.381 2.90387 -2.33465 0
M  V30 8467 H 802.494 2.39565 -4.14904 0
M  V30 8468 H 800.858 1.35646 -2.15574 0
M  V30 8469 H 801.641 0.266253 -3.42266 0
M  V30 8470 N 804.086 1.46499 0.581025 0
M  V30 8471 C 805.311 1.55708 1.37002 0
M  V30 8472 C 805.736 0.19942 1.8704 0
M  V30 8473 O 805.094 -0.820731 1.61659 0
M  V30 8474 C 805.142 2.56716 2.53238 0
M  V30 8475 O 804.246 2.10336 3.54729 0
M  V30 8476 H 803.587 0.523912 0.407937 0
M  V30 8477 H 806.117 1.92085 0.704602 0
M  V30 8478 H 806.127 2.76378 3.00132 0
M  V30 8479 H 804.802 3.55307 2.16171 0
M  V30 8480 H 803.379 2.00669 3.14303 0
M  V30 8481 N 805.565 -0.825799 1.34232 0
M  V30 8482 C 806.79 -1.61883 1.29648 0
M  V30 8483 C 807.215 -1.87669 -0.127295 0
M  V30 8484 O 806.573 -1.45016 -1.08813 0
M  V30 8485 C 806.621 -2.93846 2.09014 0
M  V30 8486 O 805.725 -3.85778 1.4577 0
M  V30 8487 H 805.066 -0.492454 0.445405 0
M  V30 8488 H 807.596 -1.02641 1.76992 0
M  V30 8489 H 807.606 -3.43435 2.20264 0
M  V30 8490 H 806.281 -2.74401 3.12533 0
M  V30 8491 H 804.858 -3.4429 1.43245 0
M  V30 8492 N 807.043 -1.17915 -1.04565 0
M  V30 8493 C 807.993 -0.869634 -2.10764 0
M  V30 8494 C 808.977 0.158502 -1.60117 0
M  V30 8495 O 810.169 -0.04483 -1.76943 0
M  V30 8496 C 807.298 -0.391642 -3.41059 0
M  V30 8497 C 806.384 -1.45156 -3.98485 0
M  V30 8498 N 806.775 -2.6667 -4.29792 0
M  V30 8499 C 805.073 -1.3109 -4.263 0
M  V30 8500 C 805.774 -3.34823 -4.75677 0
M  V30 8501 N 804.75 -2.62203 -4.76183 0
M  V30 8502 H 808.552 -1.79342 -2.32838 0
M  V30 8503 H 806.066 -1.0688 -1.22272 0
M  V30 8504 H 808.063 -0.151428 -4.16625 0
M  V30 8505 H 806.723 0.525862 -3.20413 0
M  V30 8506 H 807.734 -3.0358 -4.19594 0
M  V30 8507 H 804.411 -0.455545 -4.15007 0
M  V30 8508 H 805.801 -4.38645 -5.0896 0
M  V30 8509 N 808.521 1.23394 -0.980386 0
M  V30 8510 C 809.746 1.96384 -0.666935 0
M  V30 8511 C 810.171 1.72087 0.759456 0
M  V30 8512 O 809.529 0.992328 1.51732 0
M  V30 8513 C 809.577 3.47499 -0.963177 0
M  V30 8514 O 808.681 4.12363 -0.0552051 0
M  V30 8515 H 808.022 0.614797 -0.250839 0
M  V30 8516 H 810.552 1.56831 -1.31398 0
M  V30 8517 H 810.562 3.97953 -0.899877 0
M  V30 8518 H 809.237 3.6451 -2.00264 0
M  V30 8519 H 807.814 3.72499 -0.172914 0
M  V30 8520 N 809.999 0.752036 1.385 0
M  V30 8521 C 810.929 0.138718 2.33088 0
M  V30 8522 C 811.91 -0.705318 1.54788 0
M  V30 8523 O 813.095 -0.646821 1.83112 0
M  V30 8524 C 810.225 -0.75641 3.38963 0
M  V30 8525 C 809.179 -0.0152239 4.27997 0
M  V30 8526 C 808.505 -1.0285 5.24715 0
M  V30 8527 C 809.805 1.15226 5.09431 0
M  V30 8528 H 811.499 0.928852 2.84627 0
M  V30 8529 H 809.045 0.448111 1.3685 0
M  V30 8530 H 810.998 -1.19513 4.04097 0
M  V30 8531 H 809.722 -1.57885 2.85902 0
M  V30 8532 H 808.381 0.404061 3.64366 0
M  V30 8533 H 808.029 -1.84496 4.67943 0
M  V30 8534 H 807.729 -0.537238 5.85139 0
M  V30 8535 H 809.253 -1.46657 5.92726 0
M  V30 8536 H 810.667 0.791161 5.67815 0
M  V30 8537 H 809.064 1.57428 5.79082 0
M  V30 8538 H 810.134 1.9659 4.43261 0
M  V30 8539 N 811.477 -1.49425 0.500989 0
M  V30 8540 C 812.44 -2.27646 -0.266416 0
M  V30 8541 C 813.44 -1.3366 -0.893961 0
M  V30 8542 O 814.63 -1.5682 -0.758495 0
M  V30 8543 C 811.762 -3.11618 -1.38227 0
M  V30 8544 H 812.955 -2.96945 0.419973 0
M  V30 8545 H 810.508 -1.5419 0.255954 0
M  V30 8546 H 811.243 -2.46885 -2.10281 0
M  V30 8547 H 811.028 -3.80721 -0.937746 0
M  V30 8548 H 812.518 -3.70698 -1.92283 0
M  V30 8549 N 812.955 -0.234822 -1.55841 0
M  V30 8550 C 814.366 0.270588 -1.84729 0
M  V30 8551 C 814.717 1.58494 -1.15646 0
M  V30 8552 O 813.842 2.12071 -0.430667 0
M  V30 8553 C 814.437 0.497733 -3.35124 0
M  V30 8554 C 812.996 0.947428 -3.64281 0
M  V30 8555 C 812.143 0.01787 -2.77294 0
M  V30 8556 H 815.094 -0.457691 -1.51957 0
M  V30 8557 H 815.115 1.34199 -3.56049 0
M  V30 8558 H 814.627 -0.459037 -3.85376 0
M  V30 8559 H 812.728 1.91709 -3.19497 0
M  V30 8560 H 812.841 0.812651 -4.72158 0
M  V30 8561 H 811.205 0.527071 -2.49187 0
M  V30 8562 H 811.988 -0.934056 -3.30349 0
M  V30 8563 N 814.433 1.57553 0.0384317 0
M  V30 8564 C 815.844 1.77258 0.586211 0
M  V30 8565 C 816.195 0.864706 1.76117 0
M  V30 8566 O 815.32 0.057141 2.16325 0
M  V30 8567 C 815.915 3.21453 1.07021 0
M  V30 8568 C 814.474 3.42387 1.56358 0
M  V30 8569 C 813.621 2.72801 0.497508 0
M  V30 8570 H 816.572 1.57585 -0.187796 0
M  V30 8571 H 816.593 3.27451 1.93794 0
M  V30 8572 H 816.105 3.87505 0.214851 0
M  V30 8573 H 814.206 2.81497 2.44111 0
M  V30 8574 H 814.319 4.50968 1.61754 0
M  V30 8575 H 812.683 2.36305 0.95038 0
M  V30 8576 H 813.466 3.41529 -0.348234 0
M  V30 8577 N 815.911 -0.310526 1.54511 0
M  V30 8578 C 817.136 -1.07046 1.7764 0
M  V30 8579 C 817.561 -1.80488 0.529696 0
M  V30 8580 O 816.919 -1.73702 -0.519361 0
M  V30 8581 C 816.967 -2.03411 2.97752 0
M  V30 8582 O 816.071 -3.11545 2.7021 0
M  V30 8583 H 815.412 -0.307994 0.588248 0
M  V30 8584 H 817.942 -0.350848 2.01569 0
M  V30 8585 H 817.952 -2.46048 3.2546 0
M  V30 8586 H 816.627 -1.49361 3.88155 0
M  V30 8587 H 815.204 -2.7349 2.53491 0
M  V30 8588 N 817.389 -1.46805 -0.573248 0
M  V30 8589 C 818.637 -1.52302 -1.32847 0
M  V30 8590 C 818.958 -0.180159 -1.94166 0
M  V30 8591 O 818.228 0.794291 -1.79075 0
M  V30 8592 H 816.808 -0.56097 -0.493276 0
M  V30 8593 H 819.47 -1.82998 -0.670642 0
M  V30 8594 H 818.566 -2.28089 -2.13031 0
M  V30 8595 N 818.867 0.818669 -1.34668 0
M  V30 8596 C 819.777 1.9616 -1.2868 0
M  V30 8597 C 820.793 1.72918 -0.193742 0
M  V30 8598 O 821.969 1.96951 -0.420975 0
M  V30 8599 C 819.034 3.30534 -1.04633 0
M  V30 8600 C 818.095 3.66755 -2.23136 0
M  V30 8601 C 817.328 4.94717 -2.00227 0
M  V30 8602 O 817.551 5.62218 -0.96264 0
M  V30 8603 O 816.485 5.28915 -2.87286 0
M  V30 8604 H 820.311 2.04157 -2.24842 0
M  V30 8605 H 817.896 0.954691 -1.14917 0
M  V30 8606 H 819.778 4.11005 -0.930216 0
M  V30 8607 H 818.453 3.23495 -0.115139 0
M  V30 8608 H 817.36 2.8671 -2.40308 0
M  V30 8609 H 818.693 3.78484 -3.1466 0
M  V30 8610 N 820.346 1.18468 1.03938 0
M  V30 8611 C 821.762 0.934635 1.29371 0
M  V30 8612 C 821.962 -0.399067 1.97509 0
M  V30 8613 O 821.018 -1.13309 2.25648 0
M  V30 8614 C 822.331 2.10111 2.15114 0
M  V30 8615 C 823.879 2.13955 2.28456 0
M  V30 8616 C 824.354 3.30024 3.17566 0
M  V30 8617 N 825.845 3.29893 3.25153 0
M  V30 8618 C 826.58 4.16346 3.94263 0
M  V30 8619 N 826.076 5.12934 4.65693 0
M  V30 8620 N 827.869 4.04256 3.90556 0
M  V30 8621 H 820.02 2.04294 0.581185 0
M  V30 8622 H 822.283 0.892727 0.318971 0
M  V30 8623 H 821.989 3.06572 1.72355 0
M  V30 8624 H 821.863 2.06283 3.15796 0
M  V30 8625 H 824.25 1.18072 2.7045 0
M  V30 8626 H 824.331 2.2184 1.2736 0
M  V30 8627 H 823.975 4.26181 2.76283 0
M  V30 8628 H 823.905 3.19376 4.18697 0
M  V30 8629 H 826.396 2.59969 2.74271 0
M  V30 8630 H 826.709 5.75271 5.16026 0
M  V30 8631 H 825.054 5.16893 4.64593 0
M  V30 8632 H 828.245 3.28083 3.33885 0
M  V30 8633 H 828.418 4.71848 4.44144 0
M  V30 8634 N 821.824 -1.22873 0.986916 0
M  V30 8635 C 823.049 -1.96028 0.677341 0
M  V30 8636 C 823.474 -1.72487 -0.750319 0
M  V30 8637 O 822.832 -1.00036 -1.51203 0
M  V30 8638 C 822.88 -3.46983 0.981593 0
M  V30 8639 O 821.984 -4.12328 0.0770729 0
M  V30 8640 H 821.325 -0.613458 0.254096 0
M  V30 8641 H 823.855 -1.56132 1.32227 0
M  V30 8642 H 823.865 -3.9747 0.920969 0
M  V30 8643 H 822.54 -3.63442 2.02194 0
M  V30 8644 H 821.117 -3.72402 0.192666 0
M  V30 8645 N 823.302 -0.75937 -1.38099 0
M  V30 8646 C 824.718 -0.437606 -1.53483 0
M  V30 8647 C 824.918 1.04849 -1.72072 0
M  V30 8648 O 823.974 1.83448 -1.73502 0
M  V30 8649 C 825.287 -1.24189 -2.73857 0
M  V30 8650 C 826.835 -1.23255 -2.8771 0
M  V30 8651 C 827.31 -2.01992 -4.11051 0
M  V30 8652 N 828.801 -1.99282 -4.1814 0
M  V30 8653 C 829.536 -2.56996 -5.12583 0
M  V30 8654 N 829.032 -3.23446 -6.12662 0
M  V30 8655 N 830.825 -2.46894 -5.04975 0
M  V30 8656 H 822.976 -1.72242 -1.24283 0
M  V30 8657 H 825.239 -0.730507 -0.604205 0
M  V30 8658 H 824.945 -2.29449 -2.66545 0
M  V30 8659 H 824.819 -0.862672 -3.67203 0
M  V30 8660 H 827.206 -0.187988 -2.94501 0
M  V30 8661 H 827.287 -1.65132 -1.95359 0
M  V30 8662 H 826.931 -3.06462 -4.05023 0
M  V30 8663 H 826.861 -1.57505 -5.02494 0
M  V30 8664 H 829.352 -1.50893 -3.46467 0
M  V30 8665 H 829.665 -3.6489 -6.81231 0
M  V30 8666 H 828.01 -3.27543 -6.12977 0
M  V30 8667 H 831.201 -1.94604 -4.25731 0
M  V30 8668 H 831.374 -2.92168 -5.78396 0
M  V30 8669 N 824.78 1.49157 -0.508906 0
M  V30 8670 C 825.71 2.32109 0.254469 0
M  V30 8671 C 826.691 1.40754 0.955111 0
M  V30 8672 O 827.876 1.69658 0.944983 0
M  V30 8673 C 825.006 3.21458 1.3146 0
M  V30 8674 C 823.96 4.2167 0.733368 0
M  V30 8675 C 823.286 5.00009 1.8946 0
M  V30 8676 C 824.586 5.21544 -0.280875 0
M  V30 8677 H 826.28 2.9618 -0.43795 0
M  V30 8678 H 823.826 1.4243 -0.212062 0
M  V30 8679 H 825.779 3.78305 1.85643 0
M  V30 8680 H 824.503 2.55346 2.03632 0
M  V30 8681 H 823.162 3.65979 0.213231 0
M  V30 8682 H 822.81 4.30338 2.60419 0
M  V30 8683 H 822.51 5.67821 1.51173 0
M  V30 8684 H 824.034 5.59702 2.44061 0
M  V30 8685 H 825.448 5.73039 0.173095 0
M  V30 8686 H 823.845 5.97291 -0.580006 0
M  V30 8687 H 824.915 4.69969 -1.19404 0
M  V30 8688 N 826.258 0.243083 1.55714 0
M  V30 8689 C 827.221 -0.644723 2.19945 0
M  V30 8690 C 828.221 -1.10562 1.16759 0
M  V30 8691 O 829.411 -1.01095 1.41865 0
M  V30 8692 C 826.543 -1.88569 2.83997 0
M  V30 8693 H 827.736 -0.0843839 2.99781 0
M  V30 8694 H 825.289 -0.00647246 1.56299 0
M  V30 8695 H 826.024 -2.48736 2.08089 0
M  V30 8696 H 825.809 -1.56345 3.59581 0
M  V30 8697 H 827.299 -2.51774 3.33166 0
M  V30 8698 N 827.736 -1.57571 -0.0300757 0
M  V30 8699 C 829.152 -1.54869 -0.385703 0
M  V30 8700 C 829.352 -0.969068 -1.76667 0
M  V30 8701 O 828.408 -0.589676 -2.45518 0
M  V30 8702 C 829.721 -2.99313 -0.288482 0
M  V30 8703 C 831.269 -3.10857 -0.365638 0
M  V30 8704 C 831.744 -4.5703 -0.297878 0
M  V30 8705 N 833.235 -4.61825 -0.356703 0
M  V30 8706 C 833.97 -5.72466 -0.327146 0
M  V30 8707 N 833.466 -6.92349 -0.249941 0
M  V30 8708 N 835.259 -5.60836 -0.376801 0
M  V30 8709 H 827.41 -1.936 0.87367 0
M  V30 8710 H 829.673 -0.887924 0.332106 0
M  V30 8711 H 829.379 -3.45443 0.66047 0
M  V30 8712 H 829.253 -3.61332 -1.08253 0
M  V30 8713 H 831.64 -2.64676 -1.30502 0
M  V30 8714 H 831.721 -2.51671 0.457744 0
M  V30 8715 H 831.365 -5.03879 0.637835 0
M  V30 8716 H 831.295 -5.14127 -1.13935 0
M  V30 8717 H 833.786 -3.75571 -0.418926 0
M  V30 8718 H 834.099 -7.7245 -0.23246 0
M  V30 8719 H 832.444 -6.94664 -0.216004 0
M  V30 8720 H 835.635 -4.66073 -0.435101 0
M  V30 8721 H 835.808 -6.47052 -0.350298 0
M  V30 8722 N 829.214 0.302327 -1.54673 0
M  V30 8723 C 830.462 1.03565 -1.73547 0
M  V30 8724 C 830.783 1.87843 -0.523448 0
M  V30 8725 O 830.053 1.90367 0.462295 0
M  V30 8726 H 828.633 0.385358 -0.639928 0
M  V30 8727 H 831.295 0.333632 -1.92023 0
M  V30 8728 H 830.391 1.68952 -2.62415 0
M  V30 8729 N 830.692 1.47107 0.565454 0
M  V30 8730 C 831.917 1.57153 1.35343 0
M  V30 8731 C 832.342 0.219247 1.86818 0
M  V30 8732 O 831.7 -0.803539 1.62521 0
M  V30 8733 C 831.748 2.59387 2.50501 0
M  V30 8734 O 830.852 2.14086 3.52478 0
M  V30 8735 H 830.193 0.528209 0.402357 0
M  V30 8736 H 832.723 1.92821 0.684189 0
M  V30 8737 H 832.733 2.79546 2.97184 0
M  V30 8738 H 831.408 3.57579 2.12391 0
M  V30 8739 H 829.985 2.03991 3.12157 0
M  V30 8740 N 832.17 -0.811516 1.35101 0
M  V30 8741 C 833.398 -1.59981 1.31201 0
M  V30 8742 C 833.813 -1.8847 -0.111552 0
M  V30 8743 O 833.17 -1.48414 -1.06205 0
M  V30 8744 C 833.221 -2.934 2.11184 0
M  V30 8745 O 832.942 -2.66148 3.4799 0
M  V30 8746 C 834.443 -3.87776 2.14813 0
M  V30 8747 H 831.663 -0.496921 0.450899 0
M  V30 8748 H 834.207 -1.00886 1.77883 0
M  V30 8749 H 832.362 -3.49022 1.68115 0
M  V30 8750 H 832.776 -3.51301 3.89471 0
M  V30 8751 H 834.25 -4.7852 2.75178 0
M  V30 8752 H 834.727 -4.23997 1.14556 0
M  V30 8753 H 835.333 -3.3809 2.58022 0
M  V30 8754 N 833.648 -1.19017 -1.03309 0
M  V30 8755 C 834.897 -0.984542 -1.76039 0
M  V30 8756 C 835.21 0.485937 -1.89468 0
M  V30 8757 O 836.416 0.810278 -2.59127 0
M  V30 8758 C 834.872 -1.71261 -3.1654 0
M  V30 8759 C 834.48 -3.22291 -3.11179 0
M  V30 8760 C 836.224 -1.59007 -3.93595 0
M  V30 8761 C 834.131 -3.87704 -4.46587 0
M  V30 8762 H 833.061 -0.364749 -0.659905 0
M  V30 8763 H 835.712 -1.4247 -1.15649 0
M  V30 8764 H 834.094 -1.20025 -3.77373 0
M  V30 8765 H 835.268 -3.80611 -2.59753 0
M  V30 8766 H 833.583 -3.34772 -2.47622 0
M  V30 8767 H 836.18 -2.05232 -4.93745 0
M  V30 8768 H 836.523 -0.543534 -4.12736 0
M  V30 8769 H 837.056 -2.07564 -3.39355 0
M  V30 8770 H 833.795 -4.92437 -4.3265 0
M  V30 8771 H 833.315 -3.34172 -4.98085 0
M  V30 8772 H 834.994 -3.91008 -5.15482 0
M  V30 8773 N 835.127 1.22348 -0.993418 0
M  V30 8774 C 836.543 1.43222 -0.704238 0
M  V30 8775 C 836.743 1.88009 0.724909 0
M  V30 8776 O 835.799 2.03429 1.49575 0
M  V30 8777 C 837.112 2.47328 -1.71025 0
M  V30 8778 C 838.66 2.61126 -1.72576 0
M  V30 8779 C 839.135 3.68453 -2.72041 0
M  V30 8780 N 840.626 3.75911 -2.70639 0
M  V30 8781 C 841.361 4.58551 -3.44266 0
M  V30 8782 N 840.857 5.45179 -4.27495 0
M  V30 8783 N 842.65 4.52866 -3.32969 0
M  V30 8784 H 834.801 0.915832 -1.91641 0
M  V30 8785 H 837.064 0.464283 -0.826526 0
M  V30 8786 H 836.77 2.21366 -2.73295 0
M  V30 8787 H 836.644 3.45939 -1.50353 0
M  V30 8788 H 839.031 2.86431 -0.710037 0
M  V30 8789 H 839.112 1.62787 -1.97317 0
M  V30 8790 H 838.756 3.43895 -3.73763 0
M  V30 8791 H 838.686 4.66362 -2.4457 0
M  V30 8792 H 841.177 3.14014 -2.10247 0
M  V30 8793 H 841.49 6.0526 -4.80499 0
M  V30 8794 H 839.835 5.44759 -4.31582 0
M  V30 8795 H 843.026 3.84215 -2.67389 0
M  V30 8796 H 843.199 5.17039 -3.90608 0
M  V30 8797 N 836.605 0.766683 1.37694 0
M  V30 8798 C 837.83 0.338715 2.04615 0
M  V30 8799 C 838.255 -1.02918 1.57447 0
M  V30 8800 O 837.613 -1.65849 0.732386 0
M  V30 8801 C 837.661 0.385284 3.58536 0
M  V30 8802 O 836.765 -0.616081 4.07772 0
M  V30 8803 H 836.106 0.147527 0.647404 0
M  V30 8804 H 838.636 1.04146 1.7611 0
M  V30 8805 H 838.646 0.240782 4.07289 0
M  V30 8806 H 837.321 1.38325 3.92223 0
M  V30 8807 H 835.898 -0.435115 3.70353 0
M  V30 8808 N 838.083 -1.48885 0.516809 0
M  V30 8809 C 839.311 -2.06892 -0.0184017 0
M  V30 8810 C 839.726 -1.37511 -1.29368 0
M  V30 8811 O 839.083 -0.458409 -1.76649 0
M  V30 8812 C 839.134 -3.60566 -0.259673 0
M  V30 8813 O 838.855 -4.27338 0.965065 0
M  V30 8814 C 840.356 -4.35331 -0.836751 0
M  V30 8815 H 837.576 -0.670433 0.0275743 0
M  V30 8816 H 840.12 -1.91455 0.718689 0
M  V30 8817 H 838.275 -3.75653 -0.94678 0
M  V30 8818 H 838.689 -5.19287 0.737647 0
M  V30 8819 H 840.163 -5.43675 -0.955065 0
M  V30 8820 H 840.64 -3.9887 -1.83845 0
M  V30 8821 H 841.246 -4.2489 -0.186622 0
M  V30 8822 N 839.561 -0.251338 -1.55583 0
M  V30 8823 C 840.808 0.372169 -1.99051 0
M  V30 8824 C 841.136 1.57623 -1.13953 0
M  V30 8825 O 840.391 1.94762 -0.191398 0
M  V30 8826 C 840.69 0.821186 -3.47838 0
M  V30 8827 C 840.356 -0.275608 -4.50057 0
M  V30 8828 C 839.018 -0.57683 -4.7773 0
M  V30 8829 C 841.37 -1.01585 -5.11204 0
M  V30 8830 C 838.698 -1.62229 -5.63825 0
M  V30 8831 C 841.05 -2.05087 -5.98433 0
M  V30 8832 C 839.714 -2.35869 -6.24437 0
M  V30 8833 H 838.984 0.136186 -0.728378 0
M  V30 8834 H 841.631 -0.360089 -1.88084 0
M  V30 8835 H 839.936 1.63272 -3.56159 0
M  V30 8836 H 841.633 1.31396 -3.78861 0
M  V30 8837 H 838.223 -0.030697 -4.28589 0
M  V30 8838 H 842.407 -0.79639 -4.89869 0
M  V30 8839 H 837.663 -1.86607 -5.82226 0
M  V30 8840 H 841.837 -2.62934 -6.44855 0
M  V30 8841 H 839.464 -3.17017 -6.90944 0
M  V30 8842 N 841.039 1.57585 0.0217189 0
M  V30 8843 C 841.989 2.03506 1.02807 0
M  V30 8844 C 842.973 0.925716 1.31603 0
M  V30 8845 O 844.165 1.18958 1.31065 0
M  V30 8846 C 841.294 2.52407 2.32693 0
M  V30 8847 C 840.38 3.70176 2.06955 0
M  V30 8848 N 840.771 4.82641 1.513 0
M  V30 8849 C 839.069 3.77691 2.37204 0
M  V30 8850 C 839.77 5.64218 1.41536 0
M  V30 8851 N 838.746 5.09557 1.89348 0
M  V30 8852 H 842.548 2.87878 0.591899 0
M  V30 8853 H 840.062 1.60793 0.227875 0
M  V30 8854 H 842.059 2.83569 3.05605 0
M  V30 8855 H 840.719 1.69444 2.76982 0
M  V30 8856 H 841.73 5.03931 1.19472 0
M  V30 8857 H 838.407 3.05542 2.84517 0
M  V30 8858 H 839.797 6.64576 0.989333 0
M  V30 8859 N 842.517 -0.29412 1.54831 0
M  V30 8860 C 843.765 -1.02643 1.74094 0
M  V30 8861 C 844.086 -1.87563 0.533402 0
M  V30 8862 O 843.356 -1.9061 -0.452192 0
M  V30 8863 H 841.936 -0.381959 0.641963 0
M  V30 8864 H 844.598 -0.323444 1.92197 0
M  V30 8865 H 843.694 -1.67558 2.63307 0
M  V30 8866 N 843.995 -1.47404 -0.557645 0
M  V30 8867 C 845.243 -1.53703 -1.31224 0
M  V30 8868 C 845.564 -0.200742 -1.93964 0
M  V30 8869 O 844.834 0.775253 -1.79907 0
M  V30 8870 H 843.414 -0.566171 -0.487299 0
M  V30 8871 H 846.076 -1.83699 -0.651195 0
M  V30 8872 H 845.172 -2.30335 -2.10599 0
M  V30 8873 N 845.473 0.80434 -1.35529 0
M  V30 8874 C 846.405 1.92445 -1.2449 0
M  V30 8875 C 847.418 1.61934 -0.167685 0
M  V30 8876 O 848.607 1.73461 -0.42115 0
M  V30 8877 C 845.707 3.26875 -0.894751 0
M  V30 8878 C 844.88 3.85275 -2.07079 0
M  V30 8879 C 843.939 4.98116 -1.69607 0
M  V30 8880 O 842.965 5.15424 -2.41509 0
M  V30 8881 N 844.167 5.77169 -0.621012 0
M  V30 8882 H 846.932 2.02441 -2.20993 0
M  V30 8883 H 844.493 0.981874 -1.28728 0
M  V30 8884 H 846.485 3.99837 -0.625511 0
M  V30 8885 H 845.055 3.12594 -0.0193306 0
M  V30 8886 H 844.275 3.0448 -2.5037 0
M  V30 8887 H 845.563 4.21024 -2.85685 0
M  V30 8888 H 844.961 5.65695 -0.0236679 0
M  V30 8889 H 843.518 6.50499 -0.411558 0
M  V30 8890 N 846.951 1.19563 1.02676 0
M  V30 8891 C 848.197 1.00105 1.76371 0
M  V30 8892 C 848.53 -0.466823 1.88506 0
M  V30 8893 O 847.805 -1.34665 1.40341 0
M  V30 8894 C 848.088 1.67321 3.18866 0
M  V30 8895 C 847.941 3.21486 3.1459 0
M  V30 8896 C 849.26 1.39794 4.17308 0
M  V30 8897 H 846.379 0.365075 0.640226 0
M  V30 8898 H 849.021 1.47433 1.19848 0
M  V30 8899 H 847.171 1.27081 3.67128 0
M  V30 8900 H 848.843 3.70953 2.7421 0
M  V30 8901 H 847.086 3.5292 2.52249 0
M  V30 8902 H 847.757 3.63665 4.15273 0
M  V30 8903 H 850.233 1.74685 3.77657 0
M  V30 8904 H 849.109 1.89371 5.15199 0
M  V30 8905 H 849.37 0.323505 4.40915 0
M  V30 8906 N 848.429 -1.21819 0.999893 0
M  V30 8907 C 849.845 -1.42847 0.711824 0
M  V30 8908 C 850.045 -1.88391 -0.714928 0
M  V30 8909 O 849.101 -2.0422 -1.48494 0
M  V30 8910 C 850.414 -2.46417 1.72334 0
M  V30 8911 C 851.962 -2.60207 1.73958 0
M  V30 8912 C 852.437 -3.67005 2.73992 0
M  V30 8913 N 853.928 -3.7447 2.72628 0
M  V30 8914 C 854.663 -4.56718 3.46693 0
M  V30 8915 N 854.159 -5.42904 4.3038 0
M  V30 8916 N 855.952 -4.51094 3.35366 0
M  V30 8917 H 848.103 -0.905656 1.92124 0
M  V30 8918 H 850.366 -0.459893 0.828977 0
M  V30 8919 H 850.072 -2.19914 2.74465 0
M  V30 8920 H 849.946 -3.45137 1.52186 0
M  V30 8921 H 852.333 -2.8605 0.725217 0
M  V30 8922 H 852.414 -1.61739 1.98177 0
M  V30 8923 H 852.058 -3.41908 3.75582 0
M  V30 8924 H 851.988 -4.65058 2.4704 0
M  V30 8925 H 854.479 -3.12895 2.11909 0
M  V30 8926 H 854.792 -6.02704 4.83702 0
M  V30 8927 H 853.137 -5.42463 4.34464 0
M  V30 8928 H 856.328 -3.82791 2.69423 0
M  V30 8929 H 856.501 -5.1496 3.93344 0
M  V30 8930 N 849.908 -0.773975 -1.37286 0
M  V30 8931 C 851.185 -0.263942 -1.93811 0
M  V30 8932 C 851.565 1.24138 -1.70743 0
M  V30 8933 O 850.913 2.02557 -1.05749 0
M  V30 8934 C 851.123 -0.639753 -3.43086 0
M  V30 8935 C 852.471 -0.610796 -4.20184 0
M  V30 8936 O 853.495 -0.579278 -3.51458 0
M  V30 8937 O 852.354 -0.639862 -5.42741 0
M  V30 8938 H 849.448 -0.0614331 -0.824715 0
M  V30 8939 H 851.994 -0.855477 -1.46559 0
M  V30 8940 H 850.766 -1.67856 -3.53469 0
M  V30 8941 H 850.389 -0.0212827 -3.97594 0
M  V30 8942 N 851.386 1.48609 -0.524698 0
M  V30 8943 C 852.802 1.58557 -0.182199 0
M  V30 8944 C 853.002 1.52732 1.31435 0
M  V30 8945 O 852.058 1.41362 2.0922 0
M  V30 8946 C 853.371 2.90406 -0.78004 0
M  V30 8947 C 854.919 3.03924 -0.748293 0
M  V30 8948 C 855.394 4.38427 -1.32462 0
M  V30 8949 N 856.885 4.4498 -1.28635 0
M  V30 8950 C 857.62 5.47551 -1.70223 0
M  V30 8951 N 857.116 6.57103 -2.19515 0
M  V30 8952 N 858.909 5.38402 -1.61493 0
M  V30 8953 H 851.06 1.50638 -1.4974 0
M  V30 8954 H 853.323 0.714952 -0.622533 0
M  V30 8955 H 853.029 3.00308 -1.83052 0
M  V30 8956 H 852.903 3.76343 -0.254075 0
M  V30 8957 H 855.29 2.93638 0.293407 0
M  V30 8958 H 855.371 2.19611 -1.31167 0
M  V30 8959 H 855.015 4.49466 -2.36522 0
M  V30 8960 H 854.945 5.21418 -0.736967 0
M  V30 8961 H 857.436 3.66393 -0.92545 0
M  V30 8962 H 857.749 7.31499 -2.49257 0
M  V30 8963 H 856.094 6.58081 -2.23506 0
M  V30 8964 H 859.285 4.5171 -1.22785 0
M  V30 8965 H 859.458 6.18208 -1.94225 0
M  V30 8966 N 852.864 0.259585 1.55447 0
M  V30 8967 C 854.28 -0.094961 1.59317 0
M  V30 8968 C 854.48 -1.55884 1.2768 0
M  V30 8969 O 853.536 -2.30528 1.0302 0
M  V30 8970 C 854.849 0.265669 2.99524 0
M  V30 8971 C 856.397 0.211007 3.12288 0
M  V30 8972 C 856.872 0.545851 4.54736 0
M  V30 8973 N 858.363 0.496823 4.60528 0
M  V30 8974 C 859.098 0.728909 5.68748 0
M  V30 8975 N 858.594 1.02479 6.85179 0
M  V30 8976 N 860.387 0.658756 5.58226 0
M  V30 8977 H 852.538 1.2141 1.7428 0
M  V30 8978 H 854.801 0.489404 0.811904 0
M  V30 8979 H 854.507 1.28316 3.27457 0
M  V30 8980 H 854.381 -0.401089 3.75061 0
M  V30 8981 H 856.768 -0.797172 2.84129 0
M  V30 8982 H 856.849 0.911799 2.38998 0
M  V30 8983 H 856.493 1.55164 4.83618 0
M  V30 8984 H 856.423 -0.17656 5.26304 0
M  V30 8985 H 858.914 0.277376 3.76881 0
M  V30 8986 H 859.227 1.18897 7.63599 0
M  V30 8987 H 857.572 1.0624 6.86832 0
M  V30 8988 H 860.763 0.427553 4.66143 0
M  V30 8989 H 860.936 0.84302 6.42493 0
M  V30 8990 N 854.342 -1.57594 -0.0133615 0
M  V30 8991 C 855.305 -2.06534 -0.993799 0
M  V30 8992 C 856.305 -0.972267 -1.28077 0
M  V30 8993 O 857.495 -1.23537 -1.22818 0
M  V30 8994 C 854.627 -2.49554 -2.3224 0
M  V30 8995 H 855.82 -2.94419 -0.570741 0
M  V30 8996 H 853.373 -1.54113 -0.260546 0
M  V30 8997 H 854.108 -1.64872 -2.79263 0
M  V30 8998 H 853.893 -3.29371 -2.12737 0
M  V30 8999 H 855.383 -2.8779 -3.026 0
M  V30 9000 N 855.82 0.285905 -1.54985 0
M  V30 9001 C 857.068 1.01718 -1.74636 0
M  V30 9002 C 857.389 1.87277 -0.543342 0
M  V30 9003 O 856.659 1.90847 0.442078 0
M  V30 9004 H 855.239 0.378549 -0.643979 0
M  V30 9005 H 857.901 0.313247 -1.92366 0
M  V30 9006 H 856.997 1.66159 -2.64192 0
M  V30 9007 N 857.298 1.47698 0.54982 0
M  V30 9008 C 858.546 1.54397 1.30407 0
M  V30 9009 C 858.867 0.211026 1.93855 0
M  V30 9010 O 858.137 -0.765701 1.80316 0
M  V30 9011 H 856.717 0.568747 0.484289 0
M  V30 9012 H 859.379 1.84042 0.641444 0
M  V30 9013 H 858.475 2.31449 2.09375 0
M  V30 9014 N 858.776 -0.797141 1.35954 0
M  V30 9015 C 860.024 -1.55161 1.29497 0
M  V30 9016 C 860.345 -1.94582 -0.127659 0
M  V30 9017 O 859.615 -1.64343 -1.06622 0
M  V30 9018 H 858.195 -0.575413 0.47635 0
M  V30 9019 H 860.857 -0.950282 1.70164 0
M  V30 9020 H 859.953 -2.46272 1.9172 0
M  V30 9021 N 860.254 -1.20106 -1.0204 0
M  V30 9022 C 861.502 -1.0069 -1.75231 0
M  V30 9023 C 861.823 0.462491 -1.89436 0
M  V30 9024 O 861.093 1.33455 -1.4341 0
M  V30 9025 H 859.673 -0.369576 -0.649171 0
M  V30 9026 H 862.335 -1.51149 -1.23044 0
M  V30 9027 H 861.431 -1.46205 -2.75736 0
M  V30 9028 N 861.732 1.21287 -1.00634 0
M  V30 9029 C 862.98 1.90013 -0.688438 0
M  V30 9030 C 863.301 1.78573 0.783365 0
M  V30 9031 O 862.571 1.1815 1.56261 0
M  V30 9032 H 861.151 0.703336 -0.251648 0
M  V30 9033 H 863.813 1.47346 -1.27574 0
M  V30 9034 H 862.909 2.96879 -0.962781 0
M  V30 9035 N 863.21 0.781244 1.36873 0
M  V30 9036 C 864.458 0.349198 1.9906 0
M  V30 9037 C 864.779 -1.0806 1.62321 0
M  V30 9038 O 864.049 -1.74351 0.893229 0
M  V30 9039 H 862.629 0.126126 0.736275 0
M  V30 9040 H 865.291 1.00148 1.67202 0
M  V30 9041 H 864.387 0.434451 3.09061 0
M  V30 9042 N 864.689 -1.48329 0.532571 0
M  V30 9043 C 865.937 -2.021 -0.000581206 0
M  V30 9044 C 866.258 -1.4117 -1.34522 0
M  V30 9045 O 865.528 -0.578005 -1.87179 0
M  V30 9046 H 864.108 -0.746993 -0.00320281 0
M  V30 9047 H 866.77 -1.82011 0.696991 0
M  V30 9048 H 865.866 -3.11917 -0.106991 0
M  V30 9049 N 866.167 -0.267825 -1.55308 0
M  V30 9050 C 867.413 0.351556 -1.9973 0
M  V30 9051 C 867.746 1.56049 -1.15596 0
M  V30 9052 O 867.021 1.93203 -0.224274 0
M  V30 9053 C 867.304 0.74091 -3.52395 0
M  V30 9054 C 867.157 -0.474861 -4.47286 0
M  V30 9055 C 868.476 1.5801 -4.10756 0
M  V30 9056 H 865.595 0.126308 -0.726096 0
M  V30 9057 H 868.237 -0.373316 -1.86296 0
M  V30 9058 H 866.387 1.35851 -3.63973 0
M  V30 9059 H 868.059 -1.1134 -4.47662 0
M  V30 9060 H 866.302 -1.11425 -4.19246 0
M  V30 9061 H 866.973 -0.158782 -5.51772 0
M  V30 9062 H 869.449 1.05857 -4.0241 0
M  V30 9063 H 868.325 1.82135 -5.17801 0
M  V30 9064 H 868.586 2.55878 -3.60526 0
M  V30 9065 N 867.645 1.57599 0.00500368 0
M  V30 9066 C 868.577 2.04949 1.02609 0
M  V30 9067 C 869.59 0.966507 1.31006 0
M  V30 9068 O 870.779 1.2434 1.2807 0
M  V30 9069 C 867.879 2.43023 2.36206 0
M  V30 9070 C 867.052 3.73993 2.26821 0
M  V30 9071 C 866.111 3.9899 3.43065 0
M  V30 9072 O 865.137 4.69725 3.21477 0
M  V30 9073 N 866.339 3.46496 4.65748 0
M  V30 9074 H 869.104 2.93167 0.622336 0
M  V30 9075 H 866.665 1.60752 0.192488 0
M  V30 9076 H 868.657 2.56863 3.12735 0
M  V30 9077 H 867.227 1.60349 2.68341 0
M  V30 9078 H 866.447 3.70277 1.35235 0
M  V30 9079 H 867.735 4.59865 2.17719 0
M  V30 9080 H 867.133 2.89206 4.86186 0
M  V30 9081 H 865.69 3.65675 5.3956 0
M  V30 9082 N 869.123 -0.277682 1.55134 0
M  V30 9083 C 870.071 -1.36305 1.88478 0
M  V30 9084 C 871.065 -1.51362 0.760654 0
M  V30 9085 O 872.271 -1.53202 0.944943 0
M  V30 9086 H 868.646 -0.45577 0.598146 0
M  V30 9087 H 870.617 -1.05431 2.79154 0
M  V30 9088 C 869.366 -2.71739 2.16918 0
M  V30 9089 H 868.689 -2.60942 3.02901 0
M  V30 9090 H 870.129 -3.46635 2.44172 0
M  V30 9091 C 868.588 -3.22476 0.975239 0
M  V30 9092 O 869.118 -4.01164 0.207497 0
M  V30 9093 N 867.324 -2.80097 0.774219 0
M  V30 9094 H 866.871 -2.16221 1.40022 0
M  V30 9095 H 866.829 -3.14392 -0.023021 0
M  V30 9096 N 870.601 -1.47988 -0.541979 0
M  V30 9097 C 871.849 -1.55086 -1.29587 0
M  V30 9098 C 872.17 -0.221304 -1.9374 0
M  V30 9099 O 871.44 0.756128 -1.80719 0
M  V30 9100 H 870.02 -0.571307 -0.481266 0
M  V30 9101 H 872.682 -1.8438 -0.631675 0
M  V30 9102 H 871.778 -2.32556 -2.08144 0
M  V30 9103 N 872.079 0.78992 -1.36375 0
M  V30 9104 C 873.49 1.36506 -1.2737 0
M  V30 9105 C 873.841 1.96008 0.086711 0
M  V30 9106 O 872.966 1.92521 0.988159 0
M  V30 9107 C 873.561 2.48175 -2.30639 0
M  V30 9108 C 872.12 3.01506 -2.25325 0
M  V30 9109 C 871.267 1.74581 -2.15445 0
M  V30 9110 H 874.218 0.591606 -1.47261 0
M  V30 9111 H 874.239 3.27179 -1.94253 0
M  V30 9112 H 873.751 2.04838 -3.2964 0
M  V30 9113 H 871.852 3.49265 -1.29788 0
M  V30 9114 H 871.965 3.58355 -3.17992 0
M  V30 9115 H 870.329 1.96794 -1.61692 0
M  V30 9116 H 871.112 1.33373 -3.16333 0
M  V30 9117 N 873.557 1.20646 1.01402 0
M  V30 9118 C 874.968 1.01823 1.56489 0
M  V30 9119 C 875.319 -0.42463 1.9155 0
M  V30 9120 O 874.444 -1.30644 1.72514 0
M  V30 9121 C 875.039 1.84208 2.84347 0
M  V30 9122 C 873.598 1.69743 3.35953 0
M  V30 9123 C 872.745 1.8198 2.09233 0
M  V30 9124 H 875.696 1.348 0.837539 0
M  V30 9125 H 875.717 1.34698 3.55861 0
M  V30 9126 H 875.229 2.89215 2.58798 0
M  V30 9127 H 873.33 0.673833 3.66456 0
M  V30 9128 H 873.443 2.51173 4.07981 0
M  V30 9129 H 871.807 1.25193 2.21808 0
M  V30 9130 H 872.59 2.88477 1.86107 0
M  V30 9131 N 875.035 -1.20752 1.01276 0
M  V30 9132 C 875.998 -2.2162 0.584583 0
M  V30 9133 C 876.998 -1.57094 -0.343215 0
M  V30 9134 O 878.188 -1.73696 -0.132433 0
M  V30 9135 C 875.32 -3.40583 -0.146872 0
M  V30 9136 H 876.513 -2.61015 1.47686 0
M  V30 9137 H 874.066 -1.34148 0.802123 0
M  V30 9138 H 874.801 -3.06686 -1.05424 0
M  V30 9139 H 874.586 -3.88642 0.51958 0
M  V30 9140 H 876.076 -4.15339 -0.433924 0
M  V30 9141 N 876.513 -0.788492 -1.36457 0
M  V30 9142 C 877.738 -0.371224 -2.04051 0
M  V30 9143 C 878.163 1.004 -1.59064 0
M  V30 9144 O 877.521 1.64663 -0.758679 0
M  V30 9145 C 877.569 -0.442275 -3.57877 0
M  V30 9146 O 876.673 0.55113 -4.08701 0
M  V30 9147 H 876.014 -0.157808 -0.644975 0
M  V30 9148 H 878.544 -1.06935 -1.74431 0
M  V30 9149 H 878.554 -0.305548 -4.06854 0
M  V30 9150 H 877.229 -1.44547 -3.89973 0
M  V30 9151 H 875.806 0.37614 -3.70998 0
M  V30 9152 N 877.991 1.48044 -0.54043 0
M  V30 9153 C 879.402 1.86418 -0.102662 0
M  V30 9154 C 879.753 1.4489 1.32293 0
M  V30 9155 O 878.878 0.844319 1.99249 0
M  V30 9156 C 879.473 3.38324 -0.179533 0
M  V30 9157 C 878.032 3.75852 0.203098 0
M  V30 9158 C 877.179 2.72097 -0.534637 0
M  V30 9159 H 880.13 1.398 -0.751103 0
M  V30 9160 H 880.151 3.75641 0.606147 0
M  V30 9161 H 879.663 3.68518 -1.21721 0
M  V30 9162 H 877.764 3.51272 1.24252 0
M  V30 9163 H 877.877 4.78884 -0.143784 0
M  V30 9164 H 876.241 2.54692 0.0203358 0
M  V30 9165 H 877.024 3.05135 -1.57314 0
M  V30 9166 N 879.47 0.276058 1.55163 0
M  V30 9167 C 880.698 -0.343772 2.04024 0
M  V30 9168 C 881.113 -1.49397 1.15438 0
M  V30 9169 O 880.47 -1.81662 0.174692 0
M  V30 9170 C 880.521 -0.823885 3.51986 0
M  V30 9171 O 880.242 0.280507 4.37201 0
M  V30 9172 C 881.743 -1.51143 4.16738 0
M  V30 9173 H 878.963 -0.07828 0.666418 0
M  V30 9174 H 881.507 0.408427 2.0038 0
M  V30 9175 H 879.662 -1.52617 3.56071 0
M  V30 9176 H 880.076 -0.0887831 5.24425 0
M  V30 9177 H 881.55 -1.79878 5.2187 0
M  V30 9178 H 882.027 -2.44327 3.64967 0
M  V30 9179 H 882.633 -0.852975 4.16659 0
M  V30 9180 N 880.948 -1.576 0.00335426 0
M  V30 9181 C 881.878 -2.11668 -0.985839 0
M  V30 9182 C 882.859 -1.02661 -1.35627 0
M  V30 9183 O 884.044 -1.30361 -1.43943 0
M  V30 9184 C 881.174 -2.62273 -2.27662 0
M  V30 9185 C 880.128 -3.75837 -2.0477 0
M  V30 9186 C 879.454 -4.12769 -3.39891 0
M  V30 9187 C 880.754 -5.02975 -1.40759 0
M  V30 9188 H 882.448 -2.9457 -0.535637 0
M  V30 9189 H 879.994 -1.41702 -0.256204 0
M  V30 9190 H 881.947 -2.98727 -2.97221 0
M  V30 9191 H 880.671 -1.76498 -2.74802 0
M  V30 9192 H 879.33 -3.39782 -1.37636 0
M  V30 9193 H 878.978 -3.24013 -3.8474 0
M  V30 9194 H 878.678 -4.89281 -3.25389 0
M  V30 9195 H 880.202 -4.51784 -4.1076 0
M  V30 9196 H 881.616 -5.37179 -2.00279 0
M  V30 9197 H 880.013 -5.84315 -1.36734 0
M  V30 9198 H 881.083 -4.83431 -0.377218 0
M  V30 9199 N 882.426 0.269451 -1.5528 0
M  V30 9200 C 883.389 1.31642 -1.87625 0
M  V30 9201 C 884.389 1.42182 -0.751058 0
M  V30 9202 O 885.579 1.41272 -1.01921 0
M  V30 9203 C 882.711 2.6973 -2.08467 0
M  V30 9204 H 883.904 1.0419 -2.81219 0
M  V30 9205 H 881.457 0.507685 -1.47825 0
M  V30 9206 H 882.192 3.02356 -1.17266 0
M  V30 9207 H 881.977 2.63465 -2.90394 0
M  V30 9208 H 883.467 3.4537 -2.34753 0
M  V30 9209 N 883.904 1.48273 0.534124 0
M  V30 9210 C 884.854 1.58889 1.63519 0
M  V30 9211 C 885.838 0.44626 1.54588 0
M  V30 9212 O 887.03 0.697474 1.62679 0
M  V30 9213 C 884.159 1.62787 3.0225 0
M  V30 9214 C 883.245 2.82515 3.16301 0
M  V30 9215 N 883.636 4.06977 3.00338 0
M  V30 9216 C 881.934 2.7976 3.47347 0
M  V30 9217 C 882.635 4.87283 3.17694 0
M  V30 9218 N 881.611 4.20024 3.45081 0
M  V30 9219 H 885.413 2.52869 1.49781 0
M  V30 9220 H 882.927 1.44587 0.739479 0
M  V30 9221 H 884.924 1.68486 3.81337 0
M  V30 9222 H 883.584 0.699201 3.17082 0
M  V30 9223 H 884.595 4.37479 2.77186 0
M  V30 9224 H 881.272 1.96132 3.68563 0
M  V30 9225 H 882.662 5.96047 3.10126 0
M  V30 9226 N 885.382 -0.782676 1.36792 0
M  V30 9227 C 886.292 -1.92679 1.33835 0
M  V30 9228 C 887.308 -1.72344 0.23952 0
M  V30 9229 O 888.484 -1.95766 0.473045 0
M  V30 9230 C 885.549 -3.27644 1.1336 0
M  V30 9231 C 884.61 -3.6071 2.32781 0
M  V30 9232 C 883.843 -4.89234 2.13273 0
M  V30 9233 O 884.066 -5.59468 1.11136 0
M  V30 9234 O 883 -5.21112 3.01208 0
M  V30 9235 H 886.826 -1.98124 2.30175 0
M  V30 9236 H 884.411 -0.923887 1.17408 0
M  V30 9237 H 886.293 -4.08394 1.03886 0
M  V30 9238 H 884.968 -3.23076 0.200868 0
M  V30 9239 H 883.875 -2.80238 2.47825 0
M  V30 9240 H 885.208 -3.70008 3.24584 0
M  V30 9241 N 886.86 -1.21182 -1.00761 0
M  V30 9242 C 887.823 -0.970339 -2.07646 0
M  V30 9243 C 888.823 0.0576345 -1.60697 0
M  V30 9244 O 890.013 -0.179369 -1.73274 0
M  V30 9245 C 887.145 -0.462703 -3.37745 0
M  V30 9246 H 888.338 -1.91856 -2.30502 0
M  V30 9247 H 885.891 -1.02844 -1.17698 0
M  V30 9248 H 886.626 0.490559 -3.20568 0
M  V30 9249 H 886.411 -1.20416 -3.73152 0
M  V30 9250 H 887.901 -0.313531 -4.16421 0
M  V30 9251 N 888.338 1.20213 -1.01915 0
M  V30 9252 C 889.301 2.21307 -0.596327 0
M  V30 9253 C 890.301 1.57274 0.334879 0
M  V30 9254 O 891.491 1.73764 0.12322 0
M  V30 9255 C 888.623 3.40657 0.128808 0
M  V30 9256 H 889.816 2.60228 -1.49068 0
M  V30 9257 H 887.369 1.33721 -0.809226 0
M  V30 9258 H 888.104 3.07241 1.03796 0
M  V30 9259 H 887.889 3.88361 -0.540183 0
M  V30 9260 H 889.379 4.15564 0.411892 0
M  V30 9261 N 889.816 0.795718 1.36037 0
M  V30 9262 C 891.227 0.433379 1.816 0
M  V30 9263 C 891.578 -1.04341 1.66155 0
M  V30 9264 O 890.703 -1.81004 1.18603 0
M  V30 9265 C 891.298 0.77985 3.29703 0
M  V30 9266 C 889.857 0.470256 3.73451 0
M  V30 9267 C 889.004 1.01119 2.58206 0
M  V30 9268 H 891.955 0.988317 1.24169 0
M  V30 9269 H 891.976 0.0732898 3.80429 0
M  V30 9270 H 891.488 1.85473 3.40913 0
M  V30 9271 H 889.589 -0.596332 3.67797 0
M  V30 9272 H 889.702 0.995276 4.68648 0
M  V30 9273 H 888.066 0.434077 2.50974 0
M  V30 9274 H 888.849 2.09196 2.72198 0
M  V30 9275 N 891.294 -1.47756 0.548274 0
M  V30 9276 C 892.224 -2.32702 -0.19284 0
M  V30 9277 C 893.205 -1.43237 -0.917457 0
M  V30 9278 O 894.39 -1.72103 -0.89967 0
M  V30 9279 C 891.52 -3.24831 -1.22891 0
M  V30 9280 C 890.474 -4.23466 -0.621312 0
M  V30 9281 C 889.8 -5.04856 -1.76137 0
M  V30 9282 C 891.1 -5.20616 0.419055 0
M  V30 9283 H 892.794 -2.94914 0.516323 0
M  V30 9284 H 890.34 -1.41818 0.24975 0
M  V30 9285 H 892.293 -3.83094 -1.75547 0
M  V30 9286 H 891.017 -2.60656 -1.9679 0
M  V30 9287 H 889.676 -3.66416 -0.116123 0
M  V30 9288 H 889.324 -4.37091 -2.48918 0
M  V30 9289 H 889.024 -5.71629 -1.36065 0
M  V30 9290 H 890.548 -5.65976 -2.29136 0
M  V30 9291 H 891.962 -5.73296 -0.0211034 0
M  V30 9292 H 890.359 -5.95543 0.738163 0
M  V30 9293 H 891.429 -4.66638 1.31822 0
M  V30 9294 N 892.772 -0.284283 -1.55015 0
M  V30 9295 C 894.183 0.211681 -1.85496 0
M  V30 9296 C 894.534 1.54735 -1.2063 0
M  V30 9297 O 893.659 2.10594 -0.497918 0
M  V30 9298 C 894.254 0.390864 -3.36538 0
M  V30 9299 C 892.813 0.831055 -3.67111 0
M  V30 9300 C 891.96 -0.0703581 -2.77211 0
M  V30 9301 H 894.911 -0.505803 -1.50424 0
M  V30 9302 H 894.932 1.22803 -3.60138 0
M  V30 9303 H 894.444 -0.581409 -3.8372 0
M  V30 9304 H 892.545 1.81447 -3.25434 0
M  V30 9305 H 892.658 0.662026 -4.74504 0
M  V30 9306 H 891.022 0.447528 -2.50737 0
M  V30 9307 H 891.805 -1.03868 -3.2721 0
M  V30 9308 N 894.251 1.57596 -0.0117121 0
M  V30 9309 C 895.214 2.08089 0.960816 0
M  V30 9310 C 896.214 0.992519 1.26514 0
M  V30 9311 O 897.404 1.25475 1.20837 0
M  V30 9312 C 894.536 2.53217 2.28241 0
M  V30 9313 H 895.729 2.9529 0.523829 0
M  V30 9314 H 893.282 1.54508 0.235995 0
M  V30 9315 H 894.017 1.69294 2.76604 0
M  V30 9316 H 893.802 3.32714 2.0747 0
M  V30 9317 H 895.292 2.92568 2.97983 0
M  V30 9318 N 895.729 -0.261212 1.5542 0
M  V30 9319 C 896.977 -0.989272 1.76232 0
M  V30 9320 C 897.298 -1.86389 0.573067 0
M  V30 9321 O 896.568 -1.91526 -0.41166 0
M  V30 9322 H 895.148 -0.368256 0.64992 0
M  V30 9323 H 897.81 -0.282603 1.9284 0
M  V30 9324 H 896.906 -1.61935 2.66802 0
M  V30 9325 N 897.207 -1.48554 -0.526253 0
M  V30 9326 C 898.623 -1.34757 -0.855138 0
M  V30 9327 C 898.823 -0.36142 -1.98232 0
M  V30 9328 O 897.879 0.216026 -2.51574 0
M  V30 9329 C 899.192 -2.74877 -1.21915 0
M  V30 9330 C 900.74 -2.83393 -1.32882 0
M  V30 9331 C 901.215 -4.24223 -1.72624 0
M  V30 9332 N 902.706 -4.26913 -1.7972 0
M  V30 9333 C 903.441 -5.32824 -2.11863 0
M  V30 9334 N 902.937 -6.49008 -2.42405 0
M  V30 9335 N 904.73 -5.20221 -2.12901 0
M  V30 9336 H 896.881 -2.11284 0.217422 0
M  V30 9337 H 899.144 -0.947367 0.0346362 0
M  V30 9338 H 898.85 -3.48619 -0.464486 0
M  V30 9339 H 898.724 -3.0864 -2.16844 0
M  V30 9340 H 901.111 -2.09904 -2.07424 0
M  V30 9341 H 901.192 -2.53245 -0.360638 0
M  V30 9342 H 900.836 -4.98229 -0.986411 0
M  V30 9343 H 900.766 -4.51817 -2.70498 0
M  V30 9344 H 903.257 -3.4311 -1.58379 0
M  V30 9345 H 903.57 -7.25561 -2.66048 0
M  V30 9346 H 901.915 -6.52277 -2.39917 0
M  V30 9347 H 905.106 -4.28469 -1.885 0
M  V30 9348 H 905.279 -6.02861 -2.37619 0
M  V30 9349 N 898.685 0.775411 -1.37205 0
M  V30 9350 C 900.096 1.35147 -1.28811 0
M  V30 9351 C 900.447 1.96089 0.0659168 0
M  V30 9352 O 899.572 1.93558 0.967684 0
M  V30 9353 C 900.167 2.45715 -2.33258 0
M  V30 9354 C 898.726 2.99099 -2.2851 0
M  V30 9355 C 897.873 1.72286 -2.17285 0
M  V30 9356 H 900.824 0.575954 -1.4788 0
M  V30 9357 H 900.845 3.251 -1.97712 0
M  V30 9358 H 900.357 2.01331 -3.31795 0
M  V30 9359 H 898.458 3.47868 -1.33485 0
M  V30 9360 H 898.571 3.54962 -3.21774 0
M  V30 9361 H 896.935 1.95068 -1.6377 0
M  V30 9362 H 897.718 1.3001 -3.1773 0
M  V30 9363 N 900.163 1.21714 1.00117 0
M  V30 9364 C 901.579 0.97532 1.26332 0
M  V30 9365 C 901.779 -0.336029 1.98678 0
M  V30 9366 O 900.835 -1.06073 2.29139 0
M  V30 9367 C 902.148 2.16848 2.0832 0
M  V30 9368 C 903.696 2.21115 2.21533 0
M  V30 9369 C 904.171 3.3996 3.06906 0
M  V30 9370 N 905.662 3.40071 3.14494 0
M  V30 9371 C 906.397 4.28678 3.80818 0
M  V30 9372 N 905.893 5.2749 4.49139 0
M  V30 9373 N 907.686 4.16476 3.77497 0
M  V30 9374 H 899.837 2.06039 0.515897 0
M  V30 9375 H 902.1 0.902423 0.290408 0
M  V30 9376 H 901.806 3.119 1.62515 0
M  V30 9377 H 901.68 2.16226 3.09073 0
M  V30 9378 H 904.067 1.26616 2.66557 0
M  V30 9379 H 904.148 2.2578 1.20238 0
M  V30 9380 H 903.792 4.34755 2.62585 0
M  V30 9381 H 903.722 3.32534 4.08324 0
M  V30 9382 H 906.213 2.68563 2.65861 0
M  V30 9383 H 906.526 5.91397 4.97463 0
M  V30 9384 H 904.871 5.31412 4.47914 0
M  V30 9385 H 908.062 3.38539 3.23278 0
M  V30 9386 H 908.235 4.85739 4.28908 0
M  V30 9387 N 901.641 -1.19671 1.02551 0
M  V30 9388 C 903.052 -1.70964 0.750208 0
M  V30 9389 C 903.403 -1.82095 -0.730461 0
M  V30 9390 O 902.528 -1.48974 -1.56958 0
M  V30 9391 C 903.123 -3.10516 1.35518 0
M  V30 9392 C 901.682 -3.59083 1.12854 0
M  V30 9393 C 900.829 -2.36041 1.45534 0
M  V30 9394 H 903.78 -1.04559 1.19386 0
M  V30 9395 H 903.801 -3.73028 0.750378 0
M  V30 9396 H 903.313 -3.02383 2.43282 0
M  V30 9397 H 901.414 -3.72536 0.0689627 0
M  V30 9398 H 901.527 -4.43395 1.81488 0
M  V30 9399 H 899.891 -2.39214 0.87458 0
M  V30 9400 H 900.674 -2.3054 2.54374 0
M  V30 9401 N 903.119 -0.802921 -1.35613 0
M  V30 9402 C 904.347 -0.39393 -2.03115 0
M  V30 9403 C 904.762 0.993961 -1.60517 0
M  V30 9404 O 904.119 1.63984 -0.800973 0
M  V30 9405 C 904.17 -0.463486 -3.58516 0
M  V30 9406 O 903.891 -1.79666 -3.99565 0
M  V30 9407 C 905.392 -0.0468377 -4.43275 0
M  V30 9408 H 902.612 -0.160519 -0.651517 0
M  V30 9409 H 905.156 -1.08552 -1.73311 0
M  V30 9410 H 903.311 0.179821 -3.86982 0
M  V30 9411 H 903.725 -1.75688 -4.942 0
M  V30 9412 H 905.199 -0.146626 -5.51805 0
M  V30 9413 H 905.676 1.00741 -4.2749 0
M  V30 9414 H 906.282 -0.663158 -4.20098 0
M  V30 9415 N 904.597 1.47463 -0.556102 0
M  V30 9416 C 905.825 2.06868 -0.0364585 0
M  V30 9417 C 906.24 1.40893 1.25677 0
M  V30 9418 O 905.597 0.505083 1.75371 0
M  V30 9419 C 905.648 3.61128 0.163984 0
M  V30 9420 O 905.369 4.24629 -1.07803 0
M  V30 9421 C 906.87 4.37397 0.721036 0
M  V30 9422 H 904.09 0.669466 -0.0453399 0
M  V30 9423 H 906.634 1.89482 -0.769198 0
M  V30 9424 H 904.789 3.78031 0.84685 0
M  V30 9425 H 905.203 5.17149 -0.875067 0
M  V30 9426 H 906.677 5.46016 0.810584 0
M  V30 9427 H 907.154 4.03604 1.73206 0
M  V30 9428 H 907.76 4.25236 0.073904 0
M  V30 9429 N 906.075 0.2925 1.54862 0
M  V30 9430 C 907.023 -0.603186 2.24643 0
M  V30 9431 C 908.017 -1.1439 1.24946 0
M  V30 9432 O 909.223 -1.09552 1.42823 0
M  V30 9433 H 905.598 -0.213105 0.721173 0
M  V30 9434 H 907.569 0.00799278 2.98399 0
M  V30 9435 C 906.318 -1.76769 2.99413 0
M  V30 9436 H 905.641 -1.36084 3.75927 0
M  V30 9437 H 907.081 -2.37066 3.51533 0
M  V30 9438 C 905.54 -2.66669 2.05886 0
M  V30 9439 O 906.07 -3.67525 1.62136 0
M  V30 9440 N 904.276 -2.34216 1.7202 0
M  V30 9441 H 903.823 -1.52246 2.07795 0
M  V30 9442 H 903.781 -2.94635 1.09717 0
M  V30 9443 N 907.553 -1.57587 0.0200696 0
M  V30 9444 C 908.483 -2.12702 -0.963333 0
M  V30 9445 C 909.464 -1.04094 -1.34531 0
M  V30 9446 O 910.649 -1.31881 -1.42552 0
M  V30 9447 C 907.779 -2.64673 -2.24868 0
M  V30 9448 C 906.733 -3.77987 -2.00772 0
M  V30 9449 C 906.059 -4.16351 -3.35494 0
M  V30 9450 C 907.359 -5.0444 -1.35416 0
M  V30 9451 H 909.053 -2.95121 -0.504363 0
M  V30 9452 H 906.599 -1.41966 -0.24116 0
M  V30 9453 H 908.552 -3.01862 -2.94036 0
M  V30 9454 H 907.276 -1.79403 -2.72914 0
M  V30 9455 H 905.935 -3.41223 -1.34025 0
M  V30 9456 H 905.583 -3.28075 -3.81282 0
M  V30 9457 H 905.283 -4.92705 -3.20181 0
M  V30 9458 H 906.807 -4.56115 -4.05945 0
M  V30 9459 H 908.221 -5.39273 -1.94571 0
M  V30 9460 H 906.618 -5.85732 -1.30529 0
M  V30 9461 H 907.688 -4.83803 -0.325923 0
M  V30 9462 N 909.032 0.252966 -1.55557 0
M  V30 9463 C 910.279 0.981852 -1.77104 0
M  V30 9464 C 910.607 1.85547 -0.583305 0
M  V30 9465 O 909.862 1.90836 0.43359 0
M  V30 9466 C 910.161 1.87785 -3.04091 0
M  V30 9467 C 909.827 1.16009 -4.35721 0
M  V30 9468 C 908.489 0.961697 -4.71492 0
M  V30 9469 C 910.841 0.650884 -5.1712 0
M  V30 9470 C 908.169 0.241704 -5.86202 0
M  V30 9471 C 910.521 -0.0556124 -6.32576 0
M  V30 9472 C 909.185 -0.265536 -6.66972 0
M  V30 9473 H 908.455 0.359285 -0.64807 0
M  V30 9474 H 911.102 0.252443 -1.89829 0
M  V30 9475 H 909.407 2.67412 -2.86353 0
M  V30 9476 H 911.104 2.44339 -3.17961 0
M  V30 9477 H 907.694 1.32465 -4.07616 0
M  V30 9478 H 911.878 0.791719 -4.89944 0
M  V30 9479 H 907.134 0.0685292 -6.11362 0
M  V30 9480 H 911.308 -0.457839 -6.94893 0
M  V30 9481 H 908.935 -0.8254 -7.55706 0
M  V30 9482 N 910.51 1.48831 0.518367 0
M  V30 9483 C 911.738 1.6112 1.298 0
M  V30 9484 C 912.153 0.275872 1.86774 0
M  V30 9485 O 911.51 -0.736416 1.66983 0
M  V30 9486 C 911.561 2.66675 2.44063 0
M  V30 9487 O 911.282 3.95027 1.89434 0
M  V30 9488 C 912.783 2.8951 3.35706 0
M  V30 9489 H 910.003 0.542916 0.394314 0
M  V30 9490 H 912.547 1.94743 0.624142 0
M  V30 9491 H 910.702 2.35879 3.07311 0
M  V30 9492 H 911.116 4.53031 2.64316 0
M  V30 9493 H 912.59 3.67142 4.12202 0
M  V30 9494 H 913.067 1.98768 3.91648 0
M  V30 9495 H 913.673 3.21656 2.7824 0
M  V30 9496 N 911.988 -0.768124 1.37614 0
M  V30 9497 C 912.935 -1.88151 1.33671 0
M  V30 9498 C 913.905 -1.64871 0.201645 0
M  V30 9499 O 915.09 -1.86739 0.391582 0
M  V30 9500 C 912.23 -3.25264 1.15314 0
M  V30 9501 C 911.343 -3.60473 2.38082 0
M  V30 9502 C 910.478 -4.86814 2.12569 0
M  V30 9503 C 909.517 -5.14765 3.31184 0
M  V30 9504 N 908.654 -6.32295 3.052 0
M  V30 9505 H 913.494 -1.90857 2.28862 0
M  V30 9506 H 911.031 -0.933048 1.13722 0
M  V30 9507 H 912.989 -4.04364 1.02691 0
M  V30 9508 H 911.619 -3.21924 0.237689 0
M  V30 9509 H 910.671 -2.7633 2.61431 0
M  V30 9510 H 911.983 -3.77065 3.26532 0
M  V30 9511 H 911.137 -5.73826 1.96999 0
M  V30 9512 H 909.876 -4.72333 1.21462 0
M  V30 9513 H 908.881 -4.26227 3.4729 0
M  V30 9514 H 910.106 -5.31153 4.23147 0
M  V30 9515 H 908.052 -6.19166 2.16726 0
M  V30 9516 H 907.969 -6.4932 3.87195 0
M  V30 9517 H 909.237 -7.22234 2.93254 0
M  V30 9518 N 913.466 -1.22244 -0.994698 0
M  V30 9519 C 914.396 -1.01513 -2.10279 0
M  V30 9520 C 915.377 0.0633365 -1.69982 0
M  V30 9521 O 916.562 -0.0985268 -1.9395 0
M  V30 9522 C 913.692 -0.59016 -3.42249 0
M  V30 9523 C 912.646 -1.61436 -3.96387 0
M  V30 9524 C 911.972 -1.04528 -5.24383 0
M  V30 9525 C 913.272 -3.00388 -4.27276 0
M  V30 9526 H 914.966 -1.94194 -2.2788 0
M  V30 9527 H 912.512 -0.935094 -1.09508 0
M  V30 9528 H 914.465 -0.432254 -4.19177 0
M  V30 9529 H 913.189 0.372308 -3.24471 0
M  V30 9530 H 911.848 -1.76001 -3.21589 0
M  V30 9531 H 911.496 -0.0742225 -5.02945 0
M  V30 9532 H 911.196 -1.72949 -5.61571 0
M  V30 9533 H 912.72 -0.898922 -6.03947 0
M  V30 9534 H 914.134 -2.89207 -4.95007 0
M  V30 9535 H 912.531 -3.65916 -4.75631 0
M  V30 9536 H 913.601 -3.50456 -3.35125 0
M  V30 9537 N 914.944 1.19125 -1.03184 0
M  V30 9538 C 916.172 1.92838 -0.74975 0
M  V30 9539 C 916.587 1.75667 0.691851 0
M  V30 9540 O 915.944 1.0805 1.47076 0
M  V30 9541 C 915.995 3.44509 -1.09525 0
M  V30 9542 O 915.716 3.6113 -2.48025 0
M  V30 9543 C 917.217 4.35338 -0.836397 0
M  V30 9544 H 914.437 0.61246 -0.274105 0
M  V30 9545 H 916.981 1.5118 -1.37712 0
M  V30 9546 H 915.136 3.83988 -0.513006 0
M  V30 9547 H 915.55 4.54959 -2.60984 0
M  V30 9548 H 917.024 5.4035 -1.12808 0
M  V30 9549 H 917.501 4.38602 0.229102 0
M  V30 9550 H 918.107 4.01544 -1.40152 0
M  V30 9551 N 916.422 0.810101 1.35185 0
M  V30 9552 C 917.647 0.40364 2.03434 0
M  V30 9553 C 918.072 -0.97857 1.60641 0
M  V30 9554 O 917.43 -1.63435 0.784779 0
M  V30 9555 C 917.478 0.499154 3.57129 0
M  V30 9556 O 916.582 -0.486039 4.09526 0
M  V30 9557 H 915.923 0.168049 0.642383 0
M  V30 9558 H 918.453 1.09696 1.72708 0
M  V30 9559 H 918.463 0.370236 4.06317 0
M  V30 9560 H 917.138 1.50733 3.87624 0
M  V30 9561 H 915.715 -0.31707 3.7155 0
M  V30 9562 N 917.9 -1.47166 0.563914 0
M  V30 9563 C 918.847 -2.30097 -0.180013 0
M  V30 9564 C 919.817 -1.39473 -0.902019 0
M  V30 9565 O 921.002 -1.68432 -0.896396 0
M  V30 9566 C 918.142 -3.23573 -1.19978 0
M  V30 9567 C 917.255 -4.2929 -0.483149 0
M  V30 9568 C 916.39 -5.0991 -1.48879 0
M  V30 9569 C 915.429 -6.07395 -0.757513 0
M  V30 9570 N 914.566 -6.8095 -1.71031 0
M  V30 9571 H 919.406 -2.93189 0.53329 0
M  V30 9572 H 916.943 -1.4451 0.274814 0
M  V30 9573 H 918.901 -3.76196 -1.80368 0
M  V30 9574 H 917.531 -2.6233 -1.88103 0
M  V30 9575 H 916.583 -3.79671 0.235414 0
M  V30 9576 H 917.895 -4.9872 0.0894075 0
M  V30 9577 H 917.049 -5.66717 -2.16603 0
M  V30 9578 H 915.788 -4.40397 -2.09527 0
M  V30 9579 H 914.793 -5.4976 -0.0663841 0
M  V30 9580 H 916.018 -6.78919 -0.156685 0
M  V30 9581 H 913.964 -6.14162 -2.30524 0
M  V30 9582 H 913.881 -7.46574 -1.19007 0
M  V30 9583 H 915.149 -7.42326 -2.37849 0
M  V30 9584 N 919.378 -0.300708 -1.54705 0
M  V30 9585 C 920.308 0.568675 -2.26469 0
M  V30 9586 C 921.289 1.13817 -1.26411 0
M  V30 9587 O 922.474 1.16756 -1.55183 0
M  V30 9588 C 919.604 1.74077 -3.00524 0
M  V30 9589 C 918.558 1.30165 -4.07727 0
M  V30 9590 C 917.884 2.55888 -4.69495 0
M  V30 9591 C 919.184 0.433106 -5.20501 0
M  V30 9592 H 920.878 -0.0298851 -2.99385 0
M  V30 9593 H 918.424 -0.0158135 -1.43991 0
M  V30 9594 H 920.377 2.35506 -3.49449 0
M  V30 9595 H 919.101 2.36556 -2.25186 0
M  V30 9596 H 917.76 0.710414 -3.59651 0
M  V30 9597 H 917.408 3.16681 -3.90797 0
M  V30 9598 H 917.108 2.27207 -5.41895 0
M  V30 9599 H 918.632 3.18121 -5.21183 0
M  V30 9600 H 920.046 0.95307 -5.65322 0
M  V30 9601 H 918.443 0.240085 -5.9962 0
M  V30 9602 H 919.513 -0.541866 -4.81863 0
M  V30 9603 N 920.856 1.57574 -0.0284266 0
M  V30 9604 C 922.084 1.96071 0.660575 0
M  V30 9605 C 922.499 0.904881 1.65703 0
M  V30 9606 O 921.856 -0.113379 1.82147 0
M  V30 9607 C 921.907 3.34634 1.36756 0
M  V30 9608 O 921.628 4.36167 0.411041 0
M  V30 9609 C 923.129 3.87758 2.14845 0
M  V30 9610 H 920.349 0.645794 0.182183 0
M  V30 9611 H 922.893 2.04311 -0.0879858 0
M  V30 9612 H 921.048 3.27616 2.06753 0
M  V30 9613 H 921.462 5.16493 0.913 0
M  V30 9614 H 922.936 4.87058 2.59767 0
M  V30 9615 H 923.413 3.21967 2.9872 0
M  V30 9616 H 924.019 3.98043 1.49807 0
M  V30 9617 N 922.334 -0.244713 1.55689 0
M  V30 9618 C 923.75 -0.593331 1.48161 0
M  V30 9619 C 923.95 -1.88234 0.719047 0
M  V30 9620 O 923.006 -2.51266 0.249292 0
M  V30 9621 C 924.319 -0.694032 2.92581 0
M  V30 9622 C 925.867 -0.786213 3.02965 0
M  V30 9623 C 926.342 -0.918457 4.48696 0
M  V30 9624 N 927.833 -0.983272 4.52643 0
M  V30 9625 C 928.568 -1.1049 5.62654 0
M  V30 9626 N 928.064 -1.19193 6.8247 0
M  V30 9627 N 929.857 -1.13823 5.50455 0
M  V30 9628 H 922.008 0.601446 2.03707 0
M  V30 9629 H 924.271 0.207894 0.924924 0
M  V30 9630 H 923.977 0.183133 3.51223 0
M  V30 9631 H 923.851 -1.56525 3.4319 0
M  V30 9632 H 926.238 -1.65383 2.44402 0
M  V30 9633 H 926.319 0.110202 2.55563 0
M  V30 9634 H 925.963 -0.0553881 5.0787 0
M  V30 9635 H 925.893 -1.82994 4.93782 0
M  V30 9636 H 928.384 -0.927269 3.66347 0
M  V30 9637 H 928.697 -1.28387 7.62061 0
M  V30 9638 H 927.042 -1.16147 6.85226 0
M  V30 9639 H 930.233 -1.06673 4.55783 0
M  V30 9640 H 930.406 -1.22957 6.36228 0
M  V30 9641 N 923.813 -1.49104 -0.510467 0
M  V30 9642 C 925.229 -1.35657 -0.840797 0
M  V30 9643 C 925.429 -0.382425 -1.97838 0
M  V30 9644 O 924.485 0.189331 -2.51789 0
M  V30 9645 C 925.798 -2.76155 -1.18992 0
M  V30 9646 C 927.346 -2.84786 -1.29868 0
M  V30 9647 C 927.821 -4.2603 -1.68115 0
M  V30 9648 N 929.312 -4.28796 -1.75181 0
M  V30 9649 C 930.047 -5.35041 -2.062 0
M  V30 9650 N 929.543 -6.51543 -2.35508 0
M  V30 9651 N 931.336 -5.2245 -2.07371 0
M  V30 9652 H 923.487 -2.11042 0.23982 0
M  V30 9653 H 925.75 -0.946946 0.0446824 0
M  V30 9654 H 925.456 -3.49092 -0.427484 0
M  V30 9655 H 925.33 -3.10922 -2.13558 0
M  V30 9656 H 927.717 -2.12092 -2.05186 0
M  V30 9657 H 927.798 -2.53613 -0.333758 0
M  V30 9658 H 927.442 -4.99247 -0.933512 0
M  V30 9659 H 927.372 -4.5466 -2.65691 0
M  V30 9660 H 929.863 -3.44771 -1.5473 0
M  V30 9661 H 930.176 -7.28342 -2.58337 0
M  V30 9662 H 928.521 -6.54785 -2.32985 0
M  V30 9663 H 931.712 -4.30444 -1.83945 0
M  V30 9664 H 931.885 -6.05347 -2.31212 0
M  V30 9665 N 925.291 0.760815 -1.38019 0
M  V30 9666 C 926.537 1.52198 -1.34028 0
M  V30 9667 C 926.87 1.94067 0.0718309 0
M  V30 9668 O 926.145 1.64895 1.0315 0
M  V30 9669 C 926.428 2.77954 -2.2894 0
M  V30 9670 C 926.281 2.42269 -3.7898 0
M  V30 9671 C 927.6 3.79943 -2.22107 0
M  V30 9672 H 924.719 0.552131 -0.488181 0
M  V30 9673 H 927.361 0.871971 -1.6881 0
M  V30 9674 H 925.511 3.33419 -1.9941 0
M  V30 9675 H 927.183 1.92635 -4.19153 0
M  V30 9676 H 925.426 1.74822 -3.97014 0
M  V30 9677 H 926.097 3.32211 -4.4084 0
M  V30 9678 H 928.573 3.34 -2.4816 0
M  V30 9679 H 927.449 4.6564 -2.90639 0
M  V30 9680 H 927.71 4.25004 -1.21753 0
M  V30 9681 N 926.769 1.22769 0.988202 0
M  V30 9682 C 927.732 1.00325 2.06076 0
M  V30 9683 C 928.732 -0.0320618 1.60768 0
M  V30 9684 O 929.922 0.206912 1.72967 0
M  V30 9685 C 927.054 0.516376 3.36966 0
M  V30 9686 H 928.247 1.95499 2.27421 0
M  V30 9687 H 925.8 1.04704 1.16047 0
M  V30 9688 H 926.535 -0.439498 3.21308 0
M  V30 9689 H 926.32 1.26337 3.71189 0
M  V30 9690 H 927.81 0.37974 4.1587 0
M  V30 9691 N 928.247 -1.18576 1.03814 0
M  V30 9692 C 929.524 -1.8433 0.654358 0
M  V30 9693 C 929.904 -1.92504 -0.866338 0
M  V30 9694 O 929.252 -1.44904 -1.76678 0
M  V30 9695 C 929.462 -3.22778 1.32723 0
M  V30 9696 C 930.81 -3.98841 1.45641 0
M  V30 9697 O 931.834 -3.32209 1.28514 0
M  V30 9698 O 930.693 -5.18219 1.73526 0
M  V30 9699 H 927.787 -0.794766 0.228638 0
M  V30 9700 H 930.333 -1.25989 1.13687 0
M  V30 9701 H 929.105 -3.11717 2.36534 0
M  V30 9702 H 928.728 -3.88772 0.833176 0
M  V30 9703 N 929.725 -0.817259 -1.34754 0
M  V30 9704 C 930.635 -0.236946 -2.334 0
M  V30 9705 C 931.651 0.625685 -1.62361 0
M  V30 9706 O 932.827 0.534921 -1.94166 0
M  V30 9707 C 929.892 0.596215 -3.41535 0
M  V30 9708 C 928.953 -0.288154 -4.28332 0
M  V30 9709 C 928.186 0.505337 -5.31302 0
M  V30 9710 O 928.409 1.73912 -5.43241 0
M  V30 9711 O 927.343 -0.109374 -6.01801 0
M  V30 9712 H 931.169 -1.05327 -2.84851 0
M  V30 9713 H 928.754 -0.579275 -1.37713 0
M  V30 9714 H 930.636 1.07041 -4.07578 0
M  V30 9715 H 929.311 1.38997 -2.92338 0
M  V30 9716 H 928.218 -0.809724 -3.65232 0
M  V30 9717 H 929.551 -1.04612 -4.80955 0
M  V30 9718 N 931.203 1.46865 -0.571711 0
M  V30 9719 C 932.614 1.86158 -0.142181 0
M  V30 9720 C 932.965 1.47663 1.2919 0
M  V30 9721 O 932.09 0.886393 1.97413 0
M  V30 9722 C 932.685 3.37867 -0.251256 0
M  V30 9723 C 931.244 3.76198 0.123329 0
M  V30 9724 C 930.391 2.70902 -0.592232 0
M  V30 9725 H 933.342 1.38176 -0.780587 0
M  V30 9726 H 933.363 3.76842 0.526331 0
M  V30 9727 H 932.875 3.65853 -1.2951 0
M  V30 9728 H 930.976 3.53829 1.16773 0
M  V30 9729 H 931.089 4.78471 -0.24533 0
M  V30 9730 H 929.453 2.54678 -0.0336927 0
M  V30 9731 H 930.236 3.01729 -1.63751 0
M  V30 9732 N 932.681 0.308908 1.54543 0
M  V30 9733 C 933.591 -0.572939 2.27496 0
M  V30 9734 C 934.607 -1.14171 1.31305 0
M  V30 9735 O 935.783 -1.16481 1.64299 0
M  V30 9736 C 932.848 -1.72483 3.0075 0
M  V30 9737 C 931.909 -1.18934 4.12496 0
M  V30 9738 C 931.142 -2.28634 4.82247 0
M  V30 9739 O 931.365 -3.48691 4.5141 0
M  V30 9740 O 930.299 -1.94879 5.69478 0
M  V30 9741 H 934.125 0.0190877 3.03694 0
M  V30 9742 H 931.71 0.0750943 1.49211 0
M  V30 9743 H 933.592 -2.39578 3.46671 0
M  V30 9744 H 932.267 -2.30332 2.2744 0
M  V30 9745 H 931.174 -0.483904 3.70957 0
M  V30 9746 H 932.507 -0.656185 4.87806 0
M  V30 9747 N 934.159 -1.57557 0.0367827 0
M  V30 9748 C 935.575 -1.56366 -0.31967 0
M  V30 9749 C 935.775 -1.04313 -1.72398 0
M  V30 9750 O 934.831 -0.693278 -2.42796 0
M  V30 9751 C 936.144 -3.00267 -0.161274 0
M  V30 9752 C 937.692 -3.12128 -0.233464 0
M  V30 9753 C 938.167 -4.57882 -0.103767 0
M  V30 9754 N 939.658 -4.62922 -0.160506 0
M  V30 9755 C 940.393 -5.73338 -0.0840493 0
M  V30 9756 N 939.889 -6.92786 0.043933 0
M  V30 9757 N 941.682 -5.61929 -0.138592 0
M  V30 9758 H 933.833 -1.8972 0.954996 0
M  V30 9759 H 936.096 -0.87304 0.369467 0
M  V30 9760 H 935.802 -3.42331 0.80639 0
M  V30 9761 H 935.676 -3.65599 -0.928304 0
M  V30 9762 H 938.063 -2.69972 -1.19159 0
M  V30 9763 H 938.144 -2.49503 0.564075 0
M  V30 9764 H 937.788 -5.0072 0.850973 0
M  V30 9765 H 937.718 -5.18496 -0.920268 0
M  V30 9766 H 940.209 -3.7701 -0.259257 0
M  V30 9767 H 940.522 -7.72741 0.095372 0
M  V30 9768 H 938.867 -6.94955 0.0788211 0
M  V30 9769 H 942.058 -4.67499 -0.237031 0
M  V30 9770 H 942.231 -6.47956 -0.075546 0
M  V30 9771 N 935.637 0.236453 -1.55816 0
M  V30 9772 C 936.886 0.960981 -1.77336 0
M  V30 9773 C 937.199 1.86085 -0.602641 0
M  V30 9774 O 938.405 2.62291 -0.701106 0
M  V30 9775 C 936.861 1.75884 -3.13995 0
M  V30 9776 C 936.469 0.905849 -4.38746 0
M  V30 9777 C 938.213 2.47548 -3.44848 0
M  V30 9778 C 936.12 1.7002 -5.66434 0
M  V30 9779 H 935.05 0.362547 -0.661117 0
M  V30 9780 H 937.701 0.215303 -1.82233 0
M  V30 9781 H 936.083 2.54687 -3.03234 0
M  V30 9782 H 937.257 0.159415 -4.60524 0
M  V30 9783 H 935.572 0.30205 -4.15303 0
M  V30 9784 H 938.169 3.07452 -4.37467 0
M  V30 9785 H 938.512 3.19689 -2.66655 0
M  V30 9786 H 939.045 1.75747 -3.56872 0
M  V30 9787 H 935.784 1.02234 -6.47479 0
M  V30 9788 H 935.304 2.42164 -5.48741 0
M  V30 9789 H 936.983 2.26469 -6.0607 0
M  V30 9790 N 937.115 1.49373 0.502552 0
M  V30 9791 C 938.363 1.58467 1.25429 0
M  V30 9792 C 938.684 0.272593 1.93085 0
M  V30 9793 O 937.954 -0.707947 1.82661 0
M  V30 9794 H 936.534 0.583866 0.46595 0
M  V30 9795 H 939.196 1.8599 0.582568 0
M  V30 9796 H 938.292 2.37993 2.01906 0
M  V30 9797 N 938.594 -0.753485 1.38421 0
M  V30 9798 C 939.842 -1.50962 1.34368 0
M  V30 9799 C 940.163 -1.94889 -0.0656895 0
M  V30 9800 O 939.433 -1.67652 -1.01339 0
M  V30 9801 H 938.013 -0.559967 0.494415 0
M  V30 9802 H 940.675 -0.895665 1.73101 0
M  V30 9803 H 939.771 -2.40048 1.99458 0
M  V30 9804 N 940.072 -1.23292 -0.981677 0
M  V30 9805 C 941.483 -1.05936 -1.53735 0
M  V30 9806 C 941.834 0.373695 -1.92608 0
M  V30 9807 O 940.959 1.26024 -1.75917 0
M  V30 9808 C 941.554 -1.91682 -2.79363 0
M  V30 9809 C 940.113 -1.78591 -3.31334 0
M  V30 9810 C 939.26 -1.87463 -2.04335 0
M  V30 9811 H 942.211 -1.36973 -0.801505 0
M  V30 9812 H 942.232 -1.44085 -3.52164 0
M  V30 9813 H 941.744 -2.95975 -2.51039 0
M  V30 9814 H 939.845 -0.770755 -3.64541 0
M  V30 9815 H 939.958 -2.61902 -4.01179 0
M  V30 9816 H 938.322 -1.3103 -2.18411 0
M  V30 9817 H 939.105 -2.9331 -1.78394 0
M  V30 9818 N 941.55 1.18024 -1.04442 0
M  V30 9819 C 942.46 2.25436 -0.649276 0
M  V30 9820 C 943.476 1.70915 0.326189 0
M  V30 9821 O 944.652 2.00592 0.180174 0
M  V30 9822 C 941.717 3.46693 -0.0222558 0
M  V30 9823 C 940.778 4.16332 -1.0472 0
M  V30 9824 C 940.011 5.31799 -0.450011 0
M  V30 9825 O 940.234 5.65544 0.742717 0
M  V30 9826 O 939.168 5.90209 -1.18056 0
M  V30 9827 H 942.994 2.61508 -1.54426 0
M  V30 9828 H 940.579 1.25178 -0.81552 0
M  V30 9829 H 942.461 4.20132 0.326597 0
M  V30 9830 H 941.136 3.12436 0.84649 0
M  V30 9831 H 940.043 3.44944 -1.44792 0
M  V30 9832 H 941.376 4.54598 -1.88684 0
M  V30 9833 N 943.028 0.824394 1.34319 0
M  V30 9834 C 944.274 0.413779 1.98534 0
M  V30 9835 C 944.607 -1.02089 1.65201 0
M  V30 9836 O 943.882 -1.71129 0.924402 0
M  V30 9837 C 944.165 0.61801 3.54757 0
M  V30 9838 C 944.018 2.0989 3.97827 0
M  V30 9839 C 945.337 0.0549041 4.40066 0
M  V30 9840 H 942.456 0.151815 0.721194 0
M  V30 9841 H 945.098 1.03723 1.5919 0
M  V30 9842 H 943.248 0.0873107 3.88402 0
M  V30 9843 H 944.92 2.69335 3.74508 0
M  V30 9844 H 943.163 2.58881 3.48085 0
M  V30 9845 H 943.834 2.1926 5.06586 0
M  V30 9846 H 946.31 0.508348 4.12983 0
M  V30 9847 H 945.186 0.227595 5.48428 0
M  V30 9848 H 945.447 -1.04025 4.29687 0
M  V30 9849 N 944.506 -1.46559 0.579492 0
M  V30 9850 C 945.734 -2.06784 0.0693648 0
M  V30 9851 C 946.149 -1.42875 -1.23419 0
M  V30 9852 O 945.506 -0.532919 -1.74546 0
M  V30 9853 C 945.557 -3.61343 -0.106511 0
M  V30 9854 O 945.278 -4.22861 1.14545 0
M  V30 9855 C 946.779 -4.38489 -0.651359 0
M  V30 9856 H 943.999 -0.66866 0.0559848 0
M  V30 9857 H 946.543 -1.88235 0.799245 0
M  V30 9858 H 944.698 -3.7933 -0.786601 0
M  V30 9859 H 945.112 -5.15691 0.95723 0
M  V30 9860 H 946.586 -5.47237 -0.723615 0
M  V30 9861 H 947.063 -4.06309 -1.66763 0
M  V30 9862 H 947.669 -4.253 -0.0062433 0
M  V30 9863 N 945.984 -0.3171 -1.54377 0
M  V30 9864 C 947.209 0.292311 -2.0533 0
M  V30 9865 C 947.634 1.45503 -1.19207 0
M  V30 9866 O 946.992 1.80197 -0.199721 0
M  V30 9867 C 947.04 0.710787 -3.53525 0
M  V30 9868 O 946.144 1.81387 -3.70368 0
M  V30 9869 H 945.485 0.0539976 -0.661801 0
M  V30 9870 H 948.015 -0.463629 -1.99278 0
M  V30 9871 H 948.025 0.995216 -3.95676 0
M  V30 9872 H 946.7 -0.139668 -4.15665 0
M  V30 9873 H 945.277 1.52875 -3.40123 0
M  V30 9874 N 947.462 1.57535 -0.0451378 0
M  V30 9875 C 948.702 1.9432 0.633955 0
M  V30 9876 C 949.066 0.922924 1.68363 0
M  V30 9877 O 950.267 1.17751 2.41636 0
M  V30 9878 C 948.538 3.35933 1.21999 0
M  V30 9879 S 950.097 3.94666 1.91793 0
M  V30 9880 H 946.915 0.679798 0.208318 0
M  V30 9881 H 949.517 1.95175 -0.112633 0
M  V30 9882 H 948.221 4.07993 0.443821 0
M  V30 9883 H 947.752 3.38559 2.00353 0
M  V30 9884 H 949.767 3.79401 3.19796 0
M  V30 9885 N 948.94 -0.228186 1.55939 0
M  V30 9886 C 949.89 -1.28607 1.88267 0
M  V30 9887 C 950.874 -1.42606 0.745139 0
M  V30 9888 O 952.066 -1.45533 1.00743 0
M  V30 9889 C 949.195 -2.63783 2.19712 0
M  V30 9890 C 948.281 -2.53712 3.3984 0
M  V30 9891 N 948.672 -2.13287 4.58631 0
M  V30 9892 C 946.97 -2.84686 3.43322 0
M  V30 9893 C 947.671 -2.14305 5.40785 0
M  V30 9894 N 946.647 -2.54536 4.80325 0
M  V30 9895 H 950.449 -0.964307 2.7763 0
M  V30 9896 H 947.963 -0.436769 1.56416 0
M  V30 9897 H 949.96 -3.40152 2.41044 0
M  V30 9898 H 948.62 -2.9681 1.31657 0
M  V30 9899 H 949.631 -1.84525 4.83912 0
M  V30 9900 H 946.308 -3.22129 2.65592 0
M  V30 9901 H 947.698 -1.85231 6.45863 0
M  V30 9902 N 950.418 -1.49637 -0.494624 0
M  V30 9903 C 951.348 -1.69692 -1.60396 0
M  V30 9904 C 952.329 -0.545648 -1.61111 0
M  V30 9905 O 953.514 -0.782202 -1.77751 0
M  V30 9906 C 950.644 -1.76934 -2.9885 0
M  V30 9907 C 949.598 -2.91915 -3.13001 0
M  V30 9908 C 948.924 -2.84276 -4.5287 0
M  V30 9909 C 950.224 -4.32764 -2.92426 0
M  V30 9910 H 951.918 -2.6257 -1.43866 0
M  V30 9911 H 949.464 -1.26355 -0.690679 0
M  V30 9912 H 951.417 -1.8955 -3.76362 0
M  V30 9913 H 950.141 -0.806609 -3.16483 0
M  V30 9914 H 948.8 -2.78911 -2.37916 0
M  V30 9915 H 948.448 -1.85897 -4.67388 0
M  V30 9916 H 948.148 -3.61452 -4.63278 0
M  V30 9917 H 949.672 -2.98909 -5.32434 0
M  V30 9918 H 951.086 -4.46415 -3.59703 0
M  V30 9919 H 949.483 -5.1121 -3.143 0
M  V30 9920 H 950.553 -4.46765 -1.88491 0
M  V30 9921 N 951.896 0.746133 -1.38819 0
M  V30 9922 C 953.307 1.32384 -1.31648 0
M  V30 9923 C 953.658 1.96185 0.0243086 0
M  V30 9924 O 952.783 1.95567 0.92641 0
M  V30 9925 C 953.378 2.40712 -2.38418 0
M  V30 9926 C 951.937 2.94185 -2.34803 0
M  V30 9927 C 951.084 1.67639 -2.20891 0
M  V30 9928 H 954.035 0.544457 -1.49068 0
M  V30 9929 H 954.056 3.20833 -2.04564 0
M  V30 9930 H 953.568 1.94247 -3.3599 0
M  V30 9931 H 951.669 3.44959 -1.40834 0
M  V30 9932 H 951.782 3.48057 -3.29231 0
M  V30 9933 H 950.146 1.9155 -1.67871 0
M  V30 9934 H 950.929 1.23242 -3.20416 0
M  V30 9935 N 953.375 1.23811 0.975125 0
M  V30 9936 C 954.621 1.08502 1.72043 0
M  V30 9937 C 954.976 -0.373437 1.88741 0
M  V30 9938 O 954.269 -1.27248 1.43243 0
M  V30 9939 C 954.463 1.74994 3.11628 0
M  V30 9940 C 954.292 3.27155 3.08544 0
M  V30 9941 C 953.062 3.96338 3.1344 0
M  V30 9942 C 955.26 4.23851 2.91299 0
M  V30 9943 N 953.242 5.35439 3.00297 0
M  V30 9944 C 954.613 5.499 2.86375 0
M  V30 9945 C 956.668 4.14519 2.75824 0
M  V30 9946 C 955.371 6.67687 2.67558 0
M  V30 9947 C 957.397 5.31975 2.58372 0
M  V30 9948 C 956.759 6.56953 2.5415 0
M  V30 9949 H 952.858 0.451607 0.638416 0
M  V30 9950 H 955.442 1.56617 1.15669 0
M  V30 9951 H 953.613 1.29404 3.66209 0
M  V30 9952 H 955.345 1.52614 3.74822 0
M  V30 9953 H 952.1 3.47453 3.21828 0
M  V30 9954 H 952.524 6.08381 2.96987 0
M  V30 9955 H 957.166 3.18662 2.77874 0
M  V30 9956 H 954.884 7.63673 2.64251 0
M  V30 9957 H 958.47 5.266 2.47354 0
M  V30 9958 H 957.35 7.46309 2.40817 0
M  V30 9959 N 954.853 -1.17469 1.05066 0
M  V30 9960 C 956.13 -1.83625 0.673872 0
M  V30 9961 C 956.51 -1.93412 -0.845871 0
M  V30 9962 O 955.858 -1.4677 -1.75131 0
M  V30 9963 C 956.068 -3.21352 1.36139 0
M  V30 9964 C 957.416 -3.97274 1.49863 0
M  V30 9965 O 958.44 -3.30827 1.3203 0
M  V30 9966 O 957.299 -5.16349 1.79013 0
M  V30 9967 H 954.393 -0.792297 0.237055 0
M  V30 9968 H 956.939 -1.24776 1.15017 0
M  V30 9969 H 955.711 -3.0919 2.39827 0
M  V30 9970 H 955.334 -3.87867 0.874364 0
M  V30 9971 N 956.331 -0.831506 -1.3388 0
M  V30 9972 C 957.263 -0.216908 -2.28171 0
M  V30 9973 C 958.276 0.598141 -1.51414 0
M  V30 9974 O 959.465 0.426416 -1.73332 0
M  V30 9975 C 956.565 0.713831 -3.31297 0
M  V30 9976 C 955.738 -0.0602673 -4.37358 0
M  V30 9977 C 954.797 0.792696 -5.20195 0
M  V30 9978 O 953.823 0.234564 -5.68716 0
M  V30 9979 N 955.025 2.11119 -5.40748 0
M  V30 9980 H 957.79 -1.02704 -2.81553 0
M  V30 9981 H 955.351 -0.689272 -1.46495 0
M  V30 9982 H 957.343 1.28925 -3.83615 0
M  V30 9983 H 955.913 1.42469 -2.78247 0
M  V30 9984 H 955.133 -0.817041 -3.8564 0
M  V30 9985 H 956.421 -0.592822 -5.05335 0
M  V30 9986 H 955.819 2.58828 -5.03016 0
M  V30 9987 H 954.376 2.63527 -5.96151 0
M  V30 9988 N 957.809 1.4625 -0.587256 0
M  V30 9989 C 959.037 2.06744 -0.08033 0
M  V30 9990 C 959.452 1.43527 1.2266 0
M  V30 9991 O 958.809 0.542168 1.74261 0
M  V30 9992 C 958.86 3.61394 0.0873469 0
M  V30 9993 O 958.581 4.22247 -1.16785 0
M  V30 9994 C 960.082 4.38828 0.628095 0
M  V30 9995 H 957.302 0.668354 -0.0595301 0
M  V30 9996 H 959.846 1.87808 -0.809217 0
M  V30 9997 H 958.001 3.79742 0.766473 0
M  V30 9998 H 958.415 5.15176 -0.984565 0
M  V30 9999 H 959.889 5.47613 0.694583 0
M  V30 10000 H 960.366 4.07188 1.64606 0
M  V30 10001 H 960.972 4.25297 -0.0163115 0
M  V30 10002 N 959.287 0.325282 1.54207 0
M  V30 10003 C 960.197 -0.548778 2.28091 0
M  V30 10004 C 961.213 -1.12772 1.32508 0
M  V30 10005 O 962.389 -1.14732 1.65525 0
M  V30 10006 C 959.454 -1.69284 3.02562 0
M  V30 10007 C 958.515 -1.14553 4.13734 0
M  V30 10008 C 957.748 -2.23506 4.84645 0
M  V30 10009 O 957.971 -3.43884 4.55082 0
M  V30 10010 O 956.905 -1.88828 5.71513 0
M  V30 10011 H 960.731 0.0512974 3.03657 0
M  V30 10012 H 958.316 0.0909159 1.49123 0
M  V30 10013 H 960.198 -2.35887 3.49192 0
M  V30 10014 H 958.873 -2.27906 2.2987 0
M  V30 10015 H 957.78 -0.444532 3.71449 0
M  V30 10016 H 959.113 -0.60441 4.88475 0
M  V30 10017 N 960.765 -1.57509 0.0534917 0
M  V30 10018 C 961.993 -1.97098 -0.629298 0
M  V30 10019 C 962.408 -0.931128 -1.64242 0
M  V30 10020 O 961.765 0.0843866 -1.82305 0
M  V30 10021 C 961.816 -3.36767 -1.31415 0
M  V30 10022 O 961.537 -4.36766 -0.341599 0
M  V30 10023 C 963.038 -3.91127 -2.08649 0
M  V30 10024 H 960.258 -0.648611 -0.171886 0
M  V30 10025 H 962.802 -2.04145 0.120479 0
M  V30 10026 H 960.957 -3.30863 -2.01515 0
M  V30 10027 H 961.371 -5.1788 -0.830715 0
M  V30 10028 H 962.845 -4.91129 -2.51985 0
M  V30 10029 H 963.322 -3.26679 -2.9356 0
M  V30 10030 H 963.928 -4.00376 -1.43456 0
M  V30 10031 N 962.243 0.219913 -1.56058 0
M  V30 10032 C 963.206 1.25606 -1.91718 0
M  V30 10033 C 964.206 1.39721 -0.795912 0
M  V30 10034 O 965.396 1.37958 -1.06364 0
M  V30 10035 C 962.528 2.62961 -2.16943 0
M  V30 10036 H 963.721 0.951909 -2.84392 0
M  V30 10037 H 961.274 0.460398 -1.49365 0
M  V30 10038 H 962.009 2.98472 -1.26826 0
M  V30 10039 H 961.794 2.54093 -2.98629 0
M  V30 10040 H 963.284 3.37727 -2.45622 0
M  V30 10041 N 963.721 1.49897 0.486681 0
M  V30 10042 C 965.132 1.53142 1.06792 0
M  V30 10043 C 965.483 0.325856 1.93475 0
M  V30 10044 O 964.608 -0.562893 2.08951 0
M  V30 10045 C 965.203 2.77514 1.94348 0
M  V30 10046 C 963.762 2.83491 2.47609 0
M  V30 10047 C 962.909 2.47239 1.2557 0
M  V30 10048 H 965.86 1.56387 0.269962 0
M  V30 10049 H 965.881 2.58487 2.79221 0
M  V30 10050 H 965.393 3.65239 1.31232 0
M  V30 10051 H 963.494 2.0008 3.14323 0
M  V30 10052 H 963.607 3.86011 2.83782 0
M  V30 10053 H 961.971 1.99332 1.58552 0
M  V30 10054 H 962.754 3.37255 0.641404 0
M  V30 10055 N 965.199 -0.738761 1.39212 0
M  V30 10056 C 966.615 -1.04381 1.20734 0
M  V30 10057 C 966.815 -2.01391 0.0663082 0
M  V30 10058 O 965.871 -2.45672 -0.583229 0
M  V30 10059 C 967.184 -1.6097 2.53987 0
M  V30 10060 C 968.732 -1.73069 2.60799 0
M  V30 10061 C 969.207 -2.33067 3.94264 0
M  V30 10062 N 970.698 -2.40481 3.95883 0
M  V30 10063 C 971.433 -2.87834 4.95923 0
M  V30 10064 N 970.929 -3.35111 6.0636 0
M  V30 10065 N 972.722 -2.87009 4.83304 0
M  V30 10066 H 964.873 -0.0952996 2.12186 0
M  V30 10067 H 967.136 -0.104902 0.942178 0
M  V30 10068 H 966.842 -0.971548 3.38015 0
M  V30 10069 H 966.716 -2.59829 2.73439 0
M  V30 10070 H 969.103 -2.36007 1.77157 0
M  V30 10071 H 969.184 -0.728728 2.452 0
M  V30 10072 H 968.828 -1.70758 4.78335 0
M  V30 10073 H 968.758 -3.33933 4.07181 0
M  V30 10074 H 971.249 -2.07061 3.16123 0
M  V30 10075 H 971.562 -3.69742 6.78609 0
M  V30 10076 H 969.907 -3.33129 6.09959 0
M  V30 10077 H 973.098 -2.49395 3.96131 0
M  V30 10078 H 973.271 -3.23598 5.61416 0
M  V30 10079 N 966.677 -1.24326 -0.968545 0
M  V30 10080 C 967.607 -1.05951 -2.08079 0
M  V30 10081 C 968.588 0.0272666 -1.70078 0
M  V30 10082 O 969.773 -0.139644 -1.93697 0
M  V30 10083 C 966.903 -0.662623 -3.4092 0
M  V30 10084 C 965.857 -1.69807 -3.92873 0
M  V30 10085 C 965.183 -1.15628 -5.22048 0
M  V30 10086 C 966.483 -3.09383 -4.20808 0
M  V30 10087 H 968.177 -1.98984 -2.23709 0
M  V30 10088 H 965.723 -0.958112 -1.075 0
M  V30 10089 H 967.676 -0.521071 -4.18166 0
M  V30 10090 H 966.4 0.303399 -3.25188 0
M  V30 10091 H 965.059 -1.82783 -3.17783 0
M  V30 10092 H 964.707 -0.180888 -5.02675 0
M  V30 10093 H 964.407 -1.84822 -5.57776 0
M  V30 10094 H 965.931 -1.02683 -6.01904 0
M  V30 10095 H 967.345 -2.99642 -4.88761 0
M  V30 10096 H 965.742 -3.75923 -4.67763 0
M  V30 10097 H 966.812 -3.57486 -3.27616 0
M  V30 10098 N 968.156 1.1691 -1.05688 0
M  V30 10099 C 969.086 2.23275 -0.683402 0
M  V30 10100 C 970.067 1.6704 0.321206 0
M  V30 10101 O 971.252 1.93191 0.197691 0
M  V30 10102 C 968.382 3.47244 -0.0626006 0
M  V30 10103 C 967.336 4.16333 -0.992513 0
M  V30 10104 C 966.662 5.34182 -0.23533 0
M  V30 10105 C 967.962 4.68002 -2.31886 0
M  V30 10106 H 969.656 2.54771 -1.57264 0
M  V30 10107 H 967.202 1.2246 -0.757606 0
M  V30 10108 H 969.155 4.20874 0.210503 0
M  V30 10109 H 967.879 3.1503 0.861616 0
M  V30 10110 H 966.538 3.44622 -1.25026 0
M  V30 10111 H 966.186 4.9822 0.69181 0
M  V30 10112 H 965.886 5.81346 -0.855002 0
M  V30 10113 H 967.41 6.10592 0.0303717 0
M  V30 10114 H 968.824 5.33244 -2.10531 0
M  V30 10115 H 967.221 5.25764 -2.89296 0
M  V30 10116 H 968.291 3.84541 -2.95391 0
M  V30 10117 N 969.634 0.838594 1.33437 0
M  V30 10118 C 971.05 0.526347 1.50671 0
M  V30 10119 C 971.25 -0.946387 1.77893 0
M  V30 10120 O 970.306 -1.7302 1.83903 0
M  V30 10121 C 971.619 1.39945 2.6615 0
M  V30 10122 C 973.167 1.3982 2.80035 0
M  V30 10123 C 973.642 2.25614 3.98576 0
M  V30 10124 N 975.133 2.23322 4.0581 0
M  V30 10125 C 975.868 2.86443 4.96727 0
M  V30 10126 N 975.364 3.58616 5.92762 0
M  V30 10127 N 977.157 2.75915 4.89722 0
M  V30 10128 H 969.308 1.79195 1.1403 0
M  V30 10129 H 971.571 0.764491 0.560586 0
M  V30 10130 H 971.277 2.44599 2.52714 0
M  V30 10131 H 971.151 1.07529 3.61548 0
M  V30 10132 H 973.538 0.35937 2.92904 0
M  V30 10133 H 973.619 1.76241 1.85399 0
M  V30 10134 H 973.263 3.29555 3.86466 0
M  V30 10135 H 973.193 1.86533 4.92456 0
M  V30 10136 H 975.684 1.70836 3.37081 0
M  V30 10137 H 975.997 4.03987 6.58798 0
M  V30 10138 H 974.342 3.62724 5.92838 0
M  V30 10139 H 977.533 2.19094 4.13661 0
M  V30 10140 H 977.706 3.25393 5.60378 0
M  V30 10141 N 971.112 -1.45937 0.595003 0
M  V30 10142 C 972.359 -2.0232 0.0853053 0
M  V30 10143 C 972.687 -1.465 -1.27937 0
M  V30 10144 O 971.942 -0.624767 -1.85459 0
M  V30 10145 C 972.241 -3.57396 -0.0173747 0
M  V30 10146 C 971.907 -4.32311 1.28131 0
M  V30 10147 C 970.569 -4.52496 1.63708 0
M  V30 10148 C 972.921 -4.75233 2.14017 0
M  V30 10149 C 970.249 -5.12857 2.84947 0
M  V30 10150 C 972.601 -5.36933 3.34493 0
M  V30 10151 C 971.265 -5.55343 3.70338 0
M  V30 10152 H 970.535 -0.740342 0.0312154 0
M  V30 10153 H 973.182 -1.75157 0.774103 0
M  V30 10154 H 971.487 -3.83766 -0.789371 0
M  V30 10155 H 973.184 -3.98713 -0.427699 0
M  V30 10156 H 969.774 -4.16905 0.994374 0
M  V30 10157 H 973.958 -4.59383 1.87833 0
M  V30 10158 H 969.214 -5.253 3.12841 0
M  V30 10159 H 973.388 -5.69147 4.01304 0
M  V30 10160 H 971.015 -6.01883 4.64371 0
M  V30 10161 N 972.59 -0.333456 -1.54032 0
M  V30 10162 C 974.001 0.15256 -1.86076 0
M  V30 10163 C 974.352 1.50819 -1.25492 0
M  V30 10164 O 973.477 2.08903 -0.564665 0
M  V30 10165 C 974.072 0.283599 -3.37611 0
M  V30 10166 C 972.631 0.713841 -3.69569 0
M  V30 10167 C 971.778 -0.158515 -2.76847 0
M  V30 10168 H 974.729 -0.553404 -1.48738 0
M  V30 10169 H 974.75 1.11284 -3.63863 0
M  V30 10170 H 974.262 -0.703193 -3.81676 0
M  V30 10171 H 972.363 1.71002 -3.31042 0
M  V30 10172 H 972.476 0.510731 -4.7637 0
M  V30 10173 H 970.84 0.367531 -2.52034 0
M  V30 10174 H 971.623 -1.14226 -3.2374 0
M  V30 10175 N 974.068 1.57479 -0.061844 0
M  V30 10176 C 975.314 1.9421 0.604485 0
M  V30 10177 C 975.669 0.941011 1.67818 0
M  V30 10178 O 974.962 -0.0382264 1.91562 0
M  V30 10179 C 975.156 3.35394 1.23474 0
M  V30 10180 C 974.985 4.49144 0.223628 0
M  V30 10181 C 973.755 5.04949 -0.188187 0
M  V30 10182 C 975.953 5.11508 -0.535193 0
M  V30 10183 N 973.935 6.02235 -1.19105 0
M  V30 10184 C 975.306 6.04199 -1.39082 0
M  V30 10185 C 977.361 4.94364 -0.592346 0
M  V30 10186 C 976.064 6.81587 -2.2985 0
M  V30 10187 C 978.09 5.72388 -1.48749 0
M  V30 10188 C 977.452 6.6472 -2.33082 0
M  V30 10189 H 973.551 0.757931 0.192522 0
M  V30 10190 H 976.135 1.9422 -0.136667 0
M  V30 10191 H 974.306 3.36141 1.94587 0
M  V30 10192 H 976.038 3.59387 1.86073 0
M  V30 10193 H 972.793 4.73207 0.192933 0
M  V30 10194 H 973.217 6.55575 -1.68969 0
M  V30 10195 H 977.859 4.22776 0.045445 0
M  V30 10196 H 975.577 7.5246 -2.94669 0
M  V30 10197 H 979.163 5.61146 -1.53642 0
M  V30 10198 H 978.043 7.2404 -3.01225 0
M  V30 10199 N 975.546 -0.211634 1.56173 0
M  V30 10200 C 976.771 -0.955324 1.84088 0
M  V30 10201 C 977.196 -1.76754 0.643407 0
M  V30 10202 O 976.554 -1.76653 -0.407842 0
M  V30 10203 C 976.602 -1.84063 3.10085 0
M  V30 10204 O 975.706 -2.9373 2.89476 0
M  V30 10205 H 975.047 -0.26996 0.606645 0
M  V30 10206 H 977.577 -0.221947 2.03393 0
M  V30 10207 H 977.587 -2.24852 3.40449 0
M  V30 10208 H 976.262 -1.24373 3.96868 0
M  V30 10209 H 974.839 -2.56816 2.7037 0
M  V30 10210 N 977.024 -1.50153 -0.478725 0
M  V30 10211 C 978.27 -1.60998 -1.23318 0
M  V30 10212 C 978.603 -0.305868 -1.91776 0
M  V30 10213 O 977.878 0.692158 -1.81767 0
M  V30 10214 C 978.161 -2.78495 -2.28282 0
M  V30 10215 C 978.014 -4.18767 -1.64178 0
M  V30 10216 C 979.333 -2.91569 -3.2966 0
M  V30 10217 H 976.452 -0.585983 -0.446982 0
M  V30 10218 H 979.094 -1.82514 -0.528063 0
M  V30 10219 H 977.244 -2.60281 -2.8842 0
M  V30 10220 H 978.916 -4.48552 -1.07696 0
M  V30 10221 H 977.159 -4.23379 -0.94514 0
M  V30 10222 H 977.83 -4.96894 -2.40417 0
M  V30 10223 H 980.306 -3.08219 -2.79536 0
M  V30 10224 H 979.182 -3.75419 -4.0044 0
M  V30 10225 H 979.443 -2.01859 -3.93326 0
M  V30 10226 N 978.502 0.731368 -1.39602 0
M  V30 10227 C 979.449 1.84541 -1.38612 0
M  V30 10228 C 980.419 1.64279 -0.245287 0
M  V30 10229 O 981.604 1.85635 -0.440954 0
M  V30 10230 C 978.744 3.22092 -1.23897 0
M  V30 10231 C 977.857 3.54034 -2.47555 0
M  V30 10232 C 976.992 4.81007 -2.25402 0
M  V30 10233 C 976.031 5.05804 -3.44716 0
M  V30 10234 N 975.168 6.23981 -3.21857 0
M  V30 10235 H 980.008 1.84722 -2.33841 0
M  V30 10236 H 977.545 0.902569 -1.16156 0
M  V30 10237 H 979.503 4.01499 -1.13376 0
M  V30 10238 H 978.133 3.2118 -0.322958 0
M  V30 10239 H 977.185 2.69301 -2.68665 0
M  V30 10240 H 978.497 3.68275 -3.36415 0
M  V30 10241 H 977.651 5.68401 -2.12143 0
M  V30 10242 H 976.39 4.68946 -1.33943 0
M  V30 10243 H 975.395 4.1687 -3.58468 0
M  V30 10244 H 976.62 5.19747 -4.37081 0
M  V30 10245 H 974.566 6.13202 -2.33065 0
M  V30 10246 H 974.483 6.38826 -4.04274 0
M  V30 10247 H 975.751 7.14205 -3.123 0
M  V30 10248 N 979.98 1.24838 0.961938 0
M  V30 10249 C 980.91 1.07053 2.07514 0
M  V30 10250 C 981.891 -0.0182465 1.7009 0
M  V30 10251 O 983.076 0.149915 1.9362 0
M  V30 10252 C 980.206 0.680693 3.40564 0
M  V30 10253 C 979.16 1.71889 3.91967 0
M  V30 10254 C 978.486 1.18395 5.21428 0
M  V30 10255 C 979.786 3.1161 4.19161 0
M  V30 10256 H 981.48 2.00167 2.22651 0
M  V30 10257 H 979.026 0.963799 1.0699 0
M  V30 10258 H 980.979 0.54324 4.17884 0
M  V30 10259 H 979.703 -0.28615 3.25344 0
M  V30 10260 H 978.362 1.84465 3.16809 0
M  V30 10261 H 978.01 0.207543 5.02572 0
M  V30 10262 H 977.71 1.87778 5.56788 0
M  V30 10263 H 979.234 1.05873 6.01351 0
M  V30 10264 H 980.648 3.0223 4.87165 0
M  V30 10265 H 979.045 3.78398 4.65763 0
M  V30 10266 H 980.115 3.59218 3.25715 0
M  V30 10267 N 981.458 -1.16348 1.06306 0
M  V30 10268 C 982.686 -1.90782 0.800614 0
M  V30 10269 C 983.101 -1.77439 -0.645033 0
M  V30 10270 O 982.458 -1.11912 -1.4416 0
M  V30 10271 C 982.509 -3.41484 1.18621 0
M  V30 10272 O 982.23 -3.54428 2.57512 0
M  V30 10273 C 983.731 -4.32968 0.951525 0
M  V30 10274 H 980.951 -0.604977 0.290247 0
M  V30 10275 H 983.495 -1.47476 1.41672 0
M  V30 10276 H 981.65 -3.82493 0.614633 0
M  V30 10277 H 982.064 -4.4788 2.72954 0
M  V30 10278 H 983.538 -5.37169 1.27095 0
M  V30 10279 H 984.015 -4.39055 -0.112734 0
M  V30 10280 H 984.621 -3.97687 1.50749 0
M  V30 10281 N 982.937 -0.845659 -1.3299 0
M  V30 10282 C 984.162 -0.457435 -2.02293 0
M  V30 10283 C 984.587 0.935634 -1.63179 0
M  V30 10284 O 983.945 1.61297 -0.827835 0
M  V30 10285 C 983.993 -0.593665 -3.5568 0
M  V30 10286 O 983.097 0.37729 -4.10671 0
M  V30 10287 H 982.438 -0.185022 -0.637701 0
M  V30 10288 H 984.968 -1.14237 -1.69738 0
M  V30 10289 H 984.978 -0.477834 -4.05192 0
M  V30 10290 H 983.653 -1.60957 -3.83491 0
M  V30 10291 H 982.23 0.218448 -3.7226 0
M  V30 10292 N 984.415 1.45619 -0.602734 0
M  V30 10293 C 985.64 2.07157 -0.100429 0
M  V30 10294 C 986.065 1.44524 1.20393 0
M  V30 10295 O 985.423 0.536191 1.7319 0
M  V30 10296 C 985.471 3.60587 0.0308604 0
M  V30 10297 O 984.575 3.97944 1.08234 0
M  V30 10298 H 983.916 0.6601 -0.0718643 0
M  V30 10299 H 986.446 1.86948 -0.831366 0
M  V30 10300 H 986.456 4.07348 0.230634 0
M  V30 10301 H 985.131 4.05561 -0.921581 0
M  V30 10302 H 983.708 3.62862 0.859414 0
M  V30 10303 N 985.893 0.34162 1.53853 0
M  V30 10304 C 987.309 -0.0103769 1.59597 0
M  V30 10305 C 987.509 -1.48897 1.35764 0
M  V30 10306 O 986.565 -2.24743 1.15095 0
M  V30 10307 C 987.878 0.424067 2.97695 0
M  V30 10308 C 989.426 0.376247 3.1073 0
M  V30 10309 C 989.901 0.786129 4.51203 0
M  V30 10310 N 991.392 0.74024 4.57247 0
M  V30 10311 C 992.127 1.02937 5.64085 0
M  V30 10312 N 991.623 1.38655 6.78783 0
M  V30 10313 N 993.416 0.953734 5.5395 0
M  V30 10314 H 985.567 1.30477 1.67599 0
M  V30 10315 H 987.83 0.531753 0.78482 0
M  V30 10316 H 987.536 1.45493 3.20195 0
M  V30 10317 H 987.41 -0.201713 3.7666 0
M  V30 10318 H 989.797 -0.645441 2.87955 0
M  V30 10319 H 989.878 1.0372 2.33828 0
M  V30 10320 H 989.522 1.80582 4.74713 0
M  V30 10321 H 989.452 0.102671 5.265 0
M  V30 10322 H 991.943 0.476763 3.7488 0
M  V30 10323 H 992.256 1.59206 7.56223 0
M  V30 10324 H 990.601 1.42498 6.80235 0
M  V30 10325 H 993.792 0.674044 4.63222 0
M  V30 10326 H 993.965 1.18241 6.37121 0
M  V30 10327 N 987.371 -1.57444 0.0701946 0
M  V30 10328 C 988.782 -1.80875 -0.462709 0
M  V30 10329 C 989.133 -0.983975 -1.69742 0
M  V30 10330 O 988.258 -0.206027 -2.15417 0
M  V30 10331 C 988.853 -3.28062 -0.84623 0
M  V30 10332 C 987.412 -3.52345 -1.32401 0
M  V30 10333 C 986.559 -2.7558 -0.308399 0
M  V30 10334 H 989.51 -1.55917 0.295907 0
M  V30 10335 H 989.531 -3.40023 -1.70776 0
M  V30 10336 H 989.043 -3.88064 0.0526033 0
M  V30 10337 H 987.144 -2.97645 -2.24139 0
M  V30 10338 H 987.257 -4.6104 -1.30304 0
M  V30 10339 H 985.621 -2.4229 -0.785337 0
M  V30 10340 H 986.404 -3.38319 0.582679 0
M  V30 10341 N 988.849 0.203349 -1.56283 0
M  V30 10342 C 990.26 0.768764 -1.70138 0
M  V30 10343 C 990.611 1.8421 -0.675358 0
M  V30 10344 O 989.736 2.15732 0.1699 0
M  V30 10345 C 990.331 1.40123 -3.08466 0
M  V30 10346 C 988.89 1.91382 -3.24114 0
M  V30 10347 C 988.037 0.780685 -2.66084 0
M  V30 10348 H 990.988 -0.0215997 -1.58685 0
M  V30 10349 H 991.009 2.27046 -3.05336 0
M  V30 10350 H 990.521 0.619805 -3.83119 0
M  V30 10351 H 988.622 2.7227 -2.54362 0
M  V30 10352 H 988.735 2.08128 -4.31531 0
M  V30 10353 H 987.099 1.19281 -2.25042 0
M  V30 10354 H 987.882 0.0116351 -3.43298 0
M  V30 10355 N 990.327 1.50405 0.470755 0
M  V30 10356 C 991.237 1.7208 1.59454 0
M  V30 10357 C 992.253 0.603932 1.63183 0
M  V30 10358 O 993.429 0.882296 1.81046 0
M  V30 10359 C 990.494 1.81057 2.95667 0
M  V30 10360 C 989.555 3.04792 3.02324 0
M  V30 10361 C 988.788 3.13332 4.3204 0
M  V30 10362 O 989.011 2.28655 5.22564 0
M  V30 10363 O 987.945 4.0606 4.44296 0
M  V30 10364 H 991.771 2.67343 1.44089 0
M  V30 10365 H 989.356 1.34505 0.650286 0
M  V30 10366 H 991.238 1.8914 3.76569 0
M  V30 10367 H 989.913 0.889782 3.11231 0
M  V30 10368 H 988.82 3.0221 2.205 0
M  V30 10369 H 990.153 3.96451 2.91698 0
M  V30 10370 N 991.805 -0.723954 1.39988 0
M  V30 10371 C 992.768 -1.81973 1.3935 0
M  V30 10372 C 993.768 -1.58187 0.288702 0
M  V30 10373 O 994.958 -1.65383 0.547181 0
M  V30 10374 C 992.09 -3.19937 1.177 0
M  V30 10375 H 993.283 -1.83939 2.36868 0
M  V30 10376 H 990.836 -0.928742 1.25714 0
M  V30 10377 H 991.571 -3.23625 0.209093 0
M  V30 10378 H 991.356 -3.386 1.97719 0
M  V30 10379 H 992.846 -3.99981 1.20022 0
M  V30 10380 N 993.283 -1.25346 -0.955304 0
M  V30 10381 C 994.213 -1.08152 -2.06943 0
M  V30 10382 C 995.194 0.00922598 -1.70097 0
M  V30 10383 O 996.379 -0.160181 -1.93538 0
M  V30 10384 C 993.509 -0.698745 -3.40198 0
M  V30 10385 C 992.463 -1.73965 -3.9105 0
M  V30 10386 C 991.789 -1.21158 -5.20792 0
M  V30 10387 C 993.089 -3.13829 -4.17503 0
M  V30 10388 H 994.783 -2.01345 -2.21586 0
M  V30 10389 H 992.329 -0.969459 -1.06478 0
M  V30 10390 H 994.282 -0.565394 -4.1759 0
M  V30 10391 H 993.006 0.268892 -3.25491 0
M  V30 10392 H 991.665 -1.86143 -3.15827 0
M  V30 10393 H 991.313 -0.234193 -5.02455 0
M  V30 10394 H 991.013 -1.90728 -5.55785 0
M  V30 10395 H 992.537 -1.09061 -6.00781 0
M  V30 10396 H 993.951 -3.04809 -4.85556 0
M  V30 10397 H 992.348 -3.80863 -4.63749 0
M  V30 10398 H 993.418 -3.6094 -3.23806 0
M  V30 10399 N 994.761 1.15782 -1.06922 0
M  V30 10400 C 995.694 2.19336 -0.629837 0
M  V30 10401 C 996.672 1.58774 0.350663 0
M  V30 10402 O 997.856 1.86724 0.258124 0
M  V30 10403 C 994.983 3.38615 0.0757526 0
M  V30 10404 C 994.029 4.17688 -0.862503 0
M  V30 10405 S 994.862 4.80634 -2.36117 0
M  V30 10406 C 996.018 6.03286 -1.66725 0
M  V30 10407 H 996.251 2.56267 -1.50714 0
M  V30 10408 H 993.784 1.26674 -0.882776 0
M  V30 10409 H 995.742 4.07724 0.476611 0
M  V30 10410 H 994.403 3.00037 0.929332 0
M  V30 10411 H 993.596 5.03012 -0.315461 0
M  V30 10412 H 993.198 3.54106 -1.20354 0
M  V30 10413 H 995.49 6.70426 -0.976472 0
M  V30 10414 H 996.433 6.62551 -2.49864 0
M  V30 10415 H 996.841 5.52722 -1.14711 0
M  V30 10416 N 996.239 0.8527 1.3254 0
M  V30 10417 C 997.202 0.300959 2.27215 0
M  V30 10418 C 998.202 -0.538235 1.51525 0
M  V30 10419 O 999.392 -0.350027 1.70647 0
M  V30 10420 C 996.524 -0.574428 3.36025 0
M  V30 10421 H 997.717 1.13655 2.77529 0
M  V30 10422 H 995.27 0.626878 1.43178 0
M  V30 10423 H 996.005 -1.43191 2.90976 0
M  V30 10424 H 995.79 0.0262265 3.92091 0
M  V30 10425 H 997.28 -0.9533 4.06573 0
M  V30 10426 N 997.718 -1.45297 0.610449 0
M  V30 10427 C 998.681 -2.28995 -0.0968194 0
M  V30 10428 C 999.681 -1.39923 -0.792353 0
M  V30 10429 O 1000.87 -1.62014 -0.64008 0
M  V30 10430 C 998.003 -3.21013 -1.14731 0
M  V30 10431 H 999.196 -2.93012 0.639082 0
M  V30 10432 H 996.749 -1.51867 0.369624 0
M  V30 10433 H 997.484 -2.61803 -1.91388 0
M  V30 10434 H 997.269 -3.86628 -0.652753 0
M  V30 10435 H 998.759 -3.8394 -1.64256 0
M  V30 10436 N 999.196 -0.349774 -1.5367 0
M  V30 10437 C 1000.13 0.496338 -2.28164 0
M  V30 10438 C 1001.11 1.09737 -1.29968 0
M  V30 10439 O 1002.29 1.11759 -1.58819 0
M  V30 10440 C 999.422 1.64428 -3.0591 0
M  V30 10441 C 998.376 1.17127 -4.11661 0
M  V30 10442 C 997.702 2.40822 -4.77398 0
M  V30 10443 C 999.002 0.267293 -5.21616 0
M  V30 10444 H 1000.7 -0.125117 -2.99138 0
M  V30 10445 H 998.242 -0.0616152 -1.43868 0
M  V30 10446 H 1000.19 2.2427 -3.56765 0
M  V30 10447 H 998.919 2.29272 -2.32598 0
M  V30 10448 H 997.578 0.595634 -3.61729 0
M  V30 10449 H 997.226 3.04088 -4.00674 0
M  V30 10450 H 996.926 2.09852 -5.48849 0
M  V30 10451 H 998.45 3.01378 -5.3104 0
M  V30 10452 H 999.864 0.772734 -5.68068 0
M  V30 10453 H 998.261 0.0491991 -6.0008 0
M  V30 10454 H 999.331 -0.694892 -4.79895 0
M  V30 10455 N 1000.67 1.57404 -0.0785433 0
M  V30 10456 C 1002.09 1.57158 0.2781 0
M  V30 10457 C 1002.29 1.08847 1.69572 0
M  V30 10458 O 1001.35 0.757407 2.40873 0
M  V30 10459 C 1002.66 3.00589 0.0816067 0
M  V30 10460 C 1004.21 3.12637 0.150627 0
M  V30 10461 C 1004.68 4.57997 -0.0176685 0
M  V30 10462 N 1006.17 4.63185 0.0377145 0
M  V30 10463 C 1006.91 5.7336 -0.0679907 0
M  V30 10464 N 1006.4 6.92426 -0.227598 0
M  V30 10465 N 1008.2 5.62099 -0.0104424 0
M  V30 10466 H 1000.35 1.87121 -1.00496 0
M  V30 10467 H 1002.61 0.862937 -0.392484 0
M  V30 10468 H 1002.32 3.40072 -0.896869 0
M  V30 10469 H 1002.19 3.67931 0.831046 0
M  V30 10470 H 1004.58 2.73037 1.11959 0
M  V30 10471 H 1004.66 2.4792 -0.630028 0
M  V30 10472 H 1004.3 4.98288 -0.983431 0
M  V30 10473 H 1004.23 5.20754 0.782475 0
M  V30 10474 H 1006.72 3.77564 0.159208 0
M  V30 10475 H 1007.04 7.72217 -0.300217 0
M  V30 10476 H 1005.38 6.94502 -0.263049 0
M  V30 10477 H 1008.57 4.67964 0.112999 0
M  V30 10478 H 1008.75 6.47928 -0.0962747 0
M  V30 10479 N 1002.15 -0.195058 1.56388 0
M  V30 10480 C 1003.08 -1.26581 1.91076 0
M  V30 10481 C 1004.1 -1.41707 0.801436 0
M  V30 10482 O 1005.29 -1.42132 1.07985 0
M  V30 10483 C 1002.39 -2.63794 2.12758 0
M  V30 10484 C 1001.56 -2.70275 3.43904 0
M  V30 10485 C 1000.62 -3.88685 3.54698 0
M  V30 10486 O 999.644 -3.75786 4.2752 0
M  V30 10487 N 1000.85 -5.04141 2.87789 0
M  V30 10488 H 1003.61 -0.971401 2.83521 0
M  V30 10489 H 1001.17 -0.384976 1.57256 0
M  V30 10490 H 1003.16 -3.41434 2.17267 0
M  V30 10491 H 1001.73 -2.85723 1.26812 0
M  V30 10492 H 1000.95 -1.78909 3.51262 0
M  V30 10493 H 1002.24 -2.71597 4.30247 0
M  V30 10494 H 1001.64 -5.17519 2.28452 0
M  V30 10495 H 1000.2 -5.79727 2.97925 0
M  V30 10496 N 1003.63 -1.50653 -0.462772 0
M  V30 10497 C 1004.59 -1.69561 -1.54213 0
M  V30 10498 C 1005.59 -0.566106 -1.50505 0
M  V30 10499 O 1006.78 -0.833273 -1.52978 0
M  V30 10500 C 1003.91 -1.72856 -2.93826 0
M  V30 10501 H 1005.11 -2.65867 -1.38761 0
M  V30 10502 H 1002.66 -1.40259 -0.689728 0
M  V30 10503 H 1003.4 -0.78273 -3.14712 0
M  V30 10504 H 1003.18 -2.54919 -2.97924 0
M  V30 10505 H 1004.67 -1.89411 -3.72174 0
M  V30 10506 N 1005.11 0.71652 -1.4037 0
M  V30 10507 C 1006.34 1.50563 -1.4191 0
M  V30 10508 C 1006.75 1.88791 -0.0185456 0
M  V30 10509 O 1006.11 1.55378 0.957289 0
M  V30 10510 C 1006.16 2.78155 -2.30894 0
M  V30 10511 O 1005.88 2.41543 -3.65497 0
M  V30 10512 C 1007.38 3.72057 -2.41016 0
M  V30 10513 H 1004.6 0.464679 -0.48406 0
M  V30 10514 H 1007.15 0.883927 -1.8441 0
M  V30 10515 H 1005.3 3.36611 -1.91759 0
M  V30 10516 H 1005.71 3.23636 -4.12747 0
M  V30 10517 H 1007.19 4.58426 -3.07489 0
M  V30 10518 H 1007.67 4.15098 -1.43492 0
M  V30 10519 H 1008.27 3.19512 -2.80699 0
M  V30 10520 N 1006.59 1.25851 0.948643 0
M  V30 10521 C 1007.55 1.0683 2.0278 0
M  V30 10522 C 1008.55 0.0191016 1.60789 0
M  V30 10523 O 1009.74 0.261836 1.72221 0
M  V30 10524 C 1006.87 0.623318 3.35153 0
M  V30 10525 H 1008.06 2.02635 2.21086 0
M  V30 10526 H 1005.62 1.08343 1.12657 0
M  V30 10527 H 1006.35 -0.337053 3.22544 0
M  V30 10528 H 1006.14 1.38082 3.66982 0
M  V30 10529 H 1007.63 0.511854 4.14451 0
M  V30 10530 N 1008.06 -1.15214 1.07534 0
M  V30 10531 C 1009.03 -2.18209 0.701237 0
M  V30 10532 C 1010.03 -1.58693 -0.25946 0
M  V30 10533 O 1011.22 -1.74154 -0.0401744 0
M  V30 10534 C 1008.35 -3.40883 0.0338703 0
M  V30 10535 H 1009.54 -2.5282 1.61314 0
M  V30 10536 H 1007.1 -1.29707 0.872105 0
M  V30 10537 H 1007.83 -3.11843 -0.890187 0
M  V30 10538 H 1007.62 -3.85342 0.72486 0
M  V30 10539 H 1009.11 -4.17056 -0.213152 0
M  V30 10540 N 1009.54 -0.859717 -1.32086 0
M  V30 10541 C 1010.51 -0.313005 -2.27053 0
M  V30 10542 C 1011.51 0.530191 -1.51808 0
M  V30 10543 O 1012.7 0.340972 -1.7083 0
M  V30 10544 C 1009.83 0.5566 -3.36325 0
M  V30 10545 H 1011.02 -1.15125 -2.76923 0
M  V30 10546 H 1008.57 -0.634463 -1.42843 0
M  V30 10547 H 1009.31 1.41645 -2.91731 0
M  V30 10548 H 1009.09 -0.0470197 -3.92072 0
M  V30 10549 H 1010.58 0.931725 -4.07073 0
M  V30 10550 N 1011.02 1.44971 -0.618145 0
M  V30 10551 C 1012.44 1.57077 -0.282666 0
M  V30 10552 C 1012.64 1.60782 1.21456 0
M  V30 10553 O 1011.69 1.54382 1.99806 0
M  V30 10554 C 1013.01 2.84858 -0.963148 0
M  V30 10555 C 1014.55 2.9855 -0.940062 0
M  V30 10556 C 1015.03 4.29115 -1.60076 0
M  V30 10557 N 1016.52 4.35899 -1.56674 0
M  V30 10558 C 1017.25 5.35617 -2.04701 0
M  V30 10559 N 1016.75 6.41813 -2.6086 0
M  V30 10560 N 1018.54 5.27042 -1.95406 0
M  V30 10561 H 1010.69 1.4081 -1.59017 0
M  V30 10562 H 1012.96 0.673914 -0.666741 0
M  V30 10563 H 1012.66 2.88059 -2.0178 0
M  V30 10564 H 1012.54 3.73966 -0.492901 0
M  V30 10565 H 1014.92 2.94909 0.10607 0
M  V30 10566 H 1015.01 2.10825 -1.44868 0
M  V30 10567 H 1014.65 4.33514 -2.64627 0
M  V30 10568 H 1014.58 5.15675 -1.06708 0
M  V30 10569 H 1017.07 3.59766 -1.15659 0
M  V30 10570 H 1017.38 7.14166 -2.95273 0
M  V30 10571 H 1015.73 6.42534 -2.64905 0
M  V30 10572 H 1018.92 4.42987 -1.51263 0
M  V30 10573 H 1019.09 6.04604 -2.33147 0
M  V30 10574 N 1012.5 0.357919 1.53482 0
M  V30 10575 C 1013.74 -0.23433 2.03052 0
M  V30 10576 C 1014.1 -1.46614 1.23969 0
M  V30 10577 O 1015.3 -2.13351 1.63508 0
M  V30 10578 C 1013.57 -0.526653 3.53498 0
M  V30 10579 S 1015.13 -1.09366 4.24952 0
M  V30 10580 H 1011.95 -0.0687848 0.707665 0
M  V30 10581 H 1014.55 0.499011 1.89024 0
M  V30 10582 H 1013.26 0.377463 4.0866 0
M  V30 10583 H 1012.79 -1.28927 3.71674 0
M  V30 10584 H 1014.8 -2.37845 4.35481 0
M  V30 10585 N 1013.98 -1.5736 0.0868897 0
M  V30 10586 C 1015.39 -1.57304 -0.269762 0
M  V30 10587 C 1015.59 -1.09745 -1.68992 0
M  V30 10588 O 1014.65 -0.77017 -2.40468 0
M  V30 10589 C 1015.96 -3.00628 -0.0656646 0
M  V30 10590 C 1017.51 -3.12713 -0.134045 0
M  V30 10591 C 1017.98 -4.57981 0.0419569 0
M  V30 10592 N 1019.48 -4.63198 -0.0131501 0
M  V30 10593 C 1020.21 -5.73316 0.0983964 0
M  V30 10594 N 1019.71 -6.92296 0.264315 0
M  V30 10595 N 1021.5 -5.62086 0.0402517 0
M  V30 10596 H 1013.65 -1.86585 1.01487 0
M  V30 10597 H 1015.91 -0.860843 0.397055 0
M  V30 10598 H 1015.62 -3.39592 0.914891 0
M  V30 10599 H 1015.49 -3.68367 -0.811522 0
M  V30 10600 H 1017.88 -2.73627 -1.1051 0
M  V30 10601 H 1017.96 -2.47582 0.643167 0
M  V30 10602 H 1017.61 -4.9776 1.00984 0
M  V30 10603 H 1017.54 -5.21162 -0.754847 0
M  V30 10604 H 1020.03 -3.77644 -0.139183 0
M  V30 10605 H 1020.34 -7.72047 0.341165 0
M  V30 10606 H 1018.68 -6.94353 0.299876 0
M  V30 10607 H 1021.88 -4.68017 -0.0881801 0
M  V30 10608 H 1022.05 -6.47868 0.130635 0
M  V30 10609 N 1015.45 0.186762 -1.56489 0
M  V30 10610 C 1016.69 0.912523 -1.829 0
M  V30 10611 C 1017.06 1.80094 -0.665598 0
M  V30 10612 O 1018.26 2.56312 -0.809787 0
M  V30 10613 C 1016.53 1.70022 -3.14368 0
M  V30 10614 S 1018.09 2.47686 -3.62211 0
M  V30 10615 H 1014.91 0.305916 -0.641823 0
M  V30 10616 H 1017.51 0.175289 -1.94713 0
M  V30 10617 H 1016.21 1.03832 -3.97048 0
M  V30 10618 H 1015.74 2.47912 -3.05456 0
M  V30 10619 H 1017.76 3.72058 -3.28309 0
M  V30 10620 N 1016.93 1.50896 0.454776 0
M  V30 10621 C 1018.35 1.38684 0.78987 0
M  V30 10622 C 1018.55 0.455587 1.96282 0
M  V30 10623 O 1017.6 -0.0957503 2.52318 0
M  V30 10624 C 1018.92 2.80381 1.08661 0
M  V30 10625 C 1020.47 2.8941 1.19209 0
M  V30 10626 C 1020.94 4.31976 1.52187 0
M  V30 10627 N 1022.43 4.35002 1.59146 0
M  V30 10628 C 1023.17 5.42326 1.862 0
M  V30 10629 N 1022.66 6.59835 2.11164 0
M  V30 10630 N 1024.46 5.29786 1.87838 0
M  V30 10631 H 1016.61 2.10006 -0.317981 0
M  V30 10632 H 1018.87 0.944636 -0.0797969 0
M  V30 10633 H 1018.58 3.50438 0.297626 0
M  V30 10634 H 1018.45 3.18634 2.01872 0
M  V30 10635 H 1020.84 2.19561 1.97173 0
M  V30 10636 H 1020.92 2.54677 0.239401 0
M  V30 10637 H 1020.56 5.02368 0.747576 0
M  V30 10638 H 1020.49 4.64208 2.48633 0
M  V30 10639 H 1022.98 3.50276 1.41828 0
M  V30 10640 H 1023.3 7.37428 2.31128 0
M  V30 10641 H 1021.64 6.62981 2.08522 0
M  V30 10642 H 1024.83 4.36974 1.67843 0
M  V30 10643 H 1025 6.13511 2.08585 0
M  V30 10644 N 1018.41 -0.709066 1.40748 0
M  V30 10645 C 1019.34 -1.83412 1.37451 0
M  V30 10646 C 1020.36 -1.60394 0.27884 0
M  V30 10647 O 1021.54 -1.70147 0.539642 0
M  V30 10648 C 1018.64 -3.19935 1.1178 0
M  V30 10649 C 1017.82 -3.70095 2.33128 0
M  V30 10650 C 1016.88 -4.85249 2.03518 0
M  V30 10651 O 1015.9 -4.97563 2.76442 0
M  V30 10652 N 1017.1 -5.7152 1.01714 0
M  V30 10653 H 1019.87 -1.86736 2.34414 0
M  V30 10654 H 1017.43 -0.890863 1.35186 0
M  V30 10655 H 1019.42 -3.94578 0.899464 0
M  V30 10656 H 1017.99 -3.11718 0.234624 0
M  V30 10657 H 1017.21 -2.8651 2.70751 0
M  V30 10658 H 1018.5 -4.00344 3.1401 0
M  V30 10659 H 1017.9 -5.64188 0.413307 0
M  V30 10660 H 1016.46 -6.46119 0.858696 0
M  V30 10661 N 1019.89 -1.26353 -0.941956 0
M  V30 10662 C 1021.3 -1.10774 -1.50287 0
M  V30 10663 C 1021.65 0.312229 -1.937 0
M  V30 10664 O 1020.78 1.20364 -1.79838 0
M  V30 10665 C 1021.37 -2.00473 -2.73123 0
M  V30 10666 C 1019.93 -1.89042 -3.25485 0
M  V30 10667 C 1019.08 -1.93869 -1.98267 0
M  V30 10668 H 1022.03 -1.39454 -0.757523 0
M  V30 10669 H 1022.05 -1.55216 -3.47402 0
M  V30 10670 H 1021.56 -3.03812 -2.41495 0
M  V30 10671 H 1019.66 -0.886341 -3.61904 0
M  V30 10672 H 1019.78 -2.74533 -3.92643 0
M  V30 10673 H 1018.14 -1.37912 -2.14132 0
M  V30 10674 H 1018.92 -2.98837 -1.68972 0
M  V30 10675 N 1021.37 1.14642 -1.08144 0
M  V30 10676 C 1022.3 2.19283 -0.6669 0
M  V30 10677 C 1023.31 1.60292 0.284668 0
M  V30 10678 O 1024.5 1.78352 0.0727383 0
M  V30 10679 C 1021.6 3.38877 0.0398572 0
M  V30 10680 C 1020.77 4.274 -0.929929 0
M  V30 10681 C 1019.83 5.25562 -0.258991 0
M  V30 10682 O 1018.86 5.61999 -0.902563 0
M  V30 10683 N 1020.06 5.71958 0.992177 0
M  V30 10684 H 1022.83 2.55464 -1.5671 0
M  V30 10685 H 1020.39 1.29836 -0.96717 0
M  V30 10686 H 1022.38 4.01605 0.499583 0
M  V30 10687 H 1020.95 3.01043 0.842118 0
M  V30 10688 H 1020.17 3.61649 -1.56857 0
M  V30 10689 H 1021.46 4.83411 -1.58717 0
M  V30 10690 H 1020.86 5.44481 1.53484 0
M  V30 10691 H 1019.41 6.36687 1.39544 0
M  V30 10692 N 1022.85 0.866709 1.31628 0
M  V30 10693 C 1024.26 0.529032 1.79048 0
M  V30 10694 C 1024.61 -0.953871 1.71452 0
M  V30 10695 O 1023.73 -1.74462 1.28031 0
M  V30 10696 C 1024.33 0.953522 3.25105 0
M  V30 10697 C 1022.89 0.667554 3.70433 0
M  V30 10698 C 1022.03 1.14664 2.52483 0
M  V30 10699 H 1024.98 1.05275 1.18756 0
M  V30 10700 H 1025.01 0.274844 3.79506 0
M  V30 10701 H 1024.52 2.03283 3.30602 0
M  V30 10702 H 1022.62 -0.400532 3.70441 0
M  V30 10703 H 1022.73 1.2423 4.62714 0
M  V30 10704 H 1021.1 0.566502 2.4832 0
M  V30 10705 H 1021.88 2.2333 2.60727 0
M  V30 10706 N 1024.32 -1.44642 0.625825 0
M  V30 10707 C 1025.57 -2.02094 0.128201 0
M  V30 10708 C 1025.9 -1.49181 -1.24801 0
M  V30 10709 O 1025.15 -0.663965 -1.84092 0
M  V30 10710 C 1025.45 -3.57352 0.0584381 0
M  V30 10711 C 1025.12 -4.29496 1.37272 0
M  V30 10712 C 1023.78 -4.48922 1.7327 0
M  V30 10713 C 1026.13 -4.70586 2.2405 0
M  V30 10714 C 1023.46 -5.06697 2.95762 0
M  V30 10715 C 1025.81 -5.29717 3.45807 0
M  V30 10716 C 1024.48 -5.47363 3.82034 0
M  V30 10717 H 1023.75 -0.739514 0.0469122 0
M  V30 10718 H 1026.39 -1.73475 0.811083 0
M  V30 10719 H 1024.7 -3.85354 -0.707791 0
M  V30 10720 H 1026.4 -3.9953 -0.34303 0
M  V30 10721 H 1022.99 -4.14702 1.08258 0
M  V30 10722 H 1027.17 -4.55295 1.97535 0
M  V30 10723 H 1022.43 -5.18546 3.23913 0
M  V30 10724 H 1026.6 -5.60507 4.13286 0
M  V30 10725 H 1024.23 -5.91898 4.77033 0
M  V30 10726 N 1025.8 -0.366053 -1.5329 0
M  V30 10727 C 1026.73 0.47211 -2.28677 0
M  V30 10728 C 1027.71 1.08353 -1.31125 0
M  V30 10729 O 1028.9 1.10069 -1.59995 0
M  V30 10730 C 1026.03 1.61174 -3.07637 0
M  V30 10731 C 1024.98 1.12755 -4.12881 0
M  V30 10732 C 1024.31 2.35745 -4.79925 0
M  V30 10733 C 1025.61 0.211954 -5.2187 0
M  V30 10734 H 1027.3 -0.156838 -2.98989 0
M  V30 10735 H 1024.85 -0.0768709 -1.43795 0
M  V30 10736 H 1026.8 2.20473 -3.59123 0
M  V30 10737 H 1025.52 2.26793 -2.35016 0
M  V30 10738 H 1024.18 0.557234 -3.6234 0
M  V30 10739 H 1023.83 2.99821 -4.03877 0
M  V30 10740 H 1023.53 2.04019 -5.51044 0
M  V30 10741 H 1025.06 2.95729 -5.34207 0
M  V30 10742 H 1026.47 0.71244 -5.68856 0
M  V30 10743 H 1024.87 -0.0144501 -6.00098 0
M  V30 10744 H 1025.94 -0.745753 -4.79131 0
M  V30 10745 N 1027.28 1.57312 -0.0952337 0
M  V30 10746 C 1028.21 2.17056 0.860753 0
M  V30 10747 C 1029.19 1.10394 1.29411 0
M  V30 10748 O 1030.38 1.38532 1.36098 0
M  V30 10749 C 1027.51 2.751 2.11984 0
M  V30 10750 C 1026.46 3.87136 1.8251 0
M  V30 10751 C 1025.79 4.31883 3.15247 0
M  V30 10752 C 1027.09 5.10326 1.11194 0
M  V30 10753 H 1028.78 2.97192 0.362983 0
M  V30 10754 H 1026.33 1.42955 0.173151 0
M  V30 10755 H 1028.28 3.15547 2.79299 0
M  V30 10756 H 1027 1.92219 2.64044 0
M  V30 10757 H 1025.66 3.47229 1.17592 0
M  V30 10758 H 1025.31 3.45893 3.65195 0
M  V30 10759 H 1025.01 5.0742 2.96309 0
M  V30 10760 H 1026.53 4.74964 3.83721 0
M  V30 10761 H 1027.95 5.47942 1.6862 0
M  V30 10762 H 1026.34 5.91293 1.02435 0
M  V30 10763 H 1027.41 4.84807 0.0947227 0
M  V30 10764 N 1028.76 -0.17846 1.56586 0
M  V30 10765 C 1029.72 -1.20479 1.94981 0
M  V30 10766 C 1030.72 -1.37561 0.832677 0
M  V30 10767 O 1031.91 -1.35089 1.09984 0
M  V30 10768 C 1029.04 -2.57117 2.23839 0
M  V30 10769 H 1030.24 -0.876173 2.86816 0
M  V30 10770 H 1027.79 -0.420635 1.50534 0
M  V30 10771 H 1028.52 -2.95005 1.34695 0
M  V30 10772 H 1028.31 -2.46086 3.05261 0
M  V30 10773 H 1029.8 -3.31096 2.5449 0
M  V30 10774 N 1030.24 -1.51135 -0.446768 0
M  V30 10775 C 1031.48 -1.64989 -1.20656 0
M  V30 10776 C 1031.84 -0.353882 -1.88711 0
M  V30 10777 O 1033.04 -0.368099 -2.66268 0
M  V30 10778 C 1031.31 -2.81371 -2.20375 0
M  V30 10779 S 1032.87 -3.15501 -3.04967 0
M  V30 10780 H 1029.69 -0.581372 -0.409301 0
M  V30 10781 H 1032.29 -1.89008 -0.499613 0
M  V30 10782 H 1030.99 -3.73988 -1.69001 0
M  V30 10783 H 1030.53 -2.59512 -2.95664 0
M  V30 10784 H 1032.54 -2.61205 -4.21884 0
M  V30 10785 N 1031.71 0.701592 -1.41122 0
M  V30 10786 C 1032.64 1.82815 -1.45262 0
M  V30 10787 C 1033.62 1.67215 -0.311939 0
M  V30 10788 O 1034.81 1.87038 -0.522538 0
M  V30 10789 C 1031.94 3.20899 -1.32819 0
M  V30 10790 C 1030.89 3.51194 -2.44636 0
M  V30 10791 C 1030.22 4.8857 -2.17263 0
M  V30 10792 C 1031.52 3.50777 -3.86979 0
M  V30 10793 H 1033.21 1.79608 -2.39544 0
M  V30 10794 H 1030.76 0.862693 -1.15298 0
M  V30 10795 H 1032.71 3.99417 -1.34329 0
M  V30 10796 H 1031.44 3.24717 -0.350191 0
M  V30 10797 H 1030.1 2.75024 -2.42399 0
M  V30 10798 H 1029.74 4.89007 -1.17819 0
M  V30 10799 H 1029.44 5.09805 -2.92186 0
M  V30 10800 H 1030.97 5.69405 -2.20478 0
M  V30 10801 H 1032.38 4.19309 -3.90964 0
M  V30 10802 H 1030.78 3.83542 -4.61536 0
M  V30 10803 H 1031.85 2.49873 -4.15562 0
M  V30 10804 N 1033.19 1.2685 0.935242 0
M  V30 10805 C 1034.14 1.05586 2.02078 0
M  V30 10806 C 1035.13 -0.013699 1.60894 0
M  V30 10807 O 1036.32 0.203956 1.75821 0
M  V30 10808 C 1033.45 0.697118 3.36148 0
M  V30 10809 C 1032.53 1.80444 3.83798 0
M  V30 10810 N 1032.92 3.04283 4.04037 0
M  V30 10811 C 1031.22 1.68939 4.12766 0
M  V30 10812 C 1031.92 3.7629 4.436 0
M  V30 10813 N 1030.9 3.04011 4.50642 0
M  V30 10814 H 1034.7 1.99577 2.15746 0
M  V30 10815 H 1032.21 1.17455 1.12153 0
M  V30 10816 H 1034.21 0.525915 4.1357 0
M  V30 10817 H 1032.87 -0.235247 3.23847 0
M  V30 10818 H 1033.88 3.40125 3.90558 0
M  V30 10819 H 1030.56 0.827341 4.0922 0
M  V30 10820 H 1031.95 4.82687 4.67401 0
M  V30 10821 N 1034.67 -1.14067 1.0875 0
M  V30 10822 C 1035.92 -1.84819 0.817698 0
M  V30 10823 C 1036.24 -1.83545 -0.658488 0
M  V30 10824 O 1035.51 -1.28633 -1.47751 0
M  V30 10825 H 1034.09 -0.68433 0.299502 0
M  V30 10826 H 1036.75 -1.38208 1.37421 0
M  V30 10827 H 1035.85 -2.89541 1.16501 0
M  V30 10828 N 1036.15 -0.873678 -1.31166 0
M  V30 10829 C 1037.4 -0.485497 -1.96182 0
M  V30 10830 C 1037.72 0.96621 -1.69379 0
M  V30 10831 O 1036.99 1.67783 -1.01121 0
M  V30 10832 H 1035.57 -0.176547 -0.725838 0
M  V30 10833 H 1038.23 -1.11428 -1.59906 0
M  V30 10834 H 1037.33 -0.646325 -3.05334 0
M  V30 10835 N 1037.63 1.44308 -0.633487 0
M  V30 10836 C 1038.59 2.2912 0.060376 0
M  V30 10837 C 1039.59 1.41166 0.769992 0
M  V30 10838 O 1040.78 1.63012 0.614224 0
M  V30 10839 C 1037.91 3.22798 1.0961 0
M  V30 10840 H 1039.1 2.91958 -0.685617 0
M  V30 10841 H 1036.66 1.51259 -0.393738 0
M  V30 10842 H 1037.39 2.64815 1.87199 0
M  V30 10843 H 1037.18 3.87618 0.591161 0
M  V30 10844 H 1038.67 3.86504 1.58127 0
M  V30 10845 N 1039.1 0.374177 1.53094 0
M  V30 10846 C 1040.35 -0.212396 2.00981 0
M  V30 10847 C 1040.67 -1.48576 1.26293 0
M  V30 10848 O 1039.94 -1.92206 0.378642 0
M  V30 10849 H 1038.52 -0.0814763 0.742543 0
M  V30 10850 H 1041.19 0.502389 1.88314 0
M  V30 10851 H 1040.28 -0.433316 3.09077 0
M  V30 10852 N 1040.58 -1.57259 0.103575 0
M  V30 10853 C 1041.83 -1.94272 -0.557024 0
M  V30 10854 C 1042.15 -0.986739 -1.68192 0
M  V30 10855 O 1041.42 -0.0402818 -1.95859 0
M  V30 10856 H 1040 -0.717237 -0.208757 0
M  V30 10857 H 1042.66 -1.94167 0.168898 0
M  V30 10858 H 1041.76 -2.96914 -0.961691 0
M  V30 10859 N 1042.06 0.170153 -1.56679 0
M  V30 10860 C 1043.47 0.732502 -1.7173 0
M  V30 10861 C 1043.82 1.82736 -0.71428 0
M  V30 10862 O 1042.95 2.16044 0.124102 0
M  V30 10863 C 1043.54 1.33548 -3.11368 0
M  V30 10864 C 1042.1 1.84464 -3.281 0
M  V30 10865 C 1041.25 0.724069 -2.6768 0
M  V30 10866 H 1044.2 -0.0552543 -1.58604 0
M  V30 10867 H 1044.22 2.20519 -3.10083 0
M  V30 10868 H 1043.73 0.5384 -3.84347 0
M  V30 10869 H 1041.83 2.66813 -2.6008 0
M  V30 10870 H 1041.95 1.98928 -4.35849 0
M  V30 10871 H 1040.31 1.14481 -2.27522 0
M  V30 10872 H 1041.09 -0.0611861 -3.43245 0
M  V30 10873 N 1043.54 1.5137 0.438746 0
M  V30 10874 C 1044.45 1.75424 1.55768 0
M  V30 10875 C 1045.46 0.638409 1.61865 0
M  V30 10876 O 1046.64 0.9205 1.79133 0
M  V30 10877 C 1043.71 1.87288 2.9176 0
M  V30 10878 C 1042.77 3.11137 2.95791 0
M  V30 10879 C 1042 3.22425 4.25297 0
M  V30 10880 O 1042.22 2.39688 5.17596 0
M  V30 10881 O 1041.16 4.15393 4.35583 0
M  V30 10882 H 1044.98 2.70339 1.38386 0
M  V30 10883 H 1042.57 1.35854 0.621609 0
M  V30 10884 H 1044.45 1.97085 3.72472 0
M  V30 10885 H 1043.12 0.955599 3.09273 0
M  V30 10886 H 1042.03 3.06819 2.1404 0
M  V30 10887 H 1043.36 4.02549 2.83223 0
M  V30 10888 N 1045.02 -0.694098 1.41492 0
M  V30 10889 C 1046.43 -1.27407 1.36471 0
M  V30 10890 C 1046.78 -1.9614 0.0485209 0
M  V30 10891 O 1045.9 -1.98871 -0.853188 0
M  V30 10892 C 1046.5 -2.31698 2.47188 0
M  V30 10893 C 1045.06 -2.85268 2.45559 0
M  V30 10894 C 1044.2 -1.59325 2.2696 0
M  V30 10895 H 1047.16 -0.488756 1.50986 0
M  V30 10896 H 1047.18 -3.1302 2.1633 0
M  V30 10897 H 1046.69 -1.81644 3.42968 0
M  V30 10898 H 1044.79 -3.39494 1.5354 0
M  V30 10899 H 1044.9 -3.35598 3.41922 0
M  V30 10900 H 1043.27 -1.85188 1.74864 0
M  V30 10901 H 1044.05 -1.11265 3.24769 0
M  V30 10902 N 1046.49 -1.27344 -0.928501 0
M  V30 10903 C 1047.42 -1.12517 -2.04602 0
M  V30 10904 C 1048.41 -0.0268563 -1.70079 0
M  V30 10905 O 1049.59 -0.201197 -1.93155 0
M  V30 10906 C 1046.72 -0.770749 -3.3864 0
M  V30 10907 C 1045.67 -1.8222 -3.87272 0
M  V30 10908 C 1045 -1.32178 -5.18105 0
M  V30 10909 C 1046.3 -3.22614 -4.10752 0
M  V30 10910 H 1047.99 -2.06 -2.17265 0
M  V30 10911 H 1045.54 -0.991827 -1.04397 0
M  V30 10912 H 1047.49 -0.653843 -4.16297 0
M  V30 10913 H 1046.22 0.19979 -3.25988 0
M  V30 10914 H 1044.88 -1.928 -3.11807 0
M  V30 10915 H 1044.52 -0.340719 -5.01845 0
M  V30 10916 H 1044.22 -2.02474 -5.51614 0
M  V30 10917 H 1045.75 -1.2178 -5.98333 0
M  V30 10918 H 1047.16 -3.1504 -4.78981 0
M  V30 10919 H 1045.56 -3.90614 -4.55566 0
M  V30 10920 H 1046.63 -3.67727 -3.16077 0
M  V30 10921 N 1047.97 1.13488 -1.09353 0
M  V30 10922 C 1049.2 1.89133 -0.85108 0
M  V30 10923 C 1049.62 1.78542 0.591976 0
M  V30 10924 O 1048.98 1.13243 1.41583 0
M  V30 10925 C 1049.03 3.36736 -1.29001 0
M  V30 10926 O 1048.13 4.09959 -0.447993 0
M  V30 10927 H 1047.47 0.58809 -0.308296 0
M  V30 10928 H 1050 1.43593 -1.45747 0
M  V30 10929 H 1050.01 3.87564 -1.27508 0
M  V30 10930 H 1048.69 3.43762 -2.34095 0
M  V30 10931 H 1047.27 3.69155 -0.52717 0
M  V30 10932 N 1049.45 0.880621 1.30701 0
M  V30 10933 C 1050.4 0.315679 2.25804 0
M  V30 10934 C 1051.39 -0.553382 1.51084 0
M  V30 10935 O 1052.58 -0.398518 1.72455 0
M  V30 10936 C 1049.71 -0.472586 3.40032 0
M  V30 10937 C 1048.79 0.410318 4.2211 0
M  V30 10938 N 1049.18 1.50876 4.82773 0
M  V30 10939 C 1047.48 0.20465 4.4553 0
M  V30 10940 C 1048.18 2.05409 5.44226 0
M  V30 10941 N 1047.16 1.34964 5.26579 0
M  V30 10942 H 1050.96 1.15505 2.70251 0
M  V30 10943 H 1048.47 0.729547 1.45091 0
M  V30 10944 H 1050.47 -0.893918 4.07204 0
M  V30 10945 H 1049.13 -1.30945 2.97125 0
M  V30 10946 H 1050.14 1.89163 4.82118 0
M  V30 10947 H 1046.82 -0.595398 4.13233 0
M  V30 10948 H 1048.21 2.97627 6.02385 0
M  V30 10949 N 1050.93 -1.4397 0.641131 0
M  V30 10950 C 1052.18 -2.01946 0.149629 0
M  V30 10951 C 1052.5 -1.50496 -1.23212 0
M  V30 10952 O 1051.76 -0.683453 -1.83378 0
M  V30 10953 C 1052.06 -3.5727 0.0963368 0
M  V30 10954 C 1051.72 -4.28016 1.4182 0
M  V30 10955 C 1050.39 -4.47059 1.78021 0
M  V30 10956 C 1052.74 -4.68183 2.29028 0
M  V30 10957 C 1050.07 -5.03532 3.01119 0
M  V30 10958 C 1052.42 -5.26019 3.51406 0
M  V30 10959 C 1051.08 -5.4328 3.87818 0
M  V30 10960 H 1050.35 -0.738974 0.0547531 0
M  V30 10961 H 1053 -1.72605 0.829436 0
M  V30 10962 H 1051.3 -3.86083 -0.666879 0
M  V30 10963 H 1053 -3.99871 -0.300635 0
M  V30 10964 H 1049.59 -4.13531 1.12651 0
M  V30 10965 H 1053.78 -4.53175 2.02353 0
M  V30 10966 H 1049.03 -5.15082 3.29395 0
M  V30 10967 H 1053.21 -5.56092 4.19208 0
M  V30 10968 H 1050.83 -5.86805 4.83284 0
M  V30 10969 N 1052.41 -0.382291 -1.52893 0
M  V30 10970 C 1053.32 0.463745 -2.29971 0
M  V30 10971 C 1054.33 1.07777 -1.36602 0
M  V30 10972 O 1055.51 1.0851 -1.69669 0
M  V30 10973 C 1052.57 1.57938 -3.08637 0
M  V30 10974 C 1051.64 0.991182 -4.17701 0
M  V30 10975 C 1050.87 2.05365 -4.92606 0
M  V30 10976 O 1051.09 3.26757 -4.67532 0
M  V30 10977 O 1050.03 1.67487 -5.78128 0
M  V30 10978 H 1053.85 -0.163962 -3.03257 0
M  V30 10979 H 1051.44 -0.146199 -1.48683 0
M  V30 10980 H 1053.32 2.22765 -3.57706 0
M  V30 10981 H 1051.99 2.19218 -2.3817 0
M  V30 10982 H 1050.9 0.306364 -3.72843 0
M  V30 10983 H 1052.23 0.422699 -4.90382 0
M  V30 10984 N 1053.89 1.57202 -0.111913 0
M  V30 10985 C 1055.13 1.95239 0.548607 0
M  V30 10986 C 1055.46 0.994897 1.6678 0
M  V30 10987 O 1054.74 0.0308603 1.94476 0
M  V30 10988 C 1055.02 3.43271 1.08798 0
M  V30 10989 C 1054.88 4.49792 -0.0273064 0
M  V30 10990 C 1056.19 3.92989 1.98109 0
M  V30 10991 H 1053.31 0.709919 0.197951 0
M  V30 10992 H 1055.96 1.89087 -0.186036 0
M  V30 10993 H 1054.11 3.48644 1.71404 0
M  V30 10994 H 1055.78 4.56521 -0.662302 0
M  V30 10995 H 1054.02 4.28254 -0.691426 0
M  V30 10996 H 1054.69 5.50612 0.391201 0
M  V30 10997 H 1057.17 3.89875 1.45385 0
M  V30 10998 H 1056.04 4.97101 2.32769 0
M  V30 10999 H 1056.3 3.33267 2.90492 0
M  V30 11000 N 1055.36 -0.161842 1.56767 0
M  V30 11001 C 1056.27 -1.21996 2.00385 0
M  V30 11002 C 1057.29 -1.4789 0.916768 0
M  V30 11003 O 1058.47 -1.59852 1.22513 0
M  V30 11004 C 1055.53 -2.53695 2.36305 0
M  V30 11005 C 1054.59 -2.3558 3.58888 0
M  V30 11006 C 1053.82 -3.60998 3.93085 0
M  V30 11007 O 1054.05 -4.6657 3.28129 0
M  V30 11008 O 1052.98 -3.54544 4.86397 0
M  V30 11009 H 1056.81 -0.879701 2.9068 0
M  V30 11010 H 1054.39 -0.369437 1.4476 0
M  V30 11011 H 1056.27 -3.31366 2.60335 0
M  V30 11012 H 1054.95 -2.87281 1.49169 0
M  V30 11013 H 1053.86 -1.55908 3.40064 0
M  V30 11014 H 1055.19 -2.06915 4.46595 0
M  V30 11015 N 1056.84 -1.516 -0.430713 0
M  V30 11016 C 1058.09 -1.6484 -1.18134 0
M  V30 11017 C 1058.42 -0.366725 -1.90706 0
M  V30 11018 O 1057.7 0.63398 -1.83878 0
M  V30 11019 C 1057.98 -2.85617 -2.19306 0
M  V30 11020 C 1057.83 -4.23778 -1.50773 0
M  V30 11021 C 1059.15 -3.01909 -3.20217 0
M  V30 11022 H 1056.27 -0.599907 -0.428113 0
M  V30 11023 H 1058.91 -1.84102 -0.46973 0
M  V30 11024 H 1057.06 -2.69325 -2.79993 0
M  V30 11025 H 1058.73 -4.51752 -0.93371 0
M  V30 11026 H 1056.98 -4.26171 -0.809966 0
M  V30 11027 H 1057.65 -5.04291 -2.24487 0
M  V30 11028 H 1060.12 -3.16956 -2.69589 0
M  V30 11029 H 1059 -3.87968 -3.88293 0
M  V30 11030 H 1059.26 -2.1427 -3.86705 0
M  V30 11031 N 1058.32 0.686584 -1.41858 0
M  V30 11032 C 1059.56 1.45879 -1.43173 0
M  V30 11033 C 1059.92 1.91953 -0.0423059 0
M  V30 11034 O 1061.12 2.68709 0.069783 0
M  V30 11035 C 1059.4 2.63196 -2.41791 0
M  V30 11036 S 1060.95 3.52212 -2.6171 0
M  V30 11037 H 1057.77 0.498391 -0.507077 0
M  V30 11038 H 1060.37 0.800313 -1.78368 0
M  V30 11039 H 1059.08 2.27566 -3.41529 0
M  V30 11040 H 1058.61 3.33928 -2.0798 0
M  V30 11041 H 1060.62 4.58744 -1.89125 0
M  V30 11042 N 1059.8 1.27835 0.921735 0
M  V30 11043 C 1060.73 1.06874 2.02758 0
M  V30 11044 C 1061.74 0.0229418 1.62784 0
M  V30 11045 O 1062.93 0.265145 1.7652 0
M  V30 11046 C 1060.03 0.60037 3.3354 0
M  V30 11047 C 1059.2 1.71979 4.02172 0
M  V30 11048 C 1058.26 1.24615 5.11231 0
M  V30 11049 O 1057.29 1.94692 5.34868 0
M  V30 11050 N 1058.49 0.105021 5.80405 0
M  V30 11051 H 1061.26 2.02105 2.213 0
M  V30 11052 H 1058.82 1.19481 1.09251 0
M  V30 11053 H 1060.81 0.267281 4.03816 0
M  V30 11054 H 1059.38 -0.258872 3.11526 0
M  V30 11055 H 1058.6 2.22287 3.25549 0
M  V30 11056 H 1059.89 2.47092 4.44773 0
M  V30 11057 H 1059.29 -0.479745 5.63662 0
M  V30 11058 H 1057.84 -0.168846 6.51581 0
M  V30 11059 N 1061.28 -1.12907 1.09954 0
M  V30 11060 C 1062.21 -2.20585 0.765799 0
M  V30 11061 C 1063.19 -1.68117 -0.258989 0
M  V30 11062 O 1064.37 -1.93792 -0.125853 0
M  V30 11063 C 1061.5 -3.46772 0.191435 0
M  V30 11064 C 1060.46 -4.12363 1.14635 0
M  V30 11065 C 1059.78 -5.3294 0.433426 0
M  V30 11066 C 1061.08 -4.59073 2.49096 0
M  V30 11067 H 1062.78 -2.48759 1.66612 0
M  V30 11068 H 1060.32 -1.19563 0.802534 0
M  V30 11069 H 1062.27 -4.21365 -0.0541535 0
M  V30 11070 H 1061 -3.18011 -0.744101 0
M  V30 11071 H 1059.66 -3.39744 1.37731 0
M  V30 11072 H 1059.31 -5.00444 -0.506422 0
M  V30 11073 H 1059.01 -5.77772 1.07018 0
M  V30 11074 H 1060.53 -6.10284 0.196267 0
M  V30 11075 H 1061.94 -5.25063 2.30177 0
M  V30 11076 H 1060.34 -5.14665 3.0861 0
M  V30 11077 H 1061.41 -3.73313 3.0946 0
M  V30 11078 N 1062.75 -0.88754 -1.30232 0
M  V30 11079 C 1064.16 -0.55745 -1.78184 0
M  V30 11080 C 1064.52 0.926474 -1.72948 0
M  V30 11081 O 1063.64 1.72403 -1.3079 0
M  V30 11082 C 1064.24 -1.00512 -3.23547 0
M  V30 11083 C 1062.79 -0.726402 -3.69324 0
M  V30 11084 C 1061.94 -1.18666 -2.50627 0
M  V30 11085 H 1064.89 -1.07151 -1.17066 0
M  V30 11086 H 1064.91 -0.335185 -3.79021 0
M  V30 11087 H 1064.43 -2.08517 -3.27326 0
M  V30 11088 H 1062.53 0.341548 -3.71031 0
M  V30 11089 H 1062.64 -1.31575 -4.60679 0
M  V30 11090 H 1061 -0.605936 -2.47387 0
M  V30 11091 H 1061.79 -2.2745 -2.57141 0
M  V30 11092 N 1064.23 1.43628 -0.648757 0
M  V30 11093 C 1065.65 1.56442 -0.315921 0
M  V30 11094 C 1065.85 1.63322 1.18018 0
M  V30 11095 O 1064.9 1.58585 1.96487 0
M  V30 11096 C 1066.22 2.82751 -1.02335 0
M  V30 11097 C 1067.77 2.96488 -1.00318 0
M  V30 11098 C 1068.24 4.25623 -1.69142 0
M  V30 11099 N 1069.73 4.32477 -1.65885 0
M  V30 11100 C 1070.47 5.31154 -2.16016 0
M  V30 11101 N 1069.96 6.36135 -2.74415 0
M  V30 11102 N 1071.76 5.22778 -2.06541 0
M  V30 11103 H 1063.91 1.37405 -1.61968 0
M  V30 11104 H 1066.17 0.65962 -0.680886 0
M  V30 11105 H 1065.88 2.83714 -2.07844 0
M  V30 11106 H 1065.75 3.72836 -0.572114 0
M  V30 11107 H 1068.14 2.95068 0.0434919 0
M  V30 11108 H 1068.22 2.07704 -1.49307 0
M  V30 11109 H 1067.86 4.27804 -2.73763 0
M  V30 11110 H 1067.79 5.13296 -1.17622 0
M  V30 11111 H 1070.28 3.57232 -1.23264 0
M  V30 11112 H 1070.6 7.07743 -3.10355 0
M  V30 11113 H 1068.94 6.36771 -2.78474 0
M  V30 11114 H 1072.13 4.39678 -1.60625 0
M  V30 11115 H 1072.3 5.99523 -2.45919 0
M  V30 11116 N 1065.71 0.390394 1.52688 0
M  V30 11117 C 1067.12 -0.083394 1.86514 0
M  V30 11118 C 1067.47 -1.46057 1.31003 0
M  V30 11119 O 1066.6 -2.06663 0.641809 0
M  V30 11120 C 1067.19 -0.158102 3.38431 0
M  V30 11121 C 1065.75 -0.576186 3.71964 0
M  V30 11122 C 1064.9 0.261156 2.76068 0
M  V30 11123 H 1067.85 0.608226 1.46582 0
M  V30 11124 H 1067.87 -0.977023 3.67742 0
M  V30 11125 H 1067.38 0.844365 3.78803 0
M  V30 11126 H 1065.48 -1.58598 3.37161 0
M  V30 11127 H 1065.6 -0.333577 4.77937 0
M  V30 11128 H 1063.96 -0.273737 2.53225 0
M  V30 11129 H 1064.74 1.26162 3.19277 0
M  V30 11130 N 1067.19 -1.57141 0.120249 0
M  V30 11131 C 1068.44 -1.94852 -0.536387 0
M  V30 11132 C 1068.76 -1.00452 -1.67136 0
M  V30 11133 O 1068.03 -0.061053 -1.95805 0
M  V30 11134 H 1066.61 -0.719411 -0.201138 0
M  V30 11135 H 1069.27 -1.93977 0.189482 0
M  V30 11136 H 1068.37 -2.97917 -0.930145 0
M  V30 11137 N 1068.67 0.153526 -1.5685 0
M  V30 11138 C 1069.6 1.19162 -2.00805 0
M  V30 11139 C 1070.58 1.45172 -0.886518 0
M  V30 11140 O 1071.76 1.56203 -1.15387 0
M  V30 11141 C 1068.89 2.52637 -2.38311 0
M  V30 11142 C 1067.85 2.41161 -3.53589 0
M  V30 11143 C 1067.17 3.79287 -3.76889 0
M  V30 11144 C 1068.47 1.90122 -4.86468 0
M  V30 11145 H 1070.17 0.82617 -2.87776 0
M  V30 11146 H 1067.71 0.395972 -1.38449 0
M  V30 11147 H 1069.67 3.25478 -2.6766 0
M  V30 11148 H 1068.39 2.91005 -1.4827 0
M  V30 11149 H 1067.05 1.70772 -3.24395 0
M  V30 11150 H 1066.7 4.15079 -2.84109 0
M  V30 11151 H 1066.4 3.72472 -4.54465 0
M  V30 11152 H 1067.92 4.53687 -4.08657 0
M  V30 11153 H 1069.33 2.52752 -5.14577 0
M  V30 11154 H 1067.73 1.94214 -5.67804 0
M  V30 11155 H 1068.8 0.856517 -4.77275 0
M  V30 11156 N 1070.14 1.51827 0.422667 0
M  V30 11157 C 1071.56 1.40328 0.760275 0
M  V30 11158 C 1071.76 0.497119 1.95272 0
M  V30 11159 O 1070.82 -0.0422083 2.52465 0
M  V30 11160 C 1072.13 2.82622 1.02689 0
M  V30 11161 C 1073.68 2.91874 1.13044 0
M  V30 11162 C 1074.15 4.35107 1.4299 0
M  V30 11163 N 1075.64 4.3828 1.49883 0
M  V30 11164 C 1076.38 5.46153 1.74655 0
M  V30 11165 N 1075.87 6.64165 1.9712 0
M  V30 11166 N 1077.67 5.33651 1.76558 0
M  V30 11167 H 1069.82 2.09285 -0.362455 0
M  V30 11168 H 1072.08 0.94273 -0.0998161 0
M  V30 11169 H 1071.79 3.50991 0.223226 0
M  V30 11170 H 1071.66 3.22844 1.95068 0
M  V30 11171 H 1074.05 2.23694 1.92471 0
M  V30 11172 H 1074.13 2.55128 0.185326 0
M  V30 11173 H 1073.77 5.03841 0.640848 0
M  V30 11174 H 1073.7 4.69377 2.38731 0
M  V30 11175 H 1076.19 3.53206 1.34366 0
M  V30 11176 H 1076.51 7.42165 2.15434 0
M  V30 11177 H 1074.85 6.67255 1.94413 0
M  V30 11178 H 1078.04 4.40436 1.58536 0
M  V30 11179 H 1078.22 6.17798 1.95525 0
M  V30 11180 N 1071.62 -0.679052 1.4222 0
M  V30 11181 C 1072.87 -1.43627 1.42182 0
M  V30 11182 C 1073.19 -1.94964 0.0377095 0
M  V30 11183 O 1072.46 -1.72788 -0.923098 0
M  V30 11184 H 1071.04 -0.532972 0.523402 0
M  V30 11185 H 1073.7 -0.802649 1.77605 0
M  V30 11186 H 1072.8 -2.29137 2.11902 0
M  V30 11187 N 1073.1 -1.28322 -0.914942 0
M  V30 11188 C 1074.35 -1.15578 -1.66642 0
M  V30 11189 C 1074.68 0.295209 -1.91943 0
M  V30 11190 O 1073.95 1.21482 -1.51896 0
M  V30 11191 C 1074.24 -1.9535 -3.02507 0
M  V30 11192 C 1074.09 -3.48504 -2.84367 0
M  V30 11193 C 1075.41 -1.76798 -4.03027 0
M  V30 11194 H 1072.53 -0.421234 -0.604757 0
M  V30 11195 H 1075.17 -1.57625 -1.06087 0
M  V30 11196 H 1073.32 -1.59619 -3.54195 0
M  V30 11197 H 1074.99 -3.94135 -2.39699 0
M  V30 11198 H 1073.24 -3.74198 -2.1945 0
M  V30 11199 H 1073.91 -3.99576 -3.80845 0
M  V30 11200 H 1076.38 -2.07977 -3.60395 0
M  V30 11201 H 1075.26 -2.34987 -4.96057 0
M  V30 11202 H 1075.52 -0.719162 -4.36211 0
M  V30 11203 N 1074.58 1.12322 -1.10551 0
M  V30 11204 C 1075.51 2.20176 -0.777486 0
M  V30 11205 C 1076.49 1.68252 0.250069 0
M  V30 11206 O 1077.67 1.93856 0.115574 0
M  V30 11207 C 1074.8 3.46666 -0.209822 0
M  V30 11208 C 1073.76 4.11749 -1.1682 0
M  V30 11209 C 1073.08 5.32703 -0.461684 0
M  V30 11210 C 1074.38 4.57746 -2.51527 0
M  V30 11211 H 1076.08 2.47872 -1.67928 0
M  V30 11212 H 1073.62 1.19136 -0.808863 0
M  V30 11213 H 1075.58 4.21388 0.0318068 0
M  V30 11214 H 1074.3 3.18401 0.727226 0
M  V30 11215 H 1072.96 3.39009 -1.3953 0
M  V30 11216 H 1072.61 5.00706 0.479875 0
M  V30 11217 H 1072.31 5.77197 -1.1008 0
M  V30 11218 H 1073.83 6.10172 -0.228629 0
M  V30 11219 H 1075.25 5.23835 -2.32958 0
M  V30 11220 H 1073.64 5.13021 -3.11335 0
M  V30 11221 H 1074.71 3.71667 -3.11435 0
M  V30 11222 N 1076.06 0.894434 1.2976 0
M  V30 11223 C 1077.3 0.517669 1.95771 0
M  V30 11224 C 1077.63 -0.935028 1.70551 0
M  V30 11225 O 1076.89 -1.67722 1.00835 0
M  V30 11226 C 1077.19 0.750307 3.49435 0
M  V30 11227 C 1076.85 2.17955 3.94723 0
M  V30 11228 C 1075.51 2.57036 4.068 0
M  V30 11229 C 1077.87 3.11053 4.18205 0
M  V30 11230 C 1075.19 3.88406 4.39724 0
M  V30 11231 C 1077.55 4.41966 4.52602 0
M  V30 11232 C 1076.21 4.80927 4.62888 0
M  V30 11233 H 1075.48 0.189428 0.716378 0
M  V30 11234 H 1078.13 1.13209 1.54454 0
M  V30 11235 H 1076.43 0.0529242 3.91764 0
M  V30 11236 H 1078.13 0.438251 3.98598 0
M  V30 11237 H 1074.72 1.86622 3.85837 0
M  V30 11238 H 1078.9 2.82076 4.08347 0
M  V30 11239 H 1074.16 4.18321 4.4589 0
M  V30 11240 H 1078.33 5.14134 4.69722 0
M  V30 11241 H 1075.96 5.82759 4.88156 0
M  V30 11242 N 1077.53 -1.43282 0.656365 0
M  V30 11243 C 1078.95 -1.56272 0.324213 0
M  V30 11244 C 1079.15 -1.63946 -1.1715 0
M  V30 11245 O 1078.21 -1.59625 -1.95643 0
M  V30 11246 C 1079.52 -2.82204 1.03833 0
M  V30 11247 C 1081.07 -2.95952 1.01889 0
M  V30 11248 C 1081.54 -4.2472 1.71397 0
M  V30 11249 N 1083.03 -4.31591 1.68176 0
M  V30 11250 C 1083.77 -5.30001 2.1883 0
M  V30 11251 N 1083.26 -6.34671 2.77785 0
M  V30 11252 N 1085.06 -5.21676 2.09311 0
M  V30 11253 H 1077.21 -1.36544 1.62694 0
M  V30 11254 H 1079.47 -0.655999 0.684375 0
M  V30 11255 H 1079.18 -2.82608 2.09346 0
M  V30 11256 H 1079.05 -3.72527 0.591878 0
M  V30 11257 H 1081.44 -2.95087 -0.0278431 0
M  V30 11258 H 1081.52 -2.0691 1.50406 0
M  V30 11259 H 1081.16 -4.26346 2.76028 0
M  V30 11260 H 1081.09 -5.12665 1.20342 0
M  V30 11261 H 1083.58 -3.56573 1.25157 0
M  V30 11262 H 1083.9 -7.06087 3.14104 0
M  V30 11263 H 1082.24 -6.35285 2.81847 0
M  V30 11264 H 1085.43 -4.3882 1.62955 0
M  V30 11265 H 1085.61 -5.9821 2.49095 0
M  V30 11266 N 1079.01 -0.398486 -1.52479 0
M  V30 11267 C 1080.43 -0.0488635 -1.59525 0
M  V30 11268 C 1080.63 1.43756 -1.41197 0
M  V30 11269 O 1079.69 2.20317 -1.23357 0
M  V30 11270 C 1081 -0.534262 -2.95916 0
M  V30 11271 C 1082.55 -0.491314 -3.0912 0
M  V30 11272 C 1083.02 -0.953049 -4.47974 0
M  V30 11273 N 1084.51 -0.909434 -4.54184 0
M  V30 11274 C 1085.25 -1.23801 -5.59876 0
M  V30 11275 N 1084.74 -1.63752 -6.73169 0
M  V30 11276 N 1086.54 -1.15867 -5.50028 0
M  V30 11277 H 1078.69 -1.36608 -1.62641 0
M  V30 11278 H 1080.95 -0.560515 -0.764544 0
M  V30 11279 H 1080.66 -1.57277 -3.14574 0
M  V30 11280 H 1080.53 0.0617787 -3.77149 0
M  V30 11281 H 1082.92 0.538123 -2.90152 0
M  V30 11282 H 1083 -1.12327 -2.29818 0
M  V30 11283 H 1082.64 -1.98076 -4.67684 0
M  V30 11284 H 1082.57 -0.298007 -5.25756 0
M  V30 11285 H 1085.06 -0.615569 -3.72853 0
M  V30 11286 H 1085.38 -1.87163 -7.49793 0
M  V30 11287 H 1083.72 -1.67647 -6.74477 0
M  V30 11288 H 1086.91 -0.845502 -4.60401 0
M  V30 11289 H 1087.09 -1.41805 -6.32294 0
M  V30 11290 N 1080.49 1.57075 -0.12858 0
M  V30 11291 C 1081.74 1.9581 0.527868 0
M  V30 11292 C 1082.07 1.01253 1.65715 0
M  V30 11293 O 1081.35 0.0514853 1.94432 0
M  V30 11294 C 1081.63 3.44406 1.05151 0
M  V30 11295 C 1081.48 4.49737 -0.0750113 0
M  V30 11296 C 1082.8 3.95069 1.9393 0
M  V30 11297 H 1079.92 0.711978 0.19041 0
M  V30 11298 H 1082.56 1.88879 -0.206081 0
M  V30 11299 H 1080.71 3.50443 1.67697 0
M  V30 11300 H 1082.38 4.55793 -0.710685 0
M  V30 11301 H 1080.63 4.27497 -0.736809 0
M  V30 11302 H 1081.3 5.50996 0.332779 0
M  V30 11303 H 1083.77 3.91395 1.41241 0
M  V30 11304 H 1082.65 4.99542 2.27484 0
M  V30 11305 H 1082.91 3.36329 2.86941 0
M  V30 11306 N 1081.97 -0.145205 1.5693 0
M  V30 11307 C 1082.93 -1.16316 1.97492 0
M  V30 11308 C 1083.93 -1.35764 0.861668 0
M  V30 11309 O 1085.12 -1.32726 1.12825 0
M  V30 11310 C 1082.25 -2.52311 2.29242 0
M  V30 11311 H 1083.45 -0.815138 2.8861 0
M  V30 11312 H 1081 -0.38861 1.51392 0
M  V30 11313 H 1081.74 -2.92081 1.40922 0
M  V30 11314 H 1081.52 -2.39555 3.10412 0
M  V30 11315 H 1083.01 -3.25624 2.61456 0
M  V30 11316 N 1083.45 -1.52049 -0.414609 0
M  V30 11317 C 1084.7 -1.65511 -1.15977 0
M  V30 11318 C 1085.02 -0.384703 -1.91168 0
M  V30 11319 O 1084.29 0.600247 -1.86477 0
M  V30 11320 H 1082.87 -0.610039 -0.431116 0
M  V30 11321 H 1085.53 -1.8907 -0.473139 0
M  V30 11322 H 1084.62 -2.4936 -1.87686 0
M  V30 11323 N 1084.93 0.6715 -1.42579 0
M  V30 11324 C 1086.15 1.45972 -1.46628 0
M  V30 11325 C 1086.57 1.88636 -0.0785986 0
M  V30 11326 O 1085.93 1.58345 0.907372 0
M  V30 11327 C 1085.98 2.70668 -2.39627 0
M  V30 11328 O 1085.7 2.29793 -3.72997 0
M  V30 11329 C 1087.2 3.64201 -2.52731 0
M  V30 11330 H 1084.42 0.449044 -0.498598 0
M  V30 11331 H 1086.96 0.824811 -1.87129 0
M  V30 11332 H 1085.12 3.3034 -2.02371 0
M  V30 11333 H 1085.53 3.10341 -4.22834 0
M  V30 11334 H 1087.01 4.48412 -3.21918 0
M  V30 11335 H 1087.48 4.10323 -1.56626 0
M  V30 11336 H 1088.09 3.1042 -2.90722 0
M  V30 11337 N 1086.4 1.28806 0.908124 0
M  V30 11338 C 1087.37 1.13228 1.99279 0
M  V30 11339 C 1088.37 0.0702456 1.60646 0
M  V30 11340 O 1089.56 0.316494 1.71301 0
M  V30 11341 C 1086.69 0.729629 3.33 0
M  V30 11342 H 1087.88 2.09566 2.14528 0
M  V30 11343 H 1085.43 1.11872 1.09153 0
M  V30 11344 H 1086.17 -0.234268 3.23453 0
M  V30 11345 H 1085.95 1.49688 3.62403 0
M  V30 11346 H 1087.44 0.643449 4.12613 0
M  V30 11347 N 1087.88 -1.11734 1.11145 0
M  V30 11348 C 1088.81 -2.1976 0.789152 0
M  V30 11349 C 1089.79 -1.68382 -0.241143 0
M  V30 11350 O 1090.98 -1.93914 -0.105292 0
M  V30 11351 C 1088.11 -3.46549 0.228204 0
M  V30 11352 C 1087.06 -4.11123 1.19002 0
M  V30 11353 C 1086.39 -5.32451 0.489928 0
M  V30 11354 C 1087.69 -4.56406 2.53951 0
M  V30 11355 H 1089.38 -2.46978 1.69241 0
M  V30 11356 H 1086.93 -1.18705 0.81517 0
M  V30 11357 H 1088.88 -4.21399 -0.00945908 0
M  V30 11358 H 1087.6 -3.18782 -0.71033 0
M  V30 11359 H 1086.26 -3.38264 1.41326 0
M  V30 11360 H 1085.91 -5.00953 -0.453315 0
M  V30 11361 H 1085.61 -5.76605 1.1314 0
M  V30 11362 H 1087.14 -6.10042 0.260984 0
M  V30 11363 H 1088.55 -5.22592 2.35733 0
M  V30 11364 H 1086.95 -5.11363 3.14051 0
M  V30 11365 H 1088.02 -3.7001 3.13402 0
M  V30 11366 N 1089.36 -0.901303 -1.29284 0
M  V30 11367 C 1090.32 -0.385081 -2.25942 0
M  V30 11368 C 1091.32 0.481626 -1.53418 0
M  V30 11369 O 1092.51 0.286451 -1.71829 0
M  V30 11370 C 1089.64 0.449319 -3.37926 0
M  V30 11371 H 1090.84 -1.23877 -2.7312 0
M  V30 11372 H 1088.39 -0.679586 -1.40753 0
M  V30 11373 H 1089.13 1.32292 -2.9609 0
M  V30 11374 H 1088.91 -0.171731 -3.91724 0
M  V30 11375 H 1090.4 0.801746 -4.09831 0
M  V30 11376 N 1090.84 1.42931 -0.663954 0
M  V30 11377 C 1092.08 2.01683 -0.181738 0
M  V30 11378 C 1092.41 1.52437 1.20802 0
M  V30 11379 O 1091.67 0.71254 1.82267 0
M  V30 11380 C 1091.97 3.57072 -0.153163 0
M  V30 11381 C 1091.63 4.25706 -1.48612 0
M  V30 11382 C 1090.29 4.4417 -1.85111 0
M  V30 11383 C 1092.65 4.6448 -2.36448 0
M  V30 11384 C 1089.97 4.98677 -3.09092 0
M  V30 11385 C 1092.33 5.20362 -3.5973 0
M  V30 11386 C 1090.99 5.37041 -3.96412 0
M  V30 11387 H 1090.26 0.73801 -0.0665026 0
M  V30 11388 H 1092.91 1.71264 -0.856791 0
M  V30 11389 H 1091.21 3.87095 0.605372 0
M  V30 11390 H 1092.91 4.00299 0.236981 0
M  V30 11391 H 1089.5 4.11686 -1.19215 0
M  V30 11392 H 1093.68 4.49898 -2.09537 0
M  V30 11393 H 1088.94 5.09776 -3.37547 0
M  V30 11394 H 1093.11 5.49352 -4.28001 0
M  V30 11395 H 1090.74 5.79042 -4.92559 0
M  V30 11396 N 1092.32 0.406567 1.52266 0
M  V30 11397 C 1093.73 0.0573228 1.59497 0
M  V30 11398 C 1093.93 -1.43005 1.41957 0
M  V30 11399 O 1092.99 -2.19659 1.24523 0
M  V30 11400 C 1094.3 0.549947 2.95628 0
M  V30 11401 C 1095.85 0.5077 3.08855 0
M  V30 11402 C 1096.32 0.976792 4.47463 0
M  V30 11403 N 1097.81 0.933508 4.53696 0
M  V30 11404 C 1098.55 1.26769 5.59211 0
M  V30 11405 N 1098.05 1.6732 6.72292 0
M  V30 11406 N 1099.84 1.18782 5.49406 0
M  V30 11407 H 1091.99 1.37468 1.61914 0
M  V30 11408 H 1094.25 0.564562 0.76156 0
M  V30 11409 H 1093.96 1.58943 3.13736 0
M  V30 11410 H 1093.83 -0.0417767 3.77177 0
M  V30 11411 H 1096.22 -0.522728 2.90433 0
M  V30 11412 H 1096.3 1.13545 2.29219 0
M  V30 11413 H 1095.94 2.00554 4.66627 0
M  V30 11414 H 1095.87 0.325885 5.25591 0
M  V30 11415 H 1098.37 0.635333 3.72521 0
M  V30 11416 H 1098.68 1.91137 7.4879 0
M  V30 11417 H 1097.02 1.71221 6.73579 0
M  V30 11418 H 1100.21 0.869906 4.59946 0
M  V30 11419 H 1100.39 1.45157 6.31533 0
M  V30 11420 N 1093.79 -1.57004 0.136909 0
M  V30 11421 C 1095.02 -2.00156 -0.523936 0
M  V30 11422 C 1095.44 -1.01688 -1.59075 0
M  V30 11423 O 1094.79 -0.0123678 -1.82496 0
M  V30 11424 C 1094.85 -3.4326 -1.13379 0
M  V30 11425 O 1094.57 -4.37963 -0.109598 0
M  V30 11426 C 1096.07 -4.01637 -1.87623 0
M  V30 11427 H 1093.29 -0.65681 -0.137263 0
M  V30 11428 H 1095.83 -2.03219 0.228522 0
M  V30 11429 H 1093.99 -3.4108 -1.83693 0
M  V30 11430 H 1094.4 -5.21555 -0.55503 0
M  V30 11431 H 1095.87 -5.03795 -2.25597 0
M  V30 11432 H 1096.35 -3.41781 -2.75831 0
M  V30 11433 H 1096.96 -4.07417 -1.22031 0
M  V30 11434 N 1095.27 0.136881 -1.57004 0
M  V30 11435 C 1096.2 1.17026 -2.02057 0
M  V30 11436 C 1097.18 1.44223 -0.901866 0
M  V30 11437 O 1098.37 1.54971 -1.17037 0
M  V30 11438 C 1095.5 2.50095 -2.40977 0
M  V30 11439 C 1094.45 2.37398 -3.56127 0
M  V30 11440 C 1093.78 3.75268 -3.80891 0
M  V30 11441 C 1095.08 1.84952 -4.88457 0
M  V30 11442 H 1096.77 0.795601 -2.88636 0
M  V30 11443 H 1094.32 0.381266 -1.38861 0
M  V30 11444 H 1096.27 3.22621 -2.71097 0
M  V30 11445 H 1095 2.89416 -1.51348 0
M  V30 11446 H 1093.65 1.67322 -3.26188 0
M  V30 11447 H 1093.3 4.12043 -2.88496 0
M  V30 11448 H 1093 3.67631 -4.5839 0
M  V30 11449 H 1094.53 4.49327 -4.13446 0
M  V30 11450 H 1095.94 2.4728 -5.17229 0
M  V30 11451 H 1094.34 1.88181 -5.69832 0
M  V30 11452 H 1095.41 0.805848 -4.78157 0
M  V30 11453 N 1096.75 1.52266 0.40654 0
M  V30 11454 C 1098 1.66699 1.15496 0
M  V30 11455 C 1098.33 0.397019 1.90098 0
M  V30 11456 O 1097.6 -0.604646 1.84863 0
M  V30 11457 C 1097.89 2.8907 2.14734 0
M  V30 11458 C 1097.74 4.26123 1.44012 0
M  V30 11459 C 1099.06 3.06966 3.15373 0
M  V30 11460 H 1096.18 0.606642 0.418515 0
M  V30 11461 H 1098.82 1.84826 0.440381 0
M  V30 11462 H 1096.97 2.73745 2.75673 0
M  V30 11463 H 1098.64 4.5318 0.861722 0
M  V30 11464 H 1096.89 4.27406 0.742064 0
M  V30 11465 H 1097.56 5.07799 2.16436 0
M  V30 11466 H 1100.03 3.21205 2.64512 0
M  V30 11467 H 1098.91 3.94097 3.82072 0
M  V30 11468 H 1099.17 2.20395 3.83247 0
M  V30 11469 N 1098.23 -0.663929 1.42933 0
M  V30 11470 C 1099.46 -1.45192 1.474 0
M  V30 11471 C 1099.87 -1.88592 0.0886014 0
M  V30 11472 O 1099.23 -1.58824 -0.898962 0
M  V30 11473 C 1099.28 -2.69394 2.41059 0
M  V30 11474 O 1099 -2.27812 3.7421 0
M  V30 11475 C 1100.5 -3.62855 2.54659 0
M  V30 11476 H 1097.72 -0.446394 0.500973 0
M  V30 11477 H 1100.27 -0.814875 1.87563 0
M  V30 11478 H 1098.42 -3.29262 2.0412 0
M  V30 11479 H 1098.83 -3.08095 4.24474 0
M  V30 11480 H 1100.31 -4.46698 3.24291 0
M  V30 11481 H 1100.79 -4.09487 1.58799 0
M  V30 11482 H 1101.39 -3.08874 2.92364 0
M  V30 11483 N 1099.71 -1.29285 -0.901281 0
M  V30 11484 C 1101.12 -1.07263 -1.18182 0
M  V30 11485 C 1101.32 0.177087 -2.0072 0
M  V30 11486 O 1100.38 0.875292 -2.36844 0
M  V30 11487 C 1101.69 -2.32717 -1.9043 0
M  V30 11488 C 1103.24 -2.3802 -2.03262 0
M  V30 11489 C 1103.71 -3.63273 -2.7892 0
M  V30 11490 N 1105.21 -3.63986 -2.86475 0
M  V30 11491 C 1105.94 -4.57585 -3.45549 0
M  V30 11492 N 1105.44 -5.61513 -4.05801 0
M  V30 11493 N 1107.23 -4.45157 -3.43208 0
M  V30 11494 H 1099.38 -2.09487 -0.350536 0
M  V30 11495 H 1101.64 -0.922647 -0.217778 0
M  V30 11496 H 1101.35 -3.23828 -1.37216 0
M  V30 11497 H 1101.22 -2.40102 -2.90913 0
M  V30 11498 H 1103.61 -1.47398 -2.55652 0
M  V30 11499 H 1103.69 -2.3462 -1.01916 0
M  V30 11500 H 1103.34 -4.54246 -2.27206 0
M  V30 11501 H 1103.27 -3.6393 -3.80608 0
M  V30 11502 H 1105.76 -2.8884 -2.43679 0
M  V30 11503 H 1106.07 -6.29058 -4.48894 0
M  V30 11504 H 1104.41 -5.65325 -4.04268 0
M  V30 11505 H 1107.61 -3.63158 -2.95354 0
M  V30 11506 H 1107.78 -5.18286 -3.88952 0
M  V30 11507 N 1101.18 1.11143 -1.11736 0
M  V30 11508 C 1102.43 1.82311 -0.862875 0
M  V30 11509 C 1102.75 1.85735 0.613326 0
M  V30 11510 O 1103.95 2.53034 0.984168 0
M  V30 11511 C 1102.41 3.27427 -1.49396 0
M  V30 11512 C 1102.02 3.32323 -3.00443 0
M  V30 11513 C 1103.76 4.03474 -1.31944 0
M  V30 11514 C 1101.67 4.71855 -3.56521 0
M  V30 11515 H 1100.6 0.683124 -0.31915 0
M  V30 11516 H 1103.25 1.25045 -1.34298 0
M  V30 11517 H 1101.63 3.84644 -0.941528 0
M  V30 11518 H 1102.8 2.84971 -3.62117 0
M  V30 11519 H 1101.12 2.69758 -3.17206 0
M  V30 11520 H 1103.72 5.06528 -1.71271 0
M  V30 11521 H 1104.06 4.15473 -0.262339 0
M  V30 11522 H 1104.59 3.52652 -1.84069 0
M  V30 11523 H 1101.33 4.65054 -4.61958 0
M  V30 11524 H 1100.85 5.19604 -2.99619 0
M  V30 11525 H 1102.53 5.40816 -3.55144 0
M  V30 11526 N 1102.66 0.908147 1.28804 0
M  V30 11527 C 1103.89 0.553431 1.9988 0
M  V30 11528 C 1104.31 -0.856714 1.67458 0
M  V30 11529 O 1103.67 -1.57163 0.903849 0
M  V30 11530 C 1103.72 0.762688 3.52442 0
M  V30 11531 O 1102.82 -0.180924 4.12003 0
M  V30 11532 H 1102.16 0.215237 0.628147 0
M  V30 11533 H 1104.69 1.22205 1.64095 0
M  V30 11534 H 1104.7 0.670612 4.02451 0
M  V30 11535 H 1103.38 1.79071 3.75375 0
M  V30 11536 H 1101.96 -0.0405897 3.72878 0
M  V30 11537 N 1104.14 -1.42577 0.671525 0
M  V30 11538 C 1105.09 -2.32591 -0.0205354 0
M  V30 11539 C 1106.08 -1.4964 -0.793993 0
M  V30 11540 O 1107.29 -1.65733 -0.702327 0
M  V30 11541 H 1103.66 -0.75157 -0.0254344 0
M  V30 11542 H 1105.63 -2.88662 0.756082 0
M  V30 11543 C 1104.38 -3.34175 -0.960316 0
M  V30 11544 H 1103.71 -3.98041 -0.374577 0
M  V30 11545 H 1105.15 -3.99752 -1.4133 0
M  V30 11546 C 1103.61 -2.66184 -2.06513 0
M  V30 11547 O 1104.14 -2.49125 -3.15119 0
M  V30 11548 N 1102.34 -2.25261 -1.83591 0
M  V30 11549 H 1101.89 -2.39336 -0.952689 0
M  V30 11550 H 1101.85 -1.80101 -2.57703 0
M  V30 11551 N 1105.62 -0.414636 -1.52048 0
M  V30 11552 C 1106.9 0.218172 -1.94379 0
M  V30 11553 C 1107.28 1.62133 -1.35189 0
M  V30 11554 O 1106.62 2.22271 -0.529877 0
M  V30 11555 C 1106.83 0.218932 -3.48313 0
M  V30 11556 C 1108.18 0.435604 -4.2236 0
M  V30 11557 O 1109.21 0.298049 -3.54951 0
M  V30 11558 O 1108.06 0.707217 -5.41905 0
M  V30 11559 H 1105.16 0.142173 -0.814688 0
M  V30 11560 H 1107.7 -0.470977 -1.63033 0
M  V30 11561 H 1106.48 -0.76292 -3.83791 0
M  V30 11562 H 1106.1 0.951949 -3.86036 0
M  V30 11563 N 1107.1 1.56929 -0.145233 0
M  V30 11564 C 1108.03 2.19685 0.791263 0
M  V30 11565 C 1109.01 1.14455 1.25833 0
M  V30 11566 O 1110.19 1.42791 1.31622 0
M  V30 11567 C 1107.32 2.81705 2.03124 0
M  V30 11568 C 1106.28 3.92746 1.70101 0
M  V30 11569 C 1105.6 4.41694 3.01347 0
M  V30 11570 C 1106.9 5.13606 0.949025 0
M  V30 11571 H 1108.6 2.98196 0.26825 0
M  V30 11572 H 1106.14 1.43434 0.127584 0
M  V30 11573 H 1108.1 3.24273 2.69119 0
M  V30 11574 H 1106.82 2.00523 2.57795 0
M  V30 11575 H 1105.48 3.50794 1.06486 0
M  V30 11576 H 1105.13 3.57336 3.54006 0
M  V30 11577 H 1104.83 5.1659 2.80016 0
M  V30 11578 H 1106.35 4.86931 3.68416 0
M  V30 11579 H 1107.76 5.53029 1.51102 0
M  V30 11580 H 1106.16 5.94252 0.835711 0
M  V30 11581 H 1107.23 4.84863 -0.0595631 0
M  V30 11582 N 1108.58 -0.128553 1.57075 0
M  V30 11583 C 1109.49 -1.17718 2.02927 0
M  V30 11584 C 1110.5 -1.45912 0.947932 0
M  V30 11585 O 1111.68 -1.57217 1.25876 0
M  V30 11586 C 1108.74 -2.48625 2.41633 0
M  V30 11587 C 1107.8 -2.27914 3.63804 0
M  V30 11588 C 1107.04 -3.52579 4.00654 0
M  V30 11589 O 1107.26 -4.59505 3.37952 0
M  V30 11590 O 1106.19 -3.44147 4.93808 0
M  V30 11591 H 1110.02 -0.817846 2.92481 0
M  V30 11592 H 1107.6 -0.338649 1.45511 0
M  V30 11593 H 1109.49 -3.2577 2.67305 0
M  V30 11594 H 1108.16 -2.84052 1.55229 0
M  V30 11595 H 1107.07 -1.4866 3.43294 0
M  V30 11596 H 1108.4 -1.97395 4.50883 0
M  V30 11597 N 1110.05 -1.5248 -0.398459 0
M  V30 11598 C 1110.98 -1.79549 -1.49279 0
M  V30 11599 C 1111.96 -0.647004 -1.57315 0
M  V30 11600 O 1113.15 -0.893661 -1.72416 0
M  V30 11601 C 1110.28 -1.95582 -2.86993 0
M  V30 11602 C 1109.23 -3.1123 -2.93803 0
M  V30 11603 C 1108.56 -3.12501 -4.33874 0
M  V30 11604 C 1109.86 -4.50485 -2.64312 0
M  V30 11605 H 1111.55 -2.71187 -1.26877 0
M  V30 11606 H 1109.1 -1.30492 -0.608924 0
M  V30 11607 H 1111.05 -2.13102 -3.63546 0
M  V30 11608 H 1109.78 -1.00625 -3.10712 0
M  V30 11609 H 1108.44 -2.93477 -2.19697 0
M  V30 11610 H 1108.08 -2.15245 -4.54619 0
M  V30 11611 H 1107.78 -3.90183 -4.39353 0
M  V30 11612 H 1109.31 -3.32164 -5.12347 0
M  V30 11613 H 1110.72 -4.68387 -3.30585 0
M  V30 11614 H 1109.12 -5.30163 -2.81153 0
M  V30 11615 H 1110.19 -4.57848 -1.59696 0
M  V30 11616 O 1111.57 0.544374 -1.52049 0
M  V30 11617 H 1112.26 1.19952 -1.5209 0
M  V30 END ATOM
M  V30 BEGIN BOND
M  V30 END BOND
M  V30 END CTAB
M  END
$$$$
