drugbank_target|Q96LB9 Peptidoglycan recognition protein 3 (DB04736)
 OpenBabel12092120273D

  0  0  0     0  0            999 V3000
M  V30 BEGIN CTAB
M  V30 COUNTS 5254 5329 0 0 0
M  V30 BEGIN ATOM
M  V30 1 H -0.908 1.98254 -0.117106 0
M  V30 2 N 0 1.576 0 0
M  V30 3 C 0.933 2.03868 1.02534 0
M  V30 4 C 1.911 0.928543 1.3348 0
M  V30 5 O 3.095 1.19667 1.45644 0
M  V30 6 C 0.222 2.43627 2.35294 0
M  V30 7 C -0.732 3.65373 2.2001 0
M  V30 8 S 0.101 5.13292 1.52614 0
M  V30 9 C 1.257 5.56322 2.86805 0
M  V30 10 H 1.49 2.90518 0.631377 0
M  V30 11 H -0.977 1.52953 0.210867 0
M  V30 12 H 0.981 2.67203 3.11629 0
M  V30 13 H -0.358 1.57376 2.7183 0
M  V30 14 H -1.165 3.90944 3.18086 0
M  V30 15 H -1.563 3.418 1.51819 0
M  V30 16 H 0.729 5.58782 3.83104 0
M  V30 17 H 1.672 6.56266 2.65933 0
M  V30 18 H 2.08 4.83886 2.90714 0
M  V30 19 N 1.4781 -0.272755 1.55222 0
M  V30 20 C 2.7261 -1.00234 1.75492 0
M  V30 21 C 3.0471 -1.8681 0.5592 0
M  V30 22 O 2.3171 -1.91215 -0.425882 0
M  V30 23 H 0.8971 -0.373076 0.647166 0
M  V30 24 H 3.5591 -0.296926 1.92625 0
M  V30 25 H 2.6551 -1.63913 2.65592 0
M  V30 26 N 2.9562 -1.48159 -0.537278 0
M  V30 27 C 4.1842 -1.59454 -1.31841 0
M  V30 28 C 4.5992 -0.252065 -1.8711 0
M  V30 29 O 3.9562 0.757621 -1.66031 0
M  V30 30 C 4.0072 -2.63546 -2.47439 0
M  V30 31 O 3.7282 -3.92583 -1.94449 0
M  V30 32 C 5.2292 -2.85212 -3.39366 0
M  V30 33 H 2.4492 -0.53785 -0.401196 0
M  V30 34 H 4.9932 -1.93932 -0.648891 0
M  V30 35 H 3.1482 -2.31946 -3.1029 0
M  V30 36 H 3.5622 -4.49629 -2.70063 0
M  V30 37 H 5.0362 -3.61863 -4.16844 0
M  V30 38 H 5.5132 -1.93765 -3.94147 0
M  V30 39 H 6.1192 -3.18086 -2.82314 0
M  V30 40 N 4.4343 0.785586 -1.36625 0
M  V30 41 C 5.3643 1.91259 -1.33949 0
M  V30 42 C 6.3453 1.68795 -0.210325 0
M  V30 43 O 7.5303 1.89854 -0.408561 0
M  V30 44 C 4.6603 3.28339 -1.13186 0
M  V30 45 C 3.6143 3.65335 -2.22967 0
M  V30 46 C 2.9403 5.00806 -1.87342 0
M  V30 47 C 4.2403 3.7352 -3.65075 0
M  V30 48 H 5.9343 1.93755 -2.28253 0
M  V30 49 H 3.4803 0.930788 -1.09874 0
M  V30 50 H 5.4333 4.06804 -1.09948 0
M  V30 51 H 4.1573 3.2624 -0.153332 0
M  V30 52 H 2.8163 2.89169 -2.25337 0
M  V30 53 H 2.4643 4.95233 -0.880545 0
M  V30 54 H 2.1643 5.26529 -2.60846 0
M  V30 55 H 3.6883 5.81687 -1.85667 0
M  V30 56 H 5.1023 4.42168 -3.64911 0
M  V30 57 H 3.4993 4.10731 -4.37516 0
M  V30 58 H 4.5693 2.74527 -3.99703 0
M  V30 59 N 5.9124 1.20967 1.01018 0
M  V30 60 C 7.3234 1.02319 1.56165 0
M  V30 61 C 7.6744 -0.418546 1.91684 0
M  V30 62 O 6.7994 -1.30096 1.72928 0
M  V30 63 C 7.3944 1.85109 2.8376 0
M  V30 64 C 5.9534 1.70809 3.35412 0
M  V30 65 C 5.1004 1.82643 2.08655 0
M  V30 66 H 8.0514 1.35065 0.833255 0
M  V30 67 H 8.0724 1.35827 3.55431 0
M  V30 68 H 7.5844 2.90035 2.57878 0
M  V30 69 H 5.6854 0.685464 3.66241 0
M  V30 70 H 5.7984 2.52467 4.07182 0
M  V30 71 H 4.1624 1.25896 2.21409 0
M  V30 72 H 4.9454 2.89066 1.85191 0
M  V30 73 N 7.3905 -1.2043 1.01659 0
M  V30 74 C 8.6365 -1.90356 0.716674 0
M  V30 75 C 8.9915 -1.77367 -0.745557 0
M  V30 76 O 8.2845 -1.1471 -1.53467 0
M  V30 77 C 8.4785 -3.40464 1.08714 0
M  V30 78 C 8.3075 -3.6806 2.58384 0
M  V30 79 C 7.0775 -3.86775 3.25167 0
M  V30 80 C 9.2755 -3.70623 3.56572 0
M  V30 81 N 7.2575 -4.01889 4.64067 0
M  V30 82 C 8.6285 -3.91161 4.81034 0
M  V30 83 C 10.6835 -3.53586 3.50544 0
M  V30 84 C 9.3865 -3.96428 6.00198 0
M  V30 85 C 11.4125 -3.60125 4.6911 0
M  V30 86 C 10.7745 -3.81135 5.92381 0
M  V30 87 H 6.8735 -0.716226 0.313918 0
M  V30 88 H 9.4575 -1.44815 1.30141 0
M  V30 89 H 7.6285 -3.84757 0.530745 0
M  V30 90 H 9.3605 -3.97863 0.740763 0
M  V30 91 H 6.1155 -3.85156 2.75594 0
M  V30 92 H 6.5395 -4.13323 5.36184 0
M  V30 93 H 11.1815 -3.36308 2.56235 0
M  V30 94 H 8.8995 -4.12502 6.94887 0
M  V30 95 H 12.4855 -3.4825 4.66062 0
M  V30 96 H 11.3655 -3.86054 6.82592 0
M  V30 97 N 8.8686 -0.792821 -1.36206 0
M  V30 98 C 9.7986 -0.207853 -2.32573 0
M  V30 99 C 10.7796 0.659055 -1.56813 0
M  V30 100 O 11.9646 0.592176 -1.84951 0
M  V30 101 C 9.0946 0.655449 -3.41059 0
M  V30 102 C 8.0486 -0.111842 -4.27854 0
M  V30 103 C 7.3746 0.872274 -5.27537 0
M  V30 104 C 8.6746 -1.30299 -5.05786 0
M  V30 105 H 10.3686 -1.01294 -2.81744 0
M  V30 106 H 7.9146 -0.48854 -1.3546 0
M  V30 107 H 9.8676 1.07464 -4.07467 0
M  V30 108 H 8.5916 1.49328 -2.90463 0
M  V30 109 H 7.2506 -0.512053 -3.63006 0
M  V30 110 H 6.8986 1.70523 -4.73214 0
M  V30 111 H 6.5986 0.363291 -5.86476 0
M  V30 112 H 8.1226 1.28996 -5.96818 0
M  V30 113 H 9.5366 -0.959379 -5.65216 0
M  V30 114 H 7.9336 -1.7455 -5.74154 0
M  V30 115 H 9.0036 -2.09663 -4.37229 0
M  V30 116 N 10.3467 1.47872 -0.545128 0
M  V30 117 C 11.2767 2.32661 0.197793 0
M  V30 118 C 12.2577 1.43041 0.920504 0
M  V30 119 O 13.4427 1.71912 0.90333 0
M  V30 120 C 10.5727 3.24569 1.23582 0
M  V30 121 C 9.5267 4.23333 0.630323 0
M  V30 122 C 8.8527 5.0448 1.77211 0
M  V30 123 C 10.1527 5.20704 -0.407974 0
M  V30 124 H 11.8467 2.95024 -0.510045 0
M  V30 125 H 9.3927 1.4187 -0.246731 0
M  V30 126 H 11.3457 3.8272 1.76362 0
M  V30 127 H 10.0697 2.60236 1.97344 0
M  V30 128 H 8.7287 3.6639 0.123922 0
M  V30 129 H 8.3767 4.36561 2.49847 0
M  V30 130 H 8.0767 5.71339 1.37281 0
M  V30 131 H 9.6007 5.65487 2.3034 0
M  V30 132 H 11.0147 5.7329 0.033305 0
M  V30 133 H 9.4117 5.95699 -0.725486 0
M  V30 134 H 10.4817 4.66917 -1.30828 0
M  V30 135 N 11.8248 0.280983 1.55075 0
M  V30 136 C 12.7878 -0.590896 2.21452 0
M  V30 137 C 13.7878 -1.07682 1.19421 0
M  V30 138 O 14.9778 -0.97605 1.44288 0
M  V30 139 C 12.1098 -1.81587 2.88511 0
M  V30 140 H 13.3028 -0.0112554 2.99898 0
M  V30 141 H 10.8558 0.0316438 1.56268 0
M  V30 142 H 11.5908 -2.43587 2.14093 0
M  V30 143 H 11.3758 -1.4753 3.63287 0
M  V30 144 H 12.8658 -2.43575 3.39206 0
M  V30 145 N 13.3029 -1.57598 0.00835791 0
M  V30 146 C 14.5499 -1.90928 -0.674732 0
M  V30 147 C 14.8779 -0.88277 -1.73313 0
M  V30 148 O 14.1329 0.111294 -1.95383 0
M  V30 149 C 14.4319 -3.3101 -1.34787 0
M  V30 150 C 14.0979 -4.48922 -0.421861 0
M  V30 151 C 12.7599 -4.8091 -0.166927 0
M  V30 152 C 15.1119 -5.20755 0.215211 0
M  V30 153 C 12.4399 -5.821 0.733232 0
M  V30 154 C 14.7919 -6.22905 1.1033 0
M  V30 155 C 13.4559 -6.53346 1.36733 0
M  V30 156 H 12.7259 -0.698656 -0.246902 0
M  V30 157 H 15.3729 -1.91387 0.0656779 0
M  V30 158 H 13.6779 -3.26714 -2.16253 0
M  V30 159 H 15.3749 -3.54061 -1.8826 0
M  V30 160 H 11.9649 -4.23934 -0.630729 0
M  V30 161 H 16.1489 -4.9629 0.0312829 0
M  V30 162 H 11.4049 -6.04042 0.945712 0
M  V30 163 H 15.5789 -6.77694 1.60325 0
M  V30 164 H 13.2059 -7.31573 2.06652 0
M  V30 165 N 14.781 0.264519 -1.55364 0
M  V30 166 C 16.028 0.994986 -1.7637 0
M  V30 167 C 16.356 1.85976 -0.5695 0
M  V30 168 O 15.611 1.90509 0.44776 0
M  V30 169 C 15.91 1.9004 -3.02687 0
M  V30 170 C 15.576 1.19243 -4.34847 0
M  V30 171 C 14.238 0.996709 -4.70764 0
M  V30 172 C 16.59 0.689296 -5.16622 0
M  V30 173 C 13.918 0.285261 -5.86006 0
M  V30 174 C 16.27 -0.00860079 -6.32599 0
M  V30 175 C 14.934 -0.215963 -6.67151 0
M  V30 176 H 14.204 0.364091 -0.645383 0
M  V30 177 H 16.851 0.266543 -1.89636 0
M  V30 178 H 15.156 2.69533 -2.84357 0
M  V30 179 H 16.853 2.46695 -3.16137 0
M  V30 180 H 13.443 1.3549 -4.06621 0
M  V30 181 H 17.627 0.828108 -4.89342 0
M  V30 182 H 12.883 0.113961 -6.11294 0
M  V30 183 H 17.057 -0.406186 -6.95214 0
M  V30 184 H 14.684 -0.769217 -7.56298 0
M  V30 185 N 16.2591 1.48442 0.529413 0
M  V30 186 C 17.5081 1.55742 1.28169 0
M  V30 187 C 17.8211 0.236511 1.94165 0
M  V30 188 O 19.0271 0.187761 2.7085 0
M  V30 189 C 17.4831 2.74667 2.32564 0
M  V30 190 C 17.0911 4.13402 1.72636 0
M  V30 191 C 18.8351 2.9128 3.08798 0
M  V30 192 C 16.7421 5.23587 2.74975 0
M  V30 193 H 15.6721 0.579796 0.48203 0
M  V30 194 H 18.3231 1.74776 0.559056 0
M  V30 195 H 16.7051 2.49067 3.07866 0
M  V30 196 H 17.8791 4.49022 1.03519 0
M  V30 197 H 16.1941 4.0191 1.08892 0
M  V30 198 H 18.7911 3.70767 3.85274 0
M  V30 199 H 19.1341 2.00757 3.64695 0
M  V30 200 H 19.6671 3.16782 2.40611 0
M  V30 201 H 16.4061 6.16076 2.23897 0
M  V30 202 H 15.9261 4.92454 3.42417 0
M  V30 203 H 17.6051 5.51724 3.37949 0
M  V30 204 N 17.7372 -0.778329 1.37039 0
M  V30 205 C 18.6672 -1.90546 1.34962 0
M  V30 206 C 19.6482 -1.68681 0.219274 0
M  V30 207 O 20.8332 -1.89634 0.418624 0
M  V30 208 C 17.9632 -3.27734 1.14925 0
M  V30 209 C 16.9172 -3.64147 2.24902 0
M  V30 210 C 16.2432 -4.99806 1.89996 0
M  V30 211 C 17.5432 -3.71579 3.67051 0
M  V30 212 H 19.2372 -1.92541 2.29277 0
M  V30 213 H 16.7832 -0.924948 1.10366 0
M  V30 214 H 18.7362 -4.06215 1.12104 0
M  V30 215 H 17.4602 -3.26154 0.170631 0
M  V30 216 H 16.1192 -2.8797 2.26868 0
M  V30 217 H 15.7672 -4.94759 0.906796 0
M  V30 218 H 15.4672 -5.25139 2.63634 0
M  V30 219 H 16.9912 -5.80694 1.88749 0
M  V30 220 H 18.4052 -4.40227 3.67251 0
M  V30 221 H 16.8022 -4.08405 4.39688 0
M  V30 222 H 17.8722 -2.72404 4.01154 0
M  V30 223 N 19.2153 -1.21501 -1.00376 0
M  V30 224 C 20.4633 -1.03095 -1.73827 0
M  V30 225 C 20.7843 0.436341 -1.90055 0
M  V30 226 O 20.0543 1.31466 -1.45236 0
M  V30 227 H 18.6343 -0.378487 -0.644016 0
M  V30 228 H 21.2963 -1.52831 -1.20949 0
M  V30 229 H 20.3923 -1.49991 -2.73695 0
M  V30 230 N 20.6934 1.19889 -1.02296 0
M  V30 231 C 21.6234 2.25141 -0.619174 0
M  V30 232 C 22.6044 1.66051 0.368915 0
M  V30 233 O 23.7894 1.92546 0.252941 0
M  V30 234 C 20.9194 3.4728 0.0368783 0
M  V30 235 C 19.8734 4.19005 -0.872865 0
M  V30 236 C 19.1994 5.34637 -0.0822402 0
M  V30 237 C 20.4994 4.74452 -2.18387 0
M  V30 238 H 22.1934 2.59171 -1.49903 0
M  V30 239 H 19.7394 1.24579 -0.722222 0
M  V30 240 H 21.6924 4.20098 0.330958 0
M  V30 241 H 20.4164 3.12433 0.95149 0
M  V30 242 H 19.0754 3.48061 -1.15105 0
M  V30 243 H 18.7234 4.96034 0.83422 0
M  V30 244 H 18.4234 5.83557 -0.688149 0
M  V30 245 H 19.9474 6.10255 0.205238 0
M  V30 246 H 21.3614 5.39055 -1.95172 0
M  V30 247 H 19.7584 5.33834 -2.74119 0
M  V30 248 H 20.8284 3.92844 -2.84257 0
M  V30 249 N 22.1715 0.800033 1.35784 0
M  V30 250 C 23.1035 0.163596 2.28615 0
M  V30 251 C 24.1165 -0.633317 1.49976 0
M  V30 252 O 25.3055 -0.466754 1.72289 0
M  V30 253 C 22.4055 -0.790958 3.29541 0
M  V30 254 C 21.5785 -0.0418255 4.3738 0
M  V30 255 C 20.6375 -0.91389 5.18203 0
M  V30 256 O 19.6635 -0.367234 5.68014 0
M  V30 257 N 20.8655 -2.23682 5.35674 0
M  V30 258 H 23.6305 0.96105 2.83873 0
M  V30 259 H 21.1915 0.654894 1.48063 0
M  V30 260 H 23.1835 -1.37844 3.80501 0
M  V30 261 H 21.7535 -1.48925 2.74846 0
M  V30 262 H 20.9735 0.726813 3.87442 0
M  V30 263 H 22.2615 0.474719 5.06581 0
M  V30 264 H 21.6595 -2.70497 4.96838 0
M  V30 265 H 20.2165 -2.77369 5.89839 0
M  V30 266 N 23.6496 -1.47581 0.552962 0
M  V30 267 C 24.6126 -2.28439 -0.186605 0
M  V30 268 C 25.6126 -1.36706 -0.84665 0
M  V30 269 O 26.8026 -1.59378 -0.703164 0
M  V30 270 C 23.9346 -3.16264 -1.2724 0
M  V30 271 H 25.1276 -2.95294 0.523609 0
M  V30 272 H 22.6806 -1.532 0.309745 0
M  V30 273 H 23.4156 -2.54091 -2.01514 0
M  V30 274 H 23.2006 -3.83769 -0.803968 0
M  V30 275 H 24.6906 -3.77198 -1.79196 0
M  V30 276 N 25.1277 -0.289203 -1.54924 0
M  V30 277 C 26.3737 0.316922 -2.00916 0
M  V30 278 C 26.7287 1.52424 -1.17408 0
M  V30 279 O 26.0217 1.90097 -0.239536 0
M  V30 280 C 26.2157 0.736119 -3.49737 0
M  V30 281 C 26.0447 -0.429036 -4.47649 0
M  V30 282 C 24.8147 -0.917311 -4.96904 0
M  V30 283 C 27.0127 -1.27016 -4.98369 0
M  V30 284 N 24.9947 -2.05046 -5.78644 0
M  V30 285 C 26.3657 -2.25097 -5.77695 0
M  V30 286 C 28.4207 -1.30188 -4.80578 0
M  V30 287 C 27.1237 -3.26114 -6.41126 0
M  V30 288 C 29.1497 -2.30057 -5.44819 0
M  V30 289 C 28.5117 -3.2687 -6.23968 0
M  V30 290 H 24.6107 0.0807535 -0.777819 0
M  V30 291 H 27.1947 -0.416434 -1.90194 0
M  V30 292 H 25.3657 1.43867 -3.60773 0
M  V30 293 H 27.0977 1.32078 -3.82541 0
M  V30 294 H 23.8527 -0.494248 -4.71014 0
M  V30 295 H 24.2767 -2.62108 -6.24202 0
M  V30 296 H 28.9187 -0.567163 -4.18979 0
M  V30 297 H 26.6367 -4.00512 -7.01866 0
M  V30 298 H 30.2227 -2.33271 -5.32988 0
M  V30 299 H 29.1027 -4.02883 -6.72796 0
M  V30 300 N 26.6058 1.57591 -0.0167156 0
M  V30 301 C 27.8828 1.82547 0.702564 0
M  V30 302 C 28.2628 0.898018 1.91047 0
M  V30 303 O 27.6108 -0.0493456 2.28447 0
M  V30 304 C 27.8208 3.31459 1.09251 0
M  V30 305 C 29.1688 3.97622 1.48937 0
M  V30 306 O 30.1928 3.35881 1.18584 0
M  V30 307 O 29.0518 5.06415 2.05442 0
M  V30 308 H 26.1458 0.752268 0.343544 0
M  V30 309 H 28.6918 1.69644 -0.0434495 0
M  V30 310 H 27.4638 3.9061 0.23227 0
M  V30 311 H 27.0868 3.49422 1.89709 0
M  V30 312 N 28.0839 -0.256276 1.55502 0
M  V30 313 C 29.3119 -1.00342 1.8094 0
M  V30 314 C 29.7269 -1.79307 0.59114 0
M  V30 315 O 29.0839 -1.77114 -0.440081 0
M  V30 316 C 29.1349 -1.94875 3.04476 0
M  V30 317 O 28.8559 -1.19107 4.21598 0
M  V30 318 C 30.3569 -2.81266 3.42644 0
M  V30 319 H 27.5769 -0.295685 0.602338 0
M  V30 320 H 30.1209 -0.281998 2.02546 0
M  V30 321 H 28.2759 -2.62457 2.84947 0
M  V30 322 H 28.6899 -1.82969 4.91551 0
M  V30 323 H 30.1639 -3.43362 4.32211 0
M  V30 324 H 30.6409 -3.51897 2.62802 0
M  V30 325 H 31.2469 -2.1915 3.64491 0
M  V30 326 N 29.562 -1.4872 -0.521534 0
M  V30 327 C 30.973 -1.50607 -1.10337 0
M  V30 328 C 31.324 -0.280612 -1.94183 0
M  V30 329 O 30.449 0.611507 -2.0758 0
M  V30 330 C 31.044 -2.72903 -2.00772 0
M  V30 331 C 29.603 -2.77634 -2.54158 0
M  V30 332 C 28.75 -2.44241 -1.31307 0
M  V30 333 H 31.701 -1.55714 -0.306388 0
M  V30 334 H 31.722 -2.519 -2.85178 0
M  V30 335 H 31.234 -3.62077 -1.39721 0
M  V30 336 H 29.335 -1.92689 -3.18907 0
M  V30 337 H 29.448 -3.79283 -2.92714 0
M  V30 338 H 27.812 -1.95577 -1.63161 0
M  V30 339 H 28.595 -3.35666 -0.719943 0
M  V30 340 N 31.0401 0.771051 -1.3745 0
M  V30 341 C 32.2681 1.56015 -1.35893 0
M  V30 342 C 32.6831 1.88718 0.0555523 0
M  V30 343 O 32.0401 1.51502 1.01752 0
M  V30 344 C 32.0911 2.87001 -2.19801 0
M  V30 345 O 31.8121 2.557 -3.55738 0
M  V30 346 C 33.3131 3.81228 -2.26231 0
M  V30 347 H 30.5331 0.483317 -0.465453 0
M  V30 348 H 33.0771 0.955611 -1.80799 0
M  V30 349 H 31.2321 3.43877 -1.78402 0
M  V30 350 H 31.6461 3.39584 -3.99729 0
M  V30 351 H 33.1201 4.70139 -2.89263 0
M  V30 352 H 33.5971 4.20409 -1.27093 0
M  V30 353 H 34.2031 3.30281 -2.67945 0
M  V30 354 N 32.5182 1.22032 0.997298 0
M  V30 355 C 33.7672 1.03637 1.73038 0
M  V30 356 C 34.0802 -0.429475 1.90827 0
M  V30 357 O 35.2862 -0.732995 2.61418 0
M  V30 358 C 33.7422 1.80582 3.11317 0
M  V30 359 C 33.3502 3.31387 3.01474 0
M  V30 360 C 35.0942 1.70621 3.88701 0
M  V30 361 C 33.0012 4.00791 4.3488 0
M  V30 362 H 31.9312 0.384179 0.648785 0
M  V30 363 H 34.5822 1.4584 1.11368 0
M  V30 364 H 32.9642 1.31175 3.73643 0
M  V30 365 H 34.1382 3.88155 2.4834 0
M  V30 366 H 32.4532 3.41976 2.37575 0
M  V30 367 H 35.0502 2.19799 4.87434 0
M  V30 368 H 35.3932 0.665823 4.10941 0
M  V30 369 H 35.9262 2.17547 3.33044 0
M  V30 370 H 32.6652 5.05064 4.1784 0
M  V30 371 H 32.1852 3.48811 4.87945 0
M  V30 372 H 33.8642 4.06139 5.03647 0
M  V30 373 N 33.9963 -1.19345 1.0293 0
M  V30 374 C 35.2423 -1.89318 0.727083 0
M  V30 375 C 35.5753 -1.79446 -0.742483 0
M  V30 376 O 34.8503 -1.1871 -1.54072 0
M  V30 377 C 35.1333 -3.40238 1.17942 0
M  V30 378 C 34.9863 -3.58979 2.71024 0
M  V30 379 C 36.3053 -4.33479 0.760548 0
M  V30 380 H 33.4243 -0.687475 0.265606 0
M  V30 381 H 36.0663 -1.40477 1.2793 0
M  V30 382 H 34.2163 -3.81964 0.709608 0
M  V30 383 H 35.8883 -3.26421 3.25955 0
M  V30 384 H 34.1313 -3.02018 3.11396 0
M  V30 385 H 34.8023 -4.64823 2.9773 0
M  V30 386 H 37.2783 -3.99469 1.16464 0
M  V30 387 H 36.1543 -5.37664 1.10493 0
M  V30 388 H 36.4153 -4.40813 -0.337063 0
M  V30 389 N 35.4744 -0.807222 -1.35358 0
M  V30 390 C 36.6994 -0.399309 -2.0352 0
M  V30 391 C 37.1244 0.981986 -1.60433 0
M  V30 392 O 36.4824 1.63601 -0.781299 0
M  V30 393 C 36.5304 -0.491552 -3.57234 0
M  V30 394 O 35.6344 0.494754 -4.09421 0
M  V30 395 H 34.9754 -0.166682 -0.642739 0
M  V30 396 H 37.5054 -1.09328 -1.72941 0
M  V30 397 H 37.5154 -0.361588 -4.06395 0
M  V30 398 H 36.1904 -1.49907 -3.87944 0
M  V30 399 H 34.7674 0.324977 -3.71481 0
M  V30 400 N 36.9525 1.47285 -0.560781 0
M  V30 401 C 38.3685 1.58065 -0.22081 0
M  V30 402 C 38.5685 1.55892 1.27671 0
M  V30 403 O 37.6245 1.46422 2.0571 0
M  V30 404 C 38.9375 2.88418 -0.850625 0
M  V30 405 C 40.4855 3.02009 -0.822184 0
M  V30 406 C 40.9605 4.35066 -1.43113 0
M  V30 407 N 42.4515 4.41711 -1.39448 0
M  V30 408 C 43.1865 5.43237 -1.83525 0
M  V30 409 N 42.6825 6.51555 -2.35474 0
M  V30 410 N 44.4755 5.34304 -1.74574 0
M  V30 411 H 36.6265 1.46941 -1.53369 0
M  V30 412 H 38.8895 0.699558 -0.639783 0
M  V30 413 H 38.5955 2.95755 -1.9032 0
M  V30 414 H 38.4695 3.75612 -0.345773 0
M  V30 415 H 40.8565 2.94266 0.221714 0
M  V30 416 H 40.9375 2.16347 -1.36483 0
M  V30 417 H 40.5815 4.43565 -2.47412 0
M  V30 418 H 40.5115 5.19465 -0.863899 0
M  V30 419 H 43.0025 3.64027 -1.01452 0
M  V30 420 H 43.3155 7.25203 -2.67021 0
M  V30 421 H 41.6605 6.52435 -2.39487 0
M  V30 422 H 44.8515 4.48581 -1.33763 0
M  V30 423 H 45.0245 6.13288 -2.09242 0
M  V30 424 N 38.4306 0.297415 1.54768 0
M  V30 425 C 39.3776 -0.580276 2.23386 0
M  V30 426 C 40.3476 -1.13238 1.21517 0
M  V30 427 O 41.5326 -1.17757 1.50126 0
M  V30 428 C 38.6726 -1.74801 2.97555 0
M  V30 429 C 37.7856 -1.22764 4.1419 0
M  V30 430 C 36.9206 -2.35895 4.75949 0
M  V30 431 C 35.9596 -1.80974 5.84735 0
M  V30 432 N 35.0966 -2.87664 6.40464 0
M  V30 433 H 39.9366 0.0114833 2.97998 0
M  V30 434 H 37.4736 0.0174361 1.4709 0
M  V30 435 H 39.4316 -2.43475 3.38786 0
M  V30 436 H 38.0616 -2.31145 2.25326 0
M  V30 437 H 37.1136 -0.433271 3.77924 0
M  V30 438 H 38.4256 -0.785551 4.92575 0
M  V30 439 H 37.5796 -3.12523 5.20014 0
M  V30 440 H 36.3186 -2.83429 3.96887 0
M  V30 441 H 35.3236 -1.02834 5.40097 0
M  V30 442 H 36.5486 -1.34348 6.65678 0
M  V30 443 H 34.4946 -3.34538 5.64287 0
M  V30 444 H 34.4116 -2.4794 7.14186 0
M  V30 445 H 35.6796 -3.642 6.89187 0
M  V30 446 N 39.9087 -1.5758 0.0250728 0
M  V30 447 C 40.8187 -2.1343 -0.973905 0
M  V30 448 C 41.8347 -1.08556 -1.35984 0
M  V30 449 O 43.0107 -1.40592 -1.44207 0
M  V30 450 C 40.0757 -2.64703 -2.23904 0
M  V30 451 C 39.1367 -3.84276 -1.91391 0
M  V30 452 C 38.3697 -4.33095 -3.11873 0
M  V30 453 O 38.5927 -3.81107 -4.24398 0
M  V30 454 O 37.5267 -5.24984 -2.94406 0
M  V30 455 H 41.3527 -2.99057 -0.529036 0
M  V30 456 H 38.9377 -1.48118 -0.195288 0
M  V30 457 H 40.8197 -2.97769 -2.98181 0
M  V30 458 H 39.4947 -1.82161 -2.6758 0
M  V30 459 H 38.4017 -3.56143 -1.14511 0
M  V30 460 H 39.7347 -4.67968 -1.52534 0
M  V30 461 N 41.3868 0.248026 -1.55636 0
M  V30 462 C 42.6328 0.973427 -1.78594 0
M  V30 463 C 42.9878 1.83007 -0.593823 0
M  V30 464 O 42.2808 1.87097 0.412961 0
M  V30 465 C 42.4748 1.86819 -3.04686 0
M  V30 466 C 42.3038 1.09965 -4.36048 0
M  V30 467 C 41.0738 0.805204 -4.98843 0
M  V30 468 C 43.2718 0.477783 -5.12076 0
M  V30 469 N 41.2538 0.0124859 -6.13899 0
M  V30 470 C 42.6248 -0.179565 -6.1974 0
M  V30 471 C 44.6798 0.388136 -4.96385 0
M  V30 472 C 43.3828 -0.91795 -7.13419 0
M  V30 473 C 45.4088 -0.336716 -5.90441 0
M  V30 474 C 44.7708 -0.982705 -6.97511 0
M  V30 475 H 40.8698 0.337348 -0.705493 0
M  V30 476 H 43.4538 0.24667 -1.93131 0
M  V30 477 H 41.6248 2.56698 -2.9148 0
M  V30 478 H 43.3568 2.52907 -3.15944 0
M  V30 479 H 40.1118 1.11671 -4.60246 0
M  V30 480 H 40.5358 -0.371933 -6.75978 0
M  V30 481 H 45.1778 0.873237 -4.13684 0
M  V30 482 H 42.8958 -1.41466 -7.95621 0
M  V30 483 H 46.4818 -0.406731 -5.80377 0
M  V30 484 H 45.3618 -1.53464 -7.69037 0
M  V30 485 N 42.8649 1.48995 0.513639 0
M  V30 486 C 44.1129 1.57531 1.26604 0
M  V30 487 C 44.4339 0.258236 1.93283 0
M  V30 488 O 43.7039 -0.721502 1.8213 0
M  V30 489 H 42.2839 0.580387 0.470276 0
M  V30 490 H 44.9459 1.85552 0.596373 0
M  V30 491 H 44.0419 2.36486 2.03669 0
M  V30 492 N 44.343 -0.763751 1.37857 0
M  V30 493 C 45.306 -1.85889 1.34081 0
M  V30 494 C 46.306 -1.58949 0.243277 0
M  V30 495 O 47.496 -1.66882 0.499589 0
M  V30 496 C 44.628 -3.23176 1.08489 0
M  V30 497 H 45.821 -1.90648 2.31502 0
M  V30 498 H 43.374 -0.964367 1.23003 0
M  V30 499 H 44.109 -3.24091 0.116318 0
M  V30 500 H 43.894 -3.44124 1.8794 0
M  V30 501 H 45.384 -4.03254 1.08517 0
M  V30 502 N 45.8211 -1.22559 -0.990812 0
M  V30 503 C 47.2371 -0.985996 -1.255 0
M  V30 504 C 47.4371 0.319173 -1.98956 0
M  V30 505 O 46.4931 1.04127 -2.3003 0
M  V30 506 C 47.8061 -2.18607 -2.06474 0
M  V30 507 C 49.3541 -2.22985 -2.19651 0
M  V30 508 C 49.8291 -3.4255 -3.04012 0
M  V30 509 N 51.3201 -3.42725 -3.11599 0
M  V30 510 C 52.0551 -4.31892 -3.7717 0
M  V30 511 N 51.5511 -5.31279 -4.44651 0
M  V30 512 N 53.3441 -4.19662 -3.73952 0
M  V30 513 H 45.4951 -2.06469 -0.49841 0
M  V30 514 H 47.7581 -0.904853 -0.282747 0
M  V30 515 H 47.4641 -3.13267 -1.59865 0
M  V30 516 H 47.3381 -2.18838 -3.07229 0
M  V30 517 H 49.7251 -1.28871 -2.65474 0
M  V30 518 H 49.8061 -2.26791 -1.18319 0
M  V30 519 H 49.4501 -4.36965 -2.58889 0
M  V30 520 H 49.3801 -3.35984 -4.0549 0
M  V30 521 H 51.8711 -2.70807 -2.63575 0
M  V30 522 H 52.1841 -5.95593 -4.92431 0
M  V30 523 H 50.5291 -5.3519 -4.43392 0
M  V30 524 H 53.7201 -3.41268 -3.20396 0
M  V30 525 H 53.8931 -4.89358 -4.24774 0
M  V30 526 N 47.2992 1.18797 -1.03562 0
M  V30 527 C 48.7102 1.70322 -0.764676 0
M  V30 528 C 49.0612 1.82708 0.714996 0
M  V30 529 O 48.1862 1.50299 1.55689 0
M  V30 530 C 48.7812 3.09356 -1.38145 0
M  V30 531 C 47.3402 3.58114 -1.15895 0
M  V30 532 C 46.4872 2.34798 -1.4753 0
M  V30 533 H 49.4382 1.03543 -1.20268 0
M  V30 534 H 49.4592 3.72378 -0.781977 0
M  V30 535 H 48.9712 3.00309 -2.45837 0
M  V30 536 H 47.0722 3.72464 -0.100544 0
M  V30 537 H 47.1852 4.4184 -1.8524 0
M  V30 538 H 45.5492 2.38464 -0.894829 0
M  V30 539 H 46.3322 2.28375 -2.56319 0
M  V30 540 N 48.7773 0.814389 1.34928 0
M  V30 541 C 49.7073 0.244827 2.32213 0
M  V30 542 C 50.6883 -0.634024 1.57842 0
M  V30 543 O 51.8733 -0.562676 1.8587 0
M  V30 544 C 49.0033 -0.601106 3.42058 0
M  V30 545 C 47.9573 0.179896 4.27622 0
M  V30 546 C 47.2833 -0.788237 5.28858 0
M  V30 547 C 48.5833 1.38329 5.03649 0
M  V30 548 H 50.2773 1.05763 2.80097 0
M  V30 549 H 47.8233 0.510029 1.34665 0
M  V30 550 H 49.7763 -1.00968 4.09125 0
M  V30 551 H 48.5003 -1.44688 2.92802 0
M  V30 552 H 47.1593 0.569739 3.62146 0
M  V30 553 H 46.8073 -1.62973 4.75866 0
M  V30 554 H 46.5073 -0.269942 5.8698 0
M  V30 555 H 48.0313 -1.19485 5.98795 0
M  V30 556 H 49.4453 1.04918 5.63618 0
M  V30 557 H 47.8423 1.83662 5.71304 0
M  V30 558 H 48.9123 2.16592 4.33839 0
M  V30 559 N 50.2554 -1.46986 0.568584 0
M  V30 560 C 51.2184 -2.28624 -0.162366 0
M  V30 561 C 52.2184 -1.37596 -0.832103 0
M  V30 562 O 53.4084 -1.60115 -0.68622 0
M  V30 563 C 50.5404 -3.17596 -1.23878 0
M  V30 564 H 51.7334 -2.94722 0.554899 0
M  V30 565 H 49.2864 -1.52863 0.325976 0
M  V30 566 H 50.0214 -2.56214 -1.98808 0
M  V30 567 H 49.8064 -3.846 -0.763219 0
M  V30 568 H 51.2964 -3.79078 -1.75185 0
M  V30 569 N 51.7335 -0.305618 -1.54608 0
M  V30 570 C 52.9735 0.303114 -2.0214 0
M  V30 571 C 53.3375 1.50737 -1.18921 0
M  V30 572 O 54.5385 2.18778 -1.56172 0
M  V30 573 C 52.8095 0.646332 -3.51507 0
M  V30 574 S 54.3685 1.23727 -4.20995 0
M  V30 575 H 51.1865 0.0927643 -0.704923 0
M  V30 576 H 53.7885 -0.434566 -1.90609 0
M  V30 577 H 52.4925 -0.238541 -4.09706 0
M  V30 578 H 52.0235 1.41468 -3.67084 0
M  V30 579 H 54.0385 2.52489 -4.27158 0
M  V30 580 N 53.2116 1.57565 -0.0334293 0
M  V30 581 C 54.6276 1.56297 0.322997 0
M  V30 582 C 54.8276 1.03945 1.7262 0
M  V30 583 O 53.8836 0.688109 2.42943 0
M  V30 584 C 55.1966 3.00232 0.167664 0
M  V30 585 C 56.7446 3.12078 0.240107 0
M  V30 586 C 57.2196 4.57859 0.113513 0
M  V30 587 N 58.7106 4.62887 0.170359 0
M  V30 588 C 59.4456 5.73319 0.0962517 0
M  V30 589 N 58.9416 6.92794 -0.0291881 0
M  V30 590 N 60.7346 5.61898 0.150551 0
M  V30 591 H 52.8856 1.89923 -0.950956 0
M  V30 592 H 55.1486 0.873824 -0.367608 0
M  V30 593 H 54.8546 3.42501 -0.799102 0
M  V30 594 H 54.7286 3.654 0.936083 0
M  V30 595 H 57.1156 2.69718 1.19733 0
M  V30 596 H 57.1966 2.49623 -0.558763 0
M  V30 597 H 56.8406 5.009 -0.840314 0
M  V30 598 H 56.7706 5.18299 0.931302 0
M  V30 599 H 59.2616 3.76954 0.26728 0
M  V30 600 H 59.5746 7.7276 -0.0789252 0
M  V30 601 H 57.9196 6.94971 -0.0640299 0
M  V30 602 H 61.1106 4.67448 0.246981 0
M  V30 603 H 61.2836 6.47938 0.0893365 0
M  V30 604 N 54.6897 -0.239769 1.55765 0
M  V30 605 C 55.6527 -1.28038 1.90103 0
M  V30 606 C 56.6527 -1.40723 0.778055 0
M  V30 607 O 57.8427 -1.39301 1.04599 0
M  V30 608 C 54.9747 -2.65702 2.13577 0
M  V30 609 H 56.1677 -0.988048 2.83157 0
M  V30 610 H 53.7207 -0.479382 1.48767 0
M  V30 611 H 54.4557 -3.00063 1.23015 0
M  V30 612 H 54.2407 -2.57875 2.95369 0
M  V30 613 H 55.7307 -3.40828 2.41301 0
M  V30 614 N 56.1678 -1.49265 -0.50573 0
M  V30 615 C 57.0978 -1.68495 -1.61653 0
M  V30 616 C 58.0788 -0.53366 -1.61512 0
M  V30 617 O 59.2638 -0.76897 -1.78327 0
M  V30 618 C 56.3938 -1.74709 -3.00157 0
M  V30 619 C 55.3478 -2.89581 -3.15162 0
M  V30 620 C 54.6738 -2.80903 -4.5497 0
M  V30 621 C 55.9738 -4.30578 -2.95634 0
M  V30 622 H 57.6678 -2.61493 -1.45814 0
M  V30 623 H 55.2138 -1.25838 -0.70005 0
M  V30 624 H 57.1668 -1.86748 -3.77761 0
M  V30 625 H 55.8908 -0.783067 -3.17074 0
M  V30 626 H 54.5498 -2.77136 -2.39982 0
M  V30 627 H 54.1978 -1.82419 -4.68756 0
M  V30 628 H 53.8978 -3.57999 -4.65951 0
M  V30 629 H 55.4218 -2.94944 -5.34641 0
M  V30 630 H 56.8358 -4.4373 -3.63011 0
M  V30 631 H 55.2328 -5.0886 -3.18091 0
M  V30 632 H 56.3028 -4.45352 -1.91806 0
M  V30 633 N 57.6459 0.756429 -1.3826 0
M  V30 634 C 58.5759 1.88374 -1.37976 0
M  V30 635 C 59.5569 1.68311 -0.246082 0
M  V30 636 O 60.7419 1.88944 -0.44874 0
M  V30 637 C 57.8719 3.25864 -1.20125 0
M  V30 638 C 56.8259 3.60523 -2.30666 0
M  V30 639 C 56.1519 4.9672 -1.97923 0
M  V30 640 C 57.4519 3.65692 -3.72916 0
M  V30 641 H 59.1459 1.88869 -2.32312 0
M  V30 642 H 56.6919 0.907272 -1.11824 0
M  V30 643 H 58.6449 4.0438 -1.18552 0
M  V30 644 H 57.3689 3.25841 -0.222498 0
M  V30 645 H 56.0279 2.84324 -2.3142 0
M  V30 646 H 55.6759 4.93253 -0.985393 0
M  V30 647 H 55.3759 5.20878 -2.71955 0
M  V30 648 H 56.8999 5.77618 -1.97964 0
M  V30 649 H 58.3139 4.34328 -3.74208 0
M  V30 650 H 56.7109 4.01358 -4.4613 0
M  V30 651 H 57.7809 2.65987 -4.05436 0
M  V30 652 N 59.124 1.23083 0.984299 0
M  V30 653 C 60.352 1.08714 1.76037 0
M  V30 654 C 60.767 -0.361691 1.85303 0
M  V30 655 O 60.124 -1.25034 1.32939 0
M  V30 656 C 60.175 1.70206 3.18923 0
M  V30 657 O 59.896 3.09423 3.10144 0
M  V30 658 C 61.397 1.61227 4.12941 0
M  V30 659 H 58.617 0.380664 0.552572 0
M  V30 660 H 61.161 1.62853 1.23689 0
M  V30 661 H 59.316 1.20109 3.6831 0
M  V30 662 H 59.73 3.39188 4.00065 0
M  V30 663 H 61.204 2.08962 5.10919 0
M  V30 664 H 61.681 0.570375 4.35481 0
M  V30 665 H 62.287 2.10671 3.69456 0
M  V30 666 N 60.6021 -1.18246 1.0419 0
M  V30 667 C 61.5321 -2.24127 0.654914 0
M  V30 668 C 62.5131 -1.66617 -0.342451 0
M  V30 669 O 63.6981 -1.92924 -0.222277 0
M  V30 670 C 60.8281 -3.47295 0.0183757 0
M  V30 671 C 59.7821 -4.17563 0.939414 0
M  V30 672 C 59.1081 -5.34438 0.167286 0
M  V30 673 C 60.4081 -4.70917 2.25908 0
M  V30 674 H 62.1021 -2.56753 1.54007 0
M  V30 675 H 59.6481 -1.23414 0.74195 0
M  V30 676 H 61.6011 -4.20572 -0.264082 0
M  V30 677 H 60.3251 -3.13907 -0.901664 0
M  V30 678 H 58.9841 -3.46186 1.20628 0
M  V30 679 H 58.6321 -4.97298 -0.7552 0
M  V30 680 H 58.3321 -5.82388 0.780901 0
M  V30 681 H 59.8561 -6.10504 -0.108125 0
M  V30 682 H 61.2701 -5.35882 2.03724 0
M  V30 683 H 59.6671 -5.29406 2.82577 0
M  V30 684 H 60.7371 -3.88272 2.9047 0
M  V30 685 N 62.0802 -0.821533 -1.34494 0
M  V30 686 C 63.4912 -0.467956 -1.8074 0
M  V30 687 C 63.8422 1.01151 -1.68116 0
M  V30 688 O 62.9672 1.78707 -1.22036 0
M  V30 689 C 63.5622 -0.842627 -3.28154 0
M  V30 690 C 62.1212 -0.541439 -3.72485 0
M  V30 691 C 61.2682 -1.06028 -2.56229 0
M  V30 692 H 64.2192 -1.01183 -1.22261 0
M  V30 693 H 64.2402 -0.145876 -3.8022 0
M  V30 694 H 63.7522 -1.91945 -3.37311 0
M  V30 695 H 61.8532 0.526034 -3.68868 0
M  V30 696 H 61.9662 -1.08453 -4.66663 0
M  V30 697 H 60.3302 -0.481892 -2.501 0
M  V30 698 H 61.1132 -2.14352 -2.68157 0
M  V30 699 N 63.5583 1.46682 -0.576371 0
M  V30 700 C 64.8043 2.02712 -0.0596221 0
M  V30 701 C 65.1373 1.44765 1.29448 0
M  V30 702 O 64.4123 0.610355 1.84675 0
M  V30 703 C 64.6953 3.60098 0.0129503 0
M  V30 704 C 64.5483 4.28441 -1.3696 0
M  V30 705 C 65.8673 4.34224 0.71678 0
M  V30 706 H 62.9863 0.736637 -0.0231407 0
M  V30 707 H 65.6283 1.74898 -0.742351 0
M  V30 708 H 63.7783 3.83926 0.594378 0
M  V30 709 H 65.4503 4.15896 -1.9957 0
M  V30 710 H 63.6933 3.8805 -1.93907 0
M  V30 711 H 64.3643 5.3716 -1.27135 0
M  V30 712 H 66.8403 4.15503 0.222908 0
M  V30 713 H 65.7163 5.43936 0.73657 0
M  V30 714 H 65.9773 4.04823 1.77682 0
M  V30 715 N 65.0364 0.313813 1.54444 0
M  V30 716 C 65.9994 -0.54379 2.22656 0
M  V30 717 C 66.9994 -1.05124 1.21678 0
M  V30 718 O 68.1894 -0.945225 1.46325 0
M  V30 719 C 65.3214 -1.75427 2.92298 0
M  V30 720 H 66.5144 0.0523599 2.99854 0
M  V30 721 H 64.0674 0.0647834 1.56166 0
M  V30 722 H 64.8024 -2.38991 2.19211 0
M  V30 723 H 64.5874 -1.39791 3.66334 0
M  V30 724 H 66.0774 -2.36325 3.44297 0
M  V30 725 N 66.5145 -1.57545 0.0417849 0
M  V30 726 C 67.7445 -1.96339 -0.642995 0
M  V30 727 C 68.1525 -0.917536 -1.65463 0
M  V30 728 O 67.4955 0.107747 -1.83384 0
M  V30 729 C 67.5575 -3.31333 -1.39494 0
M  V30 730 C 67.2215 -4.53796 -0.540204 0
M  V30 731 C 68.2185 -5.19553 0.189806 0
M  V30 732 C 65.9035 -5.0006 -0.473886 0
M  V30 733 C 67.8975 -6.29904 0.974674 0
M  V30 734 C 65.5845 -6.10289 0.314677 0
M  V30 735 C 66.5825 -6.75072 1.03765 0
M  V30 736 O 66.2705 -7.83183 1.81327 0
M  V30 737 H 66.0025 -0.651241 -0.181277 0
M  V30 738 H 68.5565 -2.05148 0.101665 0
M  V30 739 H 66.7865 -3.19052 -2.18502 0
M  V30 740 H 68.4755 -3.54942 -1.96904 0
M  V30 741 H 69.2415 -4.84774 0.147981 0
M  V30 742 H 65.1205 -4.49433 -1.0262 0
M  V30 743 H 68.6645 -6.80401 1.5395 0
M  V30 744 H 64.5615 -6.44506 0.358174 0
M  V30 745 H 65.3295 -7.99913 1.73438 0
M  V30 746 N 67.9926 0.231505 -1.5589 0
M  V30 747 C 69.2416 0.955346 -1.7764 0
M  V30 748 C 69.5546 1.85893 -0.608546 0
M  V30 749 O 70.7606 2.62067 -0.70943 0
M  V30 750 C 69.2166 1.74886 -3.14552 0
M  V30 751 C 68.8246 0.891915 -4.39032 0
M  V30 752 C 70.5686 2.46452 -3.45633 0
M  V30 753 C 68.4756 1.68221 -5.66971 0
M  V30 754 H 67.4056 0.360446 -0.662265 0
M  V30 755 H 70.0566 0.209516 -1.823 0
M  V30 756 H 68.4386 2.53723 -3.04041 0
M  V30 757 H 69.6126 0.144793 -4.60572 0
M  V30 758 H 67.9276 0.288863 -4.15397 0
M  V30 759 H 70.5246 3.06061 -4.38441 0
M  V30 760 H 70.8676 3.18841 -2.67668 0
M  V30 761 H 71.4006 1.74613 -3.57428 0
M  V30 762 H 68.1396 1.00178 -6.478 0
M  V30 763 H 67.6596 2.4042 -5.49507 0
M  V30 764 H 69.3386 2.24544 -6.06786 0
M  V30 765 N 69.4707 1.49531 0.497807 0
M  V30 766 C 70.7197 1.58426 1.24837 0
M  V30 767 C 71.0327 0.277643 1.93619 0
M  V30 768 O 72.2387 0.24517 2.70391 0
M  V30 769 C 70.6947 2.79538 2.26686 0
M  V30 770 C 70.3027 4.16971 1.63828 0
M  V30 771 C 72.0467 2.97764 3.0255 0
M  V30 772 C 69.9537 5.29301 2.63807 0
M  V30 773 H 68.8837 0.58989 0.469623 0
M  V30 774 H 71.5347 1.75923 0.521857 0
M  V30 775 H 69.9167 2.55542 3.02514 0
M  V30 776 H 71.0907 4.51116 0.939711 0
M  V30 777 H 69.4057 4.04129 1.00342 0
M  V30 778 H 72.0027 3.78856 3.77323 0
M  V30 779 H 72.3457 2.08448 3.60354 0
M  V30 780 H 72.8787 3.21815 2.33838 0
M  V30 781 H 69.6177 6.20687 2.10779 0
M  V30 782 H 69.1377 4.99606 3.31894 0
M  V30 783 H 70.8167 5.58768 3.2617 0
M  V30 784 N 70.9488 -0.749086 1.3866 0
M  V30 785 C 72.1768 -1.53834 1.38358 0
M  V30 786 C 72.5918 -1.88783 -0.0255219 0
M  V30 787 O 71.9488 -1.53101 -0.993292 0
M  V30 788 C 71.9998 -2.83468 2.2434 0
M  V30 789 O 71.7208 -2.50008 3.5976 0
M  V30 790 C 73.2218 -3.7758 2.32267 0
M  V30 791 H 70.4418 -0.47585 0.473083 0
M  V30 792 H 72.9858 -0.926726 1.82297 0
M  V30 793 H 71.1408 -3.40995 1.83851 0
M  V30 794 H 71.5548 -3.33182 4.05081 0
M  V30 795 H 73.0288 -4.65478 2.96706 0
M  V30 796 H 73.5058 -4.18334 1.33765 0
M  V30 797 H 74.1118 -3.25976 2.73166 0
M  V30 798 N 72.4269 -1.23603 -0.977757 0
M  V30 799 C 73.7039 -0.977897 -1.69401 0
M  V30 800 C 74.0839 0.502738 -2.05026 0
M  V30 801 O 73.4319 1.47459 -1.74551 0
M  V30 802 C 73.6419 -1.89077 -2.93345 0
M  V30 803 C 74.9899 -2.15579 -3.65802 0
M  V30 804 O 76.0139 -1.86648 -3.03383 0
M  V30 805 O 74.8729 -2.64658 -4.78141 0
M  V30 806 H 71.9669 -0.369025 -0.740101 0
M  V30 807 H 74.5129 -1.34657 -1.03274 0
M  V30 808 H 73.2849 -2.89158 -2.63634 0
M  V30 809 H 72.9079 -1.52463 -3.67207 0
M  V30 810 N 73.905 1.17692 -1.04816 0
M  V30 811 C 74.837 2.21103 -0.603822 0
M  V30 812 C 75.85 1.59411 0.33046 0
M  V30 813 O 77.039 1.7807 0.12379 0
M  V30 814 C 74.139 3.38623 0.136898 0
M  V30 815 C 73.312 4.29888 -0.807137 0
M  V30 816 C 72.371 5.26088 -0.10836 0
M  V30 817 O 71.397 5.64353 -0.741232 0
M  V30 818 N 72.599 5.68882 1.15558 0
M  V30 819 H 75.364 2.59848 -1.49329 0
M  V30 820 H 72.925 1.32553 -0.929587 0
M  V30 821 H 74.917 4.00009 0.614401 0
M  V30 822 H 73.487 2.98508 0.927993 0
M  V30 823 H 72.707 3.65993 -1.46434 0
M  V30 824 H 73.995 4.87759 -1.44807 0
M  V30 825 H 73.393 5.39861 1.69015 0
M  V30 826 H 71.95 6.32429 1.57722 0
M  V30 827 N 75.3831 0.828654 1.34056 0
M  V30 828 C 76.3131 0.269443 2.3194 0
M  V30 829 C 77.2941 -0.617247 1.58506 0
M  V30 830 O 78.4791 -0.542931 1.86456 0
M  V30 831 C 75.6091 -0.564793 3.42677 0
M  V30 832 C 74.5631 0.225241 4.27407 0
M  V30 833 C 73.8891 -0.7321 5.29664 0
M  V30 834 C 75.1891 1.43663 5.02154 0
M  V30 835 H 76.8831 1.08728 2.7896 0
M  V30 836 H 74.4291 0.524283 1.34117 0
M  V30 837 H 76.3821 -0.966233 4.10173 0
M  V30 838 H 75.1061 -1.41574 2.9432 0
M  V30 839 H 73.7651 0.608117 3.61521 0
M  V30 840 H 73.4131 -1.57916 4.77568 0
M  V30 841 H 73.1131 -0.20767 5.87233 0
M  V30 842 H 74.6371 -1.13128 6.00029 0
M  V30 843 H 76.0511 1.1089 5.62473 0
M  V30 844 H 74.4481 1.89711 5.69324 0
M  V30 845 H 75.5181 2.21181 4.31517 0
M  V30 846 N 76.8612 -1.46375 0.584142 0
M  V30 847 C 78.2722 -1.86031 0.157959 0
M  V30 848 C 78.6232 -1.48753 -1.27933 0
M  V30 849 O 77.7482 -0.903098 -1.96655 0
M  V30 850 C 78.3432 -3.37642 0.279892 0
M  V30 851 C 76.9022 -3.76289 -0.09143 0
M  V30 852 C 76.0492 -2.7039 0.615178 0
M  V30 853 H 79.0002 -1.37509 0.792274 0
M  V30 854 H 79.0212 -3.77275 -0.494364 0
M  V30 855 H 78.5332 -3.64742 1.32607 0
M  V30 856 H 76.6342 -3.54806 -1.13769 0
M  V30 857 H 76.7472 -4.78246 0.285886 0
M  V30 858 H 75.1112 -2.5464 0.0552833 0
M  V30 859 H 75.8942 -3.0033 1.66303 0
M  V30 860 N 78.3393 -0.321999 -1.54275 0
M  V30 861 C 79.5873 0.280489 -2.00144 0
M  V30 862 C 79.9083 1.52777 -1.21178 0
M  V30 863 O 79.1783 1.9338 -0.313187 0
M  V30 864 H 77.7583 0.106632 -0.73935 0
M  V30 865 H 80.4203 -0.438184 -1.8991 0
M  V30 866 H 79.5163 0.537972 -3.07428 0
M  V30 867 N 79.8174 1.5752 -0.0501392 0
M  V30 868 C 80.7504 2.07026 0.959962 0
M  V30 869 C 81.7284 0.970539 1.30458 0
M  V30 870 O 82.9124 1.2424 1.41763 0
M  V30 871 C 80.0394 2.5099 2.27424 0
M  V30 872 C 79.0854 3.72188 2.08275 0
M  V30 873 S 79.9184 5.17888 1.36207 0
M  V30 874 C 81.0744 5.65165 2.6896 0
M  V30 875 H 81.3074 2.9238 0.538631 0
M  V30 876 H 78.8404 1.53547 0.162099 0
M  V30 877 H 80.7984 2.76982 3.02971 0
M  V30 878 H 79.4594 1.65944 2.66686 0
M  V30 879 H 78.6524 4.00866 3.05487 0
M  V30 880 H 78.2544 3.46457 1.40868 0
M  V30 881 H 80.5464 5.70687 3.65133 0
M  V30 882 H 81.4894 6.64394 2.4492 0
M  V30 883 H 81.8974 4.9289 2.75172 0
M  V30 884 N 81.2955 -0.223234 1.56011 0
M  V30 885 C 82.2275 -1.30006 1.88762 0
M  V30 886 C 83.2405 -1.43129 0.775746 0
M  V30 887 O 84.4295 -1.44057 1.05403 0
M  V30 888 C 81.5295 -2.67589 2.07965 0
M  V30 889 C 80.7025 -2.76434 3.38973 0
M  V30 890 C 79.7615 -3.95019 3.47629 0
M  V30 891 O 78.7875 -3.83436 4.20672 0
M  V30 892 N 79.9895 -5.09249 2.78649 0
M  V30 893 H 82.7545 -1.02238 2.81722 0
M  V30 894 H 80.3155 -0.413278 1.56536 0
M  V30 895 H 82.3075 -3.45297 2.11073 0
M  V30 896 H 80.8775 -2.87964 1.21638 0
M  V30 897 H 80.0975 -1.85216 3.47978 0
M  V30 898 H 81.3855 -2.79313 4.25278 0
M  V30 899 H 80.7835 -5.21556 2.19081 0
M  V30 900 H 79.3405 -5.85007 2.8742 0
M  V30 901 N 82.7736 -1.49793 -0.48987 0
M  V30 902 C 84.0136 -1.61466 -1.25332 0
M  V30 903 C 84.3776 -0.299688 -1.89647 0
M  V30 904 O 85.5786 -0.291687 -2.67213 0
M  V30 905 C 83.8496 -2.74944 -2.28343 0
M  V30 906 S 85.4086 -3.06637 -3.13878 0
M  V30 907 H 82.2266 -0.569411 -0.425784 0
M  V30 908 H 84.8286 -1.875 -0.553541 0
M  V30 909 H 83.5326 -3.68994 -1.79643 0
M  V30 910 H 83.0636 -2.50938 -3.02975 0
M  V30 911 H 85.0786 -2.49015 -4.29192 0
M  V30 912 N 84.2517 0.741722 -1.39055 0
M  V30 913 C 85.1837 1.8657 -1.33133 0
M  V30 914 C 86.1967 1.61001 -0.241329 0
M  V30 915 O 87.3857 1.7136 -0.499784 0
M  V30 916 C 84.4857 3.22457 -1.04283 0
M  V30 917 C 83.6587 3.75435 -2.24427 0
M  V30 918 C 82.7177 4.89867 -1.92138 0
M  V30 919 O 81.7437 5.03879 -2.64754 0
M  V30 920 N 82.9457 5.73738 -0.88347 0
M  V30 921 H 85.7107 1.92156 -2.29991 0
M  V30 922 H 83.2717 0.922172 -1.3307 0
M  V30 923 H 85.2637 3.9657 -0.807128 0
M  V30 924 H 83.8337 3.12181 -0.161807 0
M  V30 925 H 83.0537 2.92751 -2.6399 0
M  V30 926 H 84.3417 4.07563 -3.04581 0
M  V30 927 H 83.7397 5.64999 -0.281517 0
M  V30 928 H 82.2967 6.47947 -0.707662 0
M  V30 929 N 85.7298 1.2412 0.971189 0
M  V30 930 C 86.6618 0.988349 2.06795 0
M  V30 931 C 87.6748 -0.0409541 1.62748 0
M  V30 932 O 88.8638 0.195673 1.77424 0
M  V30 933 C 85.9638 0.469023 3.35639 0
M  V30 934 C 85.1368 1.56065 4.08611 0
M  V30 935 C 84.1958 1.04458 5.15728 0
M  V30 936 O 83.2218 1.73553 5.42096 0
M  V30 937 N 84.4238 -0.122817 5.8037 0
M  V30 938 H 87.1888 1.93265 2.29061 0
M  V30 939 H 84.7498 1.15102 1.13856 0
M  V30 940 H 86.7418 0.108613 4.04554 0
M  V30 941 H 85.3118 -0.380919 3.1027 0
M  V30 942 H 84.5318 2.09341 3.34021 0
M  V30 943 H 85.8198 2.29449 4.54126 0
M  V30 944 H 85.2178 -0.700563 5.61345 0
M  V30 945 H 83.7748 -0.424404 6.50417 0
M  V30 946 N 87.2079 -1.17134 1.05439 0
M  V30 947 C 88.1399 -2.2078 0.615539 0
M  V30 948 C 89.1529 -1.59584 -0.322001 0
M  V30 949 O 90.3419 -1.78133 -0.114344 0
M  V30 950 C 87.4419 -3.38691 -0.118938 0
M  V30 951 C 86.6149 -4.29454 0.829924 0
M  V30 952 C 85.6739 -5.26024 0.136258 0
M  V30 953 O 84.6999 -5.63952 0.77115 0
M  V30 954 N 85.9019 -5.69487 -1.1254 0
M  V30 955 H 88.6669 -2.59052 1.50705 0
M  V30 956 H 86.2279 -1.32058 0.936603 0
M  V30 957 H 88.2199 -4.00329 -0.593179 0
M  V30 958 H 86.7899 -2.98996 -0.91215 0
M  V30 959 H 86.0099 -3.65211 1.48373 0
M  V30 960 H 87.2979 -4.86984 1.47392 0
M  V30 961 H 86.6959 -5.4075 -1.6615 0
M  V30 962 H 85.2529 -6.33257 -1.54366 0
M  V30 963 N 88.686 -0.835752 -1.33615 0
M  V30 964 C 89.911 -0.442389 -2.02627 0
M  V30 965 C 90.336 0.947735 -1.62479 0
M  V30 966 O 89.694 1.61907 -0.815826 0
M  V30 967 C 89.742 -0.567216 -3.56111 0
M  V30 968 O 88.846 0.407799 -4.10379 0
M  V30 969 H 88.187 -0.180278 -0.639059 0
M  V30 970 H 90.717 -1.12972 -1.70583 0
M  V30 971 H 90.727 -0.447708 -4.05536 0
M  V30 972 H 89.402 -1.58103 -3.84677 0
M  V30 973 H 87.979 0.246107 -3.72087 0
M  V30 974 N 90.1641 1.46063 -0.591896 0
M  V30 975 C 91.4101 2.02638 -0.0811191 0
M  V30 976 C 91.7431 1.4613 1.27905 0
M  V30 977 O 91.0181 0.629908 1.84017 0
M  V30 978 C 91.3011 3.60091 -0.0252436 0
M  V30 979 C 91.1541 4.26965 -1.41496 0
M  V30 980 C 92.4731 4.3496 0.670685 0
M  V30 981 H 89.5921 0.73635 -0.0309524 0
M  V30 982 H 92.2341 1.741 -0.760859 0
M  V30 983 H 90.3841 3.84535 0.553624 0
M  V30 984 H 92.0561 4.13756 -2.0397 0
M  V30 985 H 90.2991 3.85971 -1.98011 0
M  V30 986 H 90.9701 5.35781 -1.32825 0
M  V30 987 H 93.4461 4.15716 0.178825 0
M  V30 988 H 92.3221 5.44686 0.678837 0
M  V30 989 H 92.5831 4.06685 1.73379 0
M  V30 990 N 91.6422 0.330177 1.54103 0
M  V30 991 C 92.8822 -0.270916 2.02597 0
M  V30 992 C 93.2462 -1.48826 1.21304 0
M  V30 993 O 94.4472 -2.16266 1.59633 0
M  V30 994 C 92.7182 -0.590328 3.52491 0
M  V30 995 S 94.2772 -1.17014 4.2291 0
M  V30 996 H 91.0952 -0.0815379 0.706309 0
M  V30 997 H 93.6972 0.464835 1.89893 0
M  V30 998 H 92.4012 0.303691 4.09275 0
M  V30 999 H 91.9322 -1.3561 3.69288 0
M  V30 1000 H 93.9472 -2.45662 4.3112 0
M  V30 1001 N 93.1203 -1.57491 0.0584922 0
M  V30 1002 C 94.3453 -1.97711 -0.62652 0
M  V30 1003 C 94.7703 -0.936132 -1.63151 0
M  V30 1004 O 94.1283 0.099811 -1.81025 0
M  V30 1005 C 94.1763 -3.36989 -1.28338 0
M  V30 1006 O 93.2803 -3.35433 -2.39913 0
M  V30 1007 H 92.6213 -0.643868 -0.162266 0
M  V30 1008 H 95.1513 -2.04193 0.129064 0
M  V30 1009 H 95.1613 -3.73879 -1.63335 0
M  V30 1010 H 93.8363 -4.12289 -0.546889 0
M  V30 1011 H 92.4133 -3.10298 -2.06809 0
M  V30 1012 N 94.5984 0.214957 -1.56127 0
M  V30 1013 C 95.5304 1.29004 -1.89448 0
M  V30 1014 C 96.5434 1.42716 -0.783326 0
M  V30 1015 O 97.7324 1.43496 -1.06166 0
M  V30 1016 C 94.8324 2.66482 -2.09381 0
M  V30 1017 C 94.0054 2.74633 -3.40434 0
M  V30 1018 C 93.0644 3.9317 -3.49719 0
M  V30 1019 O 92.0904 3.812 -4.227 0
M  V30 1020 N 93.2924 5.07765 -2.81346 0
M  V30 1021 H 96.0574 1.00743 -2.82261 0
M  V30 1022 H 93.6184 0.40497 -1.56753 0
M  V30 1023 H 95.6104 3.44173 -2.12901 0
M  V30 1024 H 94.1804 2.87314 -1.23163 0
M  V30 1025 H 93.4004 1.83368 -3.48955 0
M  V30 1026 H 94.6884 2.77054 -4.26754 0
M  V30 1027 H 94.0864 5.20386 -2.21843 0
M  V30 1028 H 92.6434 5.83474 -2.90519 0
M  V30 1029 N 96.0765 1.50051 0.48192 0
M  V30 1030 C 97.0095 1.62749 1.59963 0
M  V30 1031 C 97.9875 0.475903 1.5548 0
M  V30 1032 O 99.1715 0.693986 1.7526 0
M  V30 1033 C 96.2985 1.60008 2.98522 0
M  V30 1034 C 95.3445 2.80596 3.21198 0
M  V30 1035 S 96.1775 4.42038 3.02262 0
M  V30 1036 C 97.3335 4.41973 4.43182 0
M  V30 1037 H 97.5665 2.57296 1.4895 0
M  V30 1038 H 95.0995 1.39179 0.668477 0
M  V30 1039 H 97.0575 1.59112 3.78409 0
M  V30 1040 H 95.7185 0.667153 3.06933 0
M  V30 1041 H 94.9115 2.74952 4.22395 0
M  V30 1042 H 94.5135 2.79003 2.49065 0
M  V30 1043 H 96.8055 4.14868 5.35622 0
M  V30 1044 H 97.7485 5.43512 4.53873 0
M  V30 1045 H 98.1565 3.71812 4.24755 0
M  V30 1046 N 97.5546 -0.734337 1.39446 0
M  V30 1047 C 98.4846 -1.86155 1.40955 0
M  V30 1048 C 99.4656 -1.67898 0.272827 0
M  V30 1049 O 100.651 -1.88207 0.478743 0
M  V30 1050 C 97.7806 -3.23912 1.25294 0
M  V30 1051 C 96.7346 -3.56808 2.36373 0
M  V30 1052 C 96.0606 -4.93508 2.058 0
M  V30 1053 C 97.3606 -3.59713 3.78687 0
M  V30 1054 H 99.0546 -1.8515 2.35287 0
M  V30 1055 H 96.6006 -0.889367 1.13253 0
M  V30 1056 H 98.5536 -4.02443 1.2497 0
M  V30 1057 H 97.2776 -3.25446 0.274308 0
M  V30 1058 H 95.9366 -2.80606 2.35914 0
M  V30 1059 H 95.5846 -4.91623 1.06374 0
M  V30 1060 H 95.2846 -5.16486 2.80208 0
M  V30 1061 H 96.8086 -5.74396 2.07128 0
M  V30 1062 H 98.2226 -4.2832 3.81071 0
M  V30 1063 H 96.6196 -3.94209 4.52459 0
M  V30 1064 H 97.6896 -2.59504 4.09617 0
M  V30 1065 N 99.0327 -1.24633 -0.964593 0
M  V30 1066 C 100.449 -1.01239 -1.2338 0
M  V30 1067 C 100.649 0.2769 -1.99588 0
M  V30 1068 O 99.7047 0.992241 -2.32187 0
M  V30 1069 C 101.018 -2.22937 -2.01791 0
M  V30 1070 C 102.566 -2.27594 -2.14872 0
M  V30 1071 C 103.041 -3.48921 -2.96678 0
M  V30 1072 N 104.532 -3.49257 -3.04259 0
M  V30 1073 C 105.267 -4.39795 -3.67924 0
M  V30 1074 N 104.763 -5.40591 -4.33281 0
M  V30 1075 N 106.556 -4.275 -3.64966 0
M  V30 1076 H 98.7067 -2.0748 -0.454502 0
M  V30 1077 H 100.97 -0.910647 -0.26349 0
M  V30 1078 H 100.676 -3.16587 -1.53184 0
M  V30 1079 H 100.55 -2.25306 -3.02518 0
M  V30 1080 H 102.937 -1.34473 -2.6268 0
M  V30 1081 H 103.018 -2.2925 -1.13482 0
M  V30 1082 H 102.662 -4.42359 -2.49562 0
M  V30 1083 H 102.592 -3.4451 -3.98272 0
M  V30 1084 H 105.083 -2.76337 -2.57771 0
M  V30 1085 H 105.396 -6.05904 -4.79687 0
M  V30 1086 H 103.741 -5.44475 -4.3194 0
M  V30 1087 H 106.932 -3.47987 -3.13086 0
M  V30 1088 H 107.105 -4.98258 -4.14298 0
M  V30 1089 N 100.511 1.16574 -1.06058 0
M  V30 1090 C 101.759 1.86677 -0.77434 0
M  V30 1091 C 102.08 1.81959 0.701147 0
M  V30 1092 O 101.35 1.2515 1.50713 0
M  V30 1093 H 99.9298 0.691134 -0.283449 0
M  V30 1094 H 102.592 1.41378 -1.34158 0
M  V30 1095 H 101.688 2.92181 -1.09711 0
M  V30 1096 N 101.989 0.842826 1.3317 0
M  V30 1097 C 102.919 0.294028 2.31641 0
M  V30 1098 C 103.9 -0.600401 1.59151 0
M  V30 1099 O 105.085 -0.523124 1.87022 0
M  V30 1100 C 102.215 -0.528416 3.43257 0
M  V30 1101 C 101.169 0.27056 4.27144 0
M  V30 1102 C 100.495 -0.675881 5.30411 0
M  V30 1103 C 101.795 1.48981 5.00602 0
M  V30 1104 H 103.489 1.11681 2.77791 0
M  V30 1105 H 101.035 0.538478 1.33553 0
M  V30 1106 H 102.988 -0.922674 4.11175 0
M  V30 1107 H 101.712 -1.38445 2.95805 0
M  V30 1108 H 100.371 0.646427 3.60856 0
M  V30 1109 H 100.019 -1.52842 4.79216 0
M  V30 1110 H 99.7189 -0.145374 5.8742 0
M  V30 1111 H 101.243 -1.06757 6.01195 0
M  V30 1112 H 102.657 1.16849 5.61266 0
M  V30 1113 H 101.054 1.95739 5.6728 0
M  V30 1114 H 102.124 2.25746 4.29147 0
M  V30 1115 N 103.467 -1.45747 0.599634 0
M  V30 1116 C 104.399 -2.28628 -0.161879 0
M  V30 1117 C 105.412 -1.39494 -0.839367 0
M  V30 1118 O 106.601 -1.63941 -0.706089 0
M  V30 1119 C 103.701 -3.15014 -1.24976 0
M  V30 1120 C 102.874 -4.32378 -0.660935 0
M  V30 1121 C 101.933 -5.00033 -1.63869 0
M  V30 1122 O 100.959 -5.57085 -1.1681 0
M  V30 1123 N 102.161 -4.98589 -2.97303 0
M  V30 1124 H 104.926 -2.94624 0.549265 0
M  V30 1125 H 102.487 -1.55847 0.438565 0
M  V30 1126 H 104.479 -3.5714 -1.9035 0
M  V30 1127 H 103.049 -2.5098 -1.86354 0
M  V30 1128 H 102.269 -3.9383 0.170688 0
M  V30 1129 H 103.557 -5.08197 -0.247619 0
M  V30 1130 H 102.955 -4.53514 -3.38145 0
M  V30 1131 H 101.512 -5.44603 -3.58121 0
M  V30 1132 N 104.945 -0.338344 -1.53925 0
M  V30 1133 C 106.17 0.263987 -2.05713 0
M  V30 1134 C 106.595 1.43847 -1.21201 0
M  V30 1135 O 105.953 1.79904 -0.224535 0
M  V30 1136 C 106.001 0.662 -3.54471 0
M  V30 1137 O 105.105 1.76265 -3.72833 0
M  V30 1138 H 104.446 0.0448722 -0.662482 0
M  V30 1139 H 106.976 -0.491048 -1.9862 0
M  V30 1140 H 106.986 0.940594 -3.9701 0
M  V30 1141 H 105.661 -0.196937 -4.15433 0
M  V30 1142 H 104.238 1.48173 -3.42198 0
M  V30 1143 N 106.423 1.57458 -0.0668435 0
M  V30 1144 C 107.373 2.0896 0.912119 0
M  V30 1145 C 108.357 0.998186 1.26195 0
M  V30 1146 O 109.549 1.26133 1.24175 0
M  V30 1147 C 106.678 2.6508 2.18145 0
M  V30 1148 C 105.764 3.81218 1.85832 0
M  V30 1149 N 106.155 4.90378 1.23948 0
M  V30 1150 C 104.453 3.9042 2.15612 0
M  V30 1151 C 105.154 5.71279 1.09616 0
M  V30 1152 N 104.13 5.19389 1.60423 0
M  V30 1153 H 107.932 2.90749 0.42924 0
M  V30 1154 H 105.446 1.6182 0.137184 0
M  V30 1155 H 107.443 3.0029 2.89192 0
M  V30 1156 H 106.103 1.84736 2.67025 0
M  V30 1157 H 107.114 5.09847 0.909731 0
M  V30 1158 H 103.791 3.21043 2.66903 0
M  V30 1159 H 105.181 6.69085 0.614425 0
M  V30 1160 N 107.901 -0.206675 1.56239 0
M  V30 1161 C 109.126 -0.949474 1.8439 0
M  V30 1162 C 109.551 -1.76549 0.649016 0
M  V30 1163 O 108.909 -1.76782 -0.402231 0
M  V30 1164 C 108.957 -1.83078 3.10668 0
M  V30 1165 O 108.061 -2.9281 2.90407 0
M  V30 1166 H 107.402 -0.268033 0.607499 0
M  V30 1167 H 109.932 -0.215488 2.03462 0
M  V30 1168 H 109.942 -2.2377 3.41161 0
M  V30 1169 H 108.617 -1.23112 3.97261 0
M  V30 1170 H 107.194 -2.55956 2.71184 0
M  V30 1171 N 109.379 -1.50304 -0.473955 0
M  V30 1172 C 110.625 -1.61389 -1.22806 0
M  V30 1173 C 110.958 -0.311955 -1.91678 0
M  V30 1174 O 110.233 0.686384 -1.81986 0
M  V30 1175 C 110.516 -2.79219 -2.27396 0
M  V30 1176 C 110.369 -4.19286 -1.62848 0
M  V30 1177 C 111.688 -2.92614 -3.28732 0
M  V30 1178 H 108.807 -0.587399 -0.445119 0
M  V30 1179 H 111.449 -1.82681 -0.522265 0
M  V30 1180 H 109.599 -2.61195 -2.87592 0
M  V30 1181 H 111.271 -4.48892 -1.06271 0
M  V30 1182 H 109.514 -4.23677 -0.931693 0
M  V30 1183 H 110.185 -4.97655 -2.38838 0
M  V30 1184 H 112.661 -3.09105 -2.78556 0
M  V30 1185 H 111.537 -3.76688 -3.99246 0
M  V30 1186 H 111.798 -2.03107 -3.92683 0
M  V30 1187 N 110.857 0.726932 -1.39834 0
M  V30 1188 C 112.087 1.51393 -1.40583 0
M  V30 1189 C 112.495 1.892 -0.000740625 0
M  V30 1190 O 111.838 1.55189 0.982951 0
M  V30 1191 C 111.9 2.82588 -2.22226 0
M  V30 1192 C 111.564 2.67169 -3.70769 0
M  V30 1193 C 112.561 2.3518 -4.63666 0
M  V30 1194 C 110.246 2.83788 -4.14451 0
M  V30 1195 C 112.24 2.20002 -5.98229 0
M  V30 1196 C 109.927 2.68229 -5.49087 0
M  V30 1197 C 110.925 2.36382 -6.4079 0
M  V30 1198 O 110.613 2.2093 -7.72946 0
M  V30 1199 H 110.345 0.474168 -0.48181 0
M  V30 1200 H 112.899 0.905247 -1.84376 0
M  V30 1201 H 111.129 3.45746 -1.73195 0
M  V30 1202 H 112.818 3.44247 -2.15055 0
M  V30 1203 H 113.584 2.21984 -4.31217 0
M  V30 1204 H 109.463 3.07566 -3.43401 0
M  V30 1205 H 113.007 1.95067 -6.69772 0
M  V30 1206 H 108.904 2.81006 -5.81125 0
M  V30 1207 H 109.672 2.35937 -7.83757 0
M  V30 1208 N 112.336 1.25143 0.95797 0
M  V30 1209 C 113.564 1.12424 1.73691 0
M  V30 1210 C 113.979 -0.322304 1.86029 0
M  V30 1211 O 113.336 -1.22186 1.35561 0
M  V30 1212 C 113.387 1.76933 3.15241 0
M  V30 1213 O 113.108 3.15932 3.03511 0
M  V30 1214 C 114.609 1.6995 4.09429 0
M  V30 1215 H 111.829 0.3923 0.544373 0
M  V30 1216 H 114.373 1.6544 1.20207 0
M  V30 1217 H 112.528 1.27895 3.6568 0
M  V30 1218 H 112.942 3.47598 3.9278 0
M  V30 1219 H 114.416 2.19753 5.06372 0
M  V30 1220 H 114.893 0.662619 4.34173 0
M  V30 1221 H 115.499 2.18461 3.64904 0
M  V30 1222 N 113.814 -1.1601 1.06675 0
M  V30 1223 C 115.063 -1.85973 0.780818 0
M  V30 1224 C 115.376 -1.82819 -0.695444 0
M  V30 1225 O 116.582 -2.484 -1.09589 0
M  V30 1226 C 115.038 -3.33757 1.34665 0
M  V30 1227 C 114.646 -3.45374 2.85343 0
M  V30 1228 C 116.39 -4.0895 1.13843 0
M  V30 1229 C 114.297 -4.87266 3.35151 0
M  V30 1230 H 113.227 -0.696661 0.288407 0
M  V30 1231 H 115.878 -1.30903 1.28595 0
M  V30 1232 H 114.26 -3.88456 0.769274 0
M  V30 1233 H 115.434 -3.00816 3.49065 0
M  V30 1234 H 113.749 -2.83619 3.04876 0
M  V30 1235 H 116.346 -5.13654 1.4854 0
M  V30 1236 H 116.689 -4.16229 0.0770282 0
M  V30 1237 H 117.222 -3.605 1.68179 0
M  V30 1238 H 113.961 -4.85168 4.40786 0
M  V30 1239 H 113.481 -5.32433 2.76179 0
M  V30 1240 H 115.16 -5.56097 3.30704 0
M  V30 1241 N 115.292 -0.849877 -1.32721 0
M  V30 1242 C 116.54 -0.450032 -1.97026 0
M  V30 1243 C 116.861 0.996604 -1.67609 0
M  V30 1244 O 116.131 1.6958 -0.980786 0
M  V30 1245 H 114.711 -0.163426 -0.728904 0
M  V30 1246 H 117.373 -1.08526 -1.6189 0
M  V30 1247 H 116.469 -0.591146 -3.0645 0
M  V30 1248 N 116.77 1.45427 -0.607355 0
M  V30 1249 C 118.016 2.03097 -0.111035 0
M  V30 1250 C 118.371 1.46735 1.24445 0
M  V30 1251 O 117.664 0.632478 1.8086 0
M  V30 1252 C 117.858 3.57398 -0.0129263 0
M  V30 1253 C 117.687 4.28726 -1.35735 0
M  V30 1254 C 116.457 4.66659 -1.93798 0
M  V30 1255 C 118.655 4.60699 -2.28607 0
M  V30 1256 N 116.637 5.22845 -3.21723 0
M  V30 1257 C 118.008 5.17716 -3.41131 0
M  V30 1258 C 120.063 4.42638 -2.27982 0
M  V30 1259 C 118.766 5.58576 -4.53194 0
M  V30 1260 C 120.792 4.84531 -3.39093 0
M  V30 1261 C 120.154 5.4164 -4.50339 0
M  V30 1262 H 116.253 0.777476 -0.083994 0
M  V30 1263 H 118.837 1.77249 -0.805655 0
M  V30 1264 H 117.008 3.82907 0.650914 0
M  V30 1265 H 118.74 4.01722 0.490033 0
M  V30 1266 H 115.495 4.50207 -1.47007 0
M  V30 1267 H 115.919 5.55438 -3.87063 0
M  V30 1268 H 120.561 3.97798 -1.43235 0
M  V30 1269 H 118.279 6.02382 -5.38667 0
M  V30 1270 H 121.865 4.72289 -3.39757 0
M  V30 1271 H 120.745 5.73461 -5.34895 0
M  V30 1272 N 118.248 0.346503 1.53744 0
M  V30 1273 C 119.488 -0.249413 2.02873 0
M  V30 1274 C 119.852 -1.47532 1.22876 0
M  V30 1275 O 121.053 -2.1456 1.61918 0
M  V30 1276 C 119.324 -0.552909 3.53097 0
M  V30 1277 S 120.883 -1.12521 4.24128 0
M  V30 1278 H 117.701 -0.074042 0.707134 0
M  V30 1279 H 120.303 0.48495 1.8939 0
M  V30 1280 H 119.007 0.347083 4.0893 0
M  V30 1281 H 118.538 -1.31686 3.70705 0
M  V30 1282 H 120.553 -2.41075 4.33702 0
M  V30 1283 N 119.726 -1.57421 0.075193 0
M  V30 1284 C 121.003 -1.85029 -0.634329 0
M  V30 1285 C 121.383 -0.968305 -1.87582 0
M  V30 1286 O 120.731 -0.0354749 -2.28472 0
M  V30 1287 C 120.941 -3.35286 -0.968742 0
M  V30 1288 C 122.289 -4.02875 -1.34077 0
M  V30 1289 O 123.313 -3.40051 -1.06037 0
M  V30 1290 O 122.172 -5.13691 -1.86506 0
M  V30 1291 H 119.266 -0.7645 -0.315387 0
M  V30 1292 H 121.812 -1.69366 0.106382 0
M  V30 1293 H 120.584 -3.91203 -0.0871376 0
M  V30 1294 H 120.207 -3.56223 -1.7661 0
M  V30 1295 N 121.204 0.198386 -1.56346 0
M  V30 1296 C 122.45 0.920648 -1.80698 0
M  V30 1297 C 122.783 1.83045 -0.648697 0
M  V30 1298 O 122.058 1.91308 0.350925 0
M  V30 1299 C 122.341 1.73971 -3.15287 0
M  V30 1300 C 122.194 0.85485 -4.41602 0
M  V30 1301 C 123.513 2.71296 -3.46535 0
M  V30 1302 H 120.632 0.333261 -0.657348 0
M  V30 1303 H 123.274 0.188198 -1.89066 0
M  V30 1304 H 121.424 2.36416 -3.08285 0
M  V30 1305 H 123.096 0.245362 -4.60647 0
M  V30 1306 H 121.339 0.161398 -4.335 0
M  V30 1307 H 122.01 1.46286 -5.32264 0
M  V30 1308 H 124.486 2.18983 -3.53816 0
M  V30 1309 H 123.362 3.2569 -4.41834 0
M  V30 1310 H 123.623 3.5018 -2.69864 0
M  V30 1311 N 122.682 1.50554 0.465978 0
M  V30 1312 C 123.645 1.69233 1.54574 0
M  V30 1313 C 124.645 0.562901 1.50626 0
M  V30 1314 O 125.835 0.830016 1.53155 0
M  V30 1315 C 122.967 1.7223 2.94193 0
M  V30 1316 H 124.16 2.65571 1.39327 0
M  V30 1317 H 121.713 1.40111 0.692711 0
M  V30 1318 H 122.448 0.77603 3.14878 0
M  V30 1319 H 122.233 2.54285 2.98466 0
M  V30 1320 H 123.723 1.88618 3.72576 0
M  V30 1321 N 124.16 -0.719506 1.40217 0
M  V30 1322 C 125.39 -1.50646 1.41384 0
M  V30 1323 C 125.798 -1.89197 0.0107743 0
M  V30 1324 O 125.141 -1.55709 -0.974708 0
M  V30 1325 C 125.203 -2.81405 2.23722 0
M  V30 1326 C 124.867 -2.65199 3.72181 0
M  V30 1327 C 125.864 -2.32717 4.64907 0
M  V30 1328 C 123.549 -2.81586 4.1595 0
M  V30 1329 C 125.543 -2.16827 5.99387 0
M  V30 1330 C 123.23 -2.65313 5.50502 0
M  V30 1331 C 124.228 -2.32981 6.42035 0
M  V30 1332 O 123.916 -2.16827 7.74107 0
M  V30 1333 H 123.648 -0.471606 0.484318 0
M  V30 1334 H 126.202 -0.895456 1.84853 0
M  V30 1335 H 124.432 -3.44823 1.75026 0
M  V30 1336 H 126.121 -3.43102 2.16878 0
M  V30 1337 H 126.887 -2.19694 4.32388 0
M  V30 1338 H 122.766 -3.0574 3.45027 0
M  V30 1339 H 126.31 -1.91513 6.70797 0
M  V30 1340 H 122.207 -2.7792 5.82607 0
M  V30 1341 H 122.975 -2.31778 7.84998 0
M  V30 1342 N 125.638 -1.25649 -0.95132 0
M  V30 1343 C 126.586 -1.06118 -2.06982 0
M  V30 1344 C 127.58 0.00889169 -1.69398 0
M  V30 1345 O 128.786 -0.146988 -1.79399 0
M  V30 1346 H 125.161 -0.326248 -0.677544 0
M  V30 1347 H 127.132 -2.00932 -2.2061 0
M  V30 1348 C 125.881 -0.700145 -3.40578 0
M  V30 1349 H 125.204 -1.51537 -3.69968 0
M  V30 1350 H 126.644 -0.603211 -4.19687 0
M  V30 1351 C 125.103 0.59403 -3.31622 0
M  V30 1352 O 125.633 1.63522 -3.66911 0
M  V30 1353 N 123.839 0.58089 -2.84735 0
M  V30 1354 H 123.386 -0.266783 -2.56215 0
M  V30 1355 H 123.344 1.44695 -2.79125 0
M  V30 1356 N 127.117 1.15442 -1.07289 0
M  V30 1357 C 128.364 1.86213 -0.795668 0
M  V30 1358 C 128.692 1.82291 0.678238 0
M  V30 1359 O 127.947 1.24057 1.51355 0
M  V30 1360 C 128.246 3.3489 -1.24834 0
M  V30 1361 C 127.912 3.59007 -2.72809 0
M  V30 1362 C 126.574 3.65298 -3.13227 0
M  V30 1363 C 128.926 3.68762 -3.68326 0
M  V30 1364 C 126.254 3.78854 -4.4798 0
M  V30 1365 C 128.606 3.83842 -5.0284 0
M  V30 1366 C 127.27 3.88378 -5.4288 0
M  V30 1367 H 126.54 0.681403 -0.291155 0
M  V30 1368 H 129.187 1.36435 -1.34379 0
M  V30 1369 H 127.492 3.8687 -0.619595 0
M  V30 1370 H 129.189 3.88052 -1.01076 0
M  V30 1371 H 125.779 3.5475 -2.40521 0
M  V30 1372 H 129.963 3.63202 -3.38227 0
M  V30 1373 H 125.219 3.80623 -4.78472 0
M  V30 1374 H 129.393 3.90332 -5.76727 0
M  V30 1375 H 127.02 3.98635 -6.47298 0
M  V30 1376 N 128.595 0.856903 1.32268 0
M  V30 1377 C 129.525 0.31858 2.31316 0
M  V30 1378 C 130.506 -0.583487 1.59779 0
M  V30 1379 O 131.691 -0.503259 1.87566 0
M  V30 1380 C 128.821 -0.491979 3.43798 0
M  V30 1381 C 127.775 0.315849 4.26833 0
M  V30 1382 C 127.101 -0.619586 5.31098 0
M  V30 1383 C 128.401 1.54282 4.98993 0
M  V30 1384 H 130.095 1.14621 2.76591 0
M  V30 1385 H 127.641 0.552613 1.32974 0
M  V30 1386 H 129.594 -0.879012 4.1213 0
M  V30 1387 H 128.318 -1.35299 2.97257 0
M  V30 1388 H 126.977 0.684664 3.6015 0
M  V30 1389 H 126.625 -1.47751 4.8081 0
M  V30 1390 H 126.325 -0.0830621 5.87541 0
M  V30 1391 H 127.849 -1.00375 6.02293 0
M  V30 1392 H 129.263 1.22796 5.59995 0
M  V30 1393 H 127.66 2.01745 5.65172 0
M  V30 1394 H 128.73 2.30285 4.26728 0
M  V30 1395 N 130.073 -1.45103 0.615059 0
M  V30 1396 C 131.319 -2.02483 0.113347 0
M  V30 1397 C 131.652 -1.48146 -1.25564 0
M  V30 1398 O 130.927 -0.659104 -1.82992 0
M  V30 1399 C 131.21 -3.60005 0.0825278 0
M  V30 1400 C 131.063 -4.2466 1.48271 0
M  V30 1401 C 132.382 -4.35972 -0.601401 0
M  V30 1402 H 129.501 -0.735764 0.0426632 0
M  V30 1403 H 132.143 -1.72868 0.788461 0
M  V30 1404 H 130.293 -3.85367 -0.492378 0
M  V30 1405 H 131.965 -4.10458 2.10527 0
M  V30 1406 H 130.208 -3.82772 2.04127 0
M  V30 1407 H 130.879 -5.336 1.41332 0
M  V30 1408 H 133.355 -4.15947 -0.112666 0
M  V30 1409 H 132.231 -5.45697 -0.592097 0
M  V30 1410 H 132.492 -4.09391 -1.66887 0
M  V30 1411 N 131.551 -0.354651 -1.53558 0
M  V30 1412 C 132.799 0.237972 -2.00694 0
M  V30 1413 C 133.12 1.50173 -1.24391 0
M  V30 1414 O 132.39 1.92673 -0.354135 0
M  V30 1415 H 130.97 0.0909256 -0.741446 0
M  V30 1416 H 133.632 -0.478368 -1.88938 0
M  V30 1417 H 132.728 0.47264 -3.085 0
M  V30 1418 N 133.029 1.57378 -0.0835403 0
M  V30 1419 C 134.306 1.85363 0.624507 0
M  V30 1420 C 134.686 0.978239 1.87066 0
M  V30 1421 O 134.034 0.0475908 2.2845 0
M  V30 1422 C 134.244 3.35795 0.950947 0
M  V30 1423 C 135.592 4.03581 1.31939 0
M  V30 1424 O 136.616 3.40609 1.04232 0
M  V30 1425 O 135.475 5.14672 1.83779 0
M  V30 1426 H 132.569 0.766162 0.311329 0
M  V30 1427 H 135.115 1.69307 -0.115362 0
M  V30 1428 H 133.887 3.91244 0.0663899 0
M  V30 1429 H 133.51 3.57154 1.74719 0
M  V30 1430 N 134.507 -0.190092 1.56449 0
M  V30 1431 C 135.784 -0.935886 1.71757 0
M  V30 1432 C 136.164 -2.01173 0.639726 0
M  V30 1433 O 135.512 -2.25827 -0.348502 0
M  V30 1434 C 135.722 -1.51775 3.1427 0
M  V30 1435 C 137.07 -1.99794 3.74656 0
M  V30 1436 O 138.094 -1.61607 3.1743 0
M  V30 1437 O 136.953 -2.70079 4.751 0
M  V30 1438 H 134.047 -0.439229 0.700719 0
M  V30 1439 H 136.593 -0.179395 1.68749 0
M  V30 1440 H 135.365 -0.742505 3.84191 0
M  V30 1441 H 134.988 -2.33894 3.21527 0
M  V30 1442 N 135.985 -1.50799 -0.457987 0
M  V30 1443 C 137.233 -1.62121 -1.2067 0
M  V30 1444 C 137.554 -0.329793 -1.92191 0
M  V30 1445 O 136.824 0.653409 -1.84682 0
M  V30 1446 H 135.404 -0.597441 -0.448411 0
M  V30 1447 H 138.066 -1.87637 -0.527096 0
M  V30 1448 H 137.162 -2.43882 -1.94751 0
M  V30 1449 N 137.463 0.71206 -1.40597 0
M  V30 1450 C 138.879 1.02058 -1.22704 0
M  V30 1451 C 139.079 2.01228 -0.104729 0
M  V30 1452 O 138.135 2.4674 0.53624 0
M  V30 1453 C 139.448 1.56094 -2.57012 0
M  V30 1454 C 140.996 1.6806 -2.64054 0
M  V30 1455 C 141.471 2.25501 -3.9864 0
M  V30 1456 N 142.962 2.32882 -4.004 0
M  V30 1457 C 143.697 2.78317 -5.01325 0
M  V30 1458 N 143.193 3.23478 -6.12645 0
M  V30 1459 N 144.986 2.77733 -4.88693 0
M  V30 1460 H 137.137 0.0547896 -2.12329 0
M  V30 1461 H 139.4 0.0869027 -0.944008 0
M  V30 1462 H 139.106 0.906865 -3.39807 0
M  V30 1463 H 138.98 2.54564 -2.78347 0
M  V30 1464 H 141.367 2.32583 -1.81629 0
M  V30 1465 H 141.448 0.681802 -2.46546 0
M  V30 1466 H 141.092 1.61598 -4.81506 0
M  V30 1467 H 141.022 3.26102 -4.13479 0
M  V30 1468 H 143.513 2.00991 -3.20017 0
M  V30 1469 H 143.826 3.56725 -6.85542 0
M  V30 1470 H 142.171 3.21429 -6.16205 0
M  V30 1471 H 145.362 2.4179 -4.00818 0
M  V30 1472 H 145.535 3.12826 -5.67489 0
M  V30 1473 N 138.941 1.26152 0.944643 0
M  V30 1474 C 140.187 1.11657 1.69294 0
M  V30 1475 C 140.52 -0.339926 1.91202 0
M  V30 1476 O 139.795 -1.24994 1.49019 0
M  V30 1477 C 140.078 1.88236 3.06984 0
M  V30 1478 C 139.931 3.41772 2.92424 0
M  V30 1479 C 141.25 1.67343 4.07043 0
M  V30 1480 H 138.369 0.407004 0.614424 0
M  V30 1481 H 141.011 1.55106 1.09737 0
M  V30 1482 H 139.161 1.51308 3.57824 0
M  V30 1483 H 140.833 3.88433 2.48832 0
M  V30 1484 H 139.076 3.68974 2.28124 0
M  V30 1485 H 139.747 3.90579 3.90067 0
M  V30 1486 H 142.223 1.99509 3.65151 0
M  V30 1487 H 141.099 2.23346 5.01406 0
M  V30 1488 H 141.36 0.617158 4.37771 0
M  V30 1489 N 140.419 -1.14872 1.07899 0
M  V30 1490 C 141.649 -1.89386 0.825631 0
M  V30 1491 C 142.057 -1.78565 -0.625406 0
M  V30 1492 O 141.4 -1.13918 -1.44113 0
M  V30 1493 C 141.462 -3.40206 1.16191 0
M  V30 1494 C 141.126 -3.74812 2.61467 0
M  V30 1495 C 142.123 -3.75367 3.59716 0
M  V30 1496 C 139.808 -4.0495 2.97189 0
M  V30 1497 C 141.802 -4.05574 4.9172 0
M  V30 1498 C 139.489 -4.34821 4.29388 0
M  V30 1499 C 140.487 -4.35116 5.26463 0
M  V30 1500 O 140.175 -4.64267 6.56286 0
M  V30 1501 H 139.907 -0.606894 0.297751 0
M  V30 1502 H 142.461 -1.46438 1.44031 0
M  V30 1503 H 140.691 -3.8358 0.490214 0
M  V30 1504 H 142.38 -3.96018 0.890193 0
M  V30 1505 H 143.146 -3.52176 3.33462 0
M  V30 1506 H 139.025 -4.03876 2.22273 0
M  V30 1507 H 142.569 -4.05719 5.67484 0
M  V30 1508 H 138.466 -4.5748 4.55392 0
M  V30 1509 H 139.234 -4.82007 6.61522 0
M  V30 1510 N 141.898 -0.863906 -1.31812 0
M  V30 1511 C 142.808 -0.318461 -2.32428 0
M  V30 1512 C 143.824 0.568496 -1.64451 0
M  V30 1513 O 145 0.46666 -1.95919 0
M  V30 1514 C 142.065 0.476355 -3.43412 0
M  V30 1515 C 141.126 -0.43784 -4.27061 0
M  V30 1516 C 140.359 0.319138 -5.32745 0
M  V30 1517 O 140.582 1.54799 -5.48993 0
M  V30 1518 O 139.516 -0.319861 -6.01049 0
M  V30 1519 H 143.342 -1.15229 -2.80991 0
M  V30 1520 H 140.927 -0.627103 -1.35602 0
M  V30 1521 H 142.809 0.927156 -4.11074 0
M  V30 1522 H 141.484 1.28683 -2.97022 0
M  V30 1523 H 140.391 -0.937013 -3.62175 0
M  V30 1524 H 141.724 -1.21375 -4.77 0
M  V30 1525 N 143.376 1.44774 -0.622745 0
M  V30 1526 C 144.624 2.01721 -0.123655 0
M  V30 1527 C 144.945 1.49172 1.25589 0
M  V30 1528 O 144.215 0.691974 1.83272 0
M  V30 1529 H 142.795 0.745777 -0.0427225 0
M  V30 1530 H 145.457 1.77382 -0.807559 0
M  V30 1531 H 144.553 3.11984 -0.0849534 0
M  V30 1532 N 144.854 0.36279 1.53368 0
M  V30 1533 C 146.1 -0.228113 2.01513 0
M  V30 1534 C 146.433 -1.48648 1.2497 0
M  V30 1535 O 145.708 -1.91459 0.342616 0
M  V30 1536 C 145.991 -0.522884 3.56284 0
M  V30 1537 C 145.844 0.74892 4.43521 0
M  V30 1538 C 147.163 -1.32461 4.19693 0
M  V30 1539 H 144.282 -0.0814343 0.732487 0
M  V30 1540 H 146.924 0.48713 1.83649 0
M  V30 1541 H 145.074 -1.1322 3.71636 0
M  V30 1542 H 146.746 1.38648 4.39971 0
M  V30 1543 H 144.989 1.36986 4.11603 0
M  V30 1544 H 145.66 0.497667 5.49752 0
M  V30 1545 H 148.136 -0.809203 4.08156 0
M  V30 1546 H 147.012 -1.49961 5.28018 0
M  V30 1547 H 147.273 -2.33232 3.75573 0
M  V30 1548 N 146.332 -1.57332 0.0918853 0
M  V30 1549 C 147.58 -1.93853 -0.571446 0
M  V30 1550 C 147.901 -0.974212 -1.6892 0
M  V30 1551 O 147.171 -0.0257254 -1.95883 0
M  V30 1552 H 145.751 -0.715666 -0.214082 0
M  V30 1553 H 148.413 -1.94287 0.154464 0
M  V30 1554 H 147.509 -2.96191 -0.983729 0
M  V30 1555 N 147.81 0.181792 -1.56548 0
M  V30 1556 C 149.056 0.896803 -1.82562 0
M  V30 1557 C 149.411 1.80324 -0.670908 0
M  V30 1558 O 148.704 1.8868 0.333235 0
M  V30 1559 C 148.898 1.73728 -3.12335 0
M  V30 1560 C 148.727 0.913714 -4.4032 0
M  V30 1561 C 147.497 0.592903 -5.01809 0
M  V30 1562 C 149.695 0.260164 -5.13642 0
M  V30 1563 N 147.677 -0.247901 -6.13399 0
M  V30 1564 C 149.048 -0.442256 -6.18421 0
M  V30 1565 C 151.103 0.177253 -4.97584 0
M  V30 1566 C 149.806 -1.21971 -7.08883 0
M  V30 1567 C 151.832 -0.586839 -5.88481 0
M  V30 1568 C 151.194 -1.27766 -6.92716 0
M  V30 1569 H 147.293 0.307122 -0.719166 0
M  V30 1570 H 149.877 0.164535 -1.94004 0
M  V30 1571 H 148.048 2.44105 -3.02105 0
M  V30 1572 H 149.78 2.39279 -3.26386 0
M  V30 1573 H 146.535 0.920502 -4.64568 0
M  V30 1574 H 146.959 -0.658304 -6.73792 0
M  V30 1575 H 151.601 0.696993 -4.17015 0
M  V30 1576 H 149.319 -1.75083 -7.88905 0
M  V30 1577 H 152.905 -0.652522 -5.78129 0
M  V30 1578 H 151.785 -1.85943 -7.61836 0
M  V30 1579 N 149.288 1.51039 0.449983 0
M  V30 1580 C 150.236 1.71995 1.5659 0
M  V30 1581 C 151.23 0.586029 1.5894 0
M  V30 1582 O 152.436 0.76709 1.62837 0
M  V30 1583 H 148.811 0.543233 0.520001 0
M  V30 1584 H 150.782 2.65562 1.36085 0
M  V30 1585 C 149.531 1.8506 2.9436 0
M  V30 1586 H 148.854 2.71712 2.93279 0
M  V30 1587 H 150.294 2.0374 3.71842 0
M  V30 1588 C 148.753 0.607277 3.31382 0
M  V30 1589 O 149.283 -0.243903 4.00959 0
M  V30 1590 N 147.489 0.455073 2.87015 0
M  V30 1591 H 147.036 1.14879 2.30566 0
M  V30 1592 H 146.994 -0.375611 3.12148 0
M  V30 1593 N 150.766 -0.704594 1.40972 0
M  V30 1594 C 152.015 -1.46018 1.39146 0
M  V30 1595 C 152.328 -1.956 0.000589254 0
M  V30 1596 O 153.534 -2.71137 -0.1403 0
M  V30 1597 C 151.99 -2.63996 2.4461 0
M  V30 1598 C 151.598 -2.21238 3.89561 0
M  V30 1599 C 153.342 -3.41677 2.51907 0
M  V30 1600 C 151.249 -3.3612 4.86598 0
M  V30 1601 H 150.179 -0.548444 0.517422 0
M  V30 1602 H 152.83 -0.765784 1.66757 0
M  V30 1603 H 151.212 -3.3566 2.10115 0
M  V30 1604 H 152.386 -1.56923 4.33257 0
M  V30 1605 H 150.701 -1.56574 3.85841 0
M  V30 1606 H 153.298 -4.27182 3.2159 0
M  V30 1607 H 153.641 -3.86247 1.55303 0
M  V30 1608 H 154.174 -2.77064 2.85448 0
M  V30 1609 H 150.913 -2.96572 5.84573 0
M  V30 1610 H 150.433 -3.99315 4.47557 0
M  V30 1611 H 152.112 -4.02029 5.06934 0
M  V30 1612 N 152.244 -1.26651 -0.937939 0
M  V30 1613 C 153.176 -1.04283 -2.04102 0
M  V30 1614 C 154.189 -0.00221014 -1.628 0
M  V30 1615 O 155.378 -0.242645 -1.76843 0
M  V30 1616 C 152.478 -0.557846 -3.34277 0
M  V30 1617 C 151.651 -1.66843 -4.04329 0
M  V30 1618 C 150.71 -1.18095 -5.12777 0
M  V30 1619 O 149.736 -1.87865 -5.37304 0
M  V30 1620 N 150.938 -0.0311006 -5.80492 0
M  V30 1621 H 153.703 -1.9927 -2.23856 0
M  V30 1622 H 151.264 -1.1808 -1.10764 0
M  V30 1623 H 153.256 -0.215836 -4.04124 0
M  V30 1624 H 151.826 0.298523 -3.11171 0
M  V30 1625 H 151.046 -2.18123 -3.28353 0
M  V30 1626 H 152.334 -2.41408 -4.47883 0
M  V30 1627 H 151.732 0.551486 -5.63005 0
M  V30 1628 H 150.289 0.251809 -6.51313 0
M  V30 1629 N 153.722 1.14298 -1.08507 0
M  V30 1630 C 154.97 1.84993 -0.813763 0
M  V30 1631 C 155.291 1.83405 0.662393 0
M  V30 1632 O 154.561 1.28319 1.48024 0
M  V30 1633 H 153.141 0.684966 -0.298045 0
M  V30 1634 H 155.803 1.385 -1.37126 0
M  V30 1635 H 154.899 2.89788 -1.15884 0
M  V30 1636 N 155.201 0.870884 1.31352 0
M  V30 1637 C 156.131 0.343096 2.30966 0
M  V30 1638 C 157.112 -0.566507 1.60389 0
M  V30 1639 O 158.297 -0.483336 1.88089 0
M  V30 1640 C 155.427 -0.455487 3.443 0
M  V30 1641 C 154.381 0.361103 4.26474 0
M  V30 1642 C 153.707 -0.563221 5.31725 0
M  V30 1643 C 155.007 1.59566 4.97329 0
M  V30 1644 H 156.701 1.17548 2.75359 0
M  V30 1645 H 154.247 0.566686 1.32381 0
M  V30 1646 H 156.2 -0.83525 4.13039 0
M  V30 1647 H 154.924 -1.32139 2.98675 0
M  V30 1648 H 153.583 0.722825 3.59403 0
M  V30 1649 H 153.231 -1.42643 4.82351 0
M  V30 1650 H 152.931 -0.0207409 5.87596 0
M  V30 1651 H 154.455 -0.939808 6.03324 0
M  V30 1652 H 155.869 1.28728 5.58661 0
M  V30 1653 H 154.266 2.07728 5.63 0
M  V30 1654 H 155.336 2.34798 4.24262 0
M  V30 1655 N 156.679 -1.44442 0.630414 0
M  V30 1656 C 157.629 -2.27794 -0.0968103 0
M  V30 1657 C 158.613 -1.38624 -0.816834 0
M  V30 1658 O 159.805 -1.62438 -0.70306 0
M  V30 1659 C 156.934 -3.25929 -1.07819 0
M  V30 1660 C 156.02 -4.22588 -0.357826 0
M  V30 1661 N 156.411 -5.0207 0.613169 0
M  V30 1662 C 154.709 -4.41914 -0.602365 0
M  V30 1663 C 155.41 -5.72351 1.03871 0
M  V30 1664 N 154.386 -5.42287 0.377642 0
M  V30 1665 H 158.188 -2.86653 0.648621 0
M  V30 1666 H 155.702 -1.55871 0.455862 0
M  V30 1667 H 157.699 -3.84399 -1.61378 0
M  V30 1668 H 156.359 -2.68631 -1.82393 0
M  V30 1669 H 157.37 -5.08331 0.990947 0
M  V30 1670 H 154.047 -3.95714 -1.33103 0
M  V30 1671 H 155.437 -6.4619 1.84086 0
M  V30 1672 N 158.157 -0.370918 -1.53173 0
M  V30 1673 C 159.385 0.217704 -2.05751 0
M  V30 1674 C 159.8 1.42018 -1.24404 0
M  V30 1675 O 159.157 1.80245 -0.286033 0
M  V30 1676 C 159.208 0.605954 -3.56385 0
M  V30 1677 O 158.929 -0.548734 -4.3465 0
M  V30 1678 C 160.43 1.2524 -4.25241 0
M  V30 1679 H 157.65 0.0371659 -0.66997 0
M  V30 1680 H 160.194 -0.530832 -1.9749 0
M  V30 1681 H 158.349 1.3044 -3.6478 0
M  V30 1682 H 158.763 -0.23376 -5.23979 0
M  V30 1683 H 160.237 1.47458 -5.3194 0
M  V30 1684 H 160.714 2.2143 -3.79296 0
M  V30 1685 H 161.32 0.595233 -4.21114 0
M  V30 1686 N 159.635 1.57281 -0.100228 0
M  V30 1687 C 160.567 2.11342 0.886972 0
M  V30 1688 C 161.58 1.05182 1.24261 0
M  V30 1689 O 162.769 1.32613 1.19483 0
M  V30 1690 C 159.869 2.5825 2.19454 0
M  V30 1691 C 159.042 3.88302 2.01346 0
M  V30 1692 C 158.101 4.21004 3.15661 0
M  V30 1693 O 157.127 4.9014 2.89398 0
M  V30 1694 N 158.329 3.76818 4.41575 0
M  V30 1695 H 161.094 2.96668 0.425216 0
M  V30 1696 H 158.655 1.61678 0.0847334 0
M  V30 1697 H 160.647 2.7717 2.94888 0
M  V30 1698 H 159.217 1.77907 2.57037 0
M  V30 1699 H 158.437 3.7848 1.10212 0
M  V30 1700 H 159.725 4.73375 1.8653 0
M  V30 1701 H 159.123 3.2102 4.65792 0
M  V30 1702 H 157.68 4.00882 5.13942 0
M  V30 1703 N 161.113 -0.173488 1.56642 0
M  V30 1704 C 162.361 -0.888706 1.81512 0
M  V30 1705 C 162.682 -1.82875 0.676872 0
M  V30 1706 O 161.952 -1.93536 -0.303414 0
M  V30 1707 H 160.532 -0.331164 0.669582 0
M  V30 1708 H 163.194 -0.173823 1.94123 0
M  V30 1709 H 162.29 -1.46691 2.75478 0
M  V30 1710 N 162.591 -1.51276 -0.441967 0
M  V30 1711 C 163.821 -1.67273 -1.21257 0
M  V30 1712 C 164.229 -0.367624 -1.85594 0
M  V30 1713 O 163.572 0.663349 -1.71305 0
M  V30 1714 C 163.634 -2.72807 -2.34129 0
M  V30 1715 C 163.298 -4.1554 -1.90198 0
M  V30 1716 C 164.295 -5.00471 -1.40801 0
M  V30 1717 C 161.98 -4.61616 -1.9803 0
M  V30 1718 C 163.974 -6.29536 -0.998174 0
M  V30 1719 C 161.661 -5.90679 -1.56658 0
M  V30 1720 C 162.659 -6.74466 -1.07633 0
M  V30 1721 O 162.347 -8.01116 -0.668459 0
M  V30 1722 H 162.079 -0.564614 -0.371734 0
M  V30 1723 H 164.633 -1.9843 -0.530521 0
M  V30 1724 H 162.863 -2.36954 -3.05597 0
M  V30 1725 H 164.552 -2.77729 -2.96009 0
M  V30 1726 H 165.318 -4.66079 -1.34148 0
M  V30 1727 H 161.197 -3.96526 -2.35135 0
M  V30 1728 H 164.741 -6.94885 -0.61482 0
M  V30 1729 H 160.638 -6.24586 -1.62979 0
M  V30 1730 H 161.406 -8.14633 -0.794722 0
M  V30 1731 N 164.069 0.697108 -1.41344 0
M  V30 1732 C 165.017 1.83237 -1.43272 0
M  V30 1733 C 166.011 1.66522 -0.310947 0
M  V30 1734 O 167.217 1.73402 -0.482899 0
M  V30 1735 H 163.592 0.603802 -0.448249 0
M  V30 1736 H 165.563 1.78727 -2.38954 0
M  V30 1737 C 164.312 3.21245 -1.33029 0
M  V30 1738 H 163.635 3.34723 -2.18633 0
M  V30 1739 H 165.075 4.00763 -1.38439 0
M  V30 1740 C 163.534 3.36873 -0.0424635 0
M  V30 1741 O 164.064 3.91177 0.913421 0
M  V30 1742 N 162.27 2.90581 0.0331145 0
M  V30 1743 H 161.817 2.46577 -0.745506 0
M  V30 1744 H 161.775 3.01416 0.894199 0
M  V30 1745 N 165.547 1.27147 0.931209 0
M  V30 1746 C 166.495 1.09398 2.05268 0
M  V30 1747 C 167.489 0.0180591 1.6939 0
M  V30 1748 O 168.695 0.17551 1.79142 0
M  V30 1749 H 165.07 0.336986 0.672268 0
M  V30 1750 H 167.041 2.04416 2.17386 0
M  V30 1751 C 165.79 0.75424 3.39421 0
M  V30 1752 H 165.113 1.57404 3.67511 0
M  V30 1753 H 166.553 0.669903 4.18674 0
M  V30 1754 C 165.012 -0.541197 3.32525 0
M  V30 1755 O 165.542 -1.57664 3.69466 0
M  V30 1756 N 163.748 -0.535517 2.85623 0
M  V30 1757 H 163.295 0.307511 2.55758 0
M  V30 1758 H 163.253 -1.40236 2.81392 0
M  V30 1759 N 167.025 -1.13721 1.09112 0
M  V30 1760 C 168.274 -1.84275 0.82009 0
M  V30 1761 C 168.587 -1.84253 -0.656509 0
M  V30 1762 O 169.793 -2.50668 -1.04296 0
M  V30 1763 C 168.249 -3.30825 1.41714 0
M  V30 1764 C 167.857 -3.39244 2.92605 0
M  V30 1765 C 169.601 -4.06443 1.22492 0
M  V30 1766 C 167.508 -4.80047 3.45411 0
M  V30 1767 H 166.438 -0.690387 0.30312 0
M  V30 1768 H 169.089 -1.28146 1.31343 0
M  V30 1769 H 167.471 -3.86737 0.851498 0
M  V30 1770 H 168.645 -2.93344 3.55367 0
M  V30 1771 H 166.96 -2.77088 3.10823 0
M  V30 1772 H 169.557 -5.10387 1.59402 0
M  V30 1773 H 169.9 -4.15972 0.165299 0
M  V30 1774 H 170.433 -3.56852 1.75788 0
M  V30 1775 H 167.172 -4.75709 4.50978 0
M  V30 1776 H 166.692 -5.26455 2.87411 0
M  V30 1777 H 168.371 -5.48957 3.42425 0
M  V30 1778 N 168.503 -0.877838 -1.30888 0
M  V30 1779 C 169.728 -0.506629 -2.01117 0
M  V30 1780 C 170.153 0.895564 -1.65412 0
M  V30 1781 O 169.511 1.5923 -0.866922 0
M  V30 1782 C 169.559 -0.680223 -3.54126 0
M  V30 1783 O 168.663 0.277033 -4.11468 0
M  V30 1784 H 168.004 -0.200518 -0.633 0
M  V30 1785 H 170.534 -1.18342 -1.66902 0
M  V30 1786 H 170.544 -0.5765 -4.03907 0
M  V30 1787 H 169.219 -1.70261 -3.79452 0
M  V30 1788 H 167.796 0.127606 -3.72682 0
M  V30 1789 N 169.982 1.44106 -0.638065 0
M  V30 1790 C 170.912 2.33448 0.0494287 0
M  V30 1791 C 171.893 1.48606 0.827672 0
M  V30 1792 O 173.078 1.77308 0.792173 0
M  V30 1793 C 170.208 3.31771 1.02691 0
M  V30 1794 C 169.162 4.26485 0.359823 0
M  V30 1795 C 168.488 5.14729 1.44769 0
M  V30 1796 C 169.788 5.17056 -0.738296 0
M  V30 1797 H 171.482 2.91183 -0.696636 0
M  V30 1798 H 169.028 1.40014 -0.336456 0
M  V30 1799 H 170.981 3.93161 1.51666 0
M  V30 1800 H 169.705 2.7226 1.80395 0
M  V30 1801 H 168.364 3.66437 -0.10934 0
M  V30 1802 H 168.012 4.51566 2.21578 0
M  V30 1803 H 167.712 5.78913 1.00668 0
M  V30 1804 H 169.236 5.78991 1.93911 0
M  V30 1805 H 170.65 5.72342 -0.331354 0
M  V30 1806 H 169.047 5.89879 -1.10286 0
M  V30 1807 H 170.117 4.57652 -1.60258 0
M  V30 1808 N 171.46 0.379036 1.52974 0
M  V30 1809 C 172.708 -0.206014 2.01047 0
M  V30 1810 C 173.029 -1.48175 1.26765 0
M  V30 1811 O 172.299 -1.92085 0.384743 0
M  V30 1812 H 170.879 -0.0791184 0.742798 0
M  V30 1813 H 173.541 0.508366 1.88153 0
M  V30 1814 H 172.637 -0.423501 3.09213 0
M  V30 1815 N 172.938 -1.57226 0.108567 0
M  V30 1816 C 174.187 -1.94008 -0.551703 0
M  V30 1817 C 174.5 -0.993442 -1.68494 0
M  V30 1818 O 175.706 -1.25551 -2.40726 0
M  V30 1819 C 174.162 -3.44763 -1.03279 0
M  V30 1820 C 173.77 -4.47943 0.0714193 0
M  V30 1821 C 175.514 -3.90483 -1.66503 0
M  V30 1822 C 173.421 -5.89865 -0.425779 0
M  V30 1823 H 172.351 -0.724206 -0.209863 0
M  V30 1824 H 175.002 -1.82547 0.186741 0
M  V30 1825 H 173.384 -3.51422 -1.82533 0
M  V30 1826 H 174.558 -4.52942 0.847365 0
M  V30 1827 H 172.873 -4.11913 0.609669 0
M  V30 1828 H 175.47 -4.93925 -2.04798 0
M  V30 1829 H 175.813 -3.29877 -2.53942 0
M  V30 1830 H 176.346 -3.86581 -0.938074 0
M  V30 1831 H 173.085 -6.54202 0.412316 0
M  V30 1832 H 172.605 -5.88309 -1.16843 0
M  V30 1833 H 174.284 -6.40844 -0.890397 0
M  V30 1834 N 174.416 0.165178 -1.56732 0
M  V30 1835 C 175.379 1.18822 -1.95995 0
M  V30 1836 C 176.379 1.3685 -0.84431 0
M  V30 1837 O 177.569 1.34152 -1.11126 0
M  V30 1838 C 174.701 2.5521 -2.26011 0
M  V30 1839 H 175.894 0.851825 -2.87548 0
M  V30 1840 H 173.447 0.407857 -1.50885 0
M  V30 1841 H 174.182 2.93852 -1.37191 0
M  V30 1842 H 173.967 2.43489 -3.07336 0
M  V30 1843 H 175.457 3.28927 -2.57288 0
M  V30 1844 N 175.894 1.51508 0.433938 0
M  V30 1845 C 177.141 1.64345 1.18309 0
M  V30 1846 C 177.469 0.361315 1.91115 0
M  V30 1847 O 176.724 -0.654753 1.84422 0
M  V30 1848 C 177.023 2.79928 2.22205 0
M  V30 1849 C 176.689 4.19078 1.66387 0
M  V30 1850 C 175.351 4.56932 1.50887 0
M  V30 1851 C 177.703 5.05894 1.25381 0
M  V30 1852 C 175.031 5.79305 0.928608 0
M  V30 1853 C 177.383 6.2885 0.687823 0
M  V30 1854 C 176.047 6.65473 0.519755 0
M  V30 1855 H 175.317 0.601381 0.432923 0
M  V30 1856 H 177.964 1.85549 0.473676 0
M  V30 1857 H 176.269 2.52959 2.99197 0
M  V30 1858 H 177.966 2.87059 2.79997 0
M  V30 1859 H 174.556 3.89234 1.79428 0
M  V30 1860 H 178.74 4.77253 1.36175 0
M  V30 1861 H 173.996 6.06324 0.786186 0
M  V30 1862 H 178.17 6.95461 0.361581 0
M  V30 1863 H 175.797 7.6017 0.0679979 0
M  V30 1864 N 177.372 -0.689602 1.41712 0
M  V30 1865 C 178.619 -1.44966 1.4139 0
M  V30 1866 C 178.947 -1.94484 0.025105 0
M  V30 1867 O 178.202 -1.70307 -0.964048 0
M  V30 1868 C 178.501 -2.67298 2.37247 0
M  V30 1869 C 178.167 -2.36405 3.83958 0
M  V30 1870 C 176.829 -2.27691 4.23923 0
M  V30 1871 C 179.181 -2.11043 4.76561 0
M  V30 1872 C 176.509 -1.91719 5.54492 0
M  V30 1873 C 178.861 -1.76578 6.07456 0
M  V30 1874 C 177.525 -1.66363 6.46436 0
M  V30 1875 H 176.795 -0.53047 0.517381 0
M  V30 1876 H 179.442 -0.787655 1.74552 0
M  V30 1877 H 177.747 -3.38461 1.9736 0
M  V30 1878 H 179.444 -3.25452 2.34269 0
M  V30 1879 H 176.034 -2.44085 3.52308 0
M  V30 1880 H 180.218 -2.16717 4.46483 0
M  V30 1881 H 175.474 -1.82367 5.83568 0
M  V30 1882 H 179.648 -1.55974 6.78708 0
M  V30 1883 H 177.275 -1.38258 7.47522 0
M  V30 1884 N 178.85 -1.27639 -0.924453 0
M  V30 1885 C 180.098 -1.13941 -1.66918 0
M  V30 1886 C 180.419 0.314589 -1.92446 0
M  V30 1887 O 179.689 1.21964 -1.53303 0
M  V30 1888 H 178.269 -0.418678 -0.618642 0
M  V30 1889 H 180.931 -1.60213 -1.10985 0
M  V30 1890 H 180.027 -1.67094 -2.63602 0
M  V30 1891 N 180.328 1.1314 -1.09713 0
M  V30 1892 C 181.276 2.20717 -0.733934 0
M  V30 1893 C 182.27 1.6729 0.266506 0
M  V30 1894 O 183.476 1.79547 0.127656 0
M  V30 1895 H 179.851 0.719292 -0.21937 0
M  V30 1896 H 181.822 2.48611 -1.6503 0
M  V30 1897 C 180.571 3.47265 -0.173849 0
M  V30 1898 H 179.894 3.88716 -0.934873 0
M  V30 1899 H 181.334 4.23979 0.0423126 0
M  V30 1900 C 179.793 3.18724 1.09164 0
M  V30 1901 O 180.323 3.37762 2.17439 0
M  V30 1902 N 178.529 2.72583 1.00732 0
M  V30 1903 H 178.076 2.57291 0.126121 0
M  V30 1904 H 178.034 2.53862 1.85476 0
M  V30 1905 N 181.806 0.884767 1.30421 0
M  V30 1906 C 182.753 0.349642 2.28136 0
M  V30 1907 C 183.723 -0.560061 1.56373 0
M  V30 1908 O 184.908 -0.488524 1.8444 0
M  V30 1909 C 182.048 -0.42999 3.42411 0
M  V30 1910 C 181.161 0.508907 4.28992 0
M  V30 1911 C 180.296 -0.286301 5.30428 0
M  V30 1912 C 179.335 0.648079 6.08659 0
M  V30 1913 N 178.472 -0.111792 7.02011 0
M  V30 1914 H 183.312 1.18807 2.73293 0
M  V30 1915 H 180.849 0.597231 1.3443 0
M  V30 1916 H 182.807 -0.897923 4.07423 0
M  V30 1917 H 181.437 -1.23299 2.98324 0
M  V30 1918 H 180.489 1.09533 3.64289 0
M  V30 1919 H 181.801 1.22475 4.8353 0
M  V30 1920 H 180.955 -0.816098 6.01186 0
M  V30 1921 H 179.694 -1.03536 4.76583 0
M  V30 1922 H 178.699 1.18951 5.36778 0
M  V30 1923 H 179.924 1.39623 6.64592 0
M  V30 1924 H 177.87 -0.843395 6.50556 0
M  V30 1925 H 177.787 0.544429 7.54037 0
M  V30 1926 H 179.055 -0.622339 7.77012 0
M  V30 1927 N 183.284 -1.43765 0.645699 0
M  V30 1928 C 184.533 -2.01116 0.153412 0
M  V30 1929 C 184.846 -1.51493 -1.23731 0
M  V30 1930 O 186.052 -2.01067 -1.8244 0
M  V30 1931 C 184.508 -3.59206 0.223473 0
M  V30 1932 C 184.116 -4.17823 1.61642 0
M  V30 1933 C 185.86 -4.23972 -0.211597 0
M  V30 1934 C 183.767 -5.68183 1.64081 0
M  V30 1935 H 182.697 -0.752093 0.0535891 0
M  V30 1936 H 185.348 -1.6482 0.806633 0
M  V30 1937 H 183.73 -3.92867 -0.497118 0
M  V30 1938 H 184.904 -3.95674 2.36176 0
M  V30 1939 H 183.219 -3.65399 1.99681 0
M  V30 1940 H 185.816 -5.34275 -0.213112 0
M  V30 1941 H 186.159 -3.97352 -1.24165 0
M  V30 1942 H 186.692 -3.95166 0.456988 0
M  V30 1943 H 183.431 -5.99559 2.64971 0
M  V30 1944 H 182.951 -5.9241 0.938611 0
M  V30 1945 H 184.63 -6.32085 1.3812 0
M  V30 1946 N 184.763 -0.387143 -1.52771 0
M  V30 1947 C 186.011 0.195349 -2.01154 0
M  V30 1948 C 186.332 1.475 -1.27549 0
M  V30 1949 O 185.602 1.91878 -0.394924 0
M  V30 1950 H 184.182 0.075178 -0.743207 0
M  V30 1951 H 186.844 -0.518337 -1.87881 0
M  V30 1952 H 185.94 0.407096 -3.09434 0
M  V30 1953 N 186.241 1.57166 -0.116904 0
M  V30 1954 C 187.466 1.999 0.55271 0
M  V30 1955 C 187.891 0.996039 1.59564 0
M  V30 1956 O 187.249 -0.032556 1.81271 0
M  V30 1957 C 187.297 3.4152 1.15742 0
M  V30 1958 O 186.401 3.44106 2.27299 0
M  V30 1959 H 185.742 0.649447 0.138258 0
M  V30 1960 H 188.272 2.03573 -0.204759 0
M  V30 1961 H 188.282 3.79684 1.49346 0
M  V30 1962 H 186.957 4.14034 0.393493 0
M  V30 1963 H 185.534 3.17759 1.9515 0
M  V30 1964 N 187.719 -0.156864 1.56817 0
M  V30 1965 C 188.944 -0.890331 1.87318 0
M  V30 1966 C 189.369 -1.74394 0.704855 0
M  V30 1967 O 188.727 -1.77972 -0.345786 0
M  V30 1968 C 188.775 -1.73102 3.16336 0
M  V30 1969 O 187.879 -2.83422 2.99576 0
M  V30 1970 H 187.22 -0.24857 0.615718 0
M  V30 1971 H 189.75 -0.150649 2.04045 0
M  V30 1972 H 189.76 -2.12803 3.48107 0
M  V30 1973 H 188.435 -1.10412 4.00976 0
M  V30 1974 H 187.012 -2.47199 2.7919 0
M  V30 1975 N 189.197 -1.51736 -0.425897 0
M  V30 1976 C 190.608 -1.5732 -1.00536 0
M  V30 1977 C 190.959 -0.403537 -1.92005 0
M  V30 1978 O 190.084 0.478256 -2.11049 0
M  V30 1979 C 190.679 -2.85119 -1.8301 0
M  V30 1980 C 189.238 -2.93236 -2.35987 0
M  V30 1981 C 188.385 -2.52098 -1.15508 0
M  V30 1982 H 191.336 -1.57348 -0.206739 0
M  V30 1983 H 191.357 -2.69526 -2.68581 0
M  V30 1984 H 190.869 -3.7023 -1.16411 0
M  V30 1985 H 188.97 -2.12581 -3.06007 0
M  V30 1986 H 189.083 -3.9713 -2.68001 0
M  V30 1987 H 187.447 -2.05558 -1.50393 0
M  V30 1988 H 188.23 -3.39565 -0.505014 0
M  V30 1989 N 190.675 0.682077 -1.42076 0
M  V30 1990 C 191.9 1.47558 -1.45744 0
M  V30 1991 C 192.325 1.87977 -0.0680981 0
M  V30 1992 O 191.683 1.55522 0.9318 0
M  V30 1993 C 191.731 2.70575 -2.38373 0
M  V30 1994 O 190.835 3.68573 -1.85007 0
M  V30 1995 H 190.176 0.443585 -0.494093 0
M  V30 1996 H 192.706 0.837238 -1.86686 0
M  V30 1997 H 192.716 3.18729 -2.54707 0
M  V30 1998 H 191.391 2.40495 -3.39315 0
M  V30 1999 H 189.968 3.2757 -1.78192 0
M  V30 2000 N 192.153 1.28127 0.917671 0
M  V30 2001 C 193.564 1.13622 1.48145 0
M  V30 2002 C 193.915 -0.275207 1.9426 0
M  V30 2003 O 193.04 -1.1691 1.82102 0
M  V30 2004 C 193.635 2.05648 2.69248 0
M  V30 2005 C 192.194 1.95219 3.21818 0
M  V30 2006 C 191.341 1.97618 1.94532 0
M  V30 2007 H 194.292 1.40874 0.730772 0
M  V30 2008 H 194.313 1.61818 3.44377 0
M  V30 2009 H 193.825 3.08365 2.35653 0
M  V30 2010 H 191.926 0.955244 3.60147 0
M  V30 2011 H 192.039 2.81976 3.87333 0
M  V30 2012 H 190.403 1.41973 2.11461 0
M  V30 2013 H 191.186 3.02007 1.63238 0
M  V30 2014 N 193.631 -1.12557 1.10312 0
M  V30 2015 C 194.594 -2.16434 0.75424 0
M  V30 2016 C 195.594 -1.59278 -0.220685 0
M  V30 2017 O 196.784 -1.742 0.00230591 0
M  V30 2018 C 193.916 -3.40699 0.116987 0
M  V30 2019 H 195.109 -2.48811 1.67431 0
M  V30 2020 H 192.662 -1.27542 0.903475 0
M  V30 2021 H 193.397 -3.13921 -0.813877 0
M  V30 2022 H 193.182 -3.83459 0.818613 0
M  V30 2023 H 194.672 -4.17451 -0.111387 0
M  V30 2024 N 195.109 -0.891671 -1.2995 0
M  V30 2025 C 196.072 -0.36828 -2.26222 0
M  V30 2026 C 197.072 0.493014 -1.53056 0
M  V30 2027 O 198.262 0.299213 -1.71611 0
M  V30 2028 C 195.394 0.47442 -3.37583 0
M  V30 2029 H 196.587 -1.21844 -2.74033 0
M  V30 2030 H 194.14 -0.669107 -1.41254 0
M  V30 2031 H 194.875 1.34489 -2.95099 0
M  V30 2032 H 194.66 -0.142615 -3.91841 0
M  V30 2033 H 196.15 0.83218 -4.09224 0
M  V30 2034 N 196.587 1.43421 -0.653314 0
M  V30 2035 C 197.517 2.33487 0.0246656 0
M  V30 2036 C 198.498 1.49475 0.811863 0
M  V30 2037 O 199.683 1.78139 0.773322 0
M  V30 2038 C 196.813 3.32841 0.99166 0
M  V30 2039 C 195.767 4.26842 0.314568 0
M  V30 2040 C 195.093 5.16236 1.39302 0
M  V30 2041 C 196.393 5.16243 -0.793095 0
M  V30 2042 H 198.087 2.90427 -0.727481 0
M  V30 2043 H 195.633 1.39649 -0.351287 0
M  V30 2044 H 197.586 3.94747 1.47487 0
M  V30 2045 H 196.31 2.74158 1.77497 0
M  V30 2046 H 194.969 3.663 -0.148199 0
M  V30 2047 H 194.617 4.53891 2.16776 0
M  V30 2048 H 194.317 5.79948 0.945223 0
M  V30 2049 H 195.841 5.81015 1.87759 0
M  V30 2050 H 197.255 5.71958 -0.392039 0
M  V30 2051 H 195.652 5.88676 -1.16536 0
M  V30 2052 H 196.722 4.55927 -1.65103 0
M  V30 2053 N 198.065 0.39524 1.52563 0
M  V30 2054 C 199.29 -0.187456 2.06551 0
M  V30 2055 C 199.715 -1.39249 1.26457 0
M  V30 2056 O 199.073 -1.78947 0.291151 0
M  V30 2057 C 199.121 -0.529985 3.56684 0
M  V30 2058 O 198.225 -1.62307 3.79118 0
M  V30 2059 H 197.566 -0.0202537 0.663691 0
M  V30 2060 H 200.096 0.564426 1.96661 0
M  V30 2061 H 200.106 -0.792598 4.00227 0
M  V30 2062 H 198.781 0.350987 4.14416 0
M  V30 2063 H 197.358 -1.3537 3.47461 0
M  V30 2064 N 199.544 -1.57102 0.125237 0
M  V30 2065 C 200.507 -2.14471 -0.80838 0
M  V30 2066 C 201.507 -1.0811 -1.19033 0
M  V30 2067 O 202.697 -1.33856 -1.11482 0
M  V30 2068 C 199.829 -2.69005 -2.09402 0
M  V30 2069 H 201.022 -2.98297 -0.309696 0
M  V30 2070 H 198.575 -1.55807 -0.124051 0
M  V30 2071 H 199.31 -1.88785 -2.63687 0
M  V30 2072 H 199.095 -3.46799 -1.82957 0
M  V30 2073 H 200.585 -3.13278 -2.76128 0
M  V30 2074 N 201.022 0.148545 -1.56898 0
M  V30 2075 C 201.985 1.16736 -1.97244 0
M  V30 2076 C 202.985 1.35947 -0.858777 0
M  V30 2077 O 204.175 1.32966 -1.12542 0
M  V30 2078 C 201.307 2.52798 -2.28705 0
M  V30 2079 H 202.5 0.821279 -2.88435 0
M  V30 2080 H 200.053 0.391831 -1.51309 0
M  V30 2081 H 200.788 2.92381 -1.403 0
M  V30 2082 H 200.573 2.40216 -3.09901 0
M  V30 2083 H 202.063 3.26179 -2.60762 0
M  V30 2084 N 202.5 1.5196 0.417844 0
M  V30 2085 C 203.41 1.77554 1.53336 0
M  V30 2086 C 204.426 0.660655 1.6097 0
M  V30 2087 O 205.602 0.945099 1.77848 0
M  V30 2088 C 202.667 1.91291 2.89152 0
M  V30 2089 C 201.728 3.15183 2.91475 0
M  V30 2090 C 200.961 3.28256 4.20813 0
M  V30 2091 O 201.184 2.46798 5.14244 0
M  V30 2092 O 200.118 4.21356 4.29817 0
M  V30 2093 H 203.944 2.7222 1.34647 0
M  V30 2094 H 201.529 1.36698 0.602828 0
M  V30 2095 H 203.411 2.02199 3.69721 0
M  V30 2096 H 202.086 0.998129 3.07927 0
M  V30 2097 H 200.993 3.09739 2.09791 0
M  V30 2098 H 202.326 4.06414 2.77648 0
M  V30 2099 N 203.978 -0.674533 1.42435 0
M  V30 2100 C 205.226 -1.43175 1.42637 0
M  V30 2101 C 205.547 -1.94951 0.0438992 0
M  V30 2102 O 204.817 -1.7308 -0.917607 0
M  V30 2103 H 203.397 -0.531307 0.525092 0
M  V30 2104 H 206.059 -0.797006 1.77859 0
M  V30 2105 H 205.155 -2.28463 2.12629 0
M  V30 2106 N 205.456 -1.28612 -0.910864 0
M  V30 2107 C 206.386 -1.15326 -2.03032 0
M  V30 2108 C 207.367 -0.0502924 -1.70026 0
M  V30 2109 O 208.552 -0.227797 -1.92859 0
M  V30 2110 C 205.682 -0.817343 -3.37545 0
M  V30 2111 C 204.636 -1.8754 -3.84724 0
M  V30 2112 C 203.962 -1.39305 -5.16235 0
M  V30 2113 C 205.262 -3.28244 -4.06267 0
M  V30 2114 H 206.956 -2.08975 -2.14406 0
M  V30 2115 H 204.502 -1.00612 -1.03021 0
M  V30 2116 H 206.455 -0.711151 -4.15356 0
M  V30 2117 H 205.179 0.154846 -3.26233 0
M  V30 2118 H 203.838 -1.97079 -3.09121 0
M  V30 2119 H 203.486 -0.409846 -5.01328 0
M  V30 2120 H 203.186 -2.10057 -5.48771 0
M  V30 2121 H 204.71 -1.30014 -5.96598 0
M  V30 2122 H 206.124 -3.21611 -4.74594 0
M  V30 2123 H 204.521 -3.96855 -4.5014 0
M  V30 2124 H 205.591 -3.72048 -3.10979 0
M  V30 2125 N 206.934 1.1197 -1.10907 0
M  V30 2126 C 208.183 1.82947 -0.849302 0
M  V30 2127 C 208.496 1.85275 0.627112 0
M  V30 2128 O 209.702 2.52296 1.00295 0
M  V30 2129 C 208.158 3.28529 -1.46959 0
M  V30 2130 C 207.766 3.34546 -2.97965 0
M  V30 2131 C 209.51 4.04443 -1.28942 0
M  V30 2132 C 207.417 4.74491 -3.53004 0
M  V30 2133 H 206.347 0.685477 -0.314065 0
M  V30 2134 H 208.998 1.2604 -1.33365 0
M  V30 2135 H 207.38 3.85333 -0.912917 0
M  V30 2136 H 208.554 2.87654 -3.59989 0
M  V30 2137 H 206.869 2.72108 -3.15192 0
M  V30 2138 H 209.466 5.07787 -1.67502 0
M  V30 2139 H 209.809 4.15656 -0.231456 0
M  V30 2140 H 210.342 3.5401 -1.81443 0
M  V30 2141 H 207.081 4.68474 -4.58489 0
M  V30 2142 H 206.601 5.21816 -2.9575 0
M  V30 2143 H 208.28 5.4344 -3.51115 0
M  V30 2144 N 208.412 0.89855 1.29475 0
M  V30 2145 C 209.637 0.538561 2.00285 0
M  V30 2146 C 210.062 -0.869135 1.66816 0
M  V30 2147 O 209.42 -1.57831 0.892145 0
M  V30 2148 C 209.468 0.736475 3.52999 0
M  V30 2149 O 208.572 -0.211537 4.11857 0
M  V30 2150 H 207.913 0.210563 0.62973 0
M  V30 2151 H 210.443 1.20982 1.64998 0
M  V30 2152 H 210.453 0.640685 4.02938 0
M  V30 2153 H 209.128 1.76276 3.76696 0
M  V30 2154 H 207.705 -0.0682991 3.72837 0
M  V30 2155 N 209.89 -1.43072 0.660911 0
M  V30 2156 C 211.12 -2.05769 0.185153 0
M  V30 2157 C 211.528 -1.49668 -1.15742 0
M  V30 2158 O 210.871 -0.625649 -1.72717 0
M  V30 2159 C 210.933 -3.59489 0.0278237 0
M  V30 2160 C 210.597 -4.38212 1.2969 0
M  V30 2161 C 211.594 -4.69772 2.22734 0
M  V30 2162 C 209.279 -4.7809 1.54063 0
M  V30 2163 C 211.273 -5.40129 3.38437 0
M  V30 2164 C 208.96 -5.4819 2.70058 0
M  V30 2165 C 209.958 -5.79132 3.62071 0
M  V30 2166 O 209.646 -6.47798 4.76039 0
M  V30 2167 H 209.378 -0.669873 0.0908086 0
M  V30 2168 H 211.932 -1.84436 0.90402 0
M  V30 2169 H 210.162 -3.79426 -0.746489 0
M  V30 2170 H 211.851 -4.03862 -0.406275 0
M  V30 2171 H 212.617 -4.39476 2.05149 0
M  V30 2172 H 208.496 -4.53408 0.833215 0
M  V30 2173 H 212.04 -5.64198 4.10277 0
M  V30 2174 H 207.937 -5.77902 2.87574 0
M  V30 2175 H 208.705 -6.66283 4.75404 0
M  V30 2176 N 211.368 -0.403325 -1.52352 0
M  V30 2177 C 212.331 0.413051 -2.25447 0
M  V30 2178 C 213.331 0.978513 -1.276 0
M  V30 2179 O 214.521 0.858305 -1.51587 0
M  V30 2180 C 211.653 1.58087 -3.02029 0
M  V30 2181 H 212.846 -0.227094 -2.99039 0
M  V30 2182 H 210.399 -0.155722 -1.55522 0
M  V30 2183 H 211.134 2.25804 -2.32772 0
M  V30 2184 H 210.919 1.18195 -3.73861 0
M  V30 2185 H 212.409 2.1585 -3.57489 0
M  V30 2186 N 212.846 1.57033 -0.133567 0
M  V30 2187 C 214.095 1.94861 0.520768 0
M  V30 2188 C 214.408 1.02012 1.66892 0
M  V30 2189 O 215.614 1.29365 2.38699 0
M  V30 2190 C 214.07 3.46362 0.977809 0
M  V30 2191 C 213.678 4.47773 -0.142674 0
M  V30 2192 C 215.422 3.93083 1.60269 0
M  V30 2193 C 213.329 5.90468 0.331883 0
M  V30 2194 H 212.259 0.727453 0.198315 0
M  V30 2195 H 214.91 1.82227 -0.215759 0
M  V30 2196 H 213.292 3.54282 1.7692 0
M  V30 2197 H 214.466 4.51536 -0.919317 0
M  V30 2198 H 212.781 4.10891 -0.675124 0
M  V30 2199 H 215.378 4.97121 1.96914 0
M  V30 2200 H 215.721 3.33876 2.48662 0
M  V30 2201 H 216.254 3.88025 0.876453 0
M  V30 2202 H 212.993 6.53463 -0.516341 0
M  V30 2203 H 212.513 5.90094 1.07469 0
M  V30 2204 H 214.192 6.42179 0.788332 0
M  V30 2205 N 214.325 -0.140222 1.56975 0
M  V30 2206 C 215.257 -1.19818 1.95388 0
M  V30 2207 C 216.27 -1.38816 0.850525 0
M  V30 2208 O 217.459 -1.38267 1.12891 0
M  V30 2209 C 214.559 -2.56189 2.21857 0
M  V30 2210 C 213.732 -2.58077 3.5315 0
M  V30 2211 C 212.791 -3.76037 3.6808 0
M  V30 2212 O 211.817 -3.60598 4.40406 0
M  V30 2213 N 213.019 -4.93763 3.05251 0
M  V30 2214 H 215.784 -0.871609 2.86746 0
M  V30 2215 H 213.345 -0.32972 1.58507 0
M  V30 2216 H 215.337 -3.33623 2.2908 0
M  V30 2217 H 213.907 -2.81111 1.36731 0
M  V30 2218 H 213.127 -1.6651 3.57307 0
M  V30 2219 H 214.415 -2.56377 4.39486 0
M  V30 2220 H 213.813 -5.09209 2.46419 0
M  V30 2221 H 212.37 -5.68949 3.18026 0
M  V30 2222 N 215.803 -1.52179 -0.40978 0
M  V30 2223 C 216.75 -1.75475 -1.49924 0
M  V30 2224 C 217.72 -0.597175 -1.54994 0
M  V30 2225 O 218.905 -0.834655 -1.71575 0
M  V30 2226 C 216.045 -1.9107 -2.87378 0
M  V30 2227 C 215.158 -3.18717 -2.91622 0
M  V30 2228 C 214.293 -3.24747 -4.20372 0
M  V30 2229 C 213.332 -4.46598 -4.18588 0
M  V30 2230 N 212.469 -4.50025 -5.38908 0
M  V30 2231 H 217.309 -2.68458 -1.29361 0
M  V30 2232 H 214.846 -1.33024 -0.627934 0
M  V30 2233 H 216.804 -1.98096 -3.6717 0
M  V30 2234 H 215.434 -1.01469 -3.06437 0
M  V30 2235 H 214.486 -3.20866 -2.04326 0
M  V30 2236 H 215.798 -4.08544 -2.86169 0
M  V30 2237 H 214.952 -3.30841 -5.08556 0
M  V30 2238 H 213.691 -2.32857 -4.28519 0
M  V30 2239 H 212.696 -4.40652 -3.28794 0
M  V30 2240 H 213.921 -5.39783 -4.12081 0
M  V30 2241 H 211.867 -3.61017 -5.47725 0
M  V30 2242 H 211.784 -5.33697 -5.35447 0
M  V30 2243 H 213.052 -4.60347 -6.29048 0
M  V30 2244 N 217.281 0.66697 -1.42791 0
M  V30 2245 C 218.529 1.42417 -1.43394 0
M  V30 2246 C 218.85 1.94925 -0.0542373 0
M  V30 2247 O 218.12 1.73564 0.908415 0
M  V30 2248 H 216.7 0.528515 -0.527902 0
M  V30 2249 H 219.362 0.787562 -1.78279 0
M  V30 2250 H 218.458 2.27333 -2.13837 0
M  V30 2251 N 218.759 1.29093 0.90403 0
M  V30 2252 C 219.709 1.10482 1.99443 0
M  V30 2253 C 220.693 0.0255401 1.6088 0
M  V30 2254 O 221.885 0.24677 1.75271 0
M  V30 2255 C 219.014 0.778882 3.34348 0
M  V30 2256 C 218.1 1.89749 3.79284 0
M  V30 2257 N 218.491 3.14045 3.96497 0
M  V30 2258 C 216.789 1.78955 4.08523 0
M  V30 2259 C 217.49 3.86996 4.34292 0
M  V30 2260 N 216.466 3.14909 4.43095 0
M  V30 2261 H 220.268 2.04778 2.10815 0
M  V30 2262 H 217.782 1.20155 1.09255 0
M  V30 2263 H 219.779 0.62661 4.12164 0
M  V30 2264 H 218.439 -0.156205 3.24324 0
M  V30 2265 H 219.45 3.49548 3.82148 0
M  V30 2266 H 216.127 0.926886 4.07081 0
M  V30 2267 H 217.517 4.93941 4.55491 0
M  V30 2268 N 220.237 -1.11381 1.11499 0
M  V30 2269 C 221.167 -2.19509 0.796125 0
M  V30 2270 C 222.148 -1.68458 -0.235796 0
M  V30 2271 O 223.333 -1.93947 -0.0991344 0
M  V30 2272 C 220.463 -3.46475 0.239205 0
M  V30 2273 C 219.417 -4.10744 1.20307 0
M  V30 2274 C 218.743 -5.32293 0.50683 0
M  V30 2275 C 220.043 -4.55597 2.55399 0
M  V30 2276 H 221.737 -2.46439 1.70024 0
M  V30 2277 H 219.283 -1.18446 0.818935 0
M  V30 2278 H 221.236 -4.214 0.00392006 0
M  V30 2279 H 219.96 -3.19006 -0.700206 0
M  V30 2280 H 218.619 -3.37813 1.42399 0
M  V30 2281 H 218.267 -5.01095 -0.437408 0
M  V30 2282 H 217.967 -5.76243 1.1497 0
M  V30 2283 H 219.491 -6.09956 0.280351 0
M  V30 2284 H 220.905 -5.21841 2.37391 0
M  V30 2285 H 219.302 -5.10363 3.15673 0
M  V30 2286 H 220.372 -3.69013 3.14575 0
M  V30 2287 N 221.715 -0.905404 -1.28997 0
M  V30 2288 C 222.94 -0.549175 -1.99997 0
M  V30 2289 C 223.365 0.860276 -1.67275 0
M  V30 2290 O 222.723 1.57355 -0.900502 0
M  V30 2291 C 222.771 -0.755185 -3.52604 0
M  V30 2292 O 221.875 0.189692 -4.11964 0
M  V30 2293 H 221.216 -0.213899 -0.628604 0
M  V30 2294 H 223.746 -1.21856 -1.64354 0
M  V30 2295 H 223.756 -0.662045 -4.02593 0
M  V30 2296 H 222.431 -1.78271 -3.75755 0
M  V30 2297 H 221.008 0.0485257 -3.72868 0
M  V30 2298 N 223.193 1.4272 -0.668489 0
M  V30 2299 C 224.604 1.84793 -0.266151 0
M  V30 2300 C 224.955 1.55959 1.19043 0
M  V30 2301 O 224.08 1.01622 1.91055 0
M  V30 2302 C 224.675 3.35436 -0.476271 0
M  V30 2303 C 223.234 3.76182 -0.128113 0
M  V30 2304 C 222.381 2.66344 -0.771777 0
M  V30 2305 H 225.332 1.32656 -0.871098 0
M  V30 2306 H 225.353 3.79515 0.273561 0
M  V30 2307 H 224.865 3.5639 -1.53647 0
M  V30 2308 H 222.966 3.60836 0.928891 0
M  V30 2309 H 223.079 4.75766 -0.564231 0
M  V30 2310 H 221.443 2.53885 -0.203652 0
M  V30 2311 H 222.226 2.90123 -1.83531 0
M  V30 2312 N 224.671 0.411399 1.52136 0
M  V30 2313 C 226.087 0.0623865 1.59478 0
M  V30 2314 C 226.287 -1.42554 1.4241 0
M  V30 2315 O 225.343 -2.19263 1.2522 0
M  V30 2316 C 226.656 0.559331 2.95452 0
M  V30 2317 C 228.204 0.517503 3.08692 0
M  V30 2318 C 228.679 0.990994 4.4715 0
M  V30 2319 N 230.17 0.947908 4.53397 0
M  V30 2320 C 230.905 1.28544 5.58806 0
M  V30 2321 N 230.401 1.69454 6.71757 0
M  V30 2322 N 232.194 1.20526 5.49026 0
M  V30 2323 H 224.345 1.37982 1.61477 0
M  V30 2324 H 226.608 0.566977 0.759764 0
M  V30 2325 H 226.314 1.59938 3.1323 0
M  V30 2326 H 226.188 -0.0298014 3.77188 0
M  V30 2327 H 228.575 -0.513505 2.90598 0
M  V30 2328 H 228.656 1.14272 2.28857 0
M  V30 2329 H 228.3 2.02034 4.65988 0
M  V30 2330 H 228.23 0.34257 5.25485 0
M  V30 2331 H 230.721 0.647157 3.72317 0
M  V30 2332 H 231.034 1.93513 7.48179 0
M  V30 2333 H 229.379 1.73359 6.73032 0
M  V30 2334 H 232.57 0.884505 4.59667 0
M  V30 2335 H 232.743 1.47161 6.31069 0
M  V30 2336 N 226.149 -1.5696 0.141893 0
M  V30 2337 C 227.379 -2.00031 -0.516828 0
M  V30 2338 C 227.787 -1.02091 -1.59293 0
M  V30 2339 O 227.13 -0.00909657 -1.83698 0
M  V30 2340 C 227.192 -3.39534 -1.1814 0
M  V30 2341 C 226.856 -4.56313 -0.250513 0
M  V30 2342 C 227.853 -5.17295 0.519839 0
M  V30 2343 C 225.538 -5.02061 -0.154907 0
M  V30 2344 C 227.532 -6.2243 1.3733 0
M  V30 2345 C 225.219 -6.07053 0.702161 0
M  V30 2346 C 226.217 -6.67106 1.46487 0
M  V30 2347 O 225.905 -7.70066 2.30767 0
M  V30 2348 H 225.637 -0.661451 -0.139493 0
M  V30 2349 H 228.191 -2.04086 0.231926 0
M  V30 2350 H 226.421 -3.32302 -1.97769 0
M  V30 2351 H 228.11 -3.66745 -1.73933 0
M  V30 2352 H 228.876 -4.82852 0.45598 0
M  V30 2353 H 224.755 -4.5505 -0.7383 0
M  V30 2354 H 228.299 -6.69233 1.96909 0
M  V30 2355 H 224.196 -6.40923 0.76733 0
M  V30 2356 H 224.964 -7.87264 2.23959 0
M  V30 2357 N 227.627 0.131896 -1.57047 0
M  V30 2358 C 228.876 0.84044 -1.83356 0
M  V30 2359 C 229.189 1.81646 -0.725535 0
M  V30 2360 O 230.395 2.57025 -0.874659 0
M  V30 2361 C 228.851 1.54528 -3.25037 0
M  V30 2362 C 228.459 0.610902 -4.43815 0
M  V30 2363 C 230.203 2.23972 -3.60606 0
M  V30 2364 C 228.11 1.31823 -5.76521 0
M  V30 2365 H 227.04 0.317599 -0.683847 0
M  V30 2366 H 229.691 0.0931561 -1.83263 0
M  V30 2367 H 228.073 2.33873 -3.19561 0
M  V30 2368 H 229.247 -0.148407 -4.60561 0
M  V30 2369 H 227.562 0.0241016 -4.16393 0
M  V30 2370 H 230.159 2.77558 -4.57018 0
M  V30 2371 H 230.502 3.01173 -2.87403 0
M  V30 2372 H 231.035 1.51529 -3.6781 0
M  V30 2373 H 227.774 0.587771 -6.52859 0
M  V30 2374 H 227.294 2.04987 -5.63685 0
M  V30 2375 H 228.973 1.855 -6.19838 0
M  V30 2376 N 229.106 1.52395 0.401703 0
M  V30 2377 C 230.038 1.72505 1.50912 0
M  V30 2378 C 231.051 0.605468 1.51122 0
M  V30 2379 O 232.24 0.880828 1.55254 0
M  V30 2380 C 229.34 1.75711 2.89791 0
M  V30 2381 C 228.513 3.04824 3.1369 0
M  V30 2382 C 227.572 2.99743 4.32482 0
M  V30 2383 O 226.598 3.73635 4.29402 0
M  V30 2384 N 227.8 2.18047 5.37992 0
M  V30 2385 H 230.565 2.68049 1.34052 0
M  V30 2386 H 228.126 1.50724 0.591084 0
M  V30 2387 H 230.118 1.69834 3.6734 0
M  V30 2388 H 228.688 0.876092 3.00072 0
M  V30 2389 H 227.908 3.2429 2.24119 0
M  V30 2390 H 229.196 3.90221 3.26504 0
M  V30 2391 H 228.594 1.57456 5.43345 0
M  V30 2392 H 227.151 2.18021 6.14256 0
M  V30 2393 N 230.584 -0.659388 1.43143 0
M  V30 2394 C 231.995 -1.24041 1.39537 0
M  V30 2395 C 232.346 -1.95963 0.0963364 0
M  V30 2396 O 231.471 -2.00892 -0.804438 0
M  V30 2397 C 232.066 -2.25601 2.52764 0
M  V30 2398 C 230.625 -2.79195 2.52443 0
M  V30 2399 C 229.772 -1.53743 2.30778 0
M  V30 2400 H 232.723 -0.451792 1.52133 0
M  V30 2401 H 232.744 -3.07651 2.23899 0
M  V30 2402 H 232.256 -1.73226 3.47296 0
M  V30 2403 H 230.357 -3.35649 1.61773 0
M  V30 2404 H 230.47 -3.2716 3.50004 0
M  V30 2405 H 228.834 -1.80869 1.79328 0
M  V30 2406 H 229.617 -1.03312 3.27386 0
M  V30 2407 N 232.062 -1.29571 -0.897171 0
M  V30 2408 C 232.992 -1.17473 -2.01798 0
M  V30 2409 C 233.973 -0.068323 -1.69963 0
M  V30 2410 O 235.158 -0.248239 -1.92607 0
M  V30 2411 C 232.288 -0.853099 -3.36659 0
M  V30 2412 C 231.242 -1.9161 -3.82713 0
M  V30 2413 C 230.568 -1.44773 -5.14728 0
M  V30 2414 C 231.868 -3.32535 -4.02763 0
M  V30 2415 H 233.562 -2.11237 -2.12177 0
M  V30 2416 H 231.108 -1.01699 -1.01948 0
M  V30 2417 H 233.061 -0.755165 -4.14578 0
M  V30 2418 H 231.785 0.120236 -3.26379 0
M  V30 2419 H 230.444 -2.00346 -3.07013 0
M  V30 2420 H 230.092 -0.462995 -5.00865 0
M  V30 2421 H 229.792 -2.15865 -5.46513 0
M  V30 2422 H 231.316 -1.36334 -5.95185 0
M  V30 2423 H 232.73 -3.26626 -4.71156 0
M  V30 2424 H 231.127 -4.01607 -4.45905 0
M  V30 2425 H 232.197 -3.75326 -3.07016 0
M  V30 2426 N 233.54 1.10788 -1.12088 0
M  V30 2427 C 234.47 2.19083 -0.807755 0
M  V30 2428 C 235.451 1.6858 0.226859 0
M  V30 2429 O 236.636 1.93997 0.0888475 0
M  V30 2430 C 233.766 3.46344 -0.257576 0
M  V30 2431 C 232.72 4.101 -1.22483 0
M  V30 2432 C 232.046 5.32016 -0.535052 0
M  V30 2433 C 233.346 4.54236 -2.57811 0
M  V30 2434 H 235.04 2.45534 -1.71328 0
M  V30 2435 H 232.586 1.1801 -0.825205 0
M  V30 2436 H 234.539 4.21392 -0.0262679 0
M  V30 2437 H 233.263 3.19373 0.683278 0
M  V30 2438 H 231.922 3.37054 -1.44189 0
M  V30 2439 H 231.57 5.01319 0.410827 0
M  V30 2440 H 231.27 5.75625 -1.18024 0
M  V30 2441 H 232.794 6.09799 -0.312695 0
M  V30 2442 H 234.208 5.20575 -2.40155 0
M  V30 2443 H 232.605 5.08682 -3.18375 0
M  V30 2444 H 233.675 3.6734 -3.16528 0
M  V30 2445 N 235.018 0.912232 1.28515 0
M  V30 2446 C 235.948 0.416403 2.29757 0
M  V30 2447 C 236.929 -0.515194 1.6211 0
M  V30 2448 O 238.114 -0.423253 1.89532 0
M  V30 2449 C 235.244 -0.34572 3.45575 0
M  V30 2450 C 234.198 0.496599 4.25109 0
M  V30 2451 C 233.524 -0.393771 5.33248 0
M  V30 2452 C 234.824 1.75307 4.92001 0
M  V30 2453 H 236.518 1.26249 2.7148 0
M  V30 2454 H 234.064 0.608515 1.30511 0
M  V30 2455 H 236.017 -0.703422 4.15488 0
M  V30 2456 H 234.741 -1.2257 3.02728 0
M  V30 2457 H 233.4 0.8368 3.56922 0
M  V30 2458 H 233.048 -1.27225 4.86644 0
M  V30 2459 H 232.748 0.166209 5.87365 0
M  V30 2460 H 234.272 -0.747389 6.06009 0
M  V30 2461 H 235.686 1.46437 5.54283 0
M  V30 2462 H 234.083 2.25534 5.56106 0
M  V30 2463 H 235.153 2.48176 4.16577 0
M  V30 2464 N 236.496 -1.42363 0.676048 0
M  V30 2465 C 237.443 -2.308 -0.00150904 0
M  V30 2466 C 238.413 -1.46032 -0.791444 0
M  V30 2467 O 239.598 -1.74861 -0.76344 0
M  V30 2468 C 236.738 -3.31883 -0.945919 0
M  V30 2469 C 235.851 -4.31741 -0.149675 0
M  V30 2470 C 234.986 -5.19898 -1.08995 0
M  V30 2471 C 234.025 -6.11434 -0.285465 0
M  V30 2472 N 233.162 -6.92138 -1.17851 0
M  V30 2473 H 238.002 -2.88187 0.758455 0
M  V30 2474 H 235.539 -1.41952 0.38576 0
M  V30 2475 H 237.497 -3.89019 -1.50731 0
M  V30 2476 H 236.127 -2.76093 -1.6725 0
M  V30 2477 H 235.179 -3.76713 0.528359 0
M  V30 2478 H 236.491 -4.96534 0.474866 0
M  V30 2479 H 235.645 -5.81772 -1.72123 0
M  V30 2480 H 234.384 -4.55284 -1.74837 0
M  V30 2481 H 233.389 -5.48627 0.359018 0
M  V30 2482 H 234.614 -6.78097 0.368883 0
M  V30 2483 H 232.56 -6.30152 -1.82332 0
M  V30 2484 H 232.477 -7.53542 -0.609082 0
M  V30 2485 H 233.745 -7.58499 -1.79722 0
M  V30 2486 N 237.974 -0.419461 -1.51915 0
M  V30 2487 C 238.884 0.407528 -2.31033 0
M  V30 2488 C 239.9 1.04413 -1.3919 0
M  V30 2489 O 241.076 1.0434 -1.72265 0
M  V30 2490 C 238.141 1.50365 -3.12396 0
M  V30 2491 C 237.202 0.889029 -4.19994 0
M  V30 2492 C 236.435 1.93291 -4.97468 0
M  V30 2493 O 236.658 3.15259 -4.75361 0
M  V30 2494 O 235.592 1.53339 -5.8204 0
M  V30 2495 H 239.418 -0.237865 -3.02767 0
M  V30 2496 H 237.003 -0.182413 -1.48282 0
M  V30 2497 H 238.885 2.13975 -3.63032 0
M  V30 2498 H 237.56 2.13345 -2.43445 0
M  V30 2499 H 236.467 0.215353 -3.7348 0
M  V30 2500 H 237.8 0.302991 -4.91267 0
M  V30 2501 N 239.452 1.56882 -0.150215 0
M  V30 2502 C 240.362 2.20494 0.801222 0
M  V30 2503 C 241.378 1.19019 1.26927 0
M  V30 2504 O 242.554 1.51607 1.32579 0
M  V30 2505 C 239.619 2.81659 2.02161 0
M  V30 2506 C 238.68 3.9827 1.60249 0
M  V30 2507 C 237.913 4.56508 2.7647 0
M  V30 2508 O 238.136 4.13627 3.92771 0
M  V30 2509 O 237.07 5.46719 2.51757 0
M  V30 2510 H 240.896 3.02315 0.289717 0
M  V30 2511 H 238.481 1.49202 0.0769684 0
M  V30 2512 H 240.363 3.20522 2.73576 0
M  V30 2513 H 239.038 2.02849 2.52258 0
M  V30 2514 H 237.945 3.64117 0.858477 0
M  V30 2515 H 239.278 4.78609 1.14864 0
M  V30 2516 N 240.93 -0.123565 1.57115 0
M  V30 2517 C 242.158 -0.846461 1.88793 0
M  V30 2518 C 242.573 -1.73652 0.740976 0
M  V30 2519 O 241.93 -1.80207 -0.288393 0
M  V30 2520 C 241.981 -1.6837 3.19897 0
M  V30 2521 O 241.702 -0.829477 4.30176 0
M  V30 2522 C 243.203 -2.51214 3.65248 0
M  V30 2523 H 240.423 -0.243573 0.625231 0
M  V30 2524 H 242.967 -0.109324 2.04208 0
M  V30 2525 H 241.122 -2.37364 3.06165 0
M  V30 2526 H 241.536 -1.40651 5.0529 0
M  V30 2527 H 243.01 -3.05497 4.59756 0
M  V30 2528 H 243.487 -3.28359 2.9168 0
M  V30 2529 H 244.093 -1.8747 3.81752 0
M  V30 2530 N 242.408 -1.52605 -0.393616 0
M  V30 2531 C 243.648 -1.6911 -1.1481 0
M  V30 2532 C 244.012 -0.41969 -1.87357 0
M  V30 2533 O 245.213 -0.461034 -2.64817 0
M  V30 2534 C 243.484 -2.88909 -2.10395 0
M  V30 2535 S 245.043 -3.25977 -2.93742 0
M  V30 2536 H 241.861 -0.595337 -0.38871 0
M  V30 2537 H 244.463 -1.90641 -0.433178 0
M  V30 2538 H 243.167 -3.79672 -1.55812 0
M  V30 2539 H 242.698 -2.69698 -2.86403 0
M  V30 2540 H 244.713 -2.75806 -4.12487 0
M  V30 2541 N 243.887 0.651787 -1.4349 0
M  V30 2542 C 244.817 1.77621 -1.51569 0
M  V30 2543 C 245.798 1.66022 -0.370253 0
M  V30 2544 O 246.983 1.85095 -0.587658 0
M  V30 2545 C 244.113 3.16056 -1.43966 0
M  V30 2546 C 243.067 3.4242 -2.56774 0
M  V30 2547 C 242.393 4.8067 -2.34223 0
M  V30 2548 C 243.693 3.37023 -3.99015 0
M  V30 2549 H 245.387 1.71117 -2.45681 0
M  V30 2550 H 242.933 0.821825 -1.18246 0
M  V30 2551 H 244.886 3.94472 -1.48221 0
M  V30 2552 H 243.61 3.23293 -0.463586 0
M  V30 2553 H 242.269 2.66375 -2.51873 0
M  V30 2554 H 241.917 4.84585 -1.34856 0
M  V30 2555 H 241.617 4.9927 -3.09844 0
M  V30 2556 H 243.141 5.61342 -2.40265 0
M  V30 2557 H 244.555 4.05374 -4.05395 0
M  V30 2558 H 242.952 3.67159 -4.74673 0
M  V30 2559 H 244.022 2.3518 -4.2405 0
M  V30 2560 N 245.365 1.30045 0.890287 0
M  V30 2561 C 246.642 1.09227 1.62262 0
M  V30 2562 C 247.022 -0.360305 2.08002 0
M  V30 2563 O 246.37 -1.35084 1.84295 0
M  V30 2564 C 246.58 2.08835 2.79623 0
M  V30 2565 C 247.928 2.40266 3.50082 0
M  V30 2566 O 248.952 2.07104 2.89804 0
M  V30 2567 O 247.811 2.96967 4.58773 0
M  V30 2568 H 244.905 0.419132 0.712922 0
M  V30 2569 H 247.451 1.41451 0.937529 0
M  V30 2570 H 246.223 3.06633 2.43089 0
M  V30 2571 H 245.846 1.77397 3.55832 0
M  V30 2572 N 246.843 -1.10192 1.12674 0
M  V30 2573 C 248.254 -1.63707 0.897604 0
M  V30 2574 C 248.605 -1.87812 -0.567546 0
M  V30 2575 O 247.73 -1.62196 -1.43253 0
M  V30 2576 C 248.325 -2.974 1.62292 0
M  V30 2577 C 246.884 -3.47772 1.43986 0
M  V30 2578 C 246.031 -2.22332 1.65722 0
M  V30 2579 H 248.982 -0.936587 1.28116 0
M  V30 2580 H 249.003 -3.64986 1.07541 0
M  V30 2581 H 248.515 -2.79824 2.68924 0
M  V30 2582 H 246.616 -3.70487 0.396206 0
M  V30 2583 H 246.729 -4.25723 2.19765 0
M  V30 2584 H 245.093 -2.30599 1.08149 0
M  V30 2585 H 245.876 -2.07285 2.73657 0
M  V30 2586 N 248.321 -0.919034 -1.28029 0
M  V30 2587 C 249.253 -0.368762 -2.26214 0
M  V30 2588 C 250.266 0.495716 -1.55069 0
M  V30 2589 O 251.455 0.30974 -1.75792 0
M  V30 2590 C 248.555 0.491049 -3.35324 0
M  V30 2591 C 247.728 -0.352133 -4.3598 0
M  V30 2592 C 246.787 0.443622 -5.24327 0
M  V30 2593 O 245.813 -0.14566 -5.69014 0
M  V30 2594 N 247.015 1.74545 -5.53637 0
M  V30 2595 H 249.78 -1.21273 -2.74068 0
M  V30 2596 H 247.341 -0.785541 -1.41566 0
M  V30 2597 H 249.333 1.03026 -3.91366 0
M  V30 2598 H 247.903 1.23574 -2.87138 0
M  V30 2599 H 247.123 -1.07269 -3.79324 0
M  V30 2600 H 248.411 -0.928883 -5.00249 0
M  V30 2601 H 247.809 2.24666 -5.19174 0
M  V30 2602 H 246.366 2.23138 -6.12416 0
M  V30 2603 N 249.799 1.42003 -0.683588 0
M  V30 2604 C 250.749 2.27997 0.0121992 0
M  V30 2605 C 251.733 1.4156 0.764822 0
M  V30 2606 O 252.925 1.64935 0.642287 0
M  V30 2607 C 250.054 3.29706 0.956482 0
M  V30 2608 C 249.14 4.23625 0.200739 0
M  V30 2609 N 249.531 4.99448 -0.799087 0
M  V30 2610 C 247.829 4.43845 0.437937 0
M  V30 2611 C 248.53 5.68102 -1.25041 0
M  V30 2612 N 247.506 5.40511 -0.578648 0
M  V30 2613 H 251.308 2.84048 -0.754564 0
M  V30 2614 H 248.822 1.54071 -0.513398 0
M  V30 2615 H 250.819 3.90124 1.47 0
M  V30 2616 H 249.479 2.75216 1.72297 0
M  V30 2617 H 250.49 5.04303 -1.17893 0
M  V30 2618 H 247.167 4.00382 1.18325 0
M  V30 2619 H 248.557 6.38913 -2.07942 0
M  V30 2620 N 251.277 0.427512 1.51691 0
M  V30 2621 C 252.688 -0.0378867 1.86662 0
M  V30 2622 C 253.039 -1.42819 1.34525 0
M  V30 2623 O 252.164 -2.05037 0.692014 0
M  V30 2624 C 252.759 -0.0755266 3.38716 0
M  V30 2625 C 251.318 -0.485309 3.73258 0
M  V30 2626 C 250.465 0.328399 2.75349 0
M  V30 2627 H 253.416 0.64379 1.45055 0
M  V30 2628 H 253.437 -0.887056 3.70016 0
M  V30 2629 H 252.949 0.936487 3.76632 0
M  V30 2630 H 251.05 -1.50329 3.40928 0
M  V30 2631 H 251.163 -0.21693 4.78609 0
M  V30 2632 H 249.527 -0.211905 2.53817 0
M  V30 2633 H 250.31 1.3391 3.16106 0
M  V30 2634 N 252.755 -1.56801 0.158532 0
M  V30 2635 C 254.001 -1.96781 -0.490405 0
M  V30 2636 C 254.334 -1.04397 -1.63753 0
M  V30 2637 O 253.609 -0.0885805 -1.94298 0
M  V30 2638 C 253.892 -3.4635 -0.985594 0
M  V30 2639 C 253.745 -4.49512 0.160824 0
M  V30 2640 C 255.064 -3.98697 -1.86355 0
M  V30 2641 H 252.183 -0.715482 -0.176788 0
M  V30 2642 H 254.825 -1.88451 0.242088 0
M  V30 2643 H 252.975 -3.53579 -1.60978 0
M  V30 2644 H 254.647 -4.54353 0.797537 0
M  V30 2645 H 252.89 -4.26013 0.818256 0
M  V30 2646 H 253.561 -5.51531 -0.227569 0
M  V30 2647 H 256.037 -3.94019 -1.33746 0
M  V30 2648 H 254.913 -5.03792 -2.17909 0
M  V30 2649 H 255.174 -3.41744 -2.8047 0
M  V30 2650 N 254.233 0.115231 -1.57178 0
M  V30 2651 C 255.166 1.17166 -1.95825 0
M  V30 2652 C 256.144 1.39912 -0.828463 0
M  V30 2653 O 257.328 1.54004 -1.08697 0
M  V30 2654 C 254.455 2.52478 -2.25771 0
M  V30 2655 C 253.501 2.46136 -3.48309 0
M  V30 2656 S 254.334 1.89736 -5.0076 0
M  V30 2657 C 255.49 3.26713 -5.33863 0
M  V30 2658 H 255.723 0.842103 -2.85124 0
M  V30 2659 H 253.256 0.322136 -1.51002 0
M  V30 2660 H 255.214 3.30332 -2.43702 0
M  V30 2661 H 253.875 2.82609 -1.37079 0
M  V30 2662 H 253.068 3.45819 -3.66641 0
M  V30 2663 H 252.67 1.76404 -3.29784 0
M  V30 2664 H 254.962 4.22935 -5.29275 0
M  V30 2665 H 255.905 3.13205 -6.35065 0
M  V30 2666 H 256.313 3.25316 -4.61335 0
M  V30 2667 N 255.711 1.52812 0.385517 0
M  V30 2668 C 257.122 1.5993 0.963293 0
M  V30 2669 C 257.473 0.454302 1.90868 0
M  V30 2670 O 256.598 -0.422132 2.12243 0
M  V30 2671 C 257.193 2.89871 1.75387 0
M  V30 2672 C 255.752 2.99389 2.28129 0
M  V30 2673 C 254.899 2.55071 1.08783 0
M  V30 2674 H 257.85 1.5784 0.164948 0
M  V30 2675 H 257.871 2.76553 2.61341 0
M  V30 2676 H 257.383 3.73186 1.06554 0
M  V30 2677 H 255.484 2.20619 3.00263 0
M  V30 2678 H 255.597 4.04096 2.57377 0
M  V30 2679 H 253.961 2.09473 1.4489 0
M  V30 2680 H 254.744 3.40785 0.414807 0
M  V30 2681 N 257.189 -0.644168 1.43834 0
M  V30 2682 C 258.605 -0.960875 1.27434 0
M  V30 2683 C 258.805 -2.00499 0.200618 0
M  V30 2684 O 257.861 -2.49018 -0.417906 0
M  V30 2685 C 259.174 -1.43653 2.64167 0
M  V30 2686 C 260.722 -1.55271 2.71772 0
M  V30 2687 C 261.197 -2.06224 4.08944 0
M  V30 2688 N 262.688 -2.13513 4.11055 0
M  V30 2689 C 263.423 -2.54081 5.14033 0
M  V30 2690 N 262.919 -2.9388 6.27381 0
M  V30 2691 N 264.712 -2.54101 5.01387 0
M  V30 2692 H 256.863 0.0465779 2.12349 0
M  V30 2693 H 259.126 -0.0417638 0.94708 0
M  V30 2694 H 258.832 -0.743706 3.43747 0
M  V30 2695 H 258.706 -2.40993 2.90176 0
M  V30 2696 H 261.093 -2.23653 1.92519 0
M  V30 2697 H 261.174 -0.563395 2.49519 0
M  V30 2698 H 260.818 -1.38441 4.88668 0
M  V30 2699 H 260.748 -3.06003 4.28567 0
M  V30 2700 H 263.239 -1.85493 3.29242 0
M  V30 2701 H 263.552 -3.2361 7.01781 0
M  V30 2702 H 261.897 -2.91663 6.30839 0
M  V30 2703 H 265.088 -2.22391 4.11898 0
M  V30 2704 H 265.261 -2.85394 5.81768 0
M  V30 2705 N 258.668 -1.30515 -0.883378 0
M  V30 2706 C 259.615 -1.17032 -1.98927 0
M  V30 2707 C 260.585 -0.0594241 -1.65994 0
M  V30 2708 O 261.77 -0.229895 -1.8941 0
M  V30 2709 C 258.91 -0.869777 -3.33959 0
M  V30 2710 C 258.023 -2.06271 -3.79574 0
M  V30 2711 C 257.158 -1.70011 -5.03259 0
M  V30 2712 C 256.197 -2.8579 -5.41286 0
M  V30 2713 N 255.334 -2.49816 -6.56153 0
M  V30 2714 H 260.174 -2.1164 -2.09792 0
M  V30 2715 H 257.711 -1.05296 -1.02719 0
M  V30 2716 H 259.669 -0.676138 -4.11685 0
M  V30 2717 H 258.299 0.0394332 -3.22776 0
M  V30 2718 H 257.351 -2.36755 -2.97744 0
M  V30 2719 H 258.663 -2.92971 -4.03694 0
M  V30 2720 H 257.817 -1.47032 -5.88614 0
M  V30 2721 H 256.556 -0.804829 -4.81013 0
M  V30 2722 H 255.561 -3.09434 -4.54456 0
M  V30 2723 H 256.786 -3.76008 -5.65504 0
M  V30 2724 H 254.732 -1.62795 -6.35479 0
M  V30 2725 H 254.649 -3.30048 -6.8015 0
M  V30 2726 H 255.917 -2.30197 -7.44735 0
M  V30 2727 N 260.146 1.09593 -1.13257 0
M  V30 2728 C 261.392 1.82003 -0.89458 0
M  V30 2729 C 261.725 1.85402 0.577906 0
M  V30 2730 O 261 1.32099 1.42759 0
M  V30 2731 C 261.283 3.28237 -1.48096 0
M  V30 2732 C 261.136 3.3312 -3.02244 0
M  V30 2733 C 262.455 4.24871 -1.14774 0
M  V30 2734 H 259.574 0.66077 -0.326424 0
M  V30 2735 H 262.216 1.28389 -1.40058 0
M  V30 2736 H 260.366 3.74024 -1.05062 0
M  V30 2737 H 262.038 2.95748 -3.54021 0
M  V30 2738 H 260.281 2.72756 -3.37323 0
M  V30 2739 H 260.952 4.3613 -3.38371 0
M  V30 2740 H 263.428 3.87361 -1.51957 0
M  V30 2741 H 262.304 5.25532 -1.58452 0
M  V30 2742 H 262.565 4.42058 -0.0611849 0
M  V30 2743 N 261.624 0.925811 1.2754 0
M  V30 2744 C 262.864 0.572521 1.96218 0
M  V30 2745 C 263.228 -0.869719 1.71172 0
M  V30 2746 O 264.429 -1.33119 2.33523 0
M  V30 2747 C 262.7 0.887325 3.4621 0
M  V30 2748 S 264.259 0.642266 4.34074 0
M  V30 2749 H 261.077 0.211403 0.678845 0
M  V30 2750 H 263.679 1.19384 1.54815 0
M  V30 2751 H 262.383 1.93469 3.61936 0
M  V30 2752 H 261.914 0.255123 3.92572 0
M  V30 2753 H 263.929 -0.500822 4.93666 0
M  V30 2754 N 263.102 -1.41638 0.69111 0
M  V30 2755 C 264.513 -1.84346 0.295517 0
M  V30 2756 C 264.864 -1.57833 -1.16547 0
M  V30 2757 O 263.989 -1.04648 -1.89414 0
M  V30 2758 C 264.584 -3.34636 0.529575 0
M  V30 2759 C 263.143 -3.7593 0.187944 0
M  V30 2760 C 262.29 -2.65082 0.814052 0
M  V30 2761 H 265.241 -1.31253 0.892092 0
M  V30 2762 H 265.262 -3.79903 -0.213148 0
M  V30 2763 H 264.774 -3.53901 1.59297 0
M  V30 2764 H 262.875 -3.62268 -0.871367 0
M  V30 2765 H 262.988 -4.74808 0.63985 0
M  V30 2766 H 261.352 -2.53528 0.244017 0
M  V30 2767 H 262.135 -2.87167 1.88123 0
M  V30 2768 N 264.58 -0.43555 -1.51462 0
M  V30 2769 C 265.528 0.391205 -2.29287 0
M  V30 2770 C 266.522 1.02247 -1.35062 0
M  V30 2771 O 267.728 0.957646 -1.52411 0
M  V30 2772 H 264.103 0.144968 -0.737895 0
M  V30 2773 H 266.074 -0.286051 -2.97026 0
M  V30 2774 C 264.823 1.48096 -3.14583 0
M  V30 2775 H 264.146 1.00457 -3.86973 0
M  V30 2776 H 265.586 2.03273 -3.72097 0
M  V30 2777 C 264.045 2.46321 -2.29843 0
M  V30 2778 O 264.575 3.50815 -1.95682 0
M  V30 2779 N 262.781 2.17166 -1.931 0
M  V30 2780 H 262.328 1.32218 -2.21079 0
M  V30 2781 H 262.286 2.83127 -1.36698 0
M  V30 2782 N 266.058 1.56714 -0.166846 0
M  V30 2783 C 267.307 1.95922 0.479318 0
M  V30 2784 C 267.62 1.05529 1.6469 0
M  V30 2785 O 268.826 1.34399 2.35901 0
M  V30 2786 C 267.282 3.48359 0.90412 0
M  V30 2787 C 266.89 4.47369 -0.237621 0
M  V30 2788 C 268.634 3.96394 1.51896 0
M  V30 2789 C 266.541 5.91039 0.206561 0
M  V30 2790 H 265.471 0.731495 0.18284 0
M  V30 2791 H 268.122 1.81728 -0.254363 0
M  V30 2792 H 266.504 3.57955 1.69365 0
M  V30 2793 H 267.678 4.49485 -1.01489 0
M  V30 2794 H 265.993 4.09366 -0.762128 0
M  V30 2795 H 268.59 5.01186 1.86325 0
M  V30 2796 H 268.933 3.39075 2.41524 0
M  V30 2797 H 269.466 3.89796 0.79395 0
M  V30 2798 H 266.205 6.52221 -0.654834 0
M  V30 2799 H 265.725 5.9224 0.949282 0
M  V30 2800 H 267.404 6.43707 0.651939 0
M  V30 2801 N 267.536 -0.106894 1.57237 0
M  V30 2802 C 268.785 -0.811163 1.8467 0
M  V30 2803 C 269.098 -1.80469 0.754342 0
M  V30 2804 O 270.304 -2.55601 0.915439 0
M  V30 2805 C 268.76 -1.49337 3.27454 0
M  V30 2806 C 268.368 -0.540217 4.44731 0
M  V30 2807 C 270.112 -2.18206 3.64124 0
M  V30 2808 C 268.019 -1.22634 5.78545 0
M  V30 2809 H 266.949 -0.306679 0.688813 0
M  V30 2810 H 269.6 -0.0639887 1.83388 0
M  V30 2811 H 267.982 -2.2876 3.23241 0
M  V30 2812 H 269.156 0.221659 4.60267 0
M  V30 2813 H 267.471 0.042146 4.16379 0
M  V30 2814 H 270.068 -2.70253 4.61376 0
M  V30 2815 H 270.411 -2.96562 2.92158 0
M  V30 2816 H 270.944 -1.45658 3.70174 0
M  V30 2817 H 267.683 -0.483832 6.53712 0
M  V30 2818 H 267.203 -1.95993 5.66874 0
M  V30 2819 H 268.882 -1.75615 6.2271 0
M  V30 2820 N 269.014 -1.53014 -0.377408 0
M  V30 2821 C 269.961 -1.78616 -1.46168 0
M  V30 2822 C 270.931 -0.629917 -1.53692 0
M  V30 2823 O 272.116 -0.870861 -1.69766 0
M  V30 2824 C 269.256 -1.97123 -2.8326 0
M  V30 2825 C 268.369 -3.24831 -2.84796 0
M  V30 2826 C 267.504 -3.33591 -4.13389 0
M  V30 2827 C 266.543 -4.55377 -4.09021 0
M  V30 2828 N 265.68 -4.61355 -5.29241 0
M  V30 2829 H 270.52 -2.71142 -1.23637 0
M  V30 2830 H 268.057 -1.34326 -0.599577 0
M  V30 2831 H 270.015 -2.05839 -3.62886 0
M  V30 2832 H 268.645 -1.07946 -3.04216 0
M  V30 2833 H 267.697 -3.25128 -1.97474 0
M  V30 2834 H 269.009 -4.14523 -2.77439 0
M  V30 2835 H 268.163 -3.41554 -5.01424 0
M  V30 2836 H 266.902 -2.41894 -4.23484 0
M  V30 2837 H 265.907 -4.47527 -3.19373 0
M  V30 2838 H 267.132 -5.48402 -4.00539 0
M  V30 2839 H 265.078 -3.72554 -5.39944 0
M  V30 2840 H 264.995 -5.44935 -5.24006 0
M  V30 2841 H 266.263 -4.73586 -6.19141 0
M  V30 2842 N 270.492 0.636531 -1.44174 0
M  V30 2843 C 271.908 0.954104 -1.27941 0
M  V30 2844 C 272.108 2.0039 -0.211248 0
M  V30 2845 O 271.164 2.49236 0.404695 0
M  V30 2846 C 272.477 1.4225 -2.64925 0
M  V30 2847 C 274.025 1.53827 -2.72592 0
M  V30 2848 C 274.5 2.04053 -4.10032 0
M  V30 2849 N 275.991 2.11331 -4.12182 0
M  V30 2850 C 276.726 2.51352 -5.15374 0
M  V30 2851 N 276.222 2.90549 -6.2893 0
M  V30 2852 N 278.015 2.51438 -5.02728 0
M  V30 2853 H 270.166 -0.0578386 -2.12321 0
M  V30 2854 H 272.429 0.0367406 -0.947288 0
M  V30 2855 H 272.135 0.725466 -3.44136 0
M  V30 2856 H 272.009 2.39451 -2.9145 0
M  V30 2857 H 274.396 2.22628 -1.93702 0
M  V30 2858 H 274.477 0.550154 -2.49814 0
M  V30 2859 H 274.121 1.35848 -4.89395 0
M  V30 2860 H 274.051 3.03726 -4.30184 0
M  V30 2861 H 276.542 1.83745 -3.30222 0
M  V30 2862 H 276.855 3.19884 -7.03487 0
M  V30 2863 H 275.2 2.88313 -6.32377 0
M  V30 2864 H 278.391 2.20203 -4.13072 0
M  V30 2865 H 278.564 2.82304 -5.83274 0
M  V30 2866 N 271.97 1.30982 0.876444 0
M  V30 2867 C 273.195 1.23373 1.66715 0
M  V30 2868 C 273.62 -0.19885 1.87046 0
M  V30 2869 O 272.978 -1.1427 1.40756 0
M  V30 2870 C 273.026 1.97644 3.01611 0
M  V30 2871 O 272.13 1.30935 3.91062 0
M  V30 2872 H 271.471 0.426279 0.509099 0
M  V30 2873 H 274.001 1.72944 1.09323 0
M  V30 2874 H 274.011 2.06992 3.51594 0
M  V30 2875 H 272.686 3.01829 2.86133 0
M  V30 2876 H 271.263 1.29996 3.49507 0
M  V30 2877 N 273.449 -1.08991 1.13837 0
M  V30 2878 C 274.412 -2.13925 0.822715 0
M  V30 2879 C 275.412 -1.599 -0.1699 0
M  V30 2880 O 276.602 -1.74104 0.0577251 0
M  V30 2881 C 273.734 -3.40155 0.225318 0
M  V30 2882 H 274.927 -2.43358 1.75262 0
M  V30 2883 H 272.48 -1.24603 0.943594 0
M  V30 2884 H 273.215 -3.16352 -0.713594 0
M  V30 2885 H 273 -3.80661 0.940193 0
M  V30 2886 H 274.49 -4.17594 0.0214784 0
M  V30 2887 N 274.927 -0.932562 -1.27047 0
M  V30 2888 C 276.173 -0.585913 -1.94778 0
M  V30 2889 C 276.528 0.864142 -1.71902 0
M  V30 2890 O 275.821 1.60894 -1.04037 0
M  V30 2891 C 276.015 -0.853713 -3.47054 0
M  V30 2892 C 275.844 -2.32825 -3.84737 0
M  V30 2893 C 274.614 -2.98184 -4.07939 0
M  V30 2894 C 276.812 -3.30612 -3.93954 0
M  V30 2895 N 274.794 -4.3574 -4.3244 0
M  V30 2896 C 276.165 -4.53395 -4.22887 0
M  V30 2897 C 278.22 -3.25755 -3.76548 0
M  V30 2898 C 276.923 -5.71927 -4.36224 0
M  V30 2899 C 278.949 -4.43604 -3.91113 0
M  V30 2900 C 278.311 -5.65166 -4.20437 0
M  V30 2901 H 274.41 -0.264617 -0.735868 0
M  V30 2902 H 276.994 -1.20019 -1.53309 0
M  V30 2903 H 275.165 -0.268557 -3.8747 0
M  V30 2904 H 276.897 -0.469202 -4.01971 0
M  V30 2905 H 273.652 -2.48835 -4.02961 0
M  V30 2906 H 274.076 -5.06915 -4.48738 0
M  V30 2907 H 278.718 -2.32835 -3.52913 0
M  V30 2908 H 276.436 -6.65308 -4.58683 0
M  V30 2909 H 280.022 -4.41368 -3.79059 0
M  V30 2910 H 278.902 -6.54836 -4.31462 0
M  V30 2911 N 276.405 1.4127 -0.698611 0
M  V30 2912 C 277.315 2.34573 -0.0357891 0
M  V30 2913 C 278.331 1.56393 0.762701 0
M  V30 2914 O 279.507 1.8886 0.699564 0
M  V30 2915 C 276.572 3.35159 0.887089 0
M  V30 2916 C 275.633 4.29225 0.0804634 0
M  V30 2917 C 274.866 5.25006 0.959387 0
M  V30 2918 O 275.089 5.26314 2.19886 0
M  V30 2919 O 274.023 6.00519 0.407439 0
M  V30 2920 H 277.849 2.92838 -0.804957 0
M  V30 2921 H 275.434 1.42175 -0.458966 0
M  V30 2922 H 277.316 3.9689 1.41621 0
M  V30 2923 H 275.991 2.79333 1.6357 0
M  V30 2924 H 274.898 3.70833 -0.493328 0
M  V30 2925 H 276.231 4.88157 -0.629547 0
M  V30 2926 N 277.883 0.443576 1.51229 0
M  V30 2927 C 278.846 -0.353132 2.26463 0
M  V30 2928 C 279.846 -0.944338 1.3015 0
M  V30 2929 O 281.036 -0.817813 1.5381 0
M  V30 2930 C 278.168 -1.50023 3.06114 0
M  V30 2931 H 279.361 0.3063 2.98332 0
M  V30 2932 H 276.914 0.196902 1.55055 0
M  V30 2933 H 277.649 -2.19553 2.38677 0
M  V30 2934 H 277.434 -1.08241 3.76864 0
M  V30 2935 H 278.924 -2.06296 3.63087 0
M  V30 2936 N 279.361 -1.56624 0.175154 0
M  V30 2937 C 280.777 -1.58571 -0.180966 0
M  V30 2938 C 280.977 -1.19065 -1.6256 0
M  V30 2939 O 280.033 -0.904044 -2.35761 0
M  V30 2940 C 281.346 -3.00522 0.103326 0
M  V30 2941 C 282.894 -3.12972 0.0418426 0
M  V30 2942 C 283.369 -4.57022 0.299175 0
M  V30 2943 N 284.86 -4.62541 0.247086 0
M  V30 2944 C 285.595 -5.71857 0.420318 0
M  V30 2945 N 285.091 -6.89717 0.652816 0
M  V30 2946 N 286.884 -5.60972 0.355957 0
M  V30 2947 H 279.035 -1.80589 1.11809 0
M  V30 2948 H 281.298 -0.837178 0.444788 0
M  V30 2949 H 281.004 -3.33916 1.10422 0
M  V30 2950 H 280.878 -3.72344 -0.603299 0
M  V30 2951 H 283.265 -2.79403 -0.949636 0
M  V30 2952 H 283.346 -2.43578 0.781238 0
M  V30 2953 H 282.99 -4.913 1.28788 0
M  V30 2954 H 282.92 -5.24579 -0.460876 0
M  V30 2955 H 285.411 -3.77829 0.0731895 0
M  V30 2956 H 285.724 -7.68911 0.774347 0
M  V30 2957 H 284.069 -6.91572 0.689476 0
M  V30 2958 H 287.26 -4.67773 0.174882 0
M  V30 2959 H 287.433 -6.46111 0.494388 0
M  V30 2960 N 280.839 0.0985539 -1.57292 0
M  V30 2961 C 281.749 1.13824 -2.05137 0
M  V30 2962 C 282.765 1.44076 -0.975604 0
M  V30 2963 O 283.941 1.54786 -1.28853 0
M  V30 2964 C 281.006 2.43969 -2.46333 0
M  V30 2965 C 280.067 2.2093 -3.68087 0
M  V30 2966 C 279.3 3.44869 -4.0731 0
M  V30 2967 O 279.523 4.52972 -3.46659 0
M  V30 2968 O 278.457 3.34661 -5.00285 0
M  V30 2969 H 282.283 0.761881 -2.93988 0
M  V30 2970 H 279.868 0.310818 -1.46131 0
M  V30 2971 H 281.75 3.20609 -2.73473 0
M  V30 2972 H 280.425 2.81038 -1.60621 0
M  V30 2973 H 279.332 1.42081 -3.46069 0
M  V30 2974 H 280.665 1.88755 -4.54568 0
M  V30 2975 N 282.317 1.53212 0.369288 0
M  V30 2976 C 283.545 1.73119 1.13303 0
M  V30 2977 C 283.96 0.458455 1.83149 0
M  V30 2978 O 283.317 -0.568403 1.73423 0
M  V30 2979 C 283.368 2.89413 2.16616 0
M  V30 2980 O 283.089 4.11761 1.49614 0
M  V30 2981 C 284.59 3.21161 3.05566 0
M  V30 2982 H 281.81 0.579107 0.338934 0
M  V30 2983 H 284.354 1.99942 0.429338 0
M  V30 2984 H 282.509 2.64994 2.82589 0
M  V30 2985 H 282.923 4.76858 2.18419 0
M  V30 2986 H 284.397 4.05949 3.74045 0
M  V30 2987 H 284.874 2.36369 3.70171 0
M  V30 2988 H 285.48 3.47492 2.45213 0
M  V30 2989 N 283.795 -0.628877 1.44509 0
M  V30 2990 C 284.745 -1.7345 1.47983 0
M  V30 2991 C 285.729 -1.5715 0.345373 0
M  V30 2992 O 286.921 -1.66848 0.590829 0
M  V30 2993 C 284.05 -3.12143 1.42904 0
M  V30 2994 C 283.136 -3.33906 2.61472 0
M  V30 2995 N 283.527 -3.26024 3.86706 0
M  V30 2996 C 281.825 -3.64709 2.56716 0
M  V30 2997 C 282.526 -3.48536 4.65722 0
M  V30 2998 N 281.502 -3.71517 3.96832 0
M  V30 2999 H 285.304 -1.65818 2.42655 0
M  V30 3000 H 282.818 -0.831419 1.39503 0
M  V30 3001 H 284.815 -3.91433 1.43476 0
M  V30 3002 H 283.475 -3.2094 0.492717 0
M  V30 3003 H 284.486 -3.04893 4.18641 0
M  V30 3004 H 281.163 -3.80473 1.71891 0
M  V30 3005 H 282.553 -3.48016 5.74747 0
M  V30 3006 N 285.273 -1.31445 -0.869486 0
M  V30 3007 C 286.513 -1.22458 -1.63656 0
M  V30 3008 C 286.877 0.213846 -1.90805 0
M  V30 3009 O 288.078 0.427212 -2.65383 0
M  V30 3010 C 286.349 -2.04564 -2.93067 0
M  V30 3011 S 287.908 -2.12445 -3.83944 0
M  V30 3012 H 284.726 -0.436145 -0.561514 0
M  V30 3013 H 287.328 -1.66114 -1.03085 0
M  V30 3014 H 286.032 -3.0816 -2.71045 0
M  V30 3015 H 285.563 -1.6163 -3.58663 0
M  V30 3016 H 287.578 -1.26312 -4.79854 0
M  V30 3017 N 286.751 1.08385 -1.14413 0
M  V30 3018 C 288.162 1.62258 -0.923535 0
M  V30 3019 C 288.513 1.88691 0.537595 0
M  V30 3020 O 287.638 1.64454 1.40655 0
M  V30 3021 C 288.233 2.94781 -1.67002 0
M  V30 3022 C 286.792 3.45437 -1.495 0
M  V30 3023 C 285.939 2.19668 -1.69238 0
M  V30 3024 H 288.89 0.916086 -1.2959 0
M  V30 3025 H 288.911 3.63229 -1.13334 0
M  V30 3026 H 288.423 2.7551 -2.73342 0
M  V30 3027 H 286.524 3.6981 -0.455097 0
M  V30 3028 H 286.637 4.22173 -2.2651 0
M  V30 3029 H 285.001 2.28849 -1.11804 0
M  V30 3030 H 285.784 2.02905 -2.7692 0
M  V30 3031 N 288.23 0.939286 1.26551 0
M  V30 3032 C 289.177 0.446088 2.26448 0
M  V30 3033 C 290.147 -0.493234 1.58608 0
M  V30 3034 O 291.332 -0.409857 1.86346 0
M  V30 3035 C 288.472 -0.284375 3.43926 0
M  V30 3036 C 287.585 0.690399 4.26448 0
M  V30 3037 C 286.72 -0.0610712 5.31165 0
M  V30 3038 C 285.759 0.905649 6.05363 0
M  V30 3039 N 284.896 0.186055 7.01853 0
M  V30 3040 H 289.736 1.30291 2.68008 0
M  V30 3041 H 287.273 0.65371 1.31776 0
M  V30 3042 H 289.231 -0.724313 4.10864 0
M  V30 3043 H 287.861 -1.10535 3.03285 0
M  V30 3044 H 286.913 1.24885 3.59316 0
M  V30 3045 H 288.225 1.42873 4.779 0
M  V30 3046 H 287.379 -0.56038 6.04106 0
M  V30 3047 H 286.118 -0.832297 4.80546 0
M  V30 3048 H 285.123 1.4161 5.3125 0
M  V30 3049 H 286.348 1.67685 6.58072 0
M  V30 3050 H 284.294 -0.566714 6.53548 0
M  V30 3051 H 284.211 0.863752 7.51049 0
M  V30 3052 H 285.479 -0.292221 7.78952 0
M  V30 3053 N 289.708 -1.40897 0.706093 0
M  V30 3054 C 290.641 -2.282 -0.00328781 0
M  V30 3055 C 291.619 -1.42816 -0.77732 0
M  V30 3056 O 292.803 -1.72237 -0.765944 0
M  V30 3057 C 289.93 -3.23226 -1.01205 0
M  V30 3058 C 288.976 -4.25222 -0.329955 0
M  V30 3059 S 289.809 -5.27269 0.935298 0
M  V30 3060 C 290.965 -6.25859 -0.0716061 0
M  V30 3061 H 291.198 -2.88016 0.737143 0
M  V30 3062 H 288.731 -1.46191 0.496756 0
M  V30 3063 H 290.689 -3.78503 -1.58888 0
M  V30 3064 H 289.35 -2.62485 -1.72513 0
M  V30 3065 H 288.543 -4.92023 -1.09221 0
M  V30 3066 H 288.145 -3.73595 0.174069 0
M  V30 3067 H 290.437 -6.71204 -0.921521 0
M  V30 3068 H 291.38 -7.0586 0.562765 0
M  V30 3069 H 291.788 -5.62852 -0.431088 0
M  V30 3070 N 291.186 -0.45159 -1.50991 0
M  V30 3071 C 292.134 0.366864 -2.29689 0
M  V30 3072 C 293.128 1.00809 -1.36139 0
M  V30 3073 O 294.334 0.941427 -1.53418 0
M  V30 3074 H 290.709 0.137133 -0.739391 0
M  V30 3075 H 292.68 -0.317538 -2.96706 0
M  V30 3076 C 291.429 1.44751 -3.16137 0
M  V30 3077 H 290.752 0.963473 -3.88017 0
M  V30 3078 H 292.192 1.99315 -3.74232 0
M  V30 3079 C 290.651 2.43869 -2.32442 0
M  V30 3080 O 291.181 3.4872 -1.99392 0
M  V30 3081 N 289.387 2.15105 -1.95392 0
M  V30 3082 H 288.934 1.29866 -2.22469 0
M  V30 3083 H 288.892 2.81661 -1.39693 0
M  V30 3084 N 292.664 1.56529 -0.183458 0
M  V30 3085 C 293.594 2.21549 0.737456 0
M  V30 3086 C 294.575 1.17489 1.23005 0
M  V30 3087 O 295.76 1.45959 1.281 0
M  V30 3088 C 292.89 2.86575 1.96194 0
M  V30 3089 C 291.844 3.96778 1.60473 0
M  V30 3090 C 291.17 4.48911 2.90487 0
M  V30 3091 C 292.47 5.15767 0.823497 0
M  V30 3092 H 294.164 2.98761 0.195453 0
M  V30 3093 H 291.71 1.43702 0.0925686 0
M  V30 3094 H 293.663 3.30739 2.61131 0
M  V30 3095 H 292.387 2.06749 2.52828 0
M  V30 3096 H 291.046 3.53286 0.978997 0
M  V30 3097 H 290.694 3.65862 3.45186 0
M  V30 3098 H 290.394 5.23265 2.67335 0
M  V30 3099 H 291.918 4.95771 3.56432 0
M  V30 3100 H 293.332 5.56549 1.37571 0
M  V30 3101 H 291.729 5.96114 0.690551 0
M  V30 3102 H 292.799 4.84574 -0.177782 0
M  V30 3103 N 294.142 -0.090211 1.57342 0
M  V30 3104 C 295.553 -0.644173 1.75235 0
M  V30 3105 C 295.904 -1.78865 0.806335 0
M  V30 3106 O 295.029 -2.16395 -0.0140128 0
M  V30 3107 C 295.624 -1.17532 3.1776 0
M  V30 3108 C 294.183 -1.67531 3.37061 0
M  V30 3109 C 293.33 -0.58693 2.71017 0
M  V30 3110 H 296.281 0.135884 1.58117 0
M  V30 3111 H 296.302 -2.04455 3.20902 0
M  V30 3112 H 295.814 -0.342138 3.86589 0
M  V30 3113 H 293.915 -2.53234 2.73319 0
M  V30 3114 H 294.028 -1.76493 4.45406 0
M  V30 3115 H 292.392 -1.02756 2.33052 0
M  V30 3116 H 293.175 0.235758 3.4249 0
M  V30 3117 N 295.62 -1.53406 -0.361157 0
M  V30 3118 C 296.583 -1.79479 -1.42548 0
M  V30 3119 C 297.583 -0.665327 -1.4639 0
M  V30 3120 O 298.773 -0.933549 -1.47073 0
M  V30 3121 C 295.905 -1.92087 -2.8163 0
M  V30 3122 H 297.098 -2.74538 -1.20701 0
M  V30 3123 H 294.651 -1.4455 -0.594546 0
M  V30 3124 H 295.386 -0.991099 -3.08784 0
M  V30 3125 H 295.171 -2.74241 -2.80239 0
M  V30 3126 H 296.661 -2.13836 -3.58697 0
M  V30 3127 N 297.098 0.621204 -1.44841 0
M  V30 3128 C 298.045 1.73267 -1.5247 0
M  V30 3129 C 299.015 1.6189 -0.371611 0
M  V30 3130 O 300.2 1.81668 -0.58321 0
M  V30 3131 C 297.34 3.11545 -1.48438 0
M  V30 3132 C 296.453 3.33827 -2.74196 0
M  V30 3133 C 295.588 4.62133 -2.61929 0
M  V30 3134 C 294.627 4.77627 -3.82804 0
M  V30 3135 N 293.764 5.97219 -3.69153 0
M  V30 3136 H 298.604 1.66082 -2.47428 0
M  V30 3137 H 296.141 0.810026 -1.22788 0
M  V30 3138 H 298.099 3.91528 -1.4409 0
M  V30 3139 H 296.729 3.1772 -0.570402 0
M  V30 3140 H 295.781 2.47715 -2.88689 0
M  V30 3141 H 297.093 3.41153 -3.6389 0
M  V30 3142 H 296.247 5.50291 -2.5547 0
M  V30 3143 H 294.986 4.57182 -1.69811 0
M  V30 3144 H 293.991 3.87896 -3.89637 0
M  V30 3145 H 295.216 4.84385 -4.75971 0
M  V30 3146 H 293.162 5.93339 -2.79794 0
M  V30 3147 H 293.079 6.05644 -4.52472 0
M  V30 3148 H 294.347 6.87912 -3.66603 0
M  V30 3149 N 298.576 1.31904 0.862503 0
M  V30 3150 C 299.806 1.24817 1.64634 0
M  V30 3151 C 300.214 -0.187579 1.88268 0
M  V30 3152 O 299.557 -1.13253 1.44635 0
M  V30 3153 C 299.619 1.92996 3.03303 0
M  V30 3154 C 299.283 3.42336 3.02746 0
M  V30 3155 C 300.28 4.37956 2.80162 0
M  V30 3156 C 297.965 3.84147 3.2363 0
M  V30 3157 C 299.959 5.73361 2.78453 0
M  V30 3158 C 297.646 5.19663 3.21549 0
M  V30 3159 C 298.644 6.14081 2.98988 0
M  V30 3160 O 298.332 7.47118 2.96766 0
M  V30 3161 H 298.064 0.432222 0.519769 0
M  V30 3162 H 300.618 1.7445 1.08427 0
M  V30 3163 H 298.848 1.37922 3.61268 0
M  V30 3164 H 300.537 1.79723 3.63943 0
M  V30 3165 H 301.303 4.06981 2.63802 0
M  V30 3166 H 297.182 3.11083 3.40218 0
M  V30 3167 H 300.726 6.4703 2.60763 0
M  V30 3168 H 296.623 5.5027 3.37451 0
M  V30 3169 H 297.391 7.56382 3.12775 0
M  V30 3170 N 300.054 -1.07777 1.14986 0
M  V30 3171 C 301.3 -1.80557 0.923422 0
M  V30 3172 C 301.633 -1.86298 -0.548337 0
M  V30 3173 O 300.908 -1.34354 -1.40639 0
M  V30 3174 C 301.191 -3.25839 1.53299 0
M  V30 3175 C 301.044 -3.28269 3.07505 0
M  V30 3176 C 302.363 -4.22991 1.21518 0
M  V30 3177 H 299.482 -0.655493 0.336894 0
M  V30 3178 H 302.124 -1.26144 1.42083 0
M  V30 3179 H 300.274 -3.72306 1.10999 0
M  V30 3180 H 301.946 -2.90079 3.58681 0
M  V30 3181 H 300.189 -2.67355 3.4162 0
M  V30 3182 H 300.86 -4.30691 3.45266 0
M  V30 3183 H 303.336 -3.84894 1.581 0
M  V30 3184 H 302.212 -5.22945 1.66793 0
M  V30 3185 H 302.473 -4.41904 0.131505 0
M  V30 3186 N 301.532 -0.945985 -1.26051 0
M  V30 3187 C 302.781 -0.591836 -1.92822 0
M  V30 3188 C 303.094 0.873956 -1.7499 0
M  V30 3189 O 304.3 1.33769 -2.36259 0
M  V30 3190 C 302.756 -1.00776 -3.45503 0
M  V30 3191 C 302.364 -2.4955 -3.7206 0
M  V30 3192 C 304.108 -0.725735 -4.1825 0
M  V30 3193 C 302.015 -2.84988 -5.18205 0
M  V30 3194 H 300.945 -0.217635 -0.721908 0
M  V30 3195 H 303.596 -1.14927 -1.43052 0
M  V30 3196 H 301.978 -0.378812 -3.94184 0
M  V30 3197 H 303.152 -3.1739 -3.34066 0
M  V30 3198 H 301.467 -2.75133 -3.12555 0
M  V30 3199 H 304.064 -0.966771 -5.25887 0
M  V30 3200 H 304.407 0.337639 -4.14929 0
M  V30 3201 H 304.94 -1.31463 -3.7545 0
M  V30 3202 H 301.679 -3.90307 -5.26631 0
M  V30 3203 H 301.199 -2.21813 -5.57278 0
M  V30 3204 H 302.878 -2.73712 -5.86252 0
M  V30 3205 N 303.011 1.40521 -0.713556 0
M  V30 3206 C 304.26 2.00155 -0.249192 0
M  V30 3207 C 304.573 1.57224 1.16362 0
M  V30 3208 O 305.779 2.09542 1.72639 0
M  V30 3209 C 304.235 3.5773 -0.3946 0
M  V30 3210 C 303.843 4.09635 -1.81392 0
M  V30 3211 C 305.587 4.24499 0.00907364 0
M  V30 3212 C 303.494 5.59707 -1.91003 0
M  V30 3213 H 302.424 0.74868 -0.0894114 0
M  V30 3214 H 305.075 1.60784 -0.884352 0
M  V30 3215 H 303.457 3.94792 0.30911 0
M  V30 3216 H 304.631 3.83955 -2.54785 0
M  V30 3217 H 302.946 3.55456 -2.16888 0
M  V30 3218 H 305.543 5.34683 -0.0420404 0
M  V30 3219 H 305.886 4.02824 1.05065 0
M  V30 3220 H 306.419 3.92536 -0.645007 0
M  V30 3221 H 303.158 5.86234 -2.93275 0
M  V30 3222 H 302.678 5.87258 -1.22019 0
M  V30 3223 H 304.357 6.24776 -1.6812 0
M  V30 3224 N 304.489 0.459591 1.5075 0
M  V30 3225 C 305.738 -0.100971 2.01447 0
M  V30 3226 C 306.051 -1.41816 1.34713 0
M  V30 3227 O 307.257 -2.06299 1.76502 0
M  V30 3228 C 305.713 -0.23047 3.59161 0
M  V30 3229 C 305.321 1.0776 4.34847 0
M  V30 3230 C 307.065 -0.743608 4.17936 0
M  V30 3231 C 304.972 0.91253 5.84317 0
M  V30 3232 H 303.902 -0.0415102 0.752856 0
M  V30 3233 H 306.553 0.592742 1.73663 0
M  V30 3234 H 304.935 -0.987703 3.83485 0
M  V30 3235 H 306.109 1.8449 4.22256 0
M  V30 3236 H 304.424 1.52097 3.87628 0
M  V30 3237 H 307.021 -0.883959 5.27343 0
M  V30 3238 H 307.364 -1.73196 3.78562 0
M  V30 3239 H 307.897 -0.04408 3.97776 0
M  V30 3240 H 304.636 1.87391 6.28144 0
M  V30 3241 H 304.156 0.185422 5.99513 0
M  V30 3242 H 305.835 0.574547 6.44444 0
M  V30 3243 N 305.967 -1.56429 0.191757 0
M  V30 3244 C 306.917 -2.15548 -0.743184 0
M  V30 3245 C 307.901 -1.09531 -1.17863 0
M  V30 3246 O 309.093 -1.35602 -1.13759 0
M  V30 3247 C 306.222 -2.81577 -1.96391 0
M  V30 3248 C 305.308 -3.9478 -1.54951 0
M  V30 3249 N 305.699 -4.98677 -0.845876 0
M  V30 3250 C 303.997 -4.06319 -1.83905 0
M  V30 3251 C 304.698 -5.78183 -0.638724 0
M  V30 3252 N 303.674 -5.30495 -1.18643 0
M  V30 3253 H 307.476 -2.9324 -0.196839 0
M  V30 3254 H 304.99 -1.62398 -0.0081603 0
M  V30 3255 H 306.987 -3.22321 -2.64415 0
M  V30 3256 H 305.647 -2.05371 -2.51501 0
M  V30 3257 H 306.658 -5.15464 -0.501704 0
M  V30 3258 H 303.335 -3.41238 -2.40548 0
M  V30 3259 H 304.725 -6.71851 -0.0807929 0
M  V30 3260 N 307.445 0.0818655 -1.57387 0
M  V30 3261 C 308.673 0.796108 -1.9097 0
M  V30 3262 C 309.088 1.71626 -0.786757 0
M  V30 3263 O 308.445 1.80908 0.240513 0
M  V30 3264 C 308.496 1.59829 -3.24248 0
M  V30 3265 O 308.217 0.715131 -4.32224 0
M  V30 3266 C 309.718 2.41442 -3.7178 0
M  V30 3267 H 306.938 0.22691 -0.631469 0
M  V30 3268 H 309.482 0.0551439 -2.04426 0
M  V30 3269 H 307.637 2.29163 -3.12351 0
M  V30 3270 H 308.051 1.27205 -5.08841 0
M  V30 3271 H 309.525 2.932 -4.67694 0
M  V30 3272 H 310.002 3.2051 -3.00283 0
M  V30 3273 H 310.608 1.77283 -3.86589 0
M  V30 3274 N 308.923 1.53595 0.353017 0
M  V30 3275 C 309.886 1.80232 1.41594 0
M  V30 3276 C 310.886 0.673081 1.46035 0
M  V30 3277 O 312.076 0.941335 1.46576 0
M  V30 3278 C 309.208 1.93578 2.80607 0
M  V30 3279 H 310.401 2.75174 1.19244 0
M  V30 3280 H 307.954 1.44864 0.586872 0
M  V30 3281 H 308.689 1.00746 3.08254 0
M  V30 3282 H 308.474 2.75724 2.78781 0
M  V30 3283 H 309.964 2.15735 3.57558 0
M  V30 3284 N 310.401 -0.613514 1.45168 0
M  V30 3285 C 311.649 -1.36997 1.48581 0
M  V30 3286 C 311.97 -1.94589 0.126545 0
M  V30 3287 O 311.24 -1.76816 -0.843372 0
M  V30 3288 H 309.82 -0.508558 0.547154 0
M  V30 3289 H 312.482 -0.720853 1.81079 0
M  V30 3290 H 311.578 -2.1924 2.22127 0
M  V30 3291 N 311.879 -1.3236 -0.855495 0
M  V30 3292 C 313.107 -1.2587 -1.64208 0
M  V30 3293 C 313.522 0.173457 -1.88002 0
M  V30 3294 O 312.879 1.11027 -1.44842 0
M  V30 3295 C 312.93 -2.01424 -3.00184 0
M  V30 3296 O 312.651 -3.39051 -2.77445 0
M  V30 3297 C 314.152 -2.01948 -3.94629 0
M  V30 3298 H 311.372 -0.434318 -0.511477 0
M  V30 3299 H 313.916 -1.74469 -1.0668 0
M  V30 3300 H 312.071 -1.56549 -3.5436 0
M  V30 3301 H 312.485 -3.77711 -3.63916 0
M  V30 3302 H 313.959 -2.59297 -4.87308 0
M  V30 3303 H 314.436 -1.00554 -4.27534 0
M  V30 3304 H 315.042 -2.46767 -3.4639 0
M  V30 3305 N 313.357 1.07166 -1.15556 0
M  V30 3306 C 314.582 1.84053 -0.955988 0
M  V30 3307 C 315.007 1.81586 0.490739 0
M  V30 3308 O 314.365 1.21018 1.34997 0
M  V30 3309 C 314.413 3.28957 -1.47714 0
M  V30 3310 O 313.517 4.06795 -0.677593 0
M  V30 3311 H 312.858 0.569842 -0.340847 0
M  V30 3312 H 315.388 1.35178 -1.53584 0
M  V30 3313 H 315.398 3.79788 -1.4908 0
M  V30 3314 H 314.073 3.30068 -2.53037 0
M  V30 3315 H 312.65 3.6561 -0.733721 0
M  V30 3316 N 314.835 0.952656 1.25548 0
M  V30 3317 C 316.075 0.614013 1.9496 0
M  V30 3318 C 316.439 -0.833215 1.72978 0
M  V30 3319 O 317.64 -1.28135 2.36294 0
M  V30 3320 C 315.911 0.960562 3.4425 0
M  V30 3321 S 317.47 0.734195 4.32614 0
M  V30 3322 H 314.288 0.225754 0.674208 0
M  V30 3323 H 316.89 1.22641 1.52248 0
M  V30 3324 H 315.594 2.01103 3.57751 0
M  V30 3325 H 315.125 0.338336 3.91942 0
M  V30 3326 H 317.14 -0.395995 4.94617 0
M  V30 3327 N 316.313 -1.40141 0.720998 0
M  V30 3328 C 317.541 -2.05096 0.272656 0
M  V30 3329 C 317.956 -1.54334 -1.0875 0
M  V30 3330 O 317.313 -0.702211 -1.6845 0
M  V30 3331 C 317.364 -3.60636 0.249835 0
M  V30 3332 O 317.085 -4.09526 1.55629 0
M  V30 3333 C 318.586 -4.42772 -0.216396 0
M  V30 3334 H 315.806 -0.659897 0.121558 0
M  V30 3335 H 318.35 -1.79449 0.980723 0
M  V30 3336 H 316.505 -3.85232 -0.409237 0
M  V30 3337 H 316.919 -5.03758 1.4604 0
M  V30 3338 H 318.393 -5.51702 -0.181212 0
M  V30 3339 H 318.87 -4.20756 -1.25941 0
M  V30 3340 H 319.476 -4.23294 0.412596 0
M  V30 3341 N 317.792 -0.46758 -1.50504 0
M  V30 3342 C 319.038 0.0887532 -2.02606 0
M  V30 3343 C 319.371 1.39686 -1.34913 0
M  V30 3344 O 318.646 1.88644 -0.473694 0
M  V30 3345 C 318.929 0.276206 -3.59039 0
M  V30 3346 C 318.782 -1.05267 -4.37309 0
M  V30 3347 C 320.101 1.03235 -4.27821 0
M  V30 3348 H 317.22 0.0307814 -0.736357 0
M  V30 3349 H 319.862 -0.612485 -1.79857 0
M  V30 3350 H 318.012 0.8735 -3.78553 0
M  V30 3351 H 319.684 -1.68628 -4.29374 0
M  V30 3352 H 317.927 -1.65015 -4.01189 0
M  V30 3353 H 318.598 -0.875197 -5.45018 0
M  V30 3354 H 321.074 0.526111 -4.12761 0
M  V30 3355 H 319.95 1.1323 -5.37094 0
M  V30 3356 H 320.211 2.06806 -3.90748 0
M  V30 3357 N 319.27 1.56325 -0.20005 0
M  V30 3358 C 320.495 2.02548 0.44597 0
M  V30 3359 C 320.92 1.07922 1.5406 0
M  V30 3360 O 320.278 0.0635775 1.81188 0
M  V30 3361 C 320.326 3.47175 0.974761 0
M  V30 3362 O 319.43 3.55671 2.08739 0
M  V30 3363 H 318.771 0.655862 0.103638 0
M  V30 3364 H 321.301 2.02201 -0.312381 0
M  V30 3365 H 321.311 3.87067 1.2901 0
M  V30 3366 H 319.986 4.15538 0.17347 0
M  V30 3367 H 318.563 3.27657 1.78032 0
M  V30 3368 N 320.748 -0.0735177 1.57428 0
M  V30 3369 C 321.976 -0.785969 1.9139 0
M  V30 3370 C 322.391 -1.71207 0.795847 0
M  V30 3371 O 321.748 -1.81033 -0.230915 0
M  V30 3372 C 321.799 -1.58107 3.25091 0
M  V30 3373 O 321.52 -0.6922 4.32597 0
M  V30 3374 C 323.021 -2.39467 3.73055 0
M  V30 3375 H 320.241 -0.223558 0.632663 0
M  V30 3376 H 322.785 -0.044302 2.04452 0
M  V30 3377 H 320.94 -2.27503 3.13562 0
M  V30 3378 H 321.354 -1.24504 5.09508 0
M  V30 3379 H 322.828 -2.90716 4.69242 0
M  V30 3380 H 323.305 -3.18913 3.01979 0
M  V30 3381 H 323.911 -1.7523 3.87523 0
M  V30 3382 N 322.226 -1.5378 -0.344866 0
M  V30 3383 C 323.503 -1.61589 -1.10219 0
M  V30 3384 C 323.883 -0.436316 -2.06542 0
M  V30 3385 O 323.231 0.571543 -2.21237 0
M  V30 3386 C 323.441 -2.97602 -1.82301 0
M  V30 3387 C 324.789 -3.5291 -2.36093 0
M  V30 3388 O 325.813 -2.99768 -1.924 0
M  V30 3389 O 324.672 -4.45859 -3.16026 0
M  V30 3390 H 321.766 -0.653522 -0.506792 0
M  V30 3391 H 324.312 -1.66126 -0.346465 0
M  V30 3392 H 323.084 -3.74893 -1.12121 0
M  V30 3393 H 322.707 -2.9665 -2.64735 0
M  V30 3394 N 323.704 0.605807 -1.45491 0
M  V30 3395 C 324.944 1.37606 -1.51142 0
M  V30 3396 C 325.308 1.91413 -0.150075 0
M  V30 3397 O 326.509 2.68677 -0.0812828 0
M  V30 3398 C 324.78 2.49197 -2.56195 0
M  V30 3399 S 326.339 3.36953 -2.81083 0
M  V30 3400 H 323.157 0.469118 -0.534275 0
M  V30 3401 H 325.759 0.698845 -1.82583 0
M  V30 3402 H 324.463 2.0802 -3.53773 0
M  V30 3403 H 323.994 3.21717 -2.26411 0
M  V30 3404 H 326.009 4.47395 -2.14598 0
M  V30 3405 N 325.182 1.32811 0.848464 0
M  V30 3406 C 326.114 1.18095 1.96433 0
M  V30 3407 C 327.127 0.114354 1.62398 0
M  V30 3408 O 328.316 0.363892 1.74751 0
M  V30 3409 C 325.416 0.786798 3.2964 0
M  V30 3410 C 324.589 1.943 3.91875 0
M  V30 3411 C 323.648 1.53138 5.03423 0
M  V30 3412 O 322.674 2.24432 5.23086 0
M  V30 3413 N 323.876 0.430915 5.78898 0
M  V30 3414 H 326.641 2.14218 2.09597 0
M  V30 3415 H 324.202 1.2543 1.02367 0
M  V30 3416 H 326.194 0.493715 4.01677 0
M  V30 3417 H 324.764 -0.0834541 3.12489 0
M  V30 3418 H 323.984 2.40224 3.12547 0
M  V30 3419 H 325.272 2.71689 4.30189 0
M  V30 3420 H 324.67 -0.162333 5.65467 0
M  V30 3421 H 323.227 0.197466 6.51501 0
M  V30 3422 N 326.66 -1.06551 1.16123 0
M  V30 3423 C 327.888 -1.83005 0.965237 0
M  V30 3424 C 328.303 -1.82423 -0.486542 0
M  V30 3425 O 327.66 -1.24152 -1.33763 0
M  V30 3426 C 327.711 -3.29733 1.48183 0
M  V30 3427 O 327.432 -3.30416 2.87674 0
M  V30 3428 C 328.933 -4.22926 1.32848 0
M  V30 3429 H 326.153 -0.577118 0.342309 0
M  V30 3430 H 328.697 -1.3445 1.54089 0
M  V30 3431 H 326.852 -3.75609 0.948517 0
M  V30 3432 H 327.266 -4.22149 3.11272 0
M  V30 3433 H 328.74 -5.23916 1.73827 0
M  V30 3434 H 329.217 -4.38346 0.273692 0
M  V30 3435 H 329.823 -3.82894 1.85127 0
M  V30 3436 N 328.138 -0.959301 -1.25041 0
M  V30 3437 C 329.384 -0.617525 -1.9317 0
M  V30 3438 C 329.717 0.843981 -1.74902 0
M  V30 3439 O 328.992 1.60615 -1.09696 0
M  V30 3440 C 329.275 -0.982736 -3.46431 0
M  V30 3441 C 329.128 -2.50032 -3.73904 0
M  V30 3442 C 330.447 -0.511176 -4.37121 0
M  V30 3443 H 327.566 -0.22582 -0.701552 0
M  V30 3444 H 330.208 -1.19679 -1.4757 0
M  V30 3445 H 328.358 -0.489806 -3.854 0
M  V30 3446 H 330.03 -3.06737 -3.44544 0
M  V30 3447 H 328.273 -2.93598 -3.19348 0
M  V30 3448 H 328.944 -2.70635 -4.81103 0
M  V30 3449 H 331.42 -0.934075 -4.0548 0
M  V30 3450 H 330.296 -0.795361 -5.43107 0
M  V30 3451 H 330.557 0.588834 -4.38161 0
M  V30 3452 N 329.616 1.39756 -0.72842 0
M  V30 3453 C 330.862 2.00942 -0.273892 0
M  V30 3454 C 331.195 1.57656 1.13394 0
M  V30 3455 O 330.47 0.802434 1.77176 0
M  V30 3456 C 330.753 3.58211 -0.368346 0
M  V30 3457 C 330.606 4.11534 -1.81548 0
M  V30 3458 C 331.925 4.39372 0.253054 0
M  V30 3459 H 329.044 0.730047 -0.100996 0
M  V30 3460 H 331.686 1.66056 -0.923337 0
M  V30 3461 H 329.836 3.88061 0.184588 0
M  V30 3462 H 331.508 3.92431 -2.42478 0
M  V30 3463 H 329.751 3.65341 -2.33898 0
M  V30 3464 H 330.422 5.20682 -1.83288 0
M  V30 3465 H 332.898 4.15527 -0.218224 0
M  V30 3466 H 331.774 5.48677 0.156585 0
M  V30 3467 H 332.035 4.21358 1.33826 0
M  V30 3468 N 331.094 0.475555 1.50254 0
M  V30 3469 C 332.51 0.12997 1.5907 0
M  V30 3470 C 332.71 -1.36385 1.48328 0
M  V30 3471 O 331.766 -2.13754 1.34407 0
M  V30 3472 C 333.079 0.684139 2.92814 0
M  V30 3473 C 334.627 0.647965 3.0622 0
M  V30 3474 C 335.102 1.17975 4.42545 0
M  V30 3475 N 336.593 1.13936 4.48969 0
M  V30 3476 C 337.328 1.52129 5.52851 0
M  V30 3477 N 336.824 1.97793 6.63965 0
M  V30 3478 N 338.617 1.43704 5.4342 0
M  V30 3479 H 330.768 1.44706 1.55479 0
M  V30 3480 H 333.031 0.598691 0.735033 0
M  V30 3481 H 332.737 1.73079 3.06164 0
M  V30 3482 H 332.611 0.130204 3.76975 0
M  V30 3483 H 334.998 -0.38979 2.92514 0
M  V30 3484 H 335.079 1.23876 2.23805 0
M  V30 3485 H 334.723 2.21616 4.57 0
M  V30 3486 H 334.653 0.565138 5.23559 0
M  V30 3487 H 337.144 0.804488 3.69238 0
M  V30 3488 H 337.457 2.25072 7.39299 0
M  V30 3489 H 335.802 2.01749 6.65073 0
M  V30 3490 H 338.993 1.07867 4.55502 0
M  V30 3491 H 339.166 1.73794 6.24259 0
M  V30 3492 N 332.573 -1.56217 0.208337 0
M  V30 3493 C 333.521 -2.21053 -0.723769 0
M  V30 3494 C 334.515 -1.18578 -1.20978 0
M  V30 3495 O 335.721 -1.36691 -1.17114 0
M  V30 3496 H 332.096 -0.708595 -0.251788 0
M  V30 3497 H 334.067 -2.98006 -0.153365 0
M  V30 3498 C 332.816 -2.89417 -1.927 0
M  V30 3499 H 332.139 -3.68019 -1.56212 0
M  V30 3500 H 333.579 -3.38201 -2.55727 0
M  V30 3501 C 332.038 -1.91166 -2.77411 0
M  V30 3502 O 332.568 -1.42026 -3.75754 0
M  V30 3503 N 330.774 -1.59105 -2.43175 0
M  V30 3504 H 330.321 -1.99259 -1.63259 0
M  V30 3505 H 330.279 -0.936255 -3.00136 0
M  V30 3506 N 334.051 0.0651679 -1.57465 0
M  V30 3507 C 335.3 0.761916 -1.86756 0
M  V30 3508 C 335.613 1.78406 -0.801925 0
M  V30 3509 O 336.819 2.53084 -0.982885 0
M  V30 3510 C 335.275 1.40603 -3.31299 0
M  V30 3511 C 334.883 0.422115 -4.46007 0
M  V30 3512 C 336.627 2.08476 -3.69781 0
M  V30 3513 C 334.534 1.07252 -5.81593 0
M  V30 3514 H 333.464 0.288308 -0.696702 0
M  V30 3515 H 336.115 0.015344 -1.83494 0
M  V30 3516 H 334.497 2.20109 -3.29193 0
M  V30 3517 H 335.671 -0.343613 -4.59517 0
M  V30 3518 H 333.986 -0.152527 -4.16121 0
M  V30 3519 H 336.583 2.57925 -4.68379 0
M  V30 3520 H 336.926 2.88712 -2.99919 0
M  V30 3521 H 337.459 1.35792 -3.73905 0
M  V30 3522 H 334.198 0.310342 -6.54765 0
M  V30 3523 H 333.718 1.80895 -5.71872 0
M  V30 3524 H 335.397 1.59043 -6.27148 0
M  V30 3525 N 335.529 1.53961 0.336706 0
M  V30 3526 C 336.461 1.78751 1.4346 0
M  V30 3527 C 337.474 0.669019 1.48418 0
M  V30 3528 O 338.663 0.945884 1.51378 0
M  V30 3529 C 335.763 1.87844 2.82078 0
M  V30 3530 C 334.936 3.17854 3.00479 0
M  V30 3531 C 333.995 3.17816 4.19379 0
M  V30 3532 O 333.021 3.91511 4.13168 0
M  V30 3533 N 334.223 2.40669 5.2826 0
M  V30 3534 H 336.988 2.73493 1.22563 0
M  V30 3535 H 334.549 1.53096 0.526625 0
M  V30 3536 H 336.541 1.85261 3.59806 0
M  V30 3537 H 335.111 1.00257 2.96086 0
M  V30 3538 H 334.331 3.33504 2.10163 0
M  V30 3539 H 335.619 4.03718 3.0966 0
M  V30 3540 H 335.017 1.8036 5.36178 0
M  V30 3541 H 333.574 2.43877 6.04456 0
M  V30 3542 N 337.007 -0.598083 1.45811 0
M  V30 3543 C 338.232 -1.3881 1.54099 0
M  V30 3544 C 338.657 -1.8726 0.177578 0
M  V30 3545 O 338.015 -1.6069 -0.839541 0
M  V30 3546 C 338.063 -2.56217 2.53743 0
M  V30 3547 O 337.167 -3.5716 2.06182 0
M  V30 3548 H 336.508 -0.414024 0.519115 0
M  V30 3549 H 339.038 -0.726971 1.91249 0
M  V30 3550 H 339.048 -3.03337 2.72856 0
M  V30 3551 H 337.723 -2.20303 3.5276 0
M  V30 3552 H 336.3 -3.16624 1.96987 0
M  V30 3553 N 338.485 -1.33259 -0.841409 0
M  V30 3554 C 339.732 -1.24572 -1.5965 0
M  V30 3555 C 340.06 0.189137 -1.93578 0
M  V30 3556 O 339.315 1.14566 -1.5866 0
M  V30 3557 C 339.614 -2.06381 -2.9179 0
M  V30 3558 C 339.28 -3.556 -2.77235 0
M  V30 3559 C 337.942 -3.96282 -2.72973 0
M  V30 3560 C 340.294 -4.50433 -2.62221 0
M  V30 3561 C 337.622 -5.30017 -2.51592 0
M  V30 3562 C 339.974 -5.84327 -2.42374 0
M  V30 3563 C 338.638 -6.24194 -2.36512 0
M  V30 3564 H 337.908 -0.455842 -0.5842 0
M  V30 3565 H 340.555 -1.6482 -0.975016 0
M  V30 3566 H 338.86 -1.58903 -3.5813 0
M  V30 3567 H 340.557 -1.97019 -3.49263 0
M  V30 3568 H 337.147 -3.23298 -2.81384 0
M  V30 3569 H 341.331 -4.19914 -2.64549 0
M  V30 3570 H 336.587 -5.59947 -2.45499 0
M  V30 3571 H 340.761 -6.57414 -2.29739 0
M  V30 3572 H 338.388 -7.27759 -2.19706 0
M  V30 3573 N 339.963 1.05934 -1.16686 0
M  V30 3574 C 340.913 2.11764 -0.844978 0
M  V30 3575 C 341.897 1.59922 0.177178 0
M  V30 3576 O 343.089 1.76983 -0.0241768 0
M  V30 3577 C 340.218 3.41493 -0.351812 0
M  V30 3578 C 339.304 4.00152 -1.40496 0
M  V30 3579 N 339.695 4.32874 -2.61636 0
M  V30 3580 C 337.993 4.278 -1.26106 0
M  V30 3581 C 338.694 4.79552 -3.29249 0
M  V30 3582 N 337.67 4.79211 -2.56628 0
M  V30 3583 H 341.472 2.34916 -1.76612 0
M  V30 3584 H 338.986 1.23511 -1.05446 0
M  V30 3585 H 340.983 4.16773 -0.102796 0
M  V30 3586 H 339.643 3.19778 0.56322 0
M  V30 3587 H 340.654 4.23109 -2.98663 0
M  V30 3588 H 337.331 4.15511 -0.407081 0
M  V30 3589 H 338.721 5.14045 -4.32675 0
M  V30 3590 N 341.441 0.965919 1.2453 0
M  V30 3591 C 342.374 0.4393 2.23932 0
M  V30 3592 C 343.352 -0.485615 1.55179 0
M  V30 3593 O 344.536 -0.417402 1.83821 0
M  V30 3594 C 341.663 -0.366042 3.36716 0
M  V30 3595 C 340.709 0.5009 4.23548 0
M  V30 3596 S 341.542 1.94002 4.99123 0
M  V30 3597 C 342.698 1.14342 6.15367 0
M  V30 3598 H 342.931 1.28167 2.68254 0
M  V30 3599 H 340.464 0.770819 1.33782 0
M  V30 3600 H 342.422 -0.824724 4.0213 0
M  V30 3601 H 341.083 -1.18337 2.90956 0
M  V30 3602 H 340.276 -0.117341 5.03863 0
M  V30 3603 H 339.878 0.89524 3.63127 0
M  V30 3604 H 342.17 0.397572 6.76332 0
M  V30 3605 H 343.113 1.92089 6.81548 0
M  V30 3606 H 343.521 0.668579 5.60527 0
M  V30 3607 N 342.919 -1.39368 0.735821 0
M  V30 3608 C 344.196 -1.94465 0.210395 0
M  V30 3609 C 344.576 -1.67254 -1.28799 0
M  V30 3610 O 343.924 -1.00123 -2.05396 0
M  V30 3611 C 344.134 -3.4472 0.544897 0
M  V30 3612 C 345.482 -4.21708 0.494689 0
M  V30 3613 O 346.506 -3.52922 0.482136 0
M  V30 3614 O 345.365 -5.44299 0.489947 0
M  V30 3615 H 342.459 -0.826096 0.0386666 0
M  V30 3616 H 345.005 -1.48863 0.814735 0
M  V30 3617 H 343.777 -3.57963 1.58045 0
M  V30 3618 H 343.4 -3.97502 -0.08837 0
M  V30 3619 N 344.397 -0.483516 -1.5 0
M  V30 3620 C 345.625 0.0644831 -2.06799 0
M  V30 3621 C 346.04 1.32399 -1.34596 0
M  V30 3622 O 345.397 1.77626 -0.418946 0
M  V30 3623 C 345.448 0.339927 -3.59898 0
M  V30 3624 O 345.169 -0.869635 -4.29382 0
M  V30 3625 C 346.67 0.933515 -4.33359 0
M  V30 3626 H 343.89 -0.0126333 -0.670881 0
M  V30 3627 H 346.434 -0.675864 -1.93009 0
M  V30 3628 H 344.589 1.03022 -3.7345 0
M  V30 3629 H 345.003 -0.62179 -5.20801 0
M  V30 3630 H 346.477 1.07593 -5.41413 0
M  V30 3631 H 346.954 1.92685 -3.94676 0
M  V30 3632 H 347.56 0.281221 -4.24369 0
M  V30 3633 N 345.875 1.56104 -0.216619 0
M  V30 3634 C 347.291 1.58995 0.13886 0
M  V30 3635 C 347.491 1.23333 1.59346 0
M  V30 3636 O 346.547 0.966234 2.33281 0
M  V30 3637 C 347.86 3.00143 -0.182968 0
M  V30 3638 C 349.408 3.12751 -0.124807 0
M  V30 3639 C 349.883 4.56068 -0.420241 0
M  V30 3640 N 351.374 4.61723 -0.369634 0
M  V30 3641 C 352.109 5.70542 -0.571789 0
M  V30 3642 N 351.605 6.87744 -0.835453 0
M  V30 3643 N 353.398 5.59831 -0.504563 0
M  V30 3644 H 345.549 1.77562 -1.16557 0
M  V30 3645 H 347.812 0.825091 -0.466828 0
M  V30 3646 H 347.518 3.30871 -1.19237 0
M  V30 3647 H 347.392 3.73813 0.504367 0
M  V30 3648 H 349.779 2.81822 0.875223 0
M  V30 3649 H 349.86 2.41421 -0.845544 0
M  V30 3650 H 349.504 4.87713 -1.41769 0
M  V30 3651 H 349.434 5.25617 0.321631 0
M  V30 3652 H 351.925 3.77502 -0.173338 0
M  V30 3653 H 352.238 7.66587 -0.977938 0
M  V30 3654 H 350.583 6.895 -0.872592 0
M  V30 3655 H 353.774 4.67145 -0.298842 0
M  V30 3656 H 353.947 6.44573 -0.665519 0
M  V30 3657 N 347.353 -0.0568162 1.57498 0
M  V30 3658 C 348.301 -1.08452 2.05769 0
M  V30 3659 C 349.295 -1.39164 0.965903 0
M  V30 3660 O 350.501 -1.38395 1.15095 0
M  V30 3661 H 346.876 -0.367148 0.656282 0
M  V30 3662 H 348.847 -0.651368 2.91204 0
M  V30 3663 C 347.596 -2.38543 2.52968 0
M  V30 3664 H 346.919 -2.15765 3.36579 0
M  V30 3665 H 348.359 -3.08863 2.90481 0
M  V30 3666 C 346.818 -3.05562 1.41893 0
M  V30 3667 O 347.348 -3.94262 0.769442 0
M  V30 3668 N 345.554 -2.6643 1.16032 0
M  V30 3669 H 345.101 -1.94387 1.6903 0
M  V30 3670 H 345.059 -3.11593 0.419219 0
M  V30 3671 N 348.832 -1.54138 -0.328536 0
M  V30 3672 C 350.079 -1.72105 -1.06706 0
M  V30 3673 C 350.407 -0.492111 -1.88171 0
M  V30 3674 O 349.662 0.526153 -1.88494 0
M  V30 3675 C 349.961 -2.9457 -2.02393 0
M  V30 3676 C 349.627 -4.29544 -1.37122 0
M  V30 3677 C 348.289 -4.6624 -1.19052 0
M  V30 3678 C 350.641 -5.1333 -0.902331 0
M  V30 3679 C 347.969 -5.84325 -0.527331 0
M  V30 3680 C 350.321 -6.32094 -0.252988 0
M  V30 3681 C 348.985 -6.67473 -0.0600901 0
M  V30 3682 H 348.255 -0.629775 -0.390466 0
M  V30 3683 H 350.902 -1.88372 -0.34473 0
M  V30 3684 H 349.207 -2.72969 -2.81061 0
M  V30 3685 H 350.904 -3.05665 -2.59557 0
M  V30 3686 H 347.494 -4.0067 -1.52188 0
M  V30 3687 H 351.678 -4.855 -1.02974 0
M  V30 3688 H 346.934 -6.103 -0.366634 0
M  V30 3689 H 351.108 -6.96299 0.118366 0
M  V30 3690 H 348.735 -7.58832 0.455828 0
M  V30 3691 N 350.31 0.590341 -1.46126 0
M  V30 3692 C 351.55 1.35995 -1.52593 0
M  V30 3693 C 351.914 1.91243 -0.170368 0
M  V30 3694 O 353.115 2.68576 -0.109775 0
M  V30 3695 C 351.386 2.46465 -2.58823 0
M  V30 3696 S 352.945 3.33953 -2.84641 0
M  V30 3697 H 349.763 0.463425 -0.53922 0
M  V30 3698 H 352.365 0.67944 -1.83314 0
M  V30 3699 H 351.069 2.04256 -3.5596 0
M  V30 3700 H 350.6 3.19297 -2.2981 0
M  V30 3701 H 352.615 4.45094 -2.19331 0
M  V30 3702 N 351.788 1.33704 0.83433 0
M  V30 3703 C 353.065 1.16011 1.57483 0
M  V30 3704 C 353.445 -0.27176 2.09343 0
M  V30 3705 O 352.793 -1.27146 1.89858 0
M  V30 3706 C 353.003 2.20507 2.70514 0
M  V30 3707 C 354.351 2.54898 3.39577 0
M  V30 3708 O 355.375 2.19209 2.80759 0
M  V30 3709 O 354.234 3.16158 4.45765 0
M  V30 3710 H 351.328 0.448992 0.694503 0
M  V30 3711 H 353.874 1.453 0.876691 0
M  V30 3712 H 352.646 3.16667 2.29865 0
M  V30 3713 H 352.269 1.92329 3.47987 0
M  V30 3714 N 353.266 -1.05314 1.17247 0
M  V30 3715 C 354.515 -1.77685 0.954521 0
M  V30 3716 C 354.828 -1.88616 -0.518025 0
M  V30 3717 O 356.034 -2.57714 -0.854144 0
M  V30 3718 C 354.49 -3.19402 1.65863 0
M  V30 3719 C 354.098 -3.16605 3.16963 0
M  V30 3720 C 355.842 -3.96237 1.52303 0
M  V30 3721 C 353.749 -4.53103 3.80068 0
M  V30 3722 H 352.679 -0.666 0.353496 0
M  V30 3723 H 355.33 -1.1805 1.40486 0
M  V30 3724 H 353.712 -3.79355 1.13602 0
M  V30 3725 H 354.886 -2.66176 3.76148 0
M  V30 3726 H 353.201 -2.53268 3.30521 0
M  V30 3727 H 355.798 -4.97157 1.96822 0
M  V30 3728 H 356.141 -4.136 0.473401 0
M  V30 3729 H 356.674 -3.42829 2.01775 0
M  V30 3730 H 353.413 -4.40946 4.85023 0
M  V30 3731 H 352.933 -5.03686 3.2567 0
M  V30 3732 H 354.612 -5.22045 3.82202 0
M  V30 3733 N 354.744 -0.972509 -1.24016 0
M  V30 3734 C 355.992 -0.635776 -1.91839 0
M  V30 3735 C 356.313 0.832312 -1.76345 0
M  V30 3736 O 355.583 1.5946 -1.13795 0
M  V30 3737 H 354.163 -0.232157 -0.710009 0
M  V30 3738 H 356.825 -1.23462 -1.50809 0
M  V30 3739 H 355.921 -0.880545 -2.99421 0
M  V30 3740 N 356.222 1.38976 -0.743202 0
M  V30 3741 C 357.452 2.04339 -0.304807 0
M  V30 3742 C 357.86 1.56162 1.06819 0
M  V30 3743 O 357.203 0.725284 1.68776 0
M  V30 3744 C 357.265 3.58716 -0.237369 0
M  V30 3745 C 356.929 4.29905 -1.55018 0
M  V30 3746 C 357.926 4.55987 -2.49744 0
M  V30 3747 C 355.611 4.68294 -1.81675 0
M  V30 3748 C 357.605 5.19478 -3.69353 0
M  V30 3749 C 355.292 5.31512 -3.0156 0
M  V30 3750 C 356.29 5.57037 -3.9522 0
M  V30 3751 O 355.978 6.18941 -5.12998 0
M  V30 3752 H 355.71 0.663439 -0.12971 0
M  V30 3753 H 358.264 1.78852 -1.01001 0
M  V30 3754 H 356.494 3.83133 0.524003 0
M  V30 3755 H 358.183 4.05543 0.170121 0
M  V30 3756 H 358.949 4.26767 -2.30423 0
M  V30 3757 H 354.828 4.47779 -1.09615 0
M  V30 3758 H 358.372 5.39318 -4.42473 0
M  V30 3759 H 354.269 5.60153 -3.20778 0
M  V30 3760 H 355.037 6.37433 -5.13441 0
M  V30 3761 N 357.7 0.491464 1.49741 0
M  V30 3762 C 358.65 -0.311086 2.25868 0
M  V30 3763 C 359.634 -0.943857 1.30308 0
M  V30 3764 O 360.826 -0.853035 1.55088 0
M  V30 3765 C 357.955 -1.38059 3.14316 0
M  V30 3766 C 357.041 -0.754541 4.17334 0
M  V30 3767 N 357.432 0.137216 5.05614 0
M  V30 3768 C 355.73 -1.01621 4.34269 0
M  V30 3769 C 356.431 0.494614 5.79593 0
M  V30 3770 N 355.407 -0.135169 5.43432 0
M  V30 3771 H 359.209 0.37555 2.91491 0
M  V30 3772 H 356.723 0.306917 1.59473 0
M  V30 3773 H 358.72 -1.96891 3.67477 0
M  V30 3774 H 357.38 -2.06901 2.50244 0
M  V30 3775 H 358.391 0.50741 5.15408 0
M  V30 3776 H 355.068 -1.69808 3.81407 0
M  V30 3777 H 356.458 1.2236 6.60665 0
M  V30 3778 N 359.178 -1.55987 0.224894 0
M  V30 3779 C 360.425 -1.9839 -0.4059 0
M  V30 3780 C 360.753 -1.11261 -1.59535 0
M  V30 3781 O 360.008 -0.158314 -1.95059 0
M  V30 3782 C 360.307 -3.46394 -0.880106 0
M  V30 3783 C 359.973 -4.5046 0.19918 0
M  V30 3784 C 358.635 -4.7864 0.495661 0
M  V30 3785 C 360.987 -5.12855 0.928939 0
M  V30 3786 C 358.315 -5.66497 1.52636 0
M  V30 3787 C 360.667 -6.01828 1.949 0
M  V30 3788 C 359.331 -6.28351 2.25236 0
M  V30 3789 H 358.601 -0.725961 -0.148529 0
M  V30 3790 H 361.248 -1.88668 0.328113 0
M  V30 3791 H 359.553 -3.53337 -1.69294 0
M  V30 3792 H 361.25 -3.76577 -1.37808 0
M  V30 3793 H 357.84 -4.28579 -0.0420526 0
M  V30 3794 H 362.024 -4.9115 0.713129 0
M  V30 3795 H 357.28 -5.8531 1.76698 0
M  V30 3796 H 361.454 -6.49225 2.51951 0
M  V30 3797 H 359.081 -6.96226 3.05244 0
M  V30 3798 N 360.656 0.0484629 -1.57525 0
M  V30 3799 C 361.586 1.0549 -2.08313 0
M  V30 3800 C 362.567 1.38929 -0.981463 0
M  V30 3801 O 363.752 1.48151 -1.25558 0
M  V30 3802 C 360.882 2.36162 -2.54646 0
M  V30 3803 C 359.836 2.17016 -3.68901 0
M  V30 3804 C 359.162 3.53278 -4.01371 0
M  V30 3805 C 360.462 1.57219 -4.98076 0
M  V30 3806 H 362.156 0.632195 -2.92649 0
M  V30 3807 H 359.702 0.302654 -1.40784 0
M  V30 3808 H 361.655 3.06882 -2.88793 0
M  V30 3809 H 360.379 2.80456 -1.67368 0
M  V30 3810 H 359.038 1.48733 -3.35073 0
M  V30 3811 H 358.686 3.95185 -3.11188 0
M  V30 3812 H 358.386 3.41299 -4.78318 0
M  V30 3813 H 359.91 4.25391 -4.38035 0
M  V30 3814 H 361.324 2.17832 -5.30304 0
M  V30 3815 H 359.721 1.55871 -5.79503 0
M  V30 3816 H 360.791 0.535956 -4.81929 0
M  V30 3817 N 362.134 1.5431 0.320358 0
M  V30 3818 C 363.38 1.72924 1.05949 0
M  V30 3819 C 363.713 0.503185 1.87568 0
M  V30 3820 O 362.988 -0.499839 1.87968 0
M  V30 3821 C 363.271 3.00676 1.98156 0
M  V30 3822 C 363.124 4.3354 1.19845 0
M  V30 3823 C 364.443 3.24198 2.9763 0
M  V30 3824 H 361.562 0.629195 0.383774 0
M  V30 3825 H 364.204 1.87008 0.335854 0
M  V30 3826 H 362.354 2.888 2.59859 0
M  V30 3827 H 364.026 4.57305 0.605773 0
M  V30 3828 H 362.269 4.309 0.500784 0
M  V30 3829 H 362.94 5.19156 1.87567 0
M  V30 3830 H 365.416 3.35557 2.4605 0
M  V30 3831 H 364.292 4.14938 3.59329 0
M  V30 3832 H 364.553 2.41577 3.7026 0
M  V30 3833 N 363.613 -0.582584 1.46437 0
M  V30 3834 C 364.861 -1.33814 1.51453 0
M  V30 3835 C 365.182 -1.94277 0.167792 0
M  V30 3836 O 364.452 -1.78566 -0.805677 0
M  V30 3837 H 363.032 -0.496838 0.557818 0
M  V30 3838 H 365.694 -0.682281 1.82568 0
M  V30 3839 H 364.79 -2.14479 2.26728 0
M  V30 3840 N 365.091 -1.34144 -0.827227 0
M  V30 3841 C 366.023 -1.21206 -1.9453 0
M  V30 3842 C 367.036 -0.140176 -1.62195 0
M  V30 3843 O 368.225 -0.391647 -1.7415 0
M  V30 3844 C 365.325 -0.839141 -3.28347 0
M  V30 3845 C 364.498 -2.0051 -3.88734 0
M  V30 3846 C 363.557 -1.61128 -5.00923 0
M  V30 3847 O 362.583 -2.32726 -5.19449 0
M  V30 3848 N 363.785 -0.522958 -5.7814 0
M  V30 3849 H 366.55 -2.17525 -2.06162 0
M  V30 3850 H 364.111 -1.27043 -1.00358 0
M  V30 3851 H 366.103 -0.557556 -4.00841 0
M  V30 3852 H 364.673 0.0337293 -3.12582 0
M  V30 3853 H 363.893 -2.45166 -3.08686 0
M  V30 3854 H 365.181 -2.78498 -4.25812 0
M  V30 3855 H 364.579 0.0723518 -5.65654 0
M  V30 3856 H 363.136 -0.301089 -6.51104 0
M  V30 3857 N 366.569 1.04691 -1.17803 0
M  V30 3858 C 367.846 1.7472 -0.879328 0
M  V30 3859 C 368.226 2.01812 0.619271 0
M  V30 3860 O 367.574 1.65824 1.57209 0
M  V30 3861 C 367.784 3.03686 -1.71976 0
M  V30 3862 C 369.132 3.77542 -1.94286 0
M  V30 3863 O 370.156 3.13569 -1.68976 0
M  V30 3864 O 369.015 4.92506 -2.36855 0
M  V30 3865 H 366.109 0.760011 -0.326056 0
M  V30 3866 H 368.655 1.10813 -1.28525 0
M  V30 3867 H 367.427 2.79754 -2.73594 0
M  V30 3868 H 367.05 3.75332 -1.31194 0
M  V30 3869 N 368.047 0.979072 1.23499 0
M  V30 3870 C 369.295 0.645941 1.91499 0
M  V30 3871 C 369.616 -0.822948 1.76784 0
M  V30 3872 O 368.886 -1.58854 1.14639 0
M  V30 3873 H 367.466 0.235919 0.708767 0
M  V30 3874 H 370.128 1.2426 1.50152 0
M  V30 3875 H 369.224 0.896411 2.9895 0
M  V30 3876 N 369.525 -1.3858 0.750561 0
M  V30 3877 C 370.773 -1.99789 0.30477 0
M  V30 3878 C 371.094 -1.59874 -1.11649 0
M  V30 3879 O 370.364 -0.85417 -1.76297 0
M  V30 3880 H 368.944 -0.738902 0.109694 0
M  V30 3881 H 371.606 -1.69391 0.963983 0
M  V30 3882 H 370.702 -3.09952 0.365499 0
M  V30 3883 N 371.003 -0.499398 -1.49478 0
M  V30 3884 C 372.249 0.0457576 -2.02748 0
M  V30 3885 C 372.582 1.36793 -1.37846 0
M  V30 3886 O 371.857 1.87596 -0.513601 0
M  V30 3887 C 372.14 0.199986 -3.59544 0
M  V30 3888 C 371.993 -1.1452 -4.34977 0
M  V30 3889 C 373.312 0.94137 -4.29914 0
M  V30 3890 H 370.431 0.0151552 -0.736844 0
M  V30 3891 H 373.073 -0.650498 -1.78518 0
M  V30 3892 H 371.223 0.793007 -3.8032 0
M  V30 3893 H 372.895 -1.77697 -4.25701 0
M  V30 3894 H 371.138 -1.73488 -3.97598 0
M  V30 3895 H 371.809 -0.990607 -5.43039 0
M  V30 3896 H 374.285 0.43844 -4.13784 0
M  V30 3897 H 373.161 1.01812 -5.39375 0
M  V30 3898 H 373.422 1.98471 -3.95046 0
M  V30 3899 N 372.481 1.55866 -0.233164 0
M  V30 3900 C 373.711 2.02704 0.399325 0
M  V30 3901 C 374.119 1.11204 1.53069 0
M  V30 3902 O 373.462 0.116182 1.83332 0
M  V30 3903 C 373.524 3.45844 0.981429 0
M  V30 3904 C 373.188 4.56997 -0.0159561 0
M  V30 3905 C 374.185 5.13384 -0.820552 0
M  V30 3906 C 371.87 5.0211 -0.138072 0
M  V30 3907 C 373.864 6.13365 -1.73386 0
M  V30 3908 C 371.551 6.01926 -1.0549 0
M  V30 3909 C 372.549 6.57431 -1.85132 0
M  V30 3910 O 372.237 7.55302 -2.75272 0
M  V30 3911 H 371.969 0.668459 0.100692 0
M  V30 3912 H 374.523 2.02387 -0.35052 0
M  V30 3913 H 372.753 3.43267 1.78058 0
M  V30 3914 H 374.442 3.76262 1.52255 0
M  V30 3915 H 375.208 4.79372 -0.736721 0
M  V30 3916 H 371.087 4.5858 0.471737 0
M  V30 3917 H 374.631 6.56614 -2.35592 0
M  V30 3918 H 370.528 6.35359 -1.1397 0
M  V30 3919 H 371.296 7.72867 -2.69477 0
M  V30 3920 N 373.959 -0.0401083 1.57549 0
M  V30 3921 C 374.869 -1.06133 2.0922 0
M  V30 3922 C 375.885 -1.40356 1.0284 0
M  V30 3923 O 377.061 -1.49897 1.34509 0
M  V30 3924 C 374.126 -2.34658 2.55218 0
M  V30 3925 C 373.187 -2.07117 3.76033 0
M  V30 3926 C 372.42 -3.29514 4.19829 0
M  V30 3927 O 372.643 -4.39794 3.63232 0
M  V30 3928 O 371.577 -3.15863 5.12362 0
M  V30 3929 H 375.403 -0.652244 2.96613 0
M  V30 3930 H 372.988 -0.256368 1.47184 0
M  V30 3931 H 374.87 -3.10239 2.85184 0
M  V30 3932 H 373.545 -2.74883 1.70941 0
M  V30 3933 H 372.452 -1.29139 3.51104 0
M  V30 3934 H 373.785 -1.71754 4.61261 0
M  V30 3935 N 375.437 -1.54477 -0.31217 0
M  V30 3936 C 376.685 -1.72884 -1.04668 0
M  V30 3937 C 377.006 -0.511477 -1.88173 0
M  V30 3938 O 376.276 0.474407 -1.90069 0
M  V30 3939 H 374.856 -0.637461 -0.389425 0
M  V30 3940 H 377.518 -1.91807 -0.345852 0
M  V30 3941 H 376.614 -2.61334 -1.70619 0
M  V30 3942 N 376.915 0.57481 -1.46744 0
M  V30 3943 C 378.161 1.3347 -1.52688 0
M  V30 3944 C 378.494 1.93353 -0.181229 0
M  V30 3945 O 377.769 1.76912 0.808237 0
M  V30 3946 C 378.052 2.45811 -2.63152 0
M  V30 3947 C 377.905 1.90912 -4.07275 0
M  V30 3948 C 379.224 3.47822 -2.69644 0
M  V30 3949 H 376.343 0.483935 -0.555856 0
M  V30 3950 H 378.985 0.644968 -1.78718 0
M  V30 3951 H 377.135 3.04646 -2.41088 0
M  V30 3952 H 378.807 1.36473 -4.4065 0
M  V30 3953 H 377.05 1.21691 -4.16382 0
M  V30 3954 H 377.721 2.72042 -4.80309 0
M  V30 3955 H 380.197 2.9888 -2.895 0
M  V30 3956 H 379.073 4.23876 -3.48742 0
M  V30 3957 H 379.334 4.05555 -1.76005 0
M  V30 3958 N 378.394 1.34581 0.820102 0
M  V30 3959 C 379.642 1.26845 1.57336 0
M  V30 3960 C 379.963 -0.160667 1.94337 0
M  V30 3961 O 379.233 -1.09396 1.6251 0
M  V30 3962 H 377.813 0.466514 0.583415 0
M  V30 3963 H 380.475 1.68526 0.979027 0
M  V30 3964 H 379.571 1.87513 2.4949 0
M  V30 3965 N 379.872 -1.04064 1.18357 0
M  V30 3966 C 381.118 -1.77658 0.990412 0
M  V30 3967 C 381.473 -1.86446 -0.474944 0
M  V30 3968 O 380.766 -1.36153 -1.34807 0
M  V30 3969 C 380.96 -3.20634 1.57888 0
M  V30 3970 C 380.789 -3.25782 3.09994 0
M  V30 3971 C 379.559 -3.34411 3.7881 0
M  V30 3972 C 381.757 -3.13791 4.0748 0
M  V30 3973 N 379.739 -3.28809 5.18418 0
M  V30 3974 C 381.11 -3.15689 5.33611 0
M  V30 3975 C 383.165 -2.97833 3.98998 0
M  V30 3976 C 381.868 -3.03268 6.52243 0
M  V30 3977 C 383.894 -2.86759 5.17227 0
M  V30 3978 C 383.256 -2.893 6.4225 0
M  V30 3979 H 379.355 -0.661901 0.416427 0
M  V30 3980 H 381.939 -1.23968 1.50133 0
M  V30 3981 H 380.11 -3.7267 1.09414 0
M  V30 3982 H 381.842 -3.82525 1.32124 0
M  V30 3983 H 378.597 -3.40144 3.29543 0
M  V30 3984 H 379.021 -3.29448 5.91433 0
M  V30 3985 H 383.663 -2.94698 3.03171 0
M  V30 3986 H 381.381 -3.05156 7.48268 0
M  V30 3987 H 384.967 -2.75465 5.12455 0
M  V30 3988 H 383.847 -2.80818 7.32196 0
M  V30 3989 N 381.35 -0.985608 -1.22978 0
M  V30 3990 C 382.3 -0.50118 -2.22423 0
M  V30 3991 C 383.284 0.426649 -1.5514 0
M  V30 3992 O 384.476 0.254656 -1.75159 0
M  V30 3993 C 381.605 0.190003 -3.42774 0
M  V30 3994 C 380.691 -0.757703 -4.17276 0
M  V30 3995 N 381.082 -1.90251 -4.68656 0
M  V30 3996 C 379.38 -0.57209 -4.42316 0
M  V30 3997 C 380.081 -2.49676 -5.25392 0
M  V30 3998 N 379.057 -1.78013 -5.13627 0
M  V30 3999 H 382.859 -1.37441 -2.59783 0
M  V30 4000 H 380.373 -0.846941 -1.38567 0
M  V30 4001 H 382.37 0.55439 -4.13197 0
M  V30 4002 H 381.03 1.05946 -3.06929 0
M  V30 4003 H 382.041 -2.28354 -4.64839 0
M  V30 4004 H 378.718 0.251909 -4.16739 0
M  V30 4005 H 380.108 -3.46384 -5.75732 0
M  V30 4006 N 382.828 1.3818 -0.7579 0
M  V30 4007 C 384.077 1.99261 -0.312744 0
M  V30 4008 C 384.39 1.60846 1.11301 0
M  V30 4009 O 385.596 2.14929 1.65885 0
M  V30 4010 C 384.052 3.56294 -0.50821 0
M  V30 4011 C 383.66 4.03657 -1.94333 0
M  V30 4012 C 385.404 4.24313 -0.125982 0
M  V30 4013 C 383.311 5.53347 -2.08712 0
M  V30 4014 H 382.241 0.745456 -0.113185 0
M  V30 4015 H 384.892 1.57889 -0.935056 0
M  V30 4016 H 383.274 3.95575 0.183353 0
M  V30 4017 H 384.448 3.75655 -2.66871 0
M  V30 4018 H 382.763 3.48376 -2.28086 0
M  V30 4019 H 385.36 5.34279 -0.212125 0
M  V30 4020 H 385.703 4.05962 0.921964 0
M  V30 4021 H 386.236 3.90285 -0.769563 0
M  V30 4022 H 382.975 5.76607 -3.11777 0
M  V30 4023 H 382.495 5.83078 -1.4064 0
M  V30 4024 H 384.174 6.19111 -1.87912 0
M  V30 4025 N 384.306 0.507319 1.49211 0
M  V30 4026 C 385.238 -0.304532 2.27168 0
M  V30 4027 C 386.251 -0.924956 1.33972 0
M  V30 4028 O 387.44 -0.807227 1.59205 0
M  V30 4029 C 384.54 -1.44431 3.06583 0
M  V30 4030 C 383.713 -0.930026 4.27398 0
M  V30 4031 C 382.772 -1.94817 4.88807 0
M  V30 4032 O 381.798 -1.51418 5.4869 0
M  V30 4033 N 383 -3.279 4.79022 0
M  V30 4034 H 385.765 0.36395 2.97482 0
M  V30 4035 H 383.326 0.340249 1.58284 0
M  V30 4036 H 385.318 -2.12311 3.44537 0
M  V30 4037 H 383.888 -2.01684 2.38835 0
M  V30 4038 H 383.108 -0.0759244 3.94127 0
M  V30 4039 H 384.396 -0.564932 5.05654 0
M  V30 4040 H 383.794 -3.65843 4.3148 0
M  V30 4041 H 382.351 -3.91476 5.21142 0
M  V30 4042 N 385.784 -1.5574 0.241426 0
M  V30 4043 C 387.032 -1.98417 -0.384075 0
M  V30 4044 C 387.353 -1.13078 -1.58866 0
M  V30 4045 O 386.623 -0.212312 -1.94746 0
M  V30 4046 H 385.203 -0.732813 -0.144894 0
M  V30 4047 H 387.865 -1.9193 0.338943 0
M  V30 4048 H 386.961 -3.04219 -0.696939 0
M  V30 4049 N 387.262 0.0317525 -1.57568 0
M  V30 4050 C 388.487 0.738664 -1.938 0
M  V30 4051 C 388.912 1.68242 -0.841208 0
M  V30 4052 O 388.27 1.80157 0.203267 0
M  V30 4053 C 388.318 1.47417 -3.29091 0
M  V30 4054 O 387.422 2.5872 -3.2115 0
M  V30 4055 H 386.763 0.198856 -0.633524 0
M  V30 4056 H 389.293 -0.0119713 -2.04596 0
M  V30 4057 H 389.303 1.84468 -3.63917 0
M  V30 4058 H 387.978 0.781988 -4.08482 0
M  V30 4059 H 386.555 2.24231 -2.97951 0
M  V30 4060 N 388.74 1.54641 0.303973 0
M  V30 4061 C 389.69 1.8177 1.37636 0
M  V30 4062 C 390.674 0.674697 1.46071 0
M  V30 4063 O 391.866 0.935251 1.50273 0
M  V30 4064 C 388.995 2.06584 2.74186 0
M  V30 4065 C 388.081 3.2706 2.69986 0
M  V30 4066 N 388.472 4.47682 2.35402 0
M  V30 4067 C 386.77 3.29028 3.01092 0
M  V30 4068 C 387.471 5.29689 2.40426 0
M  V30 4069 N 386.447 4.67339 2.7766 0
M  V30 4070 H 390.249 2.72596 1.09857 0
M  V30 4071 H 387.763 1.541 0.51254 0
M  V30 4072 H 389.76 2.24166 3.51504 0
M  V30 4073 H 388.42 1.17024 3.02879 0
M  V30 4074 H 389.431 4.74336 2.07908 0
M  V30 4075 H 386.108 2.49565 3.34699 0
M  V30 4076 H 387.498 6.3606 2.16512 0
M  V30 4077 N 390.218 -0.567019 1.47046 0
M  V30 4078 C 391.446 -1.35027 1.56765 0
M  V30 4079 C 391.861 -1.8758 0.214316 0
M  V30 4080 O 391.218 -1.64471 -0.790919 0
M  V30 4081 C 391.269 -2.52698 2.58507 0
M  V30 4082 O 390.99 -2.0232 3.88585 0
M  V30 4083 C 392.491 -3.45043 2.78316 0
M  V30 4084 H 389.711 -0.41195 0.529658 0
M  V30 4085 H 392.255 -0.687832 1.92585 0
M  V30 4086 H 390.41 -3.149 2.25648 0
M  V30 4087 H 390.824 -2.79068 4.44096 0
M  V30 4088 H 392.298 -4.2405 3.53391 0
M  V30 4089 H 392.775 -3.97971 1.85784 0
M  V30 4090 H 393.381 -2.88665 3.12334 0
M  V30 4091 N 391.696 -1.35014 -0.812953 0
M  V30 4092 C 392.926 -1.30841 -1.59888 0
M  V30 4093 C 393.334 0.117576 -1.88834 0
M  V30 4094 O 392.677 1.07807 -1.48739 0
M  V30 4095 C 392.739 -2.0412 -2.95931 0
M  V30 4096 C 392.403 -3.53336 -2.89832 0
M  V30 4097 C 393.4 -4.48052 -2.63714 0
M  V30 4098 C 391.085 -3.95894 -3.0915 0
M  V30 4099 C 393.079 -5.833 -2.56982 0
M  V30 4100 C 390.766 -5.31239 -3.0204 0
M  V30 4101 C 391.764 -6.24754 -2.75991 0
M  V30 4102 O 391.452 -7.57617 -2.68833 0
M  V30 4103 H 391.184 -0.451215 -0.50337 0
M  V30 4104 H 393.738 -1.78354 -1.01877 0
M  V30 4105 H 391.968 -1.51235 -3.559 0
M  V30 4106 H 393.657 -1.93107 -3.57022 0
M  V30 4107 H 394.423 -4.16492 -2.48515 0
M  V30 4108 H 390.302 -3.23495 -3.28438 0
M  V30 4109 H 393.846 -6.56263 -2.36569 0
M  V30 4110 H 389.743 -5.62415 -3.16796 0
M  V30 4111 H 390.511 -7.67469 -2.84487 0
M  V30 4112 N 393.175 1.03435 -1.18907 0
M  V30 4113 C 394.423 1.76394 -0.986382 0
M  V30 4114 C 394.744 1.88883 0.484567 0
M  V30 4115 O 394.014 1.41843 1.3512 0
M  V30 4116 H 392.594 0.65344 -0.361975 0
M  V30 4117 H 395.256 1.248 -1.49703 0
M  V30 4118 H 394.352 2.77424 -1.42978 0
M  V30 4119 N 394.653 0.992116 1.22453 0
M  V30 4120 C 395.9 0.667534 1.91181 0
M  V30 4121 C 396.228 -0.800317 1.77271 0
M  V30 4122 O 395.483 -1.59421 1.13505 0
M  V30 4123 C 395.782 1.01832 3.42586 0
M  V30 4124 C 395.448 2.47831 3.76684 0
M  V30 4125 C 394.11 2.87729 3.85701 0
M  V30 4126 C 396.462 3.42466 3.92895 0
M  V30 4127 C 393.79 4.21252 4.08367 0
M  V30 4128 C 396.142 4.75648 4.17064 0
M  V30 4129 C 394.806 5.15288 4.24305 0
M  V30 4130 H 394.076 0.244268 0.699581 0
M  V30 4131 H 396.723 1.24816 1.45235 0
M  V30 4132 H 395.028 0.355769 3.90181 0
M  V30 4133 H 396.725 0.745228 3.94014 0
M  V30 4134 H 393.315 2.15905 3.70247 0
M  V30 4135 H 397.499 3.12814 3.85307 0
M  V30 4136 H 392.755 4.51554 4.122 0
M  V30 4137 H 396.929 5.48924 4.2855 0
M  V30 4138 H 394.556 6.18769 4.41621 0
M  V30 4139 N 396.131 -1.37776 0.765217 0
M  V30 4140 C 397.079 -2.32209 0.134798 0
M  V30 4141 C 398.073 -1.54607 -0.692315 0
M  V30 4142 O 399.279 -1.70052 -0.590109 0
M  V30 4143 H 395.654 -0.751591 0.0248005 0
M  V30 4144 H 397.625 -2.8297 0.947119 0
M  V30 4145 C 396.374 -3.39841 -0.735063 0
M  V30 4146 H 395.697 -3.99654 -0.107991 0
M  V30 4147 H 397.137 -4.08296 -1.14326 0
M  V30 4148 C 395.596 -2.79378 -1.88281 0
M  V30 4149 O 396.126 -2.69608 -2.97783 0
M  V30 4150 N 394.332 -2.37016 -1.68142 0
M  V30 4151 H 393.879 -2.45162 -0.790772 0
M  V30 4152 H 393.837 -1.96905 -2.45104 0
M  V30 4153 N 397.609 -0.515225 -1.4894 0
M  V30 4154 C 398.886 0.0879088 -1.95402 0
M  V30 4155 C 399.266 1.52745 -1.45712 0
M  V30 4156 O 398.614 2.18238 -0.677093 0
M  V30 4157 C 398.824 -0.0141055 -3.48997 0
M  V30 4158 C 400.172 0.152646 -4.24326 0
M  V30 4159 O 401.196 0.0604025 -3.56149 0
M  V30 4160 O 400.055 0.34384 -5.45417 0
M  V30 4161 H 397.149 0.0874636 -0.822362 0
M  V30 4162 H 399.695 -0.578775 -1.59525 0
M  V30 4163 H 398.467 -1.01745 -3.77841 0
M  V30 4164 H 398.09 0.692091 -3.9153 0
M  V30 4165 N 399.087 1.5561 -0.249682 0
M  V30 4166 C 400.336 1.98187 0.37479 0
M  V30 4167 C 400.649 1.14111 1.58865 0
M  V30 4168 O 401.855 1.46714 2.28445 0
M  V30 4169 C 400.311 3.52661 0.718192 0
M  V30 4170 C 399.919 4.45481 -0.474428 0
M  V30 4171 C 401.663 4.03888 1.3067 0
M  V30 4172 C 399.57 5.91303 -0.107026 0
M  V30 4173 H 398.5 0.740159 0.143808 0
M  V30 4174 H 401.151 1.80125 -0.350336 0
M  V30 4175 H 399.533 3.66429 1.50152 0
M  V30 4176 H 400.707 4.43473 -1.25172 0
M  V30 4177 H 399.022 4.04751 -0.978052 0
M  V30 4178 H 401.619 5.10358 1.59496 0
M  V30 4179 H 401.962 3.51401 2.23211 0
M  V30 4180 H 402.495 3.93457 0.586211 0
M  V30 4181 H 399.234 6.47833 -0.999642 0
M  V30 4182 H 398.754 5.9644 0.634013 0
M  V30 4183 H 400.433 6.46258 0.309807 0
M  V30 4184 N 400.565 -0.0233959 1.57583 0
M  V30 4185 C 401.528 -1.00693 2.05897 0
M  V30 4186 C 402.528 -1.28693 0.964092 0
M  V30 4187 O 403.718 -1.23602 1.22753 0
M  V30 4188 C 400.85 -2.33825 2.4807 0
M  V30 4189 H 402.043 -0.589476 2.9405 0
M  V30 4190 H 399.596 -0.270354 1.53944 0
M  V30 4191 H 400.331 -2.80307 1.6309 0
M  V30 4192 H 400.116 -2.1483 3.2801 0
M  V30 4193 H 401.606 -3.04426 2.85857 0
M  V30 4194 N 402.043 -1.548 -0.295768 0
M  V30 4195 C 402.973 -1.89115 -1.36959 0
M  V30 4196 C 403.954 -0.75059 -1.52644 0
M  V30 4197 O 405.139 -1.00678 -1.66065 0
M  V30 4198 C 402.269 -2.14307 -2.73295 0
M  V30 4199 C 401.223 -3.30151 -2.72368 0
M  V30 4200 C 400.549 -3.40772 -4.12042 0
M  V30 4201 C 401.849 -4.67126 -2.33646 0
M  V30 4202 H 403.543 -2.79053 -1.08488 0
M  V30 4203 H 401.089 -1.34266 -0.520443 0
M  V30 4204 H 403.042 -2.36898 -3.48507 0
M  V30 4205 H 401.766 -1.21145 -3.03301 0
M  V30 4206 H 400.425 -3.0749 -1.99613 0
M  V30 4207 H 400.073 -2.45117 -4.39234 0
M  V30 4208 H 399.773 -4.18645 -4.12322 0
M  V30 4209 H 401.297 -3.6563 -4.89027 0
M  V30 4210 H 402.711 -4.89414 -2.98575 0
M  V30 4211 H 401.108 -5.47751 -2.45129 0
M  V30 4212 H 402.178 -4.67489 -1.28772 0
M  V30 4213 N 403.521 0.559213 -1.47345 0
M  V30 4214 C 404.769 1.31388 -1.53563 0
M  V30 4215 C 405.09 1.93985 -0.198678 0
M  V30 4216 O 404.36 1.79825 0.777167 0
M  V30 4217 H 402.94 0.487901 -0.565652 0
M  V30 4218 H 405.602 0.65315 -1.8363 0
M  V30 4219 H 404.698 2.10844 -2.30111 0
M  V30 4220 N 404.999 1.35443 0.805782 0
M  V30 4221 C 406.248 1.28097 1.55801 0
M  V30 4222 C 406.561 -0.142428 1.95081 0
M  V30 4223 O 407.767 -0.33817 2.69386 0
M  V30 4224 C 406.223 2.24653 2.81174 0
M  V30 4225 C 405.831 3.72342 2.49129 0
M  V30 4226 C 407.575 2.2625 3.59181 0
M  V30 4227 C 405.482 4.60719 3.70799 0
M  V30 4228 H 404.412 0.475937 0.584808 0
M  V30 4229 H 407.063 1.60712 0.885661 0
M  V30 4230 H 405.445 1.85011 3.50124 0
M  V30 4231 H 406.619 4.20624 1.88181 0
M  V30 4232 H 404.934 3.73361 1.84366 0
M  V30 4233 H 407.531 2.89495 4.49552 0
M  V30 4234 H 407.874 1.26647 3.96568 0
M  V30 4235 H 408.407 2.64426 2.97193 0
M  V30 4236 H 405.146 5.61324 3.3852 0
M  V30 4237 H 404.666 4.17163 4.3097 0
M  V30 4238 H 406.345 4.76182 4.38018 0
M  V30 4239 N 406.477 -1.02803 1.19454 0
M  V30 4240 C 407.44 -2.09264 0.934955 0
M  V30 4241 C 408.44 -1.60576 -0.0849015 0
M  V30 4242 O 409.63 -1.73554 0.149933 0
M  V30 4243 C 406.762 -3.38482 0.40531 0
M  V30 4244 H 407.955 -2.33726 1.87916 0
M  V30 4245 H 405.508 -1.19426 1.00832 0
M  V30 4246 H 406.243 -3.19689 -0.544899 0
M  V30 4247 H 406.028 -3.75142 1.14065 0
M  V30 4248 H 407.518 -4.16894 0.242806 0
M  V30 4249 N 407.956 -0.998596 -1.21925 0
M  V30 4250 C 409.203 -0.677663 -1.90824 0
M  V30 4251 C 409.531 0.790905 -1.77693 0
M  V30 4252 O 408.786 1.58817 -1.14349 0
M  V30 4253 C 409.085 -1.03648 -3.42041 0
M  V30 4254 C 408.751 -2.49825 -3.75364 0
M  V30 4255 C 407.413 -2.8977 -3.8417 0
M  V30 4256 C 409.765 -3.44545 -3.91073 0
M  V30 4257 C 407.093 -4.23412 -4.06127 0
M  V30 4258 C 409.445 -4.77853 -4.14535 0
M  V30 4259 C 408.109 -5.17531 -4.21566 0
M  V30 4260 H 407.379 -0.247975 -0.698276 0
M  V30 4261 H 410.026 -1.25584 -1.44571 0
M  V30 4262 H 408.331 -0.376457 -3.89987 0
M  V30 4263 H 410.028 -0.766113 -3.93614 0
M  V30 4264 H 406.618 -2.17866 -3.69097 0
M  V30 4265 H 410.802 -3.14853 -3.83642 0
M  V30 4266 H 406.058 -4.53734 -4.09799 0
M  V30 4267 H 410.232 -5.51189 -4.25633 0
M  V30 4268 H 407.859 -6.21102 -4.38333 0
M  V30 4269 N 409.434 1.37368 -0.772513 0
M  V30 4270 C 410.683 1.98918 -0.333861 0
M  V30 4271 C 410.996 1.62017 1.09589 0
M  V30 4272 O 412.202 2.16676 1.63596 0
M  V30 4273 C 410.658 3.55735 -0.545971 0
M  V30 4274 C 410.266 4.01573 -1.98603 0
M  V30 4275 C 412.01 4.24156 -0.170979 0
M  V30 4276 C 409.917 5.51102 -2.1457 0
M  V30 4277 H 408.847 0.744214 -0.121085 0
M  V30 4278 H 411.498 1.56888 -0.95175 0
M  V30 4279 H 409.88 3.95748 0.141387 0
M  V30 4280 H 411.054 3.72803 -2.7084 0
M  V30 4281 H 409.369 3.45937 -2.31769 0
M  V30 4282 H 411.966 5.34024 -0.26878 0
M  V30 4283 H 412.309 4.06917 0.878855 0
M  V30 4284 H 412.842 3.89447 -0.810914 0
M  V30 4285 H 409.581 5.73268 -3.17875 0
M  V30 4286 H 409.101 5.81554 -1.46817 0
M  V30 4287 H 410.78 6.17083 -1.94468 0
M  V30 4288 N 410.912 0.523116 1.48665 0
M  V30 4289 C 412.16 -0.0134497 2.02096 0
M  V30 4290 C 412.481 -1.35418 1.40311 0
M  V30 4291 O 411.751 -1.87543 0.566074 0
M  V30 4292 H 410.331 -0.00795915 0.746958 0
M  V30 4293 H 412.993 0.685388 1.82451 0
M  V30 4294 H 412.089 -0.126849 3.11842 0
M  V30 4295 N 412.39 -1.55475 0.257931 0
M  V30 4296 C 413.62 -2.03314 -0.367026 0
M  V30 4297 C 414.028 -1.13625 -1.51281 0
M  V30 4298 O 413.371 -0.145334 -1.83124 0
M  V30 4299 C 413.433 -3.47362 -0.926284 0
M  V30 4300 C 413.097 -4.56914 0.0886584 0
M  V30 4301 C 414.094 -5.12013 0.902123 0
M  V30 4302 C 411.779 -5.01827 0.217936 0
M  V30 4303 C 413.773 -6.10529 1.83122 0
M  V30 4304 C 411.46 -6.00172 1.15052 0
M  V30 4305 C 412.458 -6.54402 1.95568 0
M  V30 4306 O 412.146 -7.50827 2.87253 0
M  V30 4307 H 411.878 -0.669976 -0.0900443 0
M  V30 4308 H 414.432 -2.01804 0.382673 0
M  V30 4309 H 412.662 -3.46056 -1.72575 0
M  V30 4310 H 414.351 -3.78637 -1.46249 0
M  V30 4311 H 415.117 -4.78139 0.812891 0
M  V30 4312 H 410.996 -4.59272 -0.398721 0
M  V30 4313 H 414.54 -6.52783 2.46008 0
M  V30 4314 H 410.437 -6.33465 1.24064 0
M  V30 4315 H 411.205 -7.68483 2.81739 0
M  V30 4316 N 413.868 0.0150385 -1.57593 0
M  V30 4317 C 415.115 0.703001 -1.89906 0
M  V30 4318 C 415.443 1.74604 -0.856944 0
M  V30 4319 O 414.698 1.95197 0.140287 0
M  V30 4320 C 414.997 1.39686 -3.28972 0
M  V30 4321 C 414.663 0.488457 -4.48246 0
M  V30 4322 C 413.325 0.2383 -4.8061 0
M  V30 4323 C 415.677 -0.137881 -5.21018 0
M  V30 4324 C 413.005 -0.646738 -5.83125 0
M  V30 4325 C 415.357 -1.0107 -6.24474 0
M  V30 4326 C 414.021 -1.27019 -6.55303 0
M  V30 4327 H 413.291 0.257246 -0.694914 0
M  V30 4328 H 415.938 -0.037259 -1.91464 0
M  V30 4329 H 414.243 2.21079 -3.23468 0
M  V30 4330 H 415.94 1.93495 -3.51227 0
M  V30 4331 H 412.53 0.693593 -4.22951 0
M  V30 4332 H 416.714 0.0423953 -4.96282 0
M  V30 4333 H 411.97 -0.855937 -6.05379 0
M  V30 4334 H 416.144 -1.50247 -6.79999 0
M  V30 4335 H 413.771 -1.95769 -7.3456 0
M  V30 4336 N 415.346 1.54954 0.287554 0
M  V30 4337 C 416.592 1.75132 1.02257 0
M  V30 4338 C 416.925 0.542858 1.86458 0
M  V30 4339 O 416.2 -0.459856 1.88986 0
M  V30 4340 C 416.483 3.04812 1.91733 0
M  V30 4341 C 416.336 4.35985 1.10622 0
M  V30 4342 C 417.655 3.30438 2.90687 0
M  V30 4343 H 414.774 0.637194 0.370341 0
M  V30 4344 H 417.416 1.87678 0.296111 0
M  V30 4345 H 415.566 2.94247 2.53675 0
M  V30 4346 H 417.238 4.58487 0.508636 0
M  V30 4347 H 415.481 4.31865 0.409271 0
M  V30 4348 H 416.152 5.23017 1.76513 0
M  V30 4349 H 418.628 3.40701 2.38877 0
M  V30 4350 H 417.504 4.22467 3.50447 0
M  V30 4351 H 417.765 2.49377 3.65053 0
M  V30 4352 N 416.824 -0.551391 1.4764 0
M  V30 4353 C 417.734 -1.68525 1.63207 0
M  V30 4354 C 418.75 -1.6621 0.514815 0
M  V30 4355 O 419.926 -1.85551 0.783113 0
M  V30 4356 C 416.991 -3.05025 1.64805 0
M  V30 4357 C 416.052 -3.18362 2.88 0
M  V30 4358 C 415.285 -4.4835 2.89513 0
M  V30 4359 O 415.508 -5.34163 2.00065 0
M  V30 4360 O 414.442 -4.65602 3.81443 0
M  V30 4361 H 418.268 -1.58333 2.59161 0
M  V30 4362 H 415.853 -0.722063 1.30792 0
M  V30 4363 H 417.735 -3.86245 1.68502 0
M  V30 4364 H 416.41 -3.15587 0.720197 0
M  V30 4365 H 415.317 -2.36518 2.89845 0
M  V30 4366 H 416.65 -3.12707 3.80099 0
M  V30 4367 N 418.302 -1.35869 -0.798587 0
M  V30 4368 C 419.249 -1.29446 -1.91082 0
M  V30 4369 C 420.219 -0.16487 -1.6528 0
M  V30 4370 O 421.404 -0.349888 -1.87564 0
M  V30 4371 C 418.544 -1.0804 -3.27752 0
M  V30 4372 C 417.657 -2.29993 -3.65687 0
M  V30 4373 C 416.792 -2.01673 -4.91428 0
M  V30 4374 C 415.831 -3.19636 -5.22015 0
M  V30 4375 N 414.968 -2.91039 -6.38937 0
M  V30 4376 H 419.808 -2.24553 -1.95907 0
M  V30 4377 H 417.345 -1.11615 -0.958148 0
M  V30 4378 H 419.303 -0.936586 -4.06551 0
M  V30 4379 H 417.933 -0.16592 -3.22373 0
M  V30 4380 H 416.985 -2.55211 -2.82085 0
M  V30 4381 H 418.297 -3.18052 -3.84245 0
M  V30 4382 H 417.451 -1.84168 -5.78072 0
M  V30 4383 H 416.19 -1.10911 -4.74921 0
M  V30 4384 H 415.195 -3.37709 -4.33858 0
M  V30 4385 H 416.42 -4.11211 -5.40447 0
M  V30 4386 H 414.366 -2.0288 -6.2384 0
M  V30 4387 H 414.283 -3.72635 -6.57784 0
M  V30 4388 H 415.551 -2.77093 -7.28587 0
M  V30 4389 N 419.78 1.02168 -1.19998 0
M  V30 4390 C 421.191 1.57135 -1.00825 0
M  V30 4391 C 421.542 1.91276 0.436818 0
M  V30 4392 O 420.667 1.71679 1.3174 0
M  V30 4393 C 421.262 2.85514 -1.82393 0
M  V30 4394 C 419.821 3.37027 -1.67601 0
M  V30 4395 C 418.968 2.10388 -1.80644 0
M  V30 4396 H 421.919 0.846106 -1.34264 0
M  V30 4397 H 421.94 3.56711 -1.32429 0
M  V30 4398 H 421.452 2.60634 -2.87561 0
M  V30 4399 H 419.553 3.66878 -0.650485 0
M  V30 4400 H 419.666 4.09572 -2.4857 0
M  V30 4401 H 418.03 2.22601 -1.23778 0
M  V30 4402 H 418.813 1.8794 -2.87286 0
M  V30 4403 N 421.258 1.00505 1.21394 0
M  V30 4404 C 422.669 0.721082 1.72213 0
M  V30 4405 C 423.02 -0.761263 1.80829 0
M  V30 4406 O 422.145 -1.59464 1.46288 0
M  V30 4407 C 422.74 1.30228 3.12772 0
M  V30 4408 C 421.299 1.06743 3.60947 0
M  V30 4409 C 420.446 1.41507 2.38477 0
M  V30 4410 H 423.397 1.17594 1.06571 0
M  V30 4411 H 423.418 0.686955 3.74247 0
M  V30 4412 H 422.93 2.38115 3.06468 0
M  V30 4413 H 421.031 0.00572162 3.726 0
M  V30 4414 H 421.144 1.73936 4.46411 0
M  V30 4415 H 419.508 0.833852 2.40664 0
M  V30 4416 H 420.291 2.50424 2.34824 0
M  V30 4417 N 422.737 -1.36956 0.779787 0
M  V30 4418 C 423.685 -2.32053 0.15942 0
M  V30 4419 C 424.679 -1.55333 -0.675878 0
M  V30 4420 O 425.885 -1.70668 -0.57204 0
M  V30 4421 H 422.26 -0.751286 0.0327707 0
M  V30 4422 H 424.231 -2.8195 0.977078 0
M  V30 4423 C 422.98 -3.40602 -0.698977 0
M  V30 4424 H 422.303 -3.99746 -0.0655966 0
M  V30 4425 H 423.743 -4.09486 -1.09989 0
M  V30 4426 C 422.202 -2.81359 -1.85307 0
M  V30 4427 O 422.732 -2.72751 -2.94906 0
M  V30 4428 N 420.938 -2.38786 -1.65619 0
M  V30 4429 H 420.485 -2.45987 -0.764725 0
M  V30 4430 H 420.443 -1.99493 -2.43002 0
M  V30 4431 N 424.215 -0.530993 -1.48385 0
M  V30 4432 C 425.178 0.220497 -2.28137 0
M  V30 4433 C 426.178 0.866851 -1.35434 0
M  V30 4434 O 427.368 0.726746 -1.58316 0
M  V30 4435 C 424.5 1.31921 -3.1434 0
M  V30 4436 H 425.693 -0.479714 -2.96038 0
M  V30 4437 H 423.246 -0.286968 -1.53643 0
M  V30 4438 H 423.981 2.05264 -2.51072 0
M  V30 4439 H 423.766 0.86085 -3.82533 0
M  V30 4440 H 425.256 1.84776 -3.74497 0
M  V30 4441 N 425.693 1.55336 -0.266172 0
M  V30 4442 C 426.656 2.20878 0.612001 0
M  V30 4443 C 427.656 1.18388 1.08816 0
M  V30 4444 O 428.846 1.4335 0.989774 0
M  V30 4445 C 425.978 2.86765 1.84332 0
M  V30 4446 H 427.171 2.99873 0.0398718 0
M  V30 4447 H 424.724 1.56291 -0.0167309 0
M  V30 4448 H 425.459 2.11759 2.45619 0
M  V30 4449 H 425.244 3.61862 1.5099 0
M  V30 4450 H 426.734 3.36867 2.46801 0
M  V30 4451 N 427.171 -0.0066808 1.57599 0
M  V30 4452 C 428.134 -0.985035 2.06953 0
M  V30 4453 C 429.134 -1.27663 0.977687 0
M  V30 4454 O 430.324 -1.22293 1.24057 0
M  V30 4455 C 427.456 -2.3118 2.50536 0
M  V30 4456 H 428.649 -0.558255 2.94658 0
M  V30 4457 H 426.202 -0.254011 1.54222 0
M  V30 4458 H 426.937 -2.78561 1.66054 0
M  V30 4459 H 426.722 -2.11338 3.3027 0
M  V30 4460 H 428.212 -3.01377 2.8907 0
M  V30 4461 N 428.649 -1.55105 -0.279332 0
M  V30 4462 C 429.579 -1.90557 -1.34945 0
M  V30 4463 C 430.56 -0.766738 -1.51839 0
M  V30 4464 O 431.745 -1.02434 -1.64988 0
M  V30 4465 C 428.875 -2.17193 -2.71006 0
M  V30 4466 C 427.829 -3.33021 -2.68851 0
M  V30 4467 C 427.155 -3.45123 -4.08405 0
M  V30 4468 C 428.455 -4.69578 -2.28678 0
M  V30 4469 H 430.149 -2.80188 -1.05522 0
M  V30 4470 H 427.695 -1.34811 -0.506173 0
M  V30 4471 H 429.648 -2.40581 -3.45975 0
M  V30 4472 H 428.372 -1.24355 -3.01999 0
M  V30 4473 H 427.031 -3.0959 -1.9634 0
M  V30 4474 H 426.679 -2.49762 -4.3661 0
M  V30 4475 H 426.379 -4.22995 -4.07859 0
M  V30 4476 H 427.903 -3.70796 -4.85121 0
M  V30 4477 H 429.317 -4.92553 -2.93368 0
M  V30 4478 H 427.714 -5.5032 -2.39306 0
M  V30 4479 H 428.784 -4.68828 -1.23807 0
M  V30 4480 N 430.127 0.543554 -1.4793 0
M  V30 4481 C 431.037 1.67657 -1.64098 0
M  V30 4482 C 432.053 1.65934 -0.523622 0
M  V30 4483 O 433.229 1.85133 -0.792943 0
M  V30 4484 C 430.294 3.04146 -1.66421 0
M  V30 4485 C 429.355 3.16831 -2.89684 0
M  V30 4486 C 428.588 4.46809 -2.91886 0
M  V30 4487 O 428.811 5.33095 -2.02895 0
M  V30 4488 O 427.745 4.63573 -3.83906 0
M  V30 4489 H 431.571 1.56957 -2.59997 0
M  V30 4490 H 429.156 0.715116 -1.31173 0
M  V30 4491 H 431.038 3.85346 -1.70548 0
M  V30 4492 H 429.713 3.152 -0.736923 0
M  V30 4493 H 428.62 2.34977 -2.91095 0
M  V30 4494 H 429.953 3.10687 -3.81752 0
M  V30 4495 N 431.605 1.3629 0.791371 0
M  V30 4496 C 432.568 1.30309 1.88553 0
M  V30 4497 C 433.568 0.211204 1.59407 0
M  V30 4498 O 434.758 0.465865 1.67855 0
M  V30 4499 C 431.89 1.01956 3.25297 0
M  V30 4500 H 433.083 2.27614 1.95273 0
M  V30 4501 H 430.636 1.21035 0.988953 0
M  V30 4502 H 431.371 0.050998 3.2426 0
M  V30 4503 H 431.156 1.80968 3.4784 0
M  V30 4504 H 432.646 1.0037 4.05359 0
M  V30 4505 N 433.083 -1.0153 1.20538 0
M  V30 4506 C 434.046 -2.0826 0.957098 0
M  V30 4507 C 435.046 -1.60657 -0.0678655 0
M  V30 4508 O 436.236 -1.73385 0.168332 0
M  V30 4509 C 433.368 -3.38033 0.441188 0
M  V30 4510 H 434.561 -2.31719 1.90384 0
M  V30 4511 H 432.114 -1.1835 1.02093 0
M  V30 4512 H 432.849 -3.20249 -0.510961 0
M  V30 4513 H 432.634 -3.73911 1.18038 0
M  V30 4514 H 434.124 -4.16613 0.287009 0
M  V30 4515 N 434.561 -1.01147 -1.20859 0
M  V30 4516 C 435.493 -0.535546 -2.22855 0
M  V30 4517 C 436.506 0.379323 -1.58319 0
M  V30 4518 O 437.695 0.178489 -1.77605 0
M  V30 4519 C 434.795 0.240962 -3.38042 0
M  V30 4520 C 433.968 -0.674562 -4.32167 0
M  V30 4521 C 433.027 0.053467 -5.26173 0
M  V30 4522 O 432.053 -0.567339 -5.66366 0
M  V30 4523 N 433.255 1.32997 -5.65059 0
M  V30 4524 H 436.02 -1.41268 -2.64317 0
M  V30 4525 H 433.581 -0.888386 -1.35349 0
M  V30 4526 H 435.573 0.737115 -3.97931 0
M  V30 4527 H 434.143 1.01935 -2.95513 0
M  V30 4528 H 433.363 -1.35111 -3.70322 0
M  V30 4529 H 434.651 -1.2974 -4.91981 0
M  V30 4530 H 434.049 1.85536 -5.34409 0
M  V30 4531 H 432.606 1.77095 -6.2728 0
M  V30 4532 N 436.039 1.36541 -0.78704 0
M  V30 4533 C 437.316 1.9355 -0.282424 0
M  V30 4534 C 437.696 1.71919 1.22503 0
M  V30 4535 O 437.044 1.07677 2.01539 0
M  V30 4536 C 437.254 3.4246 -0.672462 0
M  V30 4537 C 438.602 4.19582 -0.650863 0
M  V30 4538 O 439.626 3.50889 -0.612789 0
M  V30 4539 O 438.485 5.42106 -0.691623 0
M  V30 4540 H 435.579 0.824091 -0.0693 0
M  V30 4541 H 438.125 1.45736 -0.869423 0
M  V30 4542 H 436.897 3.51851 -1.71221 0
M  V30 4543 H 436.52 3.97556 -0.0592211 0
M  V30 4544 N 437.518 0.538854 1.48102 0
M  V30 4545 C 438.448 -0.207654 2.32575 0
M  V30 4546 C 439.429 -0.926559 1.4265 0
M  V30 4547 O 440.614 -0.91061 1.71527 0
M  V30 4548 C 437.744 -1.24957 3.24042 0
M  V30 4549 C 436.698 -0.648263 4.23062 0
M  V30 4550 C 436.024 -1.79348 5.03725 0
M  V30 4551 C 437.324 0.385897 5.20872 0
M  V30 4552 H 439.018 0.497534 2.95237 0
M  V30 4553 H 436.564 0.240715 1.41974 0
M  V30 4554 H 438.517 -1.77983 3.81969 0
M  V30 4555 H 437.241 -1.98446 2.59397 0
M  V30 4556 H 435.9 -0.139452 3.66335 0
M  V30 4557 H 435.548 -2.51696 4.35498 0
M  V30 4558 H 435.248 -1.39702 5.70751 0
M  V30 4559 H 436.772 -2.32735 5.64506 0
M  V30 4560 H 438.186 -0.057607 5.73271 0
M  V30 4561 H 436.583 0.700227 5.96001 0
M  V30 4562 H 437.653 1.28848 4.67468 0
M  V30 4563 N 438.996 -1.55193 0.274407 0
M  V30 4564 C 440.245 -1.98758 -0.343213 0
M  V30 4565 C 440.558 -1.16624 -1.5703 0
M  V30 4566 O 441.764 -1.5033 -2.26082 0
M  V30 4567 C 440.22 -3.53759 -0.661996 0
M  V30 4568 C 439.828 -4.4467 0.54524 0
M  V30 4569 C 441.572 -4.05916 -1.24228 0
M  V30 4570 C 439.479 -5.91058 0.201084 0
M  V30 4571 H 438.409 -0.742353 -0.132014 0
M  V30 4572 H 441.06 -1.79545 0.378948 0
M  V30 4573 H 439.442 -3.68772 -1.44304 0
M  V30 4574 H 440.616 -4.41426 1.32212 0
M  V30 4575 H 438.931 -4.03143 1.04232 0
M  V30 4576 H 441.528 -5.12831 -1.51357 0
M  V30 4577 H 441.871 -3.54908 -2.17592 0
M  V30 4578 H 442.404 -3.9434 -0.523542 0
M  V30 4579 H 439.143 -6.46161 1.10258 0
M  V30 4580 H 438.663 -5.97373 -0.539045 0
M  V30 4581 H 440.342 -6.46669 -0.206954 0
M  V30 4582 N 440.474 -0.00167713 -1.576 0
M  V30 4583 C 441.406 1.0174 -2.05382 0
M  V30 4584 C 442.419 1.30595 -0.972052 0
M  V30 4585 O 443.608 1.27542 -1.24882 0
M  V30 4586 C 440.708 2.35174 -2.44022 0
M  V30 4587 C 439.881 2.25234 -3.74951 0
M  V30 4588 C 438.94 3.4137 -4.00441 0
M  V30 4589 O 437.966 3.19483 -4.71083 0
M  V30 4590 N 439.168 4.64275 -3.48467 0
M  V30 4591 H 441.933 0.609902 -2.93428 0
M  V30 4592 H 439.494 0.185672 -1.60832 0
M  V30 4593 H 441.486 3.11643 -2.58187 0
M  V30 4594 H 440.056 2.67659 -1.61485 0
M  V30 4595 H 439.276 1.33664 -3.70847 0
M  V30 4596 H 440.564 2.15767 -4.60784 0
M  V30 4597 H 439.962 4.84955 -2.91264 0
M  V30 4598 H 438.519 5.38005 -3.67959 0
M  V30 4599 N 441.952 1.55251 0.271103 0
M  V30 4600 C 443.192 1.77698 1.01008 0
M  V30 4601 C 443.556 0.567246 1.83429 0
M  V30 4602 O 444.757 0.670013 2.60316 0
M  V30 4603 C 443.028 3.04715 1.86772 0
M  V30 4604 S 444.587 3.48289 2.66909 0
M  V30 4605 H 441.405 0.624343 0.340172 0
M  V30 4606 H 444.007 1.9348 0.280315 0
M  V30 4607 H 442.711 3.90853 1.25149 0
M  V30 4608 H 442.242 2.91604 2.64066 0
M  V30 4609 H 444.257 3.07712 3.89266 0
M  V30 4610 N 443.43 -0.535701 1.48216 0
M  V30 4611 C 444.393 -1.623 1.61838 0
M  V30 4612 C 445.393 -1.53087 0.492024 0
M  V30 4613 O 446.583 -1.5686 0.757668 0
M  V30 4614 C 443.715 -3.01907 1.58319 0
M  V30 4615 H 444.908 -1.51564 2.58783 0
M  V30 4616 H 442.461 -0.757317 1.36727 0
M  V30 4617 H 443.196 -3.18155 0.628299 0
M  V30 4618 H 442.981 -3.10003 2.40085 0
M  V30 4619 H 444.471 -3.80969 1.71033 0
M  V30 4620 N 444.908 -1.36708 -0.784132 0
M  V30 4621 C 446.154 -1.31426 -1.54451 0
M  V30 4622 C 446.487 0.10476 -1.93917 0
M  V30 4623 O 445.762 1.05934 -1.6312 0
M  V30 4624 C 446.045 -2.24189 -2.818 0
M  V30 4625 C 445.898 -3.74813 -2.48667 0
M  V30 4626 C 447.217 -2.15626 -3.83658 0
M  V30 4627 H 444.336 -0.478739 -0.560337 0
M  V30 4628 H 446.978 -1.67305 -0.900498 0
M  V30 4629 H 445.128 -1.93722 -3.36755 0
M  V30 4630 H 446.8 -4.15823 -1.99722 0
M  V30 4631 H 445.043 -3.93989 -1.81535 0
M  V30 4632 H 445.714 -4.35138 -3.39646 0
M  V30 4633 H 448.19 -2.42456 -3.38163 0
M  V30 4634 H 447.066 -2.82694 -4.70506 0
M  V30 4635 H 447.327 -1.14522 -4.27009 0
M  V30 4636 N 446.386 1.0089 -1.21074 0
M  V30 4637 C 447.632 1.74866 -1.02712 0
M  V30 4638 C 447.965 1.89178 0.438787 0
M  V30 4639 O 447.24 1.42325 1.32567 0
M  V30 4640 C 447.523 3.16347 -1.72036 0
M  V30 4641 C 447.376 3.09782 -3.26121 0
M  V30 4642 C 448.695 4.15187 -1.45973 0
M  V30 4643 H 445.814 0.634736 -0.374539 0
M  V30 4644 H 448.456 1.17646 -1.49196 0
M  V30 4645 H 446.606 3.65201 -1.32517 0
M  V30 4646 H 448.278 2.68673 -3.74983 0
M  V30 4647 H 446.521 2.46982 -3.56626 0
M  V30 4648 H 447.192 4.09829 -3.6979 0
M  V30 4649 H 449.668 3.75022 -1.80272 0
M  V30 4650 H 448.544 5.12331 -1.96999 0
M  V30 4651 H 448.805 4.40386 -0.388924 0
M  V30 4652 N 447.864 1.01787 1.20321 0
M  V30 4653 C 448.774 0.598898 2.26827 0
M  V30 4654 C 449.79 -0.36418 1.70146 0
M  V30 4655 O 450.966 -0.224812 2.00141 0
M  V30 4656 C 448.031 -0.0549769 3.46656 0
M  V30 4657 C 447.092 0.954205 4.18561 0
M  V30 4658 C 446.325 0.331439 5.3267 0
M  V30 4659 O 446.548 -0.86851 5.63749 0
M  V30 4660 O 445.482 1.0488 5.92692 0
M  V30 4661 H 449.308 1.48562 2.64883 0
M  V30 4662 H 446.893 0.787434 1.26964 0
M  V30 4663 H 448.775 -0.420102 4.19301 0
M  V30 4664 H 447.45 -0.915876 3.10473 0
M  V30 4665 H 446.357 1.37072 3.48083 0
M  V30 4666 H 447.69 1.78511 4.58688 0
M  V30 4667 N 449.342 -1.36122 0.79427 0
M  V30 4668 C 450.59 -1.98718 0.368177 0
M  V30 4669 C 450.911 -1.63345 -1.06506 0
M  V30 4670 O 450.181 -0.909825 -1.73491 0
M  V30 4671 H 448.761 -0.735038 0.133146 0
M  V30 4672 H 451.423 -1.66239 1.01739 0
M  V30 4673 H 450.519 -3.08633 0.463923 0
M  V30 4674 N 450.82 -0.546701 -1.47814 0
M  V30 4675 C 452.05 -0.0232519 -2.06587 0
M  V30 4676 C 452.458 1.2712 -1.40133 0
M  V30 4677 O 451.801 1.77091 -0.488305 0
M  V30 4678 C 451.863 0.254117 -3.58601 0
M  V30 4679 C 451.527 -0.949331 -4.47031 0
M  V30 4680 C 452.524 -1.85216 -4.85789 0
M  V30 4681 C 450.209 -1.16104 -4.88697 0
M  V30 4682 C 452.203 -2.95047 -5.65001 0
M  V30 4683 C 449.89 -2.26247 -5.67676 0
M  V30 4684 C 450.888 -3.1555 -6.05737 0
M  V30 4685 O 450.576 -4.23784 -6.83127 0
M  V30 4686 H 450.308 -0.0380082 -0.674931 0
M  V30 4687 H 452.862 -0.756631 -1.90956 0
M  V30 4688 H 451.092 1.04168 -3.72406 0
M  V30 4689 H 452.781 0.72167 -3.99433 0
M  V30 4690 H 453.547 -1.70061 -4.54207 0
M  V30 4691 H 449.426 -0.475159 -4.58545 0
M  V30 4692 H 452.97 -3.64778 -5.94628 0
M  V30 4693 H 448.867 -2.41379 -5.98671 0
M  V30 4694 H 449.635 -4.21701 -7.01506 0
M  V30 4695 N 452.299 1.55045 -0.282633 0
M  V30 4696 C 453.229 2.2579 0.595066 0
M  V30 4697 C 454.21 1.25074 1.15284 0
M  V30 4698 O 455.395 1.5381 1.18559 0
M  V30 4699 C 452.525 2.98472 1.77572 0
M  V30 4700 C 451.479 4.0618 1.34914 0
M  V30 4701 C 450.805 4.66477 2.6135 0
M  V30 4702 C 452.105 5.1996 0.493821 0
M  V30 4703 H 453.799 2.994 0.00505653 0
M  V30 4704 H 451.345 1.44 0.000992001 0
M  V30 4705 H 453.298 3.46677 2.39568 0
M  V30 4706 H 452.022 2.2241 2.39168 0
M  V30 4707 H 450.681 3.58797 0.752338 0
M  V30 4708 H 450.329 3.87074 3.2122 0
M  V30 4709 H 450.029 5.39207 2.33516 0
M  V30 4710 H 451.553 5.17435 3.24181 0
M  V30 4711 H 452.967 5.64172 1.01898 0
M  V30 4712 H 451.364 5.99299 0.310047 0
M  V30 4713 H 452.434 4.82462 -0.485593 0
M  V30 4714 N 453.777 0.010035 1.57597 0
M  V30 4715 C 455.005 -0.683413 1.95287 0
M  V30 4716 C 455.42 -1.66747 0.885481 0
M  V30 4717 O 454.777 -1.82003 -0.134629 0
M  V30 4718 C 454.828 -1.40652 3.33015 0
M  V30 4719 O 454.549 -0.461916 4.35658 0
M  V30 4720 C 456.05 -2.19356 3.85225 0
M  V30 4721 H 453.27 -0.189708 0.643624 0
M  V30 4722 H 455.814 0.0641359 2.04399 0
M  V30 4723 H 453.969 -2.10562 3.2518 0
M  V30 4724 H 454.383 -0.973215 5.15392 0
M  V30 4725 H 455.857 -2.65433 4.83993 0
M  V30 4726 H 456.334 -3.02457 3.18459 0
M  V30 4727 H 456.94 -1.54442 3.96267 0
M  V30 4728 N 455.255 -1.55392 -0.262866 0
M  V30 4729 C 456.666 -1.67079 -0.833158 0
M  V30 4730 C 457.017 -0.604539 -1.86654 0
M  V30 4731 O 456.142 0.252138 -2.14926 0
M  V30 4732 C 456.737 -3.02891 -1.51797 0
M  V30 4733 C 455.296 -3.16571 -2.03617 0
M  V30 4734 C 454.443 -2.62909 -0.881701 0
M  V30 4735 H 457.394 -1.58652 -0.0389986 0
M  V30 4736 H 457.415 -2.96445 -2.38538 0
M  V30 4737 H 456.927 -3.80473 -0.765619 0
M  V30 4738 H 455.028 -2.43782 -2.81782 0
M  V30 4739 H 455.141 -4.23271 -2.24452 0
M  V30 4740 H 453.505 -2.20324 -1.27786 0
M  V30 4741 H 454.288 -3.43003 -0.14269 0
M  V30 4742 N 456.733 0.527833 -1.48498 0
M  V30 4743 C 457.681 1.65313 -1.63628 0
M  V30 4744 C 458.675 1.6177 -0.502676 0
M  V30 4745 O 459.881 1.66601 -0.681469 0
M  V30 4746 H 456.256 0.547518 -0.515488 0
M  V30 4747 H 458.227 1.49696 -2.58135 0
M  V30 4748 C 456.976 3.03576 -1.6952 0
M  V30 4749 H 456.299 3.06997 -2.56111 0
M  V30 4750 H 457.739 3.81923 -1.84149 0
M  V30 4751 C 456.198 3.34089 -0.43432 0
M  V30 4752 O 456.728 3.99151 0.451852 0
M  V30 4753 N 454.934 2.88991 -0.305368 0
M  V30 4754 H 454.481 2.36222 -1.02747 0
M  V30 4755 H 454.439 3.09776 0.537249 0
M  V30 4756 N 458.211 1.37122 0.776871 0
M  V30 4757 C 459.441 1.35034 1.56363 0
M  V30 4758 C 459.849 -0.0674681 1.8908 0
M  V30 4759 O 459.192 -1.03826 1.51545 0
M  V30 4760 C 459.254 2.11894 2.90415 0
M  V30 4761 C 458.918 3.60897 2.80362 0
M  V30 4762 C 459.915 4.54887 2.51742 0
M  V30 4763 C 457.6 4.03951 2.98545 0
M  V30 4764 C 459.594 5.89909 2.41426 0
M  V30 4765 C 457.281 5.3906 2.87849 0
M  V30 4766 C 458.279 6.31852 2.5933 0
M  V30 4767 O 457.967 7.64479 2.48651 0
M  V30 4768 H 457.699 0.464402 0.49123 0
M  V30 4769 H 460.253 1.80992 0.971127 0
M  V30 4770 H 458.483 1.60618 3.51765 0
M  V30 4771 H 460.172 2.02505 3.51776 0
M  V30 4772 H 460.938 4.22934 2.37385 0
M  V30 4773 H 456.817 3.3209 3.19746 0
M  V30 4774 H 460.361 6.62304 2.19086 0
M  V30 4775 H 456.258 5.70617 3.01773 0
M  V30 4776 H 457.026 7.74742 2.64039 0
M  V30 4777 N 459.689 -1.00246 1.21608 0
M  V30 4778 C 460.619 -2.10921 1.00172 0
M  V30 4779 C 461.6 -1.69938 -0.0741587 0
M  V30 4780 O 462.785 -1.94009 0.0861753 0
M  V30 4781 C 459.915 -3.42618 0.568355 0
M  V30 4782 C 458.869 -3.97407 1.58909 0
M  V30 4783 C 458.195 -5.25038 1.01187 0
M  V30 4784 C 459.495 -4.2918 2.97661 0
M  V30 4785 H 461.189 -2.29112 1.92739 0
M  V30 4786 H 458.735 -1.10101 0.928102 0
M  V30 4787 H 460.688 -4.19444 0.405555 0
M  V30 4788 H 459.412 -3.24227 -0.392961 0
M  V30 4789 H 458.071 -3.22703 1.73949 0
M  V30 4790 H 457.719 -5.02982 0.0421965 0
M  V30 4791 H 457.419 -5.62661 1.6937 0
M  V30 4792 H 458.943 -6.04507 0.860448 0
M  V30 4793 H 460.357 -4.96839 2.86049 0
M  V30 4794 H 458.754 -4.77952 3.6288 0
M  V30 4795 H 459.824 -3.3735 3.48315 0
M  V30 4796 N 461.167 -1.02423 -1.1978 0
M  V30 4797 C 462.097 -0.62157 -2.25075 0
M  V30 4798 C 463.078 0.367148 -1.6609 0
M  V30 4799 O 464.263 0.250892 -1.92573 0
M  V30 4800 C 461.393 0.0331826 -3.47284 0
M  V30 4801 C 460.347 -0.877323 -4.18912 0
M  V30 4802 C 459.673 -0.0879296 -5.34628 0
M  V30 4803 C 460.973 -2.18892 -4.74219 0
M  V30 4804 H 462.667 -1.50179 -2.59011 0
M  V30 4805 H 460.213 -0.723547 -1.24502 0
M  V30 4806 H 462.166 0.326488 -4.20133 0
M  V30 4807 H 460.89 0.948164 -3.12534 0
M  V30 4808 H 459.549 -1.15475 -3.47938 0
M  V30 4809 H 459.197 0.828941 -4.96123 0
M  V30 4810 H 458.897 -0.694359 -5.83483 0
M  V30 4811 H 460.421 0.198743 -6.10276 0
M  V30 4812 H 461.835 -1.95746 -5.38847 0
M  V30 4813 H 460.232 -2.74686 -5.33542 0
M  V30 4814 H 461.302 -2.84674 -3.92541 0
M  V30 4815 N 462.645 1.35699 -0.801477 0
M  V30 4816 C 463.578 2.2768 -0.153922 0
M  V30 4817 C 464.556 1.47832 0.67709 0
M  V30 4818 O 465.74 1.77104 0.645474 0
M  V30 4819 C 462.867 3.2943 0.786986 0
M  V30 4820 C 461.913 4.26485 0.0362447 0
M  V30 4821 S 462.746 5.19573 -1.2963 0
M  V30 4822 C 463.902 6.24866 -0.359705 0
M  V30 4823 H 464.135 2.82254 -0.9338 0
M  V30 4824 H 461.668 1.42421 -0.596283 0
M  V30 4825 H 463.626 3.8855 1.32436 0
M  V30 4826 H 462.287 2.73745 1.54021 0
M  V30 4827 H 461.48 4.98378 0.750668 0
M  V30 4828 H 461.082 3.71508 -0.431017 0
M  V30 4829 H 463.374 6.75957 0.456954 0
M  V30 4830 H 464.317 7.00307 -1.04768 0
M  V30 4831 H 464.725 5.64484 0.0423274 0
M  V30 4832 N 464.123 0.554532 1.47522 0
M  V30 4833 C 465.371 0.0294208 2.02079 0
M  V30 4834 C 465.692 -1.32411 1.43151 0
M  V30 4835 O 464.962 -1.863 0.605728 0
M  V30 4836 H 463.542 0.00788672 0.746958 0
M  V30 4837 H 466.204 0.723934 1.80956 0
M  V30 4838 H 465.3 -0.0606745 3.12041 0
M  V30 4839 N 465.601 -1.54893 0.290851 0
M  V30 4840 C 466.551 -2.19838 -0.604599 0
M  V30 4841 C 467.535 -1.16805 -1.10659 0
M  V30 4842 O 468.727 -1.42562 -1.04905 0
M  V30 4843 C 465.856 -2.93497 -1.78086 0
M  V30 4844 C 464.942 -4.03835 -1.29531 0
M  V30 4845 N 465.333 -5.03047 -0.527024 0
M  V30 4846 C 463.631 -4.17192 -1.57693 0
M  V30 4847 C 464.332 -5.81074 -0.269728 0
M  V30 4848 N 463.308 -5.36966 -0.846651 0
M  V30 4849 H 467.11 -2.93898 -0.00995032 0
M  V30 4850 H 464.624 -1.62121 0.0951353 0
M  V30 4851 H 466.621 -3.38484 -2.43381 0
M  V30 4852 H 465.281 -2.2095 -2.37931 0
M  V30 4853 H 466.292 -5.17611 -0.172872 0
M  V30 4854 H 462.969 -3.55845 -2.18359 0
M  V30 4855 H 464.359 -6.71005 0.346643 0
M  V30 4856 N 467.08 -0.0183926 -1.57589 0
M  V30 4857 C 468.305 0.676634 -1.96052 0
M  V30 4858 C 468.73 1.6548 -0.894307 0
M  V30 4859 O 468.088 1.80712 0.145849 0
M  V30 4860 C 468.136 1.36872 -3.33614 0
M  V30 4861 O 467.24 2.48372 -3.29219 0
M  V30 4862 H 466.581 0.1786 -0.63953 0
M  V30 4863 H 469.111 -0.077056 -2.04455 0
M  V30 4864 H 469.121 1.72797 -3.69601 0
M  V30 4865 H 467.796 0.651636 -4.10763 0
M  V30 4866 H 466.373 2.14639 -3.04934 0
M  V30 4867 N 468.558 1.5553 0.254621 0
M  V30 4868 C 469.835 1.6774 1.00611 0
M  V30 4869 C 470.215 0.555993 2.03647 0
M  V30 4870 O 469.563 -0.441583 2.24193 0
M  V30 4871 C 469.773 3.07725 1.6464 0
M  V30 4872 C 471.121 3.66074 2.15116 0
M  V30 4873 O 472.145 3.10476 1.74595 0
M  V30 4874 O 471.004 4.63526 2.89493 0
M  V30 4875 H 468.098 0.681958 0.467828 0
M  V30 4876 H 470.644 1.67863 0.24902 0
M  V30 4877 H 469.416 3.80792 0.900734 0
M  V30 4878 H 469.039 3.1158 2.46989 0
M  V30 4879 N 470.036 -0.519951 1.48776 0
M  V30 4880 C 471.282 -1.27711 1.57536 0
M  V30 4881 C 471.615 -1.92547 0.252866 0
M  V30 4882 O 470.89 -1.7979 -0.742021 0
M  V30 4883 C 471.173 -2.35875 2.72094 0
M  V30 4884 C 471.026 -1.75664 4.1408 0
M  V30 4885 C 472.345 -3.37575 2.82367 0
M  V30 4886 H 469.464 -0.462971 0.573434 0
M  V30 4887 H 472.106 -0.578194 1.80989 0
M  V30 4888 H 470.256 -2.95488 2.52228 0
M  V30 4889 H 471.928 -1.20025 4.45412 0
M  V30 4890 H 470.171 -1.06154 4.20611 0
M  V30 4891 H 470.842 -2.54029 4.90075 0
M  V30 4892 H 473.318 -2.87929 3.00393 0
M  V30 4893 H 472.194 -4.1064 3.64233 0
M  V30 4894 H 472.455 -3.98743 1.90936 0
M  V30 4895 N 471.514 -1.37532 -0.769588 0
M  V30 4896 C 472.76 -1.33057 -1.53048 0
M  V30 4897 C 473.093 0.0841865 -1.94017 0
M  V30 4898 O 472.368 1.04198 -1.64235 0
M  V30 4899 C 472.651 -2.27166 -2.79406 0
M  V30 4900 C 472.504 -3.77429 -2.44677 0
M  V30 4901 C 473.823 -2.19683 -3.81349 0
M  V30 4902 H 470.942 -0.484655 -0.555228 0
M  V30 4903 H 473.584 -1.68251 -0.882702 0
M  V30 4904 H 471.734 -1.97283 -3.34682 0
M  V30 4905 H 473.406 -4.17918 -1.953 0
M  V30 4906 H 471.649 -3.95892 -1.77346 0
M  V30 4907 H 472.32 -4.38716 -3.35011 0
M  V30 4908 H 474.796 -2.46029 -3.35573 0
M  V30 4909 H 473.672 -2.87668 -4.67481 0
M  V30 4910 H 473.933 -1.19045 -4.25771 0
M  V30 4911 N 472.992 0.995999 -1.22138 0
M  V30 4912 C 473.94 2.10673 -0.985876 0
M  V30 4913 C 474.934 1.69255 0.0699553 0
M  V30 4914 O 476.14 1.79812 -0.0822176 0
M  V30 4915 H 472.515 0.688865 -0.30161 0
M  V30 4916 H 474.486 2.27711 -1.92848 0
M  V30 4917 C 473.235 3.42881 -0.576909 0
M  V30 4918 H 472.558 3.75191 -1.38101 0
M  V30 4919 H 473.998 4.21589 -0.451518 0
M  V30 4920 C 472.457 3.29265 0.713196 0
M  V30 4921 O 472.987 3.60777 1.76643 0
M  V30 4922 N 471.193 2.82456 0.683162 0
M  V30 4923 H 470.74 2.5701 -0.174242 0
M  V30 4924 H 470.698 2.73727 1.54663 0
M  V30 4925 N 474.47 1.03057 1.19235 0
M  V30 4926 C 475.719 0.72326 1.88287 0
M  V30 4927 C 476.032 -0.751333 1.80594 0
M  V30 4928 O 477.238 -1.17176 2.44912 0
M  V30 4929 C 475.694 1.24338 3.3774 0
M  V30 4930 C 475.302 2.74587 3.53986 0
M  V30 4931 C 477.046 1.01213 4.12257 0
M  V30 4932 C 474.953 3.20009 4.97341 0
M  V30 4933 H 473.883 0.266848 0.705201 0
M  V30 4934 H 476.534 1.24509 1.34795 0
M  V30 4935 H 474.916 0.649457 3.90638 0
M  V30 4936 H 476.09 3.39649 3.11408 0
M  V30 4937 H 474.405 2.9601 2.9286 0
M  V30 4938 H 477.002 1.32675 5.17978 0
M  V30 4939 H 477.345 -0.051001 4.16269 0
M  V30 4940 H 477.878 1.57014 3.65501 0
M  V30 4941 H 474.617 4.25659 4.98493 0
M  V30 4942 H 474.137 2.59676 5.40674 0
M  V30 4943 H 475.816 3.13447 5.66003 0
M  V30 4944 N 475.948 -1.35272 0.808662 0
M  V30 4945 C 476.878 -2.32315 0.234981 0
M  V30 4946 C 477.859 -1.57572 -0.64071 0
M  V30 4947 O 479.044 -1.8563 -0.570551 0
M  V30 4948 C 476.174 -3.41801 -0.615601 0
M  V30 4949 C 475.128 -4.27694 0.161767 0
M  V30 4950 C 474.454 -5.28519 -0.810649 0
M  V30 4951 C 475.754 -5.04231 1.36193 0
M  V30 4952 H 477.448 -2.80543 1.04575 0
M  V30 4953 H 474.994 -1.3488 0.504315 0
M  V30 4954 H 476.947 -4.08693 -1.02702 0
M  V30 4955 H 475.671 -2.92186 -1.45928 0
M  V30 4956 H 474.33 -3.62384 0.554382 0
M  V30 4957 H 473.978 -4.75171 -1.64988 0
M  V30 4958 H 473.678 -5.8686 -0.294822 0
M  V30 4959 H 475.202 -5.98283 -1.22023 0
M  V30 4960 H 476.616 -5.64058 1.02528 0
M  V30 4961 H 475.013 -5.72077 1.81239 0
M  V30 4962 H 476.083 -4.34753 2.14751 0
M  V30 4963 N 477.426 -0.562348 -1.47226 0
M  V30 4964 C 478.651 -0.0432632 -2.07355 0
M  V30 4965 C 479.076 1.24332 -1.41149 0
M  V30 4966 O 478.434 1.74603 -0.488226 0
M  V30 4967 C 478.482 0.130288 -3.60365 0
M  V30 4968 O 477.586 1.19166 -3.94808 0
M  V30 4969 H 476.927 -0.0536334 -0.66183 0
M  V30 4970 H 479.457 -0.779495 -1.89169 0
M  V30 4971 H 479.467 0.342881 -4.06557 0
M  V30 4972 H 478.142 -0.809389 -4.07948 0
M  V30 4973 H 476.719 0.959153 -3.60354 0
M  V30 4974 N 478.904 1.54736 -0.299062 0
M  V30 4975 C 480.315 1.8569 0.193971 0
M  V30 4976 C 480.666 1.22101 1.53577 0
M  V30 4977 O 479.791 0.51799 2.10109 0
M  V30 4978 C 480.386 3.36895 0.358733 0
M  V30 4979 C 478.945 3.67887 0.795986 0
M  V30 4980 C 478.092 2.77131 -0.096807 0
M  V30 4981 H 481.043 1.49934 -0.520134 0
M  V30 4982 H 481.064 3.61294 1.19361 0
M  V30 4983 H 480.576 3.83148 -0.617998 0
M  V30 4984 H 478.677 3.27151 1.78334 0
M  V30 4985 H 478.79 4.75114 0.616718 0
M  V30 4986 H 477.154 2.51153 0.423581 0
M  V30 4987 H 477.937 3.26204 -1.06986 0
M  V30 4988 N 480.382 0.0267497 1.57577 0
M  V30 4989 C 481.63 -0.651116 1.91324 0
M  V30 4990 C 481.951 -1.72804 0.90353 0
M  V30 4991 O 481.221 -1.95822 -0.0552946 0
M  V30 4992 H 479.801 -0.243491 0.706202 0
M  V30 4993 H 482.463 0.0739935 1.94759 0
M  V30 4994 H 481.559 -1.10536 2.9187 0
M  V30 4995 N 481.861 -1.55662 -0.24637 0
M  V30 4996 C 482.793 -1.86811 -1.32794 0
M  V30 4997 C 483.806 -0.754413 -1.44265 0
M  V30 4998 O 484.995 -1.03253 -1.45606 0
M  V30 4999 C 482.095 -2.0397 -2.70646 0
M  V30 5000 C 481.268 -3.34832 -2.81436 0
M  V30 5001 C 480.327 -3.41727 -4.00136 0
M  V30 5002 O 479.353 -4.14934 -3.89639 0
M  V30 5003 N 480.555 -2.71058 -5.1333 0
M  V30 5004 H 483.32 -2.80174 -1.06409 0
M  V30 5005 H 480.881 -1.55906 -0.43647 0
M  V30 5006 H 482.873 -2.05924 -3.48393 0
M  V30 5007 H 481.443 -1.1735 -2.89738 0
M  V30 5008 H 480.663 -3.4519 -1.90361 0
M  V30 5009 H 481.951 -4.21085 -2.85595 0
M  V30 5010 H 481.349 -2.11314 -5.2475 0
M  V30 5011 H 479.906 -2.78704 -5.89209 0
M  V30 5012 N 483.339 0.512053 -1.4905 0
M  V30 5013 C 484.302 1.59704 -1.64399 0
M  V30 5014 C 485.302 1.52285 -0.516317 0
M  V30 5015 O 486.492 1.55635 -0.782527 0
M  V30 5016 C 483.624 2.9935 -1.63102 0
M  V30 5017 H 484.817 1.47428 -2.61161 0
M  V30 5018 H 482.37 0.735469 -1.37915 0
M  V30 5019 H 483.105 3.17116 -0.678836 0
M  V30 5020 H 482.89 3.06144 -2.44986 0
M  V30 5021 H 484.38 3.782 -1.77072 0
M  V30 5022 N 484.817 1.37938 0.762283 0
M  V30 5023 C 485.747 1.37176 1.88958 0
M  V30 5024 C 486.728 0.238945 1.68413 0
M  V30 5025 O 487.913 0.440726 1.89133 0
M  V30 5026 C 485.043 1.18742 3.2637 0
M  V30 5027 C 483.997 2.29136 3.61498 0
M  V30 5028 C 483.323 1.95816 4.97554 0
M  V30 5029 C 484.623 3.71363 3.6727 0
M  V30 5030 H 486.317 2.31509 1.89853 0
M  V30 5031 H 483.863 1.11438 0.912005 0
M  V30 5032 H 485.816 1.16837 4.04879 0
M  V30 5033 H 484.54 0.208683 3.25933 0
M  V30 5034 H 483.199 2.30213 2.85303 0
M  V30 5035 H 482.847 0.964475 4.93667 0
M  V30 5036 H 482.547 2.69745 5.22026 0
M  V30 5037 H 484.071 1.95513 5.78452 0
M  V30 5038 H 485.485 3.72364 4.35911 0
M  V30 5039 H 483.882 4.44425 4.03245 0
M  V30 5040 H 484.952 4.04305 2.67704 0
M  V30 5041 N 486.295 -0.989507 1.22664 0
M  V30 5042 C 487.525 -1.7624 1.0781 0
M  V30 5043 C 487.933 -1.85466 -0.374036 0
M  V30 5044 O 487.276 -1.32645 -1.27087 0
M  V30 5045 C 487.338 -3.21007 1.61849 0
M  V30 5046 C 487.002 -3.35316 3.10503 0
M  V30 5047 C 487.999 -3.22362 4.07896 0
M  V30 5048 C 485.684 -3.60258 3.50028 0
M  V30 5049 C 487.678 -3.34139 5.42798 0
M  V30 5050 C 485.365 -3.71676 4.85078 0
M  V30 5051 C 486.363 -3.58625 5.81272 0
M  V30 5052 O 486.051 -3.69655 7.1387 0
M  V30 5053 H 485.783 -0.560209 0.378341 0
M  V30 5054 H 488.337 -1.25252 1.62792 0
M  V30 5055 H 486.567 -3.73202 1.01279 0
M  V30 5056 H 488.256 -3.80024 1.42606 0
M  V30 5057 H 489.022 -3.03 3.78703 0
M  V30 5058 H 484.901 -3.69492 2.75675 0
M  V30 5059 H 488.445 -3.23869 6.17863 0
M  V30 5060 H 484.342 -3.90545 5.1395 0
M  V30 5061 H 485.11 -3.86507 7.21495 0
M  V30 5062 N 487.773 -1.03688 -1.18687 0
M  V30 5063 C 488.721 -0.618292 -2.24232 0
M  V30 5064 C 489.715 0.353045 -1.6568 0
M  V30 5065 O 490.921 0.220749 -1.78641 0
M  V30 5066 H 487.296 -0.181711 -0.729716 0
M  V30 5067 H 489.267 -1.51893 -2.56848 0
M  V30 5068 C 488.016 0.00677342 -3.47699 0
M  V30 5069 H 487.339 -0.731692 -3.93047 0
M  V30 5070 H 488.779 0.262492 -4.23187 0
M  V30 5071 C 487.238 1.25572 -3.12623 0
M  V30 5072 O 487.768 2.34691 -3.26011 0
M  V30 5073 N 485.974 1.14755 -2.66982 0
M  V30 5074 H 485.521 0.259601 -2.56289 0
M  V30 5075 H 485.479 1.98412 -2.43885 0
M  V30 5076 N 489.251 1.34841 -0.815825 0
M  V30 5077 C 490.5 1.97755 -0.396976 0
M  V30 5078 C 490.813 1.65422 1.04379 0
M  V30 5079 O 492.019 2.21771 1.5662 0
M  V30 5080 C 490.475 3.53818 -0.658869 0
M  V30 5081 C 490.083 3.95051 -2.11278 0
M  V30 5082 C 491.827 4.23397 -0.305834 0
M  V30 5083 C 489.734 5.43997 -2.31994 0
M  V30 5084 H 488.664 0.739985 -0.1447 0
M  V30 5085 H 491.315 1.53781 -1.00118 0
M  V30 5086 H 489.697 3.95997 0.0154112 0
M  V30 5087 H 490.871 3.63998 -2.82564 0
M  V30 5088 H 489.186 3.38388 -2.42657 0
M  V30 5089 H 491.783 5.32899 -0.43854 0
M  V30 5090 H 492.126 4.09508 0.748952 0
M  V30 5091 H 492.659 3.8667 -0.934403 0
M  V30 5092 H 489.398 5.62865 -3.35952 0
M  V30 5093 H 488.918 5.76589 -1.65244 0
M  V30 5094 H 490.597 6.10584 -2.14001 0
M  V30 5095 N 490.729 0.570148 1.46925 0
M  V30 5096 C 491.978 0.0487352 2.01641 0
M  V30 5097 C 492.291 -1.31433 1.44861 0
M  V30 5098 O 493.497 -1.92638 1.91318 0
M  V30 5099 C 491.953 0.0365817 3.59881 0
M  V30 5100 C 491.561 1.39719 4.25655 0
M  V30 5101 C 493.305 -0.431545 4.22301 0
M  V30 5102 C 491.212 1.34345 5.75939 0
M  V30 5103 H 490.142 0.0144492 0.753862 0
M  V30 5104 H 492.793 0.719928 1.68788 0
M  V30 5105 H 491.175 -0.700522 3.89755 0
M  V30 5106 H 492.349 2.15303 4.07408 0
M  V30 5107 H 490.664 1.80431 3.75278 0
M  V30 5108 H 493.261 -0.490354 5.32447 0
M  V30 5109 H 493.604 -1.44638 3.90366 0
M  V30 5110 H 494.137 0.251102 3.97007 0
M  V30 5111 H 490.876 2.33469 6.12513 0
M  V30 5112 H 490.396 0.629615 5.96486 0
M  V30 5113 H 492.075 1.051 6.38407 0
M  V30 5114 N 492.207 -1.54576 0.307264 0
M  V30 5115 C 493.432 -2.05139 -0.305379 0
M  V30 5116 C 493.857 -1.18278 -1.46259 0
M  V30 5117 O 493.215 -0.188243 -1.8032 0
M  V30 5118 C 493.263 -3.53066 -0.733283 0
M  V30 5119 O 492.367 -3.69206 -1.83741 0
M  V30 5120 H 491.708 -0.661444 -0.0582105 0
M  V30 5121 H 494.238 -1.99569 0.450931 0
M  V30 5122 H 494.248 -3.95034 -1.02039 0
M  V30 5123 H 492.923 -4.15746 0.113198 0
M  V30 5124 H 491.5 -3.39143 -1.55037 0
M  V30 5125 N 493.685 -0.035106 -1.57561 0
M  V30 5126 C 494.913 0.652258 -1.9635 0
M  V30 5127 C 495.328 1.65317 -0.911897 0
M  V30 5128 O 494.685 1.82194 0.105657 0
M  V30 5129 C 494.736 1.35337 -3.35211 0
M  V30 5130 O 494.457 0.392548 -4.36338 0
M  V30 5131 C 495.958 2.13199 -3.88666 0
M  V30 5132 H 493.178 0.179444 -0.646561 0
M  V30 5133 H 495.722 -0.0966459 -2.04271 0
M  V30 5134 H 493.877 2.05362 -3.28489 0
M  V30 5135 H 494.291 0.891097 -5.16875 0
M  V30 5136 H 495.765 2.577 -4.88154 0
M  V30 5137 H 496.242 2.97353 -3.23231 0
M  V30 5138 H 496.848 1.48118 -3.98674 0
M  V30 5139 N 495.163 1.55791 0.238111 0
M  V30 5140 C 496.409 1.79211 0.962035 0
M  V30 5141 C 496.764 0.605463 1.82625 0
M  V30 5142 O 496.057 -0.40104 1.87356 0
M  V30 5143 C 496.251 3.05869 1.84875 0
M  V30 5144 C 496.08 4.36739 1.07186 0
M  V30 5145 C 494.85 4.99346 0.773424 0
M  V30 5146 C 497.048 5.1237 0.445168 0
M  V30 5147 N 495.03 6.13894 -0.0266037 0
M  V30 5148 C 496.401 6.19613 -0.219023 0
M  V30 5149 C 498.456 4.96622 0.356522 0
M  V30 5150 C 497.159 7.1282 -0.963358 0
M  V30 5151 C 499.185 5.90214 -0.374304 0
M  V30 5152 C 498.547 6.96872 -1.0271 0
M  V30 5153 H 494.646 0.707627 0.332849 0
M  V30 5154 H 497.23 1.93284 0.234368 0
M  V30 5155 H 495.401 2.93108 2.54837 0
M  V30 5156 H 497.133 3.17547 2.5089 0
M  V30 5157 H 493.888 4.60948 1.08738 0
M  V30 5158 H 494.312 6.75727 -0.414968 0
M  V30 5159 H 498.954 4.14232 0.846878 0
M  V30 5160 H 496.672 7.94704 -1.46529 0
M  V30 5161 H 500.258 5.80106 -0.443678 0
M  V30 5162 H 499.138 7.68045 -1.58358 0
M  V30 5163 N 496.642 -0.504142 1.49319 0
M  V30 5164 C 498.053 -1.08572 1.51885 0
M  V30 5165 C 498.404 -1.93842 0.303255 0
M  V30 5166 O 497.529 -2.0828 -0.58724 0
M  V30 5167 C 498.124 -1.97574 2.75227 0
M  V30 5168 C 496.683 -2.509 2.80581 0
M  V30 5169 C 495.83 -1.28447 2.45757 0
M  V30 5170 H 498.781 -0.288194 1.56061 0
M  V30 5171 H 498.802 -2.82219 2.55211 0
M  V30 5172 H 498.314 -1.35486 3.63683 0
M  V30 5173 H 496.415 -3.16636 1.96398 0
M  V30 5174 H 496.528 -2.88268 3.82673 0
M  V30 5175 H 494.892 -1.60868 1.97468 0
M  V30 5176 H 495.675 -0.68072 3.36483 0
M  V30 5177 N 498.12 -1.38341 -0.754957 0
M  V30 5178 C 499.07 -1.31964 -1.85929 0
M  V30 5179 C 500.054 -0.204181 -1.59599 0
M  V30 5180 O 501.246 -0.440036 -1.71443 0
M  V30 5181 C 498.375 -1.14565 -3.2362 0
M  V30 5182 C 497.461 -2.30727 -3.55846 0
M  V30 5183 N 497.852 -3.56165 -3.59138 0
M  V30 5184 C 496.15 -2.23249 -3.86104 0
M  V30 5185 C 496.851 -4.32865 -3.88591 0
M  V30 5186 N 495.827 -3.62203 -4.05351 0
M  V30 5187 H 499.629 -2.2694 -1.8675 0
M  V30 5188 H 497.143 -1.31553 -0.952243 0
M  V30 5189 H 499.14 -1.0808 -4.02647 0
M  V30 5190 H 497.8 -0.205212 -3.24051 0
M  V30 5191 H 498.811 -3.89854 -3.40932 0
M  V30 5192 H 495.488 -1.37357 -3.94258 0
M  V30 5193 H 496.878 -5.41504 -3.97773 0
M  V30 5194 N 499.598 0.982988 -1.23187 0
M  V30 5195 C 500.845 1.72392 -1.06241 0
M  V30 5196 C 501.173 1.9032 0.40108 0
M  V30 5197 O 500.428 1.45084 1.31336 0
M  V30 5198 C 500.727 3.12736 -1.73006 0
M  V30 5199 C 500.393 3.14695 -3.22921 0
M  V30 5200 C 499.055 3.14937 -3.63824 0
M  V30 5201 C 501.407 3.10211 -4.1883 0
M  V30 5202 C 498.735 3.08408 -4.99101 0
M  V30 5203 C 501.087 3.05224 -5.54095 0
M  V30 5204 C 499.751 3.03787 -5.94365 0
M  V30 5205 H 499.021 0.630829 -0.388762 0
M  V30 5206 H 501.668 1.15053 -1.53085 0
M  V30 5207 H 499.973 3.73446 -1.18514 0
M  V30 5208 H 501.67 3.68828 -1.57374 0
M  V30 5209 H 498.26 3.15262 -2.90358 0
M  V30 5210 H 502.444 3.09166 -3.8824 0
M  V30 5211 H 497.7 3.05646 -5.29519 0
M  V30 5212 H 501.874 3.00712 -6.28128 0
M  V30 5213 H 499.501 2.98483 -6.99151 0
M  V30 5214 N 501.076 1.04316 1.18135 0
M  V30 5215 C 502.023 0.636398 2.21853 0
M  V30 5216 C 502.993 -0.357039 1.62217 0
M  V30 5217 O 504.178 -0.250453 1.89149 0
M  V30 5218 C 501.318 0.00812779 3.45099 0
M  V30 5219 C 500.431 1.04933 4.19062 0
M  V30 5220 C 499.566 0.389313 5.29771 0
M  V30 5221 C 498.605 1.41544 5.9551 0
M  V30 5222 N 497.742 0.78021 6.97751 0
M  V30 5223 H 502.582 1.52536 2.56002 0
M  V30 5224 H 500.119 0.76304 1.25762 0
M  V30 5225 H 502.077 -0.373497 4.15525 0
M  V30 5226 H 500.707 -0.844336 3.11562 0
M  V30 5227 H 499.759 1.54888 3.47439 0
M  V30 5228 H 501.071 1.82862 4.64072 0
M  V30 5229 H 500.225 -0.0463805 6.06682 0
M  V30 5230 H 498.964 -0.422038 4.8587 0
M  V30 5231 H 497.969 1.86124 5.17337 0
M  V30 5232 H 499.194 2.22854 6.41493 0
M  V30 5233 H 497.14 -0.0107899 6.55999 0
M  V30 5234 H 497.057 1.49716 7.41027 0
M  V30 5235 H 498.325 0.368996 7.78626 0
M  V30 5236 N 502.554 -1.34406 0.822964 0
M  V30 5237 C 503.504 -2.26963 0.217208 0
M  V30 5238 C 504.488 -1.48536 -0.618545 0
M  V30 5239 O 505.68 -1.7056 -0.473118 0
M  V30 5240 C 502.809 -3.37655 -0.619973 0
M  V30 5241 C 501.895 -4.23495 0.226411 0
M  V30 5242 N 502.286 -4.88876 1.29744 0
M  V30 5243 C 500.584 -4.45999 0.0107554 0
M  V30 5244 C 501.285 -5.52642 1.81553 0
M  V30 5245 N 500.261 -5.31949 1.11942 0
M  V30 5246 H 504.063 -2.75017 1.03647 0
M  V30 5247 H 501.577 -1.48126 0.665777 0
M  V30 5248 H 503.574 -4.02932 -1.07011 0
M  V30 5249 H 502.234 -2.91151 -1.43739 0
M  V30 5250 H 503.245 -4.89886 1.68024 0
M  V30 5251 H 499.922 -4.10253 -0.774495 0
M  V30 5252 H 501.312 -6.14755 2.71156 0
M  V30 5253 O 504.071 -0.718724 -1.44626 0
M  V30 5254 H 504.762 -0.264938 -1.9188 0
M  V30 END ATOM
M  V30 BEGIN BOND
M  V30 END BOND
M  V30 END CTAB
M  END
$$$$
