drugbank_target|Q96L12 Calreticulin-3 (DB11093; DB11348; DB14481)
 OpenBabel12092121053D

  0  0  0     0  0            999 V3000
M  V30 BEGIN CTAB
M  V30 COUNTS 6240 6322 0 0 0
M  V30 BEGIN ATOM
M  V30 1 H -0.908 1.98254 -0.117106 0
M  V30 2 N 0 1.576 0 0
M  V30 3 C 0.933 2.03868 1.02534 0
M  V30 4 C 1.911 0.928543 1.3348 0
M  V30 5 O 3.095 1.19667 1.45644 0
M  V30 6 C 0.222 2.43627 2.35294 0
M  V30 7 C -0.732 3.65373 2.2001 0
M  V30 8 S 0.101 5.13292 1.52614 0
M  V30 9 C 1.257 5.56322 2.86805 0
M  V30 10 H 1.49 2.90518 0.631377 0
M  V30 11 H -0.977 1.52953 0.210867 0
M  V30 12 H 0.981 2.67203 3.11629 0
M  V30 13 H -0.358 1.57376 2.7183 0
M  V30 14 H -1.165 3.90944 3.18086 0
M  V30 15 H -1.563 3.418 1.51819 0
M  V30 16 H 0.729 5.58782 3.83104 0
M  V30 17 H 1.672 6.56266 2.65933 0
M  V30 18 H 2.08 4.83886 2.90714 0
M  V30 19 N 1.4781 -0.272755 1.55222 0
M  V30 20 C 2.4411 -1.32041 1.87344 0
M  V30 21 C 3.4411 -1.42342 0.74803 0
M  V30 22 O 4.6311 -1.41488 1.0162 0
M  V30 23 C 1.7631 -2.70173 2.07893 0
M  V30 24 H 2.9561 -1.04789 2.80997 0
M  V30 25 H 0.5091 -0.51083 1.47717 0
M  V30 26 H 1.2441 -3.02605 1.16622 0
M  V30 27 H 1.0291 -2.64082 2.89833 0
M  V30 28 H 2.5191 -3.45869 2.34017 0
M  V30 29 N 2.9562 -1.48159 -0.537278 0
M  V30 30 C 4.3722 -1.34118 -0.865129 0
M  V30 31 C 4.5722 -0.346678 -1.98495 0
M  V30 32 O 3.6282 0.234715 -2.51407 0
M  V30 33 C 4.9412 -2.73963 -1.23954 0
M  V30 34 C 6.4892 -2.82397 -1.34984 0
M  V30 35 C 6.9642 -4.22928 -1.75772 0
M  V30 36 N 8.4552 -4.25566 -1.82887 0
M  V30 37 C 9.1902 -5.31235 -2.15817 0
M  V30 38 N 8.6862 -6.47189 -2.47222 0
M  V30 39 N 10.4792 -5.18624 -2.16761 0
M  V30 40 H 2.6302 -2.1144 0.201715 0
M  V30 41 H 4.8932 -0.947598 0.0275949 0
M  V30 42 H 4.5992 -3.48264 -0.490381 0
M  V30 43 H 4.4732 -3.0702 -2.19132 0
M  V30 44 H 6.8602 -2.08356 -2.08978 0
M  V30 45 H 6.9412 -2.5297 -0.379448 0
M  V30 46 H 6.5852 -4.97482 -1.02341 0
M  V30 47 H 6.5152 -4.49794 -2.73848 0
M  V30 48 H 9.0062 -3.41924 -1.60924 0
M  V30 49 H 9.3192 -7.23564 -2.71433 0
M  V30 50 H 7.6642 -6.50476 -2.44757 0
M  V30 51 H 10.8552 -4.27056 -1.91679 0
M  V30 52 H 11.0282 -6.01078 -2.42093 0
M  V30 53 N 4.4343 0.785586 -1.36625 0
M  V30 54 C 5.3973 1.87999 -1.31107 0
M  V30 55 C 6.3973 1.59316 -0.217959 0
M  V30 56 O 7.5873 1.67656 -0.472977 0
M  V30 57 C 4.7193 3.24861 -1.03334 0
M  V30 58 H 5.9123 1.94307 -2.2844 0
M  V30 59 H 3.4653 0.983813 -1.21453 0
M  V30 60 H 4.2003 3.24235 -0.0647432 0
M  V30 61 H 3.9853 3.4707 -1.82441 0
M  V30 62 H 5.4753 4.04929 -1.02088 0
M  V30 63 N 5.9124 1.20967 1.01018 0
M  V30 64 C 6.8424 0.988272 2.11555 0
M  V30 65 C 7.8234 -0.0849778 1.69888 0
M  V30 66 O 9.0084 0.0738202 1.9406 0
M  V30 67 C 6.1384 0.546528 3.42973 0
M  V30 68 C 5.0924 1.56375 3.9841 0
M  V30 69 C 4.4184 0.97842 5.25672 0
M  V30 70 C 5.7184 2.94922 4.31066 0
M  V30 71 H 7.4124 1.91276 2.30334 0
M  V30 72 H 4.9584 0.921073 1.1069 0
M  V30 73 H 6.9114 0.378839 4.19694 0
M  V30 74 H 5.6354 -0.413598 3.23971 0
M  V30 75 H 4.2944 1.71891 3.23804 0
M  V30 76 H 3.9424 0.0101688 5.02999 0
M  V30 77 H 3.6424 1.65784 5.63728 0
M  V30 78 H 5.1664 0.821939 6.05043 0
M  V30 79 H 6.5804 2.8288 4.9865 0
M  V30 80 H 4.9774 3.5983 4.80253 0
M  V30 81 H 6.0474 3.4616 3.39561 0
M  V30 82 N 7.3905 -1.2043 1.01659 0
M  V30 83 C 8.6365 -1.90079 0.706963 0
M  V30 84 C 8.9695 -1.78648 -0.761474 0
M  V30 85 O 8.2445 -1.17069 -1.55323 0
M  V30 86 C 8.5275 -3.41469 1.14327 0
M  V30 87 C 8.3805 -3.61833 2.67201 0
M  V30 88 C 9.6995 -4.34261 0.714529 0
M  V30 89 H 6.8185 -0.690254 0.2583 0
M  V30 90 H 9.4605 -1.41826 1.26433 0
M  V30 91 H 7.6105 -3.82696 0.669056 0
M  V30 92 H 9.2825 -3.2986 3.22475 0
M  V30 93 H 7.5255 -3.05304 3.08175 0
M  V30 94 H 8.1965 -4.67955 2.92783 0
M  V30 95 H 10.6725 -4.00682 1.12221 0
M  V30 96 H 9.5485 -5.38806 1.04784 0
M  V30 97 H 9.8095 -4.40431 -0.383799 0
M  V30 98 N 8.8686 -0.792821 -1.36206 0
M  V30 99 C 9.8006 -0.151469 -2.28699 0
M  V30 100 C 10.8136 0.641262 -1.49638 0
M  V30 101 O 12.0026 0.475885 -1.72039 0
M  V30 102 C 9.1026 0.808424 -3.29117 0
M  V30 103 C 8.2756 0.0650202 -4.37352 0
M  V30 104 C 7.3346 0.941358 -5.17711 0
M  V30 105 O 6.3606 0.397352 -5.67811 0
M  V30 106 N 7.5626 2.2652 -5.3448 0
M  V30 107 H 10.3276 -0.945982 -2.84379 0
M  V30 108 H 7.8886 -0.647032 -1.48409 0
M  V30 109 H 9.8806 1.3986 -3.79765 0
M  V30 110 H 8.4506 1.5038 -2.74052 0
M  V30 111 H 7.6706 -0.706255 -3.87822 0
M  V30 112 H 8.9586 -0.447847 -5.06825 0
M  V30 113 H 8.3566 2.73128 -4.95396 0
M  V30 114 H 6.9136 2.80493 -5.88359 0
M  V30 115 N 10.3467 1.47872 -0.545128 0
M  V30 116 C 11.2767 2.32661 0.197793 0
M  V30 117 C 12.2577 1.43041 0.920504 0
M  V30 118 O 13.4427 1.71912 0.90333 0
M  V30 119 C 10.5727 3.24569 1.23582 0
M  V30 120 C 9.5267 4.23333 0.630323 0
M  V30 121 C 8.8527 5.0448 1.77211 0
M  V30 122 C 10.1527 5.20704 -0.407974 0
M  V30 123 H 11.8467 2.95024 -0.510045 0
M  V30 124 H 9.3927 1.4187 -0.246731 0
M  V30 125 H 11.3457 3.8272 1.76362 0
M  V30 126 H 10.0697 2.60236 1.97344 0
M  V30 127 H 8.7287 3.6639 0.123922 0
M  V30 128 H 8.3767 4.36561 2.49847 0
M  V30 129 H 8.0767 5.71339 1.37281 0
M  V30 130 H 9.6007 5.65487 2.3034 0
M  V30 131 H 11.0147 5.7329 0.033305 0
M  V30 132 H 9.4117 5.95699 -0.725486 0
M  V30 133 H 10.4817 4.66917 -1.30828 0
M  V30 134 N 11.8248 0.280983 1.55075 0
M  V30 135 C 13.0708 -0.327573 2.00745 0
M  V30 136 C 13.4258 -1.53045 1.16598 0
M  V30 137 O 12.7188 -1.90221 0.229451 0
M  V30 138 C 12.9128 -0.754656 3.49342 0
M  V30 139 C 12.7418 0.40529 4.4787 0
M  V30 140 C 11.5118 0.890947 4.97383 0
M  V30 141 C 13.7098 1.24371 4.99035 0
M  V30 142 N 11.6918 2.01975 5.79724 0
M  V30 143 C 13.0628 2.22031 5.7888 0
M  V30 144 C 15.1178 1.27638 4.81262 0
M  V30 145 C 13.8208 3.22709 6.42846 0
M  V30 146 C 15.8468 2.27164 5.46031 0
M  V30 147 C 15.2088 3.23556 6.25692 0
M  V30 148 H 11.3078 -0.0848774 0.77738 0
M  V30 149 H 13.8918 0.406342 1.90413 0
M  V30 150 H 12.0628 -1.45778 3.60005 0
M  V30 151 H 13.7948 -1.34105 3.81835 0
M  V30 152 H 10.5498 0.469262 4.71269 0
M  V30 153 H 10.9738 2.58794 6.25584 0
M  V30 154 H 15.6158 0.544936 4.19274 0
M  V30 155 H 13.3338 3.96784 7.0398 0
M  V30 156 H 16.9198 2.30441 5.34217 0
M  V30 157 H 15.7998 3.99309 6.74924 0
M  V30 158 N 13.3029 -1.57598 0.00835791 0
M  V30 159 C 14.2659 -2.07884 -0.965242 0
M  V30 160 C 15.2659 -0.989825 -1.26725 0
M  V30 161 O 16.4559 -1.25218 -1.21104 0
M  V30 162 C 13.5879 -2.52731 -2.28779 0
M  V30 163 H 14.7809 -2.95178 -0.530112 0
M  V30 164 H 12.3339 -1.54458 -0.239283 0
M  V30 165 H 13.0689 -1.68705 -2.76964 0
M  V30 166 H 12.8539 -3.32272 -2.08177 0
M  V30 167 H 14.3439 -2.91933 -2.98605 0
M  V30 168 N 14.781 0.264519 -1.55364 0
M  V30 169 C 16.03 0.992812 -1.75574 0
M  V30 170 C 16.343 1.87142 -0.568979 0
M  V30 171 O 17.549 2.63513 -0.653682 0
M  V30 172 C 16.005 1.81519 -3.10771 0
M  V30 173 C 15.613 0.984839 -4.37041 0
M  V30 174 C 17.357 2.53727 -3.40327 0
M  V30 175 C 15.264 1.80209 -5.63275 0
M  V30 176 H 14.194 0.374412 -0.65447 0
M  V30 177 H 16.845 0.248138 -1.81815 0
M  V30 178 H 15.227 2.60115 -2.98591 0
M  V30 179 H 16.401 0.242455 -4.60162 0
M  V30 180 H 14.716 0.37691 -4.14691 0
M  V30 181 H 17.313 3.15292 -4.3185 0
M  V30 182 H 17.656 3.24447 -2.60845 0
M  V30 183 H 18.189 1.82156 -3.53644 0
M  V30 184 H 14.928 1.13896 -6.45529 0
M  V30 185 H 14.448 2.52022 -5.44284 0
M  V30 186 H 16.127 2.37364 -6.01887 0
M  V30 187 N 16.2591 1.48442 0.529413 0
M  V30 188 C 17.4991 1.58086 1.29569 0
M  V30 189 C 17.8631 0.249302 1.90375 0
M  V30 190 O 19.0641 0.220738 2.67892 0
M  V30 191 C 17.3351 2.68793 2.35552 0
M  V30 192 S 18.8941 2.98207 3.21898 0
M  V30 193 H 15.7121 0.557922 0.440732 0
M  V30 194 H 18.3141 1.85966 0.603059 0
M  V30 195 H 17.0181 3.64102 1.89363 0
M  V30 196 H 16.5491 2.42817 3.09522 0
M  V30 197 H 18.5641 2.37548 4.35644 0
M  V30 198 N 17.7372 -0.778329 1.37039 0
M  V30 199 C 18.6702 -1.8984 1.26633 0
M  V30 200 C 19.6482 -1.61923 0.148197 0
M  V30 201 O 20.8322 -1.85742 0.321265 0
M  V30 202 C 17.9592 -3.24916 0.956403 0
M  V30 203 C 17.0052 -3.71752 2.09051 0
M  V30 204 S 17.8382 -3.86201 3.70957 0
M  V30 205 C 18.9942 -5.24135 3.42101 0
M  V30 206 H 19.2272 -1.98377 2.21436 0
M  V30 207 H 16.7602 -0.938738 1.22585 0
M  V30 208 H 18.7182 -4.02936 0.784409 0
M  V30 209 H 17.3792 -3.14089 0.0259713 0
M  V30 210 H 16.5722 -4.69661 1.8285 0
M  V30 211 H 16.1742 -3.00815 2.2223 0
M  V30 212 H 18.4662 -6.09086 2.96682 0
M  V30 213 H 19.4092 -5.55346 4.39314 0
M  V30 214 H 19.8172 -4.91761 2.77185 0
M  V30 215 N 19.2153 -1.21501 -1.00376 0
M  V30 216 C 20.1453 -0.999478 -2.11028 0
M  V30 217 C 21.1263 0.0759671 -1.6993 0
M  V30 218 O 22.3113 -0.0841106 -1.94018 0
M  V30 219 C 19.4413 -0.564709 -3.42678 0
M  V30 220 C 18.3953 -1.58486 -3.97576 0
M  V30 221 C 17.7213 -1.00628 -5.25146 0
M  V30 222 C 19.0213 -2.97204 -4.29496 0
M  V30 223 H 20.7153 -1.92495 -2.29317 0
M  V30 224 H 18.2613 -0.92693 -1.102 0
M  V30 225 H 20.2143 -0.401091 -4.19487 0
M  V30 226 H 18.9383 0.396411 -3.24185 0
M  V30 227 H 17.5973 -1.73606 -3.22888 0
M  V30 228 H 17.2453 -0.0368439 -5.02987 0
M  V30 229 H 16.9453 -1.68771 -5.62841 0
M  V30 230 H 18.4693 -0.854015 -6.04598 0
M  V30 231 H 19.8833 -2.8552 -4.97143 0
M  V30 232 H 18.2803 -3.62372 -4.78338 0
M  V30 233 H 19.3503 -3.47956 -3.3772 0
M  V30 234 N 20.6934 1.19889 -1.02296 0
M  V30 235 C 22.1094 1.41462 -0.738954 0
M  V30 236 C 22.3094 1.89721 0.678846 0
M  V30 237 O 21.3654 2.07016 1.4457 0
M  V30 238 C 22.6784 2.43083 -1.77005 0
M  V30 239 C 24.2264 2.5684 -1.78892 0
M  V30 240 C 24.7014 3.61709 -2.80945 0
M  V30 241 N 26.1924 3.69199 -2.79725 0
M  V30 242 C 26.9274 4.50019 -3.55345 0
M  V30 243 N 26.4234 5.34592 -4.40662 0
M  V30 244 N 28.2164 4.44612 -3.43914 0
M  V30 245 H 20.3674 0.868827 -1.93817 0
M  V30 246 H 22.6304 0.44399 -0.837602 0
M  V30 247 H 22.3364 2.14636 -2.78612 0
M  V30 248 H 22.2104 3.4217 -1.58744 0
M  V30 249 H 24.5974 2.84614 -0.779674 0
M  V30 250 H 24.6784 1.57927 -2.01228 0
M  V30 251 H 24.3224 3.34678 -3.82038 0
M  V30 252 H 24.2524 4.60259 -2.5587 0
M  V30 253 H 26.7434 3.08794 -2.17842 0
M  V30 254 H 27.0564 5.93363 -4.95116 0
M  V30 255 H 25.4014 5.34073 -4.44737 0
M  V30 256 H 28.5924 3.7758 -2.76679 0
M  V30 257 H 28.7654 5.0736 -4.031 0
M  V30 258 N 22.1715 0.800033 1.35784 0
M  V30 259 C 23.4175 0.377901 1.99248 0
M  V30 260 C 23.7505 -1.05052 1.63333 0
M  V30 261 O 23.0255 -1.72768 0.893385 0
M  V30 262 C 23.3085 0.553922 3.55814 0
M  V30 263 C 23.1615 2.0268 4.01548 0
M  V30 264 C 24.4805 -0.0244802 4.40093 0
M  V30 265 H 21.5995 0.138782 0.723815 0
M  V30 266 H 24.2415 1.00835 1.61035 0
M  V30 267 H 22.3915 0.0172398 3.88496 0
M  V30 268 H 24.0635 2.62536 3.79305 0
M  V30 269 H 22.3065 2.5256 3.52698 0
M  V30 270 H 22.9775 2.10087 5.10458 0
M  V30 271 H 25.4535 0.433775 4.13833 0
M  V30 272 H 24.3295 0.128637 5.48749 0
M  V30 273 H 24.5905 -1.11758 4.27741 0
M  V30 274 N 23.6496 -1.47581 0.552962 0
M  V30 275 C 24.6126 -2.28439 -0.186605 0
M  V30 276 C 25.6126 -1.36706 -0.84665 0
M  V30 277 O 26.8026 -1.59378 -0.703164 0
M  V30 278 C 23.9346 -3.16264 -1.2724 0
M  V30 279 H 25.1276 -2.95294 0.523609 0
M  V30 280 H 22.6806 -1.532 0.309745 0
M  V30 281 H 23.4156 -2.54091 -2.01514 0
M  V30 282 H 23.2006 -3.83769 -0.803968 0
M  V30 283 H 24.6906 -3.77198 -1.79196 0
M  V30 284 N 25.1277 -0.289203 -1.54924 0
M  V30 285 C 26.0577 0.58549 -2.2604 0
M  V30 286 C 27.0387 1.14753 -1.25562 0
M  V30 287 O 28.2237 1.17906 -1.54311 0
M  V30 288 C 25.3537 1.76305 -2.99222 0
M  V30 289 C 24.3077 1.33191 -4.06748 0
M  V30 290 C 23.6337 2.5937 -4.6758 0
M  V30 291 C 24.9337 0.471775 -5.20165 0
M  V30 292 H 26.6277 -0.00763532 -2.99399 0
M  V30 293 H 24.1737 -0.00511229 -1.43999 0
M  V30 294 H 26.1267 2.38097 -3.47689 0
M  V30 295 H 24.8507 2.38223 -2.23422 0
M  V30 296 H 23.5097 0.737121 -3.59113 0
M  V30 297 H 23.1577 3.19576 -3.88433 0
M  V30 298 H 22.8577 2.31228 -5.40192 0
M  V30 299 H 24.3817 3.21985 -5.18804 0
M  V30 300 H 25.7957 0.995056 -5.64599 0
M  V30 301 H 24.1927 0.284639 -5.99425 0
M  V30 302 H 25.2627 -0.506041 -4.82252 0
M  V30 303 N 26.6058 1.57591 -0.0167156 0
M  V30 304 C 27.5688 2.08393 0.954204 0
M  V30 305 C 28.5688 0.996531 1.26198 0
M  V30 306 O 29.7588 1.25858 1.20438 0
M  V30 307 C 26.8908 2.5394 2.27436 0
M  V30 308 H 28.0838 2.95455 0.514451 0
M  V30 309 H 25.6368 1.54582 0.231089 0
M  V30 310 H 26.3718 1.70171 2.76066 0
M  V30 311 H 26.1568 3.33371 2.06412 0
M  V30 312 H 27.6468 2.93512 2.97053 0
M  V30 313 N 28.0839 -0.256276 1.55502 0
M  V30 314 C 29.3119 -1.00342 1.8094 0
M  V30 315 C 29.7269 -1.79307 0.59114 0
M  V30 316 O 29.0839 -1.77114 -0.440081 0
M  V30 317 C 29.1349 -1.94875 3.04476 0
M  V30 318 O 28.8559 -1.19107 4.21598 0
M  V30 319 C 30.3569 -2.81266 3.42644 0
M  V30 320 H 27.5769 -0.295685 0.602338 0
M  V30 321 H 30.1209 -0.281998 2.02546 0
M  V30 322 H 28.2759 -2.62457 2.84947 0
M  V30 323 H 28.6899 -1.82969 4.91551 0
M  V30 324 H 30.1639 -3.43362 4.32211 0
M  V30 325 H 30.6409 -3.51897 2.62802 0
M  V30 326 H 31.2469 -2.1915 3.64491 0
M  V30 327 N 29.562 -1.4872 -0.521534 0
M  V30 328 C 30.808 -1.574 -1.27879 0
M  V30 329 C 31.141 -0.250817 -1.92573 0
M  V30 330 O 30.416 0.743934 -1.79711 0
M  V30 331 C 30.699 -2.71843 -2.36164 0
M  V30 332 C 30.552 -4.13893 -1.76105 0
M  V30 333 C 31.871 -2.82008 -3.37875 0
M  V30 334 H 28.99 -0.572941 -0.463581 0
M  V30 335 H 31.632 -1.80927 -0.580119 0
M  V30 336 H 29.782 -2.51914 -2.95756 0
M  V30 337 H 31.454 -4.45284 -1.20499 0
M  V30 338 H 29.697 -4.20498 -1.06601 0
M  V30 339 H 30.368 -4.89804 -2.5455 0
M  V30 340 H 32.844 -3.00086 -2.88249 0
M  V30 341 H 31.72 -3.63796 -4.11028 0
M  V30 342 H 31.981 -1.90511 -3.98946 0
M  V30 343 N 31.0401 0.771051 -1.3745 0
M  V30 344 C 32.2701 1.55789 -1.35696 0
M  V30 345 C 32.6781 1.89107 0.0594523 0
M  V30 346 O 32.0211 1.51984 1.03183 0
M  V30 347 C 32.0831 2.89515 -2.13123 0
M  V30 348 C 31.7471 2.78829 -3.62082 0
M  V30 349 C 32.7441 2.49812 -4.5595 0
M  V30 350 C 30.4291 2.9683 -4.05213 0
M  V30 351 C 32.4231 2.38923 -5.90927 0
M  V30 352 C 30.1101 2.85562 -5.40276 0
M  V30 353 C 31.1081 2.56649 -6.32946 0
M  V30 354 O 30.7961 2.45408 -7.65526 0
M  V30 355 H 30.5281 0.489257 -0.466481 0
M  V30 356 H 33.0821 0.963446 -1.81403 0
M  V30 357 H 31.3121 3.51081 -1.62107 0
M  V30 358 H 33.0011 3.50915 -2.03994 0
M  V30 359 H 33.7671 2.3559 -4.23937 0
M  V30 360 H 29.6461 3.18335 -3.33442 0
M  V30 361 H 33.1901 2.16277 -6.63227 0
M  V30 362 H 29.0871 2.99351 -5.71891 0
M  V30 363 H 29.8551 2.60753 -7.75855 0
M  V30 364 N 32.5182 1.22032 0.997298 0
M  V30 365 C 33.7652 1.04222 1.73621 0
M  V30 366 C 34.0932 -0.423264 1.89839 0
M  V30 367 O 33.3482 -1.3302 1.43542 0
M  V30 368 C 33.6472 1.69345 3.14733 0
M  V30 369 C 33.3132 3.19226 3.18442 0
M  V30 370 C 31.9752 3.60124 3.19161 0
M  V30 371 C 34.3272 4.15181 3.15078 0
M  V30 372 C 31.6552 4.95467 3.14212 0
M  V30 373 C 34.0072 5.50495 3.1167 0
M  V30 374 C 32.6712 5.90779 3.10703 0
M  V30 375 H 31.9412 0.381374 0.635323 0
M  V30 376 H 34.5882 1.51732 1.16831 0
M  V30 377 H 32.8932 1.14147 3.74803 0
M  V30 378 H 34.5902 1.53059 3.7064 0
M  V30 379 H 31.1802 2.86659 3.18629 0
M  V30 380 H 35.3642 3.84605 3.13676 0
M  V30 381 H 30.6202 5.25916 3.11805 0
M  V30 382 H 34.7942 6.24576 3.08022 0
M  V30 383 H 32.4212 6.9562 3.06622 0
M  V30 384 N 33.9963 -1.19345 1.0293 0
M  V30 385 C 34.9283 -2.22036 0.56857 0
M  V30 386 C 35.9413 -1.58865 -0.355779 0
M  V30 387 O 37.1303 -1.77851 -0.152103 0
M  V30 388 C 34.2303 -3.38363 -0.190752 0
M  V30 389 C 33.4033 -4.31118 0.738643 0
M  V30 390 C 32.4623 -5.26194 0.0246497 0
M  V30 391 O 31.4883 -5.65461 0.651354 0
M  V30 392 N 32.6903 -5.66971 -1.24594 0
M  V30 393 H 35.4553 -2.6219 1.45177 0
M  V30 394 H 33.0163 -1.34015 0.908381 0
M  V30 395 H 35.0083 -3.98981 -0.677961 0
M  V30 396 H 33.5783 -2.96994 -0.975366 0
M  V30 397 H 32.7983 -3.68276 1.40593 0
M  V30 398 H 34.0863 -4.90001 1.37029 0
M  V30 399 H 33.4843 -5.37104 -1.77583 0
M  V30 400 H 32.0413 -6.2984 -1.67764 0
M  V30 401 N 35.4744 -0.807222 -1.35358 0
M  V30 402 C 36.3844 -0.219594 -2.3357 0
M  V30 403 C 37.4004 0.637734 -1.61892 0
M  V30 404 O 38.5764 0.549336 -1.93763 0
M  V30 405 C 35.6414 0.62158 -3.41083 0
M  V30 406 C 34.7024 -0.256315 -4.28534 0
M  V30 407 C 33.9354 0.544807 -5.30912 0
M  V30 408 O 34.1584 1.77944 -5.41934 0
M  V30 409 O 33.0924 -0.0646478 -6.01865 0
M  V30 410 H 36.9184 -1.03208 -2.85625 0
M  V30 411 H 34.5034 -0.569025 -1.38139 0
M  V30 412 H 36.3854 1.10067 -4.06772 0
M  V30 413 H 35.0604 1.41165 -2.91297 0
M  V30 414 H 33.9674 -0.782559 -3.65823 0
M  V30 415 H 35.3004 -1.01034 -4.81719 0
M  V30 416 N 36.9525 1.47285 -0.560781 0
M  V30 417 C 37.8625 2.33846 0.187954 0
M  V30 418 C 38.8785 1.48412 0.908293 0
M  V30 419 O 40.0545 1.81332 0.876388 0
M  V30 420 C 37.1195 3.25178 1.2025 0
M  V30 421 C 36.1805 4.26504 0.489208 0
M  V30 422 C 35.4135 5.13472 1.45542 0
M  V30 423 O 35.6365 5.02959 2.6905 0
M  V30 424 O 34.5705 5.93902 0.977963 0
M  V30 425 H 38.3965 2.99177 -0.522177 0
M  V30 426 H 35.9815 1.45903 -0.321364 0
M  V30 427 H 37.8635 3.81584 1.78805 0
M  V30 428 H 36.5385 2.6247 1.89449 0
M  V30 429 H 35.4455 3.73847 -0.137627 0
M  V30 430 H 36.7785 4.91935 -0.161399 0
M  V30 431 N 38.4306 0.297415 1.54768 0
M  V30 432 C 39.6776 -0.312913 2.00068 0
M  V30 433 C 40.0056 -1.54171 1.18582 0
M  V30 434 O 39.2606 -1.94108 0.249133 0
M  V30 435 C 39.5596 -0.717561 3.50123 0
M  V30 436 C 39.2256 0.409095 4.4904 0
M  V30 437 C 37.8876 0.718399 4.75807 0
M  V30 438 C 40.2396 1.16717 5.07963 0
M  V30 439 C 37.5676 1.78896 5.5876 0
M  V30 440 C 39.9196 2.22762 5.92081 0
M  V30 441 C 38.5836 2.54303 6.1716 0
M  V30 442 H 37.8536 -0.114503 0.7321 0
M  V30 443 H 40.5006 0.415767 1.86932 0
M  V30 444 H 38.8056 -1.52627 3.60849 0
M  V30 445 H 40.5026 -1.20091 3.82595 0
M  V30 446 H 37.0926 0.157918 4.28309 0
M  V30 447 H 41.2766 0.941466 4.87289 0
M  V30 448 H 36.5326 2.0381 5.7643 0
M  V30 449 H 40.7066 2.81962 6.36765 0
M  V30 450 H 38.3336 3.3739 6.81229 0
M  V30 451 N 39.9087 -1.5758 0.0250728 0
M  V30 452 C 40.8387 -2.13007 -0.956575 0
M  V30 453 C 41.8197 -1.0452 -1.342 0
M  V30 454 O 43.0047 -1.32332 -1.42133 0
M  V30 455 C 40.1347 -2.65386 -2.24026 0
M  V30 456 C 39.0887 -3.78623 -1.99571 0
M  V30 457 C 38.4147 -4.17414 -3.3417 0
M  V30 458 C 39.7147 -5.04867 -1.33814 0
M  V30 459 H 41.4087 -2.9528 -0.494991 0
M  V30 460 H 38.9547 -1.42042 -0.236651 0
M  V30 461 H 40.9077 -3.02794 -2.93076 0
M  V30 462 H 39.6317 -1.80268 -2.72343 0
M  V30 463 H 38.2907 -3.41646 -1.32941 0
M  V30 464 H 37.9387 -3.29284 -3.80238 0
M  V30 465 H 37.6387 -4.93719 -3.18615 0
M  V30 466 H 39.1627 -4.57402 -4.04495 0
M  V30 467 H 40.5767 -5.39888 -1.92857 0
M  V30 468 H 38.9737 -5.86144 -1.28669 0
M  V30 469 H 40.0437 -4.83904 -0.310561 0
M  V30 470 N 41.3868 0.248026 -1.55636 0
M  V30 471 C 42.6638 0.998988 -1.68165 0
M  V30 472 C 43.0438 2.03409 -0.564621 0
M  V30 473 O 42.3918 2.24378 0.432076 0
M  V30 474 C 42.6018 1.63334 -3.0842 0
M  V30 475 C 43.9498 2.13562 -3.66983 0
M  V30 476 O 44.9738 1.73277 -3.11213 0
M  V30 477 O 43.8328 2.87526 -4.64749 0
M  V30 478 H 40.9268 0.464933 -0.683935 0
M  V30 479 H 43.4728 0.241902 -1.67967 0
M  V30 480 H 42.2448 0.884583 -3.8117 0
M  V30 481 H 41.8678 2.45666 -3.12624 0
M  V30 482 N 42.8649 1.48995 0.513639 0
M  V30 483 C 44.1129 1.57531 1.26604 0
M  V30 484 C 44.4339 0.258236 1.93283 0
M  V30 485 O 43.7039 -0.721502 1.8213 0
M  V30 486 H 42.2839 0.580387 0.470276 0
M  V30 487 H 44.9459 1.85552 0.596373 0
M  V30 488 H 44.0419 2.36486 2.03669 0
M  V30 489 N 44.343 -0.763751 1.37857 0
M  V30 490 C 45.253 -1.90817 1.36478 0
M  V30 491 C 46.269 -1.71997 0.263248 0
M  V30 492 O 47.445 -1.95095 0.499979 0
M  V30 493 C 44.51 -3.2605 1.17864 0
M  V30 494 C 43.571 -3.57467 2.3773 0
M  V30 495 C 42.804 -4.86249 2.19995 0
M  V30 496 O 43.027 -5.57884 1.18836 0
M  V30 497 O 41.961 -5.16911 3.08361 0
M  V30 498 H 45.787 -1.94933 2.32884 0
M  V30 499 H 43.372 -0.907619 1.1867 0
M  V30 500 H 45.254 -4.06924 1.09504 0
M  V30 501 H 43.929 -3.22769 0.245372 0
M  V30 502 H 42.836 -2.76796 2.51664 0
M  V30 503 H 44.169 -3.655 3.29652 0
M  V30 504 N 45.8211 -1.22559 -0.990812 0
M  V30 505 C 46.7711 -0.964807 -2.0658 0
M  V30 506 C 47.7551 0.0853472 -1.60673 0
M  V30 507 O 48.9471 -0.125443 -1.76555 0
M  V30 508 C 46.0761 -0.546707 -3.38919 0
M  V30 509 C 45.1621 -1.6317 -3.91454 0
M  V30 510 N 45.5531 -2.85985 -4.17189 0
M  V30 511 C 43.8511 -1.50387 -4.19881 0
M  V30 512 C 44.5521 -3.56159 -4.59919 0
M  V30 513 N 43.5281 -2.83637 -4.63736 0
M  V30 514 H 47.3301 -1.89769 -2.24421 0
M  V30 515 H 44.8441 -1.12343 -1.17273 0
M  V30 516 H 46.8411 -0.34119 -4.15502 0
M  V30 517 H 45.5011 0.379254 -3.22478 0
M  V30 518 H 46.5121 -3.22392 -4.05319 0
M  V30 519 H 43.1891 -0.644254 -4.12499 0
M  V30 520 H 44.5791 -4.6139 -4.88435 0
M  V30 521 N 47.2992 1.18797 -1.03562 0
M  V30 522 C 48.5452 1.89192 -0.746867 0
M  V30 523 C 48.9002 1.78531 0.717245 0
M  V30 524 O 48.1932 1.17137 1.51622 0
M  V30 525 C 48.3872 3.38692 -1.14117 0
M  V30 526 C 48.2162 3.63902 -2.64207 0
M  V30 527 C 46.9862 3.81553 -3.31279 0
M  V30 528 C 49.1842 3.64903 -3.62423 0
M  V30 529 N 47.1662 3.94455 -4.70402 0
M  V30 530 C 48.5372 3.83458 -4.87196 0
M  V30 531 C 50.5922 3.47965 -3.56125 0
M  V30 532 C 49.2952 3.86829 -6.06429 0
M  V30 533 C 51.3212 3.52616 -4.7478 0
M  V30 534 C 50.6832 3.71663 -5.9837 0
M  V30 535 H 46.7822 0.711141 -0.325273 0
M  V30 536 H 49.3662 1.42727 -1.32428 0
M  V30 537 H 47.5372 3.83864 -0.591889 0
M  V30 538 H 49.2692 3.96634 -0.803966 0
M  V30 539 H 46.0242 3.80723 -2.81686 0
M  V30 540 H 46.4482 4.0474 -5.42692 0
M  V30 541 H 51.0902 3.32189 -2.61553 0
M  V30 542 H 48.8082 4.01395 -7.01362 0
M  V30 543 H 52.3942 3.40791 -4.71543 0
M  V30 544 H 51.2742 3.75145 -6.88648 0
M  V30 545 N 48.7773 0.814389 1.34928 0
M  V30 546 C 50.1933 0.499084 1.51596 0
M  V30 547 C 50.3933 -0.978319 1.76157 0
M  V30 548 O 49.4493 -1.76309 1.80752 0
M  V30 549 C 50.7623 1.35121 2.68631 0
M  V30 550 C 52.3103 1.34746 2.82511 0
M  V30 551 C 52.7853 2.18388 4.0258 0
M  V30 552 N 54.2763 2.15966 4.09772 0
M  V30 553 C 55.0113 2.77437 5.01813 0
M  V30 554 N 54.5073 3.47866 5.99134 0
M  V30 555 N 56.3003 2.67037 4.94619 0
M  V30 556 H 48.4513 1.7711 1.17243 0
M  V30 557 H 50.7143 0.754256 0.574284 0
M  V30 558 H 50.4203 2.40001 2.57085 0
M  V30 559 H 50.2943 1.00991 3.63429 0
M  V30 560 H 52.6813 0.30648 2.93504 0
M  V30 561 H 52.7623 1.72869 1.88547 0
M  V30 562 H 52.4063 3.2253 3.92347 0
M  V30 563 H 52.3363 1.77621 4.9574 0
M  V30 564 H 54.8273 1.64729 3.40107 0
M  V30 565 H 55.1403 3.92038 6.65977 0
M  V30 566 H 53.4853 3.51972 5.99284 0
M  V30 567 H 56.6763 2.11597 4.17546 0
M  V30 568 H 56.8493 3.15232 5.66156 0
M  V30 569 N 50.2554 -1.46986 0.568584 0
M  V30 570 C 51.2034 -2.31858 -0.185649 0
M  V30 571 C 52.1974 -1.43624 -0.898249 0
M  V30 572 O 53.4034 -1.60327 -0.818242 0
M  V30 573 H 49.7784 -0.747866 -0.0787399 0
M  V30 574 H 51.7494 -2.93303 0.549191 0
M  V30 575 C 50.4984 -3.26513 -1.19519 0
M  V30 576 H 49.8214 -3.94377 -0.656285 0
M  V30 577 H 51.2614 -3.88707 -1.6936 0
M  V30 578 C 49.7204 -2.50847 -2.24894 0
M  V30 579 O 50.2504 -2.26119 -3.32014 0
M  V30 580 N 48.4564 -2.11656 -1.99124 0
M  V30 581 H 48.0034 -2.31966 -1.12024 0
M  V30 582 H 47.9614 -1.61347 -2.69842 0
M  V30 583 N 51.7335 -0.305618 -1.54608 0
M  V30 584 C 53.1495 0.0476228 -1.59529 0
M  V30 585 C 53.3495 1.52025 -1.32252 0
M  V30 586 O 52.4055 2.27368 -1.09818 0
M  V30 587 C 53.7185 -0.354471 -2.98603 0
M  V30 588 C 55.2665 -0.303622 -3.11524 0
M  V30 589 C 55.7415 -0.680608 -4.52915 0
M  V30 590 N 57.2325 -0.63332 -4.5885 0
M  V30 591 C 57.9675 -0.897432 -5.66334 0
M  V30 592 N 57.4635 -1.22775 -6.81834 0
M  V30 593 N 59.2565 -0.824186 -5.56025 0
M  V30 594 H 51.4075 -1.2653 -1.70599 0
M  V30 595 H 53.6705 -0.513291 -0.797017 0
M  V30 596 H 53.3765 -1.3798 -3.23503 0
M  V30 597 H 53.2505 0.289568 -3.76087 0
M  V30 598 H 55.6375 0.712472 -2.8637 0
M  V30 599 H 55.7185 -0.982348 -2.36185 0
M  V30 600 H 55.3625 -1.69453 -4.78799 0
M  V30 601 H 55.2925 0.0202385 -5.26596 0
M  V30 602 H 57.7835 -0.389138 -3.75891 0
M  V30 603 H 58.0965 -1.41513 -7.59733 0
M  V30 604 H 56.4415 -1.26583 -6.83375 0
M  V30 605 H 59.6325 -0.565748 -4.64669 0
M  V30 606 H 59.8055 -1.03338 -6.39707 0
M  V30 607 N 53.2116 1.57565 -0.0334293 0
M  V30 608 C 54.4576 1.93088 0.639417 0
M  V30 609 C 54.8126 0.910589 1.69488 0
M  V30 610 O 54.1056 -0.0727725 1.91462 0
M  V30 611 C 54.2996 3.33112 1.29504 0
M  V30 612 C 54.1286 4.48667 0.304604 0
M  V30 613 C 52.8986 5.05207 -0.0970777 0
M  V30 614 C 55.0966 5.1239 -0.442845 0
M  V30 615 N 53.0786 6.04286 -1.08223 0
M  V30 616 C 54.4496 6.06609 -1.28161 0
M  V30 617 C 56.5046 4.95352 -0.50308 0
M  V30 618 C 55.2076 6.85622 -2.17519 0
M  V30 619 C 57.2336 5.74978 -1.38401 0
M  V30 620 C 56.5956 6.68816 -2.21054 0
M  V30 621 H 52.6946 0.754335 0.206161 0
M  V30 622 H 55.2786 1.94435 -0.101613 0
M  V30 623 H 53.4496 3.32576 2.00618 0
M  V30 624 H 55.1816 3.55972 1.92525 0
M  V30 625 H 51.9366 4.72782 0.278255 0
M  V30 626 H 52.3606 6.58516 -1.57117 0
M  V30 627 H 57.0026 4.22625 0.121694 0
M  V30 628 H 54.7206 7.57652 -2.81049 0
M  V30 629 H 58.3066 5.63826 -1.43496 0
M  V30 630 H 57.1866 7.29355 -2.88116 0
M  V30 631 N 54.6897 -0.239769 1.55765 0
M  V30 632 C 55.6197 -1.30052 1.9393 0
M  V30 633 C 56.6007 -1.49839 0.805132 0
M  V30 634 O 57.7857 -1.62328 1.06599 0
M  V30 635 C 54.9157 -2.65391 2.2402 0
M  V30 636 C 53.8697 -2.60289 3.39755 0
M  V30 637 C 53.1957 -3.99489 3.55405 0
M  V30 638 C 54.4957 -2.16654 4.75246 0
M  V30 639 H 56.1897 -0.983573 2.82783 0
M  V30 640 H 53.7357 -0.471701 1.36055 0
M  V30 641 H 55.6887 -3.3974 2.49308 0
M  V30 642 H 54.4127 -2.98736 1.32 0
M  V30 643 H 53.0717 -1.88398 3.14487 0
M  V30 644 H 52.7197 -4.30112 2.60793 0
M  V30 645 H 52.4197 -3.96962 4.33238 0
M  V30 646 H 53.9437 -4.75528 3.83022 0
M  V30 647 H 55.3577 -2.80737 4.99859 0
M  V30 648 H 53.7547 -2.25223 5.56232 0
M  V30 649 H 54.8247 -1.11835 4.71827 0
M  V30 650 N 56.1678 -1.49265 -0.50573 0
M  V30 651 C 57.0998 -1.617 -1.62437 0
M  V30 652 C 58.1128 -0.499924 -1.54934 0
M  V30 653 O 59.3018 -0.771785 -1.60953 0
M  V30 654 C 56.4018 -1.5533 -3.01207 0
M  V30 655 C 55.5748 -2.8249 -3.33943 0
M  V30 656 C 54.6338 -2.69238 -4.52103 0
M  V30 657 O 53.6598 -3.43167 -4.5412 0
M  V30 658 N 54.8618 -1.80468 -5.51735 0
M  V30 659 H 57.6268 -2.58177 -1.52199 0
M  V30 660 H 55.1878 -1.46294 -0.693511 0
M  V30 661 H 57.1798 -1.44125 -3.78167 0
M  V30 662 H 55.7498 -0.667297 -3.05395 0
M  V30 663 H 54.9698 -3.08081 -2.45926 0
M  V30 664 H 56.2578 -3.66802 -3.5261 0
M  V30 665 H 55.6558 -1.19653 -5.52901 0
M  V30 666 H 54.2128 -1.75188 -6.27816 0
M  V30 667 N 57.6459 0.756429 -1.3826 0
M  V30 668 C 58.8709 1.55077 -1.37717 0
M  V30 669 C 59.2959 1.88073 0.03164 0
M  V30 670 O 58.6539 1.50364 1.01293 0
M  V30 671 C 58.7019 2.8283 -2.23695 0
M  V30 672 O 57.8059 3.77862 -1.6521 0
M  V30 673 H 57.1469 0.469152 -0.469885 0
M  V30 674 H 59.6769 0.935019 -1.81985 0
M  V30 675 H 59.6869 3.31783 -2.37453 0
M  V30 676 H 58.3619 2.58144 -3.2609 0
M  V30 677 H 56.9389 3.36555 -1.60578 0
M  V30 678 N 59.124 1.23083 0.984299 0
M  V30 679 C 60.352 1.08714 1.76037 0
M  V30 680 C 60.767 -0.361691 1.85303 0
M  V30 681 O 60.124 -1.25034 1.32939 0
M  V30 682 C 60.175 1.70206 3.18923 0
M  V30 683 O 59.896 3.09423 3.10144 0
M  V30 684 C 61.397 1.61227 4.12941 0
M  V30 685 H 58.617 0.380664 0.552572 0
M  V30 686 H 61.161 1.62853 1.23689 0
M  V30 687 H 59.316 1.20109 3.6831 0
M  V30 688 H 59.73 3.39188 4.00065 0
M  V30 689 H 61.204 2.08962 5.10919 0
M  V30 690 H 61.681 0.570375 4.35481 0
M  V30 691 H 62.287 2.10671 3.69456 0
M  V30 692 N 60.6021 -1.18246 1.0419 0
M  V30 693 C 61.5501 -2.23968 0.627792 0
M  V30 694 C 62.5441 -1.65828 -0.346019 0
M  V30 695 O 63.7501 -1.78733 -0.213175 0
M  V30 696 H 60.1251 -0.728939 0.184802 0
M  V30 697 H 62.0961 -2.56202 1.52981 0
M  V30 698 C 60.8451 -3.47699 0.00796591 0
M  V30 699 H 60.1681 -3.92734 0.748347 0
M  V30 700 H 61.6081 -4.23294 -0.24455 0
M  V30 701 C 60.0671 -3.13153 -1.24246 0
M  V30 702 O 60.5971 -3.27003 -2.33307 0
M  V30 703 N 58.8031 -2.67467 -1.13622 0
M  V30 704 H 58.3501 -2.56396 -0.248734 0
M  V30 705 H 58.3081 -2.44724 -1.97377 0
M  V30 706 N 62.0802 -0.821533 -1.34494 0
M  V30 707 C 63.3572 -0.33159 -1.92769 0
M  V30 708 C 63.7372 1.18088 -1.74981 0
M  V30 709 O 63.0852 1.98733 -1.12772 0
M  V30 710 C 63.2952 -0.759398 -3.40638 0
M  V30 711 C 64.6432 -0.757433 -4.1779 0
M  V30 712 O 65.6672 -0.70189 -3.49216 0
M  V30 713 O 64.5262 -0.829361 -5.4017 0
M  V30 714 H 61.6202 -0.0902502 -0.822061 0
M  V30 715 H 64.1662 -0.906231 -1.43477 0
M  V30 716 H 62.9382 -1.8012 -3.47379 0
M  V30 717 H 62.5612 -0.160378 -3.97276 0
M  V30 718 N 63.5583 1.46682 -0.576371 0
M  V30 719 C 64.7833 2.07304 -0.0630475 0
M  V30 720 C 65.2083 1.42329 1.2298 0
M  V30 721 O 64.5663 0.504865 1.74129 0
M  V30 722 C 64.6143 3.60472 0.095895 0
M  V30 723 O 63.7183 3.95927 1.15394 0
M  V30 724 H 63.0593 0.661288 -0.0599463 0
M  V30 725 H 65.5893 1.88417 -0.797511 0
M  V30 726 H 65.5993 4.06865 0.304071 0
M  V30 727 H 64.2743 4.07157 -0.84828 0
M  V30 728 H 62.8513 3.61252 0.924724 0
M  V30 729 N 65.0364 0.313813 1.54444 0
M  V30 730 C 66.4524 -0.0391619 1.59552 0
M  V30 731 C 66.6524 -1.51322 1.33056 0
M  V30 732 O 65.7084 -2.26782 1.11022 0
M  V30 733 C 67.0214 0.370302 2.98411 0
M  V30 734 C 68.5694 0.320139 3.11358 0
M  V30 735 C 69.0444 0.704617 4.52547 0
M  V30 736 N 70.5354 0.657645 4.58508 0
M  V30 737 C 71.2704 0.927453 5.6585 0
M  V30 738 N 70.7664 1.26389 6.81174 0
M  V30 739 N 72.5594 0.853662 5.5558 0
M  V30 740 H 64.7104 1.27433 1.69925 0
M  V30 741 H 66.9734 0.517511 0.794284 0
M  V30 742 H 66.6794 1.39694 3.22767 0
M  V30 743 H 66.5534 -0.269619 3.76235 0
M  V30 744 H 68.9404 -0.697275 2.86744 0
M  V30 745 H 69.0214 0.99486 2.35661 0
M  V30 746 H 68.6654 1.7199 4.77893 0
M  V30 747 H 68.5954 0.00768843 5.26599 0
M  V30 748 H 71.0864 0.409067 3.75679 0
M  V30 749 H 71.3994 1.4554 7.58972 0
M  V30 750 H 69.7444 1.30206 6.82694 0
M  V30 751 H 72.9354 0.590383 4.64362 0
M  V30 752 H 73.1084 1.0673 6.3915 0
M  V30 753 N 66.5145 -1.57545 0.0417849 0
M  V30 754 C 67.7615 -1.92317 -0.634082 0
M  V30 755 C 68.0895 -0.919334 -1.71402 0
M  V30 756 O 67.3445 0.0698253 -1.95575 0
M  V30 757 C 67.6435 -3.33794 -1.27735 0
M  V30 758 C 67.3095 -4.49716 -0.326543 0
M  V30 759 C 65.9715 -4.81156 -0.0648814 0
M  V30 760 C 68.3235 -5.20182 0.325623 0
M  V30 761 C 65.6515 -5.80414 0.856539 0
M  V30 762 C 68.0035 -6.20424 1.23518 0
M  V30 763 C 66.6675 -6.50298 1.5056 0
M  V30 764 H 65.9375 -0.703736 -0.232027 0
M  V30 765 H 68.5845 -1.91205 0.106259 0
M  V30 766 H 66.8895 -3.31228 -2.09274 0
M  V30 767 H 68.5865 -3.57975 -1.80707 0
M  V30 768 H 65.1765 -4.25176 -0.540665 0
M  V30 769 H 69.3605 -4.96112 0.136546 0
M  V30 770 H 64.6165 -6.019 1.07363 0
M  V30 771 H 68.7905 -6.74141 1.74664 0
M  V30 772 H 66.4175 -7.27025 2.22123 0
M  V30 773 N 67.9926 0.231505 -1.5589 0
M  V30 774 C 69.2406 0.955461 -1.78088 0
M  V30 775 C 69.5616 1.85262 -0.608533 0
M  V30 776 O 68.8316 1.92277 0.375035 0
M  V30 777 H 67.4116 0.355787 -0.656829 0
M  V30 778 H 70.0736 0.245751 -1.93344 0
M  V30 779 H 69.1696 1.56814 -2.69844 0
M  V30 780 N 69.4707 1.49531 0.497807 0
M  V30 781 C 70.4207 1.62829 1.59596 0
M  V30 782 C 71.4047 0.483824 1.53453 0
M  V30 783 O 72.5967 0.736937 1.60929 0
M  V30 784 C 69.7257 1.7011 2.98191 0
M  V30 785 C 68.8117 2.90144 3.09317 0
M  V30 786 N 69.2027 4.1418 2.90324 0
M  V30 787 C 67.5007 2.88148 3.40422 0
M  V30 788 C 68.2017 4.94886 3.05717 0
M  V30 789 N 67.1777 4.28314 3.34736 0
M  V30 790 H 70.9797 2.56446 1.4357 0
M  V30 791 H 68.4937 1.46347 0.704001 0
M  V30 792 H 70.4907 1.77735 3.77115 0
M  V30 793 H 69.1507 0.776315 3.15283 0
M  V30 794 H 70.1617 4.44109 2.66436 0
M  V30 795 H 66.8387 2.05061 3.63671 0
M  V30 796 H 68.2287 6.03432 2.95499 0
M  V30 797 N 70.9488 -0.749086 1.3866 0
M  V30 798 C 72.1958 -1.50833 1.35114 0
M  V30 799 C 72.5238 -1.94415 -0.0574049 0
M  V30 800 O 71.7788 -1.66065 -1.03541 0
M  V30 801 C 72.0778 -2.7712 2.25697 0
M  V30 802 C 71.7438 -2.52477 3.73585 0
M  V30 803 C 70.4058 -2.45466 4.13884 0
M  V30 804 C 72.7578 -2.31066 4.67181 0
M  V30 805 C 70.0858 -2.15064 5.45861 0
M  V30 806 C 72.4378 -2.02183 5.9942 0
M  V30 807 C 71.1018 -1.93631 6.38798 0
M  V30 808 H 70.3718 -0.551936 0.494416 0
M  V30 809 H 73.0188 -0.860979 1.71054 0
M  V30 810 H 71.3238 -3.46528 1.82827 0
M  V30 811 H 73.0208 -3.35096 2.20254 0
M  V30 812 H 69.6108 -2.58807 3.41638 0
M  V30 813 H 73.7948 -2.35459 4.3689 0
M  V30 814 H 69.0508 -2.06954 5.75308 0
M  V30 815 H 73.2248 -1.8462 6.71482 0
M  V30 816 H 70.8518 -1.69839 7.40985 0
M  V30 817 N 72.4269 -1.23603 -0.977757 0
M  V30 818 C 73.8429 -0.999251 -1.24447 0
M  V30 819 C 74.0429 0.298053 -1.99283 0
M  V30 820 O 73.0989 1.01681 -2.31122 0
M  V30 821 C 74.4119 -2.20784 -2.04144 0
M  V30 822 C 75.9599 -2.25303 -2.17273 0
M  V30 823 C 76.4349 -3.45755 -3.00362 0
M  V30 824 N 77.9259 -3.4601 -3.07947 0
M  V30 825 C 78.6609 -4.35868 -3.72568 0
M  V30 826 N 78.1569 -5.35966 -4.38991 0
M  V30 827 N 79.9499 -4.23605 -3.6948 0
M  V30 828 H 72.1009 -2.06986 -0.476483 0
M  V30 829 H 74.3639 -0.907801 -0.273134 0
M  V30 830 H 74.0699 -3.14945 -1.56533 0
M  V30 831 H 73.9439 -2.22085 -3.04891 0
M  V30 832 H 76.3309 -1.3168 -2.64092 0
M  V30 833 H 76.4119 -2.28033 -1.15907 0
M  V30 834 H 76.0559 -4.39687 -2.5424 0
M  V30 835 H 75.9859 -3.40266 -4.01904 0
M  V30 836 H 78.4769 -2.73588 -2.60688 0
M  V30 837 H 78.7899 -6.00783 -4.86086 0
M  V30 838 H 77.1349 -5.39863 -4.37691 0
M  V30 839 H 80.3259 -3.44647 -3.16759 0
M  V30 840 H 80.4989 -4.93836 -4.1956 0
M  V30 841 N 73.905 1.17692 -1.04816 0
M  V30 842 C 74.835 2.23777 -0.666791 0
M  V30 843 C 75.816 1.66796 0.33361 0
M  V30 844 O 77.001 1.93039 0.212042 0
M  V30 845 C 74.131 3.47281 -0.0367933 0
M  V30 846 C 73.085 4.17059 -0.961546 0
M  V30 847 C 72.411 5.34342 -0.195626 0
M  V30 848 C 73.711 4.69713 -2.28402 0
M  V30 849 H 75.405 2.55933 -1.55367 0
M  V30 850 H 72.951 1.23019 -0.748484 0
M  V30 851 H 74.904 4.20706 0.241775 0
M  V30 852 H 73.628 3.14381 0.885004 0
M  V30 853 H 72.287 3.45541 -1.22462 0
M  V30 854 H 71.935 4.97692 0.728816 0
M  V30 855 H 71.635 5.81966 -0.811775 0
M  V30 856 H 73.159 6.10553 0.0757473 0
M  V30 857 H 74.573 5.34794 -2.06563 0
M  V30 858 H 72.97 5.279 -2.8538 0
M  V30 859 H 74.04 3.86726 -2.92525 0
M  V30 860 N 75.3831 0.828654 1.34056 0
M  V30 861 C 76.6081 0.431637 2.02859 0
M  V30 862 C 77.0331 -0.956339 1.61975 0
M  V30 863 O 76.3911 -1.62338 0.807228 0
M  V30 864 C 76.4391 0.548323 3.56407 0
M  V30 865 O 75.5431 -0.429556 4.10157 0
M  V30 866 H 74.8841 0.176886 0.640006 0
M  V30 867 H 77.4141 1.12066 1.71179 0
M  V30 868 H 77.4241 0.426196 4.05768 0
M  V30 869 H 76.0991 1.5606 3.8551 0
M  V30 870 H 74.6761 -0.265836 3.71951 0
M  V30 871 N 76.8612 -1.46375 0.584142 0
M  V30 872 C 78.0862 -2.07268 0.0740405 0
M  V30 873 C 78.5112 -1.42979 -1.22223 0
M  V30 874 O 77.8692 -0.514092 -1.73859 0
M  V30 875 C 77.9172 -3.60518 -0.0767769 0
M  V30 876 O 77.0212 -3.96533 -1.13292 0
M  V30 877 H 76.3622 -0.660961 0.0634524 0
M  V30 878 H 78.8922 -1.87991 0.807492 0
M  V30 879 H 78.9022 -4.07021 -0.282489 0
M  V30 880 H 77.5772 -4.06702 0.86986 0
M  V30 881 H 76.1542 -3.61738 -0.905553 0
M  V30 882 N 78.3393 -0.321999 -1.54275 0
M  V30 883 C 79.5873 0.280489 -2.00144 0
M  V30 884 C 79.9083 1.52777 -1.21178 0
M  V30 885 O 79.1783 1.9338 -0.313187 0
M  V30 886 H 77.7583 0.106632 -0.73935 0
M  V30 887 H 80.4203 -0.438184 -1.8991 0
M  V30 888 H 79.5163 0.537972 -3.07428 0
M  V30 889 N 79.8174 1.5752 -0.0501392 0
M  V30 890 C 80.7644 2.1147 0.924603 0
M  V30 891 C 81.7344 1.02182 1.30951 0
M  V30 892 O 82.9194 1.29723 1.39916 0
M  V30 893 C 80.0594 2.66337 2.19451 0
M  V30 894 C 79.1724 3.89708 1.86418 0
M  V30 895 C 78.3074 4.32893 3.07859 0
M  V30 896 C 77.3464 5.48967 2.70742 0
M  V30 897 N 76.4834 5.87211 3.84874 0
M  V30 898 H 81.3234 2.94465 0.457639 0
M  V30 899 H 78.8604 1.45531 0.214266 0
M  V30 900 H 80.8184 2.96247 2.93758 0
M  V30 901 H 79.4484 1.86141 2.63726 0
M  V30 902 H 78.5004 3.66396 1.02264 0
M  V30 903 H 79.8124 4.74074 1.55096 0
M  V30 904 H 78.9664 4.6435 3.90466 0
M  V30 905 H 77.7054 3.47336 3.42358 0
M  V30 906 H 76.7104 5.17183 1.86551 0
M  V30 907 H 77.9354 6.3624 2.37436 0
M  V30 908 H 75.8814 5.04607 4.19175 0
M  V30 909 H 75.7984 6.66266 3.57247 0
M  V30 910 H 77.0664 6.23282 4.68123 0
M  V30 911 N 81.2955 -0.223234 1.56011 0
M  V30 912 C 82.5425 -0.947875 1.78946 0
M  V30 913 C 82.8705 -1.844 0.618608 0
M  V30 914 O 82.1255 -1.91629 -0.397093 0
M  V30 915 C 82.4245 -1.81948 3.0762 0
M  V30 916 C 82.0905 -1.07672 4.37856 0
M  V30 917 C 80.7525 -0.871544 4.73242 0
M  V30 918 C 83.1045 -0.552081 5.18268 0
M  V30 919 C 80.4325 -0.129791 5.86556 0
M  V30 920 C 82.7845 0.17632 6.32354 0
M  V30 921 C 81.4485 0.39277 6.66343 0
M  V30 922 H 80.7185 -0.346852 0.654809 0
M  V30 923 H 83.3655 -0.216171 1.90276 0
M  V30 924 H 81.6705 -2.61899 2.91404 0
M  V30 925 H 83.3675 -2.38227 3.22566 0
M  V30 926 H 79.9575 -1.24662 4.1007 0
M  V30 927 H 84.1415 -0.698076 4.91366 0
M  V30 928 H 79.3975 0.048153 6.11381 0
M  V30 929 H 83.5715 0.590367 6.93893 0
M  V30 930 H 81.1985 0.969466 7.53993 0
M  V30 931 N 82.7736 -1.49793 -0.48987 0
M  V30 932 C 84.0036 -1.6333 -1.26518 0
M  V30 933 C 84.4116 -0.308392 -1.8667 0
M  V30 934 O 83.7546 0.717512 -1.69108 0
M  V30 935 C 83.8166 -2.6522 -2.4269 0
M  V30 936 C 83.4806 -4.09279 -2.03321 0
M  V30 937 C 84.4776 -4.95738 -1.56652 0
M  V30 938 C 82.1626 -4.55082 -2.12616 0
M  V30 939 C 84.1566 -6.26041 -1.19795 0
M  V30 940 C 81.8436 -5.85396 -1.75371 0
M  V30 941 C 82.8416 -6.707 -1.29036 0
M  V30 942 O 82.5296 -7.98584 -0.92299 0
M  V30 943 H 82.2616 -0.552502 -0.389509 0
M  V30 944 H 84.8156 -1.96642 -0.593381 0
M  V30 945 H 83.0456 -2.27112 -3.12981 0
M  V30 946 H 84.7346 -2.68171 -3.04695 0
M  V30 947 H 85.5006 -4.61575 -1.48908 0
M  V30 948 H 81.3796 -3.88844 -2.47631 0
M  V30 949 H 84.9236 -6.92578 -0.835582 0
M  V30 950 H 80.8206 -6.19085 -1.82768 0
M  V30 951 H 81.5886 -8.11692 -1.05349 0
M  V30 952 N 84.2517 0.741722 -1.39055 0
M  V30 953 C 85.4997 1.49818 -1.35643 0
M  V30 954 C 85.8207 1.94938 0.0491642 0
M  V30 955 O 85.0907 1.68505 0.999141 0
M  V30 956 H 83.6707 0.555755 -0.499144 0
M  V30 957 H 86.3327 0.880957 -1.73854 0
M  V30 958 H 85.4287 2.38348 -2.01486 0
M  V30 959 N 85.7298 1.2412 0.971189 0
M  V30 960 C 86.6798 0.997551 2.05019 0
M  V30 961 C 87.6638 -0.0597747 1.60789 0
M  V30 962 O 88.8558 0.153516 1.76333 0
M  V30 963 C 85.9848 0.600557 3.38006 0
M  V30 964 C 85.0708 1.69377 3.88809 0
M  V30 965 N 85.4618 2.92586 4.12586 0
M  V30 966 C 83.7598 1.57048 4.17435 0
M  V30 967 C 84.4608 3.63431 4.54195 0
M  V30 968 N 83.4368 2.90979 4.59165 0
M  V30 969 H 87.2388 1.93316 2.21374 0
M  V30 970 H 84.7528 1.14194 1.1547 0
M  V30 971 H 86.7498 0.40725 4.14906 0
M  V30 972 H 85.4098 -0.327903 3.2304 0
M  V30 973 H 86.4208 3.288 4.00139 0
M  V30 974 H 83.0978 0.709798 4.11422 0
M  V30 975 H 84.4878 4.69102 4.81033 0
M  V30 976 N 87.2079 -1.17134 1.05439 0
M  V30 977 C 88.1549 -2.21235 0.657539 0
M  V30 978 C 89.1249 -1.62551 -0.341543 0
M  V30 979 O 90.3099 -1.89379 -0.232393 0
M  V30 980 C 87.4499 -3.45076 0.0410575 0
M  V30 981 C 86.5629 -4.18042 1.08927 0
M  V30 982 C 85.6979 -5.29376 0.439848 0
M  V30 983 C 84.7369 -5.94132 1.4722 0
M  V30 984 N 83.8739 -6.96975 0.846756 0
M  V30 985 H 88.7139 -2.54534 1.54972 0
M  V30 986 H 86.2509 -1.25028 0.775006 0
M  V30 987 H 88.2089 -4.15862 -0.33383 0
M  V30 988 H 86.8389 -3.12353 -0.814568 0
M  V30 989 H 85.8909 -3.45945 1.58196 0
M  V30 990 H 87.2029 -4.62306 1.87282 0
M  V30 991 H 86.3569 -6.06699 0.0115125 0
M  V30 992 H 85.0959 -4.86251 -0.375656 0
M  V30 993 H 84.1009 -5.15538 1.91052 0
M  V30 994 H 85.3259 -6.39337 2.28965 0
M  V30 995 H 83.2719 -6.5598 0.0518075 0
M  V30 996 H 83.1889 -7.39565 1.5678 0
M  V30 997 H 84.4569 -7.78239 0.443277 0
M  V30 998 N 88.686 -0.835752 -1.33615 0
M  V30 999 C 89.596 -0.269088 -2.33052 0
M  V30 1000 C 90.612 0.603251 -1.63208 0
M  V30 1001 O 91.788 0.508112 -1.94885 0
M  V30 1002 C 88.853 0.549091 -3.42324 0
M  V30 1003 C 87.914 -0.347156 -4.27894 0
M  V30 1004 C 87.147 0.43207 -5.31948 0
M  V30 1005 O 87.37 1.66409 -5.45586 0
M  V30 1006 O 86.304 -0.192298 -6.01593 0
M  V30 1007 H 90.13 -1.09243 -2.83372 0
M  V30 1008 H 87.715 -0.598198 -1.36901 0
M  V30 1009 H 89.597 1.01414 -4.09015 0
M  V30 1010 H 88.272 1.34955 -2.94226 0
M  V30 1011 H 87.179 -0.859979 -3.64081 0
M  V30 1012 H 88.512 -1.1123 -4.79467 0
M  V30 1013 N 90.1641 1.46063 -0.591896 0
M  V30 1014 C 91.1111 2.30399 0.136069 0
M  V30 1015 C 92.0811 1.41169 0.875238 0
M  V30 1016 O 93.2661 1.70112 0.86409 0
M  V30 1017 C 90.4061 3.25804 1.13781 0
M  V30 1018 C 89.5191 4.30134 0.401137 0
M  V30 1019 C 88.6541 5.12659 1.39121 0
M  V30 1020 C 87.6931 6.0873 0.641462 0
M  V30 1021 N 86.8301 6.8409 1.58004 0
M  V30 1022 H 91.6701 2.92118 -0.589144 0
M  V30 1023 H 89.2071 1.43959 -0.302342 0
M  V30 1024 H 91.1651 3.79569 1.73156 0
M  V30 1025 H 89.7951 2.65872 1.83062 0
M  V30 1026 H 88.8471 3.79152 -0.307826 0
M  V30 1027 H 90.1591 4.98458 -0.184565 0
M  V30 1028 H 89.3131 5.70747 2.05749 0
M  V30 1029 H 88.0521 4.44316 2.01084 0
M  V30 1030 H 87.0571 5.49786 -0.0385419 0
M  V30 1031 H 88.2821 6.79095 0.0270945 0
M  V30 1032 H 86.2281 6.18449 2.18761 0
M  V30 1033 H 86.1451 7.48709 1.04738 0
M  V30 1034 H 87.4131 7.4673 2.23639 0
M  V30 1035 N 91.6422 0.330177 1.54103 0
M  V30 1036 C 92.9192 -0.325007 1.92881 0
M  V30 1037 C 93.2992 -1.6934 1.26045 0
M  V30 1038 O 92.6472 -2.24855 0.406526 0
M  V30 1039 C 92.8572 -0.410634 3.46576 0
M  V30 1040 C 94.2052 -0.667801 4.19316 0
M  V30 1041 O 95.2292 -0.49329 3.52768 0
M  V30 1042 O 94.0882 -1.00491 5.37181 0
M  V30 1043 H 91.1822 -0.186873 0.80561 0
M  V30 1044 H 93.7282 0.380376 1.65382 0
M  V30 1045 H 92.5002 0.550164 3.87413 0
M  V30 1046 H 92.1232 -1.16333 3.802 0
M  V30 1047 N 93.1203 -1.57491 0.0584922 0
M  V30 1048 C 94.0673 -2.11958 -0.913376 0
M  V30 1049 C 95.0373 -1.02875 -1.30407 0
M  V30 1050 O 96.2223 -1.30464 -1.39226 0
M  V30 1051 C 93.3623 -2.67497 -2.18035 0
M  V30 1052 C 92.4753 -3.90691 -1.84349 0
M  V30 1053 C 91.6103 -4.3452 -3.05559 0
M  V30 1054 C 90.6493 -5.50395 -2.67827 0
M  V30 1055 N 89.7863 -5.89244 -3.81754 0
M  V30 1056 H 94.6263 -2.94704 -0.442017 0
M  V30 1057 H 92.1633 -1.45643 -0.206545 0
M  V30 1058 H 94.1213 -2.978 -2.92183 0
M  V30 1059 H 92.7513 -1.87537 -2.62735 0
M  V30 1060 H 91.8033 -3.66934 -1.00319 0
M  V30 1061 H 93.1153 -4.7489 -1.5258 0
M  V30 1062 H 92.2693 -4.66414 -3.87998 0
M  V30 1063 H 91.0083 -3.49147 -3.40511 0
M  V30 1064 H 90.0133 -5.18165 -1.83806 0
M  V30 1065 H 91.2383 -6.3749 -2.34059 0
M  V30 1066 H 89.1843 -5.06823 -4.16493 0
M  V30 1067 H 89.1013 -6.68151 -3.53708 0
M  V30 1068 H 90.3693 -6.25756 -4.64811 0
M  V30 1069 N 94.5984 0.214957 -1.56127 0
M  V30 1070 C 95.8464 0.936518 -1.79091 0
M  V30 1071 C 96.1674 1.84606 -0.628148 0
M  V30 1072 O 95.4374 1.92664 0.35462 0
M  V30 1073 H 94.0174 0.3488 -0.660566 0
M  V30 1074 H 96.6794 0.22523 -1.93594 0
M  V30 1075 H 95.7754 1.53943 -2.71492 0
M  V30 1076 N 96.0765 1.50051 0.48192 0
M  V30 1077 C 97.0065 1.71046 1.58951 0
M  V30 1078 C 97.9875 0.559288 1.60642 0
M  V30 1079 O 99.1725 0.797243 1.77081 0
M  V30 1080 C 96.3025 1.79462 2.97339 0
M  V30 1081 C 95.2565 2.94558 3.10515 0
M  V30 1082 C 94.5825 2.88105 4.50444 0
M  V30 1083 C 95.8825 4.35227 2.88747 0
M  V30 1084 H 97.5765 2.6378 1.41635 0
M  V30 1085 H 95.1225 1.26936 0.679942 0
M  V30 1086 H 97.0755 1.92734 3.74742 0
M  V30 1087 H 95.7995 0.833412 3.15788 0
M  V30 1088 H 94.4585 2.80918 2.35543 0
M  V30 1089 H 94.1065 1.89853 4.65795 0
M  V30 1090 H 93.8065 3.65366 4.60197 0
M  V30 1091 H 95.3305 3.03412 5.29881 0
M  V30 1092 H 96.7445 4.49449 3.55905 0
M  V30 1093 H 95.1415 5.13856 3.09955 0
M  V30 1094 H 96.2115 4.48347 1.84696 0
M  V30 1095 N 97.5546 -0.734337 1.39446 0
M  V30 1096 C 98.4866 -1.85861 1.34121 0
M  V30 1097 C 99.4996 -1.60871 0.249864 0
M  V30 1098 O 100.689 -1.71093 0.508865 0
M  V30 1099 C 97.7886 -3.21899 1.05991 0
M  V30 1100 C 96.9616 -3.74239 2.26415 0
M  V30 1101 C 96.0206 -4.88841 1.94733 0
M  V30 1102 O 95.0466 -5.02468 2.67422 0
M  V30 1103 N 96.2486 -5.73261 0.913884 0
M  V30 1104 H 99.0136 -1.90934 2.31007 0
M  V30 1105 H 96.5746 -0.915102 1.33557 0
M  V30 1106 H 98.5666 -3.96136 0.828147 0
M  V30 1107 H 97.1366 -3.12091 0.178361 0
M  V30 1108 H 96.3566 -2.91347 2.65539 0
M  V30 1109 H 97.6446 -4.05942 3.06738 0
M  V30 1110 H 97.0426 -5.64842 0.311476 0
M  V30 1111 H 95.5996 -6.47563 0.742015 0
M  V30 1112 N 99.0327 -1.24633 -0.964593 0
M  V30 1113 C 100.261 -1.11501 -1.74285 0
M  V30 1114 C 100.676 0.332165 -1.85855 0
M  V30 1115 O 100.033 1.22903 -1.34911 0
M  V30 1116 C 100.084 -1.75258 -3.16175 0
M  V30 1117 O 99.8047 -3.14318 -3.05182 0
M  V30 1118 C 101.306 -1.67776 -4.10324 0
M  V30 1119 H 98.5257 -0.389407 -0.546446 0
M  V30 1120 H 101.07 -1.64801 -1.21083 0
M  V30 1121 H 99.2247 -1.25954 -3.66353 0
M  V30 1122 H 99.6387 -3.4551 -3.94618 0
M  V30 1123 H 101.113 -2.17064 -5.0753 0
M  V30 1124 H 101.59 -0.639584 -4.34518 0
M  V30 1125 H 102.196 -2.16522 -3.66058 0
M  V30 1126 N 100.511 1.16574 -1.06058 0
M  V30 1127 C 101.739 1.90952 -0.796552 0
M  V30 1128 C 102.154 1.77302 0.648808 0
M  V30 1129 O 101.511 1.11605 1.44397 0
M  V30 1130 C 101.562 3.41736 -1.17894 0
M  V30 1131 O 101.283 3.54975 -2.56758 0
M  V30 1132 C 102.784 4.33169 -0.942308 0
M  V30 1133 H 100.004 0.605594 -0.288959 0
M  V30 1134 H 102.548 1.47777 -1.41358 0
M  V30 1135 H 100.703 3.82623 -0.606491 0
M  V30 1136 H 101.117 4.4846 -2.72 0
M  V30 1137 H 102.591 5.37439 -1.25952 0
M  V30 1138 H 103.068 4.3903 0.122078 0
M  V30 1139 H 103.674 3.98007 -1.49902 0
M  V30 1140 N 101.989 0.842826 1.3317 0
M  V30 1141 C 102.921 0.236245 2.27979 0
M  V30 1142 C 103.934 -0.585282 1.51915 0
M  V30 1143 O 105.123 -0.411705 1.73687 0
M  V30 1144 C 102.223 -0.685717 3.3189 0
M  V30 1145 C 101.396 0.0973448 4.37292 0
M  V30 1146 C 100.455 -0.748565 5.20848 0
M  V30 1147 O 99.4809 -0.186339 5.68895 0
M  V30 1148 N 100.683 -2.06527 5.42519 0
M  V30 1149 H 103.448 1.05088 2.80672 0
M  V30 1150 H 101.009 0.701667 1.45905 0
M  V30 1151 H 103.001 -1.25669 3.84694 0
M  V30 1152 H 101.571 -1.40105 2.79445 0
M  V30 1153 H 100.791 0.849706 3.84933 0
M  V30 1154 H 102.079 0.635643 5.04814 0
M  V30 1155 H 101.477 -2.54554 5.05192 0
M  V30 1156 H 100.034 -2.58464 5.98364 0
M  V30 1157 N 103.467 -1.45747 0.599634 0
M  V30 1158 C 104.415 -2.322 -0.136426 0
M  V30 1159 C 105.409 -1.45497 -0.867583 0
M  V30 1160 O 106.615 -1.62027 -0.78405 0
M  V30 1161 H 102.99 -0.749368 -0.0628588 0
M  V30 1162 H 104.961 -2.92072 0.611281 0
M  V30 1163 C 103.71 -3.28974 -1.12567 0
M  V30 1164 H 103.033 -3.9568 -0.572484 0
M  V30 1165 H 104.473 -3.92212 -1.61077 0
M  V30 1166 C 102.932 -2.55561 -2.19523 0
M  V30 1167 O 103.462 -2.33111 -3.27143 0
M  V30 1168 N 101.668 -2.15832 -1.94589 0
M  V30 1169 H 101.215 -2.3429 -1.07078 0
M  V30 1170 H 101.173 -1.67034 -2.66359 0
M  V30 1171 N 104.945 -0.338344 -1.53925 0
M  V30 1172 C 106.193 0.259245 -2.0043 0
M  V30 1173 C 106.514 1.51484 -1.22791 0
M  V30 1174 O 105.784 1.93037 -0.33368 0
M  V30 1175 H 104.364 0.0987845 -0.740439 0
M  V30 1176 H 107.026 -0.458302 -1.89435 0
M  V30 1177 H 106.122 0.505334 -3.07982 0
M  V30 1178 N 106.423 1.57458 -0.0668435 0
M  V30 1179 C 107.839 1.56947 0.289772 0
M  V30 1180 C 108.039 1.07584 1.70376 0
M  V30 1181 O 107.095 0.739486 2.41429 0
M  V30 1182 C 108.408 3.0052 0.103943 0
M  V30 1183 C 109.956 3.12517 0.173857 0
M  V30 1184 C 110.431 4.57997 0.0163682 0
M  V30 1185 N 111.922 4.63144 0.0721352 0
M  V30 1186 C 112.657 5.73394 -0.0253794 0
M  V30 1187 N 112.153 6.92576 -0.176133 0
M  V30 1188 N 113.946 5.62091 0.0313305 0
M  V30 1189 H 106.097 1.87863 -0.991027 0
M  V30 1190 H 108.36 0.86583 -0.38606 0
M  V30 1191 H 108.066 3.40729 -0.871572 0
M  V30 1192 H 107.94 3.67304 0.858366 0
M  V30 1193 H 110.327 2.72197 1.13985 0
M  V30 1194 H 110.408 2.48381 -0.611586 0
M  V30 1195 H 110.052 4.99005 -0.946374 0
M  V30 1196 H 109.982 5.20158 0.821153 0
M  V30 1197 H 112.473 3.77436 0.187263 0
M  V30 1198 H 112.786 7.72418 -0.242821 0
M  V30 1199 H 111.131 6.94678 -0.211429 0
M  V30 1200 H 114.322 4.67867 0.147773 0
M  V30 1201 H 114.495 6.47982 -0.048121 0
M  V30 1202 N 107.901 -0.206675 1.56239 0
M  V30 1203 C 109.148 -0.928842 1.79941 0
M  V30 1204 C 109.476 -1.83734 0.638131 0
M  V30 1205 O 108.731 -1.92039 -0.376746 0
M  V30 1206 C 109.03 -1.78675 3.09532 0
M  V30 1207 C 108.696 -1.03022 4.38973 0
M  V30 1208 C 107.358 -0.821302 4.74139 0
M  V30 1209 C 109.71 -0.497081 5.18824 0
M  V30 1210 C 107.038 -0.0675719 5.86661 0
M  V30 1211 C 109.39 0.24338 6.32132 0
M  V30 1212 C 108.054 0.463422 6.65889 0
M  V30 1213 H 107.324 -0.339887 0.658451 0
M  V30 1214 H 109.971 -0.195977 1.90495 0
M  V30 1215 H 108.276 -2.58794 2.94165 0
M  V30 1216 H 109.973 -2.34792 3.25075 0
M  V30 1217 H 106.563 -1.20306 4.11369 0
M  V30 1218 H 110.747 -0.645921 4.92079 0
M  V30 1219 H 106.003 0.112995 6.11296 0
M  V30 1220 H 110.177 0.66393 6.93228 0
M  V30 1221 H 107.804 1.04938 7.52922 0
M  V30 1222 N 109.379 -1.50304 -0.473955 0
M  V30 1223 C 110.609 -1.64663 -1.24778 0
M  V30 1224 C 111.017 -0.328174 -1.86332 0
M  V30 1225 O 110.36 0.699536 -1.69859 0
M  V30 1226 C 110.422 -2.6778 -2.39863 0
M  V30 1227 C 110.086 -4.11413 -1.98969 0
M  V30 1228 C 111.083 -4.97372 -1.51385 0
M  V30 1229 C 108.768 -4.57312 -2.07777 0
M  V30 1230 C 110.762 -6.27277 -1.13148 0
M  V30 1231 C 108.449 -5.87223 -1.69152 0
M  V30 1232 C 109.447 -6.72031 -1.21915 0
M  V30 1233 O 109.135 -7.99518 -0.838237 0
M  V30 1234 H 108.867 -0.556602 -0.383627 0
M  V30 1235 H 111.421 -1.9726 -0.572491 0
M  V30 1236 H 109.651 -2.30419 -3.10554 0
M  V30 1237 H 111.34 -2.71388 -3.01833 0
M  V30 1238 H 112.106 -4.63128 -1.44004 0
M  V30 1239 H 107.985 -3.91449 -2.43493 0
M  V30 1240 H 111.529 -6.93425 -0.762077 0
M  V30 1241 H 107.426 -6.20989 -1.76191 0
M  V30 1242 H 108.194 -8.12764 -0.967339 0
M  V30 1243 N 110.857 0.726932 -1.39834 0
M  V30 1244 C 111.82 1.82269 -1.38962 0
M  V30 1245 C 112.82 1.58248 -0.285334 0
M  V30 1246 O 114.01 1.65499 -0.54366 0
M  V30 1247 C 111.142 3.20186 -1.17019 0
M  V30 1248 H 112.335 1.84443 -2.36476 0
M  V30 1249 H 109.888 0.931416 -1.25516 0
M  V30 1250 H 110.623 3.23669 -0.202204 0
M  V30 1251 H 110.408 3.3902 -1.96998 0
M  V30 1252 H 111.898 4.00235 -1.1917 0
M  V30 1253 N 112.336 1.25143 0.95797 0
M  V30 1254 C 113.585 1.0909 1.69654 0
M  V30 1255 C 113.898 -0.368548 1.92097 0
M  V30 1256 O 115.104 -0.649455 2.63618 0
M  V30 1257 C 113.56 1.90395 3.05414 0
M  V30 1258 C 113.168 3.4081 2.90779 0
M  V30 1259 C 114.912 1.82901 3.83076 0
M  V30 1260 C 112.819 4.14423 4.21909 0
M  V30 1261 H 111.749 0.404625 0.636235 0
M  V30 1262 H 114.4 1.4931 1.06672 0
M  V30 1263 H 112.782 1.42996 3.69281 0
M  V30 1264 H 113.956 3.95859 2.35865 0
M  V30 1265 H 112.271 3.49361 2.26575 0
M  V30 1266 H 114.868 2.35196 4.80195 0
M  V30 1267 H 115.211 0.796224 4.08615 0
M  V30 1268 H 115.744 2.28033 3.25954 0
M  V30 1269 H 112.483 5.18102 4.01561 0
M  V30 1270 H 112.003 3.64159 4.76601 0
M  V30 1271 H 113.682 4.21956 4.90471 0
M  V30 1272 N 113.814 -1.1601 1.06675 0
M  V30 1273 C 115.039 -1.91068 0.806706 0
M  V30 1274 C 115.464 -1.77112 -0.633485 0
M  V30 1275 O 114.822 -1.09908 -1.44187 0
M  V30 1276 C 114.87 -3.39655 1.21106 0
M  V30 1277 O 113.974 -4.10893 0.352189 0
M  V30 1278 H 113.315 -0.595125 0.294486 0
M  V30 1279 H 115.845 -1.46955 1.42356 0
M  V30 1280 H 115.855 -3.90434 1.18428 0
M  V30 1281 H 114.53 -3.49132 2.26008 0
M  V30 1282 H 113.107 -3.70285 0.440868 0
M  V30 1283 N 115.292 -0.849877 -1.32721 0
M  V30 1284 C 116.255 -0.296122 -2.27279 0
M  V30 1285 C 117.255 0.541458 -1.5141 0
M  V30 1286 O 118.445 0.353658 -1.70572 0
M  V30 1287 C 115.577 0.581579 -3.35902 0
M  V30 1288 H 116.77 -1.13064 -2.77771 0
M  V30 1289 H 114.323 -0.62383 -1.43311 0
M  V30 1290 H 115.058 1.43809 -2.9067 0
M  V30 1291 H 114.843 -0.0178814 -3.92096 0
M  V30 1292 H 116.333 0.961951 -4.0637 0
M  V30 1293 N 116.77 1.45427 -0.607355 0
M  V30 1294 C 118.186 1.57283 -0.270985 0
M  V30 1295 C 118.386 1.59875 1.22647 0
M  V30 1296 O 117.442 1.52893 2.00948 0
M  V30 1297 C 118.755 2.85566 -0.941952 0
M  V30 1298 C 120.303 2.9924 -0.917849 0
M  V30 1299 C 120.778 4.30293 -1.56882 0
M  V30 1300 N 122.269 4.37051 -1.5343 0
M  V30 1301 C 123.004 5.37123 -2.00715 0
M  V30 1302 N 122.5 6.43734 -2.56084 0
M  V30 1303 N 124.293 5.28479 -1.91484 0
M  V30 1304 H 116.444 1.41988 -1.57966 0
M  V30 1305 H 118.707 0.67885 -0.661715 0
M  V30 1306 H 118.413 2.8955 -1.99633 0
M  V30 1307 H 118.287 3.74322 -0.465096 0
M  V30 1308 H 120.674 2.94822 0.127984 0
M  V30 1309 H 120.755 2.11895 -1.43297 0
M  V30 1310 H 120.399 4.35469 -2.61398 0
M  V30 1311 H 120.329 5.16454 -1.02873 0
M  V30 1312 H 122.82 3.60615 -1.12982 0
M  V30 1313 H 123.133 7.16341 -2.89958 0
M  V30 1314 H 121.478 6.44485 -2.60122 0
M  V30 1315 H 124.669 4.44098 -1.47967 0
M  V30 1316 H 124.842 6.0632 -2.28648 0
M  V30 1317 N 118.248 0.346503 1.53744 0
M  V30 1318 C 119.495 -0.249104 2.00962 0
M  V30 1319 C 119.823 -1.5032 1.23426 0
M  V30 1320 O 119.078 -1.93217 0.310761 0
M  V30 1321 C 119.377 -0.605809 3.52228 0
M  V30 1322 C 119.043 0.551747 4.47512 0
M  V30 1323 C 117.705 0.86941 4.73281 0
M  V30 1324 C 120.057 1.32818 5.03993 0
M  V30 1325 C 117.385 1.96582 5.52786 0
M  V30 1326 C 119.737 2.41486 5.84694 0
M  V30 1327 C 118.401 2.73808 6.08757 0
M  V30 1328 H 117.671 -0.0911538 0.735372 0
M  V30 1329 H 120.318 0.475027 1.85515 0
M  V30 1330 H 118.623 -1.4107 3.65522 0
M  V30 1331 H 120.32 -1.07858 3.86222 0
M  V30 1332 H 116.91 0.294102 4.2759 0
M  V30 1333 H 121.094 1.09602 4.84047 0
M  V30 1334 H 116.35 2.22045 5.69654 0
M  V30 1335 H 120.524 3.02078 6.27473 0
M  V30 1336 H 118.151 3.58892 6.7015 0
M  V30 1337 N 119.726 -1.57421 0.075193 0
M  V30 1338 C 120.673 -2.12915 -0.890843 0
M  V30 1339 C 121.643 -1.04252 -1.29309 0
M  V30 1340 O 122.828 -1.31933 -1.37834 0
M  V30 1341 C 119.968 -2.69795 -2.15186 0
M  V30 1342 C 119.081 -3.92624 -1.80194 0
M  V30 1343 C 118.216 -4.37736 -3.00933 0
M  V30 1344 C 117.255 -5.53205 -2.61974 0
M  V30 1345 N 116.392 -5.9326 -3.75483 0
M  V30 1346 H 121.232 -2.95156 -0.410735 0
M  V30 1347 H 118.769 -1.45854 -0.191086 0
M  V30 1348 H 120.727 -3.00883 -2.89008 0
M  V30 1349 H 119.357 -1.90313 -2.60731 0
M  V30 1350 H 118.409 -3.67977 -0.964218 0
M  V30 1351 H 119.721 -4.76482 -1.47534 0
M  V30 1352 H 118.875 -4.70503 -3.8303 0
M  V30 1353 H 117.614 -3.52739 -3.36789 0
M  V30 1354 H 116.619 -5.20086 -1.783 0
M  V30 1355 H 117.844 -6.39936 -2.27284 0
M  V30 1356 H 115.79 -5.11212 -4.11094 0
M  V30 1357 H 115.707 -6.71865 -3.46602 0
M  V30 1358 H 116.975 -6.30651 -4.58148 0
M  V30 1359 N 121.204 0.198386 -1.56346 0
M  V30 1360 C 122.615 0.763358 -1.70381 0
M  V30 1361 C 122.966 1.83995 -0.681203 0
M  V30 1362 O 122.091 2.15785 0.16305 0
M  V30 1363 C 122.686 1.39143 -3.08909 0
M  V30 1364 C 121.245 1.90352 -3.2472 0
M  V30 1365 C 120.392 0.772233 -2.6633 0
M  V30 1366 H 123.343 -0.0266377 -1.58678 0
M  V30 1367 H 123.364 2.26076 -3.06055 0
M  V30 1368 H 122.876 0.607638 -3.83314 0
M  V30 1369 H 120.977 2.71461 -2.55225 0
M  V30 1370 H 121.09 2.06757 -4.3219 0
M  V30 1371 H 119.454 1.18566 -2.2542 0
M  V30 1372 H 120.237 0.00073556 -3.433 0
M  V30 1373 N 122.682 1.50554 0.465978 0
M  V30 1374 C 123.929 1.61798 1.21768 0
M  V30 1375 C 124.257 0.320696 1.91838 0
M  V30 1376 O 123.512 -0.693724 1.82992 0
M  V30 1377 C 123.811 2.75152 2.28093 0
M  V30 1378 C 123.477 4.15454 1.75239 0
M  V30 1379 C 122.139 4.53628 1.60546 0
M  V30 1380 C 124.491 5.03121 1.36083 0
M  V30 1381 C 121.819 5.77204 1.05128 0
M  V30 1382 C 124.171 6.27249 0.821056 0
M  V30 1383 C 122.835 6.64221 0.660795 0
M  V30 1384 H 122.105 0.592063 0.445582 0
M  V30 1385 H 124.752 1.84503 0.512927 0
M  V30 1386 H 123.057 2.46556 3.04496 0
M  V30 1387 H 124.754 2.81055 2.86023 0
M  V30 1388 H 121.344 3.85341 1.87644 0
M  V30 1389 H 125.528 4.74257 1.46267 0
M  V30 1390 H 120.784 6.0452 0.91462 0
M  V30 1391 H 124.958 6.94537 0.509018 0
M  V30 1392 H 122.585 7.59854 0.229226 0
M  V30 1393 N 124.16 -0.719506 1.40217 0
M  V30 1394 C 125.385 -1.51371 1.4178 0
M  V30 1395 C 125.81 -1.88091 0.0182355 0
M  V30 1396 O 125.168 -1.52997 -0.972707 0
M  V30 1397 C 125.216 -2.768 2.31115 0
M  V30 1398 O 124.32 -3.73349 1.7517 0
M  V30 1399 H 123.661 -0.456529 0.482159 0
M  V30 1400 H 126.191 -0.88644 1.844 0
M  V30 1401 H 126.201 -3.25371 2.46167 0
M  V30 1402 H 124.876 -2.49407 3.3282 0
M  V30 1403 H 123.453 -3.32179 1.69444 0
M  V30 1404 N 125.638 -1.25649 -0.95132 0
M  V30 1405 C 126.586 -1.06118 -2.06982 0
M  V30 1406 C 127.58 0.00889169 -1.69398 0
M  V30 1407 O 128.786 -0.146988 -1.79399 0
M  V30 1408 H 125.161 -0.326248 -0.677544 0
M  V30 1409 H 127.132 -2.00932 -2.2061 0
M  V30 1410 C 125.881 -0.700145 -3.40578 0
M  V30 1411 H 125.204 -1.51537 -3.69968 0
M  V30 1412 H 126.644 -0.603211 -4.19687 0
M  V30 1413 C 125.103 0.59403 -3.31622 0
M  V30 1414 O 125.633 1.63522 -3.66911 0
M  V30 1415 N 123.839 0.58089 -2.84735 0
M  V30 1416 H 123.386 -0.266783 -2.56215 0
M  V30 1417 H 123.344 1.44695 -2.79125 0
M  V30 1418 N 127.117 1.15442 -1.07289 0
M  V30 1419 C 128.064 2.20161 -0.692653 0
M  V30 1420 C 129.034 1.63073 0.31564 0
M  V30 1421 O 130.219 1.89725 0.202235 0
M  V30 1422 C 127.359 3.44967 -0.0959509 0
M  V30 1423 C 126.472 4.16256 -1.15564 0
M  V30 1424 C 125.607 5.28609 -0.524011 0
M  V30 1425 C 124.646 5.91715 -1.56653 0
M  V30 1426 N 123.783 6.9554 -0.957531 0
M  V30 1427 H 128.623 2.52037 -1.59002 0
M  V30 1428 H 126.16 1.2378 -0.794798 0
M  V30 1429 H 128.118 4.16341 0.267628 0
M  V30 1430 H 126.748 3.1361 0.764772 0
M  V30 1431 H 125.8 3.43385 -1.6368 0
M  V30 1432 H 127.112 4.59268 -1.94613 0
M  V30 1433 H 126.266 6.06604 -0.108032 0
M  V30 1434 H 125.005 4.86787 0.29825 0
M  V30 1435 H 124.01 5.12433 -1.9923 0
M  V30 1436 H 125.235 6.35614 -2.39107 0
M  V30 1437 H 123.181 6.55814 -0.156162 0
M  V30 1438 H 123.098 7.36977 -1.68526 0
M  V30 1439 H 124.366 7.77435 -0.567032 0
M  V30 1440 N 128.595 0.856903 1.32268 0
M  V30 1441 C 129.843 0.460474 1.96784 0
M  V30 1442 C 130.164 -0.987701 1.68135 0
M  V30 1443 O 129.434 -1.69058 0.989765 0
M  V30 1444 H 128.014 0.167289 0.728027 0
M  V30 1445 H 130.676 1.09383 1.61312 0
M  V30 1446 H 129.772 0.60739 3.06133 0
M  V30 1447 N 130.073 -1.45103 0.615059 0
M  V30 1448 C 131.02 -2.30586 -0.0993978 0
M  V30 1449 C 131.99 -1.42544 -0.852669 0
M  V30 1450 O 133.175 -1.71465 -0.836917 0
M  V30 1451 C 130.315 -3.27572 -1.08583 0
M  V30 1452 C 129.428 -4.30717 -0.332656 0
M  V30 1453 C 128.563 -5.14807 -1.30947 0
M  V30 1454 C 127.602 -6.09673 -0.544538 0
M  V30 1455 N 126.739 -6.86517 -1.47101 0
M  V30 1456 H 131.579 -2.91144 0.635542 0
M  V30 1457 H 129.116 -1.4346 0.325206 0
M  V30 1458 H 131.074 -3.82276 -1.67095 0
M  V30 1459 H 129.704 -2.68751 -1.78809 0
M  V30 1460 H 128.756 -3.78615 0.368107 0
M  V30 1461 H 130.068 -4.98102 0.263842 0
M  V30 1462 H 129.222 -5.73948 -1.96643 0
M  V30 1463 H 127.961 -4.47458 -1.9399 0
M  V30 1464 H 126.966 -5.49656 0.126003 0
M  V30 1465 H 128.191 -6.79052 0.080947 0
M  V30 1466 H 126.137 -6.21851 -2.08895 0
M  V30 1467 H 126.054 -7.50281 -0.928137 0
M  V30 1468 H 127.322 -7.50194 -2.11731 0
M  V30 1469 N 131.551 -0.354651 -1.53558 0
M  V30 1470 C 132.779 0.239515 -2.05509 0
M  V30 1471 C 133.194 1.4333 -1.2289 0
M  V30 1472 O 132.551 1.80538 -0.266899 0
M  V30 1473 C 132.602 0.643719 -3.55723 0
M  V30 1474 O 132.323 -0.502602 -4.35207 0
M  V30 1475 C 133.824 1.29743 -4.23889 0
M  V30 1476 H 131.044 0.0442697 -0.669538 0
M  V30 1477 H 133.588 -0.509856 -1.98042 0
M  V30 1478 H 131.743 1.34302 -3.63376 0
M  V30 1479 H 132.157 -0.178172 -5.24197 0
M  V30 1480 H 133.631 1.53091 -5.30346 0
M  V30 1481 H 134.108 2.25441 -3.76926 0
M  V30 1482 H 134.714 0.639865 -4.20459 0
M  V30 1483 N 133.029 1.57378 -0.0835403 0
M  V30 1484 C 133.959 2.1641 0.87686 0
M  V30 1485 C 134.94 1.09429 1.30228 0
M  V30 1486 O 136.125 1.37516 1.37124 0
M  V30 1487 C 133.255 2.73517 2.14022 0
M  V30 1488 C 132.209 3.85769 1.85381 0
M  V30 1489 C 131.535 4.29529 3.18448 0
M  V30 1490 C 132.835 5.09486 1.14984 0
M  V30 1491 H 134.529 2.96914 0.385059 0
M  V30 1492 H 132.075 1.42823 0.18377 0
M  V30 1493 H 134.028 3.13463 2.81636 0
M  V30 1494 H 132.752 1.90252 2.65465 0
M  V30 1495 H 131.411 3.46345 1.20169 0
M  V30 1496 H 131.059 3.43169 3.67755 0
M  V30 1497 H 130.759 5.05204 3.00071 0
M  V30 1498 H 132.283 4.72099 3.8724 0
M  V30 1499 H 133.697 5.46674 1.72687 0
M  V30 1500 H 132.094 5.90515 1.06826 0
M  V30 1501 H 133.164 4.84724 0.130749 0
M  V30 1502 N 134.507 -0.190092 1.56449 0
M  V30 1503 C 135.753 -0.911052 1.81184 0
M  V30 1504 C 136.086 -1.82699 0.658396 0
M  V30 1505 O 135.361 -1.91491 -0.340775 0
M  V30 1506 C 135.644 -1.72297 3.16205 0
M  V30 1507 C 135.497 -0.831419 4.42049 0
M  V30 1508 C 136.816 -2.69454 3.47969 0
M  V30 1509 H 133.935 -0.32977 0.659106 0
M  V30 1510 H 136.577 -0.178169 1.89163 0
M  V30 1511 H 134.727 -2.34778 3.09534 0
M  V30 1512 H 136.399 -0.220929 4.60771 0
M  V30 1513 H 134.642 -0.138406 4.33579 0
M  V30 1514 H 135.313 -1.43461 5.33032 0
M  V30 1515 H 137.789 -2.17104 3.54972 0
M  V30 1516 H 136.665 -3.23342 4.43555 0
M  V30 1517 H 136.926 -3.48744 2.71717 0
M  V30 1518 N 135.985 -1.50799 -0.457987 0
M  V30 1519 C 137.234 -1.6168 -1.20593 0
M  V30 1520 C 137.547 -0.32888 -1.92815 0
M  V30 1521 O 138.753 -0.316773 -2.69646 0
M  V30 1522 C 137.209 -2.8545 -2.19195 0
M  V30 1523 C 136.817 -4.21168 -1.52715 0
M  V30 1524 C 138.561 -3.05681 -2.94549 0
M  V30 1525 C 136.468 -5.3611 -2.4968 0
M  V30 1526 H 135.398 -0.602134 -0.453818 0
M  V30 1527 H 138.049 -1.77245 -0.475031 0
M  V30 1528 H 136.431 -2.63472 -2.95632 0
M  V30 1529 H 137.605 -4.53449 -0.819775 0
M  V30 1530 H 135.92 -4.06648 -0.895922 0
M  V30 1531 H 138.517 -3.88727 -3.67145 0
M  V30 1532 H 138.86 -2.17929 -3.54701 0
M  V30 1533 H 139.393 -3.27901 -2.25223 0
M  V30 1534 H 136.132 -6.26057 -1.94249 0
M  V30 1535 H 135.652 -5.0823 -3.18532 0
M  V30 1536 H 137.331 -5.6722 -3.11241 0
M  V30 1537 N 137.463 0.71206 -1.40597 0
M  V30 1538 C 138.395 1.83704 -1.37061 0
M  V30 1539 C 139.408 1.60453 -0.275426 0
M  V30 1540 O 140.597 1.70262 -0.53602 0
M  V30 1541 C 137.697 3.20172 -1.11099 0
M  V30 1542 C 136.87 3.7059 -2.3234 0
M  V30 1543 C 135.929 4.85681 -2.02485 0
M  V30 1544 O 134.955 4.9815 -2.75382 0
M  V30 1545 N 136.157 5.71735 -1.00497 0
M  V30 1546 H 138.922 1.87235 -2.34016 0
M  V30 1547 H 136.483 0.893739 -1.34996 0
M  V30 1548 H 138.475 3.94768 -0.891064 0
M  V30 1549 H 137.045 3.11767 -0.227989 0
M  V30 1550 H 136.265 2.87085 -2.7014 0
M  V30 1551 H 137.553 4.01011 -3.13157 0
M  V30 1552 H 136.951 5.64275 -0.401298 0
M  V30 1553 H 135.508 6.463 -0.844942 0
M  V30 1554 N 138.941 1.26152 0.944643 0
M  V30 1555 C 140.171 1.14094 1.72239 0
M  V30 1556 C 140.579 -0.306931 1.86694 0
M  V30 1557 O 139.922 -1.22222 1.3714 0
M  V30 1558 C 139.984 1.73316 3.14963 0
M  V30 1559 C 139.648 3.2239 3.23904 0
M  V30 1560 C 140.645 4.19252 3.07447 0
M  V30 1561 C 138.33 3.62788 3.47405 0
M  V30 1562 C 140.324 5.54491 3.14353 0
M  V30 1563 C 138.011 4.98162 3.53947 0
M  V30 1564 C 139.009 5.93823 3.37436 0
M  V30 1565 O 138.697 7.26732 3.43679 0
M  V30 1566 H 138.429 0.398292 0.546205 0
M  V30 1567 H 140.983 1.67201 1.19301 0
M  V30 1568 H 139.213 1.14667 3.69308 0
M  V30 1569 H 140.902 1.56214 3.74636 0
M  V30 1570 H 141.668 3.8938 2.8915 0
M  V30 1571 H 137.547 2.88816 3.59313 0
M  V30 1572 H 141.091 6.29137 3.01384 0
M  V30 1573 H 136.988 5.27695 3.71763 0
M  V30 1574 H 137.756 7.3496 3.60245 0
M  V30 1575 N 140.419 -1.14872 1.07899 0
M  V30 1576 C 141.647 -1.89661 0.82683 0
M  V30 1577 C 142.062 -1.78312 -0.620519 0
M  V30 1578 O 141.419 -1.13888 -1.42604 0
M  V30 1579 C 141.47 -3.39817 1.23316 0
M  V30 1580 O 141.191 -3.50845 2.62372 0
M  V30 1581 C 142.692 -4.31615 1.0111 0
M  V30 1582 H 139.912 -0.60092 0.298557 0
M  V30 1583 H 142.456 -1.4551 1.43691 0
M  V30 1584 H 140.611 -3.8161 0.667286 0
M  V30 1585 H 141.025 -4.44076 2.79101 0
M  V30 1586 H 142.499 -5.35367 1.34486 0
M  V30 1587 H 142.976 -4.39169 -0.0522168 0
M  V30 1588 H 143.582 -3.95572 1.56215 0
M  V30 1589 N 141.898 -0.863906 -1.31812 0
M  V30 1590 C 143.144 -0.472535 -1.97218 0
M  V30 1591 C 143.477 0.971394 -1.68159 0
M  V30 1592 O 142.752 1.68309 -0.974798 0
M  V30 1593 C 143.035 -0.723054 -3.52766 0
M  V30 1594 C 142.888 -2.21608 -3.91421 0
M  V30 1595 C 144.207 -0.185522 -4.39709 0
M  V30 1596 H 141.326 -0.173158 -0.71637 0
M  V30 1597 H 143.968 -1.08403 -1.56041 0
M  V30 1598 H 142.118 -0.202577 -3.87971 0
M  V30 1599 H 143.79 -2.80334 -3.66347 0
M  V30 1600 H 142.033 -2.691 -3.40246 0
M  V30 1601 H 142.704 -2.34203 -4.99853 0
M  V30 1602 H 145.18 -0.630726 -4.11292 0
M  V30 1603 H 144.056 -0.390306 -5.47511 0
M  V30 1604 H 144.317 0.912229 -4.32586 0
M  V30 1605 N 143.376 1.44774 -0.622745 0
M  V30 1606 C 144.323 2.30635 0.0871679 0
M  V30 1607 C 145.293 1.42994 0.845097 0
M  V30 1608 O 146.478 1.71907 0.827812 0
M  V30 1609 C 143.618 3.28144 1.06844 0
M  V30 1610 C 142.731 4.30888 0.309809 0
M  V30 1611 C 141.866 5.15494 1.28215 0
M  V30 1612 C 140.905 6.09953 0.512198 0
M  V30 1613 N 140.042 6.87287 1.43458 0
M  V30 1614 H 144.882 2.90803 -0.650974 0
M  V30 1615 H 142.419 1.43286 -0.33281 0
M  V30 1616 H 144.377 3.83157 1.65066 0
M  V30 1617 H 143.007 2.69695 1.77382 0
M  V30 1618 H 142.059 3.78414 -0.388181 0
M  V30 1619 H 143.371 4.97955 -0.290254 0
M  V30 1620 H 142.525 5.74983 1.93596 0
M  V30 1621 H 141.264 4.48481 1.91614 0
M  V30 1622 H 140.269 5.49581 -0.155151 0
M  V30 1623 H 141.494 6.78999 -0.116958 0
M  V30 1624 H 139.44 6.2295 2.05594 0
M  V30 1625 H 139.357 7.50763 0.888335 0
M  V30 1626 H 140.625 7.51306 2.07749 0
M  V30 1627 N 144.854 0.36279 1.53368 0
M  V30 1628 C 145.804 -0.501391 2.22419 0
M  V30 1629 C 146.788 -1.0509 1.2184 0
M  V30 1630 O 147.98 -0.981404 1.47301 0
M  V30 1631 C 145.109 -1.64201 3.01484 0
M  V30 1632 C 144.195 -1.10552 4.09438 0
M  V30 1633 N 144.586 -0.291788 5.04958 0
M  V30 1634 C 142.884 -1.3806 4.24094 0
M  V30 1635 C 143.585 0.00162655 5.817 0
M  V30 1636 N 142.561 -0.595244 5.40331 0
M  V30 1637 H 146.363 0.127159 2.93625 0
M  V30 1638 H 143.877 0.170658 1.61501 0
M  V30 1639 H 145.874 -2.27326 3.49469 0
M  V30 1640 H 144.534 -2.27365 2.31809 0
M  V30 1641 H 145.545 0.0687731 5.17854 0
M  V30 1642 H 142.222 -2.01522 3.65644 0
M  V30 1643 H 143.612 0.659278 6.68658 0
M  V30 1644 N 146.332 -1.57332 0.0918853 0
M  V30 1645 C 147.242 -2.17368 -0.882505 0
M  V30 1646 C 148.258 -1.14226 -1.31257 0
M  V30 1647 O 149.434 -1.46582 -1.38115 0
M  V30 1648 C 146.499 -2.73962 -2.12476 0
M  V30 1649 C 145.56 -3.92048 -1.7492 0
M  V30 1650 C 144.793 -4.45933 -2.93223 0
M  V30 1651 O 145.016 -3.98764 -4.07852 0
M  V30 1652 O 143.95 -5.36999 -2.71875 0
M  V30 1653 H 147.776 -3.01031 -0.40172 0
M  V30 1654 H 145.361 -1.48813 -0.132291 0
M  V30 1655 H 147.243 -3.10147 -2.85283 0
M  V30 1656 H 145.918 -1.93347 -2.59613 0
M  V30 1657 H 144.825 -3.6068 -0.993025 0
M  V30 1658 H 146.158 -4.74017 -1.32548 0
M  V30 1659 N 147.81 0.181792 -1.56548 0
M  V30 1660 C 148.742 1.24956 -1.92142 0
M  V30 1661 C 149.755 1.41022 -0.813422 0
M  V30 1662 O 150.944 1.41212 -1.09186 0
M  V30 1663 C 148.044 2.61981 -2.14987 0
M  V30 1664 C 147.217 2.6735 -3.46183 0
M  V30 1665 C 146.276 3.85664 -3.5798 0
M  V30 1666 O 145.302 3.72148 -4.30691 0
M  V30 1667 N 146.504 5.01683 -2.92053 0
M  V30 1668 H 149.269 0.947329 -2.84334 0
M  V30 1669 H 146.83 0.371629 -1.57577 0
M  V30 1670 H 148.822 3.3958 -2.20154 0
M  V30 1671 H 147.392 2.84637 -1.2923 0
M  V30 1672 H 146.612 1.75925 -3.52766 0
M  V30 1673 H 147.9 2.67939 -4.32534 0
M  V30 1674 H 147.298 5.15564 -2.32832 0
M  V30 1675 H 145.855 5.77181 -3.0283 0
M  V30 1676 N 149.288 1.51039 0.449983 0
M  V30 1677 C 150.235 1.71439 1.54523 0
M  V30 1678 C 151.205 0.555871 1.56522 0
M  V30 1679 O 152.39 0.788871 1.73728 0
M  V30 1680 C 149.53 1.83384 2.92343 0
M  V30 1681 C 148.643 3.10873 2.9997 0
M  V30 1682 C 147.778 3.13488 4.28834 0
M  V30 1683 C 146.817 4.35343 4.30282 0
M  V30 1684 N 145.954 4.35579 5.5065 0
M  V30 1685 H 150.794 2.64934 1.36433 0
M  V30 1686 H 148.331 1.31312 0.662982 0
M  V30 1687 H 150.289 1.88291 3.72293 0
M  V30 1688 H 148.919 0.933086 3.0902 0
M  V30 1689 H 147.971 3.15336 2.12761 0
M  V30 1690 H 149.283 4.00814 2.96901 0
M  V30 1691 H 148.437 3.17241 5.17149 0
M  V30 1692 H 147.176 2.21414 4.34543 0
M  V30 1693 H 146.181 4.3178 3.40362 0
M  V30 1694 H 147.406 5.28668 4.26248 0
M  V30 1695 H 145.352 3.46369 5.57104 0
M  V30 1696 H 145.269 5.19313 5.49409 0
M  V30 1697 H 146.537 4.43507 6.41032 0
M  V30 1698 N 150.766 -0.704594 1.40972 0
M  V30 1699 C 151.699 -1.82861 1.36518 0
M  V30 1700 C 152.677 -1.6091 0.23382 0
M  V30 1701 O 153.861 -1.83778 0.419271 0
M  V30 1702 C 150.988 -3.1939 1.12729 0
M  V30 1703 C 150.034 -3.60148 2.28463 0
M  V30 1704 S 150.867 -3.65994 3.90907 0
M  V30 1705 C 152.023 -5.05264 3.69403 0
M  V30 1706 H 152.256 -1.86361 2.3164 0
M  V30 1707 H 149.789 -0.872439 1.27389 0
M  V30 1708 H 151.747 -3.98211 0.996893 0
M  V30 1709 H 150.408 -3.1351 0.192427 0
M  V30 1710 H 149.601 -4.59309 2.07489 0
M  V30 1711 H 149.203 -2.88612 2.37863 0
M  V30 1712 H 151.495 -5.92504 3.28551 0
M  V30 1713 H 152.438 -5.31278 4.68134 0
M  V30 1714 H 152.846 -4.76377 3.02862 0
M  V30 1715 N 152.244 -1.26651 -0.937939 0
M  V30 1716 C 153.521 -1.0313 -1.66204 0
M  V30 1717 C 153.901 0.437256 -2.06522 0
M  V30 1718 O 153.249 1.41831 -1.79154 0
M  V30 1719 C 153.459 -1.98314 -2.87181 0
M  V30 1720 C 154.807 -2.27107 -3.58758 0
M  V30 1721 O 155.831 -1.96205 -2.97291 0
M  V30 1722 O 154.69 -2.79736 -4.69479 0
M  V30 1723 H 151.784 -0.392384 -0.727986 0
M  V30 1724 H 154.33 -1.37874 -0.989382 0
M  V30 1725 H 153.102 -2.97399 -2.54302 0
M  V30 1726 H 152.725 -1.64068 -3.6217 0
M  V30 1727 N 153.722 1.14298 -1.08507 0
M  V30 1728 C 154.962 1.87016 -0.824894 0
M  V30 1729 C 155.326 1.81099 0.637735 0
M  V30 1730 O 156.527 2.48963 1.01345 0
M  V30 1731 C 154.798 3.31584 -1.33368 0
M  V30 1732 S 156.357 4.21903 -1.20596 0
M  V30 1733 H 153.175 0.645259 -0.2986 0
M  V30 1734 H 155.777 1.37822 -1.38656 0
M  V30 1735 H 154.481 3.33439 -2.39262 0
M  V30 1736 H 154.012 3.85836 -0.767734 0
M  V30 1737 H 156.027 4.95971 -0.150891 0
M  V30 1738 N 155.201 0.870884 1.31352 0
M  V30 1739 C 156.449 0.48132 1.96285 0
M  V30 1740 C 156.77 -0.969813 1.69173 0
M  V30 1741 O 156.04 -1.67998 1.00764 0
M  V30 1742 H 154.62 0.175002 0.726212 0
M  V30 1743 H 157.282 1.11087 1.60143 0
M  V30 1744 H 156.378 0.639825 3.05471 0
M  V30 1745 N 156.679 -1.44442 0.630414 0
M  V30 1746 C 157.927 -2.01653 0.134351 0
M  V30 1747 C 158.248 -1.49836 -1.24796 0
M  V30 1748 O 157.518 -0.701684 -1.82902 0
M  V30 1749 H 156.098 -0.74554 0.0466769 0
M  V30 1750 H 158.76 -1.76952 0.816955 0
M  V30 1751 H 157.856 -3.11935 0.101498 0
M  V30 1752 N 158.157 -0.370918 -1.53173 0
M  V30 1753 C 159.405 0.216673 -2.00935 0
M  V30 1754 C 159.726 1.48845 -1.25977 0
M  V30 1755 O 158.996 1.92286 -0.374551 0
M  V30 1756 H 157.576 0.0830565 -0.742368 0
M  V30 1757 H 160.238 -0.49838 -1.8842 0
M  V30 1758 H 159.334 0.439893 -3.08984 0
M  V30 1759 N 159.635 1.57281 -0.100228 0
M  V30 1760 C 160.865 1.98591 0.569681 0
M  V30 1761 C 161.273 0.978315 1.61943 0
M  V30 1762 O 160.616 -0.0396108 1.83657 0
M  V30 1763 C 160.678 3.36282 1.271 0
M  V30 1764 C 160.342 4.55488 0.371409 0
M  V30 1765 C 161.339 5.18491 -0.382504 0
M  V30 1766 C 159.024 5.01474 0.287965 0
M  V30 1767 C 161.018 6.25852 -1.20779 0
M  V30 1768 C 158.705 6.08701 -0.540965 0
M  V30 1769 C 159.703 6.70755 -1.28749 0
M  V30 1770 O 159.391 7.75914 -2.10269 0
M  V30 1771 H 159.123 0.65752 0.156982 0
M  V30 1772 H 161.677 2.0463 -0.177734 0
M  V30 1773 H 159.907 3.26941 2.0651 0
M  V30 1774 H 161.596 3.62005 1.83595 0
M  V30 1775 H 162.362 4.83891 -0.3278 0
M  V30 1776 H 158.241 4.52932 0.858689 0
M  V30 1777 H 161.785 6.74218 -1.79096 0
M  V30 1778 H 157.682 6.42732 -0.597131 0
M  V30 1779 H 158.45 7.92925 -2.03007 0
M  V30 1780 N 161.113 -0.173488 1.56642 0
M  V30 1781 C 162.362 -0.888758 1.81063 0
M  V30 1782 C 162.675 -1.83506 0.67712 0
M  V30 1783 O 163.881 -2.59254 0.806206 0
M  V30 1784 C 162.337 -1.63091 3.20826 0
M  V30 1785 C 161.945 -0.728357 4.4204 0
M  V30 1786 C 163.689 -2.33454 3.54541 0
M  V30 1787 C 161.596 -1.47062 5.72823 0
M  V30 1788 H 160.526 -0.335618 0.675186 0
M  V30 1789 H 163.177 -0.141712 1.82952 0
M  V30 1790 H 161.559 -2.42263 3.13248 0
M  V30 1791 H 162.733 0.0262449 4.60793 0
M  V30 1792 H 161.048 -0.134492 4.16183 0
M  V30 1793 H 163.645 -2.89578 4.49498 0
M  V30 1794 H 163.988 -3.08687 2.79317 0
M  V30 1795 H 164.521 -1.61227 3.63663 0
M  V30 1796 H 161.26 -0.760658 6.51072 0
M  V30 1797 H 160.78 -2.1986 5.58052 0
M  V30 1798 H 162.459 -2.01868 6.14702 0
M  V30 1799 N 162.591 -1.51276 -0.441967 0
M  V30 1800 C 163.538 -1.72256 -1.53612 0
M  V30 1801 C 164.508 -0.564164 -1.56225 0
M  V30 1802 O 165.693 -0.798074 -1.73307 0
M  V30 1803 C 162.833 -1.84932 -2.91366 0
M  V30 1804 C 161.946 -3.12459 -2.98317 0
M  V30 1805 C 161.081 -3.15758 -4.27166 0
M  V30 1806 C 160.12 -4.37619 -4.27967 0
M  V30 1807 N 159.257 -4.38493 -5.48333 0
M  V30 1808 H 164.097 -2.65654 -1.35026 0
M  V30 1809 H 161.634 -1.31662 -0.656009 0
M  V30 1810 H 163.592 -1.90263 -3.7129 0
M  V30 1811 H 162.222 -0.949461 -3.08521 0
M  V30 1812 H 161.274 -3.1646 -2.11086 0
M  V30 1813 H 162.586 -4.02382 -2.94771 0
M  V30 1814 H 161.74 -3.19979 -5.15459 0
M  V30 1815 H 160.479 -2.23715 -4.33362 0
M  V30 1816 H 159.484 -4.33579 -3.38067 0
M  V30 1817 H 160.709 -5.30921 -4.23438 0
M  V30 1818 H 158.655 -3.49318 -5.55259 0
M  V30 1819 H 158.572 -5.22219 -5.46647 0
M  V30 1820 H 159.84 -4.469 -6.38671 0
M  V30 1821 N 164.069 0.697108 -1.41344 0
M  V30 1822 C 165.315 1.4593 -1.40827 0
M  V30 1823 C 165.648 1.94193 -0.0167098 0
M  V30 1824 O 164.923 1.69425 0.955263 0
M  V30 1825 C 165.206 2.67229 -2.41373 0
M  V30 1826 C 165.059 2.24741 -3.8963 0
M  V30 1827 C 166.378 3.69423 -2.39196 0
M  V30 1828 H 163.497 0.529303 -0.512842 0
M  V30 1829 H 166.139 0.794112 -1.72609 0
M  V30 1830 H 164.289 3.23982 -2.14401 0
M  V30 1831 H 165.961 1.73327 -4.27499 0
M  V30 1832 H 164.204 1.56542 -4.0457 0
M  V30 1833 H 164.875 3.1177 -4.55525 0
M  V30 1834 H 167.351 3.2234 -2.63128 0
M  V30 1835 H 166.227 4.51907 -3.11563 0
M  V30 1836 H 166.488 4.19012 -1.41001 0
M  V30 1837 N 165.547 1.27147 0.931209 0
M  V30 1838 C 166.794 1.13278 1.67852 0
M  V30 1839 C 167.122 -0.32204 1.91815 0
M  V30 1840 O 166.377 -1.25224 1.50391 0
M  V30 1841 C 166.676 1.8579 3.05314 0
M  V30 1842 C 166.342 3.35657 3.01073 0
M  V30 1843 C 165.004 3.76536 2.99623 0
M  V30 1844 C 167.356 4.31299 2.92627 0
M  V30 1845 C 164.684 5.11426 2.87506 0
M  V30 1846 C 167.036 5.66242 2.82051 0
M  V30 1847 C 165.7 6.06418 2.7895 0
M  V30 1848 H 164.97 0.414515 0.614214 0
M  V30 1849 H 167.617 1.57712 1.08624 0
M  V30 1850 H 165.922 1.33854 3.68226 0
M  V30 1851 H 167.619 1.72491 3.62005 0
M  V30 1852 H 164.209 3.03146 3.02986 0
M  V30 1853 H 168.393 4.00692 2.92848 0
M  V30 1854 H 163.649 5.41705 2.83489 0
M  V30 1855 H 167.823 6.40026 2.74481 0
M  V30 1856 H 165.45 7.10895 2.69318 0
M  V30 1857 N 167.025 -1.13721 1.09112 0
M  V30 1858 C 168.436 -1.6648 0.845068 0
M  V30 1859 C 168.787 -1.85911 -0.62701 0
M  V30 1860 O 167.912 -1.57556 -1.48341 0
M  V30 1861 C 168.507 -3.02413 1.52748 0
M  V30 1862 C 167.066 -3.52176 1.32849 0
M  V30 1863 C 166.213 -2.27492 1.58564 0
M  V30 1864 H 169.164 -0.976872 1.25072 0
M  V30 1865 H 169.185 -3.68223 0.958752 0
M  V30 1866 H 168.697 -2.88238 2.59885 0
M  V30 1867 H 166.798 -3.7156 0.278137 0
M  V30 1868 H 166.911 -4.32499 2.0611 0
M  V30 1869 H 165.275 -2.33923 1.00758 0
M  V30 1870 H 166.058 -2.15886 2.66924 0
M  V30 1871 N 168.503 -0.877838 -1.30888 0
M  V30 1872 C 169.466 -0.344265 -2.266 0
M  V30 1873 C 170.466 0.50922 -1.52524 0
M  V30 1874 O 171.656 0.317398 -1.71284 0
M  V30 1875 C 168.788 0.510198 -3.37061 0
M  V30 1876 H 169.981 -1.1893 -2.7531 0
M  V30 1877 H 167.534 -0.654088 -1.41956 0
M  V30 1878 H 168.269 1.37612 -2.93655 0
M  V30 1879 H 168.054 -0.101047 -3.9197 0
M  V30 1880 H 169.544 0.875537 -4.08319 0
M  V30 1881 N 169.982 1.44106 -0.638065 0
M  V30 1882 C 171.259 1.95453 -0.0759321 0
M  V30 1883 C 171.639 1.57984 1.40015 0
M  V30 1884 O 170.987 0.857361 2.11806 0
M  V30 1885 C 171.197 3.47655 -0.306132 0
M  V30 1886 C 172.545 4.24114 -0.203008 0
M  V30 1887 O 173.569 3.55405 -0.237871 0
M  V30 1888 O 172.428 5.46381 -0.113827 0
M  V30 1889 H 169.522 0.826797 0.0183332 0
M  V30 1890 H 172.068 1.54122 -0.710251 0
M  V30 1891 H 170.84 3.68 -1.3301 0
M  V30 1892 H 170.463 3.95949 0.361991 0
M  V30 1893 N 171.46 0.379036 1.52974 0
M  V30 1894 C 172.709 -0.207612 2.00629 0
M  V30 1895 C 173.022 -1.48758 1.27006 0
M  V30 1896 O 174.228 -2.15365 1.65318 0
M  V30 1897 C 172.684 -0.42053 3.57435 0
M  V30 1898 C 172.292 0.845587 4.39948 0
M  V30 1899 C 174.036 -0.964102 4.13407 0
M  V30 1900 C 171.943 0.601513 5.88333 0
M  V30 1901 H 170.873 -0.0813591 0.749598 0
M  V30 1902 H 173.524 0.499853 1.76561 0
M  V30 1903 H 171.906 -1.18959 3.7771 0
M  V30 1904 H 173.08 1.61848 4.31442 0
M  V30 1905 H 171.395 1.31336 3.95145 0
M  V30 1906 H 173.992 -1.16225 5.21916 0
M  V30 1907 H 174.335 -1.93019 3.68849 0
M  V30 1908 H 174.868 -0.25487 3.96983 0
M  V30 1909 H 171.607 1.53831 6.37194 0
M  V30 1910 H 171.127 -0.132628 5.99653 0
M  V30 1911 H 172.806 0.232134 6.46583 0
M  V30 1912 N 172.938 -1.57226 0.108567 0
M  V30 1913 C 174.215 -1.86333 -0.594939 0
M  V30 1914 C 174.595 -1.00788 -1.85486 0
M  V30 1915 O 173.943 -0.0839293 -2.28346 0
M  V30 1916 C 174.153 -3.37265 -0.897405 0
M  V30 1917 C 175.501 -4.05629 -1.25501 0
M  V30 1918 O 176.525 -3.42224 -0.987998 0
M  V30 1919 O 175.384 -5.17531 -1.75567 0
M  V30 1920 H 172.478 -0.771018 -0.2991 0
M  V30 1921 H 175.024 -1.69102 0.142283 0
M  V30 1922 H 173.796 -3.913 -0.00413806 0
M  V30 1923 H 173.419 -3.59889 -1.69014 0
M  V30 1924 N 174.416 0.165178 -1.56732 0
M  V30 1925 C 175.348 1.22911 -1.93457 0
M  V30 1926 C 176.361 1.40152 -0.828333 0
M  V30 1927 O 177.55 1.40046 -1.10677 0
M  V30 1928 C 174.65 2.59686 -2.17753 0
M  V30 1929 C 173.823 2.63663 -3.48999 0
M  V30 1930 C 172.882 3.81845 -3.62051 0
M  V30 1931 O 171.908 3.67559 -4.34613 0
M  V30 1932 N 173.11 4.98557 -2.97357 0
M  V30 1933 H 175.875 0.917118 -2.85323 0
M  V30 1934 H 173.436 0.354895 -1.57962 0
M  V30 1935 H 175.428 3.37225 -2.23743 0
M  V30 1936 H 173.998 2.83251 -1.32242 0
M  V30 1937 H 173.218 1.72173 -3.54612 0
M  V30 1938 H 174.506 2.63336 -4.35352 0
M  V30 1939 H 173.904 5.13065 -2.38287 0
M  V30 1940 H 172.461 5.73936 -3.08934 0
M  V30 1941 N 175.894 1.51508 0.433938 0
M  V30 1942 C 176.841 1.73068 1.52696 0
M  V30 1943 C 177.811 0.572441 1.55924 0
M  V30 1944 O 178.996 0.807253 1.72882 0
M  V30 1945 C 176.136 1.86474 2.90381 0
M  V30 1946 C 175.249 3.14037 2.96656 0
M  V30 1947 C 174.384 3.18019 4.25485 0
M  V30 1948 C 173.423 4.39882 4.2564 0
M  V30 1949 N 172.56 4.41394 5.45999 0
M  V30 1950 H 177.4 2.66366 1.33615 0
M  V30 1951 H 174.937 1.32008 0.649018 0
M  V30 1952 H 176.895 1.92229 3.70275 0
M  V30 1953 H 175.525 0.965809 3.08013 0
M  V30 1954 H 174.577 3.17575 2.09404 0
M  V30 1955 H 175.889 4.0394 2.92633 0
M  V30 1956 H 175.043 3.22708 5.13755 0
M  V30 1957 H 173.782 2.2601 4.3217 0
M  V30 1958 H 172.787 4.35366 3.35763 0
M  V30 1959 H 174.012 5.33159 4.20617 0
M  V30 1960 H 171.958 3.52258 5.53399 0
M  V30 1961 H 171.875 5.25111 5.4387 0
M  V30 1962 H 173.143 4.50281 6.36292 0
M  V30 1963 N 177.372 -0.689602 1.41712 0
M  V30 1964 C 178.32 -1.82475 1.44242 0
M  V30 1965 C 179.314 -1.66354 0.319774 0
M  V30 1966 O 180.52 -1.73143 0.492089 0
M  V30 1967 H 176.895 -0.601416 0.451445 0
M  V30 1968 H 178.866 -1.77458 2.39899 0
M  V30 1969 C 177.615 -3.20535 1.3473 0
M  V30 1970 H 176.938 -3.33559 2.20405 0
M  V30 1971 H 178.378 -4.00023 1.40562 0
M  V30 1972 C 176.837 -3.36846 0.0603281 0
M  V30 1973 O 177.367 -3.91656 -0.892663 0
M  V30 1974 N 175.573 -2.90595 -0.0177039 0
M  V30 1975 H 175.12 -2.46178 0.758572 0
M  V30 1976 H 175.078 -3.01886 -0.878201 0
M  V30 1977 N 178.85 -1.27639 -0.924453 0
M  V30 1978 C 179.78 -1.13166 -2.04244 0
M  V30 1979 C 180.761 -0.032256 -1.70069 0
M  V30 1980 O 181.946 -0.207328 -1.9309 0
M  V30 1981 C 179.076 -0.781496 -3.38393 0
M  V30 1982 C 178.03 -1.83449 -3.86692 0
M  V30 1983 C 177.356 -1.33822 -5.17683 0
M  V30 1984 C 178.656 -3.23917 -4.09726 0
M  V30 1985 H 180.35 -2.06689 -2.1661 0
M  V30 1986 H 177.896 -0.995136 -1.04082 0
M  V30 1987 H 179.849 -0.667057 -4.16087 0
M  V30 1988 H 178.573 0.189439 -3.2605 0
M  V30 1989 H 177.232 -1.93789 -3.11193 0
M  V30 1990 H 176.88 -0.35665 -5.01734 0
M  V30 1991 H 176.58 -2.04224 -5.50968 0
M  V30 1992 H 178.104 -1.23679 -5.97943 0
M  V30 1993 H 179.518 -3.16559 -4.77978 0
M  V30 1994 H 177.915 -3.92059 -4.54324 0
M  V30 1995 H 178.985 -3.68729 -3.14908 0
M  V30 1996 N 180.328 1.1314 -1.09713 0
M  V30 1997 C 181.276 2.20717 -0.733934 0
M  V30 1998 C 182.27 1.6729 0.266506 0
M  V30 1999 O 183.476 1.79547 0.127656 0
M  V30 2000 H 179.851 0.719292 -0.21937 0
M  V30 2001 H 181.822 2.48611 -1.6503 0
M  V30 2002 C 180.571 3.47265 -0.173849 0
M  V30 2003 H 179.894 3.88716 -0.934873 0
M  V30 2004 H 181.334 4.23979 0.0423126 0
M  V30 2005 C 179.793 3.18724 1.09164 0
M  V30 2006 O 180.323 3.37762 2.17439 0
M  V30 2007 N 178.529 2.72583 1.00732 0
M  V30 2008 H 178.076 2.57291 0.126121 0
M  V30 2009 H 178.034 2.53862 1.85476 0
M  V30 2010 N 181.806 0.884767 1.30421 0
M  V30 2011 C 183.054 0.502112 1.95763 0
M  V30 2012 C 183.375 -0.951815 1.70192 0
M  V30 2013 O 182.645 -1.6692 1.0254 0
M  V30 2014 H 181.225 0.182694 0.724315 0
M  V30 2015 H 183.887 1.1278 1.58955 0
M  V30 2016 H 182.983 0.672188 3.04775 0
M  V30 2017 N 183.284 -1.43765 0.645699 0
M  V30 2018 C 184.231 -2.30745 -0.0504648 0
M  V30 2019 C 185.201 -1.4432 -0.822241 0
M  V30 2020 O 186.386 -1.73202 -0.800358 0
M  V30 2021 C 183.526 -3.29802 -1.0161 0
M  V30 2022 C 182.639 -4.31326 -0.241219 0
M  V30 2023 C 181.774 -5.17469 -1.19998 0
M  V30 2024 C 180.813 -6.10691 -0.415094 0
M  V30 2025 N 179.95 -6.89483 -1.32506 0
M  V30 2026 H 184.79 -2.8973 0.697155 0
M  V30 2027 H 182.327 -1.42738 0.355563 0
M  V30 2028 H 184.285 -3.85734 -1.58949 0
M  V30 2029 H 182.915 -2.72483 -1.73069 0
M  V30 2030 H 181.967 -3.77749 0.448334 0
M  V30 2031 H 183.279 -4.9743 0.369437 0
M  V30 2032 H 182.433 -5.7799 -1.84424 0
M  V30 2033 H 181.172 -4.51473 -1.84455 0
M  V30 2034 H 180.177 -5.49265 0.242565 0
M  V30 2035 H 181.402 -6.78727 0.224966 0
M  V30 2036 H 179.348 -6.26142 -1.95657 0
M  V30 2037 H 179.265 -7.52081 -0.768783 0
M  V30 2038 H 180.533 -7.54516 -1.9577 0
M  V30 2039 N 184.763 -0.387143 -1.52771 0
M  V30 2040 C 185.988 0.198407 -2.06449 0
M  V30 2041 C 186.413 1.39918 -1.25716 0
M  V30 2042 O 185.771 1.79099 -0.281657 0
M  V30 2043 C 185.819 0.548893 -3.56398 0
M  V30 2044 O 184.923 1.64315 -3.78252 0
M  V30 2045 H 184.264 0.0237731 -0.663574 0
M  V30 2046 H 186.794 -0.553989 -1.96957 0
M  V30 2047 H 186.804 0.813812 -3.99801 0
M  V30 2048 H 185.479 -0.329005 -4.14597 0
M  V30 2049 H 184.056 1.37211 -3.46738 0
M  V30 2050 N 186.241 1.57166 -0.116904 0
M  V30 2051 C 187.173 2.12271 0.864507 0
M  V30 2052 C 188.186 1.06494 1.23138 0
M  V30 2053 O 189.375 1.33873 1.18069 0
M  V30 2054 C 186.475 2.60564 2.16702 0
M  V30 2055 C 185.648 3.90416 1.97216 0
M  V30 2056 C 184.707 4.24329 3.11178 0
M  V30 2057 O 183.733 4.93182 2.84184 0
M  V30 2058 N 184.935 3.8148 4.37554 0
M  V30 2059 H 187.7 2.97102 0.393726 0
M  V30 2060 H 185.261 1.61759 0.0675805 0
M  V30 2061 H 187.253 2.80282 2.91932 0
M  V30 2062 H 185.823 1.80623 2.55135 0
M  V30 2063 H 185.043 3.79627 1.06192 0
M  V30 2064 H 186.331 4.75327 1.81499 0
M  V30 2065 H 185.729 3.25943 4.62361 0
M  V30 2066 H 184.286 4.06311 5.09661 0
M  V30 2067 N 187.719 -0.156864 1.56817 0
M  V30 2068 C 188.949 -0.885031 1.86684 0
M  V30 2069 C 189.357 -1.75696 0.701954 0
M  V30 2070 O 188.7 -1.80569 -0.337732 0
M  V30 2071 C 188.762 -1.80092 3.11138 0
M  V30 2072 C 188.426 -1.10714 4.43386 0
M  V30 2073 C 189.423 -0.465714 5.1781 0
M  V30 2074 C 187.108 -1.09959 4.90117 0
M  V30 2075 C 189.102 0.174002 6.37162 0
M  V30 2076 C 186.789 -0.456055 6.09396 0
M  V30 2077 C 187.787 0.179622 6.82764 0
M  V30 2078 O 187.475 0.812975 7.99779 0
M  V30 2079 H 187.207 -0.261813 0.623242 0
M  V30 2080 H 189.761 -0.157383 2.04796 0
M  V30 2081 H 187.991 -2.56926 2.89009 0
M  V30 2082 H 189.68 -2.40018 3.27332 0
M  V30 2083 H 190.446 -0.463427 4.82781 0
M  V30 2084 H 186.325 -1.58378 4.3294 0
M  V30 2085 H 189.869 0.670765 6.94368 0
M  V30 2086 H 185.766 -0.455975 6.43888 0
M  V30 2087 H 186.534 0.71366 8.15383 0
M  V30 2088 N 189.197 -1.51736 -0.425897 0
M  V30 2089 C 190.427 -1.68549 -1.19476 0
M  V30 2090 C 190.835 -0.387288 -1.85194 0
M  V30 2091 O 190.178 0.645142 -1.71999 0
M  V30 2092 C 190.24 -2.75275 -2.31223 0
M  V30 2093 C 189.904 -4.17534 -1.8578 0
M  V30 2094 C 190.901 -5.01936 -1.35485 0
M  V30 2095 C 188.586 -4.6369 -1.93123 0
M  V30 2096 C 190.58 -6.30559 -0.931347 0
M  V30 2097 C 188.267 -5.92307 -1.50384 0
M  V30 2098 C 189.265 -6.75569 -1.00473 0
M  V30 2099 O 188.953 -8.0178 -0.583452 0
M  V30 2100 H 188.685 -0.568525 -0.365725 0
M  V30 2101 H 191.239 -1.98982 -0.509444 0
M  V30 2102 H 189.469 -2.40182 -3.03067 0
M  V30 2103 H 191.158 -2.80853 -2.93047 0
M  V30 2104 H 191.924 -4.67475 -1.29197 0
M  V30 2105 H 187.803 -3.98997 -2.30916 0
M  V30 2106 H 191.347 -6.95498 -0.541084 0
M  V30 2107 H 187.244 -6.2628 -1.56346 0
M  V30 2108 H 188.012 -8.1543 -0.708275 0
M  V30 2109 N 190.675 0.682077 -1.42076 0
M  V30 2110 C 191.924 1.43786 -1.41451 0
M  V30 2111 C 192.237 1.95574 -0.0317074 0
M  V30 2112 O 193.443 2.71326 0.0971462 0
M  V30 2113 C 191.899 2.60071 -2.48779 0
M  V30 2114 C 191.507 2.15013 -3.93031 0
M  V30 2115 C 193.251 3.37626 -2.57311 0
M  V30 2116 C 191.158 3.28336 -4.91883 0
M  V30 2117 H 190.088 0.540143 -0.526082 0
M  V30 2118 H 192.739 0.739157 -1.67955 0
M  V30 2119 H 191.121 3.32275 -2.15429 0
M  V30 2120 H 192.295 1.5001 -4.35699 0
M  V30 2121 H 190.61 1.50416 -3.88284 0
M  V30 2122 H 193.207 4.22012 -3.28345 0
M  V30 2123 H 193.55 3.83727 -1.61429 0
M  V30 2124 H 194.083 2.72488 -2.89819 0
M  V30 2125 H 190.822 2.87234 -5.89217 0
M  V30 2126 H 190.342 3.92145 -4.53853 0
M  V30 2127 H 192.021 3.93913 -5.13265 0
M  V30 2128 N 192.153 1.28127 0.917671 0
M  V30 2129 C 193.086 1.06039 2.02067 0
M  V30 2130 C 194.064 -0.0223285 1.62585 0
M  V30 2131 O 195.248 0.124823 1.88086 0
M  V30 2132 C 192.375 0.610596 3.33151 0
M  V30 2133 C 191.421 1.68937 3.91615 0
M  V30 2134 S 192.254 3.28437 4.22953 0
M  V30 2135 C 193.41 2.85283 5.57103 0
M  V30 2136 H 193.643 1.99425 2.20493 0
M  V30 2137 H 191.176 1.12071 1.06205 0
M  V30 2138 H 193.134 0.357778 4.08938 0
M  V30 2139 H 191.795 -0.303364 3.12632 0
M  V30 2140 H 190.988 1.32619 4.86239 0
M  V30 2141 H 190.59 1.89478 3.2245 0
M  V30 2142 H 192.882 2.3121 6.36827 0
M  V30 2143 H 193.825 3.7869 5.98331 0
M  V30 2144 H 194.233 2.24118 5.18104 0
M  V30 2145 N 193.631 -1.12557 1.10312 0
M  V30 2146 C 194.878 -1.84038 0.844759 0
M  V30 2147 C 195.206 -1.84026 -0.629668 0
M  V30 2148 O 194.461 -1.28026 -1.48013 0
M  V30 2149 C 194.76 -3.31462 1.33669 0
M  V30 2150 C 194.426 -3.51647 2.82232 0
M  V30 2151 C 193.088 -3.56864 3.22802 0
M  V30 2152 C 195.44 -3.58867 3.77974 0
M  V30 2153 C 192.768 -3.66844 4.57867 0
M  V30 2154 C 195.12 -3.70375 5.1284 0
M  V30 2155 C 193.784 -3.73848 5.52986 0
M  V30 2156 H 193.054 -0.673444 0.309119 0
M  V30 2157 H 195.701 -1.32824 1.37949 0
M  V30 2158 H 194.006 -3.85091 0.721949 0
M  V30 2159 H 195.703 -3.85236 1.11329 0
M  V30 2160 H 192.293 -3.48249 2.49842 0
M  V30 2161 H 196.477 -3.54107 3.47738 0
M  V30 2162 H 191.733 -3.67804 4.88396 0
M  V30 2163 H 195.907 -3.74904 5.86873 0
M  V30 2164 H 193.534 -3.81333 6.57639 0
M  V30 2165 N 195.109 -0.891671 -1.2995 0
M  V30 2166 C 196.357 -0.512486 -1.95494 0
M  V30 2167 C 196.678 0.942776 -1.70695 0
M  V30 2168 O 195.948 1.66374 -1.03424 0
M  V30 2169 H 194.528 -0.186533 -0.723336 0
M  V30 2170 H 197.19 -1.13621 -1.58355 0
M  V30 2171 H 196.286 -0.688342 -3.04415 0
M  V30 2172 N 196.587 1.43421 -0.653314 0
M  V30 2173 C 197.998 1.85065 -0.246537 0
M  V30 2174 C 198.349 1.54688 1.2069 0
M  V30 2175 O 197.474 0.995896 1.92122 0
M  V30 2176 C 198.069 3.35922 -0.440666 0
M  V30 2177 C 196.628 3.76297 -0.0882064 0
M  V30 2178 C 195.775 2.67147 -0.743484 0
M  V30 2179 H 198.726 1.33572 -0.856979 0
M  V30 2180 H 198.747 3.79204 0.313798 0
M  V30 2181 H 198.259 3.58 -1.49858 0
M  V30 2182 H 196.36 3.5983 0.96711 0
M  V30 2183 H 196.473 4.76338 -0.513738 0
M  V30 2184 H 194.837 2.54086 -0.176712 0
M  V30 2185 H 195.62 2.92053 -1.80443 0
M  V30 2186 N 198.065 0.39524 1.52563 0
M  V30 2187 C 199.342 -0.242908 1.94086 0
M  V30 2188 C 199.722 -1.63841 1.33114 0
M  V30 2189 O 199.07 -2.22928 0.501529 0
M  V30 2190 C 199.28 -0.26327 3.48006 0
M  V30 2191 C 200.628 -0.489354 4.21771 0
M  V30 2192 O 201.652 -0.343226 3.54543 0
M  V30 2193 O 200.511 -0.776169 5.4096 0
M  V30 2194 H 197.605 -0.152536 0.812811 0
M  V30 2195 H 200.151 0.450178 1.6362 0
M  V30 2196 H 198.923 0.713985 3.84731 0
M  V30 2197 H 198.546 -1.00103 3.84792 0
M  V30 2198 N 199.544 -1.57102 0.125237 0
M  V30 2199 C 200.793 -1.94582 -0.531095 0
M  V30 2200 C 201.106 -1.01126 -1.6743 0
M  V30 2201 O 202.312 -1.28097 -2.39381 0
M  V30 2202 C 200.768 -3.45839 -0.996164 0
M  V30 2203 C 200.376 -4.47842 0.118926 0
M  V30 2204 C 202.12 -3.92227 -1.62352 0
M  V30 2205 C 200.027 -5.90284 -0.363192 0
M  V30 2206 H 198.957 -0.726391 -0.20217 0
M  V30 2207 H 201.608 -1.82339 0.206092 0
M  V30 2208 H 199.99 -3.53338 -1.78796 0
M  V30 2209 H 201.164 -4.52018 0.895358 0
M  V30 2210 H 199.479 -4.11243 0.653324 0
M  V30 2211 H 202.076 -4.96069 -1.99548 0
M  V30 2212 H 202.419 -3.32552 -2.50429 0
M  V30 2213 H 202.952 -3.87554 -0.897019 0
M  V30 2214 H 199.691 -6.53728 0.481679 0
M  V30 2215 H 199.211 -5.89515 -1.10597 0
M  V30 2216 H 200.89 -6.41752 -0.822377 0
M  V30 2217 N 201.022 0.148545 -1.56898 0
M  V30 2218 C 202.262 0.86765 -1.85071 0
M  V30 2219 C 202.626 1.78417 -0.709317 0
M  V30 2220 O 203.827 2.54261 -0.872049 0
M  V30 2221 C 202.098 1.62306 -3.1842 0
M  V30 2222 S 203.657 2.3878 -3.68143 0
M  V30 2223 H 200.475 0.290174 -0.649092 0
M  V30 2224 H 203.077 0.127755 -1.95082 0
M  V30 2225 H 201.781 0.941192 -3.99462 0
M  V30 2226 H 201.312 2.4039 -3.1141 0
M  V30 2227 H 203.327 3.63942 -3.37285 0
M  V30 2228 N 202.5 1.5196 0.417844 0
M  V30 2229 C 203.748 1.65263 1.16329 0
M  V30 2230 C 204.069 0.380634 1.91249 0
M  V30 2231 O 203.339 -0.604214 1.86349 0
M  V30 2232 H 201.919 0.60912 0.432414 0
M  V30 2233 H 204.581 1.88969 0.477162 0
M  V30 2234 H 203.677 2.4896 1.88217 0
M  V30 2235 N 203.978 -0.674533 1.42435 0
M  V30 2236 C 205.225 -1.43459 1.42919 0
M  V30 2237 C 205.553 -1.94446 0.0457312 0
M  V30 2238 O 204.808 -1.7132 -0.94593 0
M  V30 2239 C 205.107 -2.64767 2.40069 0
M  V30 2240 C 204.773 -2.3232 3.86443 0
M  V30 2241 C 203.435 -2.23182 4.26314 0
M  V30 2242 C 205.787 -2.05977 4.78773 0
M  V30 2243 C 203.115 -1.85827 5.56494 0
M  V30 2244 C 205.467 -1.70125 6.09295 0
M  V30 2245 C 204.131 -1.59498 6.48164 0
M  V30 2246 H 203.401 -0.524952 0.522978 0
M  V30 2247 H 206.048 -0.769097 1.75377 0
M  V30 2248 H 204.353 -3.36349 2.00939 0
M  V30 2249 H 206.05 -3.22949 2.37707 0
M  V30 2250 H 202.64 -2.40334 3.54877 0
M  V30 2251 H 206.824 -2.11969 4.48757 0
M  V30 2252 H 202.08 -1.76168 5.8547 0
M  V30 2253 H 206.254 -1.48767 6.80324 0
M  V30 2254 H 203.881 -1.30322 7.48946 0
M  V30 2255 N 205.456 -1.28612 -0.910864 0
M  V30 2256 C 206.733 -1.06632 -1.63979 0
M  V30 2257 C 207.113 0.393351 -2.07403 0
M  V30 2258 O 206.461 1.37999 -1.82122 0
M  V30 2259 C 206.671 -2.0436 -2.8291 0
M  V30 2260 C 208.019 -2.34666 -3.5386 0
M  V30 2261 O 209.043 -2.02467 -2.93062 0
M  V30 2262 O 207.902 -2.89631 -4.63439 0
M  V30 2263 H 204.996 -0.407737 -0.7195 0
M  V30 2264 H 207.542 -1.39942 -0.959914 0
M  V30 2265 H 206.314 -3.02727 -2.47936 0
M  V30 2266 H 205.937 -1.71714 -3.58609 0
M  V30 2267 N 206.934 1.1197 -1.10907 0
M  V30 2268 C 208.183 1.82947 -0.849302 0
M  V30 2269 C 208.496 1.85275 0.627112 0
M  V30 2270 O 209.702 2.52296 1.00295 0
M  V30 2271 C 208.158 3.28529 -1.46959 0
M  V30 2272 C 207.766 3.34546 -2.97965 0
M  V30 2273 C 209.51 4.04443 -1.28942 0
M  V30 2274 C 207.417 4.74491 -3.53004 0
M  V30 2275 H 206.347 0.685477 -0.314065 0
M  V30 2276 H 208.998 1.2604 -1.33365 0
M  V30 2277 H 207.38 3.85333 -0.912917 0
M  V30 2278 H 208.554 2.87654 -3.59989 0
M  V30 2279 H 206.869 2.72108 -3.15192 0
M  V30 2280 H 209.466 5.07787 -1.67502 0
M  V30 2281 H 209.809 4.15656 -0.231456 0
M  V30 2282 H 210.342 3.5401 -1.81443 0
M  V30 2283 H 207.081 4.68474 -4.58489 0
M  V30 2284 H 206.601 5.21816 -2.9575 0
M  V30 2285 H 208.28 5.4344 -3.51115 0
M  V30 2286 N 208.412 0.89855 1.29475 0
M  V30 2287 C 209.359 0.373819 2.27753 0
M  V30 2288 C 210.329 -0.543444 1.56958 0
M  V30 2289 O 211.514 -0.468934 1.84948 0
M  V30 2290 C 208.654 -0.393648 3.42848 0
M  V30 2291 C 207.767 0.554379 4.28428 0
M  V30 2292 C 206.902 -0.230026 5.30702 0
M  V30 2293 C 205.941 0.712599 6.07938 0
M  V30 2294 N 205.078 -0.0373283 7.0209 0
M  V30 2295 H 209.918 1.21699 2.72017 0
M  V30 2296 H 207.455 0.611456 1.33789 0
M  V30 2297 H 209.413 -0.85466 4.08352 0
M  V30 2298 H 208.043 -1.20128 2.99615 0
M  V30 2299 H 207.095 1.13391 3.63107 0
M  V30 2300 H 208.407 1.27597 4.82204 0
M  V30 2301 H 207.561 -0.752288 6.02018 0
M  V30 2302 H 206.3 -0.984758 4.77654 0
M  V30 2303 H 205.305 1.24637 5.35486 0
M  V30 2304 H 206.53 1.46664 6.63074 0
M  V30 2305 H 204.476 -0.774348 6.51414 0
M  V30 2306 H 204.393 0.624374 7.53417 0
M  V30 2307 H 205.661 -0.539891 7.77628 0
M  V30 2308 N 209.89 -1.43072 0.660911 0
M  V30 2309 C 210.837 -2.30785 -0.0259884 0
M  V30 2310 C 211.807 -1.45184 -0.806888 0
M  V30 2311 O 212.992 -1.74041 -0.781943 0
M  V30 2312 C 210.132 -3.30861 -0.981067 0
M  V30 2313 C 209.245 -4.31558 -0.195458 0
M  V30 2314 C 208.38 -5.18712 -1.14503 0
M  V30 2315 C 207.419 -6.11097 -0.350299 0
M  V30 2316 N 206.556 -6.90849 -1.25186 0
M  V30 2317 H 211.396 -2.88975 0.727846 0
M  V30 2318 H 208.933 -1.42353 0.370682 0
M  V30 2319 H 210.891 -3.87399 -1.54849 0
M  V30 2320 H 209.521 -2.74304 -1.70169 0
M  V30 2321 H 208.573 -3.77252 0.488374 0
M  V30 2322 H 209.885 -4.9701 0.422176 0
M  V30 2323 H 209.039 -5.79914 -1.78284 0
M  V30 2324 H 207.778 -4.53404 -1.79656 0
M  V30 2325 H 206.783 -5.48976 0.300808 0
M  V30 2326 H 208.008 -6.7845 0.296941 0
M  V30 2327 H 205.954 -6.28182 -1.89005 0
M  V30 2328 H 205.871 -7.52854 -0.688971 0
M  V30 2329 H 207.139 -7.5655 -1.87757 0
M  V30 2330 N 211.368 -0.403325 -1.52352 0
M  V30 2331 C 212.614 0.174605 -2.02047 0
M  V30 2332 C 212.947 1.45282 -1.28867 0
M  V30 2333 O 212.222 1.90483 -0.393257 0
M  V30 2334 C 212.505 0.428238 -3.57545 0
M  V30 2335 C 212.358 -0.866248 -4.4138 0
M  V30 2336 C 213.677 1.21287 -4.23057 0
M  V30 2337 H 210.796 0.0619851 -0.734389 0
M  V30 2338 H 213.438 -0.53565 -1.82293 0
M  V30 2339 H 211.588 1.03327 -3.74507 0
M  V30 2340 H 213.26 -1.50265 -4.3614 0
M  V30 2341 H 211.503 -1.47851 -4.07827 0
M  V30 2342 H 212.174 -0.643249 -5.48239 0
M  V30 2343 H 214.65 0.700703 -4.10158 0
M  V30 2344 H 213.526 1.35909 -5.31808 0
M  V30 2345 H 213.787 2.23193 -3.81625 0
M  V30 2346 N 212.846 1.57033 -0.133567 0
M  V30 2347 C 213.796 2.12641 0.822671 0
M  V30 2348 C 214.78 1.05081 1.21847 0
M  V30 2349 O 215.972 1.31287 1.18713 0
M  V30 2350 C 213.101 2.74094 2.06706 0
M  V30 2351 C 212.187 3.88757 1.69497 0
M  V30 2352 N 212.578 4.95194 1.03037 0
M  V30 2353 C 210.876 3.99213 1.98859 0
M  V30 2354 C 211.577 5.75414 0.852873 0
M  V30 2355 N 210.553 5.25726 1.3825 0
M  V30 2356 H 214.355 2.92308 0.305537 0
M  V30 2357 H 211.869 1.62256 0.0684276 0
M  V30 2358 H 213.866 3.12285 2.76195 0
M  V30 2359 H 212.526 1.95896 2.5895 0
M  V30 2360 H 213.537 5.13247 0.692669 0
M  V30 2361 H 210.214 3.32075 2.53047 0
M  V30 2362 H 211.604 6.71089 0.330091 0
M  V30 2363 N 214.325 -0.140222 1.56975 0
M  V30 2364 C 215.571 -0.852949 1.83991 0
M  V30 2365 C 215.904 -1.80512 0.716187 0
M  V30 2366 O 215.179 -1.92479 -0.279681 0
M  V30 2367 C 215.462 -1.6215 3.21527 0
M  V30 2368 C 215.315 -0.690363 4.4447 0
M  V30 2369 C 216.634 -2.58247 3.56366 0
M  V30 2370 H 213.753 -0.308634 0.669264 0
M  V30 2371 H 216.395 -0.117898 1.89634 0
M  V30 2372 H 214.545 -2.24812 3.16847 0
M  V30 2373 H 216.217 -0.0742264 4.6124 0
M  V30 2374 H 214.46 -0.000396433 4.338 0
M  V30 2375 H 215.131 -1.2643 5.37326 0
M  V30 2376 H 217.607 -2.05701 3.61699 0
M  V30 2377 H 216.483 -3.09067 4.53617 0
M  V30 2378 H 216.744 -3.39923 2.82674 0
M  V30 2379 N 215.803 -1.52179 -0.40978 0
M  V30 2380 C 217.052 -1.65434 -1.15388 0
M  V30 2381 C 217.365 -0.390056 -1.91671 0
M  V30 2382 O 218.571 -0.402399 -2.68501 0
M  V30 2383 C 217.027 -2.92279 -2.10003 0
M  V30 2384 C 216.635 -4.25813 -1.39239 0
M  V30 2385 C 218.379 -3.14897 -2.84675 0
M  V30 2386 C 216.286 -5.43782 -2.32498 0
M  V30 2387 H 215.216 -0.616267 -0.434432 0
M  V30 2388 H 217.867 -1.78666 -0.418401 0
M  V30 2389 H 216.249 -2.72744 -2.871 0
M  V30 2390 H 217.423 -4.55828 -0.675099 0
M  V30 2391 H 215.738 -4.09292 -0.766097 0
M  V30 2392 H 218.335 -4.0021 -3.54593 0
M  V30 2393 H 218.678 -2.29103 -3.47588 0
M  V30 2394 H 219.211 -3.34901 -2.14677 0
M  V30 2395 H 215.95 -6.3192 -1.74233 0
M  V30 2396 H 215.47 -5.18106 -3.02201 0
M  V30 2397 H 217.149 -5.76834 -2.93038 0
M  V30 2398 N 217.281 0.66697 -1.42791 0
M  V30 2399 C 218.211 1.79218 -1.49677 0
M  V30 2400 C 219.192 1.66405 -0.352623 0
M  V30 2401 O 220.377 1.85708 -0.567993 0
M  V30 2402 C 217.507 3.17565 -1.40605 0
M  V30 2403 C 216.461 3.45124 -2.53127 0
M  V30 2404 C 215.787 4.83127 -2.29112 0
M  V30 2405 C 217.087 3.41236 -3.95418 0
M  V30 2406 H 218.781 1.73713 -2.43853 0
M  V30 2407 H 216.327 0.83432 -1.17367 0
M  V30 2408 H 218.28 3.96022 -1.44029 0
M  V30 2409 H 217.004 3.23767 -0.429271 0
M  V30 2410 H 215.663 2.69031 -2.49034 0
M  V30 2411 H 215.311 4.85988 -1.29709 0
M  V30 2412 H 215.011 5.02528 -3.04531 0
M  V30 2413 H 216.535 5.63859 -2.34297 0
M  V30 2414 H 217.949 4.09651 -4.01073 0
M  V30 2415 H 216.346 3.72173 -4.70752 0
M  V30 2416 H 217.416 2.39665 -4.21532 0
M  V30 2417 N 218.759 1.29093 0.90403 0
M  V30 2418 C 219.709 1.10482 1.99443 0
M  V30 2419 C 220.693 0.0255401 1.6088 0
M  V30 2420 O 221.885 0.24677 1.75271 0
M  V30 2421 C 219.014 0.778882 3.34348 0
M  V30 2422 C 218.1 1.89749 3.79284 0
M  V30 2423 N 218.491 3.14045 3.96497 0
M  V30 2424 C 216.789 1.78955 4.08523 0
M  V30 2425 C 217.49 3.86996 4.34292 0
M  V30 2426 N 216.466 3.14909 4.43095 0
M  V30 2427 H 220.268 2.04778 2.10815 0
M  V30 2428 H 217.782 1.20155 1.09255 0
M  V30 2429 H 219.779 0.62661 4.12164 0
M  V30 2430 H 218.439 -0.156205 3.24324 0
M  V30 2431 H 219.45 3.49548 3.82148 0
M  V30 2432 H 216.127 0.926886 4.07081 0
M  V30 2433 H 217.517 4.93941 4.55491 0
M  V30 2434 N 220.237 -1.11381 1.11499 0
M  V30 2435 C 221.484 -1.83132 0.864231 0
M  V30 2436 C 221.812 -1.84683 -0.610114 0
M  V30 2437 O 221.067 -1.29589 -1.46646 0
M  V30 2438 C 221.366 -3.30026 1.37177 0
M  V30 2439 C 221.032 -3.48634 2.85946 0
M  V30 2440 C 219.694 -3.53421 3.26569 0
M  V30 2441 C 222.046 -3.54837 3.81759 0
M  V30 2442 C 219.374 -3.61967 4.61733 0
M  V30 2443 C 221.726 -3.64915 5.1674 0
M  V30 2444 C 220.39 -3.67962 5.5692 0
M  V30 2445 H 219.66 -0.670127 0.316245 0
M  V30 2446 H 222.307 -1.31354 1.3935 0
M  V30 2447 H 220.612 -3.84304 0.762753 0
M  V30 2448 H 222.309 -3.84034 1.15408 0
M  V30 2449 H 218.899 -3.45579 2.53521 0
M  V30 2450 H 223.083 -3.50399 3.51474 0
M  V30 2451 H 218.339 -3.62603 4.92269 0
M  V30 2452 H 222.513 -3.68658 5.90816 0
M  V30 2453 H 220.14 -3.74336 6.61647 0
M  V30 2454 N 221.715 -0.905404 -1.28997 0
M  V30 2455 C 222.662 -0.385892 -2.27551 0
M  V30 2456 C 223.632 0.535113 -1.57244 0
M  V30 2457 O 224.817 0.459119 -1.85194 0
M  V30 2458 C 221.957 0.375461 -3.43051 0
M  V30 2459 C 221.07 -0.577092 -4.28128 0
M  V30 2460 C 220.205 0.201879 -5.30816 0
M  V30 2461 C 219.244 -0.744829 -6.07551 0
M  V30 2462 N 218.381 9.42587e-05 -7.021 0
M  V30 2463 H 223.221 -1.23139 -2.71368 0
M  V30 2464 H 220.758 -0.618542 -1.33463 0
M  V30 2465 H 222.716 0.832992 -4.088 0
M  V30 2466 H 221.346 1.18537 -3.00248 0
M  V30 2467 H 220.398 -1.15315 -3.62501 0
M  V30 2468 H 221.71 -1.30152 -4.8152 0
M  V30 2469 H 220.864 0.720351 -6.02408 0
M  V30 2470 H 219.603 0.959413 -4.7817 0
M  V30 2471 H 218.608 -1.27475 -5.34818 0
M  V30 2472 H 219.833 -1.50178 -6.62286 0
M  V30 2473 H 217.779 0.739791 -6.51815 0
M  V30 2474 H 217.696 -0.664321 -7.53076 0
M  V30 2475 H 218.964 0.498644 -7.77903 0
M  V30 2476 N 223.193 1.4272 -0.668489 0
M  V30 2477 C 224.141 2.32586 0.0254857 0
M  V30 2478 C 225.135 1.49471 0.797176 0
M  V30 2479 O 226.341 1.65583 0.705853 0
M  V30 2480 H 222.716 0.751514 0.0270339 0
M  V30 2481 H 224.687 2.88823 -0.749936 0
M  V30 2482 C 223.436 3.3397 0.967427 0
M  V30 2483 H 222.759 3.97961 0.383048 0
M  V30 2484 H 224.199 3.9945 1.42181 0
M  V30 2485 C 222.658 2.65744 2.0708 0
M  V30 2486 O 223.188 2.48454 3.15648 0
M  V30 2487 N 221.394 2.2487 1.8407 0
M  V30 2488 H 220.941 2.39132 0.95778 0
M  V30 2489 H 220.899 1.79552 2.58086 0
M  V30 2490 N 224.671 0.411399 1.52136 0
M  V30 2491 C 225.618 -0.412975 2.27075 0
M  V30 2492 C 226.588 -1.03912 1.29582 0
M  V30 2493 O 227.773 -1.06296 1.58448 0
M  V30 2494 C 224.913 -1.52247 3.09701 0
M  V30 2495 C 224.026 -0.917021 4.22155 0
M  V30 2496 C 223.161 -1.9994 4.92135 0
M  V30 2497 C 222.2 -1.37101 5.96548 0
M  V30 2498 N 221.337 -2.39364 6.60038 0
M  V30 2499 H 226.177 0.232499 2.97092 0
M  V30 2500 H 223.714 0.126496 1.46555 0
M  V30 2501 H 225.672 -2.17674 3.55913 0
M  V30 2502 H 224.302 -2.13794 2.41851 0
M  V30 2503 H 223.354 -0.151742 3.80097 0
M  V30 2504 H 224.666 -0.418006 4.97045 0
M  V30 2505 H 223.82 -2.73088 5.41763 0
M  V30 2506 H 222.559 -2.53208 4.16818 0
M  V30 2507 H 221.564 -0.624873 5.46237 0
M  V30 2508 H 222.789 -0.845998 6.7381 0
M  V30 2509 H 220.735 -2.91759 5.87548 0
M  V30 2510 H 220.652 -1.9428 7.3061 0
M  V30 2511 H 221.92 -3.12074 7.14304 0
M  V30 2512 N 226.149 -1.5696 0.141893 0
M  V30 2513 C 227.379 -2.00031 -0.516828 0
M  V30 2514 C 227.787 -1.02091 -1.59293 0
M  V30 2515 O 227.13 -0.00909657 -1.83698 0
M  V30 2516 C 227.192 -3.39534 -1.1814 0
M  V30 2517 C 226.856 -4.56313 -0.250513 0
M  V30 2518 C 227.853 -5.17295 0.519839 0
M  V30 2519 C 225.538 -5.02061 -0.154907 0
M  V30 2520 C 227.532 -6.2243 1.3733 0
M  V30 2521 C 225.219 -6.07053 0.702161 0
M  V30 2522 C 226.217 -6.67106 1.46487 0
M  V30 2523 O 225.905 -7.70066 2.30767 0
M  V30 2524 H 225.637 -0.661451 -0.139493 0
M  V30 2525 H 228.191 -2.04086 0.231926 0
M  V30 2526 H 226.421 -3.32302 -1.97769 0
M  V30 2527 H 228.11 -3.66745 -1.73933 0
M  V30 2528 H 228.876 -4.82852 0.45598 0
M  V30 2529 H 224.755 -4.5505 -0.7383 0
M  V30 2530 H 228.299 -6.69233 1.96909 0
M  V30 2531 H 224.196 -6.40923 0.76733 0
M  V30 2532 H 224.964 -7.87264 2.23959 0
M  V30 2533 N 227.627 0.131896 -1.57047 0
M  V30 2534 C 228.577 1.1679 -1.95816 0
M  V30 2535 C 229.561 1.37756 -0.831393 0
M  V30 2536 O 230.753 1.39065 -1.09499 0
M  V30 2537 C 227.882 2.49778 -2.35512 0
M  V30 2538 C 226.968 2.32342 -3.54793 0
M  V30 2539 N 227.359 1.8469 -4.70875 0
M  V30 2540 C 225.657 2.63043 -3.60173 0
M  V30 2541 C 226.358 1.80656 -5.52936 0
M  V30 2542 N 225.334 2.24528 -4.95064 0
M  V30 2543 H 229.136 0.791818 -2.83033 0
M  V30 2544 H 226.65 0.339791 -1.58805 0
M  V30 2545 H 228.647 3.24692 -2.61498 0
M  V30 2546 H 227.307 2.88156 -1.49654 0
M  V30 2547 H 228.318 1.54429 -4.9434 0
M  V30 2548 H 224.995 3.05193 -2.84892 0
M  V30 2549 H 226.385 1.45178 -6.56028 0
M  V30 2550 N 229.106 1.52395 0.401703 0
M  V30 2551 C 230.016 1.7917 1.51444 0
M  V30 2552 C 231.032 0.677691 1.6026 0
M  V30 2553 O 232.208 0.963909 1.76835 0
M  V30 2554 C 229.273 1.94347 2.87107 0
M  V30 2555 C 228.334 3.18257 2.88116 0
M  V30 2556 C 227.567 3.32701 4.17308 0
M  V30 2557 O 227.79 2.52238 5.11598 0
M  V30 2558 O 226.724 4.25891 4.25324 0
M  V30 2559 H 230.55 2.73633 1.31752 0
M  V30 2560 H 228.135 1.3733 0.588296 0
M  V30 2561 H 230.017 2.06109 3.67555 0
M  V30 2562 H 228.692 1.03073 3.06851 0
M  V30 2563 H 227.599 3.11947 2.06494 0
M  V30 2564 H 228.932 4.09336 2.73322 0
M  V30 2565 N 230.584 -0.659388 1.43143 0
M  V30 2566 C 231.532 -1.79374 1.4808 0
M  V30 2567 C 232.526 -1.65639 0.354988 0
M  V30 2568 O 233.732 -1.7206 0.528704 0
M  V30 2569 H 230.107 -0.591705 0.4641 0
M  V30 2570 H 232.078 -1.72329 2.43609 0
M  V30 2571 C 230.827 -3.17606 1.41499 0
M  V30 2572 H 230.15 -3.28809 2.27431 0
M  V30 2573 H 231.59 -3.96951 1.49015 0
M  V30 2574 C 230.049 -3.36642 0.131765 0
M  V30 2575 O 230.579 -3.93461 -0.809386 0
M  V30 2576 N 228.785 -2.90567 0.0439396 0
M  V30 2577 H 228.332 -2.44513 0.810619 0
M  V30 2578 H 228.29 -3.03681 -0.813969 0
M  V30 2579 N 232.062 -1.29571 -0.897171 0
M  V30 2580 C 233.009 -1.14916 -2.00158 0
M  V30 2581 C 233.979 -0.0418149 -1.66047 0
M  V30 2582 O 235.164 -0.209793 -1.89643 0
M  V30 2583 C 232.304 -0.834307 -3.34863 0
M  V30 2584 C 231.417 -2.02234 -3.8174 0
M  V30 2585 C 230.552 -1.64664 -5.05034 0
M  V30 2586 C 229.591 -2.80033 -5.44286 0
M  V30 2587 N 228.728 -2.42843 -6.58765 0
M  V30 2588 H 233.568 -2.09403 -2.12025 0
M  V30 2589 H 231.105 -1.042 -1.0383 0
M  V30 2590 H 233.063 -0.632436 -4.12379 0
M  V30 2591 H 231.693 0.0736656 -3.22716 0
M  V30 2592 H 230.745 -2.33583 -3.00238 0
M  V30 2593 H 232.057 -2.88673 -4.06779 0
M  V30 2594 H 231.211 -1.4078 -5.9014 0
M  V30 2595 H 229.95 -0.753766 -4.8184 0
M  V30 2596 H 228.955 -3.04596 -4.57713 0
M  V30 2597 H 230.18 -3.69989 -5.6946 0
M  V30 2598 H 228.126 -1.56046 -6.3717 0
M  V30 2599 H 228.043 -3.22815 -6.83613 0
M  V30 2600 H 229.311 -2.22285 -7.47134 0
M  V30 2601 N 233.54 1.10788 -1.12088 0
M  V30 2602 C 234.487 2.17025 -0.785407 0
M  V30 2603 C 235.457 1.64265 0.246191 0
M  V30 2604 O 236.642 1.90412 0.121584 0
M  V30 2605 C 233.782 3.44249 -0.242177 0
M  V30 2606 C 232.895 4.1098 -1.33115 0
M  V30 2607 C 232.03 5.25911 -0.747741 0
M  V30 2608 C 231.069 5.84538 -1.81609 0
M  V30 2609 N 230.206 6.90853 -1.25167 0
M  V30 2610 H 235.046 2.45066 -1.69548 0
M  V30 2611 H 232.583 1.20297 -0.846582 0
M  V30 2612 H 234.541 4.17101 0.0908026 0
M  V30 2613 H 233.171 3.16571 0.631072 0
M  V30 2614 H 232.223 3.36133 -1.78097 0
M  V30 2615 H 233.535 4.50601 -2.13917 0
M  V30 2616 H 232.689 6.056 -0.365216 0
M  V30 2617 H 231.428 4.87614 0.0915188 0
M  V30 2618 H 230.433 5.03522 -2.20785 0
M  V30 2619 H 231.658 6.249 -2.6585 0
M  V30 2620 H 229.604 6.54562 -0.434174 0
M  V30 2621 H 229.521 7.29166 -1.99633 0
M  V30 2622 H 230.789 7.7433 -0.896259 0
M  V30 2623 N 235.018 0.912232 1.28515 0
M  V30 2624 C 235.948 0.416403 2.29757 0
M  V30 2625 C 236.929 -0.515194 1.6211 0
M  V30 2626 O 238.114 -0.423253 1.89532 0
M  V30 2627 C 235.244 -0.34572 3.45575 0
M  V30 2628 C 234.198 0.496599 4.25109 0
M  V30 2629 C 233.524 -0.393771 5.33248 0
M  V30 2630 C 234.824 1.75307 4.92001 0
M  V30 2631 H 236.518 1.26249 2.7148 0
M  V30 2632 H 234.064 0.608515 1.30511 0
M  V30 2633 H 236.017 -0.703422 4.15488 0
M  V30 2634 H 234.741 -1.2257 3.02728 0
M  V30 2635 H 233.4 0.8368 3.56922 0
M  V30 2636 H 233.048 -1.27225 4.86644 0
M  V30 2637 H 232.748 0.166209 5.87365 0
M  V30 2638 H 234.272 -0.747389 6.06009 0
M  V30 2639 H 235.686 1.46437 5.54283 0
M  V30 2640 H 234.083 2.25534 5.56106 0
M  V30 2641 H 235.153 2.48176 4.16577 0
M  V30 2642 N 236.496 -1.42363 0.676048 0
M  V30 2643 C 237.745 -2.00745 0.196037 0
M  V30 2644 C 238.058 -1.54083 -1.20489 0
M  V30 2645 O 239.264 -2.04891 -1.78134 0
M  V30 2646 C 237.72 -3.58651 0.299616 0
M  V30 2647 C 237.328 -4.143 1.70468 0
M  V30 2648 C 239.072 -4.24326 -0.121619 0
M  V30 2649 C 236.979 -5.64574 1.76096 0
M  V30 2650 H 235.909 -0.750787 0.0695301 0
M  V30 2651 H 238.56 -1.63072 0.841412 0
M  V30 2652 H 236.942 -3.93833 -0.413673 0
M  V30 2653 H 238.116 -3.90575 2.44515 0
M  V30 2654 H 236.431 -3.61081 2.07387 0
M  V30 2655 H 239.028 -5.34607 -0.0997362 0
M  V30 2656 H 239.371 -3.99897 -1.15708 0
M  V30 2657 H 239.904 -3.94108 0.540706 0
M  V30 2658 H 236.643 -5.93804 2.77628 0
M  V30 2659 H 236.163 -5.90286 1.06406 0
M  V30 2660 H 237.842 -6.29013 1.51496 0
M  V30 2661 N 237.974 -0.419461 -1.51915 0
M  V30 2662 C 239.39 -0.0708431 -1.59443 0
M  V30 2663 C 239.59 1.41796 -1.43164 0
M  V30 2664 O 238.646 2.18596 -1.26381 0
M  V30 2665 C 239.959 -0.574991 -2.95151 0
M  V30 2666 C 241.507 -0.533867 -3.08413 0
M  V30 2667 C 241.982 -1.01469 -4.46618 0
M  V30 2668 N 243.473 -0.971939 -4.52888 0
M  V30 2669 C 244.208 -1.31505 -5.58116 0
M  V30 2670 N 243.704 -1.73014 -6.70849 0
M  V30 2671 N 245.497 -1.23436 -5.48379 0
M  V30 2672 H 237.648 -1.38836 -1.60743 0
M  V30 2673 H 239.911 -0.570998 -0.756747 0
M  V30 2674 H 239.617 -1.61597 -3.12377 0
M  V30 2675 H 239.491 0.00979777 -3.77199 0
M  V30 2676 H 241.878 0.498086 -2.90866 0
M  V30 2677 H 241.959 -1.15484 -2.28248 0
M  V30 2678 H 241.603 -2.04502 -4.6491 0
M  V30 2679 H 241.533 -0.370433 -5.25295 0
M  V30 2680 H 244.024 -0.666893 -3.71969 0
M  V30 2681 H 244.337 -1.97479 -7.47143 0
M  V30 2682 H 242.682 -1.76926 -6.72103 0
M  V30 2683 H 245.873 -0.908869 -4.59192 0
M  V30 2684 H 246.046 -1.50506 -6.30279 0
M  V30 2685 N 239.452 1.56882 -0.150215 0
M  V30 2686 C 240.692 1.98119 0.502804 0
M  V30 2687 C 241.056 1.03327 1.61826 0
M  V30 2688 O 242.257 1.33621 2.33236 0
M  V30 2689 C 240.528 3.43329 0.992988 0
M  V30 2690 S 242.087 4.0659 1.65015 0
M  V30 2691 H 238.905 0.692189 0.162467 0
M  V30 2692 H 241.507 1.93988 -0.242689 0
M  V30 2693 H 240.211 4.10046 0.170436 0
M  V30 2694 H 239.742 3.5118 1.77303 0
M  V30 2695 H 241.757 3.99906 2.93752 0
M  V30 2696 N 240.93 -0.123565 1.57115 0
M  V30 2697 C 241.877 -1.15177 2.00007 0
M  V30 2698 C 242.847 -1.41403 0.871454 0
M  V30 2699 O 244.032 -1.53346 1.13533 0
M  V30 2700 C 241.172 -2.47436 2.40561 0
M  V30 2701 C 240.285 -2.28184 3.66819 0
M  V30 2702 C 239.42 -3.53641 3.96373 0
M  V30 2703 C 238.459 -3.29528 5.15827 0
M  V30 2704 N 237.596 -4.47175 5.41275 0
M  V30 2705 H 242.436 -0.779008 2.87638 0
M  V30 2706 H 239.973 -0.373166 1.42288 0
M  V30 2707 H 241.931 -3.24584 2.62109 0
M  V30 2708 H 240.561 -2.82614 1.55978 0
M  V30 2709 H 239.613 -1.41976 3.52912 0
M  V30 2710 H 240.925 -2.0634 4.5412 0
M  V30 2711 H 240.079 -4.39209 4.18545 0
M  V30 2712 H 238.818 -3.78512 3.07538 0
M  V30 2713 H 237.823 -2.42349 4.93505 0
M  V30 2714 H 239.048 -3.06031 6.06236 0
M  V30 2715 H 236.994 -4.72175 4.55397 0
M  V30 2716 H 236.911 -4.28419 6.22891 0
M  V30 2717 H 238.179 -5.3389 5.67963 0
M  V30 2718 N 242.408 -1.52605 -0.393616 0
M  V30 2719 C 243.654 -1.67672 -1.14079 0
M  V30 2720 C 243.987 -0.413121 -1.89755 0
M  V30 2721 O 243.262 0.588952 -1.85369 0
M  V30 2722 C 243.545 -2.9088 -2.12276 0
M  V30 2723 C 243.398 -4.27329 -1.40394 0
M  V30 2724 C 244.717 -3.09628 -3.12759 0
M  V30 2725 H 241.836 -0.610168 -0.413356 0
M  V30 2726 H 244.478 -1.85193 -0.424696 0
M  V30 2727 H 242.628 -2.76073 -2.73342 0
M  V30 2728 H 244.3 -4.53894 -0.82327 0
M  V30 2729 H 242.543 -4.2802 -0.705801 0
M  V30 2730 H 243.214 -5.09615 -2.12123 0
M  V30 2731 H 245.69 -3.23436 -2.61779 0
M  V30 2732 H 244.566 -3.97322 -3.78717 0
M  V30 2733 H 244.827 -2.23637 -3.81365 0
M  V30 2734 N 243.887 0.651787 -1.4349 0
M  V30 2735 C 245.164 1.40909 -1.35661 0
M  V30 2736 C 245.544 2.11099 -0.00511733 0
M  V30 2737 O 244.892 2.04892 1.0115 0
M  V30 2738 C 245.102 2.3926 -2.54078 0
M  V30 2739 C 246.45 3.03217 -2.97228 0
M  V30 2740 O 247.474 2.49588 -2.54135 0
M  V30 2741 O 246.333 4.00455 -3.71885 0
M  V30 2742 H 243.427 0.629625 -0.536191 0
M  V30 2743 H 245.973 0.678575 -1.55542 0
M  V30 2744 H 244.745 1.86352 -3.44076 0
M  V30 2745 H 244.368 3.1976 -2.36303 0
M  V30 2746 N 245.365 1.30045 0.890287 0
M  V30 2747 C 246.613 1.18327 1.63839 0
M  V30 2748 C 246.934 -0.263455 1.93212 0
M  V30 2749 O 246.204 -1.17856 1.56482 0
M  V30 2750 H 244.784 0.434933 0.607324 0
M  V30 2751 H 247.446 1.631 1.06698 0
M  V30 2752 H 246.542 1.74024 2.59079 0
M  V30 2753 N 246.843 -1.10192 1.12674 0
M  V30 2754 C 248.09 -1.82205 0.883606 0
M  V30 2755 C 248.418 -1.8532 -0.590492 0
M  V30 2756 O 247.673 -1.31137 -1.45264 0
M  V30 2757 C 247.972 -3.28552 1.4067 0
M  V30 2758 C 247.638 -3.45582 2.89627 0
M  V30 2759 C 246.3 -3.49937 3.30299 0
M  V30 2760 C 248.652 -3.50768 3.85501 0
M  V30 2761 C 245.98 -3.57049 4.65546 0
M  V30 2762 C 248.332 -3.59414 5.20581 0
M  V30 2763 C 246.996 -3.62034 5.60792 0
M  V30 2764 H 246.266 -0.666735 0.323334 0
M  V30 2765 H 248.913 -1.29868 1.40736 0
M  V30 2766 H 247.218 -3.83473 0.80347 0
M  V30 2767 H 248.915 -3.82788 1.19475 0
M  V30 2768 H 245.505 -3.42871 2.57172 0
M  V30 2769 H 249.689 -3.46651 3.55171 0
M  V30 2770 H 244.945 -3.57361 4.96088 0
M  V30 2771 H 249.119 -3.62371 5.94693 0
M  V30 2772 H 246.746 -3.67298 6.6558 0
M  V30 2773 N 248.321 -0.919034 -1.28029 0
M  V30 2774 C 249.549 -0.570971 -1.98866 0
M  V30 2775 C 249.964 0.848996 -1.68634 0
M  V30 2776 O 249.321 1.56307 -0.942036 0
M  V30 2777 C 249.372 -0.776876 -3.53054 0
M  V30 2778 O 249.093 -2.14097 -3.82222 0
M  V30 2779 C 250.594 -0.436356 -4.41147 0
M  V30 2780 H 247.814 -0.217175 -0.634883 0
M  V30 2781 H 250.358 -1.23368 -1.63097 0
M  V30 2782 H 248.513 -0.161085 -3.87065 0
M  V30 2783 H 248.927 -2.18455 -4.76841 0
M  V30 2784 H 250.401 -0.63117 -5.4838 0
M  V30 2785 H 250.878 0.627686 -4.34692 0
M  V30 2786 H 251.484 -1.02991 -4.12641 0
M  V30 2787 N 249.799 1.42003 -0.683588 0
M  V30 2788 C 250.749 2.27997 0.0121992 0
M  V30 2789 C 251.733 1.4156 0.764822 0
M  V30 2790 O 252.925 1.64935 0.642287 0
M  V30 2791 C 250.054 3.29706 0.956482 0
M  V30 2792 C 249.14 4.23625 0.200739 0
M  V30 2793 N 249.531 4.99448 -0.799087 0
M  V30 2794 C 247.829 4.43845 0.437937 0
M  V30 2795 C 248.53 5.68102 -1.25041 0
M  V30 2796 N 247.506 5.40511 -0.578648 0
M  V30 2797 H 251.308 2.84048 -0.754564 0
M  V30 2798 H 248.822 1.54071 -0.513398 0
M  V30 2799 H 250.819 3.90124 1.47 0
M  V30 2800 H 249.479 2.75216 1.72297 0
M  V30 2801 H 250.49 5.04303 -1.17893 0
M  V30 2802 H 247.167 4.00382 1.18325 0
M  V30 2803 H 248.557 6.38913 -2.07942 0
M  V30 2804 N 251.277 0.427512 1.51691 0
M  V30 2805 C 252.207 -0.3796 2.30394 0
M  V30 2806 C 253.188 -1.02982 1.35384 0
M  V30 2807 O 254.373 -1.03534 1.643 0
M  V30 2808 C 251.503 -1.48649 3.1388 0
M  V30 2809 C 250.457 -0.960294 4.17088 0
M  V30 2810 C 249.783 -2.16219 4.89033 0
M  V30 2811 C 251.083 -0.00153679 5.223 0
M  V30 2812 H 252.777 0.277164 2.98114 0
M  V30 2813 H 250.323 0.134739 1.43368 0
M  V30 2814 H 252.276 -2.05826 3.67714 0
M  V30 2815 H 251 -2.1714 2.43962 0
M  V30 2816 H 249.659 -0.410806 3.64291 0
M  V30 2817 H 249.307 -2.83307 4.15628 0
M  V30 2818 H 249.007 -1.81654 5.58816 0
M  V30 2819 H 250.531 -2.73968 5.45687 0
M  V30 2820 H 251.945 -0.482687 5.71264 0
M  V30 2821 H 250.342 0.256199 5.99553 0
M  V30 2822 H 251.412 0.938174 4.75738 0
M  V30 2823 N 252.755 -1.56801 0.158532 0
M  V30 2824 C 253.985 -2.00568 -0.495583 0
M  V30 2825 C 254.393 -1.03774 -1.58201 0
M  V30 2826 O 253.736 -0.0285797 -1.83678 0
M  V30 2827 C 253.798 -3.40768 -1.14532 0
M  V30 2828 C 253.462 -4.56553 -0.202101 0
M  V30 2829 C 254.459 -5.16714 0.574675 0
M  V30 2830 C 252.144 -5.02197 -0.101648 0
M  V30 2831 C 254.138 -6.20939 1.43924 0
M  V30 2832 C 251.825 -6.06274 0.766508 0
M  V30 2833 C 252.823 -6.65515 1.53555 0
M  V30 2834 O 252.511 -7.67575 2.38922 0
M  V30 2835 H 252.243 -0.662893 -0.13247 0
M  V30 2836 H 254.797 -2.03829 0.253559 0
M  V30 2837 H 253.027 -3.34381 -1.94233 0
M  V30 2838 H 254.716 -3.6857 -1.70033 0
M  V30 2839 H 255.482 -4.82341 0.507167 0
M  V30 2840 H 251.361 -4.55807 -0.689994 0
M  V30 2841 H 254.905 -6.67107 2.03996 0
M  V30 2842 H 250.802 -6.40073 0.835266 0
M  V30 2843 H 251.57 -7.84844 2.32296 0
M  V30 2844 N 254.233 0.115231 -1.57178 0
M  V30 2845 C 255.461 0.836437 -1.89239 0
M  V30 2846 C 255.876 1.73256 -0.750175 0
M  V30 2847 O 255.233 1.80357 0.278832 0
M  V30 2848 C 255.284 1.66671 -3.20785 0
M  V30 2849 O 255.005 0.806652 -4.3061 0
M  V30 2850 C 256.506 2.49274 -3.66575 0
M  V30 2851 H 253.726 0.240253 -0.626514 0
M  V30 2852 H 256.27 0.0984932 -2.04263 0
M  V30 2853 H 254.425 2.35737 -3.0742 0
M  V30 2854 H 254.839 1.37969 -5.06028 0
M  V30 2855 H 256.313 3.03055 -4.6137 0
M  V30 2856 H 256.79 3.26807 -2.93417 0
M  V30 2857 H 257.396 1.85443 -3.82741 0
M  V30 2858 N 255.711 1.52812 0.385517 0
M  V30 2859 C 256.641 1.80808 1.47752 0
M  V30 2860 C 257.622 0.660318 1.5676 0
M  V30 2861 O 258.807 0.908246 1.71652 0
M  V30 2862 C 255.937 1.98008 2.85324 0
M  V30 2863 C 254.891 3.13709 2.91154 0
M  V30 2864 C 254.217 3.16169 4.31209 0
M  V30 2865 C 255.517 4.52709 2.60483 0
M  V30 2866 H 257.211 2.72253 1.24573 0
M  V30 2867 H 254.757 1.31003 0.597839 0
M  V30 2868 H 256.71 2.16176 3.61726 0
M  V30 2869 H 255.434 1.03255 3.09848 0
M  V30 2870 H 254.093 2.95329 2.17201 0
M  V30 2871 H 253.741 2.19092 4.52778 0
M  V30 2872 H 253.441 3.93894 4.36029 0
M  V30 2873 H 254.965 3.36496 5.09512 0
M  V30 2874 H 256.379 4.71173 3.26602 0
M  V30 2875 H 254.776 5.32528 2.76648 0
M  V30 2876 H 255.846 4.59186 1.55809 0
M  V30 2877 N 257.189 -0.644168 1.43834 0
M  V30 2878 C 258.438 -1.39985 1.45214 0
M  V30 2879 C 258.751 -1.95421 0.0835494 0
M  V30 2880 O 259.957 -2.71488 -0.0251748 0
M  V30 2881 C 258.413 -2.53384 2.55587 0
M  V30 2882 C 258.021 -2.04517 3.98594 0
M  V30 2883 C 259.765 -3.30685 2.66172 0
M  V30 2884 C 257.672 -3.1518 5.00416 0
M  V30 2885 H 256.602 -0.526005 0.540218 0
M  V30 2886 H 259.253 -0.694367 1.69855 0
M  V30 2887 H 257.635 -3.26446 2.24163 0
M  V30 2888 H 258.809 -1.38405 4.39523 0
M  V30 2889 H 257.124 -1.40068 3.92135 0
M  V30 2890 H 259.721 -4.13158 3.39418 0
M  V30 2891 H 260.064 -3.79312 1.71546 0
M  V30 2892 H 260.597 -2.64708 2.96942 0
M  V30 2893 H 257.336 -2.71511 5.96625 0
M  V30 2894 H 256.856 -3.79974 4.64091 0
M  V30 2895 H 258.535 -3.80166 5.23529 0
M  V30 2896 N 258.668 -1.30515 -0.883378 0
M  V30 2897 C 259.598 -1.19607 -2.00541 0
M  V30 2898 C 260.579 -0.086346 -1.69881 0
M  V30 2899 O 261.764 -0.268654 -1.92333 0
M  V30 2900 C 258.894 -0.888758 -3.35736 0
M  V30 2901 C 257.848 -1.95659 -3.8066 0
M  V30 2902 C 257.174 -1.50224 -5.13164 0
M  V30 2903 C 258.474 -3.36788 -3.99213 0
M  V30 2904 H 260.168 -2.13476 -2.09925 0
M  V30 2905 H 257.714 -1.02775 -1.00863 0
M  V30 2906 H 259.667 -0.799094 -4.13754 0
M  V30 2907 H 258.391 0.0856125 -3.26488 0
M  V30 2908 H 257.05 -2.03591 -3.04871 0
M  V30 2909 H 256.698 -0.516092 -5.00345 0
M  V30 2910 H 256.398 -2.2165 -5.44192 0
M  V30 2911 H 257.922 -1.42639 -5.93706 0
M  V30 2912 H 259.336 -3.31605 -4.67665 0
M  V30 2913 H 257.733 -4.06314 -4.41621 0
M  V30 2914 H 258.803 -3.78561 -3.03017 0
M  V30 2915 N 260.146 1.09593 -1.13257 0
M  V30 2916 C 261.562 1.33775 -0.870423 0
M  V30 2917 C 261.762 1.95327 0.494926 0
M  V30 2918 O 260.818 2.19853 1.2418 0
M  V30 2919 C 262.131 2.25106 -1.99369 0
M  V30 2920 C 263.679 2.3862 -2.02558 0
M  V30 2921 C 264.154 3.33285 -3.14142 0
M  V30 2922 N 265.645 3.40857 -3.13641 0
M  V30 2923 C 266.38 4.14101 -3.96621 0
M  V30 2924 N 265.876 4.90157 -4.8961 0
M  V30 2925 N 267.669 4.09808 -3.84726 0
M  V30 2926 H 259.82 0.680136 -2.01216 0
M  V30 2927 H 262.083 0.362133 -0.876107 0
M  V30 2928 H 261.789 1.87103 -2.97801 0
M  V30 2929 H 261.663 3.25481 -1.90635 0
M  V30 2930 H 264.05 2.75887 -1.0474 0
M  V30 2931 H 264.131 1.38028 -2.15364 0
M  V30 2932 H 263.775 2.96741 -4.12198 0
M  V30 2933 H 263.705 4.33776 -2.98574 0
M  V30 2934 H 266.196 2.86624 -2.46282 0
M  V30 2935 H 266.509 5.4347 -5.49418 0
M  V30 2936 H 264.854 4.89251 -4.93617 0
M  V30 2937 H 268.045 3.4949 -3.11408 0
M  V30 2938 H 268.218 4.66629 -4.49623 0
M  V30 2939 N 261.624 0.925811 1.2754 0
M  V30 2940 C 263.035 0.610102 1.7645 0
M  V30 2941 C 263.386 -0.874723 1.75622 0
M  V30 2942 O 262.511 -1.68444 1.35851 0
M  V30 2943 C 263.106 1.10073 3.20421 0
M  V30 2944 C 261.665 0.835723 3.67005 0
M  V30 2945 C 260.812 1.26054 2.46993 0
M  V30 2946 H 263.763 1.10579 1.13833 0
M  V30 2947 H 263.784 0.447557 3.77859 0
M  V30 2948 H 263.296 2.18143 3.20991 0
M  V30 2949 H 261.397 -0.231249 3.71882 0
M  V30 2950 H 261.51 1.45193 4.56569 0
M  V30 2951 H 259.874 0.679111 2.45479 0
M  V30 2952 H 260.657 2.34984 2.50275 0
M  V30 2953 N 263.102 -1.41638 0.69111 0
M  V30 2954 C 264.379 -1.95036 0.148421 0
M  V30 2955 C 264.759 -1.63072 -1.34055 0
M  V30 2956 O 264.107 -0.93538 -2.08478 0
M  V30 2957 C 264.317 -3.46279 0.434951 0
M  V30 2958 C 265.665 -4.23069 0.360275 0
M  V30 2959 O 266.689 -3.54277 0.369613 0
M  V30 2960 O 265.548 -5.45583 0.316534 0
M  V30 2961 H 262.642 -0.826908 0.0123654 0
M  V30 2962 H 265.188 -1.5138 0.766963 0
M  V30 2963 H 263.96 -3.6281 1.46576 0
M  V30 2964 H 263.583 -3.97019 -0.214787 0
M  V30 2965 N 264.58 -0.43555 -1.51462 0
M  V30 2966 C 265.51 0.367376 -2.30592 0
M  V30 2967 C 266.491 1.02263 -1.35928 0
M  V30 2968 O 267.676 1.02661 -1.64847 0
M  V30 2969 C 264.806 1.46983 -3.14664 0
M  V30 2970 C 263.76 0.938161 -4.17591 0
M  V30 2971 C 263.086 2.13622 -4.90173 0
M  V30 2972 C 264.386 -0.0261621 -5.22293 0
M  V30 2973 H 266.08 -0.292969 -2.97963 0
M  V30 2974 H 263.626 -0.14234 -1.43295 0
M  V30 2975 H 265.579 2.03873 -3.688 0
M  V30 2976 H 264.303 2.15843 -2.4511 0
M  V30 2977 H 262.962 0.391481 -3.64504 0
M  V30 2978 H 262.61 2.81098 -4.17124 0
M  V30 2979 H 262.31 1.78688 -5.59772 0
M  V30 2980 H 263.834 2.7107 -5.47132 0
M  V30 2981 H 265.248 0.452384 -5.71512 0
M  V30 2982 H 263.645 -0.287992 -5.99409 0
M  V30 2983 H 264.715 -0.963391 -4.75233 0
M  V30 2984 N 266.058 1.56714 -0.166846 0
M  V30 2985 C 267.283 2.01557 0.488833 0
M  V30 2986 C 267.708 1.0463 1.56314 0
M  V30 2987 O 267.066 0.0251304 1.81283 0
M  V30 2988 C 267.114 3.4503 1.04818 0
M  V30 2989 O 266.218 3.51163 2.16236 0
M  V30 2990 H 265.559 0.653516 0.117526 0
M  V30 2991 H 268.089 2.02818 -0.269421 0
M  V30 2992 H 268.099 3.84243 1.37191 0
M  V30 2993 H 266.774 4.15077 0.261572 0
M  V30 2994 H 265.351 3.23807 1.84942 0
M  V30 2995 N 267.536 -0.106894 1.57237 0
M  V30 2996 C 268.766 -0.825191 1.89405 0
M  V30 2997 C 269.174 -1.73374 0.757496 0
M  V30 2998 O 268.517 -1.81552 -0.280115 0
M  V30 2999 C 268.579 -1.70102 3.1671 0
M  V30 3000 C 268.243 -0.965523 4.46684 0
M  V30 3001 C 269.24 -0.300741 5.19029 0
M  V30 3002 C 266.925 -0.943105 4.93367 0
M  V30 3003 C 268.919 0.376622 6.36286 0
M  V30 3004 C 266.606 -0.261949 6.10538 0
M  V30 3005 C 267.604 0.396748 6.81847 0
M  V30 3006 O 267.292 1.06701 7.96787 0
M  V30 3007 H 267.024 -0.241852 0.631255 0
M  V30 3008 H 269.578 -0.0921491 2.05193 0
M  V30 3009 H 267.808 -2.47601 2.97036 0
M  V30 3010 H 269.497 -2.29483 3.34802 0
M  V30 3011 H 270.263 -0.309599 4.84011 0
M  V30 3012 H 266.142 -1.44524 4.3776 0
M  V30 3013 H 269.686 0.891334 6.91882 0
M  V30 3014 H 265.583 -0.250896 6.45012 0
M  V30 3015 H 266.351 0.972707 8.127 0
M  V30 3016 N 269.014 -1.53014 -0.377408 0
M  V30 3017 C 270.291 -1.59215 -1.13622 0
M  V30 3018 C 270.671 -0.392407 -2.07421 0
M  V30 3019 O 270.019 0.618342 -2.19975 0
M  V30 3020 C 270.229 -2.93669 -1.88573 0
M  V30 3021 C 271.577 -3.47822 -2.43526 0
M  V30 3022 O 272.601 -2.9562 -1.98715 0
M  V30 3023 O 271.46 -4.39055 -3.25412 0
M  V30 3024 H 268.554 -0.642625 -0.52054 0
M  V30 3025 H 271.1 -1.65353 -0.381625 0
M  V30 3026 H 269.872 -3.7243 -1.20048 0
M  V30 3027 H 269.495 -2.90968 -2.70968 0
M  V30 3028 N 270.492 0.636531 -1.44174 0
M  V30 3029 C 271.738 1.39826 -1.4689 0
M  V30 3030 C 272.071 1.93947 -0.0990585 0
M  V30 3031 O 271.346 1.73325 0.882544 0
M  V30 3032 C 271.629 2.56751 -2.5249 0
M  V30 3033 C 271.482 2.08014 -3.98811 0
M  V30 3034 C 272.801 3.58946 -2.54649 0
M  V30 3035 H 269.92 0.507075 -0.53483 0
M  V30 3036 H 272.562 0.720188 -1.75822 0
M  V30 3037 H 270.712 3.14597 -2.2795 0
M  V30 3038 H 272.384 1.5504 -4.34466 0
M  V30 3039 H 270.627 1.39242 -4.10846 0
M  V30 3040 H 271.298 2.92169 -4.68339 0
M  V30 3041 H 273.774 3.1089 -2.76563 0
M  V30 3042 H 272.65 4.38286 -3.3045 0
M  V30 3043 H 272.911 4.12655 -1.58646 0
M  V30 3044 N 271.97 1.30982 0.876444 0
M  V30 3045 C 272.917 1.18085 1.98304 0
M  V30 3046 C 273.887 0.0682263 1.6596 0
M  V30 3047 O 275.072 0.239937 1.89285 0
M  V30 3048 C 272.212 0.887475 3.33493 0
M  V30 3049 C 271.325 2.08281 3.78475 0
M  V30 3050 C 270.46 1.72678 5.0235 0
M  V30 3051 C 269.499 2.88657 5.39762 0
M  V30 3052 N 268.636 2.53292 6.54819 0
M  V30 3053 H 273.476 2.1275 2.08666 0
M  V30 3054 H 271.013 1.05839 1.02159 0
M  V30 3055 H 272.971 0.697961 4.1132 0
M  V30 3056 H 271.601 -0.022315 3.22792 0
M  V30 3057 H 270.653 2.3833 2.96484 0
M  V30 3058 H 271.965 2.95108 4.02135 0
M  V30 3059 H 271.119 1.50151 5.87826 0
M  V30 3060 H 269.858 0.830327 4.8058 0
M  V30 3061 H 268.863 3.1184 4.52809 0
M  V30 3062 H 270.088 3.79002 5.63502 0
M  V30 3063 H 268.034 1.66163 6.34607 0
M  V30 3064 H 267.951 3.3365 6.7839 0
M  V30 3065 H 269.219 2.34143 7.43503 0
M  V30 3066 N 273.449 -1.08991 1.13837 0
M  V30 3067 C 274.698 -1.80631 0.897509 0
M  V30 3068 C 275.011 -1.86872 -0.57777 0
M  V30 3069 O 276.217 -2.54866 -0.935701 0
M  V30 3070 C 274.673 -3.24517 1.55618 0
M  V30 3071 C 274.281 -3.26529 3.0673 0
M  V30 3072 C 276.025 -4.00882 1.3962 0
M  V30 3073 C 273.932 -4.64965 3.65461 0
M  V30 3074 H 272.862 -0.67691 0.332129 0
M  V30 3075 H 275.513 -1.2246 1.3666 0
M  V30 3076 H 273.895 -3.82778 1.01476 0
M  V30 3077 H 275.069 -2.78008 3.67489 0
M  V30 3078 H 273.384 -2.63656 3.22296 0
M  V30 3079 H 275.981 -5.03167 1.80906 0
M  V30 3080 H 276.324 -4.14896 0.341578 0
M  V30 3081 H 276.857 -3.49075 1.90766 0
M  V30 3082 H 273.596 -4.56153 4.70749 0
M  V30 3083 H 273.116 -5.13792 3.09481 0
M  V30 3084 H 274.795 -5.3394 3.654 0
M  V30 3085 N 274.927 -0.932562 -1.27047 0
M  V30 3086 C 276.204 -0.49377 -1.89265 0
M  V30 3087 C 276.584 1.02833 -1.8436 0
M  V30 3088 O 275.932 1.88461 -1.29209 0
M  V30 3089 C 276.142 -1.04536 -3.32976 0
M  V30 3090 C 277.49 -1.10879 -4.09867 0
M  V30 3091 O 278.514 -0.995327 -3.42011 0
M  V30 3092 O 277.373 -1.28417 -5.31198 0
M  V30 3093 H 274.467 -0.159596 -0.811454 0
M  V30 3094 H 277.013 -1.02457 -1.3528 0
M  V30 3095 H 275.785 -2.08913 -3.30864 0
M  V30 3096 H 275.408 -0.496494 -3.94488 0
M  V30 3097 N 276.405 1.4127 -0.698611 0
M  V30 3098 C 277.653 2.00782 -0.230409 0
M  V30 3099 C 277.974 1.5562 1.17505 0
M  V30 3100 O 277.244 0.78815 1.79346 0
M  V30 3101 H 275.824 0.742464 -0.0821944 0
M  V30 3102 H 278.486 1.72852 -0.90045 0
M  V30 3103 H 277.582 3.11095 -0.25021 0
M  V30 3104 N 277.883 0.443576 1.51229 0
M  V30 3105 C 278.815 -0.400608 2.25672 0
M  V30 3106 C 279.828 -0.980945 1.29928 0
M  V30 3107 O 281.017 -0.874024 1.55638 0
M  V30 3108 C 278.117 -1.57304 3.00181 0
M  V30 3109 C 277.29 -1.11046 4.23069 0
M  V30 3110 C 276.349 -2.15374 4.80105 0
M  V30 3111 O 275.375 -1.74554 5.41774 0
M  V30 3112 N 276.577 -3.47922 4.64683 0
M  V30 3113 H 279.342 0.23745 2.98758 0
M  V30 3114 H 276.903 0.272809 1.59585 0
M  V30 3115 H 278.895 -2.26733 3.35223 0
M  V30 3116 H 277.465 -2.11632 2.30066 0
M  V30 3117 H 276.685 -0.243019 3.9345 0
M  V30 3118 H 277.973 -0.778888 5.02803 0
M  V30 3119 H 277.371 -3.83815 4.15575 0
M  V30 3120 H 275.928 -4.13228 5.0407 0
M  V30 3121 N 279.361 -1.56624 0.175154 0
M  V30 3122 C 280.586 -2.01813 -0.478137 0
M  V30 3123 C 281.011 -1.05457 -1.55757 0
M  V30 3124 O 280.369 -0.0347439 -1.81267 0
M  V30 3125 C 280.417 -3.45581 -1.02987 0
M  V30 3126 O 279.521 -3.52305 -2.14371 0
M  V30 3127 H 278.862 -0.65413 -0.114059 0
M  V30 3128 H 281.392 -2.02673 0.280173 0
M  V30 3129 H 281.402 -3.84965 -1.35151 0
M  V30 3130 H 280.077 -4.1521 -0.239556 0
M  V30 3131 H 278.654 -3.24783 -1.83222 0
M  V30 3132 N 280.839 0.0985539 -1.57292 0
M  V30 3133 C 282.088 0.801358 -1.85098 0
M  V30 3134 C 282.401 1.80066 -0.763902 0
M  V30 3135 O 283.607 2.55112 -0.928981 0
M  V30 3136 C 282.063 1.47599 -3.28242 0
M  V30 3137 C 281.671 0.516624 -4.45011 0
M  V30 3138 C 283.415 2.16272 -3.65276 0
M  V30 3139 C 281.322 1.19564 -5.79188 0
M  V30 3140 H 280.252 0.303022 -0.69043 0
M  V30 3141 H 282.903 0.0542623 -1.8342 0
M  V30 3142 H 281.285 2.27042 -3.2445 0
M  V30 3143 H 282.459 -0.246065 -4.60143 0
M  V30 3144 H 280.774 -0.064227 -4.1635 0
M  V30 3145 H 283.371 2.67802 -4.62803 0
M  V30 3146 H 283.714 2.95009 -2.93727 0
M  V30 3147 H 284.247 1.43693 -3.70941 0
M  V30 3148 H 280.986 0.449157 -6.53959 0
M  V30 3149 H 280.506 1.92984 -5.67906 0
M  V30 3150 H 282.185 1.7231 -6.23633 0
M  V30 3151 N 282.317 1.53212 0.369288 0
M  V30 3152 C 283.227 1.82342 1.47609 0
M  V30 3153 C 284.243 0.711532 1.58787 0
M  V30 3154 O 285.419 1.0012 1.74751 0
M  V30 3155 C 282.484 2.00393 2.8292 0
M  V30 3156 C 281.545 3.24297 2.81301 0
M  V30 3157 C 280.778 3.41478 4.10157 0
M  V30 3158 O 281.001 2.63033 5.06132 0
M  V30 3159 O 279.935 4.34817 4.16194 0
M  V30 3160 H 283.761 2.76366 1.25918 0
M  V30 3161 H 281.346 1.38547 0.559034 0
M  V30 3162 H 283.228 2.13859 3.63101 0
M  V30 3163 H 281.903 1.09559 3.04596 0
M  V30 3164 H 280.81 3.16257 1.99831 0
M  V30 3165 H 282.143 4.15041 2.64578 0
M  V30 3166 N 283.795 -0.628877 1.44509 0
M  V30 3167 C 285.02 -1.42048 1.5112 0
M  V30 3168 C 285.445 -1.87594 0.137818 0
M  V30 3169 O 284.803 -1.58873 -0.873437 0
M  V30 3170 C 284.851 -2.61541 2.48251 0
M  V30 3171 O 283.955 -3.61453 1.98559 0
M  V30 3172 H 283.296 -0.424942 0.510216 0
M  V30 3173 H 285.826 -0.767374 1.89664 0
M  V30 3174 H 285.836 -3.09057 2.66361 0
M  V30 3175 H 284.511 -2.27736 3.48007 0
M  V30 3176 H 283.088 -3.20731 1.90227 0
M  V30 3177 N 285.273 -1.31445 -0.869486 0
M  V30 3178 C 286.521 -1.20918 -1.61936 0
M  V30 3179 C 286.842 0.232683 -1.93607 0
M  V30 3180 O 286.112 1.15352 -1.58338 0
M  V30 3181 H 284.692 -0.44454 -0.600328 0
M  V30 3182 H 287.354 -1.64776 -1.0409 0
M  V30 3183 H 286.45 -1.78124 -2.56278 0
M  V30 3184 N 286.751 1.08385 -1.14413 0
M  V30 3185 C 287.976 1.85057 -0.936413 0
M  V30 3186 C 288.401 1.81055 0.509971 0
M  V30 3187 O 287.759 1.1958 1.36273 0
M  V30 3188 C 287.807 3.30505 -1.44217 0
M  V30 3189 O 286.911 4.07491 -0.634409 0
M  V30 3190 H 286.252 0.573425 -0.334784 0
M  V30 3191 H 288.782 1.36799 -1.52142 0
M  V30 3192 H 288.792 3.81348 -1.45043 0
M  V30 3193 H 287.467 3.32734 -2.49522 0
M  V30 3194 H 286.044 3.66368 -0.694902 0
M  V30 3195 N 288.23 0.939286 1.26551 0
M  V30 3196 C 289.479 0.581601 1.93133 0
M  V30 3197 C 289.792 -0.883224 1.74524 0
M  V30 3198 O 290.998 -1.3502 2.35546 0
M  V30 3199 C 289.454 0.989425 3.46032 0
M  V30 3200 C 289.062 2.47573 3.73379 0
M  V30 3201 C 290.806 0.703544 4.18629 0
M  V30 3202 C 288.713 2.82235 5.19709 0
M  V30 3203 H 287.643 0.213803 0.723052 0
M  V30 3204 H 290.294 1.14167 1.4366 0
M  V30 3205 H 288.676 0.357902 3.94379 0
M  V30 3206 H 289.85 3.15614 3.35744 0
M  V30 3207 H 288.165 2.73471 3.1401 0
M  V30 3208 H 290.762 0.938869 5.26393 0
M  V30 3209 H 291.105 -0.359639 4.14744 0
M  V30 3210 H 291.638 1.2947 3.76141 0
M  V30 3211 H 288.377 3.87509 5.28694 0
M  V30 3212 H 287.897 2.18854 5.58447 0
M  V30 3213 H 289.576 2.70599 5.87695 0
M  V30 3214 N 289.708 -1.40897 0.706093 0
M  V30 3215 C 290.618 -2.3455 0.0482286 0
M  V30 3216 C 291.634 -1.56796 -0.754396 0
M  V30 3217 O 292.81 -1.89228 -0.689538 0
M  V30 3218 C 289.875 -3.35625 -0.869303 0
M  V30 3219 C 288.936 -4.29261 -0.0576994 0
M  V30 3220 C 288.169 -5.25508 -0.931531 0
M  V30 3221 O 288.392 -5.27472 -2.17092 0
M  V30 3222 O 287.326 -6.00727 -0.375587 0
M  V30 3223 H 291.152 -2.92407 0.820476 0
M  V30 3224 H 288.737 -1.4193 0.4665 0
M  V30 3225 H 290.619 -3.97635 -1.39514 0
M  V30 3226 H 289.294 -2.80196 -1.62086 0
M  V30 3227 H 288.201 -3.70566 0.512988 0
M  V30 3228 H 289.534 -4.87817 0.655426 0
M  V30 3229 N 291.186 -0.45159 -1.50991 0
M  V30 3230 C 292.416 0.108177 -2.06317 0
M  V30 3231 C 292.824 1.35774 -1.31765 0
M  V30 3232 O 292.167 1.79838 -0.374694 0
M  V30 3233 C 292.229 0.481659 -3.56259 0
M  V30 3234 C 291.893 -0.663114 -4.52163 0
M  V30 3235 C 292.89 -1.53947 -4.96585 0
M  V30 3236 C 290.575 -0.8479 -4.95092 0
M  V30 3237 C 292.569 -2.58518 -5.82621 0
M  V30 3238 C 290.256 -1.89686 -5.80915 0
M  V30 3239 C 291.254 -2.76388 -6.24579 0
M  V30 3240 O 290.942 -3.79482 -7.08695 0
M  V30 3241 H 290.674 0.00499183 -0.675982 0
M  V30 3242 H 293.228 -0.633659 -1.95381 0
M  V30 3243 H 291.458 1.27641 -3.65027 0
M  V30 3244 H 293.147 0.974233 -3.94035 0
M  V30 3245 H 293.913 -1.4083 -4.64103 0
M  V30 3246 H 289.792 -0.18258 -4.60638 0
M  V30 3247 H 293.336 -3.26224 -6.16623 0
M  V30 3248 H 289.233 -2.02817 -6.12809 0
M  V30 3249 H 290.001 -3.76234 -7.26905 0
M  V30 3250 N 292.664 1.56529 -0.183458 0
M  V30 3251 C 293.941 1.88959 0.50536 0
M  V30 3252 C 294.321 1.09523 1.80466 0
M  V30 3253 O 293.669 0.19278 2.27685 0
M  V30 3254 C 293.879 3.41162 0.73547 0
M  V30 3255 C 295.227 4.11155 1.06005 0
M  V30 3256 O 296.251 3.46548 0.823594 0
M  V30 3257 O 295.11 5.25318 1.50675 0
M  V30 3258 H 292.204 0.78441 0.261973 0
M  V30 3259 H 294.75 1.68231 -0.222802 0
M  V30 3260 H 293.522 3.90874 -0.182561 0
M  V30 3261 H 293.145 3.67543 1.51651 0
M  V30 3262 N 294.142 -0.090211 1.57342 0
M  V30 3263 C 295.388 -0.788838 1.8748 0
M  V30 3264 C 295.743 -1.76105 0.7749 0
M  V30 3265 O 295.036 -1.90302 -0.222663 0
M  V30 3266 C 295.23 -1.55222 3.21933 0
M  V30 3267 C 295.059 -0.655441 4.44898 0
M  V30 3268 C 293.829 -0.299325 5.04413 0
M  V30 3269 C 296.027 0.0397458 5.14285 0
M  V30 3270 N 294.009 0.605108 6.10911 0
M  V30 3271 C 295.38 0.802061 6.1479 0
M  V30 3272 C 297.435 0.113154 4.97771 0
M  V30 3273 C 296.138 1.63093 7.00566 0
M  V30 3274 C 298.164 0.928942 5.84059 0
M  V30 3275 C 297.526 1.67936 6.84088 0
M  V30 3276 H 293.625 -0.26467 0.735849 0
M  V30 3277 H 296.209 -0.0511453 1.94633 0
M  V30 3278 H 294.38 -2.26076 3.15823 0
M  V30 3279 H 296.112 -2.19843 3.39781 0
M  V30 3280 H 292.867 -0.648079 4.69145 0
M  V30 3281 H 293.291 1.05002 6.68808 0
M  V30 3282 H 297.933 -0.452676 4.2037 0
M  V30 3283 H 295.651 2.20781 7.77355 0
M  V30 3284 H 299.237 0.988478 5.73341 0
M  V30 3285 H 298.117 2.30044 7.49699 0
M  V30 3286 N 295.62 -1.53406 -0.361157 0
M  V30 3287 C 296.568 -1.80832 -1.46296 0
M  V30 3288 C 297.562 -0.677699 -1.55253 0
M  V30 3289 O 298.768 -0.860723 -1.58087 0
M  V30 3290 H 295.143 -0.572627 -0.487445 0
M  V30 3291 H 297.114 -2.73045 -1.20371 0
M  V30 3292 C 295.863 -2.01907 -2.8307 0
M  V30 3293 H 295.186 -2.88349 -2.76938 0
M  V30 3294 H 296.626 -2.25072 -3.59331 0
M  V30 3295 C 295.085 -0.799449 -3.27277 0
M  V30 3296 O 295.615 0.00971761 -4.01699 0
M  V30 3297 N 293.821 -0.621637 -2.83873 0
M  V30 3298 H 293.368 -1.28126 -2.23476 0
M  V30 3299 H 293.326 0.19298 -3.13807 0
M  V30 3300 N 297.098 0.621204 -1.44841 0
M  V30 3301 C 298.028 1.74366 -1.55303 0
M  V30 3302 C 299.009 1.65199 -0.405385 0
M  V30 3303 O 300.194 1.83807 -0.626787 0
M  V30 3304 C 297.324 3.12931 -1.50637 0
M  V30 3305 C 296.278 3.36896 -2.63979 0
M  V30 3306 C 295.604 4.75594 -2.44366 0
M  V30 3307 C 296.904 3.28483 -4.06074 0
M  V30 3308 H 298.598 1.65867 -2.49256 0
M  V30 3309 H 296.144 0.796558 -1.19962 0
M  V30 3310 H 298.097 3.9124 -1.56555 0
M  V30 3311 H 296.821 3.22237 -0.532057 0
M  V30 3312 H 295.48 2.60972 -2.57467 0
M  V30 3313 H 295.128 4.81616 -1.45105 0
M  V30 3314 H 294.828 4.92586 -3.20364 0
M  V30 3315 H 296.352 5.5612 -2.52117 0
M  V30 3316 H 297.766 3.96684 -4.13902 0
M  V30 3317 H 296.163 3.57008 -4.82354 0
M  V30 3318 H 297.233 2.26133 -4.28943 0
M  V30 3319 N 298.576 1.31904 0.862503 0
M  V30 3320 C 299.804 1.24998 1.64873 0
M  V30 3321 C 300.219 -0.183425 1.87907 0
M  V30 3322 O 299.576 -1.11794 1.44251 0
M  V30 3323 C 299.627 1.99829 3.01248 0
M  V30 3324 O 299.348 3.37575 2.79239 0
M  V30 3325 C 300.849 1.99852 3.95694 0
M  V30 3326 H 298.069 0.431599 0.513773 0
M  V30 3327 H 300.613 1.73901 1.07604 0
M  V30 3328 H 298.768 1.54668 3.55185 0
M  V30 3329 H 299.182 3.75776 3.65914 0
M  V30 3330 H 300.656 2.56709 4.88676 0
M  V30 3331 H 301.133 0.982852 4.28062 0
M  V30 3332 H 301.739 2.44926 3.47694 0
M  V30 3333 N 300.054 -1.07777 1.14986 0
M  V30 3334 C 301.279 -1.84558 0.946213 0
M  V30 3335 C 301.704 -1.81323 -0.500362 0
M  V30 3336 O 301.062 -1.20301 -1.35637 0
M  V30 3337 C 301.11 -3.29736 1.45968 0
M  V30 3338 O 300.214 -4.07149 0.65601 0
M  V30 3339 H 299.555 -0.571641 0.33782 0
M  V30 3340 H 302.085 -1.35991 1.52865 0
M  V30 3341 H 302.095 -3.80574 1.47063 0
M  V30 3342 H 300.77 -3.31406 2.51283 0
M  V30 3343 H 299.347 -3.65994 0.714322 0
M  V30 3344 N 301.532 -0.945985 -1.26051 0
M  V30 3345 C 302.462 -0.477172 -2.28572 0
M  V30 3346 C 303.443 0.472032 -1.63419 0
M  V30 3347 O 304.628 0.372853 -1.90587 0
M  V30 3348 C 301.758 0.253975 -3.4637 0
M  V30 3349 C 300.712 -0.609135 -4.23643 0
M  V30 3350 C 300.038 0.252252 -5.34105 0
M  V30 3351 C 301.338 -1.8829 -4.8718 0
M  V30 3352 H 303.032 -1.33402 -2.68038 0
M  V30 3353 H 300.578 -0.642904 -1.28852 0
M  V30 3354 H 302.531 0.593016 -4.17207 0
M  V30 3355 H 301.255 1.145 -3.05871 0
M  V30 3356 H 299.914 -0.931138 -3.54578 0
M  V30 3357 H 299.562 1.14278 -4.89846 0
M  V30 3358 H 299.262 -0.32188 -5.86718 0
M  V30 3359 H 300.786 0.586454 -6.07777 0
M  V30 3360 H 302.2 -1.61081 -5.50205 0
M  V30 3361 H 300.597 -2.40199 -5.49931 0
M  V30 3362 H 301.667 -2.59134 -4.09851 0
M  V30 3363 N 303.011 1.40521 -0.713556 0
M  V30 3364 C 303.958 2.30723 -0.059684 0
M  V30 3365 C 304.928 1.48079 0.752448 0
M  V30 3366 O 306.113 1.76823 0.71681 0
M  V30 3367 C 303.253 3.34274 0.857594 0
M  V30 3368 C 302.366 4.31986 0.0351536 0
M  V30 3369 C 301.501 5.22605 0.951724 0
M  V30 3370 C 300.54 6.11976 0.123253 0
M  V30 3371 N 299.677 6.9502 0.99459 0
M  V30 3372 H 304.517 2.86074 -0.834596 0
M  V30 3373 H 302.054 1.40879 -0.42326 0
M  V30 3374 H 304.012 3.92879 1.40364 0
M  V30 3375 H 302.642 2.8043 1.59871 0
M  V30 3376 H 301.694 3.7518 -0.628052 0
M  V30 3377 H 303.006 4.95101 -0.606347 0
M  V30 3378 H 302.16 5.86131 1.56638 0
M  V30 3379 H 300.899 4.59759 1.62705 0
M  V30 3380 H 299.904 5.47482 -0.50435 0
M  V30 3381 H 301.129 6.76881 -0.548539 0
M  V30 3382 H 299.075 6.34764 1.6556 0
M  V30 3383 H 298.992 7.54892 0.40908 0
M  V30 3384 H 300.26 7.62997 1.59549 0
M  V30 3385 N 304.489 0.459591 1.5075 0
M  V30 3386 C 305.436 -0.340524 2.28274 0
M  V30 3387 C 306.406 -0.997371 1.32822 0
M  V30 3388 O 307.591 -1.01202 1.61749 0
M  V30 3389 C 304.731 -1.42317 3.14388 0
M  V30 3390 C 303.844 -0.782251 4.24859 0
M  V30 3391 C 302.979 -1.84182 4.98247 0
M  V30 3392 C 302.018 -1.18053 6.00608 0
M  V30 3393 N 301.155 -2.18244 6.67319 0
M  V30 3394 H 305.995 0.326899 2.96202 0
M  V30 3395 H 303.532 0.173057 1.46078 0
M  V30 3396 H 305.49 -2.06241 3.62658 0
M  V30 3397 H 304.12 -2.05992 2.4853 0
M  V30 3398 H 303.172 -0.0307404 3.80388 0
M  V30 3399 H 304.484 -0.259663 4.98124 0
M  V30 3400 H 303.638 -2.55714 5.50177 0
M  V30 3401 H 302.377 -2.39819 4.24662 0
M  V30 3402 H 301.382 -0.450776 5.47949 0
M  V30 3403 H 302.607 -0.631202 6.7616 0
M  V30 3404 H 300.553 -2.72919 5.96533 0
M  V30 3405 H 300.47 -1.70938 7.36421 0
M  V30 3406 H 301.738 -2.89191 7.23871 0
M  V30 3407 N 305.967 -1.56429 0.191757 0
M  V30 3408 C 306.877 -2.22541 -0.742481 0
M  V30 3409 C 307.893 -1.22342 -1.23727 0
M  V30 3410 O 309.069 -1.55069 -1.28513 0
M  V30 3411 C 306.134 -2.8692 -1.94623 0
M  V30 3412 C 305.195 -4.02378 -1.49633 0
M  V30 3413 C 304.428 -4.63678 -2.6427 0
M  V30 3414 O 304.651 -4.23895 -3.81666 0
M  V30 3415 O 303.585 -5.53202 -2.37174 0
M  V30 3416 H 307.411 -3.02977 -0.209462 0
M  V30 3417 H 304.996 -1.49353 -0.0373832 0
M  V30 3418 H 306.878 -3.27663 -2.64982 0
M  V30 3419 H 305.553 -2.09466 -2.46791 0
M  V30 3420 H 304.46 -3.66265 -0.761636 0
M  V30 3421 H 305.793 -4.81487 -1.02134 0
M  V30 3422 N 307.445 0.0818655 -1.57387 0
M  V30 3423 C 308.673 0.796108 -1.9097 0
M  V30 3424 C 309.088 1.71626 -0.786757 0
M  V30 3425 O 308.445 1.80908 0.240513 0
M  V30 3426 C 308.496 1.59829 -3.24248 0
M  V30 3427 O 308.217 0.715131 -4.32224 0
M  V30 3428 C 309.718 2.41442 -3.7178 0
M  V30 3429 H 306.938 0.22691 -0.631469 0
M  V30 3430 H 309.482 0.0551439 -2.04426 0
M  V30 3431 H 307.637 2.29163 -3.12351 0
M  V30 3432 H 308.051 1.27205 -5.08841 0
M  V30 3433 H 309.525 2.932 -4.67694 0
M  V30 3434 H 310.002 3.2051 -3.00283 0
M  V30 3435 H 310.608 1.77283 -3.86589 0
M  V30 3436 N 308.923 1.53595 0.353017 0
M  V30 3437 C 310.148 1.7462 1.11904 0
M  V30 3438 C 310.573 0.479721 1.8188 0
M  V30 3439 O 309.931 -0.567066 1.72204 0
M  V30 3440 C 309.979 2.92029 2.11545 0
M  V30 3441 O 309.083 2.61516 3.18878 0
M  V30 3442 H 308.424 0.579531 0.324099 0
M  V30 3443 H 310.954 2.00525 0.406301 0
M  V30 3444 H 310.964 3.18551 2.5493 0
M  V30 3445 H 309.639 3.83888 1.60008 0
M  V30 3446 H 308.216 2.45852 2.80377 0
M  V30 3447 N 310.401 -0.613514 1.45168 0
M  V30 3448 C 311.812 -1.19539 1.43413 0
M  V30 3449 C 312.163 -1.95558 0.158632 0
M  V30 3450 O 311.288 -2.0335 -0.740119 0
M  V30 3451 C 311.883 -2.17445 2.59813 0
M  V30 3452 C 310.442 -2.71022 2.61197 0
M  V30 3453 C 309.589 -1.46323 2.35552 0
M  V30 3454 H 312.54 -0.403163 1.53494 0
M  V30 3455 H 312.561 -3.00373 2.33574 0
M  V30 3456 H 312.073 -1.62089 3.52631 0
M  V30 3457 H 310.174 -3.30332 1.7237 0
M  V30 3458 H 310.287 -3.15859 3.60236 0
M  V30 3459 H 308.651 -1.75072 1.84992 0
M  V30 3460 H 309.434 -0.92844 3.30507 0
M  V30 3461 N 311.879 -1.3236 -0.855495 0
M  V30 3462 C 312.842 -1.21164 -1.94556 0
M  V30 3463 C 313.842 -0.134908 -1.60233 0
M  V30 3464 O 315.032 -0.385249 -1.69887 0
M  V30 3465 C 312.164 -0.863192 -3.29791 0
M  V30 3466 H 313.357 -2.18038 -2.05911 0
M  V30 3467 H 310.91 -1.16179 -1.04557 0
M  V30 3468 H 311.645 0.103769 -3.24134 0
M  V30 3469 H 311.43 -1.64166 -3.56078 0
M  V30 3470 H 312.92 -0.809156 -4.09686 0
M  V30 3471 N 313.357 1.07166 -1.15556 0
M  V30 3472 C 314.267 2.17947 -0.868116 0
M  V30 3473 C 315.283 1.73297 0.156297 0
M  V30 3474 O 316.459 2.01392 -0.0182327 0
M  V30 3475 C 313.524 3.44789 -0.36355 0
M  V30 3476 C 312.585 4.03996 -1.45209 0
M  V30 3477 C 311.818 5.24783 -0.971508 0
M  V30 3478 O 312.041 5.70109 0.182194 0
M  V30 3479 O 310.975 5.75715 -1.75603 0
M  V30 3480 H 314.801 2.4503 -1.79427 0
M  V30 3481 H 312.386 1.16539 -0.934824 0
M  V30 3482 H 314.268 4.21307 -0.0887113 0
M  V30 3483 H 312.943 3.19253 0.534708 0
M  V30 3484 H 311.85 3.29009 -1.78056 0
M  V30 3485 H 313.183 4.33808 -2.32533 0
M  V30 3486 N 314.835 0.952656 1.25548 0
M  V30 3487 C 316.06 0.623025 1.97821 0
M  V30 3488 C 316.485 -0.7976 1.70352 0
M  V30 3489 O 315.843 -1.53905 0.958283 0
M  V30 3490 C 315.891 0.885532 3.49558 0
M  V30 3491 O 314.995 -0.0366641 4.12384 0
M  V30 3492 H 314.336 0.237082 0.620232 0
M  V30 3493 H 316.866 1.27871 1.59719 0
M  V30 3494 H 316.876 0.811009 3.99858 0
M  V30 3495 H 315.551 1.92094 3.6888 0
M  V30 3496 H 314.128 0.0898954 3.72792 0
M  V30 3497 N 316.313 -1.40141 0.720998 0
M  V30 3498 C 317.26 -2.30688 0.071919 0
M  V30 3499 C 318.23 -1.48476 -0.744584 0
M  V30 3500 O 319.415 -1.77201 -0.707423 0
M  V30 3501 C 316.555 -3.34724 -0.839855 0
M  V30 3502 C 315.668 -4.31998 -0.0122438 0
M  V30 3503 C 314.803 -5.23102 -0.923995 0
M  V30 3504 C 313.842 -6.12033 -0.0907969 0
M  V30 3505 N 312.979 -6.95537 -0.957718 0
M  V30 3506 H 317.819 -2.85628 0.849755 0
M  V30 3507 H 315.356 -1.40653 0.430726 0
M  V30 3508 H 317.314 -3.93618 -1.38279 0
M  V30 3509 H 315.944 -2.81274 -1.58381 0
M  V30 3510 H 314.996 -3.74841 0.64794 0
M  V30 3511 H 316.308 -4.94772 0.632595 0
M  V30 3512 H 315.462 -5.86953 -1.53527 0
M  V30 3513 H 314.201 -4.60615 -1.60264 0
M  V30 3514 H 313.206 -5.47207 0.533377 0
M  V30 3515 H 314.431 -6.76581 0.584428 0
M  V30 3516 H 312.377 -6.35633 -1.62192 0
M  V30 3517 H 312.294 -7.55099 -0.36904 0
M  V30 3518 H 313.562 -7.63832 -1.555 0
M  V30 3519 N 317.792 -0.46758 -1.50504 0
M  V30 3520 C 319.069 0.15003 -1.95024 0
M  V30 3521 C 319.449 1.57304 -1.40779 0
M  V30 3522 O 318.797 2.20281 -0.607319 0
M  V30 3523 C 319.007 0.0969324 -3.48865 0
M  V30 3524 C 320.355 0.287565 -4.23625 0
M  V30 3525 O 321.379 0.173678 -3.55776 0
M  V30 3526 O 320.238 0.517186 -5.44047 0
M  V30 3527 H 317.332 0.113582 -0.819163 0
M  V30 3528 H 319.878 -0.52773 -1.61286 0
M  V30 3529 H 318.65 -0.896732 -3.80886 0
M  V30 3530 H 318.273 0.816303 -3.8913 0
M  V30 3531 N 319.27 1.56325 -0.20005 0
M  V30 3532 C 320.516 1.98772 0.431408 0
M  V30 3533 C 320.871 1.0849 1.58895 0
M  V30 3534 O 320.164 0.130331 1.91156 0
M  V30 3535 C 320.358 3.4495 0.935103 0
M  V30 3536 C 320.187 4.49371 -0.172096 0
M  V30 3537 C 318.957 5.0134 -0.631377 0
M  V30 3538 C 321.155 5.04822 -0.982806 0
M  V30 3539 N 319.137 5.89433 -1.71588 0
M  V30 3540 C 320.508 5.89632 -1.91661 0
M  V30 3541 C 322.563 4.87242 -1.02467 0
M  V30 3542 C 321.266 6.58741 -2.88881 0
M  V30 3543 C 323.292 5.57094 -1.98494 0
M  V30 3544 C 322.654 6.41655 -2.90617 0
M  V30 3545 H 318.753 0.771922 0.125144 0
M  V30 3546 H 321.337 1.92266 -0.306883 0
M  V30 3547 H 319.508 3.51946 1.64282 0
M  V30 3548 H 321.24 3.74354 1.53758 0
M  V30 3549 H 317.995 4.73071 -0.223827 0
M  V30 3550 H 318.419 6.38182 -2.25948 0
M  V30 3551 H 323.061 4.21538 -0.326408 0
M  V30 3552 H 320.779 7.23641 -3.5968 0
M  V30 3553 H 324.365 5.45466 -2.0238 0
M  V30 3554 H 323.245 6.94755 -3.63711 0
M  V30 3555 N 320.748 -0.0735177 1.57428 0
M  V30 3556 C 321.658 -1.10547 2.06922 0
M  V30 3557 C 322.674 -1.42506 0.998402 0
M  V30 3558 O 323.85 -1.52717 1.31299 0
M  V30 3559 C 320.915 -2.40019 2.50184 0
M  V30 3560 C 319.976 -2.15046 3.71556 0
M  V30 3561 C 319.209 -3.38345 4.12745 0
M  V30 3562 O 319.432 -4.47399 3.53822 0
M  V30 3563 O 318.366 -3.2666 5.05546 0
M  V30 3564 H 322.192 -0.715013 2.95163 0
M  V30 3565 H 319.777 -0.287531 1.46607 0
M  V30 3566 H 321.659 -3.16218 2.78539 0
M  V30 3567 H 320.334 -2.78447 1.65072 0
M  V30 3568 H 319.241 -1.36558 3.48285 0
M  V30 3569 H 320.574 -1.81499 4.57514 0
M  V30 3570 N 322.226 -1.5378 -0.344866 0
M  V30 3571 C 323.158 -1.77988 -1.44406 0
M  V30 3572 C 324.171 -0.661138 -1.48771 0
M  V30 3573 O 325.36 -0.937842 -1.51877 0
M  V30 3574 C 322.46 -1.86345 -2.8307 0
M  V30 3575 C 321.633 -3.16256 -3.0216 0
M  V30 3576 C 320.692 -3.15588 -4.21059 0
M  V30 3577 O 319.718 -3.89314 -4.15239 0
M  V30 3578 N 320.92 -2.37864 -5.29529 0
M  V30 3579 H 323.685 -2.72839 -1.24012 0
M  V30 3580 H 321.246 -1.52814 -0.534737 0
M  V30 3581 H 323.238 -1.83351 -3.60783 0
M  V30 3582 H 321.808 -0.986858 -2.96614 0
M  V30 3583 H 321.028 -3.32385 -2.11929 0
M  V30 3584 H 322.316 -4.0207 -3.11797 0
M  V30 3585 H 321.714 -1.77514 -5.37127 0
M  V30 3586 H 320.271 -2.40668 -6.05741 0
M  V30 3587 N 323.704 0.605807 -1.45491 0
M  V30 3588 C 324.932 1.39136 -1.5313 0
M  V30 3589 C 325.347 1.88082 -0.164507 0
M  V30 3590 O 324.704 1.62316 0.834247 0
M  V30 3591 C 324.755 2.59463 -2.51716 0
M  V30 3592 O 324.476 2.12551 -3.83084 0
M  V30 3593 C 325.977 3.52301 -2.6907 0
M  V30 3594 H 323.197 0.425849 -0.51855 0
M  V30 3595 H 325.741 0.73865 -1.90694 0
M  V30 3596 H 323.896 3.20772 -2.17219 0
M  V30 3597 H 324.31 2.90744 -4.36541 0
M  V30 3598 H 325.784 4.33271 -3.42024 0
M  V30 3599 H 326.261 4.02757 -1.75167 0
M  V30 3600 H 326.867 2.96845 -3.04571 0
M  V30 3601 N 325.182 1.32811 0.848464 0
M  V30 3602 C 326.129 1.22265 1.95755 0
M  V30 3603 C 327.099 0.103413 1.65778 0
M  V30 3604 O 328.284 0.280033 1.88734 0
M  V30 3605 C 325.424 0.958014 3.31536 0
M  V30 3606 C 324.537 2.16262 3.73971 0
M  V30 3607 C 323.672 1.83295 4.98575 0
M  V30 3608 C 322.711 3.00041 5.33518 0
M  V30 3609 N 321.848 2.67125 6.49299 0
M  V30 3610 H 326.688 2.17128 2.04107 0
M  V30 3611 H 324.225 1.07982 0.998913 0
M  V30 3612 H 326.183 0.785052 4.09747 0
M  V30 3613 H 324.813 0.046159 3.22767 0
M  V30 3614 H 323.865 2.44565 2.91362 0
M  V30 3615 H 325.177 3.03572 3.95785 0
M  V30 3616 H 324.331 1.62586 5.84509 0
M  V30 3617 H 323.07 0.932078 4.7871 0
M  V30 3618 H 322.075 3.21374 4.46093 0
M  V30 3619 H 323.3 3.90869 5.55336 0
M  V30 3620 H 321.246 1.79586 6.3094 0
M  V30 3621 H 321.163 3.47965 6.71161 0
M  V30 3622 H 322.431 2.49861 7.3837 0
M  V30 3623 N 326.66 -1.06551 1.16123 0
M  V30 3624 C 327.937 -1.76097 0.85142 0
M  V30 3625 C 328.317 -2.00802 -0.6513 0
M  V30 3626 O 327.665 -1.63302 -1.59827 0
M  V30 3627 C 327.875 -3.06384 1.67122 0
M  V30 3628 C 329.223 -3.80585 1.88255 0
M  V30 3629 O 330.247 -3.16218 1.63966 0
M  V30 3630 O 329.106 -4.96212 2.2899 0
M  V30 3631 H 326.2 -0.765102 0.313923 0
M  V30 3632 H 328.746 -1.12844 1.26745 0
M  V30 3633 H 327.518 -2.84071 2.69108 0
M  V30 3634 H 327.141 -3.77371 1.25206 0
M  V30 3635 N 328.138 -0.959301 -1.25041 0
M  V30 3636 C 329.086 -0.474437 -2.2771 0
M  V30 3637 C 330.08 0.457697 -1.631 0
M  V30 3638 O 331.286 0.333912 -1.76876 0
M  V30 3639 H 327.661 -0.134936 -0.739795 0
M  V30 3640 H 329.632 -1.35251 -2.65988 0
M  V30 3641 C 328.381 0.227884 -3.46952 0
M  V30 3642 H 327.704 -0.480248 -3.96905 0
M  V30 3643 H 329.144 0.531091 -4.20661 0
M  V30 3644 C 327.603 1.452 -3.04004 0
M  V30 3645 O 328.133 2.54949 -3.10426 0
M  V30 3646 N 326.339 1.31502 -2.59144 0
M  V30 3647 H 325.886 0.422065 -2.54119 0
M  V30 3648 H 325.844 2.13521 -2.30773 0
M  V30 3649 N 329.616 1.39756 -0.72842 0
M  V30 3650 C 330.563 2.30647 -0.0841519 0
M  V30 3651 C 331.533 1.48869 0.7367 0
M  V30 3652 O 332.718 1.77574 0.698015 0
M  V30 3653 C 329.858 3.35165 0.822091 0
M  V30 3654 C 328.971 4.31999 -0.0106663 0
M  V30 3655 C 328.106 5.23585 0.896241 0
M  V30 3656 C 327.145 6.12072 0.0583381 0
M  V30 3657 N 326.282 6.96035 0.920818 0
M  V30 3658 H 331.122 2.85173 -0.864891 0
M  V30 3659 H 328.659 1.40422 -0.438179 0
M  V30 3660 H 330.617 3.94345 1.36189 0
M  V30 3661 H 329.247 2.8211 1.56888 0
M  V30 3662 H 328.299 3.74492 -0.66781 0
M  V30 3663 H 329.611 4.9443 -0.658825 0
M  V30 3664 H 328.765 5.87759 1.50412 0
M  V30 3665 H 327.504 4.61459 1.57819 0
M  V30 3666 H 326.509 5.46916 -0.562389 0
M  V30 3667 H 327.734 6.76261 -0.6203 0
M  V30 3668 H 325.68 6.36485 1.58818 0
M  V30 3669 H 325.597 7.55284 0.32899 0
M  V30 3670 H 326.865 7.64646 1.51447 0
M  V30 3671 N 331.094 0.475555 1.50254 0
M  V30 3672 C 332.057 -0.305016 2.27161 0
M  V30 3673 C 333.057 -0.916519 1.32123 0
M  V30 3674 O 334.247 -0.785003 1.5551 0
M  V30 3675 C 331.379 -1.43496 3.09227 0
M  V30 3676 H 332.572 0.369511 2.97615 0
M  V30 3677 H 330.125 0.229747 1.54602 0
M  V30 3678 H 330.86 -2.14441 2.43281 0
M  V30 3679 H 330.645 -1.00223 3.79075 0
M  V30 3680 H 332.135 -1.98548 3.67381 0
M  V30 3681 N 332.573 -1.56217 0.208337 0
M  V30 3682 C 333.505 -2.1695 -0.739276 0
M  V30 3683 C 334.518 -1.13492 -1.1672 0
M  V30 3684 O 335.707 -1.40529 -1.10063 0
M  V30 3685 C 332.807 -2.72755 -2.01142 0
M  V30 3686 C 331.98 -4.0125 -1.74118 0
M  V30 3687 C 331.039 -4.41749 -2.85909 0
M  V30 3688 O 330.065 -5.08912 -2.54946 0
M  V30 3689 N 331.267 -4.06342 -4.14568 0
M  V30 3690 H 334.032 -2.98893 -0.219837 0
M  V30 3691 H 331.593 -1.61878 0.0268445 0
M  V30 3692 H 333.585 -2.96826 -2.75094 0
M  V30 3693 H 332.155 -1.95191 -2.4417 0
M  V30 3694 H 331.375 -3.85173 -0.838775 0
M  V30 3695 H 332.663 -4.851 -1.53477 0
M  V30 3696 H 332.061 -3.52345 -4.42571 0
M  V30 3697 H 330.618 -4.35335 -4.85105 0
M  V30 3698 N 334.051 0.0651679 -1.57465 0
M  V30 3699 C 335.328 0.79644 -1.78651 0
M  V30 3700 C 335.708 1.95454 -0.797566 0
M  V30 3701 O 335.056 2.27882 0.167946 0
M  V30 3702 C 335.266 1.26322 -3.25337 0
M  V30 3703 C 336.614 1.6939 -3.89348 0
M  V30 3704 O 337.638 1.35872 -3.29268 0
M  V30 3705 O 336.497 2.31471 -4.95059 0
M  V30 3706 H 333.591 0.382157 -0.733407 0
M  V30 3707 H 336.137 0.0447311 -1.69641 0
M  V30 3708 H 334.909 0.434859 -3.88876 0
M  V30 3709 H 334.532 2.07604 -3.39096 0
M  V30 3710 N 335.529 1.53961 0.336706 0
M  V30 3711 C 336.775 1.7273 1.07406 0
M  V30 3712 C 337.13 0.488095 1.86106 0
M  V30 3713 O 336.423 -0.519379 1.84426 0
M  V30 3714 C 336.617 2.93493 2.03953 0
M  V30 3715 C 336.446 4.29039 1.34744 0
M  V30 3716 C 335.216 4.93416 1.08942 0
M  V30 3717 C 337.414 5.08501 0.770115 0
M  V30 3718 N 335.396 6.12821 0.363864 0
M  V30 3719 C 336.767 6.19752 0.175472 0
M  V30 3720 C 338.822 4.93349 0.671633 0
M  V30 3721 C 337.525 7.17503 -0.508081 0
M  V30 3722 C 339.551 5.914 0.0018076 0
M  V30 3723 C 338.913 7.01993 -0.581835 0
M  V30 3724 H 335.012 0.685026 0.377177 0
M  V30 3725 H 337.596 1.91403 0.356815 0
M  V30 3726 H 335.767 2.76308 2.72962 0
M  V30 3727 H 337.499 3.00949 2.70577 0
M  V30 3728 H 334.254 4.53099 1.37833 0
M  V30 3729 H 334.678 6.76998 0.0156092 0
M  V30 3730 H 339.32 4.08007 1.1086 0
M  V30 3731 H 337.038 8.02414 -0.956918 0
M  V30 3732 H 340.624 5.81753 -0.0738538 0
M  V30 3733 H 339.504 7.76561 -1.09192 0
M  V30 3734 N 337.007 -0.598083 1.45811 0
M  V30 3735 C 337.917 -1.73632 1.57763 0
M  V30 3736 C 338.933 -1.67763 0.461676 0
M  V30 3737 O 340.109 -1.87949 0.723685 0
M  V30 3738 C 337.174 -3.10114 1.55018 0
M  V30 3739 C 336.235 -3.27364 2.77726 0
M  V30 3740 C 335.468 -4.57334 2.75102 0
M  V30 3741 O 335.691 -5.40258 1.8297 0
M  V30 3742 O 334.625 -4.77502 3.66437 0
M  V30 3743 H 338.451 -1.66498 2.53992 0
M  V30 3744 H 336.036 -0.763308 1.28429 0
M  V30 3745 H 337.918 -3.9141 1.56129 0
M  V30 3746 H 336.593 -3.17718 0.619431 0
M  V30 3747 H 335.5 -2.45619 2.82174 0
M  V30 3748 H 336.833 -3.24641 3.69958 0
M  V30 3749 N 338.485 -1.33259 -0.841409 0
M  V30 3750 C 339.432 -1.23302 -1.95103 0
M  V30 3751 C 340.402 -0.112204 -1.65721 0
M  V30 3752 O 341.587 -0.290038 -1.88583 0
M  V30 3753 C 338.727 -0.975583 -3.31023 0
M  V30 3754 C 337.84 -2.18243 -3.72819 0
M  V30 3755 C 336.975 -1.85936 -4.97595 0
M  V30 3756 C 336.014 -3.02866 -5.3192 0
M  V30 3757 N 335.151 -2.70565 -6.47873 0
M  V30 3758 H 339.991 -2.18207 -2.02952 0
M  V30 3759 H 337.528 -1.0851 -0.993173 0
M  V30 3760 H 339.486 -0.80677 -4.09325 0
M  V30 3761 H 338.116 -0.0632755 -3.22738 0
M  V30 3762 H 337.168 -2.46107 -2.90061 0
M  V30 3763 H 338.48 -3.05666 -3.94169 0
M  V30 3764 H 337.634 -1.65684 -5.83638 0
M  V30 3765 H 336.373 -0.957452 -4.78209 0
M  V30 3766 H 335.378 -3.23736 -4.44382 0
M  V30 3767 H 336.603 -3.93809 -5.53255 0
M  V30 3768 H 334.549 -1.8293 -6.29978 0
M  V30 3769 H 334.466 -3.51519 -6.69306 0
M  V30 3770 H 335.734 -2.53774 -7.37034 0
M  V30 3771 N 339.963 1.05934 -1.16686 0
M  V30 3772 C 340.913 2.11764 -0.844978 0
M  V30 3773 C 341.897 1.59922 0.177178 0
M  V30 3774 O 343.089 1.76983 -0.0241768 0
M  V30 3775 C 340.218 3.41493 -0.351812 0
M  V30 3776 C 339.304 4.00152 -1.40496 0
M  V30 3777 N 339.695 4.32874 -2.61636 0
M  V30 3778 C 337.993 4.278 -1.26106 0
M  V30 3779 C 338.694 4.79552 -3.29249 0
M  V30 3780 N 337.67 4.79211 -2.56628 0
M  V30 3781 H 341.472 2.34916 -1.76612 0
M  V30 3782 H 338.986 1.23511 -1.05446 0
M  V30 3783 H 340.983 4.16773 -0.102796 0
M  V30 3784 H 339.643 3.19778 0.56322 0
M  V30 3785 H 340.654 4.23109 -2.98663 0
M  V30 3786 H 337.331 4.15511 -0.407081 0
M  V30 3787 H 338.721 5.14045 -4.32675 0
M  V30 3788 N 341.441 0.965919 1.2453 0
M  V30 3789 C 342.688 0.626831 1.92554 0
M  V30 3790 C 343.016 -0.837739 1.75534 0
M  V30 3791 O 342.271 -1.61793 1.10098 0
M  V30 3792 C 342.57 0.945428 3.44669 0
M  V30 3793 C 342.236 2.39785 3.81856 0
M  V30 3794 C 340.898 2.79483 3.91718 0
M  V30 3795 C 343.25 3.34055 4.00071 0
M  V30 3796 C 340.578 4.12496 4.1721 0
M  V30 3797 C 342.93 4.66694 4.27059 0
M  V30 3798 C 341.594 5.06172 4.3514 0
M  V30 3799 H 340.864 0.229374 0.704605 0
M  V30 3800 H 343.511 1.21707 1.4785 0
M  V30 3801 H 341.816 0.272926 3.90848 0
M  V30 3802 H 343.513 0.661484 3.95507 0
M  V30 3803 H 340.103 2.08003 3.74743 0
M  V30 3804 H 344.287 3.04571 3.91855 0
M  V30 3805 H 339.543 4.42709 4.21685 0
M  V30 3806 H 343.717 5.3971 4.40097 0
M  V30 3807 H 341.344 6.09262 4.54646 0
M  V30 3808 N 342.919 -1.39368 0.735821 0
M  V30 3809 C 343.849 -2.33234 0.111506 0
M  V30 3810 C 344.83 -1.53954 -0.723334 0
M  V30 3811 O 346.015 -1.82344 -0.668147 0
M  V30 3812 C 343.145 -3.38057 -0.795917 0
M  V30 3813 C 342.099 -4.2795 -0.065172 0
M  V30 3814 C 341.425 -5.23479 -1.08967 0
M  V30 3815 C 342.725 -5.10741 1.09273 0
M  V30 3816 H 344.419 -2.85692 0.895571 0
M  V30 3817 H 341.965 -1.37364 0.432109 0
M  V30 3818 H 343.918 -4.02675 -1.24221 0
M  V30 3819 H 342.642 -2.8404 -1.61211 0
M  V30 3820 H 341.301 -3.64813 0.361511 0
M  V30 3821 H 340.949 -4.65758 -1.89944 0
M  V30 3822 H 340.649 -5.84472 -0.605489 0
M  V30 3823 H 342.173 -5.90974 -1.53565 0
M  V30 3824 H 343.587 -5.68699 0.724841 0
M  V30 3825 H 341.984 -5.8088 1.50659 0
M  V30 3826 H 343.054 -4.45525 1.91404 0
M  V30 3827 N 344.397 -0.483516 -1.5 0
M  V30 3828 C 345.674 0.129337 -1.95172 0
M  V30 3829 C 346.054 1.55802 -1.4244 0
M  V30 3830 O 345.402 2.19625 -0.630649 0
M  V30 3831 C 345.612 0.0599251 -3.48949 0
M  V30 3832 C 346.96 0.242617 -4.23906 0
M  V30 3833 O 347.984 0.135933 -3.55941 0
M  V30 3834 O 346.843 0.459454 -5.44565 0
M  V30 3835 H 343.937 0.104887 -0.820322 0
M  V30 3836 H 346.483 -0.544807 -1.60717 0
M  V30 3837 H 345.255 -0.937079 -3.79914 0
M  V30 3838 H 344.878 0.774984 -3.89974 0
M  V30 3839 N 345.875 1.56104 -0.216619 0
M  V30 3840 C 346.838 2.18819 0.681962 0
M  V30 3841 C 347.838 1.14866 1.12528 0
M  V30 3842 O 349.028 1.40128 1.03488 0
M  V30 3843 C 346.16 2.80756 1.93362 0
M  V30 3844 H 347.353 2.99595 0.135254 0
M  V30 3845 H 344.906 1.56265 0.0330003 0
M  V30 3846 H 345.641 2.03837 2.52232 0
M  V30 3847 H 345.426 3.56876 1.62426 0
M  V30 3848 H 346.916 3.28844 2.57393 0
M  V30 3849 N 347.353 -0.0568162 1.57498 0
M  V30 3850 C 348.578 -0.769402 1.92601 0
M  V30 3851 C 349.003 -1.69559 0.814336 0
M  V30 3852 O 348.361 -1.79811 -0.231903 0
M  V30 3853 C 348.409 -1.52634 3.26704 0
M  V30 3854 O 347.513 -2.63797 3.16994 0
M  V30 3855 H 346.854 -0.208909 0.63028 0
M  V30 3856 H 349.384 -0.0205798 2.0459 0
M  V30 3857 H 349.394 -1.90234 3.60936 0
M  V30 3858 H 348.069 -0.846875 4.07186 0
M  V30 3859 H 346.646 -2.28943 2.94346 0
M  V30 3860 N 348.832 -1.54138 -0.328536 0
M  V30 3861 C 350.06 -1.76062 -1.08673 0
M  V30 3862 C 350.475 -0.506852 -1.81869 0
M  V30 3863 O 349.832 0.522223 -1.74869 0
M  V30 3864 C 349.883 -2.95054 -2.08866 0
M  V30 3865 O 349.604 -4.15583 -1.38644 0
M  V30 3866 C 351.105 -3.2915 -2.96943 0
M  V30 3867 H 348.325 -0.587889 -0.323461 0
M  V30 3868 H 350.869 -2.0101 -0.376175 0
M  V30 3869 H 349.024 -2.72394 -2.75464 0
M  V30 3870 H 349.438 -4.82481 -2.05699 0
M  V30 3871 H 350.912 -4.15723 -3.63151 0
M  V30 3872 H 351.389 -2.461 -3.63774 0
M  V30 3873 H 351.995 -3.53871 -2.35914 0
M  V30 3874 N 350.31 0.590341 -1.46126 0
M  V30 3875 C 351.535 1.37991 -1.54833 0
M  V30 3876 C 351.96 1.87163 -0.187506 0
M  V30 3877 O 351.318 1.61133 0.831008 0
M  V30 3878 C 351.366 2.54867 -2.55098 0
M  V30 3879 O 350.47 3.56061 -2.08073 0
M  V30 3880 H 349.811 0.411265 -0.521303 0
M  V30 3881 H 352.341 0.716819 -1.91632 0
M  V30 3882 H 352.351 3.01886 -2.74461 0
M  V30 3883 H 351.026 2.18429 -3.53923 0
M  V30 3884 H 349.603 3.15574 -1.98664 0
M  V30 3885 N 351.788 1.33704 0.83433 0
M  V30 3886 C 352.735 1.24335 1.94447 0
M  V30 3887 C 353.705 0.120991 1.65659 0
M  V30 3888 O 354.89 0.300035 1.88426 0
M  V30 3889 C 352.03 0.993124 3.30501 0
M  V30 3890 C 351.143 2.20217 3.71657 0
M  V30 3891 C 350.278 1.88572 4.96602 0
M  V30 3892 C 349.317 3.05683 5.30306 0
M  V30 3893 N 348.454 2.73997 6.46429 0
M  V30 3894 H 353.294 2.1928 2.01792 0
M  V30 3895 H 350.831 1.09035 0.987404 0
M  V30 3896 H 352.789 0.828467 4.08892 0
M  V30 3897 H 351.419 0.0803902 3.227 0
M  V30 3898 H 350.471 2.47642 2.88752 0
M  V30 3899 H 351.783 3.07752 3.92543 0
M  V30 3900 H 350.937 1.68776 5.82752 0
M  V30 3901 H 349.676 0.982799 4.77695 0
M  V30 3902 H 348.681 3.26088 4.42659 0
M  V30 3903 H 349.906 3.96737 5.51159 0
M  V30 3904 H 347.852 1.86268 6.28999 0
M  V30 3905 H 347.769 3.55064 6.67432 0
M  V30 3906 H 349.037 2.57679 7.35678 0
M  V30 3907 N 353.266 -1.05314 1.17247 0
M  V30 3908 C 354.198 -2.13023 0.845812 0
M  V30 3909 C 355.211 -1.62096 -0.151246 0
M  V30 3910 O 356.4 -1.78343 0.0748818 0
M  V30 3911 C 353.5 -3.38047 0.240292 0
M  V30 3912 C 352.673 -4.18255 1.27991 0
M  V30 3913 C 351.732 -5.21625 0.692375 0
M  V30 3914 O 350.758 -5.52619 1.36385 0
M  V30 3915 N 351.96 -5.78201 -0.516178 0
M  V30 3916 H 354.725 -2.41642 1.77283 0
M  V30 3917 H 352.286 -1.21401 1.07115 0
M  V30 3918 H 354.278 -4.04359 -0.16603 0
M  V30 3919 H 352.848 -3.06972 -0.590487 0
M  V30 3920 H 352.068 -3.47451 1.86203 0
M  V30 3921 H 353.356 -4.68643 1.98119 0
M  V30 3922 H 352.754 -5.55301 -1.07969 0
M  V30 3923 H 351.311 -6.4604 -0.86458 0
M  V30 3924 N 354.744 -0.972509 -1.24016 0
M  V30 3925 C 355.969 -0.654417 -1.96805 0
M  V30 3926 C 356.394 0.770398 -1.716 0
M  V30 3927 O 355.752 1.52361 -0.982647 0
M  V30 3928 C 355.8 -0.941031 -3.48105 0
M  V30 3929 O 354.904 -0.0289472 -4.1239 0
M  V30 3930 H 354.245 -0.24692 -0.616382 0
M  V30 3931 H 356.775 -1.30396 -1.57664 0
M  V30 3932 H 356.785 -0.87452 -3.98517 0
M  V30 3933 H 355.46 -1.97939 -3.65777 0
M  V30 3934 H 354.037 -0.149192 -3.72601 0
M  V30 3935 N 356.222 1.38976 -0.743202 0
M  V30 3936 C 357.499 1.94351 -0.220705 0
M  V30 3937 C 357.879 1.67935 1.2791 0
M  V30 3938 O 357.227 1.01211 2.04862 0
M  V30 3939 C 357.437 3.44426 -0.563171 0
M  V30 3940 C 358.785 4.2144 -0.517046 0
M  V30 3941 O 359.809 3.52661 -0.500846 0
M  V30 3942 O 358.668 5.44032 -0.518806 0
M  V30 3943 H 355.762 0.825879 -0.043047 0
M  V30 3944 H 358.308 1.48429 -0.822618 0
M  V30 3945 H 357.08 3.5712 -1.59941 0
M  V30 3946 H 356.703 3.97543 0.0672883 0
M  V30 3947 N 357.7 0.491464 1.49741 0
M  V30 3948 C 358.946 -0.0485431 2.03342 0
M  V30 3949 C 359.301 -1.35566 1.36527 0
M  V30 3950 O 358.594 -1.85262 0.488729 0
M  V30 3951 C 358.788 -0.267329 3.56399 0
M  V30 3952 C 358.617 1.01703 4.38049 0
M  V30 3953 C 357.387 1.56614 4.80417 0
M  V30 3954 C 359.585 1.91782 4.77204 0
M  V30 3955 N 357.567 2.7974 5.4646 0
M  V30 3956 C 358.938 2.99489 5.42868 0
M  V30 3957 C 360.993 1.92575 4.5915 0
M  V30 3958 C 359.696 4.08005 5.92389 0
M  V30 3959 C 361.722 3.0006 5.09626 0
M  V30 3960 C 361.084 4.06485 5.75282 0
M  V30 3961 H 357.183 0.0227779 0.781668 0
M  V30 3962 H 359.767 0.664204 1.8302 0
M  V30 3963 H 357.938 -0.949126 3.76625 0
M  V30 3964 H 359.67 -0.803492 3.96644 0
M  V30 3965 H 356.425 1.11256 4.60347 0
M  V30 3966 H 356.849 3.42323 5.84075 0
M  V30 3967 H 361.491 1.11605 4.07804 0
M  V30 3968 H 359.209 4.89779 6.42761 0
M  V30 3969 H 362.795 3.01681 4.97473 0
M  V30 3970 H 361.675 4.88287 6.13633 0
M  V30 3971 N 359.178 -1.55987 0.224894 0
M  V30 3972 C 360.126 -2.21808 -0.700283 0
M  V30 3973 C 361.12 -1.19854 -1.19714 0
M  V30 3974 O 362.326 -1.37925 -1.15658 0
M  V30 3975 H 358.701 -0.711226 -0.244258 0
M  V30 3976 H 360.672 -2.98152 -0.121749 0
M  V30 3977 C 359.421 -2.91444 -1.8962 0
M  V30 3978 H 358.744 -3.69655 -1.52299 0
M  V30 3979 H 360.184 -3.40894 -2.52125 0
M  V30 3980 C 358.643 -1.94098 -2.75368 0
M  V30 3981 O 359.173 -1.46004 -3.74227 0
M  V30 3982 N 357.379 -1.61675 -2.41474 0
M  V30 3983 H 356.926 -2.00979 -1.61137 0
M  V30 3984 H 356.884 -0.968036 -2.99126 0
M  V30 3985 N 360.656 0.0484629 -1.57525 0
M  V30 3986 C 361.904 0.741657 -1.88 0
M  V30 3987 C 362.225 1.76918 -0.820054 0
M  V30 3988 O 361.495 1.95335 0.148661 0
M  V30 3989 H 360.075 0.276908 -0.69378 0
M  V30 3990 H 362.737 0.019013 -1.94891 0
M  V30 3991 H 361.833 1.24336 -2.86264 0
M  V30 3992 N 362.134 1.5431 0.320358 0
M  V30 3993 C 363.411 1.63322 1.07635 0
M  V30 3994 C 363.791 0.46912 2.05821 0
M  V30 3995 O 363.139 -0.536274 2.22118 0
M  V30 3996 C 363.349 3.00465 1.77544 0
M  V30 3997 C 364.697 3.56621 2.30449 0
M  V30 3998 O 365.721 3.02791 1.87606 0
M  V30 3999 O 364.58 4.5083 3.08892 0
M  V30 4000 H 361.674 0.661502 0.496331 0
M  V30 4001 H 364.22 1.66656 0.319992 0
M  V30 4002 H 362.992 3.76629 1.06143 0
M  V30 4003 H 362.615 3.00824 2.59982 0
M  V30 4004 N 363.613 -0.582584 1.46437 0
M  V30 4005 C 364.543 -1.70187 1.59871 0
M  V30 4006 C 365.524 -1.64066 0.449042 0
M  V30 4007 O 366.709 -1.82081 0.6753 0
M  V30 4008 C 363.839 -3.08827 1.58881 0
M  V30 4009 C 362.793 -3.29779 2.72819 0
M  V30 4010 C 362.119 -4.68947 2.5689 0
M  V30 4011 C 363.419 -3.17601 4.1464 0
M  V30 4012 H 365.113 -1.592 2.53566 0
M  V30 4013 H 362.659 -0.764472 1.22032 0
M  V30 4014 H 364.612 -3.86951 1.66873 0
M  V30 4015 H 363.336 -3.20713 0.617306 0
M  V30 4016 H 361.995 -2.54054 2.64296 0
M  V30 4017 H 361.643 -4.77599 1.57823 0
M  V30 4018 H 361.343 -4.83919 3.33312 0
M  V30 4019 H 362.867 -5.4924 2.66773 0
M  V30 4020 H 364.281 -3.8557 4.24274 0
M  V30 4021 H 362.678 -3.44094 4.9165 0
M  V30 4022 H 363.748 -2.14681 4.34788 0
M  V30 4023 N 365.091 -1.34144 -0.827227 0
M  V30 4024 C 366.368 -1.16844 -1.56865 0
M  V30 4025 C 366.748 0.260654 -2.09485 0
M  V30 4026 O 366.096 1.26138 -1.9053 0
M  V30 4027 C 366.306 -2.21939 -2.6934 0
M  V30 4028 C 367.654 -2.56695 -3.3822 0
M  V30 4029 O 368.678 -2.20695 -2.79593 0
M  V30 4030 O 367.537 -3.18518 -4.44082 0
M  V30 4031 H 364.631 -0.452669 -0.692112 0
M  V30 4032 H 367.177 -1.45763 -0.868973 0
M  V30 4033 H 365.949 -3.17882 -2.28182 0
M  V30 4034 H 365.572 -1.94172 -3.46962 0
M  V30 4035 N 366.569 1.04691 -1.17803 0
M  V30 4036 C 367.817 1.7743 -0.967617 0
M  V30 4037 C 368.138 1.88359 0.504574 0
M  V30 4038 O 367.408 1.40402 1.36617 0
M  V30 4039 H 365.988 0.657242 -0.355024 0
M  V30 4040 H 368.65 1.2638 -1.48371 0
M  V30 4041 H 367.746 2.78924 -1.40027 0
M  V30 4042 N 368.047 0.979072 1.23499 0
M  V30 4043 C 369.324 0.563674 1.87302 0
M  V30 4044 C 369.704 -0.959199 1.88049 0
M  V30 4045 O 369.052 -1.83535 1.36114 0
M  V30 4046 C 369.262 1.16822 3.28867 0
M  V30 4047 C 370.61 1.26014 4.0547 0
M  V30 4048 O 371.634 1.12158 3.38082 0
M  V30 4049 O 370.493 1.48044 5.26066 0
M  V30 4050 H 367.587 0.189602 0.804972 0
M  V30 4051 H 370.133 1.07407 1.31384 0
M  V30 4052 H 368.905 2.21049 3.22883 0
M  V30 4053 H 368.528 0.642564 3.92373 0
M  V30 4054 N 369.525 -1.3858 0.750561 0
M  V30 4055 C 370.771 -2.0095 0.31477 0
M  V30 4056 C 371.126 -1.58509 -1.09053 0
M  V30 4057 O 370.419 -0.8112 -1.7358 0
M  V30 4058 C 370.613 -3.55455 0.372373 0
M  V30 4059 C 370.442 -4.12898 1.78173 0
M  V30 4060 C 369.212 -4.44797 2.39757 0
M  V30 4061 C 371.41 -4.35366 2.7379 0
M  V30 4062 N 369.392 -4.87831 3.72685 0
M  V30 4063 C 370.763 -4.80775 3.91478 0
M  V30 4064 C 372.818 -4.1746 2.71351 0
M  V30 4065 C 371.521 -5.10155 5.07084 0
M  V30 4066 C 373.547 -4.47963 3.86113 0
M  V30 4067 C 372.909 -4.93593 5.02539 0
M  V30 4068 H 369.008 -0.765083 0.161776 0
M  V30 4069 H 371.592 -1.68246 0.979867 0
M  V30 4070 H 369.763 -3.87512 -0.26244 0
M  V30 4071 H 371.495 -4.04614 -0.0834479 0
M  V30 4072 H 368.25 -4.33135 1.91548 0
M  V30 4073 H 368.674 -5.13685 4.40972 0
M  V30 4074 H 373.316 -3.81372 1.82524 0
M  V30 4075 H 371.034 -5.45141 5.96529 0
M  V30 4076 H 374.62 -4.35717 3.85542 0
M  V30 4077 H 373.5 -5.16746 5.89867 0
M  V30 4078 N 371.003 -0.499398 -1.49478 0
M  V30 4079 C 372.414 -0.051215 -1.8663 0
M  V30 4080 C 372.765 1.36238 -1.41186 0
M  V30 4081 O 371.89 2.01502 -0.789051 0
M  V30 4082 C 372.485 -0.0861651 -3.3869 0
M  V30 4083 C 371.044 0.30667 -3.75149 0
M  V30 4084 C 370.191 -0.459397 -2.73468 0
M  V30 4085 H 373.142 -0.712264 -1.41818 0
M  V30 4086 H 373.163 0.709507 -3.73826 0
M  V30 4087 H 372.675 -1.11512 -3.71735 0
M  V30 4088 H 370.776 1.33892 -3.47712 0
M  V30 4089 H 370.889 -0.0116669 -4.79099 0
M  V30 4090 H 369.253 0.0905645 -2.54539 0
M  V30 4091 H 370.036 -1.4884 -3.09357 0
M  V30 4092 N 372.481 1.55866 -0.233164 0
M  V30 4093 C 373.444 2.1953 0.658715 0
M  V30 4094 C 374.444 1.16053 1.11303 0
M  V30 4095 O 375.634 1.41218 1.01996 0
M  V30 4096 C 372.766 2.82791 1.90373 0
M  V30 4097 H 373.959 2.99721 0.10347 0
M  V30 4098 H 371.512 1.56291 0.0164245 0
M  V30 4099 H 372.247 2.06501 2.50056 0
M  V30 4100 H 372.032 3.58578 1.58632 0
M  V30 4101 H 373.522 3.31556 2.53891 0
M  V30 4102 N 373.959 -0.0401083 1.57549 0
M  V30 4103 C 375.37 -0.588097 1.77196 0
M  V30 4104 C 375.721 -1.76209 0.862832 0
M  V30 4105 O 374.846 -2.16331 0.0548389 0
M  V30 4106 C 375.441 -1.07363 3.21339 0
M  V30 4107 C 374 -1.56723 3.42221 0
M  V30 4108 C 373.147 -0.50041 2.72747 0
M  V30 4109 H 376.098 0.186119 1.57605 0
M  V30 4110 H 376.119 -1.94143 3.27244 0
M  V30 4111 H 375.631 -0.218975 3.87482 0
M  V30 4112 H 373.732 -2.4441 2.81237 0
M  V30 4113 H 373.845 -1.62234 4.50796 0
M  V30 4114 H 372.209 -0.952894 2.36203 0
M  V30 4115 H 372.992 0.344599 3.41566 0
M  V30 4116 N 375.437 -1.54477 -0.31217 0
M  V30 4117 C 376.37 -1.79519 -1.40884 0
M  V30 4118 C 377.348 -0.645753 -1.49227 0
M  V30 4119 O 378.532 -0.884468 -1.66461 0
M  V30 4120 C 375.659 -1.92194 -2.78889 0
M  V30 4121 C 374.705 -3.14555 -2.88023 0
M  V30 4122 S 375.538 -4.72893 -2.51262 0
M  V30 4123 C 376.694 -4.8849 -3.91317 0
M  V30 4124 H 376.927 -2.72256 -1.19432 0
M  V30 4125 H 374.46 -1.45746 -0.509654 0
M  V30 4126 H 376.418 -2.00182 -3.58382 0
M  V30 4127 H 375.079 -1.00414 -2.97617 0
M  V30 4128 H 374.272 -3.20193 -3.89221 0
M  V30 4129 H 373.874 -3.04955 -2.16514 0
M  V30 4130 H 376.166 -4.71826 -4.86196 0
M  V30 4131 H 377.109 -5.90588 -3.90656 0
M  V30 4132 H 377.517 -4.16715 -3.80801 0
M  V30 4133 N 376.915 0.57481 -1.46744 0
M  V30 4134 C 377.845 1.69337 -1.60771 0
M  V30 4135 C 378.826 1.63825 -0.457736 0
M  V30 4136 O 380.011 1.8172 -0.684947 0
M  V30 4137 C 377.141 3.0798 -1.60517 0
M  V30 4138 C 376.095 3.28327 -2.74564 0
M  V30 4139 C 375.421 4.67578 -2.59373 0
M  V30 4140 C 376.721 3.15398 -4.16319 0
M  V30 4141 H 378.415 1.57853 -2.54407 0
M  V30 4142 H 375.961 0.75799 -1.22436 0
M  V30 4143 H 377.914 3.86061 -1.68923 0
M  V30 4144 H 376.638 3.20381 -0.634305 0
M  V30 4145 H 375.297 2.52649 -2.65639 0
M  V30 4146 H 374.945 4.76755 -1.60353 0
M  V30 4147 H 374.645 4.82144 -3.35873 0
M  V30 4148 H 376.169 5.47817 -2.69682 0
M  V30 4149 H 377.583 3.83315 -4.26313 0
M  V30 4150 H 375.98 3.41482 -4.93468 0
M  V30 4151 H 377.05 2.12372 -4.3592 0
M  V30 4152 N 378.394 1.34581 0.820102 0
M  V30 4153 C 379.326 1.22236 1.93884 0
M  V30 4154 C 380.339 0.148776 1.62119 0
M  V30 4155 O 381.528 0.400877 1.7394 0
M  V30 4156 C 378.628 0.856542 3.27897 0
M  V30 4157 C 377.801 2.02569 3.87666 0
M  V30 4158 C 376.86 1.63782 5.00062 0
M  V30 4159 O 375.886 2.35477 5.18208 0
M  V30 4160 N 377.088 0.553611 5.77854 0
M  V30 4161 H 379.853 2.18615 2.05006 0
M  V30 4162 H 377.414 1.27573 0.99683 0
M  V30 4163 H 379.406 0.578806 4.0054 0
M  V30 4164 H 377.976 -0.0171518 3.12595 0
M  V30 4165 H 377.196 2.468 3.07382 0
M  V30 4166 H 378.484 2.80752 4.24329 0
M  V30 4167 H 377.882 -0.0423528 5.65684 0
M  V30 4168 H 376.439 0.335614 6.50935 0
M  V30 4169 N 379.872 -1.04064 1.18357 0
M  V30 4170 C 380.819 -2.12077 0.910603 0
M  V30 4171 C 381.789 -1.65421 -0.15 0
M  V30 4172 O 382.974 -1.90797 -0.0103614 0
M  V30 4173 C 380.114 -3.42252 0.442472 0
M  V30 4174 C 379.227 -4.0252 1.5685 0
M  V30 4175 C 378.362 -5.20657 1.05309 0
M  V30 4176 C 377.401 -5.72955 2.1538 0
M  V30 4177 N 376.538 -6.8238 1.65233 0
M  V30 4178 H 381.378 -2.34764 1.83548 0
M  V30 4179 H 378.915 -1.15157 0.915279 0
M  V30 4180 H 380.873 -4.16921 0.152534 0
M  V30 4181 H 379.503 -3.19712 -0.445428 0
M  V30 4182 H 378.555 -3.25178 1.97391 0
M  V30 4183 H 379.867 -4.37362 2.39824 0
M  V30 4184 H 379.021 -6.0244 0.717677 0
M  V30 4185 H 377.76 -4.87318 0.19293 0
M  V30 4186 H 376.765 -4.89793 2.49766 0
M  V30 4187 H 377.99 -6.08337 3.01832 0
M  V30 4188 H 375.936 -6.50917 0.815064 0
M  V30 4189 H 375.853 -7.16286 2.41805 0
M  V30 4190 H 377.121 -7.67788 1.34619 0
M  V30 4191 N 381.35 -0.985608 -1.22978 0
M  V30 4192 C 382.761 -0.693593 -1.73338 0
M  V30 4193 C 383.112 0.789935 -1.79595 0
M  V30 4194 O 382.237 1.61771 -1.43733 0
M  V30 4195 C 382.832 -1.25235 -3.14804 0
M  V30 4196 C 381.391 -1.00987 -3.626 0
M  V30 4197 C 380.538 -1.37695 -2.40698 0
M  V30 4198 H 383.489 -1.15884 -1.08428 0
M  V30 4199 H 383.51 -0.627329 -3.75293 0
M  V30 4200 H 383.022 -2.33209 -3.10218 0
M  V30 4201 H 381.123 0.0535565 -3.72562 0
M  V30 4202 H 381.236 -1.66812 -4.49122 0
M  V30 4203 H 379.6 -0.795459 -2.4196 0
M  V30 4204 H 380.383 -2.46657 -2.38779 0
M  V30 4205 N 382.828 1.3818 -0.7579 0
M  V30 4206 C 384.239 1.82726 -0.383134 0
M  V30 4207 C 384.59 1.63214 1.08884 0
M  V30 4208 O 383.715 1.13566 1.84205 0
M  V30 4209 C 384.31 3.31728 -0.688631 0
M  V30 4210 C 382.869 3.74606 -0.367091 0
M  V30 4211 C 382.016 2.60896 -0.939599 0
M  V30 4212 H 384.967 1.26847 -0.953699 0
M  V30 4213 H 384.988 3.80487 0.0316492 0
M  V30 4214 H 384.5 3.45898 -1.76001 0
M  V30 4215 H 382.601 3.66013 0.697532 0
M  V30 4216 H 382.714 4.71215 -0.865658 0
M  V30 4217 H 381.078 2.52075 -0.3647 0
M  V30 4218 H 381.861 2.77864 -2.0161 0
M  V30 4219 N 384.306 0.507319 1.49211 0
M  V30 4220 C 385.536 -0.0315292 2.06576 0
M  V30 4221 C 385.944 -1.30791 1.36713 0
M  V30 4222 O 385.287 -1.78324 0.441181 0
M  V30 4223 C 385.349 -0.349104 3.57801 0
M  V30 4224 C 385.013 0.830475 4.49391 0
M  V30 4225 C 386.01 1.72271 4.90529 0
M  V30 4226 C 383.695 1.03107 4.91604 0
M  V30 4227 C 385.689 2.79964 5.72625 0
M  V30 4228 C 383.376 2.11116 5.73475 0
M  V30 4229 C 384.374 2.99379 6.1389 0
M  V30 4230 O 384.062 4.05523 6.94123 0
M  V30 4231 H 383.794 0.0201002 0.675701 0
M  V30 4232 H 386.348 0.705737 1.92895 0
M  V30 4233 H 384.578 -1.14005 3.69513 0
M  V30 4234 H 386.267 -0.827319 3.97379 0
M  V30 4235 H 387.033 1.57958 4.58557 0
M  V30 4236 H 382.912 0.353417 4.59643 0
M  V30 4237 H 386.456 3.48884 6.04091 0
M  V30 4238 H 382.353 2.25421 6.0486 0
M  V30 4239 H 383.121 4.02953 7.1244 0
M  V30 4240 N 385.784 -1.5574 0.241426 0
M  V30 4241 C 386.716 -2.18469 -0.693091 0
M  V30 4242 C 387.729 -1.15942 -1.14286 0
M  V30 4243 O 388.918 -1.42832 -1.07058 0
M  V30 4244 C 386.018 -2.7696 -1.95311 0
M  V30 4245 C 385.191 -4.04853 -1.65568 0
M  V30 4246 C 384.25 -4.47715 -2.76474 0
M  V30 4247 O 383.276 -5.14205 -2.44094 0
M  V30 4248 N 384.478 -4.15044 -4.05855 0
M  V30 4249 H 387.243 -2.99292 -0.156388 0
M  V30 4250 H 384.804 -1.61784 0.0611752 0
M  V30 4251 H 386.796 -3.02594 -2.68736 0
M  V30 4252 H 385.366 -2.00326 -2.39975 0
M  V30 4253 H 384.586 -3.86865 -0.756886 0
M  V30 4254 H 385.874 -4.88246 -1.43153 0
M  V30 4255 H 385.272 -3.61654 -4.34998 0
M  V30 4256 H 383.829 -4.45526 -4.75762 0
M  V30 4257 N 387.262 0.0317525 -1.57568 0
M  V30 4258 C 388.539 0.758366 -1.803 0
M  V30 4259 C 388.919 1.93718 -0.838845 0
M  V30 4260 O 388.267 2.28187 0.119571 0
M  V30 4261 C 388.477 1.19392 -3.27943 0
M  V30 4262 C 389.825 1.61094 -3.92854 0
M  V30 4263 O 390.849 1.28857 -3.32076 0
M  V30 4264 O 389.708 2.20918 -4.99858 0
M  V30 4265 H 386.802 0.366514 -0.741348 0
M  V30 4266 H 389.348 0.00873765 -1.69698 0
M  V30 4267 H 388.12 0.352275 -3.89711 0
M  V30 4268 H 387.743 2.00365 -3.43424 0
M  V30 4269 N 388.74 1.54641 0.303973 0
M  V30 4270 C 389.988 1.73437 1.0375 0
M  V30 4271 C 390.309 0.521449 1.87899 0
M  V30 4272 O 389.579 -0.46432 1.90318 0
M  V30 4273 H 388.159 0.639518 0.386039 0
M  V30 4274 H 390.821 1.91988 0.335675 0
M  V30 4275 H 389.917 2.62235 1.69231 0
M  V30 4276 N 390.218 -0.567019 1.47046 0
M  V30 4277 C 391.148 -1.68482 1.61667 0
M  V30 4278 C 392.129 -1.6358 0.466418 0
M  V30 4279 O 393.314 -1.81354 0.694574 0
M  V30 4280 C 390.444 -3.07124 1.62148 0
M  V30 4281 C 389.398 -3.26867 2.76301 0
M  V30 4282 C 388.724 -4.66196 2.61849 0
M  V30 4283 C 390.024 -3.13186 4.17986 0
M  V30 4284 H 391.718 -1.56502 2.5524 0
M  V30 4285 H 389.264 -0.751486 1.22836 0
M  V30 4286 H 391.217 -3.8516 1.70968 0
M  V30 4287 H 389.941 -3.2004 0.651287 0
M  V30 4288 H 388.6 -2.51237 2.66975 0
M  V30 4289 H 388.248 -4.75898 1.62879 0
M  V30 4290 H 387.948 -4.80356 3.38425 0
M  V30 4291 H 389.472 -5.46379 2.72584 0
M  V30 4292 H 390.886 -3.81049 4.2834 0
M  V30 4293 H 389.283 -3.3886 4.95272 0
M  V30 4294 H 390.353 -2.10057 4.3704 0
M  V30 4295 N 391.696 -1.35014 -0.812953 0
M  V30 4296 C 392.643 -1.27412 -1.92444 0
M  V30 4297 C 393.613 -0.14733 -1.65445 0
M  V30 4298 O 394.798 -0.329974 -1.87925 0
M  V30 4299 C 391.938 -1.04558 -3.28879 0
M  V30 4300 C 391.051 -2.26101 -3.68106 0
M  V30 4301 C 390.186 -1.96449 -4.9354 0
M  V30 4302 C 389.225 -3.14081 -5.25376 0
M  V30 4303 N 388.362 -2.84246 -6.41988 0
M  V30 4304 H 393.202 -2.22463 -1.98278 0
M  V30 4305 H 390.739 -1.10593 -0.969933 0
M  V30 4306 H 392.697 -0.893413 -4.07522 0
M  V30 4307 H 391.327 -0.131719 -3.22531 0
M  V30 4308 H 390.379 -2.52204 -2.84775 0
M  V30 4309 H 391.691 -3.13959 -3.87597 0
M  V30 4310 H 390.845 -1.78026 -5.79993 0
M  V30 4311 H 389.584 -1.05867 -4.76071 0
M  V30 4312 H 388.589 -3.33089 -4.37415 0
M  V30 4313 H 389.814 -4.05455 -5.44778 0
M  V30 4314 H 387.76 -1.96252 -6.25956 0
M  V30 4315 H 387.677 -3.65637 -6.61699 0
M  V30 4316 H 388.945 -2.6935 -7.31485 0
M  V30 4317 N 393.175 1.03435 -1.18907 0
M  V30 4318 C 394.586 1.58195 -0.991523 0
M  V30 4319 C 394.937 1.90801 0.457081 0
M  V30 4320 O 394.062 1.70272 1.33553 0
M  V30 4321 C 394.657 2.87432 -1.79355 0
M  V30 4322 C 393.216 3.38785 -1.64017 0
M  V30 4323 C 392.363 2.12292 -1.78402 0
M  V30 4324 H 395.314 0.860299 -1.33359 0
M  V30 4325 H 395.335 3.58096 -1.28638 0
M  V30 4326 H 394.847 2.63669 -2.84781 0
M  V30 4327 H 392.948 3.67547 -0.611536 0
M  V30 4328 H 393.061 4.12186 -2.44212 0
M  V30 4329 H 391.425 2.23901 -1.2141 0
M  V30 4330 H 392.208 1.90977 -2.85277 0
M  V30 4331 N 394.653 0.992116 1.22453 0
M  V30 4332 C 395.563 0.55065 2.28046 0
M  V30 4333 C 396.579 -0.400189 1.69335 0
M  V30 4334 O 397.755 -0.267215 1.99619 0
M  V30 4335 C 394.82 -0.128496 3.46462 0
M  V30 4336 C 393.881 0.865208 4.20491 0
M  V30 4337 C 393.114 0.218377 5.33253 0
M  V30 4338 O 393.337 -0.987894 5.6178 0
M  V30 4339 O 392.271 0.922845 5.94783 0
M  V30 4340 H 396.097 1.4291 2.67975 0
M  V30 4341 H 393.682 0.760326 1.28606 0
M  V30 4342 H 395.564 -0.508947 4.18315 0
M  V30 4343 H 394.239 -0.981526 3.0846 0
M  V30 4344 H 393.146 1.29658 3.50913 0
M  V30 4345 H 394.479 1.68741 4.62371 0
M  V30 4346 N 396.131 -1.37776 0.765217 0
M  V30 4347 C 397.379 -1.99454 0.325943 0
M  V30 4348 C 397.7 -1.61049 -1.09947 0
M  V30 4349 O 396.97 -0.872821 -1.75381 0
M  V30 4350 H 395.55 -0.737697 0.117525 0
M  V30 4351 H 398.212 -1.68359 0.981895 0
M  V30 4352 H 397.308 -3.09547 0.398353 0
M  V30 4353 N 397.609 -0.515225 -1.4894 0
M  V30 4354 C 398.858 0.0261361 -2.01683 0
M  V30 4355 C 399.171 1.36719 -1.39883 0
M  V30 4356 O 400.377 1.99606 -1.84037 0
M  V30 4357 C 398.833 0.0970111 -3.59769 0
M  V30 4358 C 398.441 -1.23825 -4.30548 0
M  V30 4359 C 400.185 0.587981 -4.20408 0
M  V30 4360 C 398.092 -1.12877 -5.80528 0
M  V30 4361 H 397.022 0.0135398 -0.753878 0
M  V30 4362 H 399.673 -0.656787 -1.71343 0
M  V30 4363 H 398.055 0.844694 -3.86886 0
M  V30 4364 H 399.229 -2.00034 -4.15118 0
M  V30 4365 H 397.544 -1.66379 -3.81716 0
M  V30 4366 H 400.141 0.68763 -5.3026 0
M  V30 4367 H 400.484 1.59026 -3.84729 0
M  V30 4368 H 401.017 -0.103582 -3.97665 0
M  V30 4369 H 397.756 -2.10575 -6.20756 0
M  V30 4370 H 397.276 -0.407799 -5.98412 0
M  V30 4371 H 398.955 -0.813332 -6.41868 0
M  V30 4372 N 399.087 1.5561 -0.249682 0
M  V30 4373 C 400.037 2.18157 0.662673 0
M  V30 4374 C 401.021 1.1383 1.13717 0
M  V30 4375 O 402.213 1.39731 1.08648 0
M  V30 4376 C 399.342 2.88672 1.85805 0
M  V30 4377 C 398.428 4.00258 1.40193 0
M  V30 4378 N 398.819 5.01473 0.660213 0
M  V30 4379 C 397.117 4.12864 1.68698 0
M  V30 4380 C 397.818 5.80155 0.423695 0
M  V30 4381 N 396.794 5.34533 0.988721 0
M  V30 4382 H 400.596 2.93769 0.0878688 0
M  V30 4383 H 398.11 1.62316 -0.0521183 0
M  V30 4384 H 400.107 3.31912 2.5227 0
M  V30 4385 H 398.767 2.14564 2.43705 0
M  V30 4386 H 399.778 5.16971 0.310047 0
M  V30 4387 H 396.455 3.4993 2.27717 0
M  V30 4388 H 397.845 6.71688 -0.168616 0
M  V30 4389 N 400.565 -0.0233959 1.57583 0
M  V30 4390 C 401.512 -1.02224 2.06927 0
M  V30 4391 C 402.482 -1.35575 0.959617 0
M  V30 4392 O 403.667 -1.45815 1.23055 0
M  V30 4393 C 400.807 -2.31636 2.5581 0
M  V30 4394 C 399.92 -2.04394 3.80588 0
M  V30 4395 C 399.055 -3.27717 4.18061 0
M  V30 4396 C 398.094 -2.96056 5.3574 0
M  V30 4397 N 397.231 -4.11847 5.68618 0
M  V30 4398 H 402.071 -0.594504 2.9201 0
M  V30 4399 H 399.608 -0.281921 1.44373 0
M  V30 4400 H 401.566 -3.07258 2.82221 0
M  V30 4401 H 400.196 -2.72122 1.73636 0
M  V30 4402 H 399.248 -1.19244 3.61227 0
M  V30 4403 H 400.56 -1.77042 4.66323 0
M  V30 4404 H 399.714 -4.11702 4.4563 0
M  V30 4405 H 398.453 -3.58188 3.30988 0
M  V30 4406 H 397.458 -2.10474 5.07918 0
M  V30 4407 H 398.683 -2.66857 6.24471 0
M  V30 4408 H 396.629 -4.42258 4.84504 0
M  V30 4409 H 396.546 -3.87938 6.48876 0
M  V30 4410 H 397.814 -4.96689 6.00766 0
M  V30 4411 N 402.043 -1.548 -0.295768 0
M  V30 4412 C 403.32 -1.65014 -1.05023 0
M  V30 4413 C 403.7 -0.501805 -2.05049 0
M  V30 4414 O 403.048 0.500869 -2.22943 0
M  V30 4415 C 403.258 -3.03252 -1.72741 0
M  V30 4416 C 404.606 -3.60242 -2.24746 0
M  V30 4417 O 405.63 -3.05737 -1.82765 0
M  V30 4418 O 404.489 -4.55687 -3.01681 0
M  V30 4419 H 401.583 -0.669314 -0.485744 0
M  V30 4420 H 404.129 -1.67144 -0.293438 0
M  V30 4421 H 402.901 -3.7827 -1.00138 0
M  V30 4422 H 402.524 -3.04922 -2.55163 0
M  V30 4423 N 403.521 0.559213 -1.47345 0
M  V30 4424 C 404.767 1.31843 -1.54095 0
M  V30 4425 C 405.1 1.93149 -0.201726 0
M  V30 4426 O 404.375 1.77759 0.789428 0
M  V30 4427 C 404.658 2.43006 -2.65744 0
M  V30 4428 C 404.511 1.86581 -4.09277 0
M  V30 4429 C 405.83 3.44943 -2.73318 0
M  V30 4430 H 402.949 0.478012 -0.560957 0
M  V30 4431 H 405.591 0.625977 -1.79392 0
M  V30 4432 H 403.741 3.02072 -2.44305 0
M  V30 4433 H 405.413 1.31792 -4.42073 0
M  V30 4434 H 403.656 1.17268 -4.17649 0
M  V30 4435 H 404.327 2.66933 -4.83168 0
M  V30 4436 H 406.803 2.95793 -2.92653 0
M  V30 4437 H 405.679 4.20153 -3.53218 0
M  V30 4438 H 405.94 4.03665 -1.80296 0
M  V30 4439 N 404.999 1.35443 0.805782 0
M  V30 4440 C 406.245 1.2996 1.56467 0
M  V30 4441 C 406.6 -0.124742 1.91995 0
M  V30 4442 O 405.893 -1.07533 1.58579 0
M  V30 4443 C 406.087 2.14045 2.86216 0
M  V30 4444 C 405.916 3.64512 2.63365 0
M  V30 4445 C 404.686 4.33744 2.59219 0
M  V30 4446 C 406.884 4.58142 2.33688 0
M  V30 4447 N 404.866 5.69953 2.28094 0
M  V30 4448 C 406.237 5.8248 2.12408 0
M  V30 4449 C 408.292 4.46877 2.19558 0
M  V30 4450 C 406.995 6.96818 1.78429 0
M  V30 4451 C 409.021 5.61065 1.86976 0
M  V30 4452 C 408.383 6.84431 1.66532 0
M  V30 4453 H 404.482 0.530817 0.574245 0
M  V30 4454 H 407.066 1.70333 0.943126 0
M  V30 4455 H 405.237 1.75942 3.46264 0
M  V30 4456 H 406.969 2.00075 3.51784 0
M  V30 4457 H 403.724 3.86365 2.73896 0
M  V30 4458 H 404.148 6.41845 2.15323 0
M  V30 4459 H 408.79 3.52102 2.34061 0
M  V30 4460 H 406.508 7.91559 1.62664 0
M  V30 4461 H 410.094 5.54302 1.7675 0
M  V30 4462 H 408.974 7.71294 1.41688 0
M  V30 4463 N 406.477 -1.02803 1.19454 0
M  V30 4464 C 407.407 -2.12999 0.956758 0
M  V30 4465 C 408.388 -1.69743 -0.110188 0
M  V30 4466 O 409.573 -1.94148 0.0450038 0
M  V30 4467 C 406.703 -3.43746 0.495553 0
M  V30 4468 C 405.657 -4.00688 1.50443 0
M  V30 4469 C 404.983 -5.27067 0.900275 0
M  V30 4470 C 406.283 -4.35397 2.8849 0
M  V30 4471 H 407.977 -2.33148 1.87836 0
M  V30 4472 H 405.523 -1.12045 0.904539 0
M  V30 4473 H 407.476 -4.2021 0.316493 0
M  V30 4474 H 406.2 -3.23321 -0.461646 0
M  V30 4475 H 404.859 -3.2632 1.67065 0
M  V30 4476 H 404.507 -5.02959 -0.064503 0
M  V30 4477 H 404.207 -5.66127 1.57397 0
M  V30 4478 H 405.731 -6.06196 0.73203 0
M  V30 4479 H 407.145 -5.02795 2.75446 0
M  V30 4480 H 405.542 -4.85541 3.52661 0
M  V30 4481 H 406.612 -3.44662 3.41081 0
M  V30 4482 N 407.956 -0.998596 -1.21925 0
M  V30 4483 C 408.906 -0.524743 -2.21879 0
M  V30 4484 C 409.89 0.41017 -1.55584 0
M  V30 4485 O 411.082 0.236063 -1.75419 0
M  V30 4486 C 408.211 0.153636 -3.42956 0
M  V30 4487 C 407.297 -0.801918 -4.16449 0
M  V30 4488 N 407.688 -1.95211 -4.66611 0
M  V30 4489 C 405.986 -0.618972 -4.41684 0
M  V30 4490 C 406.687 -2.55234 -5.22715 0
M  V30 4491 N 405.663 -1.83451 -5.1171 0
M  V30 4492 H 409.465 -1.40189 -2.58311 0
M  V30 4493 H 406.979 -0.86159 -1.3766 0
M  V30 4494 H 408.976 0.510534 -4.13762 0
M  V30 4495 H 407.636 1.02684 -3.08036 0
M  V30 4496 H 408.647 -2.33271 -4.62391 0
M  V30 4497 H 405.324 0.207694 -4.16983 0
M  V30 4498 H 406.714 -3.52471 -5.72026 0
M  V30 4499 N 409.434 1.37368 -0.772513 0
M  V30 4500 C 410.85 1.53059 -0.452231 0
M  V30 4501 C 411.05 1.73065 1.03203 0
M  V30 4502 O 410.106 1.75245 1.81784 0
M  V30 4503 C 411.419 2.72659 -1.26797 0
M  V30 4504 C 412.967 2.86521 -1.25995 0
M  V30 4505 C 413.442 4.09105 -2.05905 0
M  V30 4506 N 414.933 4.16219 -2.03263 0
M  V30 4507 C 415.668 5.10107 -2.61875 0
M  V30 4508 N 415.164 6.09547 -3.29278 0
M  V30 4509 N 416.957 5.02596 -2.51701 0
M  V30 4510 H 409.108 1.22634 -1.7342 0
M  V30 4511 H 411.371 0.597206 -0.736239 0
M  V30 4512 H 411.077 2.64343 -2.31982 0
M  V30 4513 H 410.951 3.66363 -0.897672 0
M  V30 4514 H 413.338 2.94308 -0.216081 0
M  V30 4515 H 413.419 1.93774 -1.66989 0
M  V30 4516 H 413.063 4.0208 -3.10313 0
M  V30 4517 H 412.993 5.00968 -1.62292 0
M  V30 4518 H 415.484 3.45012 -1.54192 0
M  V30 4519 H 415.797 6.77718 -3.71374 0
M  V30 4520 H 414.142 6.09824 -3.33377 0
M  V30 4521 H 417.333 4.23855 -1.98657 0
M  V30 4522 H 417.506 5.75582 -2.97673 0
M  V30 4523 N 410.912 0.523116 1.48665 0
M  V30 4524 C 411.859 -0.243398 2.29513 0
M  V30 4525 C 412.829 -0.940139 1.36933 0
M  V30 4526 O 414.014 -0.942503 1.65896 0
M  V30 4527 C 411.154 -1.28855 3.20141 0
M  V30 4528 C 410.267 -0.60135 4.27794 0
M  V30 4529 C 409.402 -1.62884 5.05611 0
M  V30 4530 C 408.441 -0.924726 6.05075 0
M  V30 4531 N 407.578 -1.89744 6.75975 0
M  V30 4532 H 412.418 0.452234 2.94549 0
M  V30 4533 H 409.955 0.234858 1.45213 0
M  V30 4534 H 411.913 -1.90674 3.71079 0
M  V30 4535 H 410.543 -1.95266 2.57043 0
M  V30 4536 H 409.595 0.130623 3.80176 0
M  V30 4537 H 410.907 -0.0481585 4.98777 0
M  V30 4538 H 410.061 -2.32149 5.60528 0
M  V30 4539 H 408.8 -2.21592 4.34452 0
M  V30 4540 H 407.805 -0.217966 5.49368 0
M  V30 4541 H 409.03 -0.343851 6.78229 0
M  V30 4542 H 406.976 -2.47373 6.07571 0
M  V30 4543 H 406.893 -1.3955 7.43009 0
M  V30 4544 H 408.161 -2.58229 7.35485 0
M  V30 4545 N 412.39 -1.55475 0.257931 0
M  V30 4546 C 413.323 -2.179 -0.677862 0
M  V30 4547 C 414.301 -1.13448 -1.16483 0
M  V30 4548 O 415.485 -1.41889 -1.24095 0
M  V30 4549 C 412.612 -2.78851 -1.92249 0
M  V30 4550 C 411.658 -3.96454 -1.57246 0
M  V30 4551 S 412.491 -5.31349 -0.665501 0
M  V30 4552 C 413.647 -5.9576 -1.91889 0
M  V30 4553 H 413.88 -2.96934 -0.147396 0
M  V30 4554 H 411.413 -1.54342 0.0423023 0
M  V30 4555 H 413.371 -3.14602 -2.63697 0
M  V30 4556 H 412.032 -1.99742 -2.42409 0
M  V30 4557 H 411.225 -4.37731 -2.49814 0
M  V30 4558 H 410.827 -3.62038 -0.938325 0
M  V30 4559 H 413.119 -6.13947 -2.86487 0
M  V30 4560 H 414.062 -6.9094 -1.54942 0
M  V30 4561 H 414.47 -5.2494 -2.076 0
M  V30 4562 N 413.868 0.0150385 -1.57593 0
M  V30 4563 C 414.815 1.01126 -2.07466 0
M  V30 4564 C 415.785 1.35064 -0.966794 0
M  V30 4565 O 416.97 1.4516 -1.23827 0
M  V30 4566 C 414.11 2.30276 -2.57035 0
M  V30 4567 C 413.223 2.02373 -3.81666 0
M  V30 4568 C 412.358 3.25496 -4.19793 0
M  V30 4569 C 411.397 2.93211 -5.37303 0
M  V30 4570 N 410.534 4.08826 -5.70794 0
M  V30 4571 H 415.374 0.57901 -2.92321 0
M  V30 4572 H 412.911 0.27426 -1.44521 0
M  V30 4573 H 414.869 3.05757 -2.83846 0
M  V30 4574 H 413.499 2.71197 -1.75077 0
M  V30 4575 H 412.551 1.17327 -3.61854 0
M  V30 4576 H 413.863 1.74567 -4.67256 0
M  V30 4577 H 413.017 4.09333 -4.47807 0
M  V30 4578 H 411.756 3.56428 -3.32882 0
M  V30 4579 H 410.761 2.07777 -5.09027 0
M  V30 4580 H 411.986 2.63542 -6.25877 0
M  V30 4581 H 409.932 4.39682 -4.86842 0
M  V30 4582 H 409.849 3.84491 -6.50924 0
M  V30 4583 H 411.117 4.93496 -6.03392 0
M  V30 4584 N 415.346 1.54954 0.287554 0
M  V30 4585 C 416.294 1.87606 1.37502 0
M  V30 4586 C 417.288 0.751001 1.51843 0
M  V30 4587 O 418.494 0.935169 1.53801 0
M  V30 4588 H 414.869 0.595231 0.459569 0
M  V30 4589 H 416.84 2.78477 1.07206 0
M  V30 4590 C 415.589 2.15183 2.73115 0
M  V30 4591 H 414.912 3.01234 2.62866 0
M  V30 4592 H 416.352 2.4196 3.48183 0
M  V30 4593 C 414.811 0.954686 3.2309 0
M  V30 4594 O 415.341 0.181949 4.01288 0
M  V30 4595 N 413.547 0.756368 2.80584 0
M  V30 4596 H 413.094 1.38643 2.17108 0
M  V30 4597 H 413.052 -0.0430391 3.14371 0
M  V30 4598 N 416.824 -0.551391 1.4764 0
M  V30 4599 C 418.052 -1.33357 1.58189 0
M  V30 4600 C 418.467 -1.87342 0.234199 0
M  V30 4601 O 417.824 -1.65301 -0.77343 0
M  V30 4602 C 417.875 -2.49942 2.61173 0
M  V30 4603 O 417.596 -1.98187 3.90709 0
M  V30 4604 C 419.097 -3.42072 2.8196 0
M  V30 4605 H 416.317 -0.40631 0.533998 0
M  V30 4606 H 418.861 -0.667367 1.93304 0
M  V30 4607 H 417.016 -3.12489 2.28975 0
M  V30 4608 H 417.43 -2.74342 4.47031 0
M  V30 4609 H 418.904 -4.20278 3.57869 0
M  V30 4610 H 419.381 -3.95978 1.89995 0
M  V30 4611 H 419.987 -2.85336 3.15378 0
M  V30 4612 N 418.302 -1.35869 -0.798587 0
M  V30 4613 C 419.579 -1.20145 -1.54352 0
M  V30 4614 C 419.959 0.216161 -2.0999 0
M  V30 4615 O 419.307 1.22068 -1.93162 0
M  V30 4616 C 419.517 -2.27602 -2.64572 0
M  V30 4617 C 420.865 -2.63811 -3.32699 0
M  V30 4618 O 421.889 -2.26576 -2.74849 0
M  V30 4619 O 420.748 -3.27866 -4.37226 0
M  V30 4620 H 417.842 -0.467248 -0.682355 0
M  V30 4621 H 420.388 -1.47574 -0.837859 0
M  V30 4622 H 419.16 -3.2265 -2.21388 0
M  V30 4623 H 418.783 -2.01488 -3.42766 0
M  V30 4624 N 419.78 1.02168 -1.19998 0
M  V30 4625 C 421.01 1.79036 -1.031 0
M  V30 4626 C 421.418 1.84409 0.423078 0
M  V30 4627 O 420.761 1.29228 1.30559 0
M  V30 4628 C 420.823 3.25185 -1.53281 0
M  V30 4629 C 420.487 3.43431 -3.01503 0
M  V30 4630 C 421.484 3.33063 -3.99206 0
M  V30 4631 C 419.169 3.69412 -3.40353 0
M  V30 4632 C 421.163 3.48413 -5.33748 0
M  V30 4633 C 418.85 3.84406 -4.75053 0
M  V30 4634 C 419.848 3.7391 -5.71559 0
M  V30 4635 O 419.536 3.88452 -7.03818 0
M  V30 4636 H 419.268 0.570043 -0.363355 0
M  V30 4637 H 421.822 1.29524 -1.59414 0
M  V30 4638 H 420.052 3.75756 -0.913483 0
M  V30 4639 H 421.741 3.83671 -1.32481 0
M  V30 4640 H 422.507 3.12934 -3.70537 0
M  V30 4641 H 418.386 3.76671 -2.65782 0
M  V30 4642 H 421.93 3.40137 -6.09059 0
M  V30 4643 H 417.827 4.04035 -5.03415 0
M  V30 4644 H 418.595 4.055 -7.10993 0
M  V30 4645 N 421.258 1.00505 1.21394 0
M  V30 4646 C 422.188 0.585684 2.26035 0
M  V30 4647 C 423.169 -0.393525 1.65485 0
M  V30 4648 O 424.354 -0.281497 1.92149 0
M  V30 4649 C 421.484 -0.0884283 3.47187 0
M  V30 4650 C 420.438 0.810567 4.20254 0
M  V30 4651 C 419.764 0.00286382 5.347 0
M  V30 4652 C 421.064 2.1132 4.77641 0
M  V30 4653 H 422.758 1.46039 2.61368 0
M  V30 4654 H 420.304 0.703648 1.25638 0
M  V30 4655 H 422.257 -0.393286 4.19561 0
M  V30 4656 H 420.981 -0.997766 3.10986 0
M  V30 4657 H 419.64 1.09925 3.49731 0
M  V30 4658 H 419.288 -0.907765 4.94741 0
M  V30 4659 H 418.988 0.601444 5.84514 0
M  V30 4660 H 420.512 -0.295808 6.09883 0
M  V30 4661 H 421.926 1.87148 5.41893 0
M  V30 4662 H 420.323 2.66164 5.37845 0
M  V30 4663 H 421.393 2.78393 3.9702 0
M  V30 4664 N 422.737 -1.36956 0.779787 0
M  V30 4665 C 423.965 -2.03755 0.359398 0
M  V30 4666 C 424.38 -1.58807 -1.02106 0
M  V30 4667 O 423.737 -0.773024 -1.6532 0
M  V30 4668 C 423.788 -3.59251 0.402568 0
M  V30 4669 O 423.509 -4.02557 1.72858 0
M  V30 4670 C 425.01 -4.43291 -0.0284068 0
M  V30 4671 H 422.23 -0.654148 0.149437 0
M  V30 4672 H 424.774 -1.75128 1.05595 0
M  V30 4673 H 422.929 -3.86621 -0.245478 0
M  V30 4674 H 423.343 -4.97111 1.67275 0
M  V30 4675 H 424.817 -5.51975 0.0529466 0
M  V30 4676 H 425.294 -4.25719 -1.07982 0
M  V30 4677 H 425.9 -4.21163 0.591758 0
M  V30 4678 N 424.215 -0.530993 -1.48385 0
M  V30 4679 C 425.147 0.268353 -2.27624 0
M  V30 4680 C 426.16 0.903525 -1.35426 0
M  V30 4681 O 427.349 0.781796 -1.60469 0
M  V30 4682 C 424.449 1.39535 -3.08842 0
M  V30 4683 C 423.622 0.861913 -4.28824 0
M  V30 4684 C 422.681 1.87016 -4.91845 0
M  V30 4685 O 421.707 1.4267 -5.5103 0
M  V30 4686 N 422.909 3.20238 -4.84178 0
M  V30 4687 H 425.674 -0.41123 -2.96865 0
M  V30 4688 H 423.235 -0.365387 -1.57723 0
M  V30 4689 H 425.227 2.06803 -3.47871 0
M  V30 4690 H 423.797 1.97859 -2.42014 0
M  V30 4691 H 423.017 0.0132126 -3.94198 0
M  V30 4692 H 424.305 0.484415 -5.06489 0
M  V30 4693 H 423.703 3.58932 -4.37246 0
M  V30 4694 H 422.26 3.83136 -5.27305 0
M  V30 4695 N 425.693 1.55336 -0.266172 0
M  V30 4696 C 426.923 2.03506 0.356239 0
M  V30 4697 C 427.331 1.14426 1.50676 0
M  V30 4698 O 426.674 0.155043 1.83045 0
M  V30 4699 C 426.736 3.47848 0.90785 0
M  V30 4700 C 426.4 4.56861 -0.112888 0
M  V30 4701 C 427.397 5.11528 -0.929264 0
M  V30 4702 C 425.082 5.01704 -0.244546 0
M  V30 4703 C 427.076 6.09549 -1.86357 0
M  V30 4704 C 424.763 5.99553 -1.18234 0
M  V30 4705 C 425.761 6.53356 -1.99036 0
M  V30 4706 O 425.449 7.49293 -2.91231 0
M  V30 4707 H 425.181 0.670444 0.08649 0
M  V30 4708 H 427.735 2.01598 -0.39337 0
M  V30 4709 H 425.965 3.46967 1.70737 0
M  V30 4710 H 427.654 3.79407 1.44239 0
M  V30 4711 H 428.42 4.77701 -0.838237 0
M  V30 4712 H 424.299 4.59477 0.374359 0
M  V30 4713 H 427.843 6.51469 -2.49467 0
M  V30 4714 H 423.74 6.32799 -1.27421 0
M  V30 4715 H 424.508 7.66978 -2.8581 0
M  V30 4716 N 427.171 -0.0066808 1.57599 0
M  V30 4717 C 428.448 -0.729586 1.81484 0
M  V30 4718 C 428.828 -1.92359 0.869558 0
M  V30 4719 O 428.176 -2.28348 -0.0832533 0
M  V30 4720 C 428.386 -1.1416 3.29801 0
M  V30 4721 C 429.734 -1.54823 3.95367 0
M  V30 4722 O 430.758 -1.23558 3.34084 0
M  V30 4723 O 429.617 -2.12937 5.03309 0
M  V30 4724 H 426.711 -0.354674 0.747085 0
M  V30 4725 H 429.257 0.0182609 1.6969 0
M  V30 4726 H 428.029 -0.290231 3.90222 0
M  V30 4727 H 427.652 -1.94876 3.46568 0
M  V30 4728 N 428.649 -1.55105 -0.279332 0
M  V30 4729 C 429.579 -1.90557 -1.34945 0
M  V30 4730 C 430.56 -0.766738 -1.51839 0
M  V30 4731 O 431.745 -1.02434 -1.64988 0
M  V30 4732 C 428.875 -2.17193 -2.71006 0
M  V30 4733 C 427.829 -3.33021 -2.68851 0
M  V30 4734 C 427.155 -3.45123 -4.08405 0
M  V30 4735 C 428.455 -4.69578 -2.28678 0
M  V30 4736 H 430.149 -2.80188 -1.05522 0
M  V30 4737 H 427.695 -1.34811 -0.506173 0
M  V30 4738 H 429.648 -2.40581 -3.45975 0
M  V30 4739 H 428.372 -1.24355 -3.01999 0
M  V30 4740 H 427.031 -3.0959 -1.9634 0
M  V30 4741 H 426.679 -2.49762 -4.3661 0
M  V30 4742 H 426.379 -4.22995 -4.07859 0
M  V30 4743 H 427.903 -3.70796 -4.85121 0
M  V30 4744 H 429.317 -4.92553 -2.93368 0
M  V30 4745 H 427.714 -5.5032 -2.39306 0
M  V30 4746 H 428.784 -4.68828 -1.23807 0
M  V30 4747 N 430.127 0.543554 -1.4793 0
M  V30 4748 C 431.352 1.32995 -1.59145 0
M  V30 4749 C 431.777 1.86472 -0.246956 0
M  V30 4750 O 431.135 1.63696 0.779324 0
M  V30 4751 C 431.183 2.46623 -2.63077 0
M  V30 4752 O 430.287 3.49261 -2.19295 0
M  V30 4753 H 429.628 0.394472 -0.534124 0
M  V30 4754 H 432.158 0.655489 -1.93816 0
M  V30 4755 H 432.168 2.93001 -2.83926 0
M  V30 4756 H 430.843 2.07059 -3.60693 0
M  V30 4757 H 429.42 3.09094 -2.08603 0
M  V30 4758 N 431.605 1.3629 0.791371 0
M  V30 4759 C 432.515 1.32606 1.93527 0
M  V30 4760 C 433.531 0.228541 1.72493 0
M  V30 4761 O 434.707 0.460571 1.96063 0
M  V30 4762 C 431.772 1.11271 3.28359 0
M  V30 4763 C 430.833 2.3048 3.62185 0
M  V30 4764 C 430.066 2.10154 4.90583 0
M  V30 4765 O 430.289 1.07572 5.60165 0
M  V30 4766 O 429.223 2.97884 5.23019 0
M  V30 4767 H 433.049 2.28909 1.99585 0
M  V30 4768 H 430.634 1.16818 0.931344 0
M  V30 4769 H 432.516 1.01283 4.09047 0
M  V30 4770 H 431.191 0.180292 3.23198 0
M  V30 4771 H 430.098 2.46036 2.81811 0
M  V30 4772 H 431.431 3.22221 3.72068 0
M  V30 4773 N 433.083 -1.0153 1.20538 0
M  V30 4774 C 434.33 -1.75149 1.01633 0
M  V30 4775 C 434.658 -1.89189 -0.451399 0
M  V30 4776 O 433.913 -1.41551 -1.35136 0
M  V30 4777 C 434.212 -3.17213 1.64654 0
M  V30 4778 C 433.878 -3.23146 3.14464 0
M  V30 4779 C 432.54 -3.24472 3.55347 0
M  V30 4780 C 434.892 -3.21207 4.10458 0
M  V30 4781 C 432.22 -3.21532 4.90748 0
M  V30 4782 C 434.572 -3.19808 5.45807 0
M  V30 4783 C 433.236 -3.19439 5.86102 0
M  V30 4784 H 432.506 -0.640914 0.3719 0
M  V30 4785 H 435.153 -1.19071 1.49981 0
M  V30 4786 H 433.458 -3.76457 1.08571 0
M  V30 4787 H 435.155 -3.72871 1.4754 0
M  V30 4788 H 431.745 -3.2285 2.81897 0
M  V30 4789 H 435.929 -3.19351 3.79906 0
M  V30 4790 H 431.185 -3.19578 5.21229 0
M  V30 4791 H 435.359 -3.1726 6.19935 0
M  V30 4792 H 432.986 -3.16915 6.90991 0
M  V30 4793 N 434.561 -1.01147 -1.20859 0
M  V30 4794 C 435.471 -0.58686 -2.27141 0
M  V30 4795 C 436.487 0.373198 -1.69951 0
M  V30 4796 O 437.663 0.235423 -2.00019 0
M  V30 4797 C 434.728 0.0733602 -3.46622 0
M  V30 4798 C 433.789 -0.931995 -4.19061 0
M  V30 4799 C 433.022 -0.303186 -5.32838 0
M  V30 4800 O 433.245 0.898395 -5.63281 0
M  V30 4801 O 432.179 -1.01735 -5.9324 0
M  V30 4802 H 436.005 -1.47155 -2.65667 0
M  V30 4803 H 433.59 -0.780689 -1.2738 0
M  V30 4804 H 435.472 0.442333 -4.19072 0
M  V30 4805 H 434.147 0.932329 -3.09983 0
M  V30 4806 H 433.054 -1.35224 -3.48805 0
M  V30 4807 H 434.387 -1.76076 -4.59628 0
M  V30 4808 N 436.039 1.36541 -0.78704 0
M  V30 4809 C 436.987 2.31965 -0.171724 0
M  V30 4810 C 437.981 1.55689 0.667631 0
M  V30 4811 O 439.187 1.70969 0.562981 0
M  V30 4812 H 435.562 0.751101 -0.0367545 0
M  V30 4813 H 437.533 2.81428 -0.992017 0
M  V30 4814 C 436.282 3.40968 0.680904 0
M  V30 4815 H 435.605 3.99775 0.0443961 0
M  V30 4816 H 437.045 4.10063 1.07815 0
M  V30 4817 C 435.504 2.82338 1.83813 0
M  V30 4818 O 436.034 2.74311 2.93456 0
M  V30 4819 N 434.24 2.39661 1.6435 0
M  V30 4820 H 433.787 2.46389 0.751668 0
M  V30 4821 H 433.745 2.00779 2.4194 0
M  V30 4822 N 437.518 0.538854 1.48102 0
M  V30 4823 C 438.767 0.0059532 2.01699 0
M  V30 4824 C 439.08 -1.34476 1.42041 0
M  V30 4825 O 440.286 -1.96653 1.87189 0
M  V30 4826 C 438.742 -0.0397627 3.59878 0
M  V30 4827 C 438.35 1.30659 4.28523 0
M  V30 4828 C 440.094 -0.521024 4.2129 0
M  V30 4829 C 438.001 1.22098 5.78659 0
M  V30 4830 H 436.931 -0.00154456 0.753998 0
M  V30 4831 H 439.582 0.683963 1.70277 0
M  V30 4832 H 437.964 -0.783037 3.88181 0
M  V30 4833 H 439.138 2.06613 4.11883 0
M  V30 4834 H 437.453 1.7243 3.79021 0
M  V30 4835 H 440.05 -0.603184 5.31287 0
M  V30 4836 H 440.393 -1.52885 3.8721 0
M  V30 4837 H 440.926 0.166834 3.9745 0
M  V30 4838 H 437.665 2.20424 6.17328 0
M  V30 4839 H 437.185 0.50295 5.97688 0
M  V30 4840 H 438.864 0.915345 6.40492 0
M  V30 4841 N 438.996 -1.55193 0.274407 0
M  V30 4842 C 440.244 -1.99187 -0.341902 0
M  V30 4843 C 440.565 -1.16422 -1.56431 0
M  V30 4844 O 439.835 -0.253573 -1.94252 0
M  V30 4845 H 438.415 -0.735721 -0.129317 0
M  V30 4846 H 441.077 -1.91168 0.379578 0
M  V30 4847 H 440.173 -3.05629 -0.632253 0
M  V30 4848 N 440.474 -0.00167713 -1.576 0
M  V30 4849 C 441.437 0.974046 -2.07473 0
M  V30 4850 C 442.437 1.27143 -0.984444 0
M  V30 4851 O 443.627 1.21633 -1.24703 0
M  V30 4852 C 440.759 2.29849 -2.51759 0
M  V30 4853 H 441.952 0.54262 -2.9495 0
M  V30 4854 H 439.505 0.245829 -1.54355 0
M  V30 4855 H 440.24 2.77677 -1.67529 0
M  V30 4856 H 440.025 2.09584 -3.31386 0
M  V30 4857 H 441.515 2.9984 -2.90664 0
M  V30 4858 N 441.952 1.55251 0.271103 0
M  V30 4859 C 443.201 1.75151 1.00025 0
M  V30 4860 C 443.514 0.561041 1.87381 0
M  V30 4861 O 444.72 0.642506 2.63788 0
M  V30 4862 C 443.176 3.09999 1.82835 0
M  V30 4863 C 442.784 4.3662 1.00336 0
M  V30 4864 C 444.528 3.39249 2.55168 0
M  V30 4865 C 442.435 5.62506 1.82595 0
M  V30 4866 H 441.365 0.652877 0.377183 0
M  V30 4867 H 444.016 1.81708 0.255843 0
M  V30 4868 H 442.398 2.97485 2.61378 0
M  V30 4869 H 443.572 4.60055 0.261959 0
M  V30 4870 H 441.887 4.14527 0.394486 0
M  V30 4871 H 444.484 4.3051 3.1712 0
M  V30 4872 H 444.827 2.59467 3.2555 0
M  V30 4873 H 445.36 3.52869 1.83653 0
M  V30 4874 H 442.099 6.45041 1.16631 0
M  V30 4875 H 441.619 5.43211 2.54327 0
M  V30 4876 H 443.298 6.00875 2.39913 0
M  V30 4877 N 443.43 -0.535701 1.48216 0
M  V30 4878 C 444.678 -1.28928 1.55634 0
M  V30 4879 C 444.999 -1.93645 0.229514 0
M  V30 4880 O 444.269 -1.81038 -0.74846 0
M  V30 4881 H 442.849 -0.47884 0.573342 0
M  V30 4882 H 445.511 -0.623853 1.84646 0
M  V30 4883 H 444.607 -2.07157 2.33436 0
M  V30 4884 N 444.908 -1.36708 -0.784132 0
M  V30 4885 C 445.838 -1.34153 -1.91116 0
M  V30 4886 C 446.819 -0.212121 -1.68772 0
M  V30 4887 O 448.004 -0.410581 -1.8981 0
M  V30 4888 C 445.134 -1.13535 -3.28218 0
M  V30 4889 C 444.088 -2.23356 -3.65097 0
M  V30 4890 C 443.414 -1.87875 -5.00607 0
M  V30 4891 C 444.714 -3.65473 -3.73131 0
M  V30 4892 H 446.408 -2.28459 -1.93512 0
M  V30 4893 H 443.954 -1.09973 -0.929618 0
M  V30 4894 H 445.907 -1.10381 -4.06687 0
M  V30 4895 H 444.631 -0.156804 -3.26223 0
M  V30 4896 H 443.29 -2.25645 -2.88929 0
M  V30 4897 H 442.938 -0.885814 -4.95139 0
M  V30 4898 H 442.638 -2.61406 -5.26252 0
M  V30 4899 H 444.162 -1.86286 -5.81489 0
M  V30 4900 H 445.576 -3.65382 -4.41779 0
M  V30 4901 H 443.973 -4.37953 -4.10265 0
M  V30 4902 H 445.043 -3.99995 -2.74102 0
M  V30 4903 N 446.386 1.0089 -1.21074 0
M  V30 4904 C 447.296 2.13039 -0.982425 0
M  V30 4905 C 448.312 1.73881 0.0642161 0
M  V30 4906 O 449.488 2.01012 -0.12496 0
M  V30 4907 C 446.553 3.42377 -0.545803 0
M  V30 4908 C 445.614 3.95731 -1.6642 0
M  V30 4909 C 444.847 5.18896 -1.24832 0
M  V30 4910 O 445.07 5.70273 -0.120265 0
M  V30 4911 O 444.004 5.65597 -2.05873 0
M  V30 4912 H 447.83 2.35175 -1.92163 0
M  V30 4913 H 445.415 1.1142 -0.995285 0
M  V30 4914 H 447.297 4.20244 -0.311912 0
M  V30 4915 H 445.972 3.21639 0.364727 0
M  V30 4916 H 444.879 3.19108 -1.95246 0
M  V30 4917 H 446.212 4.20872 -2.55201 0
M  V30 4918 N 447.864 1.01787 1.20321 0
M  V30 4919 C 448.794 0.609625 2.25401 0
M  V30 4920 C 449.775 -0.375951 1.65893 0
M  V30 4921 O 450.96 -0.261101 1.92437 0
M  V30 4922 C 448.09 -0.0515995 3.47262 0
M  V30 4923 C 447.044 0.855095 4.19371 0
M  V30 4924 C 446.37 0.0595757 5.34667 0
M  V30 4925 C 447.67 2.16374 4.75373 0
M  V30 4926 H 449.364 1.48803 2.59804 0
M  V30 4927 H 446.91 0.716934 1.24884 0
M  V30 4928 H 448.863 -0.348764 4.19954 0
M  V30 4929 H 447.587 -0.964726 3.12027 0
M  V30 4930 H 446.246 1.13628 3.48546 0
M  V30 4931 H 445.894 -0.85524 4.95676 0
M  V30 4932 H 445.594 0.663406 5.83843 0
M  V30 4933 H 447.118 -0.231105 6.10162 0
M  V30 4934 H 448.532 1.92885 5.39878 0
M  V30 4935 H 446.929 2.71853 5.34991 0
M  V30 4936 H 447.999 2.82589 3.94045 0
M  V30 4937 N 449.342 -1.36122 0.79427 0
M  V30 4938 C 450.588 -1.99846 0.378542 0
M  V30 4939 C 450.943 -1.61898 -1.03955 0
M  V30 4940 O 450.236 -0.866013 -1.70912 0
M  V30 4941 C 450.43 -3.5409 0.48527 0
M  V30 4942 C 450.259 -4.0702 1.91219 0
M  V30 4943 C 449.029 -4.36944 2.53787 0
M  V30 4944 C 451.227 -4.26435 2.87502 0
M  V30 4945 N 449.209 -4.75727 3.88017 0
M  V30 4946 C 450.58 -4.68077 4.06576 0
M  V30 4947 C 452.635 -4.08616 2.84495 0
M  V30 4948 C 451.338 -4.93765 5.23057 0
M  V30 4949 C 453.364 -4.35453 4.00169 0
M  V30 4950 C 452.726 -4.77355 5.17988 0
M  V30 4951 H 448.825 -0.759549 0.186034 0
M  V30 4952 H 451.409 -1.65043 1.0329 0
M  V30 4953 H 449.58 -3.88151 -0.139023 0
M  V30 4954 H 451.312 -4.04675 0.0453192 0
M  V30 4955 H 448.067 -4.26822 2.05231 0
M  V30 4956 H 448.491 -4.99396 4.57092 0
M  V30 4957 H 453.133 -3.75373 1.94564 0
M  V30 4958 H 450.851 -5.25887 6.1357 0
M  V30 4959 H 454.437 -4.2323 3.99208 0
M  V30 4960 H 453.317 -4.97718 6.06008 0
M  V30 4961 N 450.82 -0.546701 -1.47814 0
M  V30 4962 C 451.752 0.244196 -2.27895 0
M  V30 4963 C 452.765 0.88911 -1.36377 0
M  V30 4964 O 453.954 0.764733 -1.61289 0
M  V30 4965 C 451.054 1.36252 -3.10304 0
M  V30 4966 C 450.227 0.816382 -4.29714 0
M  V30 4967 C 449.286 1.81789 -4.93801 0
M  V30 4968 O 448.312 1.36818 -5.52512 0
M  V30 4969 N 449.514 3.15085 -4.87547 0
M  V30 4970 H 452.279 -0.442694 -2.96412 0
M  V30 4971 H 449.84 -0.382095 -1.57327 0
M  V30 4972 H 451.832 2.03102 -3.50045 0
M  V30 4973 H 450.402 1.95281 -2.44099 0
M  V30 4974 H 449.622 -0.0285981 -3.9419 0
M  V30 4975 H 450.91 0.430668 -5.06974 0
M  V30 4976 H 450.308 3.54275 -4.41028 0
M  V30 4977 H 448.865 3.77522 -5.31339 0
M  V30 4978 N 452.299 1.55045 -0.282633 0
M  V30 4979 C 453.545 2.00056 0.332481 0
M  V30 4980 C 453.878 1.1708 1.54939 0
M  V30 4981 O 453.153 0.2427 1.9298 0
M  V30 4982 C 453.436 3.53086 0.70725 0
M  V30 4983 C 453.289 4.46813 -0.517521 0
M  V30 4984 C 454.608 4.12245 1.54084 0
M  V30 4985 H 451.727 0.727268 0.119373 0
M  V30 4986 H 454.369 1.85932 -0.391076 0
M  V30 4987 H 452.519 3.65253 1.32372 0
M  V30 4988 H 454.191 4.46579 -1.15607 0
M  V30 4989 H 452.434 4.18163 -1.1542 0
M  V30 4990 H 453.105 5.51595 -0.211426 0
M  V30 4991 H 455.581 4.03401 1.02013 0
M  V30 4992 H 454.457 5.19515 1.77186 0
M  V30 4993 H 454.718 3.62951 2.52427 0
M  V30 4994 N 453.777 0.010035 1.57597 0
M  V30 4995 C 455.193 -0.346164 1.55801 0
M  V30 4996 C 455.393 -1.74144 1.01371 0
M  V30 4997 O 454.449 -2.43938 0.651968 0
M  V30 4998 C 455.762 -0.212216 2.9995 0
M  V30 4999 C 457.31 -0.286409 3.11687 0
M  V30 5000 C 457.785 -0.18147 4.5764 0
M  V30 5001 N 459.276 -0.239056 4.62583 0
M  V30 5002 C 460.011 -0.181351 5.73113 0
M  V30 5003 N 459.507 -0.073661 6.92761 0
M  V30 5004 N 461.3 -0.233949 5.61613 0
M  V30 5005 H 453.451 0.922657 1.91313 0
M  V30 5006 H 455.714 0.354595 0.879185 0
M  V30 5007 H 455.42 0.748169 3.4365 0
M  V30 5008 H 455.294 -0.990224 3.6397 0
M  V30 5009 H 457.681 -1.23724 2.67911 0
M  V30 5010 H 457.762 0.521645 2.50425 0
M  V30 5011 H 457.406 0.765863 5.02093 0
M  V30 5012 H 457.336 -1.00814 5.1686 0
M  V30 5013 H 459.827 -0.32321 3.76515 0
M  V30 5014 H 460.14 -0.0358003 7.72792 0
M  V30 5015 H 458.485 -0.0391461 6.94989 0
M  V30 5016 H 461.676 -0.316347 4.6703 0
M  V30 5017 H 461.849 -0.185514 6.47734 0
M  V30 5018 N 455.255 -1.55392 -0.262866 0
M  V30 5019 C 456.48 -1.80847 -1.01533 0
M  V30 5020 C 456.905 -0.584946 -1.78774 0
M  V30 5021 O 456.263 0.465701 -1.75217 0
M  V30 5022 C 456.311 -3.03866 -1.94159 0
M  V30 5023 O 455.415 -2.79662 -3.03089 0
M  V30 5024 H 454.756 -0.597441 -0.289759 0
M  V30 5025 H 457.286 -2.02553 -0.288698 0
M  V30 5026 H 457.296 -3.32872 -2.35924 0
M  V30 5027 H 455.971 -3.92564 -1.37354 0
M  V30 5028 H 454.548 -2.61781 -2.65566 0
M  V30 5029 N 456.733 0.527833 -1.48498 0
M  V30 5030 C 457.981 1.28101 -1.56316 0
M  V30 5031 C 458.302 1.9352 -0.239781 0
M  V30 5032 O 457.572 1.81433 0.738849 0
M  V30 5033 H 456.152 0.475793 -0.575873 0
M  V30 5034 H 458.814 0.614052 -1.84974 0
M  V30 5035 H 457.91 2.05916 -2.34532 0
M  V30 5036 N 458.211 1.37122 0.776871 0
M  V30 5037 C 459.439 1.3523 1.5659 0
M  V30 5038 C 459.854 -0.0635518 1.88693 0
M  V30 5039 O 459.211 -1.02394 1.51069 0
M  V30 5040 C 459.262 2.18583 2.8793 0
M  V30 5041 O 458.983 3.5465 2.57206 0
M  V30 5042 C 460.484 2.24612 3.82183 0
M  V30 5043 H 457.704 0.4634 0.485285 0
M  V30 5044 H 460.248 1.80392 0.963266 0
M  V30 5045 H 458.403 1.76943 3.4463 0
M  V30 5046 H 458.817 3.98286 3.41275 0
M  V30 5047 H 460.291 2.87267 4.71361 0
M  V30 5048 H 460.768 1.25309 4.20944 0
M  V30 5049 H 461.374 2.66543 3.31414 0
M  V30 5050 N 459.689 -1.00246 1.21608 0
M  V30 5051 C 460.938 -1.73476 1.02902 0
M  V30 5052 C 461.251 -1.90643 -0.437561 0
M  V30 5053 O 462.457 -2.61105 -0.74407 0
M  V30 5054 C 460.913 -3.12079 1.79261 0
M  V30 5055 C 460.521 -3.02877 3.30106 0
M  V30 5056 C 462.265 -3.89421 1.68972 0
M  V30 5057 C 460.172 -4.36575 3.98944 0
M  V30 5058 H 459.102 -0.650408 0.381425 0
M  V30 5059 H 461.753 -1.11985 1.45367 0
M  V30 5060 H 460.135 -3.74196 1.2959 0
M  V30 5061 H 461.309 -2.49983 3.87098 0
M  V30 5062 H 459.624 -2.39022 3.40965 0
M  V30 5063 H 462.221 -4.88362 2.17731 0
M  V30 5064 H 462.564 -4.1122 0.648397 0
M  V30 5065 H 463.097 -3.33963 2.16133 0
M  V30 5066 H 459.836 -4.19978 5.03288 0
M  V30 5067 H 459.356 -4.8942 3.4674 0
M  V30 5068 H 461.035 -5.05364 4.04 0
M  V30 5069 N 461.167 -1.02423 -1.1978 0
M  V30 5070 C 462.414 -0.717988 -1.89344 0
M  V30 5071 C 462.742 0.753036 -1.79331 0
M  V30 5072 O 461.997 1.56355 -1.17692 0
M  V30 5073 C 462.296 -1.1088 -3.39765 0
M  V30 5074 C 461.962 -2.57731 -3.6998 0
M  V30 5075 C 460.624 -2.97854 -3.77937 0
M  V30 5076 C 462.976 -3.52763 -3.83677 0
M  V30 5077 C 460.304 -4.31931 -3.97054 0
M  V30 5078 C 462.656 -4.86538 -4.04306 0
M  V30 5079 C 461.32 -5.26356 -4.10494 0
M  V30 5080 H 460.59 -0.26273 -0.692859 0
M  V30 5081 H 463.237 -1.28623 -1.41875 0
M  V30 5082 H 461.542 -0.459094 -3.89101 0
M  V30 5083 H 463.239 -0.849432 -3.919 0
M  V30 5084 H 459.829 -2.25646 -3.64393 0
M  V30 5085 H 464.013 -3.2292 -3.76877 0
M  V30 5086 H 459.269 -4.62324 -4.00083 0
M  V30 5087 H 463.443 -5.60093 -4.13846 0
M  V30 5088 H 461.07 -6.3026 -4.2506 0
M  V30 5089 N 462.645 1.35699 -0.801477 0
M  V30 5090 C 463.922 1.9324 -0.302937 0
M  V30 5091 C 464.302 1.73209 1.20672 0
M  V30 5092 O 463.65 1.09809 2.00385 0
M  V30 5093 C 463.86 3.41728 -0.708747 0
M  V30 5094 C 465.208 4.18868 -0.695328 0
M  V30 5095 O 466.232 3.5022 -0.649971 0
M  V30 5096 O 465.091 5.41342 -0.749081 0
M  V30 5097 H 462.185 0.82331 -0.0780367 0
M  V30 5098 H 464.731 1.44806 -0.884832 0
M  V30 5099 H 463.503 3.50015 -1.74944 0
M  V30 5100 H 463.126 3.97471 -0.101384 0
M  V30 5101 N 464.123 0.554532 1.47522 0
M  V30 5102 C 465.071 -0.207765 2.3167 0
M  V30 5103 C 466.065 -0.911914 1.4276 0
M  V30 5104 O 467.271 -0.833504 1.59539 0
M  V30 5105 H 463.646 -0.0858726 0.747081 0
M  V30 5106 H 465.617 0.521178 2.93813 0
M  V30 5107 C 464.366 -1.2263 3.25357 0
M  V30 5108 H 463.689 -0.693887 3.93732 0
M  V30 5109 H 465.129 -1.73062 3.87073 0
M  V30 5110 C 463.588 -2.27278 2.4869 0
M  V30 5111 O 464.118 -3.34156 2.22941 0
M  V30 5112 N 462.324 -2.01134 2.09746 0
M  V30 5113 H 461.871 -1.14232 2.30887 0
M  V30 5114 H 461.829 -2.71369 1.58765 0
M  V30 5115 N 465.601 -1.54893 0.290851 0
M  V30 5116 C 466.848 -1.99933 -0.321391 0
M  V30 5117 C 467.176 -1.17927 -1.54672 0
M  V30 5118 O 466.431 -0.240902 -1.94212 0
M  V30 5119 C 466.73 -3.49815 -0.732397 0
M  V30 5120 C 466.396 -4.4921 0.390056 0
M  V30 5121 C 465.058 -4.76107 0.698223 0
M  V30 5122 C 467.41 -5.08453 1.14562 0
M  V30 5123 C 464.738 -5.59514 1.76526 0
M  V30 5124 C 467.09 -5.9302 2.2025 0
M  V30 5125 C 465.754 -6.18232 2.51684 0
M  V30 5126 H 465.024 -0.731608 -0.117605 0
M  V30 5127 H 467.671 -1.87107 0.407839 0
M  V30 5128 H 465.976 -3.60199 -1.54155 0
M  V30 5129 H 467.673 -3.82083 -1.21712 0
M  V30 5130 H 464.263 -4.28372 0.13976 0
M  V30 5131 H 468.447 -4.87683 0.920801 0
M  V30 5132 H 463.703 -5.77289 2.01364 0
M  V30 5133 H 467.877 -6.37955 2.7926 0
M  V30 5134 H 465.504 -6.82653 3.34499 0
M  V30 5135 N 467.08 -0.0183926 -1.57589 0
M  V30 5136 C 468.01 0.965596 -2.12599 0
M  V30 5137 C 468.991 1.34641 -1.0395 0
M  V30 5138 O 470.176 1.42693 -1.31729 0
M  V30 5139 C 467.306 2.25149 -2.64434 0
M  V30 5140 C 466.26 2.01175 -3.77773 0
M  V30 5141 C 465.586 3.35937 -4.15994 0
M  V30 5142 C 466.886 1.35953 -5.04296 0
M  V30 5143 H 468.58 0.507504 -2.95067 0
M  V30 5144 H 466.126 0.242671 -1.41941 0
M  V30 5145 H 468.079 2.94357 -3.01549 0
M  V30 5146 H 466.803 2.73105 -1.79112 0
M  V30 5147 H 465.462 1.34388 -3.4108 0
M  V30 5148 H 465.11 3.81631 -3.27669 0
M  V30 5149 H 464.81 3.20705 -4.92364 0
M  V30 5150 H 466.334 4.0643 -4.55683 0
M  V30 5151 H 467.748 1.95144 -5.39065 0
M  V30 5152 H 466.145 1.31152 -5.85593 0
M  V30 5153 H 467.215 0.331071 -4.83768 0
M  V30 5154 N 468.558 1.5553 0.254621 0
M  V30 5155 C 469.807 1.76202 0.981612 0
M  V30 5156 C 470.12 0.580883 1.86776 0
M  V30 5157 O 471.326 0.670448 2.63092 0
M  V30 5158 C 469.782 3.11921 1.79537 0
M  V30 5159 C 469.39 4.37659 0.956991 0
M  V30 5160 C 471.134 3.41936 2.51555 0
M  V30 5161 C 469.041 5.64411 1.76619 0
M  V30 5162 H 467.971 0.656841 0.370237 0
M  V30 5163 H 470.622 1.81969 0.236556 0
M  V30 5164 H 469.004 3.00241 2.58208 0
M  V30 5165 H 470.178 4.60307 0.21315 0
M  V30 5166 H 468.493 4.14922 0.350497 0
M  V30 5167 H 471.09 4.33849 3.12536 0
M  V30 5168 H 471.433 2.62905 3.22779 0
M  V30 5169 H 471.966 3.54797 1.799 0
M  V30 5170 H 468.705 6.46241 1.09783 0
M  V30 5171 H 468.225 5.45877 2.48551 0
M  V30 5172 H 469.904 6.03386 2.33527 0
M  V30 5173 N 470.036 -0.519951 1.48776 0
M  V30 5174 C 471.264 -1.29971 1.60982 0
M  V30 5175 C 471.679 -1.86803 0.273885 0
M  V30 5176 O 471.036 -1.66904 -0.738193 0
M  V30 5177 C 471.087 -2.44346 2.66415 0
M  V30 5178 O 470.808 -1.89855 3.94825 0
M  V30 5179 C 472.309 -3.36014 2.89153 0
M  V30 5180 H 469.529 -0.394891 0.542496 0
M  V30 5181 H 472.073 -0.626214 1.94676 0
M  V30 5182 H 470.228 -3.07562 2.35552 0
M  V30 5183 H 470.642 -2.64798 4.5275 0
M  V30 5184 H 472.116 -4.12593 3.66703 0
M  V30 5185 H 472.593 -3.91859 1.98351 0
M  V30 5186 H 473.199 -2.78582 3.21359 0
M  V30 5187 N 471.514 -1.37532 -0.769588 0
M  V30 5188 C 472.791 -1.23392 -1.51768 0
M  V30 5189 C 473.171 0.17157 -2.10402 0
M  V30 5190 O 472.519 1.17943 -1.95708 0
M  V30 5191 C 472.729 -2.33163 -2.59685 0
M  V30 5192 C 474.077 -2.70809 -3.27028 0
M  V30 5193 O 475.101 -2.32355 -2.69981 0
M  V30 5194 O 473.96 -3.37066 -4.30173 0
M  V30 5195 H 471.054 -0.481617 -0.67229 0
M  V30 5196 H 473.6 -1.49318 -0.806368 0
M  V30 5197 H 472.372 -3.27273 -2.14494 0
M  V30 5198 H 471.995 -2.08713 -3.38415 0
M  V30 5199 N 472.992 0.995999 -1.22138 0
M  V30 5200 C 474.269 1.70834 -0.952642 0
M  V30 5201 C 474.649 2.04257 0.533119 0
M  V30 5202 O 473.997 1.72343 1.50034 0
M  V30 5203 C 474.207 2.96119 -1.84701 0
M  V30 5204 C 475.555 3.68962 -2.10124 0
M  V30 5205 O 476.579 3.0612 -1.82124 0
M  V30 5206 O 475.438 4.82017 -2.57531 0
M  V30 5207 H 472.532 0.745498 -0.357997 0
M  V30 5208 H 475.078 1.05262 -1.33109 0
M  V30 5209 H 473.85 2.67898 -2.85213 0
M  V30 5210 H 473.473 3.6943 -1.46995 0
M  V30 5211 N 474.47 1.03057 1.19235 0
M  V30 5212 C 475.38 0.622922 2.26179 0
M  V30 5213 C 476.396 -0.346113 1.70523 0
M  V30 5214 O 477.572 -0.203572 2.00369 0
M  V30 5215 C 474.637 -0.0182063 3.46695 0
M  V30 5216 C 473.698 0.998546 4.17526 0
M  V30 5217 C 472.931 0.387917 5.32288 0
M  V30 5218 O 473.154 -0.808668 5.64639 0
M  V30 5219 O 472.088 1.1116 5.91546 0
M  V30 5220 H 475.914 1.51363 2.63292 0
M  V30 5221 H 473.499 0.800856 1.26122 0
M  V30 5222 H 475.381 -0.375606 4.19723 0
M  V30 5223 H 474.056 -0.882895 3.11427 0
M  V30 5224 H 472.963 1.40756 3.4661 0
M  V30 5225 H 474.296 1.83366 4.56769 0
M  V30 5226 N 475.948 -1.35272 0.808662 0
M  V30 5227 C 476.858 -2.33546 0.222079 0
M  V30 5228 C 477.874 -1.6196 -0.636011 0
M  V30 5229 O 479.05 -1.93822 -0.547274 0
M  V30 5230 C 476.115 -3.41148 -0.61795 0
M  V30 5231 C 475.176 -4.28507 0.260875 0
M  V30 5232 C 474.409 -5.3097 -0.539156 0
M  V30 5233 O 474.632 -5.42123 -1.77367 0
M  V30 5234 O 473.566 -6.01858 0.0710526 0
M  V30 5235 H 477.392 -2.85515 1.03512 0
M  V30 5236 H 474.977 -1.38079 0.570495 0
M  V30 5237 H 476.859 -4.06889 -1.09634 0
M  V30 5238 H 475.534 -2.91447 -1.40855 0
M  V30 5239 H 474.441 -3.6574 0.786451 0
M  V30 5240 H 475.774 -4.81611 1.01547 0
M  V30 5241 N 477.426 -0.562348 -1.47226 0
M  V30 5242 C 478.656 -0.0451619 -2.06551 0
M  V30 5243 C 479.064 1.25626 -1.41473 0
M  V30 5244 O 478.407 1.76563 -0.507061 0
M  V30 5245 C 478.469 0.216068 -3.5885 0
M  V30 5246 C 478.133 -0.996691 -4.45999 0
M  V30 5247 C 479.13 -1.90358 -4.83797 0
M  V30 5248 C 476.815 -1.21281 -4.87438 0
M  V30 5249 C 478.809 -3.01023 -5.6184 0
M  V30 5250 C 476.496 -2.32255 -5.65244 0
M  V30 5251 C 477.494 -3.21956 -6.02356 0
M  V30 5252 O 477.182 -4.31005 -6.78594 0
M  V30 5253 H 476.914 -0.0451646 -0.67449 0
M  V30 5254 H 479.468 -0.776842 -1.90143 0
M  V30 5255 H 477.698 1.00212 -3.7349 0
M  V30 5256 H 479.387 0.679264 -4.00176 0
M  V30 5257 H 480.153 -1.74868 -4.52378 0
M  V30 5258 H 476.032 -0.523767 -4.58015 0
M  V30 5259 H 479.576 -3.71064 -5.90726 0
M  V30 5260 H 475.473 -2.47715 -5.96077 0
M  V30 5261 H 476.241 -4.29118 -6.96994 0
M  V30 5262 N 478.904 1.54736 -0.299062 0
M  V30 5263 C 479.867 2.22127 0.565012 0
M  V30 5264 C 480.867 1.20669 1.06281 0
M  V30 5265 O 482.057 1.45417 0.959145 0
M  V30 5266 C 479.189 2.90611 1.78208 0
M  V30 5267 H 480.382 2.99891 -0.0237448 0
M  V30 5268 H 477.935 1.5622 -0.0498788 0
M  V30 5269 H 478.67 2.16921 2.41072 0
M  V30 5270 H 478.455 3.64984 1.43281 0
M  V30 5271 H 479.945 3.42026 2.396 0
M  V30 5272 N 480.382 0.0267497 1.57577 0
M  V30 5273 C 481.659 -0.690926 1.82991 0
M  V30 5274 C 482.039 -1.90471 0.910164 0
M  V30 5275 O 481.387 -2.28474 -0.0347985 0
M  V30 5276 C 481.597 -1.07139 3.32148 0
M  V30 5277 C 482.945 -1.46402 3.98562 0
M  V30 5278 O 483.969 -1.16443 3.36629 0
M  V30 5279 O 482.828 -2.02214 5.07712 0
M  V30 5280 H 479.922 -0.338747 0.75444 0
M  V30 5281 H 482.468 0.0542506 1.69613 0
M  V30 5282 H 481.24 -0.207394 3.9075 0
M  V30 5283 H 480.863 -1.87481 3.50623 0
M  V30 5284 N 481.861 -1.55662 -0.24637 0
M  V30 5285 C 482.809 -1.91186 -1.3248 0
M  V30 5286 C 483.803 -0.790996 -1.49799 0
M  V30 5287 O 485.009 -0.975617 -1.51267 0
M  V30 5288 H 481.384 -0.607207 -0.443626 0
M  V30 5289 H 483.355 -2.81221 -0.997853 0
M  V30 5290 C 482.104 -2.22349 -2.67313 0
M  V30 5291 H 481.427 -3.08097 -2.54786 0
M  V30 5292 H 482.867 -2.51107 -3.41645 0
M  V30 5293 C 481.326 -1.04001 -3.20446 0
M  V30 5294 O 481.856 -0.28828 -4.00664 0
M  V30 5295 N 480.062 -0.830494 -2.7848 0
M  V30 5296 H 479.609 -1.4435 -2.13356 0
M  V30 5297 H 479.567 -0.0403258 -3.14374 0
M  V30 5298 N 483.339 0.512053 -1.4905 0
M  V30 5299 C 484.586 1.26686 -1.57978 0
M  V30 5300 C 484.914 1.92733 -0.261553 0
M  V30 5301 O 484.169 1.80772 0.749667 0
M  V30 5302 C 484.468 2.36446 -2.68008 0
M  V30 5303 C 484.134 1.87932 -4.09869 0
M  V30 5304 C 482.796 1.74419 -4.48477 0
M  V30 5305 C 485.148 1.5149 -4.98698 0
M  V30 5306 C 482.476 1.22827 -5.73699 0
M  V30 5307 C 484.828 1.01355 -6.24428 0
M  V30 5308 C 483.492 0.864735 -6.61875 0
M  V30 5309 H 482.762 0.463577 -0.578081 0
M  V30 5310 H 485.409 0.569421 -1.82838 0
M  V30 5311 H 483.714 3.11933 -2.37076 0
M  V30 5312 H 485.411 2.9453 -2.72127 0
M  V30 5313 H 482.001 1.99405 -3.79389 0
M  V30 5314 H 486.185 1.60782 -4.69535 0
M  V30 5315 H 481.441 1.10008 -6.01422 0
M  V30 5316 H 485.615 0.722351 -6.92644 0
M  V30 5317 H 483.242 0.462777 -7.5879 0
M  V30 5318 N 484.817 1.37938 0.762283 0
M  V30 5319 C 486.065 1.33404 1.51815 0
M  V30 5320 C 486.386 -0.0780975 1.94844 0
M  V30 5321 O 485.656 -1.02405 1.67003 0
M  V30 5322 H 484.236 0.490839 0.563104 0
M  V30 5323 H 486.898 1.72527 0.906669 0
M  V30 5324 H 485.994 1.97926 2.41313 0
M  V30 5325 N 486.295 -0.989507 1.22664 0
M  V30 5326 C 487.242 -2.08024 0.999733 0
M  V30 5327 C 488.212 -1.65909 -0.0797047 0
M  V30 5328 O 489.397 -1.90669 0.0705715 0
M  V30 5329 C 486.537 -3.40067 0.587234 0
M  V30 5330 C 485.65 -3.95505 1.73781 0
M  V30 5331 C 484.785 -5.15722 1.27297 0
M  V30 5332 C 483.824 -5.63305 2.39488 0
M  V30 5333 N 482.961 -6.74758 1.94026 0
M  V30 5334 H 487.801 -2.26768 1.9334 0
M  V30 5335 H 485.338 -1.11171 0.963297 0
M  V30 5336 H 487.296 -4.15899 0.329227 0
M  V30 5337 H 485.926 -3.21314 -0.309426 0
M  V30 5338 H 484.978 -3.16513 2.11006 0
M  V30 5339 H 486.29 -4.26797 2.58158 0
M  V30 5340 H 485.444 -5.98854 0.972546 0
M  V30 5341 H 484.183 -4.86061 0.399445 0
M  V30 5342 H 483.188 -4.78759 2.70315 0
M  V30 5343 H 484.413 -5.94988 3.27362 0
M  V30 5344 H 482.359 -6.46874 1.09041 0
M  V30 5345 H 482.276 -7.05386 2.71968 0
M  V30 5346 H 483.544 -7.61387 1.67062 0
M  V30 5347 N 487.773 -1.03688 -1.18687 0
M  V30 5348 C 488.736 -0.629115 -2.20397 0
M  V30 5349 C 489.736 0.311495 -1.57754 0
M  V30 5350 O 490.926 0.0974107 -1.73927 0
M  V30 5351 C 488.058 0.0782231 -3.4081 0
M  V30 5352 H 489.251 -1.52915 -2.57987 0
M  V30 5353 H 486.804 -0.828988 -1.32505 0
M  V30 5354 H 487.539 0.992233 -3.08748 0
M  V30 5355 H 487.324 -0.597776 -3.87517 0
M  V30 5356 H 488.814 0.350156 -4.16129 0
M  V30 5357 N 489.251 1.34841 -0.815825 0
M  V30 5358 C 490.479 2.0273 -0.413294 0
M  V30 5359 C 490.894 1.61459 0.978599 0
M  V30 5360 O 490.251 0.816584 1.63212 0
M  V30 5361 C 490.302 3.58058 -0.497676 0
M  V30 5362 O 490.023 3.97832 -1.8347 0
M  V30 5363 C 491.524 4.4321 -0.0891339 0
M  V30 5364 H 488.744 0.649956 -0.166728 0
M  V30 5365 H 491.288 1.72267 -1.10201 0
M  V30 5366 H 489.443 3.87136 0.142886 0
M  V30 5367 H 489.857 4.92501 -1.80396 0
M  V30 5368 H 491.331 5.5164 -0.199274 0
M  V30 5369 H 491.808 4.28432 0.966571 0
M  V30 5370 H 492.414 4.19446 -0.703214 0
M  V30 5371 N 490.729 0.570148 1.46925 0
M  V30 5372 C 491.975 0.0593124 2.03314 0
M  V30 5373 C 492.33 -1.28139 1.43521 0
M  V30 5374 O 491.623 -1.82411 0.586245 0
M  V30 5375 C 491.817 -0.0780336 3.57315 0
M  V30 5376 C 491.646 1.2478 4.32042 0
M  V30 5377 C 490.416 1.81859 4.7144 0
M  V30 5378 C 492.614 2.16808 4.66368 0
M  V30 5379 N 490.596 3.08313 5.30864 0
M  V30 5380 C 491.967 3.27845 5.2623 0
M  V30 5381 C 494.022 2.16643 4.48297 0
M  V30 5382 C 492.725 4.38832 5.69929 0
M  V30 5383 C 494.751 3.26652 4.93004 0
M  V30 5384 C 494.113 4.36408 5.52926 0
M  V30 5385 H 490.212 0.0641804 0.779362 0
M  V30 5386 H 492.796 0.760285 1.79242 0
M  V30 5387 H 490.967 -0.748151 3.81126 0
M  V30 5388 H 492.699 -0.59211 4.00345 0
M  V30 5389 H 489.454 1.35502 4.53802 0
M  V30 5390 H 489.878 3.72802 5.65108 0
M  V30 5391 H 494.52 1.33065 4.01315 0
M  V30 5392 H 492.238 5.23162 6.15896 0
M  V30 5393 H 495.824 3.27627 4.80782 0
M  V30 5394 H 494.704 5.20127 5.86888 0
M  V30 5395 N 492.207 -1.54576 0.307264 0
M  V30 5396 C 493.455 -1.99867 -0.299574 0
M  V30 5397 C 493.776 -1.19714 -1.53927 0
M  V30 5398 O 493.046 -0.29472 -1.9367 0
M  V30 5399 H 491.626 -0.738299 -0.113683 0
M  V30 5400 H 494.288 -1.9032 0.420042 0
M  V30 5401 H 493.384 -3.06901 -0.567283 0
M  V30 5402 N 493.685 -0.035106 -1.57561 0
M  V30 5403 C 494.595 0.960295 -2.14046 0
M  V30 5404 C 495.611 1.3529 -1.0942 0
M  V30 5405 O 496.787 1.43309 -1.41508 0
M  V30 5406 C 493.852 2.22214 -2.66124 0
M  V30 5407 C 492.913 1.8894 -3.85487 0
M  V30 5408 C 492.146 3.09109 -4.35072 0
M  V30 5409 O 492.369 4.21963 -3.83802 0
M  V30 5410 O 491.303 2.91058 -5.26848 0
M  V30 5411 H 495.129 0.509983 -2.99387 0
M  V30 5412 H 492.714 0.185853 -1.48239 0
M  V30 5413 H 494.596 2.96279 -2.99661 0
M  V30 5414 H 493.271 2.66414 -1.83862 0
M  V30 5415 H 492.178 1.12241 -3.56865 0
M  V30 5416 H 493.511 1.49551 -4.6893 0
M  V30 5417 N 495.163 1.55791 0.238111 0
M  V30 5418 C 496.391 1.82098 0.982233 0
M  V30 5419 C 496.806 0.612025 1.78605 0
M  V30 5420 O 496.163 -0.419381 1.77616 0
M  V30 5421 C 496.214 3.0673 1.91309 0
M  V30 5422 O 495.935 4.2296 1.14179 0
M  V30 5423 C 497.436 3.45903 2.77248 0
M  V30 5424 H 494.656 0.605748 0.288635 0
M  V30 5425 H 497.2 2.02862 0.258341 0
M  V30 5426 H 495.355 2.87991 2.59114 0
M  V30 5427 H 495.769 4.93653 1.7722 0
M  V30 5428 H 497.243 4.36189 3.38295 0
M  V30 5429 H 497.72 2.66891 3.48806 0
M  V30 5430 H 498.326 3.67024 2.14881 0
M  V30 5431 N 496.642 -0.504142 1.49319 0
M  V30 5432 C 497.589 -1.60603 1.65756 0
M  V30 5433 C 498.559 -1.58425 0.499082 0
M  V30 5434 O 499.744 -1.76459 0.725728 0
M  V30 5435 C 496.884 -2.98764 1.72726 0
M  V30 5436 C 495.997 -3.10982 2.99857 0
M  V30 5437 C 495.132 -4.39857 2.97824 0
M  V30 5438 C 494.171 -4.45697 4.19548 0
M  V30 5439 N 493.308 -5.65995 4.15444 0
M  V30 5440 H 498.148 -1.45895 2.59843 0
M  V30 5441 H 495.685 -0.709891 1.28837 0
M  V30 5442 H 497.643 -3.78839 1.74747 0
M  V30 5443 H 496.273 -3.12183 0.821075 0
M  V30 5444 H 495.325 -2.23991 3.07461 0
M  V30 5445 H 496.637 -3.11157 3.89849 0
M  V30 5446 H 495.791 -5.2825 2.98391 0
M  V30 5447 H 494.53 -4.42242 2.05604 0
M  V30 5448 H 493.535 -3.55707 4.19229 0
M  V30 5449 H 494.76 -4.4503 5.12957 0
M  V30 5450 H 492.706 -5.69229 3.26059 0
M  V30 5451 H 492.623 -5.67773 4.99169 0
M  V30 5452 H 493.891 -6.56604 4.20109 0
M  V30 5453 N 498.12 -1.38341 -0.754957 0
M  V30 5454 C 499.368 -1.34208 -1.51105 0
M  V30 5455 C 499.689 0.0677634 -1.94882 0
M  V30 5456 O 498.959 1.01517 -1.67544 0
M  V30 5457 H 497.539 -0.493819 -0.560493 0
M  V30 5458 H 500.201 -1.73005 -0.897507 0
M  V30 5459 H 499.297 -1.99203 -2.4026 0
M  V30 5460 N 499.598 0.982988 -1.23187 0
M  V30 5461 C 501.009 1.53847 -1.05773 0
M  V30 5462 C 501.36 1.92568 0.375744 0
M  V30 5463 O 500.485 1.75783 1.26211 0
M  V30 5464 C 501.08 2.79567 -1.91384 0
M  V30 5465 C 499.639 3.31524 -1.78238 0
M  V30 5466 C 498.786 2.04534 -1.87246 0
M  V30 5467 H 501.737 0.802962 -1.36888 0
M  V30 5468 H 501.758 3.52317 -1.43711 0
M  V30 5469 H 501.27 2.51353 -2.95708 0
M  V30 5470 H 499.371 3.64623 -0.766875 0
M  V30 5471 H 499.484 4.01457 -2.61475 0
M  V30 5472 H 497.848 2.1855 -1.30797 0
M  V30 5473 H 498.631 1.78706 -2.9312 0
M  V30 5474 N 501.076 1.04316 1.18135 0
M  V30 5475 C 501.986 0.646876 2.25505 0
M  V30 5476 C 503.002 -0.328008 1.7088 0
M  V30 5477 O 504.178 -0.182309 2.00573 0
M  V30 5478 C 501.243 0.0185664 3.46695 0
M  V30 5479 C 500.304 1.04277 4.16443 0
M  V30 5480 C 499.537 0.444352 5.31847 0
M  V30 5481 O 499.76 -0.748735 5.65465 0
M  V30 5482 O 498.694 1.17428 5.90334 0
M  V30 5483 H 502.52 1.54147 2.61672 0
M  V30 5484 H 500.105 0.814188 1.25265 0
M  V30 5485 H 501.987 -0.331068 4.20097 0
M  V30 5486 H 500.662 -0.849814 3.12346 0
M  V30 5487 H 499.569 1.44425 3.45098 0
M  V30 5488 H 500.902 1.882 4.54798 0
M  V30 5489 N 502.554 -1.34406 0.822964 0
M  V30 5490 C 503.97 -1.51275 0.508727 0
M  V30 5491 C 504.17 -1.76776 -0.967083 0
M  V30 5492 O 503.226 -1.81871 -1.75155 0
M  V30 5493 C 504.539 -2.67765 1.36829 0
M  V30 5494 C 506.087 -2.81647 1.36542 0
M  V30 5495 C 506.562 -4.01181 2.20947 0
M  V30 5496 N 508.053 -4.08388 2.18571 0
M  V30 5497 C 508.788 -5.00036 2.80627 0
M  V30 5498 N 508.284 -5.96906 3.51674 0
M  V30 5499 N 510.077 -4.92908 2.70181 0
M  V30 5500 H 502.228 -1.16113 1.77852 0
M  V30 5501 H 504.491 -0.56947 0.757897 0
M  V30 5502 H 504.197 -2.55551 2.41633 0
M  V30 5503 H 504.071 -3.62779 1.03303 0
M  V30 5504 H 506.458 -2.93303 0.325163 0
M  V30 5505 H 506.539 -1.87443 1.74066 0
M  V30 5506 H 506.183 -3.90286 3.25022 0
M  V30 5507 H 506.113 -4.94599 1.80774 0
M  V30 5508 H 508.604 -3.39051 1.66891 0
M  V30 5509 H 508.917 -6.63468 3.96271 0
M  V30 5510 H 507.262 -5.9703 3.5578 0
M  V30 5511 H 510.453 -4.1619 2.14251 0
M  V30 5512 H 510.626 -5.64137 3.18831 0
M  V30 5513 N 504.032 -0.577932 -1.46621 0
M  V30 5514 C 504.942 0.160651 -2.34049 0
M  V30 5515 C 505.958 0.890911 -1.49462 0
M  V30 5516 O 507.134 0.855166 -1.82343 0
M  V30 5517 C 504.199 1.16447 -3.26559 0
M  V30 5518 C 503.26 0.4394 -4.27045 0
M  V30 5519 C 502.493 1.3954 -5.15135 0
M  V30 5520 O 502.716 2.63162 -5.06065 0
M  V30 5521 O 501.65 0.908585 -5.95003 0
M  V30 5522 H 505.476 -0.557057 -2.98547 0
M  V30 5523 H 503.061 -0.338369 -1.45518 0
M  V30 5524 H 504.943 1.7434 -3.83645 0
M  V30 5525 H 503.618 1.86373 -2.64663 0
M  V30 5526 H 502.525 -0.181247 -3.73661 0
M  V30 5527 H 503.858 -0.218799 -4.91713 0
M  V30 5528 N 505.51 1.54411 -0.315457 0
M  V30 5529 C 506.443 2.20265 0.596522 0
M  V30 5530 C 507.421 1.17693 1.12192 0
M  V30 5531 O 508.605 1.46397 1.18744 0
M  V30 5532 C 505.732 2.85794 1.81767 0
M  V30 5533 C 504.778 4.02017 1.42424 0
M  V30 5534 S 505.611 5.33452 0.467836 0
M  V30 5535 C 506.767 6.02471 1.69645 0
M  V30 5536 H 507 2.97277 0.0370896 0
M  V30 5537 H 504.533 1.54079 -0.0995562 0
M  V30 5538 H 506.491 3.24172 2.51839 0
M  V30 5539 H 505.152 2.08601 2.34828 0
M  V30 5540 H 504.345 4.46701 2.33396 0
M  V30 5541 H 503.947 3.65271 0.803311 0
M  V30 5542 H 506.239 6.24157 2.63504 0
M  V30 5543 H 507.182 6.96215 1.29192 0
M  V30 5544 H 507.59 5.32284 1.87974 0
M  V30 5545 N 506.988 0.0434614 1.5754 0
M  V30 5546 C 508.265 -0.671479 1.83713 0
M  V30 5547 C 508.645 -1.89495 0.930315 0
M  V30 5548 O 507.993 -2.28498 -0.0105639 0
M  V30 5549 C 508.203 -1.0361 3.33266 0
M  V30 5550 C 509.551 -1.42167 4.00092 0
M  V30 5551 O 510.575 -1.12866 3.37846 0
M  V30 5552 O 509.434 -1.96817 5.09829 0
M  V30 5553 H 506.528 -0.330726 0.75799 0
M  V30 5554 H 509.074 0.0722373 1.69546 0
M  V30 5555 H 507.846 -0.165938 3.90948 0
M  V30 5556 H 507.469 -1.83751 3.52592 0
M  V30 5557 N 508.466 -1.55915 -0.229846 0
M  V30 5558 C 509.429 -1.90914 -1.26824 0
M  V30 5559 C 510.429 -0.786999 -1.40225 0
M  V30 5560 O 511.619 -1.05484 -1.38632 0
M  V30 5561 C 508.751 -2.15264 -2.64337 0
M  V30 5562 H 509.944 -2.8378 -0.969998 0
M  V30 5563 H 507.497 -1.49069 -0.4699 0
M  V30 5564 H 508.232 -1.24923 -2.99274 0
M  V30 5565 H 508.017 -2.97005 -2.55989 0
M  V30 5566 H 509.507 -2.43467 -3.39284 0
M  V30 5567 N 509.944 0.496216 -1.49584 0
M  V30 5568 C 511.193 1.24668 -1.58558 0
M  V30 5569 C 511.506 1.9359 -0.279703 0
M  V30 5570 O 512.712 2.70365 -0.248048 0
M  V30 5571 C 511.168 2.26388 -2.79779 0
M  V30 5572 C 510.776 1.63384 -4.17145 0
M  V30 5573 C 512.52 3.02233 -2.98086 0
M  V30 5574 C 510.427 2.63243 -5.29582 0
M  V30 5575 H 509.357 0.468995 -0.590389 0
M  V30 5576 H 512.008 0.519985 -1.75978 0
M  V30 5577 H 510.39 3.02241 -2.55863 0
M  V30 5578 H 511.564 0.93491 -4.51216 0
M  V30 5579 H 509.879 0.999121 -4.04236 0
M  V30 5580 H 512.476 3.76919 -3.79257 0
M  V30 5581 H 512.819 3.60132 -2.08831 0
M  V30 5582 H 513.352 2.33495 -3.22063 0
M  V30 5583 H 510.091 2.10119 -6.20911 0
M  V30 5584 H 509.611 3.31363 -4.99959 0
M  V30 5585 H 511.29 3.25575 -5.59115 0
M  V30 5586 N 511.423 1.38739 0.74761 0
M  V30 5587 C 512.355 1.32341 1.87132 0
M  V30 5588 C 513.368 0.234502 1.61102 0
M  V30 5589 O 514.557 0.492516 1.71571 0
M  V30 5590 C 511.657 1.02915 3.22896 0
M  V30 5591 C 510.83 2.22834 3.76383 0
M  V30 5592 C 509.889 1.90059 4.90677 0
M  V30 5593 O 508.915 2.62615 5.04997 0
M  V30 5594 N 510.117 0.859141 5.74107 0
M  V30 5595 H 512.882 2.29175 1.93129 0
M  V30 5596 H 510.443 1.32678 0.927805 0
M  V30 5597 H 512.435 0.79031 3.96908 0
M  V30 5598 H 511.005 0.148572 3.12247 0
M  V30 5599 H 510.225 2.62747 2.93867 0
M  V30 5600 H 511.513 3.02851 4.08851 0
M  V30 5601 H 510.911 0.257564 5.65113 0
M  V30 5602 H 509.468 0.680189 6.48241 0
M  V30 5603 N 512.901 -0.976442 1.23707 0
M  V30 5604 C 513.864 -2.0511 1.02287 0
M  V30 5605 C 514.864 -1.60791 -0.0167195 0
M  V30 5606 O 516.054 -1.72761 0.223408 0
M  V30 5607 C 513.186 -3.36458 0.548507 0
M  V30 5608 H 514.379 -2.25545 1.9766 0
M  V30 5609 H 511.932 -1.15042 1.05806 0
M  V30 5610 H 512.667 -3.21713 -0.408818 0
M  V30 5611 H 512.452 -3.69967 1.29874 0
M  V30 5612 H 513.942 -4.15489 0.419406 0
M  V30 5613 N 514.379 -1.04941 -1.1758 0
M  V30 5614 C 515.326 -0.648155 -2.21512 0
M  V30 5615 C 516.296 0.348431 -1.62404 0
M  V30 5616 O 517.481 0.240419 -1.89279 0
M  V30 5617 C 514.621 -0.0264291 -3.4509 0
M  V30 5618 C 513.734 -1.07154 -4.185 0
M  V30 5619 C 512.869 -0.417403 -5.29558 0
M  V30 5620 C 511.908 -1.447 -5.94751 0
M  V30 5621 N 511.045 -0.817203 -6.97328 0
M  V30 5622 H 515.885 -1.53891 -2.55189 0
M  V30 5623 H 513.422 -0.769699 -1.25356 0
M  V30 5624 H 515.38 0.351456 -4.15717 0
M  V30 5625 H 514.01 0.827802 -3.12005 0
M  V30 5626 H 513.062 -1.56728 -3.46613 0
M  V30 5627 H 514.374 -1.8532 -4.63096 0
M  V30 5628 H 513.528 0.0142061 -6.06698 0
M  V30 5629 H 512.267 0.396265 -4.86087 0
M  V30 5630 H 511.272 -1.88865 -5.16343 0
M  V30 5631 H 512.497 -2.26252 -6.40302 0
M  V30 5632 H 510.443 -0.0239995 -6.55996 0
M  V30 5633 H 510.36 -1.53644 -7.40223 0
M  V30 5634 H 511.628 -0.410283 -7.7842 0
M  V30 5635 N 515.857 1.33968 -0.830081 0
M  V30 5636 C 516.767 2.33164 -0.259207 0
M  V30 5637 C 517.783 1.62951 0.610164 0
M  V30 5638 O 518.959 1.94668 0.516369 0
M  V30 5639 C 516.024 3.42088 0.563598 0
M  V30 5640 C 515.085 4.28037 -0.329014 0
M  V30 5641 C 514.318 5.3176 0.454616 0
M  V30 5642 O 514.541 5.44876 1.6872 0
M  V30 5643 O 513.475 6.01669 -0.166794 0
M  V30 5644 H 517.301 2.83832 -1.08041 0
M  V30 5645 H 514.886 1.37154 -0.59239 0
M  V30 5646 H 516.768 4.08581 1.03147 0
M  V30 5647 H 515.443 2.93651 1.36201 0
M  V30 5648 H 514.35 3.64443 -0.844538 0
M  V30 5649 H 515.683 4.79934 -1.09196 0
M  V30 5650 N 517.335 0.585699 1.46312 0
M  V30 5651 C 518.245 -0.148236 2.34131 0
M  V30 5652 C 519.261 -0.882972 1.49932 0
M  V30 5653 O 520.437 -0.845484 1.82794 0
M  V30 5654 C 517.502 -1.14714 3.27172 0
M  V30 5655 C 516.563 -0.416746 4.27272 0
M  V30 5656 C 515.796 -1.36806 5.15868 0
M  V30 5657 O 516.019 -2.60475 5.07454 0
M  V30 5658 O 514.953 -0.877018 5.95476 0
M  V30 5659 H 518.779 0.572882 2.98248 0
M  V30 5660 H 516.364 0.346082 1.45336 0
M  V30 5661 H 518.246 -1.72303 3.84564 0
M  V30 5662 H 516.921 -1.84967 2.65648 0
M  V30 5663 H 515.828 0.201061 3.73559 0
M  V30 5664 H 517.161 0.244872 4.9159 0
M  V30 5665 N 518.813 -1.54241 0.323641 0
M  V30 5666 C 519.746 -2.20579 -0.584833 0
M  V30 5667 C 520.724 -1.18286 -1.11567 0
M  V30 5668 O 521.908 -1.47025 -1.17966 0
M  V30 5669 C 519.035 -2.86754 -1.80249 0
M  V30 5670 C 518.081 -4.02767 -1.4029 0
M  V30 5671 S 518.914 -5.33693 -0.439539 0
M  V30 5672 C 520.07 -6.03362 -1.66448 0
M  V30 5673 H 520.303 -2.97292 -0.0213238 0
M  V30 5674 H 517.836 -1.54024 0.107726 0
M  V30 5675 H 519.794 -3.25503 -2.50116 0
M  V30 5676 H 518.455 -2.09844 -2.33719 0
M  V30 5677 H 517.648 -4.47933 -2.31024 0
M  V30 5678 H 517.25 -3.65692 -0.783928 0
M  V30 5679 H 519.542 -6.25546 -2.6019 0
M  V30 5680 H 520.485 -6.9689 -1.25498 0
M  V30 5681 H 520.893 -5.33273 -1.85149 0
M  V30 5682 N 520.291 -0.0518155 -1.57515 0
M  V30 5683 C 521.238 0.922352 -2.11569 0
M  V30 5684 C 522.208 1.30842 -1.02321 0
M  V30 5685 O 523.393 1.39778 -1.29872 0
M  V30 5686 C 520.533 2.19167 -2.6657 0
M  V30 5687 C 519.646 1.86003 -3.89906 0
M  V30 5688 C 518.781 3.07398 -4.33221 0
M  V30 5689 C 517.82 2.70158 -5.49255 0
M  V30 5690 N 516.957 3.84248 -5.8762 0
M  V30 5691 H 521.797 0.454506 -2.94514 0
M  V30 5692 H 519.334 0.212718 -1.45554 0
M  V30 5693 H 521.292 2.93443 -2.96559 0
M  V30 5694 H 519.922 2.63528 -1.86421 0
M  V30 5695 H 518.974 1.01874 -3.66505 0
M  V30 5696 H 520.286 1.54592 -4.74239 0
M  V30 5697 H 519.44 3.89972 -4.64765 0
M  V30 5698 H 518.179 3.41988 -3.477 0
M  V30 5699 H 517.184 1.86001 -5.17382 0
M  V30 5700 H 518.409 2.36759 -6.36492 0
M  V30 5701 H 516.355 4.18638 -5.05053 0
M  V30 5702 H 516.272 3.56538 -6.66646 0
M  V30 5703 H 517.54 4.6746 -6.2378 0
M  V30 5704 N 521.769 1.56035 0.221574 0
M  V30 5705 C 522.716 1.92413 1.27459 0
M  V30 5706 C 523.686 0.781323 1.46576 0
M  V30 5707 O 524.871 1.03721 1.60145 0
M  V30 5708 C 522.011 2.24617 2.61995 0
M  V30 5709 C 521.124 3.51831 2.50677 0
M  V30 5710 C 520.259 3.73482 3.77736 0
M  V30 5711 C 519.298 4.94211 3.6114 0
M  V30 5712 N 518.435 5.12252 4.80148 0
M  V30 5713 H 523.275 2.82203 0.957355 0
M  V30 5714 H 520.812 1.39676 0.461415 0
M  V30 5715 H 522.77 2.41298 3.40339 0
M  V30 5716 H 521.4 1.38 2.91815 0
M  V30 5717 H 520.452 3.43343 1.63767 0
M  V30 5718 H 521.764 4.40328 2.34334 0
M  V30 5719 H 520.918 3.9026 4.64523 0
M  V30 5720 H 519.657 2.83266 3.97003 0
M  V30 5721 H 518.662 4.77384 2.72736 0
M  V30 5722 H 519.887 5.85912 3.43343 0
M  V30 5723 H 517.833 4.24978 4.99729 0
M  V30 5724 H 517.75 5.94881 4.66532 0
M  V30 5725 H 519.018 5.33465 5.68362 0
M  V30 5726 N 523.247 -0.488276 1.49845 0
M  V30 5727 C 524.21 -1.57069 1.66919 0
M  V30 5728 C 525.21 -1.51445 0.540479 0
M  V30 5729 O 526.4 -1.5437 0.807188 0
M  V30 5730 C 523.532 -2.96718 1.67844 0
M  V30 5731 H 524.725 -1.43254 2.63474 0
M  V30 5732 H 522.278 -0.713435 1.39068 0
M  V30 5733 H 523.013 -3.15996 0.7292 0
M  V30 5734 H 522.798 -3.02208 2.49826 0
M  V30 5735 H 524.288 -3.75335 1.83066 0
M  V30 5736 N 524.725 -1.39134 -0.740242 0
M  V30 5737 C 526.141 -1.20623 -1.0451 0
M  V30 5738 C 526.341 -0.0641651 -2.01398 0
M  V30 5739 O 525.397 0.585843 -2.4561 0
M  V30 5740 C 526.71 -2.53815 -1.6124 0
M  V30 5741 C 528.258 -2.60615 -1.73346 0
M  V30 5742 C 528.733 -3.94015 -2.33486 0
M  V30 5743 N 530.224 -3.95627 -2.40902 0
M  V30 5744 C 530.959 -4.95616 -2.88361 0
M  V30 5745 N 530.455 -6.06003 -3.35756 0
M  V30 5746 N 532.248 -4.82998 -2.87523 0
M  V30 5747 H 524.399 -2.12176 -0.0975576 0
M  V30 5748 H 526.662 -0.942066 -0.105904 0
M  V30 5749 H 526.368 -3.37911 -0.975144 0
M  V30 5750 H 526.242 -2.73162 -2.6012 0
M  V30 5751 H 528.629 -1.76906 -2.36195 0
M  V30 5752 H 528.71 -2.45123 -0.731336 0
M  V30 5753 H 528.354 -4.78153 -1.71267 0
M  V30 5754 H 528.284 -4.06825 -3.34366 0
M  V30 5755 H 530.775 -3.15903 -2.07398 0
M  V30 5756 H 531.088 -6.78215 -3.70464 0
M  V30 5757 H 529.433 -6.09604 -3.33778 0
M  V30 5758 H 532.624 -3.95866 -2.49816 0
M  V30 5759 H 532.797 -5.61072 -3.24196 0
M  V30 5760 N 526.204 0.969867 -1.24223 0
M  V30 5761 C 527.114 2.09806 -1.0497 0
M  V30 5762 C 528.13 1.73998 0.00886455 0
M  V30 5763 O 529.306 2.00513 -0.188848 0
M  V30 5764 C 526.371 3.40467 -0.654452 0
M  V30 5765 C 525.432 3.90236 -1.78926 0
M  V30 5766 C 524.665 5.14662 -1.41277 0
M  V30 5767 O 524.888 5.69602 -0.301632 0
M  V30 5768 O 523.822 5.58761 -2.23763 0
M  V30 5769 H 527.648 2.28942 -1.99548 0
M  V30 5770 H 525.233 1.08197 -1.03023 0
M  V30 5771 H 527.115 4.19039 -0.445452 0
M  V30 5772 H 525.79 3.22636 0.262216 0
M  V30 5773 H 524.697 3.12735 -2.05299 0
M  V30 5774 H 526.03 4.1254 -2.68462 0
M  V30 5775 N 527.682 1.05563 1.17022 0
M  V30 5776 C 528.592 0.670758 2.24807 0
M  V30 5777 C 529.608 -0.309865 1.71219 0
M  V30 5778 O 530.784 -0.161025 2.00755 0
M  V30 5779 C 527.849 0.055337 3.46656 0
M  V30 5780 C 526.91 1.08688 4.15314 0
M  V30 5781 C 526.143 0.500736 5.31346 0
M  V30 5782 O 526.366 -0.688718 5.66227 0
M  V30 5783 O 525.3 1.23683 5.89055 0
M  V30 5784 H 529.126 1.56914 2.60023 0
M  V30 5785 H 526.711 0.827428 1.24395 0
M  V30 5786 H 528.593 -0.286492 4.20425 0
M  V30 5787 H 527.268 -0.816638 3.13229 0
M  V30 5788 H 526.175 1.48077 3.43546 0
M  V30 5789 H 527.508 1.93014 4.52777 0
M  V30 5790 N 529.16 -1.33526 0.837174 0
M  V30 5791 C 530.07 -2.33023 0.271568 0
M  V30 5792 C 531.086 -1.63272 -0.601514 0
M  V30 5793 O 532.262 -1.94939 -0.506038 0
M  V30 5794 C 529.327 -3.42382 -0.545448 0
M  V30 5795 C 528.388 -4.27857 0.351709 0
M  V30 5796 C 527.621 -5.31994 -0.426409 0
M  V30 5797 O 527.844 -5.45763 -1.65828 0
M  V30 5798 O 526.778 -6.01572 0.1987 0
M  V30 5799 H 530.604 -2.83256 1.09545 0
M  V30 5800 H 528.189 -1.36837 0.599655 0
M  V30 5801 H 530.071 -4.09122 -1.00979 0
M  V30 5802 H 528.746 -2.94369 -1.34641 0
M  V30 5803 H 527.653 -3.6399 0.863853 0
M  V30 5804 H 528.986 -4.79349 1.1174 0
M  V30 5805 N 530.638 -0.59345 -1.46 0
M  V30 5806 C 531.548 0.135817 -2.34207 0
M  V30 5807 C 532.564 0.875008 -1.50398 0
M  V30 5808 O 533.74 0.835778 -1.83239 0
M  V30 5809 C 530.805 1.12977 -3.27776 0
M  V30 5810 C 529.866 0.394081 -4.27487 0
M  V30 5811 C 529.099 1.34068 -5.16586 0
M  V30 5812 O 529.322 2.5778 -5.08828 0
M  V30 5813 O 528.256 0.845426 -5.95933 0
M  V30 5814 H 532.082 -0.588691 -2.9794 0
M  V30 5815 H 529.667 -0.353784 -1.45151 0
M  V30 5816 H 531.549 1.70261 -3.85473 0
M  V30 5817 H 530.224 1.83556 -2.66625 0
M  V30 5818 H 529.131 -0.220869 -3.73447 0
M  V30 5819 H 530.464 -0.270939 -4.91454 0
M  V30 5820 N 532.116 1.54067 -0.331816 0
M  V30 5821 C 533.026 2.28322 0.539104 0
M  V30 5822 C 534.042 1.32985 1.1221 0
M  V30 5823 O 535.218 1.6601 1.1403 0
M  V30 5824 C 532.283 3.03277 1.68 0
M  V30 5825 C 531.344 4.14216 1.12798 0
M  V30 5826 C 530.577 4.85588 2.2145 0
M  V30 5827 O 530.8 4.56536 3.41952 0
M  V30 5828 O 529.734 5.72309 1.86404 0
M  V30 5829 H 533.56 3.03632 -0.0641692 0
M  V30 5830 H 531.145 1.49083 -0.0972365 0
M  V30 5831 H 533.027 3.50189 2.34405 0
M  V30 5832 H 531.702 2.30834 2.2693 0
M  V30 5833 H 530.609 3.71635 0.428782 0
M  V30 5834 H 531.942 4.88727 0.583698 0
M  V30 5835 N 533.594 0.0601682 1.57485 0
M  V30 5836 C 534.504 -0.926121 2.15546 0
M  V30 5837 C 535.52 -1.33532 1.11558 0
M  V30 5838 O 536.696 -1.4104 1.4377 0
M  V30 5839 C 533.761 -2.17952 2.69625 0
M  V30 5840 C 532.822 -1.82783 3.88444 0
M  V30 5841 C 532.055 -3.02148 4.39935 0
M  V30 5842 O 532.278 -4.15803 3.90466 0
M  V30 5843 O 531.212 -2.82639 5.31412 0
M  V30 5844 H 535.038 -0.462289 3.00161 0
M  V30 5845 H 532.623 -0.162246 1.48516 0
M  V30 5846 H 534.505 -2.91474 3.04337 0
M  V30 5847 H 533.18 -2.63456 1.88077 0
M  V30 5848 H 532.087 -1.06549 3.58606 0
M  V30 5849 H 533.42 -1.42072 4.7125 0
M  V30 5850 N 535.072 -1.5615 -0.213296 0
M  V30 5851 C 536.002 -1.96109 -1.26742 0
M  V30 5852 C 536.983 -0.830448 -1.48451 0
M  V30 5853 O 538.168 -1.09339 -1.60495 0
M  V30 5854 C 535.298 -2.28492 -2.61551 0
M  V30 5855 C 534.252 -3.44124 -2.54485 0
M  V30 5856 C 533.578 -3.62134 -3.93399 0
M  V30 5857 C 534.878 -4.78855 -2.08556 0
M  V30 5858 H 536.572 -2.84412 -0.935434 0
M  V30 5859 H 534.118 -1.36836 -0.44854 0
M  V30 5860 H 536.071 -2.55039 -3.3546 0
M  V30 5861 H 534.795 -1.37052 -2.96453 0
M  V30 5862 H 533.454 -3.17639 -1.83033 0
M  V30 5863 H 533.102 -2.68055 -4.25623 0
M  V30 5864 H 532.802 -4.39913 -3.89551 0
M  V30 5865 H 534.326 -3.91038 -4.68958 0
M  V30 5866 H 535.74 -5.04552 -2.72213 0
M  V30 5867 H 534.137 -5.59975 -2.1575 0
M  V30 5868 H 535.207 -4.73657 -1.03811 0
M  V30 5869 N 536.55 0.480323 -1.50102 0
M  V30 5870 C 537.48 1.58769 -1.71215 0
M  V30 5871 C 538.461 1.60583 -0.560997 0
M  V30 5872 O 539.646 1.76996 -0.799127 0
M  V30 5873 C 536.776 2.97148 -1.79778 0
M  V30 5874 C 535.73 3.10201 -2.94888 0
M  V30 5875 C 535.056 4.50137 -2.88584 0
M  V30 5876 C 536.356 2.88283 -4.35534 0
M  V30 5877 H 538.05 1.41354 -2.6393 0
M  V30 5878 H 535.596 0.678591 -1.27008 0
M  V30 5879 H 537.549 3.74536 -1.93133 0
M  V30 5880 H 536.273 3.15699 -0.836772 0
M  V30 5881 H 534.932 2.35244 -2.81169 0
M  V30 5882 H 534.58 4.65593 -1.90349 0
M  V30 5883 H 534.28 4.59808 -3.65856 0
M  V30 5884 H 535.804 5.29558 -3.03976 0
M  V30 5885 H 537.218 3.55427 -4.49827 0
M  V30 5886 H 535.615 3.09408 -5.14186 0
M  V30 5887 H 536.685 1.84219 -4.48544 0
M  V30 5888 N 538.028 1.39524 0.732853 0
M  V30 5889 C 539.253 1.40329 1.52717 0
M  V30 5890 C 539.678 0.000286574 1.881 0
M  V30 5891 O 539.036 -0.987262 1.52062 0
M  V30 5892 C 539.084 2.28464 2.78992 0
M  V30 5893 O 538.188 1.716 3.75003 0
M  V30 5894 H 537.529 0.47778 0.461109 0
M  V30 5895 H 540.059 1.83546 0.903996 0
M  V30 5896 H 540.069 2.43051 3.27705 0
M  V30 5897 H 538.744 3.30425 2.52572 0
M  V30 5898 H 537.321 1.66267 3.33781 0
M  V30 5899 N 539.506 -0.963266 1.24736 0
M  V30 5900 C 540.754 -1.70343 1.08755 0
M  V30 5901 C 541.075 -1.91387 -0.373619 0
M  V30 5902 O 540.345 -1.4948 -1.2662 0
M  V30 5903 H 538.925 -0.631224 0.399456 0
M  V30 5904 H 541.587 -1.15859 1.56725 0
M  V30 5905 H 540.683 -2.68616 1.58909 0
M  V30 5906 N 540.985 -1.06182 -1.16461 0
M  V30 5907 C 541.932 -0.671613 -2.20812 0
M  V30 5908 C 542.902 0.331186 -1.62765 0
M  V30 5909 O 544.087 0.22033 -1.89524 0
M  V30 5910 C 541.227 -0.063029 -3.45042 0
M  V30 5911 C 540.34 -1.11587 -4.1734 0
M  V30 5912 C 539.475 -0.473546 -5.29085 0
M  V30 5913 C 538.514 -1.51 -5.93182 0
M  V30 5914 N 537.651 -0.891118 -6.96422 0
M  V30 5915 H 542.491 -1.56589 -2.53542 0
M  V30 5916 H 540.028 -0.782951 -1.24532 0
M  V30 5917 H 541.986 0.307344 -4.16066 0
M  V30 5918 H 540.616 0.794663 -3.12866 0
M  V30 5919 H 539.668 -1.60396 -3.44931 0
M  V30 5920 H 540.98 -1.90221 -4.61104 0
M  V30 5921 H 540.134 -0.0501432 -6.06679 0
M  V30 5922 H 538.873 0.344687 -4.8648 0
M  V30 5923 H 537.878 -1.94331 -5.14311 0
M  V30 5924 H 539.103 -2.33031 -6.37866 0
M  V30 5925 H 537.049 -0.0935753 -6.55933 0
M  V30 5926 H 536.966 -1.61486 -7.38551 0
M  V30 5927 H 538.234 -0.492822 -7.77941 0
M  V30 5928 N 542.463 1.3308 -0.844243 0
M  V30 5929 C 543.712 1.96868 -0.438833 0
M  V30 5930 C 544.025 1.67599 1.00846 0
M  V30 5931 O 545.231 2.25043 1.51881 0
M  V30 5932 C 543.687 3.5234 -0.73377 0
M  V30 5933 C 543.295 3.90481 -2.1961 0
M  V30 5934 C 545.039 4.22653 -0.395574 0
M  V30 5935 C 542.946 5.38954 -2.43481 0
M  V30 5936 H 541.876 0.736749 -0.160364 0
M  V30 5937 H 544.527 1.51623 -1.03358 0
M  V30 5938 H 542.909 3.95941 -0.068589 0
M  V30 5939 H 544.083 3.57922 -2.90221 0
M  V30 5940 H 542.398 3.33165 -2.4978 0
M  V30 5941 H 544.995 5.31848 -0.551477 0
M  V30 5942 H 545.338 4.11004 0.661921 0
M  V30 5943 H 545.871 3.84601 -1.01621 0
M  V30 5944 H 542.61 5.55612 -3.47816 0
M  V30 5945 H 542.13 5.72954 -1.77437 0
M  V30 5946 H 543.809 6.05907 -2.26905 0
M  V30 5947 N 543.941 0.601185 1.45683 0
M  V30 5948 C 544.889 -0.133955 2.32214 0
M  V30 5949 C 545.883 -0.866034 1.45589 0
M  V30 5950 O 547.089 -0.782326 1.6211 0
M  V30 5951 H 543.464 -0.0620613 0.749435 0
M  V30 5952 H 545.435 0.614389 2.92007 0
M  V30 5953 C 544.184 -1.12216 3.29094 0
M  V30 5954 H 543.507 -0.568273 3.95741 0
M  V30 5955 H 544.947 -1.60659 3.92383 0
M  V30 5956 C 543.406 -2.19251 2.55794 0
M  V30 5957 O 543.936 -3.26894 2.33459 0
M  V30 5958 N 542.142 -1.9436 2.16039 0
M  V30 5959 H 541.689 -1.06829 2.34404 0
M  V30 5960 H 541.647 -2.66181 1.67318 0
M  V30 5961 N 545.419 -1.53889 0.339982 0
M  V30 5962 C 546.835 -1.59595 -0.0120752 0
M  V30 5963 C 547.035 -1.35605 -1.49042 0
M  V30 5964 O 546.091 -1.14856 -2.24865 0
M  V30 5965 C 547.404 -2.9774 0.420898 0
M  V30 5966 C 548.952 -3.1077 0.37294 0
M  V30 5967 C 549.427 -4.51286 0.781327 0
M  V30 5968 N 550.918 -4.57325 0.735374 0
M  V30 5969 C 551.653 -5.64194 1.02336 0
M  V30 5970 N 551.149 -6.7893 1.37933 0
M  V30 5971 N 552.942 -5.54051 0.947838 0
M  V30 5972 H 545.093 -1.67738 1.30299 0
M  V30 5973 H 547.356 -0.785385 0.530918 0
M  V30 5974 H 547.062 -3.20349 1.45152 0
M  V30 5975 H 546.936 -3.76639 -0.205721 0
M  V30 5976 H 549.323 -2.87886 -0.648505 0
M  V30 5977 H 549.404 -2.33939 1.03472 0
M  V30 5978 H 549.048 -4.74905 1.80077 0
M  V30 5979 H 548.978 -5.26511 0.0970679 0
M  V30 5980 H 551.469 -3.74931 0.472773 0
M  V30 5981 H 551.782 -7.56392 1.58402 0
M  V30 5982 H 550.127 -6.80386 1.41774 0
M  V30 5983 H 553.318 -4.63293 0.669115 0
M  V30 5984 H 553.491 -6.37246 1.17563 0
M  V30 5985 N 546.897 -0.0685191 -1.57451 0
M  V30 5986 C 547.847 0.909895 -2.09057 0
M  V30 5987 C 548.831 1.26088 -0.999528 0
M  V30 5988 O 550.023 1.24041 -1.26265 0
M  V30 5989 C 547.152 2.17863 -2.65312 0
M  V30 5990 C 546.238 1.85427 -3.81415 0
M  V30 5991 N 546.629 1.23426 -4.9051 0
M  V30 5992 C 544.927 2.15196 -3.90649 0
M  V30 5993 C 545.628 1.09008 -5.71395 0
M  V30 5994 N 544.604 1.59871 -5.1956 0
M  V30 5995 H 548.406 0.426145 -2.90794 0
M  V30 5996 H 545.92 0.135462 -1.61834 0
M  V30 5997 H 547.917 2.88872 -3.00597 0
M  V30 5998 H 546.577 2.66829 -1.85021 0
M  V30 5999 H 547.588 0.904305 -5.09944 0
M  V30 6000 H 544.265 2.66562 -3.21327 0
M  V30 6001 H 545.655 0.607305 -6.6915 0
M  V30 6002 N 548.375 1.56261 0.205012 0
M  V30 6003 C 549.285 1.96944 1.27476 0
M  V30 6004 C 550.301 0.875636 1.50362 0
M  V30 6005 O 551.477 1.18058 1.6317 0
M  V30 6006 C 548.542 2.29219 2.60115 0
M  V30 6007 C 547.603 3.52255 2.45387 0
M  V30 6008 C 546.836 3.8298 3.71701 0
M  V30 6009 O 547.059 3.15138 4.75441 0
M  V30 6010 O 545.993 4.76435 3.67823 0
M  V30 6011 H 549.819 2.88144 0.959527 0
M  V30 6012 H 547.404 1.43686 0.409217 0
M  V30 6013 H 549.286 2.51098 3.3842 0
M  V30 6014 H 547.961 1.4119 2.91285 0
M  V30 6015 H 546.868 3.35635 1.65227 0
M  V30 6016 H 548.201 4.40719 2.19152 0
M  V30 6017 N 549.853 -0.472356 1.50355 0
M  V30 6018 C 550.803 -1.56809 1.65514 0
M  V30 6019 C 551.787 -1.5261 0.509801 0
M  V30 6020 O 552.979 -1.59655 0.764145 0
M  V30 6021 C 550.108 -2.9526 1.75146 0
M  V30 6022 C 549.194 -3.04348 2.95353 0
M  V30 6023 N 549.585 -2.83253 4.19048 0
M  V30 6024 C 547.883 -3.35482 2.93884 0
M  V30 6025 C 548.584 -2.97273 5.00003 0
M  V30 6026 N 547.56 -3.27418 4.33934 0
M  V30 6027 H 551.362 -1.39197 2.58846 0
M  V30 6028 H 548.876 -0.67906 1.47521 0
M  V30 6029 H 550.873 -3.74044 1.8411 0
M  V30 6030 H 549.533 -3.1392 0.829717 0
M  V30 6031 H 550.544 -2.5886 4.48567 0
M  V30 6032 H 547.221 -3.60138 2.11204 0
M  V30 6033 H 548.611 -2.85214 6.08361 0
M  V30 6034 N 551.331 -1.39911 -0.725443 0
M  V30 6035 C 552.561 -1.40744 -1.51244 0
M  V30 6036 C 552.969 -0.00275403 -1.892 0
M  V30 6037 O 552.312 0.981299 -1.55294 0
M  V30 6038 C 552.374 -2.22527 -2.82351 0
M  V30 6039 C 552.038 -3.71053 -2.66774 0
M  V30 6040 C 553.035 -4.63916 -2.34686 0
M  V30 6041 C 550.72 -4.14753 -2.83347 0
M  V30 6042 C 552.714 -5.98463 -2.19366 0
M  V30 6043 C 550.401 -5.49372 -2.67644 0
M  V30 6044 C 551.399 -6.41042 -2.357 0
M  V30 6045 O 551.087 -7.73181 -2.20107 0
M  V30 6046 H 550.819 -0.482314 -0.473655 0
M  V30 6047 H 553.373 -1.84472 -0.903284 0
M  V30 6048 H 551.603 -1.73563 -3.45562 0
M  V30 6049 H 553.292 -2.15421 -3.44018 0
M  V30 6050 H 554.058 -4.31453 -2.21525 0
M  V30 6051 H 549.937 -3.43728 -3.072 0
M  V30 6052 H 553.481 -6.69979 -1.94354 0
M  V30 6053 H 549.378 -5.81424 -2.80387 0
M  V30 6054 H 550.146 -7.84008 -2.35103 0
M  V30 6055 N 552.809 0.956637 -1.25245 0
M  V30 6056 C 554.056 1.701 -1.09874 0
M  V30 6057 C 554.384 1.91128 0.36062 0
M  V30 6058 O 553.639 1.47837 1.28229 0
M  V30 6059 C 553.938 3.08996 -1.79601 0
M  V30 6060 C 553.604 3.07774 -3.29523 0
M  V30 6061 C 552.266 3.07149 -3.70423 0
M  V30 6062 C 554.618 3.01257 -4.25316 0
M  V30 6063 C 551.946 2.97752 -5.0553 0
M  V30 6064 C 554.298 2.93403 -5.60444 0
M  V30 6065 C 552.962 2.91111 -6.00675 0
M  V30 6066 H 552.232 0.62244 -0.402056 0
M  V30 6067 H 554.879 1.1178 -1.55491 0
M  V30 6068 H 553.184 3.70848 -1.26408 0
M  V30 6069 H 554.881 3.65407 -1.65162 0
M  V30 6070 H 551.471 3.09032 -2.9698 0
M  V30 6071 H 555.655 3.00861 -3.9471 0
M  V30 6072 H 550.911 2.94346 -5.35883 0
M  V30 6073 H 555.085 2.87321 -6.34366 0
M  V30 6074 H 552.712 2.83586 -7.05325 0
M  V30 6075 N 554.287 1.06798 1.15896 0
M  V30 6076 C 555.235 0.677525 2.22514 0
M  V30 6077 C 556.229 -0.308994 1.66558 0
M  V30 6078 O 557.435 -0.173308 1.79164 0
M  V30 6079 H 553.81 0.200994 0.724642 0
M  V30 6080 H 555.781 1.5865 2.52731 0
M  V30 6081 C 554.53 0.0854153 3.47595 0
M  V30 6082 H 553.853 0.835645 3.90969 0
M  V30 6083 H 555.293 -0.150199 4.23734 0
M  V30 6084 C 553.752 -1.1724 3.15843 0
M  V30 6085 O 554.282 -2.25965 3.32119 0
M  V30 6086 N 552.488 -1.07636 2.69931 0
M  V30 6087 H 552.035 -0.191559 2.56887 0
M  V30 6088 H 551.993 -1.91876 2.4906 0
M  V30 6089 N 555.766 -1.3263 0.851289 0
M  V30 6090 C 556.698 -2.27824 0.250757 0
M  V30 6091 C 557.711 -1.52285 -0.575598 0
M  V30 6092 O 558.9 -1.73946 -0.400638 0
M  V30 6093 C 556 -3.3232 -0.664571 0
M  V30 6094 C 555.173 -4.37221 0.125187 0
M  V30 6095 C 554.232 -5.21314 -0.715385 0
M  V30 6096 O 553.258 -5.69002 -0.150111 0
M  V30 6097 N 554.46 -5.43823 -2.03069 0
M  V30 6098 H 557.225 -2.79997 1.06873 0
M  V30 6099 H 554.786 -1.45455 0.710943 0
M  V30 6100 H 556.778 -3.85486 -1.23216 0
M  V30 6101 H 555.348 -2.80331 -1.38323 0
M  V30 6102 H 554.568 -3.84384 0.874199 0
M  V30 6103 H 555.856 -5.04399 0.667774 0
M  V30 6104 H 555.254 -5.06803 -2.51332 0
M  V30 6105 H 553.811 -5.99998 -2.54648 0
M  V30 6106 N 557.244 -0.608902 -1.45362 0
M  V30 6107 C 558.491 -0.104607 -2.0223 0
M  V30 6108 C 558.819 1.26534 -1.47714 0
M  V30 6109 O 558.074 1.84855 -0.642435 0
M  V30 6110 C 558.373 -0.0167296 -3.57396 0
M  V30 6111 C 558.039 -1.32251 -4.31069 0
M  V30 6112 C 556.701 -1.68019 -4.50914 0
M  V30 6113 C 559.053 -2.18542 -4.73169 0
M  V30 6114 C 556.381 -2.89828 -5.10114 0
M  V30 6115 C 558.733 -3.39602 -5.33717 0
M  V30 6116 C 557.397 -3.7562 -5.51784 0
M  V30 6117 H 556.667 -0.0382785 -0.740011 0
M  V30 6118 H 559.314 -0.790782 -1.7441 0
M  V30 6119 H 557.619 0.752715 -3.84502 0
M  V30 6120 H 559.316 0.389634 -3.99103 0
M  V30 6121 H 555.906 -1.03411 -4.15938 0
M  V30 6122 H 560.09 -1.92208 -4.5757 0
M  V30 6123 H 555.346 -3.17839 -5.22291 0
M  V30 6124 H 559.52 -4.06716 -5.65292 0
M  V30 6125 H 557.147 -4.70093 -5.97425 0
M  V30 6126 N 558.722 1.53707 -0.348139 0
M  V30 6127 C 559.672 2.2193 0.522592 0
M  V30 6128 C 560.656 1.20831 1.06248 0
M  V30 6129 O 561.848 1.46357 0.995415 0
M  V30 6130 C 558.977 2.99904 1.6707 0
M  V30 6131 C 558.063 4.08364 1.14454 0
M  V30 6132 N 558.454 5.04656 0.339958 0
M  V30 6133 C 556.752 4.22757 1.421 0
M  V30 6134 C 557.453 5.81675 0.0538806 0
M  V30 6135 N 556.429 5.39739 0.646776 0
M  V30 6136 H 560.231 2.93733 -0.099135 0
M  V30 6137 H 557.745 1.61656 -0.15524 0
M  V30 6138 H 559.742 3.47284 2.30651 0
M  V30 6139 H 558.402 2.29629 2.29566 0
M  V30 6140 H 559.413 5.17896 -0.0193552 0
M  V30 6141 H 556.09 3.63704 2.05002 0
M  V30 6142 H 557.48 6.69256 -0.595443 0
M  V30 6143 N 560.2 0.0768682 1.57412 0
M  V30 6144 C 561.616 -0.279772 1.57129 0
M  V30 6145 C 561.816 -1.69688 1.08666 0
M  V30 6146 O 560.872 -2.40953 0.754843 0
M  V30 6147 C 562.185 -0.0848055 3.0058 0
M  V30 6148 C 563.733 -0.153954 3.12621 0
M  V30 6149 C 564.208 0.0127946 4.57998 0
M  V30 6150 N 565.699 -0.0426435 4.6318 0
M  V30 6151 C 566.434 0.0618892 5.73367 0
M  V30 6152 N 565.93 0.220229 6.9245 0
M  V30 6153 N 567.723 0.00446072 5.621 0
M  V30 6154 H 559.874 1.00297 1.87228 0
M  V30 6155 H 562.137 0.391565 0.863354 0
M  V30 6156 H 561.843 0.89325 3.40168 0
M  V30 6157 H 561.717 -0.834961 3.67843 0
M  V30 6158 H 564.104 -1.1225 2.72917 0
M  V30 6159 H 564.185 0.627389 2.47987 0
M  V30 6160 H 563.829 0.978128 4.98392 0
M  V30 6161 H 563.759 -0.788016 5.20671 0
M  V30 6162 H 566.25 -0.163226 3.77547 0
M  V30 6163 H 566.563 0.291999 7.72248 0
M  V30 6164 H 564.908 0.255658 6.9453 0
M  V30 6165 H 568.099 -0.117979 4.67951 0
M  V30 6166 H 568.272 0.0893796 6.47938 0
M  V30 6167 N 561.678 -1.56367 -0.196722 0
M  V30 6168 C 563.094 -1.49916 -0.54749 0
M  V30 6169 C 563.294 -0.77659 -1.85934 0
M  V30 6170 O 562.35 -0.32644 -2.50381 0
M  V30 6171 C 563.663 -2.94577 -0.603734 0
M  V30 6172 C 565.211 -3.05239 -0.692677 0
M  V30 6173 C 565.686 -4.51308 -0.780046 0
M  V30 6174 N 567.177 -4.55453 -0.843616 0
M  V30 6175 C 567.912 -5.65786 -0.931358 0
M  V30 6176 N 567.408 -6.85812 -0.981503 0
M  V30 6177 N 569.201 -5.53695 -0.968421 0
M  V30 6178 H 561.352 -2.01761 0.663803 0
M  V30 6179 H 563.615 -0.918094 0.236238 0
M  V30 6180 H 563.321 -3.50494 0.29105 0
M  V30 6181 H 563.195 -3.47841 -1.45898 0
M  V30 6182 H 565.582 -2.49372 -1.57789 0
M  V30 6183 H 565.663 -2.55103 0.188736 0
M  V30 6184 H 565.307 -5.078 0.100811 0
M  V30 6185 H 565.237 -4.99176 -1.67724 0
M  V30 6186 H 567.728 -3.69025 -0.814176 0
M  V30 6187 H 568.041 -7.65648 -1.04892 0
M  V30 6188 H 566.386 -6.88474 -0.950208 0
M  V30 6189 H 569.577 -4.58848 -0.926072 0
M  V30 6190 H 569.75 -6.39708 -1.03334 0
M  V30 6191 N 563.156 0.464375 -1.50603 0
M  V30 6192 C 564.104 1.58224 -1.70493 0
M  V30 6193 C 565.098 1.59492 -0.570836 0
M  V30 6194 O 566.304 1.63561 -0.751517 0
M  V30 6195 H 562.679 0.525161 -0.538247 0
M  V30 6196 H 564.65 1.38613 -2.64252 0
M  V30 6197 C 563.399 2.96113 -1.82243 0
M  V30 6198 H 562.722 2.95858 -2.68901 0
M  V30 6199 H 564.162 3.73769 -2.00182 0
M  V30 6200 C 562.621 3.31946 -0.575628 0
M  V30 6201 O 563.151 4.00708 0.282152 0
M  V30 6202 N 561.357 2.87436 -0.427665 0
M  V30 6203 H 560.904 2.31652 -1.12674 0
M  V30 6204 H 560.862 3.11776 0.405379 0
M  V30 6205 N 564.634 1.40294 0.718013 0
M  V30 6206 C 565.544 1.42678 1.86226 0
M  V30 6207 C 566.56 0.319655 1.71039 0
M  V30 6208 O 567.736 0.563852 1.93346 0
M  V30 6209 C 564.801 1.2852 3.21999 0
M  V30 6210 C 563.862 2.49354 3.49458 0
M  V30 6211 C 563.095 2.35863 4.78753 0
M  V30 6212 O 563.318 1.37114 5.53675 0
M  V30 6213 O 562.252 3.25189 5.06494 0
M  V30 6214 H 566.078 2.39167 1.87171 0
M  V30 6215 H 563.663 1.2159 0.868112 0
M  V30 6216 H 565.545 1.22824 4.03103 0
M  V30 6217 H 564.22 0.351359 3.21787 0
M  V30 6218 H 563.127 2.60628 2.68373 0
M  V30 6219 H 564.46 3.41491 3.54464 0
M  V30 6220 N 566.112 -0.949982 1.2575 0
M  V30 6221 C 567.042 -2.06483 1.09028 0
M  V30 6222 C 568.023 -1.701 -0.00201532 0
M  V30 6223 O 569.208 -1.93469 0.168383 0
M  V30 6224 C 566.338 -3.39899 0.71316 0
M  V30 6225 C 565.292 -3.90309 1.75621 0
M  V30 6226 C 564.618 -5.20274 1.23365 0
M  V30 6227 C 565.918 -4.16169 3.15596 0
M  V30 6228 H 567.612 -2.20731 2.02283 0
M  V30 6229 H 565.158 -1.06066 0.973964 0
M  V30 6230 H 567.111 -4.17346 0.58309 0
M  V30 6231 H 565.835 -3.25602 -0.255091 0
M  V30 6232 H 564.494 -3.15035 1.8748 0
M  V30 6233 H 564.142 -5.02351 0.255491 0
M  V30 6234 H 563.842 -5.54971 1.93082 0
M  V30 6235 H 565.366 -6.00314 1.11607 0
M  V30 6236 H 566.78 -4.84259 3.06864 0
M  V30 6237 H 565.177 -4.62131 3.82825 0
M  V30 6238 H 566.247 -3.22273 3.6231 0
M  V30 6239 O 567.629 -1.19786 -1.08322 0
M  V30 6240 H 568.32 -0.948322 -1.68898 0
M  V30 END ATOM
M  V30 BEGIN BOND
M  V30 END BOND
M  V30 END CTAB
M  END
$$$$
