drugbank_target|Q96LZ3 Calcineurin subunit B type 2 (DB00091; DB11693)
 OpenBabel12092120063D

  0  0  0     0  0            999 V3000
M  V30 BEGIN CTAB
M  V30 COUNTS 2731 2753 0 0 0
M  V30 BEGIN ATOM
M  V30 1 H -0.908 1.98254 -0.117106 0
M  V30 2 N 0 1.576 0 0
M  V30 3 C 0.933 2.03868 1.02534 0
M  V30 4 C 1.911 0.928543 1.3348 0
M  V30 5 O 3.095 1.19667 1.45644 0
M  V30 6 C 0.222 2.43627 2.35294 0
M  V30 7 C -0.732 3.65373 2.2001 0
M  V30 8 S 0.101 5.13292 1.52614 0
M  V30 9 C 1.257 5.56322 2.86805 0
M  V30 10 H 1.49 2.90518 0.631377 0
M  V30 11 H -0.977 1.52953 0.210867 0
M  V30 12 H 0.981 2.67203 3.11629 0
M  V30 13 H -0.358 1.57376 2.7183 0
M  V30 14 H -1.165 3.90944 3.18086 0
M  V30 15 H -1.563 3.418 1.51819 0
M  V30 16 H 0.729 5.58782 3.83104 0
M  V30 17 H 1.672 6.56266 2.65933 0
M  V30 18 H 2.08 4.83886 2.90714 0
M  V30 19 N 1.4781 -0.272755 1.55222 0
M  V30 20 C 2.7261 -1.00234 1.75492 0
M  V30 21 C 3.0471 -1.8681 0.5592 0
M  V30 22 O 2.3171 -1.91215 -0.425882 0
M  V30 23 H 0.8971 -0.373076 0.647166 0
M  V30 24 H 3.5591 -0.296926 1.92625 0
M  V30 25 H 2.6551 -1.63913 2.65592 0
M  V30 26 N 2.9562 -1.48159 -0.537278 0
M  V30 27 C 3.9042 -1.62573 -1.66352 0
M  V30 28 C 4.8982 -0.492366 -1.62087 0
M  V30 29 O 6.1042 -0.670847 -1.67032 0
M  V30 30 H 2.4792 -0.511992 -0.550789 0
M  V30 31 H 4.4502 -2.57176 -1.51337 0
M  V30 32 C 3.1992 -1.67583 -3.04649 0
M  V30 33 H 2.5222 -2.54151 -3.08622 0
M  V30 34 H 3.9622 -1.81713 -3.83088 0
M  V30 35 C 2.4212 -0.413039 -3.34358 0
M  V30 36 O 2.9512 0.477259 -3.98855 0
M  V30 37 N 1.1572 -0.286961 -2.8918 0
M  V30 38 H 0.7042 -1.01241 -2.36871 0
M  V30 39 H 0.6622 0.556963 -3.09427 0
M  V30 40 N 4.4343 0.785586 -1.36625 0
M  V30 41 C 5.3443 1.92964 -1.33425 0
M  V30 42 C 6.3603 1.72394 -0.235851 0
M  V30 43 O 7.5363 1.95866 -0.468878 0
M  V30 44 C 4.6013 3.27884 -1.12662 0
M  V30 45 C 3.6623 3.61204 -2.32013 0
M  V30 46 C 2.8953 4.89687 -2.12231 0
M  V30 47 O 3.1183 5.59704 -1.09945 0
M  V30 48 O 2.0523 5.21752 -3.00098 0
M  V30 49 H 5.8783 1.98613 -2.29753 0
M  V30 50 H 3.4633 0.926384 -1.17211 0
M  V30 51 H 5.3453 4.08614 -1.03016 0
M  V30 52 H 4.0203 3.23118 -0.193991 0
M  V30 53 H 2.9273 2.80765 -2.47228 0
M  V30 54 H 4.2603 3.70698 -3.23796 0
M  V30 55 N 5.9124 1.20967 1.01018 0
M  V30 56 C 6.8754 0.965918 2.07853 0
M  V30 57 C 7.8754 -0.0610545 1.60684 0
M  V30 58 O 9.0654 0.175681 1.73312 0
M  V30 59 C 6.1974 0.455513 3.37843 0
M  V30 60 H 7.3904 1.91365 2.3091 0
M  V30 61 H 4.9434 1.02594 1.17916 0
M  V30 62 H 5.6784 -0.497381 3.20463 0
M  V30 63 H 5.4634 1.19622 3.73407 0
M  V30 64 H 6.9534 0.304667 4.16487 0
M  V30 65 N 7.3905 -1.2043 1.01659 0
M  V30 66 C 8.6155 -1.94318 0.724942 0
M  V30 67 C 9.0405 -1.74266 -0.708034 0
M  V30 68 O 8.3985 -1.03694 -1.48719 0
M  V30 69 C 8.4465 -3.44486 1.06591 0
M  V30 70 O 7.5505 -4.12017 0.177599 0
M  V30 71 H 6.8915 -0.60708 0.26898 0
M  V30 72 H 9.4215 -1.52861 1.35995 0
M  V30 73 H 9.4315 -3.95106 1.01762 0
M  V30 74 H 8.1065 -3.58404 2.10997 0
M  V30 75 H 6.6835 -3.71821 0.283421 0
M  V30 76 N 8.8686 -0.792821 -1.36206 0
M  V30 77 C 10.0986 -0.378275 -2.03107 0
M  V30 78 C 10.5066 1.01119 -1.59911 0
M  V30 79 O 9.8496 1.66052 -0.785658 0
M  V30 80 C 9.9116 -0.366535 -3.57627 0
M  V30 81 C 9.5756 -1.70416 -4.24037 0
M  V30 82 C 10.5726 -2.6602 -4.46687 0
M  V30 83 C 8.2576 -1.98439 -4.6144 0
M  V30 84 C 10.2516 -3.8784 -5.05825 0
M  V30 85 C 7.9386 -3.20525 -5.20295 0
M  V30 86 C 8.9366 -4.15044 -5.42427 0
M  V30 87 O 8.6246 -5.34978 -6.00045 0
M  V30 88 H 8.3566 -0.153543 -0.658332 0
M  V30 89 H 10.9106 -1.07383 -1.75094 0
M  V30 90 H 9.1406 0.385539 -3.84773 0
M  V30 91 H 10.8296 0.0238088 -4.05893 0
M  V30 92 H 11.5956 -2.45658 -4.18183 0
M  V30 93 H 7.4746 -1.25686 -4.43536 0
M  V30 94 H 11.0186 -4.61628 -5.23015 0
M  V30 95 H 6.9156 -3.40764 -5.48225 0
M  V30 96 H 7.6836 -5.36088 -6.18508 0
M  V30 97 N 10.3467 1.47872 -0.545128 0
M  V30 98 C 11.7577 1.86384 -0.108581 0
M  V30 99 C 12.1087 1.45309 1.31832 0
M  V30 100 O 11.2337 0.850641 1.9898 0
M  V30 101 C 11.8287 3.38265 -0.190274 0
M  V30 102 C 10.3877 3.75914 0.191164 0
M  V30 103 C 9.5347 2.71926 -0.543273 0
M  V30 104 H 12.4857 1.39561 -0.755537 0
M  V30 105 H 12.5067 3.75831 0.594217 0
M  V30 106 H 12.0187 3.6813 -1.2289 0
M  V30 107 H 10.1197 3.51665 1.23136 0
M  V30 108 H 10.2327 4.78836 -0.158987 0
M  V30 109 H 8.5967 2.54697 0.0122495 0
M  V30 110 H 9.3797 3.04634 -1.58282 0
M  V30 111 N 11.8248 0.280983 1.55075 0
M  V30 112 C 12.7878 -0.590896 2.21452 0
M  V30 113 C 13.7878 -1.07682 1.19421 0
M  V30 114 O 14.9778 -0.97605 1.44288 0
M  V30 115 C 12.1098 -1.81587 2.88511 0
M  V30 116 H 13.3028 -0.0112554 2.99898 0
M  V30 117 H 10.8558 0.0316438 1.56268 0
M  V30 118 H 11.5908 -2.43587 2.14093 0
M  V30 119 H 11.3758 -1.4753 3.63287 0
M  V30 120 H 12.8658 -2.43575 3.39206 0
M  V30 121 N 13.3029 -1.57598 0.00835791 0
M  V30 122 C 14.2129 -2.12385 -0.996487 0
M  V30 123 C 15.2289 -1.07108 -1.37127 0
M  V30 124 O 16.4049 -1.39055 -1.4569 0
M  V30 125 C 13.4699 -2.62314 -2.26699 0
M  V30 126 C 12.5309 -3.82225 -1.95456 0
M  V30 127 C 11.7639 -4.29763 -3.16449 0
M  V30 128 O 11.9869 -3.76584 -4.28416 0
M  V30 129 O 10.9209 -5.21832 -2.99958 0
M  V30 130 H 14.7469 -2.98479 -0.560725 0
M  V30 131 H 12.3319 -1.47903 -0.210987 0
M  V30 132 H 14.2139 -2.94589 -3.01322 0
M  V30 133 H 12.8889 -1.79313 -2.69497 0
M  V30 134 H 11.7959 -3.54909 -1.18282 0
M  V30 135 H 13.1289 -4.66324 -1.57489 0
M  V30 136 N 14.781 0.264519 -1.55364 0
M  V30 137 C 15.714 1.35297 -1.83766 0
M  V30 138 C 16.692 1.47171 -0.691336 0
M  V30 139 O 17.876 1.63663 -0.935238 0
M  V30 140 C 15.003 2.72847 -2.00679 0
M  V30 141 C 14.049 2.78214 -3.23263 0
M  V30 142 S 14.882 2.36601 -4.80396 0
M  V30 143 C 16.038 3.7611 -5.00292 0
M  V30 144 H 16.271 1.11003 -2.758 0
M  V30 145 H 13.804 0.464596 -1.47244 0
M  V30 146 H 15.762 3.52057 -2.11108 0
M  V30 147 H 14.423 2.94388 -1.09518 0
M  V30 148 H 13.616 3.7919 -3.3201 0
M  V30 149 H 13.218 2.07034 -3.11469 0
M  V30 150 H 15.51 4.71457 -4.86554 0
M  V30 151 H 16.453 3.7231 -6.02321 0
M  V30 152 H 16.861 3.67806 -4.28228 0
M  V30 153 N 16.2591 1.48442 0.529413 0
M  V30 154 C 17.4991 1.58086 1.29569 0
M  V30 155 C 17.8631 0.249302 1.90375 0
M  V30 156 O 19.0641 0.220738 2.67892 0
M  V30 157 C 17.3351 2.68793 2.35552 0
M  V30 158 S 18.8941 2.98207 3.21898 0
M  V30 159 H 15.7121 0.557922 0.440732 0
M  V30 160 H 18.3141 1.85966 0.603059 0
M  V30 161 H 17.0181 3.64102 1.89363 0
M  V30 162 H 16.5491 2.42817 3.09522 0
M  V30 163 H 18.5641 2.37548 4.35644 0
M  V30 164 N 17.7372 -0.778329 1.37039 0
M  V30 165 C 18.9622 -1.57248 1.35233 0
M  V30 166 C 19.3872 -1.87999 -0.0615568 0
M  V30 167 O 18.7452 -1.48734 -1.03672 0
M  V30 168 C 18.7932 -2.86353 2.19167 0
M  V30 169 O 17.8972 -3.80442 1.59178 0
M  V30 170 H 17.2382 -0.476569 0.462362 0
M  V30 171 H 19.7682 -0.963853 1.80474 0
M  V30 172 H 19.7782 -3.35519 2.32145 0
M  V30 173 H 18.4532 -2.63299 3.21942 0
M  V30 174 H 17.0302 -3.39067 1.55203 0
M  V30 175 N 19.2153 -1.21501 -1.00376 0
M  V30 176 C 20.1653 -0.942843 -2.07592 0
M  V30 177 C 21.1493 0.102384 -1.60574 0
M  V30 178 O 22.3413 -0.10671 -1.76678 0
M  V30 179 C 19.4703 -0.510729 -3.3948 0
M  V30 180 C 18.5563 -1.59009 -3.93163 0
M  V30 181 N 18.9473 -2.81544 -4.20198 0
M  V30 182 C 17.2453 -1.45925 -4.21452 0
M  V30 183 C 17.9463 -3.51261 -4.63671 0
M  V30 184 N 16.9223 -2.78703 -4.66718 0
M  V30 185 H 20.7243 -1.87378 -2.26421 0
M  V30 186 H 18.2383 -1.11093 -1.18458 0
M  V30 187 H 20.2353 -0.297101 -4.1584 0
M  V30 188 H 18.8953 0.413436 -3.22057 0
M  V30 189 H 19.9063 -3.18075 -4.08716 0
M  V30 190 H 16.5833 -0.600467 -4.13159 0
M  V30 191 H 17.9733 -4.56183 -4.93302 0
M  V30 192 N 20.6934 1.19889 -1.02296 0
M  V30 193 C 21.9404 1.8942 -0.715972 0
M  V30 194 C 22.2684 1.79251 0.754944 0
M  V30 195 O 21.5234 1.17526 1.56481 0
M  V30 196 C 21.8224 3.39883 -1.10518 0
M  V30 197 C 21.4884 3.70254 -2.57337 0
M  V30 198 C 20.1504 3.78254 -2.97452 0
M  V30 199 C 22.5024 3.84052 -3.52354 0
M  V30 200 C 19.8304 3.97514 -4.31509 0
M  V30 201 C 22.1824 4.04824 -4.86108 0
M  V30 202 C 20.8464 4.11054 -5.25919 0
M  V30 203 H 20.1164 0.693138 -0.261993 0
M  V30 204 H 22.7634 1.42012 -1.28472 0
M  V30 205 H 21.0684 3.8915 -0.454953 0
M  V30 206 H 22.7654 3.9199 -0.845261 0
M  V30 207 H 19.3554 3.64632 -2.25258 0
M  V30 208 H 23.5394 3.77221 -3.22518 0
M  V30 209 H 18.7954 4.00574 -4.61898 0
M  V30 210 H 22.9694 4.14442 -5.59653 0
M  V30 211 H 20.5964 4.2573 -6.29808 0
M  V30 212 N 22.1715 0.800033 1.35784 0
M  V30 213 C 23.4485 0.30088 1.93272 0
M  V30 214 C 23.8285 -1.20857 1.73081 0
M  V30 215 O 23.1765 -2.00502 1.09596 0
M  V30 216 C 23.3865 0.70511 3.41803 0
M  V30 217 C 24.7345 0.690871 4.18942 0
M  V30 218 O 25.7585 0.646244 3.50289 0
M  V30 219 O 24.6175 0.74332 5.41421 0
M  V30 220 H 21.7115 0.0771605 0.823393 0
M  V30 221 H 24.2575 0.88329 1.449 0
M  V30 222 H 23.0295 1.74571 3.50201 0
M  V30 223 H 22.6525 0.0971541 3.97481 0
M  V30 224 N 23.6496 -1.47581 0.552962 0
M  V30 225 C 24.5976 -2.31648 -0.21023 0
M  V30 226 C 25.5916 -1.42663 -0.913432 0
M  V30 227 O 26.7976 -1.5945 -0.835201 0
M  V30 228 H 23.1726 -0.746989 -0.0866676 0
M  V30 229 H 25.1436 -2.93869 0.518051 0
M  V30 230 C 23.8926 -3.25226 -1.22976 0
M  V30 231 H 23.2156 -3.93658 -0.698077 0
M  V30 232 H 24.6556 -3.86889 -1.73473 0
M  V30 233 C 23.1146 -2.48448 -2.27542 0
M  V30 234 O 23.6446 -2.22585 -3.34393 0
M  V30 235 N 21.8506 -2.09532 -2.01357 0
M  V30 236 H 21.3976 -2.30765 -1.14478 0
M  V30 237 H 21.3556 -1.58476 -2.71538 0
M  V30 238 N 25.1277 -0.289203 -1.54924 0
M  V30 239 C 26.4047 0.376032 -1.91951 0
M  V30 240 C 26.7847 1.72622 -1.21511 0
M  V30 241 O 26.1327 2.25853 -0.346767 0
M  V30 242 C 26.3427 0.502378 -3.45365 0
M  V30 243 C 27.6907 0.778741 -4.17398 0
M  V30 244 O 28.7147 0.586647 -3.51336 0
M  V30 245 O 27.5737 1.14698 -5.34328 0
M  V30 246 H 24.6677 0.208167 -0.800372 0
M  V30 247 H 27.2137 -0.336394 -1.66332 0
M  V30 248 H 25.9857 -0.447255 -3.88736 0
M  V30 249 H 25.6087 1.26373 -3.76982 0
M  V30 250 N 26.6058 1.57591 -0.0167156 0
M  V30 251 C 27.5158 2.1291 0.98521 0
M  V30 252 C 28.5318 1.07834 1.36557 0
M  V30 253 O 29.7078 1.39826 1.44951 0
M  V30 254 C 26.7728 2.63512 2.25305 0
M  V30 255 C 25.8338 3.83256 1.93426 0
M  V30 256 C 25.0668 4.31435 3.14165 0
M  V30 257 O 25.2898 3.78851 4.26413 0
M  V30 258 O 24.2238 5.23416 2.97186 0
M  V30 259 H 28.0498 2.98772 0.544888 0
M  V30 260 H 25.6348 1.48012 0.203141 0
M  V30 261 H 27.5168 2.96183 2.99756 0
M  V30 262 H 26.1918 1.8074 2.68542 0
M  V30 263 H 25.0988 3.55531 1.16398 0
M  V30 264 H 26.4318 4.67153 1.55013 0
M  V30 265 N 28.0839 -0.256276 1.55502 0
M  V30 266 C 29.3329 -0.983486 1.76098 0
M  V30 267 C 29.6459 -1.86837 0.578896 0
M  V30 268 O 30.8519 -2.63163 0.667648 0
M  V30 269 C 29.3079 -1.79868 3.1173 0
M  V30 270 C 28.9159 -0.961648 4.37557 0
M  V30 271 C 30.6599 -2.51919 3.41668 0
M  V30 272 C 28.5669 -1.77219 5.64223 0
M  V30 273 H 27.4969 -0.370936 0.656447 0
M  V30 274 H 30.1479 -0.238492 1.81944 0
M  V30 275 H 28.5299 -2.58527 2.99966 0
M  V30 276 H 29.7039 -0.218048 4.60284 0
M  V30 277 H 28.0189 -0.354913 4.14885 0
M  V30 278 H 30.6159 -3.12998 4.33516 0
M  V30 279 H 30.9589 -3.23059 2.62562 0
M  V30 280 H 31.4919 -1.80278 3.54605 0
M  V30 281 H 28.2309 -1.10471 6.46124 0
M  V30 282 H 27.7509 -2.49132 5.45613 0
M  V30 283 H 29.4299 -2.34169 6.03137 0
M  V30 284 N 29.562 -1.4872 -0.521534 0
M  V30 285 C 30.509 -1.63871 -1.62527 0
M  V30 286 C 31.479 -0.480559 -1.58996 0
M  V30 287 O 32.664 -0.705085 -1.77294 0
M  V30 288 C 29.804 -1.69227 -3.00759 0
M  V30 289 C 28.917 -2.96207 -3.14461 0
M  V30 290 C 28.052 -2.92671 -4.43303 0
M  V30 291 C 27.091 -4.14318 -4.50563 0
M  V30 292 N 26.228 -4.0881 -5.70805 0
M  V30 293 H 31.068 -2.58123 -1.48918 0
M  V30 294 H 28.605 -1.28 -0.724878 0
M  V30 295 H 30.563 -1.70314 -3.80853 0
M  V30 296 H 29.193 -0.784586 -3.1312 0
M  V30 297 H 28.245 -3.04826 -2.27564 0
M  V30 298 H 29.557 -3.86192 -3.15686 0
M  V30 299 H 28.711 -2.92206 -5.31696 0
M  V30 300 H 27.45 -2.00429 -4.44612 0
M  V30 301 H 26.455 -4.15049 -3.60575 0
M  V30 302 H 27.68 -5.07729 -4.50986 0
M  V30 303 H 25.626 -3.19394 -5.72995 0
M  V30 304 H 25.543 -4.92509 -5.7356 0
M  V30 305 H 26.811 -4.12418 -6.61462 0
M  V30 306 N 31.0401 0.771051 -1.3745 0
M  V30 307 C 32.4561 1.07171 -1.18265 0
M  V30 308 C 32.6561 2.01491 -0.019287 0
M  V30 309 O 31.7121 2.44244 0.640408 0
M  V30 310 C 33.0251 1.66854 -2.50161 0
M  V30 311 C 34.5731 1.79109 -2.56689 0
M  V30 312 C 35.0481 2.42205 -3.88717 0
M  V30 313 N 36.5391 2.49655 -3.90162 0
M  V30 314 C 37.2741 2.9933 -4.8907 0
M  V30 315 N 36.7701 3.49172 -5.98374 0
M  V30 316 N 38.5631 2.9821 -4.76474 0
M  V30 317 H 30.7141 0.144796 -2.11906 0
M  V30 318 H 32.9771 0.126863 -0.939473 0
M  V30 319 H 32.6831 1.05017 -3.35655 0
M  V30 320 H 32.5571 2.6614 -2.673 0
M  V30 321 H 34.9441 2.40077 -1.71601 0
M  V30 322 H 35.0251 0.785757 -2.43433 0
M  V30 323 H 34.6691 1.81875 -4.74219 0
M  V30 324 H 34.5991 3.43345 -3.99276 0
M  V30 325 H 37.0901 2.14383 -3.11205 0
M  V30 326 H 37.4031 3.8548 -6.69795 0
M  V30 327 H 35.7481 3.47275 -6.02018 0
M  V30 328 H 38.9391 2.58572 -3.90203 0
M  V30 329 H 39.1121 3.36613 -5.53711 0
M  V30 330 N 32.5182 1.22032 0.997298 0
M  V30 331 C 33.4482 1.01065 2.10495 0
M  V30 332 C 34.4292 -0.0669542 1.69968 0
M  V30 333 O 35.6142 0.0943987 1.9397 0
M  V30 334 C 32.7442 0.582874 3.42374 0
M  V30 335 C 31.6982 1.60592 3.96729 0
M  V30 336 C 31.0242 1.03412 5.24605 0
M  V30 337 C 32.3242 2.99478 4.27914 0
M  V30 338 H 34.0182 1.93708 2.28292 0
M  V30 339 H 31.5642 0.932761 1.09707 0
M  V30 340 H 33.5172 0.423332 4.19268 0
M  V30 341 H 32.2412 -0.379213 3.24391 0
M  V30 342 H 30.9002 1.75316 3.21963 0
M  V30 343 H 30.5482 0.063518 5.0296 0
M  V30 344 H 30.2482 1.71754 5.61938 0
M  V30 345 H 31.7722 0.886066 6.04137 0
M  V30 346 H 33.1862 2.88153 4.95622 0
M  V30 347 H 31.5832 3.64903 4.76409 0
M  V30 348 H 32.6532 3.49742 3.3587 0
M  V30 349 N 33.9963 -1.19345 1.0293 0
M  V30 350 C 35.2443 -1.88665 0.724574 0
M  V30 351 C 35.5653 -1.80036 -0.749144 0
M  V30 352 O 34.8353 -1.2111 -1.53978 0
M  V30 353 H 33.4153 -0.698406 0.265025 0
M  V30 354 H 36.0773 -1.44885 1.30362 0
M  V30 355 H 35.1733 -2.94987 1.01926 0
M  V30 356 N 35.4744 -0.807222 -1.35358 0
M  V30 357 C 36.8904 -0.491038 -1.51858 0
M  V30 358 C 37.0904 0.987648 -1.75635 0
M  V30 359 O 36.1464 1.77265 -1.79815 0
M  V30 360 C 37.4594 -1.33695 -2.69344 0
M  V30 361 C 39.0074 -1.33246 -2.83222 0
M  V30 362 C 39.4824 -2.1625 -4.03733 0
M  V30 363 N 40.9734 -2.1379 -4.10911 0
M  V30 364 C 41.7084 -2.74772 -5.03277 0
M  V30 365 N 41.2044 -3.44684 -6.0097 0
M  V30 366 N 42.9974 -2.6441 -4.96028 0
M  V30 367 H 35.1484 -1.76485 -1.18181 0
M  V30 368 H 37.4114 -0.751199 -0.578276 0
M  V30 369 H 37.1174 -2.38634 -2.58354 0
M  V30 370 H 36.9914 -0.990618 -3.6396 0
M  V30 371 H 39.3784 -0.290911 -2.93663 0
M  V30 372 H 39.4594 -1.71866 -1.89461 0
M  V30 373 H 39.1034 -3.20445 -3.94052 0
M  V30 374 H 39.0334 -1.74989 -4.96675 0
M  V30 375 H 41.5244 -1.62923 -3.40976 0
M  V30 376 H 41.8374 -3.88501 -6.68047 0
M  V30 377 H 40.1824 -3.48788 -6.01142 0
M  V30 378 H 43.3734 -2.0938 -4.18662 0
M  V30 379 H 43.5464 -3.12225 -5.6782 0
M  V30 380 N 36.9525 1.47285 -0.560781 0
M  V30 381 C 38.3685 1.58065 -0.22081 0
M  V30 382 C 38.5685 1.55892 1.27671 0
M  V30 383 O 37.6245 1.46422 2.0571 0
M  V30 384 C 38.9375 2.88418 -0.850625 0
M  V30 385 C 40.4855 3.02009 -0.822184 0
M  V30 386 C 40.9605 4.35066 -1.43113 0
M  V30 387 N 42.4515 4.41711 -1.39448 0
M  V30 388 C 43.1865 5.43237 -1.83525 0
M  V30 389 N 42.6825 6.51555 -2.35474 0
M  V30 390 N 44.4755 5.34304 -1.74574 0
M  V30 391 H 36.6265 1.46941 -1.53369 0
M  V30 392 H 38.8895 0.699558 -0.639783 0
M  V30 393 H 38.5955 2.95755 -1.9032 0
M  V30 394 H 38.4695 3.75612 -0.345773 0
M  V30 395 H 40.8565 2.94266 0.221714 0
M  V30 396 H 40.9375 2.16347 -1.36483 0
M  V30 397 H 40.5815 4.43565 -2.47412 0
M  V30 398 H 40.5115 5.19465 -0.863899 0
M  V30 399 H 43.0025 3.64027 -1.01452 0
M  V30 400 H 43.3155 7.25203 -2.67021 0
M  V30 401 H 41.6605 6.52435 -2.39487 0
M  V30 402 H 44.8515 4.48581 -1.33763 0
M  V30 403 H 45.0245 6.13288 -2.09242 0
M  V30 404 N 38.4306 0.297415 1.54768 0
M  V30 405 C 39.6776 -0.312913 2.00068 0
M  V30 406 C 40.0056 -1.54171 1.18582 0
M  V30 407 O 39.2606 -1.94108 0.249133 0
M  V30 408 C 39.5596 -0.717561 3.50123 0
M  V30 409 C 39.2256 0.409095 4.4904 0
M  V30 410 C 37.8876 0.718399 4.75807 0
M  V30 411 C 40.2396 1.16717 5.07963 0
M  V30 412 C 37.5676 1.78896 5.5876 0
M  V30 413 C 39.9196 2.22762 5.92081 0
M  V30 414 C 38.5836 2.54303 6.1716 0
M  V30 415 H 37.8536 -0.114503 0.7321 0
M  V30 416 H 40.5006 0.415767 1.86932 0
M  V30 417 H 38.8056 -1.52627 3.60849 0
M  V30 418 H 40.5026 -1.20091 3.82595 0
M  V30 419 H 37.0926 0.157918 4.28309 0
M  V30 420 H 41.2766 0.941466 4.87289 0
M  V30 421 H 36.5326 2.0381 5.7643 0
M  V30 422 H 40.7066 2.81962 6.36765 0
M  V30 423 H 38.3336 3.3739 6.81229 0
M  V30 424 N 39.9087 -1.5758 0.0250728 0
M  V30 425 C 40.8557 -2.09973 -0.958129 0
M  V30 426 C 41.8257 -1.00085 -1.3256 0
M  V30 427 O 43.0107 -1.27481 -1.41962 0
M  V30 428 C 40.1507 -2.62812 -2.2366 0
M  V30 429 C 39.2637 -3.86693 -1.92594 0
M  V30 430 C 38.3987 -4.27941 -3.14707 0
M  V30 431 C 37.4377 -5.44591 -2.79442 0
M  V30 432 N 36.5747 -5.81014 -3.94167 0
M  V30 433 H 41.4147 -2.937 -0.504428 0
M  V30 434 H 38.9517 -1.45172 -0.237392 0
M  V30 435 H 40.9097 -2.91536 -2.98434 0
M  V30 436 H 39.5397 -1.81922 -2.66654 0
M  V30 437 H 38.5917 -3.64723 -1.0808 0
M  V30 438 H 39.9037 -4.71547 -1.62619 0
M  V30 439 H 39.0577 -4.58079 -3.97804 0
M  V30 440 H 37.7967 -3.41845 -3.4784 0
M  V30 441 H 36.8017 -5.1415 -1.94755 0
M  V30 442 H 38.0267 -6.32382 -2.47528 0
M  V30 443 H 35.9727 -4.97874 -4.2715 0
M  V30 444 H 35.8897 -6.60498 -3.67801 0
M  V30 445 H 37.1577 -6.15756 -4.7798 0
M  V30 446 N 41.3868 0.248026 -1.55636 0
M  V30 447 C 42.3338 1.30707 -1.90222 0
M  V30 448 C 43.3038 1.47881 -0.756332 0
M  V30 449 O 44.4888 1.61883 -1.00988 0
M  V30 450 C 41.6288 2.65769 -2.20138 0
M  V30 451 C 40.7418 2.56612 -3.47526 0
M  V30 452 C 39.8768 3.8402 -3.67017 0
M  V30 453 C 38.9158 3.69476 -4.8801 0
M  V30 454 N 38.0528 4.88774 -5.04029 0
M  V30 455 H 42.8928 1.00512 -2.80538 0
M  V30 456 H 40.4298 0.485055 -1.38873 0
M  V30 457 H 42.3878 3.44386 -2.35487 0
M  V30 458 H 41.0178 2.94115 -1.33027 0
M  V30 459 H 40.0698 1.69571 -3.40514 0
M  V30 460 H 41.3818 2.41774 -4.36287 0
M  V30 461 H 40.5358 4.7108 -3.8232 0
M  V30 462 H 39.2748 4.01754 -2.76487 0
M  V30 463 H 38.2798 2.80799 -4.72686 0
M  V30 464 H 39.5048 3.53238 -5.8 0
M  V30 465 H 37.4508 5.0687 -4.16435 0
M  V30 466 H 37.3678 4.76562 -5.86877 0
M  V30 467 H 38.6358 5.77335 -5.23741 0
M  V30 468 N 42.8649 1.48995 0.513639 0
M  V30 469 C 43.7949 1.67636 1.62544 0
M  V30 470 C 44.7759 0.525087 1.61793 0
M  V30 471 O 45.9609 0.759502 1.78732 0
M  V30 472 C 43.0909 1.73114 3.01079 0
M  V30 473 C 42.0449 2.87905 3.16693 0
M  V30 474 C 41.3709 2.78486 4.56453 0
M  V30 475 C 42.6709 4.29005 2.97913 0
M  V30 476 H 44.3649 2.60716 1.47198 0
M  V30 477 H 41.9109 1.25465 0.706714 0
M  V30 478 H 43.8639 1.84742 3.78746 0
M  V30 479 H 42.5879 0.766241 3.17484 0
M  V30 480 H 41.2469 2.75859 2.41448 0
M  V30 481 H 40.8949 1.7993 4.69717 0
M  V30 482 H 40.5949 3.55523 4.67843 0
M  V30 483 H 42.1189 2.92104 5.36197 0
M  V30 484 H 43.5329 4.41798 3.65359 0
M  V30 485 H 41.9299 5.07166 3.20785 0
M  V30 486 H 42.9999 4.44329 1.94165 0
M  V30 487 N 44.343 -0.763751 1.37857 0
M  V30 488 C 45.62 -1.51244 1.24035 0
M  V30 489 C 46 -2.10472 -0.162649 0
M  V30 490 O 45.348 -1.96206 -1.17112 0
M  V30 491 C 45.558 -2.58694 2.34261 0
M  V30 492 C 46.906 -3.25878 2.72193 0
M  V30 493 O 47.93 -2.68993 2.33497 0
M  V30 494 O 46.789 -4.2874 3.38887 0
M  V30 495 H 43.883 -0.670243 0.484462 0
M  V30 496 H 46.429 -0.800031 1.49658 0
M  V30 497 H 45.201 -2.13105 3.2818 0
M  V30 498 H 44.824 -3.37527 2.10146 0
M  V30 499 N 45.8211 -1.22559 -0.990812 0
M  V30 500 C 46.7511 -1.0218 -2.09956 0
M  V30 501 C 47.7321 0.0579394 -1.70001 0
M  V30 502 O 48.9171 -0.104684 -1.93918 0
M  V30 503 C 46.0471 -0.601023 -3.4206 0
M  V30 504 C 45.0011 -1.62694 -3.95872 0
M  V30 505 C 44.3271 -1.06193 -5.24049 0
M  V30 506 C 45.6271 -3.01743 -4.2632 0
M  V30 507 H 47.3211 -1.94916 -2.27262 0
M  V30 508 H 44.8671 -0.938566 -1.09211 0
M  V30 509 H 46.8201 -0.445561 -4.19038 0
M  V30 510 H 45.5441 0.362005 -3.24588 0
M  V30 511 H 44.2031 -1.77021 -3.21028 0
M  V30 512 H 43.8511 -0.0901903 -5.02919 0
M  V30 513 H 43.5511 -1.74732 -5.61019 0
M  V30 514 H 45.0751 -0.918092 -6.03658 0
M  V30 515 H 46.4891 -2.90777 -4.94087 0
M  V30 516 H 44.8861 -3.67425 -4.74467 0
M  V30 517 H 45.9561 -3.51518 -3.34011 0
M  V30 518 N 47.2992 1.18797 -1.03562 0
M  V30 519 C 48.5762 1.84469 -0.650434 0
M  V30 520 C 48.9562 1.92319 0.870433 0
M  V30 521 O 48.3042 1.44528 1.76986 0
M  V30 522 C 48.5142 3.2306 -1.32036 0
M  V30 523 C 49.8622 3.9915 -1.44792 0
M  V30 524 O 50.8862 3.32481 -1.27806 0
M  V30 525 O 49.7452 5.18587 -1.72423 0
M  V30 526 H 46.8392 0.795251 -0.226946 0
M  V30 527 H 49.3852 1.26231 -1.13419 0
M  V30 528 H 48.1572 3.1222 -2.3587 0
M  V30 529 H 47.7802 3.88949 -0.8249 0
M  V30 530 N 48.7773 0.814389 1.34928 0
M  V30 531 C 49.7243 0.22822 2.29669 0
M  V30 532 C 50.6943 -0.642164 1.53184 0
M  V30 533 O 51.8793 -0.585605 1.81591 0
M  V30 534 C 49.0193 -0.61089 3.3965 0
M  V30 535 C 48.1323 0.280792 4.31086 0
M  V30 536 C 47.2673 -0.567067 5.28165 0
M  V30 537 C 46.3063 0.324531 6.11239 0
M  V30 538 N 45.4433 -0.483756 7.00431 0
M  V30 539 H 50.2833 1.04153 2.79206 0
M  V30 540 H 47.8203 0.525133 1.37407 0
M  V30 541 H 49.7783 -1.11263 4.0209 0
M  V30 542 H 48.4083 -1.38939 2.91369 0
M  V30 543 H 47.4603 0.900688 3.69583 0
M  V30 544 H 48.7723 0.966723 4.89342 0
M  V30 545 H 47.9263 -1.13363 5.96015 0
M  V30 546 H 46.6653 -1.28654 4.70425 0
M  V30 547 H 45.6703 0.903298 5.42329 0
M  V30 548 H 46.8953 1.04198 6.71059 0
M  V30 549 H 44.8413 -1.18706 6.45171 0
M  V30 550 H 44.7583 0.143965 7.55863 0
M  V30 551 H 46.0263 -1.03334 7.7262 0
M  V30 552 N 50.2554 -1.46986 0.568584 0
M  V30 553 C 51.4804 -2.07335 0.0520528 0
M  V30 554 C 51.9054 -1.41675 -1.23733 0
M  V30 555 O 51.2634 -0.495623 -1.74394 0
M  V30 556 C 51.3114 -3.60417 -0.11501 0
M  V30 557 O 50.4154 -3.95309 -1.17492 0
M  V30 558 H 49.7564 -0.661597 0.0564385 0
M  V30 559 H 52.2864 -1.88837 0.787507 0
M  V30 560 H 52.2964 -4.06698 -0.325644 0
M  V30 561 H 50.9714 -4.07601 0.826675 0
M  V30 562 H 49.5484 -3.60757 -0.943869 0
M  V30 563 N 51.7335 -0.305618 -1.54608 0
M  V30 564 C 52.9815 0.301701 -1.99835 0
M  V30 565 C 53.3025 1.54054 -1.19551 0
M  V30 566 O 52.5725 1.93702 -0.292658 0
M  V30 567 H 51.1525 0.114468 -0.738178 0
M  V30 568 H 53.8145 -0.418016 -1.90364 0
M  V30 569 H 52.9105 0.570548 -3.06841 0
M  V30 570 N 53.2116 1.57565 -0.0334293 0
M  V30 571 C 54.4366 1.96689 0.657895 0
M  V30 572 C 54.8616 0.910057 1.64619 0
M  V30 573 O 54.2196 -0.128598 1.80843 0
M  V30 574 C 54.2676 3.34905 1.33683 0
M  V30 575 O 53.3716 3.31574 2.45219 0
M  V30 576 H 52.7126 0.641205 0.172489 0
M  V30 577 H 55.2426 2.04372 -0.0965621 0
M  V30 578 H 55.2526 3.71234 1.69262 0
M  V30 579 H 53.9276 4.11366 0.612411 0
M  V30 580 H 52.5046 3.06968 2.11719 0
M  V30 581 N 54.6897 -0.239769 1.55765 0
M  V30 582 C 55.6197 -1.30052 1.9393 0
M  V30 583 C 56.6007 -1.49839 0.805132 0
M  V30 584 O 57.7857 -1.62328 1.06599 0
M  V30 585 C 54.9157 -2.65391 2.2402 0
M  V30 586 C 53.8697 -2.60289 3.39755 0
M  V30 587 C 53.1957 -3.99489 3.55405 0
M  V30 588 C 54.4957 -2.16654 4.75246 0
M  V30 589 H 56.1897 -0.983573 2.82783 0
M  V30 590 H 53.7357 -0.471701 1.36055 0
M  V30 591 H 55.6887 -3.3974 2.49308 0
M  V30 592 H 54.4127 -2.98736 1.32 0
M  V30 593 H 53.0717 -1.88398 3.14487 0
M  V30 594 H 52.7197 -4.30112 2.60793 0
M  V30 595 H 52.4197 -3.96962 4.33238 0
M  V30 596 H 53.9437 -4.75528 3.83022 0
M  V30 597 H 55.3577 -2.80737 4.99859 0
M  V30 598 H 53.7547 -2.25223 5.56232 0
M  V30 599 H 54.8247 -1.11835 4.71827 0
M  V30 600 N 56.1678 -1.49265 -0.50573 0
M  V30 601 C 57.3928 -1.62478 -1.28902 0
M  V30 602 C 57.8178 -0.294332 -1.85783 0
M  V30 603 O 57.1758 0.737412 -1.65626 0
M  V30 604 C 57.2238 -2.69268 -2.39848 0
M  V30 605 O 56.3278 -2.28113 -3.43567 0
M  V30 606 H 55.6688 -0.54399 -0.380751 0
M  V30 607 H 58.1988 -1.95421 -0.605952 0
M  V30 608 H 58.2088 -2.91291 -2.85681 0
M  V30 609 H 56.8838 -3.65846 -1.97812 0
M  V30 610 H 55.4608 -2.16401 -3.03685 0
M  V30 611 N 57.6459 0.756429 -1.3826 0
M  V30 612 C 58.8919 1.51772 -1.34511 0
M  V30 613 C 59.2249 1.94089 0.0656691 0
M  V30 614 O 58.4999 1.65221 1.02626 0
M  V30 615 C 58.7829 2.77226 -2.29821 0
M  V30 616 C 58.6359 2.41065 -3.79747 0
M  V30 617 C 59.9549 3.79236 -2.23312 0
M  V30 618 H 57.0739 0.550578 -0.489931 0
M  V30 619 H 59.7159 0.866607 -1.69086 0
M  V30 620 H 57.8659 3.32784 -2.00467 0
M  V30 621 H 59.5379 1.91303 -4.19763 0
M  V30 622 H 57.7809 1.7356 -3.97567 0
M  V30 623 H 58.4519 3.3081 -4.41892 0
M  V30 624 H 60.9279 3.3321 -2.49219 0
M  V30 625 H 59.8039 4.64714 -2.92116 0
M  V30 626 H 60.0649 4.24615 -1.23102 0
M  V30 627 N 59.124 1.23083 0.984299 0
M  V30 628 C 60.034 1.02515 2.11016 0
M  V30 629 C 61.05 -0.0291702 1.73976 0
M  V30 630 O 62.226 0.165434 2.00719 0
M  V30 631 C 59.291 0.614673 3.41208 0
M  V30 632 C 58.352 1.74359 3.92297 0
M  V30 633 C 57.585 1.35261 5.16275 0
M  V30 634 O 57.808 0.235136 5.69915 0
M  V30 635 O 56.742 2.17227 5.61334 0
M  V30 636 H 60.568 1.96862 2.31255 0
M  V30 637 H 58.153 1.01753 1.09392 0
M  V30 638 H 60.035 0.396518 4.1953 0
M  V30 639 H 58.71 -0.299851 3.22308 0
M  V30 640 H 57.617 2.01635 3.1511 0
M  V30 641 H 58.95 2.63629 4.15645 0
M  V30 642 N 60.6021 -1.18246 1.0419 0
M  V30 643 C 61.5121 -2.25574 0.644476 0
M  V30 644 C 62.5281 -1.70845 -0.329826 0
M  V30 645 O 63.7041 -2.00554 -0.184443 0
M  V30 646 C 60.7691 -3.46697 0.014877 0
M  V30 647 C 59.8301 -4.16554 1.03834 0
M  V30 648 C 59.0631 -5.31894 0.438692 0
M  V30 649 O 59.2861 -5.65385 -0.754752 0
M  V30 650 O 58.2201 -5.90459 1.168 0
M  V30 651 H 62.0461 -2.61836 1.53869 0
M  V30 652 H 59.6311 -1.25352 0.812854 0
M  V30 653 H 61.5131 -4.20062 -0.335538 0
M  V30 654 H 60.1881 -3.12255 -0.853138 0
M  V30 655 H 59.0951 -3.45251 1.44057 0
M  V30 656 H 60.4281 -4.54998 1.87716 0
M  V30 657 N 62.0802 -0.821533 -1.34494 0
M  V30 658 C 63.3272 -0.408946 -1.98328 0
M  V30 659 C 63.6552 1.02764 -1.65136 0
M  V30 660 O 62.9102 1.73026 -0.914349 0
M  V30 661 C 63.2092 -0.556512 -3.53041 0
M  V30 662 C 62.8752 -1.95861 -4.0614 0
M  V30 663 C 61.5372 -2.34217 -4.20352 0
M  V30 664 C 63.8892 -2.87523 -4.34718 0
M  V30 665 C 61.2172 -3.63572 -4.6047 0
M  V30 666 C 63.5692 -4.1634 -4.76281 0
M  V30 667 C 62.2332 -4.54675 -4.88699 0
M  V30 668 H 61.5032 -0.149644 -0.725732 0
M  V30 669 H 64.1502 -1.04521 -1.6046 0
M  V30 670 H 62.4552 0.163148 -3.9146 0
M  V30 671 H 64.1522 -0.217826 -4.00408 0
M  V30 672 H 60.7422 -1.65066 -3.95539 0
M  V30 673 H 64.9262 -2.59133 -4.23277 0
M  V30 674 H 60.1822 -3.93101 -4.68275 0
M  V30 675 H 64.3562 -4.87455 -4.97354 0
M  V30 676 H 61.9832 -5.54959 -5.19542 0
M  V30 677 N 63.5583 1.46682 -0.576371 0
M  V30 678 C 64.4913 2.27243 0.208731 0
M  V30 679 C 65.4693 1.35238 0.902746 0
M  V30 680 O 66.6533 1.64641 0.917904 0
M  V30 681 C 63.7803 3.12802 1.29896 0
M  V30 682 C 62.8263 4.20524 0.711457 0
M  V30 683 S 63.6593 5.33548 -0.456781 0
M  V30 684 C 64.8153 6.22673 0.634798 0
M  V30 685 H 65.0483 2.93484 -0.474838 0
M  V30 686 H 62.5813 1.50069 -0.363118 0
M  V30 687 H 64.5393 3.62661 1.92321 0
M  V30 688 H 63.2003 2.45887 1.95444 0
M  V30 689 H 62.3933 4.80191 1.53076 0
M  V30 690 H 61.9953 3.73645 0.162999 0
M  V30 691 H 64.2873 6.60181 1.52209 0
M  V30 692 H 65.2303 7.0806 0.0750311 0
M  V30 693 H 65.6383 5.56684 0.936092 0
M  V30 694 N 65.0364 0.313813 1.54444 0
M  V30 695 C 66.2614 -0.296681 2.05267 0
M  V30 696 C 66.6864 -1.45757 1.18897 0
M  V30 697 O 66.0444 -1.80239 0.195886 0
M  V30 698 C 66.0924 -0.71831 3.53373 0
M  V30 699 O 65.1964 -1.82175 3.69981 0
M  V30 700 H 64.5374 -0.0554061 0.661684 0
M  V30 701 H 67.0674 0.459387 1.99376 0
M  V30 702 H 67.0774 -1.00364 3.95463 0
M  V30 703 H 65.7524 0.130821 4.15694 0
M  V30 704 H 64.3294 -1.53598 3.39797 0
M  V30 705 N 66.5145 -1.57545 0.0417849 0
M  V30 706 C 67.4445 -2.14009 -0.933929 0
M  V30 707 C 68.4255 -1.05938 -1.33083 0
M  V30 708 O 69.6105 -1.33833 -1.40721 0
M  V30 709 C 66.7405 -2.67747 -2.21199 0
M  V30 710 C 65.6945 -3.80718 -1.95544 0
M  V30 711 C 65.0205 -4.20935 -3.29724 0
M  V30 712 C 66.3205 -5.06258 -1.28452 0
M  V30 713 H 68.0145 -2.95788 -0.463645 0
M  V30 714 H 65.5605 -1.42285 -0.221573 0
M  V30 715 H 67.5135 -3.05886 -2.89848 0
M  V30 716 H 66.2375 -1.83147 -2.70416 0
M  V30 717 H 64.8965 -3.43037 -1.2931 0
M  V30 718 H 64.5445 -3.33298 -3.76724 0
M  V30 719 H 64.2445 -4.9707 -3.13361 0
M  V30 720 H 65.7685 -4.61666 -3.9962 0
M  V30 721 H 67.1825 -5.41903 -1.8712 0
M  V30 722 H 65.5795 -5.87475 -1.22445 0
M  V30 723 H 66.6495 -4.84207 -0.259219 0
M  V30 724 N 67.9926 0.231505 -1.5589 0
M  V30 725 C 69.4036 0.799327 -1.68724 0
M  V30 726 C 69.7546 1.85398 -0.642022 0
M  V30 727 O 68.8796 2.1539 0.208784 0
M  V30 728 C 69.4746 1.45664 -3.05888 0
M  V30 729 C 68.0336 1.97197 -3.20609 0
M  V30 730 C 67.1806 0.828552 -2.64632 0
M  V30 731 H 70.1316 0.00702616 -1.58698 0
M  V30 732 H 70.1526 2.32517 -3.01191 0
M  V30 733 H 69.6646 0.688808 -3.81939 0
M  V30 734 H 67.7656 2.76813 -2.4941 0
M  V30 735 H 67.8786 2.15878 -4.27707 0
M  V30 736 H 66.2426 1.23321 -2.22854 0
M  V30 737 H 67.0256 0.0735544 -3.43221 0
M  V30 738 N 69.4707 1.49531 0.497807 0
M  V30 739 C 70.3807 1.69176 1.62532 0
M  V30 740 C 71.3967 0.5744 1.64246 0
M  V30 741 O 72.5727 0.849497 1.82608 0
M  V30 742 C 69.6377 1.75695 2.98885 0
M  V30 743 C 68.6987 2.9929 3.07773 0
M  V30 744 C 67.9317 3.05488 4.37622 0
M  V30 745 O 68.1547 2.19192 5.26603 0
M  V30 746 O 67.0887 3.9798 4.51548 0
M  V30 747 H 70.9147 2.647 1.48887 0
M  V30 748 H 68.4997 1.3331 0.674441 0
M  V30 749 H 70.3817 1.82317 3.79919 0
M  V30 750 H 69.0567 0.8335 3.12785 0
M  V30 751 H 67.9637 2.98183 2.25915 0
M  V30 752 H 69.2967 3.91125 2.98801 0
M  V30 753 N 70.9488 -0.749086 1.3866 0
M  V30 754 C 71.8788 -1.8764 1.38973 0
M  V30 755 C 72.8598 -1.68178 0.255004 0
M  V30 756 O 74.0448 -1.88704 0.458754 0
M  V30 757 C 71.1748 -3.25222 1.21851 0
M  V30 758 C 70.1288 -3.59295 2.32575 0
M  V30 759 C 69.4548 -4.95663 2.00555 0
M  V30 760 C 70.7548 -3.63709 3.7485 0
M  V30 761 H 72.4488 -1.87635 2.3331 0
M  V30 762 H 69.9948 -0.901329 1.12303 0
M  V30 763 H 71.9478 -4.03746 1.20695 0
M  V30 764 H 70.6718 -3.25719 0.239775 0
M  V30 765 H 69.3308 -2.83093 2.32925 0
M  V30 766 H 68.9788 -4.92724 1.01154 0
M  V30 767 H 68.6788 -5.19429 2.74714 0
M  V30 768 H 70.2028 -5.7656 2.01024 0
M  V30 769 H 71.6168 -4.32338 3.76506 0
M  V30 770 H 70.0138 -3.98986 4.48252 0
M  V30 771 H 71.0838 -2.63834 4.06841 0
M  V30 772 N 72.4269 -1.23603 -0.977757 0
M  V30 773 C 73.8429 -0.999251 -1.24447 0
M  V30 774 C 74.0429 0.298053 -1.99283 0
M  V30 775 O 73.0989 1.01681 -2.31122 0
M  V30 776 C 74.4119 -2.20784 -2.04144 0
M  V30 777 C 75.9599 -2.25303 -2.17273 0
M  V30 778 C 76.4349 -3.45755 -3.00362 0
M  V30 779 N 77.9259 -3.4601 -3.07947 0
M  V30 780 C 78.6609 -4.35868 -3.72568 0
M  V30 781 N 78.1569 -5.35966 -4.38991 0
M  V30 782 N 79.9499 -4.23605 -3.6948 0
M  V30 783 H 72.1009 -2.06986 -0.476483 0
M  V30 784 H 74.3639 -0.907801 -0.273134 0
M  V30 785 H 74.0699 -3.14945 -1.56533 0
M  V30 786 H 73.9439 -2.22085 -3.04891 0
M  V30 787 H 76.3309 -1.3168 -2.64092 0
M  V30 788 H 76.4119 -2.28033 -1.15907 0
M  V30 789 H 76.0559 -4.39687 -2.5424 0
M  V30 790 H 75.9859 -3.40266 -4.01904 0
M  V30 791 H 78.4769 -2.73588 -2.60688 0
M  V30 792 H 78.7899 -6.00783 -4.86086 0
M  V30 793 H 77.1349 -5.39863 -4.37691 0
M  V30 794 H 80.3259 -3.44647 -3.16759 0
M  V30 795 H 80.4989 -4.93836 -4.1956 0
M  V30 796 N 73.905 1.17692 -1.04816 0
M  V30 797 C 74.855 2.1952 -0.616042 0
M  V30 798 C 75.839 1.57147 0.345485 0
M  V30 799 O 77.031 1.76245 0.163325 0
M  V30 800 C 74.16 3.43298 0.0116917 0
M  V30 801 C 73.246 4.12777 -0.973435 0
M  V30 802 N 73.637 4.5814 -2.14339 0
M  V30 803 C 71.935 4.38747 -0.80108 0
M  V30 804 C 72.636 5.11713 -2.7663 0
M  V30 805 N 71.612 5.03686 -2.04453 0
M  V30 806 H 75.414 2.52293 -1.5075 0
M  V30 807 H 72.928 1.3398 -0.917776 0
M  V30 808 H 74.925 4.15519 0.339006 0
M  V30 809 H 73.585 3.12018 0.898593 0
M  V30 810 H 74.596 4.52349 -2.52191 0
M  V30 811 H 71.273 4.17485 0.0350934 0
M  V30 812 H 72.663 5.56962 -3.75823 0
M  V30 813 N 75.3831 0.828654 1.34056 0
M  V30 814 C 76.3311 0.242973 2.31327 0
M  V30 815 C 77.3251 -0.61944 1.57668 0
M  V30 816 O 78.5311 -0.51014 1.7262 0
M  V30 817 H 74.9061 0.059834 0.749616 0
M  V30 818 H 76.8771 1.07809 2.78244 0
M  V30 819 C 75.6261 -0.575733 3.429 0
M  V30 820 H 74.9491 0.0785582 3.99723 0
M  V30 821 H 76.3891 -0.951547 4.13185 0
M  V30 822 C 74.8481 -1.75044 2.87856 0
M  V30 823 O 75.3781 -2.84882 2.83205 0
M  V30 824 N 73.5841 -1.56903 2.44602 0
M  V30 825 H 73.1311 -0.675547 2.48584 0
M  V30 826 H 73.0891 -2.35652 2.08124 0
M  V30 827 N 76.8612 -1.46375 0.584142 0
M  V30 828 C 78.2722 -1.86031 0.157959 0
M  V30 829 C 78.6232 -1.48753 -1.27933 0
M  V30 830 O 77.7482 -0.903098 -1.96655 0
M  V30 831 C 78.3432 -3.37642 0.279892 0
M  V30 832 C 76.9022 -3.76289 -0.09143 0
M  V30 833 C 76.0492 -2.7039 0.615178 0
M  V30 834 H 79.0002 -1.37509 0.792274 0
M  V30 835 H 79.0212 -3.77275 -0.494364 0
M  V30 836 H 78.5332 -3.64742 1.32607 0
M  V30 837 H 76.6342 -3.54806 -1.13769 0
M  V30 838 H 76.7472 -4.78246 0.285886 0
M  V30 839 H 75.1112 -2.5464 0.0552833 0
M  V30 840 H 75.8942 -3.0033 1.66303 0
M  V30 841 N 78.3393 -0.321999 -1.54275 0
M  V30 842 C 79.2693 0.537411 -2.27231 0
M  V30 843 C 80.2503 1.12064 -1.27968 0
M  V30 844 O 81.4353 1.14606 -1.56777 0
M  V30 845 C 78.5653 1.69919 -3.02894 0
M  V30 846 C 77.5193 1.24534 -4.09482 0
M  V30 847 C 76.8453 2.49394 -4.72977 0
M  V30 848 C 78.1453 0.361335 -5.21049 0
M  V30 849 H 79.8393 -0.0711406 -2.99315 0
M  V30 850 H 77.3853 -0.0356555 -1.43956 0
M  V30 851 H 79.3383 2.30668 -3.52662 0
M  V30 852 H 78.0623 2.33431 -2.28424 0
M  V30 853 H 76.7213 0.660782 -3.60596 0
M  V30 854 H 76.3693 3.11265 -3.95124 0
M  V30 855 H 76.0693 2.19718 -5.44975 0
M  V30 856 H 77.5933 3.10908 -5.25517 0
M  V30 857 H 79.0073 0.875072 -5.66582 0
M  V30 858 H 77.4043 0.157428 -5.99893 0
M  V30 859 H 78.4743 -0.60822 -4.8107 0
M  V30 860 N 79.8174 1.5752 -0.0501392 0
M  V30 861 C 81.0634 1.92936 0.624798 0
M  V30 862 C 81.3964 0.928685 1.70555 0
M  V30 863 O 80.6714 -0.0454779 1.94447 0
M  V30 864 C 80.9544 3.38737 1.22185 0
M  V30 865 C 80.8074 4.49552 0.149218 0
M  V30 866 C 82.1264 3.84913 2.13378 0
M  V30 867 H 79.2454 0.701604 0.225657 0
M  V30 868 H 81.8874 1.89671 -0.111693 0
M  V30 869 H 80.0374 3.4165 1.84953 0
M  V30 870 H 81.7094 4.58768 -0.482648 0
M  V30 871 H 79.9524 4.30638 -0.522841 0
M  V30 872 H 80.6234 5.48653 0.606966 0
M  V30 873 H 83.0994 3.8387 1.60572 0
M  V30 874 H 81.9754 4.87584 2.52097 0
M  V30 875 H 82.2364 3.21611 3.03346 0
M  V30 876 N 81.2955 -0.223234 1.56011 0
M  V30 877 C 82.7115 -0.572856 1.48965 0
M  V30 878 C 82.9115 -1.87225 0.74492 0
M  V30 879 O 81.9675 -2.50899 0.283896 0
M  V30 880 C 83.2805 -0.653646 2.9351 0
M  V30 881 C 84.8285 -0.744386 3.0402 0
M  V30 882 C 85.3035 -0.856535 4.49919 0
M  V30 883 N 86.7945 -0.9208 4.53955 0
M  V30 884 C 87.5295 -1.02726 5.64123 0
M  V30 885 N 87.0255 -1.09777 6.84047 0
M  V30 886 N 88.8185 -1.06226 5.51971 0
M  V30 887 H 80.9695 0.629462 2.02858 0
M  V30 888 H 83.2325 0.220621 0.921971 0
M  V30 889 H 82.9385 0.231518 3.50937 0
M  V30 890 H 82.8125 -1.51781 3.45315 0
M  V30 891 H 85.1995 -1.61999 2.46658 0
M  V30 892 H 85.2805 0.14541 2.55386 0
M  V30 893 H 84.9245 0.0146069 5.07898 0
M  V30 894 H 84.8545 -1.76172 4.96257 0
M  V30 895 H 87.3455 -0.876694 3.6759 0
M  V30 896 H 87.6585 -1.17872 7.63758 0
M  V30 897 H 86.0035 -1.06693 6.86762 0
M  V30 898 H 89.1945 -1.00382 4.5721 0
M  V30 899 H 89.3675 -1.14177 6.37862 0
M  V30 900 N 82.7736 -1.49793 -0.48987 0
M  V30 901 C 84.1896 -1.36803 -0.822022 0
M  V30 902 C 84.3896 -0.409652 -1.97292 0
M  V30 903 O 83.4456 0.154614 -2.52026 0
M  V30 904 C 84.7586 -2.77768 -1.15175 0
M  V30 905 C 86.3066 -2.86549 -1.25931 0
M  V30 906 C 86.7816 -4.28306 -1.62228 0
M  V30 907 N 88.2726 -4.31169 -1.69256 0
M  V30 908 C 89.0076 -5.37832 -1.98807 0
M  V30 909 N 88.5036 -6.54726 -2.26507 0
M  V30 910 N 90.2966 -5.25258 -2.00152 0
M  V30 911 H 82.4476 -2.10691 0.268881 0
M  V30 912 H 84.7106 -0.946241 0.057728 0
M  V30 913 H 84.4166 -3.49648 -0.379335 0
M  V30 914 H 84.2906 -3.13836 -2.09253 0
M  V30 915 H 86.6776 -2.14899 -2.02243 0
M  V30 916 H 86.7586 -2.54049 -0.298776 0
M  V30 917 H 86.4026 -5.00486 -0.864622 0
M  V30 918 H 86.3326 -4.58279 -2.594 0
M  V30 919 H 88.8236 -3.4687 -1.49965 0
M  V30 920 H 89.1366 -7.31833 -2.48276 0
M  V30 921 H 87.4816 -6.57933 -2.23939 0
M  V30 922 H 90.6726 -4.32938 -1.77996 0
M  V30 923 H 90.8456 -6.08476 -2.22848 0
M  V30 924 N 84.2517 0.741722 -1.39055 0
M  V30 925 C 85.4977 1.50336 -1.36113 0
M  V30 926 C 85.8307 1.94148 0.0450796 0
M  V30 927 O 85.1057 1.66301 1.00868 0
M  V30 928 C 85.3887 2.74773 -2.32749 0
M  V30 929 C 85.2417 2.37023 -3.82283 0
M  V30 930 C 86.5607 3.76846 -2.27322 0
M  V30 931 H 83.6797 0.545351 -0.495743 0
M  V30 932 H 86.3217 0.848624 -1.69995 0
M  V30 933 H 84.4717 3.30639 -2.03986 0
M  V30 934 H 86.1437 1.8684 -4.21768 0
M  V30 935 H 84.3867 1.69334 -3.99385 0
M  V30 936 H 85.0577 3.26104 -4.45376 0
M  V30 937 H 87.5337 3.30548 -2.5274 0
M  V30 938 H 86.4097 4.6159 -2.97028 0
M  V30 939 H 86.6707 4.23286 -1.27599 0
M  V30 940 N 85.7298 1.2412 0.971189 0
M  V30 941 C 86.9788 1.07284 1.70801 0
M  V30 942 C 87.2918 -0.388902 1.91695 0
M  V30 943 O 88.4978 -0.677379 2.62914 0
M  V30 944 C 86.9538 1.87145 3.07416 0
M  V30 945 C 86.5618 3.37707 2.94377 0
M  V30 946 C 88.3058 1.78828 3.84995 0
M  V30 947 C 86.2128 4.09925 4.26281 0
M  V30 948 H 85.1428 0.397854 0.64049 0
M  V30 949 H 87.7938 1.4817 1.0825 0
M  V30 950 H 86.1758 1.39071 3.70777 0
M  V30 951 H 87.3498 3.93335 2.4005 0
M  V30 952 H 85.6648 3.46938 2.30267 0
M  V30 953 H 88.2618 2.30089 4.82662 0
M  V30 954 H 88.6048 0.75284 4.09436 0
M  V30 955 H 89.1378 2.24563 3.28354 0
M  V30 956 H 85.8768 5.13813 4.07033 0
M  V30 957 H 85.3968 3.59083 4.80437 0
M  V30 958 H 87.0758 4.1673 4.94919 0
M  V30 959 N 87.2079 -1.17134 1.05439 0
M  V30 960 C 88.4849 -1.83411 0.679699 0
M  V30 961 C 88.8649 -1.9368 -0.839726 0
M  V30 962 O 88.2129 -1.47325 -1.74664 0
M  V30 963 C 88.4229 -3.20918 1.37159 0
M  V30 964 C 89.7709 -3.96796 1.51123 0
M  V30 965 O 90.7949 -3.30406 1.3308 0
M  V30 966 O 89.6539 -5.15778 1.80651 0
M  V30 967 H 86.7479 -0.79154 0.239569 0
M  V30 968 H 89.2939 -1.24411 1.15413 0
M  V30 969 H 88.0659 -3.08428 2.40807 0
M  V30 970 H 87.6889 -3.87587 0.886674 0
M  V30 971 N 88.686 -0.835752 -1.33615 0
M  V30 972 C 89.932 -0.430596 -1.98176 0
M  V30 973 C 90.265 1.00684 -1.66061 0
M  V30 974 O 89.54 1.70339 -0.938877 0
M  V30 975 C 89.823 -0.648065 -3.5422 0
M  V30 976 C 89.676 -2.13255 -3.96033 0
M  V30 977 C 90.995 -0.0922113 -4.40003 0
M  V30 978 H 88.114 -0.157924 -0.719881 0
M  V30 979 H 90.756 -1.05069 -1.58305 0
M  V30 980 H 88.906 -0.120237 -3.88314 0
M  V30 981 H 90.578 -2.725 -3.72211 0
M  V30 982 H 88.821 -2.61823 -3.45878 0
M  V30 983 H 89.492 -2.23547 -5.04708 0
M  V30 984 H 91.968 -0.543343 -4.12537 0
M  V30 985 H 90.844 -0.274083 -5.48215 0
M  V30 986 H 91.105 1.00378 -4.30554 0
M  V30 987 N 90.1641 1.46063 -0.591896 0
M  V30 988 C 91.4111 2.02338 -0.0809991 0
M  V30 989 C 91.7391 1.46228 1.28249 0
M  V30 990 O 90.9941 0.620818 1.85592 0
M  V30 991 C 91.2931 3.57391 0.0249813 0
M  V30 992 C 90.9591 4.32583 -1.27211 0
M  V30 993 C 89.6211 4.52844 -1.62745 0
M  V30 994 C 91.9731 4.75687 -2.13005 0
M  V30 995 C 89.3011 5.13462 -2.83855 0
M  V30 996 C 91.6531 5.37644 -3.3335 0
M  V30 997 C 90.3171 5.5613 -3.69155 0
M  V30 998 H 89.5871 0.740407 -0.0296397 0
M  V30 999 H 92.2341 1.75321 -0.770374 0
M  V30 1000 H 90.5391 3.83597 0.797537 0
M  V30 1001 H 92.2361 3.98621 0.436184 0
M  V30 1002 H 88.8261 4.17116 -0.985499 0
M  V30 1003 H 93.0101 4.59782 -1.86855 0
M  V30 1004 H 88.2661 5.25965 -3.11722 0
M  V30 1005 H 92.4401 5.7 -4.00092 0
M  V30 1006 H 90.0671 6.0287 -4.63089 0
M  V30 1007 N 91.6422 0.330177 1.54103 0
M  V30 1008 C 92.9192 -0.325007 1.92881 0
M  V30 1009 C 93.2992 -1.6934 1.26045 0
M  V30 1010 O 92.6472 -2.24855 0.406526 0
M  V30 1011 C 92.8572 -0.410634 3.46576 0
M  V30 1012 C 94.2052 -0.667801 4.19316 0
M  V30 1013 O 95.2292 -0.49329 3.52768 0
M  V30 1014 O 94.0882 -1.00491 5.37181 0
M  V30 1015 H 91.1822 -0.186873 0.80561 0
M  V30 1016 H 93.7282 0.380376 1.65382 0
M  V30 1017 H 92.5002 0.550164 3.87413 0
M  V30 1018 H 92.1232 -1.16333 3.802 0
M  V30 1019 N 93.1203 -1.57491 0.0584922 0
M  V30 1020 C 94.3483 -1.97296 -0.623037 0
M  V30 1021 C 94.7633 -0.936338 -1.63946 0
M  V30 1022 O 94.1203 0.0785981 -1.82331 0
M  V30 1023 C 94.1713 -3.37183 -1.30345 0
M  V30 1024 O 93.8923 -4.36872 -0.32773 0
M  V30 1025 C 95.3933 -3.91788 -2.07406 0
M  V30 1026 H 92.6133 -0.649153 -0.169826 0
M  V30 1027 H 95.1573 -2.04106 0.12696 0
M  V30 1028 H 93.3123 -3.31502 -2.00463 0
M  V30 1029 H 93.7263 -5.18141 -0.814269 0
M  V30 1030 H 95.2003 -4.91926 -2.50425 0
M  V30 1031 H 95.6773 -3.27609 -2.92521 0
M  V30 1032 H 96.2833 -4.00829 -1.42184 0
M  V30 1033 N 94.5984 0.214957 -1.56127 0
M  V30 1034 C 95.8754 0.963093 -1.70247 0
M  V30 1035 C 96.2554 2.02166 -0.60764 0
M  V30 1036 O 95.6034 2.25244 0.384385 0
M  V30 1037 C 95.8134 1.56756 -3.11815 0
M  V30 1038 C 97.1614 2.0573 -3.7143 0
M  V30 1039 O 98.1854 1.66637 -3.14818 0
M  V30 1040 O 97.0444 2.77603 -4.70743 0
M  V30 1041 H 94.1384 0.450321 -0.693643 0
M  V30 1042 H 96.6844 0.206219 -1.68442 0
M  V30 1043 H 95.4564 0.803533 -3.82961 0
M  V30 1044 H 95.0794 2.3898 -3.17765 0
M  V30 1045 N 96.0765 1.50051 0.48192 0
M  V30 1046 C 97.3245 1.60181 1.23234 0
M  V30 1047 C 97.6455 0.299176 1.92691 0
M  V30 1048 O 96.9155 -0.682708 1.83619 0
M  V30 1049 H 95.4955 0.590232 0.457859 0
M  V30 1050 H 98.1575 1.86775 0.556881 0
M  V30 1051 H 97.2535 2.40753 1.98607 0
M  V30 1052 N 97.5546 -0.734337 1.39446 0
M  V30 1053 C 98.8316 -1.48579 1.27215 0
M  V30 1054 C 99.2116 -2.1077 -0.117968 0
M  V30 1055 O 98.5596 -1.98646 -1.12924 0
M  V30 1056 C 98.7696 -2.53667 2.39696 0
M  V30 1057 C 100.118 -3.20031 2.79044 0
M  V30 1058 O 101.142 -2.6398 2.39151 0
M  V30 1059 O 100.001 -4.21455 3.47905 0
M  V30 1060 H 97.0946 -0.659816 0.49857 0
M  V30 1061 H 99.6406 -0.768106 1.51322 0
M  V30 1062 H 98.4126 -2.06096 3.32626 0
M  V30 1063 H 98.0356 -3.32994 2.17258 0
M  V30 1064 N 99.0327 -1.24633 -0.964593 0
M  V30 1065 C 100.281 -1.08573 -1.70459 0
M  V30 1066 C 100.602 0.375655 -1.91347 0
M  V30 1067 O 99.8717 1.26779 -1.49345 0
M  V30 1068 H 98.4517 -0.398784 -0.631649 0
M  V30 1069 H 101.114 -1.56601 -1.16026 0
M  V30 1070 H 100.21 -1.58623 -2.68785 0
M  V30 1071 N 100.511 1.16574 -1.06058 0
M  V30 1072 C 101.421 2.2452 -0.680282 0
M  V30 1073 C 102.437 1.71348 0.302604 0
M  V30 1074 O 103.613 2.00822 0.152513 0
M  V30 1075 C 100.678 3.46629 -0.0700315 0
M  V30 1076 C 99.7388 4.14849 -1.10448 0
M  V30 1077 C 98.9718 5.31129 -0.523256 0
M  V30 1078 O 99.1948 5.66514 0.664709 0
M  V30 1079 O 98.1288 5.88526 -1.26179 0
M  V30 1080 H 101.955 2.59355 -1.58015 0
M  V30 1081 H 99.5398 1.24043 -0.832694 0
M  V30 1082 H 101.422 4.20543 0.268667 0
M  V30 1083 H 100.097 3.13573 0.803353 0
M  V30 1084 H 99.0038 3.42916 -1.49532 0
M  V30 1085 H 100.337 4.51954 -1.94931 0
M  V30 1086 N 101.989 0.842826 1.3317 0
M  V30 1087 C 103.235 0.441099 1.97945 0
M  V30 1088 C 103.568 -0.998024 1.66593 0
M  V30 1089 O 102.843 -1.69839 0.947898 0
M  V30 1090 C 103.126 0.666841 3.53872 0
M  V30 1091 C 102.979 2.15352 3.94897 0
M  V30 1092 C 104.298 0.115544 4.39948 0
M  V30 1093 H 101.417 0.161739 0.719034 0
M  V30 1094 H 104.059 1.05907 1.57746 0
M  V30 1095 H 102.209 0.140828 3.88245 0
M  V30 1096 H 103.881 2.7447 3.70761 0
M  V30 1097 H 102.124 2.63653 3.44484 0
M  V30 1098 H 102.795 2.26221 5.03516 0
M  V30 1099 H 105.271 0.565213 4.12243 0
M  V30 1100 H 104.147 0.303152 5.48062 0
M  V30 1101 H 104.408 -0.980935 4.3108 0
M  V30 1102 N 103.467 -1.45747 0.599634 0
M  V30 1103 C 104.744 -1.95585 0.0240846 0
M  V30 1104 C 105.124 -1.54217 -1.44154 0
M  V30 1105 O 104.472 -0.800903 -2.14004 0
M  V30 1106 C 104.682 -3.48344 0.21385 0
M  V30 1107 C 106.03 -4.24504 0.0904902 0
M  V30 1108 O 107.054 -3.55911 0.143558 0
M  V30 1109 O 105.913 -5.46491 -0.0310766 0
M  V30 1110 H 103.007 -0.82602 -0.0402478 0
M  V30 1111 H 105.553 -1.55951 0.669139 0
M  V30 1112 H 104.325 -3.71397 1.23206 0
M  V30 1113 H 103.948 -3.9485 -0.466842 0
M  V30 1114 N 104.945 -0.338344 -1.53925 0
M  V30 1115 C 106.192 0.259758 -2.00827 0
M  V30 1116 C 106.52 1.50973 -1.22628 0
M  V30 1117 O 105.775 1.93379 -0.300509 0
M  V30 1118 C 106.074 0.62448 -3.51902 0
M  V30 1119 C 105.74 -0.528006 -4.47798 0
M  V30 1120 C 104.402 -0.844298 -4.73735 0
M  V30 1121 C 106.754 -1.30143 -5.0469 0
M  V30 1122 C 104.082 -1.93648 -5.53821 0
M  V30 1123 C 106.434 -2.38382 -5.85967 0
M  V30 1124 C 105.098 -2.70576 -6.10201 0
M  V30 1125 H 104.368 0.0950523 -0.734878 0
M  V30 1126 H 107.015 -0.465182 -1.85764 0
M  V30 1127 H 105.32 1.43006 -3.64769 0
M  V30 1128 H 107.017 1.09905 -3.85645 0
M  V30 1129 H 103.607 -0.271421 -4.2774 0
M  V30 1130 H 107.791 -1.07033 -4.84621 0
M  V30 1131 H 103.047 -2.19021 -5.70824 0
M  V30 1132 H 107.221 -2.98746 -6.29066 0
M  V30 1133 H 104.848 -3.55333 -6.72044 0
M  V30 1134 N 106.423 1.57458 -0.0668435 0
M  V30 1135 C 107.37 2.12439 0.902122 0
M  V30 1136 C 108.34 1.03565 1.2986 0
M  V30 1137 O 109.525 1.312 1.38532 0
M  V30 1138 C 106.665 2.6865 2.16614 0
M  V30 1139 C 105.778 3.91663 1.82274 0
M  V30 1140 C 104.913 4.36134 3.0325 0
M  V30 1141 C 103.952 5.51808 2.64904 0
M  V30 1142 N 103.089 5.9126 3.78624 0
M  V30 1143 H 107.929 2.94934 0.426382 0
M  V30 1144 H 105.466 1.4575 0.198819 0
M  V30 1145 H 107.424 2.99346 2.90599 0
M  V30 1146 H 106.054 1.88928 2.61737 0
M  V30 1147 H 105.106 3.6746 0.983719 0
M  V30 1148 H 106.418 4.75693 1.50059 0
M  V30 1149 H 105.572 4.68465 3.85519 0
M  V30 1150 H 104.311 3.50948 3.38655 0
M  V30 1151 H 103.316 5.19133 1.81055 0
M  V30 1152 H 104.541 6.38722 2.30675 0
M  V30 1153 H 102.487 5.09024 4.138 0
M  V30 1154 H 102.404 6.70018 3.5016 0
M  V30 1155 H 103.672 6.28212 4.61486 0
M  V30 1156 N 107.901 -0.206675 1.56239 0
M  V30 1157 C 108.811 -1.27686 1.96808 0
M  V30 1158 C 109.827 -1.50455 0.874035 0
M  V30 1159 O 111.003 -1.63295 1.17884 0
M  V30 1160 C 108.068 -2.60358 2.28942 0
M  V30 1161 C 107.129 -2.45762 3.51994 0
M  V30 1162 C 106.362 -3.72108 3.82585 0
M  V30 1163 O 106.585 -4.75776 3.14631 0
M  V30 1164 O 105.519 -3.6833 4.76043 0
M  V30 1165 H 109.345 -0.962593 2.88041 0
M  V30 1166 H 106.93 -0.410746 1.43643 0
M  V30 1167 H 108.812 -3.38687 2.50737 0
M  V30 1168 H 107.487 -2.91435 1.4088 0
M  V30 1169 H 106.394 -1.65584 3.35459 0
M  V30 1170 H 107.727 -2.19621 4.40486 0
M  V30 1171 N 109.379 -1.50304 -0.473955 0
M  V30 1172 C 110.626 -1.6115 -1.22625 0
M  V30 1173 C 110.954 -0.310517 -1.92005 0
M  V30 1174 O 110.209 0.703419 -1.82621 0
M  V30 1175 C 110.508 -2.73938 -2.29549 0
M  V30 1176 C 110.174 -4.14519 -1.7744 0
M  V30 1177 C 108.836 -4.5277 -1.62949 0
M  V30 1178 C 111.188 -5.02392 -1.3875 0
M  V30 1179 C 108.516 -5.76639 -1.08187 0
M  V30 1180 C 110.868 -6.26805 -0.854309 0
M  V30 1181 C 109.532 -6.63861 -0.696011 0
M  V30 1182 H 108.802 -0.589691 -0.448715 0
M  V30 1183 H 111.449 -1.84228 -0.522705 0
M  V30 1184 H 109.754 -2.44937 -3.05799 0
M  V30 1185 H 111.451 -2.79534 -2.87509 0
M  V30 1186 H 108.041 -3.8434 -1.89685 0
M  V30 1187 H 112.225 -4.73474 -1.4878 0
M  V30 1188 H 107.481 -6.04027 -0.946666 0
M  V30 1189 H 111.655 -6.94258 -0.545843 0
M  V30 1190 H 109.282 -7.59722 -0.26952 0
M  V30 1191 N 110.857 0.726932 -1.39834 0
M  V30 1192 C 112.106 1.48214 -1.36805 0
M  V30 1193 C 112.419 1.95576 0.0305291 0
M  V30 1194 O 113.625 2.7088 0.183417 0
M  V30 1195 C 112.081 2.67854 -2.40379 0
M  V30 1196 C 111.689 2.27408 -3.85992 0
M  V30 1197 C 113.433 3.45641 -2.46439 0
M  V30 1198 C 111.34 3.43819 -4.81189 0
M  V30 1199 H 110.27 0.556606 -0.508631 0
M  V30 1200 H 112.921 0.792216 -1.65518 0
M  V30 1201 H 111.303 3.3896 -2.04749 0
M  V30 1202 H 112.477 1.63795 -4.30706 0
M  V30 1203 H 110.792 1.62692 -3.83302 0
M  V30 1204 H 113.389 4.32244 -3.14753 0
M  V30 1205 H 113.732 3.88669 -1.49139 0
M  V30 1206 H 114.265 2.8157 -2.81004 0
M  V30 1207 H 111.004 3.05834 -5.79781 0
M  V30 1208 H 110.524 4.06385 -4.41148 0
M  V30 1209 H 112.203 4.10043 -5.00474 0
M  V30 1210 N 112.336 1.25143 0.95797 0
M  V30 1211 C 113.266 1.07711 2.07173 0
M  V30 1212 C 114.247 -0.0128462 1.70095 0
M  V30 1213 O 115.432 0.156061 1.93572 0
M  V30 1214 C 112.562 0.691503 3.40346 0
M  V30 1215 C 111.516 1.73132 3.9142 0
M  V30 1216 C 110.842 1.20049 5.21049 0
M  V30 1217 C 112.142 3.1294 4.1817 0
M  V30 1218 H 113.836 2.00873 2.22014 0
M  V30 1219 H 111.382 0.967191 1.06684 0
M  V30 1220 H 113.335 0.556505 4.17709 0
M  V30 1221 H 112.059 -0.275819 3.25433 0
M  V30 1222 H 110.718 1.8547 3.16222 0
M  V30 1223 H 110.366 0.223499 5.02503 0
M  V30 1224 H 110.066 1.89545 5.56189 0
M  V30 1225 H 111.59 1.07782 6.01012 0
M  V30 1226 H 113.004 3.03775 4.86203 0
M  V30 1227 H 111.401 3.79875 4.64559 0
M  V30 1228 H 112.471 3.6025 3.24573 0
M  V30 1229 N 113.814 -1.1601 1.06675 0
M  V30 1230 C 115.062 -1.86264 0.784229 0
M  V30 1231 C 115.383 -1.82328 -0.691488 0
M  V30 1232 O 114.653 -1.25947 -1.50047 0
M  V30 1233 H 113.233 -0.689621 0.28711 0
M  V30 1234 H 115.895 -1.40664 1.34906 0
M  V30 1235 H 114.991 -2.91595 1.11259 0
M  V30 1236 N 115.292 -0.849877 -1.32721 0
M  V30 1237 C 116.52 -0.464754 -2.01613 0
M  V30 1238 C 116.935 0.937191 -1.63897 0
M  V30 1239 O 116.292 1.61081 -0.857856 0
M  V30 1240 C 116.343 -0.588638 -3.56675 0
M  V30 1241 O 116.064 -1.93535 -3.93034 0
M  V30 1242 C 117.565 -0.2019 -4.4284 0
M  V30 1243 H 114.785 -0.183215 -0.645502 0
M  V30 1244 H 117.329 -1.1455 -1.69407 0
M  V30 1245 H 115.484 0.0443159 -3.87375 0
M  V30 1246 H 115.898 -1.92871 -4.87751 0
M  V30 1247 H 117.372 -0.339599 -5.50954 0
M  V30 1248 H 117.849 0.857224 -4.30753 0
M  V30 1249 H 118.455 -0.809733 -4.17521 0
M  V30 1250 N 116.77 1.45427 -0.607355 0
M  V30 1251 C 117.995 2.07124 -0.107006 0
M  V30 1252 C 118.42 1.44906 1.19933 0
M  V30 1253 O 117.778 0.541687 1.73019 0
M  V30 1254 C 117.826 3.60595 0.0194119 0
M  V30 1255 O 116.93 3.98285 1.0697 0
M  V30 1256 H 116.271 0.659868 -0.0739597 0
M  V30 1257 H 118.801 1.86683 -0.837297 0
M  V30 1258 H 118.811 4.07419 0.2177 0
M  V30 1259 H 117.486 4.05266 -0.934453 0
M  V30 1260 H 116.063 3.63133 0.847889 0
M  V30 1261 N 118.248 0.346503 1.53744 0
M  V30 1262 C 119.18 -0.543316 2.22667 0
M  V30 1263 C 120.193 -1.06159 1.23427 0
M  V30 1264 O 121.382 -0.971235 1.49764 0
M  V30 1265 C 118.482 -1.76076 2.89569 0
M  V30 1266 C 117.655 -1.37727 4.15151 0
M  V30 1267 C 116.714 -2.45471 4.65436 0
M  V30 1268 O 115.74 -2.08655 5.29577 0
M  V30 1269 N 116.942 -3.7677 4.41616 0
M  V30 1270 H 119.707 0.0469703 2.99663 0
M  V30 1271 H 117.268 0.170766 1.60997 0
M  V30 1272 H 119.26 -2.47593 3.20125 0
M  V30 1273 H 117.83 -2.25835 2.16142 0
M  V30 1274 H 117.05 -0.492746 3.91108 0
M  V30 1275 H 118.338 -1.09708 4.96832 0
M  V30 1276 H 117.736 -4.09467 3.90325 0
M  V30 1277 H 116.293 -4.44448 4.7677 0
M  V30 1278 N 119.726 -1.57421 0.075193 0
M  V30 1279 C 120.973 -1.93618 -0.593146 0
M  V30 1280 C 121.301 -0.955484 -1.69413 0
M  V30 1281 O 120.556 0.0283251 -1.9568 0
M  V30 1282 C 120.855 -3.36428 -1.20626 0
M  V30 1283 C 120.521 -4.50307 -0.231078 0
M  V30 1284 C 119.183 -4.81186 0.0371936 0
M  V30 1285 C 121.535 -5.19374 0.435888 0
M  V30 1286 C 118.863 -5.78466 0.979461 0
M  V30 1287 C 121.215 -6.17665 1.3665 0
M  V30 1288 C 119.879 -6.46958 1.6432 0
M  V30 1289 H 119.149 -0.708499 -0.217047 0
M  V30 1290 H 121.796 -1.90937 0.146793 0
M  V30 1291 H 120.101 -3.35592 -2.02201 0
M  V30 1292 H 121.798 -3.61727 -1.73073 0
M  V30 1293 H 118.388 -4.26227 -0.450357 0
M  V30 1294 H 122.572 -4.95711 0.241748 0
M  V30 1295 H 117.828 -5.99487 1.20106 0
M  V30 1296 H 122.002 -6.70284 1.88924 0
M  V30 1297 H 119.629 -7.2215 2.37494 0
M  V30 1298 N 121.204 0.198386 -1.56346 0
M  V30 1299 C 122.429 0.939682 -1.84891 0
M  V30 1300 C 122.854 1.76202 -0.658369 0
M  V30 1301 O 122.212 1.76993 0.392851 0
M  V30 1302 C 122.26 1.81428 -3.11635 0
M  V30 1303 O 121.364 2.91265 -2.91956 0
M  V30 1304 H 120.705 0.264807 -0.608912 0
M  V30 1305 H 123.235 0.204695 -2.03573 0
M  V30 1306 H 123.245 2.21958 -3.42343 0
M  V30 1307 H 121.92 1.21004 -3.97908 0
M  V30 1308 H 120.497 2.54514 -2.72538 0
M  V30 1309 N 122.682 1.50554 0.465978 0
M  V30 1310 C 123.928 1.62038 1.21949 0
M  V30 1311 C 124.261 0.322116 1.9151 0
M  V30 1312 O 123.536 -0.676723 1.82348 0
M  V30 1313 C 123.819 2.80421 2.25912 0
M  V30 1314 C 123.672 4.20144 1.60622 0
M  V30 1315 C 124.991 2.94354 3.27176 0
M  V30 1316 H 122.11 0.589752 0.441998 0
M  V30 1317 H 124.752 1.82956 0.51257 0
M  V30 1318 H 122.902 2.62717 2.86203 0
M  V30 1319 H 124.574 4.49449 1.03889 0
M  V30 1320 H 122.817 4.24165 0.909211 0
M  V30 1321 H 123.488 4.98914 2.36196 0
M  V30 1322 H 125.964 3.10578 2.76913 0
M  V30 1323 H 124.84 3.788 3.97242 0
M  V30 1324 H 125.101 2.05186 3.916 0
M  V30 1325 N 124.16 -0.719506 1.40217 0
M  V30 1326 C 125.107 -1.83359 1.40172 0
M  V30 1327 C 126.077 -1.64065 0.259206 0
M  V30 1328 O 127.262 -1.85254 0.456677 0
M  V30 1329 C 124.402 -3.2103 1.26624 0
M  V30 1330 C 123.515 -3.51923 2.50548 0
M  V30 1331 C 122.65 -4.79079 2.29471 0
M  V30 1332 C 121.689 -5.02863 3.48992 0
M  V30 1333 N 120.826 -6.2123 3.27135 0
M  V30 1334 H 125.666 -1.82733 2.35399 0
M  V30 1335 H 123.203 -0.892688 1.16917 0
M  V30 1336 H 125.161 -4.00524 1.16776 0
M  V30 1337 H 123.791 -3.20895 0.350176 0
M  V30 1338 H 122.843 -2.67014 2.70939 0
M  V30 1339 H 124.155 -3.6541 3.39525 0
M  V30 1340 H 123.309 -5.66582 2.16955 0
M  V30 1341 H 122.048 -4.67794 1.37913 0
M  V30 1342 H 121.053 -4.13816 3.6199 0
M  V30 1343 H 122.278 -5.16023 4.41472 0
M  V30 1344 H 120.224 -6.11204 2.38256 0
M  V30 1345 H 120.141 -6.35375 4.09675 0
M  V30 1346 H 121.409 -7.11532 3.18344 0
M  V30 1347 N 125.638 -1.25649 -0.95132 0
M  V30 1348 C 126.886 -1.10375 -1.69298 0
M  V30 1349 C 127.207 0.355339 -1.91735 0
M  V30 1350 O 126.477 1.25188 -1.50681 0
M  V30 1351 H 125.057 -0.405461 -0.627384 0
M  V30 1352 H 127.719 -1.57823 -1.14358 0
M  V30 1353 H 126.815 -1.61465 -2.67087 0
M  V30 1354 N 127.117 1.15442 -1.07289 0
M  V30 1355 C 128.394 1.82306 -0.708792 0
M  V30 1356 C 128.774 1.94991 0.808807 0
M  V30 1357 O 128.122 1.50085 1.72298 0
M  V30 1358 C 128.332 3.18695 -1.42247 0
M  V30 1359 C 129.68 3.94341 -1.57417 0
M  V30 1360 O 130.704 3.28247 -1.38319 0
M  V30 1361 O 129.563 5.12839 -1.88834 0
M  V30 1362 H 126.657 0.787628 -0.252132 0
M  V30 1363 H 129.203 1.22559 -1.17377 0
M  V30 1364 H 127.975 3.04557 -2.45684 0
M  V30 1365 H 127.598 3.86128 -0.948223 0
M  V30 1366 N 128.595 0.856903 1.32268 0
M  V30 1367 C 129.505 0.306131 2.32594 0
M  V30 1368 C 130.521 -0.577209 1.64147 0
M  V30 1369 O 131.697 -0.477043 1.95669 0
M  V30 1370 C 128.762 -0.494561 3.43154 0
M  V30 1371 C 127.823 0.415186 4.27288 0
M  V30 1372 C 127.056 -0.347387 5.32568 0
M  V30 1373 O 127.279 -1.57708 5.48165 0
M  V30 1374 O 126.213 0.287982 6.01211 0
M  V30 1375 H 130.039 1.13737 2.81598 0
M  V30 1376 H 127.624 0.619902 1.35932 0
M  V30 1377 H 129.506 -0.948944 4.10576 0
M  V30 1378 H 128.181 -1.30257 2.96336 0
M  V30 1379 H 127.088 0.917793 3.62667 0
M  V30 1380 H 128.421 1.18844 4.77637 0
M  V30 1381 N 130.073 -1.45103 0.615059 0
M  V30 1382 C 130.983 -2.34382 -0.101034 0
M  V30 1383 C 131.999 -1.51681 -0.852585 0
M  V30 1384 O 133.175 -1.8446 -0.808484 0
M  V30 1385 C 130.24 -3.29417 -1.08099 0
M  V30 1386 C 129.301 -4.28025 -0.330577 0
M  V30 1387 C 128.534 -5.1852 -1.26385 0
M  V30 1388 O 128.757 -5.12598 -2.50198 0
M  V30 1389 O 127.691 -5.97122 -0.756866 0
M  V30 1390 H 131.517 -2.97033 0.632855 0
M  V30 1391 H 129.102 -1.4461 0.375293 0
M  V30 1392 H 130.984 -3.87958 -1.6452 0
M  V30 1393 H 129.659 -2.69321 -1.79577 0
M  V30 1394 H 128.566 -3.73078 0.276283 0
M  V30 1395 H 129.899 -4.90997 0.343866 0
M  V30 1396 N 131.551 -0.354651 -1.53558 0
M  V30 1397 C 132.483 0.5315 -2.22952 0
M  V30 1398 C 133.496 1.05503 -1.23988 0
M  V30 1399 O 134.685 0.963279 -1.50277 0
M  V30 1400 C 131.785 1.74538 -2.90499 0
M  V30 1401 C 130.958 1.35524 -4.15875 0
M  V30 1402 C 130.017 2.42999 -4.66731 0
M  V30 1403 O 129.043 2.05844 -5.30676 0
M  V30 1404 N 130.245 3.74423 -4.43608 0
M  V30 1405 H 133.01 -0.0628615 -2.99634 0
M  V30 1406 H 130.571 -0.179302 -1.60904 0
M  V30 1407 H 132.563 2.45892 -3.21433 0
M  V30 1408 H 131.133 2.24686 -2.17336 0
M  V30 1409 H 130.353 0.471998 -3.91364 0
M  V30 1410 H 131.641 1.07071 -4.97406 0
M  V30 1411 H 131.039 4.07391 -3.92491 0
M  V30 1412 H 129.596 4.41913 -4.7912 0
M  V30 1413 N 133.029 1.57378 -0.0835403 0
M  V30 1414 C 133.976 2.13384 0.879539 0
M  V30 1415 C 134.946 1.04936 1.28754 0
M  V30 1416 O 136.131 1.32662 1.37133 0
M  V30 1417 C 133.271 2.70932 2.13752 0
M  V30 1418 C 132.384 3.93575 1.7811 0
M  V30 1419 C 131.519 4.39326 2.98607 0
M  V30 1420 C 130.558 5.54587 2.59037 0
M  V30 1421 N 129.695 5.95243 3.72331 0
M  V30 1422 H 134.535 2.9537 0.395076 0
M  V30 1423 H 132.072 1.45953 0.183349 0
M  V30 1424 H 134.03 3.02411 2.87408 0
M  V30 1425 H 132.66 1.91693 2.59718 0
M  V30 1426 H 131.712 3.68483 0.94469 0
M  V30 1427 H 133.024 4.77258 1.45005 0
M  V30 1428 H 132.178 4.72528 3.80529 0
M  V30 1429 H 130.917 3.5452 3.34913 0
M  V30 1430 H 129.922 5.21024 1.75539 0
M  V30 1431 H 131.147 6.41133 2.23887 0
M  V30 1432 H 129.093 5.13385 4.08378 0
M  V30 1433 H 129.01 6.73694 3.43034 0
M  V30 1434 H 130.278 6.33072 4.54797 0
M  V30 1435 N 134.507 -0.190092 1.56449 0
M  V30 1436 C 135.437 -1.23816 1.97969 0
M  V30 1437 C 136.418 -1.47201 0.852395 0
M  V30 1438 O 137.603 -1.58854 1.1171 0
M  V30 1439 C 134.733 -2.5813 2.3235 0
M  V30 1440 C 133.687 -2.49348 3.47864 0
M  V30 1441 C 133.013 -3.8798 3.67934 0
M  V30 1442 C 134.313 -2.01424 4.81898 0
M  V30 1443 H 136.007 -0.89311 2.85769 0
M  V30 1444 H 133.553 -0.428177 1.37487 0
M  V30 1445 H 135.506 -3.31637 2.59991 0
M  V30 1446 H 134.23 -2.94386 1.41438 0
M  V30 1447 H 132.889 -1.78297 3.20321 0
M  V30 1448 H 132.537 -4.21597 2.74344 0
M  V30 1449 H 132.237 -3.82978 4.45648 0
M  V30 1450 H 133.761 -4.63101 3.97957 0
M  V30 1451 H 135.175 -2.64693 5.08538 0
M  V30 1452 H 133.572 -2.07413 5.63116 0
M  V30 1453 H 134.642 -0.967677 4.75146 0
M  V30 1454 N 135.985 -1.50799 -0.457987 0
M  V30 1455 C 137.401 -1.38515 -0.792819 0
M  V30 1456 C 137.601 -0.451409 -1.96379 0
M  V30 1457 O 136.657 0.10112 -2.52297 0
M  V30 1458 C 137.97 -2.80149 -1.09258 0
M  V30 1459 C 139.518 -2.89156 -1.19825 0
M  V30 1460 C 139.993 -4.31651 -1.53106 0
M  V30 1461 N 141.484 -4.34662 -1.60072 0
M  V30 1462 C 142.219 -5.41928 -1.87354 0
M  V30 1463 N 141.715 -6.59384 -2.12568 0
M  V30 1464 N 143.508 -5.29385 -1.88965 0
M  V30 1465 H 135.659 -2.10073 0.313511 0
M  V30 1466 H 137.922 -0.944803 0.0777862 0
M  V30 1467 H 137.628 -3.50374 -0.305084 0
M  V30 1468 H 137.502 -3.18204 -2.02549 0
M  V30 1469 H 139.889 -2.19141 -1.97639 0
M  V30 1470 H 139.97 -2.54626 -0.244821 0
M  V30 1471 H 139.614 -5.02208 -0.758266 0
M  V30 1472 H 139.544 -4.63678 -2.49621 0
M  V30 1473 H 142.035 -3.49973 -1.42573 0
M  V30 1474 H 142.348 -7.36934 -2.32696 0
M  V30 1475 H 140.693 -6.62535 -2.09933 0
M  V30 1476 H 143.884 -4.36616 -1.68772 0
M  V30 1477 H 144.057 -6.13066 -2.09891 0
M  V30 1478 N 137.463 0.71206 -1.40597 0
M  V30 1479 C 138.71 1.47197 -1.39065 0
M  V30 1480 C 139.038 1.94499 0.00583891 0
M  V30 1481 O 138.293 1.68752 0.99102 0
M  V30 1482 C 138.592 2.71039 -2.32965 0
M  V30 1483 C 138.258 2.42484 -3.80148 0
M  V30 1484 C 136.92 2.34406 -4.20247 0
M  V30 1485 C 139.272 2.18598 -4.73143 0
M  V30 1486 C 136.6 2.00516 -5.51371 0
M  V30 1487 C 138.952 1.8622 -6.0457 0
M  V30 1488 C 137.616 1.76626 -6.43708 0
M  V30 1489 H 136.886 0.538634 -0.508876 0
M  V30 1490 H 139.533 0.815325 -1.73276 0
M  V30 1491 H 137.838 3.41558 -1.91951 0
M  V30 1492 H 139.535 3.29138 -2.29061 0
M  V30 1493 H 136.125 2.49659 -3.4838 0
M  V30 1494 H 140.309 2.23793 -4.42979 0
M  V30 1495 H 135.565 1.91628 -5.80593 0
M  V30 1496 H 139.739 1.66752 -6.76141 0
M  V30 1497 H 137.366 1.50133 -7.45228 0
M  V30 1498 N 138.941 1.26152 0.944643 0
M  V30 1499 C 139.904 1.07474 2.0244 0
M  V30 1500 C 140.904 0.0242064 1.60782 0
M  V30 1501 O 142.094 0.267302 1.72137 0
M  V30 1502 C 139.226 0.633956 3.34953 0
M  V30 1503 H 140.419 2.03336 2.20442 0
M  V30 1504 H 137.972 1.087 1.12312 0
M  V30 1505 H 138.707 -0.326811 3.22649 0
M  V30 1506 H 138.492 1.39247 3.66542 0
M  V30 1507 H 139.982 0.52501 4.14287 0
M  V30 1508 N 140.419 -1.14872 1.07899 0
M  V30 1509 C 141.666 -1.85789 0.805532 0
M  V30 1510 C 141.994 -1.82649 -0.668561 0
M  V30 1511 O 141.249 -1.24858 -1.50695 0
M  V30 1512 C 141.548 -3.34223 1.26609 0
M  V30 1513 C 141.214 -3.57555 2.74709 0
M  V30 1514 C 139.876 -3.63631 3.1516 0
M  V30 1515 C 142.228 -3.66803 3.70277 0
M  V30 1516 C 139.556 -3.76473 4.49983 0
M  V30 1517 C 141.908 -3.8117 5.04869 0
M  V30 1518 C 140.572 -3.85494 5.44932 0
M  V30 1519 H 139.842 -0.679849 0.294765 0
M  V30 1520 H 142.489 -1.3572 1.35101 0
M  V30 1521 H 140.794 -3.86536 0.640103 0
M  V30 1522 H 142.491 -3.87511 1.03132 0
M  V30 1523 H 139.081 -3.5347 2.42398 0
M  V30 1524 H 143.265 -3.61404 3.40149 0
M  V30 1525 H 138.521 -3.7808 4.80484 0
M  V30 1526 H 142.695 -3.87268 5.78789 0
M  V30 1527 H 140.322 -3.95197 6.49403 0
M  V30 1528 N 141.898 -0.863906 -1.31812 0
M  V30 1529 C 143.123 -0.48527 -2.01643 0
M  V30 1530 C 143.548 0.913058 -1.64453 0
M  V30 1531 O 142.906 1.6014 -0.849985 0
M  V30 1532 C 142.954 -0.642625 -3.54828 0
M  V30 1533 O 142.058 0.320659 -4.11151 0
M  V30 1534 H 141.399 -0.193793 -0.635091 0
M  V30 1535 H 143.929 -1.16565 -1.68148 0
M  V30 1536 H 143.939 -0.533628 -4.04495 0
M  V30 1537 H 142.614 -1.66227 -3.81237 0
M  V30 1538 H 141.191 0.167126 -3.72525 0
M  V30 1539 N 143.376 1.44774 -0.622745 0
M  V30 1540 C 144.625 2.01334 -0.121397 0
M  V30 1541 C 144.938 1.49505 1.26125 0
M  V30 1542 O 146.144 1.98139 1.85616 0
M  V30 1543 C 144.6 3.59516 -0.166298 0
M  V30 1544 C 144.208 4.20342 -1.54974 0
M  V30 1545 C 145.952 4.23582 0.279021 0
M  V30 1546 C 143.859 5.70721 -1.55021 0
M  V30 1547 H 142.789 0.752851 -0.0416172 0
M  V30 1548 H 145.44 1.66083 -0.780309 0
M  V30 1549 H 143.822 3.92027 0.559557 0
M  V30 1550 H 144.996 3.99381 -2.29851 0
M  V30 1551 H 143.311 3.68529 -1.93843 0
M  V30 1552 H 145.908 5.33868 0.298083 0
M  V30 1553 H 146.251 3.95327 1.30471 0
M  V30 1554 H 146.784 3.95843 -0.394063 0
M  V30 1555 H 143.523 6.03698 -2.55399 0
M  V30 1556 H 143.043 5.93829 -0.844245 0
M  V30 1557 H 144.722 6.34203 -1.28047 0
M  V30 1558 N 144.854 0.36279 1.53368 0
M  V30 1559 C 146.084 -0.228281 2.05335 0
M  V30 1560 C 146.492 -1.43226 1.23625 0
M  V30 1561 O 145.835 -1.81717 0.269206 0
M  V30 1562 C 145.897 -0.688549 3.52845 0
M  V30 1563 C 145.561 0.398362 4.5526 0
M  V30 1564 C 146.558 1.24732 5.04716 0
M  V30 1565 C 144.243 0.557805 4.99193 0
M  V30 1566 C 146.237 2.2411 5.96702 0
M  V30 1567 C 143.924 1.55495 5.90986 0
M  V30 1568 C 144.922 2.39503 6.39631 0
M  V30 1569 O 144.61 3.37517 7.29615 0
M  V30 1570 H 144.342 -0.044395 0.674541 0
M  V30 1571 H 146.896 0.518668 1.98744 0
M  V30 1572 H 145.126 -1.48706 3.56964 0
M  V30 1573 H 146.815 -1.20231 3.87685 0
M  V30 1574 H 147.581 1.13532 4.71525 0
M  V30 1575 H 143.46 -0.0862959 4.60919 0
M  V30 1576 H 147.004 2.89718 6.34594 0
M  V30 1577 H 142.901 1.66744 6.23592 0
M  V30 1578 H 143.669 3.33213 7.47604 0
M  V30 1579 N 146.332 -1.57332 0.0918853 0
M  V30 1580 C 147.609 -1.85691 -0.614668 0
M  V30 1581 C 147.989 -0.988146 -1.86545 0
M  V30 1582 O 147.337 -0.0597055 -2.28422 0
M  V30 1583 C 147.547 -3.36294 -0.933126 0
M  V30 1584 C 148.895 -4.04275 -1.29796 0
M  V30 1585 O 149.919 -3.41157 -1.02424 0
M  V30 1586 O 148.778 -5.1564 -1.81047 0
M  V30 1587 H 145.872 -0.767802 -0.307261 0
M  V30 1588 H 148.418 -1.69244 0.12434 0
M  V30 1589 H 147.19 -3.91273 -0.0456404 0
M  V30 1590 H 146.813 -3.58076 -1.72822 0
M  V30 1591 N 147.81 0.181792 -1.56548 0
M  V30 1592 C 148.743 1.25366 -1.90679 0
M  V30 1593 C 149.721 1.43299 -0.768376 0
M  V30 1594 O 150.905 1.58475 -1.02068 0
M  V30 1595 C 148.032 2.61826 -2.1486 0
M  V30 1596 C 147.078 2.60688 -3.37556 0
M  V30 1597 S 147.911 2.10804 -4.92262 0
M  V30 1598 C 149.067 3.49062 -5.19525 0
M  V30 1599 H 149.3 0.962277 -2.81296 0
M  V30 1600 H 146.833 0.385892 -1.495 0
M  V30 1601 H 148.791 3.40371 -2.29473 0
M  V30 1602 H 147.452 2.88169 -1.24969 0
M  V30 1603 H 146.645 3.61058 -3.51643 0
M  V30 1604 H 146.247 1.90232 -3.22006 0
M  V30 1605 H 148.539 4.45003 -5.10861 0
M  V30 1606 H 149.482 3.39859 -6.2121 0
M  V30 1607 H 149.89 3.4459 -4.47122 0
M  V30 1608 N 149.288 1.51039 0.449983 0
M  V30 1609 C 150.565 1.53612 1.21089 0
M  V30 1610 C 150.945 0.292997 2.09057 0
M  V30 1611 O 150.293 -0.72259 2.16774 0
M  V30 1612 C 150.503 2.84337 2.0237 0
M  V30 1613 C 151.851 3.35807 2.59843 0
M  V30 1614 O 152.875 2.85802 2.12593 0
M  V30 1615 O 151.734 4.23029 3.45989 0
M  V30 1616 H 148.828 0.617057 0.550608 0
M  V30 1617 H 151.374 1.63344 0.460082 0
M  V30 1618 H 150.146 3.66278 1.37681 0
M  V30 1619 H 149.769 2.77708 2.84542 0
M  V30 1620 N 150.766 -0.704594 1.40972 0
M  V30 1621 C 151.713 -1.81862 1.42109 0
M  V30 1622 C 152.683 -1.63781 0.276593 0
M  V30 1623 O 153.868 -1.84759 0.4763 0
M  V30 1624 C 151.008 -3.19669 1.30022 0
M  V30 1625 C 150.121 -3.49246 2.54267 0
M  V30 1626 C 149.256 -4.76618 2.3454 0
M  V30 1627 C 148.295 -4.99133 3.54306 0
M  V30 1628 N 147.432 -6.17726 3.33706 0
M  V30 1629 H 152.272 -1.80226 2.37324 0
M  V30 1630 H 149.809 -0.880238 1.17857 0
M  V30 1631 H 151.767 -3.99263 1.21018 0
M  V30 1632 H 150.397 -3.20506 0.384192 0
M  V30 1633 H 149.449 -2.64125 2.73756 0
M  V30 1634 H 150.761 -3.61788 3.43381 0
M  V30 1635 H 149.915 -5.64249 2.22952 0
M  V30 1636 H 148.654 -4.66305 1.42867 0
M  V30 1637 H 147.659 -4.09953 3.66359 0
M  V30 1638 H 148.884 -5.11311 4.4692 0
M  V30 1639 H 146.83 -6.08642 2.44725 0
M  V30 1640 H 146.747 -6.30995 4.16391 0
M  V30 1641 H 148.015 -7.08115 3.25873 0
M  V30 1642 N 152.244 -1.26651 -0.937939 0
M  V30 1643 C 153.521 -1.0313 -1.66204 0
M  V30 1644 C 153.901 0.437256 -2.06522 0
M  V30 1645 O 153.249 1.41831 -1.79154 0
M  V30 1646 C 153.459 -1.98314 -2.87181 0
M  V30 1647 C 154.807 -2.27107 -3.58758 0
M  V30 1648 O 155.831 -1.96205 -2.97291 0
M  V30 1649 O 154.69 -2.79736 -4.69479 0
M  V30 1650 H 151.784 -0.392384 -0.727986 0
M  V30 1651 H 154.33 -1.37874 -0.989382 0
M  V30 1652 H 153.102 -2.97399 -2.54302 0
M  V30 1653 H 152.725 -1.64068 -3.6217 0
M  V30 1654 N 153.722 1.14298 -1.08507 0
M  V30 1655 C 154.97 1.84993 -0.813763 0
M  V30 1656 C 155.291 1.83405 0.662393 0
M  V30 1657 O 154.561 1.28319 1.48024 0
M  V30 1658 H 153.141 0.684966 -0.298045 0
M  V30 1659 H 155.803 1.385 -1.37126 0
M  V30 1660 H 154.899 2.89788 -1.15884 0
M  V30 1661 N 155.201 0.870884 1.31352 0
M  V30 1662 C 156.431 0.496049 2.00557 0
M  V30 1663 C 156.839 -0.916241 1.65534 0
M  V30 1664 O 156.182 -1.61188 0.881134 0
M  V30 1665 C 156.244 0.574418 3.54881 0
M  V30 1666 C 155.908 1.94849 4.1338 0
M  V30 1667 C 156.905 2.91611 4.30417 0
M  V30 1668 C 154.59 2.25005 4.49086 0
M  V30 1669 C 156.584 4.16672 4.82352 0
M  V30 1670 C 154.271 3.50315 5.00722 0
M  V30 1671 C 155.269 4.45964 5.17306 0
M  V30 1672 O 154.957 5.69052 5.67833 0
M  V30 1673 H 154.689 0.191664 0.64826 0
M  V30 1674 H 157.243 1.17409 1.68536 0
M  V30 1675 H 155.473 -0.160549 3.86367 0
M  V30 1676 H 157.162 0.212879 4.05341 0
M  V30 1677 H 157.928 2.69622 4.03149 0
M  V30 1678 H 153.807 1.51332 4.35453 0
M  V30 1679 H 157.351 4.91336 4.95211 0
M  V30 1680 H 153.248 3.72147 5.27424 0
M  V30 1681 H 154.016 5.71236 5.86201 0
M  V30 1682 N 156.679 -1.44442 0.630414 0
M  V30 1683 C 157.928 -2.01267 0.132073 0
M  V30 1684 C 158.241 -1.50172 -1.25331 0
M  V30 1685 O 159.447 -1.9912 -1.84562 0
M  V30 1686 C 157.903 -3.59422 0.185362 0
M  V30 1687 C 157.511 -4.19514 1.57201 0
M  V30 1688 C 159.255 -4.23724 -0.256553 0
M  V30 1689 C 157.162 -5.69891 1.58045 0
M  V30 1690 H 156.092 -0.752619 0.0456092 0
M  V30 1691 H 158.743 -1.65666 0.789106 0
M  V30 1692 H 157.125 -3.92318 -0.538759 0
M  V30 1693 H 158.299 -3.98156 2.31966 0
M  V30 1694 H 156.614 -3.67496 1.95795 0
M  V30 1695 H 159.211 -5.34019 -0.269767 0
M  V30 1696 H 159.554 -3.96013 -1.28372 0
M  V30 1697 H 160.087 -3.95629 0.41505 0
M  V30 1698 H 156.826 -6.02336 2.58597 0
M  V30 1699 H 156.346 -5.93373 0.875725 0
M  V30 1700 H 158.025 -6.33515 1.31408 0
M  V30 1701 N 158.157 -0.370918 -1.53173 0
M  V30 1702 C 159.382 0.220293 -2.06227 0
M  V30 1703 C 159.807 1.41243 -1.24225 0
M  V30 1704 O 159.165 1.79387 -0.262645 0
M  V30 1705 C 159.213 0.586663 -3.55796 0
M  V30 1706 O 158.317 1.68317 -3.76488 0
M  V30 1707 H 157.658 0.0308099 -0.663285 0
M  V30 1708 H 160.188 -0.533068 -1.97534 0
M  V30 1709 H 160.198 0.85617 -3.98916 0
M  V30 1710 H 158.873 -0.285013 -4.14922 0
M  V30 1711 H 157.45 1.40881 -3.45264 0
M  V30 1712 N 159.635 1.57281 -0.100228 0
M  V30 1713 C 160.583 2.15542 0.874328 0
M  V30 1714 C 161.577 1.09962 1.28859 0
M  V30 1715 O 162.783 1.28298 1.26252 0
M  V30 1716 H 159.158 0.689567 0.300003 0
M  V30 1717 H 161.129 2.96241 0.35829 0
M  V30 1718 C 159.878 2.75454 2.1218 0
M  V30 1719 H 159.201 3.56384 1.81193 0
M  V30 1720 H 160.641 3.19781 2.78417 0
M  V30 1721 C 159.1 1.71602 2.89921 0
M  V30 1722 O 159.63 1.15804 3.84646 0
M  V30 1723 N 157.836 1.41975 2.53558 0
M  V30 1724 H 157.383 1.87539 1.76598 0
M  V30 1725 H 157.341 0.727274 3.05873 0
M  V30 1726 N 161.113 -0.173488 1.56642 0
M  V30 1727 C 162.361 -0.888706 1.81512 0
M  V30 1728 C 162.682 -1.82875 0.676872 0
M  V30 1729 O 161.952 -1.93536 -0.303414 0
M  V30 1730 H 160.532 -0.331164 0.669582 0
M  V30 1731 H 163.194 -0.173823 1.94123 0
M  V30 1732 H 162.29 -1.46691 2.75478 0
M  V30 1733 N 162.591 -1.51276 -0.441967 0
M  V30 1734 C 163.501 -1.75092 -1.56141 0
M  V30 1735 C 164.517 -0.634963 -1.62001 0
M  V30 1736 O 165.693 -0.916686 -1.79329 0
M  V30 1737 C 162.758 -1.86666 -2.92158 0
M  V30 1738 C 161.819 -3.10506 -2.96453 0
M  V30 1739 C 161.052 -3.21519 -4.25982 0
M  V30 1740 O 161.275 -2.38586 -5.18105 0
M  V30 1741 O 160.209 -4.14465 -4.36466 0
M  V30 1742 H 164.035 -2.70044 -1.38961 0
M  V30 1743 H 161.62 -1.35722 -0.624499 0
M  V30 1744 H 163.502 -1.96292 -3.72891 0
M  V30 1745 H 162.177 -0.949014 -3.09476 0
M  V30 1746 H 161.084 -3.06363 -2.14692 0
M  V30 1747 H 162.417 -4.01945 -2.84079 0
M  V30 1748 N 164.069 0.697108 -1.41344 0
M  V30 1749 C 164.999 1.82353 -1.45841 0
M  V30 1750 C 165.98 1.67115 -0.317247 0
M  V30 1751 O 167.165 1.86871 -0.528474 0
M  V30 1752 C 164.295 3.20476 -1.33838 0
M  V30 1753 C 163.249 3.50415 -2.4575 0
M  V30 1754 C 162.575 4.87878 -2.18813 0
M  V30 1755 C 163.875 3.49546 -3.88091 0
M  V30 1756 H 165.569 1.78846 -2.40113 0
M  V30 1757 H 163.115 0.859028 -1.15571 0
M  V30 1758 H 165.068 3.98988 -1.35596 0
M  V30 1759 H 163.792 3.24604 -0.360498 0
M  V30 1760 H 162.451 2.74253 -2.43271 0
M  V30 1761 H 162.099 4.8863 -1.19371 0
M  V30 1762 H 161.799 5.08875 -2.93803 0
M  V30 1763 H 163.323 5.68702 -2.22284 0
M  V30 1764 H 164.737 4.18066 -3.92293 0
M  V30 1765 H 163.134 3.82075 -4.62751 0
M  V30 1766 H 164.204 2.48552 -4.16353 0
M  V30 1767 N 165.547 1.27147 0.931209 0
M  V30 1768 C 166.794 1.13278 1.67852 0
M  V30 1769 C 167.122 -0.32204 1.91815 0
M  V30 1770 O 166.377 -1.25224 1.50391 0
M  V30 1771 C 166.676 1.8579 3.05314 0
M  V30 1772 C 166.342 3.35657 3.01073 0
M  V30 1773 C 165.004 3.76536 2.99623 0
M  V30 1774 C 167.356 4.31299 2.92627 0
M  V30 1775 C 164.684 5.11426 2.87506 0
M  V30 1776 C 167.036 5.66242 2.82051 0
M  V30 1777 C 165.7 6.06418 2.7895 0
M  V30 1778 H 164.97 0.414515 0.614214 0
M  V30 1779 H 167.617 1.57712 1.08624 0
M  V30 1780 H 165.922 1.33854 3.68226 0
M  V30 1781 H 167.619 1.72491 3.62005 0
M  V30 1782 H 164.209 3.03146 3.02986 0
M  V30 1783 H 168.393 4.00692 2.92848 0
M  V30 1784 H 163.649 5.41705 2.83489 0
M  V30 1785 H 167.823 6.40026 2.74481 0
M  V30 1786 H 165.45 7.10895 2.69318 0
M  V30 1787 N 167.025 -1.13721 1.09112 0
M  V30 1788 C 167.957 -2.1871 0.685467 0
M  V30 1789 C 168.97 -1.60527 -0.271068 0
M  V30 1790 O 170.159 -1.78407 -0.0576148 0
M  V30 1791 C 167.259 -3.38898 -0.0111255 0
M  V30 1792 C 166.432 -4.26597 0.966131 0
M  V30 1793 C 165.491 -5.25324 0.303539 0
M  V30 1794 O 164.517 -5.61213 0.950177 0
M  V30 1795 N 165.719 -5.72779 -0.943651 0
M  V30 1796 H 168.484 -2.54126 1.58871 0
M  V30 1797 H 166.045 -1.29012 0.978143 0
M  V30 1798 H 168.037 -4.02014 -0.465517 0
M  V30 1799 H 166.607 -3.01747 -0.816565 0
M  V30 1800 H 165.827 -3.60306 1.59917 0
M  V30 1801 H 167.115 -4.82048 1.6281 0
M  V30 1802 H 166.513 -5.45762 -1.48862 0
M  V30 1803 H 165.07 -6.37847 -1.34142 0
M  V30 1804 N 168.503 -0.877838 -1.30888 0
M  V30 1805 C 169.749 -0.493426 -1.96706 0
M  V30 1806 C 170.082 0.953504 -1.6918 0
M  V30 1807 O 169.357 1.67266 -0.992594 0
M  V30 1808 C 169.64 -0.760429 -3.51979 0
M  V30 1809 C 169.493 -2.25747 -3.89048 0
M  V30 1810 C 170.812 -0.232148 -4.39487 0
M  V30 1811 H 167.931 -0.180746 -0.714493 0
M  V30 1812 H 170.573 -1.10052 -1.54882 0
M  V30 1813 H 168.723 -0.243715 -3.87735 0
M  V30 1814 H 170.395 -2.84204 -3.63354 0
M  V30 1815 H 168.638 -2.72694 -3.37373 0
M  V30 1816 H 169.309 -2.39491 -4.97341 0
M  V30 1817 H 171.785 -0.674314 -4.106 0
M  V30 1818 H 170.661 -0.448355 -5.47066 0
M  V30 1819 H 170.922 0.866297 -4.33529 0
M  V30 1820 N 169.982 1.44106 -0.638065 0
M  V30 1821 C 170.912 2.33448 0.0494287 0
M  V30 1822 C 171.893 1.48606 0.827672 0
M  V30 1823 O 173.078 1.77308 0.792173 0
M  V30 1824 C 170.208 3.31771 1.02691 0
M  V30 1825 C 169.162 4.26485 0.359823 0
M  V30 1826 C 168.488 5.14729 1.44769 0
M  V30 1827 C 169.788 5.17056 -0.738296 0
M  V30 1828 H 171.482 2.91183 -0.696636 0
M  V30 1829 H 169.028 1.40014 -0.336456 0
M  V30 1830 H 170.981 3.93161 1.51666 0
M  V30 1831 H 169.705 2.7226 1.80395 0
M  V30 1832 H 168.364 3.66437 -0.10934 0
M  V30 1833 H 168.012 4.51566 2.21578 0
M  V30 1834 H 167.712 5.78913 1.00668 0
M  V30 1835 H 169.236 5.78991 1.93911 0
M  V30 1836 H 170.65 5.72342 -0.331354 0
M  V30 1837 H 169.047 5.89879 -1.10286 0
M  V30 1838 H 170.117 4.57652 -1.60258 0
M  V30 1839 N 171.46 0.379036 1.52974 0
M  V30 1840 C 172.407 -0.461048 2.26148 0
M  V30 1841 C 173.377 -1.06637 1.27349 0
M  V30 1842 O 174.562 -1.09633 1.56157 0
M  V30 1843 C 171.702 -1.58782 3.06402 0
M  V30 1844 C 170.815 -1.00636 4.20115 0
M  V30 1845 C 169.95 -2.10334 4.87784 0
M  V30 1846 C 168.989 -1.49724 5.93506 0
M  V30 1847 N 168.126 -2.5331 6.54812 0
M  V30 1848 H 172.966 0.169429 2.97518 0
M  V30 1849 H 170.503 0.0953806 1.4679 0
M  V30 1850 H 172.461 -2.25174 3.51215 0
M  V30 1851 H 171.091 -2.18876 2.37261 0
M  V30 1852 H 170.143 -0.232332 3.7969 0
M  V30 1853 H 171.455 -0.523343 4.96047 0
M  V30 1854 H 170.609 -2.84519 5.35849 0
M  V30 1855 H 169.348 -2.61992 4.11353 0
M  V30 1856 H 168.353 -0.740598 5.44789 0
M  V30 1857 H 169.578 -0.988732 6.71864 0
M  V30 1858 H 167.524 -3.04156 5.81227 0
M  V30 1859 H 167.441 -2.09734 7.26325 0
M  V30 1860 H 168.709 -3.27155 7.07524 0
M  V30 1861 N 172.938 -1.57226 0.108567 0
M  V30 1862 C 173.871 -2.10447 -0.882464 0
M  V30 1863 C 174.849 -1.01829 -1.26766 0
M  V30 1864 O 176.033 -1.29415 -1.37054 0
M  V30 1865 C 173.16 -2.59258 -2.17952 0
M  V30 1866 C 172.206 -3.79662 -1.94318 0
M  V30 1867 S 173.039 -5.22586 -1.16892 0
M  V30 1868 C 174.195 -5.74758 -2.47799 0
M  V30 1869 H 174.428 -2.94178 -0.429745 0
M  V30 1870 H 171.961 -1.54043 -0.105 0
M  V30 1871 H 173.919 -2.88036 -2.92482 0
M  V30 1872 H 172.58 -1.75728 -2.60343 0
M  V30 1873 H 171.773 -4.11928 -2.90399 0
M  V30 1874 H 171.375 -3.51446 -1.27913 0
M  V30 1875 H 173.667 -5.83846 -3.43701 0
M  V30 1876 H 174.61 -6.73027 -2.20093 0
M  V30 1877 H 175.018 -5.02763 -2.56689 0
M  V30 1878 N 174.416 0.165178 -1.56732 0
M  V30 1879 C 175.349 1.23336 -1.91998 0
M  V30 1880 C 176.327 1.42476 -0.783531 0
M  V30 1881 O 177.511 1.57384 -1.03743 0
M  V30 1882 C 174.638 2.59533 -2.17625 0
M  V30 1883 C 173.684 2.57093 -3.40302 0
M  V30 1884 S 174.517 2.05571 -4.9447 0
M  V30 1885 C 175.673 3.43532 -5.23198 0
M  V30 1886 H 175.906 0.932387 -2.82301 0
M  V30 1887 H 173.439 0.370013 -1.49901 0
M  V30 1888 H 175.397 3.37918 -2.3307 0
M  V30 1889 H 174.058 2.86827 -1.28019 0
M  V30 1890 H 173.251 3.57308 -3.55453 0
M  V30 1891 H 172.853 1.86806 -3.24005 0
M  V30 1892 H 175.145 4.39559 -5.15552 0
M  V30 1893 H 176.088 3.33251 -6.2478 0
M  V30 1894 H 176.496 3.39828 -4.50752 0
M  V30 1895 N 175.894 1.51508 0.433938 0
M  V30 1896 C 177.14 1.64588 1.18484 0
M  V30 1897 C 177.473 0.362666 1.90784 0
M  V30 1898 O 176.748 -0.637892 1.83742 0
M  V30 1899 C 177.031 2.85149 2.19913 0
M  V30 1900 C 176.884 4.23456 1.51674 0
M  V30 1901 C 178.203 3.01227 3.20858 0
M  V30 1902 H 175.322 0.598994 0.429389 0
M  V30 1903 H 177.964 1.84002 0.473647 0
M  V30 1904 H 176.114 2.68729 2.80566 0
M  V30 1905 H 177.786 4.51552 0.943322 0
M  V30 1906 H 176.029 4.25998 0.819035 0
M  V30 1907 H 176.7 5.03812 2.2556 0
M  V30 1908 H 179.176 3.16382 2.70263 0
M  V30 1909 H 178.052 3.87141 3.89118 0
M  V30 1910 H 178.313 2.13447 3.8716 0
M  V30 1911 N 177.372 -0.689602 1.41712 0
M  V30 1912 C 178.62 -1.4468 1.4111 0
M  V30 1913 C 178.941 -1.94986 0.0232196 0
M  V30 1914 O 178.211 -1.72097 -0.935913 0
M  V30 1915 H 176.791 -0.536847 0.519427 0
M  V30 1916 H 179.453 -0.815825 1.77004 0
M  V30 1917 H 178.549 -2.30706 2.10193 0
M  V30 1918 N 178.85 -1.27639 -0.924453 0
M  V30 1919 C 179.798 -1.10485 -2.04685 0
M  V30 1920 C 180.792 -0.0270421 -1.69378 0
M  V30 1921 O 181.998 -0.185008 -1.79047 0
M  V30 1922 H 178.373 -0.340546 -0.670472 0
M  V30 1923 H 180.344 -2.05566 -2.16298 0
M  V30 1924 C 179.093 -0.772229 -3.39016 0
M  V30 1925 H 178.416 -1.59351 -3.66671 0
M  V30 1926 H 179.856 -0.692097 -4.18313 0
M  V30 1927 C 178.315 0.523554 -3.32807 0
M  V30 1928 O 178.845 1.55702 -3.70297 0
M  V30 1929 N 177.051 0.520363 -2.85903 0
M  V30 1930 H 176.598 -0.32107 -2.55591 0
M  V30 1931 H 176.556 1.38742 -2.82131 0
M  V30 1932 N 180.328 1.1314 -1.09713 0
M  V30 1933 C 181.276 2.20717 -0.733934 0
M  V30 1934 C 182.27 1.6729 0.266506 0
M  V30 1935 O 183.476 1.79547 0.127656 0
M  V30 1936 H 179.851 0.719292 -0.21937 0
M  V30 1937 H 181.822 2.48611 -1.6503 0
M  V30 1938 C 180.571 3.47265 -0.173849 0
M  V30 1939 H 179.894 3.88716 -0.934873 0
M  V30 1940 H 181.334 4.23979 0.0423126 0
M  V30 1941 C 179.793 3.18724 1.09164 0
M  V30 1942 O 180.323 3.37762 2.17439 0
M  V30 1943 N 178.529 2.72583 1.00732 0
M  V30 1944 H 178.076 2.57291 0.126121 0
M  V30 1945 H 178.034 2.53862 1.85476 0
M  V30 1946 N 181.806 0.884767 1.30421 0
M  V30 1947 C 182.736 0.367574 2.30589 0
M  V30 1948 C 183.717 -0.549464 1.60981 0
M  V30 1949 O 184.902 -0.46336 1.88591 0
M  V30 1950 C 182.032 -0.418944 3.44764 0
M  V30 1951 C 180.986 0.406316 4.26067 0
M  V30 1952 C 180.312 -0.506793 5.32293 0
M  V30 1953 C 181.612 1.64832 4.95608 0
M  V30 1954 H 183.306 1.20462 2.74097 0
M  V30 1955 H 180.852 0.580695 1.31772 0
M  V30 1956 H 182.805 -0.791395 4.13902 0
M  V30 1957 H 181.529 -1.28964 3.0006 0
M  V30 1958 H 180.188 0.760903 3.58617 0
M  V30 1959 H 179.836 -1.37519 4.83836 0
M  V30 1960 H 179.536 0.0415828 5.87585 0
M  V30 1961 H 181.06 -0.875764 6.04287 0
M  V30 1962 H 182.474 1.34646 5.57264 0
M  V30 1963 H 180.871 2.13688 5.60765 0
M  V30 1964 H 181.941 2.39284 4.21748 0
M  V30 1965 N 183.284 -1.43765 0.645699 0
M  V30 1966 C 184.512 -2.06253 0.163556 0
M  V30 1967 C 184.927 -1.48352 -1.16778 0
M  V30 1968 O 184.284 -0.611932 -1.71935 0
M  V30 1969 C 184.335 -3.61453 0.0583186 0
M  V30 1970 O 184.056 -4.172 1.33702 0
M  V30 1971 C 185.557 -4.41002 -0.450795 0
M  V30 1972 H 182.777 -0.665413 0.0864077 0
M  V30 1973 H 185.321 -1.84396 0.884222 0
M  V30 1974 H 183.476 -3.82522 -0.612865 0
M  V30 1975 H 183.89 -5.10791 1.19131 0
M  V30 1976 H 185.364 -5.49966 -0.473403 0
M  V30 1977 H 185.841 -4.13488 -1.48068 0
M  V30 1978 H 186.447 -4.24886 0.187637 0
M  V30 1979 N 184.763 -0.387143 -1.52771 0
M  V30 1980 C 186.04 0.253197 -1.93954 0
M  V30 1981 C 186.42 1.64545 -1.32243 0
M  V30 1982 O 185.768 2.23191 -0.489699 0
M  V30 1983 C 185.978 0.281722 -3.47861 0
M  V30 1984 C 187.326 0.511715 -4.21505 0
M  V30 1985 O 188.35 0.362023 -3.54356 0
M  V30 1986 O 187.209 0.804847 -5.40541 0
M  V30 1987 H 184.303 0.156845 -0.811991 0
M  V30 1988 H 186.849 -0.441494 -1.63856 0
M  V30 1989 H 185.621 -0.693571 -3.85104 0
M  V30 1990 H 185.244 1.02142 -3.84256 0
M  V30 1991 N 186.241 1.57166 -0.116904 0
M  V30 1992 C 187.487 1.96206 0.536166 0
M  V30 1993 C 187.842 0.99915 1.64422 0
M  V30 1994 O 187.135 0.0288195 1.91578 0
M  V30 1995 C 187.329 3.39508 1.11664 0
M  V30 1996 C 187.158 4.49651 0.0663474 0
M  V30 1997 C 185.928 5.03982 -0.36474 0
M  V30 1998 C 188.126 5.09322 -0.713829 0
M  V30 1999 N 186.108 5.97699 -1.40102 0
M  V30 2000 C 187.479 5.98963 -1.60136 0
M  V30 2001 C 189.534 4.91989 -0.764948 0
M  V30 2002 C 188.237 6.73128 -2.53556 0
M  V30 2003 C 190.263 5.66833 -1.68685 0
M  V30 2004 C 189.625 6.56158 -2.56196 0
M  V30 2005 H 185.724 0.764203 0.165886 0
M  V30 2006 H 188.308 1.93623 -0.204535 0
M  V30 2007 H 186.479 3.42743 1.82707 0
M  V30 2008 H 188.211 3.65677 1.73386 0
M  V30 2009 H 184.966 4.73592 0.027252 0
M  V30 2010 H 185.39 6.49262 -1.91802 0
M  V30 2011 H 190.032 4.22676 -0.102501 0
M  V30 2012 H 187.75 7.41689 -3.20816 0
M  V30 2013 H 191.336 5.55427 -1.73181 0
M  V30 2014 H 190.216 7.13057 -3.26372 0
M  V30 2015 N 187.719 -0.156864 1.56817 0
M  V30 2016 C 188.651 -1.21883 1.94106 0
M  V30 2017 C 189.664 -1.3971 0.835754 0
M  V30 2018 O 190.853 -1.39457 1.11418 0
M  V30 2019 C 187.953 -2.58527 2.19127 0
M  V30 2020 C 187.126 -2.61809 3.50393 0
M  V30 2021 C 186.185 -3.7992 3.64071 0
M  V30 2022 O 185.211 -3.65249 4.36557 0
M  V30 2023 N 186.413 -4.96973 2.99997 0
M  V30 2024 H 189.178 -0.901974 2.85805 0
M  V30 2025 H 186.739 -0.346513 1.58148 0
M  V30 2026 H 188.731 -3.36034 2.25529 0
M  V30 2027 H 187.301 -2.82545 1.33742 0
M  V30 2028 H 186.521 -1.7029 3.5552 0
M  V30 2029 H 187.809 -2.61024 4.36742 0
M  V30 2030 H 187.207 -5.11794 2.41004 0
M  V30 2031 H 185.764 -5.7229 3.11974 0
M  V30 2032 N 189.197 -1.51736 -0.425897 0
M  V30 2033 C 190.127 -1.76827 -1.52494 0
M  V30 2034 C 191.108 -0.618524 -1.58456 0
M  V30 2035 O 192.293 -0.862416 -1.74 0
M  V30 2036 C 189.423 -1.90374 -2.90474 0
M  V30 2037 C 188.377 -3.0588 -2.99369 0
M  V30 2038 C 187.703 -3.04625 -4.3944 0
M  V30 2039 C 189.003 -4.45644 -2.72394 0
M  V30 2040 H 190.697 -2.68855 -1.31748 0
M  V30 2041 H 188.243 -1.29372 -0.632362 0
M  V30 2042 H 190.196 -2.0651 -3.6733 0
M  V30 2043 H 188.92 -0.95004 -3.12477 0
M  V30 2044 H 187.579 -2.89467 -2.24954 0
M  V30 2045 H 187.227 -2.0701 -4.58428 0
M  V30 2046 H 186.927 -3.82195 -4.46319 0
M  V30 2047 H 188.451 -3.22869 -5.18255 0
M  V30 2048 H 189.865 -4.62348 -3.38979 0
M  V30 2049 H 188.262 -5.25006 -2.9067 0
M  V30 2050 H 189.332 -4.54893 -1.67929 0
M  V30 2051 N 190.675 0.682077 -1.42076 0
M  V30 2052 C 191.607 1.80755 -1.40926 0
M  V30 2053 C 192.62 1.59833 -0.309398 0
M  V30 2054 O 193.809 1.69087 -0.572014 0
M  V30 2055 C 190.909 3.17744 -1.17865 0
M  V30 2056 C 190.082 3.65578 -2.40149 0
M  V30 2057 C 189.141 4.81277 -2.12742 0
M  V30 2058 O 188.167 4.92197 -2.85887 0
M  V30 2059 N 189.369 5.69474 -1.12602 0
M  V30 2060 H 192.134 1.82229 -2.37935 0
M  V30 2061 H 189.695 0.864903 -1.36861 0
M  V30 2062 H 191.687 3.9279 -0.9746 0
M  V30 2063 H 190.257 3.11214 -0.294068 0
M  V30 2064 H 189.477 2.81291 -2.76169 0
M  V30 2065 H 190.765 3.94278 -3.21593 0
M  V30 2066 H 190.163 5.63297 -0.520899 0
M  V30 2067 H 188.72 6.44363 -0.981842 0
M  V30 2068 N 192.153 1.28127 0.917671 0
M  V30 2069 C 193.085 1.07517 2.02417 0
M  V30 2070 C 194.098 0.0281099 1.62776 0
M  V30 2071 O 195.287 0.270748 1.76435 0
M  V30 2072 C 192.387 0.610957 3.33347 0
M  V30 2073 C 191.56 1.73255 4.01624 0
M  V30 2074 C 190.619 1.26238 5.10833 0
M  V30 2075 O 189.645 1.96389 5.34247 0
M  V30 2076 N 190.847 0.123448 5.80369 0
M  V30 2077 H 193.612 2.02806 2.20658 0
M  V30 2078 H 191.173 1.19827 1.08871 0
M  V30 2079 H 193.165 0.280101 4.0373 0
M  V30 2080 H 191.735 -0.24898 3.11607 0
M  V30 2081 H 190.955 2.23319 3.24842 0
M  V30 2082 H 192.243 2.48503 4.43986 0
M  V30 2083 H 191.641 -0.461847 5.63812 0
M  V30 2084 H 190.198 -0.148158 6.51632 0
M  V30 2085 N 193.631 -1.12557 1.10312 0
M  V30 2086 C 194.561 -2.20341 0.772798 0
M  V30 2087 C 195.542 -1.68198 -0.25365 0
M  V30 2088 O 196.727 -1.93831 -0.119699 0
M  V30 2089 C 193.857 -3.46709 0.202443 0
M  V30 2090 C 192.811 -4.11996 1.15943 0
M  V30 2091 C 192.137 -5.328 0.450345 0
M  V30 2092 C 193.437 -4.5828 2.50552 0
M  V30 2093 H 195.131 -2.48229 1.674 0
M  V30 2094 H 192.677 -1.19308 0.806326 0
M  V30 2095 H 194.63 -4.2138 -0.0407752 0
M  V30 2096 H 193.354 -3.18245 -0.734001 0
M  V30 2097 H 192.013 -3.39305 1.38808 0
M  V30 2098 H 191.661 -5.00602 -0.490531 0
M  V30 2099 H 191.361 -5.7743 1.08851 0
M  V30 2100 H 192.885 -6.10219 0.215642 0
M  V30 2101 H 194.299 -5.2433 2.31843 0
M  V30 2102 H 192.696 -5.13683 3.10242 0
M  V30 2103 H 193.766 -3.72329 3.10643 0
M  V30 2104 N 195.109 -0.891671 -1.2995 0
M  V30 2105 C 196.355 -0.514261 -1.96171 0
M  V30 2106 C 196.688 0.935506 -1.70182 0
M  V30 2107 O 195.963 1.66204 -1.01028 0
M  V30 2108 C 196.246 -0.797719 -3.51153 0
M  V30 2109 C 196.099 -2.2986 -3.86632 0
M  V30 2110 C 197.418 -0.278749 -4.39216 0
M  V30 2111 H 194.537 -0.188314 -0.712535 0
M  V30 2112 H 197.179 -1.11689 -1.53706 0
M  V30 2113 H 195.329 -0.284826 -3.87455 0
M  V30 2114 H 197.001 -2.88042 -3.60319 0
M  V30 2115 H 195.244 -2.76257 -3.34462 0
M  V30 2116 H 195.915 -2.44753 -4.94773 0
M  V30 2117 H 198.391 -0.717825 -4.09862 0
M  V30 2118 H 197.267 -0.506353 -5.46559 0
M  V30 2119 H 197.528 0.820266 -4.34424 0
M  V30 2120 N 196.587 1.43421 -0.653314 0
M  V30 2121 C 197.864 1.95361 -0.0966581 0
M  V30 2122 C 198.244 1.59461 1.38331 0
M  V30 2123 O 197.592 0.879777 2.10884 0
M  V30 2124 C 197.802 3.47311 -0.342988 0
M  V30 2125 C 199.15 4.23875 -0.24798 0
M  V30 2126 O 200.174 3.55133 -0.275553 0
M  V30 2127 O 199.033 5.4623 -0.171771 0
M  V30 2128 H 196.127 0.826945 0.00956291 0
M  V30 2129 H 198.673 1.5336 -0.726558 0
M  V30 2130 H 197.445 3.66569 -1.36906 0
M  V30 2131 H 197.068 3.9631 0.319975 0
M  V30 2132 N 198.065 0.39524 1.52563 0
M  V30 2133 C 199.012 -0.437036 2.26624 0
M  V30 2134 C 199.982 -1.05281 1.28472 0
M  V30 2135 O 201.167 -1.07971 1.57311 0
M  V30 2136 C 198.307 -1.55524 3.08069 0
M  V30 2137 C 197.42 -0.961745 4.21158 0
M  V30 2138 C 196.555 -2.05149 4.89987 0
M  V30 2139 C 195.594 -1.4342 5.95061 0
M  V30 2140 N 194.731 -2.46351 6.57462 0
M  V30 2141 H 199.571 0.200976 2.97322 0
M  V30 2142 H 197.108 0.110944 1.46681 0
M  V30 2143 H 199.066 -2.21437 3.53584 0
M  V30 2144 H 197.696 -2.16348 2.3957 0
M  V30 2145 H 196.748 -0.192048 3.79915 0
M  V30 2146 H 198.06 -0.470701 4.96574 0
M  V30 2147 H 197.214 -2.78819 5.38837 0
M  V30 2148 H 195.953 -2.57615 4.14109 0
M  V30 2149 H 194.958 -0.682774 5.45544 0
M  V30 2150 H 196.183 -0.917416 6.72875 0
M  V30 2151 H 194.129 -2.97975 5.8442 0
M  V30 2152 H 194.046 -2.02019 7.28508 0
M  V30 2153 H 195.314 -3.19633 7.10954 0
M  V30 2154 N 199.544 -1.57102 0.125237 0
M  V30 2155 C 200.772 -1.99761 -0.538797 0
M  V30 2156 C 201.187 -1.00503 -1.59827 0
M  V30 2157 O 200.544 0.00119474 -1.825 0
M  V30 2158 C 200.595 -3.42408 -1.15927 0
M  V30 2159 O 200.316 -4.37869 -0.142143 0
M  V30 2160 C 201.817 -4.00232 -1.90602 0
M  V30 2161 H 199.037 -0.655772 -0.14214 0
M  V30 2162 H 201.581 -2.03383 0.213413 0
M  V30 2163 H 199.736 -3.39706 -1.86223 0
M  V30 2164 H 200.15 -5.21128 -0.593775 0
M  V30 2165 H 201.624 -5.02105 -2.29335 0
M  V30 2166 H 202.101 -3.39721 -2.78363 0
M  V30 2167 H 202.707 -4.06499 -1.25055 0
M  V30 2168 N 201.022 0.148545 -1.56898 0
M  V30 2169 C 202.271 0.85984 -1.82454 0
M  V30 2170 C 202.584 1.82406 -0.706229 0
M  V30 2171 O 203.79 2.57938 -0.847349 0
M  V30 2172 C 202.246 1.57967 -3.2338 0
M  V30 2173 C 201.854 0.65794 -4.43142 0
M  V30 2174 C 203.598 2.27784 -3.58211 0
M  V30 2175 C 201.505 1.3793 -5.75091 0
M  V30 2176 H 200.435 0.324834 -0.68044 0
M  V30 2177 H 203.086 0.112588 -1.83154 0
M  V30 2178 H 201.468 2.37249 -3.17063 0
M  V30 2179 H 202.642 -0.0995497 -4.60692 0
M  V30 2180 H 200.957 0.0682643 -4.16344 0
M  V30 2181 H 203.554 2.8239 -4.54048 0
M  V30 2182 H 203.897 3.04204 -2.84193 0
M  V30 2183 H 204.43 1.55421 -3.66182 0
M  V30 2184 H 201.169 0.656982 -6.52199 0
M  V30 2185 H 200.689 2.10954 -5.61479 0
M  V30 2186 H 202.368 1.92063 -6.17835 0
M  V30 2187 N 202.5 1.5196 0.417844 0
M  V30 2188 C 203.749 1.6482 1.16264 0
M  V30 2189 C 204.062 0.379886 1.91876 0
M  V30 2190 O 205.268 0.388154 2.68711 0
M  V30 2191 C 203.724 2.91161 2.1155 0
M  V30 2192 C 203.332 4.25068 1.41495 0
M  V30 2193 C 205.076 3.13383 2.86341 0
M  V30 2194 C 202.983 5.42541 2.35379 0
M  V30 2195 H 201.913 0.613954 0.437694 0
M  V30 2196 H 204.564 1.78442 0.427871 0
M  V30 2197 H 202.946 2.71218 2.88543 0
M  V30 2198 H 204.12 4.55463 0.699263 0
M  V30 2199 H 202.435 4.0888 0.787792 0
M  V30 2200 H 205.032 3.98324 3.5671 0
M  V30 2201 H 205.375 2.27256 3.48798 0
M  V30 2202 H 205.908 3.33757 2.1645 0
M  V30 2203 H 202.647 6.30987 1.77582 0
M  V30 2204 H 202.167 5.16497 3.04945 0
M  V30 2205 H 203.846 5.75272 2.96093 0
M  V30 2206 N 203.978 -0.674533 1.42435 0
M  V30 2207 C 205.227 -1.43034 1.42212 0
M  V30 2208 C 205.54 -1.95555 0.0420788 0
M  V30 2209 O 206.746 -2.71374 -0.0827558 0
M  V30 2210 C 205.202 -2.58748 2.50155 0
M  V30 2211 C 204.81 -2.12925 3.94166 0
M  V30 2212 C 206.554 -3.36257 2.59098 0
M  V30 2213 C 204.461 -3.25723 4.93618 0
M  V30 2214 H 203.391 -0.537345 0.528939 0
M  V30 2215 H 206.042 -0.73024 1.68344 0
M  V30 2216 H 204.424 -3.31128 2.17188 0
M  V30 2217 H 205.598 -1.47697 4.36488 0
M  V30 2218 H 203.913 -1.48354 3.89076 0
M  V30 2219 H 206.51 -4.20264 3.30578 0
M  V30 2220 H 206.853 -3.82866 1.63461 0
M  V30 2221 H 207.386 -2.70947 2.9126 0
M  V30 2222 H 204.125 -2.84105 5.90732 0
M  V30 2223 H 203.645 -3.89732 4.55926 0
M  V30 2224 H 205.324 -3.91186 5.15347 0
M  V30 2225 N 205.456 -1.28612 -0.910864 0
M  V30 2226 C 206.386 -1.15326 -2.03032 0
M  V30 2227 C 207.367 -0.0502924 -1.70026 0
M  V30 2228 O 208.552 -0.227797 -1.92859 0
M  V30 2229 C 205.682 -0.817343 -3.37545 0
M  V30 2230 C 204.636 -1.8754 -3.84724 0
M  V30 2231 C 203.962 -1.39305 -5.16235 0
M  V30 2232 C 205.262 -3.28244 -4.06267 0
M  V30 2233 H 206.956 -2.08975 -2.14406 0
M  V30 2234 H 204.502 -1.00612 -1.03021 0
M  V30 2235 H 206.455 -0.711151 -4.15356 0
M  V30 2236 H 205.179 0.154846 -3.26233 0
M  V30 2237 H 203.838 -1.97079 -3.09121 0
M  V30 2238 H 203.486 -0.409846 -5.01328 0
M  V30 2239 H 203.186 -2.10057 -5.48771 0
M  V30 2240 H 204.71 -1.30014 -5.96598 0
M  V30 2241 H 206.124 -3.21611 -4.74594 0
M  V30 2242 H 204.521 -3.96855 -4.5014 0
M  V30 2243 H 205.591 -3.72048 -3.10979 0
M  V30 2244 N 206.934 1.1197 -1.10907 0
M  V30 2245 C 208.211 1.79959 -0.766432 0
M  V30 2246 C 208.591 1.97466 0.746363 0
M  V30 2247 O 207.939 1.55491 1.67436 0
M  V30 2248 C 208.149 3.14009 -1.52314 0
M  V30 2249 C 209.497 3.89134 -1.69883 0
M  V30 2250 O 210.521 3.2368 -1.48692 0
M  V30 2251 O 209.38 5.06572 -2.05054 0
M  V30 2252 H 206.474 0.779208 -0.277062 0
M  V30 2253 H 209.02 1.18762 -1.21217 0
M  V30 2254 H 207.792 2.96587 -2.55249 0
M  V30 2255 H 207.415 3.82915 -1.07059 0
M  V30 2256 N 208.412 0.89855 1.29475 0
M  V30 2257 C 209.359 0.373819 2.27753 0
M  V30 2258 C 210.329 -0.543444 1.56958 0
M  V30 2259 O 211.514 -0.468934 1.84948 0
M  V30 2260 C 208.654 -0.393648 3.42848 0
M  V30 2261 C 207.767 0.554379 4.28428 0
M  V30 2262 C 206.902 -0.230026 5.30702 0
M  V30 2263 C 205.941 0.712599 6.07938 0
M  V30 2264 N 205.078 -0.0373283 7.0209 0
M  V30 2265 H 209.918 1.21699 2.72017 0
M  V30 2266 H 207.455 0.611456 1.33789 0
M  V30 2267 H 209.413 -0.85466 4.08352 0
M  V30 2268 H 208.043 -1.20128 2.99615 0
M  V30 2269 H 207.095 1.13391 3.63107 0
M  V30 2270 H 208.407 1.27597 4.82204 0
M  V30 2271 H 207.561 -0.752288 6.02018 0
M  V30 2272 H 206.3 -0.984758 4.77654 0
M  V30 2273 H 205.305 1.24637 5.35486 0
M  V30 2274 H 206.53 1.46664 6.63074 0
M  V30 2275 H 204.476 -0.774348 6.51414 0
M  V30 2276 H 204.393 0.624374 7.53417 0
M  V30 2277 H 205.661 -0.539891 7.77628 0
M  V30 2278 N 209.89 -1.43072 0.660911 0
M  V30 2279 C 211.167 -1.95307 0.107017 0
M  V30 2280 C 211.547 -1.60192 -1.37484 0
M  V30 2281 O 210.895 -0.890949 -2.10415 0
M  V30 2282 C 211.105 -3.47124 0.361402 0
M  V30 2283 C 212.453 -4.23738 0.270455 0
M  V30 2284 O 213.477 -3.54981 0.294382 0
M  V30 2285 O 212.336 -5.46131 0.200737 0
M  V30 2286 H 209.43 -0.826984 -0.00517729 0
M  V30 2287 H 211.976 -1.52972 0.734681 0
M  V30 2288 H 210.748 -3.65837 1.38848 0
M  V30 2289 H 210.371 -3.96475 -0.298953 0
M  V30 2290 N 211.368 -0.403325 -1.52352 0
M  V30 2291 C 212.616 0.174003 -2.0135 0
M  V30 2292 C 212.937 1.46139 -1.29106 0
M  V30 2293 O 212.207 1.91448 -0.415253 0
M  V30 2294 H 210.787 0.0672911 -0.743963 0
M  V30 2295 H 213.449 -0.538235 -1.87321 0
M  V30 2296 H 212.545 0.374254 -3.09848 0
M  V30 2297 N 212.846 1.57033 -0.133567 0
M  V30 2298 C 214.123 1.87256 0.56522 0
M  V30 2299 C 214.503 1.03726 1.83859 0
M  V30 2300 O 213.851 0.120247 2.28183 0
M  V30 2301 C 214.061 3.3865 0.843636 0
M  V30 2302 C 215.409 4.07574 1.19032 0
M  V30 2303 O 216.433 3.43752 0.933429 0
M  V30 2304 O 215.292 5.20259 1.67312 0
M  V30 2305 H 212.386 0.775678 0.286796 0
M  V30 2306 H 214.932 1.68855 -0.169168 0
M  V30 2307 H 213.704 3.91257 -0.0581149 0
M  V30 2308 H 213.327 3.62532 1.63268 0
M  V30 2309 N 214.325 -0.140222 1.56975 0
M  V30 2310 C 215.573 -0.850005 1.83356 0
M  V30 2311 C 215.894 -1.81399 0.71551 0
M  V30 2312 O 215.164 -1.94136 -0.262294 0
M  V30 2313 H 213.744 -0.316886 0.676456 0
M  V30 2314 H 216.406 -0.132608 1.94448 0
M  V30 2315 H 215.502 -1.40814 2.78528 0
M  V30 2316 N 215.803 -1.52179 -0.40978 0
M  V30 2317 C 216.75 -1.75475 -1.49924 0
M  V30 2318 C 217.72 -0.597175 -1.54994 0
M  V30 2319 O 218.905 -0.834655 -1.71575 0
M  V30 2320 C 216.045 -1.9107 -2.87378 0
M  V30 2321 C 215.158 -3.18717 -2.91622 0
M  V30 2322 C 214.293 -3.24747 -4.20372 0
M  V30 2323 C 213.332 -4.46598 -4.18588 0
M  V30 2324 N 212.469 -4.50025 -5.38908 0
M  V30 2325 H 217.309 -2.68458 -1.29361 0
M  V30 2326 H 214.846 -1.33024 -0.627934 0
M  V30 2327 H 216.804 -1.98096 -3.6717 0
M  V30 2328 H 215.434 -1.01469 -3.06437 0
M  V30 2329 H 214.486 -3.20866 -2.04326 0
M  V30 2330 H 215.798 -4.08544 -2.86169 0
M  V30 2331 H 214.952 -3.30841 -5.08556 0
M  V30 2332 H 213.691 -2.32857 -4.28519 0
M  V30 2333 H 212.696 -4.40652 -3.28794 0
M  V30 2334 H 213.921 -5.39783 -4.12081 0
M  V30 2335 H 211.867 -3.61017 -5.47725 0
M  V30 2336 H 211.784 -5.33697 -5.35447 0
M  V30 2337 H 213.052 -4.60347 -6.29048 0
M  V30 2338 N 217.281 0.66697 -1.42791 0
M  V30 2339 C 218.53 1.42278 -1.42968 0
M  V30 2340 C 218.843 1.9553 -0.0524489 0
M  V30 2341 O 220.049 2.71414 0.068363 0
M  V30 2342 C 218.505 2.57418 -2.51524 0
M  V30 2343 C 218.113 2.10832 -3.9529 0
M  V30 2344 C 219.857 3.34878 -2.60877 0
M  V30 2345 C 217.764 3.23101 -4.95338 0
M  V30 2346 H 216.694 0.534533 -0.531781 0
M  V30 2347 H 219.345 0.721302 -1.68729 0
M  V30 2348 H 217.727 3.29971 -2.18941 0
M  V30 2349 H 218.901 1.4538 -4.37266 0
M  V30 2350 H 217.216 1.46289 -3.89857 0
M  V30 2351 H 219.813 4.18505 -3.32802 0
M  V30 2352 H 220.156 3.81993 -1.6549 0
M  V30 2353 H 220.689 2.69398 -2.92693 0
M  V30 2354 H 217.428 2.80969 -5.9223 0
M  V30 2355 H 216.948 3.87309 -4.57987 0
M  V30 2356 H 218.627 3.88447 -5.17415 0
M  V30 2357 N 218.759 1.29093 0.90403 0
M  V30 2358 C 219.984 1.19809 1.69294 0
M  V30 2359 C 220.409 -0.238481 1.86582 0
M  V30 2360 O 219.767 -1.1723 1.383 0
M  V30 2361 C 219.815 1.91202 3.05736 0
M  V30 2362 O 218.919 1.22611 3.93752 0
M  V30 2363 H 218.26 0.415385 0.518027 0
M  V30 2364 H 220.79 1.70586 1.12967 0
M  V30 2365 H 220.8 1.99487 3.55906 0
M  V30 2366 H 219.475 2.95692 2.92471 0
M  V30 2367 H 218.052 1.22554 3.52186 0
M  V30 2368 N 220.237 -1.11381 1.11499 0
M  V30 2369 C 221.484 -1.83132 0.864231 0
M  V30 2370 C 221.812 -1.84683 -0.610114 0
M  V30 2371 O 221.067 -1.29589 -1.46646 0
M  V30 2372 C 221.366 -3.30026 1.37177 0
M  V30 2373 C 221.032 -3.48634 2.85946 0
M  V30 2374 C 219.694 -3.53421 3.26569 0
M  V30 2375 C 222.046 -3.54837 3.81759 0
M  V30 2376 C 219.374 -3.61967 4.61733 0
M  V30 2377 C 221.726 -3.64915 5.1674 0
M  V30 2378 C 220.39 -3.67962 5.5692 0
M  V30 2379 H 219.66 -0.670127 0.316245 0
M  V30 2380 H 222.307 -1.31354 1.3935 0
M  V30 2381 H 220.612 -3.84304 0.762753 0
M  V30 2382 H 222.309 -3.84034 1.15408 0
M  V30 2383 H 218.899 -3.45579 2.53521 0
M  V30 2384 H 223.083 -3.50399 3.51474 0
M  V30 2385 H 218.339 -3.62603 4.92269 0
M  V30 2386 H 222.513 -3.68658 5.90816 0
M  V30 2387 H 220.14 -3.74336 6.61647 0
M  V30 2388 N 221.715 -0.905404 -1.28997 0
M  V30 2389 C 222.625 -0.392246 -2.31298 0
M  V30 2390 C 223.641 0.515889 -1.66176 0
M  V30 2391 O 224.817 0.404093 -1.97304 0
M  V30 2392 C 221.882 0.36686 -3.44754 0
M  V30 2393 C 220.943 -0.573485 -4.25452 0
M  V30 2394 C 220.176 0.149488 -5.33491 0
M  V30 2395 O 220.399 1.37255 -5.5364 0
M  V30 2396 O 219.333 -0.510919 -5.99728 0
M  V30 2397 H 223.159 -1.2411 -2.77183 0
M  V30 2398 H 220.744 -0.669926 -1.33538 0
M  V30 2399 H 222.626 0.795907 -4.13816 0
M  V30 2400 H 221.301 1.19169 -3.00966 0
M  V30 2401 H 220.208 -1.05176 -3.59011 0
M  V30 2402 H 221.541 -1.36489 -4.72897 0
M  V30 2403 N 223.193 1.4272 -0.668489 0
M  V30 2404 C 224.103 2.34596 0.0139753 0
M  V30 2405 C 225.119 1.5474 0.795703 0
M  V30 2406 O 226.295 1.87334 0.739466 0
M  V30 2407 C 223.36 3.33202 0.957982 0
M  V30 2408 C 222.421 4.28957 0.17149 0
M  V30 2409 C 221.654 5.22853 1.07053 0
M  V30 2410 O 221.877 5.21531 2.31001 0
M  V30 2411 O 220.811 5.9952 0.534727 0
M  V30 2412 H 224.637 2.9448 -0.742661 0
M  V30 2413 H 222.222 1.43117 -0.428705 0
M  V30 2414 H 224.104 3.93796 1.50008 0
M  V30 2415 H 222.779 2.758 1.69458 0
M  V30 2416 H 221.686 3.71796 -0.414558 0
M  V30 2417 H 223.019 4.89383 -0.52586 0
M  V30 2418 N 224.671 0.411399 1.52136 0
M  V30 2419 C 225.918 -0.163645 2.01838 0
M  V30 2420 C 226.246 -1.4495 1.29691 0
M  V30 2421 O 225.501 -1.91725 0.392431 0
M  V30 2422 C 225.8 -0.455872 3.54481 0
M  V30 2423 C 225.466 0.741055 4.44769 0
M  V30 2424 C 224.128 1.06936 4.69167 0
M  V30 2425 C 226.48 1.54075 4.97906 0
M  V30 2426 C 223.808 2.19851 5.43951 0
M  V30 2427 C 226.16 2.66067 5.73926 0
M  V30 2428 C 224.824 2.99381 5.96596 0
M  V30 2429 H 224.094 -0.0598821 0.738576 0
M  V30 2430 H 226.741 0.553283 1.83333 0
M  V30 2431 H 225.046 -1.2544 3.71177 0
M  V30 2432 H 226.743 -0.913802 3.90449 0
M  V30 2433 H 223.333 0.475192 4.25958 0
M  V30 2434 H 227.517 1.30033 4.78963 0
M  V30 2435 H 222.773 2.46006 5.59724 0
M  V30 2436 H 226.947 3.28419 6.14096 0
M  V30 2437 H 224.574 3.86992 6.54325 0
M  V30 2438 N 226.149 -1.5696 0.141893 0
M  V30 2439 C 227.374 -2.00754 -0.520838 0
M  V30 2440 C 227.799 -1.0213 -1.57959 0
M  V30 2441 O 227.157 0.00371324 -1.813 0
M  V30 2442 C 227.205 -3.43318 -1.10294 0
M  V30 2443 O 226.309 -3.47679 -2.21795 0
M  V30 2444 H 225.65 -0.651564 -0.127908 0
M  V30 2445 H 228.18 -2.03221 0.23712 0
M  V30 2446 H 228.19 -3.82012 -1.43287 0
M  V30 2447 H 226.865 -4.14608 -0.327574 0
M  V30 2448 H 225.442 -3.20824 -1.9007 0
M  V30 2449 N 227.627 0.131896 -1.57047 0
M  V30 2450 C 228.59 1.14638 -1.98471 0
M  V30 2451 C 229.59 1.35029 -0.873148 0
M  V30 2452 O 230.78 1.31764 -1.13946 0
M  V30 2453 C 227.912 2.50358 -2.31373 0
M  V30 2454 H 229.105 0.79064 -2.8929 0
M  V30 2455 H 226.658 0.375761 -1.51716 0
M  V30 2456 H 227.393 2.90876 -1.43393 0
M  V30 2457 H 227.178 2.36915 -3.12432 0
M  V30 2458 H 228.668 3.23395 -2.64207 0
M  V30 2459 N 229.106 1.52395 0.401703 0
M  V30 2460 C 230.352 1.67065 1.14966 0
M  V30 2461 C 230.685 0.403052 1.89971 0
M  V30 2462 O 229.96 -0.598774 1.85054 0
M  V30 2463 C 230.243 2.8975 2.13815 0
M  V30 2464 C 230.096 4.26578 1.42658 0
M  V30 2465 C 231.415 3.07965 3.14397 0
M  V30 2466 H 228.534 0.607968 0.416587 0
M  V30 2467 H 231.176 1.84965 0.434511 0
M  V30 2468 H 229.326 2.74619 2.74803 0
M  V30 2469 H 230.998 4.53451 0.847329 0
M  V30 2470 H 229.241 4.27639 0.72849 0
M  V30 2471 H 229.912 5.08483 2.14823 0
M  V30 2472 H 232.388 3.22043 2.63491 0
M  V30 2473 H 231.264 3.95308 3.80819 0
M  V30 2474 H 231.525 2.21611 3.82545 0
M  V30 2475 N 230.584 -0.659388 1.43143 0
M  V30 2476 C 231.83 -1.42145 1.44647 0
M  V30 2477 C 232.163 -1.9408 0.0681907 0
M  V30 2478 O 231.438 -1.71899 -0.910007 0
M  V30 2479 C 231.721 -2.60735 2.48373 0
M  V30 2480 C 231.574 -2.14332 3.95451 0
M  V30 2481 C 232.893 -3.62951 2.48906 0
M  V30 2482 H 230.012 -0.51552 0.526696 0
M  V30 2483 H 232.654 -0.748069 1.74654 0
M  V30 2484 H 230.804 -3.18184 2.22916 0
M  V30 2485 H 232.476 -1.61932 4.31944 0
M  V30 2486 H 230.719 -1.4576 4.08578 0
M  V30 2487 H 231.39 -2.99583 4.63631 0
M  V30 2488 H 233.866 -3.1525 2.71582 0
M  V30 2489 H 232.742 -4.43487 3.23435 0
M  V30 2490 H 233.003 -4.15126 1.52061 0
M  V30 2491 N 232.062 -1.29571 -0.897171 0
M  V30 2492 C 233.478 -1.07637 -1.17841 0
M  V30 2493 C 233.678 0.170713 -2.00776 0
M  V30 2494 O 232.734 0.867768 -2.3712 0
M  V30 2495 C 234.047 -2.3332 -1.8969 0
M  V30 2496 C 235.595 -2.38664 -2.02505 0
M  V30 2497 C 236.07 -3.64157 -2.77765 0
M  V30 2498 N 237.561 -3.64894 -2.85318 0
M  V30 2499 C 238.296 -4.58679 -3.44094 0
M  V30 2500 N 237.792 -5.62799 -4.04017 0
M  V30 2501 N 239.585 -4.46245 -3.41793 0
M  V30 2502 H 231.736 -2.09598 -0.343883 0
M  V30 2503 H 233.999 -0.923333 -0.214848 0
M  V30 2504 H 233.705 -3.24262 -1.36187 0
M  V30 2505 H 233.579 -2.41025 -2.9015 0
M  V30 2506 H 235.966 -1.48208 -2.55183 0
M  V30 2507 H 236.047 -2.34943 -1.01171 0
M  V30 2508 H 235.691 -4.54965 -2.25763 0
M  V30 2509 H 235.621 -3.65137 -3.7945 0
M  V30 2510 H 238.112 -2.89613 -2.42761 0
M  V30 2511 H 238.425 -6.3048 -4.46895 0
M  V30 2512 H 236.77 -5.66605 -4.02472 0
M  V30 2513 H 239.961 -3.64094 -2.94199 0
M  V30 2514 H 240.134 -5.19518 -3.87304 0
M  V30 2515 N 233.54 1.10788 -1.12088 0
M  V30 2516 C 234.817 1.79136 -0.785476 0
M  V30 2517 C 235.197 1.98246 0.725377 0
M  V30 2518 O 234.545 1.57258 1.65778 0
M  V30 2519 C 234.755 3.12375 -1.55636 0
M  V30 2520 C 236.103 3.8731 -1.74001 0
M  V30 2521 O 237.127 3.22085 -1.52117 0
M  V30 2522 O 235.986 5.04369 -2.10415 0
M  V30 2523 H 233.08 0.776226 -0.285311 0
M  V30 2524 H 235.626 1.1747 -1.2247 0
M  V30 2525 H 234.398 2.93863 -2.5838 0
M  V30 2526 H 234.021 3.81758 -1.11114 0
M  V30 2527 N 235.018 0.912232 1.28515 0
M  V30 2528 C 235.948 0.416403 2.29757 0
M  V30 2529 C 236.929 -0.515194 1.6211 0
M  V30 2530 O 238.114 -0.423253 1.89532 0
M  V30 2531 C 235.244 -0.34572 3.45575 0
M  V30 2532 C 234.198 0.496599 4.25109 0
M  V30 2533 C 233.524 -0.393771 5.33248 0
M  V30 2534 C 234.824 1.75307 4.92001 0
M  V30 2535 H 236.518 1.26249 2.7148 0
M  V30 2536 H 234.064 0.608515 1.30511 0
M  V30 2537 H 236.017 -0.703422 4.15488 0
M  V30 2538 H 234.741 -1.2257 3.02728 0
M  V30 2539 H 233.4 0.8368 3.56922 0
M  V30 2540 H 233.048 -1.27225 4.86644 0
M  V30 2541 H 232.748 0.166209 5.87365 0
M  V30 2542 H 234.272 -0.747389 6.06009 0
M  V30 2543 H 235.686 1.46437 5.54283 0
M  V30 2544 H 234.083 2.25534 5.56106 0
M  V30 2545 H 235.153 2.48176 4.16577 0
M  V30 2546 N 236.496 -1.42363 0.676048 0
M  V30 2547 C 237.406 -2.346 -0.00153389 0
M  V30 2548 C 238.422 -1.5516 -0.787485 0
M  V30 2549 O 239.598 -1.87723 -0.729521 0
M  V30 2550 C 236.663 -3.33705 -0.940298 0
M  V30 2551 C 235.724 -4.29042 -0.148739 0
M  V30 2552 C 234.957 -5.23413 -1.04279 0
M  V30 2553 O 235.18 -5.22749 -2.28232 0
M  V30 2554 O 234.114 -5.99795 -0.502925 0
M  V30 2555 H 237.94 -2.94082 0.758268 0
M  V30 2556 H 235.525 -1.42888 0.436289 0
M  V30 2557 H 237.407 -3.94586 -1.47917 0
M  V30 2558 H 236.082 -2.76695 -1.67993 0
M  V30 2559 H 234.989 -3.71571 0.43427 0
M  V30 2560 H 236.322 -4.89097 0.551805 0
M  V30 2561 N 237.974 -0.419461 -1.51915 0
M  V30 2562 C 239.223 0.154346 -2.01109 0
M  V30 2563 C 239.536 1.45338 -1.30905 0
M  V30 2564 O 240.742 2.10906 -1.7097 0
M  V30 2565 C 239.198 0.325615 -3.58424 0
M  V30 2566 C 238.806 -0.961934 -4.37551 0
M  V30 2567 C 240.55 0.854155 -4.15818 0
M  V30 2568 C 238.457 -0.757287 -5.86531 0
M  V30 2569 H 237.387 0.0614563 -0.751491 0
M  V30 2570 H 240.038 -0.54649 -1.75173 0
M  V30 2571 H 238.42 1.08903 -3.80731 0
M  V30 2572 H 239.594 -1.7323 -4.26999 0
M  V30 2573 H 237.909 -1.41766 -3.91524 0
M  V30 2574 H 240.506 1.02346 -5.24814 0
M  V30 2575 H 240.849 1.83172 -3.73837 0
M  V30 2576 H 241.382 0.149528 -3.97519 0
M  V30 2577 H 238.121 -1.70671 -6.32892 0
M  V30 2578 H 237.641 -0.0264061 -5.99794 0
M  V30 2579 H 239.32 -0.403482 -6.45741 0
M  V30 2580 N 239.452 1.56882 -0.150215 0
M  V30 2581 C 240.402 2.13501 0.800071 0
M  V30 2582 C 241.386 1.06368 1.20726 0
M  V30 2583 O 242.578 1.32538 1.17314 0
M  V30 2584 C 239.707 2.76271 2.03787 0
M  V30 2585 C 238.793 3.90533 1.65364 0
M  V30 2586 N 239.184 4.96259 0.977794 0
M  V30 2587 C 237.482 4.013 1.94613 0
M  V30 2588 C 238.183 5.76286 0.791794 0
M  V30 2589 N 237.159 5.27163 1.32666 0
M  V30 2590 H 240.961 2.92615 0.274517 0
M  V30 2591 H 238.475 1.62319 0.0512144 0
M  V30 2592 H 240.472 3.15197 2.72867 0
M  V30 2593 H 239.132 1.98631 2.56857 0
M  V30 2594 H 240.143 5.13953 0.638193 0
M  V30 2595 H 236.82 3.3474 2.4951 0
M  V30 2596 H 238.21 6.71401 0.258894 0
M  V30 2597 N 240.93 -0.123565 1.57115 0
M  V30 2598 C 241.877 -1.15177 2.00007 0
M  V30 2599 C 242.847 -1.41403 0.871454 0
M  V30 2600 O 244.032 -1.53346 1.13533 0
M  V30 2601 C 241.172 -2.47436 2.40561 0
M  V30 2602 C 240.285 -2.28184 3.66819 0
M  V30 2603 C 239.42 -3.53641 3.96373 0
M  V30 2604 C 238.459 -3.29528 5.15827 0
M  V30 2605 N 237.596 -4.47175 5.41275 0
M  V30 2606 H 242.436 -0.779008 2.87638 0
M  V30 2607 H 239.973 -0.373166 1.42288 0
M  V30 2608 H 241.931 -3.24584 2.62109 0
M  V30 2609 H 240.561 -2.82614 1.55978 0
M  V30 2610 H 239.613 -1.41976 3.52912 0
M  V30 2611 H 240.925 -2.0634 4.5412 0
M  V30 2612 H 240.079 -4.39209 4.18545 0
M  V30 2613 H 238.818 -3.78512 3.07538 0
M  V30 2614 H 237.823 -2.42349 4.93505 0
M  V30 2615 H 239.048 -3.06031 6.06236 0
M  V30 2616 H 236.994 -4.72175 4.55397 0
M  V30 2617 H 236.911 -4.28419 6.22891 0
M  V30 2618 H 238.179 -5.3389 5.67963 0
M  V30 2619 N 242.408 -1.52605 -0.393616 0
M  V30 2620 C 243.355 -1.77055 -1.48054 0
M  V30 2621 C 244.325 -0.61358 -1.54352 0
M  V30 2622 O 245.51 -0.852806 -1.70681 0
M  V30 2623 C 242.65 -1.94108 -2.85335 0
M  V30 2624 C 241.763 -3.21792 -2.88226 0
M  V30 2625 C 240.898 -3.29188 -4.16904 0
M  V30 2626 C 239.937 -4.51013 -4.13828 0
M  V30 2627 N 239.074 -4.55716 -5.34105 0
M  V30 2628 H 243.914 -2.69815 -1.26506 0
M  V30 2629 H 241.451 -1.33683 -0.61379 0
M  V30 2630 H 243.409 -2.01979 -3.65049 0
M  V30 2631 H 242.039 -1.04713 -3.05344 0
M  V30 2632 H 241.091 -3.23015 -2.00911 0
M  V30 2633 H 242.403 -4.11557 -2.8182 0
M  V30 2634 H 241.557 -3.36216 -5.05018 0
M  V30 2635 H 240.296 -2.37389 -4.26026 0
M  V30 2636 H 239.301 -4.44115 -3.24102 0
M  V30 2637 H 240.526 -5.44123 -4.06333 0
M  V30 2638 H 238.472 -3.66807 -5.43865 0
M  V30 2639 H 238.389 -5.39346 -5.29756 0
M  V30 2640 H 239.657 -4.66993 -6.2413 0
M  V30 2641 N 243.887 0.651787 -1.4349 0
M  V30 2642 C 244.817 1.77621 -1.51569 0
M  V30 2643 C 245.798 1.66022 -0.370253 0
M  V30 2644 O 246.983 1.85095 -0.587658 0
M  V30 2645 C 244.113 3.16056 -1.43966 0
M  V30 2646 C 243.067 3.4242 -2.56774 0
M  V30 2647 C 242.393 4.8067 -2.34223 0
M  V30 2648 C 243.693 3.37023 -3.99015 0
M  V30 2649 H 245.387 1.71117 -2.45681 0
M  V30 2650 H 242.933 0.821825 -1.18246 0
M  V30 2651 H 244.886 3.94472 -1.48221 0
M  V30 2652 H 243.61 3.23293 -0.463586 0
M  V30 2653 H 242.269 2.66375 -2.51873 0
M  V30 2654 H 241.917 4.84585 -1.34856 0
M  V30 2655 H 241.617 4.9927 -3.09844 0
M  V30 2656 H 243.141 5.61342 -2.40265 0
M  V30 2657 H 244.555 4.05374 -4.05395 0
M  V30 2658 H 242.952 3.67159 -4.74673 0
M  V30 2659 H 244.022 2.3518 -4.2405 0
M  V30 2660 N 245.365 1.30045 0.890287 0
M  V30 2661 C 246.611 1.18737 1.64406 0
M  V30 2662 C 246.944 -0.258525 1.92472 0
M  V30 2663 O 246.219 -1.18562 1.54186 0
M  V30 2664 C 246.502 2.01087 2.98724 0
M  V30 2665 C 246.355 3.53867 2.77665 0
M  V30 2666 C 247.674 1.84457 3.9958 0
M  V30 2667 H 244.793 0.432698 0.596608 0
M  V30 2668 H 247.435 1.5962 1.0306 0
M  V30 2669 H 245.585 1.66349 3.51084 0
M  V30 2670 H 247.257 3.98637 2.32133 0
M  V30 2671 H 245.5 3.78318 2.12269 0
M  V30 2672 H 246.171 4.06772 3.7315 0
M  V30 2673 H 248.647 2.14817 3.56361 0
M  V30 2674 H 247.523 2.44411 4.91482 0
M  V30 2675 H 247.784 0.802276 4.3476 0
M  V30 2676 N 246.843 -1.10192 1.12674 0
M  V30 2677 C 247.773 -2.18652 0.819362 0
M  V30 2678 C 248.754 -1.68698 -0.217915 0
M  V30 2679 O 249.939 -1.94041 -0.0785581 0
M  V30 2680 C 247.069 -3.46202 0.27594 0
M  V30 2681 C 246.023 -4.09444 1.24656 0
M  V30 2682 C 245.349 -5.31725 0.563258 0
M  V30 2683 C 246.649 -4.52863 2.60217 0
M  V30 2684 H 248.343 -2.44622 1.72628 0
M  V30 2685 H 245.889 -1.17571 0.831451 0
M  V30 2686 H 247.842 -4.21372 0.0486149 0
M  V30 2687 H 246.566 -3.1973 -0.666331 0
M  V30 2688 H 245.225 -3.36284 1.45974 0
M  V30 2689 H 244.873 -5.0153 -0.384235 0
M  V30 2690 H 244.573 -5.74991 1.21075 0
M  V30 2691 H 246.097 -6.09624 0.34503 0
M  V30 2692 H 247.511 -5.19294 2.42913 0
M  V30 2693 H 245.908 -5.06986 3.21068 0
M  V30 2694 H 246.978 -3.65656 3.18471 0
M  V30 2695 N 248.321 -0.919034 -1.28029 0
M  V30 2696 C 249.57 -0.550802 -1.94034 0
M  V30 2697 C 249.883 0.910877 -1.73096 0
M  V30 2698 O 251.089 1.3875 -2.33368 0
M  V30 2699 C 249.545 -0.934249 -3.47563 0
M  V30 2700 C 249.153 -2.41602 -3.7727 0
M  V30 2701 C 250.897 -0.636854 -4.19696 0
M  V30 2702 C 248.804 -2.73932 -5.24133 0
M  V30 2703 H 247.734 -0.202273 -0.726362 0
M  V30 2704 H 250.385 -1.11867 -1.45458 0
M  V30 2705 H 248.767 -0.295115 -3.94899 0
M  V30 2706 H 249.941 -3.10233 -3.40723 0
M  V30 2707 H 248.256 -2.68441 -3.18321 0
M  V30 2708 H 250.853 -0.855005 -5.2782 0
M  V30 2709 H 251.196 0.425575 -4.14119 0
M  V30 2710 H 251.729 -1.23469 -3.78154 0
M  V30 2711 H 248.468 -3.79049 -5.34792 0
M  V30 2712 H 247.988 -2.09942 -5.61858 0
M  V30 2713 H 249.667 -2.61215 -5.91925 0
M  V30 2714 N 249.799 1.42003 -0.683588 0
M  V30 2715 C 251.045 2.01712 -0.209825 0
M  V30 2716 C 251.378 1.53968 1.18353 0
M  V30 2717 O 250.653 0.745661 1.79639 0
M  V30 2718 C 250.936 3.59202 -0.254197 0
M  V30 2719 C 250.789 4.17102 -1.68363 0
M  V30 2720 C 252.108 4.38344 0.392709 0
M  V30 2721 H 249.227 0.732891 -0.0777189 0
M  V30 2722 H 251.869 1.68909 -0.87004 0
M  V30 2723 H 250.019 3.87278 0.307954 0
M  V30 2724 H 251.691 3.99946 -2.29871 0
M  V30 2725 H 249.934 3.72597 -2.22157 0
M  V30 2726 H 250.605 5.26249 -1.6663 0
M  V30 2727 H 253.081 4.16011 -0.0859162 0
M  V30 2728 H 251.957 5.47901 0.331063 0
M  V30 2729 H 252.218 4.16887 1.47164 0
M  V30 2730 O 251.316 0.569597 1.51122 0
M  V30 2731 H 252.007 0.0705798 1.93571 0
M  V30 END ATOM
M  V30 BEGIN BOND
M  V30 END BOND
M  V30 END CTAB
M  END
$$$$
