drugbank_target|Q96MA6 Adenylate kinase 8 (DB01717)
 OpenBabel12092120553D

  0  0  0     0  0            999 V3000
M  V30 BEGIN CTAB
M  V30 COUNTS 7781 7869 0 0 0
M  V30 BEGIN ATOM
M  V30 1 H -0.908 1.98254 -0.117106 0
M  V30 2 N 0 1.576 0 0
M  V30 3 C 0.933 2.03868 1.02534 0
M  V30 4 C 1.911 0.928543 1.3348 0
M  V30 5 O 3.095 1.19667 1.45644 0
M  V30 6 C 0.222 2.43627 2.35294 0
M  V30 7 C -0.732 3.65373 2.2001 0
M  V30 8 S 0.101 5.13292 1.52614 0
M  V30 9 C 1.257 5.56322 2.86805 0
M  V30 10 H 1.49 2.90518 0.631377 0
M  V30 11 H -0.977 1.52953 0.210867 0
M  V30 12 H 0.981 2.67203 3.11629 0
M  V30 13 H -0.358 1.57376 2.7183 0
M  V30 14 H -1.165 3.90944 3.18086 0
M  V30 15 H -1.563 3.418 1.51819 0
M  V30 16 H 0.729 5.58782 3.83104 0
M  V30 17 H 1.672 6.56266 2.65933 0
M  V30 18 H 2.08 4.83886 2.90714 0
M  V30 19 N 1.4781 -0.272755 1.55222 0
M  V30 20 C 2.7551 -1.02562 1.66555 0
M  V30 21 C 3.1351 -2.04282 0.532189 0
M  V30 22 O 2.4831 -2.23662 -0.467717 0
M  V30 23 C 2.6931 -1.6822 3.05782 0
M  V30 24 C 4.0411 -2.19373 3.63539 0
M  V30 25 O 5.0651 -1.78206 3.08417 0
M  V30 26 O 3.9241 -2.94883 4.60115 0
M  V30 27 H 1.0181 -0.475755 0.676451 0
M  V30 28 H 3.5641 -0.268593 1.67561 0
M  V30 29 H 2.3361 -0.945112 3.79715 0
M  V30 30 H 1.9591 -2.50609 3.08676 0
M  V30 31 N 2.9562 -1.48159 -0.537278 0
M  V30 32 C 3.9192 -1.61665 -1.62472 0
M  V30 33 C 4.9192 -0.490395 -1.5314 0
M  V30 34 O 6.1092 -0.755998 -1.5694 0
M  V30 35 C 3.2412 -1.57997 -3.02076 0
M  V30 36 H 4.4342 -2.58621 -1.51839 0
M  V30 37 H 1.9872 -1.36647 -0.758771 0
M  V30 38 H 2.7222 -0.624913 -3.18222 0
M  V30 39 H 2.5072 -2.39755 -3.10258 0
M  V30 40 H 3.9972 -1.70627 -3.81151 0
M  V30 41 N 4.4343 0.785586 -1.36625 0
M  V30 42 C 5.6623 1.57448 -1.3423 0
M  V30 43 C 6.0773 1.88649 0.0755653 0
M  V30 44 O 5.4343 1.50414 1.03354 0
M  V30 45 C 5.4853 2.89316 -2.16745 0
M  V30 46 O 5.2063 2.59459 -3.53005 0
M  V30 47 C 6.7073 3.83606 -2.22174 0
M  V30 48 H 3.9273 0.488226 -0.4603 0
M  V30 49 H 6.4713 0.974733 -1.79775 0
M  V30 50 H 4.6263 3.4575 -1.74745 0
M  V30 51 H 5.0403 3.43804 -3.96105 0
M  V30 52 H 6.5143 4.73181 -2.8426 0
M  V30 53 H 6.9913 4.21734 -1.22627 0
M  V30 54 H 7.5973 3.33104 -2.64427 0
M  V30 55 N 5.9124 1.20967 1.01018 0
M  V30 56 C 7.1614 1.01796 1.74128 0
M  V30 57 C 7.4744 -0.449691 1.90361 0
M  V30 58 O 8.6804 -0.76068 2.60626 0
M  V30 59 C 7.1364 1.7727 3.13215 0
M  V30 60 C 6.7444 3.28171 3.04972 0
M  V30 61 C 8.4884 1.66489 3.90489 0
M  V30 62 C 6.3954 3.96156 4.39107 0
M  V30 63 H 5.3254 0.377276 0.652824 0
M  V30 64 H 7.9764 1.44651 1.12909 0
M  V30 65 H 6.3584 1.27205 3.75013 0
M  V30 66 H 7.5324 3.85499 2.52443 0
M  V30 67 H 5.8474 3.39437 2.41188 0
M  V30 68 H 8.4444 2.14617 4.89738 0
M  V30 69 H 8.7874 0.6222 4.11624 0
M  V30 70 H 9.3204 2.14003 3.35332 0
M  V30 71 H 6.0594 5.00604 4.23174 0
M  V30 72 H 5.5794 3.43617 4.91617 0
M  V30 73 H 7.2584 4.00774 5.07926 0
M  V30 74 N 7.3905 -1.2043 1.01659 0
M  V30 75 C 8.3535 -2.21433 0.591616 0
M  V30 76 C 9.3535 -1.57203 -0.338226 0
M  V30 77 O 10.5435 -1.73737 -0.126918 0
M  V30 78 C 7.6755 -3.40628 -0.136058 0
M  V30 79 H 8.8685 -2.60545 1.48514 0
M  V30 80 H 6.4215 -1.33893 0.806379 0
M  V30 81 H 7.1565 -3.07019 -1.04449 0
M  V30 82 H 6.9415 -3.88475 0.531917 0
M  V30 83 H 8.4315 -4.15475 -0.420735 0
M  V30 84 N 8.8686 -0.792821 -1.36206 0
M  V30 85 C 10.2796 -0.429513 -1.81692 0
M  V30 86 C 10.6306 1.04695 -1.65932 0
M  V30 87 O 9.7556 1.81256 -1.18218 0
M  V30 88 C 10.3506 -0.772831 -3.29868 0
M  V30 89 C 8.9096 -0.462307 -3.7355 0
M  V30 90 C 8.0566 -1.00569 -2.5842 0
M  V30 91 H 11.0076 -0.985672 -1.24379 0
M  V30 92 H 11.0286 -0.0651928 -3.80444 0
M  V30 93 H 10.5406 -1.84747 -3.41307 0
M  V30 94 H 8.6416 0.604158 -3.67669 0
M  V30 95 H 8.7546 -0.985299 -4.68859 0
M  V30 96 H 7.1186 -0.428734 -2.51066 0
M  V30 97 H 7.9016 -2.08616 -2.72643 0
M  V30 98 N 10.3467 1.47872 -0.545128 0
M  V30 99 C 11.2967 2.26842 0.229456 0
M  V30 100 C 12.2807 1.33626 0.896267 0
M  V30 101 O 13.4727 1.58063 0.79657 0
M  V30 102 C 10.6017 3.19089 1.26638 0
M  V30 103 C 9.6877 4.19783 0.603598 0
M  V30 104 N 10.0787 5.0479 -0.319405 0
M  V30 105 C 8.3767 4.3765 0.858989 0
M  V30 106 C 9.0777 5.77433 -0.703241 0
M  V30 107 N 8.0537 5.43566 -0.0608309 0
M  V30 108 H 11.8557 2.89947 -0.480391 0
M  V30 109 H 9.3697 1.58263 -0.364209 0
M  V30 110 H 11.3667 3.74337 1.83515 0
M  V30 111 H 10.0267 2.5754 1.97745 0
M  V30 112 H 11.0377 5.13244 -0.692889 0
M  V30 113 H 7.7147 3.87281 1.55948 0
M  V30 114 H 9.1047 6.55824 -1.46098 0
M  V30 115 N 11.8248 0.280983 1.55075 0
M  V30 116 C 13.2408 -0.0729964 1.59433 0
M  V30 117 C 13.4408 -1.5411 1.29817 0
M  V30 118 O 12.4968 -2.29086 1.06187 0
M  V30 119 C 13.8098 0.306921 2.9913 0
M  V30 120 C 15.3578 0.254023 3.11968 0
M  V30 121 C 15.8328 0.608467 4.5394 0
M  V30 122 N 17.3238 0.560241 4.59799 0
M  V30 123 C 18.0588 0.80722 5.6769 0
M  V30 124 N 17.5548 1.11912 6.83701 0
M  V30 125 N 19.3478 0.735623 5.57266 0
M  V30 126 H 11.4988 1.238 1.7259 0
M  V30 127 H 13.7618 0.500547 0.805082 0
M  V30 128 H 13.4678 1.32816 3.25657 0
M  V30 129 H 13.3418 -0.349363 3.75579 0
M  V30 130 H 15.7288 -0.75794 2.852 0
M  V30 131 H 15.8098 0.944649 2.37718 0
M  V30 132 H 15.4538 1.61814 4.81434 0
M  V30 133 H 15.3838 -0.104013 5.26497 0
M  V30 134 H 17.8748 0.329288 3.76463 0
M  V30 135 H 18.1878 1.29409 7.61888 0
M  V30 136 H 16.5328 1.15695 6.85303 0
M  V30 137 H 19.7238 0.491752 4.6551 0
M  V30 138 H 19.8968 0.931482 6.4127 0
M  V30 139 N 13.3029 -1.57598 0.00835791 0
M  V30 140 C 14.5519 -1.90107 -0.673968 0
M  V30 141 C 14.8649 -0.884275 -1.7447 0
M  V30 142 O 16.0709 -1.09987 -2.48224 0
M  V30 143 C 14.5269 -3.37497 -1.24995 0
M  V30 144 C 14.1349 -4.47491 -0.2136 0
M  V30 145 C 15.8789 -3.79104 -1.90999 0
M  V30 146 C 13.7859 -5.85963 -0.80005 0
M  V30 147 H 12.7159 -0.709393 -0.255495 0
M  V30 148 H 15.3669 -1.83365 0.0702693 0
M  V30 149 H 13.7489 -3.39102 -2.04513 0
M  V30 150 H 14.9229 -4.57414 0.557596 0
M  V30 151 H 13.2379 -4.14956 0.346474 0
M  V30 152 H 15.8349 -4.79901 -2.35795 0
M  V30 153 H 16.1779 -3.1306 -2.74407 0
M  V30 154 H 16.7109 -3.79833 -1.18203 0
M  V30 155 H 13.4499 -6.555 -0.00456708 0
M  V30 156 H 12.9699 -5.79687 -1.54021 0
M  V30 157 H 14.6489 -6.33884 -1.29615 0
M  V30 158 N 14.781 0.264519 -1.55364 0
M  V30 159 C 16.192 0.834936 -1.6699 0
M  V30 160 C 16.543 1.86718 -0.602552 0
M  V30 161 O 15.668 2.14899 0.254425 0
M  V30 162 C 16.263 1.5212 -3.02729 0
M  V30 163 C 14.822 2.03954 -3.16354 0
M  V30 164 C 13.969 0.884498 -2.62815 0
M  V30 165 H 16.92 0.0406869 -1.58648 0
M  V30 166 H 16.941 2.38853 -2.96191 0
M  V30 167 H 16.453 0.769668 -3.80392 0
M  V30 168 H 14.554 2.82041 -2.43482 0
M  V30 169 H 14.667 2.24902 -4.23032 0
M  V30 170 H 13.031 1.2802 -2.20188 0
M  V30 171 H 13.814 0.14634 -3.42988 0
M  V30 172 N 16.2591 1.48442 0.529413 0
M  V30 173 C 17.6701 1.5002 1.11134 0
M  V30 174 C 18.0211 0.27031 1.94329 0
M  V30 175 O 17.1461 -0.622507 2.07253 0
M  V30 176 C 17.7411 2.71834 2.02217 0
M  V30 177 C 16.3001 2.76283 2.55627 0
M  V30 178 C 15.4471 2.43542 1.326 0
M  V30 179 H 18.3981 1.5555 0.314641 0
M  V30 180 H 18.4191 2.50384 2.8651 0
M  V30 181 H 17.9311 3.61331 1.41639 0
M  V30 182 H 16.0321 1.90995 3.19924 0
M  V30 183 H 16.1451 3.77725 2.94721 0
M  V30 184 H 14.5091 1.94709 1.64196 0
M  V30 185 H 15.2921 3.3528 0.737734 0
M  V30 186 N 17.7372 -0.778329 1.37039 0
M  V30 187 C 18.6472 -1.92253 1.34446 0
M  V30 188 C 19.6632 -1.72267 0.244991 0
M  V30 189 O 20.8392 -1.95615 0.479258 0
M  V30 190 C 17.9042 -3.27282 1.144 0
M  V30 191 C 16.9652 -3.59969 2.33925 0
M  V30 192 C 16.1982 -4.88555 2.14825 0
M  V30 193 O 16.4212 -5.59113 1.12912 0
M  V30 194 O 15.3552 -5.20153 3.02861 0
M  V30 195 H 19.1812 -1.97392 2.30803 0
M  V30 196 H 16.7662 -0.920154 1.17701 0
M  V30 197 H 18.6482 -4.08062 1.05182 0
M  V30 198 H 17.3232 -3.23011 0.211124 0
M  V30 199 H 16.2302 -2.7945 2.48714 0
M  V30 200 H 17.5632 -3.68976 3.25757 0
M  V30 201 N 19.2153 -1.21501 -1.00376 0
M  V30 202 C 20.1483 -0.918669 -2.08892 0
M  V30 203 C 21.1263 0.134277 -1.62045 0
M  V30 204 O 22.3103 0.00504255 -1.88499 0
M  V30 205 C 19.4373 -0.379645 -3.36566 0
M  V30 206 C 18.4833 -1.41559 -4.02323 0
M  V30 207 S 19.3163 -2.98521 -4.44574 0
M  V30 208 C 20.4723 -2.46228 -5.75433 0
M  V30 209 H 20.7053 -1.83761 -2.33707 0
M  V30 210 H 18.2383 -1.04489 -1.13673 0
M  V30 211 H 20.1963 -0.0752195 -4.10431 0
M  V30 212 H 18.8573 0.518008 -3.09799 0
M  V30 213 H 18.0503 -0.988076 -4.9422 0
M  V30 214 H 17.6523 -1.66815 -3.34737 0
M  V30 215 H 19.9443 -1.86791 -6.51241 0
M  V30 216 H 20.8873 -3.36572 -6.22997 0
M  V30 217 H 21.2953 -1.87894 -5.32312 0
M  V30 218 N 20.6934 1.19889 -1.02296 0
M  V30 219 C 22.1044 1.71124 -0.746568 0
M  V30 220 C 22.4554 1.81939 0.734335 0
M  V30 221 O 21.5804 1.48639 1.57275 0
M  V30 222 C 22.1754 3.10804 -1.34857 0
M  V30 223 C 20.7344 3.59323 -1.1209 0
M  V30 224 C 19.8814 2.3635 -1.45031 0
M  V30 225 H 22.8324 1.04813 -1.19163 0
M  V30 226 H 22.8534 3.73186 -0.742437 0
M  V30 227 H 22.3654 3.029 -2.42638 0
M  V30 228 H 20.4664 3.7255 -0.0610337 0
M  V30 229 H 20.5794 4.4378 -1.80544 0
M  V30 230 H 18.9434 2.39399 -0.869487 0
M  V30 231 H 19.7264 2.31081 -2.53883 0
M  V30 232 N 22.1715 0.800033 1.35784 0
M  V30 233 C 23.1035 0.163596 2.28615 0
M  V30 234 C 24.1165 -0.633317 1.49976 0
M  V30 235 O 25.3055 -0.466754 1.72289 0
M  V30 236 C 22.4055 -0.790958 3.29541 0
M  V30 237 C 21.5785 -0.0418255 4.3738 0
M  V30 238 C 20.6375 -0.91389 5.18203 0
M  V30 239 O 19.6635 -0.367234 5.68014 0
M  V30 240 N 20.8655 -2.23682 5.35674 0
M  V30 241 H 23.6305 0.96105 2.83873 0
M  V30 242 H 21.1915 0.654894 1.48063 0
M  V30 243 H 23.1835 -1.37844 3.80501 0
M  V30 244 H 21.7535 -1.48925 2.74846 0
M  V30 245 H 20.9735 0.726813 3.87442 0
M  V30 246 H 22.2615 0.474719 5.06581 0
M  V30 247 H 21.6595 -2.70497 4.96838 0
M  V30 248 H 20.2165 -2.77369 5.89839 0
M  V30 249 N 23.6496 -1.47581 0.552962 0
M  V30 250 C 24.8796 -2.06575 0.0320091 0
M  V30 251 C 25.2876 -1.4067 -1.26525 0
M  V30 252 O 24.6306 -0.495808 -1.76883 0
M  V30 253 C 24.6926 -3.58705 -0.238913 0
M  V30 254 C 24.3566 -4.46625 0.968272 0
M  V30 255 C 25.3536 -4.85 1.87274 0
M  V30 256 C 23.0386 -4.88201 1.18175 0
M  V30 257 C 25.0326 -5.63745 2.9744 0
M  V30 258 C 22.7196 -5.66712 2.28651 0
M  V30 259 C 23.7176 -6.04394 3.18114 0
M  V30 260 O 23.4056 -6.81324 4.26676 0
M  V30 261 H 23.1376 -0.674763 0.0408689 0
M  V30 262 H 25.6916 -1.90634 0.764719 0
M  V30 263 H 23.9216 -3.72844 -1.02588 0
M  V30 264 H 25.6106 -3.99735 -0.704731 0
M  V30 265 H 26.3766 -4.53482 1.71984 0
M  V30 266 H 22.2556 -4.58339 0.494593 0
M  V30 267 H 25.7996 -5.93077 3.67296 0
M  V30 268 H 21.6966 -5.97642 2.43915 0
M  V30 269 H 22.4646 -6.99712 4.24671 0
M  V30 270 N 25.1277 -0.289203 -1.54924 0
M  V30 271 C 26.3757 0.322879 -1.99504 0
M  V30 272 C 26.6967 1.55313 -1.1791 0
M  V30 273 O 25.9667 1.94001 -0.272097 0
M  V30 274 H 24.5467 0.122291 -0.736922 0
M  V30 275 H 27.2087 -0.397802 -1.90797 0
M  V30 276 H 26.3047 0.603061 -3.06218 0
M  V30 277 N 26.6058 1.57591 -0.0167156 0
M  V30 278 C 27.5158 2.1291 0.98521 0
M  V30 279 C 28.5318 1.07834 1.36557 0
M  V30 280 O 29.7078 1.39826 1.44951 0
M  V30 281 C 26.7728 2.63512 2.25305 0
M  V30 282 C 25.8338 3.83256 1.93426 0
M  V30 283 C 25.0668 4.31435 3.14165 0
M  V30 284 O 25.2898 3.78851 4.26413 0
M  V30 285 O 24.2238 5.23416 2.97186 0
M  V30 286 H 28.0498 2.98772 0.544888 0
M  V30 287 H 25.6348 1.48012 0.203141 0
M  V30 288 H 27.5168 2.96183 2.99756 0
M  V30 289 H 26.1918 1.8074 2.68542 0
M  V30 290 H 25.0988 3.55531 1.16398 0
M  V30 291 H 26.4318 4.67153 1.55013 0
M  V30 292 N 28.0839 -0.256276 1.55502 0
M  V30 293 C 28.9939 -1.33882 1.92647 0
M  V30 294 C 30.0099 -1.53159 0.825727 0
M  V30 295 O 31.1859 -1.66963 1.12629 0
M  V30 296 C 28.2509 -2.6751 2.20543 0
M  V30 297 C 27.3119 -2.56836 3.43997 0
M  V30 298 C 26.5449 -3.84092 3.70553 0
M  V30 299 O 26.7679 -4.85545 2.99336 0
M  V30 300 O 25.7019 -3.83288 4.64084 0
M  V30 301 H 29.5279 -1.05374 2.84833 0
M  V30 302 H 27.1129 -0.456237 1.42263 0
M  V30 303 H 28.9949 -3.46492 2.39835 0
M  V30 304 H 27.6699 -2.9577 1.31536 0
M  V30 305 H 26.5769 -1.76172 3.30021 0
M  V30 306 H 27.9099 -2.33523 4.33275 0
M  V30 307 N 29.562 -1.4872 -0.521534 0
M  V30 308 C 30.51 -1.64328 -1.64618 0
M  V30 309 C 31.504 -0.50953 -1.61555 0
M  V30 310 O 32.71 -0.688525 -1.66311 0
M  V30 311 H 29.085 -0.517805 -0.545328 0
M  V30 312 H 31.056 -2.58767 -1.48601 0
M  V30 313 C 29.805 -1.70805 -3.02855 0
M  V30 314 H 29.128 -2.5741 -3.05909 0
M  V30 315 H 30.568 -1.85766 -3.81139 0
M  V30 316 C 29.027 -0.448479 -3.33902 0
M  V30 317 O 29.557 0.434928 -3.99339 0
M  V30 318 N 27.763 -0.317616 -2.88859 0
M  V30 319 H 27.31 -1.03748 -2.35784 0
M  V30 320 H 27.268 0.524113 -3.10001 0
M  V30 321 N 31.0401 0.771051 -1.3745 0
M  V30 322 C 31.9901 1.87456 -1.29785 0
M  V30 323 C 32.9741 1.59827 -0.185541 0
M  V30 324 O 34.1661 1.71945 -0.419997 0
M  V30 325 C 31.2951 3.24935 -1.1078 0
M  V30 326 C 30.3811 3.58514 -2.26558 0
M  V30 327 N 30.7721 3.6327 -3.5195 0
M  V30 328 C 29.0701 3.88683 -2.18727 0
M  V30 329 C 29.7711 3.93616 -4.283 0
M  V30 330 N 28.7471 4.09551 -3.57448 0
M  V30 331 H 32.5491 1.89386 -2.24745 0
M  V30 332 H 30.0631 0.967531 -1.30432 0
M  V30 333 H 32.0601 4.03881 -1.03374 0
M  V30 334 H 30.7201 3.24268 -0.16738 0
M  V30 335 H 31.7311 3.45458 -3.85848 0
M  V30 336 H 28.4081 3.95834 -1.32746 0
M  V30 337 H 29.7981 4.04066 -5.36824 0
M  V30 338 N 32.5182 1.22032 0.997298 0
M  V30 339 C 33.7672 1.03637 1.73038 0
M  V30 340 C 34.0802 -0.429475 1.90827 0
M  V30 341 O 35.2862 -0.732995 2.61418 0
M  V30 342 C 33.7422 1.80582 3.11317 0
M  V30 343 C 33.3502 3.31387 3.01474 0
M  V30 344 C 35.0942 1.70621 3.88701 0
M  V30 345 C 33.0012 4.00791 4.3488 0
M  V30 346 H 31.9312 0.384179 0.648785 0
M  V30 347 H 34.5822 1.4584 1.11368 0
M  V30 348 H 32.9642 1.31175 3.73643 0
M  V30 349 H 34.1382 3.88155 2.4834 0
M  V30 350 H 32.4532 3.41976 2.37575 0
M  V30 351 H 35.0502 2.19799 4.87434 0
M  V30 352 H 35.3932 0.665823 4.10941 0
M  V30 353 H 35.9262 2.17547 3.33044 0
M  V30 354 H 32.6652 5.05064 4.1784 0
M  V30 355 H 32.1852 3.48811 4.87945 0
M  V30 356 H 33.8642 4.06139 5.03647 0
M  V30 357 N 33.9963 -1.19345 1.0293 0
M  V30 358 C 35.2433 -1.89038 0.726008 0
M  V30 359 C 35.5713 -1.79649 -0.745427 0
M  V30 360 O 34.8263 -1.18354 -1.55855 0
M  V30 361 C 35.1253 -3.39292 1.12319 0
M  V30 362 C 34.7913 -3.68885 2.59297 0
M  V30 363 C 33.4533 -3.76671 2.99453 0
M  V30 364 C 35.8053 -3.82178 3.54386 0
M  V30 365 C 33.1333 -3.9522 4.33611 0
M  V30 366 C 35.4853 -4.0224 4.88248 0
M  V30 367 C 34.1493 -4.08259 5.28092 0
M  V30 368 H 33.4193 -0.691739 0.265665 0
M  V30 369 H 36.0663 -1.41328 1.29223 0
M  V30 370 H 34.3713 -3.88903 0.475584 0
M  V30 371 H 36.0683 -3.91536 0.866037 0
M  V30 372 H 32.6583 -3.63433 2.27189 0
M  V30 373 H 36.8423 -3.75505 3.24514 0
M  V30 374 H 32.0983 -3.98119 4.64016 0
M  V30 375 H 36.2723 -4.11468 5.61843 0
M  V30 376 H 33.8993 -4.22384 6.32057 0
M  V30 377 N 35.4744 -0.807222 -1.35358 0
M  V30 378 C 36.3844 -0.219594 -2.3357 0
M  V30 379 C 37.4004 0.637734 -1.61892 0
M  V30 380 O 38.5764 0.549336 -1.93763 0
M  V30 381 C 35.6414 0.62158 -3.41083 0
M  V30 382 C 34.7024 -0.256315 -4.28534 0
M  V30 383 C 33.9354 0.544807 -5.30912 0
M  V30 384 O 34.1584 1.77944 -5.41934 0
M  V30 385 O 33.0924 -0.0646478 -6.01865 0
M  V30 386 H 36.9184 -1.03208 -2.85625 0
M  V30 387 H 34.5034 -0.569025 -1.38139 0
M  V30 388 H 36.3854 1.10067 -4.06772 0
M  V30 389 H 35.0604 1.41165 -2.91297 0
M  V30 390 H 33.9674 -0.782559 -3.65823 0
M  V30 391 H 35.3004 -1.01034 -4.81719 0
M  V30 392 N 36.9525 1.47285 -0.560781 0
M  V30 393 C 37.8825 2.32857 0.173105 0
M  V30 394 C 38.8635 1.44009 0.905281 0
M  V30 395 O 40.0485 1.7286 0.885046 0
M  V30 396 C 37.1785 3.25861 1.20133 0
M  V30 397 C 36.1325 4.23978 0.585388 0
M  V30 398 C 35.4585 5.06332 1.7185 0
M  V30 399 C 36.7585 5.20242 -0.463178 0
M  V30 400 H 38.4525 2.94466 -0.541307 0
M  V30 401 H 35.9985 1.41601 -0.261764 0
M  V30 402 H 37.9515 3.84569 1.72293 0
M  V30 403 H 36.6755 2.62315 1.94573 0
M  V30 404 H 35.3345 3.66501 0.085054 0
M  V30 405 H 34.9825 4.39186 2.45203 0
M  V30 406 H 34.6825 5.72762 1.31213 0
M  V30 407 H 36.2065 5.67899 2.24329 0
M  V30 408 H 37.6205 5.73293 -0.027502 0
M  V30 409 H 36.0175 5.94896 -0.788627 0
M  V30 410 H 37.0875 4.65504 -1.35773 0
M  V30 411 N 38.4306 0.297415 1.54768 0
M  V30 412 C 39.3636 -0.622188 2.19554 0
M  V30 413 C 40.3416 -1.13558 1.16376 0
M  V30 414 O 41.5256 -1.20444 1.45002 0
M  V30 415 C 38.6526 -1.8509 2.83653 0
M  V30 416 C 37.6986 -1.47106 4.00328 0
M  V30 417 S 38.5316 -0.53006 5.3287 0
M  V30 418 C 39.6876 -1.76665 6.0045 0
M  V30 419 H 39.9206 -0.0717806 2.97213 0
M  V30 420 H 37.4536 0.0815678 1.54184 0
M  V30 421 H 39.4116 -2.55605 3.21211 0
M  V30 422 H 38.0726 -2.37247 2.05846 0
M  V30 423 H 37.2656 -2.38594 4.43947 0
M  V30 424 H 36.8676 -0.845885 3.64309 0
M  V30 425 H 39.1596 -2.7077 6.21039 0
M  V30 426 H 40.1026 -1.37308 6.9466 0
M  V30 427 H 40.5106 -1.94174 5.30054 0
M  V30 428 N 39.9087 -1.5758 0.0250728 0
M  V30 429 C 40.8407 -2.06869 -0.986796 0
M  V30 430 C 41.8537 -0.991332 -1.29137 0
M  V30 431 O 43.0427 -1.26761 -1.25674 0
M  V30 432 C 40.1427 -2.47486 -2.31525 0
M  V30 433 C 39.3157 -3.78253 -2.19643 0
M  V30 434 C 38.3747 -4.05464 -3.35388 0
M  V30 435 O 37.4007 -4.75774 -3.12454 0
M  V30 436 N 38.6027 -3.55321 -4.59051 0
M  V30 437 H 41.3677 -2.94302 -0.566276 0
M  V30 438 H 38.9287 -1.6109 -0.161776 0
M  V30 439 H 40.9207 -2.62785 -3.07776 0
M  V30 440 H 39.4907 -1.65441 -2.65232 0
M  V30 441 H 38.7107 -3.7279 -1.28144 0
M  V30 442 H 39.9987 -4.63936 -2.08903 0
M  V30 443 H 39.3967 -2.98431 -4.80578 0
M  V30 444 H 37.9537 -3.75905 -5.32483 0
M  V30 445 N 41.3868 0.248026 -1.55636 0
M  V30 446 C 42.3348 1.32683 -1.91045 0
M  V30 447 C 43.3288 1.49883 -0.789401 0
M  V30 448 O 44.5348 1.51371 -0.974007 0
M  V30 449 H 40.9098 0.444272 -0.606734 0
M  V30 450 H 42.8808 1.00085 -2.81115 0
M  V30 451 C 41.6298 2.6755 -2.22064 0
M  V30 452 H 40.9528 2.55114 -3.07826 0
M  V30 453 H 42.3928 3.41912 -2.50743 0
M  V30 454 C 40.8518 3.20556 -1.0366 0
M  V30 455 O 41.3818 4.00695 -0.284016 0
M  V30 456 N 39.5878 2.78568 -0.82753 0
M  V30 457 H 39.1348 2.1351 -1.44123 0
M  V30 458 H 39.0928 3.14378 -0.0369803 0
M  V30 459 N 42.8649 1.48995 0.513639 0
M  V30 460 C 43.7979 1.59319 1.63379 0
M  V30 461 C 44.7759 0.442816 1.56454 0
M  V30 462 O 45.9599 0.656655 1.76693 0
M  V30 463 C 43.0869 1.5364 3.01848 0
M  V30 464 C 42.1329 2.7372 3.27078 0
M  V30 465 S 42.9659 4.35528 3.1157 0
M  V30 466 C 44.1219 4.32473 4.52458 0
M  V30 467 H 44.3549 2.54079 1.54374 0
M  V30 468 H 41.8879 1.3773 0.697849 0
M  V30 469 H 43.8459 1.51049 3.81699 0
M  V30 470 H 42.5069 0.601898 3.08279 0
M  V30 471 H 41.6999 2.6593 4.28132 0
M  V30 472 H 41.3019 2.73657 2.54927 0
M  V30 473 H 43.5939 4.03414 5.44301 0
M  V30 474 H 44.5369 5.33762 4.65299 0
M  V30 475 H 44.9449 3.62718 4.32546 0
M  V30 476 N 44.343 -0.763751 1.37857 0
M  V30 477 C 45.273 -1.89103 1.36975 0
M  V30 478 C 46.254 -1.68439 0.237152 0
M  V30 479 O 47.439 -1.8918 0.438713 0
M  V30 480 C 44.569 -3.26496 1.18395 0
M  V30 481 C 43.523 -3.61741 2.28751 0
M  V30 482 C 42.849 -4.97762 1.95286 0
M  V30 483 C 44.149 -3.67665 3.70972 0
M  V30 484 H 45.843 -1.90099 2.31307 0
M  V30 485 H 43.389 -0.91319 1.11341 0
M  V30 486 H 45.342 -4.05003 1.16406 0
M  V30 487 H 44.066 -3.25955 0.205215 0
M  V30 488 H 42.725 -2.85547 2.29909 0
M  V30 489 H 42.373 -4.93769 0.959221 0
M  V30 490 H 42.073 -5.22313 2.69189 0
M  V30 491 H 43.597 -5.7866 1.94898 0
M  V30 492 H 45.011 -4.36307 3.719 0
M  V30 493 H 43.408 -4.03718 4.43995 0
M  V30 494 H 44.478 -2.68134 4.0402 0
M  V30 495 N 45.8211 -1.22559 -0.990812 0
M  V30 496 C 46.7311 -1.01394 -2.11557 0
M  V30 497 C 47.7471 0.0383962 -1.73958 0
M  V30 498 O 48.9231 -0.154787 -2.00804 0
M  V30 499 C 45.9881 -0.596569 -3.41529 0
M  V30 500 C 45.0491 -1.72276 -3.93217 0
M  V30 501 C 44.2821 -1.32521 -5.16985 0
M  V30 502 O 44.5051 -0.204909 -5.70032 0
M  V30 503 O 43.4391 -2.14247 -5.62478 0
M  V30 504 H 47.2651 -1.95633 -2.32296 0
M  V30 505 H 44.8501 -1.01172 -1.0993 0
M  V30 506 H 46.7321 -0.374263 -4.19735 0
M  V30 507 H 45.4071 0.316939 -3.22145 0
M  V30 508 H 44.3141 -1.99961 -3.16174 0
M  V30 509 H 45.6471 -2.61421 -4.17037 0
M  V30 510 N 47.2992 1.18797 -1.03562 0
M  V30 511 C 48.2312 2.21731 -0.580337 0
M  V30 512 C 49.2442 1.59051 0.347349 0
M  V30 513 O 50.4332 1.77929 0.142669 0
M  V30 514 C 47.5332 3.38459 0.172805 0
M  V30 515 C 46.7062 4.3072 -0.761496 0
M  V30 516 C 45.7652 5.26174 -0.0525547 0
M  V30 517 O 44.7912 5.65108 -0.681333 0
M  V30 518 N 45.9932 5.67624 1.21586 0
M  V30 519 H 48.7582 2.61417 -1.46565 0
M  V30 520 H 46.3192 1.33531 -0.915476 0
M  V30 521 H 48.3112 3.99335 0.656793 0
M  V30 522 H 46.8812 2.97507 0.959602 0
M  V30 523 H 46.1012 3.67525 -1.42544 0
M  V30 524 H 47.3892 4.89267 -1.39626 0
M  V30 525 H 46.7872 5.38038 1.74732 0
M  V30 526 H 45.3442 6.30721 1.64421 0
M  V30 527 N 48.7773 0.814389 1.34928 0
M  V30 528 C 49.7073 0.244827 2.32213 0
M  V30 529 C 50.6883 -0.634024 1.57842 0
M  V30 530 O 51.8733 -0.562676 1.8587 0
M  V30 531 C 49.0033 -0.601106 3.42058 0
M  V30 532 C 47.9573 0.179896 4.27622 0
M  V30 533 C 47.2833 -0.788237 5.28858 0
M  V30 534 C 48.5833 1.38329 5.03649 0
M  V30 535 H 50.2773 1.05763 2.80097 0
M  V30 536 H 47.8233 0.510029 1.34665 0
M  V30 537 H 49.7763 -1.00968 4.09125 0
M  V30 538 H 48.5003 -1.44688 2.92802 0
M  V30 539 H 47.1593 0.569739 3.62146 0
M  V30 540 H 46.8073 -1.62973 4.75866 0
M  V30 541 H 46.5073 -0.269942 5.8698 0
M  V30 542 H 48.0313 -1.19485 5.98795 0
M  V30 543 H 49.4453 1.04918 5.63618 0
M  V30 544 H 47.8423 1.83662 5.71304 0
M  V30 545 H 48.9123 2.16592 4.33839 0
M  V30 546 N 50.2554 -1.46986 0.568584 0
M  V30 547 C 51.1854 -2.32946 -0.160753 0
M  V30 548 C 52.1664 -1.44487 -0.897631 0
M  V30 549 O 53.3514 -1.73327 -0.875867 0
M  V30 550 C 50.4814 -3.26494 -1.18403 0
M  V30 551 C 49.4354 -4.24282 -0.562895 0
M  V30 552 C 48.7614 -5.07236 -1.69163 0
M  V30 553 C 50.0614 -5.19989 0.490761 0
M  V30 554 H 51.7554 -2.94175 0.556916 0
M  V30 555 H 49.3014 -1.4146 0.26927 0
M  V30 556 H 51.2544 -3.85477 -1.70251 0
M  V30 557 H 49.9784 -2.63343 -1.93179 0
M  V30 558 H 48.6374 -3.66541 -0.0656164 0
M  V30 559 H 48.2854 -4.4048 -2.42871 0
M  V30 560 H 47.9854 -5.7345 -1.28174 0
M  V30 561 H 49.5094 -5.6908 -2.21314 0
M  V30 562 H 50.9234 -5.73271 0.0579047 0
M  V30 563 H 49.3204 -5.94469 0.820165 0
M  V30 564 H 50.3904 -4.64777 1.3824 0
M  V30 565 N 51.7335 -0.305618 -1.54608 0
M  V30 566 C 52.9825 0.303098 -1.9941 0
M  V30 567 C 53.2955 1.54648 -1.19764 0
M  V30 568 O 54.5015 2.23007 -1.54855 0
M  V30 569 C 52.9575 0.590588 -3.55021 0
M  V30 570 C 52.5655 -0.634719 -4.43481 0
M  V30 571 C 54.3095 1.16025 -4.08336 0
M  V30 572 C 52.2165 -0.320126 -5.90533 0
M  V30 573 H 51.1465 0.117031 -0.744862 0
M  V30 574 H 53.7975 -0.415045 -1.78745 0
M  V30 575 H 52.1795 1.36845 -3.71604 0
M  V30 576 H 53.3535 -1.41079 -4.38672 0
M  V30 577 H 51.6685 -1.12333 -4.00962 0
M  V30 578 H 54.2655 1.40994 -5.15776 0
M  V30 579 H 54.6085 2.10397 -3.5922 0
M  V30 580 H 55.1415 0.443985 -3.95315 0
M  V30 581 H 51.8805 -1.23254 -6.43808 0
M  V30 582 H 51.4005 0.418579 -5.98338 0
M  V30 583 H 53.0795 0.0766241 -6.46955 0
M  V30 584 N 53.2116 1.57565 -0.0334293 0
M  V30 585 C 54.1616 2.06978 0.956237 0
M  V30 586 C 55.1456 0.971193 1.28283 0
M  V30 587 O 56.3376 1.23471 1.26822 0
M  V30 588 C 53.4666 2.60393 2.23719 0
M  V30 589 C 52.5526 3.7719 1.93877 0
M  V30 590 N 52.9436 4.87639 1.34321 0
M  V30 591 C 51.2416 3.85758 2.23845 0
M  V30 592 C 51.9426 5.68825 1.21709 0
M  V30 593 N 50.9186 5.1587 1.71404 0
M  V30 594 H 54.7206 2.89773 0.490815 0
M  V30 595 H 52.2346 1.61492 0.171478 0
M  V30 596 H 54.2316 2.94088 2.95496 0
M  V30 597 H 52.8916 1.79031 2.70884 0
M  V30 598 H 53.9026 5.07803 1.01767 0
M  V30 599 H 50.5796 3.1531 2.73653 0
M  V30 600 H 51.9696 6.67631 0.75621 0
M  V30 601 N 54.6897 -0.239769 1.55765 0
M  V30 602 C 55.6217 -1.32001 1.87372 0
M  V30 603 C 56.6347 -1.43944 0.760522 0
M  V30 604 O 57.8237 -1.45167 1.0387 0
M  V30 605 C 54.9237 -2.69779 2.05115 0
M  V30 606 C 54.0967 -2.80014 3.36022 0
M  V30 607 C 53.1557 -3.98684 3.4342 0
M  V30 608 O 52.1817 -3.87877 4.16582 0
M  V30 609 N 53.3837 -5.12176 2.73232 0
M  V30 610 H 56.1487 -1.0522 2.80622 0
M  V30 611 H 53.7097 -0.429857 1.56089 0
M  V30 612 H 55.7017 -3.47517 2.07399 0
M  V30 613 H 54.2717 -2.89237 1.18577 0
M  V30 614 H 53.4917 -1.88896 3.45994 0
M  V30 615 H 54.7797 -2.83808 4.22292 0
M  V30 616 H 54.1777 -5.2385 2.13536 0
M  V30 617 H 52.7347 -5.88022 2.81199 0
M  V30 618 N 56.1678 -1.49265 -0.50573 0
M  V30 619 C 57.5788 -1.51769 -1.08734 0
M  V30 620 C 57.9298 -0.301192 -1.93874 0
M  V30 621 O 57.0548 0.589456 -2.08217 0
M  V30 622 C 57.6498 -2.75017 -1.97867 0
M  V30 623 C 56.2088 -2.80314 -2.51199 0
M  V30 624 C 55.3558 -2.4562 -1.28709 0
M  V30 625 H 58.3068 -1.56031 -0.289855 0
M  V30 626 H 58.3278 -2.5491 -2.82491 0
M  V30 627 H 57.8398 -3.63539 -1.35873 0
M  V30 628 H 55.9408 -1.96061 -3.16845 0
M  V30 629 H 56.0538 -3.82366 -2.88675 0
M  V30 630 H 54.4178 -1.97297 -1.61078 0
M  V30 631 H 55.2008 -3.36411 -0.6843 0
M  V30 632 N 57.6459 0.756429 -1.3826 0
M  V30 633 C 58.5559 1.9009 -1.37488 0
M  V30 634 C 59.5719 1.71855 -0.272366 0
M  V30 635 O 60.7479 1.94827 -0.510318 0
M  V30 636 C 57.8129 3.25421 -1.19592 0
M  V30 637 C 56.8739 3.56202 -2.39622 0
M  V30 638 C 56.1069 4.85075 -2.2257 0
M  V30 639 O 56.3299 5.57246 -1.21793 0
M  V30 640 O 55.2639 5.15269 -3.11098 0
M  V30 641 H 59.0899 1.93695 -2.33914 0
M  V30 642 H 56.6749 0.901313 -1.1915 0
M  V30 643 H 58.5569 4.06337 -1.11661 0
M  V30 644 H 57.2319 3.22634 -0.262486 0
M  V30 645 H 56.1389 2.75458 -2.53128 0
M  V30 646 H 57.4719 3.63747 -3.31586 0
M  V30 647 N 59.124 1.23083 0.984299 0
M  V30 648 C 60.401 0.9689 1.69917 0
M  V30 649 C 60.781 -0.513604 2.04757 0
M  V30 650 O 60.129 -1.48383 1.73767 0
M  V30 651 C 60.339 1.87518 2.94343 0
M  V30 652 C 61.687 2.13636 3.6694 0
M  V30 653 O 62.711 1.85036 3.04368 0
M  V30 654 O 61.57 2.62119 4.79537 0
M  V30 655 H 58.664 0.365095 0.742048 0
M  V30 656 H 61.21 1.34107 1.03987 0
M  V30 657 H 59.982 2.87756 2.65164 0
M  V30 658 H 59.605 1.50514 3.6801 0
M  V30 659 N 60.6021 -1.18246 1.0419 0
M  V30 660 C 62.0131 -1.69914 0.773698 0
M  V30 661 C 62.3641 -1.83085 -0.705297 0
M  V30 662 O 61.4891 -1.51123 -1.5489 0
M  V30 663 C 62.0841 -3.08619 1.39784 0
M  V30 664 C 60.6431 -3.57494 1.17792 0
M  V30 665 C 59.7901 -2.34013 1.48773 0
M  V30 666 H 62.7411 -1.02904 1.20816 0
M  V30 667 H 62.7621 -3.71958 0.801714 0
M  V30 668 H 62.2741 -2.99001 2.47426 0
M  V30 669 H 60.3751 -3.72406 0.120295 0
M  V30 670 H 60.4881 -4.40852 1.87581 0
M  V30 671 H 58.8521 -2.37986 0.907463 0
M  V30 672 H 59.6351 -2.27013 2.57527 0
M  V30 673 N 62.0802 -0.821533 -1.34494 0
M  V30 674 C 63.3292 -0.405355 -1.97585 0
M  V30 675 C 63.6422 1.03677 -1.65863 0
M  V30 676 O 64.8482 1.55679 -2.22433 0
M  V30 677 C 63.3042 -0.673861 -3.53535 0
M  V30 678 C 62.9122 -2.12951 -3.94152 0
M  V30 679 C 64.6562 -0.32378 -4.23263 0
M  V30 680 C 62.5632 -2.34298 -5.43009 0
M  V30 681 H 61.4932 -0.147836 -0.739365 0
M  V30 682 H 64.1442 -1.00769 -1.53355 0
M  V30 683 H 62.5262 -0.00137554 -3.96 0
M  V30 684 H 63.7002 -2.84104 -3.62797 0
M  V30 685 H 62.0152 -2.44089 -3.37356 0
M  V30 686 H 64.6122 -0.461126 -5.32708 0
M  V30 687 H 64.9552 0.731586 -4.09821 0
M  V30 688 H 65.4882 -0.950786 -3.8627 0
M  V30 689 H 62.2272 -3.38335 -5.61435 0
M  V30 690 H 61.7472 -1.67687 -5.75883 0
M  V30 691 H 63.4262 -2.16588 -6.09671 0
M  V30 692 N 63.5583 1.46682 -0.576371 0
M  V30 693 C 64.9693 1.86112 -0.148091 0
M  V30 694 C 65.3203 1.48073 1.2872 0
M  V30 695 O 64.4453 0.892656 1.97131 0
M  V30 696 C 65.0403 3.37786 -0.261982 0
M  V30 697 C 63.5993 3.76235 0.111384 0
M  V30 698 C 62.7463 2.70713 -0.60083 0
M  V30 699 H 65.6973 1.37927 -0.78497 0
M  V30 700 H 65.7183 3.77007 0.514364 0
M  V30 701 H 65.2303 3.6544 -1.30671 0
M  V30 702 H 63.3313 3.54198 1.15649 0
M  V30 703 H 63.4443 4.78391 -0.26052 0
M  V30 704 H 61.8083 2.54666 -0.0417783 0
M  V30 705 H 62.5913 3.01208 -1.64708 0
M  V30 706 N 65.0364 0.313813 1.54444 0
M  V30 707 C 66.2834 -0.291675 2.00388 0
M  V30 708 C 66.6114 -1.52904 1.2021 0
M  V30 709 O 65.8664 -1.93833 0.269707 0
M  V30 710 C 66.1654 -0.680386 3.50864 0
M  V30 711 C 65.8314 0.456699 4.48581 0
M  V30 712 C 64.4934 0.768824 4.75018 0
M  V30 713 C 66.8454 1.22098 5.06697 0
M  V30 714 C 64.1734 1.84812 5.56831 0
M  V30 715 C 66.5254 2.29029 5.89685 0
M  V30 716 C 65.1894 2.60834 6.14428 0
M  V30 717 H 64.4594 -0.106732 0.733273 0
M  V30 718 H 67.1064 0.43557 1.86481 0
M  V30 719 H 65.4114 -1.48791 3.62448 0
M  V30 720 H 67.1084 -1.16026 3.83847 0
M  V30 721 H 63.6984 0.203337 4.28117 0
M  V30 722 H 67.8824 0.993096 4.86263 0
M  V30 723 H 63.1384 2.09912 5.74236 0
M  V30 724 H 67.3124 2.887 6.33739 0
M  V30 725 H 64.9394 3.44596 6.77612 0
M  V30 726 N 66.5145 -1.57545 0.0417849 0
M  V30 727 C 67.4475 -2.06514 -0.970928 0
M  V30 728 C 68.4255 -0.963607 -1.30971 0
M  V30 729 O 69.6095 -1.23486 -1.4242 0
M  V30 730 C 66.7365 -2.4978 -2.28752 0
M  V30 731 C 65.7825 -3.71078 -2.10246 0
M  V30 732 S 66.6155 -5.17158 -1.38952 0
M  V30 733 C 67.7715 -5.6373 -2.71954 0
M  V30 734 H 68.0045 -2.9209 -0.554129 0
M  V30 735 H 65.5375 -1.53459 -0.17024 0
M  V30 736 H 67.4955 -2.75371 -3.04435 0
M  V30 737 H 66.1565 -1.64527 -2.67562 0
M  V30 738 H 65.3495 -3.9924 -3.07609 0
M  V30 739 H 64.9515 -3.45705 -1.42704 0
M  V30 740 H 67.2435 -5.68743 -3.68154 0
M  V30 741 H 68.1865 -6.63086 -2.4844 0
M  V30 742 H 68.5945 -4.91424 -2.77782 0
M  V30 743 N 67.9926 0.231505 -1.5589 0
M  V30 744 C 69.2416 0.955346 -1.7764 0
M  V30 745 C 69.5546 1.85893 -0.608546 0
M  V30 746 O 70.7606 2.62067 -0.70943 0
M  V30 747 C 69.2166 1.74886 -3.14552 0
M  V30 748 C 68.8246 0.891915 -4.39032 0
M  V30 749 C 70.5686 2.46452 -3.45633 0
M  V30 750 C 68.4756 1.68221 -5.66971 0
M  V30 751 H 67.4056 0.360446 -0.662265 0
M  V30 752 H 70.0566 0.209516 -1.823 0
M  V30 753 H 68.4386 2.53723 -3.04041 0
M  V30 754 H 69.6126 0.144793 -4.60572 0
M  V30 755 H 67.9276 0.288863 -4.15397 0
M  V30 756 H 70.5246 3.06061 -4.38441 0
M  V30 757 H 70.8676 3.18841 -2.67668 0
M  V30 758 H 71.4006 1.74613 -3.57428 0
M  V30 759 H 68.1396 1.00178 -6.478 0
M  V30 760 H 67.6596 2.4042 -5.49507 0
M  V30 761 H 69.3386 2.24544 -6.06786 0
M  V30 762 N 69.4707 1.49531 0.497807 0
M  V30 763 C 70.4027 1.62559 1.61578 0
M  V30 764 C 71.4157 0.508134 1.54667 0
M  V30 765 O 72.6047 0.780309 1.60541 0
M  V30 766 C 69.7047 1.56925 3.00379 0
M  V30 767 C 68.8777 2.84257 3.3244 0
M  V30 768 C 67.9367 2.71632 4.50669 0
M  V30 769 O 66.9627 3.4557 4.52294 0
M  V30 770 N 68.1647 1.83391 5.5077 0
M  V30 771 H 70.9297 2.58981 1.50828 0
M  V30 772 H 68.4907 1.4666 0.685743 0
M  V30 773 H 70.4827 1.46129 3.77397 0
M  V30 774 H 69.0527 0.683483 3.05037 0
M  V30 775 H 68.2727 3.09381 2.44289 0
M  V30 776 H 69.5607 3.68666 3.5066 0
M  V30 777 H 68.9587 1.22583 5.52259 0
M  V30 778 H 67.5157 1.78515 6.26878 0
M  V30 779 N 70.9488 -0.749086 1.3866 0
M  V30 780 C 71.8988 -1.85368 1.32751 0
M  V30 781 C 72.8828 -1.59511 0.210945 0
M  V30 782 O 74.0748 -1.71255 0.447299 0
M  V30 783 C 71.2038 -3.23131 1.15935 0
M  V30 784 C 70.2898 -3.54864 2.32233 0
M  V30 785 N 70.6808 -3.57625 3.57684 0
M  V30 786 C 68.9788 -3.85154 2.24883 0
M  V30 787 C 69.6798 -3.86753 4.34508 0
M  V30 788 N 68.6558 -4.03812 3.63918 0
M  V30 789 H 72.4578 -1.85787 2.27729 0
M  V30 790 H 69.9718 -0.946658 1.31955 0
M  V30 791 H 71.9688 -4.02185 1.09786 0
M  V30 792 H 70.6288 -3.23961 0.218947 0
M  V30 793 H 71.6398 -3.39276 3.91295 0
M  V30 794 H 68.3168 -3.93672 1.39027 0
M  V30 795 H 69.7068 -3.95474 5.43185 0
M  V30 796 N 72.4269 -1.23603 -0.977757 0
M  V30 797 C 73.3569 -1.04401 -2.0886 0
M  V30 798 C 74.3379 0.0399052 -1.70053 0
M  V30 799 O 75.5229 -0.125246 -1.93796 0
M  V30 800 C 72.6529 -0.637269 -3.41403 0
M  V30 801 C 71.6069 -1.66883 -3.94124 0
M  V30 802 C 70.9329 -1.11745 -5.22893 0
M  V30 803 C 72.2329 -3.06247 -4.23096 0
M  V30 804 H 73.9269 -1.97316 -2.25182 0
M  V30 805 H 71.4729 -0.950096 -1.08209 0
M  V30 806 H 73.4259 -0.48998 -4.18542 0
M  V30 807 H 72.1499 0.327557 -3.24953 0
M  V30 808 H 70.8089 -1.80416 -3.19133 0
M  V30 809 H 70.4569 -0.143527 -5.02795 0
M  V30 810 H 70.1569 -1.80672 -5.59134 0
M  V30 811 H 71.6809 -0.982067 -6.02651 0
M  V30 812 H 73.0949 -2.96001 -4.90975 0
M  V30 813 H 71.4919 -3.72436 -4.70544 0
M  V30 814 H 72.5619 -3.55041 -3.30263 0
M  V30 815 N 73.905 1.17692 -1.04816 0
M  V30 816 C 74.855 2.1952 -0.616042 0
M  V30 817 C 75.839 1.57147 0.345485 0
M  V30 818 O 77.031 1.76245 0.163325 0
M  V30 819 C 74.16 3.43298 0.0116917 0
M  V30 820 C 73.246 4.12777 -0.973435 0
M  V30 821 N 73.637 4.5814 -2.14339 0
M  V30 822 C 71.935 4.38747 -0.80108 0
M  V30 823 C 72.636 5.11713 -2.7663 0
M  V30 824 N 71.612 5.03686 -2.04453 0
M  V30 825 H 75.414 2.52293 -1.5075 0
M  V30 826 H 72.928 1.3398 -0.917776 0
M  V30 827 H 74.925 4.15519 0.339006 0
M  V30 828 H 73.585 3.12018 0.898593 0
M  V30 829 H 74.596 4.52349 -2.52191 0
M  V30 830 H 71.273 4.17485 0.0350934 0
M  V30 831 H 72.663 5.56962 -3.75823 0
M  V30 832 N 75.3831 0.828654 1.34056 0
M  V30 833 C 76.7991 0.515135 1.51058 0
M  V30 834 C 76.9991 -0.959581 1.77184 0
M  V30 835 O 76.0551 -1.74382 1.82612 0
M  V30 836 C 77.3681 1.37963 2.67183 0
M  V30 837 C 78.9161 1.37735 2.81066 0
M  V30 838 C 79.3911 2.22645 4.00241 0
M  V30 839 N 80.8821 2.203 4.07458 0
M  V30 840 C 81.6171 2.82744 4.98842 0
M  V30 841 N 81.1131 3.54201 5.9541 0
M  V30 842 N 82.9061 2.72268 4.91759 0
M  V30 843 H 75.0571 1.78343 1.15358 0
M  V30 844 H 77.3201 0.760304 0.566252 0
M  V30 845 H 77.0261 2.42714 2.54525 0
M  V30 846 H 76.9001 1.0484 3.62338 0
M  V30 847 H 79.2871 0.337593 2.93163 0
M  V30 848 H 79.3681 1.74859 1.86703 0
M  V30 849 H 79.0121 3.26674 3.88905 0
M  V30 850 H 78.9421 1.82869 4.93829 0
M  V30 851 H 81.4331 1.68327 3.38341 0
M  V30 852 H 81.7461 3.9908 6.61782 0
M  V30 853 H 80.0911 3.58308 5.95517 0
M  V30 854 H 83.2821 2.16014 4.15278 0
M  V30 855 H 83.4551 3.21219 5.62781 0
M  V30 856 N 76.8612 -1.46375 0.584142 0
M  V30 857 C 78.1382 -1.956 0.0033388 0
M  V30 858 C 78.5182 -1.52679 -1.45782 0
M  V30 859 O 77.8662 -0.77816 -2.14842 0
M  V30 860 C 78.0762 -3.48551 0.176891 0
M  V30 861 C 79.4242 -4.24576 0.0454609 0
M  V30 862 O 80.4482 -3.56043 0.105801 0
M  V30 863 O 79.3072 -5.46427 -0.0890376 0
M  V30 864 H 76.4012 -0.825547 -0.0490066 0
M  V30 865 H 78.9472 -1.56652 0.65256 0
M  V30 866 H 77.7192 -3.72683 1.1926 0
M  V30 867 H 77.3422 -3.94332 -0.508695 0
M  V30 868 N 78.3393 -0.321999 -1.54275 0
M  V30 869 C 79.2873 0.560206 -2.25753 0
M  V30 870 C 80.2813 1.11984 -1.27106 0
M  V30 871 O 81.4873 1.06806 -1.44888 0
M  V30 872 H 77.8623 0.199304 -0.725108 0
M  V30 873 H 79.8333 -0.0649365 -2.98329 0
M  V30 874 C 78.5823 1.71023 -3.02731 0
M  V30 875 H 77.9053 1.28885 -3.78456 0
M  V30 876 H 79.3453 2.30314 -3.55993 0
M  V30 877 C 77.8043 2.62692 -2.10938 0
M  V30 878 O 78.3343 3.64364 -1.6912 0
M  V30 879 N 76.5403 2.30891 -1.76459 0
M  V30 880 H 76.0873 1.48253 -2.10663 0
M  V30 881 H 76.0453 2.92487 -1.1532 0
M  V30 882 N 79.8174 1.5752 -0.0501392 0
M  V30 883 C 81.0944 1.83996 0.663685 0
M  V30 884 C 81.4744 0.938339 1.89099 0
M  V30 885 O 80.8224 -0.00087759 2.285 0
M  V30 886 C 81.0324 3.33702 1.02196 0
M  V30 887 C 82.3804 4.00691 1.40469 0
M  V30 888 O 83.4044 3.38321 1.11433 0
M  V30 889 O 82.2634 5.10658 1.94654 0
M  V30 890 H 79.3574 0.759385 0.32751 0
M  V30 891 H 81.9034 1.69514 -0.0794238 0
M  V30 892 H 80.6754 3.91015 0.149364 0
M  V30 893 H 80.2984 3.53368 1.82255 0
M  V30 894 N 81.2955 -0.223234 1.56011 0
M  V30 895 C 82.2435 -1.29627 1.93131 0
M  V30 896 C 83.2375 -1.48608 0.813146 0
M  V30 897 O 84.4435 -1.49802 0.997966 0
M  V30 898 H 80.8185 -0.434563 0.613726 0
M  V30 899 H 82.7895 -0.955995 2.82672 0
M  V30 900 C 81.5385 -2.63983 2.26292 0
M  V30 901 H 80.8615 -2.50185 3.11846 0
M  V30 902 H 82.3015 -3.3788 2.56151 0
M  V30 903 C 80.7605 -3.18866 1.08747 0
M  V30 904 O 81.2905 -4.00192 0.347727 0
M  V30 905 N 79.4965 -2.77217 0.871743 0
M  V30 906 H 79.0435 -2.1119 1.47501 0
M  V30 907 H 79.0015 -3.1428 0.0869905 0
M  V30 908 N 82.7736 -1.49793 -0.48987 0
M  V30 909 C 84.0196 -1.60078 -1.24511 0
M  V30 910 C 84.3526 -0.291608 -1.91998 0
M  V30 911 O 83.6276 0.705647 -1.81248 0
M  V30 912 C 83.9106 -2.76791 -2.30345 0
M  V30 913 C 83.7636 -4.17535 -1.67286 0
M  V30 914 C 85.0826 -2.89111 -3.31817 0
M  V30 915 H 82.2016 -0.582645 -0.451324 0
M  V30 916 H 84.8436 -1.82117 -0.541612 0
M  V30 917 H 82.9936 -2.5813 -2.90346 0
M  V30 918 H 84.6656 -4.4774 -1.11026 0
M  V30 919 H 82.9086 -4.22665 -0.976577 0
M  V30 920 H 83.5796 -4.95094 -2.44103 0
M  V30 921 H 86.0556 -3.06133 -2.81819 0
M  V30 922 H 84.9316 -3.72433 -4.03219 0
M  V30 923 H 85.1926 -1.9893 -3.94815 0
M  V30 924 N 84.2517 0.741722 -1.39055 0
M  V30 925 C 85.6627 1.31966 -1.32068 0
M  V30 926 C 86.0137 1.96192 0.0180797 0
M  V30 927 O 85.1387 1.95861 0.920196 0
M  V30 928 C 85.7337 2.39954 -2.39181 0
M  V30 929 C 84.2927 2.93438 -2.35735 0
M  V30 930 C 83.4397 1.66936 -2.21422 0
M  V30 931 H 86.3907 0.539721 -1.4924 0
M  V30 932 H 86.4117 3.20182 -2.05581 0
M  V30 933 H 85.9237 1.9318 -3.36605 0
M  V30 934 H 84.0247 3.4451 -1.41929 0
M  V30 935 H 84.1377 3.4701 -3.30335 0
M  V30 936 H 82.5017 1.91016 -1.68478 0
M  V30 937 H 83.2847 1.22224 -3.20806 0
M  V30 938 N 85.7298 1.2412 0.971189 0
M  V30 939 C 87.1458 1.00584 1.23916 0
M  V30 940 C 87.3458 -0.287481 1.99439 0
M  V30 941 O 86.4018 -1.00454 2.31658 0
M  V30 942 C 87.7148 2.21864 2.0297 0
M  V30 943 C 89.2628 2.26452 2.16076 0
M  V30 944 C 89.7378 3.47343 2.98524 0
M  V30 945 N 91.2288 3.47639 3.06107 0
M  V30 946 C 91.9638 4.37837 3.70251 0
M  V30 947 N 91.4598 5.38286 4.36142 0
M  V30 948 N 93.2528 4.25558 3.67228 0
M  V30 949 H 85.4038 2.07236 0.465499 0
M  V30 950 H 87.6668 0.909236 0.268315 0
M  V30 951 H 87.3728 3.15771 1.54861 0
M  V30 952 H 87.2468 2.23698 3.03709 0
M  V30 953 H 89.6338 1.33078 2.6339 0
M  V30 954 H 89.7148 2.28645 1.14696 0
M  V30 955 H 89.3588 4.41029 2.51905 0
M  V30 956 H 89.2888 3.42393 4.00093 0
M  V30 957 H 91.7798 2.74966 2.59233 0
M  V30 958 H 92.0928 6.03352 4.82894 0
M  V30 959 H 90.4378 5.42176 4.34822 0
M  V30 960 H 93.6288 3.46322 3.14927 0
M  V30 961 H 93.8018 4.96054 4.16935 0
M  V30 962 N 87.2079 -1.17134 1.05439 0
M  V30 963 C 88.4569 -1.86791 0.761049 0
M  V30 964 C 88.7699 -1.82072 -0.714795 0
M  V30 965 O 89.9759 -2.47223 -1.12218 0
M  V30 966 C 88.4319 -3.35166 1.31117 0
M  V30 967 C 88.0399 -3.48381 2.81664 0
M  V30 968 C 89.7839 -4.10134 1.09499 0
M  V30 969 C 87.6909 -4.90793 3.29964 0
M  V30 970 H 86.6209 -0.699681 0.281002 0
M  V30 971 H 89.2719 -1.3226 1.27199 0
M  V30 972 H 87.6539 -3.8925 0.72803 0
M  V30 973 H 88.8279 -3.04502 3.45855 0
M  V30 974 H 87.1429 -2.86836 3.01851 0
M  V30 975 H 89.7399 -5.152 1.43084 0
M  V30 976 H 90.0829 -4.16287 0.0328772 0
M  V30 977 H 90.6159 -3.62264 1.64346 0
M  V30 978 H 87.3549 -4.89816 4.35616 0
M  V30 979 H 86.8749 -5.35333 2.70516 0
M  V30 980 H 88.5539 -5.59573 3.24787 0
M  V30 981 N 88.686 -0.835752 -1.33615 0
M  V30 982 C 89.932 -0.430596 -1.98176 0
M  V30 983 C 90.265 1.00684 -1.66061 0
M  V30 984 O 89.54 1.70339 -0.938877 0
M  V30 985 C 89.823 -0.648065 -3.5422 0
M  V30 986 C 89.676 -2.13255 -3.96033 0
M  V30 987 C 90.995 -0.0922113 -4.40003 0
M  V30 988 H 88.114 -0.157924 -0.719881 0
M  V30 989 H 90.756 -1.05069 -1.58305 0
M  V30 990 H 88.906 -0.120237 -3.88314 0
M  V30 991 H 90.578 -2.725 -3.72211 0
M  V30 992 H 88.821 -2.61823 -3.45878 0
M  V30 993 H 89.492 -2.23547 -5.04708 0
M  V30 994 H 91.968 -0.543343 -4.12537 0
M  V30 995 H 90.844 -0.274083 -5.48215 0
M  V30 996 H 91.105 1.00378 -4.30554 0
M  V30 997 N 90.1641 1.46063 -0.591896 0
M  V30 998 C 91.4131 2.01547 -0.0786637 0
M  V30 999 C 91.7261 1.46796 1.29268 0
M  V30 1000 O 92.9321 1.94157 1.89777 0
M  V30 1001 C 91.3881 3.59787 -0.0900024 0
M  V30 1002 C 90.9961 4.23534 -1.46023 0
M  V30 1003 C 92.7401 4.22895 0.368806 0
M  V30 1004 C 90.6471 5.73881 -1.4288 0
M  V30 1005 H 89.5771 0.753564 -0.0256388 0
M  V30 1006 H 92.2281 1.677 -0.744905 0
M  V30 1007 H 90.6101 3.90752 0.642586 0
M  V30 1008 H 91.7841 4.04167 -2.21328 0
M  V30 1009 H 90.0991 3.72558 -1.85982 0
M  V30 1010 H 92.6961 5.33116 0.411258 0
M  V30 1011 H 93.0391 3.9247 1.38827 0
M  V30 1012 H 93.5721 3.9659 -0.31001 0
M  V30 1013 H 90.3111 6.0898 -2.42536 0
M  V30 1014 H 89.8311 5.95486 -0.718095 0
M  V30 1015 H 91.5101 6.36776 -1.14565 0
M  V30 1016 N 91.6422 0.330177 1.54103 0
M  V30 1017 C 92.5722 -0.525353 2.27513 0
M  V30 1018 C 93.5532 -1.11383 1.2856 0
M  V30 1019 O 94.7382 -1.13773 1.57383 0
M  V30 1020 C 91.8682 -1.6831 3.03791 0
M  V30 1021 C 90.8222 -1.2236 4.10137 0
M  V30 1022 C 90.1482 -2.46882 4.74293 0
M  V30 1023 C 91.4482 -0.333697 5.21233 0
M  V30 1024 H 93.1422 0.087013 2.99274 0
M  V30 1025 H 90.6882 0.0432893 1.43935 0
M  V30 1026 H 92.6412 -2.28795 3.5388 0
M  V30 1027 H 91.3652 -2.32216 2.29659 0
M  V30 1028 H 90.0242 -0.64165 3.60941 0
M  V30 1029 H 89.6722 -3.09165 3.96769 0
M  V30 1030 H 89.3722 -2.16825 5.46133 0
M  V30 1031 H 90.8962 -3.08117 5.27159 0
M  V30 1032 H 92.3102 -0.845013 5.67038 0
M  V30 1033 H 90.7072 -0.125612 5.99969 0
M  V30 1034 H 91.7772 0.633724 4.80741 0
M  V30 1035 N 93.1203 -1.57491 0.0584922 0
M  V30 1036 C 94.3683 -1.92597 -0.612436 0
M  V30 1037 C 94.6893 -0.938162 -1.70949 0
M  V30 1038 O 93.9593 0.0158301 -1.95894 0
M  V30 1039 H 92.5393 -0.710964 -0.229214 0
M  V30 1040 H 95.2013 -1.94571 0.113218 0
M  V30 1041 H 94.2973 -2.94038 -1.04633 0
M  V30 1042 N 94.5984 0.214957 -1.56127 0
M  V30 1043 C 96.0094 0.781386 -1.69562 0
M  V30 1044 C 96.3604 1.84707 -0.66165 0
M  V30 1045 O 95.4854 2.156 0.185927 0
M  V30 1046 C 96.0804 1.42411 -3.07416 0
M  V30 1047 C 94.6394 1.93786 -3.22683 0
M  V30 1048 C 93.7864 0.800438 -2.65496 0
M  V30 1049 H 96.7374 -0.00980633 -1.58697 0
M  V30 1050 H 96.7584 2.29309 -3.0364 0
M  V30 1051 H 96.2704 0.64826 -3.82648 0
M  V30 1052 H 94.3714 2.74152 -2.52332 0
M  V30 1053 H 94.4844 2.1133 -4.29973 0
M  V30 1054 H 92.8484 1.2095 -2.2415 0
M  V30 1055 H 93.6314 0.0371471 -3.4328 0
M  V30 1056 N 96.0765 1.50051 0.48192 0
M  V30 1057 C 97.4875 1.5348 1.06305 0
M  V30 1058 C 97.8385 0.331997 1.93371 0
M  V30 1059 O 96.9635 -0.556256 2.09129 0
M  V30 1060 C 97.5585 2.7813 1.93466 0
M  V30 1061 C 96.1175 2.84275 2.46707 0
M  V30 1062 C 95.2645 2.47637 1.24785 0
M  V30 1063 H 98.2155 1.56472 0.264995 0
M  V30 1064 H 98.2365 2.59372 2.78399 0
M  V30 1065 H 97.7485 3.65654 1.30072 0
M  V30 1066 H 95.8495 2.01077 3.13686 0
M  V30 1067 H 95.9625 3.8691 2.82555 0
M  V30 1068 H 94.3265 1.99835 1.57918 0
M  V30 1069 H 95.1095 3.37457 0.630694 0
M  V30 1070 N 97.5546 -0.734337 1.39446 0
M  V30 1071 C 98.5176 -1.83004 1.37994 0
M  V30 1072 C 99.5176 -1.58397 0.276938 0
M  V30 1073 O 100.708 -1.65785 0.534875 0
M  V30 1074 C 97.8396 -3.20802 1.1532 0
M  V30 1075 H 99.0326 -1.85694 2.35494 0
M  V30 1076 H 96.5856 -0.938059 1.25021 0
M  V30 1077 H 97.3206 -3.23772 0.185036 0
M  V30 1078 H 97.1056 -3.4006 1.95197 0
M  V30 1079 H 98.5956 -4.00862 1.17046 0
M  V30 1080 N 99.0327 -1.24633 -0.964593 0
M  V30 1081 C 100.258 -1.11596 -1.74818 0
M  V30 1082 C 100.683 0.32723 -1.85232 0
M  V30 1083 O 100.041 1.23695 -1.32549 0
M  V30 1084 C 100.089 -1.76397 -3.1451 0
M  V30 1085 O 99.1927 -1.03685 -3.99153 0
M  V30 1086 H 98.5337 -0.390196 -0.537255 0
M  V30 1087 H 101.064 -1.65002 -1.20977 0
M  V30 1088 H 101.074 -1.8228 -3.65018 0
M  V30 1089 H 99.7487 -2.81401 -3.06246 0
M  V30 1090 H 98.3257 -1.05611 -3.57632 0
M  V30 1091 N 100.511 1.16574 -1.06058 0
M  V30 1092 C 101.759 1.86677 -0.77434 0
M  V30 1093 C 102.08 1.81959 0.701147 0
M  V30 1094 O 101.35 1.2515 1.50713 0
M  V30 1095 H 99.9298 0.691134 -0.283449 0
M  V30 1096 H 102.592 1.41378 -1.34158 0
M  V30 1097 H 101.688 2.92181 -1.09711 0
M  V30 1098 N 101.989 0.842826 1.3317 0
M  V30 1099 C 102.936 0.276885 2.29133 0
M  V30 1100 C 103.906 -0.609527 1.54512 0
M  V30 1101 O 105.091 -0.546955 1.82792 0
M  V30 1102 C 102.231 -0.538707 3.40869 0
M  V30 1103 C 101.344 0.372169 4.30394 0
M  V30 1104 C 100.479 -0.454908 5.29249 0
M  V30 1105 C 99.5179 0.45411 6.10413 0
M  V30 1106 N 98.6549 -0.335075 7.013 0
M  V30 1107 H 103.495 1.10052 2.76934 0
M  V30 1108 H 101.032 0.554161 1.36262 0
M  V30 1109 H 102.99 -1.02709 4.0436 0
M  V30 1110 H 101.62 -1.32727 2.9425 0
M  V30 1111 H 100.672 0.97888 3.6759 0
M  V30 1112 H 101.984 1.0703 4.87182 0
M  V30 1113 H 101.138 -1.00695 5.98285 0
M  V30 1114 H 99.8769 -1.18646 4.73048 0
M  V30 1115 H 98.8819 1.01813 5.40291 0
M  V30 1116 H 100.107 1.18409 6.68697 0
M  V30 1117 H 98.0529 -1.04994 6.47543 0
M  V30 1118 H 97.9699 0.304262 7.55387 0
M  V30 1119 H 99.2379 -0.869224 7.74638 0
M  V30 1120 N 103.467 -1.45747 0.599634 0
M  V30 1121 C 104.695 -2.06668 0.0978551 0
M  V30 1122 C 105.11 -1.44562 -1.21439 0
M  V30 1123 O 104.467 -0.556923 -1.73795 0
M  V30 1124 C 104.518 -3.61456 -0.0567044 0
M  V30 1125 O 104.239 -4.21242 1.20361 0
M  V30 1126 C 105.74 -4.39345 -0.590869 0
M  V30 1127 H 102.96 -0.667825 0.0651943 0
M  V30 1128 H 105.504 -1.87115 0.82511 0
M  V30 1129 H 103.659 -3.80378 -0.734251 0
M  V30 1130 H 104.073 -5.14323 1.02821 0
M  V30 1131 H 105.547 -5.48182 -0.648131 0
M  V30 1132 H 106.024 -4.08568 -1.61147 0
M  V30 1133 H 106.63 -4.25268 0.0523679 0
M  V30 1134 N 104.945 -0.338344 -1.53925 0
M  V30 1135 C 106.173 0.261298 -2.05243 0
M  V30 1136 C 106.588 1.44625 -1.21363 0
M  V30 1137 O 105.945 1.80811 -0.247736 0
M  V30 1138 C 105.996 0.681412 -3.5502 0
M  V30 1139 O 105.717 -0.456414 -4.35716 0
M  V30 1140 C 107.218 1.34232 -4.22489 0
M  V30 1141 H 104.438 0.0513685 -0.669031 0
M  V30 1142 H 106.982 -0.488822 -1.98572 0
M  V30 1143 H 105.137 1.38148 -3.61931 0
M  V30 1144 H 105.551 -0.122564 -5.24357 0
M  V30 1145 H 107.025 1.58708 -5.28693 0
M  V30 1146 H 107.502 2.29426 -3.74514 0
M  V30 1147 H 108.108 0.684424 -4.19757 0
M  V30 1148 N 106.423 1.57458 -0.0668435 0
M  V30 1149 C 107.672 1.92477 0.602947 0
M  V30 1150 C 107.985 0.948419 1.71068 0
M  V30 1151 O 109.191 1.19124 2.43971 0
M  V30 1152 C 107.647 3.41903 1.12383 0
M  V30 1153 C 107.255 4.47975 0.04737 0
M  V30 1154 C 108.999 3.85931 1.76797 0
M  V30 1155 C 106.906 5.88529 0.582022 0
M  V30 1156 H 105.836 0.718387 0.22899 0
M  V30 1157 H 108.487 1.82978 -0.138276 0
M  V30 1158 H 106.869 3.46459 1.91787 0
M  V30 1159 H 108.043 4.55029 -0.726978 0
M  V30 1160 H 106.358 4.13384 -0.500243 0
M  V30 1161 H 108.955 4.88322 2.17821 0
M  V30 1162 H 109.298 3.23029 2.62599 0
M  V30 1163 H 109.831 3.83958 1.04024 0
M  V30 1164 H 106.57 6.55065 -0.238721 0
M  V30 1165 H 106.09 5.85004 1.324 0
M  V30 1166 H 107.769 6.38258 1.05999 0
M  V30 1167 N 107.901 -0.206675 1.56239 0
M  V30 1168 C 108.864 -1.23976 1.92776 0
M  V30 1169 C 109.864 -1.39041 0.807729 0
M  V30 1170 O 111.054 -1.37051 1.0753 0
M  V30 1171 C 108.186 -2.61112 2.19165 0
M  V30 1172 H 109.379 -0.927764 2.85189 0
M  V30 1173 H 106.932 -0.447718 1.4975 0
M  V30 1174 H 107.667 -2.97386 1.29352 0
M  V30 1175 H 107.452 -2.51552 3.00772 0
M  V30 1176 H 108.942 -3.35633 2.48476 0
M  V30 1177 N 109.379 -1.50304 -0.473955 0
M  V30 1178 C 110.312 -1.63595 -1.59097 0
M  V30 1179 C 111.29 -0.484142 -1.55225 0
M  V30 1180 O 112.474 -0.703271 -1.7489 0
M  V30 1181 C 109.601 -1.61589 -2.97669 0
M  V30 1182 C 108.647 -2.82295 -3.19705 0
M  V30 1183 S 109.48 -4.43635 -2.99913 0
M  V30 1184 C 110.636 -4.44317 -4.40832 0
M  V30 1185 H 110.869 -2.58082 -1.47583 0
M  V30 1186 H 108.402 -1.39531 -0.661087 0
M  V30 1187 H 110.36 -1.61116 -3.7756 0
M  V30 1188 H 109.021 -0.683421 -3.06575 0
M  V30 1189 H 108.214 -2.77188 -4.20931 0
M  V30 1190 H 107.816 -2.8032 -2.47582 0
M  V30 1191 H 110.108 -4.17703 -5.33414 0
M  V30 1192 H 111.051 -5.45911 -4.50984 0
M  V30 1193 H 111.459 -3.74059 -4.22777 0
M  V30 1194 N 110.857 0.726932 -1.39834 0
M  V30 1195 C 112.103 1.48771 -1.38704 0
M  V30 1196 C 112.458 1.92394 0.0146387 0
M  V30 1197 O 111.751 1.64474 0.982797 0
M  V30 1198 C 111.945 2.73495 -2.30077 0
M  V30 1199 C 111.774 2.42068 -3.78989 0
M  V30 1200 C 110.544 2.33966 -4.4787 0
M  V30 1201 C 112.742 2.0708 -4.70768 0
M  V30 1202 N 110.724 1.95095 -5.82075 0
M  V30 1203 C 112.095 1.78719 -5.93683 0
M  V30 1204 C 114.15 1.93618 -4.58712 0
M  V30 1205 C 112.853 1.3825 -7.05889 0
M  V30 1206 C 114.879 1.54553 -5.70848 0
M  V30 1207 C 114.241 1.27082 -6.92842 0
M  V30 1208 H 110.34 0.542919 -0.562817 0
M  V30 1209 H 112.924 0.84408 -1.75452 0
M  V30 1210 H 111.095 3.35625 -1.95474 0
M  V30 1211 H 112.827 3.39755 -2.19883 0
M  V30 1212 H 109.582 2.51331 -4.0141 0
M  V30 1213 H 110.006 1.7823 -6.53118 0
M  V30 1214 H 114.648 2.13522 -3.64922 0
M  V30 1215 H 112.366 1.17088 -7.99572 0
M  V30 1216 H 115.952 1.44731 -5.6351 0
M  V30 1217 H 114.832 0.973069 -7.78139 0
M  V30 1218 N 112.336 1.25143 0.95797 0
M  V30 1219 C 113.266 1.07711 2.07173 0
M  V30 1220 C 114.247 -0.0128462 1.70095 0
M  V30 1221 O 115.432 0.156061 1.93572 0
M  V30 1222 C 112.562 0.691503 3.40346 0
M  V30 1223 C 111.516 1.73132 3.9142 0
M  V30 1224 C 110.842 1.20049 5.21049 0
M  V30 1225 C 112.142 3.1294 4.1817 0
M  V30 1226 H 113.836 2.00873 2.22014 0
M  V30 1227 H 111.382 0.967191 1.06684 0
M  V30 1228 H 113.335 0.556505 4.17709 0
M  V30 1229 H 112.059 -0.275819 3.25433 0
M  V30 1230 H 110.718 1.8547 3.16222 0
M  V30 1231 H 110.366 0.223499 5.02503 0
M  V30 1232 H 110.066 1.89545 5.56189 0
M  V30 1233 H 111.59 1.07782 6.01012 0
M  V30 1234 H 113.004 3.03775 4.86203 0
M  V30 1235 H 111.401 3.79875 4.64559 0
M  V30 1236 H 112.471 3.6025 3.24573 0
M  V30 1237 N 113.814 -1.1601 1.06675 0
M  V30 1238 C 115.054 -1.88304 0.795037 0
M  V30 1239 C 115.418 -1.80062 -0.666466 0
M  V30 1240 O 116.619 -2.47319 -1.05293 0
M  V30 1241 C 114.89 -3.33664 1.28076 0
M  V30 1242 S 116.449 -4.23768 1.13868 0
M  V30 1243 H 113.267 -0.649928 0.288296 0
M  V30 1244 H 115.869 -1.4001 1.36445 0
M  V30 1245 H 114.573 -3.37203 2.33927 0
M  V30 1246 H 114.104 -3.87009 0.706253 0
M  V30 1247 H 116.119 -4.96148 0.0719668 0
M  V30 1248 N 115.292 -0.849877 -1.32721 0
M  V30 1249 C 116.239 -0.289033 -2.28983 0
M  V30 1250 C 117.209 0.601324 -1.54833 0
M  V30 1251 O 118.394 0.537253 -1.8308 0
M  V30 1252 C 115.534 0.520623 -3.4115 0
M  V30 1253 C 114.647 -0.394989 -4.3019 0
M  V30 1254 C 113.782 0.426834 -5.29482 0
M  V30 1255 C 112.821 -0.486476 -6.10164 0
M  V30 1256 N 111.958 0.297879 -7.01468 0
M  V30 1257 H 116.798 -1.11519 -2.76347 0
M  V30 1258 H 114.335 -0.56138 -1.35967 0
M  V30 1259 H 116.293 1.00563 -4.04899 0
M  V30 1260 H 114.923 1.31165 -2.9495 0
M  V30 1261 H 113.975 -0.99836 -3.67065 0
M  V30 1262 H 115.287 -1.09612 -4.86607 0
M  V30 1263 H 114.441 0.975205 -5.98811 0
M  V30 1264 H 113.18 1.16136 -4.73671 0
M  V30 1265 H 112.185 -1.04677 -5.39743 0
M  V30 1266 H 113.41 -1.21953 -6.6806 0
M  V30 1267 H 111.356 1.01558 -6.48091 0
M  V30 1268 H 111.273 -0.344318 -7.55216 0
M  V30 1269 H 112.541 0.828131 -7.75089 0
M  V30 1270 N 116.77 1.45427 -0.607355 0
M  V30 1271 C 117.72 2.27612 0.133038 0
M  V30 1272 C 118.704 1.37307 0.838785 0
M  V30 1273 O 119.896 1.61299 0.728813 0
M  V30 1274 C 117.025 3.24173 1.12991 0
M  V30 1275 C 116.111 4.21965 0.425011 0
M  V30 1276 N 116.502 5.02982 -0.533217 0
M  V30 1277 C 114.8 4.40899 0.672593 0
M  V30 1278 C 115.501 5.73931 -0.947518 0
M  V30 1279 N 114.477 5.42819 -0.291321 0
M  V30 1280 H 118.279 2.87649 -0.602935 0
M  V30 1281 H 115.793 1.56576 -0.431006 0
M  V30 1282 H 117.79 3.81783 1.67473 0
M  V30 1283 H 116.45 2.65696 1.86644 0
M  V30 1284 H 117.461 5.09843 -0.90995 0
M  V30 1285 H 114.138 3.93547 1.39382 0
M  V30 1286 H 115.528 6.49037 -1.73782 0
M  V30 1287 N 118.248 0.346503 1.53744 0
M  V30 1288 C 119.178 -0.501193 2.28058 0
M  V30 1289 C 120.159 -1.10014 1.29734 0
M  V30 1290 O 121.344 -1.12097 1.58581 0
M  V30 1291 C 118.474 -1.65078 3.05559 0
M  V30 1292 C 117.428 -1.18003 4.11411 0
M  V30 1293 C 116.754 -2.41837 4.76884 0
M  V30 1294 C 118.054 -0.278394 5.21558 0
M  V30 1295 H 119.748 0.11875 2.99164 0
M  V30 1296 H 117.294 0.0585531 1.43881 0
M  V30 1297 H 119.247 -2.25028 3.56287 0
M  V30 1298 H 117.971 -2.29767 2.32109 0
M  V30 1299 H 116.63 -0.603331 3.61601 0
M  V30 1300 H 116.278 -3.0494 4.00026 0
M  V30 1301 H 115.978 -2.1102 5.48402 0
M  V30 1302 H 117.502 -3.02508 5.30397 0
M  V30 1303 H 118.916 -0.784823 5.67903 0
M  V30 1304 H 117.313 -0.0619707 6.00068 0
M  V30 1305 H 118.383 0.684677 4.80042 0
M  V30 1306 N 119.726 -1.57421 0.075193 0
M  V30 1307 C 120.674 -2.14124 -0.908508 0
M  V30 1308 C 121.668 -1.07898 -1.30592 0
M  V30 1309 O 122.874 -1.26273 -1.28277 0
M  V30 1310 H 119.249 -0.684707 -0.310935 0
M  V30 1311 H 121.22 -2.95634 -0.405374 0
M  V30 1312 C 119.969 -2.72044 -2.16535 0
M  V30 1313 H 119.292 -3.53456 -1.86839 0
M  V30 1314 H 120.732 -3.15311 -2.83469 0
M  V30 1315 C 119.191 -1.66968 -2.92615 0
M  V30 1316 O 119.721 -1.0967 -3.86439 0
M  V30 1317 N 117.927 -1.37923 -2.55784 0
M  V30 1318 H 117.474 -1.84706 -1.79559 0
M  V30 1319 H 117.432 -0.67852 -3.06991 0
M  V30 1320 N 121.204 0.198386 -1.56346 0
M  V30 1321 C 122.429 0.939682 -1.84891 0
M  V30 1322 C 122.854 1.76202 -0.658369 0
M  V30 1323 O 122.212 1.76993 0.392851 0
M  V30 1324 C 122.26 1.81428 -3.11635 0
M  V30 1325 O 121.364 2.91265 -2.91956 0
M  V30 1326 H 120.705 0.264807 -0.608912 0
M  V30 1327 H 123.235 0.204695 -2.03573 0
M  V30 1328 H 123.245 2.21958 -3.42343 0
M  V30 1329 H 121.92 1.21004 -3.97908 0
M  V30 1330 H 120.497 2.54514 -2.72538 0
M  V30 1331 N 122.682 1.50554 0.465978 0
M  V30 1332 C 123.907 1.65838 1.24549 0
M  V30 1333 C 124.332 0.343486 1.84937 0
M  V30 1334 O 123.69 -0.69324 1.67523 0
M  V30 1335 C 123.738 2.75533 2.32624 0
M  V30 1336 O 122.842 2.37142 3.37398 0
M  V30 1337 H 122.183 0.553893 0.366194 0
M  V30 1338 H 124.713 1.96959 0.553927 0
M  V30 1339 H 124.723 2.98763 2.77857 0
M  V30 1340 H 123.398 3.70962 1.88043 0
M  V30 1341 H 121.975 2.24377 2.97841 0
M  V30 1342 N 124.16 -0.719506 1.40217 0
M  V30 1343 C 125.09 -1.8465 1.42922 0
M  V30 1344 C 126.071 -1.67599 0.29062 0
M  V30 1345 O 127.256 -1.87688 0.498677 0
M  V30 1346 C 124.386 -3.22565 1.28722 0
M  V30 1347 C 123.34 -3.54281 2.40144 0
M  V30 1348 C 122.666 -4.91298 2.11023 0
M  V30 1349 C 123.966 -3.55676 3.82481 0
M  V30 1350 H 125.66 -1.82644 2.37237 0
M  V30 1351 H 123.206 -0.877305 1.1419 0
M  V30 1352 H 125.159 -4.01095 1.29232 0
M  V30 1353 H 123.883 -3.25137 0.308811 0
M  V30 1354 H 122.542 -2.78088 2.38877 0
M  V30 1355 H 122.19 -4.90468 1.11582 0
M  V30 1356 H 121.89 -5.13485 2.8567 0
M  V30 1357 H 123.414 -5.72166 2.13209 0
M  V30 1358 H 124.828 -4.24254 3.85592 0
M  V30 1359 H 123.225 -3.89388 4.56614 0
M  V30 1360 H 124.295 -2.55144 4.12346 0
M  V30 1361 N 125.638 -1.25649 -0.95132 0
M  V30 1362 C 126.568 -1.08808 -2.06599 0
M  V30 1363 C 127.549 0.00382547 -1.701 0
M  V30 1364 O 128.734 -0.166325 -1.93486 0
M  V30 1365 C 125.864 -0.709542 -3.39975 0
M  V30 1366 C 124.818 -1.75206 -3.90496 0
M  V30 1367 C 124.144 -1.22811 -5.20405 0
M  V30 1368 C 125.444 -3.15153 -4.16504 0
M  V30 1369 H 127.138 -2.02048 -2.20946 0
M  V30 1370 H 124.684 -0.972835 -1.06169 0
M  V30 1371 H 126.637 -0.578649 -4.17408 0
M  V30 1372 H 125.361 0.258556 -3.25575 0
M  V30 1373 H 124.02 -1.87145 -3.15234 0
M  V30 1374 H 123.668 -0.250145 -5.02378 0
M  V30 1375 H 123.368 -1.92492 -5.55176 0
M  V30 1376 H 124.892 -1.10968 -6.00432 0
M  V30 1377 H 126.306 -3.06349 -4.84586 0
M  V30 1378 H 124.703 -3.82333 -4.62538 0
M  V30 1379 H 125.773 -3.61966 -3.22658 0
M  V30 1380 N 127.117 1.15442 -1.07289 0
M  V30 1381 C 128.345 1.90096 -0.81676 0
M  V30 1382 C 128.76 1.7798 0.629966 0
M  V30 1383 O 128.117 1.1313 1.43206 0
M  V30 1384 C 128.168 3.40466 -1.21512 0
M  V30 1385 O 127.889 3.52232 -2.60508 0
M  V30 1386 C 129.39 4.32145 -0.988198 0
M  V30 1387 H 126.61 0.602495 -0.295366 0
M  V30 1388 H 129.154 1.4627 -1.42918 0
M  V30 1389 H 127.309 3.81958 -0.647039 0
M  V30 1390 H 127.723 4.45549 -2.76742 0
M  V30 1391 H 129.197 5.36072 -1.31645 0
M  V30 1392 H 129.674 4.39135 0.0755063 0
M  V30 1393 H 130.28 3.96395 -1.54115 0
M  V30 1394 N 128.595 0.856903 1.32268 0
M  V30 1395 C 129.525 0.31858 2.31316 0
M  V30 1396 C 130.506 -0.583487 1.59779 0
M  V30 1397 O 131.691 -0.503259 1.87566 0
M  V30 1398 C 128.821 -0.491979 3.43798 0
M  V30 1399 C 127.775 0.315849 4.26833 0
M  V30 1400 C 127.101 -0.619586 5.31098 0
M  V30 1401 C 128.401 1.54282 4.98993 0
M  V30 1402 H 130.095 1.14621 2.76591 0
M  V30 1403 H 127.641 0.552613 1.32974 0
M  V30 1404 H 129.594 -0.879012 4.1213 0
M  V30 1405 H 128.318 -1.35299 2.97257 0
M  V30 1406 H 126.977 0.684664 3.6015 0
M  V30 1407 H 126.625 -1.47751 4.8081 0
M  V30 1408 H 126.325 -0.0830621 5.87541 0
M  V30 1409 H 127.849 -1.00375 6.02293 0
M  V30 1410 H 129.263 1.22796 5.59995 0
M  V30 1411 H 127.66 2.01745 5.65172 0
M  V30 1412 H 128.73 2.30285 4.26728 0
M  V30 1413 N 130.073 -1.45103 0.615059 0
M  V30 1414 C 130.983 -2.34382 -0.101034 0
M  V30 1415 C 131.999 -1.51681 -0.852585 0
M  V30 1416 O 133.175 -1.8446 -0.808484 0
M  V30 1417 C 130.24 -3.29417 -1.08099 0
M  V30 1418 C 129.301 -4.28025 -0.330577 0
M  V30 1419 C 128.534 -5.1852 -1.26385 0
M  V30 1420 O 128.757 -5.12598 -2.50198 0
M  V30 1421 O 127.691 -5.97122 -0.756866 0
M  V30 1422 H 131.517 -2.97033 0.632855 0
M  V30 1423 H 129.102 -1.4461 0.375293 0
M  V30 1424 H 130.984 -3.87958 -1.6452 0
M  V30 1425 H 129.659 -2.69321 -1.79577 0
M  V30 1426 H 128.566 -3.73078 0.276283 0
M  V30 1427 H 129.899 -4.90997 0.343866 0
M  V30 1428 N 131.551 -0.354651 -1.53558 0
M  V30 1429 C 132.499 0.512195 -2.26891 0
M  V30 1430 C 133.493 1.09263 -1.29452 0
M  V30 1431 O 134.699 1.03709 -1.47121 0
M  V30 1432 H 131.074 0.183878 -0.729173 0
M  V30 1433 H 133.045 -0.128202 -2.98124 0
M  V30 1434 C 131.794 1.64563 -3.06291 0
M  V30 1435 H 131.117 1.20829 -3.81104 0
M  V30 1436 H 132.557 2.22711 -3.60799 0
M  V30 1437 C 131.016 2.58158 -2.16462 0
M  V30 1438 O 131.546 3.60695 -1.76811 0
M  V30 1439 N 129.752 2.27096 -1.81317 0
M  V30 1440 H 129.299 1.43751 -2.1376 0
M  V30 1441 H 129.257 2.89975 -1.21498 0
M  V30 1442 N 133.029 1.57378 -0.0835403 0
M  V30 1443 C 133.959 2.1641 0.87686 0
M  V30 1444 C 134.94 1.09429 1.30228 0
M  V30 1445 O 136.125 1.37516 1.37124 0
M  V30 1446 C 133.255 2.73517 2.14022 0
M  V30 1447 C 132.209 3.85769 1.85381 0
M  V30 1448 C 131.535 4.29529 3.18448 0
M  V30 1449 C 132.835 5.09486 1.14984 0
M  V30 1450 H 134.529 2.96914 0.385059 0
M  V30 1451 H 132.075 1.42823 0.18377 0
M  V30 1452 H 134.028 3.13463 2.81636 0
M  V30 1453 H 132.752 1.90252 2.65465 0
M  V30 1454 H 131.411 3.46345 1.20169 0
M  V30 1455 H 131.059 3.43169 3.67755 0
M  V30 1456 H 130.759 5.05204 3.00071 0
M  V30 1457 H 132.283 4.72099 3.8724 0
M  V30 1458 H 133.697 5.46674 1.72687 0
M  V30 1459 H 132.094 5.90515 1.06826 0
M  V30 1460 H 133.164 4.84724 0.130749 0
M  V30 1461 N 134.507 -0.190092 1.56449 0
M  V30 1462 C 135.756 -0.907912 1.80111 0
M  V30 1463 C 136.069 -1.84214 0.657619 0
M  V30 1464 O 137.275 -2.60094 0.778663 0
M  V30 1465 C 135.731 -1.66485 3.19078 0
M  V30 1466 C 135.339 -0.7752 4.41242 0
M  V30 1467 C 137.083 -2.37201 3.52045 0
M  V30 1468 C 134.99 -1.53129 5.71231 0
M  V30 1469 H 133.92 -0.34276 0.671589 0
M  V30 1470 H 136.571 -0.161109 1.82791 0
M  V30 1471 H 134.953 -2.45572 3.10661 0
M  V30 1472 H 136.127 -0.0226298 4.60794 0
M  V30 1473 H 134.442 -0.178627 4.16017 0
M  V30 1474 H 137.039 -2.94329 4.46402 0
M  V30 1475 H 137.382 -3.11632 2.76028 0
M  V30 1476 H 137.915 -1.65075 3.61932 0
M  V30 1477 H 134.654 -0.82967 6.50228 0
M  V30 1478 H 134.174 -2.25767 5.55688 0
M  V30 1479 H 135.853 -2.08377 6.12526 0
M  V30 1480 N 135.985 -1.50799 -0.457987 0
M  V30 1481 C 136.915 -1.73553 -1.5621 0
M  V30 1482 C 137.896 -0.584774 -1.59732 0
M  V30 1483 O 139.081 -0.825314 -1.7579 0
M  V30 1484 C 136.211 -1.84169 -2.94447 0
M  V30 1485 C 135.165 -2.99461 -3.0579 0
M  V30 1486 C 134.491 -2.95235 -4.45803 0
M  V30 1487 C 135.791 -4.39766 -2.81786 0
M  V30 1488 H 137.485 -2.66 -1.37421 0
M  V30 1489 H 135.031 -1.28002 -0.659662 0
M  V30 1490 H 136.984 -1.98672 -3.71628 0
M  V30 1491 H 135.708 -0.883545 -3.14422 0
M  V30 1492 H 134.367 -2.8463 -2.31044 0
M  V30 1493 H 134.015 -1.97239 -4.62715 0
M  V30 1494 H 133.715 -3.72642 -4.54326 0
M  V30 1495 H 135.239 -3.11803 -5.24987 0
M  V30 1496 H 136.653 -4.55054 -3.4871 0
M  V30 1497 H 135.05 -5.18722 -3.0174 0
M  V30 1498 H 136.12 -4.51229 -1.7754 0
M  V30 1499 N 137.463 0.71206 -1.40597 0
M  V30 1500 C 138.411 1.84746 -1.41321 0
M  V30 1501 C 139.405 1.66842 -0.293268 0
M  V30 1502 O 140.611 1.73904 -0.464481 0
M  V30 1503 H 136.986 0.608522 -0.441819 0
M  V30 1504 H 138.957 1.81252 -2.37045 0
M  V30 1505 C 137.706 3.22638 -1.29614 0
M  V30 1506 H 137.029 3.37023 -2.15071 0
M  V30 1507 H 138.469 4.02209 -1.3418 0
M  V30 1508 C 136.928 3.36899 -0.00673121 0
M  V30 1509 O 137.458 3.90186 0.954859 0
M  V30 1510 N 135.664 2.9053 0.0639327 0
M  V30 1511 H 135.211 2.47353 -0.719311 0
M  V30 1512 H 135.169 3.0045 0.926118 0
M  V30 1513 N 138.941 1.26152 0.944643 0
M  V30 1514 C 139.851 1.09176 2.07648 0
M  V30 1515 C 140.867 0.0261935 1.7398 0
M  V30 1516 O 142.043 0.229208 2.00091 0
M  V30 1517 C 139.108 0.722915 3.39079 0
M  V30 1518 C 138.169 1.86752 3.86552 0
M  V30 1519 C 137.402 1.51617 5.11711 0
M  V30 1520 O 137.625 0.416331 5.68879 0
M  V30 1521 O 136.559 2.34975 5.54139 0
M  V30 1522 H 140.385 2.0412 2.24875 0
M  V30 1523 H 137.97 1.05182 1.061 0
M  V30 1524 H 139.852 0.529787 4.18056 0
M  V30 1525 H 138.527 -0.197159 3.23099 0
M  V30 1526 H 137.434 2.11558 3.08535 0
M  V30 1527 H 138.767 2.76719 4.07047 0
M  V30 1528 N 140.419 -1.14872 1.07899 0
M  V30 1529 C 141.666 -1.85789 0.805532 0
M  V30 1530 C 141.994 -1.82649 -0.668561 0
M  V30 1531 O 141.249 -1.24858 -1.50695 0
M  V30 1532 C 141.548 -3.34223 1.26609 0
M  V30 1533 C 141.214 -3.57555 2.74709 0
M  V30 1534 C 139.876 -3.63631 3.1516 0
M  V30 1535 C 142.228 -3.66803 3.70277 0
M  V30 1536 C 139.556 -3.76473 4.49983 0
M  V30 1537 C 141.908 -3.8117 5.04869 0
M  V30 1538 C 140.572 -3.85494 5.44932 0
M  V30 1539 H 139.842 -0.679849 0.294765 0
M  V30 1540 H 142.489 -1.3572 1.35101 0
M  V30 1541 H 140.794 -3.86536 0.640103 0
M  V30 1542 H 142.491 -3.87511 1.03132 0
M  V30 1543 H 139.081 -3.5347 2.42398 0
M  V30 1544 H 143.265 -3.61404 3.40149 0
M  V30 1545 H 138.521 -3.7808 4.80484 0
M  V30 1546 H 142.695 -3.87268 5.78789 0
M  V30 1547 H 140.322 -3.95197 6.49403 0
M  V30 1548 N 141.898 -0.863906 -1.31812 0
M  V30 1549 C 143.123 -0.48527 -2.01643 0
M  V30 1550 C 143.548 0.913058 -1.64453 0
M  V30 1551 O 142.906 1.6014 -0.849985 0
M  V30 1552 C 142.954 -0.642625 -3.54828 0
M  V30 1553 O 142.058 0.320659 -4.11151 0
M  V30 1554 H 141.399 -0.193793 -0.635091 0
M  V30 1555 H 143.929 -1.16565 -1.68148 0
M  V30 1556 H 143.939 -0.533628 -4.04495 0
M  V30 1557 H 142.614 -1.66227 -3.81237 0
M  V30 1558 H 141.191 0.167126 -3.72525 0
M  V30 1559 N 143.376 1.44774 -0.622745 0
M  V30 1560 C 144.606 2.06187 -0.130532 0
M  V30 1561 C 145.014 1.46547 1.19669 0
M  V30 1562 O 144.357 0.579636 1.74316 0
M  V30 1563 C 144.419 3.59437 0.0674983 0
M  V30 1564 C 144.083 4.41496 -1.18026 0
M  V30 1565 C 145.08 4.75512 -2.102 0
M  V30 1566 C 142.765 4.82007 -1.41333 0
M  V30 1567 C 144.759 5.48912 -3.23998 0
M  V30 1568 C 142.446 5.55157 -2.55429 0
M  V30 1569 C 143.444 5.88528 -3.46589 0
M  V30 1570 O 143.132 6.60191 -4.58697 0
M  V30 1571 H 142.864 0.672045 -0.0730162 0
M  V30 1572 H 145.418 1.86768 -0.854802 0
M  V30 1573 H 143.648 3.77314 0.846825 0
M  V30 1574 H 145.337 4.02642 0.513209 0
M  V30 1575 H 146.103 4.4476 -1.93425 0
M  V30 1576 H 141.982 4.55457 -0.712709 0
M  V30 1577 H 145.526 5.74877 -3.95174 0
M  V30 1578 H 141.423 5.85324 -2.72151 0
M  V30 1579 H 142.191 6.78654 -4.57571 0
M  V30 1580 N 144.854 0.36279 1.53368 0
M  V30 1581 C 146.082 -0.228613 2.05633 0
M  V30 1582 C 146.497 -1.42676 1.23649 0
M  V30 1583 O 145.854 -1.80394 0.27647 0
M  V30 1584 C 145.905 -0.624845 3.56059 0
M  V30 1585 O 145.626 0.525675 4.34935 0
M  V30 1586 C 147.127 -1.27493 4.24571 0
M  V30 1587 H 144.347 -0.0407183 0.669763 0
M  V30 1588 H 146.891 0.520352 1.97769 0
M  V30 1589 H 145.046 -1.32373 3.64083 0
M  V30 1590 H 145.46 0.205969 5.24095 0
M  V30 1591 H 146.934 -1.50277 5.31151 0
M  V30 1592 H 147.411 -2.23439 3.78116 0
M  V30 1593 H 148.017 -0.617558 4.20792 0
M  V30 1594 N 146.332 -1.57332 0.0918853 0
M  V30 1595 C 147.295 -2.12708 -0.85369 0
M  V30 1596 C 148.295 -1.05561 -1.213 0
M  V30 1597 O 149.485 -1.31461 -1.14296 0
M  V30 1598 C 146.617 -2.64503 -2.15061 0
M  V30 1599 H 147.81 -2.97573 -0.3729 0
M  V30 1600 H 145.363 -1.55509 -0.157072 0
M  V30 1601 H 146.098 -1.83149 -2.67632 0
M  V30 1602 H 145.883 -3.4284 -1.90272 0
M  V30 1603 H 147.373 -3.07351 -2.82711 0
M  V30 1604 N 147.81 0.181792 -1.56548 0
M  V30 1605 C 149.038 0.915947 -1.85521 0
M  V30 1606 C 149.453 1.76282 -0.676016 0
M  V30 1607 O 148.81 1.79012 0.355077 0
M  V30 1608 C 148.861 1.80126 -3.13427 0
M  V30 1609 O 148.582 0.988562 -4.26801 0
M  V30 1610 C 150.083 2.64597 -3.55673 0
M  V30 1611 H 147.303 0.26661 -0.61576 0
M  V30 1612 H 149.847 0.185039 -2.03661 0
M  V30 1613 H 148.002 2.48563 -2.97145 0
M  V30 1614 H 148.416 1.59308 -4.99721 0
M  V30 1615 H 149.89 3.2235 -4.48101 0
M  V30 1616 H 150.367 3.38958 -2.79292 0
M  V30 1617 H 150.973 2.0151 -3.74532 0
M  V30 1618 N 149.288 1.51039 0.449983 0
M  V30 1619 C 150.198 1.74261 1.57067 0
M  V30 1620 C 151.214 0.626363 1.62335 0
M  V30 1621 O 152.39 0.907162 1.79812 0
M  V30 1622 C 149.455 1.85114 2.93144 0
M  V30 1623 C 148.516 3.0893 2.98095 0
M  V30 1624 C 147.749 3.19256 4.27681 0
M  V30 1625 O 147.972 2.35835 5.19363 0
M  V30 1626 O 146.906 4.12144 4.38658 0
M  V30 1627 H 150.732 2.69303 1.40391 0
M  V30 1628 H 148.317 1.35389 0.631688 0
M  V30 1629 H 150.199 1.94311 3.73926 0
M  V30 1630 H 148.874 0.932588 3.09975 0
M  V30 1631 H 147.781 3.0522 2.16314 0
M  V30 1632 H 149.114 4.00433 2.86206 0
M  V30 1633 N 150.766 -0.704594 1.40972 0
M  V30 1634 C 151.729 -1.80035 1.41845 0
M  V30 1635 C 152.729 -1.57774 0.310474 0
M  V30 1636 O 153.919 -1.64613 0.56992 0
M  V30 1637 C 151.051 -3.18284 1.22098 0
M  V30 1638 H 152.244 -1.80658 2.3938 0
M  V30 1639 H 149.797 -0.911329 1.26982 0
M  V30 1640 H 150.532 -3.23306 0.253672 0
M  V30 1641 H 150.317 -3.35843 2.02366 0
M  V30 1642 H 151.807 -3.98289 1.25522 0
M  V30 1643 N 152.244 -1.26651 -0.937939 0
M  V30 1644 C 153.66 -1.03834 -1.21205 0
M  V30 1645 C 153.86 0.234502 -2.00131 0
M  V30 1646 O 152.916 0.942767 -2.3424 0
M  V30 1647 C 154.229 -2.27167 -1.97017 0
M  V30 1648 C 155.777 -2.32101 -2.09996 0
M  V30 1649 C 156.252 -3.55136 -2.8921 0
M  V30 1650 N 157.743 -3.55632 -2.96783 0
M  V30 1651 C 158.478 -4.475 -3.58512 0
M  V30 1652 N 157.974 -5.4966 -4.21717 0
M  V30 1653 N 159.767 -4.35145 -3.55816 0
M  V30 1654 H 151.918 -2.08398 -0.410391 0
M  V30 1655 H 154.181 -0.916031 -0.244114 0
M  V30 1656 H 153.887 -3.19765 -1.46434 0
M  V30 1657 H 153.761 -2.31672 -2.97671 0
M  V30 1658 H 156.148 -1.40015 -2.59769 0
M  V30 1659 H 156.229 -2.31605 -1.08594 0
M  V30 1660 H 155.873 -4.47553 -2.40123 0
M  V30 1661 H 155.803 -3.5288 -3.90875 0
M  V30 1662 H 158.294 -2.81743 -2.51852 0
M  V30 1663 H 158.607 -6.15943 -4.66727 0
M  V30 1664 H 156.952 -5.53514 -4.20294 0
M  V30 1665 H 160.143 -3.5455 -3.05634 0
M  V30 1666 H 160.316 -5.06934 -4.03636 0
M  V30 1667 N 153.722 1.14298 -1.08507 0
M  V30 1668 C 155.138 1.37347 -0.812901 0
M  V30 1669 C 155.338 1.93052 0.577325 0
M  V30 1670 O 154.394 2.14389 1.33393 0
M  V30 1671 C 155.707 2.33359 -1.89642 0
M  V30 1672 C 157.255 2.46996 -1.92255 0
M  V30 1673 C 157.73 3.46309 -2.99724 0
M  V30 1674 N 159.221 3.53853 -2.98902 0
M  V30 1675 C 159.956 4.3055 -3.787 0
M  V30 1676 N 159.452 5.10482 -4.6838 0
M  V30 1677 N 161.245 4.25757 -3.66998 0
M  V30 1678 H 153.396 0.764867 -1.9815 0
M  V30 1679 H 155.659 0.398966 -0.859959 0
M  V30 1680 H 155.365 1.99565 -2.89597 0
M  V30 1681 H 155.239 3.33274 -1.76659 0
M  V30 1682 H 157.626 2.80081 -0.929445 0
M  V30 1683 H 157.707 1.47039 -2.09316 0
M  V30 1684 H 157.351 3.13957 -3.99241 0
M  V30 1685 H 157.281 4.46049 -2.79907 0
M  V30 1686 H 159.772 2.96812 -2.33904 0
M  V30 1687 H 160.085 5.66284 -5.25873 0
M  V30 1688 H 158.43 5.09747 -4.72422 0
M  V30 1689 H 161.621 3.62383 -2.96304 0
M  V30 1690 H 161.794 4.85279 -4.29427 0
M  V30 1691 N 155.201 0.870884 1.31352 0
M  V30 1692 C 156.131 0.343096 2.30966 0
M  V30 1693 C 157.112 -0.566507 1.60389 0
M  V30 1694 O 158.297 -0.483336 1.88089 0
M  V30 1695 C 155.427 -0.455487 3.443 0
M  V30 1696 C 154.381 0.361103 4.26474 0
M  V30 1697 C 153.707 -0.563221 5.31725 0
M  V30 1698 C 155.007 1.59566 4.97329 0
M  V30 1699 H 156.701 1.17548 2.75359 0
M  V30 1700 H 154.247 0.566686 1.32381 0
M  V30 1701 H 156.2 -0.83525 4.13039 0
M  V30 1702 H 154.924 -1.32139 2.98675 0
M  V30 1703 H 153.583 0.722825 3.59403 0
M  V30 1704 H 153.231 -1.42643 4.82351 0
M  V30 1705 H 152.931 -0.0207409 5.87596 0
M  V30 1706 H 154.455 -0.939808 6.03324 0
M  V30 1707 H 155.869 1.28728 5.58661 0
M  V30 1708 H 154.266 2.07728 5.63 0
M  V30 1709 H 155.336 2.34798 4.24262 0
M  V30 1710 N 156.679 -1.44442 0.630414 0
M  V30 1711 C 157.909 -2.06115 0.141465 0
M  V30 1712 C 158.317 -1.47179 -1.1889 0
M  V30 1713 O 157.66 -0.588873 -1.74006 0
M  V30 1714 C 157.722 -3.59467 -0.0484355 0
M  V30 1715 C 157.386 -4.40864 1.20366 0
M  V30 1716 C 158.383 -4.74391 2.12719 0
M  V30 1717 C 156.068 -4.8125 1.43887 0
M  V30 1718 C 158.062 -5.47186 3.26904 0
M  V30 1719 C 155.749 -5.53795 2.5837 0
M  V30 1720 C 156.747 -5.86682 3.49705 0
M  V30 1721 O 156.435 -6.57749 4.62191 0
M  V30 1722 H 156.167 -0.671648 0.0765792 0
M  V30 1723 H 158.721 -1.86312 0.864695 0
M  V30 1724 H 156.951 -3.77758 -0.826803 0
M  V30 1725 H 158.64 -4.02909 -0.491849 0
M  V30 1726 H 159.406 -4.43728 1.95781 0
M  V30 1727 H 155.285 -4.55073 0.736853 0
M  V30 1728 H 158.829 -5.72773 3.98217 0
M  V30 1729 H 154.726 -5.83872 2.75251 0
M  V30 1730 H 155.494 -6.76217 4.61164 0
M  V30 1731 N 158.157 -0.370918 -1.53173 0
M  V30 1732 C 159.087 0.464847 -2.28826 0
M  V30 1733 C 160.068 1.07936 -1.31468 0
M  V30 1734 O 161.253 1.0956 -1.60344 0
M  V30 1735 C 158.383 1.60196 -3.08147 0
M  V30 1736 C 157.337 1.11443 -4.13237 0
M  V30 1737 C 156.663 2.3422 -4.80672 0
M  V30 1738 C 157.963 0.195384 -5.21934 0
M  V30 1739 H 159.657 -0.166329 -2.98938 0
M  V30 1740 H 157.203 -0.0814359 -1.4377 0
M  V30 1741 H 159.156 2.19332 -3.59822 0
M  V30 1742 H 157.88 2.26045 -2.35735 0
M  V30 1743 H 156.539 0.545727 -3.62515 0
M  V30 1744 H 156.187 2.98537 -4.04827 0
M  V30 1745 H 155.887 2.02269 -5.51689 0
M  V30 1746 H 157.411 2.94032 -5.35143 0
M  V30 1747 H 158.825 0.694375 -5.69079 0
M  V30 1748 H 157.222 -0.0335027 -6.00091 0
M  V30 1749 H 158.292 -0.760961 -4.78892 0
M  V30 1750 N 159.635 1.57281 -0.100228 0
M  V30 1751 C 160.567 2.11342 0.886972 0
M  V30 1752 C 161.58 1.05182 1.24261 0
M  V30 1753 O 162.769 1.32613 1.19483 0
M  V30 1754 C 159.869 2.5825 2.19454 0
M  V30 1755 C 159.042 3.88302 2.01346 0
M  V30 1756 C 158.101 4.21004 3.15661 0
M  V30 1757 O 157.127 4.9014 2.89398 0
M  V30 1758 N 158.329 3.76818 4.41575 0
M  V30 1759 H 161.094 2.96668 0.425216 0
M  V30 1760 H 158.655 1.61678 0.0847334 0
M  V30 1761 H 160.647 2.7717 2.94888 0
M  V30 1762 H 159.217 1.77907 2.57037 0
M  V30 1763 H 158.437 3.7848 1.10212 0
M  V30 1764 H 159.725 4.73375 1.8653 0
M  V30 1765 H 159.123 3.2102 4.65792 0
M  V30 1766 H 157.68 4.00882 5.13942 0
M  V30 1767 N 161.113 -0.173488 1.56642 0
M  V30 1768 C 162.529 -0.525174 1.50712 0
M  V30 1769 C 162.729 -1.8476 0.804107 0
M  V30 1770 O 161.785 -2.49869 0.363574 0
M  V30 1771 C 163.098 -0.559937 2.95441 0
M  V30 1772 C 164.646 -0.647288 3.06234 0
M  V30 1773 C 165.121 -0.712963 4.52417 0
M  V30 1774 N 166.612 -0.775911 4.56655 0
M  V30 1775 C 167.347 -0.847264 5.67106 0
M  V30 1776 N 166.843 -0.879585 6.87194 0
M  V30 1777 N 168.636 -0.886117 5.55071 0
M  V30 1778 H 160.787 0.693681 2.00753 0
M  V30 1779 H 163.05 0.249841 0.914485 0
M  V30 1780 H 162.756 0.343049 3.50023 0
M  V30 1781 H 162.63 -1.40718 3.49969 0
M  V30 1782 H 165.017 -1.5407 2.51687 0
M  V30 1783 H 165.098 0.226586 2.54794 0
M  V30 1784 H 164.742 0.176183 5.07594 0
M  V30 1785 H 164.672 -1.60295 5.0161 0
M  V30 1786 H 167.163 -0.759304 3.70193 0
M  V30 1787 H 167.476 -0.935144 7.67121 0
M  V30 1788 H 165.821 -0.847898 6.89808 0
M  V30 1789 H 169.012 -0.857853 4.60172 0
M  V30 1790 H 169.185 -0.938263 6.41171 0
M  V30 1791 N 162.591 -1.51276 -0.441967 0
M  V30 1792 C 163.538 -1.72256 -1.53612 0
M  V30 1793 C 164.508 -0.564164 -1.56225 0
M  V30 1794 O 165.693 -0.798074 -1.73307 0
M  V30 1795 C 162.833 -1.84932 -2.91366 0
M  V30 1796 C 161.946 -3.12459 -2.98317 0
M  V30 1797 C 161.081 -3.15758 -4.27166 0
M  V30 1798 C 160.12 -4.37619 -4.27967 0
M  V30 1799 N 159.257 -4.38493 -5.48333 0
M  V30 1800 H 164.097 -2.65654 -1.35026 0
M  V30 1801 H 161.634 -1.31662 -0.656009 0
M  V30 1802 H 163.592 -1.90263 -3.7129 0
M  V30 1803 H 162.222 -0.949461 -3.08521 0
M  V30 1804 H 161.274 -3.1646 -2.11086 0
M  V30 1805 H 162.586 -4.02382 -2.94771 0
M  V30 1806 H 161.74 -3.19979 -5.15459 0
M  V30 1807 H 160.479 -2.23715 -4.33362 0
M  V30 1808 H 159.484 -4.33579 -3.38067 0
M  V30 1809 H 160.709 -5.30921 -4.23438 0
M  V30 1810 H 158.655 -3.49318 -5.55259 0
M  V30 1811 H 158.572 -5.22219 -5.46647 0
M  V30 1812 H 159.84 -4.469 -6.38671 0
M  V30 1813 N 164.069 0.697108 -1.41344 0
M  V30 1814 C 165.297 1.48593 -1.43972 0
M  V30 1815 C 165.712 1.88747 -0.0445612 0
M  V30 1816 O 165.069 1.56682 0.935785 0
M  V30 1817 C 165.12 2.74946 -2.34706 0
M  V30 1818 O 164.841 2.36484 -3.68791 0
M  V30 1819 C 166.342 3.687 -2.46121 0
M  V30 1820 H 163.562 0.457964 -0.490418 0
M  V30 1821 H 166.106 0.858429 -1.8561 0
M  V30 1822 H 164.261 3.33937 -1.9638 0
M  V30 1823 H 164.675 3.17918 -4.17167 0
M  V30 1824 H 166.149 4.54145 -3.13777 0
M  V30 1825 H 166.626 4.13081 -1.49199 0
M  V30 1826 H 167.232 3.15613 -2.85076 0
M  V30 1827 N 165.547 1.27147 0.931209 0
M  V30 1828 C 166.793 1.13446 1.68101 0
M  V30 1829 C 167.126 -0.319628 1.91552 0
M  V30 1830 O 166.401 -1.23407 1.50336 0
M  V30 1831 C 166.684 1.91482 3.0497 0
M  V30 1832 C 166.537 3.44855 2.88782 0
M  V30 1833 C 167.856 1.71651 4.05246 0
M  V30 1834 H 164.975 0.413498 0.610072 0
M  V30 1835 H 167.617 1.56261 1.08086 0
M  V30 1836 H 165.767 1.55095 3.56199 0
M  V30 1837 H 167.439 3.9105 2.44698 0
M  V30 1838 H 165.682 3.71373 2.24198 0
M  V30 1839 H 166.353 3.94694 3.85902 0
M  V30 1840 H 168.829 2.0337 3.63015 0
M  V30 1841 H 167.705 2.28651 4.99009 0
M  V30 1842 H 167.966 0.663555 4.37092 0
M  V30 1843 N 167.025 -1.13721 1.09112 0
M  V30 1844 C 168.436 -1.6648 0.845068 0
M  V30 1845 C 168.787 -1.85911 -0.62701 0
M  V30 1846 O 167.912 -1.57556 -1.48341 0
M  V30 1847 C 168.507 -3.02413 1.52748 0
M  V30 1848 C 167.066 -3.52176 1.32849 0
M  V30 1849 C 166.213 -2.27492 1.58564 0
M  V30 1850 H 169.164 -0.976872 1.25072 0
M  V30 1851 H 169.185 -3.68223 0.958752 0
M  V30 1852 H 168.697 -2.88238 2.59885 0
M  V30 1853 H 166.798 -3.7156 0.278137 0
M  V30 1854 H 166.911 -4.32499 2.0611 0
M  V30 1855 H 165.275 -2.33923 1.00758 0
M  V30 1856 H 166.058 -2.15886 2.66924 0
M  V30 1857 N 168.503 -0.877838 -1.30888 0
M  V30 1858 C 169.728 -0.506629 -2.01117 0
M  V30 1859 C 170.153 0.895564 -1.65412 0
M  V30 1860 O 169.511 1.5923 -0.866922 0
M  V30 1861 C 169.559 -0.680223 -3.54126 0
M  V30 1862 O 168.663 0.277033 -4.11468 0
M  V30 1863 H 168.004 -0.200518 -0.633 0
M  V30 1864 H 170.534 -1.18342 -1.66902 0
M  V30 1865 H 170.544 -0.5765 -4.03907 0
M  V30 1866 H 169.219 -1.70261 -3.79452 0
M  V30 1867 H 167.796 0.127606 -3.72682 0
M  V30 1868 N 169.982 1.44106 -0.638065 0
M  V30 1869 C 170.945 2.29138 0.0531013 0
M  V30 1870 C 171.945 1.41409 0.765506 0
M  V30 1871 O 173.135 1.63206 0.609046 0
M  V30 1872 C 170.267 3.23144 1.08584 0
M  V30 1873 H 171.46 2.91739 -0.694883 0
M  V30 1874 H 169.013 1.51134 -0.398538 0
M  V30 1875 H 169.748 2.65408 1.86357 0
M  V30 1876 H 169.533 3.87804 0.578852 0
M  V30 1877 H 171.023 3.87004 1.56899 0
M  V30 1878 N 171.46 0.379036 1.52974 0
M  V30 1879 C 172.39 -0.452706 2.29069 0
M  V30 1880 C 173.371 -1.07237 1.32039 0
M  V30 1881 O 174.556 -1.08708 1.60923 0
M  V30 1882 C 171.686 -1.5856 3.08992 0
M  V30 1883 C 170.64 -1.0925 4.13822 0
M  V30 1884 C 169.966 -2.31668 4.81907 0
M  V30 1885 C 171.266 -0.167702 5.22031 0
M  V30 1886 H 172.96 0.182181 2.98845 0
M  V30 1887 H 170.506 0.0890592 1.43724 0
M  V30 1888 H 172.459 -2.1742 3.6098 0
M  V30 1889 H 171.183 -2.24792 2.36931 0
M  V30 1890 H 169.842 -0.526494 3.628 0
M  V30 1891 H 169.49 -2.96386 4.06404 0
M  V30 1892 H 169.19 -1.9934 5.52754 0
M  V30 1893 H 170.714 -2.91189 5.36695 0
M  V30 1894 H 172.128 -0.664186 5.6944 0
M  V30 1895 H 170.525 0.0653265 6.00064 0
M  V30 1896 H 171.595 0.786347 4.78482 0
M  V30 1897 N 172.938 -1.57226 0.108567 0
M  V30 1898 C 173.868 -2.17778 -0.84232 0
M  V30 1899 C 174.849 -1.11487 -1.2847 0
M  V30 1900 O 176.034 -1.39681 -1.34918 0
M  V30 1901 C 173.164 -2.76888 -2.09644 0
M  V30 1902 C 172.118 -3.88669 -1.79221 0
M  V30 1903 C 171.444 -4.34541 -3.11574 0
M  V30 1904 C 172.744 -5.11251 -1.06864 0
M  V30 1905 H 174.438 -2.97489 -0.337774 0
M  V30 1906 H 171.984 -1.43097 -0.161025 0
M  V30 1907 H 173.937 -3.17904 -2.76614 0
M  V30 1908 H 172.661 -1.94451 -2.62405 0
M  V30 1909 H 171.32 -3.48213 -1.14644 0
M  V30 1910 H 170.968 -3.48977 -3.62249 0
M  V30 1911 H 170.668 -5.09914 -2.91996 0
M  V30 1912 H 172.192 -4.782 -3.7968 0
M  V30 1913 H 173.606 -5.49352 -1.63968 0
M  V30 1914 H 172.003 -5.9214 -0.974178 0
M  V30 1915 H 173.073 -4.8487 -0.0536168 0
M  V30 1916 N 174.416 0.165178 -1.56732 0
M  V30 1917 C 175.662 0.882112 -1.82611 0
M  V30 1918 C 175.995 1.81628 -0.687378 0
M  V30 1919 O 175.27 1.92009 0.310267 0
M  V30 1920 C 175.553 1.67245 -3.18906 0
M  V30 1921 C 175.406 0.760987 -4.43316 0
M  V30 1922 C 176.725 2.63884 -3.52212 0
M  V30 1923 H 173.844 0.319242 -0.664269 0
M  V30 1924 H 176.486 0.148052 -1.89422 0
M  V30 1925 H 174.636 2.29824 -3.1323 0
M  V30 1926 H 176.308 0.147596 -4.61064 0
M  V30 1927 H 174.551 0.0694102 -4.33744 0
M  V30 1928 H 175.222 1.34962 -5.35247 0
M  V30 1929 H 177.698 2.11429 -3.58381 0
M  V30 1930 H 176.574 3.16245 -4.48643 0
M  V30 1931 H 176.835 3.44377 -2.77231 0
M  V30 1932 N 175.894 1.51508 0.433938 0
M  V30 1933 C 176.826 1.69266 1.54537 0
M  V30 1934 C 177.839 0.573276 1.52373 0
M  V30 1935 O 179.028 0.847698 1.57087 0
M  V30 1936 C 176.128 1.69524 2.93453 0
M  V30 1937 C 175.301 2.98101 3.20085 0
M  V30 1938 C 174.36 2.90502 4.38742 0
M  V30 1939 O 173.386 3.64442 4.3723 0
M  V30 1940 N 174.588 2.06586 5.42496 0
M  V30 1941 H 177.353 2.65145 1.39708 0
M  V30 1942 H 174.914 1.49437 0.622922 0
M  V30 1943 H 176.906 1.62004 3.70859 0
M  V30 1944 H 175.476 0.812245 3.01863 0
M  V30 1945 H 174.696 3.19464 2.30947 0
M  V30 1946 H 175.984 3.83207 3.34708 0
M  V30 1947 H 175.382 1.45896 5.46563 0
M  V30 1948 H 173.939 2.04943 6.18742 0
M  V30 1949 N 177.372 -0.689602 1.41712 0
M  V30 1950 C 178.302 -1.81577 1.46806 0
M  V30 1951 C 179.283 -1.66945 0.326105 0
M  V30 1952 O 180.468 -1.86588 0.538377 0
M  V30 1953 C 177.598 -3.19762 1.35535 0
M  V30 1954 C 176.552 -3.49107 2.47605 0
M  V30 1955 C 175.878 -4.86711 2.21397 0
M  V30 1956 C 177.178 -3.47483 3.89939 0
M  V30 1957 H 178.872 -1.7757 2.41058 0
M  V30 1958 H 176.418 -0.852887 1.16025 0
M  V30 1959 H 178.371 -3.98263 1.3771 0
M  V30 1960 H 177.095 -3.24409 0.377708 0
M  V30 1961 H 175.754 -2.72959 2.44722 0
M  V30 1962 H 175.402 -4.8799 1.21961 0
M  V30 1963 H 175.102 -5.0731 2.96497 0
M  V30 1964 H 176.626 -5.67515 2.25297 0
M  V30 1965 H 178.04 -4.1598 3.94505 0
M  V30 1966 H 176.437 -3.79615 4.64771 0
M  V30 1967 H 177.507 -2.46341 4.17665 0
M  V30 1968 N 178.85 -1.27639 -0.924453 0
M  V30 1969 C 180.099 -1.13549 -1.66702 0
M  V30 1970 C 180.412 0.317487 -1.93006 0
M  V30 1971 O 181.618 0.579333 -2.65247 0
M  V30 1972 C 180.074 -1.98426 -3.00259 0
M  V30 1973 C 179.682 -3.484 -2.81641 0
M  V30 1974 C 181.426 -1.92993 -3.78092 0
M  V30 1975 C 179.333 -4.25464 -4.10773 0
M  V30 1976 H 178.263 -0.421351 -0.625283 0
M  V30 1977 H 180.914 -1.52085 -1.02676 0
M  V30 1978 H 179.296 -1.52736 -3.6536 0
M  V30 1979 H 180.47 -4.01973 -2.25287 0
M  V30 1980 H 178.785 -3.55245 -2.17232 0
M  V30 1981 H 181.382 -2.47844 -4.7379 0
M  V30 1982 H 181.725 -0.904281 -4.0636 0
M  V30 1983 H 182.258 -2.36595 -3.19793 0
M  V30 1984 H 178.997 -5.28566 -3.87683 0
M  V30 1985 H 178.517 -3.76667 -4.66779 0
M  V30 1986 H 180.196 -4.34812 -4.79111 0
M  V30 1987 N 180.328 1.1314 -1.09713 0
M  V30 1988 C 181.26 2.18343 -0.697056 0
M  V30 1989 C 182.273 1.60669 0.262551 0
M  V30 1990 O 183.462 1.78435 0.0481527 0
M  V30 1991 C 180.562 3.38899 -0.00684728 0
M  V30 1992 C 179.735 4.26078 -0.988741 0
M  V30 1993 C 178.794 5.25155 -0.331394 0
M  V30 1994 O 177.82 5.60701 -0.979926 0
M  V30 1995 N 179.022 5.73271 0.913261 0
M  V30 1996 H 181.787 2.5328 -1.60216 0
M  V30 1997 H 179.348 1.28491 -0.984971 0
M  V30 1998 H 181.34 4.02255 0.444191 0
M  V30 1999 H 179.91 3.02175 0.800551 0
M  V30 2000 H 179.13 3.59453 -1.61826 0
M  V30 2001 H 180.418 4.81178 -1.65364 0
M  V30 2002 H 179.816 5.46544 1.45966 0
M  V30 2003 H 178.373 6.3855 1.30757 0
M  V30 2004 N 181.806 0.884767 1.30421 0
M  V30 2005 C 182.716 0.355398 2.31892 0
M  V30 2006 C 183.732 -0.542261 1.65335 0
M  V30 2007 O 184.908 -0.435432 1.96637 0
M  V30 2008 C 181.973 -0.421661 3.44126 0
M  V30 2009 C 181.034 0.505727 4.26311 0
M  V30 2010 C 180.267 -0.234343 5.33185 0
M  V30 2011 O 180.49 -1.46045 5.51386 0
M  V30 2012 O 179.424 0.415443 6.00465 0
M  V30 2013 H 183.25 1.19685 2.79122 0
M  V30 2014 H 180.835 0.648596 1.34587 0
M  V30 2015 H 182.717 -0.861641 4.12497 0
M  V30 2016 H 181.392 -1.23942 2.99032 0
M  V30 2017 H 180.299 0.994513 3.60639 0
M  V30 2018 H 181.632 1.28948 4.75009 0
M  V30 2019 N 183.284 -1.43765 0.645699 0
M  V30 2020 C 184.7 -1.56509 0.312591 0
M  V30 2021 C 184.9 -1.6307 -1.18365 0
M  V30 2022 O 183.956 -1.58167 -1.96824 0
M  V30 2023 C 185.269 -2.82968 1.01733 0
M  V30 2024 C 186.817 -2.96701 0.996865 0
M  V30 2025 C 187.292 -4.25982 1.68236 0
M  V30 2026 N 188.783 -4.32829 1.64964 0
M  V30 2027 C 189.518 -5.31613 2.14885 0
M  V30 2028 N 189.014 -6.36718 2.73061 0
M  V30 2029 N 190.807 -5.23217 2.05428 0
M  V30 2030 H 182.958 -1.3775 1.61675 0
M  V30 2031 H 185.221 -0.661067 0.679481 0
M  V30 2032 H 184.927 -2.84156 2.0724 0
M  V30 2033 H 184.801 -3.72957 0.564177 0
M  V30 2034 H 187.188 -2.95058 -0.0497719 0
M  V30 2035 H 187.269 -2.08022 1.48865 0
M  V30 2036 H 186.913 -4.28386 2.72852 0
M  V30 2037 H 186.843 -5.13545 1.16529 0
M  V30 2038 H 189.334 -3.57493 1.22503 0
M  V30 2039 H 189.647 -7.08401 3.08848 0
M  V30 2040 H 187.992 -6.37362 2.77118 0
M  V30 2041 H 191.183 -4.40019 1.59689 0
M  V30 2042 H 191.356 -6.00045 2.44643 0
M  V30 2043 N 184.763 -0.387143 -1.52771 0
M  V30 2044 C 185.693 0.440551 -2.29306 0
M  V30 2045 C 186.674 1.06535 -1.32606 0
M  V30 2046 O 187.859 1.07853 -1.61497 0
M  V30 2047 C 184.989 1.56919 -3.09829 0
M  V30 2048 C 183.943 1.07054 -4.14395 0
M  V30 2049 C 183.269 2.29109 -4.83129 0
M  V30 2050 C 184.569 0.140015 -5.22112 0
M  V30 2051 H 186.263 -0.198026 -2.98744 0
M  V30 2052 H 183.809 -0.09668 -1.43675 0
M  V30 2053 H 185.762 2.15503 -3.62128 0
M  V30 2054 H 184.486 2.23532 -2.3812 0
M  V30 2055 H 183.145 0.507247 -3.63074 0
M  V30 2056 H 182.793 2.94227 -4.0797 0
M  V30 2057 H 182.493 1.96406 -5.53804 0
M  V30 2058 H 184.017 2.88339 -5.38231 0
M  V30 2059 H 185.431 0.633978 -5.69784 0
M  V30 2060 H 183.828 -0.0971485 -6.00021 0
M  V30 2061 H 184.898 -0.811711 -4.78058 0
M  V30 2062 N 186.241 1.57166 -0.116904 0
M  V30 2063 C 187.204 2.14039 0.819742 0
M  V30 2064 C 188.204 1.07477 1.19605 0
M  V30 2065 O 189.394 1.33263 1.1219 0
M  V30 2066 C 186.526 2.67891 2.10826 0
M  V30 2067 H 187.719 2.98128 0.325511 0
M  V30 2068 H 185.272 1.55739 0.132312 0
M  V30 2069 H 186.007 1.87384 2.64685 0
M  V30 2070 H 185.792 3.45823 1.84793 0
M  V30 2071 H 187.282 3.11809 2.77785 0
M  V30 2072 N 187.719 -0.156864 1.56817 0
M  V30 2073 C 188.629 -1.2136 2.00771 0
M  V30 2074 C 189.645 -1.47598 0.921459 0
M  V30 2075 O 190.821 -1.59462 1.2302 0
M  V30 2076 C 187.886 -2.52943 2.37109 0
M  V30 2077 C 186.947 -2.34439 3.59634 0
M  V30 2078 C 186.18 -3.59748 3.94229 0
M  V30 2079 O 186.403 -4.65526 3.29609 0
M  V30 2080 O 185.337 -3.52998 4.8752 0
M  V30 2081 H 189.163 -0.870468 2.90958 0
M  V30 2082 H 186.748 -0.36484 1.44877 0
M  V30 2083 H 188.63 -3.30538 2.61386 0
M  V30 2084 H 187.305 -2.86806 1.5008 0
M  V30 2085 H 186.212 -1.54828 3.40557 0
M  V30 2086 H 187.545 -2.05496 4.4725 0
M  V30 2087 N 189.197 -1.51736 -0.425897 0
M  V30 2088 C 190.107 -1.76738 -1.54275 0
M  V30 2089 C 191.123 -0.65211 -1.61318 0
M  V30 2090 O 192.299 -0.935654 -1.78346 0
M  V30 2091 C 189.364 -1.89755 -2.90162 0
M  V30 2092 C 188.425 -3.13633 -2.93143 0
M  V30 2093 C 187.658 -3.2602 -4.22548 0
M  V30 2094 O 187.881 -2.44067 -5.15546 0
M  V30 2095 O 186.815 -4.19071 -4.32046 0
M  V30 2096 H 190.641 -2.71502 -1.36089 0
M  V30 2097 H 188.226 -1.36376 -0.610069 0
M  V30 2098 H 190.108 -2.00236 -3.70788 0
M  V30 2099 H 188.783 -0.981785 -3.08452 0
M  V30 2100 H 187.69 -3.08622 -2.11431 0
M  V30 2101 H 189.023 -4.04936 -2.798 0
M  V30 2102 N 190.675 0.682077 -1.42076 0
M  V30 2103 C 191.952 1.43755 -1.32642 0
M  V30 2104 C 192.332 2.11063 0.0396611 0
M  V30 2105 O 191.68 2.02701 1.05474 0
M  V30 2106 C 191.89 2.44596 -2.48946 0
M  V30 2107 C 193.238 3.09454 -2.9073 0
M  V30 2108 O 194.262 2.54922 -2.48783 0
M  V30 2109 O 193.121 4.08253 -3.63307 0
M  V30 2110 H 190.215 0.640857 -0.522715 0
M  V30 2111 H 192.761 0.711415 -1.54068 0
M  V30 2112 H 191.533 1.93609 -3.40046 0
M  V30 2113 H 191.156 3.24701 -2.29467 0
M  V30 2114 N 192.153 1.28127 0.917671 0
M  V30 2115 C 193.393 1.163 1.68088 0
M  V30 2116 C 193.757 -0.284515 1.8988 0
M  V30 2117 O 194.958 -0.525413 2.63615 0
M  V30 2118 C 193.229 1.93546 3.00457 0
M  V30 2119 S 194.788 1.98048 3.91564 0
M  V30 2120 H 191.606 0.415005 0.577315 0
M  V30 2121 H 194.208 1.62173 1.09179 0
M  V30 2122 H 192.912 2.97888 2.82295 0
M  V30 2123 H 192.443 1.48207 3.64415 0
M  V30 2124 H 194.458 1.08415 4.84211 0
M  V30 2125 N 193.631 -1.12557 1.10312 0
M  V30 2126 C 194.88 -1.83395 0.839588 0
M  V30 2127 C 195.193 -1.84939 -0.636929 0
M  V30 2128 O 196.399 -2.51761 -1.01631 0
M  V30 2129 C 194.855 -3.29303 1.45215 0
M  V30 2130 C 194.463 -3.36122 2.96186 0
M  V30 2131 C 196.207 -4.05121 1.26796 0
M  V30 2132 C 194.114 -4.76357 3.50483 0
M  V30 2133 H 193.044 -0.687133 0.310425 0
M  V30 2134 H 195.695 -1.26746 1.32694 0
M  V30 2135 H 194.077 -3.85812 0.892469 0
M  V30 2136 H 195.251 -2.89559 3.58458 0
M  V30 2137 H 193.566 -2.73776 3.13745 0
M  V30 2138 H 196.163 -5.08668 1.64806 0
M  V30 2139 H 196.506 -4.15773 0.209409 0
M  V30 2140 H 197.039 -3.54967 1.79563 0
M  V30 2141 H 193.778 -4.70899 4.55998 0
M  V30 2142 H 193.298 -5.23377 2.92978 0
M  V30 2143 H 194.977 -5.45294 3.48228 0
M  V30 2144 N 195.109 -0.891671 -1.2995 0
M  V30 2145 C 196.056 -0.361736 -2.27948 0
M  V30 2146 C 197.026 0.551761 -1.56668 0
M  V30 2147 O 198.211 0.478736 -1.84696 0
M  V30 2148 C 195.351 0.411825 -3.42634 0
M  V30 2149 C 194.464 -0.531651 -4.28716 0
M  V30 2150 C 193.599 0.258167 -5.30572 0
M  V30 2151 C 192.638 -0.680349 -6.08307 0
M  V30 2152 N 191.775 0.0745613 -7.0206 0
M  V30 2153 H 196.615 -1.20254 -2.72659 0
M  V30 2154 H 194.152 -0.604352 -1.34112 0
M  V30 2155 H 196.11 0.876304 -4.07893 0
M  V30 2156 H 194.74 1.21715 -2.98974 0
M  V30 2157 H 193.792 -1.11463 -3.63703 0
M  V30 2158 H 195.104 -1.25038 -4.82874 0
M  V30 2159 H 194.258 0.784204 -6.0161 0
M  V30 2160 H 192.997 1.01008 -4.77126 0
M  V30 2161 H 192.002 -1.21796 -5.3614 0
M  V30 2162 H 193.227 -1.43145 -6.63842 0
M  V30 2163 H 191.173 0.808883 -6.50994 0
M  V30 2164 H 191.09 -0.584409 -7.53738 0
M  V30 2165 H 192.358 0.581123 -7.77331 0
M  V30 2166 N 196.587 1.43421 -0.653314 0
M  V30 2167 C 197.519 2.29071 0.0769134 0
M  V30 2168 C 198.532 1.42513 0.787017 0
M  V30 2169 O 199.721 1.66449 0.644757 0
M  V30 2170 C 196.821 3.19436 1.13199 0
M  V30 2171 C 195.994 4.34533 0.500006 0
M  V30 2172 C 195.053 5.05771 1.45198 0
M  V30 2173 O 194.079 5.61037 0.960538 0
M  V30 2174 N 195.281 5.0928 2.78594 0
M  V30 2175 H 198.046 2.92382 -0.658235 0
M  V30 2176 H 195.607 1.54112 -0.496104 0
M  V30 2177 H 197.599 3.63958 1.76964 0
M  V30 2178 H 196.169 2.57724 1.7691 0
M  V30 2179 H 195.389 3.92925 -0.316738 0
M  V30 2180 H 196.677 5.08766 0.0588345 0
M  V30 2181 H 196.075 4.65751 3.2108 0
M  V30 2182 H 194.632 5.57519 3.37662 0
M  V30 2183 N 198.065 0.39524 1.52563 0
M  V30 2184 C 199.313 -0.184678 2.01254 0
M  V30 2185 C 199.634 -1.46822 1.28329 0
M  V30 2186 O 198.904 -1.91666 0.405094 0
M  V30 2187 H 197.484 -0.0712355 0.743596 0
M  V30 2188 H 200.146 0.528293 1.87603 0
M  V30 2189 H 199.242 -0.390681 3.09645 0
M  V30 2190 N 199.544 -1.57102 0.125237 0
M  V30 2191 C 200.79 -1.96488 -0.525753 0
M  V30 2192 C 201.145 -1.00786 -1.6389 0
M  V30 2193 O 200.438 -0.038979 -1.9156 0
M  V30 2194 C 200.632 -3.40096 -1.09862 0
M  V30 2195 C 200.461 -4.4968 -0.0425004 0
M  V30 2196 C 199.231 -5.03781 0.391463 0
M  V30 2197 C 201.429 -5.08936 0.740829 0
M  V30 2198 N 199.411 -5.96948 1.4327 0
M  V30 2199 C 200.782 -5.98105 1.6331 0
M  V30 2200 C 202.837 -4.91576 0.791029 0
M  V30 2201 C 201.54 -6.71774 2.57122 0
M  V30 2202 C 203.566 -5.6593 1.71688 0
M  V30 2203 C 202.928 -6.5479 2.59672 0
M  V30 2204 H 199.027 -0.765072 -0.161831 0
M  V30 2205 H 201.611 -1.93511 0.214801 0
M  V30 2206 H 199.782 -3.43707 -1.80887 0
M  V30 2207 H 201.514 -3.66591 -1.71444 0
M  V30 2208 H 198.269 -4.736 -0.00213584 0
M  V30 2209 H 198.693 -6.48236 1.95243 0
M  V30 2210 H 203.335 -4.22615 0.124915 0
M  V30 2211 H 201.053 -7.39977 3.24744 0
M  V30 2212 H 204.639 -5.54501 1.76125 0
M  V30 2213 H 203.519 -7.11316 3.30149 0
M  V30 2214 N 201.022 0.148545 -1.56898 0
M  V30 2215 C 202.271 0.85984 -1.82454 0
M  V30 2216 C 202.584 1.82406 -0.706229 0
M  V30 2217 O 203.79 2.57938 -0.847349 0
M  V30 2218 C 202.246 1.57967 -3.2338 0
M  V30 2219 C 201.854 0.65794 -4.43142 0
M  V30 2220 C 203.598 2.27784 -3.58211 0
M  V30 2221 C 201.505 1.3793 -5.75091 0
M  V30 2222 H 200.435 0.324834 -0.68044 0
M  V30 2223 H 203.086 0.112588 -1.83154 0
M  V30 2224 H 201.468 2.37249 -3.17063 0
M  V30 2225 H 202.642 -0.0995497 -4.60692 0
M  V30 2226 H 200.957 0.0682643 -4.16344 0
M  V30 2227 H 203.554 2.8239 -4.54048 0
M  V30 2228 H 203.897 3.04204 -2.84193 0
M  V30 2229 H 204.43 1.55421 -3.66182 0
M  V30 2230 H 201.169 0.656982 -6.52199 0
M  V30 2231 H 200.689 2.10954 -5.61479 0
M  V30 2232 H 202.368 1.92063 -6.17835 0
M  V30 2233 N 202.5 1.5196 0.417844 0
M  V30 2234 C 203.43 1.77634 1.51554 0
M  V30 2235 C 204.411 0.626918 1.58126 0
M  V30 2236 O 205.596 0.871632 1.7354 0
M  V30 2237 C 202.726 1.91911 2.8946 0
M  V30 2238 C 201.68 3.07463 2.97743 0
M  V30 2239 C 201.006 3.06951 4.37819 0
M  V30 2240 C 202.306 4.47082 2.70027 0
M  V30 2241 H 204 2.6955 1.3032 0
M  V30 2242 H 201.546 1.29706 0.625492 0
M  V30 2243 H 203.499 2.08455 3.6623 0
M  V30 2244 H 202.223 0.966598 3.11969 0
M  V30 2245 H 200.882 2.90656 2.23416 0
M  V30 2246 H 200.53 2.09438 4.57323 0
M  V30 2247 H 200.23 3.84556 4.44286 0
M  V30 2248 H 201.754 3.25613 5.16535 0
M  V30 2249 H 203.168 4.6414 3.36522 0
M  V30 2250 H 201.565 5.2654 2.87881 0
M  V30 2251 H 202.635 4.55777 1.65514 0
M  V30 2252 N 203.978 -0.674533 1.42435 0
M  V30 2253 C 205.255 -1.4305 1.33402 0
M  V30 2254 C 205.635 -2.11081 -0.0284674 0
M  V30 2255 O 204.983 -2.03257 -1.04397 0
M  V30 2256 C 205.193 -2.43272 2.50239 0
M  V30 2257 C 206.541 -3.07907 2.92367 0
M  V30 2258 O 207.565 -2.53599 2.50132 0
M  V30 2259 O 206.424 -4.0632 3.65467 0
M  V30 2260 H 203.518 -0.638076 0.526106 0
M  V30 2261 H 206.064 -0.703235 1.54443 0
M  V30 2262 H 204.836 -1.91803 3.41068 0
M  V30 2263 H 204.459 -3.23479 2.31186 0
M  V30 2264 N 205.456 -1.28612 -0.910864 0
M  V30 2265 C 206.704 -1.15705 -1.65701 0
M  V30 2266 C 207.025 0.29416 -1.92769 0
M  V30 2267 O 206.295 1.20331 -1.54588 0
M  V30 2268 H 204.875 -0.425216 -0.614167 0
M  V30 2269 H 207.537 -1.61381 -1.0928 0
M  V30 2270 H 206.633 -1.6988 -2.61815 0
M  V30 2271 N 206.934 1.1197 -1.10907 0
M  V30 2272 C 208.183 1.82947 -0.849302 0
M  V30 2273 C 208.496 1.85275 0.627112 0
M  V30 2274 O 209.702 2.52296 1.00295 0
M  V30 2275 C 208.158 3.28529 -1.46959 0
M  V30 2276 C 207.766 3.34546 -2.97965 0
M  V30 2277 C 209.51 4.04443 -1.28942 0
M  V30 2278 C 207.417 4.74491 -3.53004 0
M  V30 2279 H 206.347 0.685477 -0.314065 0
M  V30 2280 H 208.998 1.2604 -1.33365 0
M  V30 2281 H 207.38 3.85333 -0.912917 0
M  V30 2282 H 208.554 2.87654 -3.59989 0
M  V30 2283 H 206.869 2.72108 -3.15192 0
M  V30 2284 H 209.466 5.07787 -1.67502 0
M  V30 2285 H 209.809 4.15656 -0.231456 0
M  V30 2286 H 210.342 3.5401 -1.81443 0
M  V30 2287 H 207.081 4.68474 -4.58489 0
M  V30 2288 H 206.601 5.21816 -2.9575 0
M  V30 2289 H 208.28 5.4344 -3.51115 0
M  V30 2290 N 208.412 0.89855 1.29475 0
M  V30 2291 C 209.823 0.572537 1.77705 0
M  V30 2292 C 210.174 -0.911778 1.73727 0
M  V30 2293 O 209.299 -1.71288 1.32247 0
M  V30 2294 C 209.894 1.03252 3.22683 0
M  V30 2295 C 208.453 0.757687 3.68695 0
M  V30 2296 C 207.6 1.20787 2.49612 0
M  V30 2297 H 210.551 1.08139 1.16153 0
M  V30 2298 H 210.572 0.367307 3.78723 0
M  V30 2299 H 210.084 2.11285 3.25546 0
M  V30 2300 H 208.185 -0.310079 3.71308 0
M  V30 2301 H 208.298 1.35476 4.59547 0
M  V30 2302 H 206.662 0.626888 2.46865 0
M  V30 2303 H 207.445 2.29622 2.55203 0
M  V30 2304 N 209.89 -1.43072 0.660911 0
M  V30 2305 C 210.8 -2.34585 -0.0264163 0
M  V30 2306 C 211.816 -1.54316 -0.803898 0
M  V30 2307 O 212.992 -1.86939 -0.749391 0
M  V30 2308 C 210.057 -3.32689 -0.975639 0
M  V30 2309 C 209.118 -4.2886 -0.194236 0
M  V30 2310 C 208.351 -5.22278 -1.09825 0
M  V30 2311 O 208.574 -5.20299 -2.33763 0
M  V30 2312 O 207.508 -5.99228 -0.566513 0
M  V30 2313 H 211.334 -2.94869 0.727034 0
M  V30 2314 H 208.919 -1.43342 0.42111 0
M  V30 2315 H 210.801 -3.92995 -1.52094 0
M  V30 2316 H 209.476 -2.74898 -1.70918 0
M  V30 2317 H 208.383 -3.72011 0.394835 0
M  V30 2318 H 209.716 -4.89655 0.499899 0
M  V30 2319 N 211.368 -0.403325 -1.52352 0
M  V30 2320 C 212.596 0.174012 -2.06167 0
M  V30 2321 C 213.011 1.39347 -1.27388 0
M  V30 2322 O 212.368 1.79597 -0.324201 0
M  V30 2323 C 212.419 0.530223 -3.5759 0
M  V30 2324 O 212.14 -0.640806 -4.33388 0
M  V30 2325 C 213.641 1.16192 -4.27802 0
M  V30 2326 H 210.861 0.0229464 -0.670608 0
M  V30 2327 H 213.405 -0.572604 -1.9632 0
M  V30 2328 H 211.56 1.22673 -3.67464 0
M  V30 2329 H 211.974 -0.344851 -5.23365 0
M  V30 2330 H 213.448 1.36141 -5.34948 0
M  V30 2331 H 213.925 2.13335 -3.83907 0
M  V30 2332 H 214.531 0.505775 -4.22282 0
M  V30 2333 N 212.846 1.57033 -0.133567 0
M  V30 2334 C 214.262 1.58035 0.222944 0
M  V30 2335 C 214.462 1.14713 1.6566 0
M  V30 2336 O 213.518 0.841218 2.38075 0
M  V30 2337 C 214.831 3.00691 -0.0236116 0
M  V30 2338 C 216.379 3.12973 0.0411512 0
M  V30 2339 C 216.854 4.57654 -0.177899 0
M  V30 2340 N 218.345 4.63033 -0.124365 0
M  V30 2341 C 219.08 5.72771 -0.268553 0
M  V30 2342 N 218.576 6.91206 -0.46972 0
M  V30 2343 N 220.369 5.61718 -0.2071 0
M  V30 2344 H 212.52 1.8349 -1.06981 0
M  V30 2345 H 214.783 0.848677 -0.422436 0
M  V30 2346 H 214.489 3.36726 -1.0153 0
M  V30 2347 H 214.363 3.70614 0.701808 0
M  V30 2348 H 216.75 2.76787 1.02338 0
M  V30 2349 H 216.831 2.45564 -0.716383 0
M  V30 2350 H 216.475 4.94542 -1.15717 0
M  V30 2351 H 216.405 5.23173 0.599797 0
M  V30 2352 H 218.896 3.7789 0.027011 0
M  V30 2353 H 219.209 7.70693 -0.570212 0
M  V30 2354 H 217.554 6.93156 -0.505876 0
M  V30 2355 H 220.745 4.68072 -0.0507986 0
M  V30 2356 H 220.918 6.47195 -0.322909 0
M  V30 2357 N 214.325 -0.140222 1.56975 0
M  V30 2358 C 215.235 -1.19223 2.02047 0
M  V30 2359 C 216.251 -1.46612 0.937062 0
M  V30 2360 O 217.427 -1.58148 1.24704 0
M  V30 2361 C 214.492 -2.50414 2.39778 0
M  V30 2362 C 213.553 -2.30612 3.621 0
M  V30 2363 C 212.786 -3.55547 3.98023 0
M  V30 2364 O 213.009 -4.62004 3.34528 0
M  V30 2365 O 211.943 -3.47808 4.91237 0
M  V30 2366 H 215.769 -0.839559 2.91865 0
M  V30 2367 H 213.354 -0.349453 1.45256 0
M  V30 2368 H 215.236 -3.27747 2.64877 0
M  V30 2369 H 213.911 -2.85198 1.53114 0
M  V30 2370 H 212.818 -1.51207 3.4218 0
M  V30 2371 H 214.151 -2.00741 4.49404 0
M  V30 2372 N 215.803 -1.52179 -0.40978 0
M  V30 2373 C 216.735 -1.71703 -1.51825 0
M  V30 2374 C 217.748 -0.597445 -1.51441 0
M  V30 2375 O 218.937 -0.872582 -1.55719 0
M  V30 2376 C 216.037 -1.74171 -2.90719 0
M  V30 2377 C 215.21 -3.03156 -3.15302 0
M  V30 2378 C 214.269 -2.97445 -4.34065 0
M  V30 2379 O 213.295 -3.71352 -4.31377 0
M  V30 2380 N 214.497 -2.15191 -5.39141 0
M  V30 2381 H 217.262 -2.67334 -1.35472 0
M  V30 2382 H 214.823 -1.50409 -0.599069 0
M  V30 2383 H 216.815 -1.67884 -3.68235 0
M  V30 2384 H 215.385 -0.860166 -3.00533 0
M  V30 2385 H 214.605 -3.23097 -2.25836 0
M  V30 2386 H 215.893 -3.88484 -3.28569 0
M  V30 2387 H 215.291 -1.54573 -5.44173 0
M  V30 2388 H 213.848 -2.1476 -6.15403 0
M  V30 2389 N 217.281 0.66697 -1.42791 0
M  V30 2390 C 218.244 1.76211 -1.46568 0
M  V30 2391 C 219.244 1.56896 -0.352196 0
M  V30 2392 O 220.434 1.63044 -0.613364 0
M  V30 2393 C 217.566 3.14935 -1.30494 0
M  V30 2394 H 218.759 1.74247 -2.44086 0
M  V30 2395 H 216.312 0.877342 -1.29354 0
M  V30 2396 H 217.047 3.2252 -0.339301 0
M  V30 2397 H 216.832 3.30359 -2.11199 0
M  V30 2398 H 218.322 3.94821 -1.36038 0
M  V30 2399 N 218.759 1.29093 0.90403 0
M  V30 2400 C 219.689 1.16401 2.02418 0
M  V30 2401 C 220.67 0.0593085 1.69997 0
M  V30 2402 O 221.855 0.238021 1.92736 0
M  V30 2403 C 218.985 0.835233 3.37107 0
M  V30 2404 C 217.939 1.89578 3.83724 0
M  V30 2405 C 217.265 1.42041 5.15489 0
M  V30 2406 C 218.565 3.30394 4.04521 0
M  V30 2407 H 220.259 2.10109 2.13295 0
M  V30 2408 H 217.805 1.01157 1.02486 0
M  V30 2409 H 219.758 0.733169 4.14973 0
M  V30 2410 H 218.482 -0.137543 3.2631 0
M  V30 2411 H 217.141 1.98715 3.08071 0
M  V30 2412 H 216.789 0.436426 5.01103 0
M  V30 2413 H 216.489 2.12964 5.4765 0
M  V30 2414 H 218.013 1.33176 5.959 0
M  V30 2415 H 219.427 3.24123 4.72882 0
M  V30 2416 H 217.824 3.99237 4.48029 0
M  V30 2417 H 218.894 3.73692 3.09002 0
M  V30 2418 N 220.237 -1.11381 1.11499 0
M  V30 2419 C 221.653 -1.35143 0.849031 0
M  V30 2420 C 221.853 -1.94515 -0.525938 0
M  V30 2421 O 220.909 -2.1785 -1.27662 0
M  V30 2422 C 222.222 -2.28249 1.95762 0
M  V30 2423 C 223.77 -2.41812 1.98736 0
M  V30 2424 C 224.245 -3.3824 3.088 0
M  V30 2425 N 225.736 -3.45803 3.08179 0
M  V30 2426 C 226.471 -4.20358 3.89982 0
M  V30 2427 N 225.967 -4.97884 4.8175 0
M  V30 2428 N 227.76 -4.15877 3.78157 0
M  V30 2429 H 219.911 -0.712062 2.00109 0
M  V30 2430 H 222.174 -0.376025 0.870235 0
M  V30 2431 H 221.88 -1.91817 2.94787 0
M  V30 2432 H 221.754 -3.28473 1.85433 0
M  V30 2433 H 224.141 -2.77518 1.00338 0
M  V30 2434 H 224.222 -1.41437 2.13141 0
M  V30 2435 H 223.866 -3.03261 4.07425 0
M  V30 2436 H 223.796 -4.38471 2.91635 0
M  V30 2437 H 226.287 -2.90506 2.41691 0
M  V30 2438 H 226.6 -5.52142 5.40702 0
M  V30 2439 H 224.945 -4.97043 4.85771 0
M  V30 2440 H 228.136 -3.544 3.05808 0
M  V30 2441 H 228.309 -4.73723 4.42143 0
M  V30 2442 N 221.715 -0.905404 -1.28997 0
M  V30 2443 C 222.964 -0.530191 -1.94607 0
M  V30 2444 C 223.277 0.929185 -1.72121 0
M  V30 2445 O 224.483 1.41218 -2.31883 0
M  V30 2446 C 222.939 -0.897333 -3.48534 0
M  V30 2447 C 222.547 -2.37587 -3.79811 0
M  V30 2448 C 224.291 -0.592304 -4.20347 0
M  V30 2449 C 222.198 -2.68357 -5.27009 0
M  V30 2450 H 221.128 -0.194558 -0.728466 0
M  V30 2451 H 223.779 -1.10318 -1.46636 0
M  V30 2452 H 222.161 -0.253214 -3.9519 0
M  V30 2453 H 223.335 -3.06602 -3.43994 0
M  V30 2454 H 221.65 -2.6505 -3.2115 0
M  V30 2455 H 224.247 -0.798975 -5.28697 0
M  V30 2456 H 224.59 0.469474 -4.13644 0
M  V30 2457 H 225.123 -1.19452 -3.79442 0
M  V30 2458 H 221.862 -3.73355 -5.38782 0
M  V30 2459 H 221.382 -2.03971 -5.64053 0
M  V30 2460 H 223.061 -2.54922 -5.94663 0
M  V30 2461 N 223.193 1.4272 -0.668489 0
M  V30 2462 C 224.125 2.2914 0.052613 0
M  V30 2463 C 225.138 1.43339 0.771857 0
M  V30 2464 O 226.327 1.67123 0.627067 0
M  V30 2465 C 223.427 3.20618 1.09804 0
M  V30 2466 C 222.6 4.35039 0.45389 0
M  V30 2467 C 221.659 5.07282 1.39825 0
M  V30 2468 O 220.685 5.62024 0.900978 0
M  V30 2469 N 221.887 5.12206 2.73176 0
M  V30 2470 H 224.652 2.91668 -0.689209 0
M  V30 2471 H 222.213 1.53577 -0.512422 0
M  V30 2472 H 224.205 3.65815 1.73094 0
M  V30 2473 H 222.775 2.59585 1.74167 0
M  V30 2474 H 221.995 3.92567 -0.358396 0
M  V30 2475 H 223.283 5.088 0.00486972 0
M  V30 2476 H 222.681 4.6913 3.16122 0
M  V30 2477 H 221.238 5.61069 3.31729 0
M  V30 2478 N 224.671 0.411399 1.52136 0
M  V30 2479 C 225.899 -0.163076 2.06256 0
M  V30 2480 C 226.314 -1.3867 1.28125 0
M  V30 2481 O 225.671 -1.79423 0.333721 0
M  V30 2482 C 225.722 -0.511252 3.57867 0
M  V30 2483 O 225.443 0.66378 4.33042 0
M  V30 2484 C 226.944 -1.13921 4.28412 0
M  V30 2485 H 224.164 -0.0193897 0.67072 0
M  V30 2486 H 226.708 0.583007 1.96013 0
M  V30 2487 H 224.863 -1.20723 3.6811 0
M  V30 2488 H 225.277 0.372601 5.23175 0
M  V30 2489 H 226.751 -1.33302 5.35663 0
M  V30 2490 H 227.228 -2.11296 3.85033 0
M  V30 2491 H 227.834 -0.483373 4.22544 0
M  V30 2492 N 226.149 -1.5696 0.141893 0
M  V30 2493 C 227.079 -2.19516 -0.795936 0
M  V30 2494 C 228.06 -1.14187 -1.26077 0
M  V30 2495 O 229.245 -1.42511 -1.31925 0
M  V30 2496 C 226.375 -2.81272 -2.03723 0
M  V30 2497 C 225.329 -3.92384 -1.70936 0
M  V30 2498 C 224.655 -4.41052 -3.02287 0
M  V30 2499 C 225.955 -5.13403 -0.959954 0
M  V30 2500 H 227.649 -2.98138 -0.274596 0
M  V30 2501 H 225.195 -1.43406 -0.130636 0
M  V30 2502 H 227.148 -3.237 -2.69808 0
M  V30 2503 H 225.872 -1.99973 -2.58221 0
M  V30 2504 H 224.531 -3.50566 -1.07232 0
M  V30 2505 H 224.179 -3.56582 -3.54765 0
M  V30 2506 H 223.879 -5.15993 -2.81114 0
M  V30 2507 H 225.403 -4.86146 -3.69451 0
M  V30 2508 H 226.817 -5.52706 -1.52279 0
M  V30 2509 H 225.214 -5.94073 -0.848357 0
M  V30 2510 H 226.284 -4.84875 0.0492434 0
M  V30 2511 N 227.627 0.131896 -1.57047 0
M  V30 2512 C 228.875 0.840269 -1.83804 0
M  V30 2513 C 229.196 1.81017 -0.72512 0
M  V30 2514 O 228.466 1.94272 0.251995 0
M  V30 2515 H 227.046 0.313294 -0.678127 0
M  V30 2516 H 229.708 0.122294 -1.94516 0
M  V30 2517 H 228.804 1.39335 -2.79271 0
M  V30 2518 N 229.106 1.52395 0.401703 0
M  V30 2519 C 230.355 1.66044 1.14509 0
M  V30 2520 C 230.668 0.400216 1.91462 0
M  V30 2521 O 231.874 0.416632 2.68284 0
M  V30 2522 C 230.33 2.93388 2.0845 0
M  V30 2523 C 229.938 4.26545 1.36978 0
M  V30 2524 C 231.682 3.16402 2.83001 0
M  V30 2525 C 229.589 5.45007 2.29611 0
M  V30 2526 H 228.519 0.618562 0.431158 0
M  V30 2527 H 231.17 1.78886 0.40892 0
M  V30 2528 H 229.552 2.74263 2.8565 0
M  V30 2529 H 230.726 4.56179 0.650916 0
M  V30 2530 H 229.041 4.09692 0.74438 0
M  V30 2531 H 231.638 4.02085 3.52465 0
M  V30 2532 H 231.981 2.30943 3.46368 0
M  V30 2533 H 232.514 3.36034 2.12898 0
M  V30 2534 H 229.253 6.32835 1.70879 0
M  V30 2535 H 228.773 5.19702 2.9945 0
M  V30 2536 H 230.452 5.7838 2.89974 0
M  V30 2537 N 230.584 -0.659388 1.43143 0
M  V30 2538 C 231.812 -1.44723 1.47861 0
M  V30 2539 C 232.227 -1.88563 0.0945886 0
M  V30 2540 O 231.584 -1.59108 -0.893915 0
M  V30 2541 C 231.635 -2.68627 2.41913 0
M  V30 2542 O 231.356 -2.26623 3.74932 0
M  V30 2543 C 232.857 -3.62045 2.55809 0
M  V30 2544 H 230.077 -0.444801 0.502387 0
M  V30 2545 H 232.621 -0.808916 1.87821 0
M  V30 2546 H 230.776 -3.28613 2.05164 0
M  V30 2547 H 231.19 -3.06745 4.2545 0
M  V30 2548 H 232.664 -4.45666 3.25708 0
M  V30 2549 H 233.141 -4.08981 1.60099 0
M  V30 2550 H 233.747 -3.07944 2.93344 0
M  V30 2551 N 232.062 -1.29571 -0.897171 0
M  V30 2552 C 233.473 -1.15964 -1.46319 0
M  V30 2553 C 233.824 0.244267 -1.94674 0
M  V30 2554 O 232.949 1.13998 -1.83939 0
M  V30 2555 C 233.544 -2.09906 -2.65942 0
M  V30 2556 C 232.103 -2.00314 -3.18671 0
M  V30 2557 C 231.25 -2.00687 -1.91363 0
M  V30 2558 H 234.201 -1.42019 -0.708268 0
M  V30 2559 H 234.222 -1.67276 -3.41759 0
M  V30 2560 H 233.734 -3.12075 -2.30718 0
M  V30 2561 H 231.835 -1.01242 -3.58582 0
M  V30 2562 H 231.948 -2.88102 -3.82798 0
M  V30 2563 H 230.312 -1.45319 -2.09175 0
M  V30 2564 H 231.095 -3.04566 -1.58413 0
M  V30 2565 N 233.54 1.10788 -1.12088 0
M  V30 2566 C 234.956 1.34691 -0.856186 0
M  V30 2567 C 235.156 1.94791 0.515615 0
M  V30 2568 O 234.212 2.18524 1.26505 0
M  V30 2569 C 235.525 2.27208 -1.9697 0
M  V30 2570 C 237.073 2.40755 -2.00016 0
M  V30 2571 C 237.548 3.36598 -3.1059 0
M  V30 2572 N 239.039 3.44164 -3.10008 0
M  V30 2573 C 239.774 4.18284 -3.92206 0
M  V30 2574 N 239.27 4.95322 -4.84384 0
M  V30 2575 N 241.063 4.13865 -3.80357 0
M  V30 2576 H 233.214 0.70144 -2.00483 0
M  V30 2577 H 235.477 0.371405 -0.872217 0
M  V30 2578 H 235.183 1.90251 -2.958 0
M  V30 2579 H 235.057 3.27485 -1.87172 0
M  V30 2580 H 237.444 2.76982 -1.01808 0
M  V30 2581 H 237.525 1.40305 -2.13888 0
M  V30 2582 H 237.169 3.01096 -4.09028 0
M  V30 2583 H 237.099 4.36918 -2.93956 0
M  V30 2584 H 239.59 2.8922 -2.43228 0
M  V30 2585 H 239.903 5.49267 -5.43623 0
M  V30 2586 H 238.248 4.94459 -4.884 0
M  V30 2587 H 241.439 3.52773 -3.07683 0
M  V30 2588 H 241.612 4.71372 -4.44649 0
M  V30 2589 N 235.018 0.912232 1.28515 0
M  V30 2590 C 235.968 0.370649 2.24967 0
M  V30 2591 C 236.952 -0.516375 1.52389 0
M  V30 2592 O 238.144 -0.356345 1.73376 0
M  V30 2593 C 235.273 -0.389526 3.41083 0
M  V30 2594 C 234.359 0.51313 4.20984 0
M  V30 2595 N 234.75 1.62604 4.78951 0
M  V30 2596 C 233.048 0.313235 4.44899 0
M  V30 2597 C 233.749 2.18619 5.39055 0
M  V30 2598 N 232.725 1.47765 5.23132 0
M  V30 2599 H 236.527 1.22061 2.67354 0
M  V30 2600 H 234.041 0.764712 1.43269 0
M  V30 2601 H 236.038 -0.794353 4.09262 0
M  V30 2602 H 234.698 -1.2366 3.0023 0
M  V30 2603 H 235.709 2.00864 4.77362 0
M  V30 2604 H 232.386 -0.494452 4.14562 0
M  V30 2605 H 233.776 3.12228 5.94948 0
M  V30 2606 N 236.496 -1.42363 0.676048 0
M  V30 2607 C 237.742 -2.0182 0.199125 0
M  V30 2608 C 238.075 -1.53339 -1.19168 0
M  V30 2609 O 237.35 -0.736124 -1.80032 0
M  V30 2610 C 237.633 -3.59331 0.235144 0
M  V30 2611 C 237.486 -4.17989 1.66149 0
M  V30 2612 C 238.805 -4.3813 -0.41595 0
M  V30 2613 H 235.924 -0.733293 0.0738311 0
M  V30 2614 H 238.566 -1.69368 0.86107 0
M  V30 2615 H 236.716 -3.87109 -0.328487 0
M  V30 2616 H 238.388 -4.0116 2.27747 0
M  V30 2617 H 236.631 -3.7377 2.20178 0
M  V30 2618 H 237.302 -5.27126 1.63837 0
M  V30 2619 H 239.778 -4.16051 0.0638529 0
M  V30 2620 H 238.654 -5.47717 -0.360115 0
M  V30 2621 H 238.915 -4.16101 -1.49373 0
M  V30 2622 N 237.974 -0.419461 -1.51915 0
M  V30 2623 C 239.223 0.154346 -2.01109 0
M  V30 2624 C 239.536 1.45338 -1.30905 0
M  V30 2625 O 240.742 2.10906 -1.7097 0
M  V30 2626 C 239.198 0.325615 -3.58424 0
M  V30 2627 C 238.806 -0.961934 -4.37551 0
M  V30 2628 C 240.55 0.854155 -4.15818 0
M  V30 2629 C 238.457 -0.757287 -5.86531 0
M  V30 2630 H 237.387 0.0614563 -0.751491 0
M  V30 2631 H 240.038 -0.54649 -1.75173 0
M  V30 2632 H 238.42 1.08903 -3.80731 0
M  V30 2633 H 239.594 -1.7323 -4.26999 0
M  V30 2634 H 237.909 -1.41766 -3.91524 0
M  V30 2635 H 240.506 1.02346 -5.24814 0
M  V30 2636 H 240.849 1.83172 -3.73837 0
M  V30 2637 H 241.382 0.149528 -3.97519 0
M  V30 2638 H 238.121 -1.70671 -6.32892 0
M  V30 2639 H 237.641 -0.0264061 -5.99794 0
M  V30 2640 H 239.32 -0.403482 -6.45741 0
M  V30 2641 N 239.452 1.56882 -0.150215 0
M  V30 2642 C 240.698 1.96518 0.500834 0
M  V30 2643 C 241.031 1.03527 1.64304 0
M  V30 2644 O 240.306 0.0782751 1.94342 0
M  V30 2645 C 240.589 3.45822 1.00395 0
M  V30 2646 C 240.442 4.49591 -0.136983 0
M  V30 2647 C 241.761 3.97704 1.88467 0
M  V30 2648 H 238.88 0.714535 0.18058 0
M  V30 2649 H 241.522 1.88577 -0.232091 0
M  V30 2650 H 239.672 3.5272 1.62851 0
M  V30 2651 H 241.344 4.5477 -0.77343 0
M  V30 2652 H 239.587 4.26441 -0.795652 0
M  V30 2653 H 240.258 5.51402 0.256815 0
M  V30 2654 H 242.734 3.93304 1.35834 0
M  V30 2655 H 241.61 5.0263 2.20578 0
M  V30 2656 H 241.871 3.40252 2.82279 0
M  V30 2657 N 240.93 -0.123565 1.57115 0
M  V30 2658 C 241.86 -1.15309 2.03042 0
M  V30 2659 C 242.841 -1.43454 0.914061 0
M  V30 2660 O 244.026 -1.53973 1.18347 0
M  V30 2661 C 241.156 -2.48043 2.43089 0
M  V30 2662 C 240.11 -2.3437 3.58127 0
M  V30 2663 C 239.436 -3.72026 3.84059 0
M  V30 2664 C 240.736 -1.80804 4.90007 0
M  V30 2665 H 242.43 -0.771102 2.893 0
M  V30 2666 H 239.976 -0.369479 1.39179 0
M  V30 2667 H 241.929 -3.20311 2.73823 0
M  V30 2668 H 240.653 -2.88122 1.53796 0
M  V30 2669 H 239.312 -1.64551 3.27595 0
M  V30 2670 H 238.96 -4.09582 2.91979 0
M  V30 2671 H 238.66 -3.63732 4.6149 0
M  V30 2672 H 240.184 -4.45806 4.1724 0
M  V30 2673 H 241.598 -2.42886 5.19307 0
M  V30 2674 H 239.995 -1.83343 5.71407 0
M  V30 2675 H 241.065 -0.76528 4.78823 0
M  V30 2676 N 242.408 -1.52605 -0.393616 0
M  V30 2677 C 243.633 -1.71592 -1.16495 0
M  V30 2678 C 244.058 -0.43133 -1.83088 0
M  V30 2679 O 243.416 0.612523 -1.7064 0
M  V30 2680 C 243.464 -2.86318 -2.19213 0
M  V30 2681 O 242.568 -2.52969 -3.257 0
M  V30 2682 H 241.909 -0.570734 -0.33935 0
M  V30 2683 H 244.439 -1.99377 -0.459324 0
M  V30 2684 H 244.449 -3.1168 -2.63286 0
M  V30 2685 H 243.124 -3.79511 -1.7013 0
M  V30 2686 H 241.701 -2.38332 -2.86797 0
M  V30 2687 N 243.887 0.651787 -1.4349 0
M  V30 2688 C 244.85 1.74647 -1.48429 0
M  V30 2689 C 245.85 1.56513 -0.368817 0
M  V30 2690 O 247.04 1.62385 -0.630623 0
M  V30 2691 C 244.172 3.13533 -1.33827 0
M  V30 2692 H 245.365 1.71649 -2.4592 0
M  V30 2693 H 242.918 0.863573 -1.30277 0
M  V30 2694 H 243.653 3.22142 -0.37349 0
M  V30 2695 H 243.438 3.28101 -2.14691 0
M  V30 2696 H 244.928 3.93356 -1.40218 0
M  V30 2697 N 245.365 1.30045 0.890287 0
M  V30 2698 C 246.776 1.16738 1.45702 0
M  V30 2699 C 247.127 -0.233939 1.948 0
M  V30 2700 O 246.252 -1.13021 1.84541 0
M  V30 2701 C 246.847 2.11313 2.64825 0
M  V30 2702 C 245.406 2.02001 3.17604 0
M  V30 2703 C 244.553 2.01699 1.90296 0
M  V30 2704 H 247.504 1.42392 0.700726 0
M  V30 2705 H 247.525 1.69086 3.40867 0
M  V30 2706 H 247.037 3.13294 2.2906 0
M  V30 2707 H 245.138 1.03142 3.5804 0
M  V30 2708 H 245.251 2.90128 3.81264 0
M  V30 2709 H 243.615 1.46427 2.08402 0
M  V30 2710 H 244.398 3.05402 1.56795 0
M  V30 2711 N 246.843 -1.10192 1.12674 0
M  V30 2712 C 248.12 -1.78717 0.794965 0
M  V30 2713 C 248.5 -1.98628 -0.714853 0
M  V30 2714 O 247.848 -1.58135 -1.64941 0
M  V30 2715 C 248.058 -3.11546 1.5729 0
M  V30 2716 C 249.406 -3.86382 1.76052 0
M  V30 2717 O 250.43 -3.21274 1.53823 0
M  V30 2718 O 249.289 -5.03246 2.13087 0
M  V30 2719 H 246.383 -0.774702 0.289423 0
M  V30 2720 H 248.929 -1.16819 1.23091 0
M  V30 2721 H 247.701 -2.92489 2.59935 0
M  V30 2722 H 247.324 -3.81164 1.13137 0
M  V30 2723 N 248.321 -0.919034 -1.28029 0
M  V30 2724 C 249.549 -0.570971 -1.98866 0
M  V30 2725 C 249.964 0.848996 -1.68634 0
M  V30 2726 O 249.321 1.56307 -0.942036 0
M  V30 2727 C 249.372 -0.776876 -3.53054 0
M  V30 2728 O 249.093 -2.14097 -3.82222 0
M  V30 2729 C 250.594 -0.436356 -4.41147 0
M  V30 2730 H 247.814 -0.217175 -0.634883 0
M  V30 2731 H 250.358 -1.23368 -1.63097 0
M  V30 2732 H 248.513 -0.161085 -3.87065 0
M  V30 2733 H 248.927 -2.18455 -4.76841 0
M  V30 2734 H 250.401 -0.63117 -5.4838 0
M  V30 2735 H 250.878 0.627686 -4.34692 0
M  V30 2736 H 251.484 -1.02991 -4.12641 0
M  V30 2737 N 249.799 1.42003 -0.683588 0
M  V30 2738 C 251.045 2.01712 -0.209825 0
M  V30 2739 C 251.378 1.53968 1.18353 0
M  V30 2740 O 250.653 0.745661 1.79639 0
M  V30 2741 C 250.936 3.59202 -0.254197 0
M  V30 2742 C 250.789 4.17102 -1.68363 0
M  V30 2743 C 252.108 4.38344 0.392709 0
M  V30 2744 H 249.227 0.732891 -0.0777189 0
M  V30 2745 H 251.869 1.68909 -0.87004 0
M  V30 2746 H 250.019 3.87278 0.307954 0
M  V30 2747 H 251.691 3.99946 -2.29871 0
M  V30 2748 H 249.934 3.72597 -2.22157 0
M  V30 2749 H 250.605 5.26249 -1.6663 0
M  V30 2750 H 253.081 4.16011 -0.0859162 0
M  V30 2751 H 251.957 5.47901 0.331063 0
M  V30 2752 H 252.218 4.16887 1.47164 0
M  V30 2753 N 251.277 0.427512 1.51691 0
M  V30 2754 C 252.207 -0.3796 2.30394 0
M  V30 2755 C 253.188 -1.02982 1.35384 0
M  V30 2756 O 254.373 -1.03534 1.643 0
M  V30 2757 C 251.503 -1.48649 3.1388 0
M  V30 2758 C 250.457 -0.960294 4.17088 0
M  V30 2759 C 249.783 -2.16219 4.89033 0
M  V30 2760 C 251.083 -0.00153679 5.223 0
M  V30 2761 H 252.777 0.277164 2.98114 0
M  V30 2762 H 250.323 0.134739 1.43368 0
M  V30 2763 H 252.276 -2.05826 3.67714 0
M  V30 2764 H 251 -2.1714 2.43962 0
M  V30 2765 H 249.659 -0.410806 3.64291 0
M  V30 2766 H 249.307 -2.83307 4.15628 0
M  V30 2767 H 249.007 -1.81654 5.58816 0
M  V30 2768 H 250.531 -2.73968 5.45687 0
M  V30 2769 H 251.945 -0.482687 5.71264 0
M  V30 2770 H 250.342 0.256199 5.99553 0
M  V30 2771 H 251.412 0.938174 4.75738 0
M  V30 2772 N 252.755 -1.56801 0.158532 0
M  V30 2773 C 254.004 -1.95665 -0.489702 0
M  V30 2774 C 254.317 -1.04654 -1.65248 0
M  V30 2775 O 255.523 -1.33146 -2.3661 0
M  V30 2776 C 253.979 -3.47874 -0.922582 0
M  V30 2777 C 253.587 -4.47489 0.213893 0
M  V30 2778 C 255.331 -3.95583 -1.53996 0
M  V30 2779 C 253.238 -5.90921 -0.237903 0
M  V30 2780 H 252.168 -0.730516 -0.186716 0
M  V30 2781 H 254.819 -1.81861 0.244722 0
M  V30 2782 H 253.201 -3.57051 -1.71261 0
M  V30 2783 H 254.375 -4.50017 0.991036 0
M  V30 2784 H 252.69 -4.09764 0.740407 0
M  V30 2785 H 255.287 -5.0019 -1.8898 0
M  V30 2786 H 255.63 -3.37789 -2.43319 0
M  V30 2787 H 256.163 -3.8937 -0.814611 0
M  V30 2788 H 252.902 -6.52559 0.620236 0
M  V30 2789 H 252.422 -5.91729 -0.980676 0
M  V30 2790 H 254.101 -6.43352 -0.686067 0
M  V30 2791 N 254.233 0.115231 -1.57178 0
M  V30 2792 C 255.143 1.15994 -2.03918 0
M  V30 2793 C 256.159 1.45103 -0.960268 0
M  V30 2794 O 257.335 1.56144 -1.27204 0
M  V30 2795 C 254.4 2.46568 -2.43732 0
M  V30 2796 C 253.461 2.24822 -3.65723 0
M  V30 2797 C 252.694 3.4917 -4.03629 0
M  V30 2798 O 252.917 4.56623 -3.41835 0
M  V30 2799 O 251.851 3.39949 -4.96708 0
M  V30 2800 H 255.677 0.793019 -2.93164 0
M  V30 2801 H 253.262 0.3263 -1.45793 0
M  V30 2802 H 255.144 3.23492 -2.70057 0
M  V30 2803 H 253.819 2.82726 -1.57631 0
M  V30 2804 H 252.726 1.45744 -3.44542 0
M  V30 2805 H 254.059 1.93566 -4.52541 0
M  V30 2806 N 255.711 1.52812 0.385517 0
M  V30 2807 C 257.127 1.4214 0.725829 0
M  V30 2808 C 257.327 0.544589 1.94001 0
M  V30 2809 O 256.383 0.0193693 2.52493 0
M  V30 2810 C 257.696 2.85042 0.957668 0
M  V30 2811 C 259.244 2.94543 1.05892 0
M  V30 2812 C 259.719 4.38464 1.32337 0
M  V30 2813 N 261.21 4.41804 1.39151 0
M  V30 2814 C 261.945 5.5025 1.61285 0
M  V30 2815 N 261.441 6.68775 1.80866 0
M  V30 2816 N 263.234 5.37798 1.63492 0
M  V30 2817 H 255.385 2.08338 -0.413383 0
M  V30 2818 H 257.648 0.940016 -0.122775 0
M  V30 2819 H 257.354 3.51431 0.137568 0
M  V30 2820 H 257.228 3.27505 1.87137 0
M  V30 2821 H 259.615 2.28321 1.86959 0
M  V30 2822 H 259.696 2.55504 0.123057 0
M  V30 2823 H 259.34 5.05254 0.517793 0
M  V30 2824 H 259.27 4.75059 2.27214 0
M  V30 2825 H 261.761 3.56377 1.25713 0
M  V30 2826 H 262.074 7.47197 1.97271 0
M  V30 2827 H 260.419 6.71797 1.78083 0
M  V30 2828 H 263.61 4.44171 1.47749 0
M  V30 2829 H 263.783 6.22382 1.80402 0
M  V30 2830 N 257.189 -0.644168 1.43834 0
M  V30 2831 C 258.137 -1.77793 1.49974 0
M  V30 2832 C 259.131 -1.65253 0.372536 0
M  V30 2833 O 260.337 -1.7149 0.546924 0
M  V30 2834 H 256.712 -0.58675 0.47035 0
M  V30 2835 H 258.683 -1.69736 2.45423 0
M  V30 2836 C 257.432 -3.16087 1.4486 0
M  V30 2837 H 256.755 -3.26378 2.30905 0
M  V30 2838 H 258.195 -3.95349 1.53217 0
M  V30 2839 C 256.654 -3.36484 0.167463 0
M  V30 2840 O 257.184 -3.94298 -0.767609 0
M  V30 2841 N 255.39 -2.90504 0.0747556 0
M  V30 2842 H 254.937 -2.4364 0.836507 0
M  V30 2843 H 254.895 -3.04527 -0.781714 0
M  V30 2844 N 258.668 -1.30515 -0.883378 0
M  V30 2845 C 259.598 -1.19607 -2.00541 0
M  V30 2846 C 260.579 -0.086346 -1.69881 0
M  V30 2847 O 261.764 -0.268654 -1.92333 0
M  V30 2848 C 258.894 -0.888758 -3.35736 0
M  V30 2849 C 257.848 -1.95659 -3.8066 0
M  V30 2850 C 257.174 -1.50224 -5.13164 0
M  V30 2851 C 258.474 -3.36788 -3.99213 0
M  V30 2852 H 260.168 -2.13476 -2.09925 0
M  V30 2853 H 257.714 -1.02775 -1.00863 0
M  V30 2854 H 259.667 -0.799094 -4.13754 0
M  V30 2855 H 258.391 0.0856125 -3.26488 0
M  V30 2856 H 257.05 -2.03591 -3.04871 0
M  V30 2857 H 256.698 -0.516092 -5.00345 0
M  V30 2858 H 256.398 -2.2165 -5.44192 0
M  V30 2859 H 257.922 -1.42639 -5.93706 0
M  V30 2860 H 259.336 -3.31605 -4.67665 0
M  V30 2861 H 257.733 -4.06314 -4.41621 0
M  V30 2862 H 258.803 -3.78561 -3.03017 0
M  V30 2863 N 260.146 1.09593 -1.13257 0
M  V30 2864 C 261.394 1.81375 -0.891492 0
M  V30 2865 C 261.715 1.86049 0.584009 0
M  V30 2866 O 260.985 1.34481 1.42449 0
M  V30 2867 H 259.565 0.671708 -0.326828 0
M  V30 2868 H 262.227 1.3256 -1.42877 0
M  V30 2869 H 261.323 2.84612 -1.28071 0
M  V30 2870 N 261.624 0.925811 1.2754 0
M  V30 2871 C 262.571 0.422045 2.26908 0
M  V30 2872 C 263.541 -0.510029 1.58076 0
M  V30 2873 O 264.726 -0.429599 1.85901 0
M  V30 2874 C 261.866 -0.320837 3.43605 0
M  V30 2875 C 260.979 0.64513 4.27156 0
M  V30 2876 C 260.114 -0.117405 5.3107 0
M  V30 2877 C 259.153 0.841391 6.0629 0
M  V30 2878 N 258.29 0.111604 7.02011 0
M  V30 2879 H 263.13 1.27441 2.69375 0
M  V30 2880 H 260.667 0.639697 1.32462 0
M  V30 2881 H 262.625 -0.76785 4.10073 0
M  V30 2882 H 261.255 -1.13745 3.02096 0
M  V30 2883 H 260.307 1.21067 3.6062 0
M  V30 2884 H 261.619 1.37797 4.79389 0
M  V30 2885 H 260.773 -0.624422 6.03478 0
M  V30 2886 H 259.512 -0.883219 4.79636 0
M  V30 2887 H 258.517 1.35967 5.32722 0
M  V30 2888 H 259.742 1.60696 6.59813 0
M  V30 2889 H 257.688 -0.635999 6.5291 0
M  V30 2890 H 257.605 0.784044 7.51923 0
M  V30 2891 H 258.873 -0.374823 7.78598 0
M  V30 2892 N 263.102 -1.41638 0.69111 0
M  V30 2893 C 264.518 -1.55435 0.362224 0
M  V30 2894 C 264.718 -1.66754 -1.13117 0
M  V30 2895 O 263.774 -1.64348 -1.91692 0
M  V30 2896 C 265.087 -2.79588 1.10684 0
M  V30 2897 C 266.635 -2.9338 1.09075 0
M  V30 2898 C 267.11 -4.20414 1.81703 0
M  V30 2899 N 268.601 -4.27362 1.7865 0
M  V30 2900 C 269.336 -5.24507 2.31689 0
M  V30 2901 N 268.832 -6.27708 2.93179 0
M  V30 2902 N 270.625 -5.16416 2.2197 0
M  V30 2903 H 262.776 -1.32536 1.65976 0
M  V30 2904 H 265.039 -0.639115 0.700168 0
M  V30 2905 H 264.745 -2.77419 2.16175 0
M  V30 2906 H 264.619 -3.70973 0.682545 0
M  V30 2907 H 267.006 -2.95067 0.0441238 0
M  V30 2908 H 267.087 -2.0318 1.55407 0
M  V30 2909 H 266.731 -4.19488 2.86343 0
M  V30 2910 H 266.661 -5.09578 1.32808 0
M  V30 2911 H 269.152 -3.53415 1.33815 0
M  V30 2912 H 269.465 -6.98217 3.31229 0
M  V30 2913 H 267.81 -6.28223 2.97255 0
M  V30 2914 H 271.001 -4.34716 1.73607 0
M  V30 2915 H 271.174 -5.91958 2.63609 0
M  V30 2916 N 264.58 -0.43555 -1.51462 0
M  V30 2917 C 265.829 0.133007 -2.01261 0
M  V30 2918 C 266.142 1.43942 -1.32439 0
M  V30 2919 O 267.348 2.09081 -1.73198 0
M  V30 2920 C 265.804 0.287581 -3.58749 0
M  V30 2921 C 265.412 -1.00829 -4.36506 0
M  V30 2922 C 267.156 0.810004 -4.167 0
M  V30 2923 C 265.063 -0.819454 -5.85695 0
M  V30 2924 H 263.993 0.0534822 -0.752101 0
M  V30 2925 H 266.644 -0.565038 -1.74584 0
M  V30 2926 H 265.026 1.04859 -3.81865 0
M  V30 2927 H 266.2 -1.77749 -4.25138 0
M  V30 2928 H 264.515 -1.45911 -3.89999 0
M  V30 2929 H 267.112 0.967743 -5.2587 0
M  V30 2930 H 267.455 1.79196 -3.75758 0
M  V30 2931 H 267.988 0.107357 -3.97655 0
M  V30 2932 H 264.727 -1.77374 -6.31046 0
M  V30 2933 H 264.247 -0.0900208 -5.99732 0
M  V30 2934 H 265.926 -0.471949 -6.45276 0
M  V30 2935 N 266.058 1.56714 -0.166846 0
M  V30 2936 C 267.335 1.88412 0.525373 0
M  V30 2937 C 267.715 1.07602 1.81618 0
M  V30 2938 O 267.063 0.168621 2.27877 0
M  V30 2939 C 267.273 3.40363 0.771613 0
M  V30 2940 C 268.621 4.10007 1.1036 0
M  V30 2941 O 269.645 3.45655 0.860304 0
M  V30 2942 O 268.504 5.2369 1.56239 0
M  V30 2943 H 265.598 0.781587 0.270278 0
M  V30 2944 H 268.144 1.68458 -0.204946 0
M  V30 2945 H 266.916 3.91046 -0.141093 0
M  V30 2946 H 266.539 3.65914 1.55541 0
M  V30 2947 N 267.536 -0.106894 1.57237 0
M  V30 2948 C 268.947 -0.662723 1.74542 0
M  V30 2949 C 269.298 -1.7971 0.787319 0
M  V30 2950 O 268.423 -2.16368 -0.0369636 0
M  V30 2951 C 269.018 -1.20896 3.16496 0
M  V30 2952 C 267.577 -1.71096 3.35266 0
M  V30 2953 C 266.724 -0.615642 2.7038 0
M  V30 2954 H 269.675 0.119106 1.58252 0
M  V30 2955 H 269.696 -2.07847 3.18716 0
M  V30 2956 H 269.208 -0.383122 3.86204 0
M  V30 2957 H 267.309 -2.56119 2.70618 0
M  V30 2958 H 267.422 -1.81208 4.43509 0
M  V30 2959 H 265.786 -1.05222 2.31949 0
M  V30 2960 H 266.569 0.199419 3.4272 0
M  V30 2961 N 269.014 -1.53014 -0.377408 0
M  V30 2962 C 269.946 -1.74884 -1.48149 0
M  V30 2963 C 270.959 -0.629433 -1.5014 0
M  V30 2964 O 272.148 -0.905416 -1.53833 0
M  V30 2965 C 269.248 -1.80299 -2.86959 0
M  V30 2966 C 268.421 -3.09776 -3.08801 0
M  V30 2967 C 267.48 -3.06586 -4.27658 0
M  V30 2968 O 266.506 -3.80419 -4.23403 0
M  V30 2969 N 267.708 -2.26578 -5.34455 0
M  V30 2970 H 270.473 -2.70147 -1.29771 0
M  V30 2971 H 268.034 -1.51646 -0.56703 0
M  V30 2972 H 270.026 -1.75657 -3.64591 0
M  V30 2973 H 268.596 -0.92372 -2.98641 0
M  V30 2974 H 267.816 -3.27815 -2.18931 0
M  V30 2975 H 269.104 -3.95366 -3.20255 0
M  V30 2976 H 268.502 -1.66081 -5.40771 0
M  V30 2977 H 267.059 -2.27766 -6.10709 0
M  V30 2978 N 270.492 0.636531 -1.44174 0
M  V30 2979 C 271.72 1.42353 -1.50144 0
M  V30 2980 C 272.135 1.88389 -0.124575 0
M  V30 2981 O 271.492 1.6051 0.868489 0
M  V30 2982 C 271.543 2.64744 -2.46156 0
M  V30 2983 O 271.264 2.20629 -3.7849 0
M  V30 2984 C 272.765 3.57929 -2.61537 0
M  V30 2985 H 269.985 0.436752 -0.5094 0
M  V30 2986 H 272.529 0.778933 -1.89084 0
M  V30 2987 H 270.684 3.25307 -2.10366 0
M  V30 2988 H 271.098 2.99938 -4.30276 0
M  V30 2989 H 272.572 4.40428 -3.32757 0
M  V30 2990 H 273.049 4.06382 -1.66585 0
M  V30 2991 H 273.655 3.03238 -2.98206 0
M  V30 2992 N 271.97 1.30982 0.876444 0
M  V30 2993 C 273.218 1.20058 1.62575 0
M  V30 2994 C 273.539 -0.242947 1.93481 0
M  V30 2995 O 272.809 -1.1619 1.57724 0
M  V30 2996 H 271.389 0.44135 0.602677 0
M  V30 2997 H 274.051 1.64222 1.04962 0
M  V30 2998 H 273.147 1.76762 2.57219 0
M  V30 2999 N 273.449 -1.08991 1.13837 0
M  V30 3000 C 274.359 -2.19301 0.833333 0
M  V30 3001 C 275.375 -1.73026 -0.183847 0
M  V30 3002 O 276.551 -2.01395 -0.0138092 0
M  V30 3003 C 273.616 -3.45323 0.308651 0
M  V30 3004 C 272.677 -4.06255 1.38764 0
M  V30 3005 C 271.91 -5.26262 0.887896 0
M  V30 3006 O 272.133 -5.69747 -0.27287 0
M  V30 3007 O 271.067 -5.78435 1.66421 0
M  V30 3008 H 274.893 -2.47854 1.75506 0
M  V30 3009 H 272.478 -1.18012 0.916166 0
M  V30 3010 H 274.36 -4.21394 0.0216739 0
M  V30 3011 H 273.035 -3.18362 -0.585431 0
M  V30 3012 H 271.942 -3.318 1.72799 0
M  V30 3013 H 273.275 -4.37452 2.25602 0
M  V30 3014 N 274.927 -0.932562 -1.27047 0
M  V30 3015 C 276.176 -0.571351 -1.93439 0
M  V30 3016 C 276.489 0.892467 -1.74053 0
M  V30 3017 O 277.695 1.36267 -2.34826 0
M  V30 3018 C 276.151 -0.97106 -3.46552 0
M  V30 3019 C 275.759 -2.4559 -3.74686 0
M  V30 3020 C 277.503 -0.681333 -4.18997 0
M  V30 3021 C 275.41 -2.79475 -5.21198 0
M  V30 3022 H 274.34 -0.209966 -0.724176 0
M  V30 3023 H 276.991 -1.13403 -1.44263 0
M  V30 3024 H 275.373 -0.336983 -3.94564 0
M  V30 3025 H 276.547 -3.13829 -3.37414 0
M  V30 3026 H 274.862 -2.71802 -3.15456 0
M  V30 3027 H 277.459 -0.910939 -5.26883 0
M  V30 3028 H 277.802 0.381628 -4.14547 0
M  V30 3029 H 278.335 -1.27473 -3.76823 0
M  V30 3030 H 275.074 -3.847 -5.30741 0
M  V30 3031 H 274.594 -2.1589 -5.596 0
M  V30 3032 H 276.273 -2.67478 -5.89122 0
M  V30 3033 N 276.405 1.4127 -0.698611 0
M  V30 3034 C 277.635 2.05205 -0.239644 0
M  V30 3035 C 278.043 1.52684 1.11733 0
M  V30 3036 O 277.386 0.671222 1.70998 0
M  V30 3037 C 277.448 3.59289 -0.123126 0
M  V30 3038 C 277.112 4.34619 -1.41263 0
M  V30 3039 C 278.109 4.63701 -2.35111 0
M  V30 3040 C 275.794 4.73837 -1.66684 0
M  V30 3041 C 277.788 5.30966 -3.52639 0
M  V30 3042 C 275.475 5.40837 -2.84498 0
M  V30 3043 C 276.473 5.69329 -3.77298 0
M  V30 3044 O 276.161 6.34949 -4.93047 0
M  V30 3045 H 275.893 0.66723 -0.108537 0
M  V30 3046 H 278.447 1.81974 -0.952602 0
M  V30 3047 H 276.677 3.81272 0.645628 0
M  V30 3048 H 278.366 4.04797 0.299056 0
M  V30 3049 H 279.132 4.33882 -2.16729 0
M  V30 3050 H 275.011 4.51039 -0.953135 0
M  V30 3051 H 278.555 5.53121 -4.25091 0
M  V30 3052 H 274.452 5.70075 -3.02795 0
M  V30 3053 H 275.22 6.53445 -4.92902 0
M  V30 3054 N 277.883 0.443576 1.51229 0
M  V30 3055 C 278.833 -0.382787 2.24764 0
M  V30 3056 C 279.817 -0.984836 1.27239 0
M  V30 3057 O 281.009 -0.901943 1.52296 0
M  V30 3058 C 278.138 -1.47989 3.09765 0
M  V30 3059 C 277.224 -0.886931 4.14722 0
M  V30 3060 N 277.615 -0.0237103 5.05794 0
M  V30 3061 C 275.913 -1.15385 4.30816 0
M  V30 3062 C 276.614 0.309971 5.80874 0
M  V30 3063 N 275.59 -0.307989 5.42727 0
M  V30 3064 H 279.392 0.282624 2.92538 0
M  V30 3065 H 276.906 0.256027 1.60369 0
M  V30 3066 H 278.903 -2.08482 3.61027 0
M  V30 3067 H 277.563 -2.14758 2.43535 0
M  V30 3068 H 278.574 0.34318 5.16762 0
M  V30 3069 H 275.251 -1.81857 3.75812 0
M  V30 3070 H 276.641 1.01279 6.64223 0
M  V30 3071 N 279.361 -1.56624 0.175154 0
M  V30 3072 C 280.589 -2.01374 -0.474971 0
M  V30 3073 C 281.004 -1.05537 -1.56548 0
M  V30 3074 O 280.361 -0.0568668 -1.82411 0
M  V30 3075 C 280.412 -3.45923 -1.04975 0
M  V30 3076 O 280.133 -4.381 -0.00276605 0
M  V30 3077 C 281.634 -4.06093 -1.77773 0
M  V30 3078 H 278.854 -0.659962 -0.121206 0
M  V30 3079 H 281.398 -2.02601 0.27801 0
M  V30 3080 H 279.553 -3.45458 -1.75321 0
M  V30 3081 H 279.967 -5.22753 -0.427681 0
M  V30 3082 H 281.441 -5.09147 -2.13245 0
M  V30 3083 H 281.918 -3.48405 -2.67414 0
M  V30 3084 H 282.524 -4.10272 -1.12059 0
M  V30 3085 N 280.839 0.0985539 -1.57292 0
M  V30 3086 C 282.067 0.816318 -1.90115 0
M  V30 3087 C 282.482 1.72451 -0.768509 0
M  V30 3088 O 281.839 1.80643 0.259687 0
M  V30 3089 C 281.89 1.63259 -3.22535 0
M  V30 3090 O 281.611 0.760934 -4.31441 0
M  V30 3091 C 283.112 2.45372 -3.69199 0
M  V30 3092 H 280.332 0.233595 -0.629027 0
M  V30 3093 H 282.876 0.0768229 -2.04356 0
M  V30 3094 H 281.031 2.32463 -3.09903 0
M  V30 3095 H 281.445 1.32595 -5.07463 0
M  V30 3096 H 282.919 2.98144 -4.64558 0
M  V30 3097 H 283.396 3.23677 -2.96867 0
M  V30 3098 H 284.002 1.81373 -3.84687 0
M  V30 3099 N 282.317 1.53212 0.369288 0
M  V30 3100 C 283.564 1.69215 1.11232 0
M  V30 3101 C 283.892 0.442048 1.8941 0
M  V30 3102 O 283.147 -0.575944 1.87033 0
M  V30 3103 C 283.446 2.89101 2.10132 0
M  V30 3104 C 283.112 4.25758 1.48463 0
M  V30 3105 C 281.774 4.6292 1.31372 0
M  V30 3106 C 284.126 5.10757 1.03811 0
M  V30 3107 C 281.454 5.82722 0.68207 0
M  V30 3108 C 283.806 6.31201 0.420487 0
M  V30 3109 C 282.47 6.67079 0.237038 0
M  V30 3110 H 281.74 0.619201 0.407027 0
M  V30 3111 H 284.387 1.87391 0.394552 0
M  V30 3112 H 282.692 2.65421 2.88199 0
M  V30 3113 H 284.389 2.98676 2.6757 0
M  V30 3114 H 280.979 3.96494 1.62758 0
M  V30 3115 H 285.163 4.82599 1.1581 0
M  V30 3116 H 280.419 6.09113 0.528316 0
M  V30 3117 H 284.593 6.96368 0.0662874 0
M  V30 3118 H 282.22 7.59774 -0.254477 0
M  V30 3119 N 283.795 -0.628877 1.44509 0
M  V30 3120 C 285.072 -1.38733 1.37886 0
M  V30 3121 C 285.452 -2.11065 0.0387008 0
M  V30 3122 O 284.8 -2.06476 -0.97878 0
M  V30 3123 C 285.01 -2.35188 2.57852 0
M  V30 3124 C 286.358 -2.9845 3.02014 0
M  V30 3125 O 287.382 -2.45513 2.58073 0
M  V30 3126 O 286.241 -3.94487 3.78209 0
M  V30 3127 H 283.335 -0.621015 0.54614 0
M  V30 3128 H 285.881 -0.653744 1.56602 0
M  V30 3129 H 284.653 -1.80855 3.46998 0
M  V30 3130 H 284.276 -3.1596 2.4136 0
M  V30 3131 N 285.273 -1.31445 -0.869486 0
M  V30 3132 C 286.519 -1.22347 -1.62489 0
M  V30 3133 C 286.874 0.216204 -1.91181 0
M  V30 3134 O 286.167 1.14977 -1.53268 0
M  V30 3135 C 286.361 -2.00145 -2.96102 0
M  V30 3136 C 286.19 -3.51531 -2.80456 0
M  V30 3137 C 284.96 -4.20882 -2.79618 0
M  V30 3138 C 287.158 -4.46471 -2.5528 0
M  V30 3139 N 285.14 -5.58421 -2.55027 0
M  V30 3140 C 286.511 -5.71682 -2.39957 0
M  V30 3141 C 288.566 -4.35892 -2.40629 0
M  V30 3142 C 287.269 -6.87511 -2.11472 0
M  V30 3143 C 289.295 -5.51505 -2.13532 0
M  V30 3144 C 288.657 -6.75707 -1.98998 0
M  V30 3145 H 284.756 -0.502815 -0.598917 0
M  V30 3146 H 287.34 -1.65639 -1.02332 0
M  V30 3147 H 285.511 -1.59221 -3.54264 0
M  V30 3148 H 287.243 -1.83063 -3.60929 0
M  V30 3149 H 283.998 -3.72857 -2.92018 0
M  V30 3150 H 284.422 -6.30841 -2.45701 0
M  V30 3151 H 289.064 -3.40533 -2.50593 0
M  V30 3152 H 286.782 -7.82897 -2.00245 0
M  V30 3153 H 290.368 -5.45238 -2.02995 0
M  V30 3154 H 289.248 -7.63655 -1.78326 0
M  V30 3155 N 286.751 1.08385 -1.14413 0
M  V30 3156 C 288.162 1.62258 -0.923535 0
M  V30 3157 C 288.513 1.88691 0.537595 0
M  V30 3158 O 287.638 1.64454 1.40655 0
M  V30 3159 C 288.233 2.94781 -1.67002 0
M  V30 3160 C 286.792 3.45437 -1.495 0
M  V30 3161 C 285.939 2.19668 -1.69238 0
M  V30 3162 H 288.89 0.916086 -1.2959 0
M  V30 3163 H 288.911 3.63229 -1.13334 0
M  V30 3164 H 288.423 2.7551 -2.73342 0
M  V30 3165 H 286.524 3.6981 -0.455097 0
M  V30 3166 H 286.637 4.22173 -2.2651 0
M  V30 3167 H 285.001 2.28849 -1.11804 0
M  V30 3168 H 285.784 2.02905 -2.7692 0
M  V30 3169 N 288.23 0.939286 1.26551 0
M  V30 3170 C 289.641 0.628782 1.75793 0
M  V30 3171 C 289.992 -0.856046 1.7654 0
M  V30 3172 O 289.117 -1.66994 1.3763 0
M  V30 3173 C 289.712 1.13465 3.19235 0
M  V30 3174 C 288.271 0.874601 3.66098 0
M  V30 3175 C 287.418 1.28667 2.45642 0
M  V30 3176 H 290.369 1.1178 1.12654 0
M  V30 3177 H 290.39 0.487609 3.77363 0
M  V30 3178 H 289.902 2.21535 3.1866 0
M  V30 3179 H 288.003 -0.191793 3.72106 0
M  V30 3180 H 288.116 1.50028 4.55004 0
M  V30 3181 H 286.48 0.705109 2.44745 0
M  V30 3182 H 287.263 2.37625 2.47769 0
M  V30 3183 N 289.708 -1.40897 0.706093 0
M  V30 3184 C 290.618 -2.3455 0.0482286 0
M  V30 3185 C 291.634 -1.56796 -0.754396 0
M  V30 3186 O 292.81 -1.89228 -0.689538 0
M  V30 3187 C 289.875 -3.35625 -0.869303 0
M  V30 3188 C 288.936 -4.29261 -0.0576994 0
M  V30 3189 C 288.169 -5.25508 -0.931531 0
M  V30 3190 O 288.392 -5.27472 -2.17092 0
M  V30 3191 O 287.326 -6.00727 -0.375587 0
M  V30 3192 H 291.152 -2.92407 0.820476 0
M  V30 3193 H 288.737 -1.4193 0.4665 0
M  V30 3194 H 290.619 -3.97635 -1.39514 0
M  V30 3195 H 289.294 -2.80196 -1.62086 0
M  V30 3196 H 288.201 -3.70566 0.512988 0
M  V30 3197 H 289.534 -4.87817 0.655426 0
M  V30 3198 N 291.186 -0.45159 -1.50991 0
M  V30 3199 C 292.411 0.110667 -2.07105 0
M  V30 3200 C 292.836 1.3446 -1.31538 0
M  V30 3201 O 292.194 1.77743 -0.357365 0
M  V30 3202 C 292.242 0.397238 -3.58405 0
M  V30 3203 O 291.346 1.48124 -3.84881 0
M  V30 3204 H 290.687 -0.00439271 -0.663985 0
M  V30 3205 H 293.217 -0.637026 -1.9443 0
M  V30 3206 H 293.227 0.64351 -4.02893 0
M  V30 3207 H 291.902 -0.504553 -4.12828 0
M  V30 3208 H 290.479 1.22381 -3.52246 0
M  V30 3209 N 292.664 1.56529 -0.183458 0
M  V30 3210 C 293.574 2.22144 0.754272 0
M  V30 3211 C 294.59 1.21684 1.24374 0
M  V30 3212 O 295.766 1.54385 1.29333 0
M  V30 3213 C 292.831 2.85884 1.96141 0
M  V30 3214 C 291.892 4.01579 1.51765 0
M  V30 3215 C 291.125 4.6227 2.66725 0
M  V30 3216 O 291.348 4.21865 3.83909 0
M  V30 3217 O 290.282 5.51936 2.40104 0
M  V30 3218 H 294.108 3.02861 0.225527 0
M  V30 3219 H 291.693 1.49331 0.0453032 0
M  V30 3220 H 293.575 3.26253 2.66715 0
M  V30 3221 H 292.25 2.08154 2.47899 0
M  V30 3222 H 291.157 3.65856 0.781049 0
M  V30 3223 H 292.49 4.80938 1.04686 0
M  V30 3224 N 294.142 -0.090211 1.57342 0
M  V30 3225 C 295.391 -0.791531 1.8552 0
M  V30 3226 C 295.704 -1.79659 0.773441 0
M  V30 3227 O 296.91 -2.54616 0.942497 0
M  V30 3228 C 295.366 -1.45856 3.2902 0
M  V30 3229 C 294.974 -0.493017 4.45279 0
M  V30 3230 C 296.718 -2.14332 3.66418 0
M  V30 3231 C 294.625 -1.16491 5.79814 0
M  V30 3232 H 293.555 -0.299356 0.692027 0
M  V30 3233 H 296.206 -0.0445343 1.83446 0
M  V30 3234 H 294.588 -2.25318 3.2565 0
M  V30 3235 H 295.762 0.270464 4.60006 0
M  V30 3236 H 294.077 0.0863061 4.16311 0
M  V30 3237 H 296.674 -2.65344 4.64216 0
M  V30 3238 H 297.017 -2.93447 2.95287 0
M  V30 3239 H 297.55 -1.41724 3.71698 0
M  V30 3240 H 294.289 -0.41447 6.54188 0
M  V30 3241 H 293.809 -1.8997 5.68921 0
M  V30 3242 H 295.488 -1.69001 6.24538 0
M  V30 3243 N 295.62 -1.53406 -0.361157 0
M  V30 3244 C 296.552 -1.76446 -1.46286 0
M  V30 3245 C 297.565 -0.645322 -1.49464 0
M  V30 3246 O 298.754 -0.921681 -1.52864 0
M  V30 3247 C 295.854 -1.83332 -2.85031 0
M  V30 3248 C 295.027 -3.13033 -3.05498 0
M  V30 3249 C 294.086 -3.11104 -4.24383 0
M  V30 3250 O 293.112 -3.84888 -4.19344 0
M  V30 3251 N 294.314 -2.32234 -5.32022 0
M  V30 3252 H 297.079 -2.71508 -1.26899 0
M  V30 3253 H 294.64 -1.52238 -0.550915 0
M  V30 3254 H 296.632 -1.79514 -3.62708 0
M  V30 3255 H 295.202 -0.955342 -2.97644 0
M  V30 3256 H 294.422 -3.30119 -2.15442 0
M  V30 3257 H 295.71 -3.9874 -3.16044 0
M  V30 3258 H 295.108 -1.71807 -5.38979 0
M  V30 3259 H 293.665 -2.3423 -6.08259 0
M  V30 3260 N 297.098 0.621204 -1.44841 0
M  V30 3261 C 298.046 1.75385 -1.52784 0
M  V30 3262 C 299.04 1.64639 -0.398779 0
M  V30 3263 O 300.246 1.70598 -0.574137 0
M  V30 3264 H 296.621 0.579193 -0.479625 0
M  V30 3265 H 298.592 1.6581 -2.48092 0
M  V30 3266 C 297.341 3.13742 -1.4987 0
M  V30 3267 H 296.664 3.22663 -2.36069 0
M  V30 3268 H 298.104 3.92861 -1.59487 0
M  V30 3269 C 296.563 3.36175 -0.220973 0
M  V30 3270 O 297.093 3.95469 0.704782 0
M  V30 3271 N 295.299 2.90348 -0.120963 0
M  V30 3272 H 294.846 2.42278 -0.875162 0
M  V30 3273 H 294.804 3.05732 0.733168 0
M  V30 3274 N 298.576 1.31904 0.862503 0
M  V30 3275 C 299.992 1.10724 1.14945 0
M  V30 3276 C 300.192 -0.117421 2.01158 0
M  V30 3277 O 299.248 -0.804595 2.39338 0
M  V30 3278 C 300.561 2.38267 1.83437 0
M  V30 3279 C 302.109 2.43949 1.96106 0
M  V30 3280 C 302.584 3.71394 2.68013 0
M  V30 3281 N 304.075 3.72331 2.75543 0
M  V30 3282 C 304.81 4.67641 3.31812 0
M  V30 3283 N 304.306 5.73313 3.88953 0
M  V30 3284 N 306.099 4.5515 3.29841 0
M  V30 3285 H 298.25 2.10436 0.288191 0
M  V30 3286 H 300.513 0.928705 0.190292 0
M  V30 3287 H 300.219 3.27759 1.27542 0
M  V30 3288 H 300.093 2.48633 2.83657 0
M  V30 3289 H 302.48 1.54922 2.51164 0
M  V30 3290 H 302.561 2.37543 0.949059 0
M  V30 3291 H 302.205 4.60791 2.13621 0
M  V30 3292 H 302.135 3.75069 3.69636 0
M  V30 3293 H 304.626 2.95947 2.34997 0
M  V30 3294 H 304.939 6.42107 4.30022 0
M  V30 3295 H 303.284 5.77077 3.87308 0
M  V30 3296 H 306.475 3.71766 2.84443 0
M  V30 3297 H 306.648 5.29604 3.73394 0
M  V30 3298 N 300.054 -1.07777 1.14986 0
M  V30 3299 C 300.984 -2.16865 0.865557 0
M  V30 3300 C 301.965 -1.69123 -0.182083 0
M  V30 3301 O 303.15 -1.94164 -0.0373815 0
M  V30 3302 C 300.28 -3.45539 0.349313 0
M  V30 3303 C 299.234 -4.06708 1.33313 0
M  V30 3304 C 298.56 -5.30411 0.675918 0
M  V30 3305 C 299.86 -4.47241 2.69764 0
M  V30 3306 H 301.554 -2.40905 1.77778 0
M  V30 3307 H 299.1 -1.15781 0.856203 0
M  V30 3308 H 301.053 -4.21174 0.137983 0
M  V30 3309 H 299.777 -3.21072 -0.598362 0
M  V30 3310 H 298.436 -3.33112 1.53075 0
M  V30 3311 H 298.084 -5.02232 -0.277767 0
M  V30 3312 H 297.784 -5.72293 1.33244 0
M  V30 3313 H 299.308 -6.08755 0.474262 0
M  V30 3314 H 300.722 -5.14025 2.53873 0
M  V30 3315 H 299.119 -5.00062 3.3175 0
M  V30 3316 H 300.189 -3.58818 3.26156 0
M  V30 3317 N 301.532 -0.945985 -1.26051 0
M  V30 3318 C 302.465 -0.403619 -2.24602 0
M  V30 3319 C 303.443 0.510241 -1.54387 0
M  V30 3320 O 304.627 0.446593 -1.83133 0
M  V30 3321 C 301.754 0.419564 -3.36091 0
M  V30 3322 C 300.8 -0.433454 -4.24292 0
M  V30 3323 S 301.633 -1.86037 -5.02146 0
M  V30 3324 C 302.789 -1.04538 -6.17108 0
M  V30 3325 H 303.022 -1.23883 -2.7026 0
M  V30 3326 H 300.555 -0.749438 -1.34992 0
M  V30 3327 H 302.513 0.888595 -4.00767 0
M  V30 3328 H 301.174 1.22951 -2.89036 0
M  V30 3329 H 300.367 0.197486 -5.03613 0
M  V30 3330 H 299.969 -0.837357 -3.64506 0
M  V30 3331 H 302.261 -0.289923 -6.76879 0
M  V30 3332 H 303.204 -1.81222 -6.84518 0
M  V30 3333 H 303.612 -0.579319 -5.61519 0
M  V30 3334 N 303.011 1.40521 -0.713556 0
M  V30 3335 C 304.257 2.01221 -0.252564 0
M  V30 3336 C 304.59 1.56444 1.1506 0
M  V30 3337 O 303.865 0.783597 1.78017 0
M  V30 3338 C 304.148 3.58582 -0.330332 0
M  V30 3339 C 304.001 4.13437 -1.77173 0
M  V30 3340 C 305.32 4.39079 0.299641 0
M  V30 3341 H 302.439 0.731077 -0.0932471 0
M  V30 3342 H 305.081 1.67026 -0.905673 0
M  V30 3343 H 303.231 3.87844 0.225737 0
M  V30 3344 H 304.903 3.9498 -2.38303 0
M  V30 3345 H 303.146 3.67801 -2.3001 0
M  V30 3346 H 303.817 5.22597 -1.77755 0
M  V30 3347 H 306.293 4.15735 -0.174139 0
M  V30 3348 H 305.169 5.4848 0.214771 0
M  V30 3349 H 305.43 4.19915 1.38288 0
M  V30 3350 N 304.489 0.459591 1.5075 0
M  V30 3351 C 305.9 0.00171547 1.867 0
M  V30 3352 C 306.251 -1.39934 1.37525 0
M  V30 3353 O 305.376 -2.03523 0.735349 0
M  V30 3354 C 305.971 -0.00366298 3.388 0
M  V30 3355 C 304.53 -0.406026 3.74204 0
M  V30 3356 C 303.677 0.38673 2.7459 0
M  V30 3357 H 306.628 0.674413 1.43657 0
M  V30 3358 H 306.649 -0.808371 3.71814 0
M  V30 3359 H 306.161 1.01617 3.74561 0
M  V30 3360 H 304.262 -1.43063 3.4404 0
M  V30 3361 H 304.375 -0.115362 4.78961 0
M  V30 3362 H 302.739 -0.158019 2.54209 0
M  V30 3363 H 303.522 1.40585 3.13194 0
M  V30 3364 N 305.967 -1.56429 0.191757 0
M  V30 3365 C 306.877 -2.22541 -0.742481 0
M  V30 3366 C 307.893 -1.22342 -1.23727 0
M  V30 3367 O 309.069 -1.55069 -1.28513 0
M  V30 3368 C 306.134 -2.8692 -1.94623 0
M  V30 3369 C 305.195 -4.02378 -1.49633 0
M  V30 3370 C 304.428 -4.63678 -2.6427 0
M  V30 3371 O 304.651 -4.23895 -3.81666 0
M  V30 3372 O 303.585 -5.53202 -2.37174 0
M  V30 3373 H 307.411 -3.02977 -0.209462 0
M  V30 3374 H 304.996 -1.49353 -0.0373832 0
M  V30 3375 H 306.878 -3.27663 -2.64982 0
M  V30 3376 H 305.553 -2.09466 -2.46791 0
M  V30 3377 H 304.46 -3.66265 -0.761636 0
M  V30 3378 H 305.793 -4.81487 -1.02134 0
M  V30 3379 N 307.445 0.0818655 -1.57387 0
M  V30 3380 C 308.722 0.815343 -1.77796 0
M  V30 3381 C 309.102 1.96289 -0.77679 0
M  V30 3382 O 308.45 2.27691 0.192106 0
M  V30 3383 C 308.66 1.29765 -3.23978 0
M  V30 3384 C 310.008 1.7351 -3.8753 0
M  V30 3385 O 311.032 1.39356 -3.27808 0
M  V30 3386 O 309.891 2.36708 -4.92576 0
M  V30 3387 H 306.985 0.389914 -0.729312 0
M  V30 3388 H 309.531 0.0627213 -1.69584 0
M  V30 3389 H 308.303 0.47608 -3.88393 0
M  V30 3390 H 307.926 2.11189 -3.36875 0
M  V30 3391 N 308.923 1.53595 0.353017 0
M  V30 3392 C 310.172 1.69603 1.09168 0
M  V30 3393 C 310.485 0.460925 1.90092 0
M  V30 3394 O 311.691 0.501774 2.66823 0
M  V30 3395 C 310.147 2.99872 1.9901 0
M  V30 3396 C 309.755 4.30687 1.23339 0
M  V30 3397 C 311.499 3.25246 2.72792 0
M  V30 3398 C 309.406 5.52036 2.12156 0
M  V30 3399 H 308.336 0.631966 0.411261 0
M  V30 3400 H 310.987 1.80096 0.351802 0
M  V30 3401 H 309.369 2.83212 2.7678 0
M  V30 3402 H 310.543 4.58019 0.505456 0
M  V30 3403 H 308.858 4.11853 0.613663 0
M  V30 3404 H 311.455 4.13095 3.39495 0
M  V30 3405 H 311.798 2.41846 3.38846 0
M  V30 3406 H 312.331 3.42638 2.021 0
M  V30 3407 H 309.07 6.37951 1.50659 0
M  V30 3408 H 308.59 5.28966 2.82764 0
M  V30 3409 H 310.269 5.87313 2.71427 0
M  V30 3410 N 310.401 -0.613514 1.45168 0
M  V30 3411 C 311.626 -1.40437 1.52618 0
M  V30 3412 C 312.051 -1.87438 0.157707 0
M  V30 3413 O 311.409 -1.59791 -0.856537 0
M  V30 3414 C 311.457 -2.58894 2.51011 0
M  V30 3415 O 310.561 -3.59326 2.02382 0
M  V30 3416 H 309.902 -0.419506 0.514695 0
M  V30 3417 H 312.432 -0.747215 1.90467 0
M  V30 3418 H 312.442 -3.06214 2.69624 0
M  V30 3419 H 311.117 -2.24032 3.50403 0
M  V30 3420 H 309.694 -3.18695 1.93618 0
M  V30 3421 N 311.879 -1.3236 -0.855495 0
M  V30 3422 C 312.789 -1.23221 -1.99634 0
M  V30 3423 C 313.805 -0.145983 -1.73387 0
M  V30 3424 O 314.981 -0.366502 -1.98037 0
M  V30 3425 C 312.046 -0.954782 -3.33294 0
M  V30 3426 C 311.107 -2.12937 -3.72769 0
M  V30 3427 C 310.34 -1.86508 -5.00051 0
M  V30 3428 O 310.563 -0.807231 -5.64659 0
M  V30 3429 O 309.497 -2.72591 -5.36636 0
M  V30 3430 H 313.323 -2.19126 -2.1028 0
M  V30 3431 H 310.908 -1.12241 -0.986018 0
M  V30 3432 H 312.79 -0.816519 -4.13414 0
M  V30 3433 H 311.465 -0.0258854 -3.2369 0
M  V30 3434 H 310.372 -2.3231 -2.93228 0
M  V30 3435 H 311.705 -3.04102 -3.87018 0
M  V30 3436 N 313.357 1.07166 -1.15556 0
M  V30 3437 C 314.287 2.16403 -0.877046 0
M  V30 3438 C 315.268 1.69217 0.173111 0
M  V30 3439 O 316.453 1.94181 0.027084 0
M  V30 3440 C 313.583 3.45349 -0.367632 0
M  V30 3441 C 312.537 4.05995 -1.35468 0
M  V30 3442 C 311.863 5.30045 -0.704038 0
M  V30 3443 C 313.163 4.45804 -2.72132 0
M  V30 3444 H 314.857 2.39959 -1.79053 0
M  V30 3445 H 312.403 1.15325 -0.862331 0
M  V30 3446 H 314.356 4.21095 -0.160317 0
M  V30 3447 H 313.08 3.21385 0.581326 0
M  V30 3448 H 311.739 3.32296 -1.54839 0
M  V30 3449 H 311.387 5.02373 0.251128 0
M  V30 3450 H 311.087 5.71579 -1.36277 0
M  V30 3451 H 312.611 6.08495 -0.50654 0
M  V30 3452 H 314.025 5.12671 -2.56595 0
M  V30 3453 H 312.422 4.98296 -3.34397 0
M  V30 3454 H 313.492 3.57083 -3.28054 0
M  V30 3455 N 314.835 0.952656 1.25548 0
M  V30 3456 C 315.745 0.47782 2.29682 0
M  V30 3457 C 316.761 -0.453859 1.67977 0
M  V30 3458 O 317.937 -0.330587 1.98668 0
M  V30 3459 C 315.002 -0.238655 3.45878 0
M  V30 3460 C 314.063 0.730994 4.23031 0
M  V30 3461 C 313.296 0.0486165 5.33678 0
M  V30 3462 O 313.519 -1.16612 5.58353 0
M  V30 3463 O 312.453 0.733152 5.97418 0
M  V30 3464 H 316.279 1.34312 2.72386 0
M  V30 3465 H 313.864 0.719026 1.30959 0
M  V30 3466 H 315.746 -0.641774 4.16484 0
M  V30 3467 H 314.421 -1.07916 3.05181 0
M  V30 3468 H 313.328 1.18428 3.5486 0
M  V30 3469 H 314.661 1.53946 4.67506 0
M  V30 3470 N 316.313 -1.40141 0.720998 0
M  V30 3471 C 317.541 -2.05096 0.272656 0
M  V30 3472 C 317.956 -1.54334 -1.0875 0
M  V30 3473 O 317.313 -0.702211 -1.6845 0
M  V30 3474 C 317.364 -3.60636 0.249835 0
M  V30 3475 O 317.085 -4.09526 1.55629 0
M  V30 3476 C 318.586 -4.42772 -0.216396 0
M  V30 3477 H 315.806 -0.659897 0.121558 0
M  V30 3478 H 318.35 -1.79449 0.980723 0
M  V30 3479 H 316.505 -3.85232 -0.409237 0
M  V30 3480 H 316.919 -5.03758 1.4604 0
M  V30 3481 H 318.393 -5.51702 -0.181212 0
M  V30 3482 H 318.87 -4.20756 -1.25941 0
M  V30 3483 H 319.476 -4.23294 0.412596 0
M  V30 3484 N 317.792 -0.46758 -1.50504 0
M  V30 3485 C 318.755 0.317059 -2.26996 0
M  V30 3486 C 319.755 0.923513 -1.31635 0
M  V30 3487 O 320.945 0.793239 -1.55091 0
M  V30 3488 C 318.077 1.45134 -3.08462 0
M  V30 3489 H 319.27 -0.353723 -2.97807 0
M  V30 3490 H 316.823 -0.221545 -1.54722 0
M  V30 3491 H 317.558 2.15728 -2.4214 0
M  V30 3492 H 317.343 1.02232 -3.78538 0
M  V30 3493 H 318.833 2.00493 -3.66323 0
M  V30 3494 N 319.27 1.56325 -0.20005 0
M  V30 3495 C 320.202 2.16555 0.750771 0
M  V30 3496 C 321.215 1.12871 1.1732 0
M  V30 3497 O 322.404 1.39943 1.10807 0
M  V30 3498 C 319.504 2.71684 2.02586 0
M  V30 3499 C 318.677 4.00321 1.76244 0
M  V30 3500 C 317.736 4.40227 2.88248 0
M  V30 3501 O 316.762 5.07552 2.57642 0
M  V30 3502 N 317.964 4.04138 4.16717 0
M  V30 3503 H 320.729 2.98772 0.235685 0
M  V30 3504 H 318.29 1.6189 -0.0182594 0
M  V30 3505 H 320.282 2.95363 2.76664 0
M  V30 3506 H 318.852 1.93893 2.45202 0
M  V30 3507 H 318.072 3.84723 0.85919 0
M  V30 3508 H 319.36 4.84279 1.56048 0
M  V30 3509 H 318.758 3.49993 4.44434 0
M  V30 3510 H 317.315 4.32756 4.87407 0
M  V30 3511 N 320.748 -0.0735177 1.57428 0
M  V30 3512 C 321.695 -1.08756 2.0357 0
M  V30 3513 C 322.665 -1.38559 0.916 0
M  V30 3514 O 323.85 -1.49656 1.18354 0
M  V30 3515 C 320.99 -2.39657 2.48311 0
M  V30 3516 C 320.103 -2.16399 3.73892 0
M  V30 3517 C 319.238 -3.40852 4.07423 0
M  V30 3518 C 318.277 -3.1295 5.2605 0
M  V30 3519 N 317.414 -4.29729 5.55228 0
M  V30 3520 H 322.254 -0.687104 2.8997 0
M  V30 3521 H 319.791 -0.327709 1.43403 0
M  V30 3522 H 321.749 -3.16081 2.72303 0
M  V30 3523 H 320.379 -2.77508 1.64891 0
M  V30 3524 H 319.431 -1.30676 3.57251 0
M  V30 3525 H 320.743 -1.91788 4.60455 0
M  V30 3526 H 319.897 -4.25671 4.32306 0
M  V30 3527 H 318.636 -3.68537 3.19425 0
M  V30 3528 H 317.641 -2.26526 5.00965 0
M  V30 3529 H 318.866 -2.86589 6.15665 0
M  V30 3530 H 316.812 -4.57448 4.70188 0
M  V30 3531 H 316.729 -4.08385 6.36206 0
M  V30 3532 H 317.997 -5.1555 5.84661 0
M  V30 3533 N 322.226 -1.5378 -0.344866 0
M  V30 3534 C 323.156 -1.84662 -1.42906 0
M  V30 3535 C 324.137 -0.701648 -1.54955 0
M  V30 3536 O 325.322 -0.953438 -1.69184 0
M  V30 3537 C 322.452 -2.05503 -2.79974 0
M  V30 3538 C 321.406 -3.21318 -2.82734 0
M  V30 3539 C 320.732 -3.2749 -4.22675 0
M  V30 3540 C 322.032 -4.59456 -2.48389 0
M  V30 3541 H 323.726 -2.75461 -1.17311 0
M  V30 3542 H 321.272 -1.32542 -0.562896 0
M  V30 3543 H 323.225 -2.25691 -3.55867 0
M  V30 3544 H 321.949 -1.11434 -3.07002 0
M  V30 3545 H 320.608 -3.00984 -2.09294 0
M  V30 3546 H 320.256 -2.31019 -4.4681 0
M  V30 3547 H 319.956 -4.05316 -4.25433 0
M  V30 3548 H 321.48 -3.49887 -5.00412 0
M  V30 3549 H 322.894 -4.79667 -3.13995 0
M  V30 3550 H 321.291 -5.39675 -2.62432 0
M  V30 3551 H 322.361 -4.63155 -1.4358 0
M  V30 3552 N 323.704 0.605807 -1.45491 0
M  V30 3553 C 324.634 1.72709 -1.57143 0
M  V30 3554 C 325.615 1.6476 -0.422884 0
M  V30 3555 O 326.8 1.83132 -0.646247 0
M  V30 3556 C 323.93 3.11316 -1.53948 0
M  V30 3557 C 322.884 3.34077 -2.67537 0
M  V30 3558 C 322.21 4.72975 -2.49397 0
M  V30 3559 C 323.51 3.24158 -4.09535 0
M  V30 3560 H 325.204 1.63214 -2.51001 0
M  V30 3561 H 322.75 0.78379 -1.208 0
M  V30 3562 H 324.703 3.89557 -1.60696 0
M  V30 3563 H 323.427 3.21655 -0.566205 0
M  V30 3564 H 322.086 2.58227 -2.6022 0
M  V30 3565 H 321.734 4.8005 -1.50205 0
M  V30 3566 H 321.434 4.8916 -3.25571 0
M  V30 3567 H 322.958 5.53414 -2.58002 0
M  V30 3568 H 324.372 3.92271 -4.18086 0
M  V30 3569 H 322.769 3.51872 -4.86113 0
M  V30 3570 H 323.839 2.2157 -4.31317 0
M  V30 3571 N 325.182 1.32811 0.848464 0
M  V30 3572 C 326.092 1.24278 1.98978 0
M  V30 3573 C 327.108 0.155176 1.73307 0
M  V30 3574 O 328.284 0.376999 1.9784 0
M  V30 3575 C 325.349 0.972444 3.32783 0
M  V30 3576 C 324.41 2.14911 3.71634 0
M  V30 3577 C 323.643 1.89157 4.99054 0
M  V30 3578 O 323.866 0.837165 5.64223 0
M  V30 3579 O 322.8 2.75433 5.35183 0
M  V30 3580 H 326.626 2.20238 2.09115 0
M  V30 3581 H 324.211 1.12762 0.980052 0
M  V30 3582 H 326.093 0.838432 4.12975 0
M  V30 3583 H 324.768 0.043051 3.23671 0
M  V30 3584 H 323.675 2.33862 2.91992 0
M  V30 3585 H 325.008 3.06151 3.85399 0
M  V30 3586 N 326.66 -1.06551 1.16123 0
M  V30 3587 C 327.89 -1.8274 0.963838 0
M  V30 3588 C 328.298 -1.82712 -0.491228 0
M  V30 3589 O 327.641 -1.24294 -1.35265 0
M  V30 3590 C 327.703 -3.3065 1.41106 0
M  V30 3591 C 327.367 -3.54384 2.88549 0
M  V30 3592 C 328.364 -3.4765 3.86569 0
M  V30 3593 C 326.049 -3.81789 3.26408 0
M  V30 3594 C 328.043 -3.67982 5.2045 0
M  V30 3595 C 325.73 -4.01772 4.60459 0
M  V30 3596 C 326.728 -3.94866 5.57288 0
M  V30 3597 O 326.416 -4.14306 6.88916 0
M  V30 3598 H 326.148 -0.583136 0.341948 0
M  V30 3599 H 328.702 -1.35351 1.54497 0
M  V30 3600 H 326.932 -3.78887 0.773394 0
M  V30 3601 H 328.621 -3.88324 1.1815 0
M  V30 3602 H 329.387 -3.2647 3.58667 0
M  V30 3603 H 325.266 -3.86276 2.51619 0
M  V30 3604 H 328.81 -3.62507 5.96015 0
M  V30 3605 H 324.707 -4.2244 4.88072 0
M  V30 3606 H 325.475 -4.31609 6.95454 0
M  V30 3607 N 328.138 -0.959301 -1.25041 0
M  V30 3608 C 329.088 -0.453888 -2.23436 0
M  V30 3609 C 330.072 0.459461 -1.542 0
M  V30 3610 O 331.264 0.291752 -1.74579 0
M  V30 3611 C 328.393 0.262667 -3.42294 0
M  V30 3612 C 327.479 -0.669022 -4.1879 0
M  V30 3613 N 327.87 -1.80267 -4.72586 0
M  V30 3614 C 326.168 -0.47814 -4.4343 0
M  V30 3615 C 326.869 -2.38475 -5.3057 0
M  V30 3616 N 325.845 -1.67078 -5.17287 0
M  V30 3617 H 329.647 -1.319 -2.6264 0
M  V30 3618 H 327.161 -0.817358 -1.40332 0
M  V30 3619 H 329.158 0.641911 -4.11929 0
M  V30 3620 H 327.818 1.12432 -3.04613 0
M  V30 3621 H 328.829 -2.18442 -4.69578 0
M  V30 3622 H 325.506 0.340249 -4.16111 0
M  V30 3623 H 326.896 -3.34094 -5.8295 0
M  V30 3624 N 329.616 1.39756 -0.72842 0
M  V30 3625 C 331.032 1.5442 -0.403308 0
M  V30 3626 C 331.232 1.69694 1.08656 0
M  V30 3627 O 330.288 1.69373 1.87267 0
M  V30 3628 C 331.601 2.76555 -1.18058 0
M  V30 3629 C 333.149 2.90384 -1.16815 0
M  V30 3630 C 333.624 4.15449 -1.92785 0
M  V30 3631 N 335.115 4.22475 -1.89918 0
M  V30 3632 C 335.85 5.1818 -2.45514 0
M  V30 3633 N 335.346 6.19714 -3.09719 0
M  V30 3634 N 337.139 5.1035 -2.35584 0
M  V30 3635 H 329.29 1.28089 -1.69431 0
M  V30 3636 H 331.553 0.620327 -0.716867 0
M  V30 3637 H 331.259 2.7159 -2.23455 0
M  V30 3638 H 331.133 3.69033 -0.780662 0
M  V30 3639 H 333.52 2.94846 -0.12234 0
M  V30 3640 H 333.601 1.98988 -1.6074 0
M  V30 3641 H 333.245 4.11749 -2.97364 0
M  V30 3642 H 333.175 5.05877 -1.46272 0
M  V30 3643 H 335.666 3.49743 -1.43138 0
M  V30 3644 H 335.979 6.8919 -3.49625 0
M  V30 3645 H 334.324 6.20121 -3.13807 0
M  V30 3646 H 337.515 4.2996 -1.85072 0
M  V30 3647 H 337.688 5.84761 -2.79211 0
M  V30 3648 N 331.094 0.475555 1.50254 0
M  V30 3649 C 332.042 -0.330276 2.30243 0
M  V30 3650 C 333.036 -0.986306 1.37726 0
M  V30 3651 O 334.242 -0.9169 1.54897 0
M  V30 3652 H 330.617 -0.125353 0.741479 0
M  V30 3653 H 332.588 0.364702 2.96163 0
M  V30 3654 C 331.337 -1.39704 3.18399 0
M  V30 3655 H 330.66 -0.901621 3.89501 0
M  V30 3656 H 332.1 -1.93336 3.77355 0
M  V30 3657 C 330.559 -2.4014 2.36293 0
M  V30 3658 O 331.089 -3.45504 2.04914 0
M  V30 3659 N 329.295 -2.1197 1.98789 0
M  V30 3660 H 328.842 -1.2631 2.24507 0
M  V30 3661 H 328.8 -2.79403 1.44157 0
M  V30 3662 N 332.573 -1.56217 0.208337 0
M  V30 3663 C 333.822 -1.97124 -0.427204 0
M  V30 3664 C 334.135 -1.09859 -1.61835 0
M  V30 3665 O 335.341 -1.40606 -2.32255 0
M  V30 3666 C 333.797 -3.50633 -0.811442 0
M  V30 3667 C 333.405 -4.46582 0.35615 0
M  V30 3668 C 335.149 -4.00282 -1.41332 0
M  V30 3669 C 333.056 -5.91379 -0.0497852 0
M  V30 3670 H 331.986 -0.736086 -0.163381 0
M  V30 3671 H 334.637 -1.8099 0.302456 0
M  V30 3672 H 333.019 -3.62319 -1.59815 0
M  V30 3673 H 334.193 -4.46636 1.1337 0
M  V30 3674 H 332.508 -4.07202 0.870396 0
M  V30 3675 H 335.105 -5.0595 -1.72972 0
M  V30 3676 H 335.448 -3.45359 -2.32449 0
M  V30 3677 H 335.981 -3.91764 -0.690323 0
M  V30 3678 H 332.72 -6.50255 0.827529 0
M  V30 3679 H 332.24 -5.94549 -0.791926 0
M  V30 3680 H 333.919 -6.45209 -0.481042 0
M  V30 3681 N 334.051 0.0651679 -1.57465 0
M  V30 3682 C 335.297 0.764193 -1.87851 0
M  V30 3683 C 335.63 1.76889 -0.801495 0
M  V30 3684 O 334.905 1.93594 0.187528 0
M  V30 3685 C 335.188 1.46625 -3.28897 0
M  V30 3686 C 335.041 0.477515 -4.47258 0
M  V30 3687 C 336.36 2.4095 -3.68281 0
M  V30 3688 H 333.479 0.276351 -0.683227 0
M  V30 3689 H 336.121 0.0272868 -1.8998 0
M  V30 3690 H 334.271 2.09438 -3.27212 0
M  V30 3691 H 335.943 -0.145922 -4.61069 0
M  V30 3692 H 334.186 -0.206576 -4.33308 0
M  V30 3693 H 334.857 1.0065 -5.42746 0
M  V30 3694 H 337.333 1.88209 -3.71102 0
M  V30 3695 H 336.209 2.87072 -4.67847 0
M  V30 3696 H 336.47 3.26049 -2.98571 0
M  V30 3697 N 335.529 1.53961 0.336706 0
M  V30 3698 C 336.945 1.44378 0.680241 0
M  V30 3699 C 337.145 0.606034 1.9217 0
M  V30 3700 O 336.201 0.099688 2.52303 0
M  V30 3701 C 337.514 2.87945 0.8665 0
M  V30 3702 C 339.062 2.97763 0.964682 0
M  V30 3703 C 339.537 4.42453 1.18321 0
M  V30 3704 N 341.028 4.46008 1.25025 0
M  V30 3705 C 341.763 5.55102 1.43697 0
M  V30 3706 N 341.259 6.7419 1.59498 0
M  V30 3707 N 343.052 5.42727 1.463 0
M  V30 3708 H 335.203 2.06918 -0.479455 0
M  V30 3709 H 337.466 0.935634 -0.152619 0
M  V30 3710 H 337.172 3.51691 0.0256937 0
M  V30 3711 H 337.046 3.33293 1.76623 0
M  V30 3712 H 339.433 2.34153 1.796 0
M  V30 3713 H 339.514 2.55766 0.041708 0
M  V30 3714 H 339.158 5.06645 0.356788 0
M  V30 3715 H 339.088 4.82048 2.11985 0
M  V30 3716 H 341.579 3.60196 1.14312 0
M  V30 3717 H 341.892 7.53095 1.734 0
M  V30 3718 H 340.237 6.77123 1.56621 0
M  V30 3719 H 343.428 4.48647 1.33543 0
M  V30 3720 H 343.601 6.27806 1.6051 0
M  V30 3721 N 337.007 -0.598083 1.45811 0
M  V30 3722 C 338.253 -1.35882 1.50545 0
M  V30 3723 C 338.586 -1.93616 0.150445 0
M  V30 3724 O 337.861 -1.75604 -0.83628 0
M  V30 3725 C 338.144 -2.49966 2.59208 0
M  V30 3726 C 337.997 -1.97367 4.04186 0
M  V30 3727 C 339.316 -3.52068 2.64076 0
M  V30 3728 H 336.435 -0.492717 0.548087 0
M  V30 3729 H 339.077 -0.673319 1.77669 0
M  V30 3730 H 337.227 -3.08443 2.3621 0
M  V30 3731 H 338.899 -1.43466 4.38423 0
M  V30 3732 H 337.142 -1.283 4.14393 0
M  V30 3733 H 337.813 -2.79649 4.75921 0
M  V30 3734 H 340.289 -3.03448 2.84708 0
M  V30 3735 H 339.165 -4.2937 3.41954 0
M  V30 3736 H 339.426 -4.08304 1.69531 0
M  V30 3737 N 338.485 -1.33259 -0.841409 0
M  V30 3738 C 339.734 -1.23921 -1.59143 0
M  V30 3739 C 340.047 0.1941 -1.94635 0
M  V30 3740 O 341.253 0.409474 -2.68394 0
M  V30 3741 C 339.709 -2.17119 -2.87032 0
M  V30 3742 C 339.317 -3.65606 -2.58914 0
M  V30 3743 C 341.061 -2.16648 -3.65053 0
M  V30 3744 C 338.968 -4.50726 -3.82884 0
M  V30 3745 H 337.898 -0.460264 -0.597221 0
M  V30 3746 H 340.549 -1.58307 -0.927959 0
M  V30 3747 H 338.931 -1.75663 -3.54906 0
M  V30 3748 H 340.105 -4.15487 -1.99267 0
M  V30 3749 H 338.42 -3.68341 -1.942 0
M  V30 3750 H 341.017 -2.77474 -4.57069 0
M  V30 3751 H 341.36 -1.16088 -3.99787 0
M  V30 3752 H 341.893 -2.56453 -3.041 0
M  V30 3753 H 338.632 -5.52151 -3.53283 0
M  V30 3754 H 338.152 -4.0559 -4.41879 0
M  V30 3755 H 339.831 -4.64401 -4.50489 0
M  V30 3756 N 339.963 1.05934 -1.16686 0
M  V30 3757 C 341.374 1.60263 -0.957745 0
M  V30 3758 C 341.725 1.89789 0.49745 0
M  V30 3759 O 340.85 1.67401 1.37135 0
M  V30 3760 C 341.445 2.91172 -1.73218 0
M  V30 3761 C 340.004 3.42188 -1.56794 0
M  V30 3762 C 339.151 2.16028 -1.73859 0
M  V30 3763 H 342.102 0.888392 -1.31504 0
M  V30 3764 H 342.123 3.60744 -1.21014 0
M  V30 3765 H 341.635 2.6965 -2.79124 0
M  V30 3766 H 339.736 3.68762 -0.533437 0
M  V30 3767 H 339.849 4.17273 -2.35414 0
M  V30 3768 H 338.213 2.26426 -1.16633 0
M  V30 3769 H 338.996 1.96985 -2.81161 0
M  V30 3770 N 341.441 0.965919 1.2453 0
M  V30 3771 C 342.666 0.643971 1.97149 0
M  V30 3772 C 343.091 -0.779487 1.71189 0
M  V30 3773 O 342.449 -1.5288 0.974553 0
M  V30 3774 C 342.497 0.922557 3.48599 0
M  V30 3775 O 341.601 0.00707672 4.12399 0
M  V30 3776 H 340.942 0.243647 0.617683 0
M  V30 3777 H 343.472 1.29558 1.58353 0
M  V30 3778 H 343.482 0.853373 3.98976 0
M  V30 3779 H 342.157 1.95996 3.66822 0
M  V30 3780 H 340.734 0.12943 3.72675 0
M  V30 3781 N 342.919 -1.39368 0.735821 0
M  V30 3782 C 344.149 -2.04498 0.293967 0
M  V30 3783 C 344.557 -1.55593 -1.07645 0
M  V30 3784 O 343.9 -0.716324 -1.69158 0
M  V30 3785 C 343.962 -3.58836 0.218342 0
M  V30 3786 C 343.626 -4.30721 1.52736 0
M  V30 3787 C 344.623 -4.57305 2.47322 0
M  V30 3788 C 342.308 -4.69251 1.79189 0
M  V30 3789 C 344.302 -5.21429 3.66593 0
M  V30 3790 C 341.989 -5.33104 2.98737 0
M  V30 3791 C 342.987 -5.59125 3.9226 0
M  V30 3792 O 342.675 -6.21653 5.09708 0
M  V30 3793 H 342.407 -0.664118 0.126189 0
M  V30 3794 H 344.961 -1.79385 1.00051 0
M  V30 3795 H 343.191 -3.8285 -0.544314 0
M  V30 3796 H 344.88 -4.05447 -0.191626 0
M  V30 3797 H 345.646 -4.27983 2.28156 0
M  V30 3798 H 341.525 -4.48354 1.07239 0
M  V30 3799 H 345.069 -5.41656 4.39607 0
M  V30 3800 H 340.966 -5.61846 3.17803 0
M  V30 3801 H 341.734 -6.40146 5.10054 0
M  V30 3802 N 344.397 -0.483516 -1.5 0
M  V30 3803 C 345.808 -0.0314176 -1.86674 0
M  V30 3804 C 346.159 1.37728 -1.39733 0
M  V30 3805 O 345.284 2.02327 -0.767635 0
M  V30 3806 C 345.879 -0.0502376 -3.38763 0
M  V30 3807 C 344.438 0.346442 -3.74802 0
M  V30 3808 C 343.585 -0.430366 -2.7394 0
M  V30 3809 H 346.536 -0.697182 -1.42566 0
M  V30 3810 H 346.557 0.749116 -3.73053 0
M  V30 3811 H 346.069 -1.07563 -3.72897 0
M  V30 3812 H 344.17 1.37572 -3.46273 0
M  V30 3813 H 344.283 0.0391486 -4.79084 0
M  V30 3814 H 342.647 0.117557 -2.54429 0
M  V30 3815 H 343.43 -1.4555 -3.10918 0
M  V30 3816 N 345.875 1.56104 -0.216619 0
M  V30 3817 C 346.822 2.2007 0.695531 0
M  V30 3818 C 347.792 1.15471 1.19397 0
M  V30 3819 O 348.977 1.43807 1.25396 0
M  V30 3820 C 346.117 2.88073 1.90021 0
M  V30 3821 C 345.23 4.07253 1.44113 0
M  V30 3822 C 344.365 4.63052 2.603 0
M  V30 3823 C 343.404 5.74545 2.11103 0
M  V30 3824 N 342.541 6.24656 3.20545 0
M  V30 3825 H 347.381 2.97655 0.143327 0
M  V30 3826 H 344.918 1.46982 0.0589934 0
M  V30 3827 H 346.876 3.25681 2.60745 0
M  V30 3828 H 345.506 2.13015 2.42538 0
M  V30 3829 H 344.558 3.75164 0.628999 0
M  V30 3830 H 345.87 4.8783 1.04036 0
M  V30 3831 H 345.024 5.03078 3.39113 0
M  V30 3832 H 343.763 3.81628 3.03663 0
M  V30 3833 H 342.768 5.34027 1.3075 0
M  V30 3834 H 343.993 6.57801 1.68746 0
M  V30 3835 H 341.939 5.46148 3.63399 0
M  V30 3836 H 341.856 7.00343 2.84704 0
M  V30 3837 H 343.124 6.69338 3.99508 0
M  V30 3838 N 347.353 -0.0568162 1.57498 0
M  V30 3839 C 348.602 -0.752001 1.87157 0
M  V30 3840 C 348.915 -1.77978 0.811375 0
M  V30 3841 O 350.121 -2.52559 0.996293 0
M  V30 3842 C 348.577 -1.38844 3.3204 0
M  V30 3843 C 348.185 -0.398456 4.46225 0
M  V30 3844 C 349.929 -2.06512 3.70882 0
M  V30 3845 C 347.836 -1.04166 5.82154 0
M  V30 3846 H 346.766 -0.28461 0.698222 0
M  V30 3847 H 349.417 -0.00561272 1.83499 0
M  V30 3848 H 347.799 -2.1836 3.30356 0
M  V30 3849 H 348.973 0.367977 4.59328 0
M  V30 3850 H 347.288 0.174592 4.16034 0
M  V30 3851 H 349.885 -2.55437 4.6974 0
M  V30 3852 H 350.228 -2.87117 3.01445 0
M  V30 3853 H 350.761 -1.33808 3.7462 0
M  V30 3854 H 347.5 -0.275614 6.5492 0
M  V30 3855 H 347.02 -1.7786 5.72823 0
M  V30 3856 H 348.699 -1.55715 6.27982 0
M  V30 3857 N 348.832 -1.54138 -0.328536 0
M  V30 3858 C 349.762 -1.86167 -1.40939 0
M  V30 3859 C 350.743 -0.718044 -1.54202 0
M  V30 3860 O 351.928 -0.971328 -1.68163 0
M  V30 3861 C 349.058 -2.08461 -2.77779 0
M  V30 3862 C 348.012 -3.24299 -2.7931 0
M  V30 3863 C 347.338 -3.31955 -4.19178 0
M  V30 3864 C 348.638 -4.62065 -2.43502 0
M  V30 3865 H 350.332 -2.76689 -1.14383 0
M  V30 3866 H 347.878 -1.33132 -0.548806 0
M  V30 3867 H 349.831 -2.29453 -3.53454 0
M  V30 3868 H 348.555 -1.14684 -3.05802 0
M  V30 3869 H 347.214 -3.03187 -2.0609 0
M  V30 3870 H 346.862 -2.35745 -4.44335 0
M  V30 3871 H 346.562 -4.09805 -4.2111 0
M  V30 3872 H 348.086 -3.55175 -4.96672 0
M  V30 3873 H 349.5 -4.8297 -3.08889 0
M  V30 3874 H 347.897 -5.42429 -2.56693 0
M  V30 3875 H 348.967 -4.64652 -1.38659 0
M  V30 3876 N 350.31 0.590341 -1.46126 0
M  V30 3877 C 351.257 1.69994 -1.56111 0
M  V30 3878 C 352.227 1.61065 -0.405867 0
M  V30 3879 O 353.412 1.8039 -0.621613 0
M  V30 3880 C 350.552 3.08326 -1.55013 0
M  V30 3881 C 349.665 3.27936 -2.81215 0
M  V30 3882 C 348.8 4.56473 -2.71673 0
M  V30 3883 C 347.839 4.694 -3.92849 0
M  V30 3884 N 346.976 5.89254 -3.81738 0
M  V30 3885 H 351.816 1.60797 -2.50895 0
M  V30 3886 H 349.353 0.783799 -1.24479 0
M  V30 3887 H 351.311 3.88383 -1.52362 0
M  V30 3888 H 349.941 3.16439 -0.637667 0
M  V30 3889 H 348.993 2.41536 -2.93879 0
M  V30 3890 H 350.305 3.33357 -3.71045 0
M  V30 3891 H 349.459 5.44748 -2.67085 0
M  V30 3892 H 348.198 4.53477 -1.7947 0
M  V30 3893 H 347.203 3.79544 -3.97777 0
M  V30 3894 H 348.428 4.7418 -4.86138 0
M  V30 3895 H 346.374 5.87271 -2.92317 0
M  V30 3896 H 346.291 5.95911 -4.65217 0
M  V30 3897 H 347.559 6.79981 -3.81112 0
M  V30 3898 N 351.788 1.33704 0.83433 0
M  V30 3899 C 353.034 1.25603 1.59222 0
M  V30 3900 C 353.367 -0.176659 1.93395 0
M  V30 3901 O 352.642 -1.11915 1.59076 0
M  V30 3902 C 352.925 2.13576 2.89926 0
M  V30 3903 C 352.778 3.65326 2.62406 0
M  V30 3904 C 354.097 2.01238 3.91397 0
M  V30 3905 H 351.216 0.457613 0.577719 0
M  V30 3906 H 353.858 1.63848 0.961972 0
M  V30 3907 H 352.008 1.8109 3.43713 0
M  V30 3908 H 353.68 4.08124 2.15017 0
M  V30 3909 H 351.923 3.8698 1.96033 0
M  V30 3910 H 352.594 4.22232 3.55562 0
M  V30 3911 H 355.07 2.29738 3.46929 0
M  V30 3912 H 353.946 2.65036 4.80673 0
M  V30 3913 H 354.207 0.985951 4.30966 0
M  V30 3914 N 353.266 -1.05314 1.17247 0
M  V30 3915 C 354.515 -1.77685 0.954521 0
M  V30 3916 C 354.828 -1.88616 -0.518025 0
M  V30 3917 O 356.034 -2.57714 -0.854144 0
M  V30 3918 C 354.49 -3.19402 1.65863 0
M  V30 3919 C 354.098 -3.16605 3.16963 0
M  V30 3920 C 355.842 -3.96237 1.52303 0
M  V30 3921 C 353.749 -4.53103 3.80068 0
M  V30 3922 H 352.679 -0.666 0.353496 0
M  V30 3923 H 355.33 -1.1805 1.40486 0
M  V30 3924 H 353.712 -3.79355 1.13602 0
M  V30 3925 H 354.886 -2.66176 3.76148 0
M  V30 3926 H 353.201 -2.53268 3.30521 0
M  V30 3927 H 355.798 -4.97157 1.96822 0
M  V30 3928 H 356.141 -4.136 0.473401 0
M  V30 3929 H 356.674 -3.42829 2.01775 0
M  V30 3930 H 353.413 -4.40946 4.85023 0
M  V30 3931 H 352.933 -5.03686 3.2567 0
M  V30 3932 H 354.612 -5.22045 3.82202 0
M  V30 3933 N 354.744 -0.972509 -1.24016 0
M  V30 3934 C 355.969 -0.654417 -1.96805 0
M  V30 3935 C 356.394 0.770398 -1.716 0
M  V30 3936 O 355.752 1.52361 -0.982647 0
M  V30 3937 C 355.8 -0.941031 -3.48105 0
M  V30 3938 O 354.904 -0.0289472 -4.1239 0
M  V30 3939 H 354.245 -0.24692 -0.616382 0
M  V30 3940 H 356.775 -1.30396 -1.57664 0
M  V30 3941 H 356.785 -0.87452 -3.98517 0
M  V30 3942 H 355.46 -1.97939 -3.65777 0
M  V30 3943 H 354.037 -0.149192 -3.72601 0
M  V30 3944 N 356.222 1.38976 -0.743202 0
M  V30 3945 C 357.185 2.28901 -0.117014 0
M  V30 3946 C 358.185 1.46698 0.658503 0
M  V30 3947 O 359.375 1.67274 0.486305 0
M  V30 3948 C 356.507 3.30309 0.84315 0
M  V30 3949 H 357.7 2.8578 -0.909373 0
M  V30 3950 H 355.253 1.47761 -0.509547 0
M  V30 3951 H 355.988 2.785 1.66157 0
M  V30 3952 H 355.773 3.91029 0.289594 0
M  V30 3953 H 357.263 3.97577 1.2776 0
M  V30 3954 N 357.7 0.491464 1.49741 0
M  V30 3955 C 358.977 -0.118984 1.95238 0
M  V30 3956 C 359.357 -1.55044 1.43264 0
M  V30 3957 O 358.705 -2.19287 0.642287 0
M  V30 3958 C 358.915 -0.0414187 3.48975 0
M  V30 3959 C 360.263 -0.220133 4.24029 0
M  V30 3960 O 361.287 -0.117055 3.56008 0
M  V30 3961 O 360.146 -0.430567 5.44801 0
M  V30 3962 H 357.24 -0.100536 0.820866 0
M  V30 3963 H 359.786 0.553322 1.60426 0
M  V30 3964 H 358.558 0.957214 3.79412 0
M  V30 3965 H 358.181 -0.754292 3.9038 0
M  V30 3966 N 359.178 -1.55987 0.224894 0
M  V30 3967 C 360.11 -2.17722 -0.716224 0
M  V30 3968 C 361.123 -1.14723 -1.15509 0
M  V30 3969 O 362.312 -1.41688 -1.08567 0
M  V30 3970 C 359.412 -2.74873 -1.98238 0
M  V30 3971 C 358.585 -4.03074 -1.69853 0
M  V30 3972 C 357.644 -4.44757 -2.81208 0
M  V30 3973 O 356.67 -5.11587 -2.49534 0
M  V30 3974 N 357.872 -4.10716 -4.10235 0
M  V30 3975 H 360.637 -2.99109 -0.188123 0
M  V30 3976 H 358.198 -1.6184 0.0440123 0
M  V30 3977 H 360.19 -2.99727 -2.7193 0
M  V30 3978 H 358.76 -1.9777 -2.42086 0
M  V30 3979 H 357.98 -3.86041 -0.797875 0
M  V30 3980 H 359.268 -4.86701 -1.48324 0
M  V30 3981 H 358.666 -3.57019 -4.38809 0
M  V30 3982 H 357.223 -4.40455 -4.80461 0
M  V30 3983 N 360.656 0.0484629 -1.57525 0
M  V30 3984 C 362.067 0.597486 -1.76881 0
M  V30 3985 C 362.418 1.76664 -0.853475 0
M  V30 3986 O 361.543 2.16357 -0.0433656 0
M  V30 3987 C 362.138 1.09066 -3.20765 0
M  V30 3988 C 360.697 1.58535 -3.41385 0
M  V30 3989 C 359.844 0.514868 -2.72478 0
M  V30 3990 H 362.795 -0.177758 -1.57701 0
M  V30 3991 H 362.816 1.95875 -3.2621 0
M  V30 3992 H 362.328 0.239521 -3.8736 0
M  V30 3993 H 360.429 2.45898 -2.79937 0
M  V30 3994 H 360.542 1.64622 -4.49929 0
M  V30 3995 H 358.906 0.965407 -2.35695 0
M  V30 3996 H 359.689 -0.32648 -3.41744 0
M  V30 3997 N 362.134 1.5431 0.320358 0
M  V30 3998 C 363.374 1.74395 1.0661 0
M  V30 3999 C 363.738 0.508602 1.85141 0
M  V30 4000 O 364.939 0.586856 2.62316 0
M  V30 4001 C 363.21 2.98619 1.96371 0
M  V30 4002 S 364.769 3.39621 2.77854 0
M  V30 4003 H 361.587 0.613204 0.359863 0
M  V30 4004 H 364.189 1.9249 0.341727 0
M  V30 4005 H 362.893 3.86673 1.3752 0
M  V30 4006 H 362.424 2.83055 2.73209 0
M  V30 4007 H 364.439 2.95172 3.98858 0
M  V30 4008 N 363.613 -0.582584 1.46437 0
M  V30 4009 C 364.859 -1.34278 1.51978 0
M  V30 4010 C 365.192 -1.93446 0.170973 0
M  V30 4011 O 364.467 -1.76481 -0.817608 0
M  V30 4012 C 364.75 -2.47203 2.61845 0
M  V30 4013 C 364.603 -1.93069 4.06257 0
M  V30 4014 C 365.922 -3.49247 2.67795 0
M  V30 4015 H 363.041 -0.486876 0.553282 0
M  V30 4016 H 365.683 -0.654437 1.78374 0
M  V30 4017 H 363.833 -3.0592 2.39469 0
M  V30 4018 H 365.505 -1.38808 4.3992 0
M  V30 4019 H 363.748 -1.23898 4.1573 0
M  V30 4020 H 364.419 -2.74586 4.7886 0
M  V30 4021 H 366.895 -3.00411 2.8791 0
M  V30 4022 H 365.771 -4.25719 3.46489 0
M  V30 4023 H 366.032 -4.06482 1.73852 0
M  V30 4024 N 365.091 -1.34144 -0.827227 0
M  V30 4025 C 366.368 -1.16844 -1.56865 0
M  V30 4026 C 366.748 0.260654 -2.09485 0
M  V30 4027 O 366.096 1.26138 -1.9053 0
M  V30 4028 C 366.306 -2.21939 -2.6934 0
M  V30 4029 C 367.654 -2.56695 -3.3822 0
M  V30 4030 O 368.678 -2.20695 -2.79593 0
M  V30 4031 O 367.537 -3.18518 -4.44082 0
M  V30 4032 H 364.631 -0.452669 -0.692112 0
M  V30 4033 H 367.177 -1.45763 -0.868973 0
M  V30 4034 H 365.949 -3.17882 -2.28182 0
M  V30 4035 H 365.572 -1.94172 -3.46962 0
M  V30 4036 N 366.569 1.04691 -1.17803 0
M  V30 4037 C 367.815 1.78045 -0.970969 0
M  V30 4038 C 368.148 1.87686 0.498751 0
M  V30 4039 O 367.423 1.38035 1.37027 0
M  V30 4040 C 367.706 3.2166 -1.61884 0
M  V30 4041 C 367.559 3.20001 -3.161 0
M  V30 4042 C 368.878 4.1962 -1.3269 0
M  V30 4043 H 365.997 0.64633 -0.354155 0
M  V30 4044 H 368.639 1.22333 -1.45378 0
M  V30 4045 H 366.789 3.69232 -1.20831 0
M  V30 4046 H 368.461 2.80467 -3.66246 0
M  V30 4047 H 366.704 2.58203 -3.48588 0
M  V30 4048 H 367.375 4.21386 -3.56564 0
M  V30 4049 H 369.851 3.80567 -1.68249 0
M  V30 4050 H 368.727 5.18339 -1.80599 0
M  V30 4051 H 368.988 4.414 -0.248622 0
M  V30 4052 N 368.047 0.979072 1.23499 0
M  V30 4053 C 369.294 0.647219 1.91878 0
M  V30 4054 C 369.622 -0.819074 1.76413 0
M  V30 4055 O 368.877 -1.60616 1.11808 0
M  V30 4056 C 369.176 0.981932 3.43646 0
M  V30 4057 C 368.842 2.43822 3.79291 0
M  V30 4058 C 367.504 2.83622 3.88731 0
M  V30 4059 C 369.856 3.3828 3.96505 0
M  V30 4060 C 367.184 4.16897 4.12812 0
M  V30 4061 C 369.536 4.71197 4.22085 0
M  V30 4062 C 368.2 5.10758 4.29747 0
M  V30 4063 H 367.47 0.236834 0.702133 0
M  V30 4064 H 370.117 1.23268 1.46551 0
M  V30 4065 H 368.422 0.314365 3.90537 0
M  V30 4066 H 370.119 0.703395 3.94783 0
M  V30 4067 H 366.709 2.11966 3.72516 0
M  V30 4068 H 370.893 3.0871 3.88603 0
M  V30 4069 H 366.149 4.47157 4.16966 0
M  V30 4070 H 370.323 5.44348 4.34348 0
M  V30 4071 H 367.95 6.1405 4.48159 0
M  V30 4072 N 369.525 -1.3858 0.750561 0
M  V30 4073 C 370.755 -2.04175 0.31564 0
M  V30 4074 C 371.163 -1.56726 -1.05989 0
M  V30 4075 O 370.506 -0.734225 -1.68389 0
M  V30 4076 C 370.568 -3.58585 0.256389 0
M  V30 4077 C 370.232 -4.29077 1.57296 0
M  V30 4078 C 371.229 -4.54656 2.52159 0
M  V30 4079 C 368.914 -4.67324 1.84156 0
M  V30 4080 C 370.908 -5.17512 3.72103 0
M  V30 4081 C 368.595 -5.29905 3.04374 0
M  V30 4082 C 369.593 -5.54933 3.98168 0
M  V30 4083 O 369.281 -6.16212 5.16273 0
M  V30 4084 H 369.013 -0.662742 0.133226 0
M  V30 4085 H 371.567 -1.78313 1.01948 0
M  V30 4086 H 369.797 -3.83406 -0.503677 0
M  V30 4087 H 371.486 -4.05628 -0.148612 0
M  V30 4088 H 372.252 -4.25539 2.32683 0
M  V30 4089 H 368.131 -4.47191 1.11988 0
M  V30 4090 H 371.675 -5.36963 4.45327 0
M  V30 4091 H 367.572 -5.58444 3.23745 0
M  V30 4092 H 368.34 -6.34701 5.16815 0
M  V30 4093 N 371.003 -0.499398 -1.49478 0
M  V30 4094 C 371.935 0.316575 -2.27003 0
M  V30 4095 C 372.948 0.932047 -1.33479 0
M  V30 4096 O 374.137 0.815658 -1.58774 0
M  V30 4097 C 371.237 1.46055 -3.05812 0
M  V30 4098 C 370.41 0.952679 -4.26899 0
M  V30 4099 C 369.469 1.97407 -4.87767 0
M  V30 4100 O 368.495 1.54326 -5.4788 0
M  V30 4101 N 369.697 3.30436 -4.77276 0
M  V30 4102 H 372.462 -0.348168 -2.97671 0
M  V30 4103 H 370.023 -0.33185 -1.58463 0
M  V30 4104 H 372.015 2.14135 -3.43407 0
M  V30 4105 H 370.585 2.02948 -2.37762 0
M  V30 4106 H 369.805 0.0968248 -3.94081 0
M  V30 4107 H 371.093 0.59174 -5.05347 0
M  V30 4108 H 370.491 3.68126 -4.29534 0
M  V30 4109 H 369.048 3.94235 -5.19059 0
M  V30 4110 N 372.481 1.55866 -0.233164 0
M  V30 4111 C 373.444 2.1953 0.658715 0
M  V30 4112 C 374.444 1.16053 1.11303 0
M  V30 4113 O 375.634 1.41218 1.01996 0
M  V30 4114 C 372.766 2.82791 1.90373 0
M  V30 4115 H 373.959 2.99721 0.10347 0
M  V30 4116 H 371.512 1.56291 0.0164245 0
M  V30 4117 H 372.247 2.06501 2.50056 0
M  V30 4118 H 372.032 3.58578 1.58632 0
M  V30 4119 H 373.522 3.31556 2.53891 0
M  V30 4120 N 373.959 -0.0401083 1.57549 0
M  V30 4121 C 374.889 -1.04384 2.08869 0
M  V30 4122 C 375.87 -1.38407 0.988817 0
M  V30 4123 O 377.055 -1.47483 1.26342 0
M  V30 4124 C 374.185 -2.34808 2.55895 0
M  V30 4125 C 373.139 -2.15057 3.70047 0
M  V30 4126 C 372.465 -3.51145 4.03239 0
M  V30 4127 C 373.765 -1.54576 4.98902 0
M  V30 4128 H 375.459 -0.616666 2.92981 0
M  V30 4129 H 373.005 -0.295184 1.40942 0
M  V30 4130 H 374.958 -3.05346 2.90417 0
M  V30 4131 H 373.682 -2.79565 1.68853 0
M  V30 4132 H 372.341 -1.46954 3.35857 0
M  V30 4133 H 371.989 -3.93529 3.13279 0
M  V30 4134 H 371.689 -3.38758 4.80122 0
M  V30 4135 H 373.213 -4.23062 4.40285 0
M  V30 4136 H 374.627 -2.15017 5.31451 0
M  V30 4137 H 373.024 -1.52796 5.80322 0
M  V30 4138 H 374.094 -0.51039 4.82206 0
M  V30 4139 N 375.437 -1.54477 -0.31217 0
M  V30 4140 C 376.665 -1.77205 -1.068 0
M  V30 4141 C 377.08 -0.526114 -1.81321 0
M  V30 4142 O 376.437 0.503647 -1.75413 0
M  V30 4143 C 376.488 -2.97253 -2.05725 0
M  V30 4144 O 376.209 -4.1703 -1.34228 0
M  V30 4145 C 377.71 -3.32281 -2.93435 0
M  V30 4146 H 374.93 -0.591287 -0.317208 0
M  V30 4147 H 377.474 -2.01398 -0.354834 0
M  V30 4148 H 375.629 -2.753 -2.72559 0
M  V30 4149 H 376.043 -4.84636 -2.00571 0
M  V30 4150 H 377.517 -4.19551 -3.58721 0
M  V30 4151 H 377.994 -2.49945 -3.61143 0
M  V30 4152 H 378.6 -3.56353 -2.32147 0
M  V30 4153 N 376.915 0.57481 -1.46744 0
M  V30 4154 C 378.145 1.35659 -1.55821 0
M  V30 4155 C 378.553 1.88129 -0.201036 0
M  V30 4156 O 377.896 1.64723 0.813134 0
M  V30 4157 C 377.958 2.57473 -2.50894 0
M  V30 4158 C 377.622 2.26415 -3.9697 0
M  V30 4159 C 378.619 1.84771 -4.85958 0
M  V30 4160 C 376.304 2.38316 -4.42166 0
M  V30 4161 C 378.298 1.55434 -6.18158 0
M  V30 4162 C 375.985 2.08591 -5.74398 0
M  V30 4163 C 376.983 1.67216 -6.62214 0
M  V30 4164 O 376.671 1.37859 -7.91991 0
M  V30 4165 H 376.403 0.420496 -0.529301 0
M  V30 4166 H 378.957 0.704967 -1.92923 0
M  V30 4167 H 377.187 3.25468 -2.08824 0
M  V30 4168 H 378.876 3.19546 -2.50291 0
M  V30 4169 H 379.642 1.75085 -4.52295 0
M  V30 4170 H 375.521 2.69483 -3.74032 0
M  V30 4171 H 379.065 1.23065 -6.86659 0
M  V30 4172 H 374.962 2.17905 -6.07608 0
M  V30 4173 H 375.73 1.51638 -8.04331 0
M  V30 4174 N 378.394 1.34581 0.820102 0
M  V30 4175 C 379.64 1.27285 1.57881 0
M  V30 4176 C 379.973 -0.156137 1.93571 0
M  V30 4177 O 379.248 -1.10222 1.60254 0
M  V30 4178 C 379.531 2.16639 2.87645 0
M  V30 4179 C 379.384 3.68088 2.58517 0
M  V30 4180 C 380.703 2.05378 3.8924 0
M  V30 4181 H 377.822 0.463714 0.572833 0
M  V30 4182 H 380.464 1.64859 0.944539 0
M  V30 4183 H 378.614 1.84725 3.41773 0
M  V30 4184 H 380.286 4.10382 2.10676 0
M  V30 4185 H 378.529 3.89038 1.91917 0
M  V30 4186 H 379.2 4.2598 3.51063 0
M  V30 4187 H 381.676 2.33404 3.44473 0
M  V30 4188 H 380.552 2.7012 4.77835 0
M  V30 4189 H 380.813 1.0316 4.29896 0
M  V30 4190 N 379.872 -1.04064 1.18357 0
M  V30 4191 C 380.804 -2.12114 0.868358 0
M  V30 4192 C 381.817 -1.62247 -0.134045 0
M  V30 4193 O 383.006 -1.78253 0.0937933 0
M  V30 4194 C 380.106 -3.37773 0.276132 0
M  V30 4195 C 379.279 -4.16874 1.3242 0
M  V30 4196 C 378.338 -5.20861 0.747662 0
M  V30 4197 O 377.364 -5.51141 1.42239 0
M  V30 4198 N 378.566 -5.78715 -0.454823 0
M  V30 4199 H 381.331 -2.39748 1.79836 0
M  V30 4200 H 378.892 -1.20258 1.08396 0
M  V30 4201 H 380.884 -4.04513 -0.123133 0
M  V30 4202 H 379.454 -3.07581 -0.557895 0
M  V30 4203 H 378.674 -3.45456 1.89878 0
M  V30 4204 H 379.962 -4.66516 2.03078 0
M  V30 4205 H 379.36 -5.56415 -1.02073 0
M  V30 4206 H 377.917 -6.46921 -0.79601 0
M  V30 4207 N 381.35 -0.985608 -1.22978 0
M  V30 4208 C 382.575 -0.675254 -1.961 0
M  V30 4209 C 383 0.752154 -1.72407 0
M  V30 4210 O 382.358 1.5131 -0.998751 0
M  V30 4211 C 382.406 -0.977899 -3.47087 0
M  V30 4212 O 381.51 -0.072685 -4.12336 0
M  V30 4213 H 380.851 -0.253443 -0.613728 0
M  V30 4214 H 383.381 -1.32061 -1.56272 0
M  V30 4215 H 383.391 -0.916739 -3.97567 0
M  V30 4216 H 382.066 -2.01807 -3.63657 0
M  V30 4217 H 380.643 -0.188703 -3.72422 0
M  V30 4218 N 382.828 1.3818 -0.7579 0
M  V30 4219 C 383.776 2.32277 -0.122482 0
M  V30 4220 C 384.77 1.54238 0.700505 0
M  V30 4221 O 385.976 1.69737 0.599119 0
M  V30 4222 H 382.351 0.751712 -0.0208143 0
M  V30 4223 H 384.322 2.83469 -0.932099 0
M  V30 4224 C 383.071 3.39447 0.753076 0
M  V30 4225 H 382.394 3.99591 0.129184 0
M  V30 4226 H 383.834 4.07684 1.16489 0
M  V30 4227 C 382.293 2.78375 1.8976 0
M  V30 4228 O 382.823 2.68025 2.99208 0
M  V30 4229 N 381.029 2.36121 1.69397 0
M  V30 4230 H 380.576 2.4474 0.803762 0
M  V30 4231 H 380.534 1.95602 2.46145 0
M  V30 4232 N 384.306 0.507319 1.49211 0
M  V30 4233 C 385.256 -0.287112 2.26185 0
M  V30 4234 C 386.24 -0.929983 1.31302 0
M  V30 4235 O 387.432 -0.836538 1.55984 0
M  V30 4236 C 384.561 -1.34718 3.15763 0
M  V30 4237 C 383.647 -0.710235 4.18111 0
M  V30 4238 N 384.038 0.190836 5.0544 0
M  V30 4239 C 382.336 -0.97009 4.35322 0
M  V30 4240 C 383.037 0.55606 5.79036 0
M  V30 4241 N 382.013 -0.0775232 5.43545 0
M  V30 4242 H 385.815 0.406445 2.91076 0
M  V30 4243 H 383.329 0.323814 1.59139 0
M  V30 4244 H 385.326 -1.92982 3.69545 0
M  V30 4245 H 383.986 -2.04235 2.52424 0
M  V30 4246 H 384.997 0.562047 5.14841 0
M  V30 4247 H 381.674 -1.65753 3.83187 0
M  V30 4248 H 383.064 1.2936 6.5933 0
M  V30 4249 N 385.784 -1.5574 0.241426 0
M  V30 4250 C 387.2 -1.59196 -0.113548 0
M  V30 4251 C 387.4 -1.25852 -1.57364 0
M  V30 4252 O 386.456 -1.00322 -2.31715 0
M  V30 4253 C 387.769 -2.99814 0.230695 0
M  V30 4254 C 389.317 -3.12513 0.174547 0
M  V30 4255 C 389.792 -4.55342 0.492744 0
M  V30 4256 N 391.283 -4.61076 0.443043 0
M  V30 4257 C 392.018 -5.6956 0.662484 0
M  V30 4258 N 391.514 -6.86328 0.944761 0
M  V30 4259 N 393.307 -5.58957 0.593564 0
M  V30 4260 H 385.458 -1.75685 1.19368 0
M  V30 4261 H 387.721 -0.81756 0.479896 0
M  V30 4262 H 387.427 -3.28932 1.24485 0
M  V30 4263 H 387.301 -3.74568 -0.444833 0
M  V30 4264 H 389.688 -2.83179 -0.830277 0
M  V30 4265 H 389.769 -2.40045 0.883845 0
M  V30 4266 H 389.413 -4.85396 1.4951 0
M  V30 4267 H 389.343 -5.26062 -0.23797 0
M  V30 4268 H 391.834 -3.77179 0.233374 0
M  V30 4269 H 392.147 -7.64935 1.09977 0
M  V30 4270 H 390.492 -6.88025 0.982175 0
M  V30 4271 H 393.683 -4.66611 0.373123 0
M  V30 4272 H 393.856 -6.43433 0.767981 0
M  V30 4273 N 387.262 0.0317525 -1.57568 0
M  V30 4274 C 388.49 0.734949 -1.93407 0
M  V30 4275 C 388.905 1.69036 -0.84096 0
M  V30 4276 O 388.262 1.81582 0.182836 0
M  V30 4277 C 388.313 1.49432 -3.29169 0
M  V30 4278 O 388.034 0.577261 -4.3428 0
M  V30 4279 C 389.535 2.29492 -3.79273 0
M  V30 4280 H 386.755 0.206706 -0.638368 0
M  V30 4281 H 389.299 -0.00992046 -2.04498 0
M  V30 4282 H 387.454 2.1911 -3.19483 0
M  V30 4283 H 387.868 1.10952 -5.1263 0
M  V30 4284 H 389.342 2.78172 -4.76785 0
M  V30 4285 H 389.819 3.10794 -3.10328 0
M  V30 4286 H 390.425 1.64894 -3.92033 0
M  V30 4287 N 388.74 1.54641 0.303973 0
M  V30 4288 C 389.688 1.86137 1.39484 0
M  V30 4289 C 390.682 0.734854 1.52631 0
M  V30 4290 O 391.888 0.918803 1.54784 0
M  V30 4291 H 388.263 0.590324 0.465856 0
M  V30 4292 H 390.234 2.77324 1.10154 0
M  V30 4293 C 388.983 2.12274 2.75382 0
M  V30 4294 H 388.306 2.98429 2.66046 0
M  V30 4295 H 389.746 2.38254 3.5073 0
M  V30 4296 C 388.205 0.920365 3.24085 0
M  V30 4297 O 388.735 0.139377 4.01458 0
M  V30 4298 N 386.941 0.726566 2.81371 0
M  V30 4299 H 386.488 1.36332 2.18567 0
M  V30 4300 H 386.446 -0.0763799 3.14307 0
M  V30 4301 N 390.218 -0.567019 1.47046 0
M  V30 4302 C 391.181 -1.65696 1.58359 0
M  V30 4303 C 392.181 -1.54097 0.459441 0
M  V30 4304 O 393.371 -1.58432 0.724225 0
M  V30 4305 C 390.503 -3.05197 1.51879 0
M  V30 4306 H 391.696 -1.57019 2.5551 0
M  V30 4307 H 389.249 -0.786148 1.3509 0
M  V30 4308 H 389.984 -3.19417 0.560673 0
M  V30 4309 H 389.769 -3.15025 2.33455 0
M  V30 4310 H 391.259 -3.84511 1.62913 0
M  V30 4311 N 391.696 -1.35014 -0.812953 0
M  V30 4312 C 393.107 -1.25035 -1.38648 0
M  V30 4313 C 393.458 0.119967 -1.95833 0
M  V30 4314 O 392.583 1.02069 -1.90816 0
M  V30 4315 C 393.178 -2.26394 -2.52054 0
M  V30 4316 C 391.737 -2.20175 -3.05287 0
M  V30 4317 C 390.884 -2.12451 -1.78213 0
M  V30 4318 H 393.835 -1.46235 -0.616516 0
M  V30 4319 H 393.856 -1.88672 -3.30429 0
M  V30 4320 H 393.368 -3.26116 -2.10404 0
M  V30 4321 H 391.469 -1.23841 -3.51417 0
M  V30 4322 H 391.582 -3.11863 -3.63701 0
M  V30 4323 H 389.946 -1.58328 -1.9951 0
M  V30 4324 H 390.729 -3.14024 -1.38723 0
M  V30 4325 N 393.175 1.03435 -1.18907 0
M  V30 4326 C 394.422 1.76743 -0.988334 0
M  V30 4327 C 394.75 1.88447 0.481441 0
M  V30 4328 O 394.005 1.39383 1.37371 0
M  V30 4329 C 394.304 3.19792 -1.59586 0
M  V30 4330 C 393.97 3.28108 -3.09283 0
M  V30 4331 C 392.632 3.30084 -3.5014 0
M  V30 4332 C 394.984 3.27696 -4.05296 0
M  V30 4333 C 392.312 3.29299 -4.85571 0
M  V30 4334 C 394.664 3.28451 -5.4065 0
M  V30 4335 C 393.328 3.28723 -5.80946 0
M  V30 4336 H 392.598 0.64675 -0.361657 0
M  V30 4337 H 395.245 1.21442 -1.48068 0
M  V30 4338 H 393.55 3.78136 -1.02568 0
M  V30 4339 H 395.247 3.75171 -1.41589 0
M  V30 4340 H 391.837 3.27294 -2.76725 0
M  V30 4341 H 396.021 3.25354 -3.74778 0
M  V30 4342 H 391.277 3.2783 -5.16079 0
M  V30 4343 H 395.451 3.27082 -6.14809 0
M  V30 4344 H 393.078 3.27868 -6.85862 0
M  V30 4345 N 394.653 0.992116 1.22453 0
M  V30 4346 C 395.881 0.685944 1.95198 0
M  V30 4347 C 396.296 -0.749233 1.73297 0
M  V30 4348 O 395.653 -1.50549 1.03156 0
M  V30 4349 C 395.704 0.981395 3.47924 0
M  V30 4350 O 395.425 2.36018 3.6909 0
M  V30 4351 C 396.926 0.692815 4.37853 0
M  V30 4352 H 394.146 0.253821 0.621141 0
M  V30 4353 H 396.69 1.32668 1.55626 0
M  V30 4354 H 394.845 0.386481 3.85467 0
M  V30 4355 H 395.259 2.45884 4.63294 0
M  V30 4356 H 396.733 0.949818 5.43767 0
M  V30 4357 H 397.21 -0.373181 4.37612 0
M  V30 4358 H 397.816 1.26874 4.05935 0
M  V30 4359 N 396.131 -1.37776 0.765217 0
M  V30 4360 C 397.542 -1.82521 0.392819 0
M  V30 4361 C 397.893 -1.63789 -1.08017 0
M  V30 4362 O 397.018 -1.14542 -1.83601 0
M  V30 4363 C 397.613 -3.31358 0.706214 0
M  V30 4364 C 396.172 -3.74406 0.386952 0
M  V30 4365 C 395.319 -2.60394 0.953422 0
M  V30 4366 H 398.27 -1.2634 0.960412 0
M  V30 4367 H 398.291 -3.80498 -0.0114706 0
M  V30 4368 H 397.803 -3.44959 1.77833 0
M  V30 4369 H 395.904 -3.66377 -0.678112 0
M  V30 4370 H 396.017 -4.70749 0.890636 0
M  V30 4371 H 394.381 -2.51878 0.378064 0
M  V30 4372 H 395.164 -2.76791 2.03081 0
M  V30 4373 N 397.609 -0.515225 -1.4894 0
M  V30 4374 C 399.025 -0.172099 -1.58669 0
M  V30 4375 C 399.225 1.32405 -1.51892 0
M  V30 4376 O 398.281 2.10116 -1.40027 0
M  V30 4377 C 399.594 -0.761533 -2.90897 0
M  V30 4378 C 401.142 -0.728926 -3.04394 0
M  V30 4379 C 401.617 -1.29667 -4.39261 0
M  V30 4380 N 403.108 -1.25799 -4.4579 0
M  V30 4381 C 403.843 -1.66733 -5.48623 0
M  V30 4382 N 403.339 -2.15327 -6.58488 0
M  V30 4383 N 405.132 -1.58061 -5.39419 0
M  V30 4384 H 397.283 -1.48778 -1.51588 0
M  V30 4385 H 399.546 -0.617968 -0.718901 0
M  V30 4386 H 399.252 -1.81136 -3.01468 0
M  V30 4387 H 399.126 -0.230106 -3.76497 0
M  V30 4388 H 401.513 0.312098 -2.93445 0
M  V30 4389 H 401.594 -1.29766 -2.20442 0
M  V30 4390 H 401.238 -2.33655 -4.50963 0
M  V30 4391 H 401.168 -0.703752 -5.21876 0
M  V30 4392 H 403.659 -0.902102 -3.66975 0
M  V30 4393 H 403.972 -2.44594 -7.33071 0
M  V30 4394 H 402.317 -2.19311 -6.59491 0
M  V30 4395 H 405.508 -1.19906 -4.52482 0
M  V30 4396 H 405.681 -1.90284 -6.19432 0
M  V30 4397 N 399.087 1.5561 -0.249682 0
M  V30 4398 C 400.333 1.99306 0.374841 0
M  V30 4399 C 400.666 1.13767 1.57387 0
M  V30 4400 O 399.941 0.201711 1.93451 0
M  V30 4401 C 400.224 3.51507 0.781986 0
M  V30 4402 C 400.077 4.4781 -0.422629 0
M  V30 4403 C 401.396 4.08884 1.62793 0
M  V30 4404 H 398.515 0.724572 0.134773 0
M  V30 4405 H 401.157 1.86719 -0.351549 0
M  V30 4406 H 399.307 3.62363 1.4009 0
M  V30 4407 H 400.979 4.48931 -1.06108 0
M  V30 4408 H 399.222 4.20518 -1.06524 0
M  V30 4409 H 399.893 5.51919 -0.0943766 0
M  V30 4410 H 402.369 4.01147 1.10547 0
M  V30 4411 H 401.245 5.1564 1.88166 0
M  V30 4412 H 401.506 3.57515 2.60068 0
M  V30 4413 N 400.565 -0.0233959 1.57583 0
M  V30 4414 C 401.495 -1.02162 2.09965 0
M  V30 4415 C 402.476 -1.3735 1.00344 0
M  V30 4416 O 403.661 -1.46135 1.27899 0
M  V30 4417 C 400.791 -2.32081 2.58371 0
M  V30 4418 C 399.745 -2.1112 3.72307 0
M  V30 4419 C 399.071 -3.46848 4.06941 0
M  V30 4420 C 400.371 -1.49276 5.00514 0
M  V30 4421 H 402.065 -0.585557 2.93618 0
M  V30 4422 H 399.611 -0.280218 1.41247 0
M  V30 4423 H 401.564 -3.02249 2.93639 0
M  V30 4424 H 400.288 -2.77758 1.71808 0
M  V30 4425 H 398.947 -1.43384 3.37397 0
M  V30 4426 H 398.595 -3.90184 3.17436 0
M  V30 4427 H 398.295 -3.33646 4.83688 0
M  V30 4428 H 399.819 -4.18369 4.44747 0
M  V30 4429 H 401.233 -2.09368 5.33702 0
M  V30 4430 H 399.63 -1.46632 5.8191 0
M  V30 4431 H 400.7 -0.459217 4.82721 0
M  V30 4432 N 402.043 -1.548 -0.295768 0
M  V30 4433 C 402.973 -1.89115 -1.36959 0
M  V30 4434 C 403.954 -0.75059 -1.52644 0
M  V30 4435 O 405.139 -1.00678 -1.66065 0
M  V30 4436 C 402.269 -2.14307 -2.73295 0
M  V30 4437 C 401.223 -3.30151 -2.72368 0
M  V30 4438 C 400.549 -3.40772 -4.12042 0
M  V30 4439 C 401.849 -4.67126 -2.33646 0
M  V30 4440 H 403.543 -2.79053 -1.08488 0
M  V30 4441 H 401.089 -1.34266 -0.520443 0
M  V30 4442 H 403.042 -2.36898 -3.48507 0
M  V30 4443 H 401.766 -1.21145 -3.03301 0
M  V30 4444 H 400.425 -3.0749 -1.99613 0
M  V30 4445 H 400.073 -2.45117 -4.39234 0
M  V30 4446 H 399.773 -4.18645 -4.12322 0
M  V30 4447 H 401.297 -3.6563 -4.89027 0
M  V30 4448 H 402.711 -4.89414 -2.98575 0
M  V30 4449 H 401.108 -5.47751 -2.45129 0
M  V30 4450 H 402.178 -4.67489 -1.28772 0
M  V30 4451 N 403.521 0.559213 -1.47345 0
M  V30 4452 C 404.451 1.67622 -1.62558 0
M  V30 4453 C 405.432 1.63331 -0.475087 0
M  V30 4454 O 406.617 1.80983 -0.704182 0
M  V30 4455 C 403.747 3.0626 -1.63774 0
M  V30 4456 C 402.701 3.25397 -2.7803 0
M  V30 4457 C 402.027 4.64801 -2.64318 0
M  V30 4458 C 403.327 3.10965 -4.19641 0
M  V30 4459 H 405.021 1.55146 -2.56067 0
M  V30 4460 H 402.567 0.744961 -1.23233 0
M  V30 4461 H 404.52 3.84247 -1.73008 0
M  V30 4462 H 403.244 3.1969 -0.66825 0
M  V30 4463 H 401.903 2.49817 -2.68304 0
M  V30 4464 H 401.551 4.75028 -1.65401 0
M  V30 4465 H 401.251 4.78555 -3.40968 0
M  V30 4466 H 402.775 5.44926 -2.75478 0
M  V30 4467 H 404.189 3.78772 -4.30354 0
M  V30 4468 H 402.586 3.36229 -4.97062 0
M  V30 4469 H 403.656 2.07736 -4.38148 0
M  V30 4470 N 404.999 1.35443 0.805782 0
M  V30 4471 C 406.247 1.28507 1.55982 0
M  V30 4472 C 406.568 -0.140046 1.94496 0
M  V30 4473 O 405.838 -1.07666 1.63661 0
M  V30 4474 H 404.418 0.472676 0.578434 0
M  V30 4475 H 407.08 1.69555 0.961098 0
M  V30 4476 H 406.176 1.90148 2.47488 0
M  V30 4477 N 406.477 -1.02803 1.19454 0
M  V30 4478 C 407.888 -1.57667 0.999899 0
M  V30 4479 C 408.239 -1.91041 -0.446956 0
M  V30 4480 O 407.364 -1.70978 -1.32648 0
M  V30 4481 C 407.959 -2.86477 1.80877 0
M  V30 4482 C 406.518 -3.37911 1.65811 0
M  V30 4483 C 405.665 -2.11343 1.79526 0
M  V30 4484 H 408.616 -0.853214 1.33813 0
M  V30 4485 H 408.637 -3.57408 1.30536 0
M  V30 4486 H 408.149 -2.62155 2.86175 0
M  V30 4487 H 406.25 -3.67218 0.63102 0
M  V30 4488 H 406.363 -4.10885 2.46395 0
M  V30 4489 H 404.727 -2.23254 1.22596 0
M  V30 4490 H 405.51 -1.89461 2.86285 0
M  V30 4491 N 407.956 -0.998596 -1.21925 0
M  V30 4492 C 409.202 -0.678667 -1.91107 0
M  V30 4493 C 409.535 0.78791 -1.77498 0
M  V30 4494 O 408.81 1.57043 -1.1475 0
M  V30 4495 C 409.093 -1.09245 -3.43129 0
M  V30 4496 C 408.946 -2.61801 -3.6576 0
M  V30 4497 C 410.265 -0.649984 -4.35274 0
M  V30 4498 H 407.384 -0.248025 -0.694012 0
M  V30 4499 H 410.026 -1.24314 -1.43688 0
M  V30 4500 H 408.176 -0.612171 -3.83647 0
M  V30 4501 H 409.848 -3.17543 -3.34611 0
M  V30 4502 H 408.091 -3.03609 -3.09845 0
M  V30 4503 H 408.762 -2.85804 -4.7225 0
M  V30 4504 H 411.238 -1.0626 -4.02303 0
M  V30 4505 H 410.114 -0.967743 -5.40302 0
M  V30 4506 H 410.375 0.449139 -4.39813 0
M  V30 4507 N 409.434 1.37368 -0.772513 0
M  V30 4508 C 410.682 1.99279 -0.336516 0
M  V30 4509 C 411.003 1.6163 1.09091 0
M  V30 4510 O 410.273 0.882109 1.74916 0
M  V30 4511 H 408.853 0.737063 -0.121435 0
M  V30 4512 H 411.515 1.67836 -0.990809 0
M  V30 4513 H 410.611 3.09332 -0.414763 0
M  V30 4514 N 410.912 0.523116 1.48665 0
M  V30 4515 C 412.137 -0.0117284 2.07397 0
M  V30 4516 C 412.562 -1.28031 1.37803 0
M  V30 4517 O 411.92 -1.75836 0.441762 0
M  V30 4518 C 411.968 -0.225786 3.59892 0
M  V30 4519 O 411.072 -1.29592 3.91509 0
M  V30 4520 H 410.413 0.0360673 0.66302 0
M  V30 4521 H 412.943 0.729066 1.9117 0
M  V30 4522 H 412.953 -0.450552 4.05505 0
M  V30 4523 H 411.628 0.700944 4.09951 0
M  V30 4524 H 410.205 -1.05436 3.57684 0
M  V30 4525 N 412.39 -1.55475 0.257931 0
M  V30 4526 C 413.638 -1.98813 -0.363009 0
M  V30 4527 C 413.959 -1.14757 -1.57657 0
M  V30 4528 O 413.229 -0.232956 -1.9451 0
M  V30 4529 H 411.809 -0.734308 -0.137113 0
M  V30 4530 H 414.471 -1.9156 0.359281 0
M  V30 4531 H 413.567 -3.04941 -0.664634 0
M  V30 4532 N 413.868 0.0150385 -1.57593 0
M  V30 4533 C 414.815 1.01126 -2.07466 0
M  V30 4534 C 415.785 1.35064 -0.966794 0
M  V30 4535 O 416.97 1.4516 -1.23827 0
M  V30 4536 C 414.11 2.30276 -2.57035 0
M  V30 4537 C 413.223 2.02373 -3.81666 0
M  V30 4538 C 412.358 3.25496 -4.19793 0
M  V30 4539 C 411.397 2.93211 -5.37303 0
M  V30 4540 N 410.534 4.08826 -5.70794 0
M  V30 4541 H 415.374 0.57901 -2.92321 0
M  V30 4542 H 412.911 0.27426 -1.44521 0
M  V30 4543 H 414.869 3.05757 -2.83846 0
M  V30 4544 H 413.499 2.71197 -1.75077 0
M  V30 4545 H 412.551 1.17327 -3.61854 0
M  V30 4546 H 413.863 1.74567 -4.67256 0
M  V30 4547 H 413.017 4.09333 -4.47807 0
M  V30 4548 H 411.756 3.56428 -3.32882 0
M  V30 4549 H 410.761 2.07777 -5.09027 0
M  V30 4550 H 411.986 2.63542 -6.25877 0
M  V30 4551 H 409.932 4.39682 -4.86842 0
M  V30 4552 H 409.849 3.84491 -6.50924 0
M  V30 4553 H 411.117 4.93496 -6.03392 0
M  V30 4554 N 415.346 1.54954 0.287554 0
M  V30 4555 C 416.571 1.79209 1.04397 0
M  V30 4556 C 416.996 0.556431 1.79682 0
M  V30 4557 O 416.354 -0.493518 1.74454 0
M  V30 4558 C 416.402 3.00739 1.98969 0
M  V30 4559 O 415.506 2.74805 3.075 0
M  V30 4560 H 414.847 0.592755 0.299227 0
M  V30 4561 H 417.377 2.02068 0.320886 0
M  V30 4562 H 417.387 3.29077 2.4119 0
M  V30 4563 H 416.062 3.90329 1.43582 0
M  V30 4564 H 414.639 2.57523 2.69697 0
M  V30 4565 N 416.824 -0.551391 1.4764 0
M  V30 4566 C 417.754 -1.66757 1.63445 0
M  V30 4567 C 418.735 -1.63077 0.483742 0
M  V30 4568 O 419.92 -1.80607 0.71377 0
M  V30 4569 C 417.05 -3.05387 1.65396 0
M  V30 4570 C 416.004 -3.23918 2.79752 0
M  V30 4571 C 415.33 -4.63393 2.66779 0
M  V30 4572 C 416.63 -3.08735 4.21284 0
M  V30 4573 H 418.324 -1.53786 2.56886 0
M  V30 4574 H 415.87 -0.738415 1.23626 0
M  V30 4575 H 417.823 -3.83325 1.75043 0
M  V30 4576 H 416.547 -3.19332 0.685195 0
M  V30 4577 H 415.206 -2.48391 2.69625 0
M  V30 4578 H 414.854 -4.74144 1.67918 0
M  V30 4579 H 414.554 -4.7674 3.43501 0
M  V30 4580 H 416.078 -5.43458 2.78364 0
M  V30 4581 H 417.492 -3.76484 4.32357 0
M  V30 4582 H 415.889 -3.33588 4.98838 0
M  V30 4583 H 416.959 -2.0541 4.39243 0
M  V30 4584 N 418.302 -1.35869 -0.798587 0
M  V30 4585 C 419.234 -1.25305 -1.91915 0
M  V30 4586 C 420.247 -0.174548 -1.61862 0
M  V30 4587 O 421.436 -0.428499 -1.73281 0
M  V30 4588 C 418.536 -0.9086 -3.26493 0
M  V30 4589 C 417.709 -2.08711 -3.84394 0
M  V30 4590 C 416.768 -1.71717 -4.97393 0
M  V30 4591 O 415.794 -2.43692 -5.14396 0
M  V30 4592 N 416.996 -0.645473 -5.769 0
M  V30 4593 H 419.761 -2.21849 -2.01502 0
M  V30 4594 H 417.322 -1.29143 -0.976408 0
M  V30 4595 H 419.314 -0.642455 -3.99568 0
M  V30 4596 H 417.884 -0.0325815 -3.12583 0
M  V30 4597 H 417.104 -2.51659 -3.03416 0
M  V30 4598 H 418.392 -2.87468 -4.19809 0
M  V30 4599 H 417.79 -0.047648 -5.6568 0
M  V30 4600 H 416.347 -0.43913 -6.50319 0
M  V30 4601 N 419.78 1.02168 -1.19998 0
M  V30 4602 C 420.743 2.08765 -0.94604 0
M  V30 4603 C 421.743 1.60618 0.0763846 0
M  V30 4604 O 422.933 1.73472 -0.159135 0
M  V30 4605 C 420.065 3.38262 -0.423255 0
M  V30 4606 H 421.258 2.32726 -1.89153 0
M  V30 4607 H 418.811 1.1889 -1.01464 0
M  V30 4608 H 419.546 3.19974 0.527938 0
M  V30 4609 H 419.331 3.74532 -1.16053 0
M  V30 4610 H 420.821 4.16759 -0.264911 0
M  V30 4611 N 421.258 1.00505 1.21394 0
M  V30 4612 C 422.221 0.570459 2.21987 0
M  V30 4613 C 423.221 -0.353211 1.56873 0
M  V30 4614 O 424.411 -0.14349 1.73608 0
M  V30 4615 C 421.543 -0.168555 3.40483 0
M  V30 4616 H 422.736 1.46021 2.6195 0
M  V30 4617 H 420.289 0.793565 1.34656 0
M  V30 4618 H 421.024 -1.07374 3.06009 0
M  V30 4619 H 420.809 0.494823 3.88965 0
M  V30 4620 H 422.299 -0.460362 4.15055 0
M  V30 4621 N 422.737 -1.36956 0.779787 0
M  V30 4622 C 423.667 -2.32761 0.185651 0
M  V30 4623 C 424.648 -1.56177 -0.673989 0
M  V30 4624 O 425.833 -1.84378 -0.609797 0
M  V30 4625 C 422.963 -3.40418 -0.687964 0
M  V30 4626 C 421.917 -4.27941 0.0710102 0
M  V30 4627 C 421.243 -5.26681 -0.922573 0
M  V30 4628 C 422.543 -5.07006 1.25467 0
M  V30 4629 H 424.237 -2.82698 0.986008 0
M  V30 4630 H 421.783 -1.3592 0.475592 0
M  V30 4631 H 423.736 -4.06423 -1.11348 0
M  V30 4632 H 422.46 -2.89025 -1.52093 0
M  V30 4633 H 421.119 -3.63478 0.47739 0
M  V30 4634 H 420.767 -4.71565 -1.7503 0
M  V30 4635 H 420.467 -5.86103 -0.419237 0
M  V30 4636 H 421.991 -5.9556 -1.34686 0
M  V30 4637 H 423.405 -5.66105 0.905401 0
M  V30 4638 H 421.802 -5.75793 1.69063 0
M  V30 4639 H 422.872 -4.3921 2.05481 0
M  V30 4640 N 424.215 -0.530993 -1.48385 0
M  V30 4641 C 425.145 0.219985 -2.32461 0
M  V30 4642 C 426.126 0.934111 -1.42156 0
M  V30 4643 O 427.311 0.919694 -1.71042 0
M  V30 4644 C 424.441 1.26674 -3.23375 0
M  V30 4645 C 423.395 0.67069 -4.22712 0
M  V30 4646 C 422.721 1.82017 -5.02766 0
M  V30 4647 C 424.021 -0.358268 -5.2107 0
M  V30 4648 H 425.715 -0.48187 -2.95497 0
M  V30 4649 H 423.261 -0.233182 -1.42099 0
M  V30 4650 H 425.214 1.80006 -3.81019 0
M  V30 4651 H 423.938 1.99818 -2.58341 0
M  V30 4652 H 422.597 0.158878 -3.66256 0
M  V30 4653 H 422.245 2.54002 -4.34157 0
M  V30 4654 H 421.945 1.42727 -5.70003 0
M  V30 4655 H 423.469 2.35725 -5.63264 0
M  V30 4656 H 424.883 0.0880081 -5.73232 0
M  V30 4657 H 423.28 -0.66861 -5.96364 0
M  V30 4658 H 424.35 -1.26367 -4.68145 0
M  V30 4659 N 425.693 1.55336 -0.266172 0
M  V30 4660 C 426.656 2.20878 0.612001 0
M  V30 4661 C 427.656 1.18388 1.08816 0
M  V30 4662 O 428.846 1.4335 0.989774 0
M  V30 4663 C 425.978 2.86765 1.84332 0
M  V30 4664 H 427.171 2.99873 0.0398718 0
M  V30 4665 H 424.724 1.56291 -0.0167309 0
M  V30 4666 H 425.459 2.11759 2.45619 0
M  V30 4667 H 425.244 3.61862 1.5099 0
M  V30 4668 H 426.734 3.36867 2.46801 0
M  V30 4669 N 427.171 -0.0066808 1.57599 0
M  V30 4670 C 428.103 -1.02827 2.04839 0
M  V30 4671 C 429.116 -1.31108 0.965113 0
M  V30 4672 O 430.305 -1.28202 1.24203 0
M  V30 4673 C 427.405 -2.36464 2.42771 0
M  V30 4674 C 426.578 -2.27219 3.73751 0
M  V30 4675 C 425.637 -3.43489 3.98625 0
M  V30 4676 O 424.663 -3.21976 4.69382 0
M  V30 4677 N 425.865 -4.66116 3.46 0
M  V30 4678 H 428.63 -0.625455 2.93101 0
M  V30 4679 H 426.191 -0.194198 1.60731 0
M  V30 4680 H 428.183 -3.13008 2.56531 0
M  V30 4681 H 426.753 -2.68512 1.60063 0
M  V30 4682 H 425.973 -1.35629 3.70133 0
M  V30 4683 H 427.261 -2.18208 4.59633 0
M  V30 4684 H 426.659 -4.86493 2.88688 0
M  V30 4685 H 425.216 -5.39949 3.65101 0
M  V30 4686 N 428.649 -1.55105 -0.279332 0
M  V30 4687 C 429.596 -1.8755 -1.34513 0
M  V30 4688 C 430.566 -0.726384 -1.49375 0
M  V30 4689 O 431.751 -0.977063 -1.63884 0
M  V30 4690 C 428.891 -2.14738 -2.70151 0
M  V30 4691 C 428.004 -3.42285 -2.63562 0
M  V30 4692 C 427.139 -3.59206 -3.91337 0
M  V30 4693 C 426.178 -4.80467 -3.79233 0
M  V30 4694 N 425.315 -4.94079 -4.98829 0
M  V30 4695 H 430.155 -2.78456 -1.06143 0
M  V30 4696 H 427.692 -1.37867 -0.512936 0
M  V30 4697 H 429.65 -2.28501 -3.49061 0
M  V30 4698 H 428.28 -1.27075 -2.96735 0
M  V30 4699 H 427.332 -3.37029 -1.76397 0
M  V30 4700 H 428.644 -4.31328 -2.50515 0
M  V30 4701 H 427.798 -3.72751 -4.78687 0
M  V30 4702 H 426.537 -2.68337 -4.07243 0
M  V30 4703 H 425.542 -4.66932 -2.90266 0
M  V30 4704 H 426.767 -5.72765 -3.64852 0
M  V30 4705 H 424.713 -4.06139 -5.15158 0
M  V30 4706 H 424.63 -5.77156 -4.8829 0
M  V30 4707 H 425.898 -5.12003 -5.8777 0
M  V30 4708 N 430.127 0.543554 -1.4793 0
M  V30 4709 C 431.357 1.32324 -1.58663 0
M  V30 4710 C 431.765 1.8766 -0.240896 0
M  V30 4711 O 431.108 1.66411 0.778011 0
M  V30 4712 C 431.17 2.52094 -2.56299 0
M  V30 4713 C 430.834 2.17944 -4.01683 0
M  V30 4714 C 431.831 1.74422 -4.89768 0
M  V30 4715 C 429.516 2.28884 -4.47121 0
M  V30 4716 C 431.51 1.42287 -6.21316 0
M  V30 4717 C 429.197 1.96361 -5.78693 0
M  V30 4718 C 430.195 1.53132 -6.65612 0
M  V30 4719 O 429.883 1.21029 -7.94737 0
M  V30 4720 H 429.615 0.409174 -0.538101 0
M  V30 4721 H 432.169 0.663887 -1.94375 0
M  V30 4722 H 430.399 3.20965 -2.15681 0
M  V30 4723 H 432.088 3.14165 -2.57012 0
M  V30 4724 H 432.854 1.65452 -4.55907 0
M  V30 4725 H 428.733 2.61488 -3.79664 0
M  V30 4726 H 432.277 1.08472 -6.89115 0
M  V30 4727 H 428.174 2.04967 -6.12094 0
M  V30 4728 H 428.942 1.34543 -8.07366 0
M  V30 4729 N 431.605 1.3629 0.791371 0
M  V30 4730 C 433.021 1.16661 1.08914 0
M  V30 4731 C 433.221 -0.0106266 2.01497 0
M  V30 4732 O 432.277 -0.676596 2.43266 0
M  V30 4733 C 433.59 2.47656 1.70549 0
M  V30 4734 C 435.138 2.54002 1.82899 0
M  V30 4735 C 435.613 3.85078 2.47949 0
M  V30 4736 N 437.104 3.86413 2.5542 0
M  V30 4737 C 437.839 4.84572 3.06557 0
M  V30 4738 N 437.335 5.93124 3.58016 0
M  V30 4739 N 439.128 4.71994 3.05251 0
M  V30 4740 H 431.279 2.11668 0.176238 0
M  V30 4741 H 433.542 0.937486 0.140796 0
M  V30 4742 H 433.248 3.34059 1.09989 0
M  V30 4743 H 433.122 2.63319 2.70079 0
M  V30 4744 H 435.509 1.68018 2.42598 0
M  V30 4745 H 435.59 2.42239 0.821808 0
M  V30 4746 H 435.234 4.71467 1.88895 0
M  V30 4747 H 435.164 3.94135 3.49235 0
M  V30 4748 H 437.655 3.07988 2.18979 0
M  V30 4749 H 437.968 6.63999 3.95381 0
M  V30 4750 H 436.313 5.96796 3.56173 0
M  V30 4751 H 439.504 3.86321 2.64336 0
M  V30 4752 H 439.677 5.48653 3.44796 0
M  V30 4753 N 433.083 -1.0153 1.20538 0
M  V30 4754 C 434.013 -2.11972 0.979295 0
M  V30 4755 C 434.994 -1.6985 -0.0921787 0
M  V30 4756 O 436.179 -1.94089 0.0655932 0
M  V30 4757 C 433.309 -3.43201 0.531984 0
M  V30 4758 C 432.263 -3.9907 1.54685 0
M  V30 4759 C 431.589 -5.26082 0.956127 0
M  V30 4760 C 432.889 -4.32313 2.93092 0
M  V30 4761 H 434.583 -2.31143 1.90298 0
M  V30 4762 H 432.129 -1.11079 0.916372 0
M  V30 4763 H 434.082 -4.1985 0.361044 0
M  V30 4764 H 432.806 -3.23792 -0.427327 0
M  V30 4765 H 431.465 -3.2453 1.70517 0
M  V30 4766 H 431.113 -5.02999 -0.0111538 0
M  V30 4767 H 430.813 -5.64426 1.63393 0
M  V30 4768 H 432.337 -6.05386 0.796284 0
M  V30 4769 H 433.751 -4.99845 2.80763 0
M  V30 4770 H 432.148 -4.81774 3.57791 0
M  V30 4771 H 433.218 -3.41025 3.44717 0
M  V30 4772 N 434.561 -1.01147 -1.20859 0
M  V30 4773 C 435.807 -0.698899 -1.90377 0
M  V30 4774 C 436.14 0.76904 -1.78324 0
M  V30 4775 O 435.415 1.55817 -1.16409 0
M  V30 4776 C 435.698 -1.12878 -3.41951 0
M  V30 4777 C 435.551 -2.65665 -3.62963 0
M  V30 4778 C 436.87 -0.696114 -4.3456 0
M  V30 4779 H 433.989 -0.255372 -0.691342 0
M  V30 4780 H 436.631 -1.25831 -1.42361 0
M  V30 4781 H 434.781 -0.652827 -3.82976 0
M  V30 4782 H 436.453 -3.21074 -3.31224 0
M  V30 4783 H 434.696 -3.06878 -3.06608 0
M  V30 4784 H 435.367 -2.90797 -4.69192 0
M  V30 4785 H 437.843 -1.10521 -4.01154 0
M  V30 4786 H 436.719 -1.025 -5.39245 0
M  V30 4787 H 436.98 0.402465 -4.40264 0
M  V30 4788 N 436.039 1.36541 -0.78704 0
M  V30 4789 C 436.987 2.31965 -0.171724 0
M  V30 4790 C 437.981 1.55689 0.667631 0
M  V30 4791 O 439.187 1.70969 0.562981 0
M  V30 4792 H 435.562 0.751101 -0.0367545 0
M  V30 4793 H 437.533 2.81428 -0.992017 0
M  V30 4794 C 436.282 3.40968 0.680904 0
M  V30 4795 H 435.605 3.99775 0.0443961 0
M  V30 4796 H 437.045 4.10063 1.07815 0
M  V30 4797 C 435.504 2.82338 1.83813 0
M  V30 4798 O 436.034 2.74311 2.93456 0
M  V30 4799 N 434.24 2.39661 1.6435 0
M  V30 4800 H 433.787 2.46389 0.751668 0
M  V30 4801 H 433.745 2.00779 2.4194 0
M  V30 4802 N 437.518 0.538854 1.48102 0
M  V30 4803 C 438.764 0.00801365 2.02798 0
M  V30 4804 C 439.097 -1.3309 1.41424 0
M  V30 4805 O 438.372 -1.86169 0.563158 0
M  V30 4806 C 438.655 -0.104589 3.59948 0
M  V30 4807 C 438.508 1.26012 4.31788 0
M  V30 4808 C 439.827 -0.827055 4.32259 0
M  V30 4809 H 436.946 0.00438624 0.736987 0
M  V30 4810 H 439.588 0.6976 1.7673 0
M  V30 4811 H 437.738 -0.691893 3.82289 0
M  V30 4812 H 439.41 1.88922 4.2084 0
M  V30 4813 H 437.653 1.83968 3.92859 0
M  V30 4814 H 438.324 1.13424 5.40221 0
M  V30 4815 H 440.8 -0.328578 4.14801 0
M  V30 4816 H 439.676 -0.87476 5.41885 0
M  V30 4817 H 439.937 -1.87927 4.0017 0
M  V30 4818 N 438.996 -1.55193 0.274407 0
M  V30 4819 C 440.236 -2.01488 -0.343778 0
M  V30 4820 C 440.6 -1.1586 -1.53103 0
M  V30 4821 O 441.801 -1.51732 -2.2188 0
M  V30 4822 C 440.072 -3.50134 -0.717021 0
M  V30 4823 S 441.631 -4.18417 -1.32184 0
M  V30 4824 H 438.449 -0.70291 -0.106948 0
M  V30 4825 H 441.051 -1.91446 0.396075 0
M  V30 4826 H 439.755 -4.10104 0.155947 0
M  V30 4827 H 439.286 -3.64159 -1.48835 0
M  V30 4828 H 441.301 -4.21984 -2.61044 0
M  V30 4829 N 440.474 -0.00167713 -1.576 0
M  V30 4830 C 441.714 0.687302 -1.92498 0
M  V30 4831 C 442.078 1.70844 -0.876144 0
M  V30 4832 O 443.279 2.44792 -1.11043 0
M  V30 4833 C 441.55 1.31217 -3.32441 0
M  V30 4834 S 443.109 2.02604 -3.89226 0
M  V30 4835 H 439.927 0.226985 -0.673794 0
M  V30 4836 H 442.529 -0.0587666 -1.95412 0
M  V30 4837 H 441.233 0.556164 -4.06614 0
M  V30 4838 H 440.764 2.09613 -3.32905 0
M  V30 4839 H 442.779 3.30137 -3.70438 0
M  V30 4840 N 441.952 1.55251 0.271103 0
M  V30 4841 C 443.2 1.75599 1.00047 0
M  V30 4842 C 443.521 0.561188 1.8675 0
M  V30 4843 O 442.791 -0.423846 1.9126 0
M  V30 4844 H 441.371 0.647562 0.372387 0
M  V30 4845 H 444.033 1.92656 0.294876 0
M  V30 4846 H 443.129 2.65766 1.6363 0
M  V30 4847 N 443.43 -0.535701 1.48216 0
M  V30 4848 C 444.362 -1.65662 1.58394 0
M  V30 4849 C 445.375 -1.5591 0.468607 0
M  V30 4850 O 446.564 -1.62475 0.7392 0
M  V30 4851 C 443.664 -3.04276 1.4923 0
M  V30 4852 C 442.837 -3.39567 2.75705 0
M  V30 4853 C 441.896 -4.57436 2.60075 0
M  V30 4854 O 440.922 -4.60942 3.33948 0
M  V30 4855 N 442.124 -5.55259 1.69315 0
M  V30 4856 H 444.889 -1.5737 2.55058 0
M  V30 4857 H 442.45 -0.722845 1.44867 0
M  V30 4858 H 444.442 -3.80994 1.36477 0
M  V30 4859 H 443.012 -3.06677 0.605632 0
M  V30 4860 H 442.232 -2.52083 3.03064 0
M  V30 4861 H 443.52 -3.59929 3.59623 0
M  V30 4862 H 442.918 -5.552 1.08489 0
M  V30 4863 H 441.475 -6.31218 1.62504 0
M  V30 4864 N 444.908 -1.36708 -0.784132 0
M  V30 4865 C 445.838 -1.34153 -1.91116 0
M  V30 4866 C 446.819 -0.212121 -1.68772 0
M  V30 4867 O 448.004 -0.410581 -1.8981 0
M  V30 4868 C 445.134 -1.13535 -3.28218 0
M  V30 4869 C 444.088 -2.23356 -3.65097 0
M  V30 4870 C 443.414 -1.87875 -5.00607 0
M  V30 4871 C 444.714 -3.65473 -3.73131 0
M  V30 4872 H 446.408 -2.28459 -1.93512 0
M  V30 4873 H 443.954 -1.09973 -0.929618 0
M  V30 4874 H 445.907 -1.10381 -4.06687 0
M  V30 4875 H 444.631 -0.156804 -3.26223 0
M  V30 4876 H 443.29 -2.25645 -2.88929 0
M  V30 4877 H 442.938 -0.885814 -4.95139 0
M  V30 4878 H 442.638 -2.61406 -5.26252 0
M  V30 4879 H 444.162 -1.86286 -5.81489 0
M  V30 4880 H 445.576 -3.65382 -4.41779 0
M  V30 4881 H 443.973 -4.37953 -4.10265 0
M  V30 4882 H 445.043 -3.99995 -2.74102 0
M  V30 4883 N 446.386 1.0089 -1.21074 0
M  V30 4884 C 447.316 2.1145 -0.990523 0
M  V30 4885 C 448.297 1.69897 0.0831699 0
M  V30 4886 O 449.482 1.94052 -0.0758853 0
M  V30 4887 C 446.612 3.42914 -0.550177 0
M  V30 4888 C 445.566 3.98244 -1.56799 0
M  V30 4889 C 444.892 5.25568 -0.984013 0
M  V30 4890 C 446.192 4.30752 -2.95381 0
M  V30 4891 H 447.886 2.3013 -1.91521 0
M  V30 4892 H 445.432 1.10592 -0.92225 0
M  V30 4893 H 447.385 4.19653 -0.383305 0
M  V30 4894 H 446.109 3.24014 0.41015 0
M  V30 4895 H 444.768 3.23621 -1.72236 0
M  V30 4896 H 444.416 5.02998 -0.0155216 0
M  V30 4897 H 444.116 5.63551 -1.66384 0
M  V30 4898 H 445.64 6.04955 -0.828378 0
M  V30 4899 H 447.054 4.98349 -2.8341 0
M  V30 4900 H 445.451 4.79869 -3.60341 0
M  V30 4901 H 446.521 3.39192 -3.46521 0
M  V30 4902 N 447.864 1.01787 1.20321 0
M  V30 4903 C 448.811 0.589197 2.23153 0
M  V30 4904 C 449.781 -0.391367 1.61423 0
M  V30 4905 O 450.966 -0.290518 1.88575 0
M  V30 4906 C 448.106 -0.0650747 3.45039 0
M  V30 4907 C 447.219 0.960207 4.21194 0
M  V30 4908 C 446.354 0.276854 5.30478 0
M  V30 4909 C 445.393 1.2888 5.98378 0
M  V30 4910 N 444.53 0.632031 6.99249 0
M  V30 4911 H 449.37 1.47071 2.59179 0
M  V30 4912 H 446.907 0.736192 1.27352 0
M  V30 4913 H 448.865 -0.461552 4.14639 0
M  V30 4914 H 447.495 -0.910233 3.09701 0
M  V30 4915 H 446.547 1.47484 3.50646 0
M  V30 4916 H 447.859 1.72977 4.67847 0
M  V30 4917 H 447.013 -0.175056 6.06447 0
M  V30 4918 H 445.752 -0.525004 4.84866 0
M  V30 4919 H 444.757 1.75109 5.21169 0
M  V30 4920 H 445.982 2.09196 6.46076 0
M  V30 4921 H 443.928 -0.149935 6.55829 0
M  V30 4922 H 443.845 1.33964 7.44036 0
M  V30 4923 H 445.113 0.203755 7.79234 0
M  V30 4924 N 449.342 -1.36122 0.79427 0
M  V30 4925 C 450.252 -2.33769 0.197296 0
M  V30 4926 C 451.268 -1.61276 -0.653153 0
M  V30 4927 O 452.444 -1.9323 -0.5678 0
M  V30 4928 C 449.509 -3.40474 -0.654098 0
M  V30 4929 C 448.57 -4.28759 0.215411 0
M  V30 4930 C 447.803 -5.30368 -0.595443 0
M  V30 4931 O 448.026 -5.40211 -1.83107 0
M  V30 4932 O 446.96 -6.019 0.00721351 0
M  V30 4933 H 450.786 -2.86597 1.00478 0
M  V30 4934 H 448.371 -1.38676 0.555818 0
M  V30 4935 H 450.253 -4.05703 -1.13944 0
M  V30 4936 H 448.928 -2.89937 -1.43938 0
M  V30 4937 H 447.835 -3.66554 0.747615 0
M  V30 4938 H 449.168 -4.82661 0.964332 0
M  V30 4939 N 450.82 -0.546701 -1.47814 0
M  V30 4940 C 451.783 0.196287 -2.28358 0
M  V30 4941 C 452.783 0.852437 -1.36346 0
M  V30 4942 O 453.973 0.709913 -1.59078 0
M  V30 4943 C 451.105 1.28579 -3.15722 0
M  V30 4944 H 452.298 -0.511086 -2.95513 0
M  V30 4945 H 449.851 -0.303248 -1.5333 0
M  V30 4946 H 450.586 2.0259 -2.53235 0
M  V30 4947 H 450.371 0.820229 -3.83425 0
M  V30 4948 H 451.861 1.80793 -3.76435 0
M  V30 4949 N 452.299 1.55045 -0.282633 0
M  V30 4950 C 453.545 2.00056 0.332481 0
M  V30 4951 C 453.878 1.1708 1.54939 0
M  V30 4952 O 453.153 0.2427 1.9298 0
M  V30 4953 C 453.436 3.53086 0.70725 0
M  V30 4954 C 453.289 4.46813 -0.517521 0
M  V30 4955 C 454.608 4.12245 1.54084 0
M  V30 4956 H 451.727 0.727268 0.119373 0
M  V30 4957 H 454.369 1.85932 -0.391076 0
M  V30 4958 H 452.519 3.65253 1.32372 0
M  V30 4959 H 454.191 4.46579 -1.15607 0
M  V30 4960 H 452.434 4.18163 -1.1542 0
M  V30 4961 H 453.105 5.51595 -0.211426 0
M  V30 4962 H 455.581 4.03401 1.02013 0
M  V30 4963 H 454.457 5.19515 1.77186 0
M  V30 4964 H 454.718 3.62951 2.52427 0
M  V30 4965 N 453.777 0.010035 1.57597 0
M  V30 4966 C 454.74 -0.963029 2.07986 0
M  V30 4967 C 455.74 -1.26619 0.991173 0
M  V30 4968 O 456.93 -1.2097 1.25347 0
M  V30 4969 C 454.062 -2.2851 2.52974 0
M  V30 4970 H 455.255 -0.526971 2.95234 0
M  V30 4971 H 452.808 -0.237639 1.54483 0
M  V30 4972 H 453.543 -2.76784 1.69 0
M  V30 4973 H 453.328 -2.07824 3.32493 0
M  V30 4974 H 454.818 -2.98294 2.9225 0
M  V30 4975 N 455.255 -1.55392 -0.262866 0
M  V30 4976 C 456.532 -1.67204 -1.01499 0
M  V30 4977 C 456.912 -0.545186 -2.03939 0
M  V30 4978 O 456.26 0.453467 -2.23955 0
M  V30 4979 C 456.47 -3.06847 -1.6627 0
M  V30 4980 C 457.818 -3.64928 -2.17054 0
M  V30 4981 O 458.842 -3.09545 -1.76239 0
M  V30 4982 O 457.701 -4.61984 -2.91947 0
M  V30 4983 H 454.795 -0.679467 -0.471438 0
M  V30 4984 H 457.341 -1.67729 -0.257918 0
M  V30 4985 H 456.113 -3.80309 -0.920915 0
M  V30 4986 H 455.736 -3.10266 -2.48638 0
M  V30 4987 N 456.733 0.527833 -1.48498 0
M  V30 4988 C 458.149 0.856571 -1.34666 0
M  V30 4989 C 458.349 1.98271 -0.35931 0
M  V30 4990 O 457.405 2.51551 0.218703 0
M  V30 4991 C 458.718 1.22207 -2.74747 0
M  V30 4992 C 460.266 1.33183 -2.83251 0
M  V30 4993 C 460.741 1.73075 -4.24039 0
M  V30 4994 N 462.232 1.80174 -4.26722 0
M  V30 4995 C 462.967 2.1243 -5.32598 0
M  V30 4996 N 462.463 2.43096 -6.4875 0
M  V30 4997 N 464.256 2.13454 -5.19994 0
M  V30 4998 H 456.407 -0.215174 -2.11307 0
M  V30 4999 H 458.67 -0.0336281 -0.947403 0
M  V30 5000 H 458.376 0.468195 -3.4857 0
M  V30 5001 H 458.25 2.17173 -3.08409 0
M  V30 5002 H 460.637 2.07647 -2.09683 0
M  V30 5003 H 460.718 0.363333 -2.53206 0
M  V30 5004 H 460.362 0.991712 -4.98124 0
M  V30 5005 H 460.292 2.70979 -4.51529 0
M  V30 5006 H 462.783 1.58744 -3.42942 0
M  V30 5007 H 463.096 2.6682 -7.25277 0
M  V30 5008 H 461.441 2.40611 -6.52021 0
M  V30 5009 H 464.632 1.88956 -4.28268 0
M  V30 5010 H 464.805 2.38261 -6.02608 0
M  V30 5011 N 458.211 1.37122 0.776871 0
M  V30 5012 C 459.439 1.3523 1.5659 0
M  V30 5013 C 459.854 -0.0635518 1.88693 0
M  V30 5014 O 459.211 -1.02394 1.51069 0
M  V30 5015 C 459.262 2.18583 2.8793 0
M  V30 5016 O 458.983 3.5465 2.57206 0
M  V30 5017 C 460.484 2.24612 3.82183 0
M  V30 5018 H 457.704 0.4634 0.485285 0
M  V30 5019 H 460.248 1.80392 0.963266 0
M  V30 5020 H 458.403 1.76943 3.4463 0
M  V30 5021 H 458.817 3.98286 3.41275 0
M  V30 5022 H 460.291 2.87267 4.71361 0
M  V30 5023 H 460.768 1.25309 4.20944 0
M  V30 5024 H 461.374 2.66543 3.31414 0
M  V30 5025 N 459.689 -1.00246 1.21608 0
M  V30 5026 C 460.917 -1.77631 1.06089 0
M  V30 5027 C 461.332 -1.84746 -0.38916 0
M  V30 5028 O 460.689 -1.31068 -1.26994 0
M  V30 5029 C 460.74 -3.21415 1.65453 0
M  V30 5030 O 460.461 -3.14703 3.04785 0
M  V30 5031 C 461.962 -4.15289 1.55079 0
M  V30 5032 H 459.182 -0.558162 0.37242 0
M  V30 5033 H 461.726 -1.26093 1.60999 0
M  V30 5034 H 459.881 -3.70053 1.14629 0
M  V30 5035 H 460.295 -4.05056 3.33212 0
M  V30 5036 H 461.769 -5.13965 2.01355 0
M  V30 5037 H 462.246 -4.36279 0.505665 0
M  V30 5038 H 462.852 -3.72543 2.05163 0
M  V30 5039 N 461.167 -1.02423 -1.1978 0
M  V30 5040 C 462.414 -0.717988 -1.89344 0
M  V30 5041 C 462.742 0.753036 -1.79331 0
M  V30 5042 O 461.997 1.56355 -1.17692 0
M  V30 5043 C 462.296 -1.1088 -3.39765 0
M  V30 5044 C 461.962 -2.57731 -3.6998 0
M  V30 5045 C 460.624 -2.97854 -3.77937 0
M  V30 5046 C 462.976 -3.52763 -3.83677 0
M  V30 5047 C 460.304 -4.31931 -3.97054 0
M  V30 5048 C 462.656 -4.86538 -4.04306 0
M  V30 5049 C 461.32 -5.26356 -4.10494 0
M  V30 5050 H 460.59 -0.26273 -0.692859 0
M  V30 5051 H 463.237 -1.28623 -1.41875 0
M  V30 5052 H 461.542 -0.459094 -3.89101 0
M  V30 5053 H 463.239 -0.849432 -3.919 0
M  V30 5054 H 459.829 -2.25646 -3.64393 0
M  V30 5055 H 464.013 -3.2292 -3.76877 0
M  V30 5056 H 459.269 -4.62324 -4.00083 0
M  V30 5057 H 463.443 -5.60093 -4.13846 0
M  V30 5058 H 461.07 -6.3026 -4.2506 0
M  V30 5059 N 462.645 1.35699 -0.801477 0
M  V30 5060 C 463.893 1.9852 -0.37871 0
M  V30 5061 C 464.214 1.63907 1.05638 0
M  V30 5062 O 463.484 0.919013 1.73006 0
M  V30 5063 H 462.064 0.734322 -0.137042 0
M  V30 5064 H 464.726 1.65697 -1.02619 0
M  V30 5065 H 463.822 3.08382 -0.480284 0
M  V30 5066 N 464.123 0.554532 1.47522 0
M  V30 5067 C 465.033 -0.197865 2.33764 0
M  V30 5068 C 466.049 -0.914576 1.48025 0
M  V30 5069 O 467.225 -0.884067 1.80959 0
M  V30 5070 C 464.29 -1.21628 3.24665 0
M  V30 5071 C 463.351 -0.507283 4.26292 0
M  V30 5072 C 462.584 -1.47718 5.1285 0
M  V30 5073 O 462.807 -2.7118 5.01814 0
M  V30 5074 O 461.741 -1.00313 5.93482 0
M  V30 5075 H 465.567 0.50949 2.99396 0
M  V30 5076 H 463.152 0.315176 1.46038 0
M  V30 5077 H 465.034 -1.80421 3.80823 0
M  V30 5078 H 463.709 -1.9056 2.61665 0
M  V30 5079 H 462.616 0.121778 3.73902 0
M  V30 5080 H 463.949 0.140544 4.91999 0
M  V30 5081 N 465.601 -1.54893 0.290851 0
M  V30 5082 C 466.531 -2.26103 -0.583084 0
M  V30 5083 C 467.512 -1.25684 -1.14619 0
M  V30 5084 O 468.697 -1.54436 -1.17741 0
M  V30 5085 C 465.827 -2.99409 -1.75987 0
M  V30 5086 C 464.781 -4.0689 -1.32758 0
M  V30 5087 C 464.107 -4.67856 -2.58872 0
M  V30 5088 C 465.407 -5.20215 -0.46624 0
M  V30 5089 H 467.101 -2.99398 0.0108214 0
M  V30 5090 H 464.647 -1.43998 0.00664468 0
M  V30 5091 H 466.6 -3.47943 -2.37727 0
M  V30 5092 H 465.324 -2.23675 -2.37985 0
M  V30 5093 H 463.983 -3.59191 -0.733299 0
M  V30 5094 H 463.631 -3.88772 -3.19163 0
M  V30 5095 H 463.331 -5.40438 -2.30653 0
M  V30 5096 H 464.855 -5.19147 -3.21433 0
M  V30 5097 H 466.269 -5.64704 -0.989047 0
M  V30 5098 H 464.666 -5.99455 -0.27826 0
M  V30 5099 H 465.736 -4.82198 0.511173 0
M  V30 5100 N 467.08 -0.0183926 -1.57589 0
M  V30 5101 C 468.329 0.66185 -1.90532 0
M  V30 5102 C 468.642 1.73904 -0.895366 0
M  V30 5103 O 469.848 2.47518 -1.11566 0
M  V30 5104 C 468.304 1.22844 -3.38286 0
M  V30 5105 C 467.912 0.185103 -4.47617 0
M  V30 5106 C 469.656 1.88581 -3.80312 0
M  V30 5107 C 467.563 0.762723 -5.86461 0
M  V30 5108 H 466.493 0.250972 -0.711006 0
M  V30 5109 H 469.144 -0.0819435 -1.83317 0
M  V30 5110 H 467.526 2.0235 -3.40398 0
M  V30 5111 H 468.7 -0.58671 -4.5705 0
M  V30 5112 H 467.015 -0.372889 -4.14727 0
M  V30 5113 H 469.612 2.32735 -4.81392 0
M  V30 5114 H 469.955 2.72408 -3.14801 0
M  V30 5115 H 470.488 1.15782 -3.80578 0
M  V30 5116 H 467.227 -0.0371713 -6.55489 0
M  V30 5117 H 466.747 1.50327 -5.80656 0
M  V30 5118 H 468.426 1.25576 -6.34697 0
M  V30 5119 N 468.558 1.5553 0.254621 0
M  V30 5120 C 469.49 1.86104 1.33783 0
M  V30 5121 C 470.503 0.746752 1.44663 0
M  V30 5122 O 471.692 1.0248 1.46151 0
M  V30 5123 C 468.792 2.02532 2.71724 0
M  V30 5124 C 467.965 3.33335 2.83208 0
M  V30 5125 C 467.024 3.396 4.01943 0
M  V30 5126 O 466.05 4.12862 3.91834 0
M  V30 5127 N 467.252 2.68332 5.1476 0
M  V30 5128 H 470.017 2.79605 1.07893 0
M  V30 5129 H 467.578 1.55672 0.444732 0
M  V30 5130 H 469.57 2.04074 3.4948 0
M  V30 5131 H 468.14 1.15811 2.90356 0
M  V30 5132 H 467.36 3.44176 1.92189 0
M  V30 5133 H 468.648 4.19565 2.87824 0
M  V30 5134 H 468.046 2.08528 5.25864 0
M  V30 5135 H 466.603 2.75575 5.90679 0
M  V30 5136 N 470.036 -0.519951 1.48776 0
M  V30 5137 C 471.447 -1.10177 1.50725 0
M  V30 5138 C 471.798 -1.94153 0.282678 0
M  V30 5139 O 470.923 -2.07645 -0.609298 0
M  V30 5140 C 471.518 -2.00482 2.73116 0
M  V30 5141 C 470.077 -2.53862 2.77905 0
M  V30 5142 C 469.224 -1.31047 2.44381 0
M  V30 5143 H 472.175 -0.30473 1.55747 0
M  V30 5144 H 472.196 -2.8491 2.52203 0
M  V30 5145 H 471.708 -1.39335 3.62225 0
M  V30 5146 H 469.809 -3.18702 1.93029 0
M  V30 5147 H 469.922 -2.9231 3.79594 0
M  V30 5148 H 468.286 -1.62953 1.95751 0
M  V30 5149 H 469.069 -0.71637 3.35743 0
M  V30 5150 N 471.514 -1.37532 -0.769588 0
M  V30 5151 C 472.761 -1.3286 -1.52822 0
M  V30 5152 C 473.089 0.0862597 -1.94309 0
M  V30 5153 O 472.344 1.05995 -1.6451 0
M  V30 5154 C 472.643 -2.21558 -2.8044 0
M  V30 5155 C 472.309 -3.69796 -2.57996 0
M  V30 5156 C 470.971 -4.10194 -2.51583 0
M  V30 5157 C 473.323 -4.63699 -2.37976 0
M  V30 5158 C 470.651 -5.42608 -2.23144 0
M  V30 5159 C 473.003 -5.96353 -2.1106 0
M  V30 5160 C 471.667 -6.35853 -2.03093 0
M  V30 5161 H 470.937 -0.486168 -0.559215 0
M  V30 5162 H 473.584 -1.69757 -0.886277 0
M  V30 5163 H 471.889 -1.77663 -3.49204 0
M  V30 5164 H 473.586 -2.15256 -3.38328 0
M  V30 5165 H 470.176 -3.37759 -2.63851 0
M  V30 5166 H 474.36 -4.33346 -2.41919 0
M  V30 5167 H 469.616 -5.72173 -2.15472 0
M  V30 5168 H 473.79 -6.68667 -1.94568 0
M  V30 5169 H 471.417 -7.38382 -1.8082 0
M  V30 5170 N 472.992 0.995999 -1.22138 0
M  V30 5171 C 474.239 1.7351 -1.04406 0
M  V30 5172 C 474.567 1.89884 0.421244 0
M  V30 5173 O 473.822 1.43683 1.32867 0
M  V30 5174 C 474.121 3.14553 -1.6968 0
M  V30 5175 C 473.787 3.18102 -3.19565 0
M  V30 5176 C 472.449 3.18778 -3.60464 0
M  V30 5177 C 474.801 3.14636 -4.15516 0
M  V30 5178 C 472.129 3.13684 -4.95801 0
M  V30 5179 C 474.481 3.11084 -5.50826 0
M  V30 5180 C 473.145 3.10074 -5.91109 0
M  V30 5181 H 472.415 0.634916 -0.38205 0
M  V30 5182 H 475.062 1.1667 -1.51857 0
M  V30 5183 H 473.367 3.74682 -1.14546 0
M  V30 5184 H 475.064 3.70477 -1.53454 0
M  V30 5185 H 471.654 3.18324 -2.86998 0
M  V30 5186 H 475.838 3.13266 -3.84939 0
M  V30 5187 H 471.094 3.11245 -5.26247 0
M  V30 5188 H 475.268 3.07357 -6.24904 0
M  V30 5189 H 472.895 3.05882 -6.95946 0
M  V30 5190 N 474.47 1.03057 1.19235 0
M  V30 5191 C 475.38 0.622922 2.26179 0
M  V30 5192 C 476.396 -0.346113 1.70523 0
M  V30 5193 O 477.572 -0.203572 2.00369 0
M  V30 5194 C 474.637 -0.0182063 3.46695 0
M  V30 5195 C 473.698 0.998546 4.17526 0
M  V30 5196 C 472.931 0.387917 5.32288 0
M  V30 5197 O 473.154 -0.808668 5.64639 0
M  V30 5198 O 472.088 1.1116 5.91546 0
M  V30 5199 H 475.914 1.51363 2.63292 0
M  V30 5200 H 473.499 0.800856 1.26122 0
M  V30 5201 H 475.381 -0.375606 4.19723 0
M  V30 5202 H 474.056 -0.882895 3.11427 0
M  V30 5203 H 472.963 1.40756 3.4661 0
M  V30 5204 H 474.296 1.83366 4.56769 0
M  V30 5205 N 475.948 -1.35272 0.808662 0
M  V30 5206 C 476.895 -2.29764 0.218482 0
M  V30 5207 C 477.865 -1.52911 -0.648652 0
M  V30 5208 O 479.05 -1.81341 -0.593297 0
M  V30 5209 C 476.19 -3.39388 -0.625282 0
M  V30 5210 C 475.303 -4.31202 0.262516 0
M  V30 5211 C 474.438 -5.27919 -0.589451 0
M  V30 5212 C 473.477 -6.11371 0.298617 0
M  V30 5213 N 472.614 -7.0022 -0.513443 0
M  V30 5214 H 477.454 -2.79645 1.02968 0
M  V30 5215 H 474.991 -1.37629 0.519303 0
M  V30 5216 H 476.949 -4.01615 -1.12966 0
M  V30 5217 H 475.579 -2.90777 -1.40173 0
M  V30 5218 H 474.631 -3.69962 0.885013 0
M  V30 5219 H 475.943 -4.89748 0.945971 0
M  V30 5220 H 475.097 -5.95529 -1.15888 0
M  V30 5221 H 473.836 -4.69875 -1.30647 0
M  V30 5222 H 472.841 -5.42707 0.880301 0
M  V30 5223 H 474.066 -6.71494 1.01352 0
M  V30 5224 H 472.012 -6.44662 -1.21439 0
M  V30 5225 H 471.929 -7.55917 0.111922 0
M  V30 5226 H 473.197 -7.72175 -1.06608 0
M  V30 5227 N 477.426 -0.562348 -1.47226 0
M  V30 5228 C 478.336 0.185466 -2.33866 0
M  V30 5229 C 479.352 0.906713 -1.48508 0
M  V30 5230 O 480.528 0.874458 -1.81425 0
M  V30 5231 C 477.593 1.19904 -3.25306 0
M  V30 5232 C 476.654 0.484669 -4.26555 0
M  V30 5233 C 475.887 1.44996 -5.13626 0
M  V30 5234 O 476.11 2.68515 -5.03245 0
M  V30 5235 O 475.044 0.971642 -5.94006 0
M  V30 5236 H 478.87 -0.525361 -2.99121 0
M  V30 5237 H 476.455 -0.322916 -1.45868 0
M  V30 5238 H 478.337 1.78399 -3.81774 0
M  V30 5239 H 477.012 1.8917 -2.62672 0
M  V30 5240 H 475.919 -0.141605 -3.73832 0
M  V30 5241 H 477.252 -0.166634 -4.91918 0
M  V30 5242 N 478.904 1.54736 -0.299062 0
M  V30 5243 C 479.837 2.1962 0.619851 0
M  V30 5244 C 480.815 1.16496 1.13434 0
M  V30 5245 O 481.999 1.4513 1.2029 0
M  V30 5246 C 479.126 2.8385 1.84788 0
M  V30 5247 C 478.172 4.00484 1.46679 0
M  V30 5248 S 479.005 5.32926 0.524389 0
M  V30 5249 C 480.161 6.00638 1.76026 0
M  V30 5250 H 480.394 2.97221 0.0686177 0
M  V30 5251 H 477.927 1.54176 -0.0832085 0
M  V30 5252 H 479.885 3.21483 2.55263 0
M  V30 5253 H 478.546 2.06099 2.37028 0
M  V30 5254 H 477.739 4.44201 2.38121 0
M  V30 5255 H 477.341 3.64398 0.842008 0
M  V30 5256 H 479.633 6.21327 2.70109 0
M  V30 5257 H 480.576 6.94805 1.36569 0
M  V30 5258 H 480.984 5.3026 1.93609 0
M  V30 5259 N 480.382 0.0267497 1.57577 0
M  V30 5260 C 481.345 -0.940916 2.08996 0
M  V30 5261 C 482.345 -1.25561 1.00455 0
M  V30 5262 O 483.535 -1.19634 1.26623 0
M  V30 5263 C 480.667 -2.25814 2.55384 0
M  V30 5264 H 481.86 -0.495628 2.95776 0
M  V30 5265 H 479.413 -0.221241 1.54726 0
M  V30 5266 H 480.148 -2.74976 1.71926 0
M  V30 5267 H 479.933 -2.04285 3.34679 0
M  V30 5268 H 481.423 -2.95178 2.95398 0
M  V30 5269 N 481.861 -1.55662 -0.24637 0
M  V30 5270 C 483.107 -1.77782 -0.975779 0
M  V30 5271 C 483.44 -0.592103 -1.84953 0
M  V30 5272 O 482.715 0.409588 -1.90138 0
M  V30 5273 C 482.998 -3.09788 -1.83584 0
M  V30 5274 C 482.851 -4.38764 -0.990241 0
M  V30 5275 C 484.17 -3.38029 -2.81823 0
M  V30 5276 H 481.289 -0.646789 -0.353317 0
M  V30 5277 H 483.931 -1.88398 -0.246248 0
M  V30 5278 H 482.081 -3.00869 -2.45784 0
M  V30 5279 H 483.753 -4.59675 -0.386897 0
M  V30 5280 H 481.996 -4.32798 -0.294626 0
M  V30 5281 H 482.667 -5.27514 -1.62584 0
M  V30 5282 H 485.143 -3.46915 -2.2976 0
M  V30 5283 H 484.019 -4.3161 -3.39122 0
M  V30 5284 H 484.28 -2.58968 -3.58313 0
M  V30 5285 N 483.339 0.512053 -1.4905 0
M  V30 5286 C 484.75 1.09376 -1.51307 0
M  V30 5287 C 485.101 1.94 -0.292971 0
M  V30 5288 O 484.226 2.07965 0.598277 0
M  V30 5289 C 484.821 1.99031 -2.74176 0
M  V30 5290 C 483.38 2.52385 -2.79247 0
M  V30 5291 C 482.527 1.29749 -2.45073 0
M  V30 5292 H 485.478 0.296467 -1.55906 0
M  V30 5293 H 485.499 2.83569 -2.53711 0
M  V30 5294 H 485.011 1.37412 -3.62959 0
M  V30 5295 H 483.112 3.17673 -1.94716 0
M  V30 5296 H 483.225 2.90293 -3.81139 0
M  V30 5297 H 481.589 1.61912 -1.96612 0
M  V30 5298 H 482.372 0.698555 -3.36118 0
M  V30 5299 N 484.817 1.37938 0.762283 0
M  V30 5300 C 486.094 1.24196 1.51112 0
M  V30 5301 C 486.474 -0.160409 2.1049 0
M  V30 5302 O 485.822 -1.16904 1.96331 0
M  V30 5303 C 486.032 2.34537 2.58445 0
M  V30 5304 C 487.38 2.7254 3.25588 0
M  V30 5305 O 488.404 2.33783 2.68745 0
M  V30 5306 O 487.263 3.39343 4.28379 0
M  V30 5307 H 484.357 0.485175 0.669727 0
M  V30 5308 H 486.903 1.49743 0.798438 0
M  V30 5309 H 485.675 3.28406 2.12756 0
M  V30 5310 H 485.298 2.10505 3.37303 0
M  V30 5311 N 486.295 -0.989507 1.22664 0
M  V30 5312 C 487.52 -1.77031 1.08051 0
M  V30 5313 C 487.945 -1.84535 -0.364483 0
M  V30 5314 O 487.303 -1.3003 -1.2634 0
M  V30 5315 C 487.351 -3.18 1.70024 0
M  V30 5316 O 486.455 -4.01161 0.956216 0
M  V30 5317 H 485.796 -0.545008 0.379292 0
M  V30 5318 H 488.326 -1.24277 1.62531 0
M  V30 5319 H 488.336 -3.68616 1.74888 0
M  V30 5320 H 487.011 -3.11853 2.75174 0
M  V30 5321 H 485.588 -3.59687 0.98384 0
M  V30 5322 N 487.773 -1.03688 -1.18687 0
M  V30 5323 C 488.703 -0.645407 -2.24403 0
M  V30 5324 C 489.684 0.349511 -1.66471 0
M  V30 5325 O 490.869 0.230453 -1.92828 0
M  V30 5326 C 487.999 -0.00365337 -3.473 0
M  V30 5327 C 486.953 -0.921705 -4.17958 0
M  V30 5328 C 486.279 -0.144629 -5.34504 0
M  V30 5329 C 487.579 -2.23909 -4.71871 0
M  V30 5330 H 489.273 -1.52917 -2.57404 0
M  V30 5331 H 486.819 -0.736711 -1.23728 0
M  V30 5332 H 488.772 0.281908 -4.20456 0
M  V30 5333 H 487.496 0.914963 -3.13522 0
M  V30 5334 H 486.155 -1.19159 -3.46694 0
M  V30 5335 H 485.803 0.776274 -4.96974 0
M  V30 5336 H 485.503 -0.756206 -5.82714 0
M  V30 5337 H 487.027 0.134004 -6.10453 0
M  V30 5338 H 488.441 -2.0145 -5.36741 0
M  V30 5339 H 486.838 -2.8033 -5.30599 0
M  V30 5340 H 487.908 -2.88822 -3.895 0
M  V30 5341 N 489.251 1.34841 -0.815825 0
M  V30 5342 C 490.181 2.32187 -0.247298 0
M  V30 5343 C 491.162 1.5791 0.632344 0
M  V30 5344 O 492.347 1.8593 0.560698 0
M  V30 5345 C 489.477 3.42122 0.597466 0
M  V30 5346 C 488.431 4.27602 -0.184446 0
M  V30 5347 C 487.757 5.28942 0.782609 0
M  V30 5348 C 489.057 5.03502 -1.38865 0
M  V30 5349 H 490.751 2.79985 -1.06061 0
M  V30 5350 H 488.297 1.34611 -0.511461 0
M  V30 5351 H 490.25 4.09232 1.00533 0
M  V30 5352 H 488.974 2.92956 1.44376 0
M  V30 5353 H 487.633 3.62085 -0.573592 0
M  V30 5354 H 487.281 4.7604 1.62466 0
M  V30 5355 H 486.981 5.87008 0.263695 0
M  V30 5356 H 488.505 5.98922 1.18848 0
M  V30 5357 H 489.919 5.63506 -1.05518 0
M  V30 5358 H 488.316 5.71108 -1.8427 0
M  V30 5359 H 489.386 4.33608 -2.17054 0
M  V30 5360 N 490.729 0.570148 1.46925 0
M  V30 5361 C 491.662 -0.218362 2.27153 0
M  V30 5362 C 492.64 -0.90847 1.34854 0
M  V30 5363 O 493.824 -0.924875 1.64251 0
M  V30 5364 C 490.951 -1.3122 3.12248 0
M  V30 5365 C 489.997 -0.729277 4.20219 0
M  V30 5366 S 490.83 0.434159 5.33737 0
M  V30 5367 C 491.986 -0.661188 6.22398 0
M  V30 5368 H 492.219 0.462393 2.93682 0
M  V30 5369 H 489.752 0.356753 1.50222 0
M  V30 5370 H 491.71 -1.93856 3.61842 0
M  V30 5371 H 490.371 -1.96485 2.45056 0
M  V30 5372 H 489.564 -1.5511 4.79538 0
M  V30 5373 H 489.166 -0.178836 3.73572 0
M  V30 5374 H 491.458 -1.55006 6.5953 0
M  V30 5375 H 492.401 -0.105046 7.08022 0
M  V30 5376 H 492.809 -0.959682 5.56283 0
M  V30 5377 N 492.207 -1.54576 0.307264 0
M  V30 5378 C 493.154 -2.23751 -0.56604 0
M  V30 5379 C 494.124 -1.22235 -1.12462 0
M  V30 5380 O 495.309 -1.50873 -1.16799 0
M  V30 5381 C 492.449 -2.98661 -1.72903 0
M  V30 5382 C 491.562 -4.14963 -1.20124 0
M  V30 5383 C 490.697 -4.77441 -2.3286 0
M  V30 5384 C 489.736 -5.85875 -1.77247 0
M  V30 5385 N 488.873 -6.42282 -2.8358 0
M  V30 5386 H 493.713 -2.97984 0.0304578 0
M  V30 5387 H 491.25 -1.47076 0.0268015 0
M  V30 5388 H 493.208 -3.40329 -2.41313 0
M  V30 5389 H 491.838 -2.26793 -2.29706 0
M  V30 5390 H 490.89 -3.78193 -0.409198 0
M  V30 5391 H 492.202 -4.93066 -0.754171 0
M  V30 5392 H 491.356 -5.21993 -3.09205 0
M  V30 5393 H 490.095 -3.98684 -2.80896 0
M  V30 5394 H 489.1 -5.40741 -0.993926 0
M  V30 5395 H 490.325 -6.6652 -1.30107 0
M  V30 5396 H 488.271 -5.66406 -3.30939 0
M  V30 5397 H 488.188 -7.1575 -2.43388 0
M  V30 5398 H 489.456 -6.91492 -3.59804 0
M  V30 5399 N 493.685 -0.035106 -1.57561 0
M  V30 5400 C 494.931 0.64318 -1.92331 0
M  V30 5401 C 495.264 1.71434 -0.912368 0
M  V30 5402 O 494.539 1.94395 0.0640303 0
M  V30 5403 C 494.822 1.25411 -3.37556 0
M  V30 5404 C 494.675 0.192109 -4.4939 0
M  V30 5405 C 495.994 2.17041 -3.82859 0
M  V30 5406 H 493.113 0.232341 -0.699419 0
M  V30 5407 H 495.755 -0.0935889 -1.89769 0
M  V30 5408 H 493.905 1.88205 -3.39869 0
M  V30 5409 H 495.577 -0.438849 -4.59208 0
M  V30 5410 H 493.82 -0.481725 -4.31117 0
M  V30 5411 H 494.491 0.659292 -5.48049 0
M  V30 5412 H 496.967 1.64228 -3.8232 0
M  V30 5413 H 495.843 2.56738 -4.85157 0
M  V30 5414 H 496.104 3.06401 -3.18702 0
M  V30 5415 N 495.163 1.55791 0.238111 0
M  V30 5416 C 496.093 1.94068 1.29846 0
M  V30 5417 C 497.074 0.806726 1.49753 0
M  V30 5418 O 498.259 1.06772 1.62214 0
M  V30 5419 C 495.389 2.24302 2.65153 0
M  V30 5420 C 494.343 3.40032 2.59927 0
M  V30 5421 C 493.669 3.55829 3.99111 0
M  V30 5422 C 494.969 4.75476 2.16148 0
M  V30 5423 H 496.663 2.82887 0.980563 0
M  V30 5424 H 494.209 1.36105 0.470253 0
M  V30 5425 H 496.162 2.4967 3.39475 0
M  V30 5426 H 494.886 1.32318 2.98596 0
M  V30 5427 H 493.545 3.14687 1.88063 0
M  V30 5428 H 493.193 2.6125 4.29834 0
M  V30 5429 H 492.893 4.3366 3.96501 0
M  V30 5430 H 494.417 3.83528 4.7512 0
M  V30 5431 H 495.831 5.00158 2.80205 0
M  V30 5432 H 494.228 5.56472 2.24631 0
M  V30 5433 H 495.298 4.71946 1.11333 0
M  V30 5434 N 496.642 -0.504142 1.49319 0
M  V30 5435 C 497.867 -1.28729 1.62615 0
M  V30 5436 C 498.292 -1.85752 0.296309 0
M  V30 5437 O 497.65 -1.65704 -0.735649 0
M  V30 5438 C 497.698 -2.39561 2.69524 0
M  V30 5439 O 496.802 -3.43324 2.28478 0
M  V30 5440 H 496.143 -0.380172 0.544395 0
M  V30 5441 H 498.673 -0.603872 1.95485 0
M  V30 5442 H 498.683 -2.8537 2.91595 0
M  V30 5443 H 497.358 -1.97423 3.66056 0
M  V30 5444 H 495.935 -3.03455 2.16725 0
M  V30 5445 N 498.12 -1.38341 -0.754957 0
M  V30 5446 C 499.052 -1.31347 -1.87831 0
M  V30 5447 C 500.065 -0.225955 -1.61224 0
M  V30 5448 O 501.254 -0.48341 -1.7183 0
M  V30 5449 C 498.354 -1.01201 -3.23437 0
M  V30 5450 C 497.527 -2.20834 -3.77559 0
M  V30 5451 C 496.586 -1.87454 -4.91678 0
M  V30 5452 O 495.612 -2.59934 -5.06382 0
M  V30 5453 N 496.814 -0.828682 -5.74555 0
M  V30 5454 H 499.579 -2.28147 -1.94342 0
M  V30 5455 H 497.14 -1.32184 -0.934828 0
M  V30 5456 H 499.132 -0.769249 -3.97322 0
M  V30 5457 H 497.702 -0.132011 -3.12321 0
M  V30 5458 H 496.922 -2.61184 -2.95256 0
M  V30 5459 H 498.21 -3.00678 -4.10451 0
M  V30 5460 H 497.608 -0.227591 -5.65242 0
M  V30 5461 H 496.165 -0.645802 -6.48593 0
M  V30 5462 N 499.598 0.982988 -1.23187 0
M  V30 5463 C 501.014 1.2487 -0.993967 0
M  V30 5464 C 501.214 1.99155 0.306498 0
M  V30 5465 O 500.27 2.30688 1.0266 0
M  V30 5466 C 501.583 2.05078 -2.19917 0
M  V30 5467 C 503.131 2.18227 -2.2438 0
M  V30 5468 C 503.606 3.01825 -3.44479 0
M  V30 5469 N 505.097 3.09411 -3.44702 0
M  V30 5470 C 505.832 3.74412 -4.34285 0
M  V30 5471 N 505.328 4.41259 -5.341 0
M  V30 5472 N 507.121 3.71273 -4.22035 0
M  V30 5473 H 499.272 0.485253 -2.06783 0
M  V30 5474 H 501.535 0.276979 -0.906635 0
M  V30 5475 H 501.241 1.57867 -3.14279 0
M  V30 5476 H 501.115 3.05829 -2.2079 0
M  V30 5477 H 503.502 2.64648 -1.30559 0
M  V30 5478 H 503.583 1.16873 -2.2754 0
M  V30 5479 H 503.227 2.56102 -4.38605 0
M  V30 5480 H 503.157 4.03342 -3.38559 0
M  V30 5481 H 505.648 2.61845 -2.7248 0
M  V30 5482 H 505.961 4.88629 -5.98717 0
M  V30 5483 H 504.306 4.39975 -5.38002 0
M  V30 5484 H 507.497 3.18217 -3.43301 0
M  V30 5485 H 507.67 4.21649 -4.92053 0
M  V30 5486 N 501.076 1.04316 1.18135 0
M  V30 5487 C 502.006 0.657299 2.24058 0
M  V30 5488 C 502.987 -0.340678 1.66654 0
M  V30 5489 O 504.172 -0.220223 1.92947 0
M  V30 5490 C 501.302 0.0220715 3.47293 0
M  V30 5491 C 500.256 0.943857 4.17463 0
M  V30 5492 C 499.582 0.172973 5.3442 0
M  V30 5493 C 500.882 2.26409 4.70677 0
M  V30 5494 H 502.576 1.5428 2.56589 0
M  V30 5495 H 500.122 0.743263 1.23335 0
M  V30 5496 H 502.075 -0.259607 4.206 0
M  V30 5497 H 500.799 -0.898323 3.14003 0
M  V30 5498 H 499.458 1.20996 3.46057 0
M  V30 5499 H 499.106 -0.749907 4.97379 0
M  V30 5500 H 498.806 0.787098 5.82304 0
M  V30 5501 H 500.33 -0.101628 6.10515 0
M  V30 5502 H 501.744 2.04294 5.35665 0
M  V30 5503 H 500.141 2.8314 5.29105 0
M  V30 5504 H 501.211 2.90883 3.87962 0
M  V30 5505 N 502.554 -1.34406 0.822964 0
M  V30 5506 C 503.831 -1.92733 0.333641 0
M  V30 5507 C 504.211 -1.75107 -1.17901 0
M  V30 5508 O 503.559 -1.12983 -1.98613 0
M  V30 5509 C 503.769 -3.40557 0.763023 0
M  V30 5510 C 505.117 -4.17709 0.761879 0
M  V30 5511 O 506.141 -3.49141 0.705606 0
M  V30 5512 O 505 -5.40082 0.835109 0
M  V30 5513 H 502.094 -0.821964 0.0911249 0
M  V30 5514 H 504.64 -1.4338 0.907757 0
M  V30 5515 H 503.412 -3.47187 1.8049 0
M  V30 5516 H 503.035 -3.97259 0.164605 0
M  V30 5517 N 504.032 -0.577932 -1.46621 0
M  V30 5518 C 504.964 0.195801 -2.28362 0
M  V30 5519 C 505.977 0.859983 -1.38232 0
M  V30 5520 O 507.166 0.730349 -1.62875 0
M  V30 5521 C 504.266 1.29639 -3.13124 0
M  V30 5522 C 503.439 0.725049 -4.31349 0
M  V30 5523 C 502.498 1.71274 -4.97546 0
M  V30 5524 O 501.524 1.25067 -5.5529 0
M  V30 5525 N 502.726 3.04672 -4.94121 0
M  V30 5526 H 505.491 -0.505468 -2.95407 0
M  V30 5527 H 503.052 -0.415381 -1.56481 0
M  V30 5528 H 505.044 1.95631 -3.54275 0
M  V30 5529 H 503.614 1.90059 -2.48186 0
M  V30 5530 H 502.834 -0.112205 -3.9404 0
M  V30 5531 H 504.122 0.323034 -5.07774 0
M  V30 5532 H 503.52 3.4484 -4.48444 0
M  V30 5533 H 502.077 3.66166 -5.39227 0
M  V30 5534 N 505.51 1.54411 -0.315457 0
M  V30 5535 C 506.442 2.21527 0.588067 0
M  V30 5536 C 507.455 1.21263 1.08624 0
M  V30 5537 O 508.644 1.47777 1.00121 0
M  V30 5538 C 505.744 2.85963 1.81875 0
M  V30 5539 C 504.917 4.12291 1.46063 0
M  V30 5540 C 503.976 4.60396 2.54799 0
M  V30 5541 O 503.002 5.25265 2.19283 0
M  V30 5542 N 504.204 4.33935 3.85591 0
M  V30 5543 H 506.969 2.99697 0.013414 0
M  V30 5544 H 504.53 1.61308 -0.138295 0
M  V30 5545 H 506.522 3.15071 2.53993 0
M  V30 5546 H 505.092 2.11548 2.30144 0
M  V30 5547 H 504.312 3.90036 0.571445 0
M  V30 5548 H 505.6 4.9452 1.19695 0
M  V30 5549 H 504.998 3.81996 4.17248 0
M  V30 5550 H 503.555 4.67718 4.53964 0
M  V30 5551 N 506.988 0.0434614 1.5754 0
M  V30 5552 C 508.265 -0.671479 1.83713 0
M  V30 5553 C 508.645 -1.89495 0.930315 0
M  V30 5554 O 507.993 -2.28498 -0.0105639 0
M  V30 5555 C 508.203 -1.0361 3.33266 0
M  V30 5556 C 509.551 -1.42167 4.00092 0
M  V30 5557 O 510.575 -1.12866 3.37846 0
M  V30 5558 O 509.434 -1.96817 5.09829 0
M  V30 5559 H 506.528 -0.330726 0.75799 0
M  V30 5560 H 509.074 0.0722373 1.69546 0
M  V30 5561 H 507.846 -0.165938 3.90948 0
M  V30 5562 H 507.469 -1.83751 3.52592 0
M  V30 5563 N 508.466 -1.55915 -0.229846 0
M  V30 5564 C 509.706 -1.80314 -0.962614 0
M  V30 5565 C 510.07 -0.61568 -1.81861 0
M  V30 5566 O 511.271 -0.738795 -2.58448 0
M  V30 5567 C 509.542 -3.0956 -1.78627 0
M  V30 5568 S 511.101 -3.55243 -2.57581 0
M  V30 5569 H 507.919 -0.633142 -0.323499 0
M  V30 5570 H 510.521 -1.94155 -0.228919 0
M  V30 5571 H 509.225 -3.94033 -1.14742 0
M  V30 5572 H 508.756 -2.98503 -2.56241 0
M  V30 5573 H 510.771 -3.17924 -3.80971 0
M  V30 5574 N 509.944 0.496216 -1.49584 0
M  V30 5575 C 511.193 1.24668 -1.58558 0
M  V30 5576 C 511.506 1.9359 -0.279703 0
M  V30 5577 O 512.712 2.70365 -0.248048 0
M  V30 5578 C 511.168 2.26388 -2.79779 0
M  V30 5579 C 510.776 1.63384 -4.17145 0
M  V30 5580 C 512.52 3.02233 -2.98086 0
M  V30 5581 C 510.427 2.63243 -5.29582 0
M  V30 5582 H 509.357 0.468995 -0.590389 0
M  V30 5583 H 512.008 0.519985 -1.75978 0
M  V30 5584 H 510.39 3.02241 -2.55863 0
M  V30 5585 H 511.564 0.93491 -4.51216 0
M  V30 5586 H 509.879 0.999121 -4.04236 0
M  V30 5587 H 512.476 3.76919 -3.79257 0
M  V30 5588 H 512.819 3.60132 -2.08831 0
M  V30 5589 H 513.352 2.33495 -3.22063 0
M  V30 5590 H 510.091 2.10119 -6.20911 0
M  V30 5591 H 509.611 3.31363 -4.99959 0
M  V30 5592 H 511.29 3.25575 -5.59115 0
M  V30 5593 N 511.423 1.38739 0.74761 0
M  V30 5594 C 512.355 1.32341 1.87132 0
M  V30 5595 C 513.368 0.234502 1.61102 0
M  V30 5596 O 514.557 0.492516 1.71571 0
M  V30 5597 C 511.657 1.02915 3.22896 0
M  V30 5598 C 510.83 2.22834 3.76383 0
M  V30 5599 C 509.889 1.90059 4.90677 0
M  V30 5600 O 508.915 2.62615 5.04997 0
M  V30 5601 N 510.117 0.859141 5.74107 0
M  V30 5602 H 512.882 2.29175 1.93129 0
M  V30 5603 H 510.443 1.32678 0.927805 0
M  V30 5604 H 512.435 0.79031 3.96908 0
M  V30 5605 H 511.005 0.148572 3.12247 0
M  V30 5606 H 510.225 2.62747 2.93867 0
M  V30 5607 H 511.513 3.02851 4.08851 0
M  V30 5608 H 510.911 0.257564 5.65113 0
M  V30 5609 H 509.468 0.680189 6.48241 0
M  V30 5610 N 512.901 -0.976442 1.23707 0
M  V30 5611 C 513.848 -2.06952 1.02174 0
M  V30 5612 C 514.818 -1.65984 -0.0621034 0
M  V30 5613 O 516.003 -1.90584 0.0907906 0
M  V30 5614 C 513.143 -3.39425 0.62327 0
M  V30 5615 C 512.256 -3.9364 1.77966 0
M  V30 5616 C 511.391 -5.14343 1.3276 0
M  V30 5617 C 510.43 -5.60733 2.45449 0
M  V30 5618 N 509.567 -6.72662 2.01172 0
M  V30 5619 H 514.407 -2.24704 1.95734 0
M  V30 5620 H 511.944 -1.10143 0.975034 0
M  V30 5621 H 513.902 -4.15526 0.37332 0
M  V30 5622 H 512.532 -3.21624 -0.275329 0
M  V30 5623 H 511.584 -3.14258 2.14351 0
M  V30 5624 H 512.896 -4.24035 2.62671 0
M  V30 5625 H 512.05 -5.97789 1.03601 0
M  V30 5626 H 510.789 -4.8561 0.450975 0
M  V30 5627 H 509.794 -4.75865 2.75378 0
M  V30 5628 H 511.019 -5.91483 3.33654 0
M  V30 5629 H 508.965 -6.45681 1.15895 0
M  V30 5630 H 508.882 -7.02462 2.79434 0
M  V30 5631 H 510.15 -7.59572 1.75129 0
M  V30 5632 N 514.379 -1.04941 -1.1758 0
M  V30 5633 C 515.627 -0.756492 -1.87408 0
M  V30 5634 C 515.948 0.718478 -1.81281 0
M  V30 5635 O 515.218 1.519 -1.23706 0
M  V30 5636 H 513.798 -0.276841 -0.693807 0
M  V30 5637 H 516.46 -1.32803 -1.42652 0
M  V30 5638 H 515.556 -1.06918 -2.93215 0
M  V30 5639 N 515.857 1.33968 -0.830081 0
M  V30 5640 C 517.103 1.98773 -0.431394 0
M  V30 5641 C 517.458 1.64598 0.99626 0
M  V30 5642 O 516.751 0.911022 1.68555 0
M  V30 5643 C 516.945 3.52679 -0.57898 0
M  V30 5644 C 516.774 4.01807 -2.01943 0
M  V30 5645 C 515.544 4.30062 -2.65282 0
M  V30 5646 C 517.742 4.18663 -2.98707 0
M  V30 5647 N 515.724 4.65272 -4.00493 0
M  V30 5648 C 517.095 4.57133 -4.18843 0
M  V30 5649 C 519.15 4.00929 -2.95229 0
M  V30 5650 C 517.853 4.79723 -5.35965 0
M  V30 5651 C 519.879 4.2469 -4.11573 0
M  V30 5652 C 519.241 4.63454 -5.30462 0
M  V30 5653 H 515.34 0.75435 -0.206107 0
M  V30 5654 H 517.924 1.62247 -1.07629 0
M  V30 5655 H 516.095 3.88383 0.0360632 0
M  V30 5656 H 517.827 4.04412 -0.152596 0
M  V30 5657 H 514.582 4.21231 -2.16475 0
M  V30 5658 H 515.006 4.87101 -4.70172 0
M  V30 5659 H 519.648 3.70082 -2.04448 0
M  V30 5660 H 517.366 5.09434 -6.27297 0
M  V30 5661 H 520.952 4.12497 -4.10289 0
M  V30 5662 H 519.832 4.81476 -6.18992 0
M  V30 5663 N 517.335 0.585699 1.46312 0
M  V30 5664 C 518.581 0.0725284 2.0267 0
M  V30 5665 C 518.914 -1.28523 1.45586 0
M  V30 5666 O 518.189 -1.84283 0.622101 0
M  V30 5667 C 518.472 0.0099788 3.60099 0
M  V30 5668 C 518.325 1.39685 4.27561 0
M  V30 5669 C 519.644 -0.689117 4.34671 0
M  V30 5670 H 516.763 0.0278307 0.736474 0
M  V30 5671 H 519.405 0.753472 1.74421 0
M  V30 5672 H 517.555 -0.56992 3.84297 0
M  V30 5673 H 519.227 2.02215 4.14617 0
M  V30 5674 H 517.47 1.96374 3.86807 0
M  V30 5675 H 518.141 1.30553 5.36339 0
M  V30 5676 H 520.617 -0.196446 4.15636 0
M  V30 5677 H 519.493 -0.701921 5.44393 0
M  V30 5678 H 519.754 -1.75101 4.05946 0
M  V30 5679 N 518.813 -1.54241 0.323641 0
M  V30 5680 C 519.743 -2.27289 -0.534993 0
M  V30 5681 C 520.724 -1.28087 -1.11927 0
M  V30 5682 O 521.909 -1.56899 -1.14439 0
M  V30 5683 C 519.039 -3.03075 -1.69596 0
M  V30 5684 C 517.993 -4.09614 -1.24098 0
M  V30 5685 C 517.319 -4.73242 -2.4889 0
M  V30 5686 C 518.619 -5.21087 -0.355789 0
M  V30 5687 H 520.313 -2.99308 0.0743257 0
M  V30 5688 H 517.859 -1.43952 0.0371874 0
M  V30 5689 H 519.812 -3.52907 -2.30293 0
M  V30 5690 H 518.536 -2.28673 -2.33187 0
M  V30 5691 H 517.195 -3.60666 -0.656945 0
M  V30 5692 H 516.843 -3.95455 -3.10845 0
M  V30 5693 H 516.543 -5.45209 -2.19138 0
M  V30 5694 H 518.067 -5.25848 -3.10348 0
M  V30 5695 H 519.481 -5.66675 -0.869042 0
M  V30 5696 H 517.878 -5.9991 -0.151045 0
M  V30 5697 H 518.948 -4.81005 0.613339 0
M  V30 5698 N 520.291 -0.0518155 -1.57515 0
M  V30 5699 C 521.241 0.932017 -2.0808 0
M  V30 5700 C 522.225 1.27141 -0.986098 0
M  V30 5701 O 523.417 1.25373 -1.24943 0
M  V30 5702 C 520.546 2.20665 -2.62986 0
M  V30 5703 C 519.632 1.89462 -3.79427 0
M  V30 5704 N 520.023 1.28621 -4.89173 0
M  V30 5705 C 518.321 2.19327 -3.88345 0
M  V30 5706 C 519.022 1.15062 -5.70207 0
M  V30 5707 N 517.998 1.65372 -5.17835 0
M  V30 5708 H 521.8 0.456964 -2.90326 0
M  V30 5709 H 519.314 0.152619 -1.61681 0
M  V30 5710 H 521.311 2.92044 -2.97516 0
M  V30 5711 H 519.971 2.68776 -1.8218 0
M  V30 5712 H 520.982 0.958341 -5.08956 0
M  V30 5713 H 517.659 2.69955 -3.18482 0
M  V30 5714 H 519.049 0.678243 -6.68468 0
M  V30 5715 N 521.769 1.56035 0.221574 0
M  V30 5716 C 523.017 1.78693 0.944102 0
M  V30 5717 C 523.338 0.620317 1.8487 0
M  V30 5718 O 522.608 -0.362784 1.92512 0
M  V30 5719 H 521.188 0.659082 0.351597 0
M  V30 5720 H 523.85 1.93497 0.233435 0
M  V30 5721 H 522.946 2.70837 1.55093 0
M  V30 5722 N 523.247 -0.488276 1.49845 0
M  V30 5723 C 524.493 -1.24341 1.6021 0
M  V30 5724 C 524.826 -1.91967 0.293651 0
M  V30 5725 O 524.101 -1.81323 -0.703718 0
M  V30 5726 C 524.384 -2.3005 2.77036 0
M  V30 5727 C 524.237 -1.66842 4.17713 0
M  V30 5728 C 525.556 -3.31509 2.89464 0
M  V30 5729 H 522.675 -0.450704 0.583125 0
M  V30 5730 H 525.317 -0.539673 1.82174 0
M  V30 5731 H 523.467 -2.90071 2.58439 0
M  V30 5732 H 525.139 -1.1055 4.47858 0
M  V30 5733 H 523.382 -0.972079 4.22768 0
M  V30 5734 H 524.053 -2.43576 4.95353 0
M  V30 5735 H 526.529 -2.81493 3.06433 0
M  V30 5736 H 525.405 -4.02822 3.72861 0
M  V30 5737 H 525.666 -3.94603 1.99351 0
M  V30 5738 N 524.725 -1.39134 -0.740242 0
M  V30 5739 C 526.136 -1.32208 -1.31825 0
M  V30 5740 C 526.487 0.0159919 -1.96193 0
M  V30 5741 O 525.612 0.918111 -1.95958 0
M  V30 5742 C 526.207 -2.39436 -2.39699 0
M  V30 5743 C 524.766 -2.36048 -2.93187 0
M  V30 5744 C 523.913 -2.21599 -1.66701 0
M  V30 5745 H 526.864 -1.49298 -0.538133 0
M  V30 5746 H 526.885 -2.05922 -3.19963 0
M  V30 5747 H 526.397 -3.36811 -1.92821 0
M  V30 5748 H 524.498 -1.42295 -3.44359 0
M  V30 5749 H 524.611 -3.30704 -3.46658 0
M  V30 5750 H 522.975 -1.68681 -1.90837 0
M  V30 5751 H 523.758 -3.20936 -1.21882 0
M  V30 5752 N 526.204 0.969867 -1.24223 0
M  V30 5753 C 527.62 1.23809 -1.00716 0
M  V30 5754 C 527.82 1.99469 0.285358 0
M  V30 5755 O 526.876 2.31764 1.00207 0
M  V30 5756 C 528.189 2.02734 -2.2208 0
M  V30 5757 C 529.737 2.15834 -2.26681 0
M  V30 5758 C 530.212 2.98154 -3.47661 0
M  V30 5759 N 531.703 3.05737 -3.47964 0
M  V30 5760 C 532.438 3.69785 -4.38231 0
M  V30 5761 N 531.934 4.35569 -5.3875 0
M  V30 5762 N 533.727 3.66775 -4.25949 0
M  V30 5763 H 525.878 0.463294 -2.07286 0
M  V30 5764 H 528.141 0.267348 -0.909521 0
M  V30 5765 H 527.847 1.54524 -3.15935 0
M  V30 5766 H 527.721 3.0347 -2.24021 0
M  V30 5767 H 530.108 2.63248 -1.33359 0
M  V30 5768 H 530.189 1.14453 -2.28767 0
M  V30 5769 H 529.833 2.51435 -4.41297 0
M  V30 5770 H 529.763 3.99729 -3.42818 0
M  V30 5771 H 532.254 2.58941 -2.75242 0
M  V30 5772 H 532.567 4.82251 -6.03866 0
M  V30 5773 H 530.912 4.34244 -5.42639 0
M  V30 5774 H 534.103 3.14558 -3.46657 0
M  V30 5775 H 534.276 4.16407 -4.96497 0
M  V30 5776 N 527.682 1.05563 1.17022 0
M  V30 5777 C 528.959 0.68165 1.83338 0
M  V30 5778 C 529.339 -0.837665 1.93769 0
M  V30 5779 O 528.687 -1.74507 1.47511 0
M  V30 5780 C 528.897 1.375 3.20772 0
M  V30 5781 C 530.245 1.51545 3.96635 0
M  V30 5782 O 531.269 1.33431 3.30264 0
M  V30 5783 O 530.128 1.812 5.15586 0
M  V30 5784 H 527.222 0.240412 0.791285 0
M  V30 5785 H 529.768 1.15545 1.24288 0
M  V30 5786 H 528.54 2.41135 3.08171 0
M  V30 5787 H 528.163 0.890798 3.87493 0
M  V30 5788 N 529.16 -1.33526 0.837174 0
M  V30 5789 C 530.09 -2.31764 0.284206 0
M  V30 5790 C 531.071 -1.58896 -0.607142 0
M  V30 5791 O 532.256 -1.86798 -0.531047 0
M  V30 5792 C 529.386 -3.43029 -0.542962 0
M  V30 5793 C 528.34 -4.27255 0.252451 0
M  V30 5794 C 527.666 -5.3012 -0.69836 0
M  V30 5795 C 528.966 -5.01229 1.46858 0
M  V30 5796 H 530.66 -2.78262 1.10502 0
M  V30 5797 H 528.206 -1.3378 0.532812 0
M  V30 5798 H 530.159 -4.1078 -0.940096 0
M  V30 5799 H 528.883 -2.95216 -1.39697 0
M  V30 5800 H 527.542 -3.61127 0.631124 0
M  V30 5801 H 527.19 -4.78564 -1.54872 0
M  V30 5802 H 526.89 -5.87353 -0.170274 0
M  V30 5803 H 528.414 -6.00737 -1.09305 0
M  V30 5804 H 529.828 -5.61756 1.14469 0
M  V30 5805 H 528.225 -5.68104 1.93333 0
M  V30 5806 H 529.295 -4.301 2.23924 0
M  V30 5807 N 530.638 -0.59345 -1.46 0
M  V30 5808 C 531.915 -0.0157933 -1.95594 0
M  V30 5809 C 532.295 1.44807 -1.53604 0
M  V30 5810 O 531.643 2.14342 -0.791824 0
M  V30 5811 C 531.853 -0.199081 -3.48432 0
M  V30 5812 C 533.201 -0.0724943 -4.24538 0
M  V30 5813 O 534.225 -0.128469 -3.55968 0
M  V30 5814 O 533.084 0.0542426 -5.46473 0
M  V30 5815 H 530.178 0.043749 -0.825842 0
M  V30 5816 H 532.724 -0.662522 -1.56233 0
M  V30 5817 H 531.496 -1.21631 -3.71916 0
M  V30 5818 H 531.119 0.483576 -3.94648 0
M  V30 5819 N 532.116 1.54067 -0.331816 0
M  V30 5820 C 533.048 2.22139 0.564538 0
M  V30 5821 C 534.061 1.22408 1.07332 0
M  V30 5822 O 535.25 1.4883 0.985481 0
M  V30 5823 C 532.35 2.87876 1.78831 0
M  V30 5824 C 531.523 4.13817 1.41682 0
M  V30 5825 C 530.582 4.63072 2.49901 0
M  V30 5826 O 529.608 5.27562 2.13699 0
M  V30 5827 N 530.81 4.38001 3.80967 0
M  V30 5828 H 533.575 2.99694 -0.0183736 0
M  V30 5829 H 531.136 1.61153 -0.155396 0
M  V30 5830 H 533.128 3.17747 2.50637 0
M  V30 5831 H 531.698 2.13977 2.27887 0
M  V30 5832 H 530.918 3.9062 0.530044 0
M  V30 5833 H 532.206 4.95762 1.14443 0
M  V30 5834 H 531.604 3.864 4.13173 0
M  V30 5835 H 530.161 4.72507 4.48977 0
M  V30 5836 N 533.594 0.0601682 1.57485 0
M  V30 5837 C 534.557 -0.896373 2.10945 0
M  V30 5838 C 535.557 -1.23402 1.03095 0
M  V30 5839 O 536.747 -1.16921 1.29132 0
M  V30 5840 C 533.879 -2.20346 2.60116 0
M  V30 5841 H 535.072 -0.432778 2.96761 0
M  V30 5842 H 532.625 -0.188372 1.55161 0
M  V30 5843 H 533.36 -2.71268 1.7772 0
M  V30 5844 H 533.145 -1.9714 3.38937 0
M  V30 5845 H 534.635 -2.88846 3.01592 0
M  V30 5846 N 535.072 -1.5615 -0.213296 0
M  V30 5847 C 536.022 -1.89485 -1.26804 0
M  V30 5848 C 537.006 -0.758713 -1.41889 0
M  V30 5849 O 538.198 -1.02127 -1.44565 0
M  V30 5850 C 535.327 -2.22219 -2.61675 0
M  V30 5851 C 534.413 -3.42245 -2.50458 0
M  V30 5852 N 534.804 -4.60645 -2.089 0
M  V30 5853 C 533.102 -3.46023 -2.81397 0
M  V30 5854 C 533.803 -5.42805 -2.09135 0
M  V30 5855 N 532.779 -4.82732 -2.49941 0
M  V30 5856 H 536.581 -2.78537 -0.937771 0
M  V30 5857 H 534.095 -1.56826 -0.421824 0
M  V30 5858 H 536.092 -2.44278 -3.37837 0
M  V30 5859 H 534.752 -1.34484 -2.95541 0
M  V30 5860 H 535.763 -4.85651 -1.79899 0
M  V30 5861 H 532.44 -2.68654 -3.1958 0
M  V30 5862 H 533.83 -6.47601 -1.79059 0
M  V30 5863 N 536.55 0.480323 -1.50102 0
M  V30 5864 C 537.48 1.58769 -1.71215 0
M  V30 5865 C 538.461 1.60583 -0.560997 0
M  V30 5866 O 539.646 1.76996 -0.799127 0
M  V30 5867 C 536.776 2.97148 -1.79778 0
M  V30 5868 C 535.73 3.10201 -2.94888 0
M  V30 5869 C 535.056 4.50137 -2.88584 0
M  V30 5870 C 536.356 2.88283 -4.35534 0
M  V30 5871 H 538.05 1.41354 -2.6393 0
M  V30 5872 H 535.596 0.678591 -1.27008 0
M  V30 5873 H 537.549 3.74536 -1.93133 0
M  V30 5874 H 536.273 3.15699 -0.836772 0
M  V30 5875 H 534.932 2.35244 -2.81169 0
M  V30 5876 H 534.58 4.65593 -1.90349 0
M  V30 5877 H 534.28 4.59808 -3.65856 0
M  V30 5878 H 535.804 5.29558 -3.03976 0
M  V30 5879 H 537.218 3.55427 -4.49827 0
M  V30 5880 H 535.615 3.09408 -5.14186 0
M  V30 5881 H 536.685 1.84219 -4.48544 0
M  V30 5882 N 538.028 1.39524 0.732853 0
M  V30 5883 C 538.958 1.41153 1.86005 0
M  V30 5884 C 539.939 0.274614 1.67869 0
M  V30 5885 O 541.124 0.480745 1.88155 0
M  V30 5886 C 538.254 1.25638 3.23778 0
M  V30 5887 C 537.208 2.36752 3.56556 0
M  V30 5888 C 536.534 2.06326 4.93289 0
M  V30 5889 C 537.834 3.79069 3.5931 0
M  V30 5890 H 539.528 2.35484 1.84899 0
M  V30 5891 H 537.074 1.13348 0.888162 0
M  V30 5892 H 539.027 1.25398 4.0231 0
M  V30 5893 H 537.751 0.277772 3.25417 0
M  V30 5894 H 536.41 2.36213 2.80355 0
M  V30 5895 H 536.058 1.06897 4.9151 0
M  V30 5896 H 535.758 2.80757 5.16187 0
M  V30 5897 H 537.282 2.07739 5.74175 0
M  V30 5898 H 538.696 3.81526 4.27914 0
M  V30 5899 H 537.093 4.52878 3.93728 0
M  V30 5900 H 538.163 4.09893 2.59068 0
M  V30 5901 N 539.506 -0.963266 1.24736 0
M  V30 5902 C 540.454 -2.07985 1.04139 0
M  V30 5903 C 541.448 -1.69381 -0.0250556 0
M  V30 5904 O 542.654 -1.79531 0.129863 0
M  V30 5905 H 539.029 -0.680627 0.319768 0
M  V30 5906 H 541 -2.22517 1.98818 0
M  V30 5907 C 539.749 -3.4123 0.667615 0
M  V30 5908 H 539.072 -3.71397 1.48 0
M  V30 5909 H 540.512 -4.20244 0.563136 0
M  V30 5910 C 538.971 -3.3104 -0.625647 0
M  V30 5911 O 539.501 -3.65334 -1.67016 0
M  V30 5912 N 537.707 -2.84168 -0.608033 0
M  V30 5913 H 537.254 -2.56458 0.242323 0
M  V30 5914 H 537.212 -2.77732 -1.47352 0
M  V30 5915 N 540.985 -1.06182 -1.16461 0
M  V30 5916 C 542.401 -0.785065 -1.38956 0
M  V30 5917 C 542.601 0.616103 -1.9185 0
M  V30 5918 O 541.657 1.37686 -2.11657 0
M  V30 5919 C 542.97 -1.84902 -2.37132 0
M  V30 5920 C 544.518 -1.8724 -2.50819 0
M  V30 5921 C 544.993 -2.92686 -3.52277 0
M  V30 5922 N 546.484 -2.91712 -3.59803 0
M  V30 5923 C 547.219 -3.69949 -4.38093 0
M  V30 5924 N 546.715 -4.58 -5.19815 0
M  V30 5925 N 548.508 -3.58346 -4.33064 0
M  V30 5926 H 540.659 -1.96569 -0.804634 0
M  V30 5927 H 542.922 -0.851747 -0.416211 0
M  V30 5928 H 542.628 -2.85518 -2.0536 0
M  V30 5929 H 542.502 -1.69908 -3.36766 0
M  V30 5930 H 544.889 -0.872827 -2.81897 0
M  V30 5931 H 544.97 -2.06311 -1.51226 0
M  V30 5932 H 544.614 -3.92835 -3.21937 0
M  V30 5933 H 544.544 -2.70864 -4.51598 0
M  V30 5934 H 547.035 -2.27876 -3.01464 0
M  V30 5935 H 547.348 -5.14357 -5.76764 0
M  V30 5936 H 545.693 -4.62056 -5.19162 0
M  V30 5937 H 548.884 -2.88943 -3.68279 0
M  V30 5938 H 549.057 -4.19563 -4.93833 0
M  V30 5939 N 542.463 1.3308 -0.844243 0
M  V30 5940 C 543.393 2.3161 -0.296493 0
M  V30 5941 C 544.374 1.59215 0.598707 0
M  V30 5942 O 545.559 1.87077 0.521134 0
M  V30 5943 C 542.689 3.43313 0.524762 0
M  V30 5944 C 541.643 4.27115 -0.275106 0
M  V30 5945 C 540.969 5.30483 0.670236 0
M  V30 5946 C 542.269 5.00443 -1.49514 0
M  V30 5947 H 543.963 2.77672 -1.11976 0
M  V30 5948 H 541.509 1.33496 -0.539899 0
M  V30 5949 H 543.462 4.11273 0.918298 0
M  V30 5950 H 542.186 2.95952 1.3813 0
M  V30 5951 H 540.845 3.60787 -0.650267 0
M  V30 5952 H 540.493 4.79379 1.52332 0
M  V30 5953 H 540.193 5.87435 0.139123 0
M  V30 5954 H 541.717 6.01308 1.06117 0
M  V30 5955 H 543.131 5.61141 -1.17447 0
M  V30 5956 H 541.528 5.67071 -1.96343 0
M  V30 5957 H 542.598 4.28906 -2.26202 0
M  V30 5958 N 543.941 0.601185 1.45683 0
M  V30 5959 C 545.189 0.0936957 2.01883 0
M  V30 5960 C 545.51 -1.2779 1.47291 0
M  V30 5961 O 544.78 -1.84279 0.664691 0
M  V30 5962 H 543.36 0.0316466 0.746329 0
M  V30 5963 H 546.022 0.781137 1.78562 0
M  V30 5964 H 545.118 0.0386297 3.12076 0
M  V30 5965 N 545.419 -1.53889 0.339982 0
M  V30 5966 C 546.649 -2.04973 -0.258738 0
M  V30 5967 C 547.057 -1.21485 -1.45045 0
M  V30 5968 O 546.4 -0.2422 -1.82096 0
M  V30 5969 C 546.462 -3.51783 -0.740853 0
M  V30 5970 C 546.126 -4.55802 0.330734 0
M  V30 5971 C 547.123 -5.06512 1.17226 0
M  V30 5972 C 544.808 -4.99966 0.483637 0
M  V30 5973 C 546.802 -5.99963 2.15227 0
M  V30 5974 C 544.489 -5.93229 1.46704 0
M  V30 5975 C 545.487 -6.43115 2.29981 0
M  V30 5976 O 545.175 -7.34545 3.26649 0
M  V30 5977 H 544.907 -0.673807 -0.0544037 0
M  V30 5978 H 547.461 -1.99492 0.489107 0
M  V30 5979 H 545.691 -3.54717 -1.53988 0
M  V30 5980 H 547.38 -3.85857 -1.25973 0
M  V30 5981 H 548.146 -4.73158 1.0652 0
M  V30 5982 H 544.025 -4.6074 -0.15471 0
M  V30 5983 H 547.569 -6.38825 2.80265 0
M  V30 5984 H 543.466 -6.25998 1.57468 0
M  V30 5985 H 544.234 -7.52468 3.22078 0
M  V30 5986 N 546.897 -0.0685191 -1.57451 0
M  V30 5987 C 547.845 0.917577 -2.13736 0
M  V30 5988 C 548.839 1.31049 -1.07344 0
M  V30 5989 O 550.045 1.28811 -1.25728 0
M  V30 5990 H 546.42 0.313835 -0.683382 0
M  V30 5991 H 548.391 0.417903 -2.95459 0
M  V30 5992 C 547.14 2.17686 -2.71123 0
M  V30 5993 H 546.463 1.88336 -3.52661 0
M  V30 5994 H 547.903 2.84803 -3.14107 0
M  V30 5995 C 546.362 2.9332 -1.65726 0
M  V30 5996 O 546.892 3.86901 -1.08031 0
M  V30 5997 N 545.098 2.56367 -1.36837 0
M  V30 5998 H 544.645 1.80341 -1.83943 0
M  V30 5999 H 544.603 3.07276 -0.665501 0
M  V30 6000 N 548.375 1.56261 0.205012 0
M  V30 6001 C 549.786 1.70056 0.770574 0
M  V30 6002 C 550.137 0.673398 1.84282 0
M  V30 6003 O 549.262 -0.172196 2.15714 0
M  V30 6004 C 549.857 3.08316 1.40451 0
M  V30 6005 C 548.416 3.2391 1.91727 0
M  V30 6006 C 547.563 2.66001 0.783516 0
M  V30 6007 H 550.514 1.58688 -0.019911 0
M  V30 6008 H 550.535 3.05094 2.27371 0
M  V30 6009 H 550.047 3.83053 0.623882 0
M  V30 6010 H 548.148 2.54072 2.7254 0
M  V30 6011 H 548.261 4.3131 2.08588 0
M  V30 6012 H 546.625 2.24915 1.19521 0
M  V30 6013 H 547.408 3.43297 0.0152883 0
M  V30 6014 N 549.853 -0.472356 1.50355 0
M  V30 6015 C 550.801 -1.59126 1.69651 0
M  V30 6016 C 551.795 -1.59793 0.56237 0
M  V30 6017 O 553.001 -1.63957 0.742832 0
M  V30 6018 H 549.376 -0.528008 0.535454 0
M  V30 6019 H 551.347 -1.40013 2.63513 0
M  V30 6020 C 550.096 -2.97075 1.8067 0
M  V30 6021 H 549.419 -2.9728 2.67329 0
M  V30 6022 H 550.859 -3.74825 1.98197 0
M  V30 6023 C 549.318 -3.32247 0.558016 0
M  V30 6024 O 549.848 -4.00553 -0.303399 0
M  V30 6025 N 548.054 -2.87659 0.412415 0
M  V30 6026 H 547.601 -2.32246 1.11443 0
M  V30 6027 H 547.559 -3.11556 -0.421908 0
M  V30 6028 N 551.331 -1.39911 -0.725443 0
M  V30 6029 C 552.747 -1.21725 -1.03224 0
M  V30 6030 C 552.947 -0.0855224 -2.01318 0
M  V30 6031 O 552.003 0.55976 -2.46217 0
M  V30 6032 C 553.316 -2.55511 -1.58539 0
M  V30 6033 C 554.864 -2.62439 -1.70572 0
M  V30 6034 C 555.339 -3.9647 -2.29294 0
M  V30 6035 N 556.83 -3.98159 -2.36692 0
M  V30 6036 C 557.565 -4.98647 -2.83088 0
M  V30 6037 N 557.061 -6.0953 -3.2931 0
M  V30 6038 N 558.854 -4.8602 -2.82384 0
M  V30 6039 H 551.005 -2.12267 -0.075048 0
M  V30 6040 H 553.268 -0.943136 -0.0959066 0
M  V30 6041 H 552.974 -3.38926 -0.939249 0
M  V30 6042 H 552.848 -2.75905 -2.57208 0
M  V30 6043 H 555.235 -1.79401 -2.34306 0
M  V30 6044 H 555.316 -2.45885 -0.705297 0
M  V30 6045 H 554.96 -4.79942 -1.66186 0
M  V30 6046 H 554.89 -4.10349 -3.30032 0
M  V30 6047 H 557.381 -3.18085 -2.04035 0
M  V30 6048 H 557.694 -6.82106 -3.6325 0
M  V30 6049 H 556.039 -6.1311 -3.27294 0
M  V30 6050 H 559.23 -3.98493 -2.45603 0
M  V30 6051 H 559.403 -5.64478 -3.18226 0
M  V30 6052 N 552.809 0.956637 -1.25245 0
M  V30 6053 C 554.055 1.70352 -1.10036 0
M  V30 6054 C 554.388 1.90869 0.358156 0
M  V30 6055 O 553.663 1.47819 1.26411 0
M  V30 6056 C 553.946 3.08766 -1.85298 0
M  V30 6057 C 553.799 2.95672 -3.38966 0
M  V30 6058 C 555.118 4.08622 -1.63451 0
M  V30 6059 H 552.237 0.618279 -0.401123 0
M  V30 6060 H 554.879 1.11212 -1.54051 0
M  V30 6061 H 553.029 3.59252 -1.47887 0
M  V30 6062 H 554.701 2.52527 -3.86041 0
M  V30 6063 H 552.944 2.31634 -3.6678 0
M  V30 6064 H 553.615 3.93776 -3.86839 0
M  V30 6065 H 556.091 3.67038 -1.96015 0
M  V30 6066 H 554.967 5.03514 -2.18551 0
M  V30 6067 H 555.228 4.3834 -0.575357 0
M  V30 6068 N 554.287 1.06798 1.15896 0
M  V30 6069 C 555.534 0.787767 1.86549 0
M  V30 6070 C 555.862 -0.685959 1.82002 0
M  V30 6071 O 555.117 -1.5188 1.23414 0
M  V30 6072 C 555.416 1.23414 3.35416 0
M  V30 6073 C 555.082 2.71285 3.6016 0
M  V30 6074 C 553.744 3.11676 3.66622 0
M  V30 6075 C 556.096 3.6676 3.7032 0
M  V30 6076 C 553.424 4.4637 3.8075 0
M  V30 6077 C 555.776 5.01209 3.8597 0
M  V30 6078 C 554.44 5.41229 3.90676 0
M  V30 6079 H 553.71 0.288264 0.682631 0
M  V30 6080 H 556.357 1.338 1.37003 0
M  V30 6081 H 554.662 0.60319 3.87129 0
M  V30 6082 H 556.359 0.994298 3.88477 0
M  V30 6083 H 552.949 2.39015 3.55767 0
M  V30 6084 H 557.133 3.36685 3.64633 0
M  V30 6085 H 552.389 4.76855 3.82648 0
M  V30 6086 H 556.563 5.75067 3.92773 0
M  V30 6087 H 554.19 6.45602 4.01375 0
M  V30 6088 N 555.766 -1.3263 0.851289 0
M  V30 6089 C 557.013 -1.97368 0.453023 0
M  V30 6090 C 557.341 -1.67384 -0.990596 0
M  V30 6091 O 556.596 -0.952665 -1.70947 0
M  V30 6092 C 556.895 -3.51713 0.635015 0
M  V30 6093 C 556.561 -4.01676 2.04859 0
M  V30 6094 C 555.223 -4.15031 2.43522 0
M  V30 6095 C 557.575 -4.28206 2.97135 0
M  V30 6096 C 554.903 -4.52257 3.73739 0
M  V30 6097 C 557.255 -4.66889 4.26846 0
M  V30 6098 C 555.919 -4.7845 4.65448 0
M  V30 6099 H 555.189 -0.722219 0.165773 0
M  V30 6100 H 557.836 -1.58092 1.0807 0
M  V30 6101 H 556.141 -3.91726 -0.0759081 0
M  V30 6102 H 557.838 -3.99823 0.306964 0
M  V30 6103 H 554.428 -3.91764 1.73836 0
M  V30 6104 H 558.612 -4.174 2.68498 0
M  V30 6105 H 553.868 -4.59402 4.03435 0
M  V30 6106 H 558.042 -4.86372 4.98413 0
M  V30 6107 H 555.669 -5.07052 5.66395 0
M  V30 6108 N 557.244 -0.608902 -1.45362 0
M  V30 6109 C 558.174 0.0964526 -2.33301 0
M  V30 6110 C 559.155 0.857444 -1.46908 0
M  V30 6111 O 560.34 0.827735 -1.75676 0
M  V30 6112 C 557.47 1.09354 -3.29635 0
M  V30 6113 C 556.424 0.445676 -4.25673 0
M  V30 6114 C 555.75 1.5511 -5.11708 0
M  V30 6115 C 557.05 -0.633972 -5.18438 0
M  V30 6116 H 558.744 -0.637829 -2.92527 0
M  V30 6117 H 556.29 -0.308178 -1.40664 0
M  V30 6118 H 558.243 1.59556 -3.90025 0
M  V30 6119 H 556.967 1.85843 -2.6857 0
M  V30 6120 H 555.626 -0.0354897 -3.66583 0
M  V30 6121 H 555.274 2.30631 -4.4701 0
M  V30 6122 H 554.974 1.12311 -5.76767 0
M  V30 6123 H 556.498 2.05537 -5.74967 0
M  V30 6124 H 557.912 -0.215974 -5.72893 0
M  V30 6125 H 556.309 -0.983789 -5.91981 0
M  V30 6126 H 557.379 -1.51005 -4.60788 0
M  V30 6127 N 558.722 1.53707 -0.348139 0
M  V30 6128 C 559.67 2.26671 0.521808 0
M  V30 6129 C 560.664 1.28988 1.09811 0
M  V30 6130 O 561.87 1.4668 1.04332 0
M  V30 6131 H 558.245 0.728387 0.186968 0
M  V30 6132 H 560.216 2.98176 -0.115563 0
M  V30 6133 C 558.965 3.05591 1.6586 0
M  V30 6134 H 558.288 3.80589 1.22443 0
M  V30 6135 H 559.728 3.59851 2.24239 0
M  V30 6136 C 558.187 2.15366 2.59073 0
M  V30 6137 O 558.717 1.7528 3.61441 0
M  V30 6138 N 556.923 1.80352 2.27863 0
M  V30 6139 H 556.47 2.13149 1.44656 0
M  V30 6140 H 556.428 1.20268 2.90488 0
M  V30 6141 N 560.2 0.0768682 1.57412 0
M  V30 6142 C 561.446 -0.591961 1.93968 0
M  V30 6143 C 561.779 -1.68954 0.9575 0
M  V30 6144 O 561.054 -1.94496 -0.0124675 0
M  V30 6145 C 561.337 -1.16418 3.40762 0
M  V30 6146 C 561.19 -0.0728933 4.49741 0
M  V30 6147 C 562.509 -2.06814 3.88479 0
M  V30 6148 H 559.628 -0.213716 0.705333 0
M  V30 6149 H 562.27 0.14387 1.89455 0
M  V30 6150 H 560.42 -1.79128 3.4474 0
M  V30 6151 H 562.092 0.560446 4.57883 0
M  V30 6152 H 560.335 0.595859 4.29688 0
M  V30 6153 H 561.006 -0.513755 5.49604 0
M  V30 6154 H 563.482 -1.54033 3.8654 0
M  V30 6155 H 562.358 -2.43785 4.91793 0
M  V30 6156 H 562.619 -2.97844 3.26713 0
M  V30 6157 N 561.678 -1.56367 -0.196722 0
M  V30 6158 C 563.089 -1.70462 -0.761545 0
M  V30 6159 C 563.44 -0.683161 -1.83922 0
M  V30 6160 O 562.565 0.160753 -2.15802 0
M  V30 6161 C 563.16 -3.09057 -1.38814 0
M  V30 6162 C 561.719 -3.24922 -1.90007 0
M  V30 6163 C 560.866 -2.66412 -0.769399 0
M  V30 6164 H 563.817 -1.58675 0.0283263 0
M  V30 6165 H 563.838 -3.06296 -2.2575 0
M  V30 6166 H 563.35 -3.83378 -0.603559 0
M  V30 6167 H 561.451 -2.55514 -2.71189 0
M  V30 6168 H 561.564 -4.3241 -2.06297 0
M  V30 6169 H 559.928 -2.25546 -1.18326 0
M  V30 6170 H 560.711 -3.433 0.00291773 0
M  V30 6171 N 563.156 0.464375 -1.50603 0
M  V30 6172 C 564.403 1.21596 -1.61928 0
M  V30 6173 C 564.731 1.91804 -0.322737 0
M  V30 6174 O 563.986 1.83065 0.691776 0
M  V30 6175 C 564.285 2.278 -2.75394 0
M  V30 6176 C 563.951 1.74797 -4.1564 0
M  V30 6177 C 562.613 1.60063 -4.53799 0
M  V30 6178 C 564.965 1.35548 -5.03266 0
M  V30 6179 C 562.293 1.04514 -5.77316 0
M  V30 6180 C 564.645 0.814381 -6.27336 0
M  V30 6181 C 563.309 0.653726 -6.64291 0
M  V30 6182 H 562.579 0.444951 -0.592536 0
M  V30 6183 H 565.226 0.510964 -1.84557 0
M  V30 6184 H 563.531 3.04233 -2.46879 0
M  V30 6185 H 565.228 2.85723 -2.81359 0
M  V30 6186 H 561.818 1.87234 -3.8554 0
M  V30 6187 H 566.002 1.45763 -4.74412 0
M  V30 6188 H 561.258 0.908186 -6.04617 0
M  V30 6189 H 565.432 0.501626 -6.94591 0
M  V30 6190 H 563.059 0.22114 -7.59878 0
M  V30 6191 N 564.634 1.40294 0.718013 0
M  V30 6192 C 565.911 1.2894 1.47084 0
M  V30 6193 C 566.291 -0.0933625 2.10893 0
M  V30 6194 O 565.639 -1.10598 1.99951 0
M  V30 6195 C 565.849 2.4264 2.50852 0
M  V30 6196 C 567.197 2.8276 3.16752 0
M  V30 6197 O 568.221 2.42215 2.61171 0
M  V30 6198 O 567.08 3.528 4.17366 0
M  V30 6199 H 564.174 0.506236 0.653952 0
M  V30 6200 H 566.72 1.52208 0.750394 0
M  V30 6201 H 565.492 3.35009 2.022 0
M  V30 6202 H 565.115 2.21129 3.30435 0
M  V30 6203 N 566.112 -0.949982 1.2575 0
M  V30 6204 C 567.337 -1.73503 1.13628 0
M  V30 6205 C 567.762 -1.85601 -0.30559 0
M  V30 6206 O 567.12 -1.33984 -1.22139 0
M  V30 6207 C 567.168 -3.1243 1.80055 0
M  V30 6208 O 566.272 -3.97916 1.08336 0
M  V30 6209 H 565.613 -0.532665 0.396439 0
M  V30 6210 H 568.143 -1.19043 1.66403 0
M  V30 6211 H 568.153 -3.62866 1.86527 0
M  V30 6212 H 566.828 -3.02941 2.84956 0
M  V30 6213 H 565.405 -3.56375 1.09777 0
M  V30 6214 N 567.59 -1.07411 -1.15328 0
M  V30 6215 C 568.839 -0.792643 -1.85473 0
M  V30 6216 C 569.152 0.683789 -1.83259 0
M  V30 6217 O 570.358 1.08005 -2.49093 0
M  V30 6218 C 568.814 -1.36787 -3.32892 0
M  V30 6219 C 568.422 -2.87536 -3.43551 0
M  V30 6220 C 570.166 -1.16444 -4.08217 0
M  V30 6221 C 568.073 -3.38247 -4.85122 0
M  V30 6222 H 567.003 -0.292838 -0.694811 0
M  V30 6223 H 569.654 -1.29426 -1.30082 0
M  V30 6224 H 568.036 -0.793993 -3.87958 0
M  V30 6225 H 569.21 -3.50973 -2.98588 0
M  V30 6226 H 567.525 -3.06676 -2.81672 0
M  V30 6227 H 570.122 -1.51808 -5.12697 0
M  V30 6228 H 570.465 -0.10353 -4.16171 0
M  V30 6229 H 570.998 -1.70472 -3.59422 0
M  V30 6230 H 567.737 -4.43866 -4.82351 0
M  V30 6231 H 567.257 -2.79564 -5.30664 0
M  V30 6232 H 568.936 -3.34238 -5.5398 0
M  V30 6233 N 569.068 1.32177 -0.85831 0
M  V30 6234 C 570.001 2.26823 -0.25035 0
M  V30 6235 C 570.979 1.50571 0.61378 0
M  V30 6236 O 572.163 1.79682 0.569777 0
M  V30 6237 C 569.29 3.32472 0.646556 0
M  V30 6238 C 568.336 4.26255 -0.144675 0
M  V30 6239 S 569.169 5.13608 -1.5155 0
M  V30 6240 C 570.325 6.22778 -0.624408 0
M  V30 6241 H 570.558 2.7804 -1.05267 0
M  V30 6242 H 568.091 1.39764 -0.656152 0
M  V30 6243 H 570.049 3.93817 1.15837 0
M  V30 6244 H 568.71 2.80031 1.42272 0
M  V30 6245 H 567.903 5.01114 0.538613 0
M  V30 6246 H 567.505 3.69346 -0.588198 0
M  V30 6247 H 569.797 6.77287 0.169846 0
M  V30 6248 H 570.74 6.95233 -1.34376 0
M  V30 6249 H 571.148 5.64156 -0.197128 0
M  V30 6250 N 570.547 0.616602 1.45037 0
M  V30 6251 C 571.457 -0.0985401 2.34393 0
M  V30 6252 C 572.473 -0.850971 1.51771 0
M  V30 6253 O 573.649 -0.806521 1.84546 0
M  V30 6254 C 570.714 -1.07748 3.29532 0
M  V30 6255 C 569.775 -0.326022 4.2806 0
M  V30 6256 C 569.008 -1.25833 5.18654 0
M  V30 6257 O 569.231 -2.49652 5.12864 0
M  V30 6258 O 568.165 -0.750512 5.97203 0
M  V30 6259 H 571.991 0.636016 2.96966 0
M  V30 6260 H 569.576 0.376832 1.44569 0
M  V30 6261 H 571.458 -1.64107 3.88133 0
M  V30 6262 H 570.133 -1.79291 2.69512 0
M  V30 6263 H 569.04 0.280253 3.73049 0
M  V30 6264 H 570.373 0.349091 4.9096 0
M  V30 6265 N 572.025 -1.5352 0.356285 0
M  V30 6266 C 573.441 -1.59599 0.00485267 0
M  V30 6267 C 573.641 -1.37179 -1.47595 0
M  V30 6268 O 572.697 -1.17234 -2.23635 0
M  V30 6269 C 574.01 -2.97277 0.452454 0
M  V30 6270 C 575.558 -3.10357 0.405881 0
M  V30 6271 C 576.033 -4.50432 0.829148 0
M  V30 6272 N 577.524 -4.5652 0.783838 0
M  V30 6273 C 578.259 -5.63077 1.08315 0
M  V30 6274 N 577.755 -6.77429 1.45126 0
M  V30 6275 N 579.548 -5.53014 1.00655 0
M  V30 6276 H 571.699 -1.66346 1.32071 0
M  V30 6277 H 573.962 -0.77971 0.539218 0
M  V30 6278 H 573.668 -3.18792 1.48542 0
M  V30 6279 H 573.542 -3.76836 -0.165762 0
M  V30 6280 H 575.929 -2.88558 -0.617934 0
M  V30 6281 H 576.01 -2.32828 1.05947 0
M  V30 6282 H 575.654 -4.72968 1.85103 0
M  V30 6283 H 575.584 -5.26378 0.152906 0
M  V30 6284 H 578.075 -3.74408 0.512513 0
M  V30 6285 H 578.388 -7.54669 1.66415 0
M  V30 6286 H 576.733 -6.78844 1.48983 0
M  V30 6287 H 579.924 -4.62557 0.718215 0
M  V30 6288 H 580.097 -6.35964 1.24315 0
M  V30 6289 N 573.503 -0.0852151 -1.57369 0
M  V30 6290 C 574.433 0.874556 -2.16503 0
M  V30 6291 C 575.414 1.30111 -1.09568 0
M  V30 6292 O 576.599 1.36977 -1.37662 0
M  V30 6293 C 573.729 2.13731 -2.73745 0
M  V30 6294 C 572.683 1.84971 -3.85966 0
M  V30 6295 C 572.009 3.17991 -4.29867 0
M  V30 6296 C 573.309 1.14442 -5.09608 0
M  V30 6297 H 575.003 0.381899 -2.96954 0
M  V30 6298 H 572.549 0.18225 -1.42842 0
M  V30 6299 H 574.502 2.81302 -3.13763 0
M  V30 6300 H 573.226 2.65263 -1.90534 0
M  V30 6301 H 571.885 1.19801 -3.46473 0
M  V30 6302 H 571.533 3.6739 -3.4356 0
M  V30 6303 H 571.233 2.99534 -5.05523 0
M  V30 6304 H 572.757 3.86737 -4.72511 0
M  V30 6305 H 574.171 1.72105 -5.46857 0
M  V30 6306 H 572.568 1.06197 -5.90629 0
M  V30 6307 H 573.638 0.12559 -4.84737 0
M  V30 6308 N 574.981 1.5647 0.188427 0
M  V30 6309 C 576.209 1.85131 0.923803 0
M  V30 6310 C 576.624 0.668537 1.76567 0
M  V30 6311 O 575.981 -0.362662 1.7886 0
M  V30 6312 C 576.032 3.12661 1.81453 0
M  V30 6313 O 575.753 4.26378 1.00665 0
M  V30 6314 C 577.254 3.54548 2.66103 0
M  V30 6315 H 574.474 0.614624 0.269218 0
M  V30 6316 H 577.018 2.03581 0.193671 0
M  V30 6317 H 575.173 2.96088 2.49821 0
M  V30 6318 H 575.587 4.99041 1.61425 0
M  V30 6319 H 577.061 4.4673 3.24247 0
M  V30 6320 H 577.538 2.77853 3.40139 0
M  V30 6321 H 578.144 3.73674 2.03096 0
M  V30 6322 N 576.459 -0.456382 1.50847 0
M  V30 6323 C 577.389 -1.56025 1.73719 0
M  V30 6324 C 578.37 -1.5967 0.586473 0
M  V30 6325 O 579.555 -1.75702 0.827185 0
M  V30 6326 C 576.685 -2.94251 1.84483 0
M  V30 6327 C 575.639 -3.05471 2.99786 0
M  V30 6328 C 574.965 -4.45489 2.95709 0
M  V30 6329 C 576.265 -2.81318 4.40065 0
M  V30 6330 H 577.959 -1.37138 2.66146 0
M  V30 6331 H 575.505 -0.658299 1.28072 0
M  V30 6332 H 577.458 -3.71417 1.99067 0
M  V30 6333 H 576.182 -3.14328 0.886891 0
M  V30 6334 H 574.841 -2.30741 2.84876 0
M  V30 6335 H 574.489 -4.62505 1.97732 0
M  V30 6336 H 574.189 -4.53929 3.73125 0
M  V30 6337 H 575.713 -5.24655 3.12362 0
M  V30 6338 H 577.127 -3.48226 4.55425 0
M  V30 6339 H 575.524 -3.01188 5.19043 0
M  V30 6340 H 576.594 -1.7706 4.51418 0
M  V30 6341 N 577.937 -1.40673 -0.710563 0
M  V30 6342 C 579.353 -1.22813 -1.01928 0
M  V30 6343 C 579.553 -0.10687 -2.01216 0
M  V30 6344 O 578.609 0.533614 -2.46797 0
M  V30 6345 C 579.922 -2.57178 -1.5582 0
M  V30 6346 C 581.47 -2.64233 -1.67779 0
M  V30 6347 C 581.945 -3.98879 -2.25076 0
M  V30 6348 N 583.436 -4.00647 -2.32456 0
M  V30 6349 C 584.171 -5.01621 -2.77784 0
M  V30 6350 N 583.667 -6.12989 -3.22826 0
M  V30 6351 N 585.46 -4.88988 -2.77213 0
M  V30 6352 H 577.611 -2.12335 -0.05253 0
M  V30 6353 H 579.874 -0.9441 -0.085898 0
M  V30 6354 H 579.58 -3.39903 -0.903249 0
M  V30 6355 H 579.454 -2.78618 -2.54267 0
M  V30 6356 H 581.841 -1.81876 -2.3239 0
M  V30 6357 H 581.922 -2.46619 -0.679178 0
M  V30 6358 H 581.566 -4.81678 -1.61086 0
M  V30 6359 H 581.496 -4.13826 -3.25661 0
M  V30 6360 H 583.987 -3.20231 -2.0065 0
M  V30 6361 H 584.3 -6.85921 -3.55995 0
M  V30 6362 H 582.645 -6.16547 -3.20773 0
M  V30 6363 H 585.836 -4.01075 -2.41363 0
M  V30 6364 H 586.009 -5.67822 -3.12221 0
M  V30 6365 N 579.415 0.9433 -1.26252 0
M  V30 6366 C 580.831 1.21644 -1.03319 0
M  V30 6367 C 581.031 2.0003 0.242983 0
M  V30 6368 O 580.087 2.33838 0.952688 0
M  V30 6369 C 581.4 1.97978 -2.2633 0
M  V30 6370 C 582.948 2.10978 -2.31209 0
M  V30 6371 C 583.423 2.90713 -3.53907 0
M  V30 6372 N 584.914 2.98287 -3.54371 0
M  V30 6373 C 585.649 3.60406 -4.45976 0
M  V30 6374 N 585.145 4.24043 -5.47868 0
M  V30 6375 N 586.938 3.57658 -4.33633 0
M  V30 6376 H 579.089 0.419221 -2.08222 0
M  V30 6377 H 581.352 0.247995 -0.914988 0
M  V30 6378 H 581.058 1.47788 -3.19142 0
M  V30 6379 H 580.932 2.9865 -2.30408 0
M  V30 6380 H 583.319 2.6036 -1.38913 0
M  V30 6381 H 583.4 1.09575 -2.31143 0
M  V30 6382 H 583.044 2.42018 -4.46531 0
M  V30 6383 H 582.974 3.92367 -3.5122 0
M  V30 6384 H 585.465 2.53044 -2.80673 0
M  V30 6385 H 585.778 4.69334 -6.13959 0
M  V30 6386 H 584.123 4.22637 -5.51728 0
M  V30 6387 H 587.314 3.07134 -3.53251 0
M  V30 6388 H 587.487 4.05782 -5.05218 0
M  V30 6389 N 580.893 1.08022 1.14757 0
M  V30 6390 C 582.142 0.802468 1.8505 0
M  V30 6391 C 582.455 -0.674061 1.83619 0
M  V30 6392 O 583.661 -1.06683 2.49662 0
M  V30 6393 C 582.117 1.38551 3.32162 0
M  V30 6394 C 581.725 2.89354 3.42021 0
M  V30 6395 C 583.469 1.18608 4.07594 0
M  V30 6396 C 581.376 3.40815 4.83321 0
M  V30 6397 H 580.306 0.296518 0.693248 0
M  V30 6398 H 582.957 1.30114 1.29393 0
M  V30 6399 H 581.339 0.814556 3.87532 0
M  V30 6400 H 582.513 3.52552 2.96722 0
M  V30 6401 H 580.828 3.08165 2.80041 0
M  V30 6402 H 583.425 1.54525 5.11885 0
M  V30 6403 H 583.768 0.125599 4.1611 0
M  V30 6404 H 584.301 1.72375 3.58513 0
M  V30 6405 H 581.04 4.46418 4.79991 0
M  V30 6406 H 580.56 2.82374 5.29174 0
M  V30 6407 H 582.239 3.37171 5.522 0
M  V30 6408 N 582.371 -1.3172 0.865308 0
M  V30 6409 C 583.648 -1.91574 0.394789 0
M  V30 6410 C 584.028 -1.78769 -1.12271 0
M  V30 6411 O 583.376 -1.19245 -1.94918 0
M  V30 6412 C 583.586 -3.37957 0.870982 0
M  V30 6413 C 584.934 -4.15073 0.894384 0
M  V30 6414 O 585.958 -3.4672 0.816325 0
M  V30 6415 O 584.817 -5.37151 1.00651 0
M  V30 6416 H 581.911 -0.818649 0.117229 0
M  V30 6417 H 584.457 -1.4042 0.952913 0
M  V30 6418 H 583.229 -3.41269 1.91444 0
M  V30 6419 H 582.852 -3.96534 0.290907 0
M  V30 6420 N 583.85 -0.624285 -1.44708 0
M  V30 6421 C 585.26 -0.2092 -1.85524 0
M  V30 6422 C 585.611 1.23783 -1.52225 0
M  V30 6423 O 584.736 1.94089 -0.956986 0
M  V30 6424 C 585.332 -0.372897 -3.36742 0
M  V30 6425 C 583.891 -0.012374 -3.76398 0
M  V30 6426 C 583.038 -0.68951 -2.68591 0
M  V30 6427 H 585.989 -0.829894 -1.35272 0
M  V30 6428 H 586.01 0.390134 -3.78495 0
M  V30 6429 H 585.522 -1.42615 -3.60947 0
M  V30 6430 H 583.623 1.03941 -3.57809 0
M  V30 6431 H 583.736 -0.417663 -4.77276 0
M  V30 6432 H 582.1 -0.125484 -2.54391 0
M  V30 6433 H 582.883 -1.74522 -2.9563 0
M  V30 6434 N 585.328 1.53329 -0.364422 0
M  V30 6435 C 586.574 2.01537 0.225969 0
M  V30 6436 C 586.907 1.25128 1.48515 0
M  V30 6437 O 586.182 0.344653 1.91422 0
M  V30 6438 C 586.465 3.56339 0.519092 0
M  V30 6439 C 586.318 4.43441 -0.753639 0
M  V30 6440 C 587.637 4.19833 1.32015 0
M  V30 6441 H 584.756 0.732573 0.0806548 0
M  V30 6442 H 587.398 1.83597 -0.489084 0
M  V30 6443 H 585.548 3.71756 1.12825 0
M  V30 6444 H 587.22 4.39823 -1.39116 0
M  V30 6445 H 585.463 4.11457 -1.37424 0
M  V30 6446 H 586.134 5.49699 -0.503517 0
M  V30 6447 H 588.61 4.08242 0.804859 0
M  V30 6448 H 587.486 5.28177 1.49399 0
M  V30 6449 H 587.747 3.75821 2.32832 0
M  V30 6450 N 586.806 0.0935595 1.57322 0
M  V30 6451 C 588.034 -0.578934 1.98635 0
M  V30 6452 C 588.449 -1.61819 0.972626 0
M  V30 6453 O 587.806 -1.82461 -0.0379638 0
M  V30 6454 C 587.857 -1.22802 3.40003 0
M  V30 6455 O 587.578 -0.230334 4.37494 0
M  V30 6456 C 589.079 -1.98627 3.96311 0
M  V30 6457 H 586.299 -0.155324 0.652775 0
M  V30 6458 H 588.843 0.172393 2.03772 0
M  V30 6459 H 586.998 -1.93029 3.35885 0
M  V30 6460 H 587.412 -0.698649 5.19826 0
M  V30 6461 H 588.886 -2.39405 4.97382 0
M  V30 6462 H 589.363 -2.85151 3.34044 0
M  V30 6463 H 589.969 -1.3322 4.03897 0
M  V30 6464 N 588.284 -1.56567 -0.180126 0
M  V30 6465 C 589.532 -1.81133 -0.896392 0
M  V30 6466 C 589.853 -0.669114 -1.83161 0
M  V30 6467 O 589.123 0.311616 -1.93406 0
M  V30 6468 H 587.703 -0.668172 -0.333999 0
M  V30 6469 H 590.365 -1.94048 -0.182051 0
M  V30 6470 H 589.461 -2.74854 -1.47857 0
M  V30 6471 N 589.762 0.448376 -1.51087 0
M  V30 6472 C 590.672 1.56882 -1.74428 0
M  V30 6473 C 591.688 1.62268 -0.62809 0
M  V30 6474 O 592.864 1.79716 -0.909075 0
M  V30 6475 C 589.929 2.92947 -1.85426 0
M  V30 6476 C 588.99 2.97766 -3.09247 0
M  V30 6477 C 588.223 4.27341 -3.19711 0
M  V30 6478 O 588.446 5.19112 -2.36387 0
M  V30 6479 O 587.38 4.38219 -4.12611 0
M  V30 6480 H 591.206 1.40104 -2.69452 0
M  V30 6481 H 588.791 0.630247 -1.35456 0
M  V30 6482 H 590.673 3.73719 -1.94709 0
M  V30 6483 H 589.348 3.09876 -0.935887 0
M  V30 6484 H 588.255 2.15989 -3.0545 0
M  V30 6485 H 589.588 2.8578 -4.00738 0
M  V30 6486 N 591.24 1.41047 0.703093 0
M  V30 6487 C 592.656 1.23351 1.01275 0
M  V30 6488 C 592.856 0.11754 2.01157 0
M  V30 6489 O 591.912 -0.520518 2.47077 0
M  V30 6490 C 593.225 2.58001 1.54454 0
M  V30 6491 C 594.773 2.65119 1.66376 0
M  V30 6492 C 595.248 4.00067 2.22958 0
M  V30 6493 N 596.739 4.01875 2.30328 0
M  V30 6494 C 597.474 5.03087 2.75119 0
M  V30 6495 N 596.97 6.14692 3.19571 0
M  V30 6496 N 598.763 4.90451 2.74616 0
M  V30 6497 H 590.914 2.1236 0.0412686 0
M  V30 6498 H 593.177 0.944543 0.08089 0
M  V30 6499 H 592.883 3.40378 0.88521 0
M  V30 6500 H 592.757 2.79962 2.52786 0
M  V30 6501 H 595.144 1.83106 2.31422 0
M  V30 6502 H 595.225 2.46975 0.666089 0
M  V30 6503 H 594.869 4.82526 1.58529 0
M  V30 6504 H 594.799 4.15547 3.23462 0
M  V30 6505 H 597.29 3.21291 1.98949 0
M  V30 6506 H 597.603 6.87799 3.52352 0
M  V30 6507 H 595.948 6.18239 3.17498 0
M  V30 6508 H 599.139 4.0235 2.39233 0
M  V30 6509 H 599.312 5.6947 3.09206 0
M  V30 6510 N 592.718 -0.936591 1.26751 0
M  V30 6511 C 593.948 -1.71509 1.15188 0
M  V30 6512 C 594.356 -1.86885 -0.295037 0
M  V30 6513 O 593.699 -1.37915 -1.21347 0
M  V30 6514 C 593.761 -3.13853 1.75318 0
M  V30 6515 C 593.425 -3.21845 3.24445 0
M  V30 6516 C 594.422 -3.04771 4.21201 0
M  V30 6517 C 592.107 -3.45088 3.64992 0
M  V30 6518 C 594.101 -3.10816 5.56482 0
M  V30 6519 C 591.788 -3.50767 5.00405 0
M  V30 6520 C 592.786 -3.33648 5.9596 0
M  V30 6521 O 592.474 -3.39045 7.28906 0
M  V30 6522 H 592.206 -0.543658 0.401761 0
M  V30 6523 H 594.76 -1.18234 1.67958 0
M  V30 6524 H 592.99 -3.6857 1.17016 0
M  V30 6525 H 594.679 -3.73634 1.58596 0
M  V30 6526 H 595.445 -2.86665 3.91214 0
M  V30 6527 H 591.324 -3.57467 2.91098 0
M  V30 6528 H 594.868 -2.97372 6.31043 0
M  V30 6529 H 590.765 -3.68396 5.30052 0
M  V30 6530 H 591.533 -3.55558 7.37238 0
M  V30 6531 N 594.196 -1.08629 -1.14182 0
M  V30 6532 C 595.146 -0.687882 -2.17376 0
M  V30 6533 C 596.13 0.293632 -1.58198 0
M  V30 6534 O 597.322 0.105292 -1.76687 0
M  V30 6535 C 594.451 -0.101184 -3.43151 0
M  V30 6536 C 593.537 -1.10862 -4.09354 0
M  V30 6537 N 593.928 -2.29285 -4.50846 0
M  V30 6538 C 592.226 -0.944897 -4.35876 0
M  V30 6539 C 592.927 -2.93305 -5.02342 0
M  V30 6540 N 591.903 -2.20903 -4.96692 0
M  V30 6541 H 595.705 -1.58963 -2.472 0
M  V30 6542 H 593.219 -0.961329 -1.3089 0
M  V30 6543 H 595.216 0.202209 -4.16409 0
M  V30 6544 H 593.876 0.795522 -3.14804 0
M  V30 6545 H 594.887 -2.66927 -4.43813 0
M  V30 6546 H 591.564 -0.102186 -4.17375 0
M  V30 6547 H 592.954 -3.93932 -5.44304 0
M  V30 6548 N 595.674 1.31259 -0.872281 0
M  V30 6549 C 596.604 2.30929 -0.345554 0
M  V30 6550 C 597.585 1.60449 0.5648 0
M  V30 6551 O 598.77 1.8814 0.481335 0
M  V30 6552 C 595.9 3.44348 0.451823 0
M  V30 6553 C 594.854 4.26435 -0.365641 0
M  V30 6554 C 594.18 5.31785 0.557562 0
M  V30 6555 C 595.48 4.97159 -1.60095 0
M  V30 6556 H 597.174 2.75234 -1.17841 0
M  V30 6557 H 594.72 1.3232 -0.568094 0
M  V30 6558 H 596.673 4.13128 0.830854 0
M  V30 6559 H 595.397 2.98816 1.31821 0
M  V30 6560 H 594.056 3.59326 -0.726649 0
M  V30 6561 H 593.704 4.82502 1.4213 0
M  V30 6562 H 593.404 5.87598 0.0144878 0
M  V30 6563 H 594.928 6.03424 0.933387 0
M  V30 6564 H 596.342 5.58523 -1.29323 0
M  V30 6565 H 594.739 5.62779 -2.08327 0
M  V30 6566 H 595.809 4.24012 -2.35249 0
M  V30 6567 N 597.152 0.631951 1.44375 0
M  V30 6568 C 598.085 -0.121822 2.27875 0
M  V30 6569 C 599.063 -0.850457 1.38586 0
M  V30 6570 O 600.247 -0.854378 1.68026 0
M  V30 6571 C 597.374 -1.17859 3.17533 0
M  V30 6572 C 596.42 -0.550391 4.22934 0
M  V30 6573 S 597.253 0.660145 5.31415 0
M  V30 6574 C 598.409 -0.396613 6.24642 0
M  V30 6575 H 598.642 0.586537 2.91457 0
M  V30 6576 H 596.175 0.420146 1.48574 0
M  V30 6577 H 598.133 -1.78335 3.69739 0
M  V30 6578 H 596.794 -1.85915 2.53169 0
M  V30 6579 H 595.987 -1.34631 4.85685 0
M  V30 6580 H 595.589 -0.0202306 3.73995 0
M  V30 6581 H 597.881 -1.26893 6.65511 0
M  V30 6582 H 598.824 0.195345 7.0783 0
M  V30 6583 H 599.232 -0.72288 5.59852 0
M  V30 6584 N 598.631 -1.53133 0.372548 0
M  V30 6585 C 599.861 -2.05476 -0.215202 0
M  V30 6586 C 600.269 -1.24534 -1.42436 0
M  V30 6587 O 599.612 -0.280771 -1.81542 0
M  V30 6588 C 599.674 -3.53276 -0.666068 0
M  V30 6589 C 599.338 -4.54998 0.427342 0
M  V30 6590 C 600.335 -5.03911 1.27944 0
M  V30 6591 C 598.02 -4.98828 0.589579 0
M  V30 6592 C 600.014 -5.95263 2.27905 0
M  V30 6593 C 597.701 -5.89984 1.59255 0
M  V30 6594 C 598.699 -6.38093 2.43571 0
M  V30 6595 O 598.387 -7.27451 3.42156 0
M  V30 6596 H 598.119 -0.67481 -0.040099 0
M  V30 6597 H 600.673 -1.98409 0.531312 0
M  V30 6598 H 598.903 -3.57904 -1.4643 0
M  V30 6599 H 600.592 -3.88442 -1.1776 0
M  V30 6600 H 601.358 -4.70792 1.16532 0
M  V30 6601 H 597.237 -4.60965 -0.0569456 0
M  V30 6602 H 600.781 -6.32736 2.93753 0
M  V30 6603 H 596.678 -6.22518 1.70711 0
M  V30 6604 H 597.446 -7.45467 3.37967 0
M  V30 6605 N 600.109 -0.101901 -1.5727 0
M  V30 6606 C 601.056 0.854577 -2.14396 0
M  V30 6607 C 602.026 1.27521 -1.06432 0
M  V30 6608 O 603.211 1.35575 -1.34253 0
M  V30 6609 C 600.351 2.10576 -2.73408 0
M  V30 6610 C 599.464 1.73504 -3.95626 0
M  V30 6611 C 598.599 2.9346 -4.42781 0
M  V30 6612 C 597.638 2.52547 -5.57572 0
M  V30 6613 N 596.775 3.65359 -5.99547 0
M  V30 6614 H 601.615 0.360578 -2.9581 0
M  V30 6615 H 599.152 0.166303 -1.46157 0
M  V30 6616 H 601.11 2.83859 -3.05745 0
M  V30 6617 H 599.74 2.57463 -1.94711 0
M  V30 6618 H 598.792 0.901622 -3.6956 0
M  V30 6619 H 600.104 1.39426 -4.78917 0
M  V30 6620 H 599.258 3.74988 -4.76937 0
M  V30 6621 H 597.997 3.30753 -3.58404 0
M  V30 6622 H 597.002 1.69446 -5.23037 0
M  V30 6623 H 598.227 2.1639 -6.43702 0
M  V30 6624 H 596.173 4.02358 -5.18116 0
M  V30 6625 H 596.09 3.35148 -6.77652 0
M  V30 6626 H 597.358 4.47378 -6.38336 0
M  V30 6627 N 601.587 1.56661 0.17182 0
M  V30 6628 C 602.998 1.71652 0.734329 0
M  V30 6629 C 603.349 0.712335 1.82812 0
M  V30 6630 O 602.474 -0.126401 2.16031 0
M  V30 6631 C 603.069 3.11226 1.3388 0
M  V30 6632 C 601.628 3.27904 1.84813 0
M  V30 6633 C 600.775 2.67603 0.726917 0
M  V30 6634 H 603.726 1.5861 -0.0535665 0
M  V30 6635 H 603.747 3.09849 2.20849 0
M  V30 6636 H 603.259 3.8429 0.54249 0
M  V30 6637 H 601.36 2.59796 2.6709 0
M  V30 6638 H 601.473 4.35637 1.99392 0
M  V30 6639 H 599.837 2.274 1.14723 0
M  V30 6640 H 600.62 3.43252 -0.0575334 0
M  V30 6641 N 603.065 -0.440357 1.51323 0
M  V30 6642 C 604.476 -1.02032 1.56353 0
M  V30 6643 C 604.827 -1.92382 0.385197 0
M  V30 6644 O 603.952 -2.10583 -0.498373 0
M  V30 6645 C 604.547 -1.85723 2.83359 0
M  V30 6646 C 603.106 -2.38774 2.90971 0
M  V30 6647 C 602.253 -1.17908 2.50984 0
M  V30 6648 H 605.204 -0.221744 1.57143 0
M  V30 6649 H 605.225 -2.71141 2.66951 0
M  V30 6650 H 604.737 -1.19939 3.69102 0
M  V30 6651 H 602.838 -3.08021 2.09651 0
M  V30 6652 H 602.951 -2.71778 3.94555 0
M  V30 6653 H 601.315 -1.52347 2.04114 0
M  V30 6654 H 602.098 -0.537393 3.39068 0
M  V30 6655 N 604.543 -1.41418 -0.695603 0
M  V30 6656 C 605.954 -1.36335 -1.27552 0
M  V30 6657 C 606.305 -0.0464336 -1.96145 0
M  V30 6658 O 605.43 0.855304 -1.9878 0
M  V30 6659 C 606.025 -2.46941 -2.3196 0
M  V30 6660 C 604.584 -2.45256 -2.85529 0
M  V30 6661 C 603.731 -2.2679 -1.59566 0
M  V30 6662 H 606.682 -1.50934 -0.490362 0
M  V30 6663 H 606.703 -2.15997 -3.1325 0
M  V30 6664 H 606.215 -3.42775 -1.82008 0
M  V30 6665 H 604.316 -1.53179 -3.39657 0
M  V30 6666 H 604.429 -3.41565 -3.35961 0
M  V30 6667 H 602.793 -1.74667 -1.85374 0
M  V30 6668 H 603.576 -3.24651 -1.1161 0
M  V30 6669 N 606.021 0.929856 -1.27246 0
M  V30 6670 C 607.249 1.71144 -1.16265 0
M  V30 6671 C 607.664 1.867 0.280786 0
M  V30 6672 O 607.021 1.38249 1.19136 0
M  V30 6673 C 607.072 3.11222 -1.83911 0
M  V30 6674 O 606.793 2.96398 -3.22614 0
M  V30 6675 C 608.294 4.05541 -1.79028 0
M  V30 6676 H 605.514 0.535499 -0.404328 0
M  V30 6677 H 608.058 1.16492 -1.68077 0
M  V30 6678 H 606.213 3.6274 -1.36009 0
M  V30 6679 H 606.627 3.8494 -3.56261 0
M  V30 6680 H 608.101 5.01351 -2.30978 0
M  V30 6681 H 608.578 4.32589 -0.759168 0
M  V30 6682 H 609.184 3.59947 -2.26535 0
M  V30 6683 N 607.499 1.09233 1.13605 0
M  V30 6684 C 608.432 0.6739 2.18023 0
M  V30 6685 C 609.41 -0.318603 1.59448 0
M  V30 6686 O 610.594 -0.220452 1.87206 0
M  V30 6687 C 607.721 -0.00751458 3.38699 0
M  V30 6688 C 606.767 0.946481 4.15865 0
M  V30 6689 S 607.6 2.45753 4.75779 0
M  V30 6690 C 608.756 1.78846 5.99804 0
M  V30 6691 H 608.989 1.55846 2.53178 0
M  V30 6692 H 606.522 0.908118 1.2487 0
M  V30 6693 H 608.48 -0.394368 4.08601 0
M  V30 6694 H 607.141 -0.868693 3.01849 0
M  V30 6695 H 606.334 0.416742 5.02274 0
M  V30 6696 H 605.936 1.27464 3.51609 0
M  V30 6697 H 608.228 1.11135 6.68323 0
M  V30 6698 H 609.171 2.63163 6.57382 0
M  V30 6699 H 609.579 1.25823 5.50299 0
M  V30 6700 N 608.977 -1.30795 0.87923 0
M  V30 6701 C 609.887 -2.32041 0.345565 0
M  V30 6702 C 610.903 -1.65103 -0.549265 0
M  V30 6703 O 612.079 -1.9645 -0.443763 0
M  V30 6704 C 609.144 -3.43944 -0.436245 0
M  V30 6705 C 608.205 -4.26521 0.48765 0
M  V30 6706 C 607.438 -5.33081 -0.256943 0
M  V30 6707 O 607.661 -5.50762 -1.48381 0
M  V30 6708 O 606.595 -6.00635 0.389985 0
M  V30 6709 H 610.421 -2.79627 1.18501 0
M  V30 6710 H 608.006 -1.3486 0.642885 0
M  V30 6711 H 609.888 -4.12128 -0.879119 0
M  V30 6712 H 608.563 -2.98504 -1.25208 0
M  V30 6713 H 607.47 -3.61057 0.979216 0
M  V30 6714 H 608.803 -4.75551 1.26933 0
M  V30 6715 N 610.455 -0.639598 -1.44038 0
M  V30 6716 C 611.704 -0.144885 -2.01179 0
M  V30 6717 C 612.017 1.24372 -1.50967 0
M  V30 6718 O 613.223 1.83291 -2.00292 0
M  V30 6719 C 611.679 -0.208244 -3.59297 0
M  V30 6720 C 611.287 -1.59869 -4.18504 0
M  V30 6721 C 613.031 0.229568 -4.23879 0
M  V30 6722 C 610.938 -1.61671 -5.68873 0
M  V30 6723 H 609.868 -0.0504005 -0.752314 0
M  V30 6724 H 612.519 -0.799639 -1.65161 0
M  V30 6725 H 610.901 0.513767 -3.92653 0
M  V30 6726 H 612.075 -2.34496 -3.96671 0
M  V30 6727 H 610.39 -1.98131 -3.66242 0
M  V30 6728 H 612.987 0.235758 -5.3418 0
M  V30 6729 H 613.33 1.25848 -3.96822 0
M  V30 6730 H 613.863 -0.440233 -3.95357 0
M  V30 6731 H 610.602 -2.62427 -6.00677 0
M  V30 6732 H 610.122 -0.913489 -5.92803 0
M  V30 6733 H 611.801 -1.35439 -6.32665 0
M  V30 6734 N 611.933 1.52934 -0.380664 0
M  V30 6735 C 612.865 2.23822 0.493581 0
M  V30 6736 C 613.878 1.25761 1.03383 0
M  V30 6737 O 615.067 1.5189 0.937633 0
M  V30 6738 C 612.167 2.9342 1.69582 0
M  V30 6739 C 611.34 4.18115 1.28445 0
M  V30 6740 C 610.399 4.70788 2.35042 0
M  V30 6741 O 609.425 5.34093 1.96807 0
M  V30 6742 N 610.627 4.49899 3.66839 0
M  V30 6743 H 613.392 2.99484 -0.11371 0
M  V30 6744 H 610.953 1.60577 -0.206587 0
M  V30 6745 H 612.945 3.2556 2.40401 0
M  V30 6746 H 611.515 2.21119 2.20965 0
M  V30 6747 H 610.735 3.92109 0.405503 0
M  V30 6748 H 612.023 4.99152 0.986132 0
M  V30 6749 H 611.421 3.99349 4.0067 0
M  V30 6750 H 609.978 4.86551 4.33718 0
M  V30 6751 N 613.412 0.11024 1.57214 0
M  V30 6752 C 614.375 -0.828808 2.1369 0
M  V30 6753 C 615.375 -1.20059 1.06969 0
M  V30 6754 O 616.565 -1.12754 1.32786 0
M  V30 6755 C 613.697 -2.11959 2.66994 0
M  V30 6756 H 614.89 -0.338146 2.97988 0
M  V30 6757 H 612.443 -0.138913 1.55681 0
M  V30 6758 H 613.178 -2.65476 1.8626 0
M  V30 6759 H 612.963 -1.86258 3.45037 0
M  V30 6760 H 614.453 -2.79105 3.10629 0
M  V30 6761 N 614.89 -1.56749 -0.16351 0
M  V30 6762 C 616.306 -1.51043 -0.515567 0
M  V30 6763 C 616.506 -0.815855 -1.84245 0
M  V30 6764 O 615.562 -0.379477 -2.49632 0
M  V30 6765 C 616.875 -2.95791 -0.541114 0
M  V30 6766 C 618.423 -3.0664 -0.627776 0
M  V30 6767 C 618.898 -4.52861 -0.684141 0
M  V30 6768 N 620.389 -4.5714 -0.746818 0
M  V30 6769 C 621.124 -5.67634 -0.811137 0
M  V30 6770 N 620.62 -6.8774 -0.835811 0
M  V30 6771 N 622.413 -5.55624 -0.850756 0
M  V30 6772 H 614.564 -2.00307 0.70645 0
M  V30 6773 H 616.827 -0.912876 0.255659 0
M  V30 6774 H 616.533 -3.49797 0.365329 0
M  V30 6775 H 616.407 -3.50858 -1.38487 0
M  V30 6776 H 618.794 -2.52663 -1.52464 0
M  V30 6777 H 618.875 -2.54645 0.242805 0
M  V30 6778 H 618.519 -5.07472 0.2085 0
M  V30 6779 H 618.449 -5.02621 -1.57098 0
M  V30 6780 H 620.94 -3.70669 -0.735717 0
M  V30 6781 H 621.253 -7.67701 -0.886279 0
M  V30 6782 H 619.598 -6.90334 -0.803958 0
M  V30 6783 H 622.789 -4.60709 -0.828535 0
M  V30 6784 H 622.962 -6.41756 -0.897418 0
M  V30 6785 N 616.368 0.432326 -1.51554 0
M  V30 6786 C 617.298 1.53242 -1.76179 0
M  V30 6787 C 618.279 1.58717 -0.611801 0
M  V30 6788 O 619.464 1.74364 -0.855033 0
M  V30 6789 C 616.594 2.91278 -1.89141 0
M  V30 6790 C 615.548 3.00663 -3.04608 0
M  V30 6791 C 614.874 4.40728 -3.02759 0
M  V30 6792 C 616.174 2.74281 -4.44485 0
M  V30 6793 H 617.868 1.32886 -2.68294 0
M  V30 6794 H 615.414 0.637841 -1.29103 0
M  V30 6795 H 617.367 3.68203 -2.04951 0
M  V30 6796 H 616.091 3.12877 -0.936785 0
M  V30 6797 H 614.75 2.26179 -2.88511 0
M  V30 6798 H 614.398 4.59301 -2.05065 0
M  V30 6799 H 614.098 4.47936 -3.80299 0
M  V30 6800 H 615.622 5.19619 -3.20669 0
M  V30 6801 H 617.036 3.40936 -4.60907 0
M  V30 6802 H 615.433 2.92893 -5.23769 0
M  V30 6803 H 616.503 1.69856 -4.54177 0
M  V30 6804 N 617.846 1.41785 0.688094 0
M  V30 6805 C 618.776 1.47 1.8142 0
M  V30 6806 C 619.757 0.327881 1.6691 0
M  V30 6807 O 620.942 0.540362 1.86531 0
M  V30 6808 C 618.072 1.35876 3.19617 0
M  V30 6809 C 617.026 2.47976 3.48844 0
M  V30 6810 C 616.352 2.21915 4.86475 0
M  V30 6811 C 617.652 3.90309 3.47068 0
M  V30 6812 H 619.346 2.41247 1.77314 0
M  V30 6813 H 616.892 1.16116 0.851651 0
M  V30 6814 H 618.845 1.38134 3.98117 0
M  V30 6815 H 617.569 0.38116 3.24368 0
M  V30 6816 H 616.228 2.45013 2.72698 0
M  V30 6817 H 615.876 1.2248 4.8786 0
M  V30 6818 H 615.576 2.97037 5.06994 0
M  V30 6819 H 617.1 2.25901 5.67275 0
M  V30 6820 H 618.514 3.94947 4.1556 0
M  V30 6821 H 616.911 4.65175 3.7912 0
M  V30 6822 H 617.981 4.17927 2.45896 0
M  V30 6823 N 619.324 -0.923095 1.27737 0
M  V30 6824 C 620.256 -2.02871 1.06658 0
M  V30 6825 C 621.269 -1.62786 0.0212095 0
M  V30 6826 O 622.458 -1.76548 0.263267 0
M  V30 6827 C 619.558 -3.33603 0.59682 0
M  V30 6828 C 618.731 -4.02354 1.71551 0
M  V30 6829 C 617.79 -5.11364 1.24071 0
M  V30 6830 O 616.816 -5.35075 1.94123 0
M  V30 6831 N 618.018 -5.80416 0.0988444 0
M  V30 6832 H 620.783 -2.21515 2.01869 0
M  V30 6833 H 618.344 -1.09378 1.19365 0
M  V30 6834 H 620.336 -4.03845 0.262984 0
M  V30 6835 H 618.906 -3.11499 -0.262187 0
M  V30 6836 H 618.126 -3.25786 2.2194 0
M  V30 6837 H 619.414 -4.45035 2.46619 0
M  V30 6838 H 618.812 -5.63611 -0.485743 0
M  V30 6839 H 617.369 -6.51563 -0.17578 0
M  V30 6840 N 620.802 -1.09834 -1.13024 0
M  V30 6841 C 621.75 -0.736283 -2.20639 0
M  V30 6842 C 622.744 0.264725 -1.67319 0
M  V30 6843 O 623.95 0.125745 -1.7956 0
M  V30 6844 H 620.325 -0.220136 -0.719058 0
M  V30 6845 H 622.296 -1.65295 -2.48436 0
M  V30 6846 C 621.045 -0.177544 -3.47246 0
M  V30 6847 H 620.368 -0.939009 -3.88616 0
M  V30 6848 H 621.808 0.0378007 -4.23983 0
M  V30 6849 C 620.267 1.08824 -3.1884 0
M  V30 6850 O 620.797 2.1708 -3.37993 0
M  V30 6851 N 619.003 1.00442 -2.7269 0
M  V30 6852 H 618.55 0.123383 -2.57304 0
M  V30 6853 H 618.508 1.85206 -2.5406 0
M  V30 6854 N 622.28 1.30327 -0.886154 0
M  V30 6855 C 623.691 1.78243 -0.555554 0
M  V30 6856 C 624.042 1.72849 0.928314 0
M  V30 6857 O 623.167 1.30607 1.72542 0
M  V30 6858 C 623.762 3.23654 -1.00168 0
M  V30 6859 C 622.321 3.69401 -0.722471 0
M  V30 6860 C 621.468 2.50753 -1.18399 0
M  V30 6861 H 624.419 1.1718 -1.07026 0
M  V30 6862 H 624.44 3.79056 -0.331152 0
M  V30 6863 H 623.952 3.27548 -2.08169 0
M  V30 6864 H 622.053 3.70995 0.345496 0
M  V30 6865 H 622.166 4.60818 -1.31085 0
M  V30 6866 H 620.53 2.47452 -0.603303 0
M  V30 6867 H 621.313 2.57383 -2.27176 0
M  V30 6868 N 623.758 0.647228 1.43697 0
M  V30 6869 C 624.705 -0.0480092 2.3075 0
M  V30 6870 C 625.675 -0.820705 1.44408 0
M  V30 6871 O 626.86 -0.798515 1.73287 0
M  V30 6872 C 624 -1.01259 3.2991 0
M  V30 6873 C 623.113 -0.236629 4.31351 0
M  V30 6874 C 622.248 -1.19447 5.17596 0
M  V30 6875 C 621.287 -0.408595 6.10735 0
M  V30 6876 N 620.424 -1.31772 6.89623 0
M  V30 6877 H 625.264 0.700238 2.89656 0
M  V30 6878 H 622.801 0.357082 1.427 0
M  V30 6879 H 624.759 -1.58538 3.85903 0
M  V30 6880 H 623.389 -1.72778 2.72667 0
M  V30 6881 H 622.441 0.452353 3.77701 0
M  V30 6882 H 623.753 0.374731 4.9739 0
M  V30 6883 H 622.907 -1.83809 5.78186 0
M  V30 6884 H 621.646 -1.83975 4.51669 0
M  V30 6885 H 620.651 0.24841 5.49239 0
M  V30 6886 H 621.876 0.232188 6.78703 0
M  V30 6887 H 619.822 -1.94991 6.2635 0
M  V30 6888 H 619.739 -0.760779 7.52162 0
M  V30 6889 H 621.007 -1.94967 7.54724 0
M  V30 6890 N 625.236 -1.5273 0.388769 0
M  V30 6891 C 626.513 -1.93981 -0.251133 0
M  V30 6892 C 626.893 -1.32418 -1.64404 0
M  V30 6893 O 626.241 -0.492074 -2.23139 0
M  V30 6894 C 626.451 -3.47891 -0.27802 0
M  V30 6895 C 627.799 -4.21559 -0.507229 0
M  V30 6896 O 628.823 -3.54394 -0.358252 0
M  V30 6897 O 627.682 -5.40626 -0.799094 0
M  V30 6898 H 624.776 -0.812157 -0.15598 0
M  V30 6899 H 627.322 -1.63809 0.443237 0
M  V30 6900 H 626.094 -3.8503 0.697669 0
M  V30 6901 H 625.717 -3.84364 -1.01733 0
M  V30 6902 N 626.714 -0.118576 -1.57153 0
M  V30 6903 C 627.677 0.817464 -2.14127 0
M  V30 6904 C 628.677 1.1949 -1.07604 0
M  V30 6905 O 629.867 1.12048 -1.33382 0
M  V30 6906 C 626.999 2.10541 -2.68115 0
M  V30 6907 H 628.192 0.322339 -2.98163 0
M  V30 6908 H 625.745 0.130655 -1.55753 0
M  V30 6909 H 626.48 2.64485 -1.87665 0
M  V30 6910 H 626.265 1.84425 -3.4602 0
M  V30 6911 H 627.755 2.77453 -3.12105 0
M  V30 6912 N 628.193 1.56834 0.155195 0
M  V30 6913 C 629.103 2.009 1.21146 0
M  V30 6914 C 630.119 0.923029 1.475 0
M  V30 6915 O 631.295 1.23189 1.59331 0
M  V30 6916 C 628.36 2.37378 2.52691 0
M  V30 6917 C 627.421 3.59883 2.34057 0
M  V30 6918 C 626.654 3.94612 3.59329 0
M  V30 6919 O 626.877 3.30104 4.65175 0
M  V30 6920 O 625.811 4.87895 3.52479 0
M  V30 6921 H 629.637 2.9105 0.867371 0
M  V30 6922 H 627.222 1.44916 0.363298 0
M  V30 6923 H 629.104 2.61737 3.3026 0
M  V30 6924 H 627.779 1.50385 2.86646 0
M  V30 6925 H 626.686 3.40722 1.54465 0
M  V30 6926 H 628.019 4.47468 2.0502 0
M  V30 6927 N 629.671 -0.424282 1.51781 0
M  V30 6928 C 630.581 -1.54087 1.76902 0
M  V30 6929 C 631.597 -1.61249 0.653826 0
M  V30 6930 O 632.773 -1.78247 0.937552 0
M  V30 6931 C 629.838 -2.8996 1.90063 0
M  V30 6932 C 628.899 -2.92809 3.13945 0
M  V30 6933 C 628.132 -4.22201 3.26469 0
M  V30 6934 O 628.355 -5.15286 2.44616 0
M  V30 6935 O 627.289 -4.31599 4.1953 0
M  V30 6936 H 631.115 -1.358 2.71647 0
M  V30 6937 H 628.7 -0.608618 1.36441 0
M  V30 6938 H 630.582 -3.70575 2.0063 0
M  V30 6939 H 629.257 -3.08347 0.985067 0
M  V30 6940 H 628.164 -2.11102 3.08847 0
M  V30 6941 H 629.497 -2.79369 4.05233 0
M  V30 6942 N 631.149 -1.42148 -0.680565 0
M  V30 6943 C 632.081 -1.41119 -1.80605 0
M  V30 6944 C 633.094 -0.311099 -1.598 0
M  V30 6945 O 634.283 -0.573813 -1.69026 0
M  V30 6946 C 631.383 -1.18204 -3.17618 0
M  V30 6947 C 630.556 -2.40537 -3.65322 0
M  V30 6948 C 629.615 -2.13254 -4.8105 0
M  V30 6949 O 628.641 -2.8641 -4.91892 0
M  V30 6950 N 629.843 -1.13208 -5.69354 0
M  V30 6951 H 632.608 -2.38128 -1.81975 0
M  V30 6952 H 630.169 -1.36953 -0.863446 0
M  V30 6953 H 632.161 -0.97878 -3.92686 0
M  V30 6954 H 630.731 -0.29738 -3.11182 0
M  V30 6955 H 629.951 -2.76468 -2.80996 0
M  V30 6956 H 631.239 -3.22012 -3.93936 0
M  V30 6957 H 630.637 -0.526893 -5.63241 0
M  V30 6958 H 629.194 -0.988699 -6.44258 0
M  V30 6959 N 632.627 0.916307 -1.28225 0
M  V30 6960 C 633.873 1.66765 -1.154 0
M  V30 6961 C 634.206 1.91912 0.297251 0
M  V30 6962 O 633.481 1.51766 1.21644 0
M  V30 6963 C 633.764 3.02715 -1.95028 0
M  V30 6964 C 633.617 2.84738 -3.48201 0
M  V30 6965 C 634.936 4.03215 -1.76369 0
M  V30 6966 H 632.055 0.605205 -0.42059 0
M  V30 6967 H 634.697 1.06255 -1.57512 0
M  V30 6968 H 632.847 3.54365 -1.59242 0
M  V30 6969 H 634.519 2.40118 -3.9388 0
M  V30 6970 H 632.762 2.19848 -3.73964 0
M  V30 6971 H 633.433 3.8127 -3.99171 0
M  V30 6972 H 635.909 3.60617 -2.07593 0
M  V30 6973 H 634.785 4.96306 -2.34459 0
M  V30 6974 H 635.046 4.36288 -0.71452 0
M  V30 6975 N 634.105 1.10431 1.1244 0
M  V30 6976 C 635.052 0.753103 2.18167 0
M  V30 6977 C 636.022 -0.270549 1.63882 0
M  V30 6978 O 637.207 -0.149837 1.90211 0
M  V30 6979 C 634.347 0.191046 3.44571 0
M  V30 6980 C 633.46 1.26999 4.12911 0
M  V30 6981 C 632.595 0.669586 5.26963 0
M  V30 6982 C 631.634 1.72912 5.87169 0
M  V30 6983 N 630.771 1.14898 6.92635 0
M  V30 6984 H 635.611 1.65892 2.47556 0
M  V30 6985 H 633.148 0.828631 1.21541 0
M  V30 6986 H 635.106 -0.152712 4.1692 0
M  V30 6987 H 633.736 -0.677997 3.15599 0
M  V30 6988 H 632.788 1.73087 3.3874 0
M  V30 6989 H 634.1 2.07204 4.53727 0
M  V30 6990 H 633.254 0.275274 6.06075 0
M  V30 6991 H 631.993 -0.163895 4.87425 0
M  V30 6992 H 630.998 2.13286 5.06744 0
M  V30 6993 H 632.223 2.56544 6.28778 0
M  V30 6994 H 630.169 0.336956 6.55134 0
M  V30 6995 H 630.086 1.88786 7.32049 0
M  V30 6996 H 631.354 0.78121 7.75576 0
M  V30 6997 N 635.583 -1.29855 0.893053 0
M  V30 6998 C 636.513 -2.3035 0.382249 0
M  V30 6999 C 637.494 -1.61328 -0.539203 0
M  V30 7000 O 638.679 -1.88882 -0.451342 0
M  V30 7001 C 635.809 -3.45024 -0.396983 0
M  V30 7002 C 634.763 -4.258 0.433437 0
M  V30 7003 C 634.089 -5.32605 -0.472889 0
M  V30 7004 C 635.389 -4.94549 1.67984 0
M  V30 7005 H 637.083 -2.73325 1.22205 0
M  V30 7006 H 634.629 -1.314 0.589073 0
M  V30 7007 H 636.582 -4.14398 -0.765024 0
M  V30 7008 H 635.306 -3.00875 -1.2705 0
M  V30 7009 H 633.965 -3.58125 0.783723 0
M  V30 7010 H 633.613 -4.84702 -1.34435 0
M  V30 7011 H 633.313 -5.87547 0.0789958 0
M  V30 7012 H 634.837 -6.04832 -0.837269 0
M  V30 7013 H 636.251 -5.56395 1.38192 0
M  V30 7014 H 634.648 -5.59393 2.17254 0
M  V30 7015 H 635.718 -4.20215 2.41965 0
M  V30 7016 N 637.061 -0.65484 -1.43351 0
M  V30 7017 C 638.008 0.0357713 -2.30772 0
M  V30 7018 C 638.978 0.813035 -1.44841 0
M  V30 7019 O 640.163 0.789314 -1.73708 0
M  V30 7020 C 637.303 0.995084 -3.30442 0
M  V30 7021 C 636.416 0.21375 -4.31471 0
M  V30 7022 C 635.551 1.16701 -5.18222 0
M  V30 7023 C 634.59 0.376201 -6.10943 0
M  V30 7024 N 633.727 1.28113 -6.90313 0
M  V30 7025 H 638.567 -0.71559 -2.89281 0
M  V30 7026 H 636.104 -0.364645 -1.42509 0
M  V30 7027 H 638.062 1.5649 -3.86739 0
M  V30 7028 H 636.692 1.7133 -2.7358 0
M  V30 7029 H 635.744 -0.472377 -3.77456 0
M  V30 7030 H 637.056 -0.401103 -4.97185 0
M  V30 7031 H 636.21 1.8074 -5.79153 0
M  V30 7032 H 634.949 1.81577 -4.52638 0
M  V30 7033 H 633.954 -0.277534 -5.49099 0
M  V30 7034 H 635.179 -0.268178 -6.7857 0
M  V30 7035 H 633.125 1.91666 -6.27376 0
M  V30 7036 H 633.042 0.720879 -7.52555 0
M  V30 7037 H 634.31 1.90962 -7.55747 0
M  V30 7038 N 638.539 1.52521 -0.396863 0
M  V30 7039 C 639.472 2.23118 0.478926 0
M  V30 7040 C 640.45 1.23475 1.05796 0
M  V30 7041 O 641.634 1.52486 1.10817 0
M  V30 7042 C 638.761 2.95028 1.66362 0
M  V30 7043 C 637.807 4.09002 1.20913 0
M  V30 7044 S 638.64 5.35182 0.184407 0
M  V30 7045 C 639.796 6.10616 1.37471 0
M  V30 7046 H 640.029 2.97056 -0.120542 0
M  V30 7047 H 637.562 1.53334 -0.18109 0
M  V30 7048 H 639.52 3.37066 2.34301 0
M  V30 7049 H 638.181 2.20756 2.23441 0
M  V30 7050 H 637.374 4.58445 2.09389 0
M  V30 7051 H 636.976 3.69016 0.608559 0
M  V30 7052 H 639.268 6.37247 2.30048 0
M  V30 7053 H 640.211 7.02084 0.921051 0
M  V30 7054 H 640.619 5.41499 1.59495 0
M  V30 7055 N 640.017 0.126909 1.57088 0
M  V30 7056 C 641.294 -0.573152 1.87014 0
M  V30 7057 C 641.674 -1.84297 1.02945 0
M  V30 7058 O 641.022 -2.28232 0.110573 0
M  V30 7059 C 641.232 -0.857984 3.38289 0
M  V30 7060 C 642.58 -1.20759 4.07066 0
M  V30 7061 O 643.604 -0.947992 3.43353 0
M  V30 7062 O 642.463 -1.69516 5.19545 0
M  V30 7063 H 639.557 -0.290082 0.774456 0
M  V30 7064 H 642.103 0.162008 1.68925 0
M  V30 7065 H 640.875 0.0415286 3.91278 0
M  V30 7066 H 640.498 -1.64803 3.61837 0
M  V30 7067 N 641.495 -1.56914 -0.146875 0
M  V30 7068 C 642.425 -2.01308 -1.1831 0
M  V30 7069 C 643.406 -0.892664 -1.44795 0
M  V30 7070 O 644.591 -1.16048 -1.55713 0
M  V30 7071 C 641.721 -2.3938 -2.51624 0
M  V30 7072 C 640.675 -3.54608 -2.3966 0
M  V30 7073 C 640.001 -3.78493 -3.77686 0
M  V30 7074 C 641.301 -4.87269 -1.88058 0
M  V30 7075 H 642.995 -2.88123 -0.813964 0
M  V30 7076 H 640.541 -1.38615 -0.3901 0
M  V30 7077 H 642.494 -2.69037 -3.24341 0
M  V30 7078 H 641.218 -1.49502 -2.90373 0
M  V30 7079 H 639.877 -3.25116 -1.69396 0
M  V30 7080 H 639.525 -2.85866 -4.13871 0
M  V30 7081 H 639.225 -4.56039 -3.70543 0
M  V30 7082 H 640.749 -4.10576 -4.51951 0
M  V30 7083 H 642.163 -5.15644 -2.50568 0
M  V30 7084 H 640.56 -5.68622 -1.91805 0
M  V30 7085 H 641.63 -4.77634 -0.836277 0
M  V30 7086 N 642.974 0.416227 -1.52004 0
M  V30 7087 C 644.221 1.16383 -1.65714 0
M  V30 7088 C 644.549 1.9068 -0.383594 0
M  V30 7089 O 643.804 1.85174 0.633185 0
M  V30 7090 C 644.103 2.18923 -2.82502 0
M  V30 7091 C 643.769 1.61485 -4.20991 0
M  V30 7092 C 642.431 1.45545 -4.58661 0
M  V30 7093 C 644.783 1.19468 -5.07323 0
M  V30 7094 C 642.111 0.860937 -5.80349 0
M  V30 7095 C 644.463 0.614386 -6.29609 0
M  V30 7096 C 643.127 0.442056 -6.66035 0
M  V30 7097 H 642.397 0.425875 -0.606392 0
M  V30 7098 H 645.044 0.45199 -1.8609 0
M  V30 7099 H 643.349 2.96225 -2.56433 0
M  V30 7100 H 645.046 2.76628 -2.90307 0
M  V30 7101 H 641.636 1.74873 -3.91302 0
M  V30 7102 H 645.82 1.30596 -4.78809 0
M  V30 7103 H 641.076 0.715372 -6.072 0
M  V30 7104 H 645.25 0.280393 -6.95835 0
M  V30 7105 H 642.877 -0.0207218 -7.60197 0
M  V30 7106 N 644.452 1.42507 0.673017 0
M  V30 7107 C 645.682 1.46261 1.45916 0
M  V30 7108 C 646.09 0.0729724 1.89059 0
M  V30 7109 O 645.433 -0.922987 1.58829 0
M  V30 7110 C 645.495 2.32853 2.73898 0
M  V30 7111 C 645.159 3.80699 2.52819 0
M  V30 7112 C 646.156 4.72307 2.17306 0
M  V30 7113 C 643.841 4.24983 2.67758 0
M  V30 7114 C 645.835 6.06192 1.97003 0
M  V30 7115 C 643.522 5.58927 2.4707 0
M  V30 7116 C 644.52 6.49348 2.11746 0
M  V30 7117 O 644.208 7.80817 1.91259 0
M  V30 7118 H 643.94 0.499561 0.455428 0
M  V30 7119 H 646.494 1.87697 0.834196 0
M  V30 7120 H 644.724 1.86268 3.38882 0
M  V30 7121 H 646.413 2.28041 3.35786 0
M  V30 7122 H 647.179 4.39378 2.05359 0
M  V30 7123 H 643.058 3.54893 2.94231 0
M  V30 7124 H 646.602 6.76731 1.69355 0
M  V30 7125 H 642.499 5.91429 2.58615 0
M  V30 7126 H 643.267 7.92194 2.05843 0
M  V30 7127 N 645.93 -0.909495 1.28709 0
M  V30 7128 C 647.346 -1.18862 1.06508 0
M  V30 7129 C 647.546 -2.00604 -0.189864 0
M  V30 7130 O 646.602 -2.36281 -0.890355 0
M  V30 7131 C 647.915 -1.91908 2.31499 0
M  V30 7132 C 649.463 -2.04773 2.36721 0
M  V30 7133 C 649.938 -2.81228 3.6149 0
M  V30 7134 N 651.429 -2.88787 3.62155 0
M  V30 7135 C 652.164 -3.48455 4.55375 0
M  V30 7136 N 651.66 -4.09369 5.58918 0
M  V30 7137 N 653.453 -3.46035 4.42963 0
M  V30 7138 H 645.604 -0.363867 2.0926 0
M  V30 7139 H 647.867 -0.223649 0.921241 0
M  V30 7140 H 647.573 -1.39275 3.22948 0
M  V30 7141 H 647.447 -2.92436 2.38245 0
M  V30 7142 H 649.834 -2.56585 1.45767 0
M  V30 7143 H 649.915 -1.03408 2.33967 0
M  V30 7144 H 649.559 -2.30094 4.5279 0
M  V30 7145 H 649.489 -3.82917 3.61499 0
M  V30 7146 H 651.98 -2.45514 2.87283 0
M  V30 7147 H 652.293 -4.52891 6.26187 0
M  V30 7148 H 650.638 -4.0786 5.62739 0
M  V30 7149 H 653.829 -2.9766 3.6127 0
M  V30 7150 H 654.002 -3.92244 5.15799 0
M  V30 7151 N 647.408 -1.11026 -1.11852 0
M  V30 7152 C 648.356 -0.759643 -2.19846 0
M  V30 7153 C 649.35 0.246964 -1.6759 0
M  V30 7154 O 650.556 0.106693 -1.79684 0
M  V30 7155 H 646.931 -0.22775 -0.716683 0
M  V30 7156 H 648.902 -1.6792 -2.46669 0
M  V30 7157 C 647.651 -0.214364 -3.47039 0
M  V30 7158 H 646.974 -0.980175 -3.87599 0
M  V30 7159 H 648.414 -0.00717047 -4.23999 0
M  V30 7160 C 646.873 1.05436 -3.19976 0
M  V30 7161 O 647.403 2.13483 -3.40276 0
M  V30 7162 N 645.609 0.975436 -2.7374 0
M  V30 7163 H 645.156 0.0960853 -2.57421 0
M  V30 7164 H 645.114 1.82501 -2.5601 0
M  V30 7165 N 648.886 1.2938 -0.899927 0
M  V30 7166 C 650.111 2.00228 -0.540692 0
M  V30 7167 C 650.536 1.66909 0.867359 0
M  V30 7168 O 649.894 0.893824 1.57735 0
M  V30 7169 C 649.942 3.52921 -0.740232 0
M  V30 7170 O 649.046 4.11879 0.207154 0
M  V30 7171 H 648.387 0.629505 -0.211233 0
M  V30 7172 H 650.917 1.6487 -1.21158 0
M  V30 7173 H 650.927 4.0287 -0.644973 0
M  V30 7174 H 649.602 3.76508 -1.76677 0
M  V30 7175 H 648.179 3.72845 0.0643315 0
M  V30 7176 N 650.364 0.662433 1.43002 0
M  V30 7177 C 651.327 -0.0142016 2.29196 0
M  V30 7178 C 652.327 -0.741394 1.42688 0
M  V30 7179 O 653.517 -0.581257 1.64216 0
M  V30 7180 C 650.649 -1.03084 3.24941 0
M  V30 7181 H 651.842 0.7443 2.90517 0
M  V30 7182 H 649.395 0.424133 1.50435 0
M  V30 7183 H 650.13 -1.81826 2.68533 0
M  V30 7184 H 649.915 -0.512946 3.8873 0
M  V30 7185 H 651.405 -1.50308 3.89612 0
M  V30 7186 N 651.842 -1.52309 0.404946 0
M  V30 7187 C 653.119 -1.94237 -0.230544 0
M  V30 7188 C 653.499 -1.34154 -1.6299 0
M  V30 7189 O 652.847 -0.515713 -2.22604 0
M  V30 7190 C 653.057 -3.48166 -0.241106 0
M  V30 7191 C 654.405 -4.22074 -0.462488 0
M  V30 7192 O 655.429 -3.54754 -0.320644 0
M  V30 7193 O 654.288 -5.41443 -0.741708 0
M  V30 7194 H 651.382 -0.813766 -0.147358 0
M  V30 7195 H 653.928 -1.6333 0.460587 0
M  V30 7196 H 652.7 -3.84269 0.738467 0
M  V30 7197 H 652.323 -3.85422 -0.97651 0
M  V30 7198 N 653.32 -0.135238 -1.57019 0
M  V30 7199 C 654.25 0.805235 -2.19176 0
M  V30 7200 C 655.231 1.2656 -1.13651 0
M  V30 7201 O 656.416 1.32528 -1.4195 0
M  V30 7202 C 653.546 2.04914 -2.80406 0
M  V30 7203 C 652.5 1.72598 -3.91655 0
M  V30 7204 C 651.826 3.04154 -4.39766 0
M  V30 7205 C 653.126 0.981709 -5.12991 0
M  V30 7206 H 654.82 0.287232 -2.98019 0
M  V30 7207 H 652.366 0.136714 -1.4335 0
M  V30 7208 H 654.319 2.71178 -3.22553 0
M  V30 7209 H 653.043 2.59067 -1.98877 0
M  V30 7210 H 651.702 1.08717 -3.50109 0
M  V30 7211 H 651.35 3.56274 -3.55075 0
M  V30 7212 H 651.05 2.83299 -5.14796 0
M  V30 7213 H 652.574 3.71509 -4.84576 0
M  V30 7214 H 653.988 1.5462 -5.52056 0
M  V30 7215 H 652.385 0.873533 -5.93708 0
M  V30 7216 H 653.455 -0.0286887 -4.84892 0
M  V30 7217 N 654.798 1.5699 0.138552 0
M  V30 7218 C 655.708 2.02174 1.19008 0
M  V30 7219 C 656.724 0.938622 1.46512 0
M  V30 7220 O 657.9 1.24872 1.58016 0
M  V30 7221 C 654.965 2.40045 2.50159 0
M  V30 7222 C 654.026 3.62346 2.30226 0
M  V30 7223 C 653.259 3.98401 3.55123 0
M  V30 7224 O 653.482 3.35019 4.61647 0
M  V30 7225 O 652.416 4.91606 3.47285 0
M  V30 7226 H 656.242 2.91954 0.836452 0
M  V30 7227 H 653.827 1.45293 0.347907 0
M  V30 7228 H 655.709 2.65225 3.27465 0
M  V30 7229 H 654.384 1.53417 2.85035 0
M  V30 7230 H 653.291 3.42341 1.50843 0
M  V30 7231 H 654.624 4.49617 2.00262 0
M  V30 7232 N 656.276 -0.40816 1.52223 0
M  V30 7233 C 657.208 -1.51642 1.71864 0
M  V30 7234 C 658.221 -1.51378 0.599056 0
M  V30 7235 O 659.41 -1.55626 0.874239 0
M  V30 7236 C 656.51 -2.90534 1.74481 0
M  V30 7237 C 655.683 -3.14979 3.03491 0
M  V30 7238 C 654.742 -4.33749 2.97907 0
M  V30 7239 O 653.768 -4.30982 3.71811 0
M  V30 7240 N 654.97 -5.38912 2.15764 0
M  V30 7241 H 657.735 -1.35188 2.67478 0
M  V30 7242 H 655.296 -0.597468 1.50472 0
M  V30 7243 H 657.288 -3.68056 1.68275 0
M  V30 7244 H 655.858 -3.00441 0.863363 0
M  V30 7245 H 655.078 -2.25492 3.23337 0
M  V30 7246 H 656.366 -3.28156 3.88833 0
M  V30 7247 H 655.764 -5.44008 1.55152 0
M  V30 7248 H 654.321 -6.15174 2.15415 0
M  V30 7249 N 657.755 -1.42862 -0.66545 0
M  V30 7250 C 658.685 -1.49867 -1.79059 0
M  V30 7251 C 659.666 -0.354394 -1.66367 0
M  V30 7252 O 660.851 -0.569969 -1.85647 0
M  V30 7253 C 657.981 -1.40943 -3.17415 0
M  V30 7254 C 656.935 -2.53495 -3.44854 0
M  V30 7255 C 656.261 -2.29626 -4.82883 0
M  V30 7256 C 657.561 -3.95781 -3.40815 0
M  V30 7257 H 659.255 -2.44037 -1.73453 0
M  V30 7258 H 656.801 -1.17456 -0.833071 0
M  V30 7259 H 658.754 -1.4445 -3.95869 0
M  V30 7260 H 657.478 -0.432716 -3.23721 0
M  V30 7261 H 656.137 -2.4932 -2.68766 0
M  V30 7262 H 655.785 -1.30226 -4.8585 0
M  V30 7263 H 655.485 -3.05065 -5.02204 0
M  V30 7264 H 657.009 -2.34897 -5.63609 0
M  V30 7265 H 658.423 -4.01508 -4.09224 0
M  V30 7266 H 656.82 -4.71148 -3.71672 0
M  V30 7267 H 657.89 -4.21786 -2.39216 0
M  V30 7268 N 659.233 0.902656 -1.29189 0
M  V30 7269 C 660.463 1.68394 -1.19695 0
M  V30 7270 C 660.871 1.87602 0.245384 0
M  V30 7271 O 660.214 1.41084 1.17648 0
M  V30 7272 C 660.276 3.09094 -1.83578 0
M  V30 7273 C 659.94 3.1313 -3.32864 0
M  V30 7274 C 660.937 2.93497 -4.29134 0
M  V30 7275 C 658.622 3.3529 -3.74013 0
M  V30 7276 C 660.616 2.95953 -5.64527 0
M  V30 7277 C 658.303 3.37377 -5.09529 0
M  V30 7278 C 659.301 3.1773 -6.04596 0
M  V30 7279 O 658.989 3.196 -7.37639 0
M  V30 7280 H 658.721 0.532815 -0.416034 0
M  V30 7281 H 661.275 1.1374 -1.71033 0
M  V30 7282 H 659.505 3.65338 -1.26747 0
M  V30 7283 H 661.194 3.69297 -1.68447 0
M  V30 7284 H 661.96 2.76192 -3.98677 0
M  V30 7285 H 657.839 3.49623 -3.00474 0
M  V30 7286 H 661.383 2.80536 -6.38706 0
M  V30 7287 H 657.28 3.54213 -5.39633 0
M  V30 7288 H 658.048 3.35887 -7.46406 0
M  V30 7289 N 660.711 1.11618 1.11262 0
M  V30 7290 C 661.959 0.864469 1.82678 0
M  V30 7291 C 662.28 -0.611564 1.85162 0
M  V30 7292 O 661.55 -1.44429 1.32352 0
M  V30 7293 H 660.13 0.316821 0.676486 0
M  V30 7294 H 662.792 1.40894 1.34666 0
M  V30 7295 H 661.888 1.23832 2.86482 0
M  V30 7296 N 662.189 -1.289 0.906776 0
M  V30 7297 C 663.414 -1.99939 0.551303 0
M  V30 7298 C 663.839 -1.67366 -0.858496 0
M  V30 7299 O 663.197 -0.902176 -1.57259 0
M  V30 7300 C 663.245 -3.52523 0.758937 0
M  V30 7301 O 662.349 -4.11983 -0.185308 0
M  V30 7302 H 661.69 -0.628376 0.214568 0
M  V30 7303 H 664.22 -1.64225 1.2203 0
M  V30 7304 H 664.23 -4.02522 0.666329 0
M  V30 7305 H 662.905 -3.75566 1.78671 0
M  V30 7306 H 661.482 -3.72873 -0.0445577 0
M  V30 7307 N 663.667 -0.670007 -1.42649 0
M  V30 7308 C 664.63 0.00204659 -2.292 0
M  V30 7309 C 665.63 0.733817 -1.4308 0
M  V30 7310 O 666.82 0.57254 -1.64522 0
M  V30 7311 C 663.952 1.01359 -3.25483 0
M  V30 7312 H 665.145 -0.759696 -2.90118 0
M  V30 7313 H 662.698 -0.432105 -1.50208 0
M  V30 7314 H 663.433 1.80399 -2.69493 0
M  V30 7315 H 663.218 0.492323 -3.88997 0
M  V30 7316 H 664.708 1.4824 -3.90403 0
M  V30 7317 N 665.145 1.52092 -0.413018 0
M  V30 7318 C 666.394 2.01041 0.16287 0
M  V30 7319 C 666.707 1.30288 1.45892 0
M  V30 7320 O 667.913 1.70075 2.11629 0
M  V30 7321 C 666.369 3.58283 0.340806 0
M  V30 7322 C 665.977 4.37955 -0.943377 0
M  V30 7323 C 667.721 4.15452 0.871774 0
M  V30 7324 C 665.628 5.86847 -0.732417 0
M  V30 7325 H 664.558 0.751224 0.0646414 0
M  V30 7326 H 667.209 1.75404 -0.539059 0
M  V30 7327 H 665.591 3.80266 1.10516 0
M  V30 7328 H 666.765 4.2773 -1.71418 0
M  V30 7329 H 665.08 3.92122 -1.40105 0
M  V30 7330 H 667.677 5.24375 1.0457 0
M  V30 7331 H 668.02 3.73057 1.84755 0
M  V30 7332 H 668.553 3.97452 0.166377 0
M  V30 7333 H 665.292 6.33609 -1.67986 0
M  V30 7334 H 664.812 5.998 -0.000980058 0
M  V30 7335 H 666.491 6.45906 -0.376105 0
M  V30 7336 N 666.623 0.143563 1.56945 0
M  V30 7337 C 667.851 -0.515447 2.00377 0
M  V30 7338 C 668.266 -1.58643 1.02361 0
M  V30 7339 O 667.623 -1.82489 0.0201039 0
M  V30 7340 C 667.674 -1.11923 3.43737 0
M  V30 7341 O 667.395 -0.0910318 4.38005 0
M  V30 7342 C 668.896 -1.85918 4.02429 0
M  V30 7343 H 666.116 -0.134478 0.657386 0
M  V30 7344 H 668.66 0.237135 2.0312 0
M  V30 7345 H 666.815 -1.82245 3.41856 0
M  V30 7346 H 667.229 -0.532916 5.21786 0
M  V30 7347 H 668.703 -2.2346 5.04747 0
M  V30 7348 H 669.18 -2.7438 3.42947 0
M  V30 7349 H 669.786 -1.20303 4.07931 0
M  V30 7350 N 668.101 -1.57061 -0.130224 0
M  V30 7351 C 669.031 -2.02552 -1.16168 0
M  V30 7352 C 670.012 -0.907971 -1.4384 0
M  V30 7353 O 671.197 -1.17693 -1.54473 0
M  V30 7354 C 668.327 -2.42035 -2.49071 0
M  V30 7355 C 667.281 -3.5713 -2.35886 0
M  V30 7356 C 666.607 -3.82478 -3.7365 0
M  V30 7357 C 667.907 -4.89236 -1.8288 0
M  V30 7358 H 669.601 -2.8897 -0.783359 0
M  V30 7359 H 667.147 -1.39021 -0.375376 0
M  V30 7360 H 669.1 -2.72462 -3.21469 0
M  V30 7361 H 667.824 -1.52573 -2.88771 0
M  V30 7362 H 666.483 -3.26895 -1.65938 0
M  V30 7363 H 666.131 -2.9024 -4.10816 0
M  V30 7364 H 665.831 -4.59944 -3.65685 0
M  V30 7365 H 667.355 -4.15347 -4.47571 0
M  V30 7366 H 668.769 -5.18272 -2.45085 0
M  V30 7367 H 667.166 -5.70624 -1.85763 0
M  V30 7368 H 668.236 -4.78494 -0.785571 0
M  V30 7369 N 669.579 0.400081 -1.52437 0
M  V30 7370 C 670.527 1.50851 -1.7705 0
M  V30 7371 C 671.521 1.56928 -0.637969 0
M  V30 7372 O 672.727 1.60226 -0.820212 0
M  V30 7373 H 669.102 0.50186 -0.560036 0
M  V30 7374 H 671.073 1.27281 -2.69893 0
M  V30 7375 C 669.822 2.88117 -1.94638 0
M  V30 7376 H 669.145 2.84187 -2.81208 0
M  V30 7377 H 670.585 3.64942 -2.15855 0
M  V30 7378 C 669.044 3.29206 -0.715899 0
M  V30 7379 O 669.574 4.01544 0.111944 0
M  V30 7380 N 667.78 2.85363 -0.549191 0
M  V30 7381 H 667.327 2.26664 -1.22397 0
M  V30 7382 H 667.285 3.13214 0.27278 0
M  V30 7383 N 671.057 1.43213 0.657864 0
M  V30 7384 C 672.305 1.44298 1.41501 0
M  V30 7385 C 672.626 0.0666478 1.94886 0
M  V30 7386 O 671.896 -0.897345 1.74139 0
M  V30 7387 H 670.476 0.531257 0.525143 0
M  V30 7388 H 673.138 1.78777 0.776195 0
M  V30 7389 H 672.234 2.1528 2.25966 0
M  V30 7390 N 672.536 -0.895792 1.29666 0
M  V30 7391 C 673.813 -1.62723 1.08538 0
M  V30 7392 C 674.193 -2.07848 -0.369119 0
M  V30 7393 O 673.541 -1.8372 -1.35864 0
M  V30 7394 C 673.751 -2.80505 2.07648 0
M  V30 7395 C 675.099 -3.51098 2.3878 0
M  V30 7396 O 676.123 -2.90679 2.05874 0
M  V30 7397 O 674.982 -4.60028 2.9502 0
M  V30 7398 H 672.076 -0.714692 0.416106 0
M  V30 7399 H 674.622 -0.943517 1.41053 0
M  V30 7400 H 673.394 -2.44386 3.05599 0
M  V30 7401 H 673.017 -3.5658 1.75887 0
M  V30 7402 N 674.014 -1.12206 -1.10668 0
M  V30 7403 C 674.946 -0.74552 -2.16736 0
M  V30 7404 C 675.959 0.226696 -1.61214 0
M  V30 7405 O 677.148 0.0083936 -1.78498 0
M  V30 7406 C 674.248 -0.0823368 -3.388 0
M  V30 7407 C 673.421 -1.08341 -4.2377 0
M  V30 7408 C 672.48 -0.448292 -5.24287 0
M  V30 7409 O 671.506 -1.10458 -5.58379 0
M  V30 7410 N 672.708 0.785336 -5.75163 0
M  V30 7411 H 675.473 -1.65818 -2.49649 0
M  V30 7412 H 673.034 -1.01335 -1.26265 0
M  V30 7413 H 675.026 0.354476 -4.03145 0
M  V30 7414 H 673.596 0.733041 -3.03884 0
M  V30 7415 H 672.816 -1.69792 -3.55759 0
M  V30 7416 H 674.104 -1.76042 -4.77375 0
M  V30 7417 H 673.502 1.33755 -5.4966 0
M  V30 7418 H 672.059 1.16501 -6.41304 0
M  V30 7419 N 675.492 1.28418 -0.913599 0
M  V30 7420 C 676.769 1.89977 -0.465619 0
M  V30 7421 C 677.149 1.82813 1.05559 0
M  V30 7422 O 676.497 1.26397 1.90358 0
M  V30 7423 C 676.707 3.34492 -0.995813 0
M  V30 7424 C 678.055 4.11468 -1.04782 0
M  V30 7425 O 679.079 3.43451 -0.944445 0
M  V30 7426 O 677.938 5.33046 -1.20518 0
M  V30 7427 H 675.032 0.813734 -0.147532 0
M  V30 7428 H 677.578 1.36786 -1.00437 0
M  V30 7429 H 676.35 3.33929 -2.03978 0
M  V30 7430 H 675.973 3.95181 -0.437878 0
M  V30 7431 N 676.97 0.677563 1.42291 0
M  V30 7432 C 678.381 0.277912 1.8462 0
M  V30 7433 C 678.732 -1.18048 1.56714 0
M  V30 7434 O 677.857 -1.90404 1.02836 0
M  V30 7435 C 678.452 0.497619 3.35126 0
M  V30 7436 C 677.011 0.152063 3.76093 0
M  V30 7437 C 676.158 0.78872 2.65847 0
M  V30 7438 H 679.109 0.879527 1.32098 0
M  V30 7439 H 679.13 -0.24939 3.79682 0
M  V30 7440 H 678.642 1.55913 3.55405 0
M  V30 7441 H 676.743 -0.905896 3.6142 0
M  V30 7442 H 676.856 0.594514 4.75397 0
M  V30 7443 H 675.22 0.219813 2.5375 0
M  V30 7444 H 676.003 1.85374 2.88949 0
M  V30 7445 N 678.448 -1.51871 0.421078 0
M  V30 7446 C 679.678 -2.06057 -0.149723 0
M  V30 7447 C 680.086 -1.29002 -1.38402 0
M  V30 7448 O 679.429 -0.338385 -1.80556 0
M  V30 7449 C 679.491 -3.55216 -0.553339 0
M  V30 7450 C 679.155 -4.53408 0.571879 0
M  V30 7451 C 680.152 -4.99586 1.4391 0
M  V30 7452 C 677.837 -4.967 0.747979 0
M  V30 7453 C 679.831 -5.87711 2.46727 0
M  V30 7454 C 677.518 -5.84619 1.77944 0
M  V30 7455 C 678.516 -6.30021 2.63748 0
M  V30 7456 O 678.204 -7.16197 3.65126 0
M  V30 7457 H 677.936 -0.675744 -0.0186102 0
M  V30 7458 H 680.49 -1.96618 0.594166 0
M  V30 7459 H 678.72 -3.62381 -1.34969 0
M  V30 7460 H 680.409 -3.91992 -1.05342 0
M  V30 7461 H 681.175 -4.66846 1.31451 0
M  V30 7462 H 677.054 -4.60913 0.0897357 0
M  V30 7463 H 680.598 -6.2307 3.13734 0
M  V30 7464 H 676.495 -6.16771 1.90429 0
M  V30 7465 H 677.263 -7.34337 3.61512 0
M  V30 7466 N 679.926 -0.151884 -1.56866 0
M  V30 7467 C 681.154 0.504813 -2.00647 0
M  V30 7468 C 681.569 1.58098 -1.03201 0
M  V30 7469 O 680.926 1.82476 -0.0297814 0
M  V30 7470 C 680.977 1.10099 -3.44326 0
M  V30 7471 O 680.698 0.0678021 -4.38048 0
M  V30 7472 C 682.199 1.83782 -4.03409 0
M  V30 7473 H 679.419 0.130989 -0.65809 0
M  V30 7474 H 681.963 -0.247903 -2.02992 0
M  V30 7475 H 680.118 1.8043 -3.42817 0
M  V30 7476 H 680.532 0.505237 -5.22061 0
M  V30 7477 H 682.006 2.2078 -5.05925 0
M  V30 7478 H 682.483 2.72557 -3.44397 0
M  V30 7479 H 683.089 1.18138 -4.08563 0
M  V30 7480 N 681.404 1.57128 0.121893 0
M  V30 7481 C 682.65 1.84974 0.831418 0
M  V30 7482 C 682.983 0.737204 1.79663 0
M  V30 7483 O 682.258 -0.257199 1.92792 0
M  V30 7484 C 682.541 3.23397 1.58386 0
M  V30 7485 C 682.394 4.45246 0.638445 0
M  V30 7486 C 683.713 3.59355 2.54071 0
M  V30 7487 H 680.832 0.67282 0.300803 0
M  V30 7488 H 683.474 1.89759 0.0957587 0
M  V30 7489 H 681.624 3.19449 2.21098 0
M  V30 7490 H 683.296 4.61295 0.0203925 0
M  V30 7491 H 681.539 4.33771 -0.05023 0
M  V30 7492 H 682.21 5.38765 1.20151 0
M  V30 7493 H 684.686 3.64075 2.01465 0
M  V30 7494 H 683.562 4.57193 3.03752 0
M  V30 7495 H 683.823 2.86622 3.36601 0
M  V30 7496 N 682.882 -0.391992 1.52647 0
M  V30 7497 C 684.129 -1.13732 1.67545 0
M  V30 7498 C 684.457 -1.90045 0.413881 0
M  V30 7499 O 683.712 -1.86157 -0.603646 0
M  V30 7500 C 684.011 -2.14401 2.85949 0
M  V30 7501 C 683.677 -1.54767 4.23507 0
M  V30 7502 C 682.339 -1.38229 4.60919 0
M  V30 7503 C 684.691 -1.11382 5.0916 0
M  V30 7504 C 682.019 -0.7685 5.81645 0
M  V30 7505 C 684.371 -0.514143 6.30507 0
M  V30 7506 C 683.035 -0.33604 6.66654 0
M  V30 7507 H 682.305 -0.416174 0.613091 0
M  V30 7508 H 684.952 -0.422327 1.86785 0
M  V30 7509 H 683.257 -2.92108 2.61114 0
M  V30 7510 H 684.954 -2.71974 2.94671 0
M  V30 7511 H 681.544 -1.68626 3.94035 0
M  V30 7512 H 685.728 -1.22962 4.80826 0
M  V30 7513 H 680.984 -0.618681 6.08262 0
M  V30 7514 H 685.158 -0.169657 6.96193 0
M  V30 7515 H 682.785 0.14166 7.60068 0
M  V30 7516 N 684.36 -1.4356 -0.65026 0
M  V30 7517 C 685.27 -1.514 -1.79207 0
M  V30 7518 C 686.286 -0.400895 -1.69319 0
M  V30 7519 O 687.462 -0.655458 -1.90436 0
M  V30 7520 C 684.527 -1.43737 -3.155 0
M  V30 7521 C 683.588 -2.65743 -3.37163 0
M  V30 7522 C 682.821 -2.58436 -4.66954 0
M  V30 7523 O 683.044 -1.63374 -5.46503 0
M  V30 7524 O 681.978 -3.48984 -4.90402 0
M  V30 7525 H 685.804 -2.47825 -1.75547 0
M  V30 7526 H 683.389 -1.25594 -0.809111 0
M  V30 7527 H 685.271 -1.41916 -3.96784 0
M  V30 7528 H 683.946 -0.504488 -3.19745 0
M  V30 7529 H 682.853 -2.73136 -2.55632 0
M  V30 7530 H 684.186 -3.58014 -3.37768 0
M  V30 7531 N 685.838 0.888903 -1.30139 0
M  V30 7532 C 687.068 1.67115 -1.21474 0
M  V30 7533 C 687.476 1.87852 0.225472 0
M  V30 7534 O 686.819 1.42324 1.16145 0
M  V30 7535 C 686.881 3.0713 -1.86846 0
M  V30 7536 C 686.545 3.09582 -3.36167 0
M  V30 7537 C 687.542 2.88929 -4.32222 0
M  V30 7538 C 685.227 3.31304 -3.77549 0
M  V30 7539 C 687.221 2.89949 -5.67634 0
M  V30 7540 C 684.908 3.31954 -5.13079 0
M  V30 7541 C 685.906 3.113 -6.07932 0
M  V30 7542 O 685.594 3.11758 -7.40987 0
M  V30 7543 H 685.326 0.528372 -0.421662 0
M  V30 7544 H 687.88 1.11919 -1.7223 0
M  V30 7545 H 686.11 3.63973 -1.30615 0
M  V30 7546 H 687.799 3.6749 -1.72354 0
M  V30 7547 H 688.565 2.71948 -4.01584 0
M  V30 7548 H 684.444 3.46417 -3.04165 0
M  V30 7549 H 687.988 2.73746 -6.41645 0
M  V30 7550 H 683.885 3.48469 -5.43359 0
M  V30 7551 H 684.653 3.27951 -7.49927 0
M  V30 7552 N 687.317 1.12792 1.10072 0
M  V30 7553 C 688.566 0.880232 1.81479 0
M  V30 7554 C 688.879 -0.595575 1.86312 0
M  V30 7555 O 690.085 -0.959979 2.53962 0
M  V30 7556 C 688.541 1.52514 3.25987 0
M  V30 7557 C 688.149 3.036 3.29441 0
M  V30 7558 C 689.893 1.35788 4.02196 0
M  V30 7559 C 687.8 3.61007 4.68431 0
M  V30 7560 H 686.73 0.325654 0.680048 0
M  V30 7561 H 689.381 1.35485 1.23758 0
M  V30 7562 H 687.763 0.978188 3.83728 0
M  V30 7563 H 688.937 3.64819 2.81502 0
M  V30 7564 H 687.252 3.19765 2.66719 0
M  V30 7565 H 689.849 1.76096 5.0487 0
M  V30 7566 H 690.192 0.301972 4.15203 0
M  V30 7567 H 690.725 1.87426 3.50879 0
M  V30 7568 H 687.464 4.66375 4.60625 0
M  V30 7569 H 686.984 3.04564 5.16721 0
M  V30 7570 H 688.663 3.60289 5.37402 0
M  V30 7571 N 688.795 -1.27931 0.920396 0
M  V30 7572 C 689.705 -2.30824 0.419212 0
M  V30 7573 C 690.721 -1.66767 -0.496461 0
M  V30 7574 O 691.897 -1.97763 -0.38104 0
M  V30 7575 C 688.962 -3.45158 -0.326601 0
M  V30 7576 C 688.023 -4.24754 0.623098 0
M  V30 7577 C 687.256 -5.33629 -0.0872172 0
M  V30 7578 O 687.479 -5.55204 -1.30784 0
M  V30 7579 O 686.413 -5.99091 0.580875 0
M  V30 7580 H 690.239 -2.75716 1.27337 0
M  V30 7581 H 687.824 -1.32747 0.685465 0
M  V30 7582 H 689.706 -4.14716 -0.747559 0
M  V30 7583 H 688.381 -3.02336 -1.15648 0
M  V30 7584 H 687.288 -3.57759 1.09359 0
M  V30 7585 H 688.621 -4.71272 1.41998 0
M  V30 7586 N 690.273 -0.685099 -1.4193 0
M  V30 7587 C 691.498 -0.218842 -2.06242 0
M  V30 7588 C 691.923 1.11923 -1.51178 0
M  V30 7589 O 691.281 1.69837 -0.634446 0
M  V30 7590 C 691.329 -0.175592 -3.60172 0
M  V30 7591 O 690.433 0.852776 -4.03487 0
M  V30 7592 H 689.774 -0.109531 -0.654904 0
M  V30 7593 H 692.304 -0.937013 -1.81882 0
M  V30 7594 H 692.314 -0.00291151 -4.08 0
M  V30 7595 H 690.989 -1.15222 -3.99621 0
M  V30 7596 H 689.566 0.650301 -3.67186 0
M  V30 7597 N 691.751 1.51645 -0.429126 0
M  V30 7598 C 692.999 2.01616 0.139802 0
M  V30 7599 C 693.32 1.31568 1.43927 0
M  V30 7600 O 692.59 0.447688 1.90716 0
M  V30 7601 H 691.17 0.744998 0.054654 0
M  V30 7602 H 693.832 1.8638 -0.569952 0
M  V30 7603 H 692.928 3.10439 0.321609 0
M  V30 7604 N 693.229 0.160201 1.56784 0
M  V30 7605 C 694.478 -0.487619 1.95717 0
M  V30 7606 C 694.791 -1.65136 1.0483 0
M  V30 7607 O 695.997 -2.36468 1.33398 0
M  V30 7608 C 694.453 -0.91888 3.47972 0
M  V30 7609 C 694.061 0.218655 4.47466 0
M  V30 7610 C 695.805 -1.53575 3.95746 0
M  V30 7611 C 693.712 -0.231614 5.90946 0
M  V30 7612 H 692.642 -0.185939 0.730714 0
M  V30 7613 H 695.293 0.246657 1.81835 0
M  V30 7614 H 693.675 -1.70881 3.57234 0
M  V30 7615 H 694.849 0.995825 4.49911 0
M  V30 7616 H 693.164 0.744767 4.09685 0
M  V30 7617 H 695.761 -1.88448 5.00391 0
M  V30 7618 H 696.104 -2.42959 3.38048 0
M  V30 7619 H 696.637 -0.810467 3.89456 0
M  V30 7620 H 693.376 0.62718 6.52493 0
M  V30 7621 H 692.896 -0.974379 5.91833 0
M  V30 7622 H 694.575 -0.67922 6.43425 0
M  V30 7623 N 694.707 -1.5719 -0.113559 0
M  V30 7624 C 695.956 -1.84325 -0.818984 0
M  V30 7625 C 696.269 -0.746685 -1.80787 0
M  V30 7626 O 697.475 -0.904596 -2.55987 0
M  V30 7627 C 695.931 -3.26818 -1.50724 0
M  V30 7628 C 695.539 -4.44498 -0.559065 0
M  V30 7629 C 697.283 -3.63196 -2.19748 0
M  V30 7630 C 695.19 -5.7802 -1.25086 0
M  V30 7631 H 694.12 -0.687507 -0.309596 0
M  V30 7632 H 696.771 -1.8336 -0.0717621 0
M  V30 7633 H 695.153 -3.22269 -2.30128 0
M  V30 7634 H 696.327 -4.60356 0.202146 0
M  V30 7635 H 694.642 -4.16393 0.024495 0
M  V30 7636 H 697.239 -4.60226 -2.72206 0
M  V30 7637 H 697.582 -2.90899 -2.97798 0
M  V30 7638 H 698.115 -3.69553 -1.47226 0
M  V30 7639 H 694.854 -6.53501 -0.511539 0
M  V30 7640 H 694.374 -5.66038 -1.98395 0
M  V30 7641 H 696.053 -6.2196 -1.78253 0
M  V30 7642 N 696.185 0.383891 -1.52853 0
M  V30 7643 C 697.133 1.48965 -1.7864 0
M  V30 7644 C 698.127 1.56242 -0.654577 0
M  V30 7645 O 699.333 1.59347 -0.83716 0
M  V30 7646 H 695.708 0.495892 -0.565328 0
M  V30 7647 H 697.679 1.24411 -2.71228 0
M  V30 7648 C 696.428 2.86036 -1.97683 0
M  V30 7649 H 695.751 2.81188 -2.84206 0
M  V30 7650 H 697.191 3.62632 -2.19713 0
M  V30 7651 C 695.65 3.28428 -0.750776 0
M  V30 7652 O 696.18 4.0164 0.0693491 0
M  V30 7653 N 694.386 2.84765 -0.579427 0
M  V30 7654 H 693.933 2.25353 -1.24795 0
M  V30 7655 H 693.891 3.13486 0.239544 0
M  V30 7656 N 697.663 1.43903 0.642637 0
M  V30 7657 C 699.074 1.40975 1.22404 0
M  V30 7658 C 699.425 0.1192 1.95838 0
M  V30 7659 O 698.55 -0.780939 2.01818 0
M  V30 7660 C 699.145 2.5538 2.22636 0
M  V30 7661 C 697.704 2.55684 2.76229 0
M  V30 7662 C 696.851 2.32556 1.51039 0
M  V30 7663 H 699.802 1.5265 0.434006 0
M  V30 7664 H 699.823 2.27474 3.05017 0
M  V30 7665 H 699.335 3.49294 1.69161 0
M  V30 7666 H 697.436 1.65679 3.33738 0
M  V30 7667 H 697.549 3.53799 3.23053 0
M  V30 7668 H 695.913 1.81427 1.78764 0
M  V30 7669 H 696.696 3.28569 0.99484 0
M  V30 7670 N 699.141 -0.881989 1.30609 0
M  V30 7671 C 700.071 -2.00413 1.1982 0
M  V30 7672 C 701.052 -1.69871 0.0881538 0
M  V30 7673 O 702.237 -1.92304 0.2707 0
M  V30 7674 C 699.367 -3.35641 0.89233 0
M  V30 7675 C 698.321 -3.80451 1.96064 0
M  V30 7676 C 697.647 -5.13003 1.5077 0
M  V30 7677 C 698.947 -3.98855 3.37213 0
M  V30 7678 H 700.641 -2.09698 2.13699 0
M  V30 7679 H 698.187 -1.00754 1.02882 0
M  V30 7680 H 700.14 -4.13669 0.803497 0
M  V30 7681 H 698.864 -3.26497 -0.0821381 0
M  V30 7682 H 697.523 -3.04654 2.03916 0
M  V30 7683 H 697.171 -5.0029 0.521417 0
M  V30 7684 H 696.871 -5.43956 2.22229 0
M  V30 7685 H 698.395 -5.93554 1.43271 0
M  V30 7686 H 699.809 -4.67312 3.32103 0
M  V30 7687 H 698.206 -4.41188 4.06784 0
M  V30 7688 H 699.276 -3.02614 3.78883 0
M  V30 7689 N 700.619 -1.13374 -1.09472 0
M  V30 7690 C 702.03 -0.90801 -1.63132 0
M  V30 7691 C 702.381 0.555576 -1.8817 0
M  V30 7692 O 701.506 1.42218 -1.63104 0
M  V30 7693 C 702.101 -1.64182 -2.96361 0
M  V30 7694 C 700.66 -1.46197 -3.46848 0
M  V30 7695 C 699.807 -1.67134 -2.21273 0
M  V30 7696 H 702.758 -1.2871 -0.928411 0
M  V30 7697 H 702.779 -1.09863 -3.64294 0
M  V30 7698 H 702.291 -2.707 -2.78106 0
M  V30 7699 H 700.392 -0.419788 -3.70228 0
M  V30 7700 H 700.505 -2.22472 -4.24315 0
M  V30 7701 H 698.869 -1.09616 -2.29905 0
M  V30 7702 H 699.652 -2.74971 -2.05538 0
M  V30 7703 N 702.098 1.27442 -0.927168 0
M  V30 7704 C 703.045 2.26863 -0.424459 0
M  V30 7705 C 704.015 1.5813 0.508346 0
M  V30 7706 O 705.2 1.85946 0.42762 0
M  V30 7707 C 702.34 3.43639 0.31718 0
M  V30 7708 C 701.453 4.27087 -0.649675 0
M  V30 7709 C 700.588 5.31082 0.111753 0
M  V30 7710 C 699.627 6.062 -0.847843 0
M  V30 7711 N 698.764 7.01999 -0.119074 0
M  V30 7712 H 703.604 2.69239 -1.27728 0
M  V30 7713 H 701.141 1.32394 -0.641106 0
M  V30 7714 H 703.099 4.10155 0.763486 0
M  V30 7715 H 701.729 3.02217 1.13424 0
M  V30 7716 H 700.781 3.60491 -1.21451 0
M  V30 7717 H 702.093 4.79242 -1.38307 0
M  V30 7718 H 701.247 6.03544 0.618 0
M  V30 7719 H 699.986 4.7973 0.878114 0
M  V30 7720 H 698.991 5.32577 -1.36534 0
M  V30 7721 H 700.216 6.59642 -1.61398 0
M  V30 7722 H 698.162 6.52977 0.629051 0
M  V30 7723 H 698.079 7.5184 -0.792046 0
M  V30 7724 H 699.347 7.78638 0.366537 0
M  V30 7725 N 703.576 0.692616 1.41565 0
M  V30 7726 C 704.523 0.0254264 2.30786 0
M  V30 7727 C 705.493 -0.774347 1.46946 0
M  V30 7728 O 706.678 -0.742981 1.7574 0
M  V30 7729 C 703.818 -0.907123 3.32964 0
M  V30 7730 C 702.931 -0.0992784 4.31886 0
M  V30 7731 C 702.066 -1.0292 5.21134 0
M  V30 7732 C 701.105 -0.214088 6.11725 0
M  V30 7733 N 700.242 -1.09766 6.93467 0
M  V30 7734 H 705.082 0.792036 2.87282 0
M  V30 7735 H 702.619 0.4023 1.41492 0
M  V30 7736 H 704.577 -1.46181 3.90752 0
M  V30 7737 H 703.207 -1.64016 2.78026 0
M  V30 7738 H 702.259 0.572287 3.76071 0
M  V30 7739 H 703.571 0.532782 4.95946 0
M  V30 7740 H 702.725 -1.65321 5.83741 0
M  V30 7741 H 701.464 -1.69512 4.57293 0
M  V30 7742 H 700.469 0.42302 5.4817 0
M  V30 7743 H 701.694 0.447995 6.77621 0
M  V30 7744 H 699.64 -1.74965 6.32237 0
M  V30 7745 H 699.557 -0.521099 7.54202 0
M  V30 7746 H 700.825 -1.70858 7.60544 0
M  V30 7747 N 705.054 -1.51416 0.437162 0
M  V30 7748 C 706.303 -2.01275 -0.130865 0
M  V30 7749 C 706.616 -1.32593 -1.438 0
M  V30 7750 O 707.822 -1.7342 -2.08897 0
M  V30 7751 C 706.278 -3.5878 -0.283763 0
M  V30 7752 C 705.886 -4.36399 1.01293 0
M  V30 7753 C 707.63 -4.16786 -0.805569 0
M  V30 7754 C 705.537 -5.85608 0.825687 0
M  V30 7755 H 704.467 -0.752157 -0.0526818 0
M  V30 7756 H 707.118 -1.74524 0.566896 0
M  V30 7757 H 705.5 -3.81976 -1.04452 0
M  V30 7758 H 706.674 -4.24948 1.78201 0
M  V30 7759 H 704.989 -3.89843 1.46326 0
M  V30 7760 H 707.586 -5.25972 -0.962146 0
M  V30 7761 H 707.929 -3.75949 -1.78796 0
M  V30 7762 H 708.462 -3.97666 -0.103125 0
M  V30 7763 H 705.201 -6.30857 1.78045 0
M  V30 7764 H 704.721 -5.99723 0.0964029 0
M  V30 7765 H 706.4 -6.45226 0.478815 0
M  V30 7766 N 706.532 -0.168513 -1.56696 0
M  V30 7767 C 707.943 0.348694 -1.83415 0
M  V30 7768 C 708.294 1.63257 -1.0882 0
M  V30 7769 O 707.419 2.13707 -0.340333 0
M  V30 7770 C 708.014 0.639423 -3.32711 0
M  V30 7771 C 706.573 1.10108 -3.59935 0
M  V30 7772 C 705.72 0.135464 -2.76969 0
M  V30 7773 H 708.671 -0.392829 -1.53761 0
M  V30 7774 H 708.692 1.49179 -3.50037 0
M  V30 7775 H 708.204 -0.295173 -3.86976 0
M  V30 7776 H 706.305 2.05088 -3.11079 0
M  V30 7777 H 706.418 1.01218 -4.68286 0
M  V30 7778 H 704.782 0.632286 -2.46727 0
M  V30 7779 H 705.565 -0.793104 -3.34013 0
M  V30 7780 O 708.049 1.61471 -0.0305634 0
M  V30 7781 H 708.74 1.84756 0.581805 0
M  V30 END ATOM
M  V30 BEGIN BOND
M  V30 END BOND
M  V30 END CTAB
M  END
$$$$
