drugbank_target|Q96NY8 Nectin-4 (DB13007)
 OpenBabel12092121213D

  0  0  0     0  0            999 V3000
M  V30 BEGIN CTAB
M  V30 COUNTS 7711 7795 0 0 0
M  V30 BEGIN ATOM
M  V30 1 H -0.908 1.98254 -0.117106 0
M  V30 2 N 0 1.576 0 0
M  V30 3 C 0.933 2.03868 1.02534 0
M  V30 4 C 1.911 0.928543 1.3348 0
M  V30 5 O 3.095 1.19667 1.45644 0
M  V30 6 C 0.222 2.43627 2.35294 0
M  V30 7 C -0.732 3.65373 2.2001 0
M  V30 8 S 0.101 5.13292 1.52614 0
M  V30 9 C 1.257 5.56322 2.86805 0
M  V30 10 H 1.49 2.90518 0.631377 0
M  V30 11 H -0.977 1.52953 0.210867 0
M  V30 12 H 0.981 2.67203 3.11629 0
M  V30 13 H -0.358 1.57376 2.7183 0
M  V30 14 H -1.165 3.90944 3.18086 0
M  V30 15 H -1.563 3.418 1.51819 0
M  V30 16 H 0.729 5.58782 3.83104 0
M  V30 17 H 1.672 6.56266 2.65933 0
M  V30 18 H 2.08 4.83886 2.90714 0
M  V30 19 N 1.4781 -0.272755 1.55222 0
M  V30 20 C 2.8891 -0.84378 1.66545 0
M  V30 21 C 3.2401 -1.87035 0.592641 0
M  V30 22 O 2.3651 -2.14761 -0.265818 0
M  V30 23 C 2.9601 -1.53723 3.01918 0
M  V30 24 C 1.5191 -2.05628 3.15268 0
M  V30 25 C 0.6661 -0.898424 2.62343 0
M  V30 26 H 3.6171 -0.0490998 1.58624 0
M  V30 27 H 3.6381 -2.40421 2.94921 0
M  V30 28 H 3.1501 -0.78983 3.79978 0
M  V30 29 H 1.2511 -2.83329 2.41983 0
M  V30 30 H 1.3641 -2.27142 4.21833 0
M  V30 31 H -0.2719 -1.29186 2.19506 0
M  V30 32 H 0.5111 -0.164528 3.42906 0
M  V30 33 N 2.9562 -1.48159 -0.537278 0
M  V30 34 C 3.8862 -1.65029 -1.6519 0
M  V30 35 C 4.8672 -0.499281 -1.62607 0
M  V30 36 O 6.0522 -0.730972 -1.79918 0
M  V30 37 C 3.1822 -1.68303 -3.03795 0
M  V30 38 C 2.1362 -2.8283 -3.21234 0
M  V30 39 C 1.4622 -2.71189 -4.60826 0
M  V30 40 C 2.7622 -4.24211 -3.04701 0
M  V30 41 H 4.4562 -2.58341 -1.51328 0
M  V30 42 H 2.0022 -1.24325 -0.726585 0
M  V30 43 H 3.9552 -1.78693 -3.81637 0
M  V30 44 H 2.6792 -0.715635 -3.18663 0
M  V30 45 H 1.3382 -2.71983 -2.45807 0
M  V30 46 H 0.9862 -1.72435 -4.7252 0
M  V30 47 H 0.6862 -3.48035 -4.7344 0
M  V30 48 H 2.2102 -2.83537 -5.40777 0
M  V30 49 H 3.6242 -4.3593 -3.72341 0
M  V30 50 H 2.0212 -5.01998 -3.28813 0
M  V30 51 H 3.0912 -4.41184 -2.01209 0
M  V30 52 N 4.4343 0.785586 -1.36625 0
M  V30 53 C 5.6593 1.57963 -1.34397 0
M  V30 54 C 6.0843 1.87964 0.071526 0
M  V30 55 O 5.4423 1.48182 1.0446 0
M  V30 56 C 5.4903 2.87511 -2.17646 0
M  V30 57 O 4.5943 3.81281 -1.57158 0
M  V30 58 H 3.9353 0.479014 -0.459828 0
M  V30 59 H 6.4653 0.973411 -1.79961 0
M  V30 60 H 6.4753 3.36745 -2.30362 0
M  V30 61 H 5.1503 2.65002 -3.20541 0
M  V30 62 H 3.7273 3.39885 -1.53403 0
M  V30 63 N 5.9124 1.20967 1.01018 0
M  V30 64 C 6.8424 0.988272 2.11555 0
M  V30 65 C 7.8234 -0.0849778 1.69888 0
M  V30 66 O 9.0084 0.0738202 1.9406 0
M  V30 67 C 6.1384 0.546528 3.42973 0
M  V30 68 C 5.0924 1.56375 3.9841 0
M  V30 69 C 4.4184 0.97842 5.25672 0
M  V30 70 C 5.7184 2.94922 4.31066 0
M  V30 71 H 7.4124 1.91276 2.30334 0
M  V30 72 H 4.9584 0.921073 1.1069 0
M  V30 73 H 6.9114 0.378839 4.19694 0
M  V30 74 H 5.6354 -0.413598 3.23971 0
M  V30 75 H 4.2944 1.71891 3.23804 0
M  V30 76 H 3.9424 0.0101688 5.02999 0
M  V30 77 H 3.6424 1.65784 5.63728 0
M  V30 78 H 5.1664 0.821939 6.05043 0
M  V30 79 H 6.5804 2.8288 4.9865 0
M  V30 80 H 4.9774 3.5983 4.80253 0
M  V30 81 H 6.0474 3.4616 3.39561 0
M  V30 82 N 7.3905 -1.2043 1.01659 0
M  V30 83 C 8.6385 -1.89423 0.704522 0
M  V30 84 C 8.9595 -1.79231 -0.768197 0
M  V30 85 O 8.2295 -1.1947 -1.55254 0
M  V30 86 H 6.8095 -0.701178 0.257602 0
M  V30 87 H 9.4715 -1.4626 1.28818 0
M  V30 88 H 8.5675 -2.96052 0.987916 0
M  V30 89 N 8.8686 -0.792821 -1.36206 0
M  V30 90 C 9.8316 -0.199459 -2.2833 0
M  V30 91 C 10.8316 0.605189 -1.48977 0
M  V30 92 O 12.0216 0.425685 -1.68919 0
M  V30 93 C 9.1536 0.723523 -3.33134 0
M  V30 94 H 10.3466 -1.01181 -2.82316 0
M  V30 95 H 7.8996 -0.562485 -1.45828 0
M  V30 96 H 8.6346 1.56008 -2.84309 0
M  V30 97 H 8.4196 0.148436 -3.91819 0
M  V30 98 H 9.9096 1.13344 -4.01924 0
M  V30 99 N 10.3467 1.47872 -0.545128 0
M  V30 100 C 11.2567 2.33633 0.212746 0
M  V30 101 C 12.2727 1.4744 0.923983 0
M  V30 102 O 13.4487 1.80393 0.895572 0
M  V30 103 C 10.5137 3.23884 1.23693 0
M  V30 104 C 9.5747 4.25961 0.534417 0
M  V30 105 C 8.8077 5.11899 1.5098 0
M  V30 106 O 9.0307 5.00077 2.7437 0
M  V30 107 O 7.9647 5.92831 1.0409 0
M  V30 108 H 11.7907 2.99714 -0.490416 0
M  V30 109 H 9.3757 1.46235 -0.305871 0
M  V30 110 H 11.2577 3.79666 1.82843 0
M  V30 111 H 9.9327 2.60446 1.92222 0
M  V30 112 H 8.8397 3.73972 -0.0979679 0
M  V30 113 H 10.1727 4.92079 -0.109213 0
M  V30 114 N 11.8248 0.280983 1.55075 0
M  V30 115 C 12.7578 -0.645439 2.18882 0
M  V30 116 C 13.7358 -1.14786 1.15165 0
M  V30 117 O 14.9198 -1.21975 1.43716 0
M  V30 118 C 12.0468 -1.88088 2.81674 0
M  V30 119 C 11.0928 -1.51343 3.98745 0
M  V30 120 S 11.9258 -0.586548 5.32278 0
M  V30 121 C 13.0818 -1.83024 5.98543 0
M  V30 122 H 13.3148 -0.1033 2.9712 0
M  V30 123 H 10.8478 0.0652099 1.54262 0
M  V30 124 H 12.8058 -2.58997 3.18482 0
M  V30 125 H 11.4668 -2.39417 2.03318 0
M  V30 126 H 10.6598 -2.43289 4.41392 0
M  V30 127 H 10.2618 -0.884477 3.63391 0
M  V30 128 H 12.5538 -2.77342 6.18133 0
M  V30 129 H 13.4968 -1.44668 6.93164 0
M  V30 130 H 13.9048 -1.99785 5.27964 0
M  V30 131 N 13.3029 -1.57598 0.00835791 0
M  V30 132 C 14.5489 -1.92046 -0.670055 0
M  V30 133 C 14.9039 -0.88351 -1.70915 0
M  V30 134 O 14.1969 0.103223 -1.91322 0
M  V30 135 C 14.3909 -3.3101 -1.34787 0
M  V30 136 C 14.2199 -4.48126 -0.375945 0
M  V30 137 C 12.9899 -5.05297 0.0166914 0
M  V30 138 C 15.1879 -5.1303 0.361272 0
M  V30 139 N 13.1699 -6.05931 0.985952 0
M  V30 140 C 14.5409 -6.08571 1.18495 0
M  V30 141 C 16.5959 -4.9609 0.42421 0
M  V30 142 C 15.2989 -6.88996 2.06584 0
M  V30 143 C 17.3249 -5.77107 1.29236 0
M  V30 144 C 16.6869 -6.72248 2.10386 0
M  V30 145 H 12.7859 -0.75096 -0.218136 0
M  V30 146 H 15.3699 -1.94572 0.0706669 0
M  V30 147 H 13.5409 -3.29342 -2.05884 0
M  V30 148 H 15.2729 -3.52864 -1.98164 0
M  V30 149 H 12.0279 -4.72279 -0.353435 0
M  V30 150 H 12.4519 -6.60932 1.4662 0
M  V30 151 H 17.0939 -4.22378 -0.188915 0
M  V30 152 H 14.8119 -7.62028 2.6896 0
M  V30 153 H 18.3979 -5.66038 1.34508 0
M  V30 154 H 17.2779 -7.33846 2.76476 0
M  V30 155 N 14.781 0.264519 -1.55364 0
M  V30 156 C 16.029 0.993021 -1.76021 0
M  V30 157 C 16.35 1.86511 -0.569099 0
M  V30 158 O 15.62 1.91438 0.415735 0
M  V30 159 H 14.2 0.369639 -0.649135 0
M  V30 160 H 16.862 0.286707 -1.9278 0
M  V30 161 H 15.958 1.62502 -2.66457 0
M  V30 162 N 16.2591 1.48442 0.529413 0
M  V30 163 C 17.6701 1.5002 1.11134 0
M  V30 164 C 18.0211 0.27031 1.94329 0
M  V30 165 O 17.1461 -0.622507 2.07253 0
M  V30 166 C 17.7411 2.71834 2.02217 0
M  V30 167 C 16.3001 2.76283 2.55627 0
M  V30 168 C 15.4471 2.43542 1.326 0
M  V30 169 H 18.3981 1.5555 0.314641 0
M  V30 170 H 18.4191 2.50384 2.8651 0
M  V30 171 H 17.9311 3.61331 1.41639 0
M  V30 172 H 16.0321 1.90995 3.19924 0
M  V30 173 H 16.1451 3.77725 2.94721 0
M  V30 174 H 14.5091 1.94709 1.64196 0
M  V30 175 H 15.2921 3.3528 0.737734 0
M  V30 176 N 17.7372 -0.778329 1.37039 0
M  V30 177 C 18.6472 -1.92253 1.34446 0
M  V30 178 C 19.6632 -1.72267 0.244991 0
M  V30 179 O 20.8392 -1.95615 0.479258 0
M  V30 180 C 17.9042 -3.27282 1.144 0
M  V30 181 C 16.9652 -3.59969 2.33925 0
M  V30 182 C 16.1982 -4.88555 2.14825 0
M  V30 183 O 16.4212 -5.59113 1.12912 0
M  V30 184 O 15.3552 -5.20153 3.02861 0
M  V30 185 H 19.1812 -1.97392 2.30803 0
M  V30 186 H 16.7662 -0.920154 1.17701 0
M  V30 187 H 18.6482 -4.08062 1.05182 0
M  V30 188 H 17.3232 -3.23011 0.211124 0
M  V30 189 H 16.2302 -2.7945 2.48714 0
M  V30 190 H 17.5632 -3.68976 3.25757 0
M  V30 191 N 19.2153 -1.21501 -1.00376 0
M  V30 192 C 20.1783 -0.976927 -2.07337 0
M  V30 193 C 21.1783 0.0525322 -1.60714 0
M  V30 194 O 22.3683 -0.184869 -1.73216 0
M  V30 195 C 19.5003 -0.473423 -3.37597 0
M  V30 196 H 20.6933 -1.92587 -2.29892 0
M  V30 197 H 18.2463 -1.03217 -1.17371 0
M  V30 198 H 18.9813 0.480379 -3.20722 0
M  V30 199 H 18.7663 -1.216 -3.72768 0
M  V30 200 H 20.2563 -0.32675 -4.1632 0
M  V30 201 N 20.6934 1.19889 -1.02296 0
M  V30 202 C 21.9394 1.89973 -0.726759 0
M  V30 203 C 22.2944 1.7776 0.73614 0
M  V30 204 O 21.5874 1.15523 1.52856 0
M  V30 205 C 21.7814 3.39883 -1.10518 0
M  V30 206 C 21.6104 3.66684 -2.60332 0
M  V30 207 C 20.3804 3.85045 -3.27213 0
M  V30 208 C 22.5784 3.68727 -3.58532 0
M  V30 209 N 20.5604 3.99422 -4.66192 0
M  V30 210 C 21.9314 3.88604 -4.83101 0
M  V30 211 C 23.9864 3.51722 -3.52414 0
M  V30 212 C 22.6894 3.9324 -6.02292 0
M  V30 213 C 24.7154 3.57632 -4.71013 0
M  V30 214 C 24.0774 3.77988 -5.94394 0
M  V30 215 H 20.1764 0.714551 -0.317712 0
M  V30 216 H 22.7604 1.44123 -1.30907 0
M  V30 217 H 20.9314 3.8447 -0.551142 0
M  V30 218 H 22.6634 3.97464 -0.761853 0
M  V30 219 H 19.4184 3.83689 -2.77632 0
M  V30 220 H 19.8424 4.10473 -5.38368 0
M  V30 221 H 24.4844 3.34945 -2.58015 0
M  V30 222 H 22.2024 4.08811 -6.97065 0
M  V30 223 H 25.7884 3.45773 -4.67902 0
M  V30 224 H 24.6684 3.82428 -6.8463 0
M  V30 225 N 22.1715 0.800033 1.35784 0
M  V30 226 C 23.1015 0.220184 2.3246 0
M  V30 227 C 24.0825 -0.65073 1.57161 0
M  V30 228 O 25.2675 -0.582359 1.85263 0
M  V30 229 C 22.3975 -0.637353 3.41402 0
M  V30 230 C 21.3515 0.134531 4.27789 0
M  V30 231 C 20.6775 -0.844285 5.27992 0
M  V30 232 C 21.9775 1.32979 5.05088 0
M  V30 233 H 23.6715 1.02787 2.81203 0
M  V30 234 H 21.2175 0.495717 1.35199 0
M  V30 235 H 23.1705 -1.05302 4.08031 0
M  V30 236 H 21.8945 -1.47785 2.91251 0
M  V30 237 H 20.5535 0.531296 3.6273 0
M  V30 238 H 20.2015 -1.68011 4.74111 0
M  V30 239 H 19.9015 -0.332184 5.8666 0
M  V30 240 H 21.4255 -1.2583 5.97494 0
M  V30 241 H 22.8395 0.98934 5.64699 0
M  V30 242 H 21.2365 1.77593 5.7322 0
M  V30 243 H 22.3065 2.11978 4.36111 0
M  V30 244 N 23.6496 -1.47581 0.552962 0
M  V30 245 C 24.5796 -2.32762 -0.185451 0
M  V30 246 C 25.5606 -1.43527 -0.912905 0
M  V30 247 O 26.7456 -1.72388 -0.894201 0
M  V30 248 C 23.8756 -3.25219 -1.21859 0
M  V30 249 C 22.8296 -4.23661 -0.607864 0
M  V30 250 C 22.1556 -5.05413 -1.74533 0
M  V30 251 C 23.4556 -5.20481 0.435582 0
M  V30 252 H 25.1496 -2.94749 0.525684 0
M  V30 253 H 22.6956 -1.41738 0.254251 0
M  V30 254 H 24.6486 -3.8365 -1.7433 0
M  V30 255 H 23.3726 -2.61279 -1.95961 0
M  V30 256 H 22.0316 -3.66451 -0.104489 0
M  V30 257 H 21.6796 -4.3788 -2.47529 0
M  V30 258 H 21.3796 -5.72059 -1.34249 0
M  V30 259 H 22.9036 -5.66701 -2.27338 0
M  V30 260 H 24.3176 -5.733 -0.00290157 0
M  V30 261 H 22.7146 -5.95305 0.757067 0
M  V30 262 H 23.7846 -4.66217 1.33303 0
M  V30 263 N 25.1277 -0.289203 -1.54924 0
M  V30 264 C 26.0577 0.58549 -2.2604 0
M  V30 265 C 27.0387 1.14753 -1.25562 0
M  V30 266 O 28.2237 1.17906 -1.54311 0
M  V30 267 C 25.3537 1.76305 -2.99222 0
M  V30 268 C 24.3077 1.33191 -4.06748 0
M  V30 269 C 23.6337 2.5937 -4.6758 0
M  V30 270 C 24.9337 0.471775 -5.20165 0
M  V30 271 H 26.6277 -0.00763532 -2.99399 0
M  V30 272 H 24.1737 -0.00511229 -1.43999 0
M  V30 273 H 26.1267 2.38097 -3.47689 0
M  V30 274 H 24.8507 2.38223 -2.23422 0
M  V30 275 H 23.5097 0.737121 -3.59113 0
M  V30 276 H 23.1577 3.19576 -3.88433 0
M  V30 277 H 22.8577 2.31228 -5.40192 0
M  V30 278 H 24.3817 3.21985 -5.18804 0
M  V30 279 H 25.7957 0.995056 -5.64599 0
M  V30 280 H 24.1927 0.284639 -5.99425 0
M  V30 281 H 25.2627 -0.506041 -4.82252 0
M  V30 282 N 26.6058 1.57591 -0.0167156 0
M  V30 283 C 27.5358 2.12496 0.967858 0
M  V30 284 C 28.5168 1.03807 1.34752 0
M  V30 285 O 29.7018 1.31577 1.42833 0
M  V30 286 C 26.8318 2.64194 2.25431 0
M  V30 287 C 25.7858 3.77559 2.01576 0
M  V30 288 C 25.1118 4.15636 3.36379 0
M  V30 289 C 26.4118 5.04151 1.36489 0
M  V30 290 H 28.1058 2.95013 0.510643 0
M  V30 291 H 25.6518 1.41915 0.244181 0
M  V30 292 H 27.6048 3.01236 2.94678 0
M  V30 293 H 26.3288 1.78821 2.73296 0
M  V30 294 H 24.9878 3.40937 1.34751 0
M  V30 295 H 24.6358 3.27263 3.81979 0
M  V30 296 H 24.3358 4.92022 3.21229 0
M  V30 297 H 25.8598 4.5525 4.06915 0
M  V30 298 H 27.2738 5.38857 1.95718 0
M  V30 299 H 25.6708 5.85453 1.31776 0
M  V30 300 H 26.7408 4.83733 0.336219 0
M  V30 301 N 28.0839 -0.256276 1.55502 0
M  V30 302 C 29.0139 -1.32102 1.92539 0
M  V30 303 C 29.9949 -1.50684 0.789194 0
M  V30 304 O 31.1799 -1.63449 1.04872 0
M  V30 305 C 28.3099 -2.67752 2.21192 0
M  V30 306 C 27.2639 -2.63878 3.36975 0
M  V30 307 C 26.5899 -4.03236 3.51147 0
M  V30 308 C 27.8899 -2.21682 4.72921 0
M  V30 309 H 29.5839 -1.01351 2.81724 0
M  V30 310 H 27.1299 -0.486105 1.35547 0
M  V30 311 H 29.0829 -3.42365 2.45691 0
M  V30 312 H 27.8069 -3.0012 1.28824 0
M  V30 313 H 26.4659 -1.91722 3.12471 0
M  V30 314 H 26.1139 -4.32854 2.56216 0
M  V30 315 H 25.8139 -4.01535 4.29003 0
M  V30 316 H 27.3379 -4.79563 3.77957 0
M  V30 317 H 28.7519 -2.86023 4.96854 0
M  V30 318 H 27.1489 -2.3111 5.53812 0
M  V30 319 H 28.2189 -1.16833 4.70615 0
M  V30 320 N 29.562 -1.4872 -0.521534 0
M  V30 321 C 30.492 -1.66771 -1.63431 0
M  V30 322 C 31.473 -0.516499 -1.62069 0
M  V30 323 O 32.658 -0.750013 -1.79132 0
M  V30 324 C 29.788 -1.71515 -3.01993 0
M  V30 325 C 28.742 -2.86222 -3.18216 0
M  V30 326 C 28.068 -2.76061 -4.57924 0
M  V30 327 C 29.368 -4.27419 -3.00184 0
M  V30 328 H 31.062 -2.59932 -1.48579 0
M  V30 329 H 28.608 -1.25089 -0.713358 0
M  V30 330 H 30.561 -1.82731 -3.7972 0
M  V30 331 H 29.285 -0.749393 -3.17886 0
M  V30 332 H 27.944 -2.74575 -2.42908 0
M  V30 333 H 27.592 -1.77437 -4.70665 0
M  V30 334 H 27.292 -3.53037 -4.69722 0
M  V30 335 H 28.816 -2.89256 -5.37739 0
M  V30 336 H 30.23 -4.39855 -3.67697 0
M  V30 337 H 28.627 -5.05458 -3.2347 0
M  V30 338 H 29.697 -4.43293 -1.96518 0
M  V30 339 N 31.0401 0.771051 -1.3745 0
M  V30 340 C 31.9701 1.89827 -1.3597 0
M  V30 341 C 32.9511 1.68562 -0.228216 0
M  V30 342 O 34.1361 1.8941 -0.428675 0
M  V30 343 C 31.2661 3.2712 -1.16662 0
M  V30 344 C 30.2201 3.6295 -2.2683 0
M  V30 345 C 29.5461 4.98791 -1.92644 0
M  V30 346 C 30.8461 3.69627 -3.69017 0
M  V30 347 H 32.5401 1.91323 -2.30295 0
M  V30 348 H 30.0861 0.919082 -1.10855 0
M  V30 349 H 32.0391 4.05615 -1.14256 0
M  V30 350 H 30.7631 3.26059 -0.187926 0
M  V30 351 H 29.4221 2.86763 -2.28392 0
M  V30 352 H 29.0701 4.94271 -0.933021 0
M  V30 353 H 28.7701 5.23733 -2.66416 0
M  V30 354 H 30.2941 5.79685 -1.91826 0
M  V30 355 H 31.7081 4.38273 -3.69581 0
M  V30 356 H 30.1051 4.06067 -4.41848 0
M  V30 357 H 31.1751 2.70273 -4.02592 0
M  V30 358 N 32.5182 1.22032 0.997298 0
M  V30 359 C 33.4812 0.987909 2.06816 0
M  V30 360 C 34.4812 -0.0440084 1.6074 0
M  V30 361 O 35.6712 0.194053 1.73116 0
M  V30 362 C 32.8032 0.49132 3.37341 0
M  V30 363 H 33.9962 1.93803 2.28868 0
M  V30 364 H 31.5492 1.03838 1.16822 0
M  V30 365 H 32.2842 -0.463364 3.20973 0
M  V30 366 H 32.0692 1.23575 3.72118 0
M  V30 367 H 33.5592 0.348824 4.16141 0
M  V30 368 N 33.9963 -1.19345 1.0293 0
M  V30 369 C 35.2213 -1.93538 0.745511 0
M  V30 370 C 35.6463 -1.75007 -0.689511 0
M  V30 371 O 35.0043 -1.05265 -1.47611 0
M  V30 372 C 35.0523 -3.43336 1.10239 0
M  V30 373 O 34.1563 -4.11806 0.221289 0
M  V30 374 H 33.4973 -0.604193 0.275404 0
M  V30 375 H 36.0273 -1.5141 1.37609 0
M  V30 376 H 36.0373 -3.94004 1.05947 0
M  V30 377 H 34.7123 -3.56146 2.14786 0
M  V30 378 H 33.2893 -3.715 0.322842 0
M  V30 379 N 35.4744 -0.807222 -1.35358 0
M  V30 380 C 36.7214 -0.387888 -1.9875 0
M  V30 381 C 37.0494 1.04509 -1.64037 0
M  V30 382 O 36.3044 1.73986 -0.895946 0
M  V30 383 C 36.6034 -0.519036 -3.53611 0
M  V30 384 C 36.2694 -1.91542 -4.08194 0
M  V30 385 C 34.9314 -2.29745 -4.22813 0
M  V30 386 C 37.2834 -2.82896 -4.37744 0
M  V30 387 C 34.6114 -3.58668 -4.643 0
M  V30 388 C 36.9634 -4.11265 -4.8067 0
M  V30 389 C 35.6274 -4.49466 -4.93494 0
M  V30 390 H 34.8974 -0.141938 -0.727279 0
M  V30 391 H 37.5444 -1.02814 -1.6156 0
M  V30 392 H 35.8494 0.204658 -3.91265 0
M  V30 393 H 37.5464 -0.175345 -4.00616 0
M  V30 394 H 34.1364 -1.60862 -3.97268 0
M  V30 395 H 38.3204 -2.54629 -4.26002 0
M  V30 396 H 33.5764 -3.88113 -4.72418 0
M  V30 397 H 37.7504 -4.82153 -5.02496 0
M  V30 398 H 35.3774 -5.49418 -5.25399 0
M  V30 399 N 36.9525 1.47285 -0.560781 0
M  V30 400 C 38.1805 2.06855 -0.0430262 0
M  V30 401 C 38.5955 1.41291 1.25229 0
M  V30 402 O 37.9525 0.510648 1.7521 0
M  V30 403 C 38.0035 3.61178 0.152518 0
M  V30 404 O 37.7245 4.24285 -1.0915 0
M  V30 405 C 39.2255 4.37624 0.707145 0
M  V30 406 H 36.4455 0.669319 -0.0474652 0
M  V30 407 H 38.9895 1.89237 -0.77521 0
M  V30 408 H 37.1445 3.78298 0.834843 0
M  V30 409 H 37.5585 5.16868 -0.891482 0
M  V30 410 H 39.0325 5.46271 0.793244 0
M  V30 411 H 39.5095 4.04152 1.71923 0
M  V30 412 H 40.1155 4.25257 0.0604027 0
M  V30 413 N 38.4306 0.297415 1.54768 0
M  V30 414 C 39.6786 -0.312295 1.99673 0
M  V30 415 C 39.9996 -1.54686 1.18732 0
M  V30 416 O 39.2696 -1.93854 0.282382 0
M  V30 417 H 37.8496 -0.118381 0.73756 0
M  V30 418 H 40.5116 0.407915 1.90583 0
M  V30 419 H 39.6076 -0.586813 3.06534 0
M  V30 420 N 39.9087 -1.5758 0.0250728 0
M  V30 421 C 41.3247 -1.56124 -0.331282 0
M  V30 422 C 41.5247 -1.03029 -1.73169 0
M  V30 423 O 40.5807 -0.675215 -2.43305 0
M  V30 424 C 41.8937 -3.00139 -0.183584 0
M  V30 425 C 43.4417 -3.11946 -0.256654 0
M  V30 426 C 43.9167 -4.57793 -0.137792 0
M  V30 427 N 45.4077 -4.6279 -0.194904 0
M  V30 428 C 46.1427 -5.7326 -0.126655 0
M  V30 429 N 45.6387 -6.928 -0.00755288 0
M  V30 430 N 47.4317 -5.61811 -0.180348 0
M  V30 431 H 39.5827 -1.90424 0.94087 0
M  V30 432 H 41.8457 -0.875761 0.362968 0
M  V30 433 H 41.5517 -3.4292 0.780927 0
M  V30 434 H 41.4257 -3.64899 -0.955448 0
M  V30 435 H 43.8127 -2.69079 -1.21162 0
M  V30 436 H 43.8937 -2.49915 0.545517 0
M  V30 437 H 43.5377 -5.01339 0.813739 0
M  V30 438 H 43.4677 -5.17798 -0.958775 0
M  V30 439 H 45.9587 -3.76807 -0.287267 0
M  V30 440 H 46.2717 -7.72791 0.0379428 0
M  V30 441 H 44.6167 -6.94995 0.0271731 0
M  V30 442 H 47.8077 -4.6731 -0.271767 0
M  V30 443 H 47.9807 -6.47882 -0.123697 0
M  V30 444 N 41.3868 0.248026 -1.55636 0
M  V30 445 C 42.6268 0.983592 -1.79178 0
M  V30 446 C 42.9908 1.82567 -0.594414 0
M  V30 447 O 44.1918 2.59292 -0.708583 0
M  V30 448 C 42.4628 1.82228 -3.07454 0
M  V30 449 S 44.0218 2.61709 -3.52213 0
M  V30 450 H 40.8398 0.330866 -0.629324 0
M  V30 451 H 43.4418 0.251562 -1.93875 0
M  V30 452 H 42.1458 1.19333 -3.92668 0
M  V30 453 H 41.6768 2.59708 -2.95492 0
M  V30 454 H 43.6918 3.84655 -3.13457 0
M  V30 455 N 42.8649 1.48995 0.513639 0
M  V30 456 C 44.2759 1.5119 1.09537 0
M  V30 457 C 44.6269 0.290906 1.94031 0
M  V30 458 O 43.7519 -0.60049 2.07902 0
M  V30 459 C 44.3469 2.73964 1.99322 0
M  V30 460 C 42.9059 2.78978 2.52682 0
M  V30 461 C 42.0529 2.44934 1.30009 0
M  V30 462 H 45.0039 1.55875 0.298125 0
M  V30 463 H 45.0249 2.53409 2.83838 0
M  V30 464 H 44.5369 3.62813 1.37799 0
M  V30 465 H 42.6379 1.94378 3.1788 0
M  V30 466 H 42.7509 3.8083 2.90698 0
M  V30 467 H 41.1149 1.9644 1.62122 0
M  V30 468 H 41.8979 3.36043 0.702131 0
M  V30 469 N 44.343 -0.763751 1.37857 0
M  V30 470 C 45.306 -1.85889 1.34081 0
M  V30 471 C 46.306 -1.58949 0.243277 0
M  V30 472 O 47.496 -1.66882 0.499589 0
M  V30 473 C 44.628 -3.23176 1.08489 0
M  V30 474 H 45.821 -1.90648 2.31502 0
M  V30 475 H 43.374 -0.964367 1.23003 0
M  V30 476 H 44.109 -3.24091 0.116318 0
M  V30 477 H 43.894 -3.44124 1.8794 0
M  V30 478 H 45.384 -4.03254 1.08517 0
M  V30 479 N 45.8211 -1.22559 -0.990812 0
M  V30 480 C 47.0691 -1.04933 -1.72724 0
M  V30 481 C 47.3901 0.416158 -1.90508 0
M  V30 482 O 46.6601 1.29918 -1.46622 0
M  V30 483 H 45.2401 -0.385296 -0.639965 0
M  V30 484 H 47.9021 -1.54105 -1.19322 0
M  V30 485 H 46.9981 -1.52886 -2.72089 0
M  V30 486 N 47.2992 1.18797 -1.03562 0
M  V30 487 C 48.2092 2.25913 -0.632505 0
M  V30 488 C 49.2252 1.70668 0.338882 0
M  V30 489 O 50.4012 2.00453 0.195076 0
M  V30 490 C 47.4662 3.467 0.00350942 0
M  V30 491 C 46.5272 4.17098 -1.01624 0
M  V30 492 C 45.7602 5.32119 -0.410478 0
M  V30 493 O 45.9832 5.64976 0.784725 0
M  V30 494 O 44.9172 5.9107 -1.13667 0
M  V30 495 H 48.7432 2.62648 -1.52478 0
M  V30 496 H 46.3282 1.25781 -0.806195 0
M  V30 497 H 48.2102 4.19878 0.35781 0
M  V30 498 H 46.8852 3.11798 0.869686 0
M  V30 499 H 45.7922 3.4601 -1.42224 0
M  V30 500 H 47.1252 4.55987 -1.85301 0
M  V30 501 N 48.7773 0.814389 1.34928 0
M  V30 502 C 49.7073 0.244827 2.32213 0
M  V30 503 C 50.6883 -0.634024 1.57842 0
M  V30 504 O 51.8733 -0.562676 1.8587 0
M  V30 505 C 49.0033 -0.601106 3.42058 0
M  V30 506 C 47.9573 0.179896 4.27622 0
M  V30 507 C 47.2833 -0.788237 5.28858 0
M  V30 508 C 48.5833 1.38329 5.03649 0
M  V30 509 H 50.2773 1.05763 2.80097 0
M  V30 510 H 47.8233 0.510029 1.34665 0
M  V30 511 H 49.7763 -1.00968 4.09125 0
M  V30 512 H 48.5003 -1.44688 2.92802 0
M  V30 513 H 47.1593 0.569739 3.62146 0
M  V30 514 H 46.8073 -1.62973 4.75866 0
M  V30 515 H 46.5073 -0.269942 5.8698 0
M  V30 516 H 48.0313 -1.19485 5.98795 0
M  V30 517 H 49.4453 1.04918 5.63618 0
M  V30 518 H 47.8423 1.83662 5.71304 0
M  V30 519 H 48.9123 2.16592 4.33839 0
M  V30 520 N 50.2554 -1.46986 0.568584 0
M  V30 521 C 51.1654 -2.33942 -0.17555 0
M  V30 522 C 52.1814 -1.48891 -0.90041 0
M  V30 523 O 53.3574 -1.81794 -0.86676 0
M  V30 524 C 50.4224 -3.25811 -1.18524 0
M  V30 525 C 49.4834 -4.26757 -0.466582 0
M  V30 526 C 48.7164 -5.14236 -1.42817 0
M  V30 527 O 48.9394 -5.04379 -2.66379 0
M  V30 528 O 47.8734 -5.94412 -0.946453 0
M  V30 529 H 51.6994 -2.98896 0.538036 0
M  V30 530 H 49.2844 -1.4573 0.329097 0
M  V30 531 H 51.1664 -3.82527 -1.76779 0
M  V30 532 H 49.8414 -2.63471 -1.88055 0
M  V30 533 H 48.7484 -3.73769 0.157451 0
M  V30 534 H 50.0814 -4.91843 0.187485 0
M  V30 535 N 51.7335 -0.305618 -1.54608 0
M  V30 536 C 52.9615 0.304775 -2.04643 0
M  V30 537 C 53.3765 1.47167 -1.18268 0
M  V30 538 O 52.7335 1.81296 -0.209328 0
M  V30 539 C 52.7845 0.756564 -3.53495 0
M  V30 540 O 52.5055 -0.36389 -4.36586 0
M  V30 541 C 54.0065 1.43163 -4.19546 0
M  V30 542 H 51.2265 0.0655481 -0.667791 0
M  V30 543 H 53.7705 -0.446592 -1.99564 0
M  V30 544 H 51.9255 1.45794 -3.58919 0
M  V30 545 H 52.3395 -0.0113121 -5.24499 0
M  V30 546 H 53.8135 1.69886 -5.25207 0
M  V30 547 H 54.2905 2.37318 -3.69563 0
M  V30 548 H 54.8965 0.773307 -4.18211 0
M  V30 549 N 53.2116 1.57565 -0.0334293 0
M  V30 550 C 54.4366 1.96689 0.657895 0
M  V30 551 C 54.8616 0.910057 1.64619 0
M  V30 552 O 54.2196 -0.128598 1.80843 0
M  V30 553 C 54.2676 3.34905 1.33683 0
M  V30 554 O 53.3716 3.31574 2.45219 0
M  V30 555 H 52.7126 0.641205 0.172489 0
M  V30 556 H 55.2426 2.04372 -0.0965621 0
M  V30 557 H 55.2526 3.71234 1.69262 0
M  V30 558 H 53.9276 4.11366 0.612411 0
M  V30 559 H 52.5046 3.06968 2.11719 0
M  V30 560 N 54.6897 -0.239769 1.55765 0
M  V30 561 C 55.9667 -0.990056 1.68693 0
M  V30 562 C 56.3467 -2.03107 0.5754 0
M  V30 563 O 55.6947 -2.24604 -0.42017 0
M  V30 564 C 55.9047 -1.61696 3.09282 0
M  V30 565 C 57.2527 -2.11613 3.6811 0
M  V30 566 O 58.2767 -1.71624 3.12127 0
M  V30 567 O 57.1357 -2.85057 4.66267 0
M  V30 568 H 54.2297 -0.461299 0.686391 0
M  V30 569 H 56.7757 -0.232991 1.68093 0
M  V30 570 H 55.5477 -0.864357 3.81634 0
M  V30 571 H 55.1707 -2.44005 3.13923 0
M  V30 572 N 56.1678 -1.49265 -0.50573 0
M  V30 573 C 57.4138 -1.58748 -1.26202 0
M  V30 574 C 57.7468 -0.271227 -1.92297 0
M  V30 575 O 57.0218 0.724831 -1.80489 0
M  V30 576 C 57.3048 -2.74332 -2.33268 0
M  V30 577 C 57.1578 -4.15737 -1.71705 0
M  V30 578 C 58.4768 -2.85576 -3.34865 0
M  V30 579 H 55.5958 -0.577826 -0.457478 0
M  V30 580 H 58.2378 -1.81532 -0.560897 0
M  V30 581 H 56.3878 -2.55036 -2.93068 0
M  V30 582 H 58.0598 -4.46537 -1.15769 0
M  V30 583 H 56.3028 -4.21605 -1.02135 0
M  V30 584 H 56.9738 -4.92477 -2.49341 0
M  V30 585 H 59.4498 -3.03127 -2.8505 0
M  V30 586 H 58.3258 -3.68135 -4.07146 0
M  V30 587 H 58.5868 -1.94732 -3.96903 0
M  V30 588 N 57.6459 0.756429 -1.3826 0
M  V30 589 C 58.8919 1.51772 -1.34511 0
M  V30 590 C 59.2249 1.94089 0.0656691 0
M  V30 591 O 58.4999 1.65221 1.02626 0
M  V30 592 C 58.7829 2.77226 -2.29821 0
M  V30 593 C 58.6359 2.41065 -3.79747 0
M  V30 594 C 59.9549 3.79236 -2.23312 0
M  V30 595 H 57.0739 0.550578 -0.489931 0
M  V30 596 H 59.7159 0.866607 -1.69086 0
M  V30 597 H 57.8659 3.32784 -2.00467 0
M  V30 598 H 59.5379 1.91303 -4.19763 0
M  V30 599 H 57.7809 1.7356 -3.97567 0
M  V30 600 H 58.4519 3.3081 -4.41892 0
M  V30 601 H 60.9279 3.3321 -2.49219 0
M  V30 602 H 59.8039 4.64714 -2.92116 0
M  V30 603 H 60.0649 4.24615 -1.23102 0
M  V30 604 N 59.124 1.23083 0.984299 0
M  V30 605 C 60.352 1.08714 1.76037 0
M  V30 606 C 60.767 -0.361691 1.85303 0
M  V30 607 O 60.124 -1.25034 1.32939 0
M  V30 608 C 60.175 1.70206 3.18923 0
M  V30 609 O 59.896 3.09423 3.10144 0
M  V30 610 C 61.397 1.61227 4.12941 0
M  V30 611 H 58.617 0.380664 0.552572 0
M  V30 612 H 61.161 1.62853 1.23689 0
M  V30 613 H 59.316 1.20109 3.6831 0
M  V30 614 H 59.73 3.39188 4.00065 0
M  V30 615 H 61.204 2.08962 5.10919 0
M  V30 616 H 61.681 0.570375 4.35481 0
M  V30 617 H 62.287 2.10671 3.69456 0
M  V30 618 N 60.6021 -1.18246 1.0419 0
M  V30 619 C 61.8481 -1.88536 0.747122 0
M  V30 620 C 62.1811 -1.80223 -0.723409 0
M  V30 621 O 61.4561 -1.20337 -1.52804 0
M  V30 622 C 61.7391 -3.38968 1.21544 0
M  V30 623 C 61.5921 -3.56084 2.74816 0
M  V30 624 C 62.9111 -4.32648 0.806482 0
M  V30 625 H 60.0301 -0.684619 0.272883 0
M  V30 626 H 62.6721 -1.39113 1.29413 0
M  V30 627 H 60.8221 -3.8119 0.750081 0
M  V30 628 H 62.4941 -3.22946 3.29399 0
M  V30 629 H 60.7371 -2.98699 3.14582 0
M  V30 630 H 61.4081 -4.61639 3.02644 0
M  V30 631 H 63.8841 -3.98211 1.20695 0
M  V30 632 H 62.7601 -5.36462 1.1619 0
M  V30 633 H 63.0211 -4.41146 -0.29029 0
M  V30 634 N 62.0802 -0.821533 -1.34494 0
M  V30 635 C 63.3262 -0.409552 -1.98622 0
M  V30 636 C 63.6592 1.0244 -1.64984 0
M  V30 637 O 62.9342 1.71325 -0.920758 0
M  V30 638 C 63.2172 -0.610458 -3.54888 0
M  V30 639 C 63.0702 -2.09043 -3.98273 0
M  V30 640 C 64.3892 -0.0455379 -4.40076 0
M  V30 641 H 61.5082 -0.15028 -0.721516 0
M  V30 642 H 64.1502 -1.03384 -1.59411 0
M  V30 643 H 62.3002 -0.079044 -3.8842 0
M  V30 644 H 63.9722 -2.68537 -3.75081 0
M  V30 645 H 62.2152 -2.58139 -3.48635 0
M  V30 646 H 62.8862 -2.18182 -5.07051 0
M  V30 647 H 65.3622 -0.499557 -4.1309 0
M  V30 648 H 64.2382 -0.215922 -5.48475 0
M  V30 649 H 64.4992 1.04939 -4.29465 0
M  V30 650 N 63.5583 1.46682 -0.576371 0
M  V30 651 C 64.4883 2.33028 0.148397 0
M  V30 652 C 65.4693 1.44961 0.889956 0
M  V30 653 O 66.6543 1.73789 0.866662 0
M  V30 654 C 63.7843 3.27117 1.1667 0
M  V30 655 C 62.7383 4.24575 0.540386 0
M  V30 656 C 62.0643 5.08126 1.6647 0
M  V30 657 C 63.3643 5.19722 -0.518331 0
M  V30 658 H 65.0583 2.93875 -0.572509 0
M  V30 659 H 62.6043 1.41315 -0.276768 0
M  V30 660 H 64.5573 3.86374 1.68204 0
M  V30 661 H 63.2813 2.64364 1.9178 0
M  V30 662 H 61.9403 3.66571 0.0461769 0
M  V30 663 H 61.5883 4.41762 2.40531 0
M  V30 664 H 61.2883 5.74122 1.25131 0
M  V30 665 H 62.8123 5.70246 2.18293 0
M  V30 666 H 64.2263 5.73232 -0.0883058 0
M  V30 667 H 62.6233 5.94026 -0.851679 0
M  V30 668 H 63.6933 4.64037 -1.40703 0
M  V30 669 N 65.0364 0.313813 1.54444 0
M  V30 670 C 66.2844 -0.291099 1.99993 0
M  V30 671 C 66.6054 -1.53418 1.20366 0
M  V30 672 O 65.8754 -1.93544 0.302927 0
M  V30 673 H 64.4554 -0.110552 0.738774 0
M  V30 674 H 67.1174 0.428106 1.9014 0
M  V30 675 H 66.2134 -0.554268 3.07139 0
M  V30 676 N 66.5145 -1.57545 0.0417849 0
M  V30 677 C 67.4465 -2.07904 -0.964799 0
M  V30 678 C 68.4595 -1.00497 -1.28079 0
M  V30 679 O 69.6485 -1.28087 -1.24322 0
M  V30 680 C 66.7485 -2.49928 -2.28887 0
M  V30 681 C 65.9215 -3.80562 -2.15619 0
M  V30 682 C 64.9805 -4.08999 -3.31069 0
M  V30 683 O 64.0065 -4.79061 -3.0739 0
M  V30 684 N 65.2085 -3.6017 -4.55256 0
M  V30 685 H 67.9735 -2.94886 -0.535029 0
M  V30 686 H 65.5345 -1.61252 -0.144681 0
M  V30 687 H 67.5265 -2.66034 -3.04972 0
M  V30 688 H 66.0965 -1.68245 -2.63463 0
M  V30 689 H 65.3165 -3.74129 -1.24183 0
M  V30 690 H 66.6045 -4.66126 -2.03971 0
M  V30 691 H 66.0025 -3.03512 -4.77386 0
M  V30 692 H 64.5595 -3.81532 -5.28466 0
M  V30 693 N 67.9926 0.231505 -1.5589 0
M  V30 694 C 69.2696 0.981096 -1.69215 0
M  V30 695 C 69.6496 2.02799 -0.586164 0
M  V30 696 O 68.9976 2.24823 0.408253 0
M  V30 697 C 69.2076 1.60054 -3.10135 0
M  V30 698 C 70.5556 2.09658 -3.69227 0
M  V30 699 O 71.5796 1.69967 -3.13033 0
M  V30 700 O 70.4386 2.8258 -4.67772 0
M  V30 701 H 67.5326 0.457653 -0.688827 0
M  V30 702 H 70.0786 0.224073 -1.68214 0
M  V30 703 H 68.8506 0.844105 -3.82087 0
M  V30 704 H 68.4736 2.42336 -3.15212 0
M  V30 705 N 69.4707 1.49531 0.497807 0
M  V30 706 C 70.4337 1.65916 1.58128 0
M  V30 707 C 71.4337 0.530825 1.51786 0
M  V30 708 O 72.6237 0.797342 1.54881 0
M  V30 709 C 69.7557 1.65951 2.9778 0
M  V30 710 H 70.9487 2.62556 1.44929 0
M  V30 711 H 68.5017 1.38611 0.722275 0
M  V30 712 H 69.2367 0.709065 3.16453 0
M  V30 713 H 69.0217 2.47897 3.03792 0
M  V30 714 H 70.5117 1.80673 3.76493 0
M  V30 715 N 70.9488 -0.749086 1.3866 0
M  V30 716 C 71.8958 -1.86291 1.36251 0
M  V30 717 C 72.8658 -1.64578 0.224347 0
M  V30 718 O 74.0508 -1.86181 0.417279 0
M  V30 719 C 71.1908 -3.23644 1.19786 0
M  V30 720 C 70.3038 -3.57158 2.43027 0
M  V30 721 C 69.4388 -4.83838 2.19258 0
M  V30 722 C 68.4778 -5.10152 3.38247 0
M  V30 723 N 67.6148 -6.28029 3.13884 0
M  V30 724 H 72.4548 -1.87685 2.3147 0
M  V30 725 H 69.9918 -0.917287 1.14997 0
M  V30 726 H 71.9498 -4.0291 1.08254 0
M  V30 727 H 70.5798 -3.21566 0.282031 0
M  V30 728 H 69.6318 -2.72701 2.65214 0
M  V30 729 H 70.9438 -3.7253 3.31697 0
M  V30 730 H 70.0978 -5.71057 2.04888 0
M  V30 731 H 68.8368 -4.70614 1.2796 0
M  V30 732 H 67.8418 -4.21401 3.53131 0
M  V30 733 H 69.0668 -5.25271 4.30427 0
M  V30 734 H 67.0128 -6.1612 2.25238 0
M  V30 735 H 66.9298 -6.43922 3.96106 0
M  V30 736 H 68.1978 -7.18124 3.03179 0
M  V30 737 N 72.4269 -1.23603 -0.977757 0
M  V30 738 C 73.3569 -1.04401 -2.0886 0
M  V30 739 C 74.3379 0.0399052 -1.70053 0
M  V30 740 O 75.5229 -0.125246 -1.93796 0
M  V30 741 C 72.6529 -0.637269 -3.41403 0
M  V30 742 C 71.6069 -1.66883 -3.94124 0
M  V30 743 C 70.9329 -1.11745 -5.22893 0
M  V30 744 C 72.2329 -3.06247 -4.23096 0
M  V30 745 H 73.9269 -1.97316 -2.25182 0
M  V30 746 H 71.4729 -0.950096 -1.08209 0
M  V30 747 H 73.4259 -0.48998 -4.18542 0
M  V30 748 H 72.1499 0.327557 -3.24953 0
M  V30 749 H 70.8089 -1.80416 -3.19133 0
M  V30 750 H 70.4569 -0.143527 -5.02795 0
M  V30 751 H 70.1569 -1.80672 -5.59134 0
M  V30 752 H 71.6809 -0.982067 -6.02651 0
M  V30 753 H 73.0949 -2.96001 -4.90975 0
M  V30 754 H 71.4919 -3.72436 -4.70544 0
M  V30 755 H 72.5619 -3.55041 -3.30263 0
M  V30 756 N 73.905 1.17692 -1.04816 0
M  V30 757 C 75.316 1.69501 -0.782698 0
M  V30 758 C 75.667 1.83456 0.695577 0
M  V30 759 O 74.792 1.51942 1.54086 0
M  V30 760 C 75.387 3.07874 -1.41419 0
M  V30 761 C 73.946 3.56864 -1.19686 0
M  V30 762 C 73.093 2.3322 -1.50012 0
M  V30 763 H 76.044 1.02262 -1.2136 0
M  V30 764 H 76.065 3.71528 -0.821428 0
M  V30 765 H 75.577 2.97685 -2.49009 0
M  V30 766 H 73.678 3.72337 -0.140043 0
M  V30 767 H 73.791 4.39851 -1.89916 0
M  V30 768 H 72.155 2.37501 -0.920071 0
M  V30 769 H 72.938 2.25644 -2.58727 0
M  V30 770 N 75.3831 0.828654 1.34056 0
M  V30 771 C 76.6231 0.425394 1.99924 0
M  V30 772 C 76.9871 -0.994294 1.64249 0
M  V30 773 O 78.1881 -1.50074 2.23005 0
M  V30 774 C 76.4591 0.628071 3.51838 0
M  V30 775 S 78.0181 0.318511 4.37642 0
M  V30 776 H 74.8361 0.160465 0.692656 0
M  V30 777 H 77.4381 1.07572 1.63244 0
M  V30 778 H 76.1421 1.66089 3.7529 0
M  V30 779 H 75.6731 -0.0367799 3.93383 0
M  V30 780 H 77.6881 -0.865632 4.88591 0
M  V30 781 N 76.8612 -1.46375 0.584142 0
M  V30 782 C 78.1082 -2.02378 0.0702675 0
M  V30 783 C 78.4362 -1.45545 -1.29023 0
M  V30 784 O 77.6912 -0.610967 -1.85918 0
M  V30 785 C 77.9902 -3.57373 -0.0439342 0
M  V30 786 C 77.6562 -4.33252 1.24915 0
M  V30 787 C 76.3182 -4.53701 1.60341 0
M  V30 788 C 78.6702 -4.7681 2.1048 0
M  V30 789 C 75.9982 -5.1496 2.81128 0
M  V30 790 C 78.3502 -5.39404 3.30494 0
M  V30 791 C 77.0142 -5.5808 3.66201 0
M  V30 792 H 76.2842 -0.740554 0.0257127 0
M  V30 793 H 78.9312 -1.75727 0.761065 0
M  V30 794 H 77.2362 -3.83169 -0.817869 0
M  V30 795 H 78.9332 -3.98384 -0.457318 0
M  V30 796 H 75.5232 -4.17633 0.963364 0
M  V30 797 H 79.7072 -4.60766 1.84414 0
M  V30 798 H 74.9632 -5.27611 3.08928 0
M  V30 799 H 79.1372 -5.72114 3.97063 0
M  V30 800 H 76.7642 -6.05318 4.59885 0
M  V30 801 N 78.3393 -0.321999 -1.54275 0
M  V30 802 C 79.5693 0.282642 -2.04658 0
M  V30 803 C 79.9773 1.46453 -1.19784 0
M  V30 804 O 79.3203 1.82367 -0.220932 0
M  V30 805 C 79.3823 0.781857 -3.50895 0
M  V30 806 C 79.0463 -0.277517 -4.56157 0
M  V30 807 C 80.0433 -1.11307 -5.07845 0
M  V30 808 C 77.7283 -0.425256 -5.00497 0
M  V30 809 C 79.7223 -2.08211 -6.02434 0
M  V30 810 C 77.4093 -1.39771 -5.94901 0
M  V30 811 C 78.4073 -2.2246 -6.45756 0
M  V30 812 O 78.0953 -3.18054 -7.38307 0
M  V30 813 H 77.8273 0.0622636 -0.673126 0
M  V30 814 H 80.3813 -0.465792 -2.00049 0
M  V30 815 H 78.6113 1.58118 -3.52896 0
M  V30 816 H 80.3003 1.30467 -3.84361 0
M  V30 817 H 81.0663 -1.00991 -4.74369 0
M  V30 818 H 76.9453 0.20847 -4.60528 0
M  V30 819 H 80.4893 -2.72791 -6.42052 0
M  V30 820 H 76.3863 -1.50152 -6.27794 0
M  V30 821 H 77.1543 -3.13275 -7.56175 0
M  V30 822 N 79.8174 1.5752 -0.0501392 0
M  V30 823 C 81.2334 1.56631 0.306402 0
M  V30 824 C 81.4334 1.0577 1.71508 0
M  V30 825 O 80.4894 0.713837 2.422 0
M  V30 826 C 81.8024 3.00393 0.135811 0
M  V30 827 C 83.3504 3.12315 0.206993 0
M  V30 828 C 83.8254 4.57954 0.064944 0
M  V30 829 N 85.3164 4.63041 0.121254 0
M  V30 830 C 86.0514 5.73389 0.0354381 0
M  V30 831 N 85.5474 6.92724 -0.102666 0
M  V30 832 N 87.3404 5.62026 0.090946 0
M  V30 833 H 79.4914 1.88903 -0.971046 0
M  V30 834 H 81.7544 0.869876 -0.376855 0
M  V30 835 H 81.4604 3.41635 -0.835384 0
M  V30 836 H 81.3344 3.66373 0.897275 0
M  V30 837 H 83.7214 2.70973 1.16866 0
M  V30 838 H 83.8024 2.49016 -0.585208 0
M  V30 839 H 83.4464 4.99981 -0.893394 0
M  V30 840 H 83.3764 5.19258 0.876277 0
M  V30 841 H 85.8674 3.77216 0.227284 0
M  V30 842 H 86.1804 7.72633 -0.160882 0
M  V30 843 H 84.5254 6.94864 -0.137737 0
M  V30 844 H 87.7164 4.67684 0.197388 0
M  V30 845 H 87.8894 6.47997 0.0206089 0
M  V30 846 N 81.2955 -0.223234 1.56011 0
M  V30 847 C 82.5435 -0.946003 1.78592 0
M  V30 848 C 82.8645 -1.84936 0.618349 0
M  V30 849 O 82.1345 -1.92473 -0.364833 0
M  V30 850 H 80.7145 -0.352298 0.658707 0
M  V30 851 H 83.3765 -0.235494 1.93472 0
M  V30 852 H 82.4725 -1.55381 2.70672 0
M  V30 853 N 82.7736 -1.49793 -0.48987 0
M  V30 854 C 84.0506 -1.50348 -1.25119 0
M  V30 855 C 84.4306 -0.237466 -2.0976 0
M  V30 856 O 83.7786 0.77981 -2.14782 0
M  V30 857 C 83.9886 -2.78872 -2.09837 0
M  V30 858 C 85.3366 -3.288 -2.68655 0
M  V30 859 O 86.3606 -2.80065 -2.20096 0
M  V30 860 O 85.2196 -4.13707 -3.57083 0
M  V30 861 H 82.3136 -0.602242 -0.566775 0
M  V30 862 H 84.8596 -1.62067 -0.503229 0
M  V30 863 H 83.6316 -3.62499 -1.47343 0
M  V30 864 H 83.2546 -2.70066 -2.91805 0
M  V30 865 N 84.2517 0.741722 -1.39055 0
M  V30 866 C 85.4767 1.53607 -1.39354 0
M  V30 867 C 85.9017 1.88096 0.0116905 0
M  V30 868 O 85.2597 1.5143 0.996924 0
M  V30 869 C 85.3077 2.80441 -2.26682 0
M  V30 870 O 84.4117 3.76088 -1.69208 0
M  V30 871 H 83.7527 0.464142 -0.474835 0
M  V30 872 H 86.2827 0.915665 -1.82967 0
M  V30 873 H 86.2927 3.29246 -2.40959 0
M  V30 874 H 84.9677 2.5467 -3.2881 0
M  V30 875 H 83.5447 3.34833 -1.64138 0
M  V30 876 N 85.7298 1.2412 0.971189 0
M  V30 877 C 86.9778 1.07668 1.71032 0
M  V30 878 C 87.2988 -0.385797 1.91146 0
M  V30 879 O 86.5688 -1.27569 1.4867 0
M  V30 880 H 85.1488 0.395429 0.633755 0
M  V30 881 H 87.8108 1.55984 1.16855 0
M  V30 882 H 86.9068 1.57195 2.69622 0
M  V30 883 N 87.2079 -1.17134 1.05439 0
M  V30 884 C 88.1179 -2.24878 0.668365 0
M  V30 885 C 89.1339 -1.71186 -0.311687 0
M  V30 886 O 90.3099 -2.00738 -0.163161 0
M  V30 887 C 87.3749 -3.46662 0.051648 0
M  V30 888 C 86.4359 -4.15429 1.08246 0
M  V30 889 C 85.6689 -5.31399 0.495082 0
M  V30 890 O 85.8919 -5.66153 -0.694743 0
M  V30 891 O 84.8259 -5.89187 1.23056 0
M  V30 892 H 88.6519 -2.60189 1.56637 0
M  V30 893 H 86.2369 -1.24482 0.826104 0
M  V30 894 H 88.1189 -4.20394 -0.290966 0
M  V30 895 H 86.7939 -3.13142 -0.819971 0
M  V30 896 H 85.7009 -3.43704 1.47711 0
M  V30 897 H 87.0339 -4.52982 1.92532 0
M  V30 898 N 88.686 -0.835752 -1.33615 0
M  V30 899 C 89.618 -0.224151 -2.28101 0
M  V30 900 C 90.631 0.593331 -1.51603 0
M  V30 901 O 91.82 0.420911 -1.73466 0
M  V30 902 C 88.92 0.703309 -3.31522 0
M  V30 903 C 88.093 -0.0741528 -4.37337 0
M  V30 904 C 87.152 0.776176 -5.20444 0
M  V30 905 O 86.178 0.216506 -5.68788 0
M  V30 906 N 87.38 2.09401 -5.41416 0
M  V30 907 H 90.145 -1.03598 -2.81225 0
M  V30 908 H 87.706 -0.69392 -1.46275 0
M  V30 909 H 89.698 1.27707 -3.84022 0
M  V30 910 H 88.268 1.41585 -2.78698 0
M  V30 911 H 87.488 -0.82928 -3.85378 0
M  V30 912 H 88.776 -0.608863 -5.05144 0
M  V30 913 H 88.174 2.57229 -5.03835 0
M  V30 914 H 86.731 2.61633 -5.96985 0
M  V30 915 N 90.1641 1.46063 -0.591896 0
M  V30 916 C 91.4101 2.02638 -0.0811191 0
M  V30 917 C 91.7431 1.4613 1.27905 0
M  V30 918 O 91.0181 0.629908 1.84017 0
M  V30 919 C 91.3011 3.60091 -0.0252436 0
M  V30 920 C 91.1541 4.26965 -1.41496 0
M  V30 921 C 92.4731 4.3496 0.670685 0
M  V30 922 H 89.5921 0.73635 -0.0309524 0
M  V30 923 H 92.2341 1.741 -0.760859 0
M  V30 924 H 90.3841 3.84535 0.553624 0
M  V30 925 H 92.0561 4.13756 -2.0397 0
M  V30 926 H 90.2991 3.85971 -1.98011 0
M  V30 927 H 90.9701 5.35781 -1.32825 0
M  V30 928 H 93.4461 4.15716 0.178825 0
M  V30 929 H 92.3221 5.44686 0.678837 0
M  V30 930 H 92.5831 4.06685 1.73379 0
M  V30 931 N 91.6422 0.330177 1.54103 0
M  V30 932 C 92.8902 -0.269871 2.0029 0
M  V30 933 C 93.2112 -1.52133 1.21986 0
M  V30 934 O 92.4812 -1.93212 0.323438 0
M  V30 935 H 91.0612 -0.10271 0.739905 0
M  V30 936 H 93.7232 0.448249 1.89675 0
M  V30 937 H 92.8192 -0.52166 3.07709 0
M  V30 938 N 93.1203 -1.57491 0.0584922 0
M  V30 939 C 94.0523 -2.08916 -0.942694 0
M  V30 940 C 95.0653 -1.0185 -1.27006 0
M  V30 941 O 96.2543 -1.29398 -1.22957 0
M  V30 942 C 93.3543 -2.52341 -2.26224 0
M  V30 943 C 92.5273 -3.82827 -2.1157 0
M  V30 944 C 91.5863 -4.12487 -3.26712 0
M  V30 945 O 90.6123 -4.82295 -3.02292 0
M  V30 946 N 91.8143 -3.64978 -4.5141 0
M  V30 947 H 94.5793 -2.95437 -0.503722 0
M  V30 948 H 92.1403 -1.61397 -0.12757 0
M  V30 949 H 94.1323 -2.69254 -3.02133 0
M  V30 950 H 92.7023 -1.7103 -2.61663 0
M  V30 951 H 91.9223 -3.75425 -1.20208 0
M  V30 952 H 93.2103 -4.68263 -1.99015 0
M  V30 953 H 92.6083 -3.08558 -4.7414 0
M  V30 954 H 91.1653 -3.87115 -5.2439 0
M  V30 955 N 94.5984 0.214957 -1.56127 0
M  V30 956 C 95.8444 0.939762 -1.79712 0
M  V30 957 C 96.1774 1.83723 -0.629247 0
M  V30 958 O 95.4524 1.90925 0.371197 0
M  V30 959 C 95.7354 1.77306 -3.13424 0
M  V30 960 C 95.5884 0.90164 -4.40671 0
M  V30 961 C 96.9074 2.74956 -3.43638 0
M  V30 962 H 94.0264 0.340214 -0.653776 0
M  V30 963 H 96.6684 0.20824 -1.88855 0
M  V30 964 H 94.8184 2.39673 -3.0576 0
M  V30 965 H 96.4904 0.294206 -4.60361 0
M  V30 966 H 94.7334 0.207368 -4.33304 0
M  V30 967 H 95.4044 1.51923 -5.30682 0
M  V30 968 H 97.8804 2.22724 -3.51473 0
M  V30 969 H 96.7564 3.30358 -4.38355 0
M  V30 970 H 97.0174 3.53023 -2.66134 0
M  V30 971 N 96.0765 1.50051 0.48192 0
M  V30 972 C 97.0395 1.67584 1.5636 0
M  V30 973 C 98.0395 0.546894 1.51214 0
M  V30 974 O 99.2295 0.813725 1.54026 0
M  V30 975 C 96.3615 1.691 2.96003 0
M  V30 976 H 97.5545 2.64078 1.42136 0
M  V30 977 H 95.1075 1.39369 0.707533 0
M  V30 978 H 95.8425 0.742589 3.15684 0
M  V30 979 H 95.6275 2.51105 3.01146 0
M  V30 980 H 97.1175 1.84656 3.74556 0
M  V30 981 N 97.5546 -0.734337 1.39446 0
M  V30 982 C 98.8006 -1.49505 1.37913 0
M  V30 983 C 99.1556 -1.92384 -0.0248416 0
M  V30 984 O 98.4486 -1.6395 -0.991506 0
M  V30 985 C 98.6426 -2.74711 2.28623 0
M  V30 986 C 98.4716 -2.44075 3.777 0
M  V30 987 C 97.2416 -2.36338 4.46623 0
M  V30 988 C 99.4396 -2.09574 4.69663 0
M  V30 989 N 97.4216 -1.9818 5.81032 0
M  V30 990 C 98.7926 -1.81865 5.92727 0
M  V30 991 C 100.848 -1.96048 4.57678 0
M  V30 992 C 99.5506 -1.41992 7.05146 0
M  V30 993 C 101.577 -1.57579 5.7002 0
M  V30 994 C 100.939 -1.30754 6.92158 0
M  V30 995 H 97.0376 -0.545896 0.55993 0
M  V30 996 H 99.6216 -0.853373 1.75002 0
M  V30 997 H 97.7926 -3.36657 1.93692 0
M  V30 998 H 99.5246 -3.40916 2.18078 0
M  V30 999 H 96.2796 -2.53456 4.00071 0
M  V30 1000 H 96.7036 -1.81691 6.52163 0
M  V30 1001 H 101.346 -2.15455 3.63784 0
M  V30 1002 H 99.0636 -1.21327 7.9894 0
M  V30 1003 H 102.65 -1.47718 5.62735 0
M  V30 1004 H 101.53 -1.01432 7.77612 0
M  V30 1005 N 99.0327 -1.24633 -0.964593 0
M  V30 1006 C 99.9957 -1.0424 -2.04124 0
M  V30 1007 C 100.996 0.00137563 -1.608 0
M  V30 1008 O 102.186 -0.239883 -1.7254 0
M  V30 1009 C 99.3177 -0.580588 -3.3592 0
M  V30 1010 H 100.511 -1.99803 -2.23649 0
M  V30 1011 H 98.0637 -1.06899 -1.14027 0
M  V30 1012 H 98.7987 0.3781 -3.22088 0
M  V30 1013 H 98.5837 -1.33398 -3.6871 0
M  V30 1014 H 100.074 -0.459034 -4.15069 0
M  V30 1015 N 100.511 1.16574 -1.06058 0
M  V30 1016 C 101.927 1.3904 -0.783585 0
M  V30 1017 C 102.127 1.91784 0.618145 0
M  V30 1018 O 101.183 2.11511 1.37911 0
M  V30 1019 C 102.496 2.37329 -1.84649 0
M  V30 1020 C 104.044 2.51018 -1.86973 0
M  V30 1021 C 104.519 3.52588 -2.92311 0
M  V30 1022 N 106.01 3.60113 -2.91329 0
M  V30 1023 C 106.745 4.38486 -3.69482 0
M  V30 1024 N 106.241 5.20302 -4.57447 0
M  V30 1025 N 108.034 4.33446 -3.57885 0
M  V30 1026 H 100.185 0.806725 -1.96483 0
M  V30 1027 H 102.448 0.417117 -0.851303 0
M  V30 1028 H 102.154 2.05663 -2.85299 0
M  V30 1029 H 102.028 3.36946 -1.6955 0
M  V30 1030 H 104.415 2.81989 -0.869827 0
M  V30 1031 H 104.496 1.51445 -2.0615 0
M  V30 1032 H 104.14 3.22354 -3.92492 0
M  V30 1033 H 104.07 4.51886 -2.70383 0
M  V30 1034 H 106.561 3.01707 -2.27555 0
M  V30 1035 H 106.874 5.77311 -5.13743 0
M  V30 1036 H 105.219 5.19653 -4.61503 0
M  V30 1037 H 108.41 3.68586 -2.88551 0
M  V30 1038 H 108.583 4.94279 -4.19037 0
M  V30 1039 N 101.989 0.842826 1.3317 0
M  V30 1040 C 103.235 0.441099 1.97945 0
M  V30 1041 C 103.568 -0.998024 1.66593 0
M  V30 1042 O 102.843 -1.69839 0.947898 0
M  V30 1043 C 103.126 0.666841 3.53872 0
M  V30 1044 C 102.979 2.15352 3.94897 0
M  V30 1045 C 104.298 0.115544 4.39948 0
M  V30 1046 H 101.417 0.161739 0.719034 0
M  V30 1047 H 104.059 1.05907 1.57746 0
M  V30 1048 H 102.209 0.140828 3.88245 0
M  V30 1049 H 103.881 2.7447 3.70761 0
M  V30 1050 H 102.124 2.63653 3.44484 0
M  V30 1051 H 102.795 2.26221 5.03516 0
M  V30 1052 H 105.271 0.565213 4.12243 0
M  V30 1053 H 104.147 0.303152 5.48062 0
M  V30 1054 H 104.408 -0.980935 4.3108 0
M  V30 1055 N 103.467 -1.45747 0.599634 0
M  V30 1056 C 104.744 -1.95585 0.0240846 0
M  V30 1057 C 105.124 -1.54217 -1.44154 0
M  V30 1058 O 104.472 -0.800903 -2.14004 0
M  V30 1059 C 104.682 -3.48344 0.21385 0
M  V30 1060 C 106.03 -4.24504 0.0904902 0
M  V30 1061 O 107.054 -3.55911 0.143558 0
M  V30 1062 O 105.913 -5.46491 -0.0310766 0
M  V30 1063 H 103.007 -0.82602 -0.0402478 0
M  V30 1064 H 105.553 -1.55951 0.669139 0
M  V30 1065 H 104.325 -3.71397 1.23206 0
M  V30 1066 H 103.948 -3.9485 -0.466842 0
M  V30 1067 N 104.945 -0.338344 -1.53925 0
M  V30 1068 C 105.908 0.508299 -2.23493 0
M  V30 1069 C 106.908 1.03175 -1.23335 0
M  V30 1070 O 108.098 0.921826 -1.47811 0
M  V30 1071 C 105.23 1.70754 -2.95052 0
M  V30 1072 H 106.423 -0.100058 -2.99733 0
M  V30 1073 H 103.976 -0.0896198 -1.56043 0
M  V30 1074 H 104.711 2.35474 -2.22986 0
M  V30 1075 H 104.496 1.33946 -3.68512 0
M  V30 1076 H 105.986 2.30818 -3.48013 0
M  V30 1077 N 106.423 1.57458 -0.0668435 0
M  V30 1078 C 107.671 1.92919 0.602214 0
M  V30 1079 C 107.992 0.947215 1.70449 0
M  V30 1080 O 107.262 -0.00544117 1.95899 0
M  V30 1081 H 105.842 0.71217 0.22544 0
M  V30 1082 H 108.504 1.94508 -0.123535 0
M  V30 1083 H 107.6 2.94589 1.03073 0
M  V30 1084 N 107.901 -0.206675 1.56239 0
M  V30 1085 C 108.811 -1.27686 1.96808 0
M  V30 1086 C 109.827 -1.50455 0.874035 0
M  V30 1087 O 111.003 -1.63295 1.17884 0
M  V30 1088 C 108.068 -2.60358 2.28942 0
M  V30 1089 C 107.129 -2.45762 3.51994 0
M  V30 1090 C 106.362 -3.72108 3.82585 0
M  V30 1091 O 106.585 -4.75776 3.14631 0
M  V30 1092 O 105.519 -3.6833 4.76043 0
M  V30 1093 H 109.345 -0.962593 2.88041 0
M  V30 1094 H 106.93 -0.410746 1.43643 0
M  V30 1095 H 108.812 -3.38687 2.50737 0
M  V30 1096 H 107.487 -2.91435 1.4088 0
M  V30 1097 H 106.394 -1.65584 3.35459 0
M  V30 1098 H 107.727 -2.19621 4.40486 0
M  V30 1099 N 109.379 -1.50304 -0.473955 0
M  V30 1100 C 110.627 -1.60832 -1.22382 0
M  V30 1101 C 110.948 -0.30939 -1.9253 0
M  V30 1102 O 110.218 0.67296 -1.83978 0
M  V30 1103 H 108.798 -0.592652 -0.454723 0
M  V30 1104 H 111.46 -1.87068 -0.546968 0
M  V30 1105 H 110.556 -2.41803 -1.97327 0
M  V30 1106 N 110.857 0.726932 -1.39834 0
M  V30 1107 C 111.82 1.82269 -1.38962 0
M  V30 1108 C 112.82 1.58248 -0.285334 0
M  V30 1109 O 114.01 1.65499 -0.54366 0
M  V30 1110 C 111.142 3.20186 -1.17019 0
M  V30 1111 H 112.335 1.84443 -2.36476 0
M  V30 1112 H 109.888 0.931416 -1.25516 0
M  V30 1113 H 110.623 3.23669 -0.202204 0
M  V30 1114 H 110.408 3.3902 -1.96998 0
M  V30 1115 H 111.898 4.00235 -1.1917 0
M  V30 1116 N 112.336 1.25143 0.95797 0
M  V30 1117 C 113.268 1.01023 2.05735 0
M  V30 1118 C 114.281 -0.0236902 1.62783 0
M  V30 1119 O 115.47 0.21448 1.77207 0
M  V30 1120 C 112.57 0.504595 3.35122 0
M  V30 1121 C 111.743 1.6039 4.06932 0
M  V30 1122 C 110.802 1.09922 5.14591 0
M  V30 1123 O 109.828 1.79293 5.40225 0
M  V30 1124 N 111.03 -0.0612545 5.80468 0
M  V30 1125 H 113.795 1.95683 2.26998 0
M  V30 1126 H 111.356 1.16303 1.12629 0
M  V30 1127 H 113.348 0.151516 4.04416 0
M  V30 1128 H 111.918 -0.347989 3.10657 0
M  V30 1129 H 111.138 2.12872 3.31782 0
M  V30 1130 H 112.426 2.34252 4.51667 0
M  V30 1131 H 111.824 -0.640985 5.62057 0
M  V30 1132 H 110.381 -0.355395 6.5083 0
M  V30 1133 N 113.814 -1.1601 1.06675 0
M  V30 1134 C 114.724 -2.24156 0.692179 0
M  V30 1135 C 115.74 -1.71507 -0.293513 0
M  V30 1136 O 116.916 -2.009 -0.141861 0
M  V30 1137 C 113.981 -3.46587 0.0884131 0
M  V30 1138 C 113.042 -4.14257 1.12646 0
M  V30 1139 C 112.275 -5.30844 0.551416 0
M  V30 1140 O 112.498 -5.66858 -0.634656 0
M  V30 1141 O 111.432 -5.87848 1.29298 0
M  V30 1142 H 115.258 -2.58513 1.59388 0
M  V30 1143 H 112.843 -1.23599 0.83926 0
M  V30 1144 H 114.725 -4.20679 -0.246361 0
M  V30 1145 H 113.4 -3.13994 -0.786712 0
M  V30 1146 H 112.307 -3.42118 1.51348 0
M  V30 1147 H 113.64 -4.50914 1.97325 0
M  V30 1148 N 115.292 -0.849877 -1.32721 0
M  V30 1149 C 116.222 -0.306308 -2.31482 0
M  V30 1150 C 117.203 0.591952 -1.59468 0
M  V30 1151 O 118.388 0.513199 -1.87296 0
M  V30 1152 C 115.518 0.510204 -3.43532 0
M  V30 1153 C 114.472 -0.293209 -4.26994 0
M  V30 1154 C 113.798 0.647743 -5.30762 0
M  V30 1155 C 115.098 -1.51634 -4.99804 0
M  V30 1156 H 116.792 -1.13153 -2.77195 0
M  V30 1157 H 114.338 -0.545553 -1.33266 0
M  V30 1158 H 116.291 0.900856 -4.11658 0
M  V30 1159 H 115.015 1.36874 -2.96535 0
M  V30 1160 H 113.674 -0.665555 -3.60508 0
M  V30 1161 H 113.322 1.50299 -4.8002 0
M  V30 1162 H 113.022 0.11422 -5.87489 0
M  V30 1163 H 114.546 1.03567 -6.01753 0
M  V30 1164 H 115.96 -1.19824 -5.60638 0
M  V30 1165 H 114.357 -1.98745 -5.66234 0
M  V30 1166 H 115.427 -2.28018 -4.27943 0
M  V30 1167 N 116.77 1.45427 -0.607355 0
M  V30 1168 C 117.733 2.28974 0.101693 0
M  V30 1169 C 118.733 1.39754 0.795329 0
M  V30 1170 O 119.923 1.61878 0.643527 0
M  V30 1171 C 117.055 3.20768 1.15414 0
M  V30 1172 H 118.248 2.93147 -0.632844 0
M  V30 1173 H 115.801 1.51945 -0.366391 0
M  V30 1174 H 116.536 2.61395 1.91945 0
M  V30 1175 H 116.321 3.86489 0.66098 0
M  V30 1176 H 117.811 3.83589 1.65073 0
M  V30 1177 N 118.248 0.346503 1.53744 0
M  V30 1178 C 119.178 -0.501193 2.28058 0
M  V30 1179 C 120.159 -1.10014 1.29734 0
M  V30 1180 O 121.344 -1.12097 1.58581 0
M  V30 1181 C 118.474 -1.65078 3.05559 0
M  V30 1182 C 117.428 -1.18003 4.11411 0
M  V30 1183 C 116.754 -2.41837 4.76884 0
M  V30 1184 C 118.054 -0.278394 5.21558 0
M  V30 1185 H 119.748 0.11875 2.99164 0
M  V30 1186 H 117.294 0.0585531 1.43881 0
M  V30 1187 H 119.247 -2.25028 3.56287 0
M  V30 1188 H 117.971 -2.29767 2.32109 0
M  V30 1189 H 116.63 -0.603331 3.61601 0
M  V30 1190 H 116.278 -3.0494 4.00026 0
M  V30 1191 H 115.978 -2.1102 5.48402 0
M  V30 1192 H 117.502 -3.02508 5.30397 0
M  V30 1193 H 118.916 -0.784823 5.67903 0
M  V30 1194 H 117.313 -0.0619707 6.00068 0
M  V30 1195 H 118.383 0.684677 4.80042 0
M  V30 1196 N 119.726 -1.57421 0.075193 0
M  V30 1197 C 120.656 -2.15942 -0.888324 0
M  V30 1198 C 121.637 -1.08737 -1.30806 0
M  V30 1199 O 122.822 -1.36787 -1.37851 0
M  V30 1200 C 119.952 -2.72379 -2.1547 0
M  V30 1201 C 118.906 -3.8478 -1.87425 0
M  V30 1202 C 118.232 -4.27834 -3.20721 0
M  V30 1203 C 119.532 -5.08869 -1.17684 0
M  V30 1204 H 121.226 -2.96705 -0.400799 0
M  V30 1205 H 118.772 -1.42723 -0.191342 0
M  V30 1206 H 120.725 -3.11965 -2.83295 0
M  V30 1207 H 119.449 -1.88841 -2.6647 0
M  V30 1208 H 118.108 -3.45703 -1.22004 0
M  V30 1209 H 117.756 -3.41214 -3.6957 0
M  V30 1210 H 117.456 -5.03605 -3.02746 0
M  V30 1211 H 118.98 -4.70039 -3.89738 0
M  V30 1212 H 120.394 -5.4575 -1.75584 0
M  V30 1213 H 118.791 -5.8994 -1.09956 0
M  V30 1214 H 119.861 -4.84648 -0.156453 0
M  V30 1215 N 121.204 0.198386 -1.56346 0
M  V30 1216 C 122.154 1.2499 -1.90687 0
M  V30 1217 C 123.138 1.41158 -0.772217 0
M  V30 1218 O 124.33 1.43584 -1.03502 0
M  V30 1219 C 121.459 2.59542 -2.24706 0
M  V30 1220 C 120.545 2.47181 -3.44619 0
M  V30 1221 N 120.936 2.04495 -4.62618 0
M  V30 1222 C 119.234 2.78082 -3.48692 0
M  V30 1223 C 119.935 2.03945 -5.44776 0
M  V30 1224 N 118.911 2.45323 -4.85095 0
M  V30 1225 H 122.713 0.911149 -2.7942 0
M  V30 1226 H 120.227 0.40684 -1.57221 0
M  V30 1227 H 122.224 3.3549 -2.47491 0
M  V30 1228 H 120.884 2.94244 -1.37298 0
M  V30 1229 H 121.895 1.75256 -4.87345 0
M  V30 1230 H 118.572 3.17002 -2.71691 0
M  V30 1231 H 119.962 1.72872 -6.4928 0
M  V30 1232 N 122.682 1.50554 0.465978 0
M  V30 1233 C 123.907 1.65838 1.24549 0
M  V30 1234 C 124.332 0.343486 1.84937 0
M  V30 1235 O 123.69 -0.69324 1.67523 0
M  V30 1236 C 123.738 2.75533 2.32624 0
M  V30 1237 O 122.842 2.37142 3.37398 0
M  V30 1238 H 122.183 0.553893 0.366194 0
M  V30 1239 H 124.713 1.96959 0.553927 0
M  V30 1240 H 124.723 2.98763 2.77857 0
M  V30 1241 H 123.398 3.70962 1.88043 0
M  V30 1242 H 121.975 2.24377 2.97841 0
M  V30 1243 N 124.16 -0.719506 1.40217 0
M  V30 1244 C 125.107 -1.83359 1.40172 0
M  V30 1245 C 126.077 -1.64065 0.259206 0
M  V30 1246 O 127.262 -1.85254 0.456677 0
M  V30 1247 C 124.402 -3.2103 1.26624 0
M  V30 1248 C 123.515 -3.51923 2.50548 0
M  V30 1249 C 122.65 -4.79079 2.29471 0
M  V30 1250 C 121.689 -5.02863 3.48992 0
M  V30 1251 N 120.826 -6.2123 3.27135 0
M  V30 1252 H 125.666 -1.82733 2.35399 0
M  V30 1253 H 123.203 -0.892688 1.16917 0
M  V30 1254 H 125.161 -4.00524 1.16776 0
M  V30 1255 H 123.791 -3.20895 0.350176 0
M  V30 1256 H 122.843 -2.67014 2.70939 0
M  V30 1257 H 124.155 -3.6541 3.39525 0
M  V30 1258 H 123.309 -5.66582 2.16955 0
M  V30 1259 H 122.048 -4.67794 1.37913 0
M  V30 1260 H 121.053 -4.13816 3.6199 0
M  V30 1261 H 122.278 -5.16023 4.41472 0
M  V30 1262 H 120.224 -6.11204 2.38256 0
M  V30 1263 H 120.141 -6.35375 4.09675 0
M  V30 1264 H 121.409 -7.11532 3.18344 0
M  V30 1265 N 125.638 -1.25649 -0.95132 0
M  V30 1266 C 126.868 -1.13179 -1.72841 0
M  V30 1267 C 127.276 0.316827 -1.86528 0
M  V30 1268 O 126.619 1.22948 -1.3649 0
M  V30 1269 C 126.681 -1.71644 -3.15878 0
M  V30 1270 C 126.345 -3.20667 -3.25609 0
M  V30 1271 C 127.342 -4.17616 -3.09666 0
M  V30 1272 C 125.027 -3.6094 -3.49324 0
M  V30 1273 C 127.021 -5.52817 -3.17289 0
M  V30 1274 C 124.708 -4.96278 -3.56584 0
M  V30 1275 C 125.706 -5.92025 -3.40581 0
M  V30 1276 O 125.394 -7.24899 -3.47528 0
M  V30 1277 H 125.126 -0.395389 -0.54831 0
M  V30 1278 H 127.68 -1.66566 -1.20187 0
M  V30 1279 H 125.91 -1.12707 -3.69911 0
M  V30 1280 H 127.599 -1.54225 -3.75459 0
M  V30 1281 H 128.365 -3.87842 -2.91211 0
M  V30 1282 H 124.244 -2.86907 -3.6084 0
M  V30 1283 H 127.788 -6.2753 -3.04716 0
M  V30 1284 H 123.685 -5.25716 -3.74556 0
M  V30 1285 H 124.453 -7.33039 -3.64138 0
M  V30 1286 N 127.117 1.15442 -1.07289 0
M  V30 1287 C 128.365 1.85845 -0.794096 0
M  V30 1288 C 128.686 1.82692 0.681809 0
M  V30 1289 O 127.956 1.26741 1.49377 0
M  V30 1290 H 126.536 0.688089 -0.290763 0
M  V30 1291 H 129.198 1.39947 -1.3565 0
M  V30 1292 H 128.294 2.91001 -1.12804 0
M  V30 1293 N 128.595 0.856903 1.32268 0
M  V30 1294 C 129.525 0.31858 2.31316 0
M  V30 1295 C 130.506 -0.583487 1.59779 0
M  V30 1296 O 131.691 -0.503259 1.87566 0
M  V30 1297 C 128.821 -0.491979 3.43798 0
M  V30 1298 C 127.775 0.315849 4.26833 0
M  V30 1299 C 127.101 -0.619586 5.31098 0
M  V30 1300 C 128.401 1.54282 4.98993 0
M  V30 1301 H 130.095 1.14621 2.76591 0
M  V30 1302 H 127.641 0.552613 1.32974 0
M  V30 1303 H 129.594 -0.879012 4.1213 0
M  V30 1304 H 128.318 -1.35299 2.97257 0
M  V30 1305 H 126.977 0.684664 3.6015 0
M  V30 1306 H 126.625 -1.47751 4.8081 0
M  V30 1307 H 126.325 -0.0830621 5.87541 0
M  V30 1308 H 127.849 -1.00375 6.02293 0
M  V30 1309 H 129.263 1.22796 5.59995 0
M  V30 1310 H 127.66 2.01745 5.65172 0
M  V30 1311 H 128.73 2.30285 4.26728 0
M  V30 1312 N 130.073 -1.45103 0.615059 0
M  V30 1313 C 131.023 -2.27679 -0.120966 0
M  V30 1314 C 132.007 -1.3775 -0.831491 0
M  V30 1315 O 133.199 -1.61683 -0.720249 0
M  V30 1316 C 130.328 -3.24767 -1.1127 0
M  V30 1317 C 129.414 -4.22184 -0.402627 0
M  V30 1318 N 129.805 -5.02692 0.559884 0
M  V30 1319 C 128.103 -4.4125 -0.649202 0
M  V30 1320 C 128.804 -5.73421 0.977942 0
M  V30 1321 N 127.78 -5.42657 0.320104 0
M  V30 1322 H 131.582 -2.87325 0.618181 0
M  V30 1323 H 129.096 -1.56345 0.439304 0
M  V30 1324 H 131.093 -3.82666 -1.65446 0
M  V30 1325 H 129.753 -2.66682 -1.85232 0
M  V30 1326 H 130.764 -5.09354 0.936976 0
M  V30 1327 H 127.441 -3.9428 -1.37293 0
M  V30 1328 H 128.831 -6.48107 1.77222 0
M  V30 1329 N 131.551 -0.354651 -1.53558 0
M  V30 1330 C 132.797 0.238797 -2.01389 0
M  V30 1331 C 133.13 1.49309 -1.2418 0
M  V30 1332 O 132.405 1.91638 -0.332457 0
M  V30 1333 C 132.688 0.541771 -3.56001 0
M  V30 1334 C 132.541 -0.725388 -4.43912 0
M  V30 1335 C 133.86 1.34685 -4.18984 0
M  V30 1336 H 130.979 0.0853177 -0.732045 0
M  V30 1337 H 133.621 -0.477384 -1.83905 0
M  V30 1338 H 131.771 1.15189 -3.71031 0
M  V30 1339 H 133.443 -1.36313 -4.407 0
M  V30 1340 H 131.686 -1.34801 -4.12324 0
M  V30 1341 H 132.357 -0.468505 -5.50008 0
M  V30 1342 H 134.833 0.830837 -4.07721 0
M  V30 1343 H 133.709 1.52759 -5.27215 0
M  V30 1344 H 133.97 2.35221 -3.74331 0
M  V30 1345 N 133.029 1.57378 -0.0835403 0
M  V30 1346 C 134.254 1.98682 0.594987 0
M  V30 1347 C 134.679 0.961969 1.61641 0
M  V30 1348 O 134.037 -0.0709989 1.81161 0
M  V30 1349 C 134.085 3.38988 1.2296 0
M  V30 1350 O 133.189 3.39208 2.34546 0
M  V30 1351 H 132.53 0.646368 0.152002 0
M  V30 1352 H 135.06 2.03961 -0.161533 0
M  V30 1353 H 135.07 3.76431 1.57366 0
M  V30 1354 H 133.745 4.13107 0.481228 0
M  V30 1355 H 132.322 3.13548 2.01846 0
M  V30 1356 N 134.507 -0.190092 1.56449 0
M  V30 1357 C 135.918 -0.754312 1.70784 0
M  V30 1358 C 136.269 -1.83631 0.690951 0
M  V30 1359 O 135.394 -2.15868 -0.151604 0
M  V30 1360 C 135.989 -1.37503 3.09642 0
M  V30 1361 C 134.548 -1.88628 3.25725 0
M  V30 1362 C 133.695 -0.758098 2.66736 0
M  V30 1363 H 136.646 0.0350524 1.58661 0
M  V30 1364 H 136.667 -2.2445 3.0725 0
M  V30 1365 H 136.179 -0.587302 3.83631 0
M  V30 1366 H 134.28 -2.70103 2.56661 0
M  V30 1367 H 134.393 -2.04462 4.3328 0
M  V30 1368 H 132.757 -1.17369 2.26046 0
M  V30 1369 H 133.54 0.0174705 3.43296 0
M  V30 1370 N 135.985 -1.50799 -0.457987 0
M  V30 1371 C 136.948 -1.7005 -1.53674 0
M  V30 1372 C 137.948 -0.570881 -1.50325 0
M  V30 1373 O 139.138 -0.838126 -1.52712 0
M  V30 1374 C 136.27 -1.73788 -2.93276 0
M  V30 1375 H 137.463 -2.66306 -1.37917 0
M  V30 1376 H 135.016 -1.40477 -0.685271 0
M  V30 1377 H 135.751 -0.792717 -3.14462 0
M  V30 1378 H 135.536 -2.55864 -2.97113 0
M  V30 1379 H 137.026 -1.90591 -3.71571 0
M  V30 1380 N 137.463 0.71206 -1.40597 0
M  V30 1381 C 138.693 1.49894 -1.42181 0
M  V30 1382 C 139.101 1.89189 -0.0208078 0
M  V30 1383 O 138.444 1.56223 0.966436 0
M  V30 1384 C 138.506 2.80215 -2.25211 0
M  V30 1385 C 138.17 2.63221 -3.73582 0
M  V30 1386 C 139.167 2.30249 -4.66135 0
M  V30 1387 C 136.852 2.79376 -4.17438 0
M  V30 1388 C 138.846 2.13645 -6.00529 0
M  V30 1389 C 136.533 2.6239 -5.51901 0
M  V30 1390 C 137.531 2.29573 -6.43262 0
M  V30 1391 O 137.219 2.12719 -7.75246 0
M  V30 1392 H 136.951 0.469031 -0.486812 0
M  V30 1393 H 139.505 0.88564 -1.85326 0
M  V30 1394 H 137.735 3.4389 -1.76852 0
M  V30 1395 H 139.424 3.41947 -2.18694 0
M  V30 1396 H 140.19 2.17398 -4.33547 0
M  V30 1397 H 136.069 3.03906 -3.46644 0
M  V30 1398 H 139.613 1.87953 -6.71803 0
M  V30 1399 H 135.51 2.74826 -5.84073 0
M  V30 1400 H 136.278 2.27611 -7.86216 0
M  V30 1401 N 138.941 1.26152 0.944643 0
M  V30 1402 C 139.851 1.09176 2.07648 0
M  V30 1403 C 140.867 0.0261935 1.7398 0
M  V30 1404 O 142.043 0.229208 2.00091 0
M  V30 1405 C 139.108 0.722915 3.39079 0
M  V30 1406 C 138.169 1.86752 3.86552 0
M  V30 1407 C 137.402 1.51617 5.11711 0
M  V30 1408 O 137.625 0.416331 5.68879 0
M  V30 1409 O 136.559 2.34975 5.54139 0
M  V30 1410 H 140.385 2.0412 2.24875 0
M  V30 1411 H 137.97 1.05182 1.061 0
M  V30 1412 H 139.852 0.529787 4.18056 0
M  V30 1413 H 138.527 -0.197159 3.23099 0
M  V30 1414 H 137.434 2.11558 3.08535 0
M  V30 1415 H 138.767 2.76719 4.07047 0
M  V30 1416 N 140.419 -1.14872 1.07899 0
M  V30 1417 C 141.667 -1.85422 0.803941 0
M  V30 1418 C 141.988 -1.83051 -0.67211 0
M  V30 1419 O 141.258 -1.27532 -1.48703 0
M  V30 1420 H 139.838 -0.686537 0.294408 0
M  V30 1421 H 142.5 -1.39226 1.3639 0
M  V30 1422 H 141.596 -2.90399 1.14346 0
M  V30 1423 N 141.898 -0.863906 -1.31812 0
M  V30 1424 C 143.314 -0.555004 -1.49639 0
M  V30 1425 C 143.514 0.912266 -1.79666 0
M  V30 1426 O 142.57 1.69479 -1.87171 0
M  V30 1427 C 143.883 -1.44998 -2.63431 0
M  V30 1428 C 145.431 -1.45138 -2.77316 0
M  V30 1429 C 145.906 -2.33179 -3.94197 0
M  V30 1430 N 147.397 -2.31025 -4.01474 0
M  V30 1431 C 148.132 -2.95871 -4.9117 0
M  V30 1432 N 147.628 -3.69863 -5.8581 0
M  V30 1433 N 149.421 -2.85211 -4.84367 0
M  V30 1434 H 141.572 -1.81339 -1.10589 0
M  V30 1435 H 143.835 -0.77505 -0.545895 0
M  V30 1436 H 143.541 -2.49377 -2.48 0
M  V30 1437 H 143.415 -1.14409 -3.59431 0
M  V30 1438 H 145.802 -0.415201 -2.92164 0
M  V30 1439 H 145.883 -1.79747 -1.82001 0
M  V30 1440 H 145.527 -3.3687 -3.80107 0
M  V30 1441 H 145.457 -1.95897 -4.88807 0
M  V30 1442 H 147.948 -1.77238 -3.33759 0
M  V30 1443 H 148.261 -4.16486 -6.50968 0
M  V30 1444 H 146.606 -3.73971 -5.85808 0
M  V30 1445 H 149.797 -2.26948 -4.09405 0
M  V30 1446 H 149.97 -3.36027 -5.54066 0
M  V30 1447 N 143.376 1.44774 -0.622745 0
M  V30 1448 C 144.622 2.0242 -0.124083 0
M  V30 1449 C 144.955 1.4881 1.24777 0
M  V30 1450 O 144.23 0.668799 1.8264 0
M  V30 1451 C 144.513 3.59957 -0.101619 0
M  V30 1452 C 144.366 4.23867 -1.50521 0
M  V30 1453 C 145.685 4.36284 0.578272 0
M  V30 1454 H 142.804 0.735528 -0.0465645 0
M  V30 1455 H 145.446 1.72447 -0.797617 0
M  V30 1456 H 143.596 3.85623 0.471934 0
M  V30 1457 H 145.268 4.09336 -2.12701 0
M  V30 1458 H 143.511 3.81684 -2.06154 0
M  V30 1459 H 144.182 5.32843 -1.4416 0
M  V30 1460 H 146.658 4.16001 0.0906057 0
M  V30 1461 H 145.534 5.46004 0.563149 0
M  V30 1462 H 145.795 4.10271 1.64713 0
M  V30 1463 N 144.854 0.36279 1.53368 0
M  V30 1464 C 145.764 -0.492994 2.29362 0
M  V30 1465 C 146.78 -1.09507 1.35219 0
M  V30 1466 O 147.956 -1.10662 1.68273 0
M  V30 1467 C 145.021 -1.61855 3.066 0
M  V30 1468 C 144.082 -1.04429 4.16405 0
M  V30 1469 C 143.315 -2.11621 4.89951 0
M  V30 1470 O 143.538 -3.32684 4.63333 0
M  V30 1471 O 142.472 -1.74835 5.75948 0
M  V30 1472 H 146.298 0.125331 3.03441 0
M  V30 1473 H 143.883 0.127253 1.48857 0
M  V30 1474 H 145.765 -2.27302 3.54841 0
M  V30 1475 H 144.44 -2.22233 2.3536 0
M  V30 1476 H 143.347 -0.353819 3.72423 0
M  V30 1477 H 144.68 -0.485113 4.89804 0
M  V30 1478 N 146.332 -1.57332 0.0918853 0
M  V30 1479 C 147.264 -2.10869 -0.898168 0
M  V30 1480 C 148.277 -1.04521 -1.24817 0
M  V30 1481 O 149.466 -1.31977 -1.20184 0
M  V30 1482 C 146.566 -2.57083 -2.2082 0
M  V30 1483 C 145.739 -3.87229 -2.03402 0
M  V30 1484 C 144.798 -4.19324 -3.17889 0
M  V30 1485 O 143.824 -4.88598 -2.91994 0
M  V30 1486 N 145.026 -3.74471 -4.43567 0
M  V30 1487 H 147.791 -2.96439 -0.440943 0
M  V30 1488 H 145.352 -1.61631 -0.0933064 0
M  V30 1489 H 147.344 -2.75602 -2.96354 0
M  V30 1490 H 145.914 -1.76541 -2.57977 0
M  V30 1491 H 145.134 -3.7789 -1.12218 0
M  V30 1492 H 146.422 -4.72379 -1.89038 0
M  V30 1493 H 145.82 -3.18546 -4.67488 0
M  V30 1494 H 144.377 -3.98151 -5.16061 0
M  V30 1495 N 147.81 0.181792 -1.56548 0
M  V30 1496 C 149.221 0.745244 -1.71181 0
M  V30 1497 C 149.572 1.83262 -0.70068 0
M  V30 1498 O 148.697 2.15946 0.140154 0
M  V30 1499 C 149.292 1.35859 -3.10367 0
M  V30 1500 C 147.851 1.86898 -3.2672 0
M  V30 1501 C 146.998 0.743942 -2.67134 0
M  V30 1502 H 149.949 -0.0434661 -1.5864 0
M  V30 1503 H 149.97 2.22817 -3.08436 0
M  V30 1504 H 149.482 0.566948 -3.83937 0
M  V30 1505 H 147.583 2.68738 -2.5809 0
M  V30 1506 H 147.696 2.02162 -4.34359 0
M  V30 1507 H 146.06 1.16169 -2.26665 0
M  V30 1508 H 146.843 -0.035676 -3.43281 0
M  V30 1509 N 149.288 1.51039 0.449983 0
M  V30 1510 C 150.699 1.557 1.03026 0
M  V30 1511 C 151.05 0.372939 1.92623 0
M  V30 1512 O 150.175 -0.511771 2.10261 0
M  V30 1513 C 150.77 2.82171 1.87523 0
M  V30 1514 C 149.329 2.89444 2.40622 0
M  V30 1515 C 148.476 2.50228 1.19504 0
M  V30 1516 H 151.427 1.56999 0.231745 0
M  V30 1517 H 151.448 2.65219 2.72835 0
M  V30 1518 H 150.96 3.68331 1.22286 0
M  V30 1519 H 149.061 2.07685 3.0935 0
M  V30 1520 H 149.174 3.92816 2.74285 0
M  V30 1521 H 147.538 2.03139 1.53644 0
M  V30 1522 H 148.321 3.38719 0.558972 0
M  V30 1523 N 150.766 -0.704594 1.40972 0
M  V30 1524 C 152.177 -1.28418 1.3552 0
M  V30 1525 C 152.528 -1.96171 0.0339434 0
M  V30 1526 O 151.653 -1.98231 -0.867944 0
M  V30 1527 C 152.248 -2.33528 2.45459 0
M  V30 1528 C 150.807 -2.87085 2.43433 0
M  V30 1529 C 149.954 -1.61007 2.2577 0
M  V30 1530 H 152.905 -0.499963 1.50619 0
M  V30 1531 H 152.926 -3.14619 2.13998 0
M  V30 1532 H 152.438 -1.84187 3.41609 0
M  V30 1533 H 150.539 -3.40626 1.51013 0
M  V30 1534 H 150.652 -3.3813 3.39419 0
M  V30 1535 H 149.016 -1.86482 1.73483 0
M  V30 1536 H 149.799 -1.13675 3.23933 0
M  V30 1537 N 152.244 -1.26651 -0.937939 0
M  V30 1538 C 153.655 -1.1125 -1.49934 0
M  V30 1539 C 154.006 0.306077 -1.93798 0
M  V30 1540 O 153.131 1.19792 -1.80219 0
M  V30 1541 C 153.726 -2.01339 -2.72485 0
M  V30 1542 C 152.285 -1.90074 -3.24883 0
M  V30 1543 C 151.432 -1.94498 -1.97651 0
M  V30 1544 H 154.383 -1.39693 -0.753091 0
M  V30 1545 H 154.404 -1.56319 -3.46907 0
M  V30 1546 H 153.916 -3.04577 -2.40529 0
M  V30 1547 H 152.017 -0.897827 -3.61621 0
M  V30 1548 H 152.13 -2.75778 -3.9177 0
M  V30 1549 H 150.494 -1.38591 -2.13693 0
M  V30 1550 H 151.277 -2.99372 -1.68022 0
M  V30 1551 N 153.722 1.14298 -1.08507 0
M  V30 1552 C 155.138 1.37347 -0.812901 0
M  V30 1553 C 155.338 1.93052 0.577325 0
M  V30 1554 O 154.394 2.14389 1.33393 0
M  V30 1555 C 155.707 2.33359 -1.89642 0
M  V30 1556 C 157.255 2.46996 -1.92255 0
M  V30 1557 C 157.73 3.46309 -2.99724 0
M  V30 1558 N 159.221 3.53853 -2.98902 0
M  V30 1559 C 159.956 4.3055 -3.787 0
M  V30 1560 N 159.452 5.10482 -4.6838 0
M  V30 1561 N 161.245 4.25757 -3.66998 0
M  V30 1562 H 153.396 0.764867 -1.9815 0
M  V30 1563 H 155.659 0.398966 -0.859959 0
M  V30 1564 H 155.365 1.99565 -2.89597 0
M  V30 1565 H 155.239 3.33274 -1.76659 0
M  V30 1566 H 157.626 2.80081 -0.929445 0
M  V30 1567 H 157.707 1.47039 -2.09316 0
M  V30 1568 H 157.351 3.13957 -3.99241 0
M  V30 1569 H 157.281 4.46049 -2.79907 0
M  V30 1570 H 159.772 2.96812 -2.33904 0
M  V30 1571 H 160.085 5.66284 -5.25873 0
M  V30 1572 H 158.43 5.09747 -4.72422 0
M  V30 1573 H 161.621 3.62383 -2.96304 0
M  V30 1574 H 161.794 4.85279 -4.29427 0
M  V30 1575 N 155.201 0.870884 1.31352 0
M  V30 1576 C 156.149 0.316445 2.30437 0
M  V30 1577 C 157.143 -0.568965 1.59559 0
M  V30 1578 O 158.349 -0.454964 1.74155 0
M  V30 1579 H 154.724 0.0836521 0.747333 0
M  V30 1580 H 156.695 1.16606 2.74673 0
M  V30 1581 C 155.444 -0.46635 3.44558 0
M  V30 1582 H 154.767 0.205687 3.99271 0
M  V30 1583 H 156.207 -0.819614 4.16003 0
M  V30 1584 C 154.666 -1.65797 2.9328 0
M  V30 1585 O 155.196 -2.75728 2.92125 0
M  V30 1586 N 153.402 -1.49041 2.4947 0
M  V30 1587 H 152.949 -0.59612 2.50608 0
M  V30 1588 H 152.907 -2.28911 2.15516 0
M  V30 1589 N 156.679 -1.44442 0.630414 0
M  V30 1590 C 158.09 -1.85434 0.217063 0
M  V30 1591 C 158.441 -1.52748 -1.23136 0
M  V30 1592 O 157.566 -0.965205 -1.93682 0
M  V30 1593 C 158.161 -3.36581 0.387168 0
M  V30 1594 C 156.72 -3.76389 0.0283297 0
M  V30 1595 C 155.867 -2.68296 0.700889 0
M  V30 1596 H 158.818 -1.34919 0.83562 0
M  V30 1597 H 158.839 -3.78657 -0.374086 0
M  V30 1598 H 158.351 -3.60339 1.44144 0
M  V30 1599 H 156.452 -3.58246 -1.02423 0
M  V30 1600 H 156.565 -4.77095 0.437892 0
M  V30 1601 H 154.929 -2.54335 0.136267 0
M  V30 1602 H 155.712 -2.94887 1.75774 0
M  V30 1603 N 158.157 -0.370918 -1.53173 0
M  V30 1604 C 159.087 0.464847 -2.28826 0
M  V30 1605 C 160.068 1.07936 -1.31468 0
M  V30 1606 O 161.253 1.0956 -1.60344 0
M  V30 1607 C 158.383 1.60196 -3.08147 0
M  V30 1608 C 157.337 1.11443 -4.13237 0
M  V30 1609 C 156.663 2.3422 -4.80672 0
M  V30 1610 C 157.963 0.195384 -5.21934 0
M  V30 1611 H 159.657 -0.166329 -2.98938 0
M  V30 1612 H 157.203 -0.0814359 -1.4377 0
M  V30 1613 H 159.156 2.19332 -3.59822 0
M  V30 1614 H 157.88 2.26045 -2.35735 0
M  V30 1615 H 156.539 0.545727 -3.62515 0
M  V30 1616 H 156.187 2.98537 -4.04827 0
M  V30 1617 H 155.887 2.02269 -5.51689 0
M  V30 1618 H 157.411 2.94032 -5.35143 0
M  V30 1619 H 158.825 0.694375 -5.69079 0
M  V30 1620 H 157.222 -0.0335027 -6.00091 0
M  V30 1621 H 158.292 -0.760961 -4.78892 0
M  V30 1622 N 159.635 1.57281 -0.100228 0
M  V30 1623 C 160.912 1.86014 0.604812 0
M  V30 1624 C 161.292 0.998025 1.86018 0
M  V30 1625 O 160.64 0.0718184 2.28387 0
M  V30 1626 C 160.85 3.36784 0.915278 0
M  V30 1627 C 162.198 4.04957 1.27651 0
M  V30 1628 O 163.222 3.41695 1.00613 0
M  V30 1629 O 162.081 5.16593 1.7831 0
M  V30 1630 H 159.175 0.76942 0.303185 0
M  V30 1631 H 161.721 1.69176 -0.133313 0
M  V30 1632 H 160.493 3.91292 0.0248896 0
M  V30 1633 H 160.116 3.58987 1.70921 0
M  V30 1634 N 161.113 -0.173488 1.56642 0
M  V30 1635 C 162.361 -0.888706 1.81512 0
M  V30 1636 C 162.682 -1.82875 0.676872 0
M  V30 1637 O 161.952 -1.93536 -0.303414 0
M  V30 1638 H 160.532 -0.331164 0.669582 0
M  V30 1639 H 163.194 -0.173823 1.94123 0
M  V30 1640 H 162.29 -1.46691 2.75478 0
M  V30 1641 N 162.591 -1.51276 -0.441967 0
M  V30 1642 C 163.816 -1.67799 -1.21895 0
M  V30 1643 C 164.241 -0.372864 -1.84367 0
M  V30 1644 O 163.599 0.666501 -1.68604 0
M  V30 1645 C 163.647 -2.79199 -2.28211 0
M  V30 1646 O 162.751 -2.42479 -3.33583 0
M  V30 1647 H 162.092 -0.559649 -0.357336 0
M  V30 1648 H 164.622 -1.97815 -0.522522 0
M  V30 1649 H 164.632 -3.03146 -2.73069 0
M  V30 1650 H 163.307 -3.73906 -1.82118 0
M  V30 1651 H 161.884 -2.29087 -2.94234 0
M  V30 1652 N 164.069 0.697108 -1.41344 0
M  V30 1653 C 165.315 1.4593 -1.40827 0
M  V30 1654 C 165.648 1.94193 -0.0167098 0
M  V30 1655 O 164.923 1.69425 0.955263 0
M  V30 1656 C 165.206 2.67229 -2.41373 0
M  V30 1657 C 165.059 2.24741 -3.8963 0
M  V30 1658 C 166.378 3.69423 -2.39196 0
M  V30 1659 H 163.497 0.529303 -0.512842 0
M  V30 1660 H 166.139 0.794112 -1.72609 0
M  V30 1661 H 164.289 3.23982 -2.14401 0
M  V30 1662 H 165.961 1.73327 -4.27499 0
M  V30 1663 H 164.204 1.56542 -4.0457 0
M  V30 1664 H 164.875 3.1177 -4.55525 0
M  V30 1665 H 167.351 3.2234 -2.63128 0
M  V30 1666 H 166.227 4.51907 -3.11563 0
M  V30 1667 H 166.488 4.19012 -1.41001 0
M  V30 1668 N 165.547 1.27147 0.931209 0
M  V30 1669 C 166.477 1.12081 2.04842 0
M  V30 1670 C 167.458 0.0232364 1.70084 0
M  V30 1671 O 168.643 0.197085 1.93197 0
M  V30 1672 C 165.773 0.76354 3.38803 0
M  V30 1673 C 164.727 1.81396 3.87659 0
M  V30 1674 C 164.053 1.31075 5.18385 0
M  V30 1675 C 165.353 3.21739 4.11438 0
M  V30 1676 H 167.047 2.05537 2.17703 0
M  V30 1677 H 164.593 0.989603 1.04608 0
M  V30 1678 H 166.546 0.644982 4.16435 0
M  V30 1679 H 165.27 -0.206727 3.25945 0
M  V30 1680 H 163.929 1.92136 3.12217 0
M  V30 1681 H 163.577 0.330037 5.01916 0
M  V30 1682 H 163.277 2.013 5.52044 0
M  V30 1683 H 164.801 1.20506 5.98591 0
M  V30 1684 H 166.215 3.14019 4.79651 0
M  V30 1685 H 164.612 3.89644 4.56397 0
M  V30 1686 H 165.682 3.67054 3.16859 0
M  V30 1687 N 167.025 -1.13721 1.09112 0
M  V30 1688 C 167.955 -2.21148 0.749385 0
M  V30 1689 C 168.936 -1.6792 -0.271475 0
M  V30 1690 O 170.121 -1.93693 -0.140251 0
M  V30 1691 C 167.251 -3.46905 0.165659 0
M  V30 1692 C 166.205 -4.13203 1.11567 0
M  V30 1693 C 165.531 -5.33248 0.393809 0
M  V30 1694 C 166.831 -4.60912 2.45678 0
M  V30 1695 H 168.525 -2.4999 1.64758 0
M  V30 1696 H 166.071 -1.20156 0.793626 0
M  V30 1697 H 168.024 -4.21313 -0.085466 0
M  V30 1698 H 166.748 -3.17449 -0.767714 0
M  V30 1699 H 165.407 -3.40758 1.35202 0
M  V30 1700 H 165.055 -5.00054 -0.543599 0
M  V30 1701 H 164.755 -5.78552 1.02721 0
M  V30 1702 H 166.279 -6.10413 0.150908 0
M  V30 1703 H 167.693 -5.26759 2.26269 0
M  V30 1704 H 166.09 -5.16944 3.04776 0
M  V30 1705 H 167.16 -3.75603 3.06677 0
M  V30 1706 N 168.503 -0.877838 -1.30888 0
M  V30 1707 C 169.919 -0.570844 -1.49042 0
M  V30 1708 C 170.119 0.893159 -1.80624 0
M  V30 1709 O 169.175 1.67485 -1.88958 0
M  V30 1710 C 170.488 -1.47784 -2.61878 0
M  V30 1711 C 172.036 -1.48071 -2.75761 0
M  V30 1712 C 172.511 -2.37347 -3.91702 0
M  V30 1713 N 174.002 -2.35271 -3.99001 0
M  V30 1714 C 174.737 -3.01063 -4.88004 0
M  V30 1715 N 174.233 -3.76055 -5.81854 0
M  V30 1716 N 176.026 -2.90332 -4.81315 0
M  V30 1717 H 168.177 -1.82502 -1.0866 0
M  V30 1718 H 170.44 -0.780797 -0.537644 0
M  V30 1719 H 170.146 -2.51993 -2.45341 0
M  V30 1720 H 170.02 -1.18215 -3.58197 0
M  V30 1721 H 172.407 -0.446166 -2.91708 0
M  V30 1722 H 172.488 -1.81668 -1.80085 0
M  V30 1723 H 172.132 -3.40883 -3.76512 0
M  V30 1724 H 172.062 -2.01071 -4.86701 0
M  V30 1725 H 174.553 -1.80768 -3.3186 0
M  V30 1726 H 174.866 -4.23366 -6.46514 0
M  V30 1727 H 173.211 -3.80163 -5.81808 0
M  V30 1728 H 176.402 -2.31278 -4.06974 0
M  V30 1729 H 176.575 -3.41885 -5.50471 0
M  V30 1730 N 169.982 1.44106 -0.638065 0
M  V30 1731 C 170.93 2.3248 0.0748149 0
M  V30 1732 C 171.924 1.47746 0.828702 0
M  V30 1733 O 173.13 1.64049 0.740816 0
M  V30 1734 H 169.505 0.750771 0.0429686 0
M  V30 1735 H 171.476 2.90348 -0.688504 0
M  V30 1736 C 170.225 3.31843 1.03805 0
M  V30 1737 H 169.548 3.97059 0.467375 0
M  V30 1738 H 170.988 3.96345 1.50622 0
M  V30 1739 C 169.447 2.61291 2.1267 0
M  V30 1740 O 169.977 2.41702 3.20847 0
M  V30 1741 N 168.183 2.20915 1.88798 0
M  V30 1742 H 167.73 2.37047 1.00829 0
M  V30 1743 H 167.688 1.74038 2.61836 0
M  V30 1744 N 171.46 0.379036 1.52974 0
M  V30 1745 C 172.423 -0.448865 2.24762 0
M  V30 1746 C 173.423 -0.998689 1.26027 0
M  V30 1747 O 174.613 -0.882313 1.50203 0
M  V30 1748 C 171.745 -1.62872 2.99476 0
M  V30 1749 H 172.938 0.179491 2.99362 0
M  V30 1750 H 170.491 0.13096 1.5575 0
M  V30 1751 H 171.226 -2.29479 2.29151 0
M  V30 1752 H 171.011 -1.24128 3.71934 0
M  V30 1753 H 172.501 -2.2151 3.5401 0
M  V30 1754 N 172.938 -1.57226 0.108567 0
M  V30 1755 C 174.184 -1.95121 -0.552761 0
M  V30 1756 C 174.517 -0.991345 -1.66991 0
M  V30 1757 O 173.792 -0.0267211 -1.94482 0
M  V30 1758 C 174.075 -3.43039 -1.09528 0
M  V30 1759 C 173.928 -4.49797 0.0177332 0
M  V30 1760 C 175.247 -3.92567 -1.98945 0
M  V30 1761 H 172.366 -0.709496 -0.199461 0
M  V30 1762 H 175.008 -1.89126 0.182011 0
M  V30 1763 H 173.158 -3.48279 -1.72146 0
M  V30 1764 H 174.83 -4.56661 0.652584 0
M  V30 1765 H 173.073 -4.284 0.682309 0
M  V30 1766 H 173.744 -5.50528 -0.402919 0
M  V30 1767 H 176.22 -3.89565 -1.46214 0
M  V30 1768 H 175.096 -4.96605 -2.33827 0
M  V30 1769 H 175.357 -3.32648 -2.91201 0
M  V30 1770 N 174.416 0.165178 -1.56732 0
M  V30 1771 C 175.348 1.22911 -1.93457 0
M  V30 1772 C 176.361 1.40152 -0.828333 0
M  V30 1773 O 177.55 1.40046 -1.10677 0
M  V30 1774 C 174.65 2.59686 -2.17753 0
M  V30 1775 C 173.823 2.63663 -3.48999 0
M  V30 1776 C 172.882 3.81845 -3.62051 0
M  V30 1777 O 171.908 3.67559 -4.34613 0
M  V30 1778 N 173.11 4.98557 -2.97357 0
M  V30 1779 H 175.875 0.917118 -2.85323 0
M  V30 1780 H 173.436 0.354895 -1.57962 0
M  V30 1781 H 175.428 3.37225 -2.23743 0
M  V30 1782 H 173.998 2.83251 -1.32242 0
M  V30 1783 H 173.218 1.72173 -3.54612 0
M  V30 1784 H 174.506 2.63336 -4.35352 0
M  V30 1785 H 173.904 5.13065 -2.38287 0
M  V30 1786 H 172.461 5.73936 -3.08934 0
M  V30 1787 N 175.894 1.51508 0.433938 0
M  V30 1788 C 176.857 1.72473 1.50949 0
M  V30 1789 C 177.857 0.594725 1.49398 0
M  V30 1790 O 179.047 0.862315 1.5136 0
M  V30 1791 C 176.179 1.78431 2.90474 0
M  V30 1792 H 177.372 2.68467 1.33662 0
M  V30 1793 H 174.925 1.41549 0.662836 0
M  V30 1794 H 175.66 0.842645 3.13161 0
M  V30 1795 H 175.445 2.60558 2.93005 0
M  V30 1796 H 176.935 1.96479 3.68491 0
M  V30 1797 N 177.372 -0.689602 1.41712 0
M  V30 1798 C 178.649 -1.44457 1.31877 0
M  V30 1799 C 179.029 -2.11039 -0.0508537 0
M  V30 1800 O 178.377 -2.02138 -1.06547 0
M  V30 1801 C 178.587 -2.45913 2.47645 0
M  V30 1802 C 179.935 -3.10991 2.89084 0
M  V30 1803 O 180.959 -2.56238 2.47428 0
M  V30 1804 O 179.818 -4.10174 3.61137 0
M  V30 1805 H 176.912 -0.64362 0.519309 0
M  V30 1806 H 179.458 -0.719576 1.53689 0
M  V30 1807 H 178.23 -1.95409 3.39015 0
M  V30 1808 H 177.853 -3.25913 2.27742 0
M  V30 1809 N 178.85 -1.27639 -0.924453 0
M  V30 1810 C 179.76 -1.12466 -2.05885 0
M  V30 1811 C 180.776 -0.053869 -1.73917 0
M  V30 1812 O 181.952 -0.261012 -1.99702 0
M  V30 1813 C 179.017 -0.776768 -3.37886 0
M  V30 1814 C 178.078 -1.92878 -3.83532 0
M  V30 1815 C 177.311 -1.59739 -5.09234 0
M  V30 1816 O 177.534 -0.506782 -5.68144 0
M  V30 1817 O 176.468 -2.43761 -5.50331 0
M  V30 1818 H 180.294 -2.07671 -2.21599 0
M  V30 1819 H 177.879 -1.06857 -1.04413 0
M  V30 1820 H 179.761 -0.596229 -4.17161 0
M  V30 1821 H 178.436 0.145732 -3.23372 0
M  V30 1822 H 177.343 -2.1644 -3.0513 0
M  V30 1823 H 178.676 -2.8316 -4.02593 0
M  V30 1824 N 180.328 1.1314 -1.09713 0
M  V30 1825 C 181.576 1.84119 -0.833338 0
M  V30 1826 C 181.897 1.84097 0.642904 0
M  V30 1827 O 181.167 1.29881 1.46655 0
M  V30 1828 H 179.747 0.681766 -0.305293 0
M  V30 1829 H 182.409 1.37038 -1.38588 0
M  V30 1830 H 181.505 2.88543 -1.18951 0
M  V30 1831 N 181.806 0.884767 1.30421 0
M  V30 1832 C 182.716 0.355398 2.31892 0
M  V30 1833 C 183.732 -0.542261 1.65335 0
M  V30 1834 O 184.908 -0.435432 1.96637 0
M  V30 1835 C 181.973 -0.421661 3.44126 0
M  V30 1836 C 181.034 0.505727 4.26311 0
M  V30 1837 C 180.267 -0.234343 5.33185 0
M  V30 1838 O 180.49 -1.46045 5.51386 0
M  V30 1839 O 179.424 0.415443 6.00465 0
M  V30 1840 H 183.25 1.19685 2.79122 0
M  V30 1841 H 180.835 0.648596 1.34587 0
M  V30 1842 H 182.717 -0.861641 4.12497 0
M  V30 1843 H 181.392 -1.23942 2.99032 0
M  V30 1844 H 180.299 0.994513 3.60639 0
M  V30 1845 H 181.632 1.28948 4.75009 0
M  V30 1846 N 183.284 -1.43765 0.645699 0
M  V30 1847 C 184.514 -2.05953 0.163318 0
M  V30 1848 C 184.922 -1.48432 -1.17322 0
M  V30 1849 O 184.265 -0.607295 -1.73371 0
M  V30 1850 C 184.327 -3.59499 -0.0103065 0
M  V30 1851 C 183.991 -4.39563 1.25035 0
M  V30 1852 C 184.988 -4.72108 2.17739 0
M  V30 1853 C 182.673 -4.79697 1.48983 0
M  V30 1854 C 184.667 -5.43688 3.3269 0
M  V30 1855 C 182.354 -5.51023 2.64229 0
M  V30 1856 C 183.352 -5.8294 3.55908 0
M  V30 1857 O 183.04 -6.5281 4.69142 0
M  V30 1858 H 182.772 -0.670798 0.0836986 0
M  V30 1859 H 185.326 -1.85384 0.884407 0
M  V30 1860 H 183.556 -3.78613 -0.78669 0
M  V30 1861 H 185.245 -4.03408 -0.449087 0
M  V30 1862 H 186.011 -4.41627 2.00476 0
M  V30 1863 H 181.89 -4.54266 0.785078 0
M  V30 1864 H 185.434 -5.68517 4.04269 0
M  V30 1865 H 181.331 -5.8092 2.81429 0
M  V30 1866 H 182.099 -6.71288 4.6831 0
M  V30 1867 N 184.763 -0.387143 -1.52771 0
M  V30 1868 C 185.673 0.456442 -2.30117 0
M  V30 1869 C 186.689 1.07342 -1.36944 0
M  V30 1870 O 187.865 1.07971 -1.70013 0
M  V30 1871 C 184.93 1.56957 -3.09136 0
M  V30 1872 C 183.991 0.977916 -4.18014 0
M  V30 1873 C 183.224 2.038 -4.93256 0
M  V30 1874 O 183.447 3.25271 -4.68567 0
M  V30 1875 O 182.381 1.6565 -5.78657 0
M  V30 1876 H 186.207 -0.17359 -3.03203 0
M  V30 1877 H 183.792 -0.150919 -1.48636 0
M  V30 1878 H 185.674 2.21628 -3.58412 0
M  V30 1879 H 184.349 2.18461 -2.38865 0
M  V30 1880 H 183.256 0.294525 -3.72939 0
M  V30 1881 H 184.589 0.407128 -4.90513 0
M  V30 1882 N 186.241 1.57166 -0.116904 0
M  V30 1883 C 187.481 1.97008 0.544715 0
M  V30 1884 C 187.845 0.998713 1.63981 0
M  V30 1885 O 189.046 1.28644 2.36018 0
M  V30 1886 C 187.317 3.41145 1.06559 0
M  V30 1887 S 188.876 4.02998 1.73603 0
M  V30 1888 H 185.694 0.688587 0.177112 0
M  V30 1889 H 188.296 1.94459 -0.201487 0
M  V30 1890 H 187 4.09592 0.257374 0
M  V30 1891 H 186.531 3.4734 1.84712 0
M  V30 1892 H 188.546 3.93585 3.02168 0
M  V30 1893 N 187.719 -0.156864 1.56817 0
M  V30 1894 C 189.135 -0.50916 1.5126 0
M  V30 1895 C 189.335 -1.83897 0.823658 0
M  V30 1896 O 188.391 -2.49469 0.390055 0
M  V30 1897 C 189.704 -0.52857 2.96018 0
M  V30 1898 C 191.252 -0.614771 3.06903 0
M  V30 1899 C 191.727 -0.664938 4.53147 0
M  V30 1900 N 193.218 -0.727433 4.57452 0
M  V30 1901 C 193.953 -0.787067 5.67973 0
M  V30 1902 N 193.449 -0.806649 6.88088 0
M  V30 1903 N 195.242 -0.827195 5.5598 0
M  V30 1904 H 187.393 0.714935 2.00006 0
M  V30 1905 H 189.656 0.259526 0.911784 0
M  V30 1906 H 189.362 0.380154 3.49639 0
M  V30 1907 H 189.236 -1.36998 3.51442 0
M  V30 1908 H 191.623 -1.51392 2.53307 0
M  V30 1909 H 191.704 0.253597 2.5454 0
M  V30 1910 H 191.348 0.230011 5.07379 0
M  V30 1911 H 191.278 -1.54966 5.03282 0
M  V30 1912 H 193.769 -0.719998 3.70978 0
M  V30 1913 H 194.082 -0.853727 7.6807 0
M  V30 1914 H 192.427 -0.774687 6.90669 0
M  V30 1915 H 195.618 -0.808998 4.61056 0
M  V30 1916 H 195.791 -0.870206 6.4213 0
M  V30 1917 N 189.197 -1.51736 -0.425897 0
M  V30 1918 C 190.443 -1.65214 -1.1761 0
M  V30 1919 C 190.776 -0.372778 -1.90589 0
M  V30 1920 O 190.051 0.628139 -1.84078 0
M  V30 1921 C 190.334 -2.86312 -2.18398 0
M  V30 1922 C 190.187 -4.24254 -1.49426 0
M  V30 1923 C 191.506 -3.02925 -3.19256 0
M  V30 1924 H 188.625 -0.601263 -0.426206 0
M  V30 1925 H 191.267 -1.8425 -0.463882 0
M  V30 1926 H 189.417 -2.70213 -2.79137 0
M  V30 1927 H 191.089 -4.52046 -0.919362 0
M  V30 1928 H 189.332 -4.26426 -0.796432 0
M  V30 1929 H 190.003 -5.05001 -2.22885 0
M  V30 1930 H 192.479 -3.1781 -2.68581 0
M  V30 1931 H 191.355 -3.89199 -3.8706 0
M  V30 1932 H 191.616 -2.15497 -3.86023 0
M  V30 1933 N 190.675 0.682077 -1.42076 0
M  V30 1934 C 191.9 1.47558 -1.45744 0
M  V30 1935 C 192.325 1.87977 -0.0680981 0
M  V30 1936 O 191.683 1.55522 0.9318 0
M  V30 1937 C 191.731 2.70575 -2.38373 0
M  V30 1938 O 190.835 3.68573 -1.85007 0
M  V30 1939 H 190.176 0.443585 -0.494093 0
M  V30 1940 H 192.706 0.837238 -1.86686 0
M  V30 1941 H 192.716 3.18729 -2.54707 0
M  V30 1942 H 191.391 2.40495 -3.39315 0
M  V30 1943 H 189.968 3.2757 -1.78192 0
M  V30 1944 N 192.153 1.28127 0.917671 0
M  V30 1945 C 193.381 1.17892 1.70026 0
M  V30 1946 C 193.796 -0.262958 1.8696 0
M  V30 1947 O 193.153 -1.17811 1.3938 0
M  V30 1948 C 193.204 1.86872 3.09453 0
M  V30 1949 O 192.925 3.25428 2.93306 0
M  V30 1950 C 194.426 1.8289 4.03815 0
M  V30 1951 H 191.646 0.40942 0.531617 0
M  V30 1952 H 194.19 1.69181 1.14883 0
M  V30 1953 H 192.345 1.39464 3.61426 0
M  V30 1954 H 192.759 3.59918 3.81523 0
M  V30 1955 H 194.233 2.35751 4.99125 0
M  V30 1956 H 194.71 0.800412 4.31845 0
M  V30 1957 H 195.316 2.29959 3.57769 0
M  V30 1958 N 193.631 -1.12557 1.10312 0
M  V30 1959 C 194.878 -1.84038 0.844759 0
M  V30 1960 C 195.206 -1.84026 -0.629668 0
M  V30 1961 O 194.461 -1.28026 -1.48013 0
M  V30 1962 C 194.76 -3.31462 1.33669 0
M  V30 1963 C 194.426 -3.51647 2.82232 0
M  V30 1964 C 193.088 -3.56864 3.22802 0
M  V30 1965 C 195.44 -3.58867 3.77974 0
M  V30 1966 C 192.768 -3.66844 4.57867 0
M  V30 1967 C 195.12 -3.70375 5.1284 0
M  V30 1968 C 193.784 -3.73848 5.52986 0
M  V30 1969 H 193.054 -0.673444 0.309119 0
M  V30 1970 H 195.701 -1.32824 1.37949 0
M  V30 1971 H 194.006 -3.85091 0.721949 0
M  V30 1972 H 195.703 -3.85236 1.11329 0
M  V30 1973 H 192.293 -3.48249 2.49842 0
M  V30 1974 H 196.477 -3.54107 3.47738 0
M  V30 1975 H 191.733 -3.67804 4.88396 0
M  V30 1976 H 195.907 -3.74904 5.86873 0
M  V30 1977 H 193.534 -3.81333 6.57639 0
M  V30 1978 N 195.109 -0.891671 -1.2995 0
M  V30 1979 C 196.52 -0.563104 -1.78006 0
M  V30 1980 C 196.871 0.920978 -1.73241 0
M  V30 1981 O 195.996 1.71987 -1.31337 0
M  V30 1982 C 196.591 -1.01539 -3.23226 0
M  V30 1983 C 195.15 -0.738124 -3.69092 0
M  V30 1984 C 194.297 -1.19461 -2.50249 0
M  V30 1985 H 197.248 -1.07522 -1.16725 0
M  V30 1986 H 197.269 -0.347217 -3.78912 0
M  V30 1987 H 196.781 -2.09555 -3.26662 0
M  V30 1988 H 194.882 0.329766 -3.71138 0
M  V30 1989 H 194.995 -1.33037 -4.60259 0
M  V30 1990 H 193.359 -0.613787 -2.47194 0
M  V30 1991 H 194.142 -2.28265 -2.56417 0
M  V30 1992 N 196.587 1.43421 -0.653314 0
M  V30 1993 C 197.55 2.29182 0.0287951 0
M  V30 1994 C 198.55 1.42213 0.750465 0
M  V30 1995 O 199.74 1.63843 0.591701 0
M  V30 1996 C 196.872 3.24278 1.05151 0
M  V30 1997 H 198.065 2.90985 -0.725786 0
M  V30 1998 H 195.618 1.50702 -0.414545 0
M  V30 1999 H 196.353 2.6737 1.83532 0
M  V30 2000 H 196.138 3.88396 0.537687 0
M  V30 2001 H 197.628 3.88647 1.52786 0
M  V30 2002 N 198.065 0.39524 1.52563 0
M  V30 2003 C 199.313 -0.184678 2.01254 0
M  V30 2004 C 199.634 -1.46822 1.28329 0
M  V30 2005 O 198.904 -1.91666 0.405094 0
M  V30 2006 H 197.484 -0.0712355 0.743596 0
M  V30 2007 H 200.146 0.528293 1.87603 0
M  V30 2008 H 199.242 -0.390681 3.09645 0
M  V30 2009 N 199.544 -1.57102 0.125237 0
M  V30 2010 C 200.769 -2.0019 -0.542101 0
M  V30 2011 C 201.194 -1.00449 -1.59034 0
M  V30 2012 O 200.552 0.0229423 -1.81285 0
M  V30 2013 C 200.6 -3.42129 -1.13929 0
M  V30 2014 O 199.704 -3.45307 -2.2547 0
M  V30 2015 H 199.045 -0.650171 -0.134812 0
M  V30 2016 H 201.575 -2.03461 0.215553 0
M  V30 2017 H 201.585 -3.80471 -1.4733 0
M  V30 2018 H 200.26 -4.14237 -0.371531 0
M  V30 2019 H 198.837 -3.1879 -1.93462 0
M  V30 2020 N 201.022 0.148545 -1.56898 0
M  V30 2021 C 202.269 0.861418 -1.83264 0
M  V30 2022 C 202.597 1.81239 -0.705883 0
M  V30 2023 O 201.852 1.93305 0.305212 0
M  V30 2024 C 202.151 1.67064 -3.1595 0
M  V30 2025 C 201.817 0.866591 -4.42494 0
M  V30 2026 C 200.479 0.644762 -4.76861 0
M  V30 2027 C 202.831 0.30418 -5.20312 0
M  V30 2028 C 200.159 -0.15021 -5.86508 0
M  V30 2029 C 202.511 -0.477824 -6.30793 0
M  V30 2030 C 201.175 -0.710244 -6.63711 0
M  V30 2031 H 200.445 0.315215 -0.670612 0
M  V30 2032 H 203.092 0.125142 -1.91091 0
M  V30 2033 H 201.397 2.47698 -3.03567 0
M  V30 2034 H 203.094 2.22566 -3.33565 0
M  V30 2035 H 199.684 1.04955 -4.15551 0
M  V30 2036 H 203.868 0.462844 -4.94137 0
M  V30 2037 H 199.124 -0.339796 -6.10455 0
M  V30 2038 H 203.298 -0.92076 -6.90286 0
M  V30 2039 H 200.925 -1.3281 -7.48509 0
M  V30 2040 N 202.5 1.5196 0.417844 0
M  V30 2041 C 203.432 1.70895 1.52733 0
M  V30 2042 C 204.445 0.589405 1.51756 0
M  V30 2043 O 205.634 0.864312 1.56179 0
M  V30 2044 C 202.734 1.72627 2.91639 0
M  V30 2045 C 201.907 3.01479 3.16905 0
M  V30 2046 C 200.966 2.95139 4.35637 0
M  V30 2047 O 199.992 3.69059 4.3334 0
M  V30 2048 N 201.194 2.12328 5.40275 0
M  V30 2049 H 203.959 2.66612 1.36888 0
M  V30 2050 H 201.52 1.50089 0.607037 0
M  V30 2051 H 203.512 1.65928 3.6912 0
M  V30 2052 H 202.082 0.844216 3.00985 0
M  V30 2053 H 201.302 3.21895 2.27546 0
M  V30 2054 H 202.59 3.86736 3.30625 0
M  V30 2055 H 201.988 1.51685 5.44985 0
M  V30 2056 H 200.545 2.11494 6.16534 0
M  V30 2057 N 203.978 -0.674533 1.42435 0
M  V30 2058 C 204.941 -1.76986 1.45632 0
M  V30 2059 C 205.941 -1.5708 0.343871 0
M  V30 2060 O 207.131 -1.63367 0.604709 0
M  V30 2061 C 204.263 -3.15623 1.28822 0
M  V30 2062 H 205.456 -1.75539 2.43158 0
M  V30 2063 H 203.009 -0.884189 1.28887 0
M  V30 2064 H 203.744 -3.22696 0.322193 0
M  V30 2065 H 203.529 -3.31475 2.09444 0
M  V30 2066 H 205.019 -3.95537 1.33942 0
M  V30 2067 N 205.456 -1.28612 -0.910864 0
M  V30 2068 C 206.872 -1.06381 -1.18976 0
M  V30 2069 C 207.072 0.191998 -2.00583 0
M  V30 2070 O 206.128 0.892869 -2.36187 0
M  V30 2071 C 207.441 -2.31295 -1.92154 0
M  V30 2072 C 208.989 -2.36503 -2.05025 0
M  V30 2073 C 209.464 -3.61191 -2.81612 0
M  V30 2074 N 210.955 -3.61847 -2.89172 0
M  V30 2075 C 211.69 -4.55004 -3.4894 0
M  V30 2076 N 211.186 -5.58482 -4.09963 0
M  V30 2077 N 212.979 -4.42594 -3.46506 0
M  V30 2078 H 205.13 -2.09221 -0.366094 0
M  V30 2079 H 207.393 -0.921003 -0.224629 0
M  V30 2080 H 207.099 -3.228 -1.39618 0
M  V30 2081 H 206.973 -2.37934 -2.9269 0
M  V30 2082 H 209.36 -1.45494 -2.5674 0
M  V30 2083 H 209.441 -2.33857 -1.03657 0
M  V30 2084 H 209.085 -4.52545 -2.30576 0
M  V30 2085 H 209.015 -3.61092 -3.83302 0
M  V30 2086 H 211.506 -2.87022 -2.45819 0
M  V30 2087 H 211.819 -6.25704 -4.53557 0
M  V30 2088 H 210.164 -5.62305 -4.08459 0
M  V30 2089 H 213.355 -3.60953 -2.98045 0
M  V30 2090 H 213.528 -5.15381 -3.92793 0
M  V30 2091 N 206.934 1.1197 -1.10907 0
M  V30 2092 C 207.864 2.19928 -0.784473 0
M  V30 2093 C 208.845 1.6833 0.244726 0
M  V30 2094 O 210.03 1.93892 0.109418 0
M  V30 2095 C 207.16 3.46597 -0.220827 0
M  V30 2096 C 206.114 4.11376 -1.18127 0
M  V30 2097 C 205.44 5.32554 -0.478594 0
M  V30 2098 C 206.74 4.56945 -2.52979 0
M  V30 2099 H 208.434 2.47337 -1.68715 0
M  V30 2100 H 205.98 1.18879 -0.812642 0
M  V30 2101 H 207.933 4.21396 0.0184278 0
M  V30 2102 H 206.657 3.1863 0.717113 0
M  V30 2103 H 205.316 3.38564 -1.40606 0
M  V30 2104 H 204.964 5.00856 0.463976 0
M  V30 2105 H 204.664 5.76844 -1.11912 0
M  V30 2106 H 206.188 6.10096 -0.248 0
M  V30 2107 H 207.602 5.23093 -2.3462 0
M  V30 2108 H 205.999 5.1203 -3.12962 0
M  V30 2109 H 207.069 3.70676 -3.12614 0
M  V30 2110 N 208.412 0.89855 1.29475 0
M  V30 2111 C 209.828 0.594483 1.48115 0
M  V30 2112 C 210.028 -0.86431 1.82022 0
M  V30 2113 O 209.084 -1.64457 1.91599 0
M  V30 2114 C 210.397 1.51932 2.59494 0
M  V30 2115 C 211.945 1.5244 2.7337 0
M  V30 2116 C 212.42 2.43548 3.87877 0
M  V30 2117 N 213.911 2.41589 3.95208 0
M  V30 2118 C 214.646 3.08789 4.83153 0
M  V30 2119 N 214.142 3.85265 5.75798 0
M  V30 2120 N 215.935 2.97952 4.76635 0
M  V30 2121 H 208.086 1.84207 1.05742 0
M  V30 2122 H 210.349 0.789251 0.525154 0
M  V30 2123 H 210.055 2.55865 2.41301 0
M  V30 2124 H 209.929 1.23899 3.56271 0
M  V30 2125 H 212.316 0.492518 2.90961 0
M  V30 2126 H 212.397 1.8451 1.77172 0
M  V30 2127 H 212.041 3.46829 3.71041 0
M  V30 2128 H 211.971 2.08788 4.83441 0
M  V30 2129 H 214.462 1.86025 3.28943 0
M  V30 2130 H 214.775 4.33598 6.39697 0
M  V30 2131 H 213.12 3.89371 5.75687 0
M  V30 2132 H 216.311 2.37723 4.03244 0
M  V30 2133 H 216.484 3.50599 5.44962 0
M  V30 2134 N 209.89 -1.43072 0.660911 0
M  V30 2135 C 210.82 -2.33497 -0.0122829 0
M  V30 2136 C 211.801 -1.49903 -0.803925 0
M  V30 2137 O 212.986 -1.78546 -0.763864 0
M  V30 2138 C 210.116 -3.33363 -0.973994 0
M  V30 2139 C 209.07 -4.27003 -0.291928 0
M  V30 2140 C 208.396 -5.16967 -1.36562 0
M  V30 2141 C 209.696 -5.15816 0.820462 0
M  V30 2142 H 211.39 -2.90038 0.742873 0
M  V30 2143 H 208.936 -1.39461 0.358688 0
M  V30 2144 H 210.889 -3.95524 -1.45392 0
M  V30 2145 H 209.613 -2.75095 -1.7604 0
M  V30 2146 H 208.272 -3.66217 0.167623 0
M  V30 2147 H 207.92 -4.55034 -2.14366 0
M  V30 2148 H 207.62 -5.80441 -0.914454 0
M  V30 2149 H 209.144 -5.82003 -1.84675 0
M  V30 2150 H 210.558 -5.71742 0.422366 0
M  V30 2151 H 208.955 -5.8805 1.19656 0
M  V30 2152 H 210.025 -4.55045 1.67518 0
M  V30 2153 N 211.368 -0.403325 -1.52352 0
M  V30 2154 C 212.784 -0.0539281 -1.59509 0
M  V30 2155 C 212.984 1.43307 -1.41652 0
M  V30 2156 O 212.04 2.19924 -1.24056 0
M  V30 2157 C 213.353 -0.543654 -2.95745 0
M  V30 2158 C 214.901 -0.501125 -3.08962 0
M  V30 2159 C 215.376 -0.967267 -4.47669 0
M  V30 2160 N 216.867 -0.923849 -4.53893 0
M  V30 2161 C 217.602 -1.25578 -5.5948 0
M  V30 2162 N 217.098 -1.65889 -6.72646 0
M  V30 2163 N 218.891 -1.17613 -5.49658 0
M  V30 2164 H 211.042 -1.37123 -1.62206 0
M  V30 2165 H 213.305 -0.56294 -0.76276 0
M  V30 2166 H 213.011 -1.58275 -3.14073 0
M  V30 2167 H 212.885 0.0498042 -3.77167 0
M  V30 2168 H 215.272 0.528909 -2.90321 0
M  V30 2169 H 215.353 -1.13056 -2.2946 0
M  V30 2170 H 214.997 -1.9956 -4.67053 0
M  V30 2171 H 214.927 -0.314698 -5.25659 0
M  V30 2172 H 217.418 -0.627403 -3.72655 0
M  V30 2173 H 217.731 -1.89543 -7.49195 0
M  V30 2174 H 216.076 -1.69787 -6.73942 0
M  V30 2175 H 219.267 -0.860115 -4.6013 0
M  V30 2176 H 219.44 -1.43812 -6.3184 0
M  V30 2177 N 212.846 1.57033 -0.133567 0
M  V30 2178 C 214.092 1.95976 0.521649 0
M  V30 2179 C 214.425 1.01779 1.65393 0
M  V30 2180 O 213.7 0.0576581 1.94415 0
M  V30 2181 C 213.983 3.44738 1.04057 0
M  V30 2182 C 213.836 4.49711 -0.0892897 0
M  V30 2183 C 215.155 3.95682 1.92675 0
M  V30 2184 H 212.274 0.712579 0.188149 0
M  V30 2185 H 214.916 1.88813 -0.212076 0
M  V30 2186 H 213.066 3.50973 1.66583 0
M  V30 2187 H 214.738 4.55565 -0.725152 0
M  V30 2188 H 212.981 4.27261 -0.750378 0
M  V30 2189 H 213.652 5.51099 0.315284 0
M  V30 2190 H 216.128 3.91841 1.39998 0
M  V30 2191 H 215.004 5.00262 2.25897 0
M  V30 2192 H 215.265 3.37239 2.85872 0
M  V30 2193 N 214.325 -0.140222 1.56975 0
M  V30 2194 C 215.255 -1.17456 2.01808 0
M  V30 2195 C 216.236 -1.44415 0.898794 0
M  V30 2196 O 217.421 -1.5522 1.16707 0
M  V30 2197 C 214.551 -2.50607 2.40444 0
M  V30 2198 C 213.505 -2.38155 3.55621 0
M  V30 2199 C 212.831 -3.76078 3.80091 0
M  V30 2200 C 214.131 -1.85991 4.88062 0
M  V30 2201 H 215.825 -0.801743 2.88466 0
M  V30 2202 H 213.371 -0.38422 1.38779 0
M  V30 2203 H 215.324 -3.23197 2.7041 0
M  V30 2204 H 214.048 -2.89737 1.50732 0
M  V30 2205 H 212.707 -1.68016 3.25832 0
M  V30 2206 H 212.355 -4.12656 2.87618 0
M  V30 2207 H 212.055 -3.68606 4.57606 0
M  V30 2208 H 213.579 -4.50206 4.12488 0
M  V30 2209 H 214.993 -2.4838 5.16701 0
M  V30 2210 H 213.39 -1.89393 5.6943 0
M  V30 2211 H 214.46 -0.816023 4.77984 0
M  V30 2212 N 215.803 -1.52179 -0.40978 0
M  V30 2213 C 217.049 -1.66453 -1.15851 0
M  V30 2214 C 217.382 -0.392972 -1.90182 0
M  V30 2215 O 216.657 0.608579 -1.84734 0
M  V30 2216 C 216.94 -2.88612 -2.15349 0
M  V30 2217 C 216.793 -4.25815 -1.44918 0
M  V30 2218 C 218.112 -3.06294 -3.16026 0
M  V30 2219 H 215.231 -0.60575 -0.419805 0
M  V30 2220 H 217.873 -1.84732 -0.444314 0
M  V30 2221 H 216.023 -2.73158 -2.76255 0
M  V30 2222 H 217.695 -4.52995 -0.871365 0
M  V30 2223 H 215.938 -4.27247 -0.751159 0
M  V30 2224 H 216.609 -5.07337 -2.17516 0
M  V30 2225 H 219.085 -3.20641 -2.65195 0
M  V30 2226 H 217.961 -3.93283 -3.8291 0
M  V30 2227 H 218.222 -2.19579 -3.83715 0
M  V30 2228 N 217.281 0.66697 -1.42791 0
M  V30 2229 C 218.692 1.2478 -1.38877 0
M  V30 2230 C 219.043 1.96012 -0.0859426 0
M  V30 2231 O 218.168 2.00463 0.815081 0
M  V30 2232 C 218.763 2.26938 -2.51564 0
M  V30 2233 C 217.322 2.80529 -2.50959 0
M  V30 2234 C 216.469 1.54965 -2.29959 0
M  V30 2235 H 219.42 0.459853 -1.51892 0
M  V30 2236 H 219.441 3.08834 -2.22265 0
M  V30 2237 H 218.953 1.75065 -3.46372 0
M  V30 2238 H 217.054 3.36502 -1.59991 0
M  V30 2239 H 217.167 3.29012 -3.48265 0
M  V30 2240 H 215.531 1.81817 -1.78366 0
M  V30 2241 H 216.314 1.05047 -3.26833 0
M  V30 2242 N 218.759 1.29093 0.90403 0
M  V30 2243 C 220.17 1.15186 1.46932 0
M  V30 2244 C 220.521 -0.254587 1.94541 0
M  V30 2245 O 219.646 -1.14972 1.83332 0
M  V30 2246 C 220.241 2.08492 2.67051 0
M  V30 2247 C 218.8 1.98621 3.19729 0
M  V30 2248 C 217.947 1.9967 1.92425 0
M  V30 2249 H 220.898 1.41641 0.715789 0
M  V30 2250 H 220.919 1.65461 3.42641 0
M  V30 2251 H 220.431 3.10847 2.3237 0
M  V30 2252 H 218.532 0.993389 3.59114 0
M  V30 2253 H 218.645 2.86068 3.8432 0
M  V30 2254 H 217.009 1.44208 2.09943 0
M  V30 2255 H 217.792 3.03721 1.60026 0
M  V30 2256 N 220.237 -1.11381 1.11499 0
M  V30 2257 C 221.167 -2.19509 0.796125 0
M  V30 2258 C 222.148 -1.68458 -0.235796 0
M  V30 2259 O 223.333 -1.93947 -0.0991344 0
M  V30 2260 C 220.463 -3.46475 0.239205 0
M  V30 2261 C 219.417 -4.10744 1.20307 0
M  V30 2262 C 218.743 -5.32293 0.50683 0
M  V30 2263 C 220.043 -4.55597 2.55399 0
M  V30 2264 H 221.737 -2.46439 1.70024 0
M  V30 2265 H 219.283 -1.18446 0.818935 0
M  V30 2266 H 221.236 -4.214 0.00392006 0
M  V30 2267 H 219.96 -3.19006 -0.700206 0
M  V30 2268 H 218.619 -3.37813 1.42399 0
M  V30 2269 H 218.267 -5.01095 -0.437408 0
M  V30 2270 H 217.967 -5.76243 1.1497 0
M  V30 2271 H 219.491 -6.09956 0.280351 0
M  V30 2272 H 220.905 -5.21841 2.37391 0
M  V30 2273 H 219.302 -5.10363 3.15673 0
M  V30 2274 H 220.372 -3.69013 3.14575 0
M  V30 2275 N 221.715 -0.905404 -1.28997 0
M  V30 2276 C 223.126 -0.581953 -1.77398 0
M  V30 2277 C 223.477 0.902552 -1.74208 0
M  V30 2278 O 222.602 1.70584 -1.33154 0
M  V30 2279 C 223.197 -1.04961 -3.22131 0
M  V30 2280 C 221.756 -0.777229 -3.68288 0
M  V30 2281 C 220.903 -1.22109 -2.48967 0
M  V30 2282 H 223.854 -1.08754 -1.15578 0
M  V30 2283 H 223.875 -0.387387 -3.78523 0
M  V30 2284 H 223.387 -2.13008 -3.24421 0
M  V30 2285 H 221.488 0.290383 -3.71467 0
M  V30 2286 H 221.601 -1.37911 -4.58822 0
M  V30 2287 H 219.965 -0.639971 -2.46529 0
M  V30 2288 H 220.748 -2.30972 -2.53982 0
M  V30 2289 N 223.193 1.4272 -0.668489 0
M  V30 2290 C 224.418 2.06484 -0.194758 0
M  V30 2291 C 224.843 1.49862 1.13679 0
M  V30 2292 O 224.201 0.614582 1.70565 0
M  V30 2293 C 224.249 3.60353 -0.133546 0
M  V30 2294 O 223.353 4.02464 0.899806 0
M  V30 2295 H 222.694 0.656137 -0.10188 0
M  V30 2296 H 225.224 1.82964 -0.915722 0
M  V30 2297 H 225.234 4.07976 0.0447041 0
M  V30 2298 H 223.909 4.00938 -1.1055 0
M  V30 2299 H 222.486 3.66402 0.693109 0
M  V30 2300 N 224.671 0.411399 1.52136 0
M  V30 2301 C 225.601 -0.404015 2.29978 0
M  V30 2302 C 226.582 -1.04412 1.34284 0
M  V30 2303 O 227.767 -1.0527 1.63192 0
M  V30 2304 C 224.897 -1.5197 3.12286 0
M  V30 2305 C 223.851 -1.00448 4.16046 0
M  V30 2306 C 223.177 -2.21393 4.86712 0
M  V30 2307 C 224.477 -0.0569336 5.22269 0
M  V30 2308 H 226.171 0.245529 2.98392 0
M  V30 2309 H 223.717 0.119525 1.43503 0
M  V30 2310 H 225.67 -2.09715 3.6551 0
M  V30 2311 H 224.394 -2.19716 2.41646 0
M  V30 2312 H 223.053 -0.449421 3.63835 0
M  V30 2313 H 222.701 -2.87699 4.12599 0
M  V30 2314 H 222.401 -1.87571 5.56858 0
M  V30 2315 H 223.925 -2.7974 5.4275 0
M  V30 2316 H 225.339 -0.54325 5.7072 0
M  V30 2317 H 223.736 0.192594 5.99791 0
M  V30 2318 H 224.806 0.887663 4.76706 0
M  V30 2319 N 226.149 -1.5696 0.141893 0
M  V30 2320 C 227.097 -2.17784 -0.816874 0
M  V30 2321 C 228.091 -1.1334 -1.25899 0
M  V30 2322 O 229.297 -1.316 -1.22806 0
M  V30 2323 H 225.672 -0.697278 -0.281615 0
M  V30 2324 H 227.643 -2.97087 -0.279621 0
M  V30 2325 C 226.392 -2.80983 -2.04802 0
M  V30 2326 H 225.715 -3.61062 -1.7168 0
M  V30 2327 H 227.155 -3.2705 -2.69841 0
M  V30 2328 C 225.614 -1.79228 -2.8527 0
M  V30 2329 O 226.144 -1.25962 -3.8144 0
M  V30 2330 N 224.35 -1.48647 -2.49704 0
M  V30 2331 H 223.897 -1.92155 -1.71564 0
M  V30 2332 H 223.855 -0.808115 -3.03837 0
M  V30 2333 N 227.627 0.131896 -1.57047 0
M  V30 2334 C 229.038 0.690407 -1.73465 0
M  V30 2335 C 229.389 1.8094 -0.758629 0
M  V30 2336 O 228.514 2.16282 0.0713813 0
M  V30 2337 C 229.109 1.25916 -3.14532 0
M  V30 2338 C 227.668 1.76409 -3.32501 0
M  V30 2339 C 226.815 0.658579 -2.69366 0
M  V30 2340 H 229.766 -0.0939144 -1.58422 0
M  V30 2341 H 229.787 2.12892 -3.15369 0
M  V30 2342 H 229.299 0.444515 -3.85546 0
M  V30 2343 H 227.4 2.60391 -2.66509 0
M  V30 2344 H 227.513 1.88241 -4.4057 0
M  V30 2345 H 225.877 1.08899 -2.30246 0
M  V30 2346 H 226.66 -0.14487 -3.42994 0
M  V30 2347 N 229.106 1.52395 0.401703 0
M  V30 2348 C 230.354 1.66488 1.14569 0
M  V30 2349 C 230.675 0.400897 1.90835 0
M  V30 2350 O 229.945 -0.584415 1.8698 0
M  V30 2351 H 228.525 0.613672 0.425929 0
M  V30 2352 H 231.187 1.89464 0.457093 0
M  V30 2353 H 230.283 2.50942 1.85566 0
M  V30 2354 N 230.584 -0.659388 1.43143 0
M  V30 2355 C 231.995 -1.24041 1.39537 0
M  V30 2356 C 232.346 -1.95963 0.0963364 0
M  V30 2357 O 231.471 -2.00892 -0.804438 0
M  V30 2358 C 232.066 -2.25601 2.52764 0
M  V30 2359 C 230.625 -2.79195 2.52443 0
M  V30 2360 C 229.772 -1.53743 2.30778 0
M  V30 2361 H 232.723 -0.451792 1.52133 0
M  V30 2362 H 232.744 -3.07651 2.23899 0
M  V30 2363 H 232.256 -1.73226 3.47296 0
M  V30 2364 H 230.357 -3.35649 1.61773 0
M  V30 2365 H 230.47 -3.2716 3.50004 0
M  V30 2366 H 228.834 -1.80869 1.79328 0
M  V30 2367 H 229.617 -1.03312 3.27386 0
M  V30 2368 N 232.062 -1.29571 -0.897171 0
M  V30 2369 C 233.025 -1.14913 -1.98312 0
M  V30 2370 C 234.025 -0.0838629 -1.60581 0
M  V30 2371 O 235.215 -0.331006 -1.71026 0
M  V30 2372 C 232.347 -0.757835 -3.3237 0
M  V30 2373 H 233.54 -2.11377 -2.12743 0
M  V30 2374 H 231.093 -1.12793 -1.08201 0
M  V30 2375 H 231.828 0.206837 -3.2364 0
M  V30 2376 H 231.613 -1.52755 -3.61121 0
M  V30 2377 H 233.103 -0.678408 -4.12053 0
M  V30 2378 N 233.54 1.10788 -1.12088 0
M  V30 2379 C 234.47 2.19083 -0.807755 0
M  V30 2380 C 235.451 1.6858 0.226859 0
M  V30 2381 O 236.636 1.93997 0.0888475 0
M  V30 2382 C 233.766 3.46344 -0.257576 0
M  V30 2383 C 232.72 4.101 -1.22483 0
M  V30 2384 C 232.046 5.32016 -0.535052 0
M  V30 2385 C 233.346 4.54236 -2.57811 0
M  V30 2386 H 235.04 2.45534 -1.71328 0
M  V30 2387 H 232.586 1.1801 -0.825205 0
M  V30 2388 H 234.539 4.21392 -0.0262679 0
M  V30 2389 H 233.263 3.19373 0.683278 0
M  V30 2390 H 231.922 3.37054 -1.44189 0
M  V30 2391 H 231.57 5.01319 0.410827 0
M  V30 2392 H 231.27 5.75625 -1.18024 0
M  V30 2393 H 232.794 6.09799 -0.312695 0
M  V30 2394 H 234.208 5.20575 -2.40155 0
M  V30 2395 H 232.605 5.08682 -3.18375 0
M  V30 2396 H 233.675 3.6734 -3.16528 0
M  V30 2397 N 235.018 0.912232 1.28515 0
M  V30 2398 C 235.928 0.404506 2.31086 0
M  V30 2399 C 236.944 -0.50707 1.66448 0
M  V30 2400 O 238.12 -0.393624 1.97516 0
M  V30 2401 C 235.185 -0.348572 3.44943 0
M  V30 2402 C 234.246 0.59604 4.25142 0
M  V30 2403 C 233.479 -0.121194 5.33562 0
M  V30 2404 O 233.702 -1.34317 5.5436 0
M  V30 2405 O 232.636 0.542716 5.99448 0
M  V30 2406 H 236.462 1.25579 2.76521 0
M  V30 2407 H 234.047 0.676998 1.33181 0
M  V30 2408 H 235.929 -0.77395 4.14232 0
M  V30 2409 H 234.604 -1.17571 3.01594 0
M  V30 2410 H 233.511 1.07079 3.58448 0
M  V30 2411 H 234.844 1.38995 4.72167 0
M  V30 2412 N 236.496 -1.42363 0.676048 0
M  V30 2413 C 237.406 -2.346 -0.00153389 0
M  V30 2414 C 238.422 -1.5516 -0.787485 0
M  V30 2415 O 239.598 -1.87723 -0.729521 0
M  V30 2416 C 236.663 -3.33705 -0.940298 0
M  V30 2417 C 235.724 -4.29042 -0.148739 0
M  V30 2418 C 234.957 -5.23413 -1.04279 0
M  V30 2419 O 235.18 -5.22749 -2.28232 0
M  V30 2420 O 234.114 -5.99795 -0.502925 0
M  V30 2421 H 237.94 -2.94082 0.758268 0
M  V30 2422 H 235.525 -1.42888 0.436289 0
M  V30 2423 H 237.407 -3.94586 -1.47917 0
M  V30 2424 H 236.082 -2.76695 -1.67993 0
M  V30 2425 H 234.989 -3.71571 0.43427 0
M  V30 2426 H 236.322 -4.89097 0.551805 0
M  V30 2427 N 237.974 -0.419461 -1.51915 0
M  V30 2428 C 239.222 0.152637 -2.01523 0
M  V30 2429 C 239.543 1.44762 -1.30649 0
M  V30 2430 O 238.813 1.90997 -0.435535 0
M  V30 2431 H 237.393 0.0593966 -0.744635 0
M  V30 2432 H 240.055 -0.558073 -1.86739 0
M  V30 2433 H 239.151 0.341369 -3.10227 0
M  V30 2434 N 239.452 1.56882 -0.150215 0
M  V30 2435 C 240.384 2.14057 0.819286 0
M  V30 2436 C 241.397 1.09082 1.20851 0
M  V30 2437 O 242.586 1.36347 1.15203 0
M  V30 2438 C 239.686 2.65102 2.11127 0
M  V30 2439 C 238.859 3.94511 1.88891 0
M  V30 2440 C 237.918 4.30834 3.02107 0
M  V30 2441 O 236.944 4.99099 2.73659 0
M  V30 2442 N 238.146 3.90676 4.29363 0
M  V30 2443 H 240.911 2.97871 0.330618 0
M  V30 2444 H 238.472 1.61866 0.0332538 0
M  V30 2445 H 240.464 2.86411 2.85921 0
M  V30 2446 H 239.034 1.85994 2.51247 0
M  V30 2447 H 238.254 3.81795 0.981152 0
M  V30 2448 H 239.542 4.7907 1.71376 0
M  V30 2449 H 238.94 3.35677 4.55343 0
M  V30 2450 H 237.497 4.1703 5.00928 0
M  V30 2451 N 240.93 -0.123565 1.57115 0
M  V30 2452 C 242.178 -0.83051 1.84247 0
M  V30 2453 C 242.499 -1.80629 0.73471 0
M  V30 2454 O 241.769 -1.94403 -0.241688 0
M  V30 2455 H 240.349 -0.309694 0.679778 0
M  V30 2456 H 243.011 -0.111976 1.94578 0
M  V30 2457 H 242.107 -1.37852 2.80006 0
M  V30 2458 N 242.408 -1.52605 -0.393616 0
M  V30 2459 C 243.338 -1.80022 -1.48709 0
M  V30 2460 C 244.319 -0.651995 -1.57108 0
M  V30 2461 O 245.504 -0.89913 -1.72132 0
M  V30 2462 C 242.634 -1.96492 -2.86371 0
M  V30 2463 C 241.588 -3.12161 -2.92813 0
M  V30 2464 C 240.914 -3.13877 -4.3288 0
M  V30 2465 C 242.214 -4.51322 -2.6288 0
M  V30 2466 H 243.908 -2.71589 -1.26015 0
M  V30 2467 H 241.454 -1.30684 -0.604778 0
M  V30 2468 H 243.407 -2.14255 -3.62867 0
M  V30 2469 H 242.131 -1.01611 -3.10391 0
M  V30 2470 H 240.79 -2.94173 -2.18764 0
M  V30 2471 H 240.438 -2.16687 -4.53933 0
M  V30 2472 H 240.138 -3.91576 -4.38112 0
M  V30 2473 H 241.662 -3.33789 -5.1129 0
M  V30 2474 H 243.076 -4.69435 -3.29096 0
M  V30 2475 H 241.473 -5.31053 -2.79468 0
M  V30 2476 H 242.543 -4.58353 -1.58242 0
M  V30 2477 N 243.887 0.651787 -1.4349 0
M  V30 2478 C 245.115 1.43937 -1.48626 0
M  V30 2479 C 245.53 1.8851 -0.104587 0
M  V30 2480 O 244.887 1.5958 0.885464 0
M  V30 2481 C 244.938 2.6734 -2.43334 0
M  V30 2482 O 244.659 2.24631 -3.76128 0
M  V30 2483 C 246.16 3.60683 -2.57726 0
M  V30 2484 H 243.38 0.44213 -0.504739 0
M  V30 2485 H 245.924 0.798944 -1.88248 0
M  V30 2486 H 244.079 3.2752 -2.06904 0
M  V30 2487 H 244.493 3.04485 -4.2707 0
M  V30 2488 H 245.967 4.43933 -3.28067 0
M  V30 2489 H 246.444 4.08126 -1.62265 0
M  V30 2490 H 247.05 3.06384 -2.94973 0
M  V30 2491 N 245.365 1.30045 0.890287 0
M  V30 2492 C 246.295 1.18541 2.01172 0
M  V30 2493 C 247.276 0.0773356 1.69924 0
M  V30 2494 O 248.461 0.25845 1.92473 0
M  V30 2495 C 245.591 0.870941 3.36202 0
M  V30 2496 C 244.545 1.93637 3.81692 0
M  V30 2497 C 243.871 1.475 5.13953 0
M  V30 2498 C 245.171 3.34666 4.00994 0
M  V30 2499 H 246.865 2.12359 2.11054 0
M  V30 2500 H 244.411 1.02238 1.01407 0
M  V30 2501 H 246.364 0.777141 4.14172 0
M  V30 2502 H 245.088 -0.102926 3.26438 0
M  V30 2503 H 243.747 2.01972 3.05946 0
M  V30 2504 H 243.395 0.489551 5.00612 0
M  V30 2505 H 243.095 2.1876 5.4536 0
M  V30 2506 H 244.619 1.39489 5.94454 0
M  V30 2507 H 246.033 3.2912 4.69417 0
M  V30 2508 H 244.43 4.03966 4.43769 0
M  V30 2509 H 245.5 3.76949 3.05021 0
M  V30 2510 N 246.843 -1.10192 1.12674 0
M  V30 2511 C 247.806 -2.14786 0.799979 0
M  V30 2512 C 248.806 -1.59711 -0.18685 0
M  V30 2513 O 249.996 -1.74156 0.0392558 0
M  V30 2514 C 247.128 -3.40374 0.189228 0
M  V30 2515 H 248.321 -2.45203 1.72671 0
M  V30 2516 H 245.874 -1.25597 0.930326 0
M  V30 2517 H 246.609 -3.15577 -0.747107 0
M  V30 2518 H 246.394 -3.81637 0.899766 0
M  V30 2519 H 247.884 -4.17594 -0.0228143 0
M  V30 2520 N 248.321 -0.919034 -1.28029 0
M  V30 2521 C 249.284 -0.416182 -2.2539 0
M  V30 2522 C 250.284 0.460438 -1.54067 0
M  V30 2523 O 251.474 0.262744 -1.72207 0
M  V30 2524 C 248.606 0.402707 -3.38513 0
M  V30 2525 H 249.799 -1.27629 -2.71387 0
M  V30 2526 H 247.352 -0.698919 -1.39803 0
M  V30 2527 H 248.087 1.282 -2.97885 0
M  V30 2528 H 247.872 -0.225698 -3.9145 0
M  V30 2529 H 249.362 0.745191 -4.10897 0
M  V30 2530 N 249.799 1.42003 -0.683588 0
M  V30 2531 C 251.024 2.06265 -0.216647 0
M  V30 2532 C 251.449 1.51059 1.12083 0
M  V30 2533 O 250.807 0.632638 1.69904 0
M  V30 2534 C 250.855 3.60191 -0.171759 0
M  V30 2535 O 249.959 4.03396 0.857069 0
M  V30 2536 H 249.3 0.65502 -0.108834 0
M  V30 2537 H 251.83 1.81982 -0.935077 0
M  V30 2538 H 251.84 4.08 0.0014303 0
M  V30 2539 H 250.515 3.99743 -1.14796 0
M  V30 2540 H 249.092 3.67117 0.654208 0
M  V30 2541 N 251.277 0.427512 1.51691 0
M  V30 2542 C 252.517 -0.141524 2.03909 0
M  V30 2543 C 252.881 -1.40811 1.30523 0
M  V30 2544 O 254.082 -2.05676 1.73063 0
M  V30 2545 C 252.353 -0.364962 3.55532 0
M  V30 2546 S 253.912 -0.898812 4.29496 0
M  V30 2547 H 250.73 -0.0364542 0.710065 0
M  V30 2548 H 253.332 0.584659 1.86553 0
M  V30 2549 H 252.036 0.56336 4.06515 0
M  V30 2550 H 251.567 -1.1185 3.77164 0
M  V30 2551 H 253.582 -2.17747 4.45871 0
M  V30 2552 N 252.755 -1.56801 0.158532 0
M  V30 2553 C 253.983 -2.00859 -0.496303 0
M  V30 2554 C 254.398 -1.03871 -1.57659 0
M  V30 2555 O 253.755 -0.0375165 -1.82461 0
M  V30 2556 C 253.806 -3.4479 -1.08638 0
M  V30 2557 O 253.527 -4.38072 -0.0492322 0
M  V30 2558 C 255.028 -4.04185 -1.8207 0
M  V30 2559 H 252.248 -0.65864 -0.128199 0
M  V30 2560 H 254.792 -2.02885 0.256506 0
M  V30 2561 H 252.947 -3.43579 -1.78975 0
M  V30 2562 H 253.361 -5.2227 -0.483102 0
M  V30 2563 H 254.835 -5.06857 -2.18633 0
M  V30 2564 H 255.312 -3.45549 -2.71095 0
M  V30 2565 H 255.918 -4.0906 -1.16405 0
M  V30 2566 N 254.233 0.115231 -1.57178 0
M  V30 2567 C 255.196 1.12526 -1.99676 0
M  V30 2568 C 256.196 1.34095 -0.88742 0
M  V30 2569 O 257.386 1.30548 -1.15337 0
M  V30 2570 C 254.518 2.4789 -2.34015 0
M  V30 2571 H 255.711 0.759912 -2.90113 0
M  V30 2572 H 253.264 0.359648 -1.52106 0
M  V30 2573 H 253.999 2.89339 -1.4647 0
M  V30 2574 H 253.784 2.33588 -3.14927 0
M  V30 2575 H 255.274 3.20575 -2.67622 0
M  V30 2576 N 255.711 1.52812 0.385517 0
M  V30 2577 C 256.621 1.80766 1.49535 0
M  V30 2578 C 257.637 0.694651 1.59532 0
M  V30 2579 O 258.813 0.982611 1.75803 0
M  V30 2580 C 255.878 1.97381 2.85029 0
M  V30 2581 C 254.939 3.21295 2.84724 0
M  V30 2582 C 254.172 3.37108 4.13756 0
M  V30 2583 O 254.395 2.5765 5.08893 0
M  V30 2584 O 253.329 4.30378 4.20783 0
M  V30 2585 H 257.155 2.75015 1.28842 0
M  V30 2586 H 254.74 1.37946 0.573697 0
M  V30 2587 H 256.622 2.09996 3.65349 0
M  V30 2588 H 255.297 1.06322 3.05741 0
M  V30 2589 H 254.204 3.1412 2.03174 0
M  V30 2590 H 255.537 4.12212 2.68965 0
M  V30 2591 N 257.189 -0.644168 1.43834 0
M  V30 2592 C 258.437 -1.40117 1.45642 0
M  V30 2593 C 258.758 -1.94814 0.0852413 0
M  V30 2594 O 258.028 -1.74988 -0.880688 0
M  V30 2595 H 256.608 -0.52005 0.536243 0
M  V30 2596 H 259.27 -0.7591 1.7951 0
M  V30 2597 H 258.366 -2.23902 2.17427 0
M  V30 2598 N 258.668 -1.30515 -0.883378 0
M  V30 2599 C 259.893 -1.22487 -1.67367 0
M  V30 2600 C 260.318 0.208767 -1.86938 0
M  V30 2601 O 259.676 1.15015 -1.40148 0
M  V30 2602 C 259.724 -1.96041 -3.02655 0
M  V30 2603 O 258.828 -1.28859 -3.91751 0
M  V30 2604 H 258.169 -0.423573 -0.511353 0
M  V30 2605 H 260.699 -1.72362 -1.10239 0
M  V30 2606 H 260.709 -2.05124 -3.52687 0
M  V30 2607 H 259.384 -3.00307 -2.8773 0
M  V30 2608 H 257.961 -1.28141 -3.50192 0
M  V30 2609 N 260.146 1.09593 -1.13257 0
M  V30 2610 C 261.557 1.63229 -0.906274 0
M  V30 2611 C 261.908 1.8811 0.557578 0
M  V30 2612 O 261.033 1.62953 1.42391 0
M  V30 2613 C 261.628 2.96535 -1.63867 0
M  V30 2614 C 260.187 3.47003 -1.45828 0
M  V30 2615 C 259.334 2.2145 -1.66898 0
M  V30 2616 H 262.285 0.92978 -1.28611 0
M  V30 2617 H 262.306 3.64411 -1.09476 0
M  V30 2618 H 261.818 2.78394 -2.70404 0
M  V30 2619 H 259.919 3.70272 -0.415848 0
M  V30 2620 H 260.032 4.24551 -2.2202 0
M  V30 2621 H 258.396 2.30022 -1.09371 0
M  V30 2622 H 259.179 2.0583 -2.74752 0
M  V30 2623 N 261.624 0.925811 1.2754 0
M  V30 2624 C 262.587 0.428129 2.25166 0
M  V30 2625 C 263.587 -0.452261 1.54309 0
M  V30 2626 O 264.777 -0.253608 1.72344 0
M  V30 2627 C 261.909 -0.384749 3.38722 0
M  V30 2628 H 263.102 1.29066 2.70706 0
M  V30 2629 H 260.655 0.706323 1.3943 0
M  V30 2630 H 261.39 -1.26618 2.98561 0
M  V30 2631 H 261.175 0.246454 3.91325 0
M  V30 2632 H 262.665 -0.723389 4.11287 0
M  V30 2633 N 263.102 -1.41638 0.69111 0
M  V30 2634 C 264.513 -1.84346 0.295517 0
M  V30 2635 C 264.864 -1.57833 -1.16547 0
M  V30 2636 O 263.989 -1.04648 -1.89414 0
M  V30 2637 C 264.584 -3.34636 0.529575 0
M  V30 2638 C 263.143 -3.7593 0.187944 0
M  V30 2639 C 262.29 -2.65082 0.814052 0
M  V30 2640 H 265.241 -1.31253 0.892092 0
M  V30 2641 H 265.262 -3.79903 -0.213148 0
M  V30 2642 H 264.774 -3.53901 1.59297 0
M  V30 2643 H 262.875 -3.62268 -0.871367 0
M  V30 2644 H 262.988 -4.74808 0.63985 0
M  V30 2645 H 261.352 -2.53528 0.244017 0
M  V30 2646 H 262.135 -2.87167 1.88123 0
M  V30 2647 N 264.58 -0.43555 -1.51462 0
M  V30 2648 C 265.805 0.132627 -2.06976 0
M  V30 2649 C 266.23 1.35848 -1.30104 0
M  V30 2650 O 265.588 1.78112 -0.338493 0
M  V30 2651 C 265.636 0.43523 -3.57964 0
M  V30 2652 O 264.74 1.52198 -3.83288 0
M  V30 2653 H 264.081 0.00265 -0.663995 0
M  V30 2654 H 266.611 -0.616369 -1.95095 0
M  V30 2655 H 266.621 0.686206 -4.02188 0
M  V30 2656 H 265.296 -0.460739 -4.1334 0
M  V30 2657 H 263.873 1.2611 -3.50928 0
M  V30 2658 N 266.058 1.56714 -0.166846 0
M  V30 2659 C 267.304 1.97039 0.479962 0
M  V30 2660 C 267.637 1.05264 1.63197 0
M  V30 2661 O 266.912 0.0988833 1.94248 0
M  V30 2662 C 267.195 3.46867 0.967212 0
M  V30 2663 C 267.048 4.49421 -0.18466 0
M  V30 2664 C 268.367 3.9968 1.84238 0
M  V30 2665 H 265.486 0.71641 0.172992 0
M  V30 2666 H 268.128 1.8832 -0.252079 0
M  V30 2667 H 266.278 3.54428 1.59101 0
M  V30 2668 H 267.95 4.53924 -0.821621 0
M  V30 2669 H 266.193 4.25573 -0.840837 0
M  V30 2670 H 266.864 5.51644 0.198317 0
M  V30 2671 H 269.34 3.94723 1.31655 0
M  V30 2672 H 268.216 5.04941 2.15234 0
M  V30 2673 H 268.477 3.43226 2.78654 0
M  V30 2674 N 267.536 -0.106894 1.57237 0
M  V30 2675 C 268.764 -0.826389 1.8968 0
M  V30 2676 C 269.179 -1.72856 0.759353 0
M  V30 2677 O 268.536 -1.80503 -0.269263 0
M  V30 2678 C 268.587 -1.64967 3.21665 0
M  V30 2679 O 268.308 -0.783804 4.31031 0
M  V30 2680 C 269.809 -2.47326 3.67892 0
M  V30 2681 H 267.029 -0.236927 0.627779 0
M  V30 2682 H 269.573 -0.0876593 2.04312 0
M  V30 2683 H 267.728 -2.34103 3.08666 0
M  V30 2684 H 268.142 -1.35284 5.06753 0
M  V30 2685 H 269.616 -3.00604 4.6297 0
M  V30 2686 H 270.093 -3.25247 2.95146 0
M  V30 2687 H 270.699 -1.83411 3.83719 0
M  V30 2688 N 269.014 -1.53014 -0.377408 0
M  V30 2689 C 270.26 -1.69821 -1.11948 0
M  V30 2690 C 270.615 -0.438581 -1.87335 0
M  V30 2691 O 269.908 0.568094 -1.82984 0
M  V30 2692 C 270.102 -2.87982 -2.11663 0
M  V30 2693 C 269.931 -4.25315 -1.46072 0
M  V30 2694 C 268.701 -4.90354 -1.21986 0
M  V30 2695 C 270.899 -5.06281 -0.904664 0
M  V30 2696 N 268.881 -6.11641 -0.526215 0
M  V30 2697 C 270.252 -6.19069 -0.339726 0
M  V30 2698 C 272.307 -4.91395 -0.8022 0
M  V30 2699 C 271.01 -7.18598 0.317669 0
M  V30 2700 C 273.036 -5.91187 -0.158606 0
M  V30 2701 C 272.398 -7.03289 0.39551 0
M  V30 2702 H 268.497 -0.674785 -0.395207 0
M  V30 2703 H 271.081 -1.90389 -0.407437 0
M  V30 2704 H 269.252 -2.68974 -2.80192 0
M  V30 2705 H 270.984 -2.93669 -2.78461 0
M  V30 2706 H 267.739 -4.49286 -1.49798 0
M  V30 2707 H 268.163 -6.76719 -0.195098 0
M  V30 2708 H 272.805 -4.04925 -1.21639 0
M  V30 2709 H 270.523 -8.04669 0.743836 0
M  V30 2710 H 274.109 -5.81744 -0.0804138 0
M  V30 2711 H 272.989 -7.79183 0.885648 0
M  V30 2712 N 270.492 0.636531 -1.44174 0
M  V30 2713 C 271.769 1.39463 -1.37148 0
M  V30 2714 C 272.149 2.11082 -0.027507 0
M  V30 2715 O 271.497 2.05954 0.989716 0
M  V30 2716 C 271.707 2.36552 -2.56601 0
M  V30 2717 C 273.055 3.00048 -3.00427 0
M  V30 2718 O 274.079 2.46878 -2.56767 0
M  V30 2719 O 272.938 3.96488 -3.76111 0
M  V30 2720 H 270.032 0.623903 -0.542839 0
M  V30 2721 H 272.578 0.662039 -1.56253 0
M  V30 2722 H 271.35 1.82692 -3.46034 0
M  V30 2723 H 270.973 3.17236 -2.39681 0
M  V30 2724 N 271.97 1.30982 0.876444 0
M  V30 2725 C 273.198 1.23242 1.6619 0
M  V30 2726 C 273.613 -0.203345 1.87702 0
M  V30 2727 O 272.97 -1.13317 1.43057 0
M  V30 2728 C 273.021 1.96623 3.03351 0
M  V30 2729 O 272.742 3.34594 2.82804 0
M  V30 2730 C 274.243 1.95644 3.97792 0
M  V30 2731 H 271.463 0.426126 0.518322 0
M  V30 2732 H 274.007 1.7275 1.09442 0
M  V30 2733 H 272.162 1.50892 3.56806 0
M  V30 2734 H 272.576 3.71873 3.69879 0
M  V30 2735 H 274.05 2.51511 4.91372 0
M  V30 2736 H 274.527 0.937395 4.2908 0
M  V30 2737 H 275.133 2.41225 3.50272 0
M  V30 2738 N 273.449 -1.08991 1.13837 0
M  V30 2739 C 274.359 -2.19301 0.833333 0
M  V30 2740 C 275.375 -1.73026 -0.183847 0
M  V30 2741 O 276.551 -2.01395 -0.0138092 0
M  V30 2742 C 273.616 -3.45323 0.308651 0
M  V30 2743 C 272.677 -4.06255 1.38764 0
M  V30 2744 C 271.91 -5.26262 0.887896 0
M  V30 2745 O 272.133 -5.69747 -0.27287 0
M  V30 2746 O 271.067 -5.78435 1.66421 0
M  V30 2747 H 274.893 -2.47854 1.75506 0
M  V30 2748 H 272.478 -1.18012 0.916166 0
M  V30 2749 H 274.36 -4.21394 0.0216739 0
M  V30 2750 H 273.035 -3.18362 -0.585431 0
M  V30 2751 H 271.942 -3.318 1.72799 0
M  V30 2752 H 273.275 -4.37452 2.25602 0
M  V30 2753 N 274.927 -0.932562 -1.27047 0
M  V30 2754 C 276.173 -0.576412 -1.94436 0
M  V30 2755 C 276.506 0.880891 -1.73072 0
M  V30 2756 O 275.781 1.62905 -1.06264 0
M  V30 2757 C 276.064 -0.909031 -3.48437 0
M  V30 2758 C 275.917 -2.42044 -3.79123 0
M  V30 2759 C 277.236 -0.418341 -4.38107 0
M  V30 2760 H 274.355 -0.210888 -0.706184 0
M  V30 2761 H 276.997 -1.16522 -1.50075 0
M  V30 2762 H 275.147 -0.407947 -3.86352 0
M  V30 2763 H 276.819 -2.99359 -3.50973 0
M  V30 2764 H 275.062 -2.86758 -3.25503 0
M  V30 2765 H 275.733 -2.6037 -4.86736 0
M  V30 2766 H 278.209 -0.847856 -4.0737 0
M  V30 2767 H 277.085 -0.679981 -5.44672 0
M  V30 2768 H 277.346 0.681642 -4.36814 0
M  V30 2769 N 276.405 1.4127 -0.698611 0
M  V30 2770 C 277.352 2.30773 -0.0352094 0
M  V30 2771 C 278.322 1.47273 0.768111 0
M  V30 2772 O 279.507 1.76053 0.735524 0
M  V30 2773 C 276.647 3.33346 0.893 0
M  V30 2774 C 275.76 4.31924 0.0809695 0
M  V30 2775 C 274.895 5.21566 1.0071 0
M  V30 2776 C 273.934 6.11811 0.188155 0
M  V30 2777 N 273.071 6.93926 1.06825 0
M  V30 2778 H 277.911 2.86943 -0.804207 0
M  V30 2779 H 275.448 1.4132 -0.408294 0
M  V30 2780 H 277.406 3.91368 1.44523 0
M  V30 2781 H 276.036 2.78719 1.62836 0
M  V30 2782 H 275.088 3.75825 -0.588224 0
M  V30 2783 H 276.4 4.95716 -0.553801 0
M  V30 2784 H 275.554 5.84437 1.62845 0
M  V30 2785 H 274.293 4.58008 1.67572 0
M  V30 2786 H 273.298 5.47986 -0.446254 0
M  V30 2787 H 274.523 6.77425 -0.476716 0
M  V30 2788 H 272.469 6.32973 1.72283 0
M  V30 2789 H 272.386 7.54416 0.489123 0
M  V30 2790 H 273.654 7.61262 1.67632 0
M  V30 2791 N 277.883 0.443576 1.51229 0
M  V30 2792 C 279.131 -0.120557 2.0174 0
M  V30 2793 C 279.452 -1.42665 1.32935 0
M  V30 2794 O 278.722 -1.9028 0.465866 0
M  V30 2795 H 277.302 -0.0475426 0.745486 0
M  V30 2796 H 279.964 0.587711 1.85828 0
M  V30 2797 H 279.06 -0.291972 3.10731 0
M  V30 2798 N 279.361 -1.56624 0.175154 0
M  V30 2799 C 280.589 -2.01374 -0.474971 0
M  V30 2800 C 281.004 -1.05537 -1.56548 0
M  V30 2801 O 280.361 -0.0568668 -1.82411 0
M  V30 2802 C 280.412 -3.45923 -1.04975 0
M  V30 2803 O 280.133 -4.381 -0.00276605 0
M  V30 2804 C 281.634 -4.06093 -1.77773 0
M  V30 2805 H 278.854 -0.659962 -0.121206 0
M  V30 2806 H 281.398 -2.02601 0.27801 0
M  V30 2807 H 279.553 -3.45458 -1.75321 0
M  V30 2808 H 279.967 -5.22753 -0.427681 0
M  V30 2809 H 281.441 -5.09147 -2.13245 0
M  V30 2810 H 281.918 -3.48405 -2.67414 0
M  V30 2811 H 282.524 -4.10272 -1.12059 0
M  V30 2812 N 280.839 0.0985539 -1.57292 0
M  V30 2813 C 282.067 0.816318 -1.90115 0
M  V30 2814 C 282.482 1.72451 -0.768509 0
M  V30 2815 O 281.839 1.80643 0.259687 0
M  V30 2816 C 281.89 1.63259 -3.22535 0
M  V30 2817 O 281.611 0.760934 -4.31441 0
M  V30 2818 C 283.112 2.45372 -3.69199 0
M  V30 2819 H 280.332 0.233595 -0.629027 0
M  V30 2820 H 282.876 0.0768229 -2.04356 0
M  V30 2821 H 281.031 2.32463 -3.09903 0
M  V30 2822 H 281.445 1.32595 -5.07463 0
M  V30 2823 H 282.919 2.98144 -4.64558 0
M  V30 2824 H 283.396 3.23677 -2.96867 0
M  V30 2825 H 284.002 1.81373 -3.84687 0
M  V30 2826 N 282.317 1.53212 0.369288 0
M  V30 2827 C 283.542 1.73423 1.1375 0
M  V30 2828 C 283.967 0.460404 1.82378 0
M  V30 2829 O 283.325 -0.585298 1.71592 0
M  V30 2830 C 283.373 2.89769 2.1463 0
M  V30 2831 O 282.477 2.58119 3.21634 0
M  V30 2832 H 281.818 0.576061 0.330227 0
M  V30 2833 H 284.348 2.00083 0.427547 0
M  V30 2834 H 284.358 3.15829 2.58294 0
M  V30 2835 H 283.033 3.8217 1.64071 0
M  V30 2836 H 281.61 2.42864 2.82969 0
M  V30 2837 N 283.795 -0.628877 1.44509 0
M  V30 2838 C 285.02 -1.42048 1.5112 0
M  V30 2839 C 285.445 -1.87594 0.137818 0
M  V30 2840 O 284.803 -1.58873 -0.873437 0
M  V30 2841 C 284.851 -2.61541 2.48251 0
M  V30 2842 O 283.955 -3.61453 1.98559 0
M  V30 2843 H 283.296 -0.424942 0.510216 0
M  V30 2844 H 285.826 -0.767374 1.89664 0
M  V30 2845 H 285.836 -3.09057 2.66361 0
M  V30 2846 H 284.511 -2.27736 3.48007 0
M  V30 2847 H 283.088 -3.20731 1.90227 0
M  V30 2848 N 285.273 -1.31445 -0.869486 0
M  V30 2849 C 286.689 -1.10113 -1.15531 0
M  V30 2850 C 286.889 0.128087 -2.01092 0
M  V30 2851 O 285.945 0.817276 -2.38908 0
M  V30 2852 C 287.258 -2.37291 -1.84698 0
M  V30 2853 C 288.806 -2.42906 -1.97397 0
M  V30 2854 C 289.281 -3.69967 -2.69979 0
M  V30 2855 N 290.772 -3.70864 -2.77514 0
M  V30 2856 C 291.507 -4.65875 -3.34287 0
M  V30 2857 N 291.003 -5.71242 -3.91988 0
M  V30 2858 N 292.796 -4.53394 -3.3225 0
M  V30 2859 H 284.947 -2.1028 -0.299347 0
M  V30 2860 H 287.21 -0.927683 -0.195214 0
M  V30 2861 H 286.916 -3.27078 -1.29278 0
M  V30 2862 H 286.79 -2.47125 -2.84972 0
M  V30 2863 H 289.177 -1.53588 -2.51982 0
M  V30 2864 H 289.258 -2.37036 -0.961643 0
M  V30 2865 H 288.902 -4.59652 -2.16062 0
M  V30 2866 H 288.832 -3.73103 -3.7162 0
M  V30 2867 H 291.323 -2.94697 -2.36563 0
M  V30 2868 H 291.636 -6.39817 -4.33421 0
M  V30 2869 H 289.981 -5.75015 -3.90362 0
M  V30 2870 H 293.172 -3.70252 -2.8641 0
M  V30 2871 H 293.345 -5.27617 -3.76197 0
M  V30 2872 N 286.751 1.08385 -1.14413 0
M  V30 2873 C 287.976 1.85057 -0.936413 0
M  V30 2874 C 288.401 1.81055 0.509971 0
M  V30 2875 O 287.759 1.1958 1.36273 0
M  V30 2876 C 287.807 3.30505 -1.44217 0
M  V30 2877 O 286.911 4.07491 -0.634409 0
M  V30 2878 H 286.252 0.573425 -0.334784 0
M  V30 2879 H 288.782 1.36799 -1.52142 0
M  V30 2880 H 288.792 3.81348 -1.45043 0
M  V30 2881 H 287.467 3.32734 -2.49522 0
M  V30 2882 H 286.044 3.66368 -0.694902 0
M  V30 2883 N 288.23 0.939286 1.26551 0
M  V30 2884 C 289.477 0.585847 1.9384 0
M  V30 2885 C 289.805 -0.874784 1.73718 0
M  V30 2886 O 289.06 -1.64092 1.06642 0
M  V30 2887 C 289.359 0.872106 3.46596 0
M  V30 2888 C 289.025 2.31632 3.86856 0
M  V30 2889 C 287.687 2.71111 3.97558 0
M  V30 2890 C 290.039 3.25494 4.07066 0
M  V30 2891 C 287.367 4.03553 4.25866 0
M  V30 2892 C 289.719 4.57531 4.36862 0
M  V30 2893 C 288.383 4.96828 4.45778 0
M  V30 2894 H 287.653 0.214377 0.709312 0
M  V30 2895 H 290.3 1.18544 1.50398 0
M  V30 2896 H 288.605 0.18996 3.91339 0
M  V30 2897 H 290.302 0.577442 3.96821 0
M  V30 2898 H 286.892 2.00008 3.79071 0
M  V30 2899 H 291.076 2.9619 3.98227 0
M  V30 2900 H 286.332 4.33665 4.30981 0
M  V30 2901 H 290.506 5.30254 4.51446 0
M  V30 2902 H 288.133 5.99482 4.67468 0
M  V30 2903 N 289.708 -1.40897 0.706093 0
M  V30 2904 C 290.655 -2.30751 0.0474474 0
M  V30 2905 C 291.625 -1.47678 -0.76029 0
M  V30 2906 O 292.81 -1.76441 -0.726177 0
M  V30 2907 C 289.95 -3.33815 -0.875309 0
M  V30 2908 C 289.063 -4.31961 -0.0580623 0
M  V30 2909 C 288.198 -5.22093 -0.979425 0
M  V30 2910 C 287.237 -6.11902 -0.155706 0
M  V30 2911 N 286.374 -6.94482 -1.03144 0
M  V30 2912 H 291.214 -2.86513 0.819413 0
M  V30 2913 H 288.751 -1.41102 0.415783 0
M  V30 2914 H 290.709 -3.92129 -1.42446 0
M  V30 2915 H 289.339 -2.79579 -1.61356 0
M  V30 2916 H 288.391 -3.75507 0.608147 0
M  V30 2917 H 289.703 -4.95415 0.580082 0
M  V30 2918 H 288.857 -5.85292 -1.59744 0
M  V30 2919 H 287.596 -4.5889 -1.65141 0
M  V30 2920 H 286.601 -5.47742 0.475309 0
M  V30 2921 H 287.826 -6.77162 0.512635 0
M  V30 2922 H 285.772 -6.33877 -1.68924 0
M  V30 2923 H 285.689 -7.54665 -0.449108 0
M  V30 2924 H 286.957 -7.6214 -1.63593 0
M  V30 2925 N 291.186 -0.45159 -1.50991 0
M  V30 2926 C 292.136 0.370861 -2.24964 0
M  V30 2927 C 293.12 0.978074 -1.2776 0
M  V30 2928 O 294.312 0.893854 -1.52772 0
M  V30 2929 C 291.441 1.46344 -3.10545 0
M  V30 2930 C 290.527 0.864924 -4.15187 0
M  V30 2931 N 290.918 -0.00311354 -5.058 0
M  V30 2932 C 289.216 1.13099 -4.31422 0
M  V30 2933 C 289.917 -0.340772 -5.80701 0
M  V30 2934 N 288.893 0.279203 -5.42883 0
M  V30 2935 H 292.695 -0.298134 -2.92384 0
M  V30 2936 H 290.209 -0.264528 -1.60231 0
M  V30 2937 H 292.206 2.06565 -3.62128 0
M  V30 2938 H 290.866 2.13463 -2.4467 0
M  V30 2939 H 291.877 -0.37058 -5.16572 0
M  V30 2940 H 288.554 1.79861 -3.76771 0
M  V30 2941 H 289.944 -1.048 -6.63677 0
M  V30 2942 N 292.664 1.56529 -0.183458 0
M  V30 2943 C 293.889 2.02064 0.467428 0
M  V30 2944 C 294.314 1.06282 1.55196 0
M  V30 2945 O 293.672 0.0443565 1.81246 0
M  V30 2946 C 293.72 3.46122 1.01153 0
M  V30 2947 O 292.824 3.53437 2.12499 0
M  V30 2948 H 292.165 0.654726 0.110588 0
M  V30 2949 H 294.695 2.02521 -0.290917 0
M  V30 2950 H 294.705 3.85676 1.33108 0
M  V30 2951 H 293.38 4.15331 0.217533 0
M  V30 2952 H 291.957 3.2575 1.81497 0
M  V30 2953 N 294.142 -0.090211 1.57342 0
M  V30 2954 C 295.558 -0.444547 1.53284 0
M  V30 2955 C 295.758 -1.80238 0.900914 0
M  V30 2956 O 294.814 -2.4759 0.495513 0
M  V30 2957 C 296.127 -0.402543 2.97993 0
M  V30 2958 C 297.675 -0.48405 3.09234 0
M  V30 2959 C 298.15 -0.472144 4.5556 0
M  V30 2960 N 299.641 -0.532757 4.60126 0
M  V30 2961 C 300.376 -0.545462 5.708 0
M  V30 2962 N 299.872 -0.514082 6.9089 0
M  V30 2963 N 301.665 -0.59064 5.58988 0
M  V30 2964 H 293.816 0.799121 1.96794 0
M  V30 2965 H 296.079 0.297965 0.899956 0
M  V30 2966 H 295.785 0.528106 3.47712 0
M  V30 2967 H 295.659 -1.21969 3.56936 0
M  V30 2968 H 298.046 -1.40512 2.595 0
M  V30 2969 H 298.127 0.361328 2.53235 0
M  V30 2970 H 297.771 0.445 5.05947 0
M  V30 2971 H 297.701 -1.3348 5.09402 0
M  V30 2972 H 300.192 -0.562006 3.73698 0
M  V30 2973 H 300.505 -0.527195 7.71 0
M  V30 2974 H 298.85 -0.481054 6.93333 0
M  V30 2975 H 302.041 -0.61272 4.64073 0
M  V30 2976 H 302.214 -0.597073 6.45243 0
M  V30 2977 N 295.62 -1.53406 -0.361157 0
M  V30 2978 C 296.845 -1.74024 -1.12829 0
M  V30 2979 C 297.27 -0.470069 -1.82132 0
M  V30 2980 O 296.628 0.57619 -1.719 0
M  V30 2981 C 296.676 -2.90903 -2.13091 0
M  V30 2982 O 295.78 -2.59821 -3.20261 0
M  V30 2983 H 295.121 -0.577804 -0.327168 0
M  V30 2984 H 297.651 -2.00307 -0.41693 0
M  V30 2985 H 297.661 -3.17194 -2.56616 0
M  V30 2986 H 296.336 -3.83034 -1.62042 0
M  V30 2987 H 294.913 -2.44362 -2.81677 0
M  V30 2988 N 297.098 0.621204 -1.44841 0
M  V30 2989 C 298.061 1.71459 -1.521 0
M  V30 2990 C 299.061 1.55696 -0.401933 0
M  V30 2991 O 300.251 1.61011 -0.664925 0
M  V30 2992 C 297.383 3.10624 -1.40447 0
M  V30 2993 H 298.576 1.66394 -2.49506 0
M  V30 2994 H 296.129 0.835745 -1.3208 0
M  V30 2995 H 296.864 3.21277 -0.441737 0
M  V30 2996 H 296.649 3.23473 -2.21602 0
M  V30 2997 H 298.139 3.90293 -1.4853 0
M  V30 2998 N 298.576 1.31904 0.862503 0
M  V30 2999 C 299.539 1.20131 1.95195 0
M  V30 3000 C 300.539 0.126409 1.60302 0
M  V30 3001 O 301.729 0.376234 1.70089 0
M  V30 3002 C 298.861 0.845691 3.30244 0
M  V30 3003 H 300.054 2.16943 2.07064 0
M  V30 3004 H 297.607 1.15622 1.05172 0
M  V30 3005 H 298.342 -0.120957 3.24074 0
M  V30 3006 H 298.127 1.62276 3.56944 0
M  V30 3007 H 299.617 0.787418 4.10109 0
M  V30 3008 N 300.054 -1.07777 1.14986 0
M  V30 3009 C 301.3 -1.80557 0.923422 0
M  V30 3010 C 301.633 -1.86298 -0.548337 0
M  V30 3011 O 300.908 -1.34354 -1.40639 0
M  V30 3012 C 301.191 -3.25839 1.53299 0
M  V30 3013 C 301.044 -3.28269 3.07505 0
M  V30 3014 C 302.363 -4.22991 1.21518 0
M  V30 3015 H 299.482 -0.655493 0.336894 0
M  V30 3016 H 302.124 -1.26144 1.42083 0
M  V30 3017 H 300.274 -3.72306 1.10999 0
M  V30 3018 H 301.946 -2.90079 3.58681 0
M  V30 3019 H 300.189 -2.67355 3.4162 0
M  V30 3020 H 300.86 -4.30691 3.45266 0
M  V30 3021 H 303.336 -3.84894 1.581 0
M  V30 3022 H 302.212 -5.22945 1.66793 0
M  V30 3023 H 302.473 -4.41904 0.131505 0
M  V30 3024 N 301.532 -0.945985 -1.26051 0
M  V30 3025 C 302.76 -0.613025 -1.9761 0
M  V30 3026 C 303.175 0.813035 -1.70397 0
M  V30 3027 O 302.532 1.54274 -0.974979 0
M  V30 3028 C 302.583 -0.85159 -3.51326 0
M  V30 3029 O 302.304 -2.22157 -3.77595 0
M  V30 3030 C 303.805 -0.529831 -4.40122 0
M  V30 3031 H 301.025 -0.230593 -0.630133 0
M  V30 3032 H 303.569 -1.268 -1.60443 0
M  V30 3033 H 301.724 -0.243151 -3.86636 0
M  V30 3034 H 302.138 -2.2852 -4.721 0
M  V30 3035 H 303.612 -0.747348 -5.46917 0
M  V30 3036 H 304.089 0.535341 -4.35925 0
M  V30 3037 H 304.695 -1.11721 -4.10364 0
M  V30 3038 N 303.011 1.40521 -0.713556 0
M  V30 3039 C 304.236 2.05759 -0.26035 0
M  V30 3040 C 304.661 1.53403 1.08854 0
M  V30 3041 O 304.019 0.668535 1.68524 0
M  V30 3042 C 304.067 3.59745 -0.248122 0
M  V30 3043 O 303.171 4.05123 0.77131 0
M  V30 3044 H 302.512 0.652564 -0.122703 0
M  V30 3045 H 305.042 1.79958 -0.973467 0
M  V30 3046 H 305.052 4.07911 -0.0851129 0
M  V30 3047 H 303.727 3.97218 -1.2325 0
M  V30 3048 H 302.304 3.68422 0.57619 0
M  V30 3049 N 304.489 0.459591 1.5075 0
M  V30 3050 C 305.399 -0.34613 2.32033 0
M  V30 3051 C 306.415 -1.00686 1.41909 0
M  V30 3052 O 307.591 -0.997361 1.7497 0
M  V30 3053 C 304.656 -1.42029 3.16273 0
M  V30 3054 C 303.717 -0.777362 4.22203 0
M  V30 3055 C 302.95 -1.80034 5.02418 0
M  V30 3056 O 303.173 -3.02544 4.83553 0
M  V30 3057 O 302.107 -1.37853 5.85901 0
M  V30 3058 H 305.933 0.318054 3.0203 0
M  V30 3059 H 303.518 0.221663 1.47746 0
M  V30 3060 H 305.4 -2.04275 3.68578 0
M  V30 3061 H 304.075 -2.06815 2.49016 0
M  V30 3062 H 302.982 -0.116256 3.73919 0
M  V30 3063 H 304.315 -0.172634 4.91897 0
M  V30 3064 N 305.967 -1.56429 0.191757 0
M  V30 3065 C 307.214 -1.97485 -0.447891 0
M  V30 3066 C 307.542 -1.07852 -1.61859 0
M  V30 3067 O 306.797 -0.116903 -1.95351 0
M  V30 3068 C 307.096 -3.44449 -0.953384 0
M  V30 3069 C 306.762 -4.50781 0.103586 0
M  V30 3070 C 305.424 -4.79584 0.394023 0
M  V30 3071 C 307.776 -5.1471 0.819946 0
M  V30 3072 C 305.104 -5.69607 1.40585 0
M  V30 3073 C 307.456 -6.05827 1.8209 0
M  V30 3074 C 306.12 -6.32987 2.11857 0
M  V30 3075 H 305.39 -0.722648 -0.163895 0
M  V30 3076 H 308.037 -1.89322 0.28802 0
M  V30 3077 H 306.342 -3.49666 -1.76751 0
M  V30 3078 H 308.039 -3.73569 -1.45765 0
M  V30 3079 H 304.629 -4.28394 -0.132951 0
M  V30 3080 H 308.813 -4.92552 0.608789 0
M  V30 3081 H 304.069 -5.88926 1.64243 0
M  V30 3082 H 308.243 -6.54424 2.38123 0
M  V30 3083 H 305.87 -7.02544 2.90407 0
M  V30 3084 N 307.445 0.0818655 -1.57387 0
M  V30 3085 C 308.395 1.10501 -1.99433 0
M  V30 3086 C 309.379 1.35041 -0.874798 0
M  V30 3087 O 310.571 1.35511 -1.13868 0
M  V30 3088 C 307.7 2.42159 -2.43339 0
M  V30 3089 C 306.786 2.20937 -3.62005 0
M  V30 3090 N 307.177 1.69616 -4.76512 0
M  V30 3091 C 305.475 2.51451 -3.68359 0
M  V30 3092 C 306.176 1.62973 -5.58404 0
M  V30 3093 N 305.152 2.08664 -5.01956 0
M  V30 3094 H 308.954 0.701373 -2.85408 0
M  V30 3095 H 306.468 0.289096 -1.59806 0
M  V30 3096 H 308.465 3.16208 -2.71695 0
M  V30 3097 H 307.125 2.83249 -1.58746 0
M  V30 3098 H 308.136 1.38624 -4.99003 0
M  V30 3099 H 304.813 2.95975 -2.94457 0
M  V30 3100 H 306.203 1.24233 -6.60315 0
M  V30 3101 N 308.923 1.53595 0.353017 0
M  V30 3102 C 309.853 1.83902 1.43883 0
M  V30 3103 C 310.834 0.693421 1.55324 0
M  V30 3104 O 312.019 0.944452 1.69687 0
M  V30 3105 C 309.149 2.04016 2.8106 0
M  V30 3106 C 308.103 3.19814 2.84434 0
M  V30 3107 C 307.429 3.25244 4.24406 0
M  V30 3108 C 308.729 4.58133 2.50822 0
M  V30 3109 H 310.423 2.74835 1.1877 0
M  V30 3110 H 307.969 1.32242 0.569917 0
M  V30 3111 H 309.922 2.238 3.57059 0
M  V30 3112 H 308.646 1.09804 3.07588 0
M  V30 3113 H 307.305 2.9987 2.10887 0
M  V30 3114 H 306.953 2.28646 4.48029 0
M  V30 3115 H 306.653 4.03054 4.27576 0
M  V30 3116 H 308.177 3.47228 5.0226 0
M  V30 3117 H 309.591 4.77995 3.16534 0
M  V30 3118 H 307.988 5.38276 2.6529 0
M  V30 3119 H 309.058 4.62387 1.46034 0
M  V30 3120 N 310.401 -0.613514 1.45168 0
M  V30 3121 C 311.647 -1.37471 1.49096 0
M  V30 3122 C 311.98 -1.93765 0.129901 0
M  V30 3123 O 311.255 -1.74707 -0.854858 0
M  V30 3124 C 311.538 -2.52701 2.56542 0
M  V30 3125 C 311.391 -2.01643 4.0207 0
M  V30 3126 C 312.71 -3.54849 2.60327 0
M  V30 3127 H 309.829 -0.498502 0.54283 0
M  V30 3128 H 312.471 -0.692125 1.76945 0
M  V30 3129 H 310.621 -3.10931 2.32926 0
M  V30 3130 H 312.293 -1.48108 4.36877 0
M  V30 3131 H 310.536 -1.32688 4.13009 0
M  V30 3132 H 311.207 -2.84681 4.72928 0
M  V30 3133 H 313.683 -3.0645 2.81474 0
M  V30 3134 H 312.559 -4.32973 3.37381 0
M  V30 3135 H 312.82 -4.10079 1.6519 0
M  V30 3136 N 311.879 -1.3236 -0.855495 0
M  V30 3137 C 313.29 -1.2056 -1.42556 0
M  V30 3138 C 313.641 0.182209 -1.95352 0
M  V30 3139 O 312.766 1.08088 -1.87472 0
M  V30 3140 C 313.361 -2.1826 -2.59129 0
M  V30 3141 C 311.92 -2.10351 -3.12137 0
M  V30 3142 C 311.067 -2.06674 -1.84882 0
M  V30 3143 H 314.018 -1.442 -0.662727 0
M  V30 3144 H 314.039 -1.78064 -3.36264 0
M  V30 3145 H 313.551 -3.19257 -2.20673 0
M  V30 3146 H 311.652 -1.12599 -3.55179 0
M  V30 3147 H 311.765 -3.00135 -3.73438 0
M  V30 3148 H 310.129 -1.51901 -2.04446 0
M  V30 3149 H 310.912 -3.09451 -1.48643 0
M  V30 3150 N 313.357 1.07166 -1.15556 0
M  V30 3151 C 314.582 1.84053 -0.955988 0
M  V30 3152 C 315.007 1.81586 0.490739 0
M  V30 3153 O 314.365 1.21018 1.34997 0
M  V30 3154 C 314.413 3.28957 -1.47714 0
M  V30 3155 O 313.517 4.06795 -0.677593 0
M  V30 3156 H 312.858 0.569842 -0.340847 0
M  V30 3157 H 315.388 1.35178 -1.53584 0
M  V30 3158 H 315.398 3.79788 -1.4908 0
M  V30 3159 H 314.073 3.30068 -2.53037 0
M  V30 3160 H 312.65 3.6561 -0.733721 0
M  V30 3161 N 314.835 0.952656 1.25548 0
M  V30 3162 C 316.251 0.656769 1.4546 0
M  V30 3163 C 316.451 -0.78633 1.85524 0
M  V30 3164 O 315.507 -1.56183 1.98402 0
M  V30 3165 C 316.82 1.62801 2.52817 0
M  V30 3166 C 318.368 1.63897 2.66659 0
M  V30 3167 C 318.843 2.5978 3.77198 0
M  V30 3168 N 320.334 2.58133 3.84606 0
M  V30 3169 C 321.069 3.29003 4.69621 0
M  V30 3170 N 320.565 4.09339 5.58939 0
M  V30 3171 N 322.358 3.179 4.63569 0
M  V30 3172 H 314.509 1.88526 0.978344 0
M  V30 3173 H 316.772 0.810815 0.491206 0
M  V30 3174 H 316.478 2.65869 2.30232 0
M  V30 3175 H 316.352 1.38898 3.50695 0
M  V30 3176 H 318.739 0.615481 2.8861 0
M  V30 3177 H 318.82 1.91858 1.69187 0
M  V30 3178 H 318.464 3.62254 3.55997 0
M  V30 3179 H 318.394 2.29105 4.7415 0
M  V30 3180 H 320.885 1.99809 3.20757 0
M  V30 3181 H 321.198 4.6034 6.20731 0
M  V30 3182 H 319.543 4.13438 5.58654 0
M  V30 3183 H 322.734 2.54612 3.92798 0
M  V30 3184 H 322.907 3.73398 5.29602 0
M  V30 3185 N 316.313 -1.40141 0.720998 0
M  V30 3186 C 317.538 -2.05618 0.271258 0
M  V30 3187 C 317.963 -1.53978 -1.08039 0
M  V30 3188 O 317.321 -0.677463 -1.68167 0
M  V30 3189 C 317.369 -3.59609 0.267197 0
M  V30 3190 O 316.473 -4.05526 -0.749814 0
M  V30 3191 H 315.814 -0.651904 0.126162 0
M  V30 3192 H 318.344 -1.79439 0.982997 0
M  V30 3193 H 318.354 -4.0786 0.106744 0
M  V30 3194 H 317.029 -3.96559 1.25354 0
M  V30 3195 H 315.606 -3.68722 -0.556644 0
M  V30 3196 N 317.792 -0.46758 -1.50504 0
M  V30 3197 C 318.725 0.374324 -2.25109 0
M  V30 3198 C 319.703 0.99921 -1.28275 0
M  V30 3199 O 320.887 1.03583 -1.57489 0
M  V30 3200 C 318.014 1.52419 -3.02467 0
M  V30 3201 C 317.06 1.01702 -4.14197 0
M  V30 3202 S 317.893 -0.0654477 -5.3546 0
M  V30 3203 C 319.049 1.08837 -6.16365 0
M  V30 3204 H 319.282 -0.258983 -2.9617 0
M  V30 3205 H 316.815 -0.252421 -1.52323 0
M  V30 3206 H 318.773 2.18322 -3.47628 0
M  V30 3207 H 317.434 2.129 -2.30938 0
M  V30 3208 H 316.627 1.87776 -4.67714 0
M  V30 3209 H 316.229 0.435757 -3.71453 0
M  V30 3210 H 318.521 2.00071 -6.47285 0
M  V30 3211 H 319.464 0.592538 -7.05616 0
M  V30 3212 H 319.872 1.34061 -5.4835 0
M  V30 3213 N 319.27 1.56325 -0.20005 0
M  V30 3214 C 320.218 2.20666 0.735482 0
M  V30 3215 C 321.212 1.17934 1.21605 0
M  V30 3216 O 322.418 1.36068 1.17837 0
M  V30 3217 H 318.793 0.70725 0.255542 0
M  V30 3218 H 320.764 2.9792 0.169166 0
M  V30 3219 C 319.513 2.88391 1.94232 0
M  V30 3220 H 318.836 3.67185 1.58161 0
M  V30 3221 H 320.276 3.3684 2.57517 0
M  V30 3222 C 318.735 1.89692 2.78421 0
M  V30 3223 O 319.265 1.40032 3.76502 0
M  V30 3224 N 317.471 1.57813 2.44015 0
M  V30 3225 H 317.018 1.9839 1.64314 0
M  V30 3226 H 316.976 0.920325 3.00628 0
M  V30 3227 N 320.748 -0.0735177 1.57428 0
M  V30 3228 C 321.996 -0.771472 1.86796 0
M  V30 3229 C 322.317 -1.78201 0.791804 0
M  V30 3230 O 321.587 -1.95074 -0.179718 0
M  V30 3231 H 320.167 -0.28791 0.689287 0
M  V30 3232 H 322.829 -0.0500161 1.94836 0
M  V30 3233 H 321.925 -1.28874 2.8425 0
M  V30 3234 N 322.226 -1.5378 -0.344866 0
M  V30 3235 C 323.158 -1.77988 -1.44406 0
M  V30 3236 C 324.171 -0.661138 -1.48771 0
M  V30 3237 O 325.36 -0.937842 -1.51877 0
M  V30 3238 C 322.46 -1.86345 -2.8307 0
M  V30 3239 C 321.633 -3.16256 -3.0216 0
M  V30 3240 C 320.692 -3.15588 -4.21059 0
M  V30 3241 O 319.718 -3.89314 -4.15239 0
M  V30 3242 N 320.92 -2.37864 -5.29529 0
M  V30 3243 H 323.685 -2.72839 -1.24012 0
M  V30 3244 H 321.246 -1.52814 -0.534737 0
M  V30 3245 H 323.238 -1.83351 -3.60783 0
M  V30 3246 H 321.808 -0.986858 -2.96614 0
M  V30 3247 H 321.028 -3.32385 -2.11929 0
M  V30 3248 H 322.316 -4.0207 -3.11797 0
M  V30 3249 H 321.714 -1.77514 -5.37127 0
M  V30 3250 H 320.271 -2.40668 -6.05741 0
M  V30 3251 N 323.704 0.605807 -1.45491 0
M  V30 3252 C 325.115 1.18777 -1.44045 0
M  V30 3253 C 325.466 1.95471 -0.169001 0
M  V30 3254 O 324.591 2.0374 0.729324 0
M  V30 3255 C 325.186 2.16064 -2.60963 0
M  V30 3256 C 323.745 2.69633 -2.62631 0
M  V30 3257 C 322.892 1.45072 -2.36325 0
M  V30 3258 H 325.843 0.395017 -1.53705 0
M  V30 3259 H 325.864 2.9913 -2.35163 0
M  V30 3260 H 325.376 1.60217 -3.53486 0
M  V30 3261 H 323.477 3.29414 -1.74119 0
M  V30 3262 H 323.59 3.13944 -3.61906 0
M  V30 3263 H 321.954 1.74089 -1.85917 0
M  V30 3264 H 322.737 0.910899 -3.30995 0
M  V30 3265 N 325.182 1.32811 0.848464 0
M  V30 3266 C 326.112 1.24882 1.97299 0
M  V30 3267 C 327.093 0.131357 1.69592 0
M  V30 3268 O 328.278 0.319553 1.91553 0
M  V30 3269 C 325.408 0.97746 3.33261 0
M  V30 3270 C 324.362 2.05682 3.75338 0
M  V30 3271 C 323.688 1.63777 5.09 0
M  V30 3272 C 324.988 3.47254 3.90144 0
M  V30 3273 H 326.682 2.18966 2.04191 0
M  V30 3274 H 324.228 1.05413 0.981029 0
M  V30 3275 H 326.181 0.908513 4.1149 0
M  V30 3276 H 324.905 0.000980011 3.266 0
M  V30 3277 H 323.564 2.11603 2.99366 0
M  V30 3278 H 323.212 0.648569 4.98801 0
M  V30 3279 H 322.912 2.36 5.38124 0
M  V30 3280 H 324.436 1.5833 5.89715 0
M  V30 3281 H 325.85 3.43888 4.58709 0
M  V30 3282 H 324.247 4.1788 4.30693 0
M  V30 3283 H 325.317 3.86462 2.92874 0
M  V30 3284 N 326.66 -1.06551 1.16123 0
M  V30 3285 C 327.888 -1.83005 0.965237 0
M  V30 3286 C 328.303 -1.82423 -0.486542 0
M  V30 3287 O 327.66 -1.24152 -1.33763 0
M  V30 3288 C 327.711 -3.29733 1.48183 0
M  V30 3289 O 327.432 -3.30416 2.87674 0
M  V30 3290 C 328.933 -4.22926 1.32848 0
M  V30 3291 H 326.153 -0.577118 0.342309 0
M  V30 3292 H 328.697 -1.3445 1.54089 0
M  V30 3293 H 326.852 -3.75609 0.948517 0
M  V30 3294 H 327.266 -4.22149 3.11272 0
M  V30 3295 H 328.74 -5.23916 1.73827 0
M  V30 3296 H 329.217 -4.38346 0.273692 0
M  V30 3297 H 329.823 -3.82894 1.85127 0
M  V30 3298 N 328.138 -0.959301 -1.25041 0
M  V30 3299 C 329.378 -0.624343 -1.94631 0
M  V30 3300 C 329.742 0.82403 -1.73418 0
M  V30 3301 O 330.943 1.26881 -2.3697 0
M  V30 3302 C 329.214 -0.978805 -3.43736 0
M  V30 3303 S 330.773 -0.757127 -4.32219 0
M  V30 3304 H 327.591 -0.229327 -0.673001 0
M  V30 3305 H 330.193 -1.23447 -1.51595 0
M  V30 3306 H 328.897 -2.02997 -3.56679 0
M  V30 3307 H 328.428 -0.359117 -3.91757 0
M  V30 3308 H 330.443 0.369759 -4.9482 0
M  V30 3309 N 329.616 1.39756 -0.72842 0
M  V30 3310 C 330.862 2.00942 -0.273892 0
M  V30 3311 C 331.195 1.57656 1.13394 0
M  V30 3312 O 330.47 0.802434 1.77176 0
M  V30 3313 C 330.753 3.58211 -0.368346 0
M  V30 3314 C 330.606 4.11534 -1.81548 0
M  V30 3315 C 331.925 4.39372 0.253054 0
M  V30 3316 H 329.044 0.730047 -0.100996 0
M  V30 3317 H 331.686 1.66056 -0.923337 0
M  V30 3318 H 329.836 3.88061 0.184588 0
M  V30 3319 H 331.508 3.92431 -2.42478 0
M  V30 3320 H 329.751 3.65341 -2.33898 0
M  V30 3321 H 330.422 5.20682 -1.83288 0
M  V30 3322 H 332.898 4.15527 -0.218224 0
M  V30 3323 H 331.774 5.48677 0.156585 0
M  V30 3324 H 332.035 4.21358 1.33826 0
M  V30 3325 N 331.094 0.475555 1.50254 0
M  V30 3326 C 332.34 -0.0780073 2.0265 0
M  V30 3327 C 332.673 -1.38968 1.35652 0
M  V30 3328 O 331.948 -1.8839 0.483691 0
M  V30 3329 C 332.231 -0.257161 3.59181 0
M  V30 3330 C 332.084 1.07585 4.36744 0
M  V30 3331 C 333.403 -1.00965 4.28362 0
M  V30 3332 H 330.522 -0.0268758 0.73651 0
M  V30 3333 H 333.164 0.622015 1.7953 0
M  V30 3334 H 331.314 -0.853412 3.79011 0
M  V30 3335 H 332.986 1.70902 4.28474 0
M  V30 3336 H 331.229 1.6714 4.00308 0
M  V30 3337 H 331.9 0.904088 5.44546 0
M  V30 3338 H 334.376 -0.504214 4.13034 0
M  V30 3339 H 333.252 -1.10381 5.37687 0
M  V30 3340 H 333.513 -2.04731 3.91839 0
M  V30 3341 N 332.573 -1.56217 0.208337 0
M  V30 3342 C 333.798 -2.02782 -0.435222 0
M  V30 3343 C 334.223 -1.08738 -1.53485 0
M  V30 3344 O 333.581 -0.0731855 -1.81152 0
M  V30 3345 C 333.629 -3.47687 -0.956335 0
M  V30 3346 O 332.733 -3.56773 -2.06849 0
M  V30 3347 H 332.074 -0.656403 -0.100158 0
M  V30 3348 H 334.604 -2.02033 0.3231 0
M  V30 3349 H 334.614 -3.87745 -1.26955 0
M  V30 3350 H 333.289 -4.15624 -0.15143 0
M  V30 3351 H 331.866 -3.28597 -1.76292 0
M  V30 3352 N 334.051 0.0651679 -1.57465 0
M  V30 3353 C 335.001 1.0838 -2.00594 0
M  V30 3354 C 335.985 1.34106 -0.889071 0
M  V30 3355 O 337.177 1.34295 -1.15299 0
M  V30 3356 C 334.306 2.39565 -2.45894 0
M  V30 3357 C 333.392 2.17085 -3.64328 0
M  V30 3358 N 333.783 1.64553 -4.78285 0
M  V30 3359 C 332.081 2.4753 -3.71006 0
M  V30 3360 C 332.782 1.57042 -5.60101 0
M  V30 3361 N 331.758 2.03328 -5.04141 0
M  V30 3362 H 335.56 0.671062 -2.86136 0
M  V30 3363 H 333.074 0.27213 -1.60104 0
M  V30 3364 H 335.071 3.13308 -2.75034 0
M  V30 3365 H 333.731 2.81549 -1.61741 0
M  V30 3366 H 334.742 1.33323 -5.00445 0
M  V30 3367 H 331.419 2.92835 -2.9758 0
M  V30 3368 H 332.809 1.17223 -6.61595 0
M  V30 3369 N 335.529 1.53961 0.336706 0
M  V30 3370 C 336.94 1.62914 0.911925 0
M  V30 3371 C 337.291 0.514795 1.89326 0
M  V30 3372 O 336.416 -0.354395 2.13478 0
M  V30 3373 C 337.011 2.95304 1.66076 0
M  V30 3374 C 335.57 3.06496 2.18489 0
M  V30 3375 C 334.717 2.58403 1.00613 0
M  V30 3376 H 337.668 1.58285 0.114649 0
M  V30 3377 H 337.689 2.84727 2.5241 0
M  V30 3378 H 337.201 3.76387 0.946276 0
M  V30 3379 H 335.302 2.3006 2.93092 0
M  V30 3380 H 335.415 4.1208 2.44391 0
M  V30 3381 H 333.779 2.13977 1.38152 0
M  V30 3382 H 334.562 3.41932 0.306179 0
M  V30 3383 N 337.007 -0.598083 1.45811 0
M  V30 3384 C 338.255 -1.35413 1.50026 0
M  V30 3385 C 338.576 -1.94444 0.147177 0
M  V30 3386 O 337.846 -1.77701 -0.824571 0
M  V30 3387 H 336.426 -0.502727 0.552517 0
M  V30 3388 H 339.088 -0.701606 1.81834 0
M  V30 3389 H 338.184 -2.16871 2.2444 0
M  V30 3390 N 338.485 -1.33259 -0.841409 0
M  V30 3391 C 339.415 -1.25926 -1.96634 0
M  V30 3392 C 340.396 -0.140349 -1.6952 0
M  V30 3393 O 341.581 -0.329707 -1.91381 0
M  V30 3394 C 338.711 -0.99512 -3.32738 0
M  V30 3395 C 337.665 -2.0767 -3.74242 0
M  V30 3396 C 336.991 -1.66474 -5.08125 0
M  V30 3397 C 338.291 -3.49318 -3.88297 0
M  V30 3398 H 339.985 -2.20046 -2.03027 0
M  V30 3399 H 337.531 -1.05931 -0.975425 0
M  V30 3400 H 339.484 -0.930323 -4.11002 0
M  V30 3401 H 338.208 -0.0183004 -3.26595 0
M  V30 3402 H 336.867 -2.13187 -2.98239 0
M  V30 3403 H 336.515 -0.675012 -4.9845 0
M  V30 3404 H 336.215 -2.3885 -5.36865 0
M  V30 3405 H 337.739 -1.61455 -5.88867 0
M  V30 3406 H 339.153 -3.46316 -4.56879 0
M  V30 3407 H 337.55 -4.20158 -4.28471 0
M  V30 3408 H 338.62 -3.8801 -2.9082 0
M  V30 3409 N 339.963 1.05934 -1.16686 0
M  V30 3410 C 340.893 2.1546 -0.899949 0
M  V30 3411 C 341.874 1.69391 0.155154 0
M  V30 3412 O 343.059 1.94199 0.00648693 0
M  V30 3413 C 340.189 3.44939 -0.404241 0
M  V30 3414 C 339.143 4.04536 -1.39767 0
M  V30 3415 C 338.469 5.29268 -0.760216 0
M  V30 3416 C 339.769 4.42893 -2.76845 0
M  V30 3417 H 341.463 2.38046 -1.81588 0
M  V30 3418 H 339.009 1.14404 -0.874514 0
M  V30 3419 H 340.962 4.20901 -0.204971 0
M  V30 3420 H 339.686 3.21983 0.547206 0
M  V30 3421 H 338.345 3.30635 -1.58355 0
M  V30 3422 H 337.993 5.02611 0.197831 0
M  V30 3423 H 337.693 5.70101 -1.42332 0
M  V30 3424 H 339.217 6.07924 -0.57105 0
M  V30 3425 H 340.631 5.09921 -2.62019 0
M  V30 3426 H 339.028 4.94721 -3.39663 0
M  V30 3427 H 340.098 3.53584 -3.31823 0
M  V30 3428 N 341.441 0.965919 1.2453 0
M  V30 3429 C 342.373 0.452465 2.2469 0
M  V30 3430 C 343.386 -0.437821 1.56802 0
M  V30 3431 O 344.575 -0.244283 1.76821 0
M  V30 3432 C 341.675 -0.366258 3.36915 0
M  V30 3433 C 340.848 0.513701 4.34373 0
M  V30 3434 C 339.907 -0.248716 5.25612 0
M  V30 3435 O 338.933 0.356745 5.68081 0
M  V30 3436 N 340.135 -1.53877 5.59734 0
M  V30 3437 H 342.9 1.31361 2.69378 0
M  V30 3438 H 340.461 0.837541 1.38553 0
M  V30 3439 H 342.453 -0.884297 3.94921 0
M  V30 3440 H 341.023 -1.12832 2.91526 0
M  V30 3441 H 340.243 1.21273 3.75082 0
M  V30 3442 H 341.531 1.11391 4.96457 0
M  V30 3443 H 340.929 -2.05243 5.27154 0
M  V30 3444 H 339.486 -2.00254 6.20275 0
M  V30 3445 N 342.919 -1.39368 0.735821 0
M  V30 3446 C 344.196 -1.94465 0.210395 0
M  V30 3447 C 344.576 -1.67254 -1.28799 0
M  V30 3448 O 343.924 -1.00123 -2.05396 0
M  V30 3449 C 344.134 -3.4472 0.544897 0
M  V30 3450 C 345.482 -4.21708 0.494689 0
M  V30 3451 O 346.506 -3.52922 0.482136 0
M  V30 3452 O 345.365 -5.44299 0.489947 0
M  V30 3453 H 342.459 -0.826096 0.0386666 0
M  V30 3454 H 345.005 -1.48863 0.814735 0
M  V30 3455 H 343.777 -3.57963 1.58045 0
M  V30 3456 H 343.4 -3.97502 -0.08837 0
M  V30 3457 N 344.397 -0.483516 -1.5 0
M  V30 3458 C 345.329 0.340634 -2.26655 0
M  V30 3459 C 346.342 0.946152 -1.32483 0
M  V30 3460 O 347.531 0.832453 -1.579 0
M  V30 3461 C 344.631 1.4929 -3.04246 0
M  V30 3462 C 343.804 0.997903 -4.25865 0
M  V30 3463 C 342.863 2.02569 -4.85646 0
M  V30 3464 O 341.889 1.60128 -5.46212 0
M  V30 3465 N 343.091 3.3548 -4.73744 0
M  V30 3466 H 345.856 -0.316577 -2.98023 0
M  V30 3467 H 343.417 -0.315024 -1.58806 0
M  V30 3468 H 345.409 2.17766 -3.41116 0
M  V30 3469 H 343.979 2.05458 -2.35597 0
M  V30 3470 H 343.199 0.138617 -3.93956 0
M  V30 3471 H 344.487 0.645305 -5.04691 0
M  V30 3472 H 343.885 3.72661 -4.25605 0
M  V30 3473 H 342.442 3.99718 -5.14848 0
M  V30 3474 N 345.875 1.56104 -0.216619 0
M  V30 3475 C 347.291 1.58995 0.13886 0
M  V30 3476 C 347.491 1.23333 1.59346 0
M  V30 3477 O 346.547 0.966234 2.33281 0
M  V30 3478 C 347.86 3.00143 -0.182968 0
M  V30 3479 C 349.408 3.12751 -0.124807 0
M  V30 3480 C 349.883 4.56068 -0.420241 0
M  V30 3481 N 351.374 4.61723 -0.369634 0
M  V30 3482 C 352.109 5.70542 -0.571789 0
M  V30 3483 N 351.605 6.87744 -0.835453 0
M  V30 3484 N 353.398 5.59831 -0.504563 0
M  V30 3485 H 345.549 1.77562 -1.16557 0
M  V30 3486 H 347.812 0.825091 -0.466828 0
M  V30 3487 H 347.518 3.30871 -1.19237 0
M  V30 3488 H 347.392 3.73813 0.504367 0
M  V30 3489 H 349.779 2.81822 0.875223 0
M  V30 3490 H 349.86 2.41421 -0.845544 0
M  V30 3491 H 349.504 4.87713 -1.41769 0
M  V30 3492 H 349.434 5.25617 0.321631 0
M  V30 3493 H 351.925 3.77502 -0.173338 0
M  V30 3494 H 352.238 7.66587 -0.977938 0
M  V30 3495 H 350.583 6.895 -0.872592 0
M  V30 3496 H 353.774 4.67145 -0.298842 0
M  V30 3497 H 353.947 6.44573 -0.665519 0
M  V30 3498 N 347.353 -0.0568162 1.57498 0
M  V30 3499 C 348.602 -0.752001 1.87157 0
M  V30 3500 C 348.915 -1.77978 0.811375 0
M  V30 3501 O 350.121 -2.52559 0.996293 0
M  V30 3502 C 348.577 -1.38844 3.3204 0
M  V30 3503 C 348.185 -0.398456 4.46225 0
M  V30 3504 C 349.929 -2.06512 3.70882 0
M  V30 3505 C 347.836 -1.04166 5.82154 0
M  V30 3506 H 346.766 -0.28461 0.698222 0
M  V30 3507 H 349.417 -0.00561272 1.83499 0
M  V30 3508 H 347.799 -2.1836 3.30356 0
M  V30 3509 H 348.973 0.367977 4.59328 0
M  V30 3510 H 347.288 0.174592 4.16034 0
M  V30 3511 H 349.885 -2.55437 4.6974 0
M  V30 3512 H 350.228 -2.87117 3.01445 0
M  V30 3513 H 350.761 -1.33808 3.7462 0
M  V30 3514 H 347.5 -0.275614 6.5492 0
M  V30 3515 H 347.02 -1.7786 5.72823 0
M  V30 3516 H 348.699 -1.55715 6.27982 0
M  V30 3517 N 348.832 -1.54138 -0.328536 0
M  V30 3518 C 350.06 -1.76062 -1.08673 0
M  V30 3519 C 350.475 -0.506852 -1.81869 0
M  V30 3520 O 349.832 0.522223 -1.74869 0
M  V30 3521 C 349.883 -2.95054 -2.08866 0
M  V30 3522 O 349.604 -4.15583 -1.38644 0
M  V30 3523 C 351.105 -3.2915 -2.96943 0
M  V30 3524 H 348.325 -0.587889 -0.323461 0
M  V30 3525 H 350.869 -2.0101 -0.376175 0
M  V30 3526 H 349.024 -2.72394 -2.75464 0
M  V30 3527 H 349.438 -4.82481 -2.05699 0
M  V30 3528 H 350.912 -4.15723 -3.63151 0
M  V30 3529 H 351.389 -2.461 -3.63774 0
M  V30 3530 H 351.995 -3.53871 -2.35914 0
M  V30 3531 N 350.31 0.590341 -1.46126 0
M  V30 3532 C 351.26 1.69466 -1.5253 0
M  V30 3533 C 352.244 1.56179 -0.386917 0
M  V30 3534 O 353.436 1.65223 -0.634858 0
M  V30 3535 C 350.565 3.08245 -1.5113 0
M  V30 3536 C 349.651 3.26856 -2.70233 0
M  V30 3537 N 350.042 3.15657 -3.95214 0
M  V30 3538 C 348.34 3.57775 -2.66296 0
M  V30 3539 C 349.041 3.36066 -4.74799 0
M  V30 3540 N 348.017 3.60865 -4.06543 0
M  V30 3541 H 351.819 1.59326 -2.46966 0
M  V30 3542 H 349.333 0.79414 -1.41659 0
M  V30 3543 H 351.33 3.87492 -1.53804 0
M  V30 3544 H 349.99 3.19521 -0.577636 0
M  V30 3545 H 351.001 2.93686 -4.26578 0
M  V30 3546 H 347.678 3.75782 -1.81918 0
M  V30 3547 H 349.068 3.32655 -5.83772 0
M  V30 3548 N 351.788 1.33704 0.83433 0
M  V30 3549 C 353.037 1.24763 1.58484 0
M  V30 3550 C 353.35 -0.183775 1.94735 0
M  V30 3551 O 354.556 -0.395234 2.68608 0
M  V30 3552 C 353.012 2.18638 2.85876 0
M  V30 3553 C 352.62 3.66974 2.56971 0
M  V30 3554 C 354.364 2.18581 3.63899 0
M  V30 3555 C 352.271 4.5275 3.80488 0
M  V30 3556 H 351.201 0.463425 0.594772 0
M  V30 3557 H 353.852 1.58797 0.919551 0
M  V30 3558 H 352.234 1.77542 3.5397 0
M  V30 3559 H 353.408 4.16538 1.9706 0
M  V30 3560 H 351.723 3.69366 1.92244 0
M  V30 3561 H 354.32 2.79894 4.55591 0
M  V30 3562 H 354.663 1.18207 3.99165 0
M  V30 3563 H 355.196 2.58062 3.02735 0
M  V30 3564 H 351.935 5.54017 3.5035 0
M  V30 3565 H 351.455 4.07927 4.39722 0
M  V30 3566 H 353.134 4.66784 4.4802 0
M  V30 3567 N 353.266 -1.05314 1.17247 0
M  V30 3568 C 354.196 -2.1498 0.911362 0
M  V30 3569 C 355.177 -1.69471 -0.146169 0
M  V30 3570 O 356.362 -1.942 0.003812 0
M  V30 3571 C 353.492 -3.4472 0.422528 0
M  V30 3572 C 352.446 -4.03789 1.4191 0
M  V30 3573 C 351.772 -5.28858 0.788274 0
M  V30 3574 C 353.072 -4.41418 2.7919 0
M  V30 3575 H 354.766 -2.3708 1.82848 0
M  V30 3576 H 352.312 -1.13938 0.880569 0
M  V30 3577 H 354.265 -4.20787 0.227289 0
M  V30 3578 H 352.989 -3.22269 -0.530123 0
M  V30 3579 H 351.648 -3.2979 1.60106 0
M  V30 3580 H 351.296 -5.02709 -0.171173 0
M  V30 3581 H 350.996 -5.69338 1.45353 0
M  V30 3582 H 352.52 -6.07612 0.603282 0
M  V30 3583 H 353.934 -5.08524 2.64719 0
M  V30 3584 H 352.331 -4.92913 3.42282 0
M  V30 3585 H 353.401 -3.51819 3.33693 0
M  V30 3586 N 354.744 -0.972509 -1.24016 0
M  V30 3587 C 355.694 -0.477561 -2.22942 0
M  V30 3588 C 356.678 0.44308 -1.54679 0
M  V30 3589 O 357.87 0.273219 -1.74879 0
M  V30 3590 C 354.999 0.226348 -3.42553 0
M  V30 3591 C 354.085 -0.713403 -4.18057 0
M  V30 3592 N 354.476 -1.8527 -4.70647 0
M  V30 3593 C 352.774 -0.525145 -4.42898 0
M  V30 3594 C 353.475 -2.44089 -5.28011 0
M  V30 3595 N 352.451 -1.72556 -5.15486 0
M  V30 3596 H 356.253 -1.34678 -2.61226 0
M  V30 3597 H 353.767 -0.832196 -1.39457 0
M  V30 3598 H 355.764 0.598184 -4.12586 0
M  V30 3599 H 354.424 1.09195 -3.05788 0
M  V30 3600 H 355.435 -2.2341 -4.67235 0
M  V30 3601 H 352.112 0.296096 -4.16449 0
M  V30 3602 H 353.502 -3.40259 -5.79374 0
M  V30 3603 N 356.222 1.38976 -0.743202 0
M  V30 3604 C 357.468 2.0064 -0.295189 0
M  V30 3605 C 357.801 1.5885 1.11716 0
M  V30 3606 O 357.076 0.821181 1.76315 0
M  V30 3607 C 357.359 3.578 -0.406318 0
M  V30 3608 C 357.212 4.09586 -1.85903 0
M  V30 3609 C 358.531 4.39616 0.206439 0
M  V30 3610 H 355.65 0.728935 -0.108733 0
M  V30 3611 H 358.292 1.65067 -0.940897 0
M  V30 3612 H 356.442 3.88235 0.143419 0
M  V30 3613 H 358.114 3.89837 -2.46627 0
M  V30 3614 H 356.357 3.6284 -2.3776 0
M  V30 3615 H 357.028 5.18708 -1.888 0
M  V30 3616 H 359.504 4.15273 -0.262283 0
M  V30 3617 H 358.38 5.48812 0.0983819 0
M  V30 3618 H 358.641 4.22754 1.2935 0
M  V30 3619 N 357.7 0.491464 1.49741 0
M  V30 3620 C 358.925 -0.0557177 2.07325 0
M  V30 3621 C 359.35 -1.30925 1.35056 0
M  V30 3622 O 358.708 -1.76733 0.404365 0
M  V30 3623 C 358.756 -0.302074 3.59333 0
M  V30 3624 O 357.86 -1.37868 3.88672 0
M  V30 3625 H 357.201 0.0219956 0.663636 0
M  V30 3626 H 359.731 0.688352 1.92673 0
M  V30 3627 H 359.741 -0.536464 4.04458 0
M  V30 3628 H 358.416 0.61383 4.11345 0
M  V30 3629 H 356.993 -1.12999 3.55367 0
M  V30 3630 N 359.178 -1.55987 0.224894 0
M  V30 3631 C 360.425 -1.9839 -0.4059 0
M  V30 3632 C 360.753 -1.11261 -1.59535 0
M  V30 3633 O 360.008 -0.158314 -1.95059 0
M  V30 3634 C 360.307 -3.46394 -0.880106 0
M  V30 3635 C 359.973 -4.5046 0.19918 0
M  V30 3636 C 358.635 -4.7864 0.495661 0
M  V30 3637 C 360.987 -5.12855 0.928939 0
M  V30 3638 C 358.315 -5.66497 1.52636 0
M  V30 3639 C 360.667 -6.01828 1.949 0
M  V30 3640 C 359.331 -6.28351 2.25236 0
M  V30 3641 H 358.601 -0.725961 -0.148529 0
M  V30 3642 H 361.248 -1.88668 0.328113 0
M  V30 3643 H 359.553 -3.53337 -1.69294 0
M  V30 3644 H 361.25 -3.76577 -1.37808 0
M  V30 3645 H 357.84 -4.28579 -0.0420526 0
M  V30 3646 H 362.024 -4.9115 0.713129 0
M  V30 3647 H 357.28 -5.8531 1.76698 0
M  V30 3648 H 361.454 -6.49225 2.51951 0
M  V30 3649 H 359.081 -6.96226 3.05244 0
M  V30 3650 N 360.656 0.0484629 -1.57525 0
M  V30 3651 C 361.586 1.0549 -2.08313 0
M  V30 3652 C 362.567 1.38929 -0.981463 0
M  V30 3653 O 363.752 1.48151 -1.25558 0
M  V30 3654 C 360.882 2.36162 -2.54646 0
M  V30 3655 C 359.836 2.17016 -3.68901 0
M  V30 3656 C 359.162 3.53278 -4.01371 0
M  V30 3657 C 360.462 1.57219 -4.98076 0
M  V30 3658 H 362.156 0.632195 -2.92649 0
M  V30 3659 H 359.702 0.302654 -1.40784 0
M  V30 3660 H 361.655 3.06882 -2.88793 0
M  V30 3661 H 360.379 2.80456 -1.67368 0
M  V30 3662 H 359.038 1.48733 -3.35073 0
M  V30 3663 H 358.686 3.95185 -3.11188 0
M  V30 3664 H 358.386 3.41299 -4.78318 0
M  V30 3665 H 359.91 4.25391 -4.38035 0
M  V30 3666 H 361.324 2.17832 -5.30304 0
M  V30 3667 H 359.721 1.55871 -5.79503 0
M  V30 3668 H 360.791 0.535956 -4.81929 0
M  V30 3669 N 362.134 1.5431 0.320358 0
M  V30 3670 C 363.097 1.83195 1.3774 0
M  V30 3671 C 364.097 0.703906 1.44575 0
M  V30 3672 O 365.287 0.972214 1.44546 0
M  V30 3673 C 362.419 1.99487 2.76438 0
M  V30 3674 H 363.612 2.77642 1.1338 0
M  V30 3675 H 361.165 1.46076 0.556012 0
M  V30 3676 H 361.9 1.07262 3.06048 0
M  V30 3677 H 361.685 2.81575 2.7287 0
M  V30 3678 H 363.175 2.23271 3.52902 0
M  V30 3679 N 363.613 -0.582584 1.46437 0
M  V30 3680 C 364.523 -1.71949 1.59595 0
M  V30 3681 C 365.539 -1.67264 0.479443 0
M  V30 3682 O 366.715 -1.87171 0.743579 0
M  V30 3683 C 363.78 -3.08452 1.58298 0
M  V30 3684 C 362.841 -3.244 2.81182 0
M  V30 3685 C 362.074 -4.54391 2.79937 0
M  V30 3686 O 362.297 -5.38287 1.8869 0
M  V30 3687 O 361.231 -4.73588 3.71481 0
M  V30 3688 H 365.057 -1.63795 2.55744 0
M  V30 3689 H 362.642 -0.749643 1.29231 0
M  V30 3690 H 364.524 -3.89732 1.60271 0
M  V30 3691 H 363.199 -3.17043 0.653094 0
M  V30 3692 H 362.106 -2.42613 2.84763 0
M  V30 3693 H 363.439 -3.20699 3.7338 0
M  V30 3694 N 365.091 -1.34144 -0.827227 0
M  V30 3695 C 366.054 -1.25264 -1.91942 0
M  V30 3696 C 367.054 -0.168866 -1.59911 0
M  V30 3697 O 368.244 -0.421198 -1.69031 0
M  V30 3698 C 365.376 -0.932952 -3.27885 0
M  V30 3699 H 366.569 -2.22357 -2.0124 0
M  V30 3700 H 364.122 -1.1837 -1.0207 0
M  V30 3701 H 364.857 0.0349917 -3.24281 0
M  V30 3702 H 364.642 -1.71682 -3.52516 0
M  V30 3703 H 366.132 -0.895874 -4.07877 0
M  V30 3704 N 366.569 1.04691 -1.17803 0
M  V30 3705 C 367.794 1.81984 -0.994813 0
M  V30 3706 C 368.219 1.82586 0.452112 0
M  V30 3707 O 367.577 1.23854 1.324 0
M  V30 3708 C 367.625 3.2575 -1.54659 0
M  V30 3709 O 366.729 4.05267 -0.763728 0
M  V30 3710 H 366.07 0.562483 -0.352857 0
M  V30 3711 H 368.6 1.3189 -1.56417 0
M  V30 3712 H 368.61 3.76541 -1.57102 0
M  V30 3713 H 367.285 3.24627 -2.59981 0
M  V30 3714 H 365.862 3.63972 -0.811108 0
M  V30 3715 N 368.047 0.979072 1.23499 0
M  V30 3716 C 369.293 0.648178 1.92163 0
M  V30 3717 C 369.626 -0.816049 1.76222 0
M  V30 3718 O 368.901 -1.58849 1.12237 0
M  V30 3719 C 369.184 1.03773 3.44824 0
M  V30 3720 C 369.037 2.55948 3.69879 0
M  V30 3721 C 370.356 0.580653 4.36253 0
M  V30 3722 H 367.475 0.236952 0.69787 0
M  V30 3723 H 370.117 1.22012 1.45647 0
M  V30 3724 H 368.267 0.551058 3.84572 0
M  V30 3725 H 369.939 3.12179 3.3962 0
M  V30 3726 H 368.182 2.98641 3.14636 0
M  V30 3727 H 368.853 2.78255 4.76737 0
M  V30 3728 H 371.329 0.998465 4.03943 0
M  V30 3729 H 370.205 0.881663 5.41773 0
M  V30 3730 H 370.466 -0.519052 4.39042 0
M  V30 3731 N 369.525 -1.3858 0.750561 0
M  V30 3732 C 370.941 -1.53759 0.427824 0
M  V30 3733 C 371.141 -1.71401 -1.05943 0
M  V30 3734 O 370.197 -1.72331 -1.84549 0
M  V30 3735 C 371.51 -2.74642 1.22443 0
M  V30 3736 C 373.058 -2.88489 1.2142 0
M  V30 3737 C 373.533 -4.12329 1.9937 0
M  V30 3738 N 375.024 -4.194 1.96616 0
M  V30 3739 C 375.759 -5.14209 2.53727 0
M  V30 3740 N 375.255 -6.14709 3.19539 0
M  V30 3741 N 377.048 -5.06537 2.43673 0
M  V30 3742 H 369.199 -1.25377 1.71447 0
M  V30 3743 H 371.462 -0.608844 0.726645 0
M  V30 3744 H 371.168 -2.68 2.27747 0
M  V30 3745 H 371.042 -3.67745 0.839273 0
M  V30 3746 H 373.429 -2.94614 0.169232 0
M  V30 3747 H 373.51 -1.96406 1.63885 0
M  V30 3748 H 373.154 -4.06966 3.03877 0
M  V30 3749 H 373.084 -5.03486 1.54302 0
M  V30 3750 H 375.575 -3.47421 1.48684 0
M  V30 3751 H 375.888 -6.8354 3.60545 0
M  V30 3752 H 374.233 -6.1505 3.23633 0
M  V30 3753 H 377.424 -4.26962 1.91889 0
M  V30 3754 H 377.597 -5.80245 2.88479 0
M  V30 3755 N 371.003 -0.499398 -1.49478 0
M  V30 3756 C 372.251 0.0455996 -2.02049 0
M  V30 3757 C 372.572 1.37633 -1.38138 0
M  V30 3758 O 371.842 1.8842 -0.536166 0
M  V30 3759 H 370.422 0.0198416 -0.746736 0
M  V30 3760 H 373.084 -0.656274 -1.83519 0
M  V30 3761 H 372.18 0.176445 -3.11601 0
M  V30 3762 N 372.481 1.55866 -0.233164 0
M  V30 3763 C 373.411 2.23783 0.666599 0
M  V30 3764 C 374.392 1.21343 1.19205 0
M  V30 3765 O 375.577 1.4996 1.23392 0
M  V30 3766 C 372.707 2.92671 1.86978 0
M  V30 3767 C 371.661 4.01682 1.47768 0
M  V30 3768 C 370.987 4.57926 2.76058 0
M  V30 3769 C 372.287 5.18126 0.658993 0
M  V30 3770 H 373.981 2.99232 0.100306 0
M  V30 3771 H 371.527 1.43924 0.046804 0
M  V30 3772 H 373.48 3.3888 2.50476 0
M  V30 3773 H 372.204 2.14688 2.46123 0
M  V30 3774 H 370.863 3.56222 0.866106 0
M  V30 3775 H 370.511 3.76659 3.33372 0
M  V30 3776 H 370.211 5.31505 2.50552 0
M  V30 3777 H 371.735 5.06859 3.40479 0
M  V30 3778 H 373.149 5.60644 1.19795 0
M  V30 3779 H 371.546 5.98009 0.500552 0
M  V30 3780 H 372.616 4.83763 -0.331856 0
M  V30 3781 N 373.959 -0.0401083 1.57549 0
M  V30 3782 C 374.869 -1.06133 2.0922 0
M  V30 3783 C 375.885 -1.40356 1.0284 0
M  V30 3784 O 377.061 -1.49897 1.34509 0
M  V30 3785 C 374.126 -2.34658 2.55218 0
M  V30 3786 C 373.187 -2.07117 3.76033 0
M  V30 3787 C 372.42 -3.29514 4.19829 0
M  V30 3788 O 372.643 -4.39794 3.63232 0
M  V30 3789 O 371.577 -3.15863 5.12362 0
M  V30 3790 H 375.403 -0.652244 2.96613 0
M  V30 3791 H 372.988 -0.256368 1.47184 0
M  V30 3792 H 374.87 -3.10239 2.85184 0
M  V30 3793 H 373.545 -2.74883 1.70941 0
M  V30 3794 H 372.452 -1.29139 3.51104 0
M  V30 3795 H 373.785 -1.71754 4.61261 0
M  V30 3796 N 375.437 -1.54477 -0.31217 0
M  V30 3797 C 376.714 -1.63891 -1.06767 0
M  V30 3798 C 377.094 -0.480028 -2.0557 0
M  V30 3799 O 376.442 0.524487 -2.22399 0
M  V30 3800 C 376.652 -3.01402 -1.75948 0
M  V30 3801 C 378 -3.57838 -2.28554 0
M  V30 3802 O 379.024 -3.03782 -1.85998 0
M  V30 3803 O 377.883 -4.52462 -3.06497 0
M  V30 3804 H 374.977 -0.664125 -0.492816 0
M  V30 3805 H 377.523 -1.66823 -0.311149 0
M  V30 3806 H 376.295 -3.77187 -1.04144 0
M  V30 3807 H 375.918 -3.02199 -2.58383 0
M  V30 3808 N 376.915 0.57481 -1.46744 0
M  V30 3809 C 377.847 1.69804 -1.53946 0
M  V30 3810 C 378.86 1.57098 -0.427106 0
M  V30 3811 O 380.049 1.64378 -0.695863 0
M  V30 3812 C 377.149 3.08125 -1.4111 0
M  V30 3813 C 376.322 3.46757 -2.66605 0
M  V30 3814 C 375.381 4.6417 -2.47855 0
M  V30 3815 O 374.407 4.69634 -3.21609 0
M  V30 3816 N 375.609 5.59553 -1.54534 0
M  V30 3817 H 378.374 1.64077 -2.50796 0
M  V30 3818 H 375.935 0.761 -1.429 0
M  V30 3819 H 377.927 3.84478 -1.26328 0
M  V30 3820 H 376.497 3.08175 -0.524109 0
M  V30 3821 H 375.717 2.6003 -2.96274 0
M  V30 3822 H 377.005 3.69337 -3.49954 0
M  V30 3823 H 376.403 5.57881 -0.937304 0
M  V30 3824 H 374.96 6.35304 -1.45711 0
M  V30 3825 N 378.394 1.34581 0.820102 0
M  V30 3826 C 379.342 1.26401 1.95258 0
M  V30 3827 C 380.336 0.161553 1.68628 0
M  V30 3828 O 381.542 0.326703 1.7701 0
M  V30 3829 H 377.917 0.392749 0.64129 0
M  V30 3830 H 379.888 2.22105 1.99279 0
M  V30 3831 C 378.637 1.03919 3.31807 0
M  V30 3832 H 377.96 1.87984 3.52848 0
M  V30 3833 H 379.4 1.02232 4.11491 0
M  V30 3834 C 377.859 -0.257433 3.35915 0
M  V30 3835 O 378.389 -1.25784 3.81499 0
M  V30 3836 N 376.595 -0.291524 2.89134 0
M  V30 3837 H 376.142 0.523161 2.52232 0
M  V30 3838 H 376.1 -1.15883 2.92264 0
M  V30 3839 N 379.872 -1.04064 1.18357 0
M  V30 3840 C 380.802 -2.14001 0.934113 0
M  V30 3841 C 381.783 -1.69616 -0.128186 0
M  V30 3842 O 382.968 -1.94185 0.0244093 0
M  V30 3843 C 380.098 -3.44253 0.459066 0
M  V30 3844 C 379.052 -4.02261 1.46185 0
M  V30 3845 C 378.378 -5.27992 0.844322 0
M  V30 3846 C 379.678 -4.38432 2.83856 0
M  V30 3847 H 381.372 -2.35127 1.85352 0
M  V30 3848 H 378.918 -1.12998 0.892604 0
M  V30 3849 H 380.871 -4.20522 0.271907 0
M  V30 3850 H 379.595 -3.22813 -0.495912 0
M  V30 3851 H 378.254 -3.28074 1.63595 0
M  V30 3852 H 377.902 -5.02862 -0.117845 0
M  V30 3853 H 377.602 -5.67765 1.51384 0
M  V30 3854 H 379.126 -6.06938 0.667693 0
M  V30 3855 H 380.54 -5.05688 2.70098 0
M  V30 3856 H 378.937 -4.89254 3.47491 0
M  V30 3857 H 380.007 -3.4826 3.37406 0
M  V30 3858 N 381.35 -0.985608 -1.22978 0
M  V30 3859 C 382.596 -0.667998 -1.92118 0
M  V30 3860 C 382.951 0.790454 -1.75413 0
M  V30 3861 O 382.244 1.56336 -1.10768 0
M  V30 3862 C 382.438 -1.00014 -3.43121 0
M  V30 3863 C 382.267 -2.48933 -3.74516 0
M  V30 3864 C 381.037 -3.15218 -3.94925 0
M  V30 3865 C 383.235 -3.47024 -3.79577 0
M  V30 3866 N 381.217 -4.53689 -4.13569 0
M  V30 3867 C 382.588 -4.70923 -4.03276 0
M  V30 3868 C 384.643 -3.41432 -3.62393 0
M  V30 3869 C 383.346 -5.89914 -4.11574 0
M  V30 3870 C 385.372 -4.59793 -3.71947 0
M  V30 3871 C 384.734 -5.82489 -3.96088 0
M  V30 3872 H 380.833 -0.295589 -0.723983 0
M  V30 3873 H 383.417 -1.26413 -1.4808 0
M  V30 3874 H 381.588 -0.432655 -3.85983 0
M  V30 3875 H 383.32 -0.63927 -3.99619 0
M  V30 3876 H 380.075 -2.65702 -3.92045 0
M  V30 3877 H 380.499 -5.25492 -4.26834 0
M  V30 3878 H 385.141 -2.47594 -3.4272 0
M  V30 3879 H 382.859 -6.84164 -4.30053 0
M  V30 3880 H 386.445 -4.57048 -3.59998 0
M  V30 3881 H 385.325 -6.72546 -4.033 0
M  V30 3882 N 382.828 1.3818 -0.7579 0
M  V30 3883 C 383.778 2.27741 -0.108674 0
M  V30 3884 C 384.762 1.45415 0.688709 0
M  V30 3885 O 385.954 1.68108 0.553956 0
M  V30 3886 C 383.083 3.34313 0.780367 0
M  V30 3887 C 382.169 4.24093 -0.0240977 0
M  V30 3888 N 382.56 4.9451 -1.06271 0
M  V30 3889 C 380.858 4.45542 0.202049 0
M  V30 3890 C 381.559 5.60675 -1.54979 0
M  V30 3891 N 380.535 5.36684 -0.864348 0
M  V30 3892 H 384.337 2.79649 -0.904071 0
M  V30 3893 H 381.851 1.51133 -0.594346 0
M  V30 3894 H 383.848 3.97368 1.26114 0
M  V30 3895 H 382.508 2.83962 1.57467 0
M  V30 3896 H 383.519 4.97345 -1.44459 0
M  V30 3897 H 380.196 4.06091 0.96935 0
M  V30 3898 H 381.586 6.26992 -2.41517 0
M  V30 3899 N 384.306 0.507319 1.49211 0
M  V30 3900 C 385.555 -0.0368315 2.01666 0
M  V30 3901 C 385.868 -1.37459 1.39156 0
M  V30 3902 O 387.074 -2.00579 1.82976 0
M  V30 3903 C 385.53 -0.116089 3.59713 0
M  V30 3904 C 385.138 1.2154 4.31198 0
M  V30 3905 C 386.882 -0.610268 4.2009 0
M  V30 3906 C 384.789 1.09796 5.81119 0
M  V30 3907 H 383.719 -0.0175376 0.753796 0
M  V30 3908 H 386.37 0.647691 1.71689 0
M  V30 3909 H 384.752 -0.8652 3.86433 0
M  V30 3910 H 385.926 1.9783 4.16173 0
M  V30 3911 H 384.241 1.64352 3.82593 0
M  V30 3912 H 386.838 -0.715742 5.29888 0
M  V30 3913 H 387.181 -1.61064 3.8388 0
M  V30 3914 H 387.714 0.0824916 3.97714 0
M  V30 3915 H 384.453 2.0728 6.21864 0
M  V30 3916 H 383.973 0.376058 5.9862 0
M  V30 3917 H 385.652 0.779281 6.4229 0
M  V30 3918 N 385.784 -1.5574 0.241426 0
M  V30 3919 C 387.032 -1.98417 -0.384075 0
M  V30 3920 C 387.353 -1.13078 -1.58866 0
M  V30 3921 O 386.623 -0.212312 -1.94746 0
M  V30 3922 H 385.203 -0.732813 -0.144894 0
M  V30 3923 H 387.865 -1.9193 0.338943 0
M  V30 3924 H 386.961 -3.04219 -0.696939 0
M  V30 3925 N 387.262 0.0317525 -1.57568 0
M  V30 3926 C 388.678 0.38735 -1.54828 0
M  V30 3927 C 388.878 1.7677 -0.967187 0
M  V30 3928 O 387.934 2.45581 -0.587063 0
M  V30 3929 C 389.247 0.291667 -2.99282 0
M  V30 3930 C 390.795 0.368946 -3.10818 0
M  V30 3931 C 391.27 0.302741 -4.56998 0
M  V30 3932 N 392.761 0.361617 -4.61786 0
M  V30 3933 C 393.496 0.333238 -5.72431 0
M  V30 3934 N 392.992 0.257308 -6.92322 0
M  V30 3935 N 394.785 0.382769 -5.60795 0
M  V30 3936 H 386.936 -0.871609 -1.93692 0
M  V30 3937 H 389.199 -0.331161 -0.888277 0
M  V30 3938 H 388.905 -0.656794 -3.45513 0
M  V30 3939 H 388.779 1.08638 -3.61217 0
M  V30 3940 H 391.166 1.30784 -2.64536 0
M  V30 3941 H 391.247 -0.455066 -2.5172 0
M  V30 3942 H 390.891 -0.632473 -5.03947 0
M  V30 3943 H 390.821 1.14482 -5.14005 0
M  V30 3944 H 393.312 0.422923 -3.75526 0
M  V30 3945 H 393.625 0.24068 -7.72425 0
M  V30 3946 H 391.97 0.223396 -6.94641 0
M  V30 3947 H 395.161 0.44006 -4.66027 0
M  V30 3948 H 395.334 0.357184 -6.47015 0
M  V30 3949 N 388.74 1.54641 0.303973 0
M  V30 3950 C 389.65 1.88439 1.39743 0
M  V30 3951 C 390.666 0.778239 1.55626 0
M  V30 3952 O 391.842 1.07442 1.70347 0
M  V30 3953 C 388.907 2.12212 2.74166 0
M  V30 3954 C 387.968 3.35936 2.67293 0
M  V30 3955 C 387.201 3.58566 3.95305 0
M  V30 3956 O 387.424 2.84263 4.9452 0
M  V30 3957 O 386.358 4.52078 3.97378 0
M  V30 3958 H 390.184 2.81458 1.14083 0
M  V30 3959 H 387.769 1.40793 0.499768 0
M  V30 3960 H 389.651 2.29067 3.53704 0
M  V30 3961 H 388.326 1.22379 2.99675 0
M  V30 3962 H 387.233 3.24448 1.86237 0
M  V30 3963 H 388.566 4.2589 2.46736 0
M  V30 3964 N 390.218 -0.567019 1.47046 0
M  V30 3965 C 391.466 -1.322 1.52864 0
M  V30 3966 C 391.787 -1.94088 0.188388 0
M  V30 3967 O 391.057 -1.7941 -0.786693 0
M  V30 3968 H 389.637 -0.490894 0.563056 0
M  V30 3969 H 392.299 -0.662879 1.83281 0
M  V30 3970 H 391.395 -2.12062 2.2899 0
M  V30 3971 N 391.696 -1.35014 -0.812953 0
M  V30 3972 C 392.659 -1.27292 -1.90602 0
M  V30 3973 C 393.659 -0.185817 -1.59723 0
M  V30 3974 O 394.849 -0.439102 -1.68575 0
M  V30 3975 C 391.981 -0.967676 -3.26877 0
M  V30 3976 H 393.174 -2.24479 -1.9887 0
M  V30 3977 H 390.727 -1.19446 -1.00808 0
M  V30 3978 H 391.462 0.0005954 -3.243 0
M  V30 3979 H 391.247 -1.75412 -3.50675 0
M  V30 3980 H 392.737 -0.939085 -4.06904 0
M  V30 3981 N 393.175 1.03435 -1.18907 0
M  V30 3982 C 394.108 2.11162 -0.86521 0
M  V30 3983 C 395.086 1.6165 0.175473 0
M  V30 3984 O 396.27 1.88425 0.0530129 0
M  V30 3985 C 393.397 3.37423 -0.293868 0
M  V30 3986 C 392.443 4.05795 -1.31274 0
M  V30 3987 S 393.276 4.52027 -2.8711 0
M  V30 3988 C 394.432 5.81513 -2.31504 0
M  V30 3989 H 394.665 2.38308 -1.77754 0
M  V30 3990 H 392.198 1.16295 -1.01562 0
M  V30 3991 H 394.156 4.1049 0.0292572 0
M  V30 3992 H 392.817 3.0838 0.596682 0
M  V30 3993 H 392.01 4.96574 -0.86198 0
M  V30 3994 H 391.612 3.38874 -1.58242 0
M  V30 3995 H 393.904 6.55784 -1.70157 0
M  V30 3996 H 394.847 6.3136 -3.20608 0
M  V30 3997 H 395.255 5.36921 -1.74286 0
M  V30 3998 N 394.653 0.992116 1.22453 0
M  V30 3999 C 395.583 0.561677 2.26644 0
M  V30 4000 C 396.564 -0.411055 1.65059 0
M  V30 4001 O 397.749 -0.301861 1.9184 0
M  V30 4002 C 394.879 -0.125247 3.47074 0
M  V30 4003 C 393.833 0.765948 4.21091 0
M  V30 4004 C 393.159 -0.0538484 5.34673 0
M  V30 4005 C 394.459 2.06242 4.79856 0
M  V30 4006 H 396.153 1.43259 2.62902 0
M  V30 4007 H 393.699 0.690283 1.26377 0
M  V30 4008 H 395.652 -0.437764 4.1912 0
M  V30 4009 H 394.376 -1.03069 3.0991 0
M  V30 4010 H 393.035 1.0621 3.50878 0
M  V30 4011 H 392.683 -0.960188 4.9375 0
M  V30 4012 H 392.383 0.539415 5.85119 0
M  V30 4013 H 393.907 -0.360477 6.09535 0
M  V30 4014 H 395.321 1.8139 5.43848 0
M  V30 4015 H 393.718 2.60444 5.40638 0
M  V30 4016 H 394.788 2.74167 3.99951 0
M  V30 4017 N 396.131 -1.37776 0.765217 0
M  V30 4018 C 397.078 -2.30342 0.145274 0
M  V30 4019 C 398.048 -1.5077 -0.696971 0
M  V30 4020 O 399.233 -1.79362 -0.650689 0
M  V30 4021 C 396.373 -3.37227 -0.732939 0
M  V30 4022 C 395.486 -4.31819 0.125199 0
M  V30 4023 C 394.621 -5.25777 -0.757107 0
M  V30 4024 C 393.66 -6.12012 0.103963 0
M  V30 4025 N 392.797 -6.98232 -0.735953 0
M  V30 4026 H 397.637 -2.8278 0.940195 0
M  V30 4027 H 395.174 -1.39211 0.475255 0
M  V30 4028 H 397.132 -3.97818 -1.25686 0
M  V30 4029 H 395.762 -2.86171 -1.49353 0
M  V30 4030 H 394.814 -3.7259 0.766865 0
M  V30 4031 H 396.126 -4.92509 0.789683 0
M  V30 4032 H 395.28 -5.91541 -1.34776 0
M  V30 4033 H 394.019 -4.65481 -1.45529 0
M  V30 4034 H 393.024 -5.45233 0.707197 0
M  V30 4035 H 394.249 -6.74379 0.799381 0
M  V30 4036 H 392.195 -6.40472 -1.41887 0
M  V30 4037 H 392.112 -7.55891 -0.128624 0
M  V30 4038 H 393.38 -7.68393 -1.31121 0
M  V30 4039 N 397.609 -0.515225 -1.4894 0
M  V30 4040 C 398.849 0.0223983 -2.04388 0
M  V30 4041 C 399.213 1.32961 -1.38511 0
M  V30 4042 O 400.414 1.95236 -1.8476 0
M  V30 4043 C 398.685 0.157056 -3.57055 0
M  V30 4044 S 400.244 0.646875 -4.34006 0
M  V30 4045 H 397.062 -0.00500662 -0.710982 0
M  V30 4046 H 399.664 -0.69243 -1.82827 0
M  V30 4047 H 398.368 -0.799412 -4.02539 0
M  V30 4048 H 397.899 0.896704 -3.83044 0
M  V30 4049 H 399.914 1.91381 -4.57808 0
M  V30 4050 N 399.087 1.5561 -0.249682 0
M  V30 4051 C 400.017 2.24477 0.642826 0
M  V30 4052 C 400.998 1.22601 1.17911 0
M  V30 4053 O 402.183 1.5126 1.21795 0
M  V30 4054 C 399.313 2.94638 1.83863 0
M  V30 4055 C 398.267 4.03227 1.435 0
M  V30 4056 C 397.593 4.60828 2.71186 0
M  V30 4057 C 398.893 5.18796 0.604002 0
M  V30 4058 H 400.587 2.99321 0.0685625 0
M  V30 4059 H 398.133 1.43965 0.0315363 0
M  V30 4060 H 400.086 3.41517 2.46868 0
M  V30 4061 H 398.81 2.17287 2.43832 0
M  V30 4062 H 397.469 3.57121 0.828275 0
M  V30 4063 H 397.117 3.80174 3.29358 0
M  V30 4064 H 396.817 5.34132 2.44901 0
M  V30 4065 H 398.341 5.10442 3.35084 0
M  V30 4066 H 399.755 5.61883 1.13842 0
M  V30 4067 H 398.152 5.98506 0.437097 0
M  V30 4068 H 399.222 4.83384 -0.383147 0
M  V30 4069 N 400.565 -0.0233959 1.57583 0
M  V30 4070 C 401.79 -0.728376 1.94189 0
M  V30 4071 C 402.215 -1.67793 0.850119 0
M  V30 4072 O 401.573 -1.80262 -0.19371 0
M  V30 4073 C 401.621 -1.45669 3.29868 0
M  V30 4074 O 400.725 -2.57013 3.22518 0
M  V30 4075 H 400.066 -0.195493 0.63457 0
M  V30 4076 H 402.596 0.0228214 2.04587 0
M  V30 4077 H 402.606 -1.82535 3.6489 0
M  V30 4078 H 401.281 -0.760314 4.08891 0
M  V30 4079 H 399.858 -2.22648 2.99136 0
M  V30 4080 N 402.043 -1.548 -0.295768 0
M  V30 4081 C 402.953 -1.89177 -1.38742 0
M  V30 4082 C 403.969 -0.786481 -1.55211 0
M  V30 4083 O 405.145 -1.08344 -1.69775 0
M  V30 4084 C 402.21 -2.13663 -2.73036 0
M  V30 4085 C 401.271 -3.37349 -2.65508 0
M  V30 4086 C 400.504 -3.60658 -3.93398 0
M  V30 4087 O 400.727 -2.86882 -4.93006 0
M  V30 4088 O 399.661 -4.54179 -3.94975 0
M  V30 4089 H 403.487 -2.82059 -1.12589 0
M  V30 4090 H 401.072 -1.41056 -0.492295 0
M  V30 4091 H 402.954 -2.3094 -3.52484 0
M  V30 4092 H 401.629 -1.23967 -2.99022 0
M  V30 4093 H 400.536 -3.25431 -1.84514 0
M  V30 4094 H 401.869 -4.27192 -2.44474 0
M  V30 4095 N 403.521 0.559213 -1.47345 0
M  V30 4096 C 404.769 1.31388 -1.53563 0
M  V30 4097 C 405.09 1.93985 -0.198678 0
M  V30 4098 O 404.36 1.79825 0.777167 0
M  V30 4099 H 402.94 0.487901 -0.565652 0
M  V30 4100 H 405.602 0.65315 -1.8363 0
M  V30 4101 H 404.698 2.10844 -2.30111 0
M  V30 4102 N 404.999 1.35443 0.805782 0
M  V30 4103 C 405.931 1.24285 1.92577 0
M  V30 4104 C 406.944 0.165962 1.61952 0
M  V30 4105 O 408.133 0.419303 1.73505 0
M  V30 4106 C 405.233 0.891272 3.2697 0
M  V30 4107 C 404.406 2.06669 3.85495 0
M  V30 4108 C 403.465 1.69077 4.98297 0
M  V30 4109 O 402.491 2.4096 5.15681 0
M  V30 4110 N 403.693 0.614869 5.77234 0
M  V30 4111 H 406.458 2.20777 2.02676 0
M  V30 4112 H 404.019 1.28623 0.983243 0
M  V30 4113 H 406.011 0.621256 3.99903 0
M  V30 4114 H 404.581 0.016004 3.12596 0
M  V30 4115 H 403.801 2.50046 3.04747 0
M  V30 4116 H 405.089 2.85237 4.21328 0
M  V30 4117 H 404.487 0.017648 5.65697 0
M  V30 4118 H 403.044 0.404636 6.50543 0
M  V30 4119 N 406.477 -1.02803 1.19454 0
M  V30 4120 C 407.888 -1.57667 0.999899 0
M  V30 4121 C 408.239 -1.91041 -0.446956 0
M  V30 4122 O 407.364 -1.70978 -1.32648 0
M  V30 4123 C 407.959 -2.86477 1.80877 0
M  V30 4124 C 406.518 -3.37911 1.65811 0
M  V30 4125 C 405.665 -2.11343 1.79526 0
M  V30 4126 H 408.616 -0.853214 1.33813 0
M  V30 4127 H 408.637 -3.57408 1.30536 0
M  V30 4128 H 408.149 -2.62155 2.86175 0
M  V30 4129 H 406.25 -3.67218 0.63102 0
M  V30 4130 H 406.363 -4.10885 2.46395 0
M  V30 4131 H 404.727 -2.23254 1.22596 0
M  V30 4132 H 405.51 -1.89461 2.86285 0
M  V30 4133 N 407.956 -0.998596 -1.21925 0
M  V30 4134 C 409.367 -0.711939 -1.72593 0
M  V30 4135 C 409.718 0.770842 -1.80423 0
M  V30 4136 O 408.843 1.60237 -1.4544 0
M  V30 4137 C 409.438 -1.28567 -3.13458 0
M  V30 4138 C 407.997 -1.04828 -3.61508 0
M  V30 4139 C 407.144 -1.4024 -2.39224 0
M  V30 4140 H 410.095 -1.17027 -1.07193 0
M  V30 4141 H 410.116 -0.667098 -3.74607 0
M  V30 4142 H 409.628 -2.36486 -3.07727 0
M  V30 4143 H 407.729 0.0140383 -3.72597 0
M  V30 4144 H 407.842 -1.71566 -4.47328 0
M  V30 4145 H 406.206 -0.821077 -2.41103 0
M  V30 4146 H 406.989 -2.49176 -2.36149 0
M  V30 4147 N 409.434 1.37368 -0.772513 0
M  V30 4148 C 410.845 1.8231 -0.402493 0
M  V30 4149 C 411.196 1.6436 1.07146 0
M  V30 4150 O 410.321 1.15514 1.82991 0
M  V30 4151 C 410.916 3.30979 -0.723776 0
M  V30 4152 C 409.475 3.74195 -0.406802 0
M  V30 4153 C 408.622 2.59885 -0.967218 0
M  V30 4154 H 411.573 1.25829 -0.967099 0
M  V30 4155 H 411.594 3.80499 -0.00870832 0
M  V30 4156 H 411.106 3.44011 -1.7966 0
M  V30 4157 H 409.207 3.66732 0.658673 0
M  V30 4158 H 409.32 4.7027 -0.915588 0
M  V30 4159 H 407.684 2.51674 -0.391416 0
M  V30 4160 H 408.467 2.7571 -2.04546 0
M  V30 4161 N 410.912 0.523116 1.48665 0
M  V30 4162 C 412.137 -0.0117284 2.07397 0
M  V30 4163 C 412.562 -1.28031 1.37803 0
M  V30 4164 O 411.92 -1.75836 0.441762 0
M  V30 4165 C 411.968 -0.225786 3.59892 0
M  V30 4166 O 411.072 -1.29592 3.91509 0
M  V30 4167 H 410.413 0.0360673 0.66302 0
M  V30 4168 H 412.943 0.729066 1.9117 0
M  V30 4169 H 412.953 -0.450552 4.05505 0
M  V30 4170 H 411.628 0.700944 4.09951 0
M  V30 4171 H 410.205 -1.05436 3.57684 0
M  V30 4172 N 412.39 -1.55475 0.257931 0
M  V30 4173 C 413.62 -2.03314 -0.367026 0
M  V30 4174 C 414.028 -1.13625 -1.51281 0
M  V30 4175 O 413.371 -0.145334 -1.83124 0
M  V30 4176 C 413.433 -3.47362 -0.926284 0
M  V30 4177 C 413.097 -4.56914 0.0886584 0
M  V30 4178 C 414.094 -5.12013 0.902123 0
M  V30 4179 C 411.779 -5.01827 0.217936 0
M  V30 4180 C 413.773 -6.10529 1.83122 0
M  V30 4181 C 411.46 -6.00172 1.15052 0
M  V30 4182 C 412.458 -6.54402 1.95568 0
M  V30 4183 O 412.146 -7.50827 2.87253 0
M  V30 4184 H 411.878 -0.669976 -0.0900443 0
M  V30 4185 H 414.432 -2.01804 0.382673 0
M  V30 4186 H 412.662 -3.46056 -1.72575 0
M  V30 4187 H 414.351 -3.78637 -1.46249 0
M  V30 4188 H 415.117 -4.78139 0.812891 0
M  V30 4189 H 410.996 -4.59272 -0.398721 0
M  V30 4190 H 414.54 -6.52783 2.46008 0
M  V30 4191 H 410.437 -6.33465 1.24064 0
M  V30 4192 H 411.205 -7.68483 2.81739 0
M  V30 4193 N 413.868 0.0150385 -1.57593 0
M  V30 4194 C 414.816 1.02958 -2.08572 0
M  V30 4195 C 415.81 1.36554 -1.00246 0
M  V30 4196 O 417.016 1.35295 -1.18724 0
M  V30 4197 H 413.391 0.349619 -0.665786 0
M  V30 4198 H 415.362 0.573932 -2.92829 0
M  V30 4199 C 414.111 2.31752 -2.59203 0
M  V30 4200 H 413.434 2.06765 -3.42182 0
M  V30 4201 H 414.874 3.01053 -2.98568 0
M  V30 4202 C 413.333 3.01692 -1.49945 0
M  V30 4203 O 413.863 3.92083 -0.873704 0
M  V30 4204 N 412.069 2.6326 -1.23056 0
M  V30 4205 H 411.616 1.89838 -1.74125 0
M  V30 4206 H 411.574 3.10372 -0.501685 0
M  V30 4207 N 415.346 1.54954 0.287554 0
M  V30 4208 C 416.592 1.76059 1.01856 0
M  V30 4209 C 416.947 0.547056 1.84459 0
M  V30 4210 O 416.24 -0.460442 1.85985 0
M  V30 4211 C 416.434 2.99833 1.94512 0
M  V30 4212 C 416.263 4.33108 1.21026 0
M  V30 4213 C 415.033 4.96632 0.931896 0
M  V30 4214 C 417.231 5.10694 0.607949 0
M  V30 4215 N 415.213 6.13668 0.168716 0
M  V30 4216 C 416.584 6.19996 -0.0217865 0
M  V30 4217 C 418.639 4.95236 0.514338 0
M  V30 4218 C 417.342 7.15524 -0.736092 0
M  V30 4219 C 419.368 5.91106 -0.186343 0
M  V30 4220 C 418.73 6.99786 -0.804875 0
M  V30 4221 H 414.829 0.696679 0.355193 0
M  V30 4222 H 417.413 1.92441 0.295741 0
M  V30 4223 H 415.584 2.84853 2.64033 0
M  V30 4224 H 417.316 3.09405 2.60865 0
M  V30 4225 H 414.071 4.57255 1.23348 0
M  V30 4226 H 414.495 6.76705 -0.199781 0
M  V30 4227 H 419.137 4.11328 0.978234 0
M  V30 4228 H 416.855 7.98964 -1.21172 0
M  V30 4229 H 420.441 5.81224 -0.258897 0
M  V30 4230 H 419.321 7.72694 -1.33843 0
M  V30 4231 N 416.824 -0.551391 1.4764 0
M  V30 4232 C 418.052 -1.33357 1.58189 0
M  V30 4233 C 418.467 -1.87342 0.234199 0
M  V30 4234 O 417.824 -1.65301 -0.77343 0
M  V30 4235 C 417.875 -2.49942 2.61173 0
M  V30 4236 O 417.596 -1.98187 3.90709 0
M  V30 4237 C 419.097 -3.42072 2.8196 0
M  V30 4238 H 416.317 -0.40631 0.533998 0
M  V30 4239 H 418.861 -0.667367 1.93304 0
M  V30 4240 H 417.016 -3.12489 2.28975 0
M  V30 4241 H 417.43 -2.74342 4.47031 0
M  V30 4242 H 418.904 -4.20278 3.57869 0
M  V30 4243 H 419.381 -3.95978 1.89995 0
M  V30 4244 H 419.987 -2.85336 3.15378 0
M  V30 4245 N 418.302 -1.35869 -0.798587 0
M  V30 4246 C 419.718 -1.16082 -1.09532 0
M  V30 4247 C 419.918 0.0213124 -2.01489 0
M  V30 4248 O 418.974 0.689488 -2.42904 0
M  V30 4249 C 420.287 -2.46748 -1.7186 0
M  V30 4250 C 421.835 -2.53028 -1.84244 0
M  V30 4251 C 422.31 -3.83758 -2.49988 0
M  V30 4252 N 423.801 -3.85053 -2.57465 0
M  V30 4253 C 424.536 -4.8294 -3.09122 0
M  V30 4254 N 424.032 -5.91217 -3.61157 0
M  V30 4255 N 425.825 -4.70369 -3.0775 0
M  V30 4256 H 417.976 -2.11571 -0.187461 0
M  V30 4257 H 420.239 -0.936726 -0.145765 0
M  V30 4258 H 419.945 -3.33471 -1.11759 0
M  V30 4259 H 419.819 -2.61883 -2.71472 0
M  V30 4260 H 422.206 -1.66729 -2.43486 0
M  V30 4261 H 422.287 -2.418 -0.834643 0
M  V30 4262 H 421.931 -4.70459 -1.91393 0
M  V30 4263 H 421.861 -3.92278 -3.5132 0
M  V30 4264 H 424.352 -3.06822 -2.20609 0
M  V30 4265 H 424.665 -6.61892 -3.98896 0
M  V30 4266 H 423.01 -5.94899 -3.59333 0
M  V30 4267 H 426.201 -3.84914 -2.66381 0
M  V30 4268 H 426.374 -5.46816 -3.47701 0
M  V30 4269 N 419.78 1.02168 -1.19998 0
M  V30 4270 C 420.71 2.12488 -0.96804 0
M  V30 4271 C 421.691 1.69799 0.101185 0
M  V30 4272 O 422.876 1.94121 -0.0552993 0
M  V30 4273 C 420.006 3.43479 -0.513776 0
M  V30 4274 C 418.96 3.99884 -1.52566 0
M  V30 4275 C 418.286 5.26582 -0.928214 0
M  V30 4276 C 419.586 4.33861 -2.90795 0
M  V30 4277 H 421.28 2.32149 -1.89069 0
M  V30 4278 H 418.826 1.11564 -0.910468 0
M  V30 4279 H 420.779 4.20036 -0.338774 0
M  V30 4280 H 419.503 3.23561 0.444493 0
M  V30 4281 H 418.162 3.25429 -1.68794 0
M  V30 4282 H 417.81 5.02986 0.0378289 0
M  V30 4283 H 417.51 5.65284 -1.60397 0
M  V30 4284 H 419.034 6.05799 -0.764167 0
M  V30 4285 H 420.448 5.01327 -2.78109 0
M  V30 4286 H 418.845 4.83664 -3.55231 0
M  V30 4287 H 419.915 3.42848 -3.42904 0
M  V30 4288 N 421.258 1.00505 1.21394 0
M  V30 4289 C 422.535 0.603277 1.86064 0
M  V30 4290 C 422.915 -0.919095 1.90042 0
M  V30 4291 O 422.263 -1.80607 1.39977 0
M  V30 4292 C 422.473 1.23772 3.26315 0
M  V30 4293 C 423.821 1.34586 4.02705 0
M  V30 4294 O 424.845 1.19304 3.35626 0
M  V30 4295 O 423.704 1.59169 5.22807 0
M  V30 4296 H 420.798 0.206634 0.800769 0
M  V30 4297 H 423.344 1.1017 1.29076 0
M  V30 4298 H 422.116 2.27848 3.18121 0
M  V30 4299 H 421.739 0.725648 3.90922 0
M  V30 4300 N 422.737 -1.36956 0.779787 0
M  V30 4301 C 423.985 -1.99097 0.347079 0
M  V30 4302 C 424.306 -1.62206 -1.08232 0
M  V30 4303 O 423.576 -0.891373 -1.74446 0
M  V30 4304 H 422.156 -0.736409 0.125342 0
M  V30 4305 H 424.818 -1.67308 0.999696 0
M  V30 4306 H 423.914 -3.09107 0.431162 0
M  V30 4307 N 424.215 -0.530993 -1.48385 0
M  V30 4308 C 425.626 -0.0907905 -1.86479 0
M  V30 4309 C 425.977 1.33213 -1.44044 0
M  V30 4310 O 425.102 1.99783 -0.831615 0
M  V30 4311 C 425.697 -0.157987 -3.38431 0
M  V30 4312 C 424.256 0.227026 -3.75715 0
M  V30 4313 C 423.403 -0.5173 -2.72432 0
M  V30 4314 H 426.354 -0.742186 -1.40276 0
M  V30 4315 H 426.375 0.630053 -3.75247 0
M  V30 4316 H 425.887 -1.19372 -3.69286 0
M  V30 4317 H 423.988 1.26486 -3.50474 0
M  V30 4318 H 424.101 -0.113288 -4.78966 0
M  V30 4319 H 422.465 0.0365527 -2.54674 0
M  V30 4320 H 423.248 -1.55368 -3.0613 0
M  V30 4321 N 425.693 1.55336 -0.266172 0
M  V30 4322 C 426.623 2.25146 0.618981 0
M  V30 4323 C 427.604 1.23845 1.16604 0
M  V30 4324 O 428.789 1.52544 1.20183 0
M  V30 4325 C 425.919 2.96572 1.80728 0
M  V30 4326 C 424.873 4.04726 1.39215 0
M  V30 4327 C 424.199 4.63678 2.66283 0
M  V30 4328 C 425.499 5.19407 0.548942 0
M  V30 4329 H 427.193 2.99377 0.0368116 0
M  V30 4330 H 424.739 1.43991 0.0162651 0
M  V30 4331 H 426.692 3.44116 2.43232 0
M  V30 4332 H 425.416 2.19861 2.41514 0
M  V30 4333 H 424.075 3.57979 0.790351 0
M  V30 4334 H 423.723 3.83646 3.25308 0
M  V30 4335 H 423.423 5.367 2.39222 0
M  V30 4336 H 424.947 5.13967 3.29651 0
M  V30 4337 H 426.361 5.63059 1.07876 0
M  V30 4338 H 424.758 5.98936 0.373593 0
M  V30 4339 H 425.828 4.8295 -0.434394 0
M  V30 4340 N 427.171 -0.0066808 1.57599 0
M  V30 4341 C 428.582 -0.550379 1.78403 0
M  V30 4342 C 428.933 -1.74339 0.900014 0
M  V30 4343 O 428.058 -2.16166 0.100713 0
M  V30 4344 C 428.653 -1.00523 3.23544 0
M  V30 4345 C 427.212 -1.49428 3.45468 0
M  V30 4346 C 426.359 -0.442444 2.73748 0
M  V30 4347 H 429.31 0.219508 1.57175 0
M  V30 4348 H 429.331 -1.87157 3.31289 0
M  V30 4349 H 428.843 -0.136735 3.87859 0
M  V30 4350 H 426.944 -2.3839 2.86358 0
M  V30 4351 H 427.057 -1.52635 4.54136 0
M  V30 4352 H 425.421 -0.902578 2.38171 0
M  V30 4353 H 426.204 0.416973 3.40758 0
M  V30 4354 N 428.649 -1.55105 -0.279332 0
M  V30 4355 C 429.874 -1.7976 -1.03446 0
M  V30 4356 C 430.299 -0.565952 -1.79384 0
M  V30 4357 O 429.657 0.484259 -1.74713 0
M  V30 4358 C 429.705 -3.0179 -1.97371 0
M  V30 4359 O 428.809 -2.76432 -3.06038 0
M  V30 4360 H 428.15 -0.594334 -0.29608 0
M  V30 4361 H 430.68 -2.02235 -0.310165 0
M  V30 4362 H 430.69 -3.30351 -2.39441 0
M  V30 4363 H 429.365 -3.91085 -1.4151 0
M  V30 4364 H 427.942 -2.58949 -2.68328 0
M  V30 4365 N 430.127 0.543554 -1.4793 0
M  V30 4366 C 431.375 1.29752 -1.54948 0
M  V30 4367 C 431.696 1.93764 -0.219242 0
M  V30 4368 O 430.966 1.80639 0.75805 0
M  V30 4369 H 429.546 0.481874 -0.570795 0
M  V30 4370 H 432.208 0.633636 -1.84312 0
M  V30 4371 H 431.304 2.08392 -2.32334 0
M  V30 4372 N 431.605 1.3629 0.791371 0
M  V30 4373 C 432.851 1.30605 1.55146 0
M  V30 4374 C 433.184 -0.115042 1.93859 0
M  V30 4375 O 432.459 -1.06798 1.62556 0
M  V30 4376 C 432.742 2.22692 2.82985 0
M  V30 4377 C 432.595 3.73489 2.50651 0
M  V30 4378 C 433.914 2.13588 3.84796 0
M  V30 4379 H 431.033 0.475761 0.562868 0
M  V30 4380 H 433.675 1.66825 0.909358 0
M  V30 4381 H 431.825 1.91933 3.37778 0
M  V30 4382 H 433.497 4.14758 2.01924 0
M  V30 4383 H 431.74 3.93021 1.83622 0
M  V30 4384 H 432.411 4.3333 3.41949 0
M  V30 4385 H 434.887 2.40659 3.39445 0
M  V30 4386 H 433.763 2.80195 4.71998 0
M  V30 4387 H 434.024 1.12256 4.27611 0
M  V30 4388 N 433.083 -1.0153 1.20538 0
M  V30 4389 C 434.499 -1.27461 0.96051 0
M  V30 4390 C 434.699 -1.98273 -0.359193 0
M  V30 4391 O 433.755 -2.27886 -1.0874 0
M  V30 4392 C 435.068 -2.10837 2.14402 0
M  V30 4393 C 436.616 -2.24099 2.18515 0
M  V30 4394 C 437.091 -3.10852 3.36355 0
M  V30 4395 N 438.582 -3.18441 3.36377 0
M  V30 4396 C 439.317 -3.85795 4.24205 0
M  V30 4397 N 438.813 -4.55264 5.22213 0
M  V30 4398 N 440.606 -3.82331 4.12043 0
M  V30 4399 H 432.757 -0.539907 2.05423 0
M  V30 4400 H 435.02 -0.30092 0.898972 0
M  V30 4401 H 434.726 -1.66144 3.09983 0
M  V30 4402 H 434.6 -3.11576 2.12604 0
M  V30 4403 H 436.987 -2.68016 1.23497 0
M  V30 4404 H 437.068 -1.22865 2.24361 0
M  V30 4405 H 436.712 -2.6764 4.31661 0
M  V30 4406 H 436.642 -4.12177 3.27746 0
M  V30 4407 H 439.133 -2.68978 2.65442 0
M  V30 4408 H 439.446 -5.04331 5.85551 0
M  V30 4409 H 437.791 -4.54085 5.26148 0
M  V30 4410 H 440.982 -3.27207 3.34743 0
M  V30 4411 H 441.155 -4.34547 4.807 0
M  V30 4412 N 434.561 -1.01147 -1.20859 0
M  V30 4413 C 435.807 -0.698899 -1.90377 0
M  V30 4414 C 436.14 0.76904 -1.78324 0
M  V30 4415 O 435.415 1.55817 -1.16409 0
M  V30 4416 C 435.698 -1.12878 -3.41951 0
M  V30 4417 C 435.551 -2.65665 -3.62963 0
M  V30 4418 C 436.87 -0.696114 -4.3456 0
M  V30 4419 H 433.989 -0.255372 -0.691342 0
M  V30 4420 H 436.631 -1.25831 -1.42361 0
M  V30 4421 H 434.781 -0.652827 -3.82976 0
M  V30 4422 H 436.453 -3.21074 -3.31224 0
M  V30 4423 H 434.696 -3.06878 -3.06608 0
M  V30 4424 H 435.367 -2.90797 -4.69192 0
M  V30 4425 H 437.843 -1.10521 -4.01154 0
M  V30 4426 H 436.719 -1.025 -5.39245 0
M  V30 4427 H 436.98 0.402465 -4.40264 0
M  V30 4428 N 436.039 1.36541 -0.78704 0
M  V30 4429 C 437.316 1.9355 -0.282424 0
M  V30 4430 C 437.696 1.71919 1.22503 0
M  V30 4431 O 437.044 1.07677 2.01539 0
M  V30 4432 C 437.254 3.4246 -0.672462 0
M  V30 4433 C 438.602 4.19582 -0.650863 0
M  V30 4434 O 439.626 3.50889 -0.612789 0
M  V30 4435 O 438.485 5.42106 -0.691623 0
M  V30 4436 H 435.579 0.824091 -0.0693 0
M  V30 4437 H 438.125 1.45736 -0.869423 0
M  V30 4438 H 436.897 3.51851 -1.71221 0
M  V30 4439 H 436.52 3.97556 -0.0592211 0
M  V30 4440 N 437.518 0.538854 1.48102 0
M  V30 4441 C 438.766 0.00798599 2.02098 0
M  V30 4442 C 439.087 -1.33922 1.41739 0
M  V30 4443 O 438.357 -1.86932 0.585934 0
M  V30 4444 H 436.937 -3.62179e-05 0.747 0
M  V30 4445 H 439.599 0.7047 1.81714 0
M  V30 4446 H 438.695 -0.0937672 3.11959 0
M  V30 4447 N 438.996 -1.55193 0.274407 0
M  V30 4448 C 440.273 -1.91584 -0.394331 0
M  V30 4449 C 440.653 -1.19858 -1.73774 0
M  V30 4450 O 440.001 -0.3252 -2.26174 0
M  V30 4451 C 440.211 -3.4487 -0.535311 0
M  V30 4452 C 441.559 -4.16636 -0.818534 0
M  V30 4453 O 442.583 -3.5076 -0.620146 0
M  V30 4454 O 441.442 -5.33209 -1.19792 0
M  V30 4455 H 438.536 -0.798349 -0.215794 0
M  V30 4456 H 441.082 -1.66646 0.320507 0
M  V30 4457 H 439.854 -3.89145 0.410141 0
M  V30 4458 H 439.477 -3.75759 -1.29964 0
M  V30 4459 N 440.474 -0.00167713 -1.576 0
M  V30 4460 C 441.702 0.693759 -1.94922 0
M  V30 4461 C 442.117 1.67215 -0.876626 0
M  V30 4462 O 441.474 1.81929 0.144279 0
M  V30 4463 C 441.525 1.42416 -3.32265 0
M  V30 4464 O 441.246 0.485014 -4.35407 0
M  V30 4465 C 442.747 2.21395 -3.84056 0
M  V30 4466 H 439.967 0.193118 -0.642609 0
M  V30 4467 H 442.511 -0.0532952 -2.04431 0
M  V30 4468 H 440.666 2.12284 -3.24059 0
M  V30 4469 H 441.08 1.00053 -5.14868 0
M  V30 4470 H 442.554 2.67996 -4.82578 0
M  V30 4471 H 443.031 3.04142 -3.16851 0
M  V30 4472 H 443.637 1.56542 -3.95443 0
M  V30 4473 N 441.952 1.55251 0.271103 0
M  V30 4474 C 442.882 1.9127 1.33933 0
M  V30 4475 C 443.863 0.77478 1.5143 0
M  V30 4476 O 445.048 1.03307 1.64442 0
M  V30 4477 C 442.178 2.18627 2.69851 0
M  V30 4478 C 441.132 3.34442 2.67081 0
M  V30 4479 C 440.458 3.47284 4.06569 0
M  V30 4480 C 441.758 4.70784 2.26185 0
M  V30 4481 H 443.452 2.80744 1.04035 0
M  V30 4482 H 440.998 1.35077 0.499017 0
M  V30 4483 H 442.951 2.42413 3.44694 0
M  V30 4484 H 441.675 1.25955 3.01335 0
M  V30 4485 H 440.334 3.10627 1.94695 0
M  V30 4486 H 439.982 2.52074 4.35279 0
M  V30 4487 H 439.682 4.25152 4.0561 0
M  V30 4488 H 441.206 3.73363 4.83148 0
M  V30 4489 H 442.62 4.94102 2.90751 0
M  V30 4490 H 441.017 5.51582 2.36384 0
M  V30 4491 H 442.087 4.69478 1.21319 0
M  V30 4492 N 443.43 -0.535701 1.48216 0
M  V30 4493 C 444.678 -1.28928 1.55634 0
M  V30 4494 C 444.999 -1.93645 0.229514 0
M  V30 4495 O 444.269 -1.81038 -0.74846 0
M  V30 4496 H 442.849 -0.47884 0.573342 0
M  V30 4497 H 445.511 -0.623853 1.84646 0
M  V30 4498 H 444.607 -2.07157 2.33436 0
M  V30 4499 N 444.908 -1.36708 -0.784132 0
M  V30 4500 C 446.155 -1.31231 -1.54222 0
M  V30 4501 C 446.483 0.106864 -1.94206 0
M  V30 4502 O 445.738 1.07734 -1.63376 0
M  V30 4503 C 446.037 -2.18571 -2.82774 0
M  V30 4504 C 445.703 -3.67039 -2.61903 0
M  V30 4505 C 444.365 -4.07503 -2.55919 0
M  V30 4506 C 446.717 -4.61149 -2.4288 0
M  V30 4507 C 444.045 -5.40211 -2.28886 0
M  V30 4508 C 446.397 -5.94081 -2.17373 0
M  V30 4509 C 445.061 -6.33664 -2.09825 0
M  V30 4510 H 444.331 -0.48021 -0.56434 0
M  V30 4511 H 446.978 -1.68807 -0.904233 0
M  V30 4512 H 445.283 -1.73949 -3.51068 0
M  V30 4513 H 446.98 -2.11655 -3.40592 0
M  V30 4514 H 443.57 -3.34941 -2.67418 0
M  V30 4515 H 447.754 -4.30756 -2.46501 0
M  V30 4516 H 443.01 -5.69855 -2.21529 0
M  V30 4517 H 447.184 -6.66566 -2.01649 0
M  V30 4518 H 444.811 -7.36423 -1.88641 0
M  V30 4519 N 446.386 1.0089 -1.21074 0
M  V30 4520 C 447.797 1.56056 -1.02486 0
M  V30 4521 C 448.148 1.91728 0.416506 0
M  V30 4522 O 447.273 1.73066 1.29912 0
M  V30 4523 C 447.868 2.83563 -1.85411 0
M  V30 4524 C 446.427 3.3523 -1.71166 0
M  V30 4525 C 445.574 2.0846 -1.82865 0
M  V30 4526 H 448.525 0.831818 -1.35154 0
M  V30 4527 H 448.546 3.55286 -1.36205 0
M  V30 4528 H 448.058 2.57569 -2.9031 0
M  V30 4529 H 446.159 3.66167 -0.689361 0
M  V30 4530 H 446.272 4.06913 -2.52901 0
M  V30 4531 H 444.636 2.21275 -1.26132 0
M  V30 4532 H 445.419 1.84883 -2.89263 0
M  V30 4533 N 447.864 1.01787 1.20321 0
M  V30 4534 C 449.275 0.739307 1.71438 0
M  V30 4535 C 449.626 -0.742041 1.81627 0
M  V30 4536 O 448.751 -1.57903 1.47971 0
M  V30 4537 C 449.346 1.33538 3.11373 0
M  V30 4538 C 447.905 1.10566 3.59795 0
M  V30 4539 C 447.052 1.44028 2.36962 0
M  V30 4540 H 450.003 1.18718 1.05317 0
M  V30 4541 H 450.024 0.726611 3.73498 0
M  V30 4542 H 449.536 2.41352 3.03926 0
M  V30 4543 H 447.637 0.0452405 3.72573 0
M  V30 4544 H 447.75 1.78661 4.44542 0
M  V30 4545 H 446.114 0.85933 2.39766 0
M  V30 4546 H 446.897 2.52901 2.32155 0
M  V30 4547 N 449.342 -1.36122 0.79427 0
M  V30 4548 C 450.272 -2.32551 0.210328 0
M  V30 4549 C 451.253 -1.56884 -0.657386 0
M  V30 4550 O 452.438 -1.85014 -0.590207 0
M  V30 4551 C 449.568 -3.41128 -0.651819 0
M  V30 4552 C 448.522 -4.27842 0.116395 0
M  V30 4553 C 447.848 -5.2763 -0.86666 0
M  V30 4554 C 449.148 -5.05647 1.30837 0
M  V30 4555 H 450.842 -2.81636 1.01594 0
M  V30 4556 H 448.388 -1.35407 0.489981 0
M  V30 4557 H 450.341 -4.07581 -1.07031 0
M  V30 4558 H 449.065 -2.90622 -1.49019 0
M  V30 4559 H 447.724 -3.62952 0.515915 0
M  V30 4560 H 447.372 -4.73395 -1.70019 0
M  V30 4561 H 447.072 -5.86514 -0.35705 0
M  V30 4562 H 448.596 -5.96955 -1.28361 0
M  V30 4563 H 450.01 -5.65113 0.965393 0
M  V30 4564 H 448.407 -5.73967 1.75161 0
M  V30 4565 H 449.477 -4.37006 2.10128 0
M  V30 4566 N 450.82 -0.546701 -1.47814 0
M  V30 4567 C 452.048 -0.0232857 -2.06887 0
M  V30 4568 C 452.463 1.26571 -1.4009 0
M  V30 4569 O 451.82 1.7569 -0.493906 0
M  V30 4570 C 451.871 0.186975 -3.61016 0
M  V30 4571 O 451.592 -1.05097 -4.25307 0
M  V30 4572 C 453.093 0.748872 -4.36929 0
M  V30 4573 H 450.313 -0.0410763 -0.669742 0
M  V30 4574 H 452.857 -0.757117 -1.89968 0
M  V30 4575 H 451.012 0.870903 -3.77484 0
M  V30 4576 H 451.426 -0.842121 -5.17695 0
M  V30 4577 H 452.9 0.845334 -5.45489 0
M  V30 4578 H 453.377 1.75772 -4.02493 0
M  V30 4579 H 453.983 0.100979 -4.2518 0
M  V30 4580 N 452.299 1.55045 -0.282633 0
M  V30 4581 C 453.527 2.04168 0.33512 0
M  V30 4582 C 453.942 1.16071 1.48906 0
M  V30 4583 O 453.299 0.182391 1.81586 0
M  V30 4584 C 453.35 3.52332 0.808957 0
M  V30 4585 O 453.071 4.37078 -0.299038 0
M  V30 4586 C 454.572 4.17375 1.49375 0
M  V30 4587 H 451.792 0.666744 0.0754543 0
M  V30 4588 H 454.336 2.00205 -0.416918 0
M  V30 4589 H 452.491 3.56715 1.51106 0
M  V30 4590 H 452.905 5.24458 0.0665514 0
M  V30 4591 H 454.379 5.22627 1.77664 0
M  V30 4592 H 454.856 3.65999 2.42778 0
M  V30 4593 H 455.462 4.17016 0.835305 0
M  V30 4594 N 453.777 0.010035 1.57597 0
M  V30 4595 C 454.687 -0.994226 2.12491 0
M  V30 4596 C 455.703 -1.37013 1.07254 0
M  V30 4597 O 456.879 -1.45542 1.3921 0
M  V30 4598 C 453.944 -2.2642 2.62555 0
M  V30 4599 C 453.005 -1.95049 3.82432 0
M  V30 4600 C 452.238 -3.15991 4.30099 0
M  V30 4601 O 452.461 -4.28015 3.7704 0
M  V30 4602 O 451.395 -2.99403 5.22151 0
M  V30 4603 H 455.221 -0.557549 2.98538 0
M  V30 4604 H 452.806 -0.209413 1.47925 0
M  V30 4605 H 454.688 -3.01009 2.9491 0
M  V30 4606 H 453.363 -2.69306 1.796 0
M  V30 4607 H 452.27 -1.17904 3.55034 0
M  V30 4608 H 453.603 -1.56992 4.66491 0
M  V30 4609 N 455.255 -1.55392 -0.262866 0
M  V30 4610 C 456.205 -1.85355 -1.32768 0
M  V30 4611 C 457.189 -0.713188 -1.44231 0
M  V30 4612 O 458.381 -0.974765 -1.47741 0
M  V30 4613 C 455.51 -2.13781 -2.68612 0
M  V30 4614 C 454.596 -3.34104 -2.61219 0
M  V30 4615 N 454.987 -4.53766 -2.2345 0
M  V30 4616 C 453.285 -3.36895 -2.92263 0
M  V30 4617 C 453.986 -5.35877 -2.26298 0
M  V30 4618 N 452.962 -4.74536 -2.65172 0
M  V30 4619 H 456.764 -2.75413 -1.02591 0
M  V30 4620 H 454.278 -1.55405 -0.471503 0
M  V30 4621 H 456.275 -2.33407 -3.45437 0
M  V30 4622 H 454.935 -1.25013 -2.99669 0
M  V30 4623 H 455.946 -4.79682 -1.95258 0
M  V30 4624 H 452.623 -2.58351 -3.27965 0
M  V30 4625 H 454.013 -6.41577 -1.99572 0
M  V30 4626 N 456.733 0.527833 -1.48498 0
M  V30 4627 C 457.958 1.313 -1.60546 0
M  V30 4628 C 458.383 1.86199 -0.26672 0
M  V30 4629 O 457.741 1.64513 0.761918 0
M  V30 4630 C 457.789 2.43818 -2.65678 0
M  V30 4631 O 456.893 3.46916 -2.22987 0
M  V30 4632 H 456.234 0.388784 -0.538277 0
M  V30 4633 H 458.764 0.634896 -1.945 0
M  V30 4634 H 458.774 2.89973 -2.87018 0
M  V30 4635 H 457.449 2.03222 -3.62869 0
M  V30 4636 H 456.026 3.06864 -2.11869 0
M  V30 4637 N 458.211 1.37122 0.776871 0
M  V30 4638 C 459.459 1.31787 1.53221 0
M  V30 4639 C 459.78 -0.0987589 1.9475 0
M  V30 4640 O 459.05 -1.0417 1.65908 0
M  V30 4641 H 457.63 0.484839 0.568278 0
M  V30 4642 H 460.292 1.71556 0.924917 0
M  V30 4643 H 459.388 1.95355 2.43398 0
M  V30 4644 N 459.689 -1.00246 1.21608 0
M  V30 4645 C 460.938 -1.73476 1.02902 0
M  V30 4646 C 461.251 -1.90643 -0.437561 0
M  V30 4647 O 462.457 -2.61105 -0.74407 0
M  V30 4648 C 460.913 -3.12079 1.79261 0
M  V30 4649 C 460.521 -3.02877 3.30106 0
M  V30 4650 C 462.265 -3.89421 1.68972 0
M  V30 4651 C 460.172 -4.36575 3.98944 0
M  V30 4652 H 459.102 -0.650408 0.381425 0
M  V30 4653 H 461.753 -1.11985 1.45367 0
M  V30 4654 H 460.135 -3.74196 1.2959 0
M  V30 4655 H 461.309 -2.49983 3.87098 0
M  V30 4656 H 459.624 -2.39022 3.40965 0
M  V30 4657 H 462.221 -4.88362 2.17731 0
M  V30 4658 H 462.564 -4.1122 0.648397 0
M  V30 4659 H 463.097 -3.33963 2.16133 0
M  V30 4660 H 459.836 -4.19978 5.03288 0
M  V30 4661 H 459.356 -4.8942 3.4674 0
M  V30 4662 H 461.035 -5.05364 4.04 0
M  V30 4663 N 461.167 -1.02423 -1.1978 0
M  V30 4664 C 462.397 -0.736387 -1.93031 0
M  V30 4665 C 462.805 0.708023 -1.75453 0
M  V30 4666 O 462.148 1.4927 -1.07071 0
M  V30 4667 C 462.21 -1.00194 -3.45255 0
M  V30 4668 C 461.874 -2.43698 -3.86601 0
M  V30 4669 C 462.871 -3.41814 -3.91738 0
M  V30 4670 C 460.556 -2.77975 -4.18372 0
M  V30 4671 C 462.55 -4.72265 -4.28071 0
M  V30 4672 C 460.237 -4.08636 -4.54378 0
M  V30 4673 C 461.235 -5.05592 -4.59201 0
M  V30 4674 O 460.923 -6.33914 -4.94376 0
M  V30 4675 H 460.655 -0.269116 -0.620123 0
M  V30 4676 H 463.209 -1.37043 -1.52998 0
M  V30 4677 H 461.439 -0.310747 -3.85449 0
M  V30 4678 H 463.128 -0.704488 -3.9974 0
M  V30 4679 H 463.894 -3.16671 -3.67348 0
M  V30 4680 H 459.773 -2.0319 -4.13805 0
M  V30 4681 H 463.317 -5.4794 -4.3175 0
M  V30 4682 H 459.214 -4.33556 -4.78226 0
M  V30 4683 H 459.982 -6.38317 -5.12341 0
M  V30 4684 N 462.645 1.35699 -0.801477 0
M  V30 4685 C 463.891 1.99208 -0.380022 0
M  V30 4686 C 464.224 1.63445 1.04878 0
M  V30 4687 O 463.499 0.895223 1.72673 0
M  V30 4688 C 463.782 3.55755 -0.557708 0
M  V30 4689 C 463.635 4.01332 -2.03107 0
M  V30 4690 C 464.954 4.40096 0.0197968 0
M  V30 4691 H 462.073 0.723667 -0.139552 0
M  V30 4692 H 464.715 1.60928 -1.01006 0
M  V30 4693 H 462.865 3.88494 -0.0213741 0
M  V30 4694 H 464.537 3.79026 -2.62939 0
M  V30 4695 H 462.78 3.52429 -2.52936 0
M  V30 4696 H 463.451 5.10234 -2.1063 0
M  V30 4697 H 465.927 4.13786 -0.438179 0
M  V30 4698 H 464.803 5.48735 -0.134477 0
M  V30 4699 H 465.064 4.2786 1.11303 0
M  V30 4700 N 464.123 0.554532 1.47522 0
M  V30 4701 C 465.363 0.0317994 2.04375 0
M  V30 4702 C 465.727 -1.29242 1.41988 0
M  V30 4703 O 466.928 -1.90269 1.89872 0
M  V30 4704 C 465.199 -0.0623344 3.57346 0
M  V30 4705 S 466.758 -0.531578 4.35568 0
M  V30 4706 H 463.576 0.0238553 0.7106 0
M  V30 4707 H 466.178 0.74066 1.80927 0
M  V30 4708 H 464.882 0.905857 4.00278 0
M  V30 4709 H 464.413 -0.794831 3.85287 0
M  V30 4710 H 466.428 -1.79175 4.62721 0
M  V30 4711 N 465.601 -1.54893 0.290851 0
M  V30 4712 C 466.551 -2.19838 -0.604599 0
M  V30 4713 C 467.535 -1.16805 -1.10659 0
M  V30 4714 O 468.727 -1.42562 -1.04905 0
M  V30 4715 C 465.856 -2.93497 -1.78086 0
M  V30 4716 C 464.942 -4.03835 -1.29531 0
M  V30 4717 N 465.333 -5.03047 -0.527024 0
M  V30 4718 C 463.631 -4.17192 -1.57693 0
M  V30 4719 C 464.332 -5.81074 -0.269728 0
M  V30 4720 N 463.308 -5.36966 -0.846651 0
M  V30 4721 H 467.11 -2.93898 -0.00995032 0
M  V30 4722 H 464.624 -1.62121 0.0951353 0
M  V30 4723 H 466.621 -3.38484 -2.43381 0
M  V30 4724 H 465.281 -2.2095 -2.37931 0
M  V30 4725 H 466.292 -5.17611 -0.172872 0
M  V30 4726 H 462.969 -3.55845 -2.18359 0
M  V30 4727 H 464.359 -6.71005 0.346643 0
M  V30 4728 N 467.08 -0.0183926 -1.57589 0
M  V30 4729 C 468.326 0.663543 -1.91638 0
M  V30 4730 C 468.659 1.72392 -0.894134 0
M  V30 4731 O 467.934 1.94316 0.0846449 0
M  V30 4732 C 468.217 1.28984 -3.36207 0
M  V30 4733 C 468.07 0.239761 -4.49161 0
M  V30 4734 C 469.389 2.2109 -3.80536 0
M  V30 4735 H 466.508 0.239746 -0.696915 0
M  V30 4736 H 469.15 -0.073456 -1.89858 0
M  V30 4737 H 467.3 1.91799 -3.37854 0
M  V30 4738 H 468.972 -0.390119 -4.59647 0
M  V30 4739 H 467.215 -0.435972 -4.31604 0
M  V30 4740 H 467.886 0.717383 -5.47319 0
M  V30 4741 H 470.362 1.68273 -3.80557 0
M  V30 4742 H 469.238 2.61869 -4.82406 0
M  V30 4743 H 469.499 3.09764 -3.15434 0
M  V30 4744 N 468.558 1.5553 0.254621 0
M  V30 4745 C 469.783 1.81383 1.00573 0
M  V30 4746 C 470.208 0.594419 1.78461 0
M  V30 4747 O 469.566 -0.456403 1.75461 0
M  V30 4748 C 469.614 3.04892 1.92545 0
M  V30 4749 O 468.718 2.81266 3.01601 0
M  V30 4750 H 468.059 0.598969 0.286587 0
M  V30 4751 H 470.589 2.02703 0.277952 0
M  V30 4752 H 470.599 3.34119 2.34155 0
M  V30 4753 H 469.274 3.93287 1.3527 0
M  V30 4754 H 467.851 2.63185 2.64174 0
M  V30 4755 N 470.036 -0.519951 1.48776 0
M  V30 4756 C 470.984 -1.64443 1.64503 0
M  V30 4757 C 471.978 -1.61501 0.511248 0
M  V30 4758 O 473.184 -1.66238 0.690294 0
M  V30 4759 H 469.559 -0.544776 0.518385 0
M  V30 4760 H 471.53 -1.48325 2.58925 0
M  V30 4761 C 470.279 -3.02673 1.71127 0
M  V30 4762 H 469.602 -3.05635 2.57735 0
M  V30 4763 H 471.042 -3.80941 1.86172 0
M  V30 4764 C 469.501 -3.33854 0.452032 0
M  V30 4765 O 470.031 -3.99385 -0.430678 0
M  V30 4766 N 468.237 -2.88825 0.32069 0
M  V30 4767 H 467.784 -2.35674 1.03998 0
M  V30 4768 H 467.742 -3.10056 -0.520814 0
M  V30 4769 N 471.514 -1.37532 -0.769588 0
M  V30 4770 C 472.424 -1.35668 -1.91393 0
M  V30 4771 C 473.44 -0.255954 -1.72107 0
M  V30 4772 O 474.616 -0.491704 -1.95305 0
M  V30 4773 C 471.681 -1.16481 -3.26547 0
M  V30 4774 C 470.742 -2.36212 -3.58472 0
M  V30 4775 C 469.975 -2.17932 -4.87177 0
M  V30 4776 O 470.198 -1.1647 -5.58382 0
M  V30 4777 O 469.132 -3.06167 -5.18214 0
M  V30 4778 H 472.958 -2.32055 -1.95918 0
M  V30 4779 H 470.543 -1.18284 -0.912641 0
M  V30 4780 H 472.425 -1.07778 -4.07384 0
M  V30 4781 H 471.1 -0.231687 -3.2287 0
M  V30 4782 H 470.007 -2.50488 -2.77861 0
M  V30 4783 H 471.34 -3.281 -3.66894 0
M  V30 4784 N 472.992 0.995999 -1.22138 0
M  V30 4785 C 474.239 1.7351 -1.04406 0
M  V30 4786 C 474.567 1.89884 0.421244 0
M  V30 4787 O 473.822 1.43683 1.32867 0
M  V30 4788 C 474.121 3.14553 -1.6968 0
M  V30 4789 C 473.787 3.18102 -3.19565 0
M  V30 4790 C 472.449 3.18778 -3.60464 0
M  V30 4791 C 474.801 3.14636 -4.15516 0
M  V30 4792 C 472.129 3.13684 -4.95801 0
M  V30 4793 C 474.481 3.11084 -5.50826 0
M  V30 4794 C 473.145 3.10074 -5.91109 0
M  V30 4795 H 472.415 0.634916 -0.38205 0
M  V30 4796 H 475.062 1.1667 -1.51857 0
M  V30 4797 H 473.367 3.74682 -1.14546 0
M  V30 4798 H 475.064 3.70477 -1.53454 0
M  V30 4799 H 471.654 3.18324 -2.86998 0
M  V30 4800 H 475.838 3.13266 -3.84939 0
M  V30 4801 H 471.094 3.11245 -5.26247 0
M  V30 4802 H 475.268 3.07357 -6.24904 0
M  V30 4803 H 472.895 3.05882 -6.95946 0
M  V30 4804 N 474.47 1.03057 1.19235 0
M  V30 4805 C 475.695 0.74757 1.93458 0
M  V30 4806 C 476.12 -0.687648 1.7508 0
M  V30 4807 O 475.478 -1.47499 1.05422 0
M  V30 4808 C 475.526 1.10604 3.43219 0
M  V30 4809 O 474.63 0.225671 4.11782 0
M  V30 4810 H 473.971 0.276047 0.603899 0
M  V30 4811 H 476.501 1.3777 1.51263 0
M  V30 4812 H 476.511 1.06366 3.93891 0
M  V30 4813 H 475.186 2.15165 3.55917 0
M  V30 4814 H 473.763 0.326795 3.71465 0
M  V30 4815 N 475.948 -1.35272 0.808662 0
M  V30 4816 C 477.173 -2.03477 0.401475 0
M  V30 4817 C 477.598 -1.60537 -0.980279 0
M  V30 4818 O 476.956 -0.78304 -1.63518 0
M  V30 4819 C 477.004 -3.57181 0.495354 0
M  V30 4820 O 476.108 -4.09474 -0.490397 0
M  V30 4821 H 475.449 -0.642561 0.167366 0
M  V30 4822 H 477.979 -1.72824 1.09512 0
M  V30 4823 H 477.989 -4.06356 0.365912 0
M  V30 4824 H 476.664 -3.87784 1.5032 0
M  V30 4825 H 475.241 -3.71516 -0.321023 0
M  V30 4826 N 477.426 -0.562348 -1.47226 0
M  V30 4827 C 478.842 -0.222492 -1.58042 0
M  V30 4828 C 479.042 1.27505 -1.56028 0
M  V30 4829 O 478.098 2.05555 -1.46641 0
M  V30 4830 C 479.411 -0.853694 -2.88327 0
M  V30 4831 C 480.959 -0.825397 -3.01921 0
M  V30 4832 C 481.434 -1.43576 -4.34914 0
M  V30 4833 N 482.925 -1.39918 -4.41562 0
M  V30 4834 C 483.66 -1.84103 -5.43041 0
M  V30 4835 N 483.156 -2.36167 -6.51304 0
M  V30 4836 N 484.949 -1.75142 -5.34118 0
M  V30 4837 H 477.1 -1.53525 -1.46778 0
M  V30 4838 H 479.363 -0.640527 -0.698877 0
M  V30 4839 H 479.069 -1.90635 -2.95552 0
M  V30 4840 H 478.943 -0.34977 -3.75575 0
M  V30 4841 H 481.33 0.218583 -2.94289 0
M  V30 4842 H 481.411 -1.36713 -2.16202 0
M  V30 4843 H 481.055 -2.47884 -4.43301 0
M  V30 4844 H 480.985 -0.869427 -5.19373 0
M  V30 4845 H 483.476 -1.0184 -3.63919 0
M  V30 4846 H 483.789 -2.67793 -7.24919 0
M  V30 4847 H 482.134 -2.40181 -6.52179 0
M  V30 4848 H 485.325 -1.34241 -4.48439 0
M  V30 4849 H 485.498 -2.09895 -6.13065 0
M  V30 4850 N 478.904 1.54736 -0.299062 0
M  V30 4851 C 480.181 1.92187 0.363802 0
M  V30 4852 C 480.561 1.22607 1.71845 0
M  V30 4853 O 479.909 0.361141 2.25628 0
M  V30 4854 C 480.119 3.45678 0.480377 0
M  V30 4855 C 481.467 4.17885 0.752147 0
M  V30 4856 O 482.491 3.51702 0.564264 0
M  V30 4857 O 481.35 5.35048 1.11294 0
M  V30 4858 H 478.444 0.801681 0.203066 0
M  V30 4859 H 480.99 1.66115 -0.346978 0
M  V30 4860 H 479.762 3.88443 -0.471999 0
M  V30 4861 H 479.385 3.77779 1.2397 0
M  V30 4862 N 480.382 0.0267497 1.57577 0
M  V30 4863 C 481.607 -0.666227 1.96408 0
M  V30 4864 C 482.032 -1.65004 0.903071 0
M  V30 4865 O 481.39 -1.80787 -0.136263 0
M  V30 4866 C 481.438 -1.35101 3.34335 0
M  V30 4867 O 480.542 -2.46623 3.30531 0
M  V30 4868 H 479.883 -0.175206 0.640468 0
M  V30 4869 H 482.413 0.0878977 2.04411 0
M  V30 4870 H 482.423 -1.70834 3.70513 0
M  V30 4871 H 481.098 -0.629844 4.11103 0
M  V30 4872 H 479.675 -2.13019 3.06068 0
M  V30 4873 N 481.861 -1.55662 -0.24637 0
M  V30 4874 C 482.793 -1.86811 -1.32794 0
M  V30 4875 C 483.806 -0.754413 -1.44265 0
M  V30 4876 O 484.995 -1.03253 -1.45606 0
M  V30 4877 C 482.095 -2.0397 -2.70646 0
M  V30 4878 C 481.268 -3.34832 -2.81436 0
M  V30 4879 C 480.327 -3.41727 -4.00136 0
M  V30 4880 O 479.353 -4.14934 -3.89639 0
M  V30 4881 N 480.555 -2.71058 -5.1333 0
M  V30 4882 H 483.32 -2.80174 -1.06409 0
M  V30 4883 H 480.881 -1.55906 -0.43647 0
M  V30 4884 H 482.873 -2.05924 -3.48393 0
M  V30 4885 H 481.443 -1.1735 -2.89738 0
M  V30 4886 H 480.663 -3.4519 -1.90361 0
M  V30 4887 H 481.951 -4.21085 -2.85595 0
M  V30 4888 H 481.349 -2.11314 -5.2475 0
M  V30 4889 H 479.906 -2.78704 -5.89209 0
M  V30 4890 N 483.339 0.512053 -1.4905 0
M  V30 4891 C 484.585 1.26874 -1.58212 0
M  V30 4892 C 484.918 1.9241 -0.263073 0
M  V30 4893 O 484.193 1.80181 0.732476 0
M  V30 4894 C 484.476 2.34428 -2.73341 0
M  V30 4895 C 484.329 1.73466 -4.15006 0
M  V30 4896 C 485.648 3.36073 -2.84154 0
M  V30 4897 H 482.767 0.459924 -0.575881 0
M  V30 4898 H 485.409 0.568587 -1.81293 0
M  V30 4899 H 483.559 2.94146 -2.53792 0
M  V30 4900 H 485.231 1.17661 -4.46042 0
M  V30 4901 H 483.474 1.03921 -4.21168 0
M  V30 4902 H 484.145 2.51426 -4.91415 0
M  V30 4903 H 486.621 2.86332 -3.01916 0
M  V30 4904 H 485.497 4.08703 -3.66406 0
M  V30 4905 H 485.758 3.97725 -1.93048 0
M  V30 4906 N 484.817 1.37938 0.762283 0
M  V30 4907 C 486.045 1.36883 1.55147 0
M  V30 4908 C 486.46 -0.0435348 1.8875 0
M  V30 4909 O 485.817 -1.00786 1.52146 0
M  V30 4910 C 485.868 2.21624 2.85596 0
M  V30 4911 O 485.589 3.57358 2.5343 0
M  V30 4912 C 487.09 2.28653 3.7978 0
M  V30 4913 H 484.31 0.468521 0.480343 0
M  V30 4914 H 486.854 1.81404 0.944079 0
M  V30 4915 H 485.009 1.80588 3.42734 0
M  V30 4916 H 485.423 4.01883 3.37032 0
M  V30 4917 H 486.897 2.9225 4.68288 0
M  V30 4918 H 487.374 1.29767 4.19592 0
M  V30 4919 H 487.98 2.70043 3.28568 0
M  V30 4920 N 486.295 -0.989507 1.22664 0
M  V30 4921 C 487.541 -1.7321 1.05481 0
M  V30 4922 C 487.874 -1.89852 -0.408635 0
M  V30 4923 O 487.149 -1.44416 -1.30285 0
M  V30 4924 C 487.432 -3.1357 1.77047 0
M  V30 4925 C 487.285 -3.04555 3.31008 0
M  V30 4926 C 488.604 -4.12812 1.5256 0
M  V30 4927 H 485.723 -0.628697 0.384589 0
M  V30 4928 H 488.365 -1.15258 1.51049 0
M  V30 4929 H 486.515 -3.63046 1.3831 0
M  V30 4930 H 488.187 -2.62674 3.7921 0
M  V30 4931 H 486.43 -2.41278 3.6051 0
M  V30 4932 H 487.101 -4.03894 3.76263 0
M  V30 4933 H 489.577 -3.72106 1.86215 0
M  V30 4934 H 488.453 -5.09132 2.05124 0
M  V30 4935 H 488.714 -4.39711 0.458936 0
M  V30 4936 N 487.773 -1.03688 -1.18687 0
M  V30 4937 C 489.05 -0.652397 -1.84399 0
M  V30 4938 C 489.43 0.868386 -1.92412 0
M  V30 4939 O 488.778 1.76832 -1.44716 0
M  V30 4940 C 488.988 -1.3238 -3.22919 0
M  V30 4941 C 490.336 -1.45216 -3.98996 0
M  V30 4942 O 491.36 -1.2816 -3.32345 0
M  V30 4943 O 490.219 -1.72975 -5.18403 0
M  V30 4944 H 487.313 -0.227793 -0.795009 0
M  V30 4945 H 489.859 -1.13553 -1.2611 0
M  V30 4946 H 488.631 -2.36202 -3.11968 0
M  V30 4947 H 488.254 -0.829039 -3.88861 0
M  V30 4948 N 489.251 1.34841 -0.815825 0
M  V30 4949 C 490.497 1.98793 -0.401129 0
M  V30 4950 C 490.83 1.64548 1.03139 0
M  V30 4951 O 490.105 0.913487 1.71714 0
M  V30 4952 C 490.388 3.55143 -0.595409 0
M  V30 4953 C 490.241 3.99155 -2.07352 0
M  V30 4954 C 491.56 4.40092 -0.0268823 0
M  V30 4955 H 488.679 0.722146 -0.14722 0
M  V30 4956 H 491.321 1.59847 -1.02707 0
M  V30 4957 H 489.471 3.8845 -0.0625779 0
M  V30 4958 H 491.143 3.76216 -2.66945 0
M  V30 4959 H 489.386 3.49726 -2.56659 0
M  V30 4960 H 490.057 5.07971 -2.1603 0
M  V30 4961 H 492.533 4.13298 -0.482042 0
M  V30 4962 H 491.409 5.48562 -0.19267 0
M  V30 4963 H 491.67 4.29016 1.06759 0
M  V30 4964 N 490.729 0.570148 1.46925 0
M  V30 4965 C 491.659 -0.158274 2.32963 0
M  V30 4966 C 492.64 -0.896093 1.44583 0
M  V30 4967 O 493.825 -0.874022 1.7342 0
M  V30 4968 C 490.955 -1.18055 3.26619 0
M  V30 4969 C 489.909 -0.558379 4.24342 0
M  V30 4970 C 489.235 -1.68623 5.07415 0
M  V30 4971 C 490.535 0.496295 5.19937 0
M  V30 4972 H 492.229 0.560046 2.94115 0
M  V30 4973 H 489.775 0.270775 1.41431 0
M  V30 4974 H 491.728 -1.69841 3.85658 0
M  V30 4975 H 490.452 -1.92899 2.63548 0
M  V30 4976 H 489.111 -0.0617157 3.66548 0
M  V30 4977 H 488.759 -2.42402 4.40738 0
M  V30 4978 H 488.459 -1.27564 5.73586 0
M  V30 4979 H 489.983 -2.20709 5.69315 0
M  V30 4980 H 491.397 0.0640052 5.73264 0
M  V30 4981 H 489.794 0.82649 5.94381 0
M  V30 4982 H 490.864 1.38735 4.6463 0
M  V30 4983 N 492.207 -1.54576 0.307264 0
M  V30 4984 C 493.484 -1.92377 -0.353605 0
M  V30 4985 C 493.864 -1.23517 -1.71192 0
M  V30 4986 O 493.212 -0.373101 -2.25433 0
M  V30 4987 C 493.422 -3.45928 -0.462039 0
M  V30 4988 C 494.77 -4.18278 -0.729975 0
M  V30 4989 O 495.794 -3.51997 -0.545605 0
M  V30 4990 O 494.653 -5.3563 -1.08454 0
M  V30 4991 H 491.747 -0.802747 -0.198812 0
M  V30 4992 H 494.293 -1.65929 0.355783 0
M  V30 4993 H 493.065 -3.88187 0.492592 0
M  V30 4994 H 492.688 -3.78431 -1.21965 0
M  V30 4995 N 493.685 -0.035106 -1.57561 0
M  V30 4996 C 495.096 0.502885 -1.798 0
M  V30 4997 C 495.447 1.71892 -0.945921 0
M  V30 4998 O 494.572 2.15822 -0.157991 0
M  V30 4999 C 495.167 0.919097 -3.26095 0
M  V30 5000 C 493.726 1.40216 -3.49308 0
M  V30 5001 C 492.873 0.369709 -2.74824 0
M  V30 5002 H 495.824 -0.261102 -1.56537 0
M  V30 5003 H 495.845 1.78308 -3.36135 0
M  V30 5004 H 495.357 0.0338526 -3.88085 0
M  V30 5005 H 493.458 2.30714 -2.92578 0
M  V30 5006 H 493.571 1.40541 -4.58023 0
M  V30 5007 H 491.935 0.839113 -2.40481 0
M  V30 5008 H 492.718 -0.507173 -3.39533 0
M  V30 5009 N 495.163 1.55791 0.238111 0
M  V30 5010 C 496.095 1.87513 1.31802 0
M  V30 5011 C 497.108 0.762053 1.43863 0
M  V30 5012 O 498.297 1.04024 1.45056 0
M  V30 5013 C 495.397 2.05402 2.69561 0
M  V30 5014 C 494.57 3.3632 2.79656 0
M  V30 5015 C 493.629 3.43844 3.98319 0
M  V30 5016 O 492.655 4.16994 3.87433 0
M  V30 5017 N 493.857 2.73777 5.11885 0
M  V30 5018 H 496.622 2.80734 1.04922 0
M  V30 5019 H 494.183 1.56135 0.428196 0
M  V30 5020 H 496.175 2.07769 3.47296 0
M  V30 5021 H 494.745 1.18884 2.89111 0
M  V30 5022 H 493.965 3.46195 1.88528 0
M  V30 5023 H 495.253 4.22594 2.83358 0
M  V30 5024 H 494.651 2.14094 5.23622 0
M  V30 5025 H 493.208 2.81825 5.87723 0
M  V30 5026 N 496.642 -0.504142 1.49319 0
M  V30 5027 C 497.552 -1.63248 1.68486 0
M  V30 5028 C 498.568 -1.64488 0.567432 0
M  V30 5029 O 499.744 -1.82966 0.841749 0
M  V30 5030 C 496.809 -2.99627 1.74426 0
M  V30 5031 C 495.87 -3.09039 2.97982 0
M  V30 5032 C 495.103 -4.38913 3.0363 0
M  V30 5033 O 495.326 -5.27528 2.16958 0
M  V30 5034 O 494.26 -4.53231 3.96062 0
M  V30 5035 H 498.086 -1.50008 2.64067 0
M  V30 5036 H 495.671 -0.680086 1.33023 0
M  V30 5037 H 497.553 -3.80689 1.80705 0
M  V30 5038 H 496.228 -3.13136 0.820233 0
M  V30 5039 H 495.135 -2.27177 2.97223 0
M  V30 5040 H 496.468 -3.00456 3.89855 0
M  V30 5041 N 498.12 -1.38341 -0.754957 0
M  V30 5042 C 499.397 -1.24995 -1.50451 0
M  V30 5043 C 499.777 0.149244 -2.10572 0
M  V30 5044 O 499.125 1.15861 -1.96948 0
M  V30 5045 C 499.335 -2.35904 -2.57197 0
M  V30 5046 C 500.683 -2.74262 -3.24138 0
M  V30 5047 O 501.707 -2.35205 -2.67501 0
M  V30 5048 O 500.566 -3.4161 -4.26574 0
M  V30 5049 H 497.66 -0.48872 -0.667144 0
M  V30 5050 H 500.206 -1.50165 -0.790486 0
M  V30 5051 H 498.978 -3.2953 -2.11011 0
M  V30 5052 H 498.601 -2.12291 -3.36182 0
M  V30 5053 N 499.598 0.982988 -1.23187 0
M  V30 5054 C 500.823 1.76455 -1.08988 0
M  V30 5055 C 501.248 1.84726 0.354691 0
M  V30 5056 O 500.606 1.30699 1.25649 0
M  V30 5057 C 500.654 3.17094 -1.71708 0
M  V30 5058 O 499.758 4.00648 -0.977477 0
M  V30 5059 H 499.099 0.542988 -0.382177 0
M  V30 5060 H 501.629 1.23413 -1.63188 0
M  V30 5061 H 501.639 3.67684 -1.76841 0
M  V30 5062 H 500.314 3.10389 -2.76823 0
M  V30 5063 H 498.891 3.59161 -1.0029 0
M  V30 5064 N 501.076 1.04316 1.18135 0
M  V30 5065 C 502.324 0.746542 1.87806 0
M  V30 5066 C 502.645 -0.728082 1.80898 0
M  V30 5067 O 501.915 -1.52554 1.22899 0
M  V30 5068 H 500.495 0.273157 0.695265 0
M  V30 5069 H 503.157 1.32044 1.43354 0
M  V30 5070 H 502.253 1.05362 2.93778 0
M  V30 5071 N 502.554 -1.34406 0.822964 0
M  V30 5072 C 503.501 -2.29519 0.24284 0
M  V30 5073 C 504.471 -1.5359 -0.632397 0
M  V30 5074 O 505.656 -1.8196 -0.57403 0
M  V30 5075 C 502.796 -3.40032 -0.58925 0
M  V30 5076 C 501.909 -4.30899 0.308236 0
M  V30 5077 C 501.044 -5.28515 -0.533425 0
M  V30 5078 C 500.083 -6.1102 0.363444 0
M  V30 5079 N 499.22 -7.00725 -0.439147 0
M  V30 5080 H 504.06 -2.78537 1.05929 0
M  V30 5081 H 501.597 -1.3707 0.533872 0
M  V30 5082 H 503.555 -4.0279 -1.087 0
M  V30 5083 H 502.185 -2.92248 -1.37081 0
M  V30 5084 H 501.237 -3.69002 0.924203 0
M  V30 5085 H 502.549 -4.88717 0.997862 0
M  V30 5086 H 501.703 -5.96725 -1.09565 0
M  V30 5087 H 500.442 -4.71235 -1.25656 0
M  V30 5088 H 499.447 -5.41743 0.937812 0
M  V30 5089 H 500.672 -6.70381 1.08469 0
M  V30 5090 H 498.618 -6.45913 -1.14595 0
M  V30 5091 H 498.535 -7.55756 0.19209 0
M  V30 5092 H 499.803 -7.73263 -0.984124 0
M  V30 5093 N 504.032 -0.577932 -1.46621 0
M  V30 5094 C 504.964 0.195801 -2.28362 0
M  V30 5095 C 505.977 0.859983 -1.38232 0
M  V30 5096 O 507.166 0.730349 -1.62875 0
M  V30 5097 C 504.266 1.29639 -3.13124 0
M  V30 5098 C 503.439 0.725049 -4.31349 0
M  V30 5099 C 502.498 1.71274 -4.97546 0
M  V30 5100 O 501.524 1.25067 -5.5529 0
M  V30 5101 N 502.726 3.04672 -4.94121 0
M  V30 5102 H 505.491 -0.505468 -2.95407 0
M  V30 5103 H 503.052 -0.415381 -1.56481 0
M  V30 5104 H 505.044 1.95631 -3.54275 0
M  V30 5105 H 503.614 1.90059 -2.48186 0
M  V30 5106 H 502.834 -0.112205 -3.9404 0
M  V30 5107 H 504.122 0.323034 -5.07774 0
M  V30 5108 H 503.52 3.4484 -4.48444 0
M  V30 5109 H 502.077 3.66166 -5.39227 0
M  V30 5110 N 505.51 1.54411 -0.315457 0
M  V30 5111 C 506.756 2.00716 0.289972 0
M  V30 5112 C 507.089 1.2034 1.5242 0
M  V30 5113 O 506.364 0.283579 1.92422 0
M  V30 5114 C 506.647 3.54507 0.632196 0
M  V30 5115 C 506.5 4.45615 -0.61218 0
M  V30 5116 C 507.819 4.15421 1.45305 0
M  V30 5117 H 504.938 0.729637 0.10392 0
M  V30 5118 H 507.58 1.8506 -0.430427 0
M  V30 5119 H 505.73 3.67979 1.24595 0
M  V30 5120 H 507.402 4.44026 -1.25053 0
M  V30 5121 H 505.645 4.15621 -1.24264 0
M  V30 5122 H 506.316 5.51022 -0.328379 0
M  V30 5123 H 508.792 4.05474 0.934331 0
M  V30 5124 H 507.668 5.23157 1.66127 0
M  V30 5125 H 507.929 3.68223 2.44671 0
M  V30 5126 N 506.988 0.0434614 1.5754 0
M  V30 5127 C 508.265 -0.671479 1.83713 0
M  V30 5128 C 508.645 -1.89495 0.930315 0
M  V30 5129 O 507.993 -2.28498 -0.0105639 0
M  V30 5130 C 508.203 -1.0361 3.33266 0
M  V30 5131 C 509.551 -1.42167 4.00092 0
M  V30 5132 O 510.575 -1.12866 3.37846 0
M  V30 5133 O 509.434 -1.96817 5.09829 0
M  V30 5134 H 506.528 -0.330726 0.75799 0
M  V30 5135 H 509.074 0.0722373 1.69546 0
M  V30 5136 H 507.846 -0.165938 3.90948 0
M  V30 5137 H 507.469 -1.83751 3.52592 0
M  V30 5138 N 508.466 -1.55915 -0.229846 0
M  V30 5139 C 509.396 -1.94754 -1.28815 0
M  V30 5140 C 510.377 -0.814657 -1.49323 0
M  V30 5141 O 511.562 -1.07631 -1.61645 0
M  V30 5142 C 508.692 -2.25705 -2.63959 0
M  V30 5143 C 507.646 -3.41406 -2.5812 0
M  V30 5144 C 506.972 -3.57941 -3.97218 0
M  V30 5145 C 508.272 -4.76616 -2.13623 0
M  V30 5146 H 509.966 -2.83404 -0.965547 0
M  V30 5147 H 507.512 -1.36353 -0.463028 0
M  V30 5148 H 509.465 -2.51467 -3.38146 0
M  V30 5149 H 508.189 -1.339 -2.9789 0
M  V30 5150 H 506.848 -3.1568 -1.86391 0
M  V30 5151 H 506.496 -2.63526 -4.28443 0
M  V30 5152 H 506.196 -4.35757 -3.94195 0
M  V30 5153 H 507.72 -3.86042 -4.73079 0
M  V30 5154 H 509.134 -5.01637 -2.77549 0
M  V30 5155 H 507.531 -5.57655 -2.21677 0
M  V30 5156 H 508.601 -4.7253 -1.08829 0
M  V30 5157 N 509.944 0.496216 -1.49584 0
M  V30 5158 C 511.19 1.25189 -1.59548 0
M  V30 5159 C 511.523 1.9212 -0.283466 0
M  V30 5160 O 510.798 1.80947 0.713324 0
M  V30 5161 C 511.081 2.31516 -2.75812 0
M  V30 5162 C 510.934 1.69054 -4.16822 0
M  V30 5163 C 512.253 3.3304 -2.87702 0
M  V30 5164 H 509.372 0.45379 -0.580727 0
M  V30 5165 H 512.014 0.549327 -1.81886 0
M  V30 5166 H 510.164 2.91438 -2.56897 0
M  V30 5167 H 511.836 1.12923 -4.47265 0
M  V30 5168 H 510.079 0.994485 -4.22247 0
M  V30 5169 H 510.75 2.462 -4.94054 0
M  V30 5170 H 513.226 2.83114 -3.04936 0
M  V30 5171 H 512.102 4.04794 -3.7072 0
M  V30 5172 H 512.363 3.95655 -1.97255 0
M  V30 5173 N 511.423 1.38739 0.74761 0
M  V30 5174 C 512.648 1.38702 1.54197 0
M  V30 5175 C 513.073 -0.019664 1.8809 0
M  V30 5176 O 512.431 -1.00333 1.51006 0
M  V30 5177 C 512.479 2.25492 2.814 0
M  V30 5178 O 511.583 1.67613 3.76802 0
M  V30 5179 H 510.924 0.472863 0.466151 0
M  V30 5180 H 513.454 1.82577 0.923413 0
M  V30 5181 H 513.464 2.39561 3.30264 0
M  V30 5182 H 512.139 3.27727 2.56062 0
M  V30 5183 H 510.716 1.62718 3.35526 0
M  V30 5184 N 512.901 -0.976442 1.23707 0
M  V30 5185 C 513.864 -2.0511 1.02287 0
M  V30 5186 C 514.864 -1.60791 -0.0167195 0
M  V30 5187 O 516.054 -1.72761 0.223408 0
M  V30 5188 C 513.186 -3.36458 0.548507 0
M  V30 5189 H 514.379 -2.25545 1.9766 0
M  V30 5190 H 511.932 -1.15042 1.05806 0
M  V30 5191 H 512.667 -3.21713 -0.408818 0
M  V30 5192 H 512.452 -3.69967 1.29874 0
M  V30 5193 H 513.942 -4.15489 0.419406 0
M  V30 5194 N 514.379 -1.04941 -1.1758 0
M  V30 5195 C 515.604 -0.778253 -1.92245 0
M  V30 5196 C 516.029 0.659707 -1.76152 0
M  V30 5197 O 515.387 1.45803 -1.07755 0
M  V30 5198 C 515.435 -1.16051 -3.41416 0
M  V30 5199 O 514.539 -0.291153 -4.11371 0
M  V30 5200 H 513.88 -0.285619 -0.599431 0
M  V30 5201 H 516.41 -1.40159 -1.49052 0
M  V30 5202 H 516.42 -1.12619 -3.92149 0
M  V30 5203 H 515.095 -2.208 -3.52449 0
M  V30 5204 H 513.672 -0.385851 -3.70898 0
M  V30 5205 N 515.857 1.33968 -0.830081 0
M  V30 5206 C 517.103 1.98357 -0.422191 0
M  V30 5207 C 517.436 1.65633 1.01387 0
M  V30 5208 O 516.711 0.931648 1.70735 0
M  V30 5209 C 516.994 3.54492 -0.633043 0
M  V30 5210 C 516.847 3.96934 -2.11574 0
M  V30 5211 C 518.166 4.40039 -0.0735584 0
M  V30 5212 H 515.285 0.720544 -0.154871 0
M  V30 5213 H 517.927 1.58749 -1.04397 0
M  V30 5214 H 516.077 3.88361 -0.103775 0
M  V30 5215 H 517.749 3.73363 -2.7092 0
M  V30 5216 H 515.992 3.46984 -2.60354 0
M  V30 5217 H 516.663 5.05651 -2.21406 0
M  V30 5218 H 519.139 4.12764 -0.52585 0
M  V30 5219 H 518.015 5.48327 -0.250841 0
M  V30 5220 H 518.276 4.30124 1.02202 0
M  V30 5221 N 517.335 0.585699 1.46312 0
M  V30 5222 C 518.581 0.0725284 2.0267 0
M  V30 5223 C 518.914 -1.28523 1.45586 0
M  V30 5224 O 518.189 -1.84283 0.622101 0
M  V30 5225 C 518.472 0.0099788 3.60099 0
M  V30 5226 C 518.325 1.39685 4.27561 0
M  V30 5227 C 519.644 -0.689117 4.34671 0
M  V30 5228 H 516.763 0.0278307 0.736474 0
M  V30 5229 H 519.405 0.753472 1.74421 0
M  V30 5230 H 517.555 -0.56992 3.84297 0
M  V30 5231 H 519.227 2.02215 4.14617 0
M  V30 5232 H 517.47 1.96374 3.86807 0
M  V30 5233 H 518.141 1.30553 5.36339 0
M  V30 5234 H 520.617 -0.196446 4.15636 0
M  V30 5235 H 519.493 -0.701921 5.44393 0
M  V30 5236 H 519.754 -1.75101 4.05946 0
M  V30 5237 N 518.813 -1.54241 0.323641 0
M  V30 5238 C 520.059 -2.00867 -0.279323 0
M  V30 5239 C 520.392 -1.21146 -1.5178 0
M  V30 5240 O 519.667 -0.29378 -1.92269 0
M  V30 5241 C 519.95 -3.54837 -0.613387 0
M  V30 5242 C 519.803 -4.45284 0.635803 0
M  V30 5243 C 521.122 -4.16186 -1.43099 0
M  V30 5244 H 518.241 -0.730177 -0.100049 0
M  V30 5245 H 520.883 -1.84829 0.440235 0
M  V30 5246 H 519.033 -3.68634 -1.22641 0
M  V30 5247 H 520.705 -4.43357 1.27406 0
M  V30 5248 H 518.948 -4.14956 1.26466 0
M  V30 5249 H 519.619 -5.5084 0.357597 0
M  V30 5250 H 522.095 -4.05964 -0.912814 0
M  V30 5251 H 520.971 -5.24031 -1.6335 0
M  V30 5252 H 521.232 -3.69516 -2.42715 0
M  V30 5253 N 520.291 -0.0518155 -1.57515 0
M  V30 5254 C 521.537 0.622745 -1.93002 0
M  V30 5255 C 521.87 1.70456 -0.930499 0
M  V30 5256 O 521.145 1.94452 0.0434086 0
M  V30 5257 C 521.428 1.21824 -3.38867 0
M  V30 5258 C 521.281 0.144434 -4.49568 0
M  V30 5259 C 522.6 2.12968 -3.8514 0
M  V30 5260 H 519.719 0.22491 -0.701844 0
M  V30 5261 H 522.361 -0.113711 -1.89659 0
M  V30 5262 H 520.511 1.8459 -3.41846 0
M  V30 5263 H 522.183 -0.48753 -4.58717 0
M  V30 5264 H 520.426 -0.527424 -4.30582 0
M  V30 5265 H 521.097 0.601127 -5.48717 0
M  V30 5266 H 523.573 1.60163 -3.8404 0
M  V30 5267 H 522.449 2.51578 -4.87852 0
M  V30 5268 H 522.71 3.03004 -3.21934 0
M  V30 5269 N 521.769 1.56035 0.221574 0
M  V30 5270 C 523.017 1.78693 0.944102 0
M  V30 5271 C 523.338 0.620317 1.8487 0
M  V30 5272 O 522.608 -0.362784 1.92512 0
M  V30 5273 H 521.188 0.659082 0.351597 0
M  V30 5274 H 523.85 1.93497 0.233435 0
M  V30 5275 H 522.946 2.70837 1.55093 0
M  V30 5276 N 523.247 -0.488276 1.49845 0
M  V30 5277 C 524.493 -1.24341 1.6021 0
M  V30 5278 C 524.826 -1.91967 0.293651 0
M  V30 5279 O 524.101 -1.81323 -0.703718 0
M  V30 5280 C 524.384 -2.3005 2.77036 0
M  V30 5281 C 524.237 -1.66842 4.17713 0
M  V30 5282 C 525.556 -3.31509 2.89464 0
M  V30 5283 H 522.675 -0.450704 0.583125 0
M  V30 5284 H 525.317 -0.539673 1.82174 0
M  V30 5285 H 523.467 -2.90071 2.58439 0
M  V30 5286 H 525.139 -1.1055 4.47858 0
M  V30 5287 H 523.382 -0.972079 4.22768 0
M  V30 5288 H 524.053 -2.43576 4.95353 0
M  V30 5289 H 526.529 -2.81493 3.06433 0
M  V30 5290 H 525.405 -4.02822 3.72861 0
M  V30 5291 H 525.666 -3.94603 1.99351 0
M  V30 5292 N 524.725 -1.39134 -0.740242 0
M  V30 5293 C 525.974 -1.35384 -1.49512 0
M  V30 5294 C 526.287 0.04919 -1.95538 0
M  V30 5295 O 527.493 0.209257 -2.70692 0
M  V30 5296 C 525.949 -2.37812 -2.70136 0
M  V30 5297 C 525.557 -3.83804 -2.31081 0
M  V30 5298 C 527.301 -2.4313 -3.47977 0
M  V30 5299 C 525.208 -4.77886 -3.48395 0
M  V30 5300 H 524.138 -0.503297 -0.561434 0
M  V30 5301 H 526.789 -1.64754 -0.807974 0
M  V30 5302 H 525.171 -2.01505 -3.40899 0
M  V30 5303 H 526.345 -4.29123 -1.67898 0
M  V30 5304 H 524.66 -3.81732 -1.66343 0
M  V30 5305 H 527.257 -3.10614 -4.35228 0
M  V30 5306 H 527.6 -1.45423 -3.90074 0
M  V30 5307 H 528.133 -2.78304 -2.84239 0
M  V30 5308 H 524.872 -5.76836 -3.11353 0
M  V30 5309 H 524.392 -4.3725 -4.10576 0
M  V30 5310 H 526.071 -4.96538 -4.148 0
M  V30 5311 N 526.204 0.969867 -1.24223 0
M  V30 5312 C 527.167 2.04564 -1.03373 0
M  V30 5313 C 528.167 1.60798 0.00819206 0
M  V30 5314 O 529.357 1.72641 -0.232567 0
M  V30 5315 C 526.489 3.36163 -0.566343 0
M  V30 5316 H 527.682 2.24494 -1.98853 0
M  V30 5317 H 525.235 1.1448 -1.06415 0
M  V30 5318 H 525.97 3.21925 0.391751 0
M  V30 5319 H 525.755 3.69273 -1.31834 0
M  V30 5320 H 527.245 4.1526 -0.441435 0
M  V30 5321 N 527.682 1.05563 1.17022 0
M  V30 5322 C 528.645 0.664098 2.19368 0
M  V30 5323 C 529.645 -0.286358 1.5823 0
M  V30 5324 O 530.835 -0.069728 1.7406 0
M  V30 5325 C 527.967 -0.0239932 3.40892 0
M  V30 5326 H 529.16 1.57 2.55521 0
M  V30 5327 H 526.713 0.849964 1.31169 0
M  V30 5328 H 527.448 -0.942988 3.10287 0
M  V30 5329 H 527.233 0.659351 3.86516 0
M  V30 5330 H 528.723 -0.283909 4.16634 0
M  V30 5331 N 529.16 -1.33526 0.837174 0
M  V30 5332 C 530.09 -2.31764 0.284206 0
M  V30 5333 C 531.071 -1.58896 -0.607142 0
M  V30 5334 O 532.256 -1.86798 -0.531047 0
M  V30 5335 C 529.386 -3.43029 -0.542962 0
M  V30 5336 C 528.34 -4.27255 0.252451 0
M  V30 5337 C 527.666 -5.3012 -0.69836 0
M  V30 5338 C 528.966 -5.01229 1.46858 0
M  V30 5339 H 530.66 -2.78262 1.10502 0
M  V30 5340 H 528.206 -1.3378 0.532812 0
M  V30 5341 H 530.159 -4.1078 -0.940096 0
M  V30 5342 H 528.883 -2.95216 -1.39697 0
M  V30 5343 H 527.542 -3.61127 0.631124 0
M  V30 5344 H 527.19 -4.78564 -1.54872 0
M  V30 5345 H 526.89 -5.87353 -0.170274 0
M  V30 5346 H 528.414 -6.00737 -1.09305 0
M  V30 5347 H 529.828 -5.61756 1.14469 0
M  V30 5348 H 528.225 -5.68104 1.93333 0
M  V30 5349 H 529.295 -4.301 2.23924 0
M  V30 5350 N 530.638 -0.59345 -1.46 0
M  V30 5351 C 531.568 0.121192 -2.33185 0
M  V30 5352 C 532.549 0.872977 -1.4599 0
M  V30 5353 O 533.734 0.846321 -1.74789 0
M  V30 5354 C 530.864 1.12844 -3.28456 0
M  V30 5355 C 529.818 0.4908 -4.25177 0
M  V30 5356 C 529.144 1.60529 -5.10034 0
M  V30 5357 C 530.444 -0.578949 -5.19081 0
M  V30 5358 H 532.138 -0.606767 -2.93187 0
M  V30 5359 H 529.684 -0.293242 -1.40983 0
M  V30 5360 H 531.637 1.63684 -3.88311 0
M  V30 5361 H 530.361 1.88681 -2.66584 0
M  V30 5362 H 529.02 0.00339328 -3.666 0
M  V30 5363 H 528.668 2.35359 -4.44539 0
M  V30 5364 H 528.368 1.18422 -5.75543 0
M  V30 5365 H 529.892 2.11623 -5.72755 0
M  V30 5366 H 531.306 -0.155199 -5.7309 0
M  V30 5367 H 529.703 -0.920947 -5.92991 0
M  V30 5368 H 530.773 -1.46109 -4.62364 0
M  V30 5369 N 532.116 1.54067 -0.331816 0
M  V30 5370 C 533.363 2.00715 0.268269 0
M  V30 5371 C 533.691 1.21986 1.51491 0
M  V30 5372 O 532.946 0.292309 1.93505 0
M  V30 5373 C 533.245 3.51634 0.639392 0
M  V30 5374 C 532.911 4.48018 -0.509019 0
M  V30 5375 C 531.573 4.74089 -0.824209 0
M  V30 5376 C 533.925 5.05237 -1.28003 0
M  V30 5377 C 531.253 5.54637 -1.91298 0
M  V30 5378 C 533.605 5.86972 -2.35895 0
M  V30 5379 C 532.269 6.11342 -2.67987 0
M  V30 5380 H 531.539 0.734469 0.0981667 0
M  V30 5381 H 534.186 1.8596 -0.457304 0
M  V30 5382 H 532.491 3.6416 1.44551 0
M  V30 5383 H 534.188 3.85175 1.11539 0
M  V30 5384 H 530.778 4.27851 -0.253287 0
M  V30 5385 H 534.962 4.8507 -1.04978 0
M  V30 5386 H 530.218 5.71747 -2.16599 0
M  V30 5387 H 534.392 6.30327 -2.96076 0
M  V30 5388 H 532.019 6.73544 -3.5248 0
M  V30 5389 N 533.594 0.0601682 1.57485 0
M  V30 5390 C 534.834 -0.615384 1.94916 0
M  V30 5391 C 535.198 -1.67475 0.938948 0
M  V30 5392 O 536.399 -2.40502 1.20051 0
M  V30 5393 C 534.67 -1.18788 3.37082 0
M  V30 5394 S 536.229 -1.88018 3.96478 0
M  V30 5395 H 533.047 -0.201821 0.681754 0
M  V30 5396 H 535.649 0.131252 1.95059 0
M  V30 5397 H 534.353 -0.404869 4.08398 0
M  V30 5398 H 533.884 -1.97114 3.40455 0
M  V30 5399 H 535.899 -3.16161 3.82435 0
M  V30 5400 N 535.072 -1.5615 -0.213296 0
M  V30 5401 C 536.002 -1.96109 -1.26742 0
M  V30 5402 C 536.983 -0.830448 -1.48451 0
M  V30 5403 O 538.168 -1.09339 -1.60495 0
M  V30 5404 C 535.298 -2.28492 -2.61551 0
M  V30 5405 C 534.252 -3.44124 -2.54485 0
M  V30 5406 C 533.578 -3.62134 -3.93399 0
M  V30 5407 C 534.878 -4.78855 -2.08556 0
M  V30 5408 H 536.572 -2.84412 -0.935434 0
M  V30 5409 H 534.118 -1.36836 -0.44854 0
M  V30 5410 H 536.071 -2.55039 -3.3546 0
M  V30 5411 H 534.795 -1.37052 -2.96453 0
M  V30 5412 H 533.454 -3.17639 -1.83033 0
M  V30 5413 H 533.102 -2.68055 -4.25623 0
M  V30 5414 H 532.802 -4.39913 -3.89551 0
M  V30 5415 H 534.326 -3.91038 -4.68958 0
M  V30 5416 H 535.74 -5.04552 -2.72213 0
M  V30 5417 H 534.137 -5.59975 -2.1575 0
M  V30 5418 H 535.207 -4.73657 -1.03811 0
M  V30 5419 N 536.55 0.480323 -1.50102 0
M  V30 5420 C 537.48 1.58769 -1.71215 0
M  V30 5421 C 538.461 1.60583 -0.560997 0
M  V30 5422 O 539.646 1.76996 -0.799127 0
M  V30 5423 C 536.776 2.97148 -1.79778 0
M  V30 5424 C 535.73 3.10201 -2.94888 0
M  V30 5425 C 535.056 4.50137 -2.88584 0
M  V30 5426 C 536.356 2.88283 -4.35534 0
M  V30 5427 H 538.05 1.41354 -2.6393 0
M  V30 5428 H 535.596 0.678591 -1.27008 0
M  V30 5429 H 537.549 3.74536 -1.93133 0
M  V30 5430 H 536.273 3.15699 -0.836772 0
M  V30 5431 H 534.932 2.35244 -2.81169 0
M  V30 5432 H 534.58 4.65593 -1.90349 0
M  V30 5433 H 534.28 4.59808 -3.65856 0
M  V30 5434 H 535.804 5.29558 -3.03976 0
M  V30 5435 H 537.218 3.55427 -4.49827 0
M  V30 5436 H 535.615 3.09408 -5.14186 0
M  V30 5437 H 536.685 1.84219 -4.48544 0
M  V30 5438 N 538.028 1.39524 0.732853 0
M  V30 5439 C 539.274 1.37068 1.49467 0
M  V30 5440 C 539.607 -0.0327166 1.94172 0
M  V30 5441 O 538.882 -0.998071 1.66939 0
M  V30 5442 C 539.165 2.34494 2.73285 0
M  V30 5443 C 539.018 3.83784 2.34585 0
M  V30 5444 C 540.337 2.29717 3.75391 0
M  V30 5445 H 537.456 0.499206 0.542183 0
M  V30 5446 H 540.098 1.70532 0.837783 0
M  V30 5447 H 538.248 2.06087 3.29333 0
M  V30 5448 H 539.92 4.22949 1.84151 0
M  V30 5449 H 538.163 4.00455 1.66787 0
M  V30 5450 H 538.834 4.47444 3.23262 0
M  V30 5451 H 541.31 2.54839 3.28932 0
M  V30 5452 H 540.186 2.99962 4.59689 0
M  V30 5453 H 540.447 1.30291 4.22465 0
M  V30 5454 N 539.506 -0.963266 1.24736 0
M  V30 5455 C 540.752 -1.70933 1.09131 0
M  V30 5456 C 541.085 -1.90676 -0.368273 0
M  V30 5457 O 540.36 -1.47147 -1.27193 0
M  V30 5458 C 540.643 -3.09744 1.83658 0
M  V30 5459 C 540.496 -2.97465 3.37394 0
M  V30 5460 C 541.815 -4.09483 1.61282 0
M  V30 5461 H 538.934 -0.620398 0.397838 0
M  V30 5462 H 541.576 -1.12028 1.53459 0
M  V30 5463 H 539.726 -3.60031 1.4598 0
M  V30 5464 H 541.398 -2.54571 3.84696 0
M  V30 5465 H 539.641 -2.33576 3.65547 0
M  V30 5466 H 540.312 -3.95822 3.84745 0
M  V30 5467 H 542.788 -3.68073 1.94066 0
M  V30 5468 H 541.664 -5.04666 2.15878 0
M  V30 5469 H 541.925 -4.38639 0.552102 0
M  V30 5470 N 540.985 -1.06182 -1.16461 0
M  V30 5471 C 542.231 -0.779015 -1.87241 0
M  V30 5472 C 542.564 0.692715 -1.81425 0
M  V30 5473 O 541.839 1.5074 -1.22913 0
M  V30 5474 C 542.122 -1.2728 -3.36856 0
M  V30 5475 C 541.975 -2.80821 -3.51368 0
M  V30 5476 C 543.294 -0.879799 -4.31216 0
M  V30 5477 H 540.413 -0.284464 -0.679889 0
M  V30 5478 H 543.055 -1.31755 -1.36896 0
M  V30 5479 H 541.205 -0.814673 -3.79862 0
M  V30 5480 H 542.877 -3.34833 -3.17308 0
M  V30 5481 H 541.12 -3.19606 -2.93316 0
M  V30 5482 H 541.791 -3.10435 -4.56436 0
M  V30 5483 H 544.267 -1.27436 -3.96105 0
M  V30 5484 H 543.143 -1.25278 -5.34412 0
M  V30 5485 H 543.404 0.215372 -4.41575 0
M  V30 5486 N 542.463 1.3308 -0.844243 0
M  V30 5487 C 543.709 1.97898 -0.443206 0
M  V30 5488 C 544.042 1.66699 0.99625 0
M  V30 5489 O 543.317 0.949704 1.69738 0
M  V30 5490 C 543.6 3.53801 -0.670606 0
M  V30 5491 C 543.453 3.94667 -2.15772 0
M  V30 5492 C 544.772 4.39936 -0.120226 0
M  V30 5493 H 541.891 0.718861 -0.162504 0
M  V30 5494 H 544.533 1.57633 -1.06075 0
M  V30 5495 H 542.683 3.88229 -0.14496 0
M  V30 5496 H 544.355 3.70469 -2.74865 0
M  V30 5497 H 542.598 3.44203 -2.6402 0
M  V30 5498 H 543.269 5.03275 -2.26757 0
M  V30 5499 H 545.745 4.12183 -0.5696 0
M  V30 5500 H 544.621 5.4803 -0.308984 0
M  V30 5501 H 544.882 4.31184 0.976347 0
M  V30 5502 N 543.941 0.601185 1.45683 0
M  V30 5503 C 545.187 0.0940202 2.02582 0
M  V30 5504 C 545.52 -1.26972 1.46941 0
M  V30 5505 O 544.795 -1.83613 0.641612 0
M  V30 5506 C 545.078 0.0481715 3.60068 0
M  V30 5507 C 544.931 1.44212 4.26055 0
M  V30 5508 C 546.25 -0.642975 4.35378 0
M  V30 5509 H 543.369 0.0356404 0.736138 0
M  V30 5510 H 546.011 0.771929 1.73612 0
M  V30 5511 H 544.161 -0.529128 3.8488 0
M  V30 5512 H 545.833 2.06601 4.12449 0
M  V30 5513 H 544.076 2.00465 3.84703 0
M  V30 5514 H 544.747 1.36234 5.34925 0
M  V30 5515 H 547.223 -0.152351 4.15821 0
M  V30 5516 H 546.099 -0.644141 5.45107 0
M  V30 5517 H 546.36 -1.70785 4.0778 0
M  V30 5518 N 545.419 -1.53889 0.339982 0
M  V30 5519 C 546.349 -2.27843 -0.510856 0
M  V30 5520 C 547.33 -1.29267 -1.10563 0
M  V30 5521 O 548.515 -1.58104 -1.12768 0
M  V30 5522 C 545.645 -3.04857 -1.66372 0
M  V30 5523 C 544.599 -4.10907 -1.19746 0
M  V30 5524 C 543.925 -4.75855 -2.43857 0
M  V30 5525 C 545.225 -5.21435 -0.300501 0
M  V30 5526 H 546.919 -2.99212 0.106067 0
M  V30 5527 H 544.465 -1.43904 0.0524533 0
M  V30 5528 H 546.418 -3.5533 -2.26537 0
M  V30 5529 H 545.142 -2.31133 -2.30749 0
M  V30 5530 H 543.801 -3.61342 -0.618654 0
M  V30 5531 H 543.449 -3.9873 -3.06633 0
M  V30 5532 H 543.149 -5.47502 -2.13343 0
M  V30 5533 H 544.673 -5.2911 -3.04754 0
M  V30 5534 H 546.087 -5.67565 -0.80889 0
M  V30 5535 H 544.484 -6.00036 -0.0874076 0
M  V30 5536 H 545.554 -4.80328 0.664321 0
M  V30 5537 N 546.897 -0.0685191 -1.57451 0
M  V30 5538 C 547.83 0.935736 -2.08133 0
M  V30 5539 C 548.808 1.29317 -0.985698 0
M  V30 5540 O 549.992 1.40304 -1.25886 0
M  V30 5541 C 547.119 2.2448 -2.53627 0
M  V30 5542 C 546.165 2.03917 -3.74593 0
M  V30 5543 S 546.998 1.30154 -5.19442 0
M  V30 5544 C 548.154 2.62346 -5.68265 0
M  V30 5545 H 548.387 0.504473 -2.92989 0
M  V30 5546 H 545.92 0.144169 -1.53725 0
M  V30 5547 H 547.878 2.99718 -2.80499 0
M  V30 5548 H 546.539 2.64731 -1.69045 0
M  V30 5549 H 545.732 3.00788 -4.04404 0
M  V30 5550 H 545.334 1.36815 -3.48077 0
M  V30 5551 H 547.626 3.58448 -5.7491 0
M  V30 5552 H 548.569 2.3715 -6.67207 0
M  V30 5553 H 548.977 2.69401 -4.96068 0
M  V30 5554 N 548.375 1.56261 0.205012 0
M  V30 5555 C 549.6 1.84491 0.947512 0
M  V30 5556 C 550.025 0.650894 1.76479 0
M  V30 5557 O 549.383 -0.40035 1.76824 0
M  V30 5558 C 549.431 3.10863 1.82747 0
M  V30 5559 O 548.535 2.90719 2.925 0
M  V30 5560 H 547.876 0.607783 0.267386 0
M  V30 5561 H 550.406 2.03485 0.213323 0
M  V30 5562 H 550.416 3.41399 2.23407 0
M  V30 5563 H 549.091 3.97392 1.2269 0
M  V30 5564 H 547.668 2.71457 2.55667 0
M  V30 5565 N 549.853 -0.472356 1.50355 0
M  V30 5566 C 551.269 -0.806001 1.37753 0
M  V30 5567 C 551.469 -1.968 0.432649 0
M  V30 5568 O 550.525 -2.52189 -0.12519 0
M  V30 5569 C 551.838 -1.11926 2.79093 0
M  V30 5570 C 553.386 -1.22579 2.87999 0
M  V30 5571 C 553.861 -1.57218 4.3017 0
M  V30 5572 N 555.352 -1.64212 4.33115 0
M  V30 5573 C 556.087 -1.92517 5.40116 0
M  V30 5574 N 555.583 -2.1885 6.57325 0
M  V30 5575 N 557.376 -1.94008 5.27558 0
M  V30 5576 H 549.527 0.293451 2.10363 0
M  V30 5577 H 551.79 0.0687672 0.945503 0
M  V30 5578 H 551.496 -0.338504 3.50067 0
M  V30 5579 H 551.37 -2.05577 3.16256 0
M  V30 5580 H 553.757 -1.99722 2.17245 0
M  V30 5581 H 553.838 -0.269107 2.54381 0
M  V30 5582 H 553.482 -0.806154 5.01461 0
M  V30 5583 H 553.412 -2.54034 4.61275 0
M  V30 5584 H 555.903 -1.45906 3.48597 0
M  V30 5585 H 556.216 -2.39718 7.3468 0
M  V30 5586 H 554.561 -2.16245 6.60502 0
M  V30 5587 H 557.752 -1.72931 4.34986 0
M  V30 5588 H 557.925 -2.15731 6.11035 0
M  V30 5589 N 551.331 -1.39911 -0.725443 0
M  V30 5590 C 552.561 -1.40744 -1.51244 0
M  V30 5591 C 552.969 -0.00275403 -1.892 0
M  V30 5592 O 552.312 0.981299 -1.55294 0
M  V30 5593 C 552.374 -2.22527 -2.82351 0
M  V30 5594 C 552.038 -3.71053 -2.66774 0
M  V30 5595 C 553.035 -4.63916 -2.34686 0
M  V30 5596 C 550.72 -4.14753 -2.83347 0
M  V30 5597 C 552.714 -5.98463 -2.19366 0
M  V30 5598 C 550.401 -5.49372 -2.67644 0
M  V30 5599 C 551.399 -6.41042 -2.357 0
M  V30 5600 O 551.087 -7.73181 -2.20107 0
M  V30 5601 H 550.819 -0.482314 -0.473655 0
M  V30 5602 H 553.373 -1.84472 -0.903284 0
M  V30 5603 H 551.603 -1.73563 -3.45562 0
M  V30 5604 H 553.292 -2.15421 -3.44018 0
M  V30 5605 H 554.058 -4.31453 -2.21525 0
M  V30 5606 H 549.937 -3.43728 -3.072 0
M  V30 5607 H 553.481 -6.69979 -1.94354 0
M  V30 5608 H 549.378 -5.81424 -2.80387 0
M  V30 5609 H 550.146 -7.84008 -2.35103 0
M  V30 5610 N 552.809 0.956637 -1.25245 0
M  V30 5611 C 553.759 2.03841 -1.02141 0
M  V30 5612 C 554.743 1.60848 0.0410058 0
M  V30 5613 O 555.935 1.76142 -0.174084 0
M  V30 5614 C 553.064 3.37282 -0.639963 0
M  V30 5615 C 552.15 3.86805 -1.73903 0
M  V30 5616 N 552.541 4.09143 -2.97381 0
M  V30 5617 C 550.839 4.15574 -1.61909 0
M  V30 5618 C 551.54 4.49923 -3.68707 0
M  V30 5619 N 550.516 4.55737 -2.96318 0
M  V30 5620 H 554.318 2.19102 -1.95886 0
M  V30 5621 H 551.832 1.1413 -1.15534 0
M  V30 5622 H 553.829 4.14403 -0.455643 0
M  V30 5623 H 552.489 3.23401 0.29018 0
M  V30 5624 H 553.5 3.96275 -3.33447 0
M  V30 5625 H 550.177 4.10566 -0.757764 0
M  V30 5626 H 551.567 4.75526 -4.74684 0
M  V30 5627 N 554.287 1.06798 1.15896 0
M  V30 5628 C 555.703 0.792423 1.38538 0
M  V30 5629 C 555.903 -0.60592 1.92174 0
M  V30 5630 O 554.959 -1.36561 2.12385 0
M  V30 5631 C 556.272 1.86157 2.36149 0
M  V30 5632 C 557.82 1.88567 2.49823 0
M  V30 5633 C 558.295 2.9455 3.5072 0
M  V30 5634 N 559.786 2.93616 3.58251 0
M  V30 5635 C 560.521 3.72267 4.36125 0
M  V30 5636 N 560.017 4.60751 5.17379 0
M  V30 5637 N 561.81 3.60637 4.31158 0
M  V30 5638 H 553.961 1.96993 0.794198 0
M  V30 5639 H 556.224 0.853942 0.411688 0
M  V30 5640 H 555.93 2.86603 2.03843 0
M  V30 5641 H 555.804 1.71692 3.3586 0
M  V30 5642 H 558.191 0.887765 2.8143 0
M  V30 5643 H 558.272 2.0711 1.5013 0
M  V30 5644 H 557.916 3.94537 3.19849 0
M  V30 5645 H 557.846 2.73255 4.50155 0
M  V30 5646 H 560.337 2.29472 3.00252 0
M  V30 5647 H 560.65 5.17408 5.74028 0
M  V30 5648 H 558.995 4.64803 5.16704 0
M  V30 5649 H 562.186 2.90892 3.66742 0
M  V30 5650 H 562.359 4.22176 4.91601 0
M  V30 5651 N 555.766 -1.3263 0.851289 0
M  V30 5652 C 557.182 -1.50162 0.5407 0
M  V30 5653 C 557.382 -1.78788 -0.929369 0
M  V30 5654 O 556.438 -1.85545 -1.71258 0
M  V30 5655 C 557.751 -2.64803 1.42478 0
M  V30 5656 C 559.299 -2.78688 1.42485 0
M  V30 5657 C 559.774 -3.96405 2.29407 0
M  V30 5658 N 561.265 -4.0366 2.27184 0
M  V30 5659 C 562 -4.93971 2.9117 0
M  V30 5660 N 561.496 -5.89313 3.64256 0
M  V30 5661 N 563.289 -4.87066 2.80576 0
M  V30 5662 H 555.44 -1.12315 1.80275 0
M  V30 5663 H 557.703 -0.553266 0.769806 0
M  V30 5664 H 557.409 -2.50368 2.46999 0
M  V30 5665 H 557.283 -3.60506 1.10974 0
M  V30 5666 H 559.67 -2.92547 0.387304 0
M  V30 5667 H 559.751 -1.83708 1.78002 0
M  V30 5668 H 559.395 -3.83304 3.33228 0
M  V30 5669 H 559.325 -4.90654 1.91224 0
M  V30 5670 H 561.816 -3.35435 1.74045 0
M  V30 5671 H 562.129 -6.54913 4.10255 0
M  V30 5672 H 560.474 -5.8935 3.68364 0
M  V30 5673 H 563.665 -4.11552 2.23031 0
M  V30 5674 H 563.838 -5.57248 3.30725 0
M  V30 5675 N 557.244 -0.608902 -1.45362 0
M  V30 5676 C 558.191 0.109172 -2.30542 0
M  V30 5677 C 559.161 0.858704 -1.42181 0
M  V30 5678 O 560.346 0.844178 -1.71109 0
M  V30 5679 C 557.486 1.09971 -3.27109 0
M  V30 5680 C 556.599 0.350911 -4.30572 0
M  V30 5681 C 555.734 1.33129 -5.14247 0
M  V30 5682 C 554.773 0.570377 -6.09437 0
M  V30 5683 N 553.91 1.5001 -6.85887 0
M  V30 5684 H 558.75 -0.623195 -2.91411 0
M  V30 5685 H 556.287 -0.319122 -1.43597 0
M  V30 5686 H 558.245 1.68714 -3.81564 0
M  V30 5687 H 556.875 1.79947 -2.67991 0
M  V30 5688 H 555.927 -0.352054 -3.78767 0
M  V30 5689 H 557.239 -0.242725 -4.98209 0
M  V30 5690 H 556.393 1.99074 -5.73109 0
M  V30 5691 H 555.132 1.95885 -4.46632 0
M  V30 5692 H 554.137 -0.102702 -5.49704 0
M  V30 5693 H 555.362 -0.0521607 -6.7908 0
M  V30 5694 H 553.308 2.11529 -6.2096 0
M  V30 5695 H 553.225 0.959934 -7.49881 0
M  V30 5696 H 554.493 2.14909 -7.49289 0
M  V30 5697 N 558.722 1.53707 -0.348139 0
M  V30 5698 C 559.685 2.23812 0.494058 0
M  V30 5699 C 560.685 1.23989 1.02388 0
M  V30 5700 O 561.875 1.48395 0.912396 0
M  V30 5701 C 559.007 2.96133 1.68872 0
M  V30 5702 H 560.2 2.99663 -0.119141 0
M  V30 5703 H 557.753 1.55983 -0.0995539 0
M  V30 5704 H 558.488 2.24481 2.34049 0
M  V30 5705 H 558.273 3.69357 1.31596 0
M  V30 5706 H 559.763 3.49475 2.28597 0
M  V30 5707 N 560.2 0.0768682 1.57412 0
M  V30 5708 C 561.132 -0.918248 2.10002 0
M  V30 5709 C 562.145 -1.25808 1.03325 0
M  V30 5710 O 563.334 -1.21438 1.30824 0
M  V30 5711 C 560.434 -2.23263 2.54964 0
M  V30 5712 C 559.607 -2.07088 3.8527 0
M  V30 5713 C 558.666 -3.21876 4.16272 0
M  V30 5714 O 557.692 -2.96643 4.8579 0
M  V30 5715 N 558.894 -4.4712 3.70221 0
M  V30 5716 H 561.659 -0.469209 2.96004 0
M  V30 5717 H 559.22 -0.108725 1.61535 0
M  V30 5718 H 561.212 -2.9897 2.72762 0
M  V30 5719 H 559.782 -2.59649 1.74072 0
M  V30 5720 H 559.002 -1.15818 3.76802 0
M  V30 5721 H 560.29 -1.93537 4.70554 0
M  V30 5722 H 559.688 -4.70506 3.1407 0
M  V30 5723 H 558.245 -5.19837 3.93209 0
M  V30 5724 N 561.678 -1.56367 -0.196722 0
M  V30 5725 C 562.61 -1.90941 -1.26784 0
M  V30 5726 C 563.623 -0.799928 -1.41792 0
M  V30 5727 O 564.812 -1.07833 -1.42247 0
M  V30 5728 C 561.912 -2.12477 -2.6402 0
M  V30 5729 C 561.085 -3.43616 -2.70641 0
M  V30 5730 C 560.144 -3.54284 -3.89062 0
M  V30 5731 O 559.17 -4.2712 -3.76241 0
M  V30 5732 N 560.372 -2.87252 -5.04447 0
M  V30 5733 H 563.137 -2.83417 -0.974417 0
M  V30 5734 H 560.698 -1.57215 -0.386649 0
M  V30 5735 H 562.69 -2.16904 -3.41665 0
M  V30 5736 H 561.26 -1.26508 -2.85857 0
M  V30 5737 H 560.48 -3.51072 -1.79283 0
M  V30 5738 H 561.768 -4.29958 -2.72054 0
M  V30 5739 H 561.166 -2.27901 -5.17762 0
M  V30 5740 H 559.723 -2.97308 -5.80044 0
M  V30 5741 N 563.156 0.464375 -1.50603 0
M  V30 5742 C 564.089 1.58052 -1.64605 0
M  V30 5743 C 565.067 1.54914 -0.494016 0
M  V30 5744 O 566.251 1.74438 -0.714393 0
M  V30 5745 C 563.378 2.96634 -1.63481 0
M  V30 5746 C 562.424 3.17901 -2.84325 0
M  V30 5747 S 563.257 2.97083 -4.45536 0
M  V30 5748 C 564.413 4.37994 -4.47115 0
M  V30 5749 H 564.646 1.45937 -2.59017 0
M  V30 5750 H 562.179 0.652189 -1.39949 0
M  V30 5751 H 564.137 3.76527 -1.63517 0
M  V30 5752 H 562.798 3.06134 -0.702928 0
M  V30 5753 H 561.991 4.19158 -2.79862 0
M  V30 5754 H 561.593 2.45792 -2.81891 0
M  V30 5755 H 563.885 5.30743 -4.21091 0
M  V30 5756 H 564.828 4.47499 -5.48772 0
M  V30 5757 H 565.236 4.20386 -3.76743 0
M  V30 5758 N 564.634 1.40294 0.718013 0
M  V30 5759 C 565.862 1.4175 1.50714 0
M  V30 5760 C 566.277 0.0165366 1.88793 0
M  V30 5761 O 565.634 -0.958942 1.55276 0
M  V30 5762 C 565.685 2.30598 2.784 0
M  V30 5763 O 565.406 3.6524 2.41932 0
M  V30 5764 C 566.907 2.4062 3.72313 0
M  V30 5765 H 564.127 0.483565 0.465194 0
M  V30 5766 H 566.671 1.84316 0.885889 0
M  V30 5767 H 564.826 1.91401 3.36815 0
M  V30 5768 H 565.24 4.12402 3.24076 0
M  V30 5769 H 566.714 3.07001 4.58753 0
M  V30 5770 H 567.191 1.4305 4.15251 0
M  V30 5771 H 567.797 2.80359 3.19811 0
M  V30 5772 N 566.112 -0.949982 1.2575 0
M  V30 5773 C 567.044 -2.05088 1.02331 0
M  V30 5774 C 568.057 -1.62795 -0.0133247 0
M  V30 5775 O 569.246 -1.77067 0.225759 0
M  V30 5776 C 566.346 -3.34794 0.525924 0
M  V30 5777 C 565.519 -4.05903 1.62978 0
M  V30 5778 C 564.578 -5.1388 1.13196 0
M  V30 5779 O 563.604 -5.39072 1.82729 0
M  V30 5780 N 564.806 -5.80495 -0.0242926 0
M  V30 5781 H 567.571 -2.25747 1.97125 0
M  V30 5782 H 565.132 -1.11886 1.17018 0
M  V30 5783 H 567.124 -4.04312 0.177263 0
M  V30 5784 H 565.694 -3.10872 -0.328202 0
M  V30 5785 H 564.914 -3.3042 2.1498 0
M  V30 5786 H 566.202 -4.50166 2.37124 0
M  V30 5787 H 565.6 -5.62454 -0.605184 0
M  V30 5788 H 564.157 -6.51043 -0.313947 0
M  V30 5789 N 567.59 -1.07411 -1.15328 0
M  V30 5790 C 568.537 -0.694995 -2.20087 0
M  V30 5791 C 569.507 0.313904 -1.63107 0
M  V30 5792 O 570.692 0.200216 -1.89747 0
M  V30 5793 C 567.832 -0.0996218 -3.44956 0
M  V30 5794 C 566.945 -1.16007 -4.16133 0
M  V30 5795 C 566.08 -0.529636 -5.28553 0
M  V30 5796 C 565.119 -1.57283 -5.91548 0
M  V30 5797 N 564.256 -0.964932 -6.95438 0
M  V30 5798 H 569.096 -1.5927 -2.51867 0
M  V30 5799 H 566.633 -0.796115 -1.23695 0
M  V30 5800 H 568.591 0.263197 -4.16369 0
M  V30 5801 H 567.221 0.761435 -3.13691 0
M  V30 5802 H 566.273 -1.64045 -3.4321 0
M  V30 5803 H 567.585 -1.95101 -4.59061 0
M  V30 5804 H 566.739 -0.114487 -6.06592 0
M  V30 5805 H 565.478 0.29307 -4.86819 0
M  V30 5806 H 564.483 -1.99775 -5.12221 0
M  V30 5807 H 565.708 -2.39783 -6.35359 0
M  V30 5808 H 563.654 -0.16314 -6.55797 0
M  V30 5809 H 563.571 -1.69311 -7.36797 0
M  V30 5810 H 564.839 -0.575305 -7.77374 0
M  V30 5811 N 569.068 1.32177 -0.85831 0
M  V30 5812 C 570.298 2.01021 -0.476889 0
M  V30 5813 C 570.706 1.64653 0.931995 0
M  V30 5814 O 570.049 0.865713 1.62022 0
M  V30 5815 C 570.111 3.55413 -0.540528 0
M  V30 5816 C 569.775 4.1522 -1.90895 0
M  V30 5817 C 570.772 4.3318 -2.87491 0
M  V30 5818 C 568.457 4.51212 -2.20709 0
M  V30 5819 C 570.451 4.86306 -4.1205 0
M  V30 5820 C 568.138 5.04042 -3.45521 0
M  V30 5821 C 569.136 5.21538 -4.41007 0
M  V30 5822 O 568.824 5.73238 -5.63608 0
M  V30 5823 H 568.556 0.650059 -0.18547 0
M  V30 5824 H 571.11 1.69648 -1.15796 0
M  V30 5825 H 569.34 3.86196 0.19741 0
M  V30 5826 H 571.029 4.05526 -0.174191 0
M  V30 5827 H 571.795 4.05704 -2.65762 0
M  V30 5828 H 567.674 4.36878 -1.4717 0
M  V30 5829 H 571.218 4.99877 -4.86589 0
M  V30 5830 H 567.115 5.30952 -3.67098 0
M  V30 5831 H 567.883 5.91625 -5.65617 0
M  V30 5832 N 570.547 0.616602 1.45037 0
M  V30 5833 C 571.457 -0.0985401 2.34393 0
M  V30 5834 C 572.473 -0.850971 1.51771 0
M  V30 5835 O 573.649 -0.806521 1.84546 0
M  V30 5836 C 570.714 -1.07748 3.29532 0
M  V30 5837 C 569.775 -0.326022 4.2806 0
M  V30 5838 C 569.008 -1.25833 5.18654 0
M  V30 5839 O 569.231 -2.49652 5.12864 0
M  V30 5840 O 568.165 -0.750512 5.97203 0
M  V30 5841 H 571.991 0.636016 2.96966 0
M  V30 5842 H 569.576 0.376832 1.44569 0
M  V30 5843 H 571.458 -1.64107 3.88133 0
M  V30 5844 H 570.133 -1.79291 2.69512 0
M  V30 5845 H 569.04 0.280253 3.73049 0
M  V30 5846 H 570.373 0.349091 4.9096 0
M  V30 5847 N 572.025 -1.5352 0.356285 0
M  V30 5848 C 572.935 -2.29151 -0.502712 0
M  V30 5849 C 573.951 -1.34753 -1.1008 0
M  V30 5850 O 575.127 -1.67803 -1.11374 0
M  V30 5851 C 572.192 -3.05911 -1.63154 0
M  V30 5852 C 571.253 -4.15958 -1.06194 0
M  V30 5853 C 570.486 -4.8905 -2.13696 0
M  V30 5854 O 570.709 -4.61919 -3.34645 0
M  V30 5855 O 569.643 -5.75202 -1.77275 0
M  V30 5856 H 573.469 -3.03492 0.112466 0
M  V30 5857 H 571.054 -1.4891 0.120942 0
M  V30 5858 H 572.936 -3.53874 -2.28804 0
M  V30 5859 H 571.611 -2.34415 -2.23229 0
M  V30 5860 H 570.518 -3.7227 -0.369603 0
M  V30 5861 H 571.851 -4.89593 -0.505872 0
M  V30 5862 N 573.503 -0.0852151 -1.57369 0
M  V30 5863 C 574.413 0.891712 -2.16992 0
M  V30 5864 C 575.429 1.3174 -1.13669 0
M  V30 5865 O 576.605 1.38735 -1.45995 0
M  V30 5866 C 573.67 2.13635 -2.73059 0
M  V30 5867 C 572.731 1.7658 -3.91303 0
M  V30 5868 C 571.964 2.95111 -4.44686 0
M  V30 5869 O 572.187 4.09539 -3.97032 0
M  V30 5870 O 571.121 2.74149 -5.35841 0
M  V30 5871 H 574.947 0.414477 -3.00858 0
M  V30 5872 H 572.532 0.138598 -1.48756 0
M  V30 5873 H 574.414 2.86595 -3.08935 0
M  V30 5874 H 573.089 2.6043 -1.92244 0
M  V30 5875 H 571.996 1.00831 -3.60255 0
M  V30 5876 H 573.329 1.34557 -4.7345 0
M  V30 5877 N 574.981 1.5647 0.188427 0
M  V30 5878 C 575.911 1.98101 1.23606 0
M  V30 5879 C 576.892 0.853961 1.47111 0
M  V30 5880 O 578.077 1.11879 1.58735 0
M  V30 5881 C 575.207 2.32624 2.57882 0
M  V30 5882 C 574.161 3.48129 2.48978 0
M  V30 5883 C 573.487 3.68347 3.87588 0
M  V30 5884 C 574.787 4.82112 2.00911 0
M  V30 5885 H 576.481 2.85864 0.890068 0
M  V30 5886 H 574.027 1.37532 0.426714 0
M  V30 5887 H 575.98 2.60343 3.3136 0
M  V30 5888 H 574.704 1.41751 2.94235 0
M  V30 5889 H 573.363 3.20511 1.77956 0
M  V30 5890 H 573.011 2.74793 4.21305 0
M  V30 5891 H 572.711 4.46055 3.82503 0
M  V30 5892 H 574.235 3.98449 4.62678 0
M  V30 5893 H 575.649 5.08819 2.64151 0
M  V30 5894 H 574.046 5.63337 2.06814 0
M  V30 5895 H 575.116 4.75249 0.96262 0
M  V30 5896 N 576.459 -0.456382 1.50847 0
M  V30 5897 C 577.687 -1.23026 1.66349 0
M  V30 5898 C 578.102 -1.85473 0.352868 0
M  V30 5899 O 577.459 -1.69885 -0.666739 0
M  V30 5900 C 577.51 -2.32827 2.76539 0
M  V30 5901 O 577.231 -1.72938 4.02522 0
M  V30 5902 C 578.732 -3.23448 3.03144 0
M  V30 5903 H 575.952 -0.371527 0.558756 0
M  V30 5904 H 578.496 -0.543082 1.97157 0
M  V30 5905 H 576.651 -2.97294 2.48384 0
M  V30 5906 H 577.065 -2.45357 4.63573 0
M  V30 5907 H 578.539 -3.96669 3.83872 0
M  V30 5908 H 579.016 -3.83094 2.14793 0
M  V30 5909 H 579.622 -2.64702 3.32886 0
M  V30 5910 N 577.937 -1.40673 -0.710563 0
M  V30 5911 C 578.867 -1.44095 -1.83736 0
M  V30 5912 C 579.848 -0.301286 -1.67411 0
M  V30 5913 O 581.033 -0.510618 -1.87367 0
M  V30 5914 C 578.163 -1.30773 -3.21738 0
M  V30 5915 C 577.117 -2.42395 -3.52745 0
M  V30 5916 C 576.443 -2.14147 -4.89944 0
M  V30 5917 C 577.743 -3.84738 -3.53234 0
M  V30 5918 H 579.437 -2.38396 -1.81129 0
M  V30 5919 H 576.983 -1.14746 -0.870017 0
M  V30 5920 H 578.936 -1.31783 -4.00264 0
M  V30 5921 H 577.66 -0.329507 -3.24934 0
M  V30 5922 H 576.319 -2.40643 -2.76562 0
M  V30 5923 H 575.967 -1.14703 -4.89747 0
M  V30 5924 H 575.667 -2.88934 -5.11655 0
M  V30 5925 H 577.191 -2.16848 -5.70797 0
M  V30 5926 H 578.605 -3.88286 -4.2179 0
M  V30 5927 H 577.002 -4.59085 -3.86473 0
M  V30 5928 H 578.072 -4.13962 -2.52514 0
M  V30 5929 N 579.415 0.9433 -1.26252 0
M  V30 5930 C 580.643 1.72367 -1.14443 0
M  V30 5931 C 581.058 1.86392 0.300572 0
M  V30 5932 O 580.415 1.36978 1.20596 0
M  V30 5933 C 580.466 3.13155 -1.806 0
M  V30 5934 O 580.187 2.99803 -3.19452 0
M  V30 5935 C 581.688 4.07417 -1.74717 0
M  V30 5936 H 578.908 0.539758 -0.398626 0
M  V30 5937 H 581.452 1.18268 -1.66832 0
M  V30 5938 H 579.607 3.64162 -1.32154 0
M  V30 5939 H 580.021 3.88697 -3.52158 0
M  V30 5940 H 581.495 5.03773 -2.25647 0
M  V30 5941 H 581.972 4.3337 -0.713244 0
M  V30 5942 H 582.578 3.6233 -2.22704 0
M  V30 5943 N 580.893 1.08022 1.14757 0
M  V30 5944 C 582.309 0.807072 1.3769 0
M  V30 5945 C 582.509 -0.585504 1.92806 0
M  V30 5946 O 581.565 -1.34301 2.13821 0
M  V30 5947 C 582.878 1.88651 2.34161 0
M  V30 5948 C 584.426 1.91206 2.47809 0
M  V30 5949 C 584.901 2.98253 3.47576 0
M  V30 5950 N 586.392 2.974 3.55117 0
M  V30 5951 C 587.127 3.76872 4.32152 0
M  V30 5952 N 586.623 4.66212 5.12463 0
M  V30 5953 N 588.416 3.6519 4.27309 0
M  V30 5954 H 580.567 1.97824 0.77326 0
M  V30 5955 H 582.83 0.85826 0.402608 0
M  V30 5956 H 582.536 2.88749 2.00791 0
M  V30 5957 H 582.41 1.75244 3.3402 0
M  V30 5958 H 584.797 0.917564 2.80472 0
M  V30 5959 H 584.878 2.08691 1.47925 0
M  V30 5960 H 584.522 3.97907 3.15646 0
M  V30 5961 H 584.452 2.78014 4.47231 0
M  V30 5962 H 586.943 2.32643 2.97801 0
M  V30 5963 H 587.256 5.23468 5.68508 0
M  V30 5964 H 585.601 4.70257 5.11745 0
M  V30 5965 H 588.792 2.94765 3.63636 0
M  V30 5966 H 588.965 4.27366 4.87095 0
M  V30 5967 N 582.371 -1.3172 0.865308 0
M  V30 5968 C 583.281 -2.32394 0.320935 0
M  V30 5969 C 584.297 -1.64511 -0.566746 0
M  V30 5970 O 585.473 -1.95969 -0.464575 0
M  V30 5971 C 582.538 -3.43462 -0.472701 0
M  V30 5972 C 581.599 -4.27015 0.442385 0
M  V30 5973 C 580.832 -5.32779 -0.313469 0
M  V30 5974 O 581.055 -5.49158 -1.54214 0
M  V30 5975 O 579.989 -6.01015 0.326257 0
M  V30 5976 H 583.815 -2.80868 1.15528 0
M  V30 5977 H 581.4 -1.35535 0.628545 0
M  V30 5978 H 583.282 -4.11172 -0.922781 0
M  V30 5979 H 581.957 -2.97159 -1.28367 0
M  V30 5980 H 580.864 -3.62075 0.940866 0
M  V30 5981 H 582.197 -4.76871 1.21882 0
M  V30 5982 N 583.85 -0.624285 -1.44708 0
M  V30 5983 C 584.798 0.0969952 -2.32398 0
M  V30 5984 C 585.792 0.842762 -1.46949 0
M  V30 5985 O 586.998 0.756436 -1.63334 0
M  V30 5986 H 583.373 0.0501306 -0.750327 0
M  V30 5987 H 585.344 -0.660767 -2.90992 0
M  V30 5988 C 584.093 1.06967 -3.30837 0
M  V30 5989 H 583.416 0.505242 -3.96595 0
M  V30 5990 H 584.856 1.54397 -3.94889 0
M  V30 5991 C 583.315 2.15153 -2.5925 0
M  V30 5992 O 583.845 3.23139 -2.3863 0
M  V30 5993 N 582.051 1.90898 -2.19103 0
M  V30 5994 H 581.598 1.03086 -2.36074 0
M  V30 5995 H 581.556 2.63485 -1.71531 0
M  V30 5996 N 585.328 1.53329 -0.364422 0
M  V30 5997 C 586.553 2.06132 0.229033 0
M  V30 5998 C 586.978 1.23625 1.41769 0
M  V30 5999 O 586.336 0.255038 1.79497 0
M  V30 6000 C 586.384 3.55544 0.60174 0
M  V30 6001 O 585.488 3.75771 1.69912 0
M  V30 6002 H 584.829 0.663148 0.0336213 0
M  V30 6003 H 587.359 1.97758 -0.524689 0
M  V30 6004 H 587.369 3.98549 0.873073 0
M  V30 6005 H 586.044 4.15039 -0.267421 0
M  V30 6006 H 584.621 3.44663 1.42343 0
M  V30 6007 N 586.806 0.0935595 1.57322 0
M  V30 6008 C 588.055 -0.570191 1.93473 0
M  V30 6009 C 588.368 -1.69434 0.977318 0
M  V30 6010 O 589.574 -2.41914 1.23248 0
M  V30 6011 C 588.03 -1.06564 3.43762 0
M  V30 6012 C 587.638 0.0286723 4.47991 0
M  V30 6013 C 589.382 -1.70221 3.88877 0
M  V30 6014 C 587.289 -0.482046 5.89432 0
M  V30 6015 H 586.219 -0.216764 0.72217 0
M  V30 6016 H 588.87 0.169313 1.82717 0
M  V30 6017 H 587.252 -1.85878 3.49664 0
M  V30 6018 H 588.426 0.804106 4.5373 0
M  V30 6019 H 586.741 0.570336 4.12476 0
M  V30 6020 H 589.338 -2.09502 4.91948 0
M  V30 6021 H 589.681 -2.57078 3.27439 0
M  V30 6022 H 590.214 -0.974919 3.85668 0
M  V30 6023 H 586.953 0.349871 6.54566 0
M  V30 6024 H 586.473 -1.22452 5.87167 0
M  V30 6025 H 588.152 -0.951508 6.39965 0
M  V30 6026 N 588.284 -1.56567 -0.180126 0
M  V30 6027 C 589.7 -1.50488 -0.531559 0
M  V30 6028 C 589.9 -0.796267 -1.851 0
M  V30 6029 O 588.956 -0.352978 -2.50021 0
M  V30 6030 C 590.269 -2.95201 -0.572456 0
M  V30 6031 C 591.817 -3.05957 -0.660264 0
M  V30 6032 C 592.292 -4.5211 -0.732135 0
M  V30 6033 N 593.783 -4.56322 -0.795262 0
M  V30 6034 C 594.518 -5.66742 -0.871296 0
M  V30 6035 N 594.014 -6.86815 -0.908708 0
M  V30 6036 N 595.807 -5.54691 -0.909639 0
M  V30 6037 H 587.958 -2.01045 0.685165 0
M  V30 6038 H 590.221 -0.915536 0.245962 0
M  V30 6039 H 589.927 -3.50165 0.328208 0
M  V30 6040 H 589.801 -3.49369 -1.422 0
M  V30 6041 H 592.188 -2.51032 -1.55136 0
M  V30 6042 H 592.269 -2.54888 0.215783 0
M  V30 6043 H 591.913 -5.07664 0.154664 0
M  V30 6044 H 591.843 -5.00926 -1.6242 0
M  V30 6045 H 594.334 -3.69868 -0.77499 0
M  V30 6046 H 594.647 -7.66718 -0.967654 0
M  V30 6047 H 592.992 -6.89443 -0.877132 0
M  V30 6048 H 596.183 -4.59804 -0.877353 0
M  V30 6049 H 596.356 -6.40768 -0.965434 0
M  V30 6050 N 589.762 0.448376 -1.51087 0
M  V30 6051 C 591.178 0.783984 -1.39017 0
M  V30 6052 C 591.378 1.96087 -0.463904 0
M  V30 6053 O 590.434 2.52357 0.0850534 0
M  V30 6054 C 591.747 1.07471 -2.80839 0
M  V30 6055 C 593.295 1.17981 -2.89913 0
M  V30 6056 C 593.77 1.50354 -4.32617 0
M  V30 6057 N 595.261 1.57301 -4.35673 0
M  V30 6058 C 595.996 1.839 -5.4311 0
M  V30 6059 N 595.492 2.08365 -6.60724 0
M  V30 6060 N 597.285 1.8559 -5.30578 0
M  V30 6061 H 589.436 -0.326881 -2.0987 0
M  V30 6062 H 591.699 -0.0838006 -0.944289 0
M  V30 6063 H 591.405 0.282768 -3.50561 0
M  V30 6064 H 591.279 2.00519 -3.19487 0
M  V30 6065 H 593.666 1.9624 -2.20395 0
M  V30 6066 H 593.747 0.228603 -2.54776 0
M  V30 6067 H 593.391 0.726273 -5.0268 0
M  V30 6068 H 593.321 2.46663 -4.65258 0
M  V30 6069 H 595.812 1.40342 -3.50874 0
M  V30 6070 H 596.125 2.27999 -7.38401 0
M  V30 6071 H 594.47 2.0571 -6.63859 0
M  V30 6072 H 597.661 1.65989 -4.37682 0
M  V30 6073 H 597.834 2.05983 -6.1439 0
M  V30 6074 N 591.24 1.41047 0.703093 0
M  V30 6075 C 592.17 1.45067 1.82969 0
M  V30 6076 C 593.151 0.31016 1.67248 0
M  V30 6077 O 594.336 0.520548 1.87093 0
M  V30 6078 C 591.466 1.32478 3.2104 0
M  V30 6079 C 590.42 2.44262 3.51454 0
M  V30 6080 C 589.746 2.16742 4.88801 0
M  V30 6081 C 591.046 3.86606 3.51189 0
M  V30 6082 H 592.74 2.39353 1.79863 0
M  V30 6083 H 590.286 1.15206 0.863919 0
M  V30 6084 H 592.239 1.33904 3.99559 0
M  V30 6085 H 590.963 0.346735 3.24754 0
M  V30 6086 H 589.622 2.42107 2.75282 0
M  V30 6087 H 589.27 1.17299 4.89132 0
M  V30 6088 H 588.97 2.91643 5.10116 0
M  V30 6089 H 590.494 2.19872 5.69639 0
M  V30 6090 H 591.908 3.90517 4.19725 0
M  V30 6091 H 590.305 4.61128 3.84033 0
M  V30 6092 H 591.375 4.15296 2.50315 0
M  V30 6093 N 592.718 -0.936591 1.26751 0
M  V30 6094 C 593.668 -2.0219 1.05371 0
M  V30 6095 C 594.652 -1.60893 -0.0154112 0
M  V30 6096 O 595.844 -1.75843 0.202085 0
M  V30 6097 C 592.973 -3.36222 0.693541 0
M  V30 6098 C 592.059 -3.8399 1.80035 0
M  V30 6099 N 592.45 -4.0436 3.03852 0
M  V30 6100 C 590.748 -4.12945 1.685 0
M  V30 6101 C 591.449 -4.44 3.75818 0
M  V30 6102 N 590.425 -4.50966 3.03531 0
M  V30 6103 H 594.227 -2.15958 1.99347 0
M  V30 6104 H 591.741 -1.12277 1.17335 0
M  V30 6105 H 593.738 -4.13625 0.521513 0
M  V30 6106 H 592.398 -3.23821 -0.238693 0
M  V30 6107 H 593.409 -3.9092 3.39709 0
M  V30 6108 H 590.086 -4.09308 0.822986 0
M  V30 6109 H 591.476 -4.67914 4.82189 0
M  V30 6110 N 594.196 -1.08629 -1.14182 0
M  V30 6111 C 595.421 -0.83902 -1.89671 0
M  V30 6112 C 595.846 0.603332 -1.78161 0
M  V30 6113 O 595.204 1.42301 -1.12339 0
M  V30 6114 C 595.252 -1.26854 -3.37551 0
M  V30 6115 O 594.356 -0.42188 -4.10236 0
M  V30 6116 H 593.697 -0.304545 -0.590041 0
M  V30 6117 H 596.227 -1.4483 -1.44518 0
M  V30 6118 H 596.237 -1.25038 -3.88368 0
M  V30 6119 H 594.912 -2.31901 -3.45246 0
M  V30 6120 H 593.489 -0.503654 -3.69483 0
M  V30 6121 N 595.674 1.31259 -0.872281 0
M  V30 6122 C 596.624 2.26 -0.301295 0
M  V30 6123 C 597.608 1.50729 0.562991 0
M  V30 6124 O 598.8 1.72198 0.40949 0
M  V30 6125 C 595.929 3.39724 0.494227 0
M  V30 6126 C 595.015 4.22363 -0.383432 0
M  V30 6127 N 595.406 4.83724 -1.47799 0
M  V30 6128 C 593.704 4.45652 -0.176278 0
M  V30 6129 C 594.405 5.45523 -2.01939 0
M  V30 6130 N 593.381 5.27428 -1.31608 0
M  V30 6131 H 597.183 2.70981 -1.13782 0
M  V30 6132 H 594.697 1.45552 -0.720294 0
M  V30 6133 H 596.694 4.06626 0.919828 0
M  V30 6134 H 595.354 2.96286 1.32834 0
M  V30 6135 H 596.365 4.83313 -1.8609 0
M  V30 6136 H 593.042 4.12845 0.621698 0
M  V30 6137 H 594.432 6.04268 -2.93786 0
M  V30 6138 N 597.152 0.631951 1.44375 0
M  V30 6139 C 598.102 -0.0943862 2.27805 0
M  V30 6140 C 599.086 -0.815359 1.38711 0
M  V30 6141 O 600.278 -0.701331 1.62513 0
M  V30 6142 C 597.407 -1.07472 3.26044 0
M  V30 6143 C 596.493 -0.353329 4.22626 0
M  V30 6144 N 596.884 0.618512 5.02004 0
M  V30 6145 C 595.182 -0.597662 4.41977 0
M  V30 6146 C 595.883 1.0448 5.7224 0
M  V30 6147 N 594.859 0.383413 5.42246 0
M  V30 6148 H 598.661 0.651672 2.86584 0
M  V30 6149 H 596.175 0.45752 1.55822 0
M  V30 6150 H 598.172 -1.60969 3.84571 0
M  V30 6151 H 596.832 -1.82107 2.68825 0
M  V30 6152 H 597.843 0.996356 5.08226 0
M  V30 6153 H 594.52 -1.32682 3.95856 0
M  V30 6154 H 595.91 1.84773 6.45994 0
M  V30 6155 N 598.631 -1.53133 0.372548 0
M  V30 6156 C 599.859 -2.05774 -0.215515 0
M  V30 6157 C 600.274 -1.24555 -1.41886 0
M  V30 6158 O 599.631 -0.287951 -1.80214 0
M  V30 6159 C 599.682 -3.5645 -0.602161 0
M  V30 6160 O 599.403 -4.34591 0.553359 0
M  V30 6161 C 600.904 -4.25374 -1.24787 0
M  V30 6162 H 598.124 -0.670009 -0.0364529 0
M  V30 6163 H 600.668 -1.97434 0.532934 0
M  V30 6164 H 598.823 -3.64918 -1.30052 0
M  V30 6165 H 599.237 -5.23954 0.239336 0
M  V30 6166 H 600.711 -5.32097 -1.46891 0
M  V30 6167 H 601.188 -3.79531 -2.21026 0
M  V30 6168 H 601.794 -4.21177 -0.590752 0
M  V30 6169 N 600.109 -0.101901 -1.5727 0
M  V30 6170 C 601.386 0.602832 -1.86079 0
M  V30 6171 C 601.766 1.85912 -1 0
M  V30 6172 O 601.114 2.28379 -0.0742488 0
M  V30 6173 C 601.324 0.911694 -3.36881 0
M  V30 6174 C 602.672 1.2722 -4.05093 0
M  V30 6175 O 603.696 1.0025 -3.41802 0
M  V30 6176 O 602.555 1.7776 -5.16782 0
M  V30 6177 H 599.649 0.302366 -0.769743 0
M  V30 6178 H 602.195 -0.135113 -1.69161 0
M  V30 6179 H 600.967 0.0207256 -3.91295 0
M  V30 6180 H 600.59 1.70538 -3.59169 0
M  V30 6181 N 601.587 1.56661 0.17182 0
M  V30 6182 C 602.998 1.71652 0.734329 0
M  V30 6183 C 603.349 0.712335 1.82812 0
M  V30 6184 O 602.474 -0.126401 2.16031 0
M  V30 6185 C 603.069 3.11226 1.3388 0
M  V30 6186 C 601.628 3.27904 1.84813 0
M  V30 6187 C 600.775 2.67603 0.726917 0
M  V30 6188 H 603.726 1.5861 -0.0535665 0
M  V30 6189 H 603.747 3.09849 2.20849 0
M  V30 6190 H 603.259 3.8429 0.54249 0
M  V30 6191 H 601.36 2.59796 2.6709 0
M  V30 6192 H 601.473 4.35637 1.99392 0
M  V30 6193 H 599.837 2.274 1.14723 0
M  V30 6194 H 600.62 3.43252 -0.0575334 0
M  V30 6195 N 603.065 -0.440357 1.51323 0
M  V30 6196 C 604.481 -0.7766 1.39431 0
M  V30 6197 C 604.681 -1.95838 0.474296 0
M  V30 6198 O 603.737 -2.52398 -0.0716692 0
M  V30 6199 C 605.05 -1.05981 2.81405 0
M  V30 6200 C 606.598 -1.16442 2.90534 0
M  V30 6201 C 607.073 -1.48058 4.33408 0
M  V30 6202 N 608.564 -1.54988 4.36501 0
M  V30 6203 C 609.299 -1.81017 5.44078 0
M  V30 6204 N 608.795 -2.04858 6.61819 0
M  V30 6205 N 610.588 -1.82774 5.31554 0
M  V30 6206 H 602.739 0.338006 2.09693 0
M  V30 6207 H 605.002 0.0888072 0.943831 0
M  V30 6208 H 604.708 -0.264173 3.50706 0
M  V30 6209 H 604.582 -1.98822 3.20546 0
M  V30 6210 H 606.969 -1.95068 2.21432 0
M  V30 6211 H 607.05 -0.215088 2.54894 0
M  V30 6212 H 606.694 -0.699605 5.03059 0
M  V30 6213 H 606.624 -2.44192 4.66559 0
M  V30 6214 H 609.115 -1.38479 3.51613 0
M  V30 6215 H 609.428 -2.2408 7.396 0
M  V30 6216 H 607.773 -2.02187 6.6494 0
M  V30 6217 H 610.964 -1.63665 4.38556 0
M  V30 6218 H 611.137 -2.02722 6.15474 0
M  V30 6219 N 604.543 -1.41418 -0.695603 0
M  V30 6220 C 605.768 -1.44329 -1.48942 0
M  V30 6221 C 606.193 -0.0501579 -1.88033 0
M  V30 6222 O 605.551 0.946598 -1.54626 0
M  V30 6223 C 605.599 -2.3578 -2.72837 0
M  V30 6224 O 604.703 -1.81482 -3.70322 0
M  V30 6225 H 604.044 -0.489838 -0.44828 0
M  V30 6226 H 606.574 -1.85878 -0.855014 0
M  V30 6227 H 606.584 -2.51654 -3.21145 0
M  V30 6228 H 605.259 -3.37005 -2.43722 0
M  V30 6229 H 603.836 -1.75058 -3.29255 0
M  V30 6230 N 606.021 0.929856 -1.27246 0
M  V30 6231 C 606.953 2.03434 -1.0558 0
M  V30 6232 C 607.966 1.62795 -0.0125762 0
M  V30 6233 O 609.155 1.76685 -0.2539 0
M  V30 6234 C 606.255 3.33915 -0.57912 0
M  V30 6235 C 605.428 4.03259 -1.69415 0
M  V30 6236 C 604.487 5.12014 -1.21357 0
M  V30 6237 O 603.513 5.36097 -1.91282 0
M  V30 6238 N 604.715 5.8046 -0.0680622 0
M  V30 6239 H 607.48 2.22583 -2.00691 0
M  V30 6240 H 605.041 1.1001 -1.18783 0
M  V30 6241 H 607.033 4.03978 -0.241563 0
M  V30 6242 H 605.603 3.11355 0.278703 0
M  V30 6243 H 604.823 3.26958 -2.20209 0
M  V30 6244 H 606.111 4.46337 -2.44255 0
M  V30 6245 H 605.509 5.63345 0.515626 0
M  V30 6246 H 604.066 6.51461 0.210332 0
M  V30 6247 N 607.499 1.09233 1.13605 0
M  V30 6248 C 608.91 0.846839 1.6639 0
M  V30 6249 C 609.261 -0.625031 1.85978 0
M  V30 6250 O 608.386 -1.48173 1.57714 0
M  V30 6251 C 608.981 1.5307 3.0225 0
M  V30 6252 C 607.54 1.33223 3.52035 0
M  V30 6253 C 606.687 1.58806 2.27323 0
M  V30 6254 H 609.638 1.25175 0.975541 0
M  V30 6255 H 609.659 0.96267 3.68121 0
M  V30 6256 H 609.171 2.60192 2.87961 0
M  V30 6257 H 607.272 0.282091 3.71531 0
M  V30 6258 H 607.385 2.0657 4.32279 0
M  V30 6259 H 605.749 1.01007 2.33815 0
M  V30 6260 H 606.532 2.67153 2.15602 0
M  V30 6261 N 608.977 -1.30795 0.87923 0
M  V30 6262 C 609.887 -2.32041 0.345565 0
M  V30 6263 C 610.903 -1.65103 -0.549265 0
M  V30 6264 O 612.079 -1.9645 -0.443763 0
M  V30 6265 C 609.144 -3.43944 -0.436245 0
M  V30 6266 C 608.205 -4.26521 0.48765 0
M  V30 6267 C 607.438 -5.33081 -0.256943 0
M  V30 6268 O 607.661 -5.50762 -1.48381 0
M  V30 6269 O 606.595 -6.00635 0.389985 0
M  V30 6270 H 610.421 -2.79627 1.18501 0
M  V30 6271 H 608.006 -1.3486 0.642885 0
M  V30 6272 H 609.888 -4.12128 -0.879119 0
M  V30 6273 H 608.563 -2.98504 -1.25208 0
M  V30 6274 H 607.47 -3.61057 0.979216 0
M  V30 6275 H 608.803 -4.75551 1.26933 0
M  V30 6276 N 610.455 -0.639598 -1.44038 0
M  V30 6277 C 611.365 0.0612377 -2.3452 0
M  V30 6278 C 612.381 0.826717 -1.53106 0
M  V30 6279 O 613.557 0.777059 -1.85806 0
M  V30 6280 C 610.622 1.02492 -3.31204 0
M  V30 6281 C 609.683 0.25788 -4.28525 0
M  V30 6282 C 608.916 1.17566 -5.2059 0
M  V30 6283 O 609.139 2.41461 -5.16771 0
M  V30 6284 O 608.073 0.655407 -5.98321 0
M  V30 6285 H 611.899 -0.68318 -2.95916 0
M  V30 6286 H 609.484 -0.399784 -1.43952 0
M  V30 6287 H 611.366 1.57911 -3.90694 0
M  V30 6288 H 610.041 1.7498 -2.7233 0
M  V30 6289 H 608.948 -0.339566 -3.72556 0
M  V30 6290 H 610.281 -0.427154 -4.90343 0
M  V30 6291 N 611.933 1.52934 -0.380664 0
M  V30 6292 C 613.158 2.06363 0.207157 0
M  V30 6293 C 613.583 1.25122 1.4045 0
M  V30 6294 O 612.941 0.274062 1.79217 0
M  V30 6295 C 612.989 3.56162 0.563996 0
M  V30 6296 O 612.093 3.77552 1.65917 0
M  V30 6297 H 611.434 0.663468 0.0265859 0
M  V30 6298 H 613.964 1.9719 -0.545635 0
M  V30 6299 H 613.974 3.99453 0.830752 0
M  V30 6300 H 612.649 4.14732 -0.311427 0
M  V30 6301 H 611.226 3.46154 1.3868 0
M  V30 6302 N 613.412 0.11024 1.57214 0
M  V30 6303 C 614.658 -0.550684 1.9518 0
M  V30 6304 C 614.991 -1.66885 0.993122 0
M  V30 6305 O 614.266 -1.94479 0.0287907 0
M  V30 6306 C 614.549 -1.09163 3.43155 0
M  V30 6307 C 614.402 0.0225198 4.49794 0
M  V30 6308 C 615.721 -1.98527 3.92778 0
M  V30 6309 H 612.84 -0.198706 0.709708 0
M  V30 6310 H 615.482 0.184024 1.89107 0
M  V30 6311 H 613.632 -1.71775 3.48462 0
M  V30 6312 H 615.304 0.657443 4.56591 0
M  V30 6313 H 613.547 0.686868 4.28328 0
M  V30 6314 H 614.218 -0.39706 5.5057 0
M  V30 6315 H 616.694 -1.458 3.8972 0
M  V30 6316 H 615.57 -2.33298 4.96853 0
M  V30 6317 H 615.831 -2.90846 3.32958 0
M  V30 6318 N 614.89 -1.56749 -0.16351 0
M  V30 6319 C 616.138 -1.82074 -0.87713 0
M  V30 6320 C 616.459 -0.688503 -1.82441 0
M  V30 6321 O 615.729 0.291085 -1.93725 0
M  V30 6322 H 614.309 -0.671677 -0.326893 0
M  V30 6323 H 616.971 -1.9423 -0.161459 0
M  V30 6324 H 616.067 -2.76407 -1.44934 0
M  V30 6325 N 616.368 0.432326 -1.51554 0
M  V30 6326 C 617.298 1.53242 -1.76179 0
M  V30 6327 C 618.279 1.58717 -0.611801 0
M  V30 6328 O 619.464 1.74364 -0.855033 0
M  V30 6329 C 616.594 2.91278 -1.89141 0
M  V30 6330 C 615.548 3.00663 -3.04608 0
M  V30 6331 C 614.874 4.40728 -3.02759 0
M  V30 6332 C 616.174 2.74281 -4.44485 0
M  V30 6333 H 617.868 1.32886 -2.68294 0
M  V30 6334 H 615.414 0.637841 -1.29103 0
M  V30 6335 H 617.367 3.68203 -2.04951 0
M  V30 6336 H 616.091 3.12877 -0.936785 0
M  V30 6337 H 614.75 2.26179 -2.88511 0
M  V30 6338 H 614.398 4.59301 -2.05065 0
M  V30 6339 H 614.098 4.47936 -3.80299 0
M  V30 6340 H 615.622 5.19619 -3.20669 0
M  V30 6341 H 617.036 3.40936 -4.60907 0
M  V30 6342 H 615.433 2.92893 -5.23769 0
M  V30 6343 H 616.503 1.69856 -4.54177 0
M  V30 6344 N 617.846 1.41785 0.688094 0
M  V30 6345 C 619.262 1.24419 0.999608 0
M  V30 6346 C 619.462 0.138868 2.01021 0
M  V30 6347 O 618.518 -0.494283 2.47615 0
M  V30 6348 C 619.831 2.59625 1.51709 0
M  V30 6349 C 621.379 2.66869 1.63554 0
M  V30 6350 C 621.854 4.0241 2.18702 0
M  V30 6351 N 623.345 4.04295 2.26053 0
M  V30 6352 C 624.08 5.05977 2.69768 0
M  V30 6353 N 623.576 6.18047 3.13033 0
M  V30 6354 N 625.369 4.93336 2.69398 0
M  V30 6355 H 617.52 2.12392 0.0187427 0
M  V30 6356 H 619.783 0.945347 0.0708673 0
M  V30 6357 H 619.489 3.41297 0.849059 0
M  V30 6358 H 619.363 2.82628 2.49803 0
M  V30 6359 H 621.75 1.8555 2.29467 0
M  V30 6360 H 621.831 2.47668 0.639857 0
M  V30 6361 H 621.475 4.8418 1.53402 0
M  V30 6362 H 621.405 4.18955 3.19037 0
M  V30 6363 H 623.896 3.23383 1.9553 0
M  V30 6364 H 624.209 6.91498 3.45038 0
M  V30 6365 H 622.554 6.21572 3.10923 0
M  V30 6366 H 625.745 4.04865 2.34952 0
M  V30 6367 H 625.918 5.72717 3.03148 0
M  V30 6368 N 619.324 -0.923095 1.27737 0
M  V30 6369 C 620.287 -2.00587 1.10894 0
M  V30 6370 C 621.287 -1.60718 0.0514927 0
M  V30 6371 O 622.477 -1.71658 0.296481 0
M  V30 6372 C 619.609 -3.33829 0.690717 0
M  V30 6373 H 620.802 -2.16959 2.07048 0
M  V30 6374 H 618.355 -1.10451 1.1059 0
M  V30 6375 H 619.09 -3.23157 -0.272 0
M  V30 6376 H 618.875 -3.64125 1.45448 0
M  V30 6377 H 620.365 -4.13336 0.595252 0
M  V30 6378 N 620.802 -1.09834 -1.13024 0
M  V30 6379 C 621.712 -0.753731 -2.22162 0
M  V30 6380 C 622.728 0.246105 -1.72251 0
M  V30 6381 O 623.904 0.0864051 -2.01215 0
M  V30 6382 C 620.969 -0.183958 -3.46212 0
M  V30 6383 C 620.03 -1.24028 -4.10993 0
M  V30 6384 C 619.263 -0.697597 -5.29121 0
M  V30 6385 O 619.486 0.478092 -5.68393 0
M  V30 6386 O 618.42 -1.4546 -5.84059 0
M  V30 6387 H 622.246 -1.66456 -2.5402 0
M  V30 6388 H 619.831 -0.873026 -1.21238 0
M  V30 6389 H 621.713 0.130257 -4.21199 0
M  V30 6390 H 620.388 0.699823 -3.16045 0
M  V30 6391 H 619.295 -1.60725 -3.37814 0
M  V30 6392 H 620.628 -2.09685 -4.45301 0
M  V30 6393 N 622.28 1.30327 -0.886154 0
M  V30 6394 C 623.528 1.9571 -0.504195 0
M  V30 6395 C 623.849 1.70294 0.950003 0
M  V30 6396 O 623.119 1.02718 1.66811 0
M  V30 6397 H 621.699 0.72412 -0.183465 0
M  V30 6398 H 624.361 1.58835 -1.12949 0
M  V30 6399 H 623.457 3.04704 -0.675431 0
M  V30 6400 N 623.758 0.647228 1.43697 0
M  V30 6401 C 624.708 -0.0702191 2.27892 0
M  V30 6402 C 625.692 -0.800601 1.39568 0
M  V30 6403 O 626.884 -0.684055 1.63247 0
M  V30 6404 C 624.013 -1.04008 3.27165 0
M  V30 6405 C 623.099 -0.308484 4.22977 0
M  V30 6406 N 623.49 0.671721 5.0132 0
M  V30 6407 C 621.788 -0.550751 4.42586 0
M  V30 6408 C 622.489 1.10543 5.711 0
M  V30 6409 N 621.465 0.440903 5.41809 0
M  V30 6410 H 625.267 0.682031 2.85877 0
M  V30 6411 H 622.781 0.474022 1.55328 0
M  V30 6412 H 624.778 -1.56881 3.86256 0
M  V30 6413 H 623.438 -1.79246 2.70742 0
M  V30 6414 H 624.449 1.0502 5.0714 0
M  V30 6415 H 621.126 -1.28476 3.97241 0
M  V30 6416 H 622.516 1.91614 6.43998 0
M  V30 6417 N 625.236 -1.5273 0.388769 0
M  V30 6418 C 626.647 -1.86505 -0.0853788 0
M  V30 6419 C 626.998 -1.30847 -1.46197 0
M  V30 6420 O 626.123 -0.639609 -2.06732 0
M  V30 6421 C 626.718 -3.38414 -0.161703 0
M  V30 6422 C 625.277 -3.71902 -0.580144 0
M  V30 6423 C 624.424 -2.76095 0.258218 0
M  V30 6424 H 627.375 -1.46647 0.606665 0
M  V30 6425 H 627.396 -3.67638 -0.980936 0
M  V30 6426 H 626.908 -3.78893 0.840333 0
M  V30 6427 H 625.009 -3.36992 -1.58957 0
M  V30 6428 H 625.122 -4.77902 -0.338663 0
M  V30 6429 H 623.486 -2.53195 -0.276432 0
M  V30 6430 H 624.269 -3.19411 1.25822 0
M  V30 6431 N 626.714 -0.118576 -1.57153 0
M  V30 6432 C 627.991 0.583062 -1.86708 0
M  V30 6433 C 628.371 1.84841 -1.01967 0
M  V30 6434 O 627.719 2.28288 -0.0984673 0
M  V30 6435 C 627.929 0.875912 -3.3783 0
M  V30 6436 C 629.277 1.22916 -4.0642 0
M  V30 6437 O 630.301 0.966188 -3.42846 0
M  V30 6438 O 629.16 1.72269 -5.18638 0
M  V30 6439 H 626.254 0.294185 -0.772906 0
M  V30 6440 H 628.8 -0.153048 -1.69008 0
M  V30 6441 H 627.572 -0.0207776 -3.91294 0
M  V30 6442 H 627.195 1.66719 -3.60958 0
M  V30 6443 N 628.193 1.56834 0.155195 0
M  V30 6444 C 629.418 1.87412 0.888337 0
M  V30 6445 C 629.843 0.70671 1.74319 0
M  V30 6446 O 629.201 -0.343892 1.78009 0
M  V30 6447 C 629.249 3.1652 1.72765 0
M  V30 6448 O 628.353 2.99877 2.83103 0
M  V30 6449 H 627.694 0.615983 0.247914 0
M  V30 6450 H 630.224 2.04061 0.148478 0
M  V30 6451 H 630.234 3.48334 2.12433 0
M  V30 6452 H 628.909 4.01094 1.09985 0
M  V30 6453 H 627.486 2.79453 2.46902 0
M  V30 6454 N 629.671 -0.424282 1.51781 0
M  V30 6455 C 630.601 -1.52305 1.7699 0
M  V30 6456 C 631.582 -1.5839 0.620209 0
M  V30 6457 O 632.767 -1.73908 0.864268 0
M  V30 6458 C 629.897 -2.90271 1.90683 0
M  V30 6459 C 628.851 -2.99043 3.06198 0
M  V30 6460 C 628.177 -4.39116 3.05092 0
M  V30 6461 C 629.477 -2.7192 4.45934 0
M  V30 6462 H 631.171 -1.31461 2.68995 0
M  V30 6463 H 628.717 -0.630985 1.29439 0
M  V30 6464 H 630.67 -3.6711 2.06901 0
M  V30 6465 H 629.394 -3.12376 0.953365 0
M  V30 6466 H 628.053 -2.24646 2.89706 0
M  V30 6467 H 627.701 -4.58207 2.07498 0
M  V30 6468 H 627.401 -4.45912 3.82669 0
M  V30 6469 H 628.925 -5.17911 3.2342 0
M  V30 6470 H 630.339 -3.38487 4.62709 0
M  V30 6471 H 628.736 -2.90111 5.25315 0
M  V30 6472 H 629.806 -1.67445 4.55072 0
M  V30 6473 N 631.149 -1.42148 -0.680565 0
M  V30 6474 C 632.096 -1.45175 -1.79424 0
M  V30 6475 C 633.066 -0.304352 -1.63288 0
M  V30 6476 O 634.251 -0.507591 -1.83924 0
M  V30 6477 C 631.391 -1.35429 -3.17416 0
M  V30 6478 C 630.504 -2.60158 -3.4488 0
M  V30 6479 C 629.639 -2.42596 -4.72568 0
M  V30 6480 C 628.678 -3.62727 -4.93047 0
M  V30 6481 N 627.815 -3.44143 -6.11973 0
M  V30 6482 H 632.655 -2.40349 -1.76172 0
M  V30 6483 H 630.192 -1.19334 -0.860107 0
M  V30 6484 H 632.15 -1.27777 -3.97151 0
M  V30 6485 H 630.78 -0.438536 -3.19807 0
M  V30 6486 H 629.832 -2.78199 -2.5944 0
M  V30 6487 H 631.144 -3.49473 -3.55908 0
M  V30 6488 H 630.298 -2.32497 -5.60384 0
M  V30 6489 H 629.037 -1.50761 -4.63813 0
M  V30 6490 H 628.042 -3.73264 -4.03676 0
M  V30 6491 H 629.267 -4.55534 -5.03652 0
M  V30 6492 H 627.213 -2.5502 -6.04401 0
M  V30 6493 H 627.13 -4.27041 -6.23836 0
M  V30 6494 H 628.398 -3.37845 -7.02482 0
M  V30 6495 N 632.627 0.916307 -1.28225 0
M  V30 6496 C 633.904 1.64429 -1.05936 0
M  V30 6497 C 634.284 2.07234 0.402139 0
M  V30 6498 O 633.632 1.81535 1.3877 0
M  V30 6499 C 633.842 2.83773 -2.03159 0
M  V30 6500 C 635.19 3.54852 -2.33164 0
M  V30 6501 O 636.214 2.93918 -2.01223 0
M  V30 6502 O 635.073 4.64663 -2.87664 0
M  V30 6503 H 632.167 0.721221 -0.404683 0
M  V30 6504 H 634.713 0.965838 -1.39534 0
M  V30 6505 H 633.485 2.49217 -3.01673 0
M  V30 6506 H 633.108 3.59333 -1.70192 0
M  V30 6507 N 634.105 1.10431 1.1244 0
M  V30 6508 C 635.053 0.747974 2.20246 0
M  V30 6509 C 636.047 -0.255848 1.67457 0
M  V30 6510 O 637.253 -0.116221 1.79624 0
M  V30 6511 H 633.628 0.223946 0.71788 0
M  V30 6512 H 635.599 1.6661 2.47556 0
M  V30 6513 C 634.348 0.195957 3.47147 0
M  V30 6514 H 633.671 0.959606 3.88113 0
M  V30 6515 H 635.111 -0.0153154 4.23997 0
M  V30 6516 C 633.57 -1.07132 3.19413 0
M  V30 6517 O 634.1 -2.15284 3.3914 0
M  V30 6518 N 632.306 -0.98994 2.73219 0
M  V30 6519 H 631.853 -0.109736 2.57366 0
M  V30 6520 H 631.811 -1.83856 2.55038 0
M  V30 6521 N 635.583 -1.29855 0.893053 0
M  V30 6522 C 636.808 -2.00512 0.530066 0
M  V30 6523 C 637.233 -1.66446 -0.876199 0
M  V30 6524 O 636.591 -0.885446 -1.58207 0
M  V30 6525 C 636.639 -3.53308 0.721505 0
M  V30 6526 O 635.743 -4.11764 -0.228994 0
M  V30 6527 H 635.084 -0.630617 0.207891 0
M  V30 6528 H 637.614 -1.6551 1.20282 0
M  V30 6529 H 637.624 -4.03206 0.623599 0
M  V30 6530 H 636.299 -3.77439 1.74678 0
M  V30 6531 H 634.876 -3.72805 -0.0841034 0
M  V30 6532 N 637.061 -0.65484 -1.43351 0
M  V30 6533 C 638.286 -0.175046 -2.0666 0
M  V30 6534 C 638.711 1.15104 -1.4877 0
M  V30 6535 O 638.069 1.71144 -0.598279 0
M  V30 6536 C 638.117 -0.0991544 -3.60464 0
M  V30 6537 O 637.221 0.938169 -4.01587 0
M  V30 6538 H 636.562 -0.0956148 -0.65708 0
M  V30 6539 H 639.092 -0.898222 -1.83829 0
M  V30 6540 H 639.102 0.083632 -4.07914 0
M  V30 6541 H 637.777 -1.06719 -4.01975 0
M  V30 6542 H 636.354 0.72804 -3.65724 0
M  V30 6543 N 638.539 1.52521 -0.396863 0
M  V30 6544 C 639.779 2.03583 0.182578 0
M  V30 6545 C 640.143 1.2766 1.43412 0
M  V30 6546 O 641.344 1.68884 2.09121 0
M  V30 6547 C 639.615 3.54724 0.436519 0
M  V30 6548 S 641.174 4.27598 0.985163 0
M  V30 6549 H 637.992 0.709186 0.0507529 0
M  V30 6550 H 640.594 1.87693 -0.546955 0
M  V30 6551 H 639.298 4.07567 -0.481343 0
M  V30 6552 H 638.829 3.74834 1.19427 0
M  V30 6553 H 640.844 4.41393 2.26686 0
M  V30 6554 N 640.017 0.126909 1.57088 0
M  V30 6555 C 641.242 -0.53997 2.00248 0
M  V30 6556 C 641.667 -1.58927 1.00618 0
M  V30 6557 O 641.025 -1.81288 -0.0210131 0
M  V30 6558 C 641.073 -1.13565 3.4225 0
M  V30 6559 O 640.177 -2.25103 3.45547 0
M  V30 6560 H 639.518 -0.13412 0.650314 0
M  V30 6561 H 642.048 0.217718 2.03438 0
M  V30 6562 H 642.058 -1.46925 3.80627 0
M  V30 6563 H 640.733 -0.367122 4.14277 0
M  V30 6564 H 639.31 -1.93123 3.18995 0
M  V30 6565 N 641.495 -1.56914 -0.146875 0
M  V30 6566 C 642.741 -1.83628 -0.860741 0
M  V30 6567 C 643.074 -0.708528 -1.80813 0
M  V30 6568 O 642.349 0.287838 -1.92358 0
M  V30 6569 C 642.632 -3.20836 -1.63511 0
M  V30 6570 C 642.485 -4.44174 -0.709199 0
M  V30 6571 C 643.804 -3.55268 -2.59756 0
M  V30 6572 H 640.923 -0.667949 -0.311468 0
M  V30 6573 H 643.565 -1.89582 -0.125936 0
M  V30 6574 H 641.715 -3.15891 -2.26153 0
M  V30 6575 H 643.387 -4.61205 -0.0937781 0
M  V30 6576 H 641.63 -4.33796 -0.0187856 0
M  V30 6577 H 642.301 -5.36785 -1.28707 0
M  V30 6578 H 644.777 -3.60824 -2.07232 0
M  V30 6579 H 643.653 -4.52303 -3.10987 0
M  V30 6580 H 643.914 -2.81231 -3.41118 0
M  V30 6581 N 642.974 0.416227 -1.52004 0
M  V30 6582 C 643.907 1.52736 -1.6955 0
M  V30 6583 C 644.885 1.53264 -0.54305 0
M  V30 6584 O 646.069 1.72077 -0.769527 0
M  V30 6585 C 643.196 2.91283 -1.72835 0
M  V30 6586 C 642.242 3.08695 -2.94295 0
M  V30 6587 S 643.075 2.82758 -4.54762 0
M  V30 6588 C 644.231 4.23548 -4.60823 0
M  V30 6589 H 644.464 1.37623 -2.63528 0
M  V30 6590 H 641.997 0.607335 -1.41954 0
M  V30 6591 H 643.955 3.71134 -1.75413 0
M  V30 6592 H 642.616 3.03742 -0.799966 0
M  V30 6593 H 641.809 4.10042 -2.93056 0
M  V30 6594 H 641.411 2.36699 -2.89568 0
M  V30 6595 H 643.703 5.17078 -4.37763 0
M  V30 6596 H 644.646 4.29813 -5.62731 0
M  V30 6597 H 645.054 4.08188 -3.89927 0
M  V30 6598 N 644.452 1.42507 0.673017 0
M  V30 6599 C 645.677 1.4668 1.46627 0
M  V30 6600 C 646.102 0.080066 1.8793 0
M  V30 6601 O 645.46 -0.921879 1.56112 0
M  V30 6602 C 645.508 2.40091 2.69051 0
M  V30 6603 O 644.612 1.8735 3.67387 0
M  V30 6604 H 643.953 0.496908 0.44043 0
M  V30 6605 H 646.483 1.87215 0.825334 0
M  V30 6606 H 646.493 2.56731 3.17101 0
M  V30 6607 H 645.168 3.4084 2.3833 0
M  V30 6608 H 643.745 1.80274 3.26429 0
M  V30 6609 N 645.93 -0.909495 1.28709 0
M  V30 6610 C 646.84 -2.04558 1.14861 0
M  V30 6611 C 647.856 -1.73842 0.0741621 0
M  V30 6612 O 649.032 -1.99383 0.2843 0
M  V30 6613 C 646.097 -3.36957 0.816148 0
M  V30 6614 C 645.158 -3.81255 1.97341 0
M  V30 6615 C 644.391 -5.07335 1.65671 0
M  V30 6616 O 644.614 -5.67514 0.573053 0
M  V30 6617 O 643.548 -5.47449 2.50167 0
M  V30 6618 H 647.374 -2.19161 2.10243 0
M  V30 6619 H 644.959 -1.03159 1.08068 0
M  V30 6620 H 646.841 -4.16436 0.644873 0
M  V30 6621 H 645.516 -3.2352 -0.107983 0
M  V30 6622 H 644.423 -3.02584 2.19986 0
M  V30 6623 H 645.756 -3.99261 2.87839 0
M  V30 6624 N 647.408 -1.11026 -1.11852 0
M  V30 6625 C 648.318 -0.777252 -2.2135 0
M  V30 6626 C 649.334 0.227821 -1.72502 0
M  V30 6627 O 650.51 0.0650587 -2.01295 0
M  V30 6628 C 647.575 -0.220668 -3.45997 0
M  V30 6629 C 646.636 -1.2838 -4.09655 0
M  V30 6630 C 645.869 -0.753678 -5.28352 0
M  V30 6631 O 646.092 0.417779 -5.68868 0
M  V30 6632 O 645.026 -1.51647 -5.82483 0
M  V30 6633 H 648.852 -1.69141 -2.5224 0
M  V30 6634 H 646.437 -0.885836 -1.20305 0
M  V30 6635 H 648.319 0.0855756 -4.21313 0
M  V30 6636 H 646.994 0.666262 -3.16769 0
M  V30 6637 H 645.901 -1.64299 -3.3609 0
M  V30 6638 H 647.234 -2.14396 -4.43052 0
M  V30 6639 N 648.886 1.2938 -0.899927 0
M  V30 6640 C 650.297 1.77644 -0.574427 0
M  V30 6641 C 650.648 1.73824 0.909928 0
M  V30 6642 O 649.773 1.32429 1.71147 0
M  V30 6643 C 650.368 3.22573 -1.03595 0
M  V30 6644 C 648.927 3.68614 -0.76161 0
M  V30 6645 C 648.074 2.49483 -1.21052 0
M  V30 6646 H 651.025 1.16038 -1.08263 0
M  V30 6647 H 651.046 3.78684 -0.371337 0
M  V30 6648 H 650.558 3.25321 -2.11631 0
M  V30 6649 H 648.659 3.7134 0.306127 0
M  V30 6650 H 648.772 4.59402 -1.35965 0
M  V30 6651 H 647.136 2.46798 -0.629515 0
M  V30 6652 H 647.919 2.54959 -2.29893 0
M  V30 6653 N 650.364 0.662433 1.43002 0
M  V30 6654 C 651.274 -0.0239199 2.34588 0
M  V30 6655 C 652.29 -0.802255 1.54402 0
M  V30 6656 O 653.466 -0.747401 1.87018 0
M  V30 6657 C 650.531 -0.972098 3.32793 0
M  V30 6658 C 649.592 -0.189673 4.28881 0
M  V30 6659 C 648.825 -1.09269 5.22395 0
M  V30 6660 O 649.048 -2.33209 5.20547 0
M  V30 6661 O 647.982 -0.560136 5.99288 0
M  V30 6662 H 651.808 0.730171 2.94792 0
M  V30 6663 H 649.393 0.422635 1.43297 0
M  V30 6664 H 651.275 -1.51676 3.93157 0
M  V30 6665 H 649.95 -1.70626 2.75079 0
M  V30 6666 H 648.857 0.398794 3.71968 0
M  V30 6667 H 650.19 0.50511 4.89601 0
M  V30 6668 N 651.842 -1.52309 0.404946 0
M  V30 6669 C 653.09 -2.01368 -0.17186 0
M  V30 6670 C 653.411 -1.29261 -1.46002 0
M  V30 6671 O 652.681 -0.41729 -1.91404 0
M  V30 6672 H 651.261 -0.744034 -0.0664993 0
M  V30 6673 H 653.923 -1.87263 0.540228 0
M  V30 6674 H 653.019 -3.09888 -0.370957 0
M  V30 6675 N 653.32 -0.135238 -1.57019 0
M  V30 6676 C 654.736 0.221262 -1.58059 0
M  V30 6677 C 654.936 1.65538 -1.14889 0
M  V30 6678 O 653.992 2.37985 -0.843751 0
M  V30 6679 C 655.305 -0.0268114 -3.00688 0
M  V30 6680 C 656.853 0.0378206 -3.12977 0
M  V30 6681 C 657.328 -0.182769 -4.57635 0
M  V30 6682 N 658.819 -0.129292 -4.6302 0
M  V30 6683 C 659.554 -0.274648 -5.72742 0
M  V30 6684 N 659.05 -0.477075 -6.91155 0
M  V30 6685 N 660.843 -0.213077 -5.61696 0
M  V30 6686 H 652.994 -1.07177 -1.83376 0
M  V30 6687 H 655.257 -0.423338 -0.848227 0
M  V30 6688 H 654.963 -1.01889 -3.36618 0
M  V30 6689 H 654.837 0.697863 -3.70688 0
M  V30 6690 H 657.224 1.02043 -2.76896 0
M  V30 6691 H 657.305 -0.718996 -2.45487 0
M  V30 6692 H 656.949 -1.16243 -4.94419 0
M  V30 6693 H 656.879 0.59423 -5.23237 0
M  V30 6694 H 659.37 0.0229896 -3.77893 0
M  V30 6695 H 659.683 -0.578413 -7.70632 0
M  V30 6696 H 658.028 -0.513252 -6.93102 0
M  V30 6697 H 661.219 -0.0557796 -4.68067 0
M  V30 6698 H 661.392 -0.329796 -6.4716 0
M  V30 6699 N 654.798 1.5699 0.138552 0
M  V30 6700 C 656.023 1.88344 0.86841 0
M  V30 6701 C 656.448 0.725159 1.7356 0
M  V30 6702 O 655.806 -0.324992 1.78363 0
M  V30 6703 C 655.854 3.18334 1.69398 0
M  V30 6704 O 654.958 3.02863 2.79907 0
M  V30 6705 H 654.299 0.618577 0.241367 0
M  V30 6706 H 656.829 2.04207 0.126826 0
M  V30 6707 H 656.839 3.50567 2.08726 0
M  V30 6708 H 655.514 4.02238 1.05725 0
M  V30 6709 H 654.091 2.82056 2.43924 0
M  V30 6710 N 656.276 -0.40816 1.52223 0
M  V30 6711 C 657.506 -1.17501 1.69932 0
M  V30 6712 C 657.914 -1.84729 0.408874 0
M  V30 6713 O 657.257 -1.7274 -0.625025 0
M  V30 6714 C 657.319 -2.27994 2.77955 0
M  V30 6715 C 656.983 -1.80894 4.19674 0
M  V30 6716 C 657.98 -1.29618 5.03483 0
M  V30 6717 C 655.665 -1.87698 4.65913 0
M  V30 6718 C 657.659 -0.857695 6.31603 0
M  V30 6719 C 655.346 -1.43461 5.94022 0
M  V30 6720 C 656.344 -0.925822 6.76696 0
M  V30 6721 O 656.032 -0.489841 8.02406 0
M  V30 6722 H 655.764 -0.359065 0.572755 0
M  V30 6723 H 658.318 -0.486188 1.99563 0
M  V30 6724 H 656.548 -3.00243 2.43703 0
M  V30 6725 H 658.237 -2.89749 2.84254 0
M  V30 6726 H 659.003 -1.23733 4.68951 0
M  V30 6727 H 654.882 -2.26244 4.01665 0
M  V30 6728 H 658.426 -0.459879 6.96083 0
M  V30 6729 H 654.323 -1.49026 6.28062 0
M  V30 6730 H 655.091 -0.613062 8.16201 0
M  V30 6731 N 657.755 -1.42862 -0.66545 0
M  V30 6732 C 658.98 -1.47456 -1.45848 0
M  V30 6733 C 659.405 -0.0900312 -1.87884 0
M  V30 6734 O 658.763 0.913587 -1.56599 0
M  V30 6735 C 658.811 -2.41514 -2.67774 0
M  V30 6736 O 657.915 -1.89296 -3.66389 0
M  V30 6737 H 657.256 -0.499236 -0.437789 0
M  V30 6738 H 659.786 -1.8765 -0.815394 0
M  V30 6739 H 659.796 -2.58409 -3.15735 0
M  V30 6740 H 658.471 -3.42099 -2.36519 0
M  V30 6741 H 657.048 -1.82003 -3.25468 0
M  V30 6742 N 659.233 0.902656 -1.29189 0
M  V30 6743 C 660.461 1.68639 -1.19869 0
M  V30 6744 C 660.876 1.87254 0.241121 0
M  V30 6745 O 660.233 1.40745 1.16177 0
M  V30 6746 C 660.284 3.07251 -1.90471 0
M  V30 6747 O 660.005 2.89488 -3.28829 0
M  V30 6748 C 661.506 4.01653 -1.8759 0
M  V30 6749 H 658.726 0.526802 -0.415596 0
M  V30 6750 H 661.27 1.12901 -1.7051 0
M  V30 6751 H 659.425 3.59774 -1.43672 0
M  V30 6752 H 659.839 3.77296 -3.64346 0
M  V30 6753 H 661.313 4.96339 -2.4156 0
M  V30 6754 H 661.79 4.30881 -0.850756 0
M  V30 6755 H 662.396 3.55061 -2.34119 0
M  V30 6756 N 660.711 1.11618 1.11262 0
M  V30 6757 C 661.641 0.79846 2.19424 0
M  V30 6758 C 662.622 -0.234003 1.68483 0
M  V30 6759 O 663.807 -0.0970704 1.93957 0
M  V30 6760 C 660.937 0.242892 3.4645 0
M  V30 6761 C 659.891 1.20744 4.10615 0
M  V30 6762 C 659.217 0.512494 5.32238 0
M  V30 6763 C 660.517 2.55884 4.55325 0
M  V30 6764 H 662.211 1.70286 2.46258 0
M  V30 6765 H 659.757 0.820195 1.18359 0
M  V30 6766 H 661.71 0.00840447 4.21399 0
M  V30 6767 H 660.434 -0.696811 3.1908 0
M  V30 6768 H 659.093 1.42759 3.37662 0
M  V30 6769 H 658.741 -0.432075 5.01141 0
M  V30 6770 H 658.441 1.15583 5.7612 0
M  V30 6771 H 659.965 0.286842 6.09926 0
M  V30 6772 H 661.379 2.37946 5.21588 0
M  V30 6773 H 659.776 3.16216 5.10027 0
M  V30 6774 H 660.846 3.14968 3.68678 0
M  V30 6775 N 662.189 -1.289 0.906776 0
M  V30 6776 C 663.417 -1.99401 0.551969 0
M  V30 6777 C 663.832 -1.67816 -0.865048 0
M  V30 6778 O 663.189 -0.927078 -1.57199 0
M  V30 6779 C 663.24 -3.53779 0.743152 0
M  V30 6780 O 662.961 -3.84248 2.1044 0
M  V30 6781 C 664.462 -4.41543 0.39424 0
M  V30 6782 H 661.682 -0.636926 0.211106 0
M  V30 6783 H 664.226 -1.64266 1.21807 0
M  V30 6784 H 662.381 -3.87201 0.124143 0
M  V30 6785 H 662.795 -4.78904 2.13895 0
M  V30 6786 H 664.269 -5.48957 0.578814 0
M  V30 6787 H 664.746 -4.34073 -0.669137 0
M  V30 6788 H 665.352 -4.13605 0.990491 0
M  V30 6789 N 663.667 -0.670007 -1.42649 0
M  V30 6790 C 664.895 -0.19854 -2.05945 0
M  V30 6791 C 665.31 1.14243 -1.50313 0
M  V30 6792 O 664.667 1.70872 -0.641027 0
M  V30 6793 C 664.718 -0.11966 -3.61302 0
M  V30 6794 O 664.439 -1.40764 -4.1487 0
M  V30 6795 C 665.94 0.375878 -4.41704 0
M  V30 6796 H 663.16 -0.0976894 -0.663851 0
M  V30 6797 H 665.704 -0.915392 -1.82868 0
M  V30 6798 H 663.859 0.547851 -3.83507 0
M  V30 6799 H 664.273 -1.27784 -5.08696 0
M  V30 6800 H 665.747 0.379988 -5.50691 0
M  V30 6801 H 666.224 1.41028 -4.15942 0
M  V30 6802 H 666.83 -0.259727 -4.24506 0
M  V30 6803 N 665.145 1.52092 -0.413018 0
M  V30 6804 C 666.391 2.02154 0.161737 0
M  V30 6805 C 666.724 1.29789 1.44459 0
M  V30 6806 O 665.999 0.405378 1.90229 0
M  V30 6807 C 666.282 3.5781 0.405463 0
M  V30 6808 C 666.135 4.40819 -0.894335 0
M  V30 6809 C 667.454 4.23821 1.18591 0
M  V30 6810 H 664.573 0.734769 0.0573077 0
M  V30 6811 H 667.215 1.81948 -0.547247 0
M  V30 6812 H 665.365 3.75158 1.0094 0
M  V30 6813 H 667.037 4.35175 -1.53039 0
M  V30 6814 H 665.28 4.06877 -1.50444 0
M  V30 6815 H 665.951 5.47819 -0.678144 0
M  V30 6816 H 668.427 4.10596 0.674573 0
M  V30 6817 H 667.303 5.32663 1.3252 0
M  V30 6818 H 667.564 3.83038 2.20758 0
M  V30 6819 N 666.623 0.143563 1.56945 0
M  V30 6820 C 668.039 -0.212877 1.58174 0
M  V30 6821 C 668.239 -1.64926 1.15766 0
M  V30 6822 O 667.295 -2.37535 0.856361 0
M  V30 6823 C 668.608 0.0427573 3.0067 0
M  V30 6824 C 670.156 -0.0212221 3.12993 0
M  V30 6825 C 670.631 0.207036 4.57532 0
M  V30 6826 N 672.122 0.153845 4.62944 0
M  V30 6827 C 672.857 0.305018 5.72588 0
M  V30 6828 N 672.353 0.513722 6.90893 0
M  V30 6829 N 674.146 0.242862 5.61575 0
M  V30 6830 H 666.297 1.08148 1.82805 0
M  V30 6831 H 668.56 0.427831 0.84597 0
M  V30 6832 H 668.266 1.03672 3.36073 0
M  V30 6833 H 668.14 -0.678195 3.71053 0
M  V30 6834 H 670.527 -1.00574 2.77433 0
M  V30 6835 H 670.608 0.732004 2.45103 0
M  V30 6836 H 670.252 1.18863 4.93795 0
M  V30 6837 H 670.182 -0.566473 5.23544 0
M  V30 6838 H 672.673 -0.00294866 3.779 0
M  V30 6839 H 672.986 0.619273 7.70315 0
M  V30 6840 H 671.331 0.550001 6.9282 0
M  V30 6841 H 674.522 0.0806015 4.68031 0
M  V30 6842 H 674.695 0.364112 6.46976 0
M  V30 6843 N 668.101 -1.57061 -0.130224 0
M  V30 6844 C 669.011 -2.02802 -1.17934 0
M  V30 6845 C 670.027 -0.946378 -1.46013 0
M  V30 6846 O 671.203 -1.25708 -1.57351 0
M  V30 6847 C 668.268 -2.41368 -2.48882 0
M  V30 6848 C 667.329 -3.63561 -2.28301 0
M  V30 6849 C 666.562 -4.00279 -3.53005 0
M  V30 6850 O 666.785 -3.37463 -4.59864 0
M  V30 6851 O 665.719 -4.93441 -3.44673 0
M  V30 6852 H 669.545 -2.92394 -0.820958 0
M  V30 6853 H 667.13 -1.45475 -0.340197 0
M  V30 6854 H 669.012 -2.66958 -3.26054 0
M  V30 6855 H 667.687 -1.54926 -2.84217 0
M  V30 6856 H 666.594 -3.43136 -1.49025 0
M  V30 6857 H 667.927 -4.50673 -1.97875 0
M  V30 6858 N 669.579 0.400081 -1.52437 0
M  V30 6859 C 670.828 1.14332 -1.66166 0
M  V30 6860 C 671.141 1.91419 -0.402253 0
M  V30 6861 O 672.347 2.6824 -0.419487 0
M  V30 6862 C 670.803 2.08137 -2.9361 0
M  V30 6863 C 670.411 1.36524 -4.26691 0
M  V30 6864 C 672.155 2.82664 -3.16703 0
M  V30 6865 C 670.062 2.29031 -5.45251 0
M  V30 6866 H 668.992 0.430499 -0.61902 0
M  V30 6867 H 671.643 0.407017 -1.78929 0
M  V30 6868 H 670.025 2.85358 -2.74567 0
M  V30 6869 H 671.199 0.646061 -4.56249 0
M  V30 6870 H 669.514 0.74002 -4.09771 0
M  V30 6871 H 672.111 3.52037 -4.0246 0
M  V30 6872 H 672.454 3.46122 -2.31312 0
M  V30 6873 H 672.987 2.12541 -3.36261 0
M  V30 6874 H 669.726 1.70206 -6.33017 0
M  V30 6875 H 669.246 2.98896 -5.2002 0
M  V30 6876 H 670.925 2.89359 -5.78689 0
M  V30 6877 N 671.057 1.43213 0.657864 0
M  V30 6878 C 671.967 1.50448 1.80007 0
M  V30 6879 C 672.983 0.39191 1.69529 0
M  V30 6880 O 674.159 0.645349 1.90781 0
M  V30 6881 C 671.224 1.42062 3.16258 0
M  V30 6882 C 670.285 2.63951 3.38568 0
M  V30 6883 C 669.518 2.55956 4.68318 0
M  V30 6884 O 669.741 1.60473 5.47361 0
M  V30 6885 O 668.675 3.46378 4.92245 0
M  V30 6886 H 672.501 2.4689 1.76858 0
M  V30 6887 H 670.086 1.25163 0.81576 0
M  V30 6888 H 671.968 1.3981 3.97531 0
M  V30 6889 H 670.643 0.487524 3.20008 0
M  V30 6890 H 669.55 2.71776 2.57077 0
M  V30 6891 H 670.883 3.56217 3.39662 0
M  V30 6892 N 672.536 -0.895792 1.29666 0
M  V30 6893 C 673.764 -1.68001 1.20761 0
M  V30 6894 C 674.179 -1.87379 -0.231187 0
M  V30 6895 O 673.536 -1.41359 -1.15429 0
M  V30 6896 C 673.587 -3.06236 1.92098 0
M  V30 6897 O 673.308 -2.8774 3.30359 0
M  V30 6898 C 674.809 -4.00652 1.89717 0
M  V30 6899 H 672.029 -0.524591 0.418384 0
M  V30 6900 H 674.573 -1.11995 1.71106 0
M  V30 6901 H 672.728 -3.59007 1.45578 0
M  V30 6902 H 673.142 -3.75359 3.66342 0
M  V30 6903 H 674.616 -4.95051 2.44189 0
M  V30 6904 H 675.093 -4.30424 0.873595 0
M  V30 6905 H 675.699 -3.53815 2.35998 0
M  V30 6906 N 674.014 -1.12206 -1.10668 0
M  V30 6907 C 674.946 -0.74552 -2.16736 0
M  V30 6908 C 675.959 0.226696 -1.61214 0
M  V30 6909 O 677.148 0.0083936 -1.78498 0
M  V30 6910 C 674.248 -0.0823368 -3.388 0
M  V30 6911 C 673.421 -1.08341 -4.2377 0
M  V30 6912 C 672.48 -0.448292 -5.24287 0
M  V30 6913 O 671.506 -1.10458 -5.58379 0
M  V30 6914 N 672.708 0.785336 -5.75163 0
M  V30 6915 H 675.473 -1.65818 -2.49649 0
M  V30 6916 H 673.034 -1.01335 -1.26265 0
M  V30 6917 H 675.026 0.354476 -4.03145 0
M  V30 6918 H 673.596 0.733041 -3.03884 0
M  V30 6919 H 672.816 -1.69792 -3.55759 0
M  V30 6920 H 674.104 -1.76042 -4.77375 0
M  V30 6921 H 673.502 1.33755 -5.4966 0
M  V30 6922 H 672.059 1.16501 -6.41304 0
M  V30 6923 N 675.492 1.28418 -0.913599 0
M  V30 6924 C 676.72 1.99106 -0.562536 0
M  V30 6925 C 677.135 1.68273 0.856137 0
M  V30 6926 O 676.492 0.935401 1.56705 0
M  V30 6927 C 676.543 3.5338 -0.761903 0
M  V30 6928 O 676.264 3.83127 -2.12475 0
M  V30 6929 C 677.765 4.41328 -0.417651 0
M  V30 6930 H 674.985 0.635798 -0.214481 0
M  V30 6931 H 677.529 1.63618 -1.22676 0
M  V30 6932 H 675.684 3.8713 -0.144676 0
M  V30 6933 H 676.098 4.77763 -2.16431 0
M  V30 6934 H 677.572 5.48642 -0.607919 0
M  V30 6935 H 678.049 4.34422 0.646108 0
M  V30 6936 H 678.655 4.13074 -1.01241 0
M  V30 6937 N 676.97 0.677563 1.42291 0
M  V30 6938 C 677.88 0.000962654 2.346 0
M  V30 6939 C 678.896 -0.785833 1.55244 0
M  V30 6940 O 680.072 -0.727523 1.87801 0
M  V30 6941 C 677.137 -0.936746 3.33805 0
M  V30 6942 C 676.198 -0.144173 4.29058 0
M  V30 6943 C 675.431 -1.03722 5.23524 0
M  V30 6944 O 675.654 -2.27675 5.22992 0
M  V30 6945 O 674.588 -0.496542 5.99848 0
M  V30 6946 H 678.414 0.761397 2.94001 0
M  V30 6947 H 675.999 0.43781 1.42841 0
M  V30 6948 H 677.881 -1.47497 3.94744 0
M  V30 6949 H 676.556 -1.67698 2.76874 0
M  V30 6950 H 675.463 0.438224 3.71524 0
M  V30 6951 H 676.796 0.55701 4.89038 0
M  V30 6952 N 678.448 -1.51871 0.421078 0
M  V30 6953 C 679.378 -2.30231 -0.389363 0
M  V30 6954 C 680.359 -1.34946 -1.03555 0
M  V30 6955 O 681.544 -1.63859 -1.04229 0
M  V30 6956 C 678.674 -3.13247 -1.49979 0
M  V30 6957 C 677.628 -4.16677 -0.977966 0
M  V30 6958 C 676.954 -4.88112 -2.1829 0
M  V30 6959 C 678.254 -5.22295 -0.0236775 0
M  V30 6960 H 679.948 -2.98229 0.264524 0
M  V30 6961 H 677.494 -1.43424 0.12866 0
M  V30 6962 H 679.447 -3.66838 -2.07383 0
M  V30 6963 H 678.171 -2.4304 -2.18173 0
M  V30 6964 H 676.83 -3.64114 -0.426245 0
M  V30 6965 H 676.478 -4.14423 -2.85066 0
M  V30 6966 H 676.178 -5.58041 -1.84021 0
M  V30 6967 H 677.702 -5.44521 -2.76278 0
M  V30 6968 H 679.116 -5.71055 -0.506899 0
M  V30 6969 H 677.513 -5.99656 0.230782 0
M  V30 6970 H 678.583 -4.76131 0.917999 0
M  V30 6971 N 679.926 -0.151884 -1.56866 0
M  V30 6972 C 680.856 0.781943 -2.20018 0
M  V30 6973 C 681.837 1.25347 -1.14987 0
M  V30 6974 O 683.022 1.31015 -1.43348 0
M  V30 6975 C 680.152 2.01928 -2.82564 0
M  V30 6976 C 679.106 1.68434 -3.93464 0
M  V30 6977 C 678.432 2.99472 -4.42968 0
M  V30 6978 C 679.732 0.927244 -5.14003 0
M  V30 6979 H 681.426 0.255607 -2.98307 0
M  V30 6980 H 678.972 0.121502 -1.43486 0
M  V30 6981 H 680.925 2.67741 -3.25411 0
M  V30 6982 H 679.649 2.56943 -2.01614 0
M  V30 6983 H 678.308 1.04998 -3.51242 0
M  V30 6984 H 677.956 3.52488 -3.58834 0
M  V30 6985 H 677.656 2.77823 -5.17772 0
M  V30 6986 H 679.18 3.66348 -4.88489 0
M  V30 6987 H 680.594 1.48756 -5.53665 0
M  V30 6988 H 678.991 0.810513 -5.94601 0
M  V30 6989 H 680.061 -0.0801163 -4.84834 0
M  V30 6990 N 681.404 1.57128 0.121893 0
M  V30 6991 C 682.629 1.89254 0.848385 0
M  V30 6992 C 683.054 0.743527 1.72781 0
M  V30 6993 O 682.412 -0.306056 1.78698 0
M  V30 6994 C 682.46 3.20113 1.66012 0
M  V30 6995 O 681.564 3.05815 2.76679 0
M  V30 6996 H 680.905 0.621103 0.234793 0
M  V30 6997 H 683.435 2.0433 0.10516 0
M  V30 6998 H 683.445 3.52761 2.04996 0
M  V30 6999 H 682.12 4.03336 1.01452 0
M  V30 7000 H 680.697 2.84627 2.40918 0
M  V30 7001 N 682.882 -0.391992 1.52647 0
M  V30 7002 C 684.293 -0.970064 1.5952 0
M  V30 7003 C 684.644 -1.91059 0.446207 0
M  V30 7004 O 683.769 -2.12062 -0.431125 0
M  V30 7005 C 684.364 -1.76614 2.89125 0
M  V30 7006 C 682.923 -2.29396 2.9842 0
M  V30 7007 C 682.07 -1.09864 2.54608 0
M  V30 7008 H 685.021 -0.171638 1.57769 0
M  V30 7009 H 685.042 -2.62511 2.75442 0
M  V30 7010 H 684.554 -1.08135 3.72731 0
M  V30 7011 H 682.655 -3.01196 2.19344 0
M  V30 7012 H 682.768 -2.59088 4.03002 0
M  V30 7013 H 681.132 -1.45777 2.08857 0
M  V30 7014 H 681.915 -0.429249 3.40606 0
M  V30 7015 N 684.36 -1.4356 -0.65026 0
M  V30 7016 C 685.608 -1.45046 -1.40734 0
M  V30 7017 C 685.929 -0.0769822 -1.94848 0
M  V30 7018 O 685.199 0.888098 -1.74613 0
M  V30 7019 H 683.779 -0.534034 -0.522318 0
M  V30 7020 H 686.441 -1.79186 -0.766703 0
M  V30 7021 H 685.537 -2.16476 -2.24822 0
M  V30 7022 N 685.838 0.888903 -1.30139 0
M  V30 7023 C 687.063 1.67884 -1.21777 0
M  V30 7024 C 687.488 1.86848 0.216689 0
M  V30 7025 O 686.846 1.39659 1.15608 0
M  V30 7026 C 686.894 3.03483 -1.94757 0
M  V30 7027 O 685.998 3.92294 -1.27198 0
M  V30 7028 H 685.339 0.513144 -0.421402 0
M  V30 7029 H 687.869 1.10968 -1.71893 0
M  V30 7030 H 687.879 3.53553 -2.03627 0
M  V30 7031 H 686.554 2.89 -2.99085 0
M  V30 7032 H 685.131 3.50732 -1.26655 0
M  V30 7033 N 687.317 1.12792 1.10072 0
M  V30 7034 C 688.565 0.883796 1.81751 0
M  V30 7035 C 688.886 -0.591891 1.858 0
M  V30 7036 O 688.156 -1.43017 1.33876 0
M  V30 7037 H 686.736 0.323978 0.673088 0
M  V30 7038 H 689.398 1.42314 1.33164 0
M  V30 7039 H 688.494 1.26863 2.85153 0
M  V30 7040 N 688.795 -1.27931 0.920396 0
M  V30 7041 C 690.211 -1.47085 0.619537 0
M  V30 7042 C 690.411 -1.83463 -0.833291 0
M  V30 7043 O 689.467 -1.94363 -1.61181 0
M  V30 7044 C 690.78 -2.56878 1.56314 0
M  V30 7045 C 692.328 -2.70743 1.57058 0
M  V30 7046 C 692.803 -3.83687 2.50097 0
M  V30 7047 N 694.294 -3.9105 2.48262 0
M  V30 7048 C 695.029 -4.77842 3.16945 0
M  V30 7049 N 694.525 -5.69176 3.94982 0
M  V30 7050 N 696.318 -4.71509 3.06 0
M  V30 7051 H 688.469 -1.02601 1.85975 0
M  V30 7052 H 690.732 -0.511682 0.798051 0
M  V30 7053 H 690.438 -2.36923 2.59923 0
M  V30 7054 H 690.312 -3.54117 1.29928 0
M  V30 7055 H 692.699 -2.90083 0.541832 0
M  V30 7056 H 692.78 -1.74015 1.8749 0
M  V30 7057 H 692.424 -3.65101 3.53077 0
M  V30 7058 H 692.354 -4.79827 2.16964 0
M  V30 7059 H 694.845 -3.25738 1.91581 0
M  V30 7060 H 695.158 -6.32245 4.44394 0
M  V30 7061 H 693.503 -5.68995 3.99086 0
M  V30 7062 H 696.694 -3.99151 2.44533 0
M  V30 7063 H 696.867 -5.38933 3.59799 0
M  V30 7064 N 690.273 -0.685099 -1.4193 0
M  V30 7065 C 691.236 -0.0222632 -2.29189 0
M  V30 7066 C 692.236 0.7186 -1.4385 0
M  V30 7067 O 693.426 0.555058 -1.6512 0
M  V30 7068 C 690.558 0.979013 -3.2654 0
M  V30 7069 H 691.751 -0.790424 -2.89296 0
M  V30 7070 H 689.304 -0.448012 -1.49742 0
M  V30 7071 H 690.039 1.77531 -2.71392 0
M  V30 7072 H 689.824 0.451037 -3.89497 0
M  V30 7073 H 691.314 1.44091 -3.91954 0
M  V30 7074 N 691.751 1.51645 -0.429126 0
M  V30 7075 C 692.661 2.31288 0.392809 0
M  V30 7076 C 693.677 1.39852 1.03525 0
M  V30 7077 O 694.853 1.72926 1.03241 0
M  V30 7078 C 691.918 3.13347 1.48372 0
M  V30 7079 C 690.979 4.20551 0.862268 0
M  V30 7080 C 690.212 4.98688 1.9012 0
M  V30 7081 O 690.435 4.77359 3.12225 0
M  V30 7082 O 689.369 5.83005 1.4963 0
M  V30 7083 H 693.195 3.02609 -0.257138 0
M  V30 7084 H 690.78 1.48163 -0.191851 0
M  V30 7085 H 692.662 3.64387 2.1166 0
M  V30 7086 H 691.337 2.44799 2.1179 0
M  V30 7087 H 690.244 3.73609 0.191568 0
M  V30 7088 H 691.577 4.91449 0.271704 0
M  V30 7089 N 693.229 0.160201 1.56784 0
M  V30 7090 C 694.139 -0.787167 2.21 0
M  V30 7091 C 695.155 -1.26167 1.19825 0
M  V30 7092 O 696.331 -1.31611 1.52448 0
M  V30 7093 C 693.396 -2.00364 2.8294 0
M  V30 7094 C 692.457 -1.5771 3.99282 0
M  V30 7095 C 691.69 -2.73558 4.58259 0
M  V30 7096 O 691.913 -3.90129 4.16119 0
M  V30 7097 O 690.847 -2.48271 5.48311 0
M  V30 7098 H 694.673 -0.270462 3.02493 0
M  V30 7099 H 692.258 -0.0674666 1.49248 0
M  V30 7100 H 694.14 -2.71529 3.22257 0
M  V30 7101 H 692.815 -2.50961 2.04451 0
M  V30 7102 H 691.722 -0.835274 3.64656 0
M  V30 7103 H 693.055 -1.11815 4.79331 0
M  V30 7104 N 694.707 -1.5719 -0.113559 0
M  V30 7105 C 695.617 -2.04041 -1.15777 0
M  V30 7106 C 696.633 -0.961812 -1.45001 0
M  V30 7107 O 697.809 -1.2737 -1.56009 0
M  V30 7108 C 694.874 -2.43994 -2.46308 0
M  V30 7109 C 693.935 -3.65962 -2.24433 0
M  V30 7110 C 693.168 -4.04 -3.4874 0
M  V30 7111 O 693.391 -3.42321 -4.56259 0
M  V30 7112 O 692.325 -4.97069 -3.3942 0
M  V30 7113 H 696.151 -2.93248 -0.789899 0
M  V30 7114 H 693.736 -1.45828 -0.324748 0
M  V30 7115 H 695.618 -2.70401 -3.23204 0
M  V30 7116 H 694.293 -1.57932 -2.82558 0
M  V30 7117 H 693.2 -3.44697 -1.45377 0
M  V30 7118 H 694.533 -4.52746 -1.93084 0
M  V30 7119 N 696.185 0.383891 -1.52853 0
M  V30 7120 C 697.095 1.49343 -1.80925 0
M  V30 7121 C 698.111 1.59458 -0.696348 0
M  V30 7122 O 699.287 1.75698 -0.984481 0
M  V30 7123 C 696.352 2.84819 -1.97684 0
M  V30 7124 C 695.413 2.84382 -3.21598 0
M  V30 7125 C 694.646 4.13397 -3.37548 0
M  V30 7126 O 694.869 5.08619 -2.58192 0
M  V30 7127 O 693.803 4.20325 -4.30826 0
M  V30 7128 H 697.629 1.2855 -2.75152 0
M  V30 7129 H 695.214 0.572229 -1.38007 0
M  V30 7130 H 697.096 3.65125 -2.10385 0
M  V30 7131 H 695.771 3.05627 -1.06647 0
M  V30 7132 H 694.678 2.0284 -3.14336 0
M  V30 7133 H 696.011 2.68526 -4.12498 0
M  V30 7134 N 697.663 1.43903 0.642637 0
M  V30 7135 C 698.94 1.36556 1.40043 0
M  V30 7136 C 699.32 0.0185588 2.11092 0
M  V30 7137 O 698.668 -0.998438 2.05532 0
M  V30 7138 C 698.878 2.55596 2.37638 0
M  V30 7139 C 700.226 2.99153 3.01318 0
M  V30 7140 O 701.25 2.55719 2.47965 0
M  V30 7141 O 700.109 3.74427 3.98078 0
M  V30 7142 H 697.203 0.540189 0.626198 0
M  V30 7143 H 699.749 1.55971 0.668657 0
M  V30 7144 H 698.521 3.45256 1.84158 0
M  V30 7145 H 698.144 2.38334 3.18249 0
M  V30 7146 N 699.141 -0.881989 1.30609 0
M  V30 7147 C 700.073 -1.99375 1.13058 0
M  V30 7148 C 701.086 -1.62636 0.0729879 0
M  V30 7149 O 702.275 -1.75621 0.319301 0
M  V30 7150 C 699.375 -3.31536 0.702651 0
M  V30 7151 C 698.548 -3.96693 1.84265 0
M  V30 7152 C 697.607 -5.07158 1.40277 0
M  V30 7153 O 696.633 -5.28628 2.11048 0
M  V30 7154 N 697.835 -5.79808 0.283449 0
M  V30 7155 H 700.6 -2.14981 2.08814 0
M  V30 7156 H 698.161 -1.05526 1.22784 0
M  V30 7157 H 700.153 -4.02804 0.391331 0
M  V30 7158 H 698.723 -3.12175 -0.162954 0
M  V30 7159 H 697.943 -3.1856 2.32192 0
M  V30 7160 H 699.231 -4.36964 2.60653 0
M  V30 7161 H 698.629 -5.64871 -0.306189 0
M  V30 7162 H 697.186 -6.51792 0.0315985 0
M  V30 7163 N 700.619 -1.13374 -1.09472 0
M  V30 7164 C 701.896 -0.806329 -1.78207 0
M  V30 7165 C 702.276 0.702191 -1.99079 0
M  V30 7166 O 701.624 1.63931 -1.59182 0
M  V30 7167 C 701.834 -1.59271 -3.10538 0
M  V30 7168 C 703.182 -1.78509 -3.85253 0
M  V30 7169 O 704.206 -1.55866 -3.20288 0
M  V30 7170 O 703.065 -2.16287 -5.01879 0
M  V30 7171 H 700.159 -0.29435 -0.772843 0
M  V30 7172 H 702.705 -1.23833 -1.16033 0
M  V30 7173 H 701.477 -2.61792 -2.90828 0
M  V30 7174 H 701.1 -1.15562 -3.80436 0
M  V30 7175 N 702.098 1.27442 -0.927168 0
M  V30 7176 C 703.008 2.30599 -0.431448 0
M  V30 7177 C 704.024 1.67028 0.48761 0
M  V30 7178 O 705.2 1.97962 0.370546 0
M  V30 7179 C 702.265 3.45327 0.308292 0
M  V30 7180 C 701.326 4.24418 -0.645615 0
M  V30 7181 C 700.559 5.33667 0.0589164 0
M  V30 7182 O 700.782 5.5589 1.27838 0
M  V30 7183 O 699.716 5.98774 -0.612638 0
M  V30 7184 H 703.542 2.75036 -1.28797 0
M  V30 7185 H 701.127 1.32382 -0.692495 0
M  V30 7186 H 703.009 4.15107 0.725555 0
M  V30 7187 H 701.684 3.02945 1.14043 0
M  V30 7188 H 700.591 3.57174 -1.11255 0
M  V30 7189 H 701.924 4.70512 -1.44496 0
M  V30 7190 N 703.576 0.692616 1.41565 0
M  V30 7191 C 704.824 0.221896 2.00878 0
M  V30 7192 C 705.145 -1.18164 1.5512 0
M  V30 7193 O 704.415 -1.79679 0.78054 0
M  V30 7194 H 702.995 0.0790463 0.742806 0
M  V30 7195 H 705.657 0.893115 1.73232 0
M  V30 7196 H 704.753 0.23702 3.11199 0
M  V30 7197 N 705.054 -1.51416 0.437162 0
M  V30 7198 C 706.303 -2.01275 -0.130865 0
M  V30 7199 C 706.616 -1.32593 -1.438 0
M  V30 7200 O 707.822 -1.7342 -2.08897 0
M  V30 7201 C 706.278 -3.5878 -0.283763 0
M  V30 7202 C 705.886 -4.36399 1.01293 0
M  V30 7203 C 707.63 -4.16786 -0.805569 0
M  V30 7204 C 705.537 -5.85608 0.825687 0
M  V30 7205 H 704.467 -0.752157 -0.0526818 0
M  V30 7206 H 707.118 -1.74524 0.566896 0
M  V30 7207 H 705.5 -3.81976 -1.04452 0
M  V30 7208 H 706.674 -4.24948 1.78201 0
M  V30 7209 H 704.989 -3.89843 1.46326 0
M  V30 7210 H 707.586 -5.25972 -0.962146 0
M  V30 7211 H 707.929 -3.75949 -1.78796 0
M  V30 7212 H 708.462 -3.97666 -0.103125 0
M  V30 7213 H 705.201 -6.30857 1.78045 0
M  V30 7214 H 704.721 -5.99723 0.0964029 0
M  V30 7215 H 706.4 -6.45226 0.478815 0
M  V30 7216 N 706.532 -0.168513 -1.56696 0
M  V30 7217 C 707.479 0.762875 -2.17828 0
M  V30 7218 C 708.449 1.22892 -1.11745 0
M  V30 7219 O 709.634 1.29759 -1.39883 0
M  V30 7220 C 706.774 1.9879 -2.82093 0
M  V30 7221 C 705.887 1.56568 -4.02629 0
M  V30 7222 C 705.022 2.74416 -4.54829 0
M  V30 7223 C 704.061 2.28671 -5.67782 0
M  V30 7224 N 703.198 3.39602 -6.14504 0
M  V30 7225 H 708.038 0.23479 -2.97074 0
M  V30 7226 H 705.575 0.104163 -1.46731 0
M  V30 7227 H 707.533 2.70636 -3.17509 0
M  V30 7228 H 706.163 2.48973 -2.05456 0
M  V30 7229 H 705.215 0.744067 -3.73052 0
M  V30 7230 H 706.527 1.18988 -4.844 0
M  V30 7231 H 705.681 3.54423 -4.92412 0
M  V30 7232 H 704.42 3.15254 -3.7211 0
M  V30 7233 H 703.425 1.4711 -5.29753 0
M  V30 7234 H 704.65 1.88894 -6.52301 0
M  V30 7235 H 702.596 3.80021 -5.34715 0
M  V30 7236 H 702.513 3.06105 -6.91257 0
M  V30 7237 H 703.781 4.19902 -6.56737 0
M  V30 7238 N 708.01 1.57248 0.105221 0
M  V30 7239 C 708.942 1.98008 1.15436 0
M  V30 7240 C 709.955 0.881236 1.36887 0
M  V30 7241 O 711.144 1.15943 1.35718 0
M  V30 7242 C 708.244 2.27509 2.51183 0
M  V30 7243 C 707.417 3.58811 2.50147 0
M  V30 7244 C 706.476 3.76365 3.67745 0
M  V30 7245 O 705.502 4.48329 3.50699 0
M  V30 7246 N 706.704 3.16174 4.86841 0
M  V30 7247 H 709.469 2.88616 0.807519 0
M  V30 7248 H 707.03 1.59202 0.29433 0
M  V30 7249 H 709.022 2.36455 3.28438 0
M  V30 7250 H 707.592 1.42959 2.77995 0
M  V30 7251 H 706.812 3.60927 1.5851 0
M  V30 7252 H 708.1 4.45088 2.46524 0
M  V30 7253 H 707.498 2.57701 5.03594 0
M  V30 7254 H 706.055 3.30621 5.61723 0
M  V30 7255 N 709.488 -0.375779 1.53054 0
M  V30 7256 C 710.451 -1.44254 1.7811 0
M  V30 7257 C 711.451 -1.47018 0.651328 0
M  V30 7258 O 712.641 -1.47957 0.919472 0
M  V30 7259 C 709.773 -2.8345 1.89391 0
M  V30 7260 H 710.966 -1.23316 2.73374 0
M  V30 7261 H 708.519 -0.608312 1.43977 0
M  V30 7262 H 709.254 -3.09716 0.961589 0
M  V30 7263 H 709.039 -2.82844 2.71555 0
M  V30 7264 H 710.529 -3.60722 2.10404 0
M  V30 7265 N 710.966 -1.44241 -0.634997 0
M  V30 7266 C 711.899 -1.45274 -1.75985 0
M  V30 7267 C 712.877 -0.312025 -1.59578 0
M  V30 7268 O 714.061 -0.508409 -1.81514 0
M  V30 7269 C 711.188 -1.28173 -3.13511 0
M  V30 7270 C 710.234 -2.45757 -3.48576 0
M  V30 7271 S 711.067 -4.08293 -3.46492 0
M  V30 7272 C 712.223 -3.93608 -4.86645 0
M  V30 7273 H 712.456 -2.40454 -1.74841 0
M  V30 7274 H 709.989 -1.31492 -0.809268 0
M  V30 7275 H 711.947 -1.18993 -3.92875 0
M  V30 7276 H 710.608 -0.34511 -3.12198 0
M  V30 7277 H 709.801 -2.29644 -4.48642 0
M  V30 7278 H 709.403 -2.51657 -2.76667 0
M  V30 7279 H 711.695 -3.57059 -5.75774 0
M  V30 7280 H 712.638 -4.9349 -5.07813 0
M  V30 7281 H 713.046 -3.25737 -4.61038 0
M  V30 7282 N 712.444 0.87505 -1.31075 0
M  V30 7283 C 713.392 2.00317 -1.18219 0
M  V30 7284 C 714.386 1.69152 -0.0916872 0
M  V30 7285 O 715.592 1.7821 -0.253229 0
M  V30 7286 H 711.967 0.656981 -0.365895 0
M  V30 7287 H 713.938 2.08293 -2.13674 0
M  V30 7288 C 712.687 3.35821 -0.901095 0
M  V30 7289 H 712.01 3.6032 -1.73233 0
M  V30 7290 H 713.45 4.15366 -0.851295 0
M  V30 7291 C 711.909 3.34563 0.396114 0
M  V30 7292 O 712.439 3.75971 1.41452 0
M  V30 7293 N 710.645 2.87681 0.410832 0
M  V30 7294 H 710.192 2.54179 -0.418415 0
M  V30 7295 H 710.15 2.87223 1.27869 0
M  V30 7296 N 713.922 1.13953 1.08869 0
M  V30 7297 C 714.872 0.790812 2.13846 0
M  V30 7298 C 715.856 -0.217819 1.59419 0
M  V30 7299 O 717.048 -0.0208723 1.76988 0
M  V30 7300 C 714.177 0.26479 3.42277 0
M  V30 7301 C 713.263 1.30267 4.03598 0
M  V30 7302 N 713.654 2.50535 4.39393 0
M  V30 7303 C 711.952 1.15178 4.30871 0
M  V30 7304 C 712.653 3.16938 4.87776 0
M  V30 7305 N 711.629 2.44349 4.85587 0
M  V30 7306 H 715.431 1.70577 2.39334 0
M  V30 7307 H 712.945 1.02268 1.26154 0
M  V30 7308 H 714.942 -0.00330398 4.169 0
M  V30 7309 H 713.602 -0.644419 3.18241 0
M  V30 7310 H 714.613 2.87798 4.30572 0
M  V30 7311 H 711.29 0.301204 4.16412 0
M  V30 7312 H 712.68 4.19453 5.2489 0
M  V30 7313 N 715.4 -1.26948 0.933913 0
M  V30 7314 C 716.647 -1.94087 0.577625 0
M  V30 7315 C 716.975 -1.73345 -0.88214 0
M  V30 7316 O 716.23 -1.05945 -1.64542 0
M  V30 7317 C 716.529 -3.46963 0.857406 0
M  V30 7318 C 716.195 -3.87834 2.2999 0
M  V30 7319 C 714.857 -3.98704 2.69423 0
M  V30 7320 C 717.209 -4.08442 3.23766 0
M  V30 7321 C 714.537 -4.27573 4.01744 0
M  V30 7322 C 716.889 -4.38798 4.55675 0
M  V30 7323 C 715.553 -4.47881 4.94934 0
M  V30 7324 H 714.823 -0.710215 0.211368 0
M  V30 7325 H 717.47 -1.50899 1.17905 0
M  V30 7326 H 715.775 -3.91416 0.173369 0
M  V30 7327 H 717.472 -3.97062 0.560615 0
M  V30 7328 H 714.062 -3.79916 1.98399 0
M  V30 7329 H 718.246 -3.99479 2.94499 0
M  V30 7330 H 713.502 -4.32815 4.31834 0
M  V30 7331 H 717.676 -4.5369 5.28335 0
M  V30 7332 H 715.303 -4.70005 5.97495 0
M  V30 7333 N 716.879 -0.700114 -1.41195 0
M  V30 7334 C 718.125 -0.233351 -2.01453 0
M  V30 7335 C 718.458 1.16548 -1.55339 0
M  V30 7336 O 717.733 1.78756 -0.766575 0
M  V30 7337 C 718.016 -0.2961 -3.58881 0
M  V30 7338 C 717.869 -1.7322 -4.15108 0
M  V30 7339 C 719.188 0.341525 -4.38773 0
M  V30 7340 H 716.307 -0.0862667 -0.731934 0
M  V30 7341 H 718.949 -0.889693 -1.67882 0
M  V30 7342 H 717.099 0.262736 -3.87611 0
M  V30 7343 H 718.771 -2.34523 -3.97236 0
M  V30 7344 H 717.014 -2.2649 -3.69979 0
M  V30 7345 H 717.685 -1.7276 -5.24269 0
M  V30 7346 H 720.161 -0.134461 -4.15883 0
M  V30 7347 H 719.037 0.267098 -5.4825 0
M  V30 7348 H 719.298 1.42289 -4.18577 0
M  V30 7349 N 718.357 1.51182 -0.445186 0
M  V30 7350 C 719.289 2.25714 0.398206 0
M  V30 7351 C 720.302 1.30032 0.979562 0
M  V30 7352 O 721.491 1.55731 0.872368 0
M  V30 7353 C 718.591 3.00348 1.56985 0
M  V30 7354 C 717.764 4.23187 1.10596 0
M  V30 7355 C 716.823 4.80334 2.14863 0
M  V30 7356 O 715.849 5.4196 1.73977 0
M  V30 7357 N 717.051 4.65053 3.47427 0
M  V30 7358 H 719.816 2.98732 -0.240629 0
M  V30 7359 H 717.377 1.59556 -0.274507 0
M  V30 7360 H 719.369 3.35464 2.26376 0
M  V30 7361 H 717.939 2.30291 2.11387 0
M  V30 7362 H 717.159 3.93476 0.238832 0
M  V30 7363 H 718.447 5.02886 0.773537 0
M  V30 7364 H 717.845 4.15984 3.83372 0
M  V30 7365 H 716.402 5.04509 4.12691 0
M  V30 7366 N 719.835 0.176821 1.56605 0
M  V30 7367 C 720.745 -0.763682 2.21822 0
M  V30 7368 C 721.761 -1.24889 1.21156 0
M  V30 7369 O 722.937 -1.29987 1.53836 0
M  V30 7370 C 720.002 -1.97352 2.8505 0
M  V30 7371 C 719.063 -1.53466 4.00932 0
M  V30 7372 C 718.296 -2.68682 4.61135 0
M  V30 7373 O 718.519 -3.85694 4.20234 0
M  V30 7374 O 717.453 -2.42442 5.50913 0
M  V30 7375 H 721.279 -0.238363 3.02763 0
M  V30 7376 H 718.864 -0.0516331 1.49311 0
M  V30 7377 H 720.746 -2.68096 3.25119 0
M  V30 7378 H 719.421 -2.48779 2.07101 0
M  V30 7379 H 718.328 -0.796551 3.65521 0
M  V30 7380 H 719.661 -1.06724 4.8049 0
M  V30 7381 N 721.313 -1.57302 -0.09688 0
M  V30 7382 C 722.261 -2.02942 -1.13654 0
M  V30 7383 C 723.255 -0.930173 -1.41577 0
M  V30 7384 O 724.461 -1.11535 -1.41279 0
M  V30 7385 H 720.836 -0.646726 -0.383731 0
M  V30 7386 H 722.807 -2.89452 -0.725267 0
M  V30 7387 C 721.556 -2.46815 -2.44903 0
M  V30 7388 H 720.879 -3.30979 -2.24261 0
M  V30 7389 H 722.319 -2.82527 -3.16156 0
M  V30 7390 C 720.778 -1.34071 -3.09074 0
M  V30 7391 O 721.308 -0.668856 -3.96092 0
M  V30 7392 N 719.514 -1.09214 -2.69296 0
M  V30 7393 H 719.061 -1.64029 -1.98626 0
M  V30 7394 H 719.019 -0.339785 -3.12559 0
M  V30 7395 N 722.791 0.367657 -1.53252 0
M  V30 7396 C 724.039 1.10832 -1.68999 0
M  V30 7397 C 724.36 1.89894 -0.443306 0
M  V30 7398 O 723.63 1.88235 0.54262 0
M  V30 7399 H 722.21 0.412153 -0.623008 0
M  V30 7400 H 724.872 0.414775 -1.90435 0
M  V30 7401 H 723.968 1.7993 -2.55013 0
M  V30 7402 N 724.269 1.44576 0.627338 0
M  V30 7403 C 725.497 1.51048 1.41394 0
M  V30 7404 C 725.912 0.136568 1.88305 0
M  V30 7405 O 725.269 -0.858251 1.6106 0
M  V30 7406 C 725.32 2.47837 2.63172 0
M  V30 7407 O 725.041 3.79887 2.18215 0
M  V30 7408 C 726.542 2.63811 3.56257 0
M  V30 7409 H 723.762 0.512171 0.4335 0
M  V30 7410 H 726.306 1.89576 0.766878 0
M  V30 7411 H 724.461 2.12433 3.23961 0
M  V30 7412 H 724.875 4.32177 2.97192 0
M  V30 7413 H 726.349 3.35554 4.38301 0
M  V30 7414 H 726.826 1.69169 4.05313 0
M  V30 7415 H 727.432 3.0013 3.01333 0
M  V30 7416 N 725.747 -0.868086 1.31537 0
M  V30 7417 C 726.677 -1.99131 1.21939 0
M  V30 7418 C 727.658 -1.69768 0.106166 0
M  V30 7419 O 728.843 -1.92006 0.291081 0
M  V30 7420 C 725.973 -3.34676 0.927879 0
M  V30 7421 C 724.927 -3.7835 2.00088 0
M  V30 7422 C 724.253 -5.11375 1.56203 0
M  V30 7423 C 725.553 -3.95256 3.41424 0
M  V30 7424 H 727.247 -2.07419 2.15911 0
M  V30 7425 H 724.793 -0.996569 1.03945 0
M  V30 7426 H 726.746 -4.12793 0.847327 0
M  V30 7427 H 725.47 -3.26565 -0.0475042 0
M  V30 7428 H 724.129 -3.02474 2.07135 0
M  V30 7429 H 723.777 -4.99709 0.57445 0
M  V30 7430 H 723.477 -5.41568 2.27985 0
M  V30 7431 H 725.001 -5.92001 1.49558 0
M  V30 7432 H 726.415 -4.63764 3.3704 0
M  V30 7433 H 724.812 -4.36849 4.1144 0
M  V30 7434 H 725.882 -2.98579 3.82072 0
M  V30 7435 N 727.225 -1.14528 -1.08264 0
M  V30 7436 C 728.641 -0.885976 -1.3275 0
M  V30 7437 C 728.841 0.472096 -1.95892 0
M  V30 7438 O 727.897 1.21606 -2.21288 0
M  V30 7439 C 729.21 -2.01982 -2.22764 0
M  V30 7440 C 730.758 -2.05329 -2.36239 0
M  V30 7441 C 731.233 -3.1801 -3.29596 0
M  V30 7442 N 732.724 -3.17598 -3.37173 0
M  V30 7443 C 733.459 -4.01426 -4.09444 0
M  V30 7444 N 732.955 -4.95297 -4.8441 0
M  V30 7445 N 734.748 -3.89482 -4.0529 0
M  V30 7446 H 726.899 -2.01996 -0.656607 0
M  V30 7447 H 729.162 -0.880274 -0.351884 0
M  V30 7448 H 728.868 -2.99964 -1.83615 0
M  V30 7449 H 728.742 -1.94421 -3.23234 0
M  V30 7450 H 731.129 -1.07953 -2.74646 0
M  V30 7451 H 731.21 -2.1696 -1.35506 0
M  V30 7452 H 730.854 -4.15633 -2.9191 0
M  V30 7453 H 730.784 -3.03616 -4.30261 0
M  V30 7454 H 733.275 -2.4961 -2.83731 0
M  V30 7455 H 733.588 -5.55723 -5.37021 0
M  V30 7456 H 731.933 -4.99293 -4.83457 0
M  V30 7457 H 735.124 -3.15465 -3.45832 0
M  V30 7458 H 735.297 -4.55039 -4.6135 0
M  V30 7459 N 728.703 1.26451 -0.940633 0
M  V30 7460 C 729.666 2.24651 -0.454378 0
M  V30 7461 C 730.666 1.54826 0.434222 0
M  V30 7462 O 731.856 1.72628 0.233477 0
M  V30 7463 C 728.988 3.39148 0.345192 0
M  V30 7464 H 730.181 2.69182 -1.32217 0
M  V30 7465 H 727.734 1.38596 -0.722547 0
M  V30 7466 H 728.469 3.00018 1.23125 0
M  V30 7467 H 728.254 3.9101 -0.292107 0
M  V30 7468 H 729.744 4.12103 0.675341 0
M  V30 7469 N 730.181 0.707592 1.40822 0
M  V30 7470 C 731.128 0.0499029 2.30746 0
M  V30 7471 C 732.098 -0.758718 1.47759 0
M  V30 7472 O 733.283 -0.724299 1.76518 0
M  V30 7473 C 730.423 -0.871756 3.33908 0
M  V30 7474 C 729.536 -0.0534655 4.31967 0
M  V30 7475 C 728.671 -0.973869 5.22197 0
M  V30 7476 C 727.71 -0.149194 6.11918 0
M  V30 7477 N 726.847 -1.02404 6.94592 0
M  V30 7478 H 731.687 0.822461 2.86426 0
M  V30 7479 H 729.224 0.417285 1.41057 0
M  V30 7480 H 731.182 -1.42028 3.9228 0
M  V30 7481 H 729.812 -1.61058 2.7975 0
M  V30 7482 H 728.864 0.612142 3.75442 0
M  V30 7483 H 730.176 0.585354 4.95353 0
M  V30 7484 H 729.33 -1.59121 5.85462 0
M  V30 7485 H 728.069 -1.64652 4.59065 0
M  V30 7486 H 727.074 0.481137 5.47691 0
M  V30 7487 H 728.299 0.519841 6.77107 0
M  V30 7488 H 726.245 -1.6825 6.34057 0
M  V30 7489 H 726.162 -0.441076 7.54712 0
M  V30 7490 H 727.43 -1.62782 7.62314 0
M  V30 7491 N 731.66 -1.50943 0.453197 0
M  V30 7492 C 733.071 -1.86699 -0.00619892 0
M  V30 7493 C 733.422 -1.3693 -1.40515 0
M  V30 7494 O 732.547 -0.726715 -2.03833 0
M  V30 7495 C 733.142 -3.38795 -0.018025 0
M  V30 7496 C 731.701 -3.74028 -0.421885 0
M  V30 7497 C 730.848 -2.74752 0.375087 0
M  V30 7498 H 733.799 -1.43942 0.668317 0
M  V30 7499 H 733.82 -3.71468 -0.824125 0
M  V30 7500 H 733.332 -3.74988 1.00028 0
M  V30 7501 H 731.433 -3.43431 -1.44521 0
M  V30 7502 H 731.546 -4.78908 -0.135664 0
M  V30 7503 H 729.91 -2.5414 -0.168794 0
M  V30 7504 H 730.693 -3.13787 1.39256 0
M  V30 7505 N 733.138 -0.185124 -1.56509 0
M  V30 7506 C 734.366 0.462139 -2.01673 0
M  V30 7507 C 734.781 1.55873 -1.06532 0
M  V30 7508 O 734.138 1.82371 -0.0684805 0
M  V30 7509 C 734.189 1.0277 -3.46584 0
M  V30 7510 O 733.91 -0.0251296 -4.38093 0
M  V30 7511 C 735.411 1.75183 -4.07217 0
M  V30 7512 H 732.631 0.117001 -0.660721 0
M  V30 7513 H 735.175 -0.290905 -2.0242 0
M  V30 7514 H 733.33 1.73118 -3.46568 0
M  V30 7515 H 733.744 0.394387 -5.23015 0
M  V30 7516 H 735.218 2.09999 -5.10494 0
M  V30 7517 H 735.695 2.6519 -3.50101 0
M  V30 7518 H 736.301 1.09445 -4.10977 0
M  V30 7519 N 734.616 1.57351 0.0885366 0
M  V30 7520 C 735.864 1.86051 0.789262 0
M  V30 7521 C 736.185 0.774763 1.78948 0
M  V30 7522 O 735.455 -0.198324 1.94894 0
M  V30 7523 H 734.035 0.686508 0.294475 0
M  V30 7524 H 736.697 1.94779 0.0686055 0
M  V30 7525 H 735.793 2.83007 1.31581 0
M  V30 7526 N 736.094 -0.359525 1.53444 0
M  V30 7527 C 737.042 -1.46104 1.80987 0
M  V30 7528 C 738.036 -1.55181 0.679351 0
M  V30 7529 O 739.242 -1.57995 0.862405 0
M  V30 7530 H 735.617 -0.486835 0.573145 0
M  V30 7531 H 737.588 -1.2008 2.73173 0
M  V30 7532 C 736.337 -2.82855 2.02208 0
M  V30 7533 H 735.66 -2.76631 2.88644 0
M  V30 7534 H 737.1 -3.59091 2.25455 0
M  V30 7535 C 735.559 -3.27192 0.802931 0
M  V30 7536 O 736.089 -4.017 -0.00544286 0
M  V30 7537 N 734.295 -2.83807 0.624657 0
M  V30 7538 H 733.842 -2.23339 1.28364 0
M  V30 7539 H 733.8 -3.13828 -0.189641 0
M  V30 7540 N 737.572 -1.44907 -0.619662 0
M  V30 7541 C 738.82 -1.47999 -1.37625 0
M  V30 7542 C 739.141 -0.118295 -1.94641 0
M  V30 7543 O 738.411 0.85086 -1.76457 0
M  V30 7544 H 736.991 -0.544993 -0.510873 0
M  V30 7545 H 739.653 -1.80772 -0.728522 0
M  V30 7546 H 738.749 -2.21196 -2.20179 0
M  V30 7547 N 739.05 0.861098 -1.31996 0
M  V30 7548 C 740.299 1.60965 -1.21545 0
M  V30 7549 C 740.612 1.94325 0.222972 0
M  V30 7550 O 741.818 2.67757 0.449272 0
M  V30 7551 C 740.274 2.90223 -2.12834 0
M  V30 7552 C 739.882 2.64313 -3.61722 0
M  V30 7553 C 741.626 3.68229 -2.11205 0
M  V30 7554 C 739.533 3.89532 -4.44993 0
M  V30 7555 H 738.463 0.603988 -0.451348 0
M  V30 7556 H 741.114 0.951358 -1.56912 0
M  V30 7557 H 739.496 3.57475 -1.70375 0
M  V30 7558 H 740.67 2.05413 -4.12483 0
M  V30 7559 H 738.985 1.99647 -3.65418 0
M  V30 7560 H 741.582 4.61138 -2.70658 0
M  V30 7561 H 741.925 4.01466 -1.1014 0
M  V30 7562 H 742.458 3.07873 -2.51911 0
M  V30 7563 H 739.197 3.61441 -5.46846 0
M  V30 7564 H 738.717 4.47851 -3.98985 0
M  V30 7565 H 740.396 4.57334 -4.57663 0
M  V30 7566 N 740.528 1.15101 1.07655 0
M  V30 7567 C 741.758 0.946357 1.83651 0
M  V30 7568 C 742.166 -0.508641 1.82235 0
M  V30 7569 O 741.509 -1.36445 1.22997 0
M  V30 7570 C 741.571 1.37945 3.31981 0
M  V30 7571 C 741.235 2.85155 3.57122 0
M  V30 7572 C 742.232 3.83234 3.51323 0
M  V30 7573 C 739.917 3.2275 3.84887 0
M  V30 7574 C 741.911 5.16914 3.72932 0
M  V30 7575 C 739.598 4.56604 4.06148 0
M  V30 7576 C 740.596 5.53495 4.00165 0
M  V30 7577 O 740.284 6.84931 4.20861 0
M  V30 7578 H 740.016 0.336368 0.586372 0
M  V30 7579 H 742.57 1.53198 1.36819 0
M  V30 7580 H 740.8 0.737205 3.79608 0
M  V30 7581 H 742.489 1.14439 3.89434 0
M  V30 7582 H 743.255 3.55535 3.29878 0
M  V30 7583 H 739.134 2.47921 3.88659 0
M  V30 7584 H 742.678 5.92529 3.68178 0
M  V30 7585 H 738.575 4.84019 4.27078 0
M  V30 7586 H 739.343 6.91304 4.38226 0
M  V30 7587 N 742.006 -1.2595 0.947325 0
M  V30 7588 C 743.255 -1.92759 0.593887 0
M  V30 7589 C 743.568 -1.75083 -0.872093 0
M  V30 7590 O 744.774 -2.36401 -1.33518 0
M  V30 7591 C 743.23 -3.45395 1.01144 0
M  V30 7592 C 742.838 -3.71795 2.49946 0
M  V30 7593 C 744.582 -4.18173 0.730185 0
M  V30 7594 C 742.489 -5.17901 2.85539 0
M  V30 7595 H 741.419 -0.721676 0.218403 0
M  V30 7596 H 744.07 -1.4293 1.15079 0
M  V30 7597 H 742.452 -3.94143 0.383007 0
M  V30 7598 H 743.626 -3.33728 3.17746 0
M  V30 7599 H 741.941 -3.12263 2.75465 0
M  V30 7600 H 744.538 -5.25784 0.972367 0
M  V30 7601 H 744.881 -4.14964 -0.333223 0
M  V30 7602 H 745.414 -3.75309 1.31862 0
M  V30 7603 H 742.153 -5.26216 3.90867 0
M  V30 7604 H 741.673 -5.57042 2.22406 0
M  V30 7605 H 743.352 -5.8596 2.74336 0
M  V30 7606 N 743.484 -0.715051 -1.40445 0
M  V30 7607 C 744.432 -0.0509974 -2.32544 0
M  V30 7608 C 745.426 0.747602 -1.52011 0
M  V30 7609 O 746.632 0.651031 -1.67814 0
M  V30 7610 H 743.007 0.00231113 -0.751996 0
M  V30 7611 H 744.978 -0.84449 -2.86201 0
M  V30 7612 C 743.727 0.857101 -3.3697 0
M  V30 7613 H 743.05 0.252 -3.99005 0
M  V30 7614 H 744.49 1.28971 -4.03909 0
M  V30 7615 C 742.949 1.98231 -2.72408 0
M  V30 7616 O 743.479 3.07309 -2.58697 0
M  V30 7617 N 741.685 1.76577 -2.308 0
M  V30 7618 H 741.232 0.878641 -2.42152 0
M  V30 7619 H 741.19 2.52043 -1.87941 0
M  V30 7620 N 744.962 1.50701 -0.461195 0
M  V30 7621 C 746.21 2.01867 0.0970051 0
M  V30 7622 C 746.531 1.34591 1.41104 0
M  V30 7623 O 745.801 0.488041 1.89723 0
M  V30 7624 H 744.381 0.74599 0.0388392 0
M  V30 7625 H 747.043 1.85129 -0.609357 0
M  V30 7626 H 746.139 3.11051 0.255688 0
M  V30 7627 N 746.441 0.193421 1.56409 0
M  V30 7628 C 747.857 -0.162447 1.58771 0
M  V30 7629 C 748.057 -1.6116 1.20954 0
M  V30 7630 O 747.113 -2.3469 0.931497 0
M  V30 7631 C 748.426 0.138391 3.00381 0
M  V30 7632 C 749.974 0.0783649 3.12902 0
M  V30 7633 C 750.449 0.352491 4.56642 0
M  V30 7634 N 751.94 0.30105 4.62221 0
M  V30 7635 C 752.675 0.487028 5.71328 0
M  V30 7636 N 752.171 0.733265 6.88909 0
M  V30 7637 N 753.964 0.4214 5.60518 0
M  V30 7638 H 746.115 1.13909 1.79272 0
M  V30 7639 H 748.378 0.454528 0.83193 0
M  V30 7640 H 748.084 1.14312 3.32604 0
M  V30 7641 H 747.958 -0.559804 3.73023 0
M  V30 7642 H 750.345 -0.916963 2.80492 0
M  V30 7643 H 750.426 0.809611 2.4265 0
M  V30 7644 H 750.07 1.34513 4.89764 0
M  V30 7645 H 750 -0.399624 5.25081 0
M  V30 7646 H 752.491 0.117279 3.77718 0
M  V30 7647 H 752.804 0.86403 7.67955 0
M  V30 7648 H 751.149 0.770138 6.9072 0
M  V30 7649 H 754.34 0.229461 4.67537 0
M  V30 7650 H 754.513 0.569758 6.4549 0
M  V30 7651 N 747.919 -1.57396 -0.0801906 0
M  V30 7652 C 749.167 -1.86467 -0.779384 0
M  V30 7653 C 749.488 -0.784243 -1.78535 0
M  V30 7654 O 748.758 0.187986 -1.94996 0
M  V30 7655 H 747.338 -0.68806 -0.29083 0
M  V30 7656 H 750 -1.94813 -0.0582749 0
M  V30 7657 H 749.096 -2.83701 -1.30078 0
M  V30 7658 N 749.397 0.351382 -1.53633 0
M  V30 7659 C 750.347 1.4316 -1.77452 0
M  V30 7660 C 751.331 1.48076 -0.62946 0
M  V30 7661 O 752.523 1.53078 -0.888599 0
M  V30 7662 C 749.652 2.80409 -1.98055 0
M  V30 7663 C 748.738 2.79915 -3.18604 0
M  V30 7664 N 749.129 2.49057 -4.40232 0
M  V30 7665 C 747.427 3.11067 -3.19614 0
M  V30 7666 C 748.128 2.566 -5.22045 0
M  V30 7667 N 747.104 2.919 -4.5858 0
M  V30 7668 H 750.906 1.18188 -2.69089 0
M  V30 7669 H 748.42 0.559684 -1.52451 0
M  V30 7670 H 750.417 3.58231 -2.13251 0
M  V30 7671 H 749.077 3.06334 -1.07655 0
M  V30 7672 H 750.088 2.22395 -4.67719 0
M  V30 7673 H 746.765 3.42215 -2.39154 0
M  V30 7674 H 748.155 2.35968 -6.29101 0
M  V30 7675 N 750.875 1.45233 0.611969 0
M  V30 7676 C 751.805 1.5641 1.73373 0
M  V30 7677 C 752.786 0.415896 1.64937 0
M  V30 7678 O 753.971 0.638478 1.83404 0
M  V30 7679 C 751.101 1.52627 3.11965 0
M  V30 7680 C 750.055 2.66119 3.35208 0
M  V30 7681 C 749.381 2.4739 4.74028 0
M  V30 7682 C 750.681 4.08157 3.25891 0
M  V30 7683 H 752.375 2.50307 1.64277 0
M  V30 7684 H 749.921 1.20467 0.788904 0
M  V30 7685 H 751.874 1.59043 3.90235 0
M  V30 7686 H 750.598 0.552564 3.21892 0
M  V30 7687 H 749.257 2.59123 2.59327 0
M  V30 7688 H 748.905 1.48168 4.80682 0
M  V30 7689 H 748.605 3.23494 4.90536 0
M  V30 7690 H 750.129 2.55653 5.54503 0
M  V30 7691 H 751.543 4.1642 3.9404 0
M  V30 7692 H 749.94 4.84617 3.5393 0
M  V30 7693 H 751.01 4.30374 2.23397 0
M  V30 7694 N 752.353 -0.854086 1.3245 0
M  V30 7695 C 753.599 -1.61069 1.23225 0
M  V30 7696 C 753.932 -1.93111 -0.205349 0
M  V30 7697 O 753.207 -1.57397 -1.14265 0
M  V30 7698 C 753.49 -2.93065 2.09249 0
M  V30 7699 C 753.343 -2.67801 3.6139 0
M  V30 7700 C 754.662 -3.94341 1.95406 0
M  V30 7701 H 751.781 -0.584449 0.448986 0
M  V30 7702 H 754.423 -0.986189 1.62402 0
M  V30 7703 H 752.573 -3.46364 1.75967 0
M  V30 7704 H 754.245 -2.21052 4.04887 0
M  V30 7705 H 752.488 -2.01756 3.84027 0
M  V30 7706 H 753.159 -3.6179 4.16907 0
M  V30 7707 H 755.635 -3.50301 2.24562 0
M  V30 7708 H 754.511 -4.84555 2.57872 0
M  V30 7709 H 754.772 -4.32382 0.921865 0
M  V30 7710 O 753.87 -1.27491 -0.991381 0
M  V30 7711 H 754.561 -1.07099 -1.61398 0
M  V30 END ATOM
M  V30 BEGIN BOND
M  V30 END BOND
M  V30 END CTAB
M  END
$$$$
