drugbank_target|Q96PD7 Diacylglycerol O-acyltransferase 2 (DB09568; DB13961)
 OpenBabel12092121053D

  0  0  0     0  0            999 V3000
M  V30 BEGIN CTAB
M  V30 COUNTS 6208 6294 0 0 0
M  V30 BEGIN ATOM
M  V30 1 H -0.908 1.98254 -0.117106 0
M  V30 2 N 0 1.576 0 0
M  V30 3 C 0.933 2.03868 1.02534 0
M  V30 4 C 1.911 0.928543 1.3348 0
M  V30 5 O 3.095 1.19667 1.45644 0
M  V30 6 C 0.222 2.43627 2.35294 0
M  V30 7 C -0.732 3.65373 2.2001 0
M  V30 8 S 0.101 5.13292 1.52614 0
M  V30 9 C 1.257 5.56322 2.86805 0
M  V30 10 H 1.49 2.90518 0.631377 0
M  V30 11 H -0.977 1.52953 0.210867 0
M  V30 12 H 0.981 2.67203 3.11629 0
M  V30 13 H -0.358 1.57376 2.7183 0
M  V30 14 H -1.165 3.90944 3.18086 0
M  V30 15 H -1.563 3.418 1.51819 0
M  V30 16 H 0.729 5.58782 3.83104 0
M  V30 17 H 1.672 6.56266 2.65933 0
M  V30 18 H 2.08 4.83886 2.90714 0
M  V30 19 N 1.4781 -0.272755 1.55222 0
M  V30 20 C 2.4251 -1.33716 1.88119 0
M  V30 21 C 3.3951 -1.49066 0.73271 0
M  V30 22 O 4.5801 -1.63469 0.984002 0
M  V30 23 C 1.7201 -2.69238 2.15882 0
M  V30 24 C 0.8331 -2.62108 3.43399 0
M  V30 25 C -0.0319 -3.89811 3.60861 0
M  V30 26 C -0.9929 -3.77193 4.8207 0
M  V30 27 N -1.8559 -4.9673 4.96189 0
M  V30 28 H 2.9841 -1.04962 2.78903 0
M  V30 29 H 0.5211 -0.507088 1.38083 0
M  V30 30 H 2.4791 -3.48089 2.29978 0
M  V30 31 H 1.1091 -2.96194 1.28331 0
M  V30 32 H 0.1611 -1.74967 3.37773 0
M  V30 33 H 1.4731 -2.48685 4.32386 0
M  V30 34 H 0.6271 -4.77103 3.74777 0
M  V30 35 H -0.6339 -4.06102 2.7006 0
M  V30 36 H -1.6289 -2.88284 4.68159 0
M  V30 37 H -0.4039 -3.62421 5.74307 0
M  V30 38 H -2.4579 -5.13431 4.08319 0
M  V30 39 H -2.5409 -4.85839 5.79221 0
M  V30 40 H -1.2729 -5.85594 5.1449 0
M  V30 41 N 2.9562 -1.48159 -0.537278 0
M  V30 42 C 4.1842 -1.59454 -1.31841 0
M  V30 43 C 4.5992 -0.252065 -1.8711 0
M  V30 44 O 3.9562 0.757621 -1.66031 0
M  V30 45 C 4.0072 -2.63546 -2.47439 0
M  V30 46 O 3.7282 -3.92583 -1.94449 0
M  V30 47 C 5.2292 -2.85212 -3.39366 0
M  V30 48 H 2.4492 -0.53785 -0.401196 0
M  V30 49 H 4.9932 -1.93932 -0.648891 0
M  V30 50 H 3.1482 -2.31946 -3.1029 0
M  V30 51 H 3.5622 -4.49629 -2.70063 0
M  V30 52 H 5.0362 -3.61863 -4.16844 0
M  V30 53 H 5.5132 -1.93765 -3.94147 0
M  V30 54 H 6.1192 -3.18086 -2.82314 0
M  V30 55 N 4.4343 0.785586 -1.36625 0
M  V30 56 C 5.3643 1.91259 -1.33949 0
M  V30 57 C 6.3453 1.68795 -0.210325 0
M  V30 58 O 7.5303 1.89854 -0.408561 0
M  V30 59 C 4.6603 3.28339 -1.13186 0
M  V30 60 C 3.6143 3.65335 -2.22967 0
M  V30 61 C 2.9403 5.00806 -1.87342 0
M  V30 62 C 4.2403 3.7352 -3.65075 0
M  V30 63 H 5.9343 1.93755 -2.28253 0
M  V30 64 H 3.4803 0.930788 -1.09874 0
M  V30 65 H 5.4333 4.06804 -1.09948 0
M  V30 66 H 4.1573 3.2624 -0.153332 0
M  V30 67 H 2.8163 2.89169 -2.25337 0
M  V30 68 H 2.4643 4.95233 -0.880545 0
M  V30 69 H 2.1643 5.26529 -2.60846 0
M  V30 70 H 3.6883 5.81687 -1.85667 0
M  V30 71 H 5.1023 4.42168 -3.64911 0
M  V30 72 H 3.4993 4.10731 -4.37516 0
M  V30 73 H 4.5693 2.74527 -3.99703 0
M  V30 74 N 5.9124 1.20967 1.01018 0
M  V30 75 C 7.1614 1.01796 1.74128 0
M  V30 76 C 7.4744 -0.449691 1.90361 0
M  V30 77 O 8.6804 -0.76068 2.60626 0
M  V30 78 C 7.1364 1.7727 3.13215 0
M  V30 79 C 6.7444 3.28171 3.04972 0
M  V30 80 C 8.4884 1.66489 3.90489 0
M  V30 81 C 6.3954 3.96156 4.39107 0
M  V30 82 H 5.3254 0.377276 0.652824 0
M  V30 83 H 7.9764 1.44651 1.12909 0
M  V30 84 H 6.3584 1.27205 3.75013 0
M  V30 85 H 7.5324 3.85499 2.52443 0
M  V30 86 H 5.8474 3.39437 2.41188 0
M  V30 87 H 8.4444 2.14617 4.89738 0
M  V30 88 H 8.7874 0.6222 4.11624 0
M  V30 89 H 9.3204 2.14003 3.35332 0
M  V30 90 H 6.0594 5.00604 4.23174 0
M  V30 91 H 5.5794 3.43617 4.91617 0
M  V30 92 H 7.2584 4.00774 5.07926 0
M  V30 93 N 7.3905 -1.2043 1.01659 0
M  V30 94 C 8.3535 -2.21433 0.591616 0
M  V30 95 C 9.3535 -1.57203 -0.338226 0
M  V30 96 O 10.5435 -1.73737 -0.126918 0
M  V30 97 C 7.6755 -3.40628 -0.136058 0
M  V30 98 H 8.8685 -2.60545 1.48514 0
M  V30 99 H 6.4215 -1.33893 0.806379 0
M  V30 100 H 7.1565 -3.07019 -1.04449 0
M  V30 101 H 6.9415 -3.88475 0.531917 0
M  V30 102 H 8.4315 -4.15475 -0.420735 0
M  V30 103 N 8.8686 -0.792821 -1.36206 0
M  V30 104 C 9.8316 -0.199459 -2.2833 0
M  V30 105 C 10.8316 0.605189 -1.48977 0
M  V30 106 O 12.0216 0.425685 -1.68919 0
M  V30 107 C 9.1536 0.723523 -3.33134 0
M  V30 108 H 10.3466 -1.01181 -2.82316 0
M  V30 109 H 7.8996 -0.562485 -1.45828 0
M  V30 110 H 8.6346 1.56008 -2.84309 0
M  V30 111 H 8.4196 0.148436 -3.91819 0
M  V30 112 H 9.9096 1.13344 -4.01924 0
M  V30 113 N 10.3467 1.47872 -0.545128 0
M  V30 114 C 11.5767 2.06589 -0.0210534 0
M  V30 115 C 11.9847 1.39997 1.27269 0
M  V30 116 O 11.3277 0.486421 1.77143 0
M  V30 117 C 11.3897 3.58574 0.257933 0
M  V30 118 C 11.0537 4.47132 -0.944573 0
M  V30 119 C 12.0507 4.85986 -1.84699 0
M  V30 120 C 9.7357 4.88821 -1.15584 0
M  V30 121 C 11.7297 5.65314 -2.94446 0
M  V30 122 C 9.4167 5.67916 -2.25642 0
M  V30 123 C 10.4147 6.06073 -3.14905 0
M  V30 124 O 10.1027 6.83578 -4.23057 0
M  V30 125 H 9.8347 0.674971 -0.0372899 0
M  V30 126 H 12.3887 1.91037 -0.754599 0
M  V30 127 H 10.6187 3.72295 1.04564 0
M  V30 128 H 12.3077 3.99356 0.72592 0
M  V30 129 H 13.0737 4.54388 -1.69577 0
M  V30 130 H 8.9527 4.58595 -0.470279 0
M  V30 131 H 12.4967 5.95016 -3.64145 0
M  V30 132 H 8.3937 5.98927 -2.40742 0
M  V30 133 H 9.1617 7.01954 -4.20954 0
M  V30 134 N 11.8248 0.280983 1.55075 0
M  V30 135 C 13.0498 -0.340154 2.04592 0
M  V30 136 C 13.4748 -1.48246 1.15779 0
M  V30 137 O 12.8328 -1.80614 0.15761 0
M  V30 138 C 12.8808 -0.793104 3.5177 0
M  V30 139 O 11.9848 -1.89981 3.66034 0
M  V30 140 H 11.3258 -0.0694289 0.66036 0
M  V30 141 H 13.8558 0.416993 2.00306 0
M  V30 142 H 13.8658 -1.08729 3.93245 0
M  V30 143 H 12.5408 0.0426163 4.15878 0
M  V30 144 H 11.1178 -1.60771 3.36463 0
M  V30 145 N 13.3029 -1.57598 0.00835791 0
M  V30 146 C 14.5509 -1.90551 -0.6734 0
M  V30 147 C 14.8719 -0.883301 -1.73847 0
M  V30 148 O 14.1419 0.0781442 -1.95744 0
M  V30 149 H 12.7219 -0.703312 -0.251717 0
M  V30 150 H 15.3839 -1.94833 0.0512592 0
M  V30 151 H 14.4799 -2.9056 -1.13935 0
M  V30 152 N 14.781 0.264519 -1.55364 0
M  V30 153 C 16.027 0.99646 -1.76631 0
M  V30 154 C 16.36 1.85632 -0.570478 0
M  V30 155 O 15.635 1.89647 0.43175 0
M  V30 156 C 15.918 1.87187 -3.07625 0
M  V30 157 C 15.771 1.04138 -4.37579 0
M  V30 158 C 17.09 2.85749 -3.34717 0
M  V30 159 H 14.209 0.360841 -0.642622 0
M  V30 160 H 16.851 0.268218 -1.88097 0
M  V30 161 H 15.001 2.49279 -2.9798 0
M  V30 162 H 16.673 0.440517 -4.59192 0
M  V30 163 H 14.916 0.345115 -4.32425 0
M  V30 164 H 15.587 1.68729 -5.2558 0
M  V30 165 H 18.063 2.33793 -3.4421 0
M  V30 166 H 16.939 3.44136 -4.27623 0
M  V30 167 H 17.2 3.61311 -2.54768 0
M  V30 168 N 16.2591 1.48442 0.529413 0
M  V30 169 C 17.1891 1.65902 1.64313 0
M  V30 170 C 18.1701 0.507897 1.6234 0
M  V30 171 O 19.3551 0.740503 1.79528 0
M  V30 172 C 16.4851 1.69911 3.02898 0
M  V30 173 C 15.4391 2.8453 3.19729 0
M  V30 174 C 14.7651 2.73629 4.59381 0
M  V30 175 C 16.0651 4.25821 3.02447 0
M  V30 176 H 17.7591 2.5914 1.49955 0
M  V30 177 H 15.3051 1.24709 0.719982 0
M  V30 178 H 17.2581 1.80715 3.80684 0
M  V30 179 H 15.9821 0.732524 3.18279 0
M  V30 180 H 14.6411 2.73283 2.44361 0
M  V30 181 H 14.2891 1.74938 4.71599 0
M  V30 182 H 13.9891 3.50541 4.71588 0
M  V30 183 H 15.5131 2.86401 5.39265 0
M  V30 184 H 16.9271 4.37898 3.70024 0
M  V30 185 H 15.3241 5.03735 3.26146 0
M  V30 186 H 16.3941 4.42244 1.98867 0
M  V30 187 N 17.7372 -0.778329 1.37039 0
M  V30 188 C 19.1532 -1.07796 1.17695 0
M  V30 189 C 19.3532 -2.01498 0.00860115 0
M  V30 190 O 18.4092 -2.43901 -0.653352 0
M  V30 191 C 19.7222 -1.68178 2.49272 0
M  V30 192 C 21.2702 -1.80467 2.55735 0
M  V30 193 C 21.7452 -2.44263 3.87427 0
M  V30 194 N 23.2362 -2.51721 3.88833 0
M  V30 195 C 23.9712 -3.01919 4.87476 0
M  V30 196 N 23.4672 -3.5234 5.96513 0
M  V30 197 N 25.2602 -3.00733 4.74885 0
M  V30 198 H 17.4112 -0.156032 2.11826 0
M  V30 199 H 19.6742 -0.131844 0.938787 0
M  V30 200 H 19.3802 -1.06796 3.35093 0
M  V30 201 H 19.2542 -2.67554 2.65885 0
M  V30 202 H 21.6412 -2.40984 1.70325 0
M  V30 203 H 21.7222 -0.798656 2.43013 0
M  V30 204 H 21.3662 -1.84388 4.73248 0
M  V30 205 H 21.2962 -3.45458 3.9745 0
M  V30 206 H 23.7872 -2.1603 3.10063 0
M  V30 207 H 24.1002 -3.89027 6.67741 0
M  V30 208 H 22.4452 -3.50462 6.00168 0
M  V30 209 H 25.6362 -2.60638 3.88826 0
M  V30 210 H 25.8092 -3.39545 5.51918 0
M  V30 211 N 19.2153 -1.21501 -1.00376 0
M  V30 212 C 20.4633 -1.03095 -1.73827 0
M  V30 213 C 20.7843 0.436341 -1.90055 0
M  V30 214 O 20.0543 1.31466 -1.45236 0
M  V30 215 H 18.6343 -0.378487 -0.644016 0
M  V30 216 H 21.2963 -1.52831 -1.20949 0
M  V30 217 H 20.3923 -1.49991 -2.73695 0
M  V30 218 N 20.6934 1.19889 -1.02296 0
M  V30 219 C 21.6034 2.26571 -0.608508 0
M  V30 220 C 22.6194 1.70299 0.356964 0
M  V30 221 O 23.7954 2.00235 0.216326 0
M  V30 222 C 20.8604 3.46677 0.0402814 0
M  V30 223 C 19.9214 4.18153 -0.97194 0
M  V30 224 C 19.1544 5.32525 -0.354016 0
M  V30 225 O 19.3774 5.64112 0.844604 0
M  V30 226 O 18.3114 5.92242 -1.07391 0
M  V30 227 H 22.1374 2.64251 -1.49684 0
M  V30 228 H 19.7224 1.26629 -0.792809 0
M  V30 229 H 21.6044 4.19475 0.402324 0
M  V30 230 H 20.2794 3.10858 0.902707 0
M  V30 231 H 19.1864 3.47499 -1.38546 0
M  V30 232 H 20.5194 4.57927 -1.80454 0
M  V30 233 N 22.1715 0.800033 1.35784 0
M  V30 234 C 23.5875 0.482977 1.52117 0
M  V30 235 C 23.7875 -0.996948 1.75109 0
M  V30 236 O 22.8435 -1.78216 1.78872 0
M  V30 237 C 24.1565 1.32264 2.70049 0
M  V30 238 C 25.7045 1.31742 2.83924 0
M  V30 239 C 26.1795 2.14106 4.04874 0
M  V30 240 N 27.6705 2.11607 4.12039 0
M  V30 241 C 28.4055 2.72099 5.04727 0
M  V30 242 N 27.9015 3.41492 6.02789 0
M  V30 243 N 29.6945 2.61776 4.97423 0
M  V30 244 H 21.8455 1.75856 1.19115 0
M  V30 245 H 24.1085 0.748122 0.582252 0
M  V30 246 H 23.8145 2.37261 2.59616 0
M  V30 247 H 23.6885 0.971303 3.6448 0
M  V30 248 H 26.0755 0.275333 2.93813 0
M  V30 249 H 26.1565 1.70859 1.9037 0
M  V30 250 H 25.8005 3.18351 3.95746 0
M  V30 251 H 25.7305 1.72353 4.97596 0
M  V30 252 H 28.2215 1.61112 3.41835 0
M  V30 253 H 28.5345 3.84953 6.70098 0
M  V30 254 H 26.8795 3.45596 6.02983 0
M  V30 255 H 30.0705 2.07157 4.19766 0
M  V30 256 H 30.2435 3.0921 5.69468 0
M  V30 257 N 23.6496 -1.47581 0.552962 0
M  V30 258 C 24.5816 -2.27997 -0.234533 0
M  V30 259 C 25.5946 -1.36753 -0.883321 0
M  V30 260 O 26.7836 -1.61612 -0.757889 0
M  V30 261 C 23.8836 -3.10879 -1.34935 0
M  V30 262 C 23.0566 -4.30056 -0.798158 0
M  V30 263 C 22.1156 -4.94567 -1.79694 0
M  V30 264 O 21.1416 -5.53087 -1.34474 0
M  V30 265 N 22.3436 -4.88878 -3.13015 0
M  V30 266 H 25.1086 -2.96222 0.455255 0
M  V30 267 H 22.6696 -1.57163 0.388761 0
M  V30 268 H 24.6616 -3.50903 -2.01616 0
M  V30 269 H 23.2316 -2.44924 -1.94244 0
M  V30 270 H 22.4516 -3.94174 0.0453079 0
M  V30 271 H 23.7396 -5.07152 -0.409173 0
M  V30 272 H 23.1376 -4.42526 -3.52402 0
M  V30 273 H 21.6946 -5.32934 -3.75266 0
M  V30 274 N 25.1277 -0.289203 -1.54924 0
M  V30 275 C 26.0907 0.579144 -2.21762 0
M  V30 276 C 27.0907 1.07047 -1.1999 0
M  V30 277 O 28.2807 0.968384 -1.44803 0
M  V30 278 C 25.4127 1.80055 -2.8947 0
M  V30 279 H 26.6057 -0.00464908 -2.999 0
M  V30 280 H 24.1587 -0.0399306 -1.56249 0
M  V30 281 H 24.8937 2.42449 -2.15381 0
M  V30 282 H 24.6787 1.45602 -3.64064 0
M  V30 283 H 26.1687 2.41773 -3.40493 0
M  V30 284 N 26.6058 1.57591 -0.0167156 0
M  V30 285 C 27.5158 2.1291 0.98521 0
M  V30 286 C 28.5318 1.07834 1.36557 0
M  V30 287 O 29.7078 1.39826 1.44951 0
M  V30 288 C 26.7728 2.63512 2.25305 0
M  V30 289 C 25.8338 3.83256 1.93426 0
M  V30 290 C 25.0668 4.31435 3.14165 0
M  V30 291 O 25.2898 3.78851 4.26413 0
M  V30 292 O 24.2238 5.23416 2.97186 0
M  V30 293 H 28.0498 2.98772 0.544888 0
M  V30 294 H 25.6348 1.48012 0.203141 0
M  V30 295 H 27.5168 2.96183 2.99756 0
M  V30 296 H 26.1918 1.8074 2.68542 0
M  V30 297 H 25.0988 3.55531 1.16398 0
M  V30 298 H 26.4318 4.67153 1.55013 0
M  V30 299 N 28.0839 -0.256276 1.55502 0
M  V30 300 C 29.0469 -1.30047 1.88734 0
M  V30 301 C 30.0469 -1.4154 0.763086 0
M  V30 302 O 31.2369 -1.40403 1.03115 0
M  V30 303 C 28.3689 -2.67953 2.10747 0
M  V30 304 H 29.5619 -1.01802 2.82093 0
M  V30 305 H 27.1149 -0.495134 1.4825 0
M  V30 306 H 27.8499 -3.01351 1.19825 0
M  V30 307 H 27.6349 -2.60993 2.92617 0
M  V30 308 H 29.1249 -3.43368 2.37673 0
M  V30 309 N 29.562 -1.4872 -0.521534 0
M  V30 310 C 30.839 -1.4766 -1.2828 0
M  V30 311 C 31.219 -0.19292 -2.10217 0
M  V30 312 O 30.567 0.825193 -2.13079 0
M  V30 313 C 30.777 -2.74358 -2.15705 0
M  V30 314 C 32.125 -3.23028 -2.75569 0
M  V30 315 O 33.149 -2.75333 -2.25987 0
M  V30 316 O 32.008 -4.0604 -3.65778 0
M  V30 317 H 29.102 -0.590085 -0.579421 0
M  V30 318 H 31.648 -1.60963 -0.537492 0
M  V30 319 H 30.42 -3.59292 -1.54999 0
M  V30 320 H 30.043 -2.63816 -2.97467 0
M  V30 321 N 31.0401 0.771051 -1.3745 0
M  V30 322 C 32.4561 1.07171 -1.18265 0
M  V30 323 C 32.6561 2.01491 -0.019287 0
M  V30 324 O 31.7121 2.44244 0.640408 0
M  V30 325 C 33.0251 1.66854 -2.50161 0
M  V30 326 C 34.5731 1.79109 -2.56689 0
M  V30 327 C 35.0481 2.42205 -3.88717 0
M  V30 328 N 36.5391 2.49655 -3.90162 0
M  V30 329 C 37.2741 2.9933 -4.8907 0
M  V30 330 N 36.7701 3.49172 -5.98374 0
M  V30 331 N 38.5631 2.9821 -4.76474 0
M  V30 332 H 30.7141 0.144796 -2.11906 0
M  V30 333 H 32.9771 0.126863 -0.939473 0
M  V30 334 H 32.6831 1.05017 -3.35655 0
M  V30 335 H 32.5571 2.6614 -2.673 0
M  V30 336 H 34.9441 2.40077 -1.71601 0
M  V30 337 H 35.0251 0.785757 -2.43433 0
M  V30 338 H 34.6691 1.81875 -4.74219 0
M  V30 339 H 34.5991 3.43345 -3.99276 0
M  V30 340 H 37.0901 2.14383 -3.11205 0
M  V30 341 H 37.4031 3.8548 -6.69795 0
M  V30 342 H 35.7481 3.47275 -6.02018 0
M  V30 343 H 38.9391 2.58572 -3.90203 0
M  V30 344 H 39.1121 3.36613 -5.53711 0
M  V30 345 N 32.5182 1.22032 0.997298 0
M  V30 346 C 33.7432 1.06921 1.77715 0
M  V30 347 C 34.1682 -0.376226 1.84299 0
M  V30 348 O 33.5262 -1.27165 1.29223 0
M  V30 349 C 33.5742 1.67996 3.19076 0
M  V30 350 O 32.6782 0.930653 4.01762 0
M  V30 351 H 32.0192 0.375814 0.547412 0
M  V30 352 H 34.5492 1.61737 1.25309 0
M  V30 353 H 34.5592 1.72538 3.69723 0
M  V30 354 H 33.2342 2.73182 3.13599 0
M  V30 355 H 31.8112 0.960917 3.60307 0
M  V30 356 N 33.9963 -1.19345 1.0293 0
M  V30 357 C 34.9283 -2.22036 0.56857 0
M  V30 358 C 35.9413 -1.58865 -0.355779 0
M  V30 359 O 37.1303 -1.77851 -0.152103 0
M  V30 360 C 34.2303 -3.38363 -0.190752 0
M  V30 361 C 33.4033 -4.31118 0.738643 0
M  V30 362 C 32.4623 -5.26194 0.0246497 0
M  V30 363 O 31.4883 -5.65461 0.651354 0
M  V30 364 N 32.6903 -5.66971 -1.24594 0
M  V30 365 H 35.4553 -2.6219 1.45177 0
M  V30 366 H 33.0163 -1.34015 0.908381 0
M  V30 367 H 35.0083 -3.98981 -0.677961 0
M  V30 368 H 33.5783 -2.96994 -0.975366 0
M  V30 369 H 32.7983 -3.68276 1.40593 0
M  V30 370 H 34.0863 -4.90001 1.37029 0
M  V30 371 H 33.4843 -5.37104 -1.77583 0
M  V30 372 H 32.0413 -6.2984 -1.67764 0
M  V30 373 N 35.4744 -0.807222 -1.35358 0
M  V30 374 C 36.8904 -0.491038 -1.51858 0
M  V30 375 C 37.0904 0.987648 -1.75635 0
M  V30 376 O 36.1464 1.77265 -1.79815 0
M  V30 377 C 37.4594 -1.33695 -2.69344 0
M  V30 378 C 39.0074 -1.33246 -2.83222 0
M  V30 379 C 39.4824 -2.1625 -4.03733 0
M  V30 380 N 40.9734 -2.1379 -4.10911 0
M  V30 381 C 41.7084 -2.74772 -5.03277 0
M  V30 382 N 41.2044 -3.44684 -6.0097 0
M  V30 383 N 42.9974 -2.6441 -4.96028 0
M  V30 384 H 35.1484 -1.76485 -1.18181 0
M  V30 385 H 37.4114 -0.751199 -0.578276 0
M  V30 386 H 37.1174 -2.38634 -2.58354 0
M  V30 387 H 36.9914 -0.990618 -3.6396 0
M  V30 388 H 39.3784 -0.290911 -2.93663 0
M  V30 389 H 39.4594 -1.71866 -1.89461 0
M  V30 390 H 39.1034 -3.20445 -3.94052 0
M  V30 391 H 39.0334 -1.74989 -4.96675 0
M  V30 392 H 41.5244 -1.62923 -3.40976 0
M  V30 393 H 41.8374 -3.88501 -6.68047 0
M  V30 394 H 40.1824 -3.48788 -6.01142 0
M  V30 395 H 43.3734 -2.0938 -4.18662 0
M  V30 396 H 43.5464 -3.12225 -5.6782 0
M  V30 397 N 36.9525 1.47285 -0.560781 0
M  V30 398 C 38.1775 2.07359 -0.0410566 0
M  V30 399 C 38.6025 1.41017 1.24483 0
M  V30 400 O 37.9605 0.486368 1.74654 0
M  V30 401 C 38.0085 3.6035 0.134123 0
M  V30 402 O 37.1125 3.94681 1.19587 0
M  V30 403 H 36.4535 0.661887 -0.0529291 0
M  V30 404 H 38.9835 1.89252 -0.777482 0
M  V30 405 H 38.9935 4.0652 0.347207 0
M  V30 406 H 37.6685 4.08034 -0.805047 0
M  V30 407 H 36.2455 3.60251 0.962987 0
M  V30 408 N 38.4306 0.297415 1.54768 0
M  V30 409 C 39.3806 -0.595275 2.20092 0
M  V30 410 C 40.3646 -1.10163 1.17273 0
M  V30 411 O 41.5566 -1.043 1.43006 0
M  V30 412 C 38.6856 -1.7684 2.94249 0
M  V30 413 C 37.7716 -1.27818 4.0438 0
M  V30 414 N 38.1626 -0.505695 5.03266 0
M  V30 415 C 36.4606 -1.55923 4.17857 0
M  V30 416 C 37.1616 -0.245094 5.81183 0
M  V30 417 N 36.1376 -0.823881 5.3732 0
M  V30 418 H 39.9396 0.00250837 2.939 0
M  V30 419 H 37.4536 0.102007 1.62079 0
M  V30 420 H 39.4506 -2.41944 3.39513 0
M  V30 421 H 38.1106 -2.36992 2.21957 0
M  V30 422 H 39.1216 -0.150928 5.1768 0
M  V30 423 H 35.7986 -2.16849 3.56767 0
M  V30 424 H 37.1886 0.375084 6.70852 0
M  V30 425 N 39.9087 -1.5758 0.0250728 0
M  V30 426 C 41.1567 -1.91255 -0.653151 0
M  V30 427 C 41.4777 -0.901691 -1.729 0
M  V30 428 O 40.7477 0.0573785 -1.95816 0
M  V30 429 H 39.3277 -0.705942 -0.244243 0
M  V30 430 H 41.9897 -1.94767 0.0719209 0
M  V30 431 H 41.0857 -2.91752 -1.10847 0
M  V30 432 N 41.3868 0.248026 -1.55636 0
M  V30 433 C 42.6348 0.974295 -1.77065 0
M  V30 434 C 42.9558 1.85897 -0.588849 0
M  V30 435 O 42.2258 1.91868 0.395407 0
M  V30 436 H 40.8058 0.362733 -0.653019 0
M  V30 437 H 43.4678 0.266244 -1.93073 0
M  V30 438 H 42.5638 1.59667 -2.68166 0
M  V30 439 N 42.8649 1.48995 0.513639 0
M  V30 440 C 44.2759 1.5119 1.09537 0
M  V30 441 C 44.6269 0.290906 1.94031 0
M  V30 442 O 43.7519 -0.60049 2.07902 0
M  V30 443 C 44.3469 2.73964 1.99322 0
M  V30 444 C 42.9059 2.78978 2.52682 0
M  V30 445 C 42.0529 2.44934 1.30009 0
M  V30 446 H 45.0039 1.55875 0.298125 0
M  V30 447 H 45.0249 2.53409 2.83838 0
M  V30 448 H 44.5369 3.62813 1.37799 0
M  V30 449 H 42.6379 1.94378 3.1788 0
M  V30 450 H 42.7509 3.8083 2.90698 0
M  V30 451 H 41.1149 1.9644 1.62122 0
M  V30 452 H 41.8979 3.36043 0.702131 0
M  V30 453 N 44.343 -0.763751 1.37857 0
M  V30 454 C 45.306 -1.85889 1.34081 0
M  V30 455 C 46.306 -1.58949 0.243277 0
M  V30 456 O 47.496 -1.66882 0.499589 0
M  V30 457 C 44.628 -3.23176 1.08489 0
M  V30 458 H 45.821 -1.90648 2.31502 0
M  V30 459 H 43.374 -0.964367 1.23003 0
M  V30 460 H 44.109 -3.24091 0.116318 0
M  V30 461 H 43.894 -3.44124 1.8794 0
M  V30 462 H 45.384 -4.03254 1.08517 0
M  V30 463 N 45.8211 -1.22559 -0.990812 0
M  V30 464 C 46.7511 -1.0218 -2.09956 0
M  V30 465 C 47.7321 0.0579394 -1.70001 0
M  V30 466 O 48.9171 -0.104684 -1.93918 0
M  V30 467 C 46.0471 -0.601023 -3.4206 0
M  V30 468 C 45.0011 -1.62694 -3.95872 0
M  V30 469 C 44.3271 -1.06193 -5.24049 0
M  V30 470 C 45.6271 -3.01743 -4.2632 0
M  V30 471 H 47.3211 -1.94916 -2.27262 0
M  V30 472 H 44.8671 -0.938566 -1.09211 0
M  V30 473 H 46.8201 -0.445561 -4.19038 0
M  V30 474 H 45.5441 0.362005 -3.24588 0
M  V30 475 H 44.2031 -1.77021 -3.21028 0
M  V30 476 H 43.8511 -0.0901903 -5.02919 0
M  V30 477 H 43.5511 -1.74732 -5.61019 0
M  V30 478 H 45.0751 -0.918092 -6.03658 0
M  V30 479 H 46.4891 -2.90777 -4.94087 0
M  V30 480 H 44.8861 -3.67425 -4.74467 0
M  V30 481 H 45.9561 -3.51518 -3.34011 0
M  V30 482 N 47.2992 1.18797 -1.03562 0
M  V30 483 C 48.5242 1.9314 -0.755764 0
M  V30 484 C 48.9492 1.7537 0.68022 0
M  V30 485 O 48.3072 1.06046 1.47051 0
M  V30 486 C 48.3552 3.42747 -1.12058 0
M  V30 487 O 47.4592 4.11683 -0.243124 0
M  V30 488 H 46.8002 0.602724 -0.278604 0
M  V30 489 H 49.3302 1.50678 -1.3841 0
M  V30 490 H 49.3402 3.93437 -1.08035 0
M  V30 491 H 48.0152 3.55002 -2.16672 0
M  V30 492 H 46.5922 3.71323 -0.342539 0
M  V30 493 N 48.7773 0.814389 1.34928 0
M  V30 494 C 50.1933 0.499084 1.51596 0
M  V30 495 C 50.3933 -0.978319 1.76157 0
M  V30 496 O 49.4493 -1.76309 1.80752 0
M  V30 497 C 50.7623 1.35121 2.68631 0
M  V30 498 C 52.3103 1.34746 2.82511 0
M  V30 499 C 52.7853 2.18388 4.0258 0
M  V30 500 N 54.2763 2.15966 4.09772 0
M  V30 501 C 55.0113 2.77437 5.01813 0
M  V30 502 N 54.5073 3.47866 5.99134 0
M  V30 503 N 56.3003 2.67037 4.94619 0
M  V30 504 H 48.4513 1.7711 1.17243 0
M  V30 505 H 50.7143 0.754256 0.574284 0
M  V30 506 H 50.4203 2.40001 2.57085 0
M  V30 507 H 50.2943 1.00991 3.63429 0
M  V30 508 H 52.6813 0.30648 2.93504 0
M  V30 509 H 52.7623 1.72869 1.88547 0
M  V30 510 H 52.4063 3.2253 3.92347 0
M  V30 511 H 52.3363 1.77621 4.9574 0
M  V30 512 H 54.8273 1.64729 3.40107 0
M  V30 513 H 55.1403 3.92038 6.65977 0
M  V30 514 H 53.4853 3.51972 5.99284 0
M  V30 515 H 56.6763 2.11597 4.17546 0
M  V30 516 H 56.8493 3.15232 5.66156 0
M  V30 517 N 50.2554 -1.46986 0.568584 0
M  V30 518 C 51.1654 -2.33942 -0.17555 0
M  V30 519 C 52.1814 -1.48891 -0.90041 0
M  V30 520 O 53.3574 -1.81794 -0.86676 0
M  V30 521 C 50.4224 -3.25811 -1.18524 0
M  V30 522 C 49.4834 -4.26757 -0.466582 0
M  V30 523 C 48.7164 -5.14236 -1.42817 0
M  V30 524 O 48.9394 -5.04379 -2.66379 0
M  V30 525 O 47.8734 -5.94412 -0.946453 0
M  V30 526 H 51.6994 -2.98896 0.538036 0
M  V30 527 H 49.2844 -1.4573 0.329097 0
M  V30 528 H 51.1664 -3.82527 -1.76779 0
M  V30 529 H 49.8414 -2.63471 -1.88055 0
M  V30 530 H 48.7484 -3.73769 0.157451 0
M  V30 531 H 50.0814 -4.91843 0.187485 0
M  V30 532 N 51.7335 -0.305618 -1.54608 0
M  V30 533 C 52.9815 0.301701 -1.99835 0
M  V30 534 C 53.3025 1.54054 -1.19551 0
M  V30 535 O 52.5725 1.93702 -0.292658 0
M  V30 536 H 51.1525 0.114468 -0.738178 0
M  V30 537 H 53.8145 -0.418016 -1.90364 0
M  V30 538 H 52.9105 0.570548 -3.06841 0
M  V30 539 N 53.2116 1.57565 -0.0334293 0
M  V30 540 C 54.4366 1.96689 0.657895 0
M  V30 541 C 54.8616 0.910057 1.64619 0
M  V30 542 O 54.2196 -0.128598 1.80843 0
M  V30 543 C 54.2676 3.34905 1.33683 0
M  V30 544 O 53.3716 3.31574 2.45219 0
M  V30 545 H 52.7126 0.641205 0.172489 0
M  V30 546 H 55.2426 2.04372 -0.0965621 0
M  V30 547 H 55.2526 3.71234 1.69262 0
M  V30 548 H 53.9276 4.11366 0.612411 0
M  V30 549 H 52.5046 3.06968 2.11719 0
M  V30 550 N 54.6897 -0.239769 1.55765 0
M  V30 551 C 55.9377 -0.964892 1.77579 0
M  V30 552 C 56.2587 -1.85582 0.598699 0
M  V30 553 O 55.5287 -1.92075 -0.385226 0
M  V30 554 H 54.1087 -0.359265 0.654933 0
M  V30 555 H 56.7707 -0.256001 1.93211 0
M  V30 556 H 55.8667 -1.58243 2.69009 0
M  V30 557 N 56.1678 -1.49265 -0.50573 0
M  V30 558 C 57.5838 -1.35923 -0.836486 0
M  V30 559 C 57.7838 -0.388704 -1.97715 0
M  V30 560 O 56.8398 0.181336 -2.51848 0
M  V30 561 C 58.1528 -2.76531 -1.18115 0
M  V30 562 C 59.7008 -2.85197 -1.28964 0
M  V30 563 C 60.1758 -4.26561 -1.66761 0
M  V30 564 N 61.6668 -4.2935 -1.73819 0
M  V30 565 C 62.4018 -5.35693 -2.045 0
M  V30 566 N 61.8978 -6.52287 -2.33438 0
M  V30 567 N 63.6908 -5.23105 -2.05711 0
M  V30 568 H 55.8418 -2.10965 0.246519 0
M  V30 569 H 58.1048 -0.9468 0.0476887 0
M  V30 570 H 57.8108 -3.49226 -0.416398 0
M  V30 571 H 57.6848 -3.11599 -2.1257 0
M  V30 572 H 60.0718 -2.12742 -2.04511 0
M  V30 573 H 60.1528 -2.53718 -0.325704 0
M  V30 574 H 59.7968 -4.99541 -0.917656 0
M  V30 575 H 59.7268 -4.55502 -2.64246 0
M  V30 576 H 62.2178 -3.4526 -1.53635 0
M  V30 577 H 62.5308 -7.29158 -2.56024 0
M  V30 578 H 60.8758 -6.55521 -2.30905 0
M  V30 579 H 64.0668 -4.31026 -1.82577 0
M  V30 580 H 64.2398 -6.06078 -2.29289 0
M  V30 581 N 57.6459 0.756429 -1.3826 0
M  V30 582 C 58.8919 1.5168 -1.35517 0
M  V30 583 C 59.2469 1.9232 0.0554451 0
M  V30 584 O 58.5399 1.62352 1.01746 0
M  V30 585 C 58.7339 2.78313 -2.24224 0
M  V30 586 C 58.5629 2.50053 -3.7377 0
M  V30 587 C 57.3329 2.43414 -4.42807 0
M  V30 588 C 59.5309 2.1702 -4.66269 0
M  V30 589 N 57.5129 2.07398 -5.77805 0
M  V30 590 C 58.8839 1.91271 -5.89759 0
M  V30 591 C 60.9389 2.03305 -4.54501 0
M  V30 592 C 59.6419 1.53192 -7.02798 0
M  V30 593 C 61.6679 1.66627 -5.67441 0
M  V30 594 C 61.0299 1.4175 -6.8999 0
M  V30 595 H 57.1289 0.554735 -0.551174 0
M  V30 596 H 59.7129 0.881106 -1.73622 0
M  V30 597 H 57.8839 3.39696 -1.88311 0
M  V30 598 H 59.6159 3.44343 -2.12627 0
M  V30 599 H 56.3709 2.59789 -3.95988 0
M  V30 600 H 56.7949 1.92044 -6.4919 0
M  V30 601 H 61.4369 2.21215 -3.60311 0
M  V30 602 H 59.1549 1.34022 -7.96909 0
M  V30 603 H 62.7409 1.56652 -5.60314 0
M  V30 604 H 61.6209 1.1379 -7.759 0
M  V30 605 N 59.124 1.23083 0.984299 0
M  V30 606 C 60.372 1.05848 1.72165 0
M  V30 607 C 60.693 -0.406049 1.90726 0
M  V30 608 O 59.963 -1.29139 1.47309 0
M  V30 609 H 58.543 0.388685 0.637913 0
M  V30 610 H 61.205 1.54736 1.18503 0
M  V30 611 H 60.301 1.54327 2.71274 0
M  V30 612 N 60.6021 -1.18246 1.0419 0
M  V30 613 C 61.8301 -1.92195 0.766072 0
M  V30 614 C 62.2451 -1.76247 -0.676933 0
M  V30 615 O 61.6021 -1.09293 -1.46155 0
M  V30 616 C 61.6531 -3.43568 1.12442 0
M  V30 617 O 61.3741 -3.59015 2.51078 0
M  V30 618 C 62.8751 -4.34613 0.873275 0
M  V30 619 H 60.0951 -0.610114 0.279288 0
M  V30 620 H 62.6391 -1.50007 1.38989 0
M  V30 621 H 60.7941 -3.8354 0.545542 0
M  V30 622 H 61.2081 -4.5273 2.64831 0
M  V30 623 H 62.6821 -5.39374 1.17385 0
M  V30 624 H 63.1591 -4.38781 -0.191909 0
M  V30 625 H 63.7651 -4.00341 1.43551 0
M  V30 626 N 62.0802 -0.821533 -1.34494 0
M  V30 627 C 63.3282 -0.408139 -1.97936 0
M  V30 628 C 63.6492 1.03193 -1.65457 0
M  V30 629 O 62.9192 1.71622 -0.944595 0
M  V30 630 H 61.4992 -0.147928 -0.732206 0
M  V30 631 H 64.1612 -1.05067 -1.64155 0
M  V30 632 H 63.2572 -0.52601 -3.07635 0
M  V30 633 N 63.5583 1.46682 -0.576371 0
M  V30 634 C 64.7833 2.07304 -0.0630475 0
M  V30 635 C 65.2083 1.42329 1.2298 0
M  V30 636 O 64.5663 0.504865 1.74129 0
M  V30 637 C 64.6143 3.60472 0.095895 0
M  V30 638 O 63.7183 3.95927 1.15394 0
M  V30 639 H 63.0593 0.661288 -0.0599463 0
M  V30 640 H 65.5893 1.88417 -0.797511 0
M  V30 641 H 65.5993 4.06865 0.304071 0
M  V30 642 H 64.2743 4.07157 -0.84828 0
M  V30 643 H 62.8513 3.61252 0.924724 0
M  V30 644 N 65.0364 0.313813 1.54444 0
M  V30 645 C 66.2614 -0.296681 2.05267 0
M  V30 646 C 66.6864 -1.45757 1.18897 0
M  V30 647 O 66.0444 -1.80239 0.195886 0
M  V30 648 C 66.0924 -0.71831 3.53373 0
M  V30 649 O 65.1964 -1.82175 3.69981 0
M  V30 650 H 64.5374 -0.0554061 0.661684 0
M  V30 651 H 67.0674 0.459387 1.99376 0
M  V30 652 H 67.0774 -1.00364 3.95463 0
M  V30 653 H 65.7524 0.130821 4.15694 0
M  V30 654 H 64.3294 -1.53598 3.39797 0
M  V30 655 N 66.5145 -1.57545 0.0417849 0
M  V30 656 C 67.7635 -1.91494 -0.633492 0
M  V30 657 C 68.0765 -0.921084 -1.72556 0
M  V30 658 O 69.2825 -1.15228 -2.45835 0
M  V30 659 C 67.7385 -3.40072 -1.17808 0
M  V30 660 C 67.3465 -4.47843 -0.118633 0
M  V30 661 C 69.0905 -3.8307 -1.82915 0
M  V30 662 C 66.9975 -5.87529 -0.675578 0
M  V30 663 H 65.9275 -0.714653 -0.24039 0
M  V30 664 H 68.5785 -1.83175 0.109148 0
M  V30 665 H 66.9605 -3.43364 -1.97274 0
M  V30 666 H 68.1345 -4.56128 0.654494 0
M  V30 667 H 66.4495 -4.14128 0.434414 0
M  V30 668 H 69.0465 -4.84794 -2.25563 0
M  V30 669 H 69.3895 -3.1881 -2.67705 0
M  V30 670 H 69.9225 -3.82255 -1.10119 0
M  V30 671 H 66.6615 -6.55362 0.134475 0
M  V30 672 H 66.1815 -5.82824 -1.4169 0
M  V30 673 H 67.8605 -6.36491 -1.1614 0
M  V30 674 N 67.9926 0.231505 -1.5589 0
M  V30 675 C 68.9226 1.29022 -1.94617 0
M  V30 676 C 69.9036 1.4941 -0.813067 0
M  V30 677 O 71.0886 1.6176 -1.07459 0
M  V30 678 C 68.2186 2.64199 -2.25424 0
M  V30 679 C 67.1726 2.58484 -3.41131 0
M  V30 680 C 66.4986 3.97599 -3.57518 0
M  V30 681 C 67.7986 2.1413 -4.76388 0
M  V30 682 H 69.4926 0.968563 -2.83301 0
M  V30 683 H 67.0386 0.464479 -1.36303 0
M  V30 684 H 68.9916 3.38413 -2.51107 0
M  V30 685 H 67.7156 2.98032 -1.33583 0
M  V30 686 H 66.3746 1.86727 -3.15481 0
M  V30 687 H 66.0226 4.28723 -2.6307 0
M  V30 688 H 65.7226 3.94659 -4.35337 0
M  V30 689 H 67.2466 4.7349 -3.85538 0
M  V30 690 H 68.6606 2.78083 -5.01341 0
M  V30 691 H 67.0576 2.2227 -5.57419 0
M  V30 692 H 68.1276 1.09331 -4.72414 0
M  V30 693 N 69.4707 1.49531 0.497807 0
M  V30 694 C 70.6957 1.63159 1.28039 0
M  V30 695 C 71.1207 0.30418 1.85624 0
M  V30 696 O 70.4787 -0.728618 1.66015 0
M  V30 697 C 70.5267 2.70537 2.38416 0
M  V30 698 O 69.6307 2.29931 3.42353 0
M  V30 699 H 68.9717 0.546001 0.377861 0
M  V30 700 H 71.5017 1.9574 0.59558 0
M  V30 701 H 71.5117 2.92802 2.84132 0
M  V30 702 H 70.1867 3.6689 1.95869 0
M  V30 703 H 68.7637 2.18009 3.02533 0
M  V30 704 N 70.9488 -0.749086 1.3866 0
M  V30 705 C 71.9118 -1.84457 1.36045 0
M  V30 706 C 72.9118 -1.58682 0.260122 0
M  V30 707 O 74.1018 -1.66343 0.517261 0
M  V30 708 C 71.2338 -3.22008 1.11911 0
M  V30 709 H 72.4268 -1.88182 2.33512 0
M  V30 710 H 69.9798 -0.951266 1.24019 0
M  V30 711 H 70.7148 -3.2395 0.150686 0
M  V30 712 H 70.4998 -3.42111 1.91579 0
M  V30 713 H 71.9898 -4.0208 1.12788 0
M  V30 714 N 72.4269 -1.23603 -0.977757 0
M  V30 715 C 73.3569 -1.04401 -2.0886 0
M  V30 716 C 74.3379 0.0399052 -1.70053 0
M  V30 717 O 75.5229 -0.125246 -1.93796 0
M  V30 718 C 72.6529 -0.637269 -3.41403 0
M  V30 719 C 71.6069 -1.66883 -3.94124 0
M  V30 720 C 70.9329 -1.11745 -5.22893 0
M  V30 721 C 72.2329 -3.06247 -4.23096 0
M  V30 722 H 73.9269 -1.97316 -2.25182 0
M  V30 723 H 71.4729 -0.950096 -1.08209 0
M  V30 724 H 73.4259 -0.48998 -4.18542 0
M  V30 725 H 72.1499 0.327557 -3.24953 0
M  V30 726 H 70.8089 -1.80416 -3.19133 0
M  V30 727 H 70.4569 -0.143527 -5.02795 0
M  V30 728 H 70.1569 -1.80672 -5.59134 0
M  V30 729 H 71.6809 -0.982067 -6.02651 0
M  V30 730 H 73.0949 -2.96001 -4.90975 0
M  V30 731 H 71.4919 -3.72436 -4.70544 0
M  V30 732 H 72.5619 -3.55041 -3.30263 0
M  V30 733 N 73.905 1.17692 -1.04816 0
M  V30 734 C 74.837 2.21103 -0.603822 0
M  V30 735 C 75.85 1.59411 0.33046 0
M  V30 736 O 77.039 1.7807 0.12379 0
M  V30 737 C 74.139 3.38623 0.136898 0
M  V30 738 C 73.312 4.29888 -0.807137 0
M  V30 739 C 72.371 5.26088 -0.10836 0
M  V30 740 O 71.397 5.64353 -0.741232 0
M  V30 741 N 72.599 5.68882 1.15558 0
M  V30 742 H 75.364 2.59848 -1.49329 0
M  V30 743 H 72.925 1.32553 -0.929587 0
M  V30 744 H 74.917 4.00009 0.614401 0
M  V30 745 H 73.487 2.98508 0.927993 0
M  V30 746 H 72.707 3.65993 -1.46434 0
M  V30 747 H 73.995 4.87759 -1.44807 0
M  V30 748 H 73.393 5.39861 1.69015 0
M  V30 749 H 71.95 6.32429 1.57722 0
M  V30 750 N 75.3831 0.828654 1.34056 0
M  V30 751 C 76.6601 0.341809 1.9259 0
M  V30 752 C 77.0401 -1.17158 1.75605 0
M  V30 753 O 76.3881 -1.98132 1.13824 0
M  V30 754 C 76.5981 0.777453 3.4023 0
M  V30 755 C 77.9461 0.779579 4.17382 0
M  V30 756 O 78.9701 0.7204 3.48839 0
M  V30 757 O 77.8291 0.857996 5.39723 0
M  V30 758 H 74.9231 0.0946085 0.821571 0
M  V30 759 H 77.4691 0.913827 1.42994 0
M  V30 760 H 76.2411 1.8196 3.46419 0
M  V30 761 H 75.8641 0.181444 3.97186 0
M  V30 762 N 76.8612 -1.46375 0.584142 0
M  V30 763 C 77.7912 -2.33103 -0.136037 0
M  V30 764 C 78.7722 -1.45431 -0.882255 0
M  V30 765 O 79.9572 -1.74246 -0.857434 0
M  V30 766 C 77.0872 -3.27731 -1.14933 0
M  V30 767 C 76.0412 -4.24855 -0.517862 0
M  V30 768 C 75.3672 -5.09001 -1.63773 0
M  V30 769 C 76.6672 -5.19439 0.545886 0
M  V30 770 H 78.3612 -2.93568 0.588086 0
M  V30 771 H 75.9072 -1.41166 0.284259 0
M  V30 772 H 77.8602 -3.87261 -1.66153 0
M  V30 773 H 76.5842 -2.65377 -1.90375 0
M  V30 774 H 75.2432 -3.6659 -0.0267361 0
M  V30 775 H 74.8912 -4.43031 -2.38185 0
M  V30 776 H 74.5912 -5.74777 -1.22085 0
M  V30 777 H 76.1152 -5.71396 -2.15266 0
M  V30 778 H 77.5292 -5.73177 0.118704 0
M  V30 779 H 75.9262 -5.93566 0.88317 0
M  V30 780 H 76.9962 -4.63285 1.43162 0
M  V30 781 N 78.3393 -0.321999 -1.54275 0
M  V30 782 C 79.5863 0.281044 -2.0054 0
M  V30 783 C 79.9143 1.52265 -1.21019 0
M  V30 784 O 79.1693 1.93687 -0.279982 0
M  V30 785 C 79.4683 0.661769 -3.5122 0
M  V30 786 C 79.1343 -0.480482 -4.48333 0
M  V30 787 C 77.7963 -0.794005 -4.74604 0
M  V30 788 C 80.1483 -1.24783 -5.06042 0
M  V30 789 C 77.4763 -1.87763 -5.55844 0
M  V30 790 C 79.8283 -2.32153 -5.88462 0
M  V30 791 C 78.4923 -2.64089 -6.13036 0
M  V30 792 H 77.7623 0.102841 -0.733829 0
M  V30 793 H 80.4093 -0.445453 -1.86247 0
M  V30 794 H 78.7143 1.46867 -3.63232 0
M  V30 795 H 80.4113 1.13989 -3.84457 0
M  V30 796 H 77.0013 -0.226039 -4.28004 0
M  V30 797 H 81.1853 -1.01887 -4.85729 0
M  V30 798 H 76.4413 -2.12954 -5.73115 0
M  V30 799 H 80.6153 -2.92057 -6.32199 0
M  V30 800 H 78.2423 -3.48185 -6.75775 0
M  V30 801 N 79.8174 1.5752 -0.0501392 0
M  V30 802 C 81.0424 1.97376 0.636997 0
M  V30 803 C 81.4674 0.927466 1.63645 0
M  V30 804 O 80.8254 -0.10941 1.8097 0
M  V30 805 C 80.8734 3.36304 1.30123 0
M  V30 806 O 79.9774 3.34156 2.41689 0
M  V30 807 H 79.3184 0.642998 0.165679 0
M  V30 808 H 81.8484 2.04258 -0.118233 0
M  V30 809 H 81.8584 3.73008 1.65315 0
M  V30 810 H 80.5334 4.11993 0.568746 0
M  V30 811 H 79.1104 3.09196 2.08451 0
M  V30 812 N 81.2955 -0.223234 1.56011 0
M  V30 813 C 82.5415 -0.949279 1.79211 0
M  V30 814 C 82.8745 -1.84054 0.619494 0
M  V30 815 O 82.1495 -1.90726 -0.381317 0
M  V30 816 C 82.4325 -1.78965 3.12479 0
M  V30 817 C 82.2855 -0.924997 4.40186 0
M  V30 818 C 83.6045 -2.76774 3.42175 0
M  V30 819 H 80.7235 -0.343676 0.651963 0
M  V30 820 H 83.3655 -0.218253 1.88742 0
M  V30 821 H 81.5155 -2.41291 3.04485 0
M  V30 822 H 83.1875 -0.318615 4.60198 0
M  V30 823 H 81.4305 -0.230344 4.33188 0
M  V30 824 H 82.1015 -1.54735 5.29869 0
M  V30 825 H 84.5775 -2.24584 3.50287 0
M  V30 826 H 83.4535 -3.32678 4.36597 0
M  V30 827 H 83.7145 -3.54429 2.64258 0
M  V30 828 N 82.7736 -1.49793 -0.48987 0
M  V30 829 C 84.0016 -1.63568 -1.26701 0
M  V30 830 C 84.4166 -0.311465 -1.86213 0
M  V30 831 O 83.7736 0.704416 -1.68357 0
M  V30 832 C 83.8246 -2.71284 -2.38929 0
M  V30 833 O 83.5456 -3.9857 -1.81861 0
M  V30 834 C 85.0466 -2.95864 -3.3012 0
M  V30 835 H 82.2666 -0.550342 -0.383881 0
M  V30 836 H 84.8106 -1.95898 -0.586864 0
M  V30 837 H 82.9656 -2.417 -3.02753 0
M  V30 838 H 83.3796 -4.57993 -2.55622 0
M  V30 839 H 84.8536 -3.74941 -4.05121 0
M  V30 840 H 85.3306 -2.06206 -3.87783 0
M  V30 841 H 85.9366 -3.26907 -2.72051 0
M  V30 842 N 84.2517 0.741722 -1.39055 0
M  V30 843 C 85.4977 1.50234 -1.37118 0
M  V30 844 C 85.8527 1.92368 0.0350439 0
M  V30 845 O 85.1457 1.63422 1.00019 0
M  V30 846 C 85.3397 2.7592 -2.27163 0
M  V30 847 C 85.1687 2.46074 -3.76401 0
M  V30 848 C 83.9387 2.38704 -4.45364 0
M  V30 849 C 86.1367 2.12062 -4.68545 0
M  V30 850 N 84.1187 2.01258 -5.79973 0
M  V30 851 C 85.4897 1.85005 -5.91754 0
M  V30 852 C 87.5447 1.98473 -4.56632 0
M  V30 853 C 86.2477 1.4573 -7.04383 0
M  V30 854 C 88.2737 1.60599 -5.69176 0
M  V30 855 C 87.6357 1.34423 -6.91455 0
M  V30 856 H 83.7347 0.548858 -0.557027 0
M  V30 857 H 86.3187 0.862642 -1.74547 0
M  V30 858 H 84.4897 3.3768 -1.91904 0
M  V30 859 H 86.2217 3.42068 -2.16267 0
M  V30 860 H 82.9767 2.55574 -3.98721 0
M  V30 861 H 83.4007 1.85147 -6.51191 0
M  V30 862 H 88.0427 2.17381 -3.62637 0
M  V30 863 H 85.7607 1.25562 -7.98286 0
M  V30 864 H 89.3467 1.507 -5.61944 0
M  V30 865 H 88.2267 1.05555 -7.77064 0
M  V30 866 N 85.7298 1.2412 0.971189 0
M  V30 867 C 86.6598 1.05508 2.08304 0
M  V30 868 C 87.6408 -0.0308864 1.70072 0
M  V30 869 O 88.8258 0.135521 1.93727 0
M  V30 870 C 85.9558 0.655365 3.4106 0
M  V30 871 C 84.9098 1.68971 3.93234 0
M  V30 872 C 84.2358 1.14516 5.22293 0
M  V30 873 C 85.5358 3.08487 4.21465 0
M  V30 874 H 87.2298 1.98507 2.24132 0
M  V30 875 H 84.7758 0.955821 1.07704 0
M  V30 876 H 86.7288 0.51217 4.18276 0
M  V30 877 H 85.4528 -0.31032 3.25122 0
M  V30 878 H 84.1118 1.82106 3.18171 0
M  V30 879 H 83.7598 0.170189 5.02712 0
M  V30 880 H 83.4598 1.83635 5.58168 0
M  V30 881 H 84.9838 1.01401 6.02121 0
M  V30 882 H 86.3978 2.98601 4.89398 0
M  V30 883 H 84.7948 3.74926 4.68562 0
M  V30 884 H 85.8648 3.56787 3.28376 0
M  V30 885 N 87.2079 -1.17134 1.05439 0
M  V30 886 C 88.1559 -2.23289 0.651511 0
M  V30 887 C 89.1499 -1.66186 -0.328411 0
M  V30 888 O 90.3559 -1.78949 -0.194206 0
M  V30 889 H 86.7309 -0.726938 0.192523 0
M  V30 890 H 88.7019 -2.54565 1.55689 0
M  V30 891 C 87.4509 -3.47671 0.0448436 0
M  V30 892 H 86.7739 -3.91918 0.78996 0
M  V30 893 H 88.2139 -4.2353 -0.19964 0
M  V30 894 C 86.6729 -3.14453 -1.20918 0
M  V30 895 O 87.2029 -3.29459 -2.29825 0
M  V30 896 N 85.4089 -2.68657 -1.10779 0
M  V30 897 H 84.9559 -2.56646 -0.221526 0
M  V30 898 H 84.9139 -2.46804 -1.9477 0
M  V30 899 N 88.686 -0.835752 -1.33615 0
M  V30 900 C 90.102 -0.523139 -1.50783 0
M  V30 901 C 90.302 0.950171 -1.77691 0
M  V30 902 O 89.358 1.73411 -1.83534 0
M  V30 903 C 90.671 -1.39378 -2.66448 0
M  V30 904 C 92.219 -1.39223 -2.80332 0
M  V30 905 C 92.694 -2.24765 -3.99055 0
M  V30 906 N 94.185 -2.22458 -4.06284 0
M  V30 907 C 94.92 -2.85386 -4.97336 0
M  V30 908 N 94.416 -3.57354 -5.93523 0
M  V30 909 N 96.209 -2.74872 -4.90308 0
M  V30 910 H 88.36 -1.78952 -1.14411 0
M  V30 911 H 90.623 -0.763297 -0.562212 0
M  V30 912 H 90.329 -2.44061 -2.53234 0
M  V30 913 H 90.203 -1.0676 -3.61776 0
M  V30 914 H 92.59 -0.353136 -2.92979 0
M  V30 915 H 92.671 -1.75846 -1.85773 0
M  V30 916 H 92.315 -3.28732 -3.87167 0
M  V30 917 H 92.245 -1.85485 -4.92852 0
M  V30 918 H 94.736 -1.70119 -3.37443 0
M  V30 919 H 95.049 -4.02584 -6.59656 0
M  V30 920 H 93.394 -3.61461 -5.93608 0
M  V30 921 H 96.585 -2.18213 -4.14126 0
M  V30 922 H 96.758 -3.24199 -5.61069 0
M  V30 923 N 90.1641 1.46063 -0.591896 0
M  V30 924 C 91.3891 2.07226 -0.0850314 0
M  V30 925 C 91.8141 1.43625 1.21463 0
M  V30 926 O 91.1721 0.523305 1.73583 0
M  V30 927 C 91.2201 3.60554 0.0576567 0
M  V30 928 O 90.3241 3.97128 1.11188 0
M  V30 929 H 89.6651 0.660615 -0.0669568 0
M  V30 930 H 92.1951 1.8756 -0.81745 0
M  V30 931 H 92.2051 4.07165 0.2609 0
M  V30 932 H 90.8801 4.06235 -0.891416 0
M  V30 933 H 89.4571 3.62213 0.886356 0
M  V30 934 N 91.6422 0.330177 1.54103 0
M  V30 935 C 92.5892 -0.532762 2.24567 0
M  V30 936 C 93.5592 -1.10635 1.23892 0
M  V30 937 O 94.7442 -1.14546 1.5259 0
M  V30 938 C 91.8842 -1.6845 3.01195 0
M  V30 939 C 90.9972 -1.13951 4.167 0
M  V30 940 C 90.1322 -2.25746 4.80845 0
M  V30 941 C 89.1712 -1.6853 5.88442 0
M  V30 942 N 88.3082 -2.74014 6.46421 0
M  V30 943 H 93.1482 0.0746905 2.97906 0
M  V30 944 H 90.6852 0.048632 1.4702 0
M  V30 945 H 92.6432 -2.36234 3.43874 0
M  V30 946 H 91.2732 -2.26314 2.30178 0
M  V30 947 H 90.3252 -0.35301 3.78758 0
M  V30 948 H 91.6372 -0.680892 4.94131 0
M  V30 949 H 90.7912 -3.01422 5.26526 0
M  V30 950 H 89.5302 -2.74947 4.0281 0
M  V30 951 H 88.5352 -0.913543 5.42157 0
M  V30 952 H 89.7602 -1.20198 6.68378 0
M  V30 953 H 87.7062 -3.22494 5.71256 0
M  V30 954 H 87.6232 -2.32735 7.19285 0
M  V30 955 H 88.8912 -3.49499 6.96757 0
M  V30 956 N 93.1203 -1.57491 0.0584922 0
M  V30 957 C 94.3663 -1.93264 -0.614558 0
M  V30 958 C 94.6993 -0.937717 -1.7006 0
M  V30 959 O 93.9743 0.0351652 -1.94468 0
M  V30 960 C 94.2573 -3.3938 -1.20386 0
M  V30 961 C 94.1103 -4.49625 -0.125375 0
M  V30 962 C 95.4293 -3.86039 -2.11334 0
M  V30 963 H 92.5483 -0.702791 -0.221933 0
M  V30 964 H 95.1903 -1.8961 0.12175 0
M  V30 965 H 93.3403 -3.42626 -1.83139 0
M  V30 966 H 95.0123 -4.58506 0.506971 0
M  V30 967 H 93.2553 -4.30354 0.545672 0
M  V30 968 H 93.9263 -5.48967 -0.577861 0
M  V30 969 H 96.4023 -3.84716 -1.58534 0
M  V30 970 H 95.2783 -4.88914 -2.49507 0
M  V30 971 H 95.5393 -3.23215 -3.01636 0
M  V30 972 N 94.5984 0.214957 -1.56127 0
M  V30 973 C 95.5084 1.28727 -1.96129 0
M  V30 974 C 96.5244 1.50916 -0.866044 0
M  V30 975 O 97.7004 1.63918 -1.17016 0
M  V30 976 C 94.7654 2.61569 -2.27558 0
M  V30 977 C 93.8264 2.47625 -3.50685 0
M  V30 978 C 93.0594 3.74132 -3.80606 0
M  V30 979 O 93.2824 4.77438 -3.12104 0
M  V30 980 O 92.2164 3.70849 -4.74083 0
M  V30 981 H 96.0424 0.977855 -2.87527 0
M  V30 982 H 93.6274 0.418358 -1.43423 0
M  V30 983 H 95.5094 3.40012 -2.48938 0
M  V30 984 H 94.1844 2.92178 -1.39332 0
M  V30 985 H 93.0914 1.67361 -3.34576 0
M  V30 986 H 94.4244 2.21954 -4.39315 0
M  V30 987 N 96.0765 1.50051 0.48192 0
M  V30 988 C 97.0235 1.68122 1.58125 0
M  V30 989 C 97.9935 0.522545 1.57666 0
M  V30 990 O 99.1785 0.751844 1.75362 0
M  V30 991 C 96.3185 1.77142 2.96167 0
M  V30 992 C 95.4315 3.0444 3.06497 0
M  V30 993 C 94.5665 3.04321 4.35387 0
M  V30 994 C 93.6055 4.26118 4.3942 0
M  V30 995 N 92.7425 4.238 5.59766 0
M  V30 996 H 97.5825 2.6198 1.42022 0
M  V30 997 H 95.1195 1.29877 0.690687 0
M  V30 998 H 97.0775 1.80352 3.76203 0
M  V30 999 H 95.7075 0.867329 3.1093 0
M  V30 1000 H 94.7595 3.10752 2.19402 0
M  V30 1001 H 96.0715 3.94426 3.05336 0
M  V30 1002 H 95.2255 3.062 5.23762 0
M  V30 1003 H 93.9645 2.12147 4.39141 0
M  V30 1004 H 92.9695 4.24463 3.49444 0
M  V30 1005 H 94.1945 5.19507 4.37366 0
M  V30 1006 H 92.1405 3.34474 5.64326 0
M  V30 1007 H 92.0575 5.07542 5.60301 0
M  V30 1008 H 93.3255 4.2981 6.50295 0
M  V30 1009 N 97.5546 -0.734337 1.39446 0
M  V30 1010 C 98.4866 -1.85861 1.34121 0
M  V30 1011 C 99.4996 -1.60871 0.249864 0
M  V30 1012 O 100.689 -1.71093 0.508865 0
M  V30 1013 C 97.7886 -3.21899 1.05991 0
M  V30 1014 C 96.9616 -3.74239 2.26415 0
M  V30 1015 C 96.0206 -4.88841 1.94733 0
M  V30 1016 O 95.0466 -5.02468 2.67422 0
M  V30 1017 N 96.2486 -5.73261 0.913884 0
M  V30 1018 H 99.0136 -1.90934 2.31007 0
M  V30 1019 H 96.5746 -0.915102 1.33557 0
M  V30 1020 H 98.5666 -3.96136 0.828147 0
M  V30 1021 H 97.1366 -3.12091 0.178361 0
M  V30 1022 H 96.3566 -2.91347 2.65539 0
M  V30 1023 H 97.6446 -4.05942 3.06738 0
M  V30 1024 H 97.0426 -5.64842 0.311476 0
M  V30 1025 H 95.5996 -6.47563 0.742015 0
M  V30 1026 N 99.0327 -1.24633 -0.964593 0
M  V30 1027 C 99.9627 -1.06611 -2.07741 0
M  V30 1028 C 100.944 0.0218666 -1.70086 0
M  V30 1029 O 102.129 -0.145793 -1.93652 0
M  V30 1030 C 99.2587 -0.673444 -3.40708 0
M  V30 1031 C 98.2127 -1.71054 -3.92332 0
M  V30 1032 C 97.5387 -1.17285 -5.21678 0
M  V30 1033 C 98.8387 -3.10718 -4.19824 0
M  V30 1034 H 100.533 -1.99693 -2.23076 0
M  V30 1035 H 98.0787 -0.96152 -1.07195 0
M  V30 1036 H 100.032 -0.534345 -4.17998 0
M  V30 1037 H 98.7557 0.293073 -3.25282 0
M  V30 1038 H 97.4147 -1.83791 -3.17201 0
M  V30 1039 H 97.0627 -0.196847 -5.02615 0
M  V30 1040 H 96.7627 -1.86592 -5.57187 0
M  V30 1041 H 98.2867 -1.04593 -6.01575 0
M  V30 1042 H 99.7007 -3.01192 -4.87808 0
M  V30 1043 H 98.0977 -3.77406 -4.66567 0
M  V30 1044 H 99.1677 -3.58524 -3.26479 0
M  V30 1045 N 100.511 1.16574 -1.06058 0
M  V30 1046 C 101.443 2.2045 -0.627239 0
M  V30 1047 C 102.456 1.59752 0.313534 0
M  V30 1048 O 103.645 1.78192 0.104896 0
M  V30 1049 C 100.745 3.3875 0.100974 0
M  V30 1050 C 99.9178 4.29008 -0.852687 0
M  V30 1051 C 98.9768 5.25944 -0.164152 0
M  V30 1052 O 98.0028 5.63535 -0.801047 0
M  V30 1053 N 99.2048 5.70075 1.09518 0
M  V30 1054 H 101.97 2.58249 -1.52077 0
M  V30 1055 H 99.5308 1.3156 -0.943594 0
M  V30 1056 H 101.523 4.00638 0.57194 0
M  V30 1057 H 100.093 2.99476 0.89628 0
M  V30 1058 H 99.3128 3.64419 -1.50308 0
M  V30 1059 H 100.601 4.86195 -1.49972 0
M  V30 1060 H 99.9988 5.41624 1.6328 0
M  V30 1061 H 98.5558 6.34067 1.51006 0
M  V30 1062 N 101.989 0.842826 1.3317 0
M  V30 1063 C 103.235 0.441099 1.97945 0
M  V30 1064 C 103.568 -0.998024 1.66593 0
M  V30 1065 O 102.843 -1.69839 0.947898 0
M  V30 1066 C 103.126 0.666841 3.53872 0
M  V30 1067 C 102.979 2.15352 3.94897 0
M  V30 1068 C 104.298 0.115544 4.39948 0
M  V30 1069 H 101.417 0.161739 0.719034 0
M  V30 1070 H 104.059 1.05907 1.57746 0
M  V30 1071 H 102.209 0.140828 3.88245 0
M  V30 1072 H 103.881 2.7447 3.70761 0
M  V30 1073 H 102.124 2.63653 3.44484 0
M  V30 1074 H 102.795 2.26221 5.03516 0
M  V30 1075 H 105.271 0.565213 4.12243 0
M  V30 1076 H 104.147 0.303152 5.48062 0
M  V30 1077 H 104.408 -0.980935 4.3108 0
M  V30 1078 N 103.467 -1.45747 0.599634 0
M  V30 1079 C 104.716 -2.01502 0.0893511 0
M  V30 1080 C 105.029 -1.4748 -1.28488 0
M  V30 1081 O 106.235 -1.95161 -1.88745 0
M  V30 1082 C 104.691 -3.59735 0.109082 0
M  V30 1083 C 104.299 -4.22754 1.48267 0
M  V30 1084 C 106.043 -4.23085 -0.346374 0
M  V30 1085 C 103.95 -5.73115 1.45921 0
M  V30 1086 H 102.88 -0.753417 0.0296347 0
M  V30 1087 H 105.531 -1.67303 0.753788 0
M  V30 1088 H 103.913 -3.91087 -0.621854 0
M  V30 1089 H 105.087 -4.02987 2.23468 0
M  V30 1090 H 103.402 -3.71567 1.87955 0
M  V30 1091 H 105.999 -5.33327 -0.38298 0
M  V30 1092 H 106.342 -3.93201 -1.36743 0
M  V30 1093 H 106.875 -3.9642 0.331038 0
M  V30 1094 H 103.614 -6.07685 2.45762 0
M  V30 1095 H 103.134 -5.95097 0.749665 0
M  V30 1096 H 104.813 -6.3616 1.17941 0
M  V30 1097 N 104.945 -0.338344 -1.53925 0
M  V30 1098 C 106.17 0.263987 -2.05713 0
M  V30 1099 C 106.595 1.43847 -1.21201 0
M  V30 1100 O 105.953 1.79904 -0.224535 0
M  V30 1101 C 106.001 0.662 -3.54471 0
M  V30 1102 O 105.105 1.76265 -3.72833 0
M  V30 1103 H 104.446 0.0448722 -0.662482 0
M  V30 1104 H 106.976 -0.491048 -1.9862 0
M  V30 1105 H 106.986 0.940594 -3.9701 0
M  V30 1106 H 105.661 -0.196937 -4.15433 0
M  V30 1107 H 104.238 1.48173 -3.42198 0
M  V30 1108 N 106.423 1.57458 -0.0668435 0
M  V30 1109 C 107.669 1.93587 0.6043 0
M  V30 1110 C 108.002 0.946722 1.69561 0
M  V30 1111 O 107.277 -0.0248516 1.94484 0
M  V30 1112 C 107.56 3.40014 1.18585 0
M  V30 1113 C 107.413 4.49685 0.101529 0
M  V30 1114 C 108.732 3.87154 2.09284 0
M  V30 1115 H 105.851 0.703958 0.218202 0
M  V30 1116 H 108.493 1.89542 -0.131804 0
M  V30 1117 H 106.643 3.43592 1.81319 0
M  V30 1118 H 108.315 4.5823 -0.531279 0
M  V30 1119 H 106.558 4.30059 -0.568487 0
M  V30 1120 H 107.229 5.49266 0.54874 0
M  V30 1121 H 109.705 3.85551 1.56491 0
M  V30 1122 H 108.581 4.90231 2.46911 0
M  V30 1123 H 108.842 3.2481 2.99918 0
M  V30 1124 N 107.901 -0.206675 1.56239 0
M  V30 1125 C 108.831 -1.25909 1.96645 0
M  V30 1126 C 109.812 -1.48097 0.836734 0
M  V30 1127 O 110.997 -1.6003 1.10019 0
M  V30 1128 C 108.127 -2.6058 2.29599 0
M  V30 1129 C 107.081 -2.53024 3.452 0
M  V30 1130 C 106.407 -3.91861 3.63798 0
M  V30 1131 C 107.707 -2.06524 4.79734 0
M  V30 1132 H 109.401 -0.923369 2.84806 0
M  V30 1133 H 106.947 -0.442735 1.37025 0
M  V30 1134 H 108.9 -3.34375 2.56459 0
M  V30 1135 H 107.624 -2.95869 1.38307 0
M  V30 1136 H 106.283 -1.81684 3.18412 0
M  V30 1137 H 105.931 -4.24483 2.69857 0
M  V30 1138 H 105.631 -3.87683 4.4156 0
M  V30 1139 H 107.155 -4.67296 3.93022 0
M  V30 1140 H 108.569 -2.70072 5.05702 0
M  V30 1141 H 106.966 -2.13374 5.60885 0
M  V30 1142 H 108.036 -1.01802 4.74093 0
M  V30 1143 N 109.379 -1.50304 -0.473955 0
M  V30 1144 C 110.311 -1.65109 -1.58971 0
M  V30 1145 C 111.324 -0.532676 -1.53839 0
M  V30 1146 O 112.513 -0.805751 -1.59279 0
M  V30 1147 C 109.613 -1.61684 -2.97845 0
M  V30 1148 C 108.786 -2.8951 -3.27876 0
M  V30 1149 C 107.845 -2.78768 -4.4629 0
M  V30 1150 O 106.871 -3.52722 -4.46739 0
M  V30 1151 N 108.073 -1.9213 -5.47783 0
M  V30 1152 H 110.838 -2.61347 -1.46689 0
M  V30 1153 H 108.399 -1.47732 -0.662324 0
M  V30 1154 H 110.391 -1.52114 -3.75024 0
M  V30 1155 H 108.961 -0.731925 -3.03911 0
M  V30 1156 H 108.181 -3.13228 -2.39336 0
M  V30 1157 H 109.469 -3.74199 -3.4475 0
M  V30 1158 H 108.867 -1.31353 -5.50239 0
M  V30 1159 H 107.424 -1.88466 -6.23958 0
M  V30 1160 N 110.857 0.726932 -1.39834 0
M  V30 1161 C 112.103 1.48771 -1.38704 0
M  V30 1162 C 112.458 1.92394 0.0146387 0
M  V30 1163 O 111.751 1.64474 0.982797 0
M  V30 1164 C 111.945 2.73495 -2.30077 0
M  V30 1165 C 111.774 2.42068 -3.78989 0
M  V30 1166 C 110.544 2.33966 -4.4787 0
M  V30 1167 C 112.742 2.0708 -4.70768 0
M  V30 1168 N 110.724 1.95095 -5.82075 0
M  V30 1169 C 112.095 1.78719 -5.93683 0
M  V30 1170 C 114.15 1.93618 -4.58712 0
M  V30 1171 C 112.853 1.3825 -7.05889 0
M  V30 1172 C 114.879 1.54553 -5.70848 0
M  V30 1173 C 114.241 1.27082 -6.92842 0
M  V30 1174 H 110.34 0.542919 -0.562817 0
M  V30 1175 H 112.924 0.84408 -1.75452 0
M  V30 1176 H 111.095 3.35625 -1.95474 0
M  V30 1177 H 112.827 3.39755 -2.19883 0
M  V30 1178 H 109.582 2.51331 -4.0141 0
M  V30 1179 H 110.006 1.7823 -6.53118 0
M  V30 1180 H 114.648 2.13522 -3.64922 0
M  V30 1181 H 112.366 1.17088 -7.99572 0
M  V30 1182 H 115.952 1.44731 -5.6351 0
M  V30 1183 H 114.832 0.973069 -7.78139 0
M  V30 1184 N 112.336 1.25143 0.95797 0
M  V30 1185 C 113.582 1.09855 1.70469 0
M  V30 1186 C 113.915 -0.360187 1.90831 0
M  V30 1187 O 113.19 -1.26568 1.47685 0
M  V30 1188 C 113.473 1.8497 3.08963 0
M  V30 1189 C 113.326 3.38652 2.96032 0
M  V30 1190 C 114.645 1.63016 4.08795 0
M  V30 1191 H 111.764 0.400465 0.618706 0
M  V30 1192 H 114.406 1.53933 1.11376 0
M  V30 1193 H 112.556 1.47505 3.59409 0
M  V30 1194 H 114.228 3.85772 2.52938 0
M  V30 1195 H 112.471 3.66534 2.32025 0
M  V30 1196 H 113.142 3.8642 3.94187 0
M  V30 1197 H 115.618 1.95625 3.67247 0
M  V30 1198 H 114.494 2.18015 5.03747 0
M  V30 1199 H 114.755 0.570692 4.38401 0
M  V30 1200 N 113.814 -1.1601 1.06675 0
M  V30 1201 C 114.744 -2.22688 0.702307 0
M  V30 1202 C 115.725 -1.67306 -0.307032 0
M  V30 1203 O 116.91 -1.93352 -0.181305 0
M  V30 1204 C 114.04 -3.47178 0.092038 0
M  V30 1205 C 112.994 -4.15477 1.02777 0
M  V30 1206 C 112.32 -5.33963 0.28061 0
M  V30 1207 C 113.62 -4.66019 2.35846 0
M  V30 1208 H 115.314 -2.53429 1.59419 0
M  V30 1209 H 112.86 -1.21813 0.767961 0
M  V30 1210 H 114.813 -4.21037 -0.174814 0
M  V30 1211 H 113.537 -3.15749 -0.834877 0
M  V30 1212 H 112.196 -3.43549 1.27944 0
M  V30 1213 H 111.844 -4.98788 -0.649545 0
M  V30 1214 H 111.544 -5.806 0.904258 0
M  V30 1215 H 113.068 -6.10596 0.021396 0
M  V30 1216 H 114.482 -5.3144 2.15045 0
M  V30 1217 H 112.879 -5.23293 2.93743 0
M  V30 1218 H 113.949 -3.82023 2.98641 0
M  V30 1219 N 115.292 -0.849877 -1.32721 0
M  V30 1220 C 116.517 -0.463856 -2.02146 0
M  V30 1221 C 116.942 0.930449 -1.63476 0
M  V30 1222 O 116.3 1.61033 -0.832952 0
M  V30 1223 C 116.348 -0.604955 -3.55489 0
M  V30 1224 O 115.452 0.36425 -4.10788 0
M  V30 1225 H 114.793 -0.187046 -0.637111 0
M  V30 1226 H 117.323 -1.14775 -1.69375 0
M  V30 1227 H 117.333 -0.490696 -4.05038 0
M  V30 1228 H 116.008 -1.62174 -3.82978 0
M  V30 1229 H 114.585 0.206628 -3.72327 0
M  V30 1230 N 116.77 1.45427 -0.607355 0
M  V30 1231 C 118.017 2.02241 -0.102455 0
M  V30 1232 C 118.345 1.4758 1.26691 0
M  V30 1233 O 117.6 0.640468 1.84923 0
M  V30 1234 C 117.899 3.57398 -0.0129263 0
M  V30 1235 C 117.565 4.3121 -1.31792 0
M  V30 1236 C 116.227 4.51092 -1.67539 0
M  V30 1237 C 118.579 4.73401 -2.18039 0
M  V30 1238 C 115.907 5.10422 -2.89285 0
M  V30 1239 C 118.259 5.34078 -3.39034 0
M  V30 1240 C 116.923 5.52184 -3.75033 0
M  V30 1241 H 116.193 0.740051 -0.037491 0
M  V30 1242 H 118.84 1.74494 -0.788926 0
M  V30 1243 H 117.145 3.84421 0.756806 0
M  V30 1244 H 118.842 3.99061 0.393881 0
M  V30 1245 H 115.432 4.16047 -1.02968 0
M  V30 1246 H 119.616 4.57774 -1.91721 0
M  V30 1247 H 114.872 5.22629 -3.17283 0
M  V30 1248 H 119.046 5.65724 -4.06115 0
M  V30 1249 H 116.673 5.97925 -4.69457 0
M  V30 1250 N 118.248 0.346503 1.53744 0
M  V30 1251 C 119.178 -0.501193 2.28058 0
M  V30 1252 C 120.159 -1.10014 1.29734 0
M  V30 1253 O 121.344 -1.12097 1.58581 0
M  V30 1254 C 118.474 -1.65078 3.05559 0
M  V30 1255 C 117.428 -1.18003 4.11411 0
M  V30 1256 C 116.754 -2.41837 4.76884 0
M  V30 1257 C 118.054 -0.278394 5.21558 0
M  V30 1258 H 119.748 0.11875 2.99164 0
M  V30 1259 H 117.294 0.0585531 1.43881 0
M  V30 1260 H 119.247 -2.25028 3.56287 0
M  V30 1261 H 117.971 -2.29767 2.32109 0
M  V30 1262 H 116.63 -0.603331 3.61601 0
M  V30 1263 H 116.278 -3.0494 4.00026 0
M  V30 1264 H 115.978 -2.1102 5.48402 0
M  V30 1265 H 117.502 -3.02508 5.30397 0
M  V30 1266 H 118.916 -0.784823 5.67903 0
M  V30 1267 H 117.313 -0.0619707 6.00068 0
M  V30 1268 H 118.383 0.684677 4.80042 0
M  V30 1269 N 119.726 -1.57421 0.075193 0
M  V30 1270 C 120.972 -1.93905 -0.594025 0
M  V30 1271 C 121.305 -0.955701 -1.69056 0
M  V30 1272 O 120.58 0.0145373 -1.94495 0
M  V30 1273 C 120.863 -3.40638 -1.1678 0
M  V30 1274 C 120.716 -4.49733 -0.0776792 0
M  V30 1275 C 122.035 -3.88259 -2.07228 0
M  V30 1276 H 119.154 -0.705105 -0.214466 0
M  V30 1277 H 121.796 -1.8947 0.141854 0
M  V30 1278 H 119.946 -3.44549 -1.79494 0
M  V30 1279 H 121.618 -4.57942 0.555573 0
M  V30 1280 H 119.861 -4.29751 0.591286 0
M  V30 1281 H 120.532 -5.49549 -0.519603 0
M  V30 1282 H 123.008 -3.86376 -1.54445 0
M  V30 1283 H 121.884 -4.91533 -2.44308 0
M  V30 1284 H 122.145 -3.26396 -2.98191 0
M  V30 1285 N 121.204 0.198386 -1.56346 0
M  V30 1286 C 122.134 1.24865 -1.9731 0
M  V30 1287 C 123.115 1.47651 -0.844576 0
M  V30 1288 O 124.3 1.59444 -1.10866 0
M  V30 1289 C 121.43 2.59358 -2.30977 0
M  V30 1290 C 120.384 2.5119 -3.46537 0
M  V30 1291 C 119.71 3.89926 -3.65871 0
M  V30 1292 C 121.01 2.03977 -4.80823 0
M  V30 1293 H 122.704 0.908252 -2.85291 0
M  V30 1294 H 120.25 0.435462 -1.37258 0
M  V30 1295 H 122.203 3.33011 -2.58228 0
M  V30 1296 H 120.927 2.95132 -1.39874 0
M  V30 1297 H 119.586 1.79993 -3.19371 0
M  V30 1298 H 119.234 4.23046 -2.72105 0
M  V30 1299 H 118.934 3.85336 -4.4361 0
M  V30 1300 H 120.458 4.65205 -3.95495 0
M  V30 1301 H 121.872 2.67386 -5.07127 0
M  V30 1302 H 120.269 2.10397 -5.62008 0
M  V30 1303 H 121.339 0.992861 -4.74626 0
M  V30 1304 N 122.682 1.50554 0.465978 0
M  V30 1305 C 123.93 1.61479 1.21528 0
M  V30 1306 C 124.251 0.319596 1.92363 0
M  V30 1307 O 123.521 -0.663194 1.84333 0
M  V30 1308 H 122.101 0.595055 0.451573 0
M  V30 1309 H 124.763 1.87355 0.53704 0
M  V30 1310 H 123.859 2.42846 1.96042 0
M  V30 1311 N 124.16 -0.719506 1.40217 0
M  V30 1312 C 125.406 -1.48152 1.38488 0
M  V30 1313 C 125.739 -1.94195 -0.0141867 0
M  V30 1314 O 125.014 -1.67884 -0.982096 0
M  V30 1315 C 125.297 -2.71035 2.37091 0
M  V30 1316 C 125.15 -2.30912 3.86005 0
M  V30 1317 C 126.469 -3.73182 2.33288 0
M  V30 1318 H 123.588 -0.537395 0.504357 0
M  V30 1319 H 126.23 -0.821472 1.71324 0
M  V30 1320 H 124.38 -3.27352 2.0922 0
M  V30 1321 H 126.052 -1.80107 4.24687 0
M  V30 1322 H 124.295 -1.62958 4.02029 0
M  V30 1323 H 124.966 -3.18978 4.50508 0
M  V30 1324 H 127.442 -3.26485 2.57966 0
M  V30 1325 H 126.318 -4.56806 3.04334 0
M  V30 1326 H 126.579 -4.21202 1.34317 0
M  V30 1327 N 125.638 -1.25649 -0.95132 0
M  V30 1328 C 126.601 -1.06399 -2.03007 0
M  V30 1329 C 127.601 -0.0156794 -1.60792 0
M  V30 1330 O 128.791 -0.25817 -1.72276 0
M  V30 1331 C 125.923 -0.616184 -3.35285 0
M  V30 1332 H 127.116 -2.02164 -2.21517 0
M  V30 1333 H 124.669 -1.08103 -1.12887 0
M  V30 1334 H 125.404 0.343917 -3.22471 0
M  V30 1335 H 125.189 -1.37301 -3.67275 0
M  V30 1336 H 126.679 -0.503032 -4.14559 0
M  V30 1337 N 127.117 1.15442 -1.07289 0
M  V30 1338 C 128.357 1.8788 -0.805012 0
M  V30 1339 C 128.721 1.80413 0.656907 0
M  V30 1340 O 129.922 2.47874 1.0398 0
M  V30 1341 C 128.193 3.3298 -1.29843 0
M  V30 1342 S 129.752 4.23158 -1.16114 0
M  V30 1343 H 126.57 0.64839 -0.291739 0
M  V30 1344 H 129.172 1.39285 -1.37186 0
M  V30 1345 H 127.876 3.35958 -2.35712 0
M  V30 1346 H 127.407 3.86629 -0.726767 0
M  V30 1347 H 129.422 4.96103 -0.0982778 0
M  V30 1348 N 128.595 0.856903 1.32268 0
M  V30 1349 C 129.82 0.474569 2.01897 0
M  V30 1350 C 130.245 -0.921766 1.63967 0
M  V30 1351 O 129.603 -1.60589 0.84148 0
M  V30 1352 C 129.651 0.623799 3.55164 0
M  V30 1353 O 128.755 -0.342459 4.10976 0
M  V30 1354 H 128.096 0.190422 0.63611 0
M  V30 1355 H 130.626 1.15672 1.68764 0
M  V30 1356 H 130.636 0.512169 4.04773 0
M  V30 1357 H 129.311 1.64202 3.82113 0
M  V30 1358 H 127.888 -0.18688 3.72431 0
M  V30 1359 N 130.073 -1.45103 0.615059 0
M  V30 1360 C 131.036 -2.29025 -0.0895485 0
M  V30 1361 C 132.036 -1.40174 -0.787906 0
M  V30 1362 O 133.226 -1.62217 -0.634933 0
M  V30 1363 C 130.358 -3.21376 -1.13711 0
M  V30 1364 H 131.551 -2.92807 0.648382 0
M  V30 1365 H 129.104 -1.51749 0.374444 0
M  V30 1366 H 129.839 -2.6241 -1.90556 0
M  V30 1367 H 129.624 -3.86834 -0.640475 0
M  V30 1368 H 131.114 -3.84459 -1.63036 0
M  V30 1369 N 131.551 -0.354651 -1.53558 0
M  V30 1370 C 132.8 0.239504 -2.00273 0
M  V30 1371 C 133.113 1.50759 -1.24623 0
M  V30 1372 O 134.319 2.17968 -1.61871 0
M  V30 1373 C 132.775 0.477341 -3.5672 0
M  V30 1374 C 132.383 -0.775488 -4.41237 0
M  V30 1375 C 134.127 1.02975 -4.11821 0
M  V30 1376 C 132.034 -0.507838 -5.89216 0
M  V30 1377 H 130.964 0.0932743 -0.748208 0
M  V30 1378 H 133.615 -0.471701 -1.77334 0
M  V30 1379 H 131.997 1.24953 -3.7577 0
M  V30 1380 H 133.171 -1.54963 -4.33962 0
M  V30 1381 H 131.486 -1.25033 -3.97185 0
M  V30 1382 H 134.083 1.24513 -5.2 0
M  V30 1383 H 134.426 1.98862 -3.65731 0
M  V30 1384 H 134.959 0.317994 -3.96527 0
M  V30 1385 H 131.698 -1.43674 -6.39561 0
M  V30 1386 H 131.218 0.228011 -5.99366 0
M  V30 1387 H 132.897 -0.129238 -6.46871 0
M  V30 1388 N 133.029 1.57378 -0.0835403 0
M  V30 1389 C 133.959 2.1641 0.87686 0
M  V30 1390 C 134.94 1.09429 1.30228 0
M  V30 1391 O 136.125 1.37516 1.37124 0
M  V30 1392 C 133.255 2.73517 2.14022 0
M  V30 1393 C 132.209 3.85769 1.85381 0
M  V30 1394 C 131.535 4.29529 3.18448 0
M  V30 1395 C 132.835 5.09486 1.14984 0
M  V30 1396 H 134.529 2.96914 0.385059 0
M  V30 1397 H 132.075 1.42823 0.18377 0
M  V30 1398 H 134.028 3.13463 2.81636 0
M  V30 1399 H 132.752 1.90252 2.65465 0
M  V30 1400 H 131.411 3.46345 1.20169 0
M  V30 1401 H 131.059 3.43169 3.67755 0
M  V30 1402 H 130.759 5.05204 3.00071 0
M  V30 1403 H 132.283 4.72099 3.8724 0
M  V30 1404 H 133.697 5.46674 1.72687 0
M  V30 1405 H 132.094 5.90515 1.06826 0
M  V30 1406 H 133.164 4.84724 0.130749 0
M  V30 1407 N 134.507 -0.190092 1.56449 0
M  V30 1408 C 135.44 -1.26375 1.90012 0
M  V30 1409 C 136.418 -1.43705 0.760765 0
M  V30 1410 O 137.602 -1.59014 1.01226 0
M  V30 1411 C 134.729 -2.62962 2.13468 0
M  V30 1412 C 133.775 -2.62474 3.36169 0
M  V30 1413 S 134.608 -2.13412 4.91137 0
M  V30 1414 C 135.764 -3.51812 5.17667 0
M  V30 1415 H 135.997 -0.977181 2.80782 0
M  V30 1416 H 133.53 -0.393814 1.49293 0
M  V30 1417 H 135.488 -3.41583 2.27664 0
M  V30 1418 H 134.149 -2.88828 1.23439 0
M  V30 1419 H 133.342 -3.62918 3.49723 0
M  V30 1420 H 132.944 -1.91937 3.20992 0
M  V30 1421 H 135.236 -4.47706 5.08494 0
M  V30 1422 H 136.179 -3.43148 6.19399 0
M  V30 1423 H 136.587 -3.46956 4.45288 0
M  V30 1424 N 135.985 -1.50799 -0.457987 0
M  V30 1425 C 137.215 -1.65977 -1.23025 0
M  V30 1426 C 137.623 -0.347918 -1.85974 0
M  V30 1427 O 136.966 0.68148 -1.70592 0
M  V30 1428 C 137.028 -2.70309 -2.3701 0
M  V30 1429 C 136.692 -4.135 -1.94594 0
M  V30 1430 C 137.689 -4.98949 -1.46101 0
M  V30 1431 C 135.374 -4.5949 -2.02915 0
M  V30 1432 C 137.368 -6.28442 -1.06489 0
M  V30 1433 C 135.055 -5.88984 -1.62914 0
M  V30 1434 C 136.053 -6.73286 -1.1478 0
M  V30 1435 O 135.741 -8.00362 -0.75339 0
M  V30 1436 H 135.473 -0.56064 -0.377702 0
M  V30 1437 H 138.027 -1.97857 -0.551537 0
M  V30 1438 H 136.257 -2.337 -3.08093 0
M  V30 1439 H 137.946 -2.74574 -2.98938 0
M  V30 1440 H 138.712 -4.6463 -1.39084 0
M  V30 1441 H 134.591 -3.94009 -2.39328 0
M  V30 1442 H 138.135 -6.94194 -0.688488 0
M  V30 1443 H 134.032 -6.22822 -1.69595 0
M  V30 1444 H 134.8 -8.13744 -0.88108 0
M  V30 1445 N 137.463 0.71206 -1.40597 0
M  V30 1446 C 138.712 1.46754 -1.38369 0
M  V30 1447 C 139.025 1.95598 0.0097839 0
M  V30 1448 O 140.231 2.71059 0.154677 0
M  V30 1449 C 138.687 2.65289 -2.43207 0
M  V30 1450 C 138.295 2.23301 -3.88382 0
M  V30 1451 C 140.039 3.43008 -2.50091 0
M  V30 1452 C 137.946 3.38696 -4.84808 0
M  V30 1453 H 136.876 0.55118 -0.514506 0
M  V30 1454 H 139.527 0.774616 -1.66349 0
M  V30 1455 H 137.909 3.36769 -2.08332 0
M  V30 1456 H 139.083 1.59218 -4.32419 0
M  V30 1457 H 137.398 1.58618 -3.85006 0
M  V30 1458 H 139.995 4.28881 -3.1932 0
M  V30 1459 H 140.338 3.87065 -1.53253 0
M  V30 1460 H 140.871 2.78574 -2.83974 0
M  V30 1461 H 137.61 2.99668 -5.82992 0
M  V30 1462 H 137.13 4.01683 -4.45433 0
M  V30 1463 H 138.809 4.04712 -5.04794 0
M  V30 1464 N 138.941 1.26152 0.944643 0
M  V30 1465 C 140.188 1.11492 1.69044 0
M  V30 1466 C 140.516 -0.342366 1.91463 0
M  V30 1467 O 139.771 -1.26812 1.49054 0
M  V30 1468 C 140.07 1.82541 3.07268 0
M  V30 1469 C 139.736 3.32445 3.04616 0
M  V30 1470 C 138.398 3.73337 3.036 0
M  V30 1471 C 140.75 4.28171 2.97185 0
M  V30 1472 C 138.078 5.08348 2.92915 0
M  V30 1473 C 140.43 5.63218 2.88041 0
M  V30 1474 C 139.094 6.03426 2.85366 0
M  V30 1475 H 138.364 0.407977 0.618576 0
M  V30 1476 H 141.011 1.56551 1.10291 0
M  V30 1477 H 139.316 1.29941 3.69625 0
M  V30 1478 H 141.013 1.68642 3.63815 0
M  V30 1479 H 137.603 2.99915 3.06185 0
M  V30 1480 H 141.787 3.97563 2.97081 0
M  V30 1481 H 137.043 5.38667 2.89219 0
M  V30 1482 H 141.217 6.37078 2.81254 0
M  V30 1483 H 138.844 7.07999 2.76842 0
M  V30 1484 N 140.419 -1.14872 1.07899 0
M  V30 1485 C 141.659 -1.8745 0.814965 0
M  V30 1486 C 142.023 -1.80758 -0.64733 0
M  V30 1487 O 143.224 -2.48422 -1.02664 0
M  V30 1488 C 141.495 -3.32286 1.31607 0
M  V30 1489 S 143.054 -4.22537 1.18357 0
M  V30 1490 H 139.872 -0.646833 0.295174 0
M  V30 1491 H 142.474 -1.38555 1.37923 0
M  V30 1492 H 141.178 -3.34703 2.37491 0
M  V30 1493 H 140.709 -3.86238 0.747261 0
M  V30 1494 H 142.724 -4.96044 0.124586 0
M  V30 1495 N 141.898 -0.863906 -1.31812 0
M  V30 1496 C 143.126 -0.486111 -2.01108 0
M  V30 1497 C 143.541 0.919755 -1.64882 0
M  V30 1498 O 142.898 1.60162 -0.874893 0
M  V30 1499 C 142.949 -0.626435 -3.56031 0
M  V30 1500 O 142.67 -1.97693 -3.90959 0
M  V30 1501 C 144.171 -0.248857 -4.42601 0
M  V30 1502 H 141.391 -0.190052 -0.643523 0
M  V30 1503 H 143.935 -1.1634 -1.68182 0
M  V30 1504 H 142.09 0.00322717 -3.874 0
M  V30 1505 H 142.504 -1.98034 -4.85678 0
M  V30 1506 H 143.978 -0.398016 -5.50563 0
M  V30 1507 H 144.455 0.811489 -4.31638 0
M  V30 1508 H 145.061 -0.853971 -4.16638 0
M  V30 1509 N 143.376 1.44774 -0.622745 0
M  V30 1510 C 144.653 1.95522 -0.0551974 0
M  V30 1511 C 145.033 1.5649 1.41683 0
M  V30 1512 O 144.381 0.834848 2.12703 0
M  V30 1513 C 144.591 3.4796 -0.269242 0
M  V30 1514 C 145.939 4.24306 -0.158014 0
M  V30 1515 O 146.963 3.55637 -0.200162 0
M  V30 1516 O 145.822 5.46471 -0.0558693 0
M  V30 1517 H 142.916 0.826556 0.0271015 0
M  V30 1518 H 145.462 1.54866 -0.693864 0
M  V30 1519 H 144.234 3.6939 -1.29099 0
M  V30 1520 H 143.857 3.95543 0.403966 0
M  V30 1521 N 144.854 0.36279 1.53368 0
M  V30 1522 C 146.094 -0.227882 2.03126 0
M  V30 1523 C 146.458 -1.4622 1.24434 0
M  V30 1524 O 147.659 -2.12831 1.64184 0
M  V30 1525 C 145.93 -0.515427 3.53664 0
M  V30 1526 S 147.489 -1.08017 4.25297 0
M  V30 1527 H 144.307 -0.0665377 0.70788 0
M  V30 1528 H 146.909 0.50501 1.88865 0
M  V30 1529 H 145.613 0.390436 4.08539 0
M  V30 1530 H 145.144 -1.27747 3.72081 0
M  V30 1531 H 147.159 -2.36462 4.36234 0
M  V30 1532 N 146.332 -1.57332 0.0918853 0
M  V30 1533 C 147.578 -1.95328 -0.567313 0
M  V30 1534 C 147.933 -0.972866 -1.65991 0
M  V30 1535 O 147.226 0.00166256 -1.916 0
M  V30 1536 C 147.42 -3.37689 -1.17051 0
M  V30 1537 C 147.249 -4.49489 -0.137875 0
M  V30 1538 C 146.019 -5.04498 0.284515 0
M  V30 1539 C 148.217 -5.10393 0.63271 0
M  V30 1540 N 146.199 -5.99853 1.30576 0
M  V30 1541 C 147.57 -6.01435 1.50587 0
M  V30 1542 C 149.625 -4.93143 0.68658 0
M  V30 1543 C 148.328 -6.77077 2.42815 0
M  V30 1544 C 150.354 -5.69445 1.59645 0
M  V30 1545 C 149.716 -6.60151 2.45725 0
M  V30 1546 H 145.815 -0.761467 -0.178023 0
M  V30 1547 H 148.399 -1.93924 0.173706 0
M  V30 1548 H 146.57 -3.39793 -1.88136 0
M  V30 1549 H 148.302 -3.62872 -1.79181 0
M  V30 1550 H 145.057 -4.73489 -0.102593 0
M  V30 1551 H 145.481 -6.52231 1.81449 0
M  V30 1552 H 150.123 -4.22785 0.035244 0
M  V30 1553 H 147.841 -7.46699 3.08975 0
M  V30 1554 H 151.427 -5.58112 1.64323 0
M  V30 1555 H 150.307 -7.18159 3.14987 0
M  V30 1556 N 147.81 0.181792 -1.56548 0
M  V30 1557 C 148.74 1.22765 -1.98623 0
M  V30 1558 C 149.721 1.46747 -0.860189 0
M  V30 1559 O 150.906 1.58259 -1.12551 0
M  V30 1560 C 148.036 2.56894 -2.33715 0
M  V30 1561 C 146.99 2.475 -3.49182 0
M  V30 1562 C 146.316 3.86023 -3.69986 0
M  V30 1563 C 147.616 1.98866 -4.82959 0
M  V30 1564 H 149.31 0.877942 -2.86239 0
M  V30 1565 H 146.856 0.42088 -1.37712 0
M  V30 1566 H 148.809 3.30253 -2.61746 0
M  V30 1567 H 147.533 2.93632 -1.42997 0
M  V30 1568 H 146.192 1.76596 -3.21262 0
M  V30 1569 H 145.84 4.20136 -2.76576 0
M  V30 1570 H 145.54 3.80609 -4.47672 0
M  V30 1571 H 147.064 4.60984 -4.00407 0
M  V30 1572 H 148.478 2.61992 -5.09934 0
M  V30 1573 H 146.875 2.04424 -5.64208 0
M  V30 1574 H 147.945 0.942465 -4.75653 0
M  V30 1575 N 149.288 1.51039 0.449983 0
M  V30 1576 C 150.537 1.62317 1.19733 0
M  V30 1577 C 150.85 0.339101 1.92638 0
M  V30 1578 O 152.056 0.331069 2.69474 0
M  V30 1579 C 150.512 2.86608 2.17678 0
M  V30 1580 C 150.12 4.21972 1.50479 0
M  V30 1581 C 151.864 3.07239 2.92924 0
M  V30 1582 C 149.771 5.37426 2.46834 0
M  V30 1583 H 148.701 0.604532 0.450619 0
M  V30 1584 H 151.352 1.77494 0.465625 0
M  V30 1585 H 149.734 2.65037 2.94231 0
M  V30 1586 H 150.908 4.53878 0.795716 0
M  V30 1587 H 149.223 4.07117 0.874344 0
M  V30 1588 H 151.82 3.90668 3.65079 0
M  V30 1589 H 152.163 2.19807 3.5354 0
M  V30 1590 H 152.696 3.29091 2.23481 0
M  V30 1591 H 149.435 6.27079 1.90926 0
M  V30 1592 H 148.955 5.09912 3.15832 0
M  V30 1593 H 150.634 5.68862 3.08228 0
M  V30 1594 N 150.766 -0.704594 1.40972 0
M  V30 1595 C 151.729 -1.80035 1.41845 0
M  V30 1596 C 152.729 -1.57774 0.310474 0
M  V30 1597 O 153.919 -1.64613 0.56992 0
M  V30 1598 C 151.051 -3.18284 1.22098 0
M  V30 1599 H 152.244 -1.80658 2.3938 0
M  V30 1600 H 149.797 -0.911329 1.26982 0
M  V30 1601 H 150.532 -3.23306 0.253672 0
M  V30 1602 H 150.317 -3.35843 2.02366 0
M  V30 1603 H 151.807 -3.98289 1.25522 0
M  V30 1604 N 152.244 -1.26651 -0.937939 0
M  V30 1605 C 153.49 -1.12553 -1.687 0
M  V30 1606 C 153.823 0.329782 -1.91379 0
M  V30 1607 O 153.098 1.24202 -1.4968 0
M  V30 1608 C 153.381 -1.89862 -3.05981 0
M  V30 1609 C 153.234 -3.43318 -2.90607 0
M  V30 1610 C 154.553 -1.69499 -4.0615 0
M  V30 1611 H 151.672 -0.410257 -0.612257 0
M  V30 1612 H 154.314 -1.55685 -1.08913 0
M  V30 1613 H 152.464 -1.53204 -3.57017 0
M  V30 1614 H 154.136 -3.89747 -2.46769 0
M  V30 1615 H 152.379 -3.70179 -2.26164 0
M  V30 1616 H 153.05 -3.92642 -3.8799 0
M  V30 1617 H 155.526 -2.01442 -3.64088 0
M  V30 1618 H 154.402 -2.26002 -5.00214 0
M  V30 1619 H 154.663 -0.640365 -4.37438 0
M  V30 1620 N 153.722 1.14298 -1.08507 0
M  V30 1621 C 154.652 2.21542 -0.737646 0
M  V30 1622 C 155.633 1.67773 0.280377 0
M  V30 1623 O 156.818 1.93616 0.150521 0
M  V30 1624 C 153.948 3.46988 -0.147259 0
M  V30 1625 C 152.902 4.13789 -1.09374 0
M  V30 1626 C 152.228 5.33449 -0.365524 0
M  V30 1627 C 153.528 4.62208 -2.4323 0
M  V30 1628 H 155.222 2.5086 -1.6343 0
M  V30 1629 H 152.768 1.20576 -0.787243 0
M  V30 1630 H 154.721 4.21262 0.107808 0
M  V30 1631 H 153.445 3.17037 0.784538 0
M  V30 1632 H 152.104 3.4147 -1.33393 0
M  V30 1633 H 151.752 4.99759 0.57011 0
M  V30 1634 H 151.452 5.79088 -0.996512 0
M  V30 1635 H 152.976 6.10485 -0.118534 0
M  V30 1636 H 154.39 5.27952 -2.23472 0
M  V30 1637 H 152.787 5.18553 -3.02031 0
M  V30 1638 H 153.857 3.77224 -3.04681 0
M  V30 1639 N 155.201 0.870884 1.31352 0
M  V30 1640 C 156.431 0.496049 2.00557 0
M  V30 1641 C 156.839 -0.916241 1.65534 0
M  V30 1642 O 156.182 -1.61188 0.881134 0
M  V30 1643 C 156.244 0.574418 3.54881 0
M  V30 1644 C 155.908 1.94849 4.1338 0
M  V30 1645 C 156.905 2.91611 4.30417 0
M  V30 1646 C 154.59 2.25005 4.49086 0
M  V30 1647 C 156.584 4.16672 4.82352 0
M  V30 1648 C 154.271 3.50315 5.00722 0
M  V30 1649 C 155.269 4.45964 5.17306 0
M  V30 1650 O 154.957 5.69052 5.67833 0
M  V30 1651 H 154.689 0.191664 0.64826 0
M  V30 1652 H 157.243 1.17409 1.68536 0
M  V30 1653 H 155.473 -0.160549 3.86367 0
M  V30 1654 H 157.162 0.212879 4.05341 0
M  V30 1655 H 157.928 2.69622 4.03149 0
M  V30 1656 H 153.807 1.51332 4.35453 0
M  V30 1657 H 157.351 4.91336 4.95211 0
M  V30 1658 H 153.248 3.72147 5.27424 0
M  V30 1659 H 154.016 5.71236 5.86201 0
M  V30 1660 N 156.679 -1.44442 0.630414 0
M  V30 1661 C 157.926 -2.02052 0.134617 0
M  V30 1662 C 158.254 -1.49576 -1.24327 0
M  V30 1663 O 157.509 -0.669806 -1.83881 0
M  V30 1664 C 157.808 -3.57332 0.0697835 0
M  V30 1665 C 157.474 -4.29058 1.38635 0
M  V30 1666 C 156.136 -4.4837 1.74694 0
M  V30 1667 C 158.488 -4.69872 2.25543 0
M  V30 1668 C 155.816 -5.05756 2.97369 0
M  V30 1669 C 158.168 -5.28616 3.47487 0
M  V30 1670 C 156.832 -5.46147 3.8377 0
M  V30 1671 H 156.102 -0.739361 0.0492598 0
M  V30 1672 H 158.749 -1.73217 0.816586 0
M  V30 1673 H 157.054 -3.85577 -0.695553 0
M  V30 1674 H 158.751 -3.99637 -0.330344 0
M  V30 1675 H 155.341 -4.14357 1.09574 0
M  V30 1676 H 159.525 -4.54666 1.98979 0
M  V30 1677 H 154.781 -5.17515 3.25558 0
M  V30 1678 H 158.955 -5.59192 4.15063 0
M  V30 1679 H 156.582 -5.9038 4.7891 0
M  V30 1680 N 158.157 -0.370918 -1.53173 0
M  V30 1681 C 159.385 0.217704 -2.05751 0
M  V30 1682 C 159.8 1.42018 -1.24404 0
M  V30 1683 O 159.157 1.80245 -0.286033 0
M  V30 1684 C 159.208 0.605954 -3.56385 0
M  V30 1685 O 158.929 -0.548734 -4.3465 0
M  V30 1686 C 160.43 1.2524 -4.25241 0
M  V30 1687 H 157.65 0.0371659 -0.66997 0
M  V30 1688 H 160.194 -0.530832 -1.9749 0
M  V30 1689 H 158.349 1.3044 -3.6478 0
M  V30 1690 H 158.763 -0.23376 -5.23979 0
M  V30 1691 H 160.237 1.47458 -5.3194 0
M  V30 1692 H 160.714 2.2143 -3.79296 0
M  V30 1693 H 161.32 0.595233 -4.21114 0
M  V30 1694 N 159.635 1.57281 -0.100228 0
M  V30 1695 C 160.881 1.95626 0.556946 0
M  V30 1696 C 161.236 0.981655 1.65473 0
M  V30 1697 O 160.529 0.00849847 1.91598 0
M  V30 1698 C 160.723 3.38305 1.15259 0
M  V30 1699 C 160.552 4.49555 0.114035 0
M  V30 1700 C 159.322 5.0434 -0.311266 0
M  V30 1701 C 161.52 5.10051 -0.659768 0
M  V30 1702 N 159.502 5.99152 -1.33755 0
M  V30 1703 C 160.873 6.00628 -1.53774 0
M  V30 1704 C 162.928 4.92772 -0.712723 0
M  V30 1705 C 161.631 6.7578 -2.46403 0
M  V30 1706 C 163.657 5.6859 -1.62663 0
M  V30 1707 C 163.019 6.58838 -2.49222 0
M  V30 1708 H 159.118 0.7624 0.173982 0
M  V30 1709 H 161.702 1.93829 -0.183988 0
M  V30 1710 H 159.873 3.40786 1.86332 0
M  V30 1711 H 161.605 3.63817 1.77254 0
M  V30 1712 H 158.36 4.73537 0.0774812 0
M  V30 1713 H 158.784 6.5126 -1.84905 0
M  V30 1714 H 163.426 4.22761 -0.0576648 0
M  V30 1715 H 161.144 7.4505 -3.12931 0
M  V30 1716 H 164.73 5.57233 -1.67281 0
M  V30 1717 H 163.61 7.16479 -3.18791 0
M  V30 1718 N 161.113 -0.173488 1.56642 0
M  V30 1719 C 162.043 -1.2171 1.99271 0
M  V30 1720 C 163.024 -1.46289 0.867959 0
M  V30 1721 O 164.209 -1.5766 1.13388 0
M  V30 1722 C 161.339 -2.55651 2.35074 0
M  V30 1723 C 160.293 -2.45645 3.50489 0
M  V30 1724 C 159.619 -3.84056 3.72028 0
M  V30 1725 C 160.919 -1.96302 4.84007 0
M  V30 1726 H 162.613 -0.86275 2.867 0
M  V30 1727 H 160.159 -0.413571 1.37933 0
M  V30 1728 H 162.112 -3.2886 2.63494 0
M  V30 1729 H 160.836 -2.92869 1.44552 0
M  V30 1730 H 159.495 -1.7489 3.22194 0
M  V30 1731 H 159.143 -4.18664 2.788 0
M  V30 1732 H 158.843 -3.7823 4.49684 0
M  V30 1733 H 160.367 -4.58854 4.02846 0
M  V30 1734 H 161.781 -2.59284 5.11317 0
M  V30 1735 H 160.178 -2.01429 5.65284 0
M  V30 1736 H 161.248 -0.917226 4.76146 0
M  V30 1737 N 162.591 -1.51276 -0.441967 0
M  V30 1738 C 163.837 -1.63958 -1.19355 0
M  V30 1739 C 164.17 -0.352543 -1.90973 0
M  V30 1740 O 163.445 0.647627 -1.83401 0
M  V30 1741 C 163.728 -2.83979 -2.21422 0
M  V30 1742 C 163.581 -4.22646 -1.53918 0
M  V30 1743 C 164.9 -2.99521 -3.22451 0
M  V30 1744 H 162.019 -0.596709 -0.432559 0
M  V30 1745 H 164.661 -1.83748 -0.483398 0
M  V30 1746 H 162.811 -2.67237 -2.81987 0
M  V30 1747 H 164.483 -4.51045 -0.967256 0
M  V30 1748 H 162.726 -4.25558 -0.841615 0
M  V30 1749 H 163.397 -5.02609 -2.28229 0
M  V30 1750 H 165.873 -3.14944 -2.71937 0
M  V30 1751 H 164.749 -3.85072 -3.91166 0
M  V30 1752 H 165.01 -2.11391 -3.88287 0
M  V30 1753 N 164.069 0.697108 -1.41344 0
M  V30 1754 C 165.316 1.45714 -1.40619 0
M  V30 1755 C 165.644 1.94494 -0.0147907 0
M  V30 1756 O 164.899 1.69794 0.973066 0
M  V30 1757 C 165.198 2.68553 -2.35826 0
M  V30 1758 C 164.864 2.38438 -3.82698 0
M  V30 1759 C 163.526 2.29936 -4.22709 0
M  V30 1760 C 165.878 2.13567 -4.75435 0
M  V30 1761 C 163.206 1.94656 -5.53467 0
M  V30 1762 C 165.558 1.79797 -6.06511 0
M  V30 1763 C 164.222 1.69789 -6.45545 0
M  V30 1764 H 163.492 0.533206 -0.51456 0
M  V30 1765 H 166.139 0.796901 -1.74131 0
M  V30 1766 H 164.444 3.39503 -1.95563 0
M  V30 1767 H 166.141 3.2669 -2.32539 0
M  V30 1768 H 162.731 2.4595 -3.51008 0
M  V30 1769 H 166.915 2.19082 -4.45328 0
M  V30 1770 H 162.171 1.8546 -5.82593 0
M  V30 1771 H 166.345 1.59572 -6.77872 0
M  V30 1772 H 163.972 1.4222 -7.46778 0
M  V30 1773 N 165.547 1.27147 0.931209 0
M  V30 1774 C 166.824 1.0401 1.65654 0
M  V30 1775 C 167.204 -0.426297 2.06751 0
M  V30 1776 O 166.552 -1.40879 1.79904 0
M  V30 1777 C 166.762 1.99834 2.86125 0
M  V30 1778 C 168.11 2.29007 3.57549 0
M  V30 1779 O 169.134 1.97779 2.96246 0
M  V30 1780 O 167.993 2.82222 4.67989 0
M  V30 1781 H 165.087 0.396239 0.725895 0
M  V30 1782 H 167.633 1.38397 0.982056 0
M  V30 1783 H 166.405 2.98744 2.52721 0
M  V30 1784 H 166.028 1.65987 3.61295 0
M  V30 1785 N 167.025 -1.13721 1.09112 0
M  V30 1786 C 168.271 -1.85413 0.836283 0
M  V30 1787 C 168.626 -1.8175 -0.631249 0
M  V30 1788 O 167.919 -1.24238 -1.45861 0
M  V30 1789 C 168.113 -3.32861 1.30146 0
M  V30 1790 C 167.942 -3.50882 2.81268 0
M  V30 1791 C 166.712 -3.65312 3.49106 0
M  V30 1792 C 168.91 -3.47196 3.7942 0
M  V30 1793 N 166.892 -3.71563 4.88686 0
M  V30 1794 C 168.263 -3.59777 5.04936 0
M  V30 1795 C 170.318 -3.30577 3.72321 0
M  V30 1796 C 169.021 -3.57455 6.24194 0
M  V30 1797 C 171.047 -3.29562 4.91063 0
M  V30 1798 C 170.409 -3.42691 6.15421 0
M  V30 1799 H 166.508 -0.694812 0.358832 0
M  V30 1800 H 169.092 -1.36246 1.39087 0
M  V30 1801 H 167.263 -3.80602 0.774361 0
M  V30 1802 H 168.995 -3.92346 0.99229 0
M  V30 1803 H 165.75 -3.6685 2.9953 0
M  V30 1804 H 166.174 -3.78387 5.61384 0
M  V30 1805 H 170.816 -3.19332 2.77105 0
M  V30 1806 H 168.534 -3.67475 7.19714 0
M  V30 1807 H 172.12 -3.17905 4.87266 0
M  V30 1808 H 171 -3.41862 7.05762 0
M  V30 1809 N 168.503 -0.877838 -1.30888 0
M  V30 1810 C 169.451 -0.328662 -2.30266 0
M  V30 1811 C 170.445 0.560496 -1.59859 0
M  V30 1812 O 171.651 0.445722 -1.74394 0
M  V30 1813 H 168.026 -0.0876142 -0.746879 0
M  V30 1814 H 169.997 -1.18061 -2.74051 0
M  V30 1815 C 168.746 0.448071 -3.44801 0
M  V30 1816 H 168.069 -0.226859 -3.99156 0
M  V30 1817 H 169.509 0.797541 -4.16432 0
M  V30 1818 C 167.968 1.64239 -2.94155 0
M  V30 1819 O 168.498 2.74175 -2.93583 0
M  V30 1820 N 166.704 1.47716 -2.50256 0
M  V30 1821 H 166.251 0.582821 -2.5092 0
M  V30 1822 H 166.209 2.27765 -2.16727 0
M  V30 1823 N 169.982 1.44106 -0.638065 0
M  V30 1824 C 171.21 2.06336 -0.152615 0
M  V30 1825 C 171.625 1.47731 1.17563 0
M  V30 1826 O 170.982 0.602806 1.72257 0
M  V30 1827 C 171.033 3.61479 -0.0391491 0
M  V30 1828 O 170.754 4.17903 -1.31487 0
M  V30 1829 C 172.255 4.40757 0.474176 0
M  V30 1830 H 169.475 0.665862 -0.0828776 0
M  V30 1831 H 172.019 1.84862 -0.87443 0
M  V30 1832 H 170.174 3.82191 0.633142 0
M  V30 1833 H 170.588 5.11416 -1.16421 0
M  V30 1834 H 172.062 5.49707 0.502562 0
M  V30 1835 H 172.539 4.12697 1.50258 0
M  V30 1836 H 173.145 4.24979 -0.165102 0
M  V30 1837 N 171.46 0.379036 1.52974 0
M  V30 1838 C 172.871 -0.0972525 1.86447 0
M  V30 1839 C 173.222 -1.47027 1.29914 0
M  V30 1840 O 172.347 -2.07135 0.626433 0
M  V30 1841 C 172.942 -0.183248 3.38304 0
M  V30 1842 C 171.501 -0.603812 3.71525 0
M  V30 1843 C 170.648 0.240632 2.76254 0
M  V30 1844 H 173.599 0.597316 1.4703 0
M  V30 1845 H 173.62 -1.00432 3.67006 0
M  V30 1846 H 173.132 0.816191 3.79421 0
M  V30 1847 H 171.233 -1.61099 3.35973 0
M  V30 1848 H 171.346 -0.369086 4.77676 0
M  V30 1849 H 169.71 -0.292548 2.53014 0
M  V30 1850 H 170.493 1.23786 3.20206 0
M  V30 1851 N 172.938 -1.57226 0.108567 0
M  V30 1852 C 173.885 -2.14756 -0.845481 0
M  V30 1853 C 174.855 -1.06971 -1.27068 0
M  V30 1854 O 176.04 -1.34827 -1.35005 0
M  V30 1855 C 173.18 -2.74298 -2.09415 0
M  V30 1856 C 172.293 -3.96358 -1.71826 0
M  V30 1857 C 171.428 -4.44021 -2.9158 0
M  V30 1858 C 170.467 -5.58637 -2.50181 0
M  V30 1859 N 169.604 -6.01091 -3.62814 0
M  V30 1860 H 174.444 -2.95961 -0.348035 0
M  V30 1861 H 171.981 -1.46226 -0.160106 0
M  V30 1862 H 173.939 -3.06945 -2.82561 0
M  V30 1863 H 172.569 -1.95801 -2.56636 0
M  V30 1864 H 171.621 -3.69939 -0.885947 0
M  V30 1865 H 172.933 -4.79504 -1.37394 0
M  V30 1866 H 172.087 -4.78522 -3.72963 0
M  V30 1867 H 170.826 -3.59803 -3.29231 0
M  V30 1868 H 169.831 -5.23751 -1.67228 0
M  V30 1869 H 171.056 -6.44613 -2.13659 0
M  V30 1870 H 169.002 -5.19817 -4.00158 0
M  V30 1871 H 168.919 -6.79066 -3.32273 0
M  V30 1872 H 170.187 -6.40227 -4.44668 0
M  V30 1873 N 174.416 0.165178 -1.56732 0
M  V30 1874 C 175.363 1.2044 -1.96883 0
M  V30 1875 C 176.333 1.43664 -0.833657 0
M  V30 1876 O 177.518 1.56302 -1.09427 0
M  V30 1877 C 174.658 2.53727 -2.33916 0
M  V30 1878 C 173.771 2.3783 -3.6064 0
M  V30 1879 C 172.906 3.64026 -3.86857 0
M  V30 1880 C 171.945 3.43088 -5.06909 0
M  V30 1881 N 171.082 4.61369 -5.29229 0
M  V30 1882 H 175.922 0.854996 -2.85471 0
M  V30 1883 H 173.459 0.41076 -1.41249 0
M  V30 1884 H 175.417 3.31419 -2.53411 0
M  V30 1885 H 174.047 2.8665 -1.48431 0
M  V30 1886 H 173.099 1.51282 -3.49024 0
M  V30 1887 H 174.411 2.18308 -4.4849 0
M  V30 1888 H 173.565 4.50152 -4.06753 0
M  V30 1889 H 172.304 3.86533 -2.97394 0
M  V30 1890 H 171.309 2.55349 -4.86906 0
M  V30 1891 H 172.534 3.21997 -5.97909 0
M  V30 1892 H 170.48 4.84084 -4.42718 0
M  V30 1893 H 170.397 4.44783 -6.11313 0
M  V30 1894 H 171.665 5.48761 -5.53608 0
M  V30 1895 N 175.894 1.51508 0.433938 0
M  V30 1896 C 177.142 1.6402 1.18075 0
M  V30 1897 C 177.463 0.360328 1.91642 0
M  V30 1898 O 176.733 -0.623945 1.85698 0
M  V30 1899 H 175.313 0.6045 0.43885 0
M  V30 1900 H 177.975 1.88452 0.497178 0
M  V30 1901 H 177.071 2.46949 1.90847 0
M  V30 1902 N 177.372 -0.689602 1.41712 0
M  V30 1903 C 178.62 -1.4468 1.4111 0
M  V30 1904 C 178.941 -1.94986 0.0232196 0
M  V30 1905 O 178.211 -1.72097 -0.935913 0
M  V30 1906 H 176.791 -0.536847 0.519427 0
M  V30 1907 H 179.453 -0.815825 1.77004 0
M  V30 1908 H 178.549 -2.30706 2.10193 0
M  V30 1909 N 178.85 -1.27639 -0.924453 0
M  V30 1910 C 180.266 -1.05113 -1.20097 0
M  V30 1911 C 180.466 0.213262 -2.00368 0
M  V30 1912 O 179.522 0.91787 -2.35226 0
M  V30 1913 C 180.835 -2.29244 -1.94596 0
M  V30 1914 C 182.383 -2.34315 -2.07522 0
M  V30 1915 C 182.858 -3.58183 -2.85427 0
M  V30 1916 N 184.349 -3.5876 -2.92994 0
M  V30 1917 C 185.084 -4.51277 -3.53746 0
M  V30 1918 N 184.58 -5.54102 -4.15863 0
M  V30 1919 N 186.373 -4.38894 -3.51181 0
M  V30 1920 H 178.524 -2.08821 -0.388264 0
M  V30 1921 H 180.787 -0.918568 -0.234385 0
M  V30 1922 H 180.493 -3.21301 -1.43034 0
M  V30 1923 H 180.367 -2.34816 -2.95197 0
M  V30 1924 H 182.754 -1.42762 -2.58269 0
M  V30 1925 H 182.835 -2.32744 -1.06131 0
M  V30 1926 H 182.479 -4.50074 -2.35363 0
M  V30 1927 H 182.409 -3.57006 -3.8711 0
M  V30 1928 H 184.9 -2.84398 -2.4885 0
M  V30 1929 H 185.213 -6.20859 -4.60168 0
M  V30 1930 H 183.558 -5.57941 -4.144 0
M  V30 1931 H 186.749 -3.57772 -3.01856 0
M  V30 1932 H 186.922 -5.11186 -3.98237 0
M  V30 1933 N 180.328 1.1314 -1.09713 0
M  V30 1934 C 181.744 1.36477 -0.827423 0
M  V30 1935 C 181.944 1.93654 0.556817 0
M  V30 1936 O 181 2.15791 1.31112 0
M  V30 1937 C 182.313 2.31334 -1.92106 0
M  V30 1938 C 183.861 2.44943 -1.94864 0
M  V30 1939 C 184.336 3.4311 -3.0338 0
M  V30 1940 N 185.827 3.50662 -3.02639 0
M  V30 1941 C 186.562 4.2651 -3.83246 0
M  V30 1942 N 186.058 5.05485 -4.73768 0
M  V30 1943 N 187.851 4.2184 -3.71493 0
M  V30 1944 H 180.002 0.743807 -1.9895 0
M  V30 1945 H 182.265 0.389823 -0.864143 0
M  V30 1946 H 181.971 1.96483 -2.91698 0
M  V30 1947 H 181.845 3.31381 -1.80184 0
M  V30 1948 H 184.232 2.79079 -0.959099 0
M  V30 1949 H 184.313 1.4481 -2.10864 0
M  V30 1950 H 183.957 3.09704 -4.02549 0
M  V30 1951 H 183.887 4.43055 -2.84622 0
M  V30 1952 H 186.378 2.94315 -2.37039 0
M  V30 1953 H 186.691 5.60675 -5.3185 0
M  V30 1954 H 185.036 5.04708 -4.77802 0
M  V30 1955 H 188.227 3.5922 -3.00131 0
M  V30 1956 H 188.4 4.80697 -4.3455 0
M  V30 1957 N 181.806 0.884767 1.30421 0
M  V30 1958 C 183.031 0.517288 2.00845 0
M  V30 1959 C 183.456 -0.886779 1.65885 0
M  V30 1960 O 182.814 -1.58768 0.875354 0
M  V30 1961 C 182.862 0.698994 3.5376 0
M  V30 1962 O 181.966 -0.255208 4.1161 0
M  V30 1963 H 181.307 0.203872 0.631927 0
M  V30 1964 H 183.837 1.19225 1.66272 0
M  V30 1965 H 183.847 0.597912 4.03595 0
M  V30 1966 H 182.522 1.72271 3.78544 0
M  V30 1967 H 181.099 -0.10784 3.72744 0
M  V30 1968 N 183.284 -1.43765 0.645699 0
M  V30 1969 C 184.216 -2.29027 -0.0890605 0
M  V30 1970 C 185.229 -1.42093 -0.794563 0
M  V30 1971 O 186.418 -1.66104 -0.653575 0
M  V30 1972 C 183.518 -3.18831 -1.14891 0
M  V30 1973 C 182.691 -4.34261 -0.523043 0
M  V30 1974 C 181.75 -5.04994 -1.47878 0
M  V30 1975 O 180.776 -5.6052 -0.990277 0
M  V30 1976 N 181.978 -5.07795 -2.81291 0
M  V30 1977 H 184.743 -2.92727 0.64272 0
M  V30 1978 H 182.304 -1.54373 0.487924 0
M  V30 1979 H 184.296 -3.63015 -1.78892 0
M  V30 1980 H 182.866 -2.56782 -1.78275 0
M  V30 1981 H 182.086 -3.93088 0.295896 0
M  V30 1982 H 183.374 -5.08728 -0.0858147 0
M  V30 1983 H 182.772 -4.64042 -3.23546 0
M  V30 1984 H 181.329 -5.55721 -3.40614 0
M  V30 1985 N 184.763 -0.387143 -1.52771 0
M  V30 1986 C 186.009 0.188506 -2.02525 0
M  V30 1987 C 186.364 1.44649 -1.26864 0
M  V30 1988 O 185.657 1.88189 -0.359945 0
M  V30 1989 C 185.851 0.512209 -3.53711 0
M  V30 1990 C 185.68 -0.712855 -4.44014 0
M  V30 1991 C 184.45 -1.23147 -4.90064 0
M  V30 1992 C 186.648 -1.58453 -4.89282 0
M  V30 1993 N 184.63 -2.41431 -5.64433 0
M  V30 1994 C 186.001 -2.61381 -5.6221 0
M  V30 1995 C 188.056 -1.60488 -4.71326 0
M  V30 1996 C 186.759 -3.66227 -6.19088 0
M  V30 1997 C 188.785 -2.6424 -5.29085 0
M  V30 1998 C 188.147 -3.6589 -6.01917 0
M  V30 1999 H 184.246 0.0311236 -0.78138 0
M  V30 2000 H 186.83 -0.536548 -1.87161 0
M  V30 2001 H 185.001 1.20632 -3.69192 0
M  V30 2002 H 186.733 1.07482 -3.90166 0
M  V30 2003 H 183.488 -0.792795 -4.66917 0
M  V30 2004 H 183.912 -3.01274 -6.0627 0
M  V30 2005 H 188.554 -0.83247 -4.14524 0
M  V30 2006 H 186.272 -4.44337 -6.74974 0
M  V30 2007 H 189.858 -2.66695 -5.17074 0
M  V30 2008 H 188.738 -4.44855 -6.45813 0
M  V30 2009 N 186.241 1.57166 -0.116904 0
M  V30 2010 C 187.487 1.95412 0.542405 0
M  V30 2011 C 187.82 1.00019 1.66463 0
M  V30 2012 O 187.095 0.0370346 1.94465 0
M  V30 2013 C 187.378 3.43615 1.07708 0
M  V30 2014 C 187.231 4.49781 -0.0415868 0
M  V30 2015 C 188.55 3.93616 1.96861 0
M  V30 2016 H 185.669 0.710543 0.195696 0
M  V30 2017 H 188.311 1.89027 -0.192038 0
M  V30 2018 H 186.461 3.49187 1.70296 0
M  V30 2019 H 188.133 4.56308 -0.676793 0
M  V30 2020 H 186.376 4.28033 -0.705019 0
M  V30 2021 H 187.047 5.50733 0.373717 0
M  V30 2022 H 189.523 3.90335 1.44146 0
M  V30 2023 H 188.399 4.97838 2.3119 0
M  V30 2024 H 188.66 3.34188 2.89432 0
M  V30 2025 N 187.719 -0.156864 1.56817 0
M  V30 2026 C 189.135 -0.50916 1.5126 0
M  V30 2027 C 189.335 -1.83897 0.823658 0
M  V30 2028 O 188.391 -2.49469 0.390055 0
M  V30 2029 C 189.704 -0.52857 2.96018 0
M  V30 2030 C 191.252 -0.614771 3.06903 0
M  V30 2031 C 191.727 -0.664938 4.53147 0
M  V30 2032 N 193.218 -0.727433 4.57452 0
M  V30 2033 C 193.953 -0.787067 5.67973 0
M  V30 2034 N 193.449 -0.806649 6.88088 0
M  V30 2035 N 195.242 -0.827195 5.5598 0
M  V30 2036 H 187.393 0.714935 2.00006 0
M  V30 2037 H 189.656 0.259526 0.911784 0
M  V30 2038 H 189.362 0.380154 3.49639 0
M  V30 2039 H 189.236 -1.36998 3.51442 0
M  V30 2040 H 191.623 -1.51392 2.53307 0
M  V30 2041 H 191.704 0.253597 2.5454 0
M  V30 2042 H 191.348 0.230011 5.07379 0
M  V30 2043 H 191.278 -1.54966 5.03282 0
M  V30 2044 H 193.769 -0.719998 3.70978 0
M  V30 2045 H 194.082 -0.853727 7.6807 0
M  V30 2046 H 192.427 -0.774687 6.90669 0
M  V30 2047 H 195.618 -0.808998 4.61056 0
M  V30 2048 H 195.791 -0.870206 6.4213 0
M  V30 2049 N 189.197 -1.51736 -0.425897 0
M  V30 2050 C 190.145 -1.74464 -1.53834 0
M  V30 2051 C 191.139 -0.611241 -1.57988 0
M  V30 2052 O 192.345 -0.792899 -1.61596 0
M  V30 2053 H 188.72 -0.551437 -0.511293 0
M  V30 2054 H 190.691 -2.67694 -1.31843 0
M  V30 2055 C 189.44 -1.8972 -2.91379 0
M  V30 2056 H 188.763 -2.76344 -2.88919 0
M  V30 2057 H 190.203 -2.09629 -3.68553 0
M  V30 2058 C 188.662 -0.65992 -3.30374 0
M  V30 2059 O 189.192 0.180083 -4.01296 0
M  V30 2060 N 187.398 -0.500677 -2.86254 0
M  V30 2061 H 186.945 -1.18532 -2.28709 0
M  V30 2062 H 186.903 0.325903 -3.12706 0
M  V30 2063 N 190.675 0.682077 -1.42076 0
M  V30 2064 C 191.921 1.44283 -1.43366 0
M  V30 2065 C 192.276 1.92344 -0.0465775 0
M  V30 2066 O 191.569 1.67517 0.929973 0
M  V30 2067 C 191.763 2.66036 -2.38662 0
M  V30 2068 C 191.592 2.29889 -3.86499 0
M  V30 2069 C 190.362 2.19599 -4.55087 0
M  V30 2070 C 192.56 1.91999 -4.77117 0
M  V30 2071 N 190.542 1.76478 -5.87987 0
M  V30 2072 C 191.913 1.59741 -5.99068 0
M  V30 2073 C 193.968 1.78927 -4.64639 0
M  V30 2074 C 192.671 1.15723 -7.0993 0
M  V30 2075 C 194.697 1.36314 -5.75476 0
M  V30 2076 C 194.059 1.04975 -6.96534 0
M  V30 2077 H 190.158 0.524739 -0.579805 0
M  V30 2078 H 192.742 0.787834 -1.78048 0
M  V30 2079 H 190.913 3.29237 -2.06053 0
M  V30 2080 H 192.645 3.32588 -2.30581 0
M  V30 2081 H 189.4 2.38433 -4.09202 0
M  V30 2082 H 189.824 1.57362 -6.58458 0
M  V30 2083 H 194.466 2.01805 -3.7153 0
M  V30 2084 H 192.184 0.91591 -8.02893 0
M  V30 2085 H 195.77 1.26731 -5.6783 0
M  V30 2086 H 194.65 0.725017 -7.80841 0
M  V30 2087 N 192.153 1.28127 0.917671 0
M  V30 2088 C 193.116 1.11744 2.00115 0
M  V30 2089 C 194.116 0.0583052 1.60694 0
M  V30 2090 O 195.306 0.303755 1.71531 0
M  V30 2091 C 192.438 0.704862 3.33533 0
M  V30 2092 H 193.631 2.07966 2.16079 0
M  V30 2093 H 191.184 1.11058 1.09981 0
M  V30 2094 H 191.919 -0.258299 3.2327 0
M  V30 2095 H 191.704 1.4699 3.63505 0
M  V30 2096 H 193.194 0.612768 4.1308 0
M  V30 2097 N 193.631 -1.12557 1.10312 0
M  V30 2098 C 194.877 -1.84311 0.846011 0
M  V30 2099 C 195.21 -1.83805 -0.626859 0
M  V30 2100 O 194.485 -1.28268 -1.46211 0
M  V30 2101 C 194.768 -3.32048 1.39341 0
M  V30 2102 C 194.621 -3.41016 2.93305 0
M  V30 2103 C 195.94 -4.27764 1.03468 0
M  V30 2104 H 193.059 -0.669192 0.30879 0
M  V30 2105 H 195.701 -1.32057 1.36605 0
M  V30 2106 H 193.851 -3.76678 0.951087 0
M  V30 2107 H 195.523 -3.05031 3.46055 0
M  V30 2108 H 193.766 -2.81603 3.29973 0
M  V30 2109 H 194.437 -4.44948 3.26689 0
M  V30 2110 H 196.913 -3.91253 1.41633 0
M  V30 2111 H 195.789 -5.29549 1.44463 0
M  V30 2112 H 196.05 -4.42064 -0.0560404 0
M  V30 2113 N 195.109 -0.891671 -1.2995 0
M  V30 2114 C 196.355 -0.523649 -1.96544 0
M  V30 2115 C 196.71 0.918394 -1.69066 0
M  V30 2116 O 196.003 1.64122 -0.988659 0
M  V30 2117 C 196.197 -0.742868 -3.49594 0
M  V30 2118 C 196.026 -2.20467 -3.9195 0
M  V30 2119 C 194.796 -2.85055 -4.17219 0
M  V30 2120 C 196.994 -3.17912 -4.04273 0
M  V30 2121 N 194.976 -4.21762 -4.46083 0
M  V30 2122 C 196.347 -4.39712 -4.37097 0
M  V30 2123 C 198.402 -3.1361 -3.86721 0
M  V30 2124 C 197.105 -5.5776 -4.54199 0
M  V30 2125 C 199.131 -4.30936 -4.05028 0
M  V30 2126 C 198.493 -5.51504 -4.38204 0
M  V30 2127 H 194.592 -0.241072 -0.743914 0
M  V30 2128 H 197.176 -1.15081 -1.5705 0
M  V30 2129 H 195.347 -0.14515 -3.88129 0
M  V30 2130 H 197.079 -0.341081 -4.0326 0
M  V30 2131 H 193.834 -2.35889 -4.10674 0
M  V30 2132 H 194.258 -4.92382 -4.64638 0
M  V30 2133 H 198.9 -2.21489 -3.60142 0
M  V30 2134 H 196.618 -6.50379 -4.79618 0
M  V30 2135 H 200.204 -4.29085 -3.92909 0
M  V30 2136 H 199.084 -6.40778 -4.52077 0
M  V30 2137 N 196.587 1.43421 -0.653314 0
M  V30 2138 C 198.003 1.56341 -0.320886 0
M  V30 2139 C 198.203 1.63696 1.17499 0
M  V30 2140 O 197.259 1.59208 1.95982 0
M  V30 2141 C 198.572 2.82424 -1.03233 0
M  V30 2142 C 200.12 2.96168 -1.01259 0
M  V30 2143 C 200.595 4.25084 -1.70492 0
M  V30 2144 N 202.086 4.31948 -1.67257 0
M  V30 2145 C 202.821 5.30466 -2.17701 0
M  V30 2146 N 202.317 6.35261 -2.76434 0
M  V30 2147 N 204.11 5.2212 -2.082 0
M  V30 2148 H 196.261 1.3689 -1.62403 0
M  V30 2149 H 198.524 0.657455 -0.682977 0
M  V30 2150 H 198.23 2.83053 -2.08744 0
M  V30 2151 H 198.104 3.72653 -0.583948 0
M  V30 2152 H 200.491 2.9508 0.0341235 0
M  V30 2153 H 200.572 2.07229 -1.49966 0
M  V30 2154 H 200.216 4.26932 -2.7512 0
M  V30 2155 H 200.146 5.1292 -1.19251 0
M  V30 2156 H 202.637 3.56838 -1.24398 0
M  V30 2157 H 202.95 7.06754 -3.12601 0
M  V30 2158 H 201.295 6.35884 -2.80495 0
M  V30 2159 H 204.486 4.39166 -1.62021 0
M  V30 2160 H 204.659 5.98739 -2.47822 0
M  V30 2161 N 198.065 0.39524 1.52563 0
M  V30 2162 C 199.295 -0.184675 2.05773 0
M  V30 2163 C 199.703 -1.40571 1.26635 0
M  V30 2164 O 199.046 -1.81105 0.30769 0
M  V30 2165 C 199.108 -0.613551 3.54226 0
M  V30 2166 C 198.772 0.49484 4.54313 0
M  V30 2167 C 199.769 1.3541 5.01956 0
M  V30 2168 C 197.454 0.663565 4.97898 0
M  V30 2169 C 199.448 2.36716 5.91814 0
M  V30 2170 C 197.135 1.67996 5.87555 0
M  V30 2171 C 198.133 2.53017 6.34406 0
M  V30 2172 O 197.821 3.52917 7.22291 0
M  V30 2173 H 197.553 -0.030077 0.675331 0
M  V30 2174 H 200.107 0.560708 1.97599 0
M  V30 2175 H 198.337 -1.411 3.60038 0
M  V30 2176 H 200.026 -1.11981 3.90148 0
M  V30 2177 H 200.792 1.23509 4.6901 0
M  V30 2178 H 196.671 0.0114913 4.60999 0
M  V30 2179 H 200.215 3.03113 6.28306 0
M  V30 2180 H 196.112 1.79933 6.19915 0
M  V30 2181 H 196.88 3.48996 7.40367 0
M  V30 2182 N 199.544 -1.57102 0.125237 0
M  V30 2183 C 200.791 -1.95407 -0.531248 0
M  V30 2184 C 201.119 -1.0089 -1.66287 0
M  V30 2185 O 200.374 -0.0339431 -1.95671 0
M  V30 2186 C 200.673 -3.40096 -1.09862 0
M  V30 2187 C 200.339 -4.50815 -0.0876989 0
M  V30 2188 C 199.001 -4.80824 0.19026 0
M  V30 2189 C 201.353 -5.17724 0.600902 0
M  V30 2190 C 198.681 -5.75058 1.163 0
M  V30 2191 C 201.033 -6.13005 1.56231 0
M  V30 2192 C 199.697 -6.41403 1.8482 0
M  V30 2193 H 198.967 -0.715046 -0.194397 0
M  V30 2194 H 201.614 -1.90373 0.207463 0
M  V30 2195 H 199.919 -3.41855 -1.91422 0
M  V30 2196 H 201.616 -3.6705 -1.61478 0
M  V30 2197 H 198.206 -4.27444 -0.314528 0
M  V30 2198 H 202.39 -4.94691 0.399333 0
M  V30 2199 H 197.646 -5.95362 1.39117 0
M  V30 2200 H 201.82 -6.63934 2.10153 0
M  V30 2201 H 199.447 -7.14229 2.60349 0
M  V30 2202 N 201.022 0.148545 -1.56898 0
M  V30 2203 C 202.438 0.501131 -1.51528 0
M  V30 2204 C 202.638 1.83458 -0.833399 0
M  V30 2205 O 201.694 2.49259 -0.40328 0
M  V30 2206 C 203.007 0.512864 -2.96294 0
M  V30 2207 C 204.555 0.598487 -3.07225 0
M  V30 2208 C 205.03 0.640897 -4.53494 0
M  V30 2209 N 206.521 0.703163 -4.57832 0
M  V30 2210 C 207.256 0.756935 -5.68382 0
M  V30 2211 N 206.752 0.770147 -6.88506 0
M  V30 2212 N 208.545 0.797698 -5.56411 0
M  V30 2213 H 200.696 -0.725532 -1.99624 0
M  V30 2214 H 202.959 -0.264358 -0.910395 0
M  V30 2215 H 202.665 -0.398691 -3.49433 0
M  V30 2216 H 202.539 1.35133 -3.52163 0
M  V30 2217 H 204.926 1.50046 -2.54106 0
M  V30 2218 H 205.007 -0.267093 -2.54402 0
M  V30 2219 H 204.651 -0.256915 -5.0725 0
M  V30 2220 H 204.581 1.52295 -5.04097 0
M  V30 2221 H 207.072 0.700314 -3.71354 0
M  V30 2222 H 207.385 0.812983 -7.68512 0
M  V30 2223 H 205.73 0.738049 -6.9107 0
M  V30 2224 H 208.921 0.784535 -4.61479 0
M  V30 2225 H 209.094 0.83614 -6.42583 0
M  V30 2226 N 202.5 1.5196 0.417844 0
M  V30 2227 C 203.777 1.56146 1.17803 0
M  V30 2228 C 204.157 0.337275 2.08388 0
M  V30 2229 O 203.505 -0.676447 2.18258 0
M  V30 2230 C 203.715 2.88566 1.96293 0
M  V30 2231 C 205.063 3.41244 2.52662 0
M  V30 2232 O 206.087 2.90247 2.06483 0
M  V30 2233 O 204.946 4.30273 3.36938 0
M  V30 2234 H 202.04 0.628598 0.537395 0
M  V30 2235 H 204.586 1.64283 0.425331 0
M  V30 2236 H 203.358 3.69116 1.2988 0
M  V30 2237 H 202.981 2.83681 2.78587 0
M  V30 2238 N 203.978 -0.674533 1.42435 0
M  V30 2239 C 205.208 -1.46071 1.46105 0
M  V30 2240 C 205.616 -1.89067 0.0709605 0
M  V30 2241 O 204.959 -1.58731 -0.924677 0
M  V30 2242 C 205.021 -2.74145 2.32561 0
M  V30 2243 C 204.685 -2.53224 3.8043 0
M  V30 2244 C 205.682 -2.17809 4.72075 0
M  V30 2245 C 203.367 -2.6821 4.24698 0
M  V30 2246 C 205.361 -1.97648 6.05982 0
M  V30 2247 C 203.048 -2.47665 5.58664 0
M  V30 2248 C 204.046 -2.12437 6.49122 0
M  V30 2249 O 203.734 -1.9209 7.80613 0
M  V30 2250 H 203.466 -0.455959 0.499076 0
M  V30 2251 H 206.02 -0.836193 1.87609 0
M  V30 2252 H 204.25 -3.3908 1.85908 0
M  V30 2253 H 205.939 -3.36028 2.27683 0
M  V30 2254 H 206.705 -2.05826 4.39159 0
M  V30 2255 H 202.584 -2.94609 3.54579 0
M  V30 2256 H 206.128 -1.70075 6.7655 0
M  V30 2257 H 202.025 -2.59244 5.91154 0
M  V30 2258 H 202.793 -2.06686 7.91974 0
M  V30 2259 N 205.456 -1.28612 -0.910864 0
M  V30 2260 C 206.703 -1.15934 -1.66029 0
M  V30 2261 C 207.031 0.291483 -1.92303 0
M  V30 2262 O 206.286 1.22816 -1.52364 0
M  V30 2263 C 206.585 -1.90624 -3.0232 0
M  V30 2264 C 206.251 -3.40405 -2.95695 0
M  V30 2265 C 204.913 -3.81255 -2.93595 0
M  V30 2266 C 207.265 -4.359 -2.85728 0
M  V30 2267 C 204.593 -5.15936 -2.79334 0
M  V30 2268 C 206.945 -5.70657 -2.73007 0
M  V30 2269 C 205.609 -6.10779 -2.69267 0
M  V30 2270 H 204.879 -0.424234 -0.607541 0
M  V30 2271 H 207.526 -1.5942 -1.06101 0
M  V30 2272 H 205.831 -1.39696 -3.6605 0
M  V30 2273 H 207.528 -1.78228 -3.59215 0
M  V30 2274 H 204.118 -3.07927 -2.98125 0
M  V30 2275 H 208.302 -4.053 -2.86436 0
M  V30 2276 H 203.558 -5.46146 -2.74835 0
M  V30 2277 H 207.732 -6.44311 -2.64264 0
M  V30 2278 H 205.359 -7.1509 -2.57974 0
M  V30 2279 N 206.934 1.1197 -1.10907 0
M  V30 2280 C 208.345 1.65114 -0.871446 0
M  V30 2281 C 208.696 1.86885 0.597353 0
M  V30 2282 O 207.821 1.59896 1.45816 0
M  V30 2283 C 208.416 2.99944 -1.5754 0
M  V30 2284 C 206.975 3.50018 -1.38435 0
M  V30 2285 C 206.122 2.24941 -1.62164 0
M  V30 2286 H 209.073 0.956851 -1.2661 0
M  V30 2287 H 209.094 3.66651 -1.01721 0
M  V30 2288 H 208.606 2.84067 -2.64438 0
M  V30 2289 H 206.707 3.71071 -0.337214 0
M  V30 2290 H 206.82 4.29165 -2.12965 0
M  V30 2291 H 205.184 2.3229 -1.04467 0
M  V30 2292 H 205.967 2.11612 -2.70324 0
M  V30 2293 N 208.412 0.89855 1.29475 0
M  V30 2294 C 209.661 0.519863 1.94885 0
M  V30 2295 C 209.974 -0.9383 1.71625 0
M  V30 2296 O 211.18 -1.42445 2.31131 0
M  V30 2297 C 209.636 0.878836 3.49005 0
M  V30 2298 C 209.244 2.35569 3.81066 0
M  V30 2299 C 210.988 0.570004 4.20656 0
M  V30 2300 C 208.895 2.65558 5.28425 0
M  V30 2301 H 207.825 0.190692 0.729488 0
M  V30 2302 H 210.476 1.09539 1.47219 0
M  V30 2303 H 208.858 0.232253 3.95318 0
M  V30 2304 H 210.032 3.04773 3.45616 0
M  V30 2305 H 208.347 2.63343 3.22552 0
M  V30 2306 H 210.944 0.770925 5.29113 0
M  V30 2307 H 211.287 -0.491404 4.1339 0
M  V30 2308 H 211.82 1.17438 3.8007 0
M  V30 2309 H 208.559 3.70493 5.40754 0
M  V30 2310 H 208.079 2.00977 5.65127 0
M  V30 2311 H 209.758 2.51765 5.96006 0
M  V30 2312 N 209.89 -1.43072 0.660911 0
M  V30 2313 C 210.822 -2.29108 -0.0647641 0
M  V30 2314 C 211.835 -1.42928 -0.779448 0
M  V30 2315 O 213.024 -1.66788 -0.635921 0
M  V30 2316 C 210.124 -3.20032 -1.11503 0
M  V30 2317 C 209.297 -4.34792 -0.476955 0
M  V30 2318 C 208.356 -5.06534 -1.42513 0
M  V30 2319 O 207.382 -5.61538 -0.930771 0
M  V30 2320 N 208.584 -5.1075 -2.75889 0
M  V30 2321 H 211.349 -2.92029 0.673731 0
M  V30 2322 H 208.91 -1.53846 0.50427 0
M  V30 2323 H 210.902 -3.64892 -1.75032 0
M  V30 2324 H 209.472 -2.58658 -1.75541 0
M  V30 2325 H 208.692 -3.92752 0.337572 0
M  V30 2326 H 209.98 -5.0879 -0.0318525 0
M  V30 2327 H 209.378 -4.67447 -3.18606 0
M  V30 2328 H 207.935 -5.59302 -3.347 0
M  V30 2329 N 211.368 -0.403325 -1.52352 0
M  V30 2330 C 212.298 0.416205 -2.29761 0
M  V30 2331 C 213.279 1.05123 -1.33728 0
M  V30 2332 O 214.464 1.06134 -1.62632 0
M  V30 2333 C 211.594 1.53624 -3.11475 0
M  V30 2334 C 210.548 1.02653 -4.15507 0
M  V30 2335 C 209.874 2.23971 -4.85532 0
M  V30 2336 C 211.174 0.08463 -5.22231 0
M  V30 2337 H 212.868 -0.229701 -2.98518 0
M  V30 2338 H 210.414 -0.111913 -1.43564 0
M  V30 2339 H 212.367 2.1165 -3.64393 0
M  V30 2340 H 211.091 2.20994 -2.40477 0
M  V30 2341 H 209.75 0.46871 -3.63591 0
M  V30 2342 H 209.398 2.89883 -4.11068 0
M  V30 2343 H 209.098 1.90521 -5.55856 0
M  V30 2344 H 210.622 2.82614 -5.41259 0
M  V30 2345 H 212.036 0.573509 -5.70424 0
M  V30 2346 H 210.433 -0.160783 -5.99885 0
M  V30 2347 H 211.503 -0.86237 -4.7717 0
M  V30 2348 N 212.846 1.57033 -0.133567 0
M  V30 2349 C 214.092 1.95976 0.521649 0
M  V30 2350 C 214.425 1.01779 1.65393 0
M  V30 2351 O 213.7 0.0576581 1.94415 0
M  V30 2352 C 213.983 3.44738 1.04057 0
M  V30 2353 C 213.836 4.49711 -0.0892897 0
M  V30 2354 C 215.155 3.95682 1.92675 0
M  V30 2355 H 212.274 0.712579 0.188149 0
M  V30 2356 H 214.916 1.88813 -0.212076 0
M  V30 2357 H 213.066 3.50973 1.66583 0
M  V30 2358 H 214.738 4.55565 -0.725152 0
M  V30 2359 H 212.981 4.27261 -0.750378 0
M  V30 2360 H 213.652 5.51099 0.315284 0
M  V30 2361 H 216.128 3.91841 1.39998 0
M  V30 2362 H 215.004 5.00262 2.25897 0
M  V30 2363 H 215.265 3.37239 2.85872 0
M  V30 2364 N 214.325 -0.140222 1.56975 0
M  V30 2365 C 215.272 -1.17292 1.98774 0
M  V30 2366 C 216.242 -1.4232 0.856408 0
M  V30 2367 O 217.427 -1.54541 1.119 0
M  V30 2368 C 214.567 -2.49973 2.37923 0
M  V30 2369 C 213.68 -2.32062 3.64378 0
M  V30 2370 C 212.815 -3.57825 3.926 0
M  V30 2371 C 211.854 -3.3498 5.12303 0
M  V30 2372 N 210.991 -4.52891 5.36502 0
M  V30 2373 H 215.831 -0.809472 2.86795 0
M  V30 2374 H 213.368 -0.388237 1.41884 0
M  V30 2375 H 215.326 -3.27346 2.58652 0
M  V30 2376 H 213.956 -2.84252 1.52972 0
M  V30 2377 H 213.008 -1.45711 3.51387 0
M  V30 2378 H 214.32 -2.11145 4.51906 0
M  V30 2379 H 213.474 -4.43624 4.13863 0
M  V30 2380 H 212.213 -3.81753 3.03506 0
M  V30 2381 H 211.218 -2.4757 4.90906 0
M  V30 2382 H 212.443 -3.12444 6.02956 0
M  V30 2383 H 210.389 -4.76979 4.50363 0
M  V30 2384 H 210.306 -4.35001 6.18312 0
M  V30 2385 H 211.574 -5.39884 5.62268 0
M  V30 2386 N 215.803 -1.52179 -0.40978 0
M  V30 2387 C 217.031 -1.70054 -1.17853 0
M  V30 2388 C 217.446 -0.409735 -1.843 0
M  V30 2389 O 216.803 0.614183 -1.71855 0
M  V30 2390 C 216.854 -2.83568 -2.24213 0
M  V30 2391 O 216.575 -4.0765 -1.60478 0
M  V30 2392 C 218.076 -3.12947 -3.13973 0
M  V30 2393 H 215.296 -0.569917 -0.354169 0
M  V30 2394 H 217.84 -1.98734 -0.482198 0
M  V30 2395 H 215.995 -2.57409 -2.89516 0
M  V30 2396 H 216.409 -4.70899 -2.30986 0
M  V30 2397 H 217.883 -3.95889 -3.84677 0
M  V30 2398 H 218.36 -2.26472 -3.76307 0
M  V30 2399 H 218.966 -3.40868 -2.5434 0
M  V30 2400 N 217.281 0.66697 -1.42791 0
M  V30 2401 C 218.231 1.77313 -1.43332 0
M  V30 2402 C 219.215 1.5801 -0.303586 0
M  V30 2403 O 220.407 1.68356 -0.546385 0
M  V30 2404 C 217.536 3.15822 -1.34578 0
M  V30 2405 C 216.622 3.40721 -2.52528 0
M  V30 2406 N 217.013 3.36162 -3.77927 0
M  V30 2407 C 215.311 3.71387 -2.46956 0
M  V30 2408 C 216.012 3.60762 -4.56318 0
M  V30 2409 N 214.988 3.81908 -3.86843 0
M  V30 2410 H 218.79 1.72193 -2.38174 0
M  V30 2411 H 216.304 0.868114 -1.3725 0
M  V30 2412 H 218.301 3.951 -1.33048 0
M  V30 2413 H 216.961 3.22133 -0.407453 0
M  V30 2414 H 217.972 3.15885 -4.10411 0
M  V30 2415 H 214.649 3.84897 -1.61743 0
M  V30 2416 H 216.039 3.63132 -5.65318 0
M  V30 2417 N 218.759 1.29093 0.90403 0
M  V30 2418 C 219.707 1.13727 2.02901 0
M  V30 2419 C 220.701 0.0539853 1.69314 0
M  V30 2420 O 221.907 0.213469 1.7873 0
M  V30 2421 H 218.282 0.35117 0.664969 0
M  V30 2422 H 220.253 2.08982 2.13001 0
M  V30 2423 C 219.002 0.826066 3.37745 0
M  V30 2424 H 218.325 1.65164 3.64089 0
M  V30 2425 H 219.765 0.758559 4.17159 0
M  V30 2426 C 218.224 -0.470541 3.33598 0
M  V30 2427 O 218.754 -1.49792 3.72727 0
M  V30 2428 N 216.96 -0.474812 2.86695 0
M  V30 2429 H 216.507 0.361692 2.55048 0
M  V30 2430 H 216.465 -1.34236 2.84303 0
M  V30 2431 N 220.237 -1.11381 1.11499 0
M  V30 2432 C 221.167 -2.19509 0.796125 0
M  V30 2433 C 222.148 -1.68458 -0.235796 0
M  V30 2434 O 223.333 -1.93947 -0.0991344 0
M  V30 2435 C 220.463 -3.46475 0.239205 0
M  V30 2436 C 219.417 -4.10744 1.20307 0
M  V30 2437 C 218.743 -5.32293 0.50683 0
M  V30 2438 C 220.043 -4.55597 2.55399 0
M  V30 2439 H 221.737 -2.46439 1.70024 0
M  V30 2440 H 219.283 -1.18446 0.818935 0
M  V30 2441 H 221.236 -4.214 0.00392006 0
M  V30 2442 H 219.96 -3.19006 -0.700206 0
M  V30 2443 H 218.619 -3.37813 1.42399 0
M  V30 2444 H 218.267 -5.01095 -0.437408 0
M  V30 2445 H 217.967 -5.76243 1.1497 0
M  V30 2446 H 219.491 -6.09956 0.280351 0
M  V30 2447 H 220.905 -5.21841 2.37391 0
M  V30 2448 H 219.302 -5.10363 3.15673 0
M  V30 2449 H 220.372 -3.69013 3.14575 0
M  V30 2450 N 221.715 -0.905404 -1.28997 0
M  V30 2451 C 222.645 -0.404212 -2.29975 0
M  V30 2452 C 223.626 0.523784 -1.61835 0
M  V30 2453 O 224.811 0.433298 -1.89304 0
M  V30 2454 C 221.941 0.364042 -3.45387 0
M  V30 2455 C 220.895 -0.474048 -4.25367 0
M  V30 2456 C 220.221 0.422045 -5.33032 0
M  V30 2457 C 221.521 -1.72696 -4.92923 0
M  V30 2458 H 223.215 -1.24807 -2.72146 0
M  V30 2459 H 220.761 -0.601585 -1.30832 0
M  V30 2460 H 222.714 0.725447 -4.15109 0
M  V30 2461 H 221.438 1.24174 -3.02074 0
M  V30 2462 H 220.097 -0.81786 -3.57361 0
M  V30 2463 H 219.745 1.29804 -4.85963 0
M  V30 2464 H 219.445 -0.135057 -5.87445 0
M  V30 2465 H 220.969 0.779517 -6.05604 0
M  V30 2466 H 222.383 -1.43495 -5.55051 0
M  V30 2467 H 220.78 -2.22582 -5.57295 0
M  V30 2468 H 221.85 -2.45964 -4.17887 0
M  V30 2469 N 223.193 1.4272 -0.668489 0
M  V30 2470 C 224.421 2.05966 -0.196348 0
M  V30 2471 C 224.836 1.50191 1.14403 0
M  V30 2472 O 224.193 0.639208 1.7094 0
M  V30 2473 C 224.244 3.61314 -0.115815 0
M  V30 2474 O 223.965 4.1502 -1.40322 0
M  V30 2475 C 225.466 4.41663 0.380579 0
M  V30 2476 H 222.686 0.663954 -0.0969829 0
M  V30 2477 H 225.23 1.82966 -0.913446 0
M  V30 2478 H 223.385 3.83448 0.551931 0
M  V30 2479 H 223.799 5.08832 -1.27243 0
M  V30 2480 H 225.273 5.5065 0.385848 0
M  V30 2481 H 225.75 4.15792 1.41471 0
M  V30 2482 H 226.356 4.24534 -0.255209 0
M  V30 2483 N 224.671 0.411399 1.52136 0
M  V30 2484 C 225.899 -0.163076 2.06256 0
M  V30 2485 C 226.314 -1.3867 1.28125 0
M  V30 2486 O 225.671 -1.79423 0.333721 0
M  V30 2487 C 225.722 -0.511252 3.57867 0
M  V30 2488 O 225.443 0.66378 4.33042 0
M  V30 2489 C 226.944 -1.13921 4.28412 0
M  V30 2490 H 224.164 -0.0193897 0.67072 0
M  V30 2491 H 226.708 0.583007 1.96013 0
M  V30 2492 H 224.863 -1.20723 3.6811 0
M  V30 2493 H 225.277 0.372601 5.23175 0
M  V30 2494 H 226.751 -1.33302 5.35663 0
M  V30 2495 H 227.228 -2.11296 3.85033 0
M  V30 2496 H 227.834 -0.483373 4.22544 0
M  V30 2497 N 226.149 -1.5696 0.141893 0
M  V30 2498 C 227.565 -1.58151 -0.21456 0
M  V30 2499 C 227.765 -1.1559 -1.65049 0
M  V30 2500 O 226.821 -0.853832 -2.37626 0
M  V30 2501 C 228.134 -3.00674 0.0395576 0
M  V30 2502 C 229.682 -3.1299 -0.0245529 0
M  V30 2503 C 230.157 -4.57554 0.202167 0
M  V30 2504 N 231.648 -4.62961 0.148919 0
M  V30 2505 C 232.383 -5.7262 0.298924 0
M  V30 2506 N 231.879 -6.90947 0.50637 0
M  V30 2507 N 233.672 -5.61601 0.236886 0
M  V30 2508 H 225.823 -1.8292 1.07953 0
M  V30 2509 H 228.086 -0.846425 0.42693 0
M  V30 2510 H 227.792 -3.36183 1.03315 0
M  V30 2511 H 227.666 -3.70981 -0.682143 0
M  V30 2512 H 230.053 -2.77326 -1.00869 0
M  V30 2513 H 230.134 -2.4518 0.729396 0
M  V30 2514 H 229.778 -4.93922 1.18338 0
M  V30 2515 H 229.708 -5.23484 -0.572044 0
M  V30 2516 H 232.199 -3.77899 -0.00697015 0
M  V30 2517 H 232.512 -7.7038 0.611076 0
M  V30 2518 H 230.857 -6.92878 0.542628 0
M  V30 2519 H 234.048 -4.68039 0.0756209 0
M  V30 2520 H 234.221 -6.47015 0.357227 0
M  V30 2521 N 227.627 0.131896 -1.57047 0
M  V30 2522 C 228.575 1.18146 -2.0036 0
M  V30 2523 C 229.569 1.43614 -0.898406 0
M  V30 2524 O 230.775 1.43729 -1.08361 0
M  V30 2525 H 227.15 0.398042 -0.638018 0
M  V30 2526 H 229.121 0.789564 -2.87765 0
M  V30 2527 C 227.87 2.50341 -2.41298 0
M  V30 2528 H 227.193 2.31578 -3.25902 0
M  V30 2529 H 228.633 3.22371 -2.75414 0
M  V30 2530 C 227.092 3.11984 -1.27153 0
M  V30 2531 O 227.622 3.97484 -0.580459 0
M  V30 2532 N 225.828 2.71662 -1.03189 0
M  V30 2533 H 225.375 2.02231 -1.59564 0
M  V30 2534 H 225.333 3.13238 -0.270077 0
M  V30 2535 N 229.106 1.52395 0.401703 0
M  V30 2536 C 230.336 1.70429 1.1678 0
M  V30 2537 C 230.744 0.416702 1.84554 0
M  V30 2538 O 230.087 -0.617697 1.73003 0
M  V30 2539 C 230.149 2.78919 2.26814 0
M  V30 2540 C 229.813 4.20437 1.79113 0
M  V30 2541 C 230.81 5.04028 1.27482 0
M  V30 2542 C 228.495 4.66704 1.85722 0
M  V30 2543 C 230.489 6.31961 0.830913 0
M  V30 2544 C 228.176 5.94625 1.40942 0
M  V30 2545 C 229.174 6.77082 0.897128 0
M  V30 2546 O 228.862 8.02607 0.455822 0
M  V30 2547 H 228.594 0.574272 0.356634 0
M  V30 2548 H 231.148 1.99767 0.477724 0
M  V30 2549 H 229.378 2.44973 2.99207 0
M  V30 2550 H 231.067 2.8548 2.88541 0
M  V30 2551 H 231.833 4.69471 1.21744 0
M  V30 2552 H 227.712 4.0262 2.24539 0
M  V30 2553 H 231.256 6.96271 0.430368 0
M  V30 2554 H 227.153 6.28688 1.46362 0
M  V30 2555 H 227.921 8.16453 0.578457 0
M  V30 2556 N 230.584 -0.659388 1.43143 0
M  V30 2557 C 231.833 -1.41518 1.43721 0
M  V30 2558 C 232.146 -1.95499 0.0628176 0
M  V30 2559 O 233.352 -2.71446 -0.0539683 0
M  V30 2560 C 231.808 -2.5608 2.52885 0
M  V30 2561 C 231.416 -2.08733 3.96402 0
M  V30 2562 C 233.16 -3.3349 2.62649 0
M  V30 2563 C 231.067 -3.20469 4.97045 0
M  V30 2564 H 229.997 -0.531705 0.534608 0
M  V30 2565 H 232.648 -0.712343 1.69109 0
M  V30 2566 H 231.03 -3.28805 2.20688 0
M  V30 2567 H 232.204 -1.43059 4.3803 0
M  V30 2568 H 230.519 -1.44219 3.90627 0
M  V30 2569 H 233.116 -4.16734 3.35017 0
M  V30 2570 H 233.459 -3.8111 1.67513 0
M  V30 2571 H 233.992 -2.67842 2.94118 0
M  V30 2572 H 230.731 -2.77824 5.93712 0
M  V30 2573 H 230.251 -3.84874 4.60034 0
M  V30 2574 H 231.93 -3.85698 5.19467 0
M  V30 2575 N 232.062 -1.29571 -0.897171 0
M  V30 2576 C 233.309 -1.17689 -1.6479 0
M  V30 2577 C 233.637 0.27107 -1.92602 0
M  V30 2578 O 232.892 1.21193 -1.53658 0
M  V30 2579 C 233.191 -1.9382 -3.00281 0
M  V30 2580 C 232.857 -3.43522 -2.92068 0
M  V30 2581 C 231.519 -3.84348 -2.89535 0
M  V30 2582 C 233.871 -4.38906 -2.81089 0
M  V30 2583 C 231.199 -5.18869 -2.73846 0
M  V30 2584 C 233.551 -5.73521 -2.66939 0
M  V30 2585 C 232.215 -6.13601 -2.62774 0
M  V30 2586 H 231.485 -0.430654 -0.603008 0
M  V30 2587 H 234.132 -1.60536 -1.04404 0
M  V30 2588 H 232.437 -1.4357 -3.64547 0
M  V30 2589 H 234.134 -1.82028 -3.57305 0
M  V30 2590 H 230.724 -3.11072 -2.94842 0
M  V30 2591 H 234.908 -4.08315 -2.82121 0
M  V30 2592 H 230.164 -5.4903 -2.69027 0
M  V30 2593 H 234.338 -6.47078 -2.57416 0
M  V30 2594 H 231.965 -7.17786 -2.50375 0
M  V30 2595 N 233.54 1.10788 -1.12088 0
M  V30 2596 C 234.788 1.8231 -0.872205 0
M  V30 2597 C 235.109 1.85419 0.603709 0
M  V30 2598 O 234.379 1.32963 1.43867 0
M  V30 2599 H 232.959 0.675137 -0.319686 0
M  V30 2600 H 235.621 1.34068 -1.41463 0
M  V30 2601 H 234.717 2.85955 -1.25045 0
M  V30 2602 N 235.018 0.912232 1.28515 0
M  V30 2603 C 236.248 0.559604 1.98877 0
M  V30 2604 C 236.656 -0.863113 1.68366 0
M  V30 2605 O 235.999 -1.58304 0.931969 0
M  V30 2606 C 236.061 0.68703 3.52874 0
M  V30 2607 C 235.725 2.07901 4.06972 0
M  V30 2608 C 236.722 3.05157 4.20922 0
M  V30 2609 C 234.407 2.39178 4.417 0
M  V30 2610 C 236.401 4.31806 4.68852 0
M  V30 2611 C 234.088 3.66068 4.89324 0
M  V30 2612 C 235.086 4.62195 5.02856 0
M  V30 2613 O 234.774 5.86829 5.49442 0
M  V30 2614 H 234.506 0.212191 0.641834 0
M  V30 2615 H 237.06 1.22712 1.64715 0
M  V30 2616 H 235.29 -0.0375486 3.86682 0
M  V30 2617 H 236.979 0.341727 4.04459 0
M  V30 2618 H 237.745 2.82311 3.94367 0
M  V30 2619 H 233.624 1.65109 4.30418 0
M  V30 2620 H 237.168 5.06842 4.79329 0
M  V30 2621 H 233.065 3.88739 5.15318 0
M  V30 2622 H 233.833 5.89597 5.6773 0
M  V30 2623 N 236.496 -1.42363 0.676048 0
M  V30 2624 C 237.446 -2.27987 -0.0242903 0
M  V30 2625 C 238.43 -1.41153 -0.772319 0
M  V30 2626 O 239.622 -1.64592 -0.651025 0
M  V30 2627 C 236.751 -3.29195 -0.973953 0
M  V30 2628 C 235.837 -4.23512 -0.223202 0
M  V30 2629 N 236.228 -4.99865 0.772589 0
M  V30 2630 C 234.526 -4.43606 -0.461469 0
M  V30 2631 C 235.227 -5.68757 1.22027 0
M  V30 2632 N 234.203 -5.40811 0.549975 0
M  V30 2633 H 238.005 -2.84445 0.73949 0
M  V30 2634 H 235.519 -1.54341 0.50522 0
M  V30 2635 H 237.516 -3.89339 -1.49067 0
M  V30 2636 H 236.176 -2.74298 -1.73755 0
M  V30 2637 H 237.187 -5.04921 1.15217 0
M  V30 2638 H 233.864 -3.99749 -1.20446 0
M  V30 2639 H 235.254 -6.40007 2.0455 0
M  V30 2640 N 237.974 -0.419461 -1.51915 0
M  V30 2641 C 239.385 0.0477853 -1.86639 0
M  V30 2642 C 239.736 1.43531 -1.33766 0
M  V30 2643 O 238.861 2.05401 -0.68113 0
M  V30 2644 C 239.456 0.0934885 -3.38671 0
M  V30 2645 C 238.015 0.505097 -3.72996 0
M  V30 2646 C 237.162 -0.313792 -2.75519 0
M  V30 2647 H 240.113 -0.636088 -1.45395 0
M  V30 2648 H 240.134 0.906667 -3.6954 0
M  V30 2649 H 239.646 -0.916501 -3.77123 0
M  V30 2650 H 237.747 1.52135 -3.40126 0
M  V30 2651 H 237.86 0.242309 -4.78487 0
M  V30 2652 H 236.224 0.225363 -2.53701 0
M  V30 2653 H 237.007 -1.32232 -3.16812 0
M  V30 2654 N 239.452 1.56882 -0.150215 0
M  V30 2655 C 240.402 2.13501 0.800071 0
M  V30 2656 C 241.386 1.06368 1.20726 0
M  V30 2657 O 242.578 1.32538 1.17314 0
M  V30 2658 C 239.707 2.76271 2.03787 0
M  V30 2659 C 238.793 3.90533 1.65364 0
M  V30 2660 N 239.184 4.96259 0.977794 0
M  V30 2661 C 237.482 4.013 1.94613 0
M  V30 2662 C 238.183 5.76286 0.791794 0
M  V30 2663 N 237.159 5.27163 1.32666 0
M  V30 2664 H 240.961 2.92615 0.274517 0
M  V30 2665 H 238.475 1.62319 0.0512144 0
M  V30 2666 H 240.472 3.15197 2.72867 0
M  V30 2667 H 239.132 1.98631 2.56857 0
M  V30 2668 H 240.143 5.13953 0.638193 0
M  V30 2669 H 236.82 3.3474 2.4951 0
M  V30 2670 H 238.21 6.71401 0.258894 0
M  V30 2671 N 240.93 -0.123565 1.57115 0
M  V30 2672 C 242.178 -0.83051 1.84247 0
M  V30 2673 C 242.499 -1.80629 0.73471 0
M  V30 2674 O 241.769 -1.94403 -0.241688 0
M  V30 2675 H 240.349 -0.309694 0.679778 0
M  V30 2676 H 243.011 -0.111976 1.94578 0
M  V30 2677 H 242.107 -1.37852 2.80006 0
M  V30 2678 N 242.408 -1.52605 -0.393616 0
M  V30 2679 C 243.657 -1.66649 -1.13627 0
M  V30 2680 C 243.97 -0.410364 -1.91247 0
M  V30 2681 O 245.176 -0.430854 -2.68059 0
M  V30 2682 C 243.632 -2.9449 -2.06891 0
M  V30 2683 C 243.24 -4.27266 -1.34714 0
M  V30 2684 C 244.984 -3.17899 -2.81319 0
M  V30 2685 C 242.891 -5.46217 -2.26717 0
M  V30 2686 H 241.821 -0.62084 -0.427871 0
M  V30 2687 H 244.472 -1.791 -0.399428 0
M  V30 2688 H 242.854 -2.75774 -2.84191 0
M  V30 2689 H 244.028 -4.56518 -0.626714 0
M  V30 2690 H 242.343 -4.10081 -0.722643 0
M  V30 2691 H 244.94 -4.03949 -3.50328 0
M  V30 2692 H 245.283 -2.32777 -3.45139 0
M  V30 2693 H 245.816 -3.37159 -2.11113 0
M  V30 2694 H 242.555 -6.33733 -1.67521 0
M  V30 2695 H 242.075 -5.21283 -2.96689 0
M  V30 2696 H 243.754 -5.7991 -2.86903 0
M  V30 2697 N 243.887 0.651787 -1.4349 0
M  V30 2698 C 244.82 1.77668 -1.43211 0
M  V30 2699 C 245.798 1.59931 -0.29338 0
M  V30 2700 O 246.982 1.82095 -0.487191 0
M  V30 2701 C 244.109 3.14986 -1.24505 0
M  V30 2702 C 243.155 3.51421 -2.41673 0
M  V30 2703 S 243.988 3.51234 -4.04222 0
M  V30 2704 C 245.144 4.91206 -3.87902 0
M  V30 2705 H 245.377 1.77635 -2.38397 0
M  V30 2706 H 242.91 0.824558 -1.30539 0
M  V30 2707 H 244.868 3.94237 -1.144 0
M  V30 2708 H 243.529 3.1258 -0.308651 0
M  V30 2709 H 242.722 4.51291 -2.24393 0
M  V30 2710 H 242.324 2.79585 -2.48411 0
M  V30 2711 H 244.616 5.79902 -3.50315 0
M  V30 2712 H 245.559 5.13537 -4.8753 0
M  V30 2713 H 245.967 4.64808 -3.20334 0
M  V30 2714 N 245.365 1.30045 0.890287 0
M  V30 2715 C 246.613 1.18327 1.63839 0
M  V30 2716 C 246.934 -0.263455 1.93212 0
M  V30 2717 O 246.204 -1.17856 1.56482 0
M  V30 2718 H 244.784 0.434933 0.607324 0
M  V30 2719 H 247.446 1.631 1.06698 0
M  V30 2720 H 246.542 1.74024 2.59079 0
M  V30 2721 N 246.843 -1.10192 1.12674 0
M  V30 2722 C 247.773 -2.18652 0.819362 0
M  V30 2723 C 248.754 -1.68698 -0.217915 0
M  V30 2724 O 249.939 -1.94041 -0.0785581 0
M  V30 2725 C 247.069 -3.46202 0.27594 0
M  V30 2726 C 246.023 -4.09444 1.24656 0
M  V30 2727 C 245.349 -5.31725 0.563258 0
M  V30 2728 C 246.649 -4.52863 2.60217 0
M  V30 2729 H 248.343 -2.44622 1.72628 0
M  V30 2730 H 245.889 -1.17571 0.831451 0
M  V30 2731 H 247.842 -4.21372 0.0486149 0
M  V30 2732 H 246.566 -3.1973 -0.666331 0
M  V30 2733 H 245.225 -3.36284 1.45974 0
M  V30 2734 H 244.873 -5.0153 -0.384235 0
M  V30 2735 H 244.573 -5.74991 1.21075 0
M  V30 2736 H 246.097 -6.09624 0.34503 0
M  V30 2737 H 247.511 -5.19294 2.42913 0
M  V30 2738 H 245.908 -5.06986 3.21068 0
M  V30 2739 H 246.978 -3.65656 3.18471 0
M  V30 2740 N 248.321 -0.919034 -1.28029 0
M  V30 2741 C 249.569 -0.553838 -1.94363 0
M  V30 2742 C 249.89 0.906357 -1.72656 0
M  V30 2743 O 249.16 1.64143 -1.0693 0
M  V30 2744 H 247.74 -0.201834 -0.719216 0
M  V30 2745 H 250.402 -1.16954 -1.55909 0
M  V30 2746 H 249.498 -0.752758 -3.02886 0
M  V30 2747 N 249.799 1.42003 -0.683588 0
M  V30 2748 C 250.762 2.29191 -0.0198243 0
M  V30 2749 C 251.762 1.43773 0.72013 0
M  V30 2750 O 252.952 1.65061 0.556815 0
M  V30 2751 C 250.084 3.26435 0.982487 0
M  V30 2752 H 251.277 2.8938 -0.787345 0
M  V30 2753 H 248.83 1.49789 -0.446418 0
M  V30 2754 H 249.565 2.71203 1.77819 0
M  V30 2755 H 249.35 3.89449 0.455182 0
M  V30 2756 H 250.84 3.918 1.44508 0
M  V30 2757 N 251.277 0.427512 1.51691 0
M  V30 2758 C 252.524 -0.142229 2.02 0
M  V30 2759 C 252.852 -1.43566 1.31221 0
M  V30 2760 O 252.107 -1.91298 0.412744 0
M  V30 2761 C 252.406 -0.418249 3.54944 0
M  V30 2762 C 252.072 0.788187 4.43958 0
M  V30 2763 C 250.734 1.11906 4.68007 0
M  V30 2764 C 253.086 1.59347 4.96244 0
M  V30 2765 C 250.414 2.25608 5.41588 0
M  V30 2766 C 252.766 2.7214 5.71072 0
M  V30 2767 C 251.43 3.05692 5.93387 0
M  V30 2768 H 250.7 -0.0520451 0.73917 0
M  V30 2769 H 253.347 0.572697 1.82736 0
M  V30 2770 H 251.652 -1.21496 3.72486 0
M  V30 2771 H 253.349 -0.872339 3.91397 0
M  V30 2772 H 249.939 0.520344 4.2543 0
M  V30 2773 H 254.123 1.35106 4.77556 0
M  V30 2774 H 249.379 2.51929 5.57083 0
M  V30 2775 H 253.553 3.34914 6.10578 0
M  V30 2776 H 251.18 3.9391 6.50184 0
M  V30 2777 N 252.755 -1.56801 0.158532 0
M  V30 2778 C 253.995 -1.98383 -0.49229 0
M  V30 2779 C 254.359 -1.04184 -1.61275 0
M  V30 2780 O 255.56 -1.34856 -2.32524 0
M  V30 2781 C 253.831 -3.4385 -0.974766 0
M  V30 2782 S 255.39 -4.07459 -1.62857 0
M  V30 2783 H 252.208 -0.693041 -0.158794 0
M  V30 2784 H 254.81 -1.93856 0.252974 0
M  V30 2785 H 253.514 -4.10131 -0.148688 0
M  V30 2786 H 253.045 -3.52115 -1.75438 0
M  V30 2787 H 255.06 -4.01458 -2.91627 0
M  V30 2788 N 254.233 0.115231 -1.57178 0
M  V30 2789 C 255.181 1.16014 -2.01602 0
M  V30 2790 C 256.175 1.42653 -0.913587 0
M  V30 2791 O 257.381 1.42571 -1.09879 0
M  V30 2792 H 253.756 0.391252 -0.642204 0
M  V30 2793 H 255.727 0.758998 -2.88586 0
M  V30 2794 C 254.476 2.47767 -2.4394 0
M  V30 2795 H 253.799 2.28108 -3.28339 0
M  V30 2796 H 255.239 3.19432 -2.78818 0
M  V30 2797 C 253.698 3.10617 -1.30455 0
M  V30 2798 O 254.228 3.96846 -0.622585 0
M  V30 2799 N 252.434 2.70553 -1.06064 0
M  V30 2800 H 251.981 2.00527 -1.61699 0
M  V30 2801 H 251.939 3.12934 -0.303284 0
M  V30 2802 N 255.711 1.52812 0.385517 0
M  V30 2803 C 256.958 1.68026 1.1302 0
M  V30 2804 C 257.286 0.421934 1.89868 0
M  V30 2805 O 256.541 -0.595749 1.86412 0
M  V30 2806 C 256.84 2.86856 2.13187 0
M  V30 2807 C 256.506 4.24159 1.5297 0
M  V30 2808 C 255.168 4.61501 1.36274 0
M  V30 2809 C 257.52 5.09627 1.09223 0
M  V30 2810 C 254.848 5.81966 0.743837 0
M  V30 2811 C 257.2 6.30719 0.487411 0
M  V30 2812 C 255.864 6.6679 0.307777 0
M  V30 2813 H 255.134 0.614849 0.413571 0
M  V30 2814 H 257.781 1.86962 0.414405 0
M  V30 2815 H 256.086 2.6235 2.90998 0
M  V30 2816 H 257.783 2.95821 2.70722 0
M  V30 2817 H 254.373 3.94746 1.66954 0
M  V30 2818 H 258.557 4.81343 1.20922 0
M  V30 2819 H 253.813 6.08519 0.592891 0
M  V30 2820 H 257.987 6.96259 0.140143 0
M  V30 2821 H 255.614 7.60001 -0.173879 0
M  V30 2822 N 257.189 -0.644168 1.43834 0
M  V30 2823 C 258.414 -1.43642 1.49605 0
M  V30 2824 C 258.839 -1.8773 0.117913 0
M  V30 2825 O 258.197 -1.57938 -0.890239 0
M  V30 2826 C 258.245 -2.6416 2.45463 0
M  V30 2827 O 257.349 -3.63538 1.94714 0
M  V30 2828 H 256.69 -0.430329 0.50568 0
M  V30 2829 H 259.22 -0.787448 1.8884 0
M  V30 2830 H 259.23 -3.11864 2.63068 0
M  V30 2831 H 257.905 -2.31414 3.45572 0
M  V30 2832 H 256.482 -3.2273 1.86814 0
M  V30 2833 N 258.668 -1.30515 -0.883378 0
M  V30 2834 C 259.896 -1.22359 -1.66841 0
M  V30 2835 C 260.311 0.213296 -1.87591 0
M  V30 2836 O 259.668 1.14075 -1.42454 0
M  V30 2837 C 259.719 -1.95011 -3.04389 0
M  V30 2838 O 259.44 -3.3309 -2.84575 0
M  V30 2839 C 260.941 -1.93532 -3.98824 0
M  V30 2840 H 258.161 -0.423371 -0.520575 0
M  V30 2841 H 260.705 -1.72167 -1.10357 0
M  V30 2842 H 258.86 -1.48997 -3.57601 0
M  V30 2843 H 259.274 -3.69907 -3.71846 0
M  V30 2844 H 260.748 -2.48902 -4.92699 0
M  V30 2845 H 261.225 -0.914627 -4.29571 0
M  V30 2846 H 261.831 -2.39364 -3.51547 0
M  V30 2847 N 260.146 1.09593 -1.13257 0
M  V30 2848 C 261.056 2.19739 -0.821691 0
M  V30 2849 C 262.072 1.72926 0.19302 0
M  V30 2850 O 263.248 2.01385 0.0244895 0
M  V30 2851 C 260.313 3.45482 -0.290333 0
M  V30 2852 C 259.374 4.06985 -1.36607 0
M  V30 2853 C 258.607 5.26726 -0.859975 0
M  V30 2854 O 258.83 5.69594 0.303082 0
M  V30 2855 O 257.764 5.7931 -1.63351 0
M  V30 2856 H 261.59 2.48781 -1.74189 0
M  V30 2857 H 259.175 1.18496 -0.909894 0
M  V30 2858 H 261.057 4.214 0.000674022 0
M  V30 2859 H 259.732 3.18047 0.602306 0
M  V30 2860 H 258.639 3.32712 -1.71037 0
M  V30 2861 H 259.972 4.38643 -2.23279 0
M  V30 2862 N 261.624 0.925811 1.2754 0
M  V30 2863 C 262.587 0.428129 2.25166 0
M  V30 2864 C 263.587 -0.452261 1.54309 0
M  V30 2865 O 264.777 -0.253608 1.72344 0
M  V30 2866 C 261.909 -0.384749 3.38722 0
M  V30 2867 H 263.102 1.29066 2.70706 0
M  V30 2868 H 260.655 0.706323 1.3943 0
M  V30 2869 H 261.39 -1.26618 2.98561 0
M  V30 2870 H 261.175 0.246454 3.91325 0
M  V30 2871 H 262.665 -0.723389 4.11287 0
M  V30 2872 N 263.102 -1.41638 0.69111 0
M  V30 2873 C 264.33 -2.05628 0.22909 0
M  V30 2874 C 264.745 -1.51992 -1.11999 0
M  V30 2875 O 264.102 -0.666322 -1.69901 0
M  V30 2876 C 264.153 -3.61084 0.173283 0
M  V30 2877 O 263.874 -4.12735 1.46907 0
M  V30 2878 C 265.375 -4.42213 -0.310266 0
M  V30 2879 H 262.595 -0.662327 0.107534 0
M  V30 2880 H 265.139 -1.81489 0.942438 0
M  V30 2881 H 263.294 -3.84278 -0.490858 0
M  V30 2882 H 263.708 -5.06743 1.35322 0
M  V30 2883 H 265.182 -5.51194 -0.298196 0
M  V30 2884 H 265.659 -4.1799 -1.34838 0
M  V30 2885 H 266.265 -4.24074 0.322716 0
M  V30 2886 N 264.58 -0.43555 -1.51462 0
M  V30 2887 C 265.49 0.383001 -2.31453 0
M  V30 2888 C 266.506 1.02931 -1.4029 0
M  V30 2889 O 267.682 1.02507 -1.73362 0
M  V30 2890 C 264.747 1.47043 -3.13973 0
M  V30 2891 C 263.808 0.844433 -4.20913 0
M  V30 2892 C 263.041 1.88004 -4.9949 0
M  V30 2893 O 263.264 3.10199 -4.78678 0
M  V30 2894 O 262.198 1.47157 -5.83634 0
M  V30 2895 H 266.024 -0.269964 -3.02498 0
M  V30 2896 H 263.609 -0.19813 -1.4808 0
M  V30 2897 H 265.491 2.10113 -3.65281 0
M  V30 2898 H 264.166 2.10751 -2.45695 0
M  V30 2899 H 263.073 0.175729 -3.73687 0
M  V30 2900 H 264.406 0.250869 -4.9156 0
M  V30 2901 N 266.058 1.56714 -0.166846 0
M  V30 2902 C 267.304 1.97039 0.479962 0
M  V30 2903 C 267.637 1.05264 1.63197 0
M  V30 2904 O 266.912 0.0988833 1.94248 0
M  V30 2905 C 267.195 3.46867 0.967212 0
M  V30 2906 C 267.048 4.49421 -0.18466 0
M  V30 2907 C 268.367 3.9968 1.84238 0
M  V30 2908 H 265.486 0.71641 0.172992 0
M  V30 2909 H 268.128 1.8832 -0.252079 0
M  V30 2910 H 266.278 3.54428 1.59101 0
M  V30 2911 H 267.95 4.53924 -0.821621 0
M  V30 2912 H 266.193 4.25573 -0.840837 0
M  V30 2913 H 266.864 5.51644 0.198317 0
M  V30 2914 H 269.34 3.94723 1.31655 0
M  V30 2915 H 268.216 5.04941 2.15234 0
M  V30 2916 H 268.477 3.43226 2.78654 0
M  V30 2917 N 267.536 -0.106894 1.57237 0
M  V30 2918 C 268.761 -0.830287 1.90055 0
M  V30 2919 C 269.186 -1.72064 0.75998 0
M  V30 2920 O 268.544 -1.78982 -0.288991 0
M  V30 2921 C 268.592 -1.6295 3.21683 0
M  V30 2922 O 267.696 -2.73748 3.08441 0
M  V30 2923 H 267.037 -0.228855 0.623315 0
M  V30 2924 H 269.567 -0.085658 2.04421 0
M  V30 2925 H 269.577 -2.01621 3.54701 0
M  V30 2926 H 268.252 -0.975989 4.04286 0
M  V30 2927 H 266.829 -2.38192 2.86913 0
M  V30 2928 N 269.014 -1.53014 -0.377408 0
M  V30 2929 C 269.961 -1.78616 -1.46168 0
M  V30 2930 C 270.931 -0.629917 -1.53692 0
M  V30 2931 O 272.116 -0.870861 -1.69766 0
M  V30 2932 C 269.256 -1.97123 -2.8326 0
M  V30 2933 C 268.369 -3.24831 -2.84796 0
M  V30 2934 C 267.504 -3.33591 -4.13389 0
M  V30 2935 C 266.543 -4.55377 -4.09021 0
M  V30 2936 N 265.68 -4.61355 -5.29241 0
M  V30 2937 H 270.52 -2.71142 -1.23637 0
M  V30 2938 H 268.057 -1.34326 -0.599577 0
M  V30 2939 H 270.015 -2.05839 -3.62886 0
M  V30 2940 H 268.645 -1.07946 -3.04216 0
M  V30 2941 H 267.697 -3.25128 -1.97474 0
M  V30 2942 H 269.009 -4.14523 -2.77439 0
M  V30 2943 H 268.163 -3.41554 -5.01424 0
M  V30 2944 H 266.902 -2.41894 -4.23484 0
M  V30 2945 H 265.907 -4.47527 -3.19373 0
M  V30 2946 H 267.132 -5.48402 -4.00539 0
M  V30 2947 H 265.078 -3.72554 -5.39944 0
M  V30 2948 H 264.995 -5.44935 -5.24006 0
M  V30 2949 H 266.263 -4.73586 -6.19141 0
M  V30 2950 N 270.492 0.636531 -1.44174 0
M  V30 2951 C 271.439 1.74875 -1.50624 0
M  V30 2952 C 272.409 1.62275 -0.35442 0
M  V30 2953 O 273.594 1.82276 -0.563908 0
M  V30 2954 C 270.734 3.13102 -1.45125 0
M  V30 2955 C 269.847 3.36717 -2.7064 0
M  V30 2956 C 268.982 4.64885 -2.57013 0
M  V30 2957 C 268.021 4.8166 -3.77717 0
M  V30 2958 N 267.158 6.01101 -3.62798 0
M  V30 2959 H 271.998 1.68697 -2.45653 0
M  V30 2960 H 269.535 0.823004 -1.21922 0
M  V30 2961 H 271.493 3.93034 -1.39929 0
M  V30 2962 H 270.123 3.18308 -0.536671 0
M  V30 2963 H 269.175 2.50763 -2.86046 0
M  V30 2964 H 270.487 3.44993 -3.60252 0
M  V30 2965 H 269.641 5.52969 -2.49619 0
M  V30 2966 H 268.38 4.58957 -1.64953 0
M  V30 2967 H 267.385 3.92007 -3.85501 0
M  V30 2968 H 268.61 4.89406 -4.70807 0
M  V30 2969 H 266.556 5.96273 -2.73486 0
M  V30 2970 H 266.473 6.10409 -4.46023 0
M  V30 2971 H 267.741 6.91761 -3.59286 0
M  V30 2972 N 271.97 1.30982 0.876444 0
M  V30 2973 C 273.217 1.20296 1.62896 0
M  V30 2974 C 273.545 -0.240395 1.93009 0
M  V30 2975 O 272.8 -1.18733 1.55567 0
M  V30 2976 C 273.099 1.98572 2.9716 0
M  V30 2977 C 272.765 3.48125 2.86566 0
M  V30 2978 C 271.427 3.88905 2.83383 0
M  V30 2979 C 273.779 4.43322 2.74071 0
M  V30 2980 C 271.107 5.2316 2.65556 0
M  V30 2981 C 273.459 5.77695 2.57781 0
M  V30 2982 C 272.123 6.17704 2.52979 0
M  V30 2983 H 271.393 0.440193 0.59608 0
M  V30 2984 H 274.04 1.62177 1.01837 0
M  V30 2985 H 272.345 1.49352 3.62217 0
M  V30 2986 H 274.042 1.8769 3.54364 0
M  V30 2987 H 270.632 3.15723 2.89856 0
M  V30 2988 H 274.816 4.12752 2.75589 0
M  V30 2989 H 270.072 5.53241 2.60259 0
M  V30 2990 H 274.246 6.51091 2.47089 0
M  V30 2991 H 271.873 7.21678 2.38924 0
M  V30 2992 N 273.449 -1.08991 1.13837 0
M  V30 2993 C 274.86 -1.62746 0.914917 0
M  V30 2994 C 275.211 -1.88403 -0.547594 0
M  V30 2995 O 274.336 -1.63706 -1.41525 0
M  V30 2996 C 274.931 -2.95662 1.65437 0
M  V30 2997 C 273.49 -3.46225 1.47666 0
M  V30 2998 C 272.637 -2.20562 1.6807 0
M  V30 2999 H 275.588 -0.922946 1.29102 0
M  V30 3000 H 275.609 -3.63825 1.11407 0
M  V30 3001 H 275.121 -2.76956 2.71877 0
M  V30 3002 H 273.222 -3.70046 0.435478 0
M  V30 3003 H 273.335 -4.23368 2.24268 0
M  V30 3004 H 271.699 -2.29439 1.10589 0
M  V30 3005 H 272.482 -2.0437 2.7584 0
M  V30 3006 N 274.927 -0.932562 -1.27047 0
M  V30 3007 C 276.175 -0.574422 -1.93765 0
M  V30 3008 C 276.496 0.887993 -1.73608 0
M  V30 3009 O 275.766 1.62999 -1.08665 0
M  V30 3010 H 274.346 -0.209451 -0.717035 0
M  V30 3011 H 277.008 -1.18601 -1.5466 0
M  V30 3012 H 276.104 -0.784841 -3.02071 0
M  V30 3013 N 276.405 1.4127 -0.698611 0
M  V30 3014 C 277.654 2.00408 -0.227949 0
M  V30 3015 C 277.967 1.55981 1.18023 0
M  V30 3016 O 279.173 2.07699 1.74852 0
M  V30 3017 C 277.629 3.58129 -0.356636 0
M  V30 3018 C 277.237 4.11536 -1.77037 0
M  V30 3019 C 278.981 4.24466 0.0540969 0
M  V30 3020 C 276.888 5.61701 -1.85055 0
M  V30 3021 H 275.818 0.749586 -0.0814657 0
M  V30 3022 H 278.469 1.61713 -0.867249 0
M  V30 3023 H 276.851 3.94442 0.350965 0
M  V30 3024 H 278.025 3.86636 -2.50698 0
M  V30 3025 H 276.34 3.57736 -2.13105 0
M  V30 3026 H 278.937 5.34698 0.0146723 0
M  V30 3027 H 279.28 4.01687 1.09332 0
M  V30 3028 H 279.813 3.93198 -0.603337 0
M  V30 3029 H 276.552 5.89312 -2.8704 0
M  V30 3030 H 276.072 5.88519 -1.15783 0
M  V30 3031 H 277.751 6.26524 -1.61484 0
M  V30 3032 N 277.883 0.443576 1.51229 0
M  V30 3033 C 279.299 0.0962001 1.5931 0
M  V30 3034 C 279.499 -1.39501 1.45402 0
M  V30 3035 O 278.555 -2.16557 1.29843 0
M  V30 3036 C 279.868 0.621875 2.94199 0
M  V30 3037 C 281.416 0.582865 3.07525 0
M  V30 3038 C 281.891 1.08562 4.44948 0
M  V30 3039 N 283.382 1.04387 4.51284 0
M  V30 3040 C 284.117 1.40368 5.55954 0
M  V30 3041 N 283.613 1.83664 6.68011 0
M  V30 3042 N 285.406 1.32145 5.46346 0
M  V30 3043 H 277.557 1.41376 1.58514 0
M  V30 3044 H 279.82 0.582965 0.747567 0
M  V30 3045 H 279.526 1.66546 3.09767 0
M  V30 3046 H 279.4 0.0502125 3.77167 0
M  V30 3047 H 281.787 -0.451749 2.91622 0
M  V30 3048 H 281.868 1.191 2.26382 0
M  V30 3049 H 281.512 2.11873 4.61598 0
M  V30 3050 H 281.442 0.453956 5.2464 0
M  V30 3051 H 283.933 0.725986 3.70861 0
M  V30 3052 H 284.246 2.0934 7.43906 0
M  V30 3053 H 282.591 1.87596 6.69203 0
M  V30 3054 H 285.782 0.981808 4.57688 0
M  V30 3055 H 285.955 1.60514 6.27805 0
M  V30 3056 N 279.361 -1.56624 0.175154 0
M  V30 3057 C 280.772 -1.83561 -0.340916 0
M  V30 3058 C 281.123 -1.09511 -1.62794 0
M  V30 3059 O 280.248 -0.349389 -2.13561 0
M  V30 3060 C 280.843 -3.32979 -0.625313 0
M  V30 3061 C 279.402 -3.60399 -1.08581 0
M  V30 3062 C 278.549 -2.77024 -0.123722 0
M  V30 3063 H 281.5 -1.53593 0.399344 0
M  V30 3064 H 281.521 -3.50666 -1.47694 0
M  V30 3065 H 281.033 -3.86847 0.311575 0
M  V30 3066 H 279.134 -3.11945 -2.03767 0
M  V30 3067 H 279.247 -4.68711 -0.992317 0
M  V30 3068 H 277.611 -2.46993 -0.621821 0
M  V30 3069 H 278.394 -3.33674 0.807256 0
M  V30 3070 N 280.839 0.0985539 -1.57292 0
M  V30 3071 C 282.069 0.815135 -1.8984 0
M  V30 3072 C 282.477 1.7297 -0.766679 0
M  V30 3073 O 281.82 1.81698 0.270483 0
M  V30 3074 C 281.882 1.6842 -3.17608 0
M  V30 3075 C 281.546 0.94182 -4.4719 0
M  V30 3076 C 282.543 0.273212 -5.19182 0
M  V30 3077 C 280.228 0.916927 -4.9386 0
M  V30 3078 C 282.222 -0.410361 -6.36078 0
M  V30 3079 C 279.909 0.229567 -6.10669 0
M  V30 3080 C 280.907 -0.432902 -6.81627 0
M  V30 3081 O 280.595 -1.10925 -7.9621 0
M  V30 3082 H 280.327 0.238501 -0.632529 0
M  V30 3083 H 282.881 0.0812659 -2.05239 0
M  V30 3084 H 281.111 2.46022 -2.98345 0
M  V30 3085 H 282.8 2.27704 -3.36015 0
M  V30 3086 H 283.566 0.283927 -4.84168 0
M  V30 3087 H 279.445 1.42201 -4.3852 0
M  V30 3088 H 282.989 -0.928013 -6.914 0
M  V30 3089 H 278.886 0.216686 -6.45136 0
M  V30 3090 H 279.654 -1.01579 -8.12172 0
M  V30 3091 N 282.317 1.53212 0.369288 0
M  V30 3092 C 283.247 1.82365 1.45826 0
M  V30 3093 C 284.228 0.676907 1.56051 0
M  V30 3094 O 285.413 0.926401 1.70679 0
M  V30 3095 C 282.543 2.01023 2.83208 0
M  V30 3096 C 281.497 3.1678 2.8781 0
M  V30 3097 C 280.823 3.20724 4.27832 0
M  V30 3098 C 282.123 4.55447 2.55667 0
M  V30 3099 H 283.817 2.73559 1.21678 0
M  V30 3100 H 281.363 1.3163 0.583911 0
M  V30 3101 H 283.316 2.20001 3.59413 0
M  V30 3102 H 282.04 1.06536 3.08736 0
M  V30 3103 H 280.699 2.97616 2.14056 0
M  V30 3104 H 280.347 2.23882 4.50429 0
M  V30 3105 H 280.047 3.98496 4.31827 0
M  V30 3106 H 281.571 3.41881 5.05915 0
M  V30 3107 H 282.985 4.74611 3.21586 0
M  V30 3108 H 281.382 5.35432 2.70984 0
M  V30 3109 H 282.452 4.60812 1.5093 0
M  V30 3110 N 283.795 -0.628877 1.44509 0
M  V30 3111 C 284.758 -1.72263 1.51188 0
M  V30 3112 C 285.758 -1.55907 0.39367 0
M  V30 3113 O 286.948 -1.61361 0.656377 0
M  V30 3114 C 284.08 -3.11365 1.38798 0
M  V30 3115 H 285.273 -1.67714 2.4862 0
M  V30 3116 H 282.826 -0.842737 1.31634 0
M  V30 3117 H 283.561 -3.21507 0.424693 0
M  V30 3118 H 283.346 -3.24644 2.19884 0
M  V30 3119 H 284.836 -3.91075 1.46458 0
M  V30 3120 N 285.273 -1.31445 -0.869486 0
M  V30 3121 C 286.501 -1.24122 -1.65534 0
M  V30 3122 C 286.916 0.193387 -1.87807 0
M  V30 3123 O 286.273 1.12557 -1.43656 0
M  V30 3124 C 286.324 -1.98229 -3.02304 0
M  V30 3125 O 286.045 -3.3609 -2.81026 0
M  V30 3126 C 287.546 -1.97751 -3.96749 0
M  V30 3127 H 284.766 -0.428868 -0.516055 0
M  V30 3128 H 287.31 -1.73328 -1.08525 0
M  V30 3129 H 285.465 -1.52782 -3.56001 0
M  V30 3130 H 285.879 -3.7383 -3.67902 0
M  V30 3131 H 287.353 -2.54114 -4.90031 0
M  V30 3132 H 287.83 -0.960137 -4.28577 0
M  V30 3133 H 288.436 -2.43079 -3.48988 0
M  V30 3134 N 286.751 1.08385 -1.14413 0
M  V30 3135 C 287.681 2.17321 -0.854044 0
M  V30 3136 C 288.662 1.69024 0.191049 0
M  V30 3137 O 289.847 1.94141 0.0476779 0
M  V30 3138 C 286.977 3.45719 -0.330983 0
M  V30 3139 C 285.931 4.07409 -1.31155 0
M  V30 3140 C 285.257 5.30762 -0.64778 0
M  V30 3141 C 286.557 4.48665 -2.67388 0
M  V30 3142 H 288.251 2.41845 -1.76498 0
M  V30 3143 H 285.797 1.16233 -0.850051 0
M  V30 3144 H 287.75 4.21241 -0.115645 0
M  V30 3145 H 286.474 3.2075 0.615381 0
M  V30 3146 H 285.133 3.33919 -1.51306 0
M  V30 3147 H 284.781 5.02078 0.304398 0
M  V30 3148 H 284.481 5.72992 -1.30207 0
M  V30 3149 H 286.005 6.08998 -0.441972 0
M  V30 3150 H 287.419 5.15364 -2.51143 0
M  V30 3151 H 285.816 5.01814 -3.29093 0
M  V30 3152 H 286.886 3.60543 -3.24248 0
M  V30 3153 N 288.23 0.939286 1.26551 0
M  V30 3154 C 289.193 0.451987 2.24699 0
M  V30 3155 C 290.193 -0.435869 1.5478 0
M  V30 3156 O 291.383 -0.235314 1.72603 0
M  V30 3157 C 288.515 -0.348801 3.39111 0
M  V30 3158 H 289.708 1.3193 2.69322 0
M  V30 3159 H 287.261 0.721072 1.38673 0
M  V30 3160 H 287.996 -1.23444 2.99887 0
M  V30 3161 H 287.781 0.287945 3.91041 0
M  V30 3162 H 289.271 -0.679726 4.12031 0
M  V30 3163 N 289.708 -1.40897 0.706093 0
M  V30 3164 C 290.956 -2.00657 0.241054 0
M  V30 3165 C 291.277 -1.56241 -1.16678 0
M  V30 3166 O 290.547 -0.79765 -1.78926 0
M  V30 3167 H 289.127 -0.742018 0.0861308 0
M  V30 3168 H 291.789 -1.72372 0.909604 0
M  V30 3169 H 290.885 -3.10958 0.266705 0
M  V30 3170 N 291.186 -0.45159 -1.50991 0
M  V30 3171 C 292.134 0.366864 -2.29689 0
M  V30 3172 C 293.128 1.00809 -1.36139 0
M  V30 3173 O 294.334 0.941427 -1.53418 0
M  V30 3174 H 290.709 0.137133 -0.739391 0
M  V30 3175 H 292.68 -0.317538 -2.96706 0
M  V30 3176 C 291.429 1.44751 -3.16137 0
M  V30 3177 H 290.752 0.963473 -3.88017 0
M  V30 3178 H 292.192 1.99315 -3.74232 0
M  V30 3179 C 290.651 2.43869 -2.32442 0
M  V30 3180 O 291.181 3.4872 -1.99392 0
M  V30 3181 N 289.387 2.15105 -1.95392 0
M  V30 3182 H 288.934 1.29866 -2.22469 0
M  V30 3183 H 288.892 2.81661 -1.39693 0
M  V30 3184 N 292.664 1.56529 -0.183458 0
M  V30 3185 C 293.911 1.97244 0.458357 0
M  V30 3186 C 294.239 1.06992 1.62428 0
M  V30 3187 O 293.494 0.106542 1.9541 0
M  V30 3188 C 293.793 3.43939 0.971637 0
M  V30 3189 C 293.459 4.5083 -0.0796784 0
M  V30 3190 C 292.121 4.79786 -0.368584 0
M  V30 3191 C 294.473 5.15138 -0.792638 0
M  V30 3192 C 291.801 5.70345 -1.37563 0
M  V30 3193 C 294.153 6.06784 -1.78875 0
M  V30 3194 C 292.817 6.34102 -2.08497 0
M  V30 3195 H 292.087 0.721768 0.167725 0
M  V30 3196 H 294.734 1.89472 -0.277976 0
M  V30 3197 H 293.039 3.48724 1.78602 0
M  V30 3198 H 294.736 3.72791 1.47744 0
M  V30 3199 H 291.326 4.28317 0.155668 0
M  V30 3200 H 295.51 4.92868 -0.582659 0
M  V30 3201 H 290.766 5.89789 -1.61118 0
M  V30 3202 H 294.94 6.55677 -2.3465 0
M  V30 3203 H 292.567 7.04074 -2.86678 0
M  V30 3204 N 294.142 -0.090211 1.57342 0
M  V30 3205 C 295.558 -0.444547 1.53284 0
M  V30 3206 C 295.758 -1.80238 0.900914 0
M  V30 3207 O 294.814 -2.4759 0.495513 0
M  V30 3208 C 296.127 -0.402543 2.97993 0
M  V30 3209 C 297.675 -0.48405 3.09234 0
M  V30 3210 C 298.15 -0.472144 4.5556 0
M  V30 3211 N 299.641 -0.532757 4.60126 0
M  V30 3212 C 300.376 -0.545462 5.708 0
M  V30 3213 N 299.872 -0.514082 6.9089 0
M  V30 3214 N 301.665 -0.59064 5.58988 0
M  V30 3215 H 293.816 0.799121 1.96794 0
M  V30 3216 H 296.079 0.297965 0.899956 0
M  V30 3217 H 295.785 0.528106 3.47712 0
M  V30 3218 H 295.659 -1.21969 3.56936 0
M  V30 3219 H 298.046 -1.40512 2.595 0
M  V30 3220 H 298.127 0.361328 2.53235 0
M  V30 3221 H 297.771 0.445 5.05947 0
M  V30 3222 H 297.701 -1.3348 5.09402 0
M  V30 3223 H 300.192 -0.562006 3.73698 0
M  V30 3224 H 300.505 -0.527195 7.71 0
M  V30 3225 H 298.85 -0.481054 6.93333 0
M  V30 3226 H 302.041 -0.61272 4.64073 0
M  V30 3227 H 302.214 -0.597073 6.45243 0
M  V30 3228 N 295.62 -1.53406 -0.361157 0
M  V30 3229 C 296.553 -1.74946 -1.46524 0
M  V30 3230 C 297.531 -0.59795 -1.51206 0
M  V30 3231 O 298.715 -0.831062 -1.69191 0
M  V30 3232 C 295.842 -1.83224 -2.84863 0
M  V30 3233 C 294.888 -3.05233 -2.97885 0
M  V30 3234 S 295.721 -4.6466 -2.66179 0
M  V30 3235 C 296.877 -4.75793 -4.06659 0
M  V30 3236 H 297.11 -2.68319 -1.28033 0
M  V30 3237 H 294.643 -1.44051 -0.555764 0
M  V30 3238 H 296.601 -1.88679 -3.64569 0
M  V30 3239 H 295.262 -0.908948 -3.00661 0
M  V30 3240 H 294.455 -3.07648 -3.9921 0
M  V30 3241 H 294.057 -2.97913 -2.26106 0
M  V30 3242 H 296.349 -4.5612 -5.0096 0
M  V30 3243 H 297.292 -5.7786 -4.09247 0
M  V30 3244 H 297.7 -4.04389 -3.93865 0
M  V30 3245 N 297.098 0.621204 -1.44841 0
M  V30 3246 C 298.509 1.20298 -1.42777 0
M  V30 3247 C 298.86 1.95639 -0.148259 0
M  V30 3248 O 297.985 2.02955 0.750892 0
M  V30 3249 C 298.58 2.1882 -2.58657 0
M  V30 3250 C 297.139 2.72403 -2.59756 0
M  V30 3251 C 296.286 1.4757 -2.34773 0
M  V30 3252 H 299.237 0.411297 -1.53278 0
M  V30 3253 H 299.258 3.01607 -2.31977 0
M  V30 3254 H 298.77 1.63957 -3.51766 0
M  V30 3255 H 296.871 3.31242 -1.70615 0
M  V30 3256 H 296.984 3.17765 -3.58556 0
M  V30 3257 H 295.348 1.76051 -1.8406 0
M  V30 3258 H 296.131 0.945954 -3.3001 0
M  V30 3259 N 298.576 1.31904 0.862503 0
M  V30 3260 C 299.822 1.22197 1.61851 0
M  V30 3261 C 300.155 -0.217641 1.92977 0
M  V30 3262 O 299.43 -1.15264 1.56666 0
M  V30 3263 C 299.713 2.07378 2.94391 0
M  V30 3264 C 299.566 3.59678 2.70096 0
M  V30 3265 C 300.885 1.92891 3.95577 0
M  V30 3266 H 298.004 0.445255 0.587296 0
M  V30 3267 H 300.646 1.6177 0.99651 0
M  V30 3268 H 298.796 1.73758 3.47477 0
M  V30 3269 H 300.468 4.03472 2.23625 0
M  V30 3270 H 298.711 3.82735 2.04197 0
M  V30 3271 H 299.382 4.14595 3.64438 0
M  V30 3272 H 301.858 2.22327 3.51724 0
M  V30 3273 H 300.734 2.54781 4.86187 0
M  V30 3274 H 300.995 0.894315 4.3296 0
M  V30 3275 N 300.054 -1.07777 1.14986 0
M  V30 3276 C 300.984 -2.16865 0.865557 0
M  V30 3277 C 301.965 -1.69123 -0.182083 0
M  V30 3278 O 303.15 -1.94164 -0.0373815 0
M  V30 3279 C 300.28 -3.45539 0.349313 0
M  V30 3280 C 299.234 -4.06708 1.33313 0
M  V30 3281 C 298.56 -5.30411 0.675918 0
M  V30 3282 C 299.86 -4.47241 2.69764 0
M  V30 3283 H 301.554 -2.40905 1.77778 0
M  V30 3284 H 299.1 -1.15781 0.856203 0
M  V30 3285 H 301.053 -4.21174 0.137983 0
M  V30 3286 H 299.777 -3.21072 -0.598362 0
M  V30 3287 H 298.436 -3.33112 1.53075 0
M  V30 3288 H 298.084 -5.02232 -0.277767 0
M  V30 3289 H 297.784 -5.72293 1.33244 0
M  V30 3290 H 299.308 -6.08755 0.474262 0
M  V30 3291 H 300.722 -5.14025 2.53873 0
M  V30 3292 H 299.119 -5.00062 3.3175 0
M  V30 3293 H 300.189 -3.58818 3.26156 0
M  V30 3294 N 301.532 -0.945985 -1.26051 0
M  V30 3295 C 302.948 -0.649045 -1.45807 0
M  V30 3296 C 303.148 0.796158 -1.85104 0
M  V30 3297 O 302.204 1.57233 -1.97571 0
M  V30 3298 C 303.517 -1.61458 -2.53677 0
M  V30 3299 C 305.065 -1.62481 -2.67524 0
M  V30 3300 C 305.54 -2.57776 -3.7857 0
M  V30 3301 N 307.031 -2.5609 -3.85969 0
M  V30 3302 C 307.766 -3.26508 -4.7136 0
M  V30 3303 N 307.262 -4.0637 -5.61102 0
M  V30 3304 N 309.055 -3.15437 -4.65248 0
M  V30 3305 H 301.206 -1.88005 -0.988328 0
M  V30 3306 H 303.469 -0.808198 -0.4955 0
M  V30 3307 H 303.175 -2.64644 -2.31638 0
M  V30 3308 H 303.049 -1.37036 -3.51427 0
M  V30 3309 H 305.436 -0.600167 -2.88933 0
M  V30 3310 H 305.517 -1.90958 -1.70202 0
M  V30 3311 H 305.161 -3.60361 -3.57913 0
M  V30 3312 H 305.091 -2.26587 -4.75359 0
M  V30 3313 H 307.582 -1.98105 -3.21812 0
M  V30 3314 H 307.895 -4.57042 -6.23164 0
M  V30 3315 H 306.24 -4.10469 -5.60839 0
M  V30 3316 H 309.431 -2.52525 -3.94143 0
M  V30 3317 H 309.604 -3.70584 -5.31575 0
M  V30 3318 N 303.011 1.40521 -0.713556 0
M  V30 3319 C 303.921 2.34522 -0.0606667 0
M  V30 3320 C 304.937 1.57193 0.74607 0
M  V30 3321 O 306.113 1.89591 0.679493 0
M  V30 3322 C 303.178 3.36081 0.851491 0
M  V30 3323 C 302.239 4.29286 0.0349339 0
M  V30 3324 C 301.472 5.25994 0.903649 0
M  V30 3325 O 301.695 5.28616 2.14292 0
M  V30 3326 O 300.629 6.00918 0.343723 0
M  V30 3327 H 304.455 2.91968 -0.835972 0
M  V30 3328 H 302.04 1.41681 -0.47402 0
M  V30 3329 H 303.922 3.98369 1.37404 0
M  V30 3330 H 302.597 2.81052 1.60598 0
M  V30 3331 H 301.504 3.70289 -0.532633 0
M  V30 3332 H 302.837 4.87462 -0.681287 0
M  V30 3333 N 304.489 0.459591 1.5075 0
M  V30 3334 C 305.719 -0.0972338 2.06371 0
M  V30 3335 C 306.127 -1.35074 1.32483 0
M  V30 3336 O 305.47 -1.79637 0.384226 0
M  V30 3337 C 305.532 -0.462759 3.56509 0
M  V30 3338 C 305.196 0.687084 4.51805 0
M  V30 3339 C 306.193 1.56578 4.95761 0
M  V30 3340 C 303.878 0.874144 4.94635 0
M  V30 3341 C 305.872 2.61604 5.81242 0
M  V30 3342 C 303.559 1.92765 5.79901 0
M  V30 3343 C 304.557 2.79697 6.23104 0
M  V30 3344 O 304.245 3.83235 7.06673 0
M  V30 3345 H 303.977 -0.00140687 0.675999 0
M  V30 3346 H 306.531 0.644011 1.95043 0
M  V30 3347 H 304.761 -1.25703 3.65699 0
M  V30 3348 H 306.45 -0.953323 3.94546 0
M  V30 3349 H 307.216 1.4329 4.6335 0
M  V30 3350 H 303.095 0.207006 4.60535 0
M  V30 3351 H 306.639 3.29489 6.14884 0
M  V30 3352 H 302.536 2.06064 6.11725 0
M  V30 3353 H 303.304 3.80084 7.24899 0
M  V30 3354 N 305.967 -1.56429 0.191757 0
M  V30 3355 C 306.897 -2.21937 -0.725696 0
M  V30 3356 C 307.878 -1.1814 -1.2238 0
M  V30 3357 O 309.063 -1.46636 -1.27325 0
M  V30 3358 C 306.193 -2.87611 -1.94672 0
M  V30 3359 C 305.147 -3.97623 -1.58366 0
M  V30 3360 C 304.473 -4.50446 -2.88102 0
M  V30 3361 C 305.773 -5.16197 -0.796133 0
M  V30 3362 H 307.467 -2.98861 -0.179606 0
M  V30 3363 H 305.013 -1.43749 -0.0849464 0
M  V30 3364 H 306.966 -3.3212 -2.59373 0
M  V30 3365 H 305.69 -2.08087 -2.51728 0
M  V30 3366 H 304.349 -3.53801 -0.960247 0
M  V30 3367 H 303.997 -3.67688 -3.43241 0
M  V30 3368 H 303.697 -5.24675 -2.64556 0
M  V30 3369 H 305.221 -4.97654 -3.53798 0
M  V30 3370 H 306.635 -5.57271 -1.34618 0
M  V30 3371 H 305.032 -5.96471 -0.658928 0
M  V30 3372 H 306.102 -4.84473 0.203478 0
M  V30 3373 N 307.445 0.0818655 -1.57387 0
M  V30 3374 C 308.378 1.12986 -1.98266 0
M  V30 3375 C 309.356 1.38123 -0.857954 0
M  V30 3376 O 310.54 1.51663 -1.1194 0
M  V30 3377 C 307.667 2.47632 -2.31076 0
M  V30 3378 C 306.713 2.38693 -3.53452 0
M  V30 3379 S 307.546 1.79071 -5.04672 0
M  V30 3380 C 308.702 3.15316 -5.40673 0
M  V30 3381 H 308.935 0.781435 -2.86846 0
M  V30 3382 H 306.468 0.290034 -1.51651 0
M  V30 3383 H 308.426 3.25089 -2.50654 0
M  V30 3384 H 307.087 2.79638 -1.43043 0
M  V30 3385 H 306.28 3.37964 -3.73893 0
M  V30 3386 H 305.882 1.69369 -3.33452 0
M  V30 3387 H 308.174 4.11613 -5.38127 0
M  V30 3388 H 309.117 2.99664 -6.41566 0
M  V30 3389 H 309.525 3.15457 -4.68132 0
M  V30 3390 N 308.923 1.53595 0.353017 0
M  V30 3391 C 310.148 1.7462 1.11904 0
M  V30 3392 C 310.573 0.479721 1.8188 0
M  V30 3393 O 309.931 -0.567066 1.72204 0
M  V30 3394 C 309.979 2.92029 2.11545 0
M  V30 3395 O 309.083 2.61516 3.18878 0
M  V30 3396 H 308.424 0.579531 0.324099 0
M  V30 3397 H 310.954 2.00525 0.406301 0
M  V30 3398 H 310.964 3.18551 2.5493 0
M  V30 3399 H 309.639 3.83888 1.60008 0
M  V30 3400 H 308.216 2.45852 2.80377 0
M  V30 3401 N 310.401 -0.613514 1.45168 0
M  V30 3402 C 311.649 -1.36997 1.48581 0
M  V30 3403 C 311.97 -1.94589 0.126545 0
M  V30 3404 O 311.24 -1.76816 -0.843372 0
M  V30 3405 H 309.82 -0.508558 0.547154 0
M  V30 3406 H 312.482 -0.720853 1.81079 0
M  V30 3407 H 311.578 -2.1924 2.22127 0
M  V30 3408 N 311.879 -1.3236 -0.855495 0
M  V30 3409 C 313.127 -1.22629 -1.60644 0
M  V30 3410 C 313.448 0.212136 -1.93843 0
M  V30 3411 O 312.718 1.13666 -1.59552 0
M  V30 3412 H 311.298 -0.450882 -0.595579 0
M  V30 3413 H 313.96 -1.65871 -1.02337 0
M  V30 3414 H 313.056 -1.80832 -2.54374 0
M  V30 3415 N 313.357 1.07166 -1.15556 0
M  V30 3416 C 314.606 1.79181 -0.926132 0
M  V30 3417 C 314.919 1.87768 0.547967 0
M  V30 3418 O 316.125 2.56323 0.895036 0
M  V30 3419 C 314.581 3.22 -1.60761 0
M  V30 3420 C 314.189 3.21607 -3.11886 0
M  V30 3421 C 315.933 3.9861 -1.4598 0
M  V30 3422 C 313.84 4.59092 -3.72812 0
M  V30 3423 H 312.77 0.67154 -0.342856 0
M  V30 3424 H 315.421 1.2027 -1.3859 0
M  V30 3425 H 313.803 3.81115 -1.07553 0
M  V30 3426 H 314.977 2.72127 -3.71865 0
M  V30 3427 H 313.292 2.58495 -3.2645 0
M  V30 3428 H 315.889 5.00225 -1.88888 0
M  V30 3429 H 316.232 4.143 -0.407541 0
M  V30 3430 H 316.765 3.45996 -1.96295 0
M  V30 3431 H 313.504 4.48606 -4.77946 0
M  V30 3432 H 313.024 5.08803 -3.17616 0
M  V30 3433 H 314.703 5.28059 -3.73848 0
M  V30 3434 N 314.835 0.952656 1.25548 0
M  V30 3435 C 316.075 0.614013 1.9496 0
M  V30 3436 C 316.439 -0.833215 1.72978 0
M  V30 3437 O 317.64 -1.28135 2.36294 0
M  V30 3438 C 315.911 0.960562 3.4425 0
M  V30 3439 S 317.47 0.734195 4.32614 0
M  V30 3440 H 314.288 0.225754 0.674208 0
M  V30 3441 H 316.89 1.22641 1.52248 0
M  V30 3442 H 315.594 2.01103 3.57751 0
M  V30 3443 H 315.125 0.338336 3.91942 0
M  V30 3444 H 317.14 -0.395995 4.94617 0
M  V30 3445 N 316.313 -1.40141 0.720998 0
M  V30 3446 C 317.724 -1.83678 0.334553 0
M  V30 3447 C 318.075 -1.6027 -1.13173 0
M  V30 3448 O 317.2 -1.08643 -1.87152 0
M  V30 3449 C 317.795 -3.33437 0.600437 0
M  V30 3450 C 316.354 -3.75447 0.267642 0
M  V30 3451 C 315.501 -2.63296 0.870097 0
M  V30 3452 H 318.452 -1.29331 0.919732 0
M  V30 3453 H 318.473 -3.80269 -0.132517 0
M  V30 3454 H 317.985 -3.50442 1.66768 0
M  V30 3455 H 316.086 -3.64035 -0.794329 0
M  V30 3456 H 316.199 -4.73344 0.74042 0
M  V30 3457 H 314.563 -2.52954 0.297739 0
M  V30 3458 H 315.346 -2.83112 1.94172 0
M  V30 3459 N 317.792 -0.46758 -1.50504 0
M  V30 3460 C 319.038 0.0887532 -2.02606 0
M  V30 3461 C 319.371 1.39686 -1.34913 0
M  V30 3462 O 318.646 1.88644 -0.473694 0
M  V30 3463 C 318.929 0.276206 -3.59039 0
M  V30 3464 C 318.782 -1.05267 -4.37309 0
M  V30 3465 C 320.101 1.03235 -4.27821 0
M  V30 3466 H 317.22 0.0307814 -0.736357 0
M  V30 3467 H 319.862 -0.612485 -1.79857 0
M  V30 3468 H 318.012 0.8735 -3.78553 0
M  V30 3469 H 319.684 -1.68628 -4.29374 0
M  V30 3470 H 317.927 -1.65015 -4.01189 0
M  V30 3471 H 318.598 -0.875197 -5.45018 0
M  V30 3472 H 321.074 0.526111 -4.12761 0
M  V30 3473 H 319.95 1.1323 -5.37094 0
M  V30 3474 H 320.211 2.06806 -3.90748 0
M  V30 3475 N 319.27 1.56325 -0.20005 0
M  V30 3476 C 320.495 2.02548 0.44597 0
M  V30 3477 C 320.92 1.07922 1.5406 0
M  V30 3478 O 320.278 0.0635775 1.81188 0
M  V30 3479 C 320.326 3.47175 0.974761 0
M  V30 3480 O 319.43 3.55671 2.08739 0
M  V30 3481 H 318.771 0.655862 0.103638 0
M  V30 3482 H 321.301 2.02201 -0.312381 0
M  V30 3483 H 321.311 3.87067 1.2901 0
M  V30 3484 H 319.986 4.15538 0.17347 0
M  V30 3485 H 318.563 3.27657 1.78032 0
M  V30 3486 N 320.748 -0.0735177 1.57428 0
M  V30 3487 C 322.164 -0.428264 1.53747 0
M  V30 3488 C 322.364 -1.79272 0.91998 0
M  V30 3489 O 321.42 -2.47051 0.521745 0
M  V30 3490 C 322.733 -0.370914 2.98404 0
M  V30 3491 C 324.281 -0.451224 3.0973 0
M  V30 3492 C 324.756 -0.4238 4.56035 0
M  V30 3493 N 326.247 -0.483925 4.60665 0
M  V30 3494 C 326.982 -0.484891 5.71346 0
M  V30 3495 N 326.478 -0.440775 6.91396 0
M  V30 3496 N 328.271 -0.531319 5.59583 0
M  V30 3497 H 320.422 0.819949 1.95935 0
M  V30 3498 H 322.685 0.307493 0.896745 0
M  V30 3499 H 322.391 0.564956 3.47133 0
M  V30 3500 H 322.265 -1.18176 3.5821 0
M  V30 3501 H 324.652 -1.37752 2.60976 0
M  V30 3502 H 324.733 0.388167 2.52838 0
M  V30 3503 H 324.377 0.498638 5.05446 0
M  V30 3504 H 324.307 -1.2807 5.10789 0
M  V30 3505 H 326.798 -0.522338 3.74273 0
M  V30 3506 H 327.111 -0.44539 7.71515 0
M  V30 3507 H 325.456 -0.40749 6.93804 0
M  V30 3508 H 328.647 -0.563464 4.64696 0
M  V30 3509 H 328.82 -0.528603 6.4584 0
M  V30 3510 N 322.226 -1.5378 -0.344866 0
M  V30 3511 C 323.503 -1.61589 -1.10219 0
M  V30 3512 C 323.883 -0.436316 -2.06542 0
M  V30 3513 O 323.231 0.571543 -2.21237 0
M  V30 3514 C 323.441 -2.97602 -1.82301 0
M  V30 3515 C 324.789 -3.5291 -2.36093 0
M  V30 3516 O 325.813 -2.99768 -1.924 0
M  V30 3517 O 324.672 -4.45859 -3.16026 0
M  V30 3518 H 321.766 -0.653522 -0.506792 0
M  V30 3519 H 324.312 -1.66126 -0.346465 0
M  V30 3520 H 323.084 -3.74893 -1.12121 0
M  V30 3521 H 322.707 -2.9665 -2.64735 0
M  V30 3522 N 323.704 0.605807 -1.45491 0
M  V30 3523 C 324.932 1.39136 -1.5313 0
M  V30 3524 C 325.347 1.88082 -0.164507 0
M  V30 3525 O 324.704 1.62316 0.834247 0
M  V30 3526 C 324.755 2.59463 -2.51716 0
M  V30 3527 O 324.476 2.12551 -3.83084 0
M  V30 3528 C 325.977 3.52301 -2.6907 0
M  V30 3529 H 323.197 0.425849 -0.51855 0
M  V30 3530 H 325.741 0.73865 -1.90694 0
M  V30 3531 H 323.896 3.20772 -2.17219 0
M  V30 3532 H 324.31 2.90744 -4.36541 0
M  V30 3533 H 325.784 4.33271 -3.42024 0
M  V30 3534 H 326.261 4.02757 -1.75167 0
M  V30 3535 H 326.867 2.96845 -3.04571 0
M  V30 3536 N 325.182 1.32811 0.848464 0
M  V30 3537 C 326.431 1.23075 1.59798 0
M  V30 3538 C 326.744 -0.204419 1.94529 0
M  V30 3539 O 327.95 -0.423701 2.68173 0
M  V30 3540 C 326.406 2.15594 2.88179 0
M  V30 3541 C 326.014 3.64228 2.60849 0
M  V30 3542 C 327.758 2.14709 3.66197 0
M  V30 3543 C 325.665 4.48689 3.85269 0
M  V30 3544 H 324.595 0.457091 0.599653 0
M  V30 3545 H 327.246 1.57813 0.936342 0
M  V30 3546 H 325.628 1.73778 3.55833 0
M  V30 3547 H 326.802 4.14424 2.01467 0
M  V30 3548 H 325.117 3.67306 1.96151 0
M  V30 3549 H 327.714 2.75046 4.58534 0
M  V30 3550 H 328.057 1.13966 4.00397 0
M  V30 3551 H 328.59 2.54837 3.05455 0
M  V30 3552 H 325.329 5.5027 3.56207 0
M  V30 3553 H 324.849 4.03241 4.44024 0
M  V30 3554 H 326.528 4.62006 4.52946 0
M  V30 3555 N 326.66 -1.06551 1.16123 0
M  V30 3556 C 327.937 -1.76097 0.85142 0
M  V30 3557 C 328.317 -2.00802 -0.6513 0
M  V30 3558 O 327.665 -1.63302 -1.59827 0
M  V30 3559 C 327.875 -3.06384 1.67122 0
M  V30 3560 C 329.223 -3.80585 1.88255 0
M  V30 3561 O 330.247 -3.16218 1.63966 0
M  V30 3562 O 329.106 -4.96212 2.2899 0
M  V30 3563 H 326.2 -0.765102 0.313923 0
M  V30 3564 H 328.746 -1.12844 1.26745 0
M  V30 3565 H 327.518 -2.84071 2.69108 0
M  V30 3566 H 327.141 -3.77371 1.25206 0
M  V30 3567 N 328.138 -0.959301 -1.25041 0
M  V30 3568 C 329.368 -0.63303 -1.96663 0
M  V30 3569 C 329.776 0.800031 -1.71453 0
M  V30 3570 O 329.119 1.54736 -0.99008 0
M  V30 3571 C 329.181 -0.817523 -3.50081 0
M  V30 3572 C 328.845 -2.22863 -3.98975 0
M  V30 3573 C 329.842 -3.20569 -4.09306 0
M  V30 3574 C 327.527 -2.55407 -4.32519 0
M  V30 3575 C 329.521 -4.4891 -4.52503 0
M  V30 3576 C 327.208 -3.83976 -4.754 0
M  V30 3577 C 328.206 -4.8054 -4.85356 0
M  V30 3578 O 327.894 -6.06817 -5.27284 0
M  V30 3579 H 327.626 -0.235866 -0.633516 0
M  V30 3580 H 330.18 -1.2874 -1.60047 0
M  V30 3581 H 328.41 -0.105992 -3.86555 0
M  V30 3582 H 330.099 -0.491604 -4.02912 0
M  V30 3583 H 330.865 -2.96753 -3.83618 0
M  V30 3584 H 326.744 -1.8097 -4.23994 0
M  V30 3585 H 330.288 -5.24283 -4.60188 0
M  V30 3586 H 326.185 -4.07596 -5.00535 0
M  V30 3587 H 326.953 -6.10262 -5.45457 0
M  V30 3588 N 329.616 1.39756 -0.72842 0
M  V30 3589 C 330.546 2.33289 -0.0991354 0
M  V30 3590 C 331.527 1.53568 0.731489 0
M  V30 3591 O 332.712 1.81987 0.677807 0
M  V30 3592 C 329.842 3.3763 0.813834 0
M  V30 3593 C 328.796 4.2791 0.0878663 0
M  V30 3594 C 328.122 5.22894 1.11741 0
M  V30 3595 C 329.422 5.11314 -1.06563 0
M  V30 3596 H 331.116 2.86163 -0.880408 0
M  V30 3597 H 328.662 1.37591 -0.424819 0
M  V30 3598 H 330.615 4.0201 1.26355 0
M  V30 3599 H 329.339 2.83181 1.62715 0
M  V30 3600 H 327.998 3.65 -0.342159 0
M  V30 3601 H 327.646 4.64744 1.92412 0
M  V30 3602 H 327.346 5.84143 0.636477 0
M  V30 3603 H 328.87 5.90151 1.56697 0
M  V30 3604 H 330.284 5.69076 -0.694671 0
M  V30 3605 H 328.681 5.81671 -1.47577 0
M  V30 3606 H 329.751 4.46534 -1.89038 0
M  V30 3607 N 331.094 0.475555 1.50254 0
M  V30 3608 C 332.024 -0.30611 2.31485 0
M  V30 3609 C 333.005 -0.986228 1.38591 0
M  V30 3610 O 334.19 -0.982541 1.67511 0
M  V30 3611 C 331.32 -1.38588 3.1845 0
M  V30 3612 C 330.274 -0.827115 4.19932 0
M  V30 3613 C 329.6 -2.00551 4.95665 0
M  V30 3614 C 330.9 0.16463 5.2204 0
M  V30 3615 H 332.594 0.371866 2.97082 0
M  V30 3616 H 330.14 0.180282 1.42867 0
M  V30 3617 H 332.093 -1.94023 3.74076 0
M  V30 3618 H 330.817 -2.09269 2.50747 0
M  V30 3619 H 329.476 -0.294702 3.65414 0
M  V30 3620 H 329.124 -2.6994 4.2443 0
M  V30 3621 H 328.824 -1.63784 5.64313 0
M  V30 3622 H 330.348 -2.56468 5.54127 0
M  V30 3623 H 331.762 -0.300699 5.72511 0
M  V30 3624 H 330.159 0.446813 5.98434 0
M  V30 3625 H 331.229 1.08905 4.72512 0
M  V30 3626 N 332.573 -1.56217 0.208337 0
M  V30 3627 C 333.798 -2.02782 -0.435222 0
M  V30 3628 C 334.223 -1.08738 -1.53485 0
M  V30 3629 O 333.581 -0.0731855 -1.81152 0
M  V30 3630 C 333.629 -3.47687 -0.956335 0
M  V30 3631 O 332.733 -3.56773 -2.06849 0
M  V30 3632 H 332.074 -0.656403 -0.100158 0
M  V30 3633 H 334.604 -2.02033 0.3231 0
M  V30 3634 H 334.614 -3.87745 -1.26955 0
M  V30 3635 H 333.289 -4.15624 -0.15143 0
M  V30 3636 H 331.866 -3.28597 -1.76292 0
M  V30 3637 N 334.051 0.0651679 -1.57465 0
M  V30 3638 C 334.998 1.07675 -2.04144 0
M  V30 3639 C 335.968 1.38071 -0.923335 0
M  V30 3640 O 337.153 1.49026 -1.19146 0
M  V30 3641 C 334.293 2.38337 -2.49579 0
M  V30 3642 C 333.406 2.14413 -3.75035 0
M  V30 3643 C 332.541 3.38686 -4.09225 0
M  V30 3644 C 331.58 3.10156 -5.27702 0
M  V30 3645 N 330.717 4.26778 -5.57499 0
M  V30 3646 H 335.557 0.671716 -2.90331 0
M  V30 3647 H 333.094 0.3201 -1.43575 0
M  V30 3648 H 335.052 3.14632 -2.73975 0
M  V30 3649 H 333.682 2.7663 -1.6636 0
M  V30 3650 H 332.734 1.2878 -3.57939 0
M  V30 3651 H 334.046 1.89344 -4.61466 0
M  V30 3652 H 333.2 4.23373 -4.34558 0
M  V30 3653 H 331.939 3.66837 -3.21374 0
M  V30 3654 H 330.944 2.23866 -5.02159 0
M  V30 3655 H 332.169 2.8332 -6.17176 0
M  V30 3656 H 330.115 4.54948 -4.72608 0
M  V30 3657 H 330.032 4.05005 -6.38362 0
M  V30 3658 H 331.3 5.12443 -5.87386 0
M  V30 3659 N 335.529 1.53961 0.336706 0
M  V30 3660 C 336.477 1.83136 1.43401 0
M  V30 3661 C 337.471 0.702313 1.54156 0
M  V30 3662 O 338.677 0.885765 1.56698 0
M  V30 3663 H 335.052 0.580309 0.478273 0
M  V30 3664 H 337.023 2.74925 1.16012 0
M  V30 3665 C 335.772 2.06385 2.79822 0
M  V30 3666 H 335.095 2.92718 2.72316 0
M  V30 3667 H 336.535 2.30761 3.55704 0
M  V30 3668 C 334.994 0.851414 3.25964 0
M  V30 3669 O 335.524 0.0541904 4.01663 0
M  V30 3670 N 333.73 0.66672 2.82848 0
M  V30 3671 H 333.277 1.31665 2.21409 0
M  V30 3672 H 333.235 -0.143032 3.14074 0
M  V30 3673 N 337.007 -0.598083 1.45811 0
M  V30 3674 C 338.255 -1.35413 1.50026 0
M  V30 3675 C 338.576 -1.94444 0.147177 0
M  V30 3676 O 337.846 -1.77701 -0.824571 0
M  V30 3677 H 336.426 -0.502727 0.552517 0
M  V30 3678 H 339.088 -0.701606 1.81834 0
M  V30 3679 H 338.184 -2.16871 2.2444 0
M  V30 3680 N 338.485 -1.33259 -0.841409 0
M  V30 3681 C 339.71 -1.2775 -1.63385 0
M  V30 3682 C 340.135 0.149188 -1.87507 0
M  V30 3683 O 339.493 1.10498 -1.43736 0
M  V30 3684 C 339.541 -2.05571 -2.96265 0
M  V30 3685 O 338.645 -1.41257 -3.87453 0
M  V30 3686 H 337.986 -0.439627 -0.497618 0
M  V30 3687 H 340.516 -1.75782 -1.04699 0
M  V30 3688 H 340.526 -2.16241 -3.45982 0
M  V30 3689 H 339.201 -3.09309 -2.7803 0
M  V30 3690 H 337.778 -1.39217 -3.45938 0
M  V30 3691 N 339.963 1.05934 -1.16686 0
M  V30 3692 C 341.211 1.78447 -0.948744 0
M  V30 3693 C 341.532 1.87813 0.524523 0
M  V30 3694 O 340.802 1.38945 1.38098 0
M  V30 3695 H 339.382 0.660971 -0.348033 0
M  V30 3696 H 342.044 1.27947 -1.47022 0
M  V30 3697 H 341.14 2.80394 -1.37061 0
M  V30 3698 N 341.441 0.965919 1.2453 0
M  V30 3699 C 342.389 0.486506 2.27455 0
M  V30 3700 C 343.383 -0.449041 1.6334 0
M  V30 3701 O 344.589 -0.324527 1.7705 0
M  V30 3702 H 340.964 0.138857 0.739069 0
M  V30 3703 H 342.935 1.3666 2.65267 0
M  V30 3704 C 341.684 -0.209481 3.47068 0
M  V30 3705 H 341.007 0.50129 3.96645 0
M  V30 3706 H 342.447 -0.508775 4.20936 0
M  V30 3707 C 340.906 -1.43586 3.0477 0
M  V30 3708 O 341.436 -2.53299 3.11773 0
M  V30 3709 N 339.642 -1.30126 2.59838 0
M  V30 3710 H 339.189 -0.408583 2.54339 0
M  V30 3711 H 339.147 -2.12294 2.31902 0
M  V30 3712 N 342.919 -1.39368 0.735821 0
M  V30 3713 C 343.882 -2.2896 0.104874 0
M  V30 3714 C 344.882 -1.46347 -0.666274 0
M  V30 3715 O 346.072 -1.67014 -0.49517 0
M  V30 3716 C 343.204 -3.29857 -0.860656 0
M  V30 3717 H 344.397 -2.86259 0.894205 0
M  V30 3718 H 341.95 -1.48029 0.501704 0
M  V30 3719 H 342.685 -2.77615 -1.67631 0
M  V30 3720 H 342.47 -3.9087 -0.310327 0
M  V30 3721 H 343.96 -3.96893 -1.29867 0
M  V30 3722 N 344.397 -0.483516 -1.5 0
M  V30 3723 C 345.646 0.0689102 -2.01582 0
M  V30 3724 C 345.959 1.39655 -1.36952 0
M  V30 3725 O 347.165 2.03465 -1.79762 0
M  V30 3726 C 345.621 0.173302 -3.59483 0
M  V30 3727 C 345.229 -1.14665 -4.33077 0
M  V30 3728 C 346.973 0.677024 -4.19066 0
M  V30 3729 C 344.88 -1.00537 -5.82792 0
M  V30 3730 H 343.81 0.0295277 -0.753422 0
M  V30 3731 H 346.461 -0.620295 -1.72698 0
M  V30 3732 H 344.843 0.926569 -3.85007 0
M  V30 3733 H 346.017 -1.91184 -4.19268 0
M  V30 3734 H 344.332 -1.58244 -3.85159 0
M  V30 3735 H 346.929 0.799952 -5.28682 0
M  V30 3736 H 347.272 1.67151 -3.81269 0
M  V30 3737 H 347.805 -0.0192083 -3.97795 0
M  V30 3738 H 344.544 -1.9736 -6.25083 0
M  V30 3739 H 344.064 -0.280776 -5.99142 0
M  V30 3740 H 345.743 -0.677 -6.43448 0
M  V30 3741 N 345.875 1.56104 -0.216619 0
M  V30 3742 C 347.124 1.97348 0.416744 0
M  V30 3743 C 347.437 1.10715 1.6125 0
M  V30 3744 O 348.643 1.41836 2.31506 0
M  V30 3745 C 347.099 3.51059 0.792835 0
M  V30 3746 C 346.707 4.46387 -0.379828 0
M  V30 3747 C 348.451 4.01026 1.39208 0
M  V30 3748 C 346.358 5.91397 0.0184223 0
M  V30 3749 H 345.288 0.736942 0.159475 0
M  V30 3750 H 347.939 1.80827 -0.31205 0
M  V30 3751 H 346.321 3.63162 1.57891 0
M  V30 3752 H 347.495 4.46029 -1.15737 0
M  V30 3753 H 345.81 4.06734 -0.891979 0
M  V30 3754 H 348.407 5.0686 1.70286 0
M  V30 3755 H 348.75 3.46587 2.30614 0
M  V30 3756 H 349.283 3.92125 0.669537 0
M  V30 3757 H 346.022 6.49807 -0.862002 0
M  V30 3758 H 345.542 5.94961 0.760384 0
M  V30 3759 H 347.221 6.45455 0.446818 0
M  V30 3760 N 347.353 -0.0568162 1.57498 0
M  V30 3761 C 348.602 -0.752001 1.87157 0
M  V30 3762 C 348.915 -1.77978 0.811375 0
M  V30 3763 O 350.121 -2.52559 0.996293 0
M  V30 3764 C 348.577 -1.38844 3.3204 0
M  V30 3765 C 348.185 -0.398456 4.46225 0
M  V30 3766 C 349.929 -2.06512 3.70882 0
M  V30 3767 C 347.836 -1.04166 5.82154 0
M  V30 3768 H 346.766 -0.28461 0.698222 0
M  V30 3769 H 349.417 -0.00561272 1.83499 0
M  V30 3770 H 347.799 -2.1836 3.30356 0
M  V30 3771 H 348.973 0.367977 4.59328 0
M  V30 3772 H 347.288 0.174592 4.16034 0
M  V30 3773 H 349.885 -2.55437 4.6974 0
M  V30 3774 H 350.228 -2.87117 3.01445 0
M  V30 3775 H 350.761 -1.33808 3.7462 0
M  V30 3776 H 347.5 -0.275614 6.5492 0
M  V30 3777 H 347.02 -1.7786 5.72823 0
M  V30 3778 H 348.699 -1.55715 6.27982 0
M  V30 3779 N 348.832 -1.54138 -0.328536 0
M  V30 3780 C 350.078 -1.7236 -1.06865 0
M  V30 3781 C 350.411 -0.493231 -1.87832 0
M  V30 3782 O 349.686 0.5098 -1.877 0
M  V30 3783 C 349.969 -2.99621 -1.99747 0
M  V30 3784 C 349.822 -4.32899 -1.22143 0
M  V30 3785 C 351.141 -3.22615 -2.99345 0
M  V30 3786 H 348.26 -0.627151 -0.387105 0
M  V30 3787 H 350.902 -1.86827 -0.345767 0
M  V30 3788 H 349.052 -2.87418 -2.61387 0
M  V30 3789 H 350.724 -4.56978 -0.630017 0
M  V30 3790 H 348.967 -4.30628 -0.523628 0
M  V30 3791 H 349.638 -5.18154 -1.90318 0
M  V30 3792 H 352.114 -3.34248 -2.47826 0
M  V30 3793 H 350.99 -4.13027 -3.61524 0
M  V30 3794 H 351.251 -2.3961 -3.71536 0
M  V30 3795 N 350.31 0.590341 -1.46126 0
M  V30 3796 C 351.556 1.35082 -1.51264 0
M  V30 3797 C 351.889 1.93534 -0.160711 0
M  V30 3798 O 351.164 1.76045 0.826956 0
M  V30 3799 C 351.447 2.48588 -2.6053 0
M  V30 3800 C 351.3 1.95221 -4.05227 0
M  V30 3801 C 352.619 3.50662 -2.6594 0
M  V30 3802 H 349.738 0.489803 -0.550692 0
M  V30 3803 H 352.38 0.663887 -1.78024 0
M  V30 3804 H 350.53 3.07186 -2.37843 0
M  V30 3805 H 352.202 1.41139 -4.39178 0
M  V30 3806 H 350.445 1.26101 -4.15068 0
M  V30 3807 H 351.116 2.77121 -4.77397 0
M  V30 3808 H 353.592 3.01934 -2.86313 0
M  V30 3809 H 352.468 4.27551 -3.44226 0
M  V30 3810 H 352.729 4.07399 -1.71694 0
M  V30 3811 N 351.788 1.33704 0.83433 0
M  V30 3812 C 353.036 1.25169 1.58673 0
M  V30 3813 C 353.357 -0.18127 1.94156 0
M  V30 3814 O 352.627 -1.11113 1.6134 0
M  V30 3815 H 351.207 0.4603 0.58833 0
M  V30 3816 H 353.869 1.67478 0.996847 0
M  V30 3817 H 352.965 1.84856 2.51465 0
M  V30 3818 N 353.266 -1.05314 1.17247 0
M  V30 3819 C 354.514 -1.77941 0.958194 0
M  V30 3820 C 354.835 -1.88089 -0.514556 0
M  V30 3821 O 354.105 -1.39676 -1.37359 0
M  V30 3822 H 352.685 -0.659116 0.351533 0
M  V30 3823 H 355.347 -1.27166 1.47699 0
M  V30 3824 H 354.443 -2.79663 1.38546 0
M  V30 3825 N 354.744 -0.972509 -1.24016 0
M  V30 3826 C 355.707 -0.511403 -2.23422 0
M  V30 3827 C 356.707 0.394679 -1.55881 0
M  V30 3828 O 357.897 0.189469 -1.73167 0
M  V30 3829 C 355.029 0.258769 -3.39916 0
M  V30 3830 H 356.222 -1.39024 -2.6573 0
M  V30 3831 H 353.775 -0.757585 -1.36713 0
M  V30 3832 H 354.51 1.1545 -3.03054 0
M  V30 3833 H 354.295 -0.391522 -3.9014 0
M  V30 3834 H 355.785 0.570244 -4.13688 0
M  V30 3835 N 356.222 1.38976 -0.743202 0
M  V30 3836 C 357.185 2.28901 -0.117014 0
M  V30 3837 C 358.185 1.46698 0.658503 0
M  V30 3838 O 359.375 1.67274 0.486305 0
M  V30 3839 C 356.507 3.30309 0.84315 0
M  V30 3840 H 357.7 2.8578 -0.909373 0
M  V30 3841 H 355.253 1.47761 -0.509547 0
M  V30 3842 H 355.988 2.785 1.66157 0
M  V30 3843 H 355.773 3.91029 0.289594 0
M  V30 3844 H 357.263 3.97577 1.2776 0
M  V30 3845 N 357.7 0.491464 1.49741 0
M  V30 3846 C 358.61 -0.296835 2.32715 0
M  V30 3847 C 359.626 -0.976536 1.44013 0
M  V30 3848 O 360.802 -0.960023 1.77047 0
M  V30 3849 C 357.867 -1.35288 3.19215 0
M  V30 3850 C 356.928 -0.687632 4.23757 0
M  V30 3851 C 356.161 -1.69336 5.06123 0
M  V30 3852 O 356.384 -2.92219 4.89861 0
M  V30 3853 O 355.318 -1.25394 5.88693 0
M  V30 3854 H 359.144 0.382048 3.01287 0
M  V30 3855 H 356.729 0.252953 1.47243 0
M  V30 3856 H 358.611 -1.96411 3.72828 0
M  V30 3857 H 357.286 -2.01487 2.53347 0
M  V30 3858 H 356.193 -0.0369159 3.74082 0
M  V30 3859 H 357.526 -0.0682566 4.92153 0
M  V30 3860 N 359.178 -1.55987 0.224894 0
M  V30 3861 C 360.403 -2.03232 -0.41369 0
M  V30 3862 C 360.828 -1.10359 -1.52323 0
M  V30 3863 O 360.186 -0.092395 -1.81064 0
M  V30 3864 C 360.234 -3.48682 -0.919405 0
M  V30 3865 O 359.338 -3.58947 -2.03054 0
M  V30 3866 H 358.679 -0.657428 -0.0931903 0
M  V30 3867 H 361.209 -2.01679 0.34451 0
M  V30 3868 H 361.219 -3.8907 -1.22835 0
M  V30 3869 H 359.894 -4.15761 -0.107339 0
M  V30 3870 H 358.471 -3.30448 -1.72796 0
M  V30 3871 N 360.656 0.0484629 -1.57525 0
M  V30 3872 C 361.586 1.0549 -2.08313 0
M  V30 3873 C 362.567 1.38929 -0.981463 0
M  V30 3874 O 363.752 1.48151 -1.25558 0
M  V30 3875 C 360.882 2.36162 -2.54646 0
M  V30 3876 C 359.836 2.17016 -3.68901 0
M  V30 3877 C 359.162 3.53278 -4.01371 0
M  V30 3878 C 360.462 1.57219 -4.98076 0
M  V30 3879 H 362.156 0.632195 -2.92649 0
M  V30 3880 H 359.702 0.302654 -1.40784 0
M  V30 3881 H 361.655 3.06882 -2.88793 0
M  V30 3882 H 360.379 2.80456 -1.67368 0
M  V30 3883 H 359.038 1.48733 -3.35073 0
M  V30 3884 H 358.686 3.95185 -3.11188 0
M  V30 3885 H 358.386 3.41299 -4.78318 0
M  V30 3886 H 359.91 4.25391 -4.38035 0
M  V30 3887 H 361.324 2.17832 -5.30304 0
M  V30 3888 H 359.721 1.55871 -5.79503 0
M  V30 3889 H 360.791 0.535956 -4.81929 0
M  V30 3890 N 362.134 1.5431 0.320358 0
M  V30 3891 C 363.359 1.76954 1.08175 0
M  V30 3892 C 363.784 0.518193 1.80821 0
M  V30 3893 O 363.142 -0.530411 1.73368 0
M  V30 3894 C 363.19 2.96451 2.05303 0
M  V30 3895 O 362.294 2.68221 3.13259 0
M  V30 3896 H 361.635 0.586275 0.311733 0
M  V30 3897 H 364.165 2.01342 0.363676 0
M  V30 3898 H 364.175 3.23887 2.48116 0
M  V30 3899 H 362.85 3.87196 1.51829 0
M  V30 3900 H 361.427 2.51744 2.75099 0
M  V30 3901 N 363.613 -0.582584 1.46437 0
M  V30 3902 C 364.838 -1.37168 1.55563 0
M  V30 3903 C 365.263 -1.87061 0.19743 0
M  V30 3904 O 364.621 -1.61572 -0.822451 0
M  V30 3905 C 364.669 -2.53511 2.56446 0
M  V30 3906 O 363.773 -3.54953 2.09958 0
M  V30 3907 H 363.114 -0.408494 0.523477 0
M  V30 3908 H 365.644 -0.706646 1.9201 0
M  V30 3909 H 365.654 -3.00426 2.76058 0
M  V30 3910 H 364.329 -2.16549 3.55076 0
M  V30 3911 H 362.906 -3.14516 2.00334 0
M  V30 3912 N 365.091 -1.34144 -0.827227 0
M  V30 3913 C 366.024 -1.19707 -1.94282 0
M  V30 3914 C 367.002 -0.0897256 -1.62352 0
M  V30 3915 O 368.186 -0.254095 -1.8678 0
M  V30 3916 C 365.313 -0.838646 -3.28153 0
M  V30 3917 C 364.359 -1.95514 -3.79047 0
M  V30 3918 S 365.192 -3.56793 -3.99323 0
M  V30 3919 C 366.348 -3.22983 -5.36127 0
M  V30 3920 H 366.581 -2.1414 -2.06231 0
M  V30 3921 H 364.114 -1.19121 -0.982321 0
M  V30 3922 H 366.072 -0.638637 -4.05502 0
M  V30 3923 H 364.733 0.0872776 -3.13979 0
M  V30 3924 H 363.926 -1.658 -4.75948 0
M  V30 3925 H 363.528 -2.11241 -3.08631 0
M  V30 3926 H 365.82 -2.74531 -6.19386 0
M  V30 3927 H 366.763 -4.19008 -5.70822 0
M  V30 3928 H 367.171 -2.59276 -5.01434 0
M  V30 3929 N 366.569 1.04691 -1.17803 0
M  V30 3930 C 367.98 1.59238 -0.974689 0
M  V30 3931 C 368.331 1.90306 0.477292 0
M  V30 3932 O 367.456 1.68846 1.35352 0
M  V30 3933 C 368.051 2.89318 -1.76296 0
M  V30 3934 C 366.61 3.40506 -1.60414 0
M  V30 3935 C 365.757 2.14172 -1.76141 0
M  V30 3936 H 368.708 0.874395 -1.32439 0
M  V30 3937 H 368.729 3.5944 -1.24833 0
M  V30 3938 H 368.241 2.66675 -2.81968 0
M  V30 3939 H 366.342 3.68175 -0.572519 0
M  V30 3940 H 366.455 4.14753 -2.39827 0
M  V30 3941 H 364.819 2.25176 -1.19028 0
M  V30 3942 H 365.602 1.93992 -2.83235 0
M  V30 3943 N 368.047 0.979072 1.23499 0
M  V30 3944 C 369.295 0.645941 1.91499 0
M  V30 3945 C 369.616 -0.822948 1.76784 0
M  V30 3946 O 368.886 -1.58854 1.14639 0
M  V30 3947 H 367.466 0.235919 0.708767 0
M  V30 3948 H 370.128 1.2426 1.50152 0
M  V30 3949 H 369.224 0.896411 2.9895 0
M  V30 3950 N 369.525 -1.3858 0.750561 0
M  V30 3951 C 370.472 -2.30483 0.120835 0
M  V30 3952 C 371.442 -1.50022 -0.712923 0
M  V30 3953 O 372.627 -1.78662 -0.669676 0
M  V30 3954 C 369.767 -3.36431 -0.768666 0
M  V30 3955 C 368.88 -4.31927 0.0793922 0
M  V30 3956 C 368.015 -5.24944 -0.81283 0
M  V30 3957 C 367.054 -6.12088 0.0390447 0
M  V30 3958 N 366.191 -6.97412 -0.809969 0
M  V30 3959 H 371.031 -2.83761 0.91015 0
M  V30 3960 H 368.568 -1.39707 0.460463 0
M  V30 3961 H 370.526 -3.96462 -1.29898 0
M  V30 3962 H 369.156 -2.8457 -1.5238 0
M  V30 3963 H 368.208 -3.73382 0.727303 0
M  V30 3964 H 369.52 -4.93319 0.737401 0
M  V30 3965 H 368.674 -5.90078 -1.41042 0
M  V30 3966 H 367.413 -4.63911 -1.50458 0
M  V30 3967 H 366.418 -5.45952 0.649328 0
M  V30 3968 H 367.643 -6.75189 0.727809 0
M  V30 3969 H 365.589 -6.38931 -1.48672 0
M  V30 3970 H 365.506 -7.55712 -0.208789 0
M  V30 3971 H 366.774 -7.66959 -1.39263 0
M  V30 3972 N 371.003 -0.499398 -1.49478 0
M  V30 3973 C 371.951 0.293604 -2.3074 0
M  V30 3974 C 372.945 0.96427 -1.39277 0
M  V30 3975 O 374.151 0.892141 -1.56336 0
M  V30 3976 H 370.526 0.113541 -0.743379 0
M  V30 3977 H 372.497 -0.411772 -2.95545 0
M  V30 3978 C 371.246 1.3462 -3.20582 0
M  V30 3979 H 370.569 0.83954 -3.90886 0
M  V30 3980 H 372.009 1.87308 -3.80384 0
M  V30 3981 C 370.468 2.36351 -2.40083 0
M  V30 3982 O 370.998 3.422 -2.10385 0
M  V30 3983 N 369.204 2.0878 -2.02137 0
M  V30 3984 H 368.751 1.22723 -2.26488 0
M  V30 3985 H 368.709 2.77075 -1.48583 0
M  V30 3986 N 372.481 1.55866 -0.233164 0
M  V30 3987 C 373.444 2.1953 0.658715 0
M  V30 3988 C 374.444 1.16053 1.11303 0
M  V30 3989 O 375.634 1.41218 1.01996 0
M  V30 3990 C 372.766 2.82791 1.90373 0
M  V30 3991 H 373.959 2.99721 0.10347 0
M  V30 3992 H 371.512 1.56291 0.0164245 0
M  V30 3993 H 372.247 2.06501 2.50056 0
M  V30 3994 H 372.032 3.58578 1.58632 0
M  V30 3995 H 373.522 3.31556 2.53891 0
M  V30 3996 N 373.959 -0.0401083 1.57549 0
M  V30 3997 C 375.205 -0.734211 1.89043 0
M  V30 3998 C 375.538 -1.75591 0.829535 0
M  V30 3999 O 374.813 -1.93868 -0.156706 0
M  V30 4000 C 375.096 -1.41374 3.31188 0
M  V30 4001 C 374.949 -0.406299 4.47961 0
M  V30 4002 C 376.268 -2.35061 3.72068 0
M  V30 4003 H 373.387 -0.265447 0.687537 0
M  V30 4004 H 376.029 0.00294087 1.9 0
M  V30 4005 H 374.179 -2.04206 3.30503 0
M  V30 4006 H 375.851 0.219255 4.60779 0
M  V30 4007 H 374.094 0.275485 4.32924 0
M  V30 4008 H 374.765 -0.920022 5.44279 0
M  V30 4009 H 377.241 -1.82282 3.74049 0
M  V30 4010 H 376.117 -2.79593 4.72355 0
M  V30 4011 H 376.378 -3.21258 3.0372 0
M  V30 4012 N 375.437 -1.54477 -0.31217 0
M  V30 4013 C 376.665 -1.77205 -1.068 0
M  V30 4014 C 377.08 -0.526114 -1.81321 0
M  V30 4015 O 376.437 0.503647 -1.75413 0
M  V30 4016 C 376.488 -2.97253 -2.05725 0
M  V30 4017 O 376.209 -4.1703 -1.34228 0
M  V30 4018 C 377.71 -3.32281 -2.93435 0
M  V30 4019 H 374.93 -0.591287 -0.317208 0
M  V30 4020 H 377.474 -2.01398 -0.354834 0
M  V30 4021 H 375.629 -2.753 -2.72559 0
M  V30 4022 H 376.043 -4.84636 -2.00571 0
M  V30 4023 H 377.517 -4.19551 -3.58721 0
M  V30 4024 H 377.994 -2.49945 -3.61143 0
M  V30 4025 H 378.6 -3.56353 -2.32147 0
M  V30 4026 N 376.915 0.57481 -1.46744 0
M  V30 4027 C 377.845 1.69337 -1.60771 0
M  V30 4028 C 378.826 1.63825 -0.457736 0
M  V30 4029 O 380.011 1.8172 -0.684947 0
M  V30 4030 C 377.141 3.0798 -1.60517 0
M  V30 4031 C 376.095 3.28327 -2.74564 0
M  V30 4032 C 375.421 4.67578 -2.59373 0
M  V30 4033 C 376.721 3.15398 -4.16319 0
M  V30 4034 H 378.415 1.57853 -2.54407 0
M  V30 4035 H 375.961 0.75799 -1.22436 0
M  V30 4036 H 377.914 3.86061 -1.68923 0
M  V30 4037 H 376.638 3.20381 -0.634305 0
M  V30 4038 H 375.297 2.52649 -2.65639 0
M  V30 4039 H 374.945 4.76755 -1.60353 0
M  V30 4040 H 374.645 4.82144 -3.35873 0
M  V30 4041 H 376.169 5.47817 -2.69682 0
M  V30 4042 H 377.583 3.83315 -4.26313 0
M  V30 4043 H 375.98 3.41482 -4.93468 0
M  V30 4044 H 377.05 2.12372 -4.3592 0
M  V30 4045 N 378.394 1.34581 0.820102 0
M  V30 4046 C 379.81 1.14325 1.11364 0
M  V30 4047 C 380.01 -0.0533648 2.01429 0
M  V30 4048 O 379.066 -0.728044 2.41776 0
M  V30 4049 C 380.379 2.43983 1.75764 0
M  V30 4050 C 381.927 2.50065 1.88246 0
M  V30 4051 C 382.402 3.79732 2.56061 0
M  V30 4052 N 383.893 3.80908 2.63558 0
M  V30 4053 C 384.628 4.77961 3.16766 0
M  V30 4054 N 384.124 5.85397 3.70517 0
M  V30 4055 N 385.917 4.65413 3.15194 0
M  V30 4056 H 378.068 2.11246 0.221096 0
M  V30 4057 H 380.331 0.934289 0.160649 0
M  V30 4058 H 380.037 3.31651 1.1705 0
M  V30 4059 H 379.911 2.57531 2.75604 0
M  V30 4060 H 382.298 1.62834 2.46108 0
M  V30 4061 H 382.379 2.40442 0.873006 0
M  V30 4062 H 382.023 4.67354 1.98853 0
M  V30 4063 H 381.953 3.86639 3.57516 0
M  V30 4064 H 384.444 3.03274 2.25463 0
M  V30 4065 H 384.757 6.55463 4.09376 0
M  V30 4066 H 383.102 5.89107 3.68752 0
M  V30 4067 H 386.293 3.80627 2.72471 0
M  V30 4068 H 386.466 5.41216 3.56356 0
M  V30 4069 N 379.872 -1.04064 1.18357 0
M  V30 4070 C 380.82 -2.14187 0.907007 0
M  V30 4071 C 381.814 -1.68879 -0.132725 0
M  V30 4072 O 383.02 -1.79993 0.0154248 0
M  V30 4073 H 379.395 -0.699585 0.275835 0
M  V30 4074 H 381.366 -2.34711 1.84264 0
M  V30 4075 C 380.115 -3.44785 0.449254 0
M  V30 4076 H 379.438 -3.80058 1.24081 0
M  V30 4077 H 380.878 -4.22974 0.294737 0
M  V30 4078 C 379.337 -3.26391 -0.834909 0
M  V30 4079 O 379.867 -3.53973 -1.89911 0
M  V30 4080 N 378.073 -2.79726 -0.787523 0
M  V30 4081 H 377.62 -2.5748 0.0787347 0
M  V30 4082 H 377.578 -2.67798 -1.64716 0
M  V30 4083 N 381.35 -0.985608 -1.22978 0
M  V30 4084 C 382.766 -0.695104 -1.43668 0
M  V30 4085 C 382.966 0.736866 -1.87543 0
M  V30 4086 O 382.022 1.50868 -2.02473 0
M  V30 4087 C 383.335 -1.69447 -2.48412 0
M  V30 4088 C 384.883 -1.70909 -2.62219 0
M  V30 4089 C 385.358 -2.6969 -3.70178 0
M  V30 4090 N 386.849 -2.6824 -3.77626 0
M  V30 4091 C 387.584 -3.41339 -4.60733 0
M  V30 4092 N 387.08 -4.24015 -5.4789 0
M  V30 4093 N 388.873 -3.30079 -4.54977 0
M  V30 4094 H 381.024 -1.91054 -0.928016 0
M  V30 4095 H 383.287 -0.823553 -0.469536 0
M  V30 4096 H 382.993 -2.7188 -2.23102 0
M  V30 4097 H 382.867 -1.48147 -3.46889 0
M  V30 4098 H 385.254 -0.691785 -2.86877 0
M  V30 4099 H 385.335 -1.96276 -1.6404 0
M  V30 4100 H 384.979 -3.71566 -3.46268 0
M  V30 4101 H 384.909 -2.41595 -4.67909 0
M  V30 4102 H 387.4 -2.08243 -3.15346 0
M  V30 4103 H 387.713 -4.76636 -6.08308 0
M  V30 4104 H 386.058 -4.28104 -5.47496 0
M  V30 4105 H 389.249 -2.64937 -3.85909 0
M  V30 4106 H 389.422 -3.87308 -5.19516 0
M  V30 4107 N 382.828 1.3818 -0.7579 0
M  V30 4108 C 383.775 2.30416 -0.133057 0
M  V30 4109 C 384.745 1.50398 0.704957 0
M  V30 4110 O 385.93 1.79014 0.660192 0
M  V30 4111 C 383.07 3.36834 0.750813 0
M  V30 4112 C 382.183 4.31879 -0.102297 0
M  V30 4113 C 381.318 5.25368 0.784979 0
M  V30 4114 C 380.357 6.12058 -0.0715046 0
M  V30 4115 N 379.494 6.97832 0.772972 0
M  V30 4116 H 384.334 2.83274 -0.925186 0
M  V30 4117 H 381.871 1.39461 -0.467866 0
M  V30 4118 H 383.829 3.97145 1.27794 0
M  V30 4119 H 382.459 2.85374 1.50868 0
M  V30 4120 H 381.511 3.72991 -0.747095 0
M  V30 4121 H 382.823 4.92921 -0.763552 0
M  V30 4122 H 381.977 5.90818 1.37911 0
M  V30 4123 H 380.716 4.64703 1.47996 0
M  V30 4124 H 379.721 5.456 -0.678272 0
M  V30 4125 H 380.946 6.74793 -0.763606 0
M  V30 4126 H 378.892 6.3971 1.45282 0
M  V30 4127 H 378.809 7.55812 0.168709 0
M  V30 4128 H 380.077 7.67687 1.35194 0
M  V30 4129 N 384.306 0.507319 1.49211 0
M  V30 4130 C 385.554 -0.0348839 2.0207 0
M  V30 4131 C 385.875 -1.36898 1.38866 0
M  V30 4132 O 385.145 -1.88133 0.546151 0
M  V30 4133 H 383.725 -0.0158812 0.746831 0
M  V30 4134 H 386.387 0.665998 1.83168 0
M  V30 4135 H 385.483 -0.159917 3.1169 0
M  V30 4136 N 385.784 -1.5574 0.241426 0
M  V30 4137 C 387.031 -1.9881 -0.384836 0
M  V30 4138 C 387.359 -1.12947 -1.58346 0
M  V30 4139 O 386.614 -0.178993 -1.9488 0
M  V30 4140 C 386.913 -3.47308 -0.843317 0
M  V30 4141 C 386.579 -4.50223 0.246946 0
M  V30 4142 C 385.241 -4.78088 0.546399 0
M  V30 4143 C 387.593 -5.11841 0.983282 0
M  V30 4144 C 384.921 -5.64846 1.58636 0
M  V30 4145 C 387.273 -5.99727 2.01272 0
M  V30 4146 C 385.937 -6.25927 2.31888 0
M  V30 4147 H 385.207 -0.727496 -0.140821 0
M  V30 4148 H 387.854 -1.8831 0.348106 0
M  V30 4149 H 386.159 -3.55112 -1.65537 0
M  V30 4150 H 387.856 -3.78017 -1.33806 0
M  V30 4151 H 384.446 -4.286 0.00340639 0
M  V30 4152 H 388.63 -4.90366 0.765182 0
M  V30 4153 H 383.886 -5.83403 1.82896 0
M  V30 4154 H 388.06 -6.46517 2.58823 0
M  V30 4155 H 385.687 -6.92949 3.12611 0
M  V30 4156 N 387.262 0.0317525 -1.57568 0
M  V30 4157 C 388.508 0.724175 -1.8943 0
M  V30 4158 C 388.841 1.75149 -0.838836 0
M  V30 4159 O 388.116 1.93948 0.146422 0
M  V30 4160 C 388.399 1.39615 -3.31933 0
M  V30 4161 C 388.252 0.382537 -4.4817 0
M  V30 4162 C 389.571 2.33084 -3.73309 0
M  V30 4163 H 386.69 0.261797 -0.688935 0
M  V30 4164 H 389.332 -0.013017 -1.89996 0
M  V30 4165 H 387.482 2.02451 -3.31581 0
M  V30 4166 H 389.154 -0.243689 -4.60656 0
M  V30 4167 H 387.397 -0.29844 -4.32772 0
M  V30 4168 H 388.068 0.891145 -5.44759 0
M  V30 4169 H 390.544 1.80295 -3.7501 0
M  V30 4170 H 389.42 2.77084 -4.73831 0
M  V30 4171 H 389.681 3.19643 -3.05419 0
M  V30 4172 N 388.74 1.54641 0.303973 0
M  V30 4173 C 389.687 1.85386 1.37479 0
M  V30 4174 C 390.657 0.702528 1.50512 0
M  V30 4175 O 391.842 0.950867 1.65418 0
M  V30 4176 C 388.982 2.10413 2.73533 0
M  V30 4177 C 388.095 3.38049 2.68974 0
M  V30 4178 C 387.23 3.52934 3.97002 0
M  V30 4179 C 386.269 4.74373 3.86829 0
M  V30 4180 N 385.406 4.8608 5.06627 0
M  V30 4181 H 390.246 2.76732 1.1056 0
M  V30 4182 H 387.783 1.37034 0.534805 0
M  V30 4183 H 389.741 2.22919 3.52652 0
M  V30 4184 H 388.371 1.22338 2.98719 0
M  V30 4185 H 387.423 3.3418 1.81736 0
M  V30 4186 H 388.735 4.27288 2.57346 0
M  V30 4187 H 387.889 3.65088 4.84557 0
M  V30 4188 H 386.628 2.61824 4.1146 0
M  V30 4189 H 385.633 4.62255 2.97658 0
M  V30 4190 H 386.858 5.66888 3.73918 0
M  V30 4191 H 384.804 3.97891 5.21554 0
M  V30 4192 H 384.721 5.69315 4.9741 0
M  V30 4193 H 385.989 5.02587 5.95841 0
M  V30 4194 N 390.218 -0.567019 1.47046 0
M  V30 4195 C 391.148 -1.68482 1.61667 0
M  V30 4196 C 392.129 -1.6358 0.466418 0
M  V30 4197 O 393.314 -1.81354 0.694574 0
M  V30 4198 C 390.444 -3.07124 1.62148 0
M  V30 4199 C 389.398 -3.26867 2.76301 0
M  V30 4200 C 388.724 -4.66196 2.61849 0
M  V30 4201 C 390.024 -3.13186 4.17986 0
M  V30 4202 H 391.718 -1.56502 2.5524 0
M  V30 4203 H 389.264 -0.751486 1.22836 0
M  V30 4204 H 391.217 -3.8516 1.70968 0
M  V30 4205 H 389.941 -3.2004 0.651287 0
M  V30 4206 H 388.6 -2.51237 2.66975 0
M  V30 4207 H 388.248 -4.75898 1.62879 0
M  V30 4208 H 387.948 -4.80356 3.38425 0
M  V30 4209 H 389.472 -5.46379 2.72584 0
M  V30 4210 H 390.886 -3.81049 4.2834 0
M  V30 4211 H 389.283 -3.3886 4.95272 0
M  V30 4212 H 390.353 -2.10057 4.3704 0
M  V30 4213 N 391.696 -1.35014 -0.812953 0
M  V30 4214 C 392.659 -1.27292 -1.90602 0
M  V30 4215 C 393.659 -0.185817 -1.59723 0
M  V30 4216 O 394.849 -0.439102 -1.68575 0
M  V30 4217 C 391.981 -0.967676 -3.26877 0
M  V30 4218 H 393.174 -2.24479 -1.9887 0
M  V30 4219 H 390.727 -1.19446 -1.00808 0
M  V30 4220 H 391.462 0.0005954 -3.243 0
M  V30 4221 H 391.247 -1.75412 -3.50675 0
M  V30 4222 H 392.737 -0.939085 -4.06904 0
M  V30 4223 N 393.175 1.03435 -1.18907 0
M  V30 4224 C 394.105 2.13503 -0.945448 0
M  V30 4225 C 395.086 1.69682 0.119189 0
M  V30 4226 O 396.271 1.94169 -0.034707 0
M  V30 4227 C 393.401 3.44004 -0.477316 0
M  V30 4228 C 392.355 4.0148 -1.48316 0
M  V30 4229 C 391.681 5.27537 -0.872311 0
M  V30 4230 C 392.981 4.36921 -2.86177 0
M  V30 4231 H 394.675 2.34141 -1.86597 0
M  V30 4232 H 392.221 1.12523 -0.898584 0
M  V30 4233 H 394.174 4.20372 -0.294204 0
M  V30 4234 H 392.898 3.23072 0.478786 0
M  V30 4235 H 391.557 3.27201 -1.65332 0
M  V30 4236 H 391.205 5.02917 0.0911752 0
M  V30 4237 H 390.905 5.66954 -1.54393 0
M  V30 4238 H 392.429 6.06576 -0.699871 0
M  V30 4239 H 393.843 5.04248 -2.72776 0
M  V30 4240 H 392.24 4.87405 -3.50081 0
M  V30 4241 H 393.31 3.46466 -3.39248 0
M  V30 4242 N 394.653 0.992116 1.22453 0
M  V30 4243 C 396.069 0.702713 1.43297 0
M  V30 4244 C 396.269 -0.726909 1.87932 0
M  V30 4245 O 395.325 -1.49792 2.0327 0
M  V30 4246 C 396.638 1.70762 2.47509 0
M  V30 4247 C 398.186 1.72298 2.61309 0
M  V30 4248 C 398.661 2.71649 3.68742 0
M  V30 4249 N 400.152 2.70239 3.76199 0
M  V30 4250 C 400.887 3.43778 4.58917 0
M  V30 4251 N 400.383 4.26914 5.45633 0
M  V30 4252 N 402.176 3.32487 4.5322 0
M  V30 4253 H 394.327 1.91543 0.917871 0
M  V30 4254 H 396.59 0.826031 0.465162 0
M  V30 4255 H 396.296 2.73059 2.21657 0
M  V30 4256 H 396.17 1.49985 3.46099 0
M  V30 4257 H 398.557 0.706989 2.86506 0
M  V30 4258 H 398.638 1.97143 1.62997 0
M  V30 4259 H 398.282 3.73397 3.44292 0
M  V30 4260 H 398.212 2.44074 4.66622 0
M  V30 4261 H 400.703 2.09912 3.14237 0
M  V30 4262 H 401.016 4.79855 6.05771 0
M  V30 4263 H 399.361 4.31002 5.45218 0
M  V30 4264 H 402.552 2.6698 3.84499 0
M  V30 4265 H 402.725 3.90058 5.17454 0
M  V30 4266 N 396.131 -1.37776 0.765217 0
M  V30 4267 C 397.081 -2.2768 0.12075 0
M  V30 4268 C 398.065 -1.45778 -0.680988 0
M  V30 4269 O 399.257 -1.684 -0.545033 0
M  V30 4270 C 396.386 -3.34722 -0.762626 0
M  V30 4271 C 395.472 -4.24074 0.0465881 0
M  V30 4272 N 395.863 -4.93939 1.08892 0
M  V30 4273 C 394.161 -4.45643 -0.178418 0
M  V30 4274 C 394.862 -5.59845 1.57951 0
M  V30 4275 N 393.838 -5.36218 0.892797 0
M  V30 4276 H 397.64 -2.79166 0.918889 0
M  V30 4277 H 395.154 -1.50816 0.602353 0
M  V30 4278 H 397.151 -3.98031 -1.24005 0
M  V30 4279 H 395.811 -2.84793 -1.55959 0
M  V30 4280 H 396.822 -4.96572 1.47095 0
M  V30 4281 H 393.499 -4.06599 -0.9478 0
M  V30 4282 H 394.889 -6.25703 2.44838 0
M  V30 4283 N 397.609 -0.515225 -1.4894 0
M  V30 4284 C 398.857 0.0241671 -2.02086 0
M  V30 4285 C 399.178 1.3616 -1.3959 0
M  V30 4286 O 398.448 1.87841 -0.556121 0
M  V30 4287 H 397.028 0.0119203 -0.746905 0
M  V30 4288 H 399.69 -0.675702 -1.82812 0
M  V30 4289 H 398.786 0.143385 -3.1177 0
M  V30 4290 N 399.087 1.5561 -0.249682 0
M  V30 4291 C 400.05 2.20217 0.635394 0
M  V30 4292 C 401.05 1.17227 1.10066 0
M  V30 4293 O 402.24 1.42292 1.00492 0
M  V30 4294 C 399.372 2.84794 1.87363 0
M  V30 4295 H 400.565 2.99814 0.0716752 0
M  V30 4296 H 398.118 1.563 -0.000153234 0
M  V30 4297 H 398.853 2.09142 2.47851 0
M  V30 4298 H 398.638 3.60241 1.5482 0
M  V30 4299 H 400.128 3.3423 2.5036 0
M  V30 4300 N 400.565 -0.0233959 1.57583 0
M  V30 4301 C 401.842 -0.748794 1.807 0
M  V30 4302 C 402.222 -1.9327 0.849106 0
M  V30 4303 O 401.57 -2.28247 -0.107468 0
M  V30 4304 C 401.78 -1.17651 3.28571 0
M  V30 4305 C 403.128 -1.59008 3.93702 0
M  V30 4306 O 404.152 -1.27094 3.32755 0
M  V30 4307 O 403.011 -2.18264 5.01022 0
M  V30 4308 H 400.105 -0.362578 0.743281 0
M  V30 4309 H 402.651 0.000261958 1.697 0
M  V30 4310 H 401.423 -0.331603 3.89892 0
M  V30 4311 H 401.046 -1.98541 3.44481 0
M  V30 4312 N 402.043 -1.548 -0.295768 0
M  V30 4313 C 402.973 -1.89115 -1.36959 0
M  V30 4314 C 403.954 -0.75059 -1.52644 0
M  V30 4315 O 405.139 -1.00678 -1.66065 0
M  V30 4316 C 402.269 -2.14307 -2.73295 0
M  V30 4317 C 401.223 -3.30151 -2.72368 0
M  V30 4318 C 400.549 -3.40772 -4.12042 0
M  V30 4319 C 401.849 -4.67126 -2.33646 0
M  V30 4320 H 403.543 -2.79053 -1.08488 0
M  V30 4321 H 401.089 -1.34266 -0.520443 0
M  V30 4322 H 403.042 -2.36898 -3.48507 0
M  V30 4323 H 401.766 -1.21145 -3.03301 0
M  V30 4324 H 400.425 -3.0749 -1.99613 0
M  V30 4325 H 400.073 -2.45117 -4.39234 0
M  V30 4326 H 399.773 -4.18645 -4.12322 0
M  V30 4327 H 401.297 -3.6563 -4.89027 0
M  V30 4328 H 402.711 -4.89414 -2.98575 0
M  V30 4329 H 401.108 -5.47751 -2.45129 0
M  V30 4330 H 402.178 -4.67489 -1.28772 0
M  V30 4331 N 403.521 0.559213 -1.47345 0
M  V30 4332 C 404.767 1.31843 -1.54095 0
M  V30 4333 C 405.1 1.93149 -0.201726 0
M  V30 4334 O 404.375 1.77759 0.789428 0
M  V30 4335 C 404.658 2.43006 -2.65744 0
M  V30 4336 C 404.511 1.86581 -4.09277 0
M  V30 4337 C 405.83 3.44943 -2.73318 0
M  V30 4338 H 402.949 0.478012 -0.560957 0
M  V30 4339 H 405.591 0.625977 -1.79392 0
M  V30 4340 H 403.741 3.02072 -2.44305 0
M  V30 4341 H 405.413 1.31792 -4.42073 0
M  V30 4342 H 403.656 1.17268 -4.17649 0
M  V30 4343 H 404.327 2.66933 -4.83168 0
M  V30 4344 H 406.803 2.95793 -2.92653 0
M  V30 4345 H 405.679 4.20153 -3.53218 0
M  V30 4346 H 405.94 4.03665 -1.80296 0
M  V30 4347 N 404.999 1.35443 0.805782 0
M  V30 4348 C 406.41 1.25768 1.37983 0
M  V30 4349 C 406.761 -0.10958 1.95894 0
M  V30 4350 O 405.886 -1.01056 1.91355 0
M  V30 4351 C 406.481 2.27727 2.5085 0
M  V30 4352 C 405.04 2.2179 3.04115 0
M  V30 4353 C 404.187 2.13393 1.77084 0
M  V30 4354 H 407.138 1.4656 0.608752 0
M  V30 4355 H 407.159 1.90422 3.29424 0
M  V30 4356 H 406.671 3.27227 2.08671 0
M  V30 4357 H 404.772 1.25703 3.50756 0
M  V30 4358 H 404.885 3.13788 3.62042 0
M  V30 4359 H 403.249 1.59384 1.98668 0
M  V30 4360 H 404.032 3.14755 1.37056 0
M  V30 4361 N 406.477 -1.02803 1.19454 0
M  V30 4362 C 407.726 -1.7562 0.991996 0
M  V30 4363 C 408.039 -1.89672 -0.477901 0
M  V30 4364 O 409.245 -2.59468 -0.799287 0
M  V30 4365 C 407.701 -3.15812 1.72601 0
M  V30 4366 C 407.309 -3.0981 3.23607 0
M  V30 4367 C 409.053 -3.92918 1.60674 0
M  V30 4368 C 406.96 -4.44939 3.89594 0
M  V30 4369 H 405.89 -0.658352 0.367543 0
M  V30 4370 H 408.541 -1.15044 1.42959 0
M  V30 4371 H 406.923 -3.7686 1.21624 0
M  V30 4372 H 408.097 -2.58138 3.81709 0
M  V30 4373 H 406.412 -2.46201 3.35819 0
M  V30 4374 H 409.009 -4.9287 2.07323 0
M  V30 4375 H 409.352 -4.12502 0.561025 0
M  V30 4376 H 409.885 -3.38472 2.09001 0
M  V30 4377 H 406.624 -4.30559 4.94267 0
M  V30 4378 H 406.144 -4.96664 3.36281 0
M  V30 4379 H 407.823 -5.1382 3.93189 0
M  V30 4380 N 407.956 -0.998596 -1.21925 0
M  V30 4381 C 409.186 -0.695276 -1.94549 0
M  V30 4382 C 409.594 0.745079 -1.73911 0
M  V30 4383 O 408.937 1.51507 -1.03881 0
M  V30 4384 C 408.999 -0.928485 -3.47303 0
M  V30 4385 C 408.663 -2.35443 -3.91683 0
M  V30 4386 C 409.66 -3.33428 -3.98901 0
M  V30 4387 C 407.345 -2.69038 -4.24174 0
M  V30 4388 C 409.339 -4.63079 -4.37992 0
M  V30 4389 C 407.026 -3.98906 -4.62944 0
M  V30 4390 C 408.024 -4.95738 -4.69822 0
M  V30 4391 O 407.712 -6.23285 -5.07711 0
M  V30 4392 H 407.444 -0.255902 -0.625692 0
M  V30 4393 H 409.998 -1.33767 -1.5587 0
M  V30 4394 H 408.228 -0.228917 -3.86022 0
M  V30 4395 H 409.917 -0.619539 -4.01144 0
M  V30 4396 H 410.683 -3.08807 -3.73983 0
M  V30 4397 H 406.562 -1.94367 -4.18022 0
M  V30 4398 H 410.106 -5.38658 -4.43275 0
M  V30 4399 H 406.003 -4.23314 -4.87314 0
M  V30 4400 H 406.771 -6.27306 -5.25766 0
M  V30 4401 N 409.434 1.37368 -0.772513 0
M  V30 4402 C 410.659 2.0447 -0.347386 0
M  V30 4403 C 411.084 1.57882 1.0225 0
M  V30 4404 O 410.442 0.73941 1.65537 0
M  V30 4405 C 410.49 3.58369 -0.400479 0
M  V30 4406 O 409.594 4.0803 0.598789 0
M  V30 4407 H 408.935 0.646773 -0.15027 0
M  V30 4408 H 411.465 1.75667 -1.04892 0
M  V30 4409 H 411.475 4.07183 -0.258045 0
M  V30 4410 H 410.15 3.91633 -1.39986 0
M  V30 4411 H 408.727 3.70534 0.419411 0
M  V30 4412 N 410.912 0.523116 1.48665 0
M  V30 4413 C 412.159 -0.0134763 2.02496 0
M  V30 4414 C 412.487 -1.3493 1.40086 0
M  V30 4415 O 411.742 -1.88286 0.533567 0
M  V30 4416 C 412.041 -0.191671 3.56886 0
M  V30 4417 C 411.707 1.06893 4.38046 0
M  V30 4418 C 410.369 1.41443 4.59943 0
M  V30 4419 C 412.721 1.90584 4.85106 0
M  V30 4420 C 410.049 2.59594 5.26144 0
M  V30 4421 C 412.401 3.07907 5.52609 0
M  V30 4422 C 411.065 3.42811 5.72745 0
M  V30 4423 H 410.335 -0.00493133 0.740984 0
M  V30 4424 H 412.982 0.687751 1.78724 0
M  V30 4425 H 411.287 -0.97561 3.79459 0
M  V30 4426 H 412.984 -0.621659 3.96152 0
M  V30 4427 H 409.574 0.789848 4.21259 0
M  V30 4428 H 413.758 1.65203 4.67997 0
M  V30 4429 H 409.014 2.86847 5.39934 0
M  V30 4430 H 413.188 3.73066 5.88043 0
M  V30 4431 H 410.815 4.34462 6.23816 0
M  V30 4432 N 412.39 -1.55475 0.257931 0
M  V30 4433 C 413.638 -1.98813 -0.363009 0
M  V30 4434 C 413.959 -1.14757 -1.57657 0
M  V30 4435 O 413.229 -0.232956 -1.9451 0
M  V30 4436 H 411.809 -0.734308 -0.137113 0
M  V30 4437 H 414.471 -1.9156 0.359281 0
M  V30 4438 H 413.567 -3.04941 -0.664634 0
M  V30 4439 N 413.868 0.0150385 -1.57593 0
M  V30 4440 C 414.778 1.02791 -2.10882 0
M  V30 4441 C 415.794 1.38702 -1.0506 0
M  V30 4442 O 416.97 1.47739 -1.36877 0
M  V30 4443 C 414.035 2.30568 -2.58919 0
M  V30 4444 C 413.096 2.01108 -3.79281 0
M  V30 4445 C 412.329 3.22794 -4.25018 0
M  V30 4446 O 412.552 4.33959 -3.70183 0
M  V30 4447 O 411.486 3.07672 -5.17322 0
M  V30 4448 H 415.312 0.604973 -2.97613 0
M  V30 4449 H 412.897 0.23292 -1.47573 0
M  V30 4450 H 414.779 3.05662 -2.90084 0
M  V30 4451 H 413.454 2.72129 -1.75293 0
M  V30 4452 H 412.361 1.23537 -3.53114 0
M  V30 4453 H 413.694 1.64394 -4.63935 0
M  V30 4454 N 415.346 1.54954 0.287554 0
M  V30 4455 C 416.294 1.87606 1.37502 0
M  V30 4456 C 417.288 0.751001 1.51843 0
M  V30 4457 O 418.494 0.935169 1.53801 0
M  V30 4458 H 414.869 0.595231 0.459569 0
M  V30 4459 H 416.84 2.78477 1.07206 0
M  V30 4460 C 415.589 2.15183 2.73115 0
M  V30 4461 H 414.912 3.01234 2.62866 0
M  V30 4462 H 416.352 2.4196 3.48183 0
M  V30 4463 C 414.811 0.954686 3.2309 0
M  V30 4464 O 415.341 0.181949 4.01288 0
M  V30 4465 N 413.547 0.756368 2.80584 0
M  V30 4466 H 413.094 1.38643 2.17108 0
M  V30 4467 H 413.052 -0.0430391 3.14371 0
M  V30 4468 N 416.824 -0.551391 1.4764 0
M  V30 4469 C 417.734 -1.68525 1.63207 0
M  V30 4470 C 418.75 -1.6621 0.514815 0
M  V30 4471 O 419.926 -1.85551 0.783113 0
M  V30 4472 C 416.991 -3.05025 1.64805 0
M  V30 4473 C 416.052 -3.18362 2.88 0
M  V30 4474 C 415.285 -4.4835 2.89513 0
M  V30 4475 O 415.508 -5.34163 2.00065 0
M  V30 4476 O 414.442 -4.65602 3.81443 0
M  V30 4477 H 418.268 -1.58333 2.59161 0
M  V30 4478 H 415.853 -0.722063 1.30792 0
M  V30 4479 H 417.735 -3.86245 1.68502 0
M  V30 4480 H 416.41 -3.15587 0.720197 0
M  V30 4481 H 415.317 -2.36518 2.89845 0
M  V30 4482 H 416.65 -3.12707 3.80099 0
M  V30 4483 N 418.302 -1.35869 -0.798587 0
M  V30 4484 C 419.548 -1.2978 -1.55836 0
M  V30 4485 C 419.881 0.125322 -1.93795 0
M  V30 4486 O 419.156 1.07658 -1.61987 0
M  V30 4487 C 419.439 -2.21188 -2.84162 0
M  V30 4488 C 419.292 -3.72155 -2.52628 0
M  V30 4489 C 420.611 -2.11545 -3.85923 0
M  V30 4490 H 417.73 -0.472769 -0.565383 0
M  V30 4491 H 420.372 -1.66341 -0.918192 0
M  V30 4492 H 418.522 -1.90139 -3.38791 0
M  V30 4493 H 420.194 -4.13682 -2.04121 0
M  V30 4494 H 418.437 -3.92042 -1.85704 0
M  V30 4495 H 419.108 -4.31511 -3.44242 0
M  V30 4496 H 421.584 -2.38855 -3.40716 0
M  V30 4497 H 420.46 -2.77688 -4.73477 0
M  V30 4498 H 420.721 -1.09987 -4.282 0
M  V30 4499 N 419.78 1.02168 -1.19998 0
M  V30 4500 C 421.01 1.79036 -1.031 0
M  V30 4501 C 421.418 1.84409 0.423078 0
M  V30 4502 O 420.761 1.29228 1.30559 0
M  V30 4503 C 420.823 3.25185 -1.53281 0
M  V30 4504 C 420.487 3.43431 -3.01503 0
M  V30 4505 C 421.484 3.33063 -3.99206 0
M  V30 4506 C 419.169 3.69412 -3.40353 0
M  V30 4507 C 421.163 3.48413 -5.33748 0
M  V30 4508 C 418.85 3.84406 -4.75053 0
M  V30 4509 C 419.848 3.7391 -5.71559 0
M  V30 4510 O 419.536 3.88452 -7.03818 0
M  V30 4511 H 419.268 0.570043 -0.363355 0
M  V30 4512 H 421.822 1.29524 -1.59414 0
M  V30 4513 H 420.052 3.75756 -0.913483 0
M  V30 4514 H 421.741 3.83671 -1.32481 0
M  V30 4515 H 422.507 3.12934 -3.70537 0
M  V30 4516 H 418.386 3.76671 -2.65782 0
M  V30 4517 H 421.93 3.40137 -6.09059 0
M  V30 4518 H 417.827 4.04035 -5.03415 0
M  V30 4519 H 418.595 4.055 -7.10993 0
M  V30 4520 N 421.258 1.00505 1.21394 0
M  V30 4521 C 422.205 0.565496 2.23765 0
M  V30 4522 C 423.175 -0.408466 1.60999 0
M  V30 4523 O 424.36 -0.310503 1.88257 0
M  V30 4524 C 421.5 -0.101667 3.4495 0
M  V30 4525 C 420.613 0.915479 4.22188 0
M  V30 4526 C 419.748 0.220574 5.30742 0
M  V30 4527 C 418.787 1.22527 5.99711 0
M  V30 4528 N 417.924 0.557831 6.9988 0
M  V30 4529 H 422.764 1.44314 2.60725 0
M  V30 4530 H 420.301 0.722643 1.28126 0
M  V30 4531 H 422.259 -0.505504 4.14126 0
M  V30 4532 H 420.889 -0.94303 3.08718 0
M  V30 4533 H 419.941 1.43756 3.52191 0
M  V30 4534 H 421.253 1.68005 4.69655 0
M  V30 4535 H 420.407 -0.239368 6.06228 0
M  V30 4536 H 419.146 -0.576401 4.84282 0
M  V30 4537 H 418.151 1.69571 5.22997 0
M  V30 4538 H 419.376 2.02332 6.48258 0
M  V30 4539 H 417.322 -0.219486 6.55633 0
M  V30 4540 H 417.239 1.26065 7.45415 0
M  V30 4541 H 418.507 0.121095 7.79406 0
M  V30 4542 N 422.737 -1.36956 0.779787 0
M  V30 4543 C 423.669 -2.28833 0.129639 0
M  V30 4544 C 424.682 -1.4902 -0.655511 0
M  V30 4545 O 425.871 -1.71578 -0.492279 0
M  V30 4546 C 422.971 -3.2833 -0.839792 0
M  V30 4547 C 422.144 -4.3727 -0.10675 0
M  V30 4548 C 421.203 -5.16789 -0.990717 0
M  V30 4549 O 420.229 -5.67406 -0.451516 0
M  V30 4550 N 421.431 -5.32294 -2.3161 0
M  V30 4551 H 424.196 -2.85268 0.918803 0
M  V30 4552 H 421.757 -1.49019 0.632841 0
M  V30 4553 H 423.749 -3.78413 -1.43477 0
M  V30 4554 H 422.319 -2.72605 -1.52988 0
M  V30 4555 H 421.539 -3.88478 0.669216 0
M  V30 4556 H 422.827 -5.07229 0.399464 0
M  V30 4557 H 422.225 -4.92768 -2.77843 0
M  V30 4558 H 420.782 -5.85656 -2.86095 0
M  V30 4559 N 424.215 -0.530993 -1.48385 0
M  V30 4560 C 425.461 0.00274135 -2.028 0
M  V30 4561 C 425.794 1.33838 -1.40716 0
M  V30 4562 O 425.069 1.86465 -0.553277 0
M  V30 4563 C 425.352 0.123676 -3.59888 0
M  V30 4564 C 425.205 -1.2372 -4.3245 0
M  V30 4565 C 426.524 0.849967 -4.31814 0
M  V30 4566 H 423.643 -0.000477758 -0.737 0
M  V30 4567 H 426.285 -0.688217 -1.77098 0
M  V30 4568 H 424.435 0.712157 -3.81917 0
M  V30 4569 H 426.107 -1.86687 -4.21836 0
M  V30 4570 H 424.35 -1.81882 -3.93829 0
M  V30 4571 H 425.021 -1.10557 -5.40815 0
M  V30 4572 H 427.497 0.350572 -4.14621 0
M  V30 4573 H 426.373 0.903486 -5.41413 0
M  V30 4574 H 426.634 1.90047 -3.99167 0
M  V30 4575 N 425.693 1.55336 -0.266172 0
M  V30 4576 C 426.942 1.98574 0.353749 0
M  V30 4577 C 427.255 1.15789 1.57646 0
M  V30 4578 O 428.461 1.49129 2.26876 0
M  V30 4579 C 426.917 3.53403 0.680747 0
M  V30 4580 C 426.525 4.44953 -0.52165 0
M  V30 4581 C 428.269 4.05251 1.26379 0
M  V30 4582 C 426.176 5.91156 -0.169736 0
M  V30 4583 H 425.106 0.741643 0.135949 0
M  V30 4584 H 427.757 1.79743 -0.369421 0
M  V30 4585 H 426.139 3.68001 1.46257 0
M  V30 4586 H 427.313 4.42121 -1.29869 0
M  V30 4587 H 425.628 4.03691 -1.02093 0
M  V30 4588 H 428.225 5.12021 1.54074 0
M  V30 4589 H 428.568 3.53749 2.19471 0
M  V30 4590 H 429.101 3.94057 0.544447 0
M  V30 4591 H 425.84 6.46736 -1.0683 0
M  V30 4592 H 425.36 5.97079 0.570717 0
M  V30 4593 H 427.039 6.4655 0.241245 0
M  V30 4594 N 427.171 -0.0066808 1.57599 0
M  V30 4595 C 428.418 -0.69292 1.90276 0
M  V30 4596 C 428.746 -1.74148 0.866192 0
M  V30 4597 O 428.001 -1.95268 -0.129933 0
M  V30 4598 C 428.3 -1.37939 3.29708 0
M  V30 4599 C 427.966 -0.464679 4.48499 0
M  V30 4600 C 426.628 -0.212809 4.80729 0
M  V30 4601 C 428.98 0.16551 5.20937 0
M  V30 4602 C 426.308 0.677653 5.82773 0
M  V30 4603 C 428.66 1.04381 6.23929 0
M  V30 4604 C 427.324 1.30492 6.54621 0
M  V30 4605 H 426.594 -0.253558 0.696268 0
M  V30 4606 H 429.241 0.0474123 1.91441 0
M  V30 4607 H 427.546 -2.1936 3.24636 0
M  V30 4608 H 429.243 -1.9163 3.52249 0
M  V30 4609 H 425.833 -0.671153 4.23313 0
M  V30 4610 H 430.017 -0.0160756 4.96297 0
M  V30 4611 H 425.273 0.88803 6.04917 0
M  V30 4612 H 429.447 1.53851 6.79193 0
M  V30 4613 H 427.074 1.99662 7.33512 0
M  V30 4614 N 428.649 -1.55105 -0.279332 0
M  V30 4615 C 429.559 -1.90638 -1.36727 0
M  V30 4616 C 430.575 -0.802899 -1.54368 0
M  V30 4617 O 431.751 -1.10138 -1.68616 0
M  V30 4618 C 428.816 -2.16547 -2.70755 0
M  V30 4619 C 427.877 -3.40146 -2.61915 0
M  V30 4620 C 427.11 -3.6481 -3.8955 0
M  V30 4621 O 427.333 -2.92095 -4.89935 0
M  V30 4622 O 426.267 -4.58343 -3.90135 0
M  V30 4623 H 430.093 -2.83237 -1.09591 0
M  V30 4624 H 427.678 -1.4157 -0.477306 0
M  V30 4625 H 429.56 -2.34665 -3.50014 0
M  V30 4626 H 428.235 -1.27131 -2.9769 0
M  V30 4627 H 427.142 -3.2737 -1.81052 0
M  V30 4628 H 428.475 -4.29761 -2.3993 0
M  V30 4629 N 430.127 0.543554 -1.4793 0
M  V30 4630 C 431.037 1.67657 -1.64098 0
M  V30 4631 C 432.053 1.65934 -0.523622 0
M  V30 4632 O 433.229 1.85133 -0.792943 0
M  V30 4633 C 430.294 3.04146 -1.66421 0
M  V30 4634 C 429.355 3.16831 -2.89684 0
M  V30 4635 C 428.588 4.46809 -2.91886 0
M  V30 4636 O 428.811 5.33095 -2.02895 0
M  V30 4637 O 427.745 4.63573 -3.83906 0
M  V30 4638 H 431.571 1.56957 -2.59997 0
M  V30 4639 H 429.156 0.715116 -1.31173 0
M  V30 4640 H 431.038 3.85346 -1.70548 0
M  V30 4641 H 429.713 3.152 -0.736923 0
M  V30 4642 H 428.62 2.34977 -2.91095 0
M  V30 4643 H 429.953 3.10687 -3.81752 0
M  V30 4644 N 431.605 1.3629 0.791371 0
M  V30 4645 C 432.853 1.30154 1.5461 0
M  V30 4646 C 433.174 -0.119409 1.94634 0
M  V30 4647 O 432.444 -1.05924 1.64794 0
M  V30 4648 H 431.024 0.478784 0.573389 0
M  V30 4649 H 433.686 1.70565 0.94306 0
M  V30 4650 H 432.782 1.92762 2.45457 0
M  V30 4651 N 433.083 -1.0153 1.20538 0
M  V30 4652 C 434.308 -1.79283 1.04271 0
M  V30 4653 C 434.733 -1.8372 -0.403544 0
M  V30 4654 O 434.091 -1.27321 -1.2907 0
M  V30 4655 C 434.139 -3.21535 1.63241 0
M  V30 4656 O 433.243 -4.03099 0.870908 0
M  V30 4657 H 432.584 -0.55293 0.367647 0
M  V30 4658 H 435.114 -1.27696 1.59859 0
M  V30 4659 H 435.124 -3.72243 1.6703 0
M  V30 4660 H 433.799 -3.1762 2.68497 0
M  V30 4661 H 432.376 -3.61693 0.907323 0
M  V30 4662 N 434.561 -1.01147 -1.20859 0
M  V30 4663 C 435.807 -0.708598 -1.90658 0
M  V30 4664 C 436.162 0.753069 -1.7705 0
M  V30 4665 O 435.455 1.53952 -1.14059 0
M  V30 4666 C 435.649 -1.0727 -3.40922 0
M  V30 4667 C 435.478 -2.56821 -3.69152 0
M  V30 4668 C 434.248 -3.23524 -3.8815 0
M  V30 4669 C 436.446 -3.54997 -3.72131 0
M  V30 4670 N 434.428 -4.62359 -4.03853 0
M  V30 4671 C 435.799 -4.79371 -3.93196 0
M  V30 4672 C 437.854 -3.49042 -3.55069 0
M  V30 4673 C 436.557 -5.98512 -3.98969 0
M  V30 4674 C 438.583 -4.67579 -3.6211 0
M  V30 4675 C 437.945 -5.9076 -3.83643 0
M  V30 4676 H 434.044 -0.31088 -0.71755 0
M  V30 4677 H 436.628 -1.29526 -1.45366 0
M  V30 4678 H 434.799 -0.51443 -3.84978 0
M  V30 4679 H 436.531 -0.723891 -3.98173 0
M  V30 4680 H 433.286 -2.73958 -3.86321 0
M  V30 4681 H 433.71 -5.34427 -4.15592 0
M  V30 4682 H 438.352 -2.54808 -3.37391 0
M  V30 4683 H 436.07 -6.93132 -4.15444 0
M  V30 4684 H 439.656 -4.64581 -3.50222 0
M  V30 4685 H 438.536 -6.8095 -3.88944 0
M  V30 4686 N 436.039 1.36541 -0.78704 0
M  V30 4687 C 437.287 1.98911 -0.357633 0
M  V30 4688 C 437.608 1.62778 1.07371 0
M  V30 4689 O 436.878 0.900612 1.73971 0
M  V30 4690 H 435.458 0.735734 -0.129246 0
M  V30 4691 H 438.12 1.66776 -1.00855 0
M  V30 4692 H 437.216 3.08874 -0.447549 0
M  V30 4693 N 437.518 0.538854 1.48102 0
M  V30 4694 C 438.934 0.19732 1.58376 0
M  V30 4695 C 439.134 -1.29971 1.5398 0
M  V30 4696 O 438.19 -2.07861 1.43352 0
M  V30 4697 C 439.503 0.807716 2.89649 0
M  V30 4698 C 441.051 0.77726 3.03196 0
M  V30 4699 C 441.526 1.36639 4.37143 0
M  V30 4700 N 443.017 1.32875 4.43732 0
M  V30 4701 C 443.752 1.7544 5.45901 0
M  V30 4702 N 443.248 2.25776 6.54979 0
M  V30 4703 N 445.041 1.66623 5.36836 0
M  V30 4704 H 437.192 1.5117 1.49202 0
M  V30 4705 H 439.455 0.629327 0.708979 0
M  V30 4706 H 439.161 1.85909 2.98548 0
M  V30 4707 H 439.035 0.289975 3.76084 0
M  V30 4708 H 441.422 -0.265374 2.93904 0
M  V30 4709 H 441.503 1.33256 2.18349 0
M  V30 4710 H 441.147 2.408 4.47189 0
M  V30 4711 H 441.077 0.786689 5.20691 0
M  V30 4712 H 443.568 0.96037 3.65493 0
M  V30 4713 H 443.881 2.56226 7.29087 0
M  V30 4714 H 442.226 2.29775 6.55918 0
M  V30 4715 H 445.417 1.27089 4.50517 0
M  V30 4716 H 445.59 2.00115 6.16326 0
M  V30 4717 N 438.996 -1.55193 0.274407 0
M  V30 4718 C 440.242 -2.00604 -0.33608 0
M  V30 4719 C 440.597 -1.15948 -1.53538 0
M  V30 4720 O 439.89 -0.221385 -1.90317 0
M  V30 4721 C 440.084 -3.49019 -0.769458 0
M  V30 4722 C 439.913 -4.48038 0.386301 0
M  V30 4723 C 438.683 -4.97757 0.869854 0
M  V30 4724 C 440.881 -4.99558 1.22254 0
M  V30 4725 N 438.863 -5.80575 1.99515 0
M  V30 4726 C 440.234 -5.79816 2.19575 0
M  V30 4727 C 442.289 -4.81799 1.25597 0
M  V30 4728 C 440.992 -6.44208 3.19981 0
M  V30 4729 C 443.018 -5.46989 2.24848 0
M  V30 4730 C 442.38 -6.27058 3.20901 0
M  V30 4731 H 438.479 -0.777013 -0.088172 0
M  V30 4732 H 441.063 -1.90583 0.398266 0
M  V30 4733 H 439.234 -3.59383 -1.47303 0
M  V30 4734 H 440.966 -3.81263 -1.35722 0
M  V30 4735 H 437.721 -4.71464 0.449281 0
M  V30 4736 H 438.145 -6.26675 2.5614 0
M  V30 4737 H 442.787 -4.19501 0.527158 0
M  V30 4738 H 440.505 -7.05656 3.93796 0
M  V30 4739 H 444.091 -5.35189 2.28174 0
M  V30 4740 H 442.971 -6.7661 3.96445 0
M  V30 4741 N 440.474 -0.00167713 -1.576 0
M  V30 4742 C 441.72 0.683832 -1.90923 0
M  V30 4743 C 442.053 1.7333 -0.875799 0
M  V30 4744 O 441.328 1.94215 0.10525 0
M  V30 4745 C 441.611 1.32543 -3.3482 0
M  V30 4746 C 441.464 0.287387 -4.48881 0
M  V30 4747 C 442.783 2.25114 -3.78169 0
M  V30 4748 H 439.902 0.247125 -0.694333 0
M  V30 4749 H 442.544 -0.0533149 -1.89925 0
M  V30 4750 H 440.694 1.95372 -3.35801 0
M  V30 4751 H 442.366 -0.341346 -4.60035 0
M  V30 4752 H 440.609 -0.39017 -4.32042 0
M  V30 4753 H 441.28 0.775393 -5.46527 0
M  V30 4754 H 443.756 1.723 -3.7875 0
M  V30 4755 H 442.632 2.66971 -4.79602 0
M  V30 4756 H 442.893 3.13092 -3.12131 0
M  V30 4757 N 441.952 1.55251 0.271103 0
M  V30 4758 C 442.884 1.84675 1.35749 0
M  V30 4759 C 443.897 0.731366 1.45447 0
M  V30 4760 O 445.086 1.00924 1.4723 0
M  V30 4761 C 442.186 1.99638 2.73857 0
M  V30 4762 C 441.359 3.30312 2.86727 0
M  V30 4763 C 440.418 3.35318 4.05522 0
M  V30 4764 O 439.444 4.08682 3.96191 0
M  V30 4765 N 440.646 2.62857 5.17577 0
M  V30 4766 H 443.411 2.78445 1.10853 0
M  V30 4767 H 440.972 1.55191 0.461218 0
M  V30 4768 H 442.964 2.00355 3.51625 0
M  V30 4769 H 441.534 1.12725 2.91568 0
M  V30 4770 H 440.754 3.42118 1.95829 0
M  V30 4771 H 442.042 4.16488 2.92258 0
M  V30 4772 H 441.44 2.02939 5.28046 0
M  V30 4773 H 439.997 2.69295 5.93568 0
M  V30 4774 N 443.43 -0.535701 1.48216 0
M  V30 4775 C 444.377 -1.64083 1.62312 0
M  V30 4776 C 445.347 -1.59448 0.465365 0
M  V30 4777 O 446.532 -1.77959 0.688135 0
M  V30 4778 C 443.672 -3.0236 1.66349 0
M  V30 4779 C 442.785 -3.17273 2.93193 0
M  V30 4780 C 441.92 -4.46075 2.88427 0
M  V30 4781 C 440.959 -4.54496 4.1 0
M  V30 4782 N 440.096 -5.7468 4.03345 0
M  V30 4783 H 444.936 -1.51374 2.5669 0
M  V30 4784 H 442.473 -0.737059 1.27302 0
M  V30 4785 H 444.431 -3.82461 1.66672 0
M  V30 4786 H 443.061 -3.13854 0.754672 0
M  V30 4787 H 442.113 -2.30462 3.02641 0
M  V30 4788 H 443.425 -3.19357 3.83162 0
M  V30 4789 H 442.579 -5.3446 2.87119 0
M  V30 4790 H 441.318 -4.46504 1.96177 0
M  V30 4791 H 440.323 -3.64519 4.11589 0
M  V30 4792 H 441.548 -4.5581 5.03402 0
M  V30 4793 H 439.494 -5.76017 3.13912 0
M  V30 4794 H 439.411 -5.78234 4.87013 0
M  V30 4795 H 440.679 -6.65367 4.06087 0
M  V30 4796 N 444.908 -1.36708 -0.784132 0
M  V30 4797 C 445.855 -1.31466 -1.89698 0
M  V30 4798 C 446.825 -0.18239 -1.65096 0
M  V30 4799 O 448.01 -0.369762 -1.87183 0
M  V30 4800 C 445.15 -1.1151 -3.26588 0
M  V30 4801 C 444.263 -2.33859 -3.63227 0
M  V30 4802 C 443.398 -2.06873 -4.89262 0
M  V30 4803 C 442.437 -3.25154 -5.18595 0
M  V30 4804 N 441.574 -2.978 -6.35814 0
M  V30 4805 H 446.414 -2.26619 -1.93515 0
M  V30 4806 H 443.951 -1.12625 -0.946256 0
M  V30 4807 H 445.909 -0.979653 -4.05535 0
M  V30 4808 H 444.539 -0.200103 -3.22179 0
M  V30 4809 H 443.591 -2.58188 -2.79362 0
M  V30 4810 H 444.903 -3.22109 -3.8085 0
M  V30 4811 H 444.057 -1.90289 -5.76086 0
M  V30 4812 H 442.796 -1.15942 -4.73718 0
M  V30 4813 H 441.801 -3.42292 -4.30251 0
M  V30 4814 H 443.026 -4.1692 -5.36055 0
M  V30 4815 H 440.972 -2.09485 -6.21653 0
M  V30 4816 H 440.889 -3.7959 -6.53794 0
M  V30 4817 H 442.157 -2.84805 -7.25607 0
M  V30 4818 N 446.386 1.0089 -1.21074 0
M  V30 4819 C 447.633 1.74607 -1.0256 0
M  V30 4820 C 447.961 1.89426 0.44136 0
M  V30 4821 O 447.216 1.42266 1.34384 0
M  V30 4822 C 447.515 3.16335 -1.66334 0
M  V30 4823 C 447.181 3.21474 -3.16173 0
M  V30 4824 C 445.843 3.22583 -3.57062 0
M  V30 4825 C 448.195 3.19025 -4.12156 0
M  V30 4826 C 445.523 3.18925 -4.92446 0
M  V30 4827 C 447.875 3.16909 -5.47496 0
M  V30 4828 C 446.539 3.16326 -5.87787 0
M  V30 4829 H 445.809 0.638933 -0.375294 0
M  V30 4830 H 448.456 1.18274 -1.50611 0
M  V30 4831 H 446.761 3.75876 -1.10566 0
M  V30 4832 H 448.458 3.72083 -1.49516 0
M  V30 4833 H 445.048 3.2135 -2.83605 0
M  V30 4834 H 449.232 3.17332 -3.81595 0
M  V30 4835 H 444.488 3.16809 -5.22917 0
M  V30 4836 H 448.662 3.13968 -6.21609 0
M  V30 4837 H 446.289 3.13246 -6.92662 0
M  V30 4838 N 447.864 1.01787 1.20321 0
M  V30 4839 C 448.796 0.547357 2.22568 0
M  V30 4840 C 449.809 -0.370922 1.58518 0
M  V30 4841 O 450.998 -0.169067 1.77698 0
M  V30 4842 C 448.098 -0.223031 3.38165 0
M  V30 4843 C 447.271 0.697472 4.31803 0
M  V30 4844 C 446.33 -0.025562 5.26194 0
M  V30 4845 O 445.356 0.597367 5.66057 0
M  V30 4846 N 446.558 -1.29999 5.65757 0
M  V30 4847 H 449.323 1.42668 2.63564 0
M  V30 4848 H 446.884 0.895552 1.34876 0
M  V30 4849 H 448.876 -0.716002 3.98316 0
M  V30 4850 H 447.446 -1.00366 2.9605 0
M  V30 4851 H 446.666 1.37073 3.69601 0
M  V30 4852 H 447.954 1.32347 4.91286 0
M  V30 4853 H 447.352 -1.827 5.35385 0
M  V30 4854 H 445.909 -1.73766 6.28211 0
M  V30 4855 N 449.342 -1.36122 0.79427 0
M  V30 4856 C 450.289 -2.29982 0.194101 0
M  V30 4857 C 451.259 -1.52214 -0.664833 0
M  V30 4858 O 452.444 -1.80702 -0.612498 0
M  V30 4859 C 449.584 -3.38706 -0.661244 0
M  V30 4860 C 448.697 -4.31456 0.216766 0
M  V30 4861 C 447.832 -5.27265 -0.645411 0
M  V30 4862 C 446.871 -6.11653 0.233756 0
M  V30 4863 N 446.008 -6.99636 -0.587682 0
M  V30 4864 H 450.848 -2.80722 0.999965 0
M  V30 4865 H 448.385 -1.38172 0.504677 0
M  V30 4866 H 450.343 -4.00394 -1.17219 0
M  V30 4867 H 448.973 -2.89274 -1.43249 0
M  V30 4868 H 448.025 -3.7088 0.845724 0
M  V30 4869 H 449.337 -4.90724 0.893973 0
M  V30 4870 H 448.491 -5.94266 -1.22198 0
M  V30 4871 H 447.23 -4.68463 -1.35623 0
M  V30 4872 H 446.235 -5.4361 0.82269 0
M  V30 4873 H 447.46 -6.72531 0.942247 0
M  V30 4874 H 445.406 -6.43337 -1.2827 0
M  V30 4875 H 445.323 -7.55993 0.0317402 0
M  V30 4876 H 446.591 -7.71001 -1.14792 0
M  V30 4877 N 450.82 -0.546701 -1.47814 0
M  V30 4878 C 452.05 -0.0232519 -2.06587 0
M  V30 4879 C 452.458 1.2712 -1.40133 0
M  V30 4880 O 451.801 1.77091 -0.488305 0
M  V30 4881 C 451.863 0.254117 -3.58601 0
M  V30 4882 C 451.527 -0.949331 -4.47031 0
M  V30 4883 C 452.524 -1.85216 -4.85789 0
M  V30 4884 C 450.209 -1.16104 -4.88697 0
M  V30 4885 C 452.203 -2.95047 -5.65001 0
M  V30 4886 C 449.89 -2.26247 -5.67676 0
M  V30 4887 C 450.888 -3.1555 -6.05737 0
M  V30 4888 O 450.576 -4.23784 -6.83127 0
M  V30 4889 H 450.308 -0.0380082 -0.674931 0
M  V30 4890 H 452.862 -0.756631 -1.90956 0
M  V30 4891 H 451.092 1.04168 -3.72406 0
M  V30 4892 H 452.781 0.72167 -3.99433 0
M  V30 4893 H 453.547 -1.70061 -4.54207 0
M  V30 4894 H 449.426 -0.475159 -4.58545 0
M  V30 4895 H 452.97 -3.64778 -5.94628 0
M  V30 4896 H 448.867 -2.41379 -5.98671 0
M  V30 4897 H 449.635 -4.21701 -7.01506 0
M  V30 4898 N 452.299 1.55045 -0.282633 0
M  V30 4899 C 453.548 1.98938 0.332667 0
M  V30 4900 C 453.861 1.17455 1.56409 0
M  V30 4901 O 455.067 1.51527 2.25282 0
M  V30 4902 C 453.523 3.54105 0.643226 0
M  V30 4903 C 453.131 4.44374 -0.568814 0
M  V30 4904 C 454.875 4.06569 1.22074 0
M  V30 4905 C 452.782 5.90943 -0.232426 0
M  V30 4906 H 451.712 0.743043 0.128075 0
M  V30 4907 H 454.363 1.79341 -0.388464 0
M  V30 4908 H 452.745 3.69532 1.42346 0
M  V30 4909 H 453.919 4.40718 -1.34551 0
M  V30 4910 H 452.234 4.02585 -1.06369 0
M  V30 4911 H 454.831 5.13626 1.48635 0
M  V30 4912 H 455.174 3.56057 2.15707 0
M  V30 4913 H 455.707 3.94612 0.502621 0
M  V30 4914 H 452.446 6.45567 -1.13683 0
M  V30 4915 H 451.966 5.9765 0.507357 0
M  V30 4916 H 453.645 6.4677 0.172657 0
M  V30 4917 N 453.777 0.010035 1.57597 0
M  V30 4918 C 455.025 -0.671371 1.90623 0
M  V30 4919 C 455.346 -1.73753 0.885151 0
M  V30 4920 O 454.616 -1.95752 -0.0760611 0
M  V30 4921 H 453.196 -0.250968 0.703579 0
M  V30 4922 H 455.858 0.0533325 1.94827 0
M  V30 4923 H 454.954 -1.13626 2.90681 0
M  V30 4924 N 455.255 -1.55392 -0.262866 0
M  V30 4925 C 456.502 -1.76476 -0.993109 0
M  V30 4926 C 456.83 -0.571479 -1.85915 0
M  V30 4927 O 456.085 0.445733 -1.90556 0
M  V30 4928 C 456.384 -3.02889 -1.89718 0
M  V30 4929 C 456.05 -4.34974 -1.18781 0
M  V30 4930 C 454.712 -4.7087 -0.991699 0
M  V30 4931 C 457.064 -5.16695 -0.683798 0
M  V30 4932 C 454.392 -5.86036 -0.279024 0
M  V30 4933 C 456.744 -6.32598 0.0153327 0
M  V30 4934 C 455.408 -6.67127 0.223062 0
M  V30 4935 H 454.678 -0.64577 -0.363404 0
M  V30 4936 H 457.325 -1.89664 -0.264525 0
M  V30 4937 H 455.63 -2.84644 -2.6923 0
M  V30 4938 H 457.327 -3.16399 -2.46359 0
M  V30 4939 H 453.917 -4.06765 -1.35058 0
M  V30 4940 H 458.101 -4.8943 -0.8229 0
M  V30 4941 H 453.357 -6.11306 -0.107456 0
M  V30 4942 H 457.531 -6.95171 0.413584 0
M  V30 4943 H 455.158 -7.56216 0.777265 0
M  V30 4944 N 456.733 0.527833 -1.48498 0
M  V30 4945 C 457.696 1.61439 -1.62696 0
M  V30 4946 C 458.696 1.52824 -0.500136 0
M  V30 4947 O 459.886 1.56456 -0.765976 0
M  V30 4948 C 457.018 3.01063 -1.59918 0
M  V30 4949 H 458.211 1.50189 -2.59583 0
M  V30 4950 H 455.764 0.750055 -1.37127 0
M  V30 4951 H 456.499 3.17818 -0.645163 0
M  V30 4952 H 456.284 3.08725 -2.41726 0
M  V30 4953 H 457.774 3.80057 -1.73051 0
M  V30 4954 N 458.211 1.37122 0.776871 0
M  V30 4955 C 459.622 1.28667 1.35284 0
M  V30 4956 C 459.973 -0.0680035 1.96082 0
M  V30 4957 O 459.098 -0.969743 1.93455 0
M  V30 4958 C 459.693 2.32997 2.45963 0
M  V30 4959 C 458.252 2.28191 2.99342 0
M  V30 4960 C 457.399 2.17101 1.72517 0
M  V30 4961 H 460.35 1.47819 0.577527 0
M  V30 4962 H 460.371 1.97366 3.2531 0
M  V30 4963 H 459.883 3.3158 2.01684 0
M  V30 4964 H 457.984 1.33115 3.4801 0
M  V30 4965 H 458.097 3.21397 3.55304 0
M  V30 4966 H 456.461 1.63562 1.95242 0
M  V30 4967 H 457.244 3.17591 1.30348 0
M  V30 4968 N 459.689 -1.00246 1.21608 0
M  V30 4969 C 460.929 -1.75589 1.04631 0
M  V30 4970 C 461.293 -1.87513 -0.412648 0
M  V30 4971 O 462.494 -2.59444 -0.703003 0
M  V30 4972 C 460.765 -3.12893 1.72722 0
M  V30 4973 S 462.324 -4.04095 1.71034 0
M  V30 4974 H 459.142 -0.604133 0.374892 0
M  V30 4975 H 461.744 -1.19927 1.54395 0
M  V30 4976 H 460.448 -3.0185 2.78055 0
M  V30 4977 H 459.979 -3.73628 1.23149 0
M  V30 4978 H 461.994 -4.9045 0.753231 0
M  V30 4979 N 461.167 -1.02423 -1.1978 0
M  V30 4980 C 462.416 -0.713265 -1.88667 0
M  V30 4981 C 462.729 0.7609 -1.80193 0
M  V30 4982 O 463.935 1.18473 -2.44288 0
M  V30 4983 C 462.391 -1.22545 -3.38394 0
M  V30 4984 C 461.999 -2.72706 -3.55437 0
M  V30 4985 C 463.743 -0.990257 -4.12788 0
M  V30 4986 C 461.65 -3.17367 -4.99031 0
M  V30 4987 H 460.58 -0.263105 -0.706606 0
M  V30 4988 H 463.231 -1.23792 -1.35454 0
M  V30 4989 H 461.613 -0.628732 -3.90977 0
M  V30 4990 H 462.787 -3.37993 -3.13205 0
M  V30 4991 H 461.102 -2.94453 -2.94425 0
M  V30 4992 H 463.699 -1.29926 -5.18675 0
M  V30 4993 H 464.042 0.0730761 -4.16236 0
M  V30 4994 H 464.575 -1.55074 -3.66329 0
M  V30 4995 H 461.314 -4.23009 -5.00743 0
M  V30 4996 H 460.834 -2.56805 -5.42044 0
M  V30 4997 H 462.513 -3.10441 -5.67658 0
M  V30 4998 N 462.645 1.35699 -0.801477 0
M  V30 4999 C 463.892 1.98913 -0.379459 0
M  V30 5000 C 464.22 1.63592 1.05204 0
M  V30 5001 O 463.475 0.888563 1.74365 0
M  V30 5002 C 463.774 3.53828 -0.504041 0
M  V30 5003 C 463.44 4.09002 -1.8981 0
M  V30 5004 C 462.102 4.23783 -2.27951 0
M  V30 5005 C 464.454 4.38939 -2.81038 0
M  V30 5006 C 461.782 4.65816 -3.56696 0
M  V30 5007 C 464.134 4.82409 -4.09224 0
M  V30 5008 C 462.798 4.95395 -4.4737 0
M  V30 5009 H 462.068 0.727874 -0.138854 0
M  V30 5010 H 464.715 1.61994 -1.02128 0
M  V30 5011 H 463.02 3.91175 0.221242 0
M  V30 5012 H 464.717 4.00687 -0.158361 0
M  V30 5013 H 461.307 3.97946 -1.59176 0
M  V30 5014 H 465.491 4.27077 -2.52821 0
M  V30 5015 H 460.747 4.74059 -3.86106 0
M  V30 5016 H 464.921 5.04535 -4.80018 0
M  V30 5017 H 462.548 5.27724 -5.47185 0
M  V30 5018 N 464.123 0.554532 1.47522 0
M  V30 5019 C 465.073 -0.215008 2.26984 0
M  V30 5020 C 466.057 -0.88774 1.34194 0
M  V30 5021 O 467.249 -0.786489 1.58567 0
M  V30 5022 C 464.378 -1.24604 3.19889 0
M  V30 5023 C 463.464 -0.576857 4.20159 0
M  V30 5024 N 463.855 0.351541 5.04577 0
M  V30 5025 C 462.153 -0.831104 4.38188 0
M  V30 5026 C 462.854 0.739995 5.76974 0
M  V30 5027 N 461.83 0.0954407 5.43516 0
M  V30 5028 H 465.632 0.498843 2.89636 0
M  V30 5029 H 463.146 0.374279 1.58028 0
M  V30 5030 H 465.143 -1.81128 3.75498 0
M  V30 5031 H 463.803 -1.96101 2.58794 0
M  V30 5032 H 464.814 0.725556 5.12792 0
M  V30 5033 H 461.491 -1.53479 3.88266 0
M  V30 5034 H 462.881 1.50271 6.5488 0
M  V30 5035 N 465.601 -1.54893 0.290851 0
M  V30 5036 C 466.849 -1.99538 -0.320756 0
M  V30 5037 C 467.17 -1.18075 -1.55188 0
M  V30 5038 O 466.44 -0.274162 -1.93972 0
M  V30 5039 H 465.02 -0.737052 -0.121507 0
M  V30 5040 H 467.682 -1.90755 0.399832 0
M  V30 5041 H 466.778 -3.06282 -0.599802 0
M  V30 5042 N 467.08 -0.0183926 -1.57589 0
M  V30 5043 C 468.496 0.337897 -1.55982 0
M  V30 5044 C 468.696 1.73604 -1.02294 0
M  V30 5045 O 467.752 2.43589 -0.664895 0
M  V30 5046 C 469.065 0.196305 -3.00059 0
M  V30 5047 C 470.613 0.269875 -3.11834 0
M  V30 5048 C 471.088 0.157197 -4.5773 0
M  V30 5049 N 472.579 0.214521 -4.62703 0
M  V30 5050 C 473.314 0.150955 -5.73201 0
M  V30 5051 N 472.81 0.0369212 -6.9279 0
M  V30 5052 N 474.603 0.204162 -5.61729 0
M  V30 5053 H 466.754 -0.93279 -1.90821 0
M  V30 5054 H 469.017 -0.359253 -0.877292 0
M  V30 5055 H 468.723 -0.766383 -3.43248 0
M  V30 5056 H 468.597 0.970908 -3.6449 0
M  V30 5057 H 470.984 1.22302 -2.68563 0
M  V30 5058 H 471.065 -0.534918 -2.50144 0
M  V30 5059 H 470.709 -0.792479 -5.01679 0
M  V30 5060 H 470.639 0.980717 -5.17387 0
M  V30 5061 H 473.13 0.303238 -3.76681 0
M  V30 5062 H 473.443 -0.00518321 -7.728 0
M  V30 5063 H 471.788 0.0022886 -6.95 0
M  V30 5064 H 474.979 0.291575 -4.67191 0
M  V30 5065 H 475.152 0.15116 -6.47824 0
M  V30 5066 N 468.558 1.5553 0.254621 0
M  V30 5067 C 469.806 1.7665 0.981793 0
M  V30 5068 C 470.127 0.580963 1.86145 0
M  V30 5069 O 469.397 -0.403537 1.91699 0
M  V30 5070 H 467.977 0.651475 0.365498 0
M  V30 5071 H 470.639 1.92958 0.274426 0
M  V30 5072 H 469.735 2.67486 1.60802 0
M  V30 5073 N 470.036 -0.519951 1.48776 0
M  V30 5074 C 470.966 -1.63253 1.66945 0
M  V30 5075 C 471.947 -1.62014 0.518224 0
M  V30 5076 O 473.132 -1.79053 0.751919 0
M  V30 5077 C 470.262 -3.0181 1.71836 0
M  V30 5078 C 469.216 -3.17911 2.8656 0
M  V30 5079 C 468.542 -4.5763 2.76548 0
M  V30 5080 C 469.842 -2.99729 4.27738 0
M  V30 5081 H 471.536 -1.48302 2.6009 0
M  V30 5082 H 469.082 -0.712026 1.25165 0
M  V30 5083 H 471.035 -3.79525 1.83135 0
M  V30 5084 H 469.759 -3.17806 0.752775 0
M  V30 5085 H 468.418 -2.42616 2.74833 0
M  V30 5086 H 468.066 -4.70476 1.77937 0
M  V30 5087 H 467.766 -4.69346 3.53536 0
M  V30 5088 H 469.29 -5.37431 2.89828 0
M  V30 5089 H 470.704 -3.67228 4.40246 0
M  V30 5090 H 469.101 -3.22932 5.05801 0
M  V30 5091 H 470.171 -1.96047 4.43502 0
M  V30 5092 N 471.514 -1.37532 -0.769588 0
M  V30 5093 C 472.761 -1.3286 -1.52822 0
M  V30 5094 C 473.089 0.0862597 -1.94309 0
M  V30 5095 O 472.344 1.05995 -1.6451 0
M  V30 5096 C 472.643 -2.21558 -2.8044 0
M  V30 5097 C 472.309 -3.69796 -2.57996 0
M  V30 5098 C 470.971 -4.10194 -2.51583 0
M  V30 5099 C 473.323 -4.63699 -2.37976 0
M  V30 5100 C 470.651 -5.42608 -2.23144 0
M  V30 5101 C 473.003 -5.96353 -2.1106 0
M  V30 5102 C 471.667 -6.35853 -2.03093 0
M  V30 5103 H 470.937 -0.486168 -0.559215 0
M  V30 5104 H 473.584 -1.69757 -0.886277 0
M  V30 5105 H 471.889 -1.77663 -3.49204 0
M  V30 5106 H 473.586 -2.15256 -3.38328 0
M  V30 5107 H 470.176 -3.37759 -2.63851 0
M  V30 5108 H 474.36 -4.33346 -2.41919 0
M  V30 5109 H 469.616 -5.72173 -2.15472 0
M  V30 5110 H 473.79 -6.68667 -1.94568 0
M  V30 5111 H 471.417 -7.38382 -1.8082 0
M  V30 5112 N 472.992 0.995999 -1.22138 0
M  V30 5113 C 474.217 1.77601 -1.0711 0
M  V30 5114 C 474.642 1.84339 0.374264 0
M  V30 5115 O 474 1.29359 1.27028 0
M  V30 5116 C 474.048 3.18897 -1.68336 0
M  V30 5117 O 473.152 4.01663 -0.934928 0
M  V30 5118 H 472.493 0.547011 -0.376397 0
M  V30 5119 H 475.023 1.25137 -1.6187 0
M  V30 5120 H 475.033 3.69539 -1.72931 0
M  V30 5121 H 473.708 3.13308 -2.73516 0
M  V30 5122 H 472.285 3.60204 -0.964751 0
M  V30 5123 N 474.47 1.03057 1.19235 0
M  V30 5124 C 475.695 0.74757 1.93458 0
M  V30 5125 C 476.12 -0.687648 1.7508 0
M  V30 5126 O 475.478 -1.47499 1.05422 0
M  V30 5127 C 475.526 1.10604 3.43219 0
M  V30 5128 O 474.63 0.225671 4.11782 0
M  V30 5129 H 473.971 0.276047 0.603899 0
M  V30 5130 H 476.501 1.3777 1.51263 0
M  V30 5131 H 476.511 1.06366 3.93891 0
M  V30 5132 H 475.186 2.15165 3.55917 0
M  V30 5133 H 473.763 0.326795 3.71465 0
M  V30 5134 N 475.948 -1.35272 0.808662 0
M  V30 5135 C 477.225 -1.93077 0.313181 0
M  V30 5136 C 477.605 -1.73847 -1.19752 0
M  V30 5137 O 476.953 -1.1087 -1.998 0
M  V30 5138 C 477.163 -3.41347 0.726859 0
M  V30 5139 C 478.511 -4.18493 0.717532 0
M  V30 5140 O 479.535 -3.4987 0.668535 0
M  V30 5141 O 478.394 -5.40937 0.777779 0
M  V30 5142 H 475.488 -0.822885 0.0824018 0
M  V30 5143 H 478.034 -1.44335 0.892499 0
M  V30 5144 H 476.806 -3.49082 1.76797 0
M  V30 5145 H 476.429 -3.97411 0.122461 0
M  V30 5146 N 477.426 -0.562348 -1.47226 0
M  V30 5147 C 478.654 -0.0452275 -2.06851 0
M  V30 5148 C 479.069 1.25078 -1.41424 0
M  V30 5149 O 478.426 1.75156 -0.512513 0
M  V30 5150 C 478.477 0.148674 -3.61194 0
M  V30 5151 O 478.198 -1.09602 -4.24169 0
M  V30 5152 C 479.699 0.702488 -4.37699 0
M  V30 5153 H 476.919 -0.0481775 -0.669268 0
M  V30 5154 H 479.463 -0.777223 -1.89155 0
M  V30 5155 H 477.618 0.830817 -3.78386 0
M  V30 5156 H 478.032 -0.896982 -5.16773 0
M  V30 5157 H 479.506 0.78743 -5.46355 0
M  V30 5158 H 479.983 1.71493 -4.04335 0
M  V30 5159 H 480.589 0.0558772 -4.25263 0
M  V30 5160 N 478.904 1.54736 -0.299062 0
M  V30 5161 C 480.15 2.01114 0.304123 0
M  V30 5162 C 480.505 1.18376 1.51674 0
M  V30 5163 O 479.798 0.251635 1.8994 0
M  V30 5164 C 479.992 3.50199 0.713835 0
M  V30 5165 C 479.821 4.47366 -0.457531 0
M  V30 5166 C 478.591 4.9631 -0.948933 0
M  V30 5167 C 480.789 4.9755 -1.30186 0
M  V30 5168 N 478.771 5.77327 -2.08726 0
M  V30 5169 C 480.142 5.7625 -2.28771 0
M  V30 5170 C 482.197 4.79739 -1.33246 0
M  V30 5171 C 480.9 6.39036 -3.3019 0
M  V30 5172 C 482.926 5.43343 -2.33521 0
M  V30 5173 C 482.288 6.21874 -3.30836 0
M  V30 5174 H 478.387 0.778318 0.0757992 0
M  V30 5175 H 480.971 1.89925 -0.428536 0
M  V30 5176 H 479.142 3.61681 1.41567 0
M  V30 5177 H 480.874 3.83374 1.29639 0
M  V30 5178 H 477.629 4.7069 -0.52423 0
M  V30 5179 H 478.053 6.22521 -2.66077 0
M  V30 5180 H 482.695 4.18609 -0.59383 0
M  V30 5181 H 480.413 6.99302 -4.04973 0
M  V30 5182 H 483.999 5.31492 -2.3666 0
M  V30 5183 H 482.879 6.70217 -4.07159 0
M  V30 5184 N 480.382 0.0267497 1.57577 0
M  V30 5185 C 481.63 -0.651116 1.91324 0
M  V30 5186 C 481.951 -1.72804 0.90353 0
M  V30 5187 O 481.221 -1.95822 -0.0552946 0
M  V30 5188 H 479.801 -0.243491 0.706202 0
M  V30 5189 H 482.463 0.0739935 1.94759 0
M  V30 5190 H 481.559 -1.10536 2.9187 0
M  V30 5191 N 481.861 -1.55662 -0.24637 0
M  V30 5192 C 482.791 -1.93377 -1.30873 0
M  V30 5193 C 483.772 -0.798773 -1.50179 0
M  V30 5194 O 484.957 -1.0591 -1.62778 0
M  V30 5195 C 482.087 -2.22893 -2.66338 0
M  V30 5196 C 481.041 -3.38649 -2.61727 0
M  V30 5197 C 480.367 -3.53708 -4.00992 0
M  V30 5198 C 481.667 -4.74323 -2.18666 0
M  V30 5199 H 483.361 -2.82363 -0.995552 0
M  V30 5200 H 480.907 -1.35854 -0.477464 0
M  V30 5201 H 482.86 -2.47866 -3.40794 0
M  V30 5202 H 481.584 -1.30733 -2.99293 0
M  V30 5203 H 480.243 -3.13685 -1.89729 0
M  V30 5204 H 479.891 -2.58967 -4.31214 0
M  V30 5205 H 479.591 -4.31551 -3.98795 0
M  V30 5206 H 481.115 -3.81003 -4.77147 0
M  V30 5207 H 482.529 -4.98665 -2.82854 0
M  V30 5208 H 480.926 -5.55273 -2.27579 0
M  V30 5209 H 481.996 -4.71349 -1.13834 0
M  V30 5210 N 483.339 0.512053 -1.4905 0
M  V30 5211 C 484.585 1.26874 -1.58212 0
M  V30 5212 C 484.918 1.9241 -0.263073 0
M  V30 5213 O 484.193 1.80181 0.732476 0
M  V30 5214 C 484.476 2.34428 -2.73341 0
M  V30 5215 C 484.329 1.73466 -4.15006 0
M  V30 5216 C 485.648 3.36073 -2.84154 0
M  V30 5217 H 482.767 0.459924 -0.575881 0
M  V30 5218 H 485.409 0.568587 -1.81293 0
M  V30 5219 H 483.559 2.94146 -2.53792 0
M  V30 5220 H 485.231 1.17661 -4.46042 0
M  V30 5221 H 483.474 1.03921 -4.21168 0
M  V30 5222 H 484.145 2.51426 -4.91415 0
M  V30 5223 H 486.621 2.86332 -3.01916 0
M  V30 5224 H 485.497 4.08703 -3.66406 0
M  V30 5225 H 485.758 3.97725 -1.93048 0
M  V30 5226 N 484.817 1.37938 0.762283 0
M  V30 5227 C 486.228 1.30094 1.33912 0
M  V30 5228 C 486.579 -0.0472026 1.96143 0
M  V30 5229 O 485.704 -0.94917 1.94473 0
M  V30 5230 C 486.299 2.35592 2.43478 0
M  V30 5231 C 484.858 2.31353 2.96905 0
M  V30 5232 C 484.005 2.18919 1.70205 0
M  V30 5233 H 486.956 1.48423 0.561816 0
M  V30 5234 H 486.977 2.00806 3.23199 0
M  V30 5235 H 486.489 3.33701 1.98155 0
M  V30 5236 H 484.59 1.36799 3.46579 0
M  V30 5237 H 484.703 3.25147 3.51875 0
M  V30 5238 H 483.067 1.65624 1.93496 0
M  V30 5239 H 483.85 3.18956 1.26973 0
M  V30 5240 N 486.295 -0.989507 1.22664 0
M  V30 5241 C 487.525 -1.7624 1.0781 0
M  V30 5242 C 487.933 -1.85466 -0.374036 0
M  V30 5243 O 487.276 -1.32645 -1.27087 0
M  V30 5244 C 487.338 -3.21007 1.61849 0
M  V30 5245 C 487.002 -3.35316 3.10503 0
M  V30 5246 C 487.999 -3.22362 4.07896 0
M  V30 5247 C 485.684 -3.60258 3.50028 0
M  V30 5248 C 487.678 -3.34139 5.42798 0
M  V30 5249 C 485.365 -3.71676 4.85078 0
M  V30 5250 C 486.363 -3.58625 5.81272 0
M  V30 5251 O 486.051 -3.69655 7.1387 0
M  V30 5252 H 485.783 -0.560209 0.378341 0
M  V30 5253 H 488.337 -1.25252 1.62792 0
M  V30 5254 H 486.567 -3.73202 1.01279 0
M  V30 5255 H 488.256 -3.80024 1.42606 0
M  V30 5256 H 489.022 -3.03 3.78703 0
M  V30 5257 H 484.901 -3.69492 2.75675 0
M  V30 5258 H 488.445 -3.23869 6.17863 0
M  V30 5259 H 484.342 -3.90545 5.1395 0
M  V30 5260 H 485.11 -3.86507 7.21495 0
M  V30 5261 N 487.773 -1.03688 -1.18687 0
M  V30 5262 C 488.998 -0.757819 -1.93059 0
M  V30 5263 C 489.423 0.678353 -1.75442 0
M  V30 5264 O 488.781 1.46938 -1.06203 0
M  V30 5265 C 488.829 -1.12423 -3.42627 0
M  V30 5266 O 487.933 -0.247505 -4.11657 0
M  V30 5267 H 487.274 -0.279245 -0.602427 0
M  V30 5268 H 489.804 -1.3857 -1.5053 0
M  V30 5269 H 489.814 -1.08454 -3.93322 0
M  V30 5270 H 488.489 -2.17049 -3.54771 0
M  V30 5271 H 487.066 -0.34649 -3.71287 0
M  V30 5272 N 489.251 1.34841 -0.815825 0
M  V30 5273 C 490.198 2.29644 -0.230664 0
M  V30 5274 C 491.168 1.53253 0.640533 0
M  V30 5275 O 492.353 1.81653 0.583672 0
M  V30 5276 C 489.493 3.39715 0.607275 0
M  V30 5277 C 488.606 4.31056 -0.28538 0
M  V30 5278 C 487.741 5.28225 0.561446 0
M  V30 5279 C 486.78 6.11204 -0.331035 0
M  V30 5280 N 485.917 7.00483 0.476302 0
M  V30 5281 H 490.757 2.79095 -1.0445 0
M  V30 5282 H 488.294 1.37351 -0.526595 0
M  V30 5283 H 490.252 4.02208 1.10835 0
M  V30 5284 H 488.882 2.91517 1.38629 0
M  V30 5285 H 487.934 3.69487 -0.904621 0
M  V30 5286 H 489.246 4.89239 -0.97193 0
M  V30 5287 H 488.4 5.96135 1.12728 0
M  V30 5288 H 487.139 4.70562 1.28153 0
M  V30 5289 H 486.144 5.42232 -0.909069 0
M  V30 5290 H 487.369 6.70947 -1.04912 0
M  V30 5291 H 485.315 6.45296 1.18019 0
M  V30 5292 H 485.232 7.55847 -0.152008 0
M  V30 5293 H 486.5 7.7273 1.02512 0
M  V30 5294 N 490.729 0.570148 1.46925 0
M  V30 5295 C 492.14 0.1402 1.86173 0
M  V30 5296 C 492.491 -1.29347 1.47526 0
M  V30 5297 O 491.616 -1.97508 0.884292 0
M  V30 5298 C 492.211 0.247661 3.37894 0
M  V30 5299 C 490.77 -0.127332 3.76185 0
M  V30 5300 C 489.917 0.589349 2.70965 0
M  V30 5301 H 492.868 0.779117 1.38259 0
M  V30 5302 H 492.889 -0.530341 3.76786 0
M  V30 5303 H 492.401 1.29121 3.65991 0
M  V30 5304 H 490.502 -1.17149 3.53704 0
M  V30 5305 H 490.615 0.240238 4.78497 0
M  V30 5306 H 488.979 0.0309824 2.54681 0
M  V30 5307 H 489.762 1.6343 3.01903 0
M  V30 5308 N 492.207 -1.54576 0.307264 0
M  V30 5309 C 493.456 -1.99442 -0.300976 0
M  V30 5310 C 493.769 -1.19928 -1.5452 0
M  V30 5311 O 494.975 -1.55092 -2.22842 0
M  V30 5312 C 493.431 -3.55084 -0.586809 0
M  V30 5313 C 493.039 -4.43413 0.639438 0
M  V30 5314 C 494.783 -4.0846 -1.1559 0
M  V30 5315 C 492.69 -5.90499 0.326411 0
M  V30 5316 H 491.62 -0.744986 -0.116238 0
M  V30 5317 H 494.271 -1.787 0.416947 0
M  V30 5318 H 492.653 -3.71749 -1.36449 0
M  V30 5319 H 493.827 -4.38522 1.41545 0
M  V30 5320 H 492.142 -4.00842 1.1276 0
M  V30 5321 H 494.739 -5.15926 -1.40445 0
M  V30 5322 H 495.082 -3.59443 -2.10015 0
M  V30 5323 H 495.615 -3.95362 -0.439778 0
M  V30 5324 H 492.354 -6.43676 1.23939 0
M  V30 5325 H 491.874 -5.98382 -0.412212 0
M  V30 5326 H 493.553 -6.46962 -0.0697393 0
M  V30 5327 N 493.685 -0.035106 -1.57561 0
M  V30 5328 C 494.913 0.652258 -1.9635 0
M  V30 5329 C 495.328 1.65317 -0.911897 0
M  V30 5330 O 494.685 1.82194 0.105657 0
M  V30 5331 C 494.736 1.35337 -3.35211 0
M  V30 5332 O 494.457 0.392548 -4.36338 0
M  V30 5333 C 495.958 2.13199 -3.88666 0
M  V30 5334 H 493.178 0.179444 -0.646561 0
M  V30 5335 H 495.722 -0.0966459 -2.04271 0
M  V30 5336 H 493.877 2.05362 -3.28489 0
M  V30 5337 H 494.291 0.891097 -5.16875 0
M  V30 5338 H 495.765 2.577 -4.88154 0
M  V30 5339 H 496.242 2.97353 -3.23231 0
M  V30 5340 H 496.848 1.48118 -3.98674 0
M  V30 5341 N 495.163 1.55791 0.238111 0
M  V30 5342 C 496.391 1.82098 0.982233 0
M  V30 5343 C 496.806 0.612025 1.78605 0
M  V30 5344 O 496.163 -0.419381 1.77616 0
M  V30 5345 C 496.214 3.0673 1.91309 0
M  V30 5346 O 495.935 4.2296 1.14179 0
M  V30 5347 C 497.436 3.45903 2.77248 0
M  V30 5348 H 494.656 0.605748 0.288635 0
M  V30 5349 H 497.2 2.02862 0.258341 0
M  V30 5350 H 495.355 2.87991 2.59114 0
M  V30 5351 H 495.769 4.93653 1.7722 0
M  V30 5352 H 497.243 4.36189 3.38295 0
M  V30 5353 H 497.72 2.66891 3.48806 0
M  V30 5354 H 498.326 3.67024 2.14881 0
M  V30 5355 N 496.642 -0.504142 1.49319 0
M  V30 5356 C 497.888 -1.26033 1.58882 0
M  V30 5357 C 498.221 -1.92268 0.273274 0
M  V30 5358 O 497.496 -1.80567 -0.72291 0
M  V30 5359 C 497.779 -2.32976 2.7458 0
M  V30 5360 C 497.632 -1.71263 4.1592 0
M  V30 5361 C 498.951 -3.34561 2.85932 0
M  V30 5362 H 496.07 -0.456863 0.578312 0
M  V30 5363 H 498.712 -0.558965 1.81592 0
M  V30 5364 H 496.862 -2.92796 2.55348 0
M  V30 5365 H 498.534 -1.15294 4.4666 0
M  V30 5366 H 496.777 -1.01686 4.21714 0
M  V30 5367 H 497.448 -2.48816 4.92742 0
M  V30 5368 H 499.924 -2.84727 3.0343 0
M  V30 5369 H 498.8 -4.06754 3.68568 0
M  V30 5370 H 499.061 -3.96695 1.95154 0
M  V30 5371 N 498.12 -1.38341 -0.754957 0
M  V30 5372 C 499.366 -1.34672 -1.51628 0
M  V30 5373 C 499.699 0.0636036 -1.94096 0
M  V30 5374 O 498.974 1.0245 -1.6533 0
M  V30 5375 C 499.257 -2.30116 -2.76981 0
M  V30 5376 C 499.11 -3.80003 -2.4066 0
M  V30 5377 C 500.429 -2.23715 -3.78998 0
M  V30 5378 H 497.548 -0.490517 -0.550056 0
M  V30 5379 H 500.19 -1.69178 -0.864807 0
M  V30 5380 H 498.34 -2.00821 -3.3257 0
M  V30 5381 H 500.012 -4.19966 -1.90856 0
M  V30 5382 H 498.255 -3.97751 -1.73137 0
M  V30 5383 H 498.926 -4.42244 -3.30339 0
M  V30 5384 H 501.402 -2.49574 -3.32945 0
M  V30 5385 H 500.278 -2.9261 -4.64403 0
M  V30 5386 H 500.539 -1.23554 -4.24484 0
M  V30 5387 N 499.598 0.982988 -1.23187 0
M  V30 5388 C 500.846 1.72052 -1.06031 0
M  V30 5389 C 501.167 1.90769 0.404019 0
M  V30 5390 O 500.437 1.47446 1.28982 0
M  V30 5391 H 499.017 0.637499 -0.389363 0
M  V30 5392 H 501.679 1.18338 -1.54862 0
M  V30 5393 H 500.775 2.7111 -1.54615 0
M  V30 5394 N 501.076 1.04316 1.18135 0
M  V30 5395 C 501.986 0.646876 2.25505 0
M  V30 5396 C 503.002 -0.328008 1.7088 0
M  V30 5397 O 504.178 -0.182309 2.00573 0
M  V30 5398 C 501.243 0.0185664 3.46695 0
M  V30 5399 C 500.304 1.04277 4.16443 0
M  V30 5400 C 499.537 0.444352 5.31847 0
M  V30 5401 O 499.76 -0.748735 5.65465 0
M  V30 5402 O 498.694 1.17428 5.90334 0
M  V30 5403 H 502.52 1.54147 2.61672 0
M  V30 5404 H 500.105 0.814188 1.25265 0
M  V30 5405 H 501.987 -0.331068 4.20097 0
M  V30 5406 H 500.662 -0.849814 3.12346 0
M  V30 5407 H 499.569 1.44425 3.45098 0
M  V30 5408 H 500.902 1.882 4.54798 0
M  V30 5409 N 502.554 -1.34406 0.822964 0
M  V30 5410 C 503.965 -1.8069 0.469879 0
M  V30 5411 C 504.316 -1.68223 -1.00972 0
M  V30 5412 O 503.441 -1.22226 -1.78577 0
M  V30 5413 C 504.036 -3.28064 0.846118 0
M  V30 5414 C 502.595 -3.72428 0.545402 0
M  V30 5415 C 501.742 -2.56116 1.06301 0
M  V30 5416 H 504.693 -1.22153 1.01313 0
M  V30 5417 H 504.714 -3.80205 0.149922 0
M  V30 5418 H 504.226 -3.37107 1.92304 0
M  V30 5419 H 502.327 -3.68924 -0.522109 0
M  V30 5420 H 502.44 -4.66548 1.0895 0
M  V30 5421 H 500.804 -2.50048 0.484554 0
M  V30 5422 H 501.587 -2.67928 2.14638 0
M  V30 5423 N 504.032 -0.577932 -1.46621 0
M  V30 5424 C 505.281 -0.0594281 -2.01612 0
M  V30 5425 C 505.594 1.30663 -1.45556 0
M  V30 5426 O 506.8 1.91621 -1.92337 0
M  V30 5427 C 505.256 -0.0556666 -3.59857 0
M  V30 5428 C 504.864 -1.41975 -4.24908 0
M  V30 5429 C 506.608 0.409143 -4.22524 0
M  V30 5430 C 504.515 -1.37397 -5.75218 0
M  V30 5431 H 503.445 -0.0184469 -0.753774 0
M  V30 5432 H 506.096 -0.728869 -1.68404 0
M  V30 5433 H 504.478 0.679843 -3.90121 0
M  V30 5434 H 505.652 -2.17461 -4.0626 0
M  V30 5435 H 503.967 -1.82419 -3.74316 0
M  V30 5436 H 506.564 0.46211 -5.32699 0
M  V30 5437 H 506.907 1.42565 -3.91128 0
M  V30 5438 H 507.44 -0.272152 -3.96868 0
M  V30 5439 H 504.179 -2.36714 -6.11267 0
M  V30 5440 H 503.699 -0.661239 -5.96144 0
M  V30 5441 H 505.378 -1.08484 -6.3784 0
M  V30 5442 N 505.51 1.54411 -0.315457 0
M  V30 5443 C 506.738 2.04833 0.291738 0
M  V30 5444 C 507.153 1.19203 1.46411 0
M  V30 5445 O 506.51 0.220867 1.81159 0
M  V30 5446 C 506.561 3.53969 0.73404 0
M  V30 5447 O 506.282 4.36346 -0.391682 0
M  V30 5448 C 507.783 4.2045 1.40489 0
M  V30 5449 H 505.003 0.668195 0.0612947 0
M  V30 5450 H 507.547 1.99276 -0.45929 0
M  V30 5451 H 505.702 3.5984 1.43506 0
M  V30 5452 H 506.116 5.24481 -0.0447088 0
M  V30 5453 H 507.59 5.26278 1.66539 0
M  V30 5454 H 508.067 3.71067 2.3496 0
M  V30 5455 H 508.673 4.18694 0.746662 0
M  V30 5456 N 506.988 0.0434614 1.5754 0
M  V30 5457 C 508.237 -0.631454 1.91561 0
M  V30 5458 C 508.55 -1.72457 0.92292 0
M  V30 5459 O 509.756 -2.45712 1.15489 0
M  V30 5460 C 508.212 -1.17447 3.40197 0
M  V30 5461 C 507.82 -0.113867 4.47855 0
M  V30 5462 C 509.564 -1.82507 3.83264 0
M  V30 5463 C 507.471 -0.669326 5.876 0
M  V30 5464 H 506.401 -0.239629 0.714908 0
M  V30 5465 H 509.052 0.111097 1.83163 0
M  V30 5466 H 507.434 -1.96909 3.43574 0
M  V30 5467 H 508.608 0.659348 4.56058 0
M  V30 5468 H 506.923 0.438821 4.14081 0
M  V30 5469 H 509.52 -2.25047 4.85034 0
M  V30 5470 H 509.863 -2.67365 3.19095 0
M  V30 5471 H 510.396 -1.09712 3.82372 0
M  V30 5472 H 507.135 0.141449 6.55347 0
M  V30 5473 H 506.655 -1.4107 5.82974 0
M  V30 5474 H 508.334 -1.15463 6.36614 0
M  V30 5475 N 508.466 -1.55915 -0.229846 0
M  V30 5476 C 509.877 -1.68809 -0.797531 0
M  V30 5477 C 510.228 -0.643995 -1.8533 0
M  V30 5478 O 509.353 0.206492 -2.15413 0
M  V30 5479 C 509.948 -3.06043 -1.45338 0
M  V30 5480 C 508.507 -3.20819 -1.96856 0
M  V30 5481 C 507.654 -2.6472 -0.825736 0
M  V30 5482 H 510.605 -1.58699 -0.00533733 0
M  V30 5483 H 510.626 -3.01438 -2.32196 0
M  V30 5484 H 510.138 -3.82012 -0.684743 0
M  V30 5485 H 508.239 -2.49704 -2.76548 0
M  V30 5486 H 508.352 -4.27937 -2.15423 0
M  V30 5487 H 506.716 -2.22985 -1.23084 0
M  V30 5488 H 507.499 -3.43229 -0.0699019 0
M  V30 5489 N 509.944 0.496216 -1.49584 0
M  V30 5490 C 510.891 1.59722 -1.66606 0
M  V30 5491 C 511.861 1.58158 -0.507477 0
M  V30 5492 O 513.046 1.76072 -0.735076 0
M  V30 5493 C 510.186 2.97844 -1.74308 0
M  V30 5494 C 509.299 3.09388 -3.01502 0
M  V30 5495 C 508.434 4.38271 -3.00153 0
M  V30 5496 C 507.473 4.43466 -4.21906 0
M  V30 5497 N 506.61 5.63784 -4.1844 0
M  V30 5498 H 511.45 1.44515 -2.60613 0
M  V30 5499 H 508.987 0.703048 -1.29212 0
M  V30 5500 H 510.945 3.77907 -1.76754 0
M  V30 5501 H 509.575 3.11743 -0.837619 0
M  V30 5502 H 508.627 2.22357 -3.08645 0
M  V30 5503 H 509.939 3.09085 -3.91494 0
M  V30 5504 H 509.093 5.2666 -3.01188 0
M  V30 5505 H 507.832 4.41146 -2.07947 0
M  V30 5506 H 506.837 3.53478 -4.21109 0
M  V30 5507 H 508.062 4.42303 -5.1531 0
M  V30 5508 H 506.008 5.67491 -3.29074 0
M  V30 5509 H 505.925 5.65118 -5.02173 0
M  V30 5510 H 507.193 6.54367 -4.23585 0
M  V30 5511 N 511.423 1.38739 0.74761 0
M  V30 5512 C 512.353 1.39173 1.87492 0
M  V30 5513 C 513.334 0.256794 1.6815 0
M  V30 5514 O 514.519 0.460762 1.88655 0
M  V30 5515 C 511.649 1.22197 3.25093 0
M  V30 5516 C 510.603 2.32957 3.59047 0
M  V30 5517 C 509.929 2.01082 4.95449 0
M  V30 5518 C 511.229 3.75237 3.6331 0
M  V30 5519 H 512.923 2.3351 1.87386 0
M  V30 5520 H 510.469 1.12399 0.900134 0
M  V30 5521 H 512.422 1.21124 4.03617 0
M  V30 5522 H 511.146 0.243241 3.25693 0
M  V30 5523 H 509.805 2.33226 2.82845 0
M  V30 5524 H 509.453 1.01678 4.92616 0
M  V30 5525 H 509.153 2.75267 5.19136 0
M  V30 5526 H 510.677 2.01638 5.76346 0
M  V30 5527 H 512.091 3.76966 4.31937 0
M  V30 5528 H 510.488 4.48677 3.98509 0
M  V30 5529 H 511.558 4.07122 2.634 0
M  V30 5530 N 512.901 -0.976442 1.23707 0
M  V30 5531 C 513.811 -2.10359 1.03856 0
M  V30 5532 C 514.827 -1.73991 -0.0180919 0
M  V30 5533 O 516.003 -2.0061 0.178211 0
M  V30 5534 C 513.068 -3.40809 0.636387 0
M  V30 5535 C 512.129 -3.91179 1.76854 0
M  V30 5536 C 511.362 -5.15404 1.38546 0
M  V30 5537 O 511.585 -5.69754 0.27142 0
M  V30 5538 O 510.519 -5.5994 2.20797 0
M  V30 5539 H 514.345 -2.29997 1.98331 0
M  V30 5540 H 511.93 -1.08742 1.02448 0
M  V30 5541 H 513.812 -4.19269 0.423223 0
M  V30 5542 H 512.487 -3.22493 -0.279322 0
M  V30 5543 H 511.394 -3.13819 2.03638 0
M  V30 5544 H 512.727 -4.13958 2.6627 0
M  V30 5545 N 514.379 -1.04941 -1.1758 0
M  V30 5546 C 515.329 -0.618378 -2.19454 0
M  V30 5547 C 516.313 0.343813 -1.57184 0
M  V30 5548 O 517.505 0.16145 -1.76262 0
M  V30 5549 C 514.634 0.00803847 -3.43299 0
M  V30 5550 C 513.72 -0.977827 -4.12673 0
M  V30 5551 N 514.111 -2.14826 -4.57912 0
M  V30 5552 C 512.409 -0.805748 -4.38661 0
M  V30 5553 C 513.11 -2.77174 -5.11419 0
M  V30 5554 N 512.086 -2.04989 -5.03468 0
M  V30 5555 H 515.888 -1.51018 -2.52132 0
M  V30 5556 H 513.402 -0.919201 -1.33882 0
M  V30 5557 H 515.399 0.334584 -4.15555 0
M  V30 5558 H 514.059 0.895272 -3.12114 0
M  V30 5559 H 515.07 -2.52673 -4.52081 0
M  V30 5560 H 511.747 0.0306506 -4.17489 0
M  V30 5561 H 513.137 -3.76416 -5.56562 0
M  V30 5562 N 515.857 1.33968 -0.830081 0
M  V30 5563 C 517.268 1.80439 -0.479455 0
M  V30 5564 C 517.619 1.68756 1.00079 0
M  V30 5565 O 516.744 1.23171 1.77927 0
M  V30 5566 C 517.339 3.27611 -0.863505 0
M  V30 5567 C 515.898 3.72133 -0.565145 0
M  V30 5568 C 515.045 2.55549 -1.07657 0
M  V30 5569 H 517.996 1.21614 -1.0196 0
M  V30 5570 H 518.017 3.8012 -0.170083 0
M  V30 5571 H 517.529 3.36082 -1.94089 0
M  V30 5572 H 515.63 3.69196 0.502536 0
M  V30 5573 H 515.743 4.65963 -1.11422 0
M  V30 5574 H 514.107 2.49788 -0.497807 0
M  V30 5575 H 514.89 2.66786 -2.16055 0
M  V30 5576 N 517.335 0.585699 1.46312 0
M  V30 5577 C 518.563 0.0781299 2.06752 0
M  V30 5578 C 518.978 -1.22812 1.43396 0
M  V30 5579 O 518.335 -1.74318 0.540314 0
M  V30 5580 C 518.386 -0.0911927 3.61385 0
M  V30 5581 O 518.107 1.16336 4.22371 0
M  V30 5582 C 519.608 -0.632765 4.38761 0
M  V30 5583 H 516.828 0.0588188 0.668417 0
M  V30 5584 H 519.372 0.807218 1.87894 0
M  V30 5585 H 517.527 -0.770514 3.7966 0
M  V30 5586 H 517.941 0.979082 5.15281 0
M  V30 5587 H 519.415 -0.70041 5.47538 0
M  V30 5588 H 519.892 -1.65039 4.07012 0
M  V30 5589 H 520.498 0.0117856 4.25298 0
M  V30 5590 N 518.813 -1.54241 0.323641 0
M  V30 5591 C 519.745 -2.21836 -0.576311 0
M  V30 5592 C 520.758 -1.21837 -1.07979 0
M  V30 5593 O 521.947 -1.48306 -0.99336 0
M  V30 5594 C 519.047 -2.86923 -1.80356 0
M  V30 5595 C 518.22 -4.1306 -1.43875 0
M  V30 5596 C 517.279 -4.6174 -2.52353 0
M  V30 5597 O 516.305 -5.26421 -2.16494 0
M  V30 5598 N 517.507 -4.35974 -3.83284 0
M  V30 5599 H 520.272 -2.997 0.00247987 0
M  V30 5600 H 517.833 -1.61233 0.146848 0
M  V30 5601 H 519.825 -3.16414 -2.52318 0
M  V30 5602 H 518.395 -2.12765 -2.29019 0
M  V30 5603 H 517.615 -3.90334 -0.550752 0
M  V30 5604 H 518.903 -4.95148 -1.17071 0
M  V30 5605 H 518.301 -3.84203 -4.15216 0
M  V30 5606 H 516.858 -4.70119 -4.51477 0
M  V30 5607 N 520.291 -0.0518155 -1.57515 0
M  V30 5608 C 521.223 0.951542 -2.08515 0
M  V30 5609 C 522.236 1.27436 -1.01311 0
M  V30 5610 O 523.425 1.23504 -1.28876 0
M  V30 5611 C 520.525 2.27291 -2.5138 0
M  V30 5612 C 519.698 2.13191 -3.81927 0
M  V30 5613 C 518.757 3.28458 -4.11098 0
M  V30 5614 O 517.783 3.04334 -4.81009 0
M  V30 5615 N 518.985 4.52954 -3.63061 0
M  V30 5616 H 521.75 0.516242 -2.9522 0
M  V30 5617 H 519.311 0.13441 -1.61341 0
M  V30 5618 H 521.303 3.03272 -2.67971 0
M  V30 5619 H 519.873 2.62386 -1.69919 0
M  V30 5620 H 519.093 1.21798 -3.74912 0
M  V30 5621 H 520.381 2.00999 -4.67415 0
M  V30 5622 H 519.779 4.75444 -3.06545 0
M  V30 5623 H 518.336 5.26026 -3.84889 0
M  V30 5624 N 521.769 1.56035 0.221574 0
M  V30 5625 C 523.046 1.69837 0.970301 0
M  V30 5626 C 523.426 0.599065 2.02421 0
M  V30 5627 O 522.774 -0.393929 2.25079 0
M  V30 5628 C 522.984 3.11148 1.58076 0
M  V30 5629 C 524.332 3.70555 2.07302 0
M  V30 5630 O 525.356 3.14109 1.6797 0
M  V30 5631 O 524.215 4.69562 2.79596 0
M  V30 5632 H 521.309 0.691727 0.453257 0
M  V30 5633 H 523.855 1.68353 0.213358 0
M  V30 5634 H 522.627 3.82617 0.819759 0
M  V30 5635 H 522.25 3.16749 2.40324 0
M  V30 5636 N 523.247 -0.488276 1.49845 0
M  V30 5637 C 524.496 -1.23826 1.59217 0
M  V30 5638 C 524.809 -1.93439 0.289966 0
M  V30 5639 O 526.015 -2.70229 0.262382 0
M  V30 5640 C 524.471 -2.24902 2.80976 0
M  V30 5641 C 524.079 -1.6117 4.18005 0
M  V30 5642 C 525.823 -3.00648 2.99685 0
M  V30 5643 C 523.73 -2.60431 5.3097 0
M  V30 5644 H 522.66 -0.465858 0.592868 0
M  V30 5645 H 525.311 -0.510645 1.76252 0
M  V30 5646 H 523.693 -3.0088 2.57463 0
M  V30 5647 H 524.867 -0.910968 4.51706 0
M  V30 5648 H 523.182 -0.97767 4.0476 0
M  V30 5649 H 525.779 -3.74903 3.81251 0
M  V30 5650 H 526.122 -3.5902 2.10738 0
M  V30 5651 H 526.655 -2.31784 3.23297 0
M  V30 5652 H 523.394 -2.06823 6.22017 0
M  V30 5653 H 522.914 -3.28707 5.01709 0
M  V30 5654 H 524.593 -3.22606 5.60834 0
M  V30 5655 N 524.725 -1.39134 -0.740242 0
M  V30 5656 C 526.002 -1.26584 -1.49117 0
M  V30 5657 C 526.382 0.126902 -2.10718 0
M  V30 5658 O 525.73 1.13765 -1.98166 0
M  V30 5659 C 525.94 -2.38619 -2.54681 0
M  V30 5660 C 527.288 -2.77685 -3.21211 0
M  V30 5661 O 528.312 -2.38029 -2.64991 0
M  V30 5662 O 527.171 -3.46115 -4.22926 0
M  V30 5663 H 524.265 -0.495769 -0.661923 0
M  V30 5664 H 526.811 -1.50995 -0.774514 0
M  V30 5665 H 525.583 -3.3175 -2.07504 0
M  V30 5666 H 525.206 -2.15845 -3.33911 0
M  V30 5667 N 526.204 0.969867 -1.24223 0
M  V30 5668 C 527.134 2.08191 -1.05729 0
M  V30 5669 C 528.115 1.70075 0.0290765 0
M  V30 5670 O 529.3 1.93712 -0.137583 0
M  V30 5671 C 526.43 3.40991 -0.658995 0
M  V30 5672 C 525.384 3.93054 -1.69389 0
M  V30 5673 C 524.71 5.22171 -1.15072 0
M  V30 5674 C 526.01 4.21137 -3.08935 0
M  V30 5675 H 527.704 2.23921 -1.98746 0
M  V30 5676 H 525.25 1.07602 -0.956967 0
M  V30 5677 H 527.203 4.18221 -0.51662 0
M  V30 5678 H 525.927 3.25155 0.30686 0
M  V30 5679 H 524.586 3.17977 -1.82444 0
M  V30 5680 H 524.234 5.02694 -0.175539 0
M  V30 5681 H 523.934 5.57973 -1.84229 0
M  V30 5682 H 525.458 6.02013 -1.02042 0
M  V30 5683 H 526.872 4.8908 -2.99121 0
M  V30 5684 H 525.269 4.68163 -3.75425 0
M  V30 5685 H 526.339 3.27996 -3.57137 0
M  V30 5686 N 527.682 1.05563 1.17022 0
M  V30 5687 C 528.912 0.787307 1.91011 0
M  V30 5688 C 529.32 -0.661256 1.77268 0
M  V30 5689 O 528.663 -1.46379 1.10991 0
M  V30 5690 C 528.725 1.09313 3.42478 0
M  V30 5691 C 528.389 2.53863 3.80004 0
M  V30 5692 C 529.386 3.52081 3.82538 0
M  V30 5693 C 527.071 2.88969 4.10855 0
M  V30 5694 C 529.065 4.83449 4.15399 0
M  V30 5695 C 526.752 4.2054 4.43384 0
M  V30 5696 C 527.75 5.17589 4.45635 0
M  V30 5697 O 527.438 6.46799 4.77395 0
M  V30 5698 H 527.17 0.285463 0.61277 0
M  V30 5699 H 529.724 1.41051 1.49311 0
M  V30 5700 H 527.954 0.412833 3.8449 0
M  V30 5701 H 529.643 0.810224 3.97731 0
M  V30 5702 H 530.409 3.26299 3.58823 0
M  V30 5703 H 526.288 2.1409 4.08272 0
M  V30 5704 H 529.832 5.59194 4.1707 0
M  V30 5705 H 525.729 4.46083 4.66563 0
M  V30 5706 H 526.497 6.51677 4.95237 0
M  V30 5707 N 529.16 -1.33526 0.837174 0
M  V30 5708 C 530.11 -2.2672 0.241269 0
M  V30 5709 C 531.094 -1.49183 -0.602756 0
M  V30 5710 O 532.286 -1.71052 -0.455002 0
M  V30 5711 C 529.415 -3.38294 -0.584125 0
M  V30 5712 C 528.501 -4.23231 0.271315 0
M  V30 5713 N 528.892 -4.87473 1.34922 0
M  V30 5714 C 527.19 -4.45962 0.0580589 0
M  V30 5715 C 527.891 -5.50685 1.87405 0
M  V30 5716 N 526.867 -5.30732 1.17578 0
M  V30 5717 H 530.669 -2.73903 1.06558 0
M  V30 5718 H 528.183 -1.47411 0.68145 0
M  V30 5719 H 530.18 -4.04044 -1.02731 0
M  V30 5720 H 528.84 -2.9266 -1.40643 0
M  V30 5721 H 529.851 -4.88077 1.7321 0
M  V30 5722 H 526.528 -4.11052 -0.730938 0
M  V30 5723 H 527.918 -6.11845 2.77661 0
M  V30 5724 N 530.638 -0.59345 -1.46 0
M  V30 5725 C 531.866 -0.0890934 -2.06708 0
M  V30 5726 C 532.281 1.2205 -1.44046 0
M  V30 5727 O 531.638 1.74029 -0.549551 0
M  V30 5728 C 531.689 0.0720263 -3.61428 0
M  V30 5729 O 531.41 -1.18574 -4.21748 0
M  V30 5730 C 532.911 0.609487 -4.3909 0
M  V30 5731 H 530.131 -0.0623628 -0.668096 0
M  V30 5732 H 532.675 -0.817171 -1.87464 0
M  V30 5733 H 530.83 0.750369 -3.80063 0
M  V30 5734 H 531.244 -1.0064 -5.14754 0
M  V30 5735 H 532.718 0.671363 -5.47902 0
M  V30 5736 H 533.195 1.62878 -4.07882 0
M  V30 5737 H 533.801 -0.03434 -4.25286 0
M  V30 5738 N 532.116 1.54067 -0.331816 0
M  V30 5739 C 533.049 2.20886 0.573127 0
M  V30 5740 C 534.027 1.18876 1.10938 0
M  V30 5741 O 535.211 1.47649 1.17184 0
M  V30 5742 C 532.338 2.87706 1.78726 0
M  V30 5743 C 531.384 4.03505 1.38152 0
M  V30 5744 S 532.217 5.33919 0.41123 0
M  V30 5745 C 533.373 6.04236 1.63246 0
M  V30 5746 H 533.606 2.97299 0.00555737 0
M  V30 5747 H 531.139 1.53964 -0.115893 0
M  V30 5748 H 533.097 3.26825 2.48386 0
M  V30 5749 H 531.758 2.1108 2.32603 0
M  V30 5750 H 530.951 4.49152 2.28645 0
M  V30 5751 H 530.553 3.66102 0.764524 0
M  V30 5752 H 532.845 6.26917 2.56869 0
M  V30 5753 H 533.788 6.97546 1.218 0
M  V30 5754 H 534.196 5.34247 1.82318 0
M  V30 5755 N 533.594 0.0601682 1.57485 0
M  V30 5756 C 534.824 -0.620037 1.97076 0
M  V30 5757 C 535.232 -1.64381 0.936784 0
M  V30 5758 O 534.575 -1.83497 -0.0863377 0
M  V30 5759 C 534.637 -1.35617 3.32939 0
M  V30 5760 C 534.301 -0.487208 4.54396 0
M  V30 5761 C 535.298 0.250428 5.19297 0
M  V30 5762 C 532.983 -0.415494 5.00579 0
M  V30 5763 C 534.977 1.04812 6.28723 0
M  V30 5764 C 532.664 0.385879 6.0988 0
M  V30 5765 C 533.662 1.11637 6.73815 0
M  V30 5766 O 533.35 1.90454 7.81014 0
M  V30 5767 H 533.082 -0.173664 0.653312 0
M  V30 5768 H 535.636 0.1256 2.05016 0
M  V30 5769 H 533.866 -2.14763 3.2158 0
M  V30 5770 H 535.555 -1.92749 3.57215 0
M  V30 5771 H 536.321 0.204546 4.84568 0
M  V30 5772 H 532.2 -0.973679 4.506 0
M  V30 5773 H 535.744 1.6188 6.78558 0
M  V30 5774 H 531.641 0.433366 6.44044 0
M  V30 5775 H 532.409 1.82762 7.97835 0
M  V30 5776 N 535.072 -1.5615 -0.213296 0
M  V30 5777 C 536.005 -1.88115 -1.29182 0
M  V30 5778 C 536.983 -0.739348 -1.44819 0
M  V30 5779 O 538.167 -0.988541 -1.605 0
M  V30 5780 C 535.294 -2.09541 -2.66102 0
M  V30 5781 C 534.34 -3.32236 -2.67436 0
M  V30 5782 S 535.173 -4.87915 -2.20679 0
M  V30 5783 C 536.329 -5.12387 -3.59458 0
M  V30 5784 H 536.562 -2.793 -1.01876 0
M  V30 5785 H 534.095 -1.48692 -0.415934 0
M  V30 5786 H 536.053 -2.22568 -3.44925 0
M  V30 5787 H 534.714 -1.19138 -2.90628 0
M  V30 5788 H 533.907 -3.44297 -3.6807 0
M  V30 5789 H 533.509 -3.18108 -1.96681 0
M  V30 5790 H 535.801 -5.01791 -4.55205 0
M  V30 5791 H 536.744 -6.14236 -3.52306 0
M  V30 5792 H 537.152 -4.40089 -3.53528 0
M  V30 5793 N 536.55 0.480323 -1.50102 0
M  V30 5794 C 537.46 1.60547 -1.71061 0
M  V30 5795 C 538.476 1.63564 -0.593529 0
M  V30 5796 O 539.652 1.81604 -0.870751 0
M  V30 5797 C 536.717 2.96814 -1.79171 0
M  V30 5798 C 535.778 3.04259 -3.02861 0
M  V30 5799 C 535.011 4.34027 -3.10574 0
M  V30 5800 O 535.234 5.24009 -2.25323 0
M  V30 5801 O 534.168 4.46873 -4.03223 0
M  V30 5802 H 537.994 1.45788 -2.6642 0
M  V30 5803 H 535.579 0.658838 -1.34088 0
M  V30 5804 H 537.461 3.77765 -1.86738 0
M  V30 5805 H 536.136 3.11791 -0.869947 0
M  V30 5806 H 535.043 2.22419 -3.008 0
M  V30 5807 H 536.376 2.94216 -3.94586 0
M  V30 5808 N 538.028 1.39524 0.732853 0
M  V30 5809 C 538.991 1.38189 1.82857 0
M  V30 5810 C 539.991 0.278624 1.58368 0
M  V30 5811 O 541.181 0.536639 1.65728 0
M  V30 5812 C 538.313 1.15661 3.2068 0
M  V30 5813 H 539.506 2.35692 1.85444 0
M  V30 5814 H 537.059 1.2512 0.936728 0
M  V30 5815 H 537.794 0.188482 3.23752 0
M  V30 5816 H 537.579 1.95559 3.39852 0
M  V30 5817 H 539.069 1.17472 4.00737 0
M  V30 5818 N 539.506 -0.963266 1.24736 0
M  V30 5819 C 540.436 -2.07628 1.06832 0
M  V30 5820 C 541.417 -1.70088 -0.0200566 0
M  V30 5821 O 542.602 -1.93636 0.147854 0
M  V30 5822 C 539.732 -3.40636 0.677069 0
M  V30 5823 C 538.686 -3.9215 1.71471 0
M  V30 5824 C 538.012 -5.21553 1.1784 0
M  V30 5825 C 539.312 -4.19493 3.11164 0
M  V30 5826 H 541.006 -2.22864 1.9993 0
M  V30 5827 H 538.552 -1.07093 0.96266 0
M  V30 5828 H 540.505 -4.17941 0.538792 0
M  V30 5829 H 539.229 -3.25313 -0.289612 0
M  V30 5830 H 537.888 -3.17005 1.84128 0
M  V30 5831 H 537.536 -5.02593 0.202195 0
M  V30 5832 H 537.236 -5.56988 1.87185 0
M  V30 5833 H 538.76 -6.01463 1.05233 0
M  V30 5834 H 540.174 -4.87487 3.01711 0
M  V30 5835 H 538.571 -4.66165 3.77902 0
M  V30 5836 H 539.641 -3.26097 3.58871 0
M  V30 5837 N 540.985 -1.06182 -1.16461 0
M  V30 5838 C 542.231 -0.779015 -1.87241 0
M  V30 5839 C 542.564 0.692715 -1.81425 0
M  V30 5840 O 541.839 1.5074 -1.22913 0
M  V30 5841 C 542.122 -1.2728 -3.36856 0
M  V30 5842 C 541.975 -2.80821 -3.51368 0
M  V30 5843 C 543.294 -0.879799 -4.31216 0
M  V30 5844 H 540.413 -0.284464 -0.679889 0
M  V30 5845 H 543.055 -1.31755 -1.36896 0
M  V30 5846 H 541.205 -0.814673 -3.79862 0
M  V30 5847 H 542.877 -3.34833 -3.17308 0
M  V30 5848 H 541.12 -3.19606 -2.93316 0
M  V30 5849 H 541.791 -3.10435 -4.56436 0
M  V30 5850 H 544.267 -1.27436 -3.96105 0
M  V30 5851 H 543.143 -1.25278 -5.34412 0
M  V30 5852 H 543.404 0.215372 -4.41575 0
M  V30 5853 N 542.463 1.3308 -0.844243 0
M  V30 5854 C 543.41 2.29104 -0.279323 0
M  V30 5855 C 544.38 1.54577 0.607882 0
M  V30 5856 O 545.565 1.8285 0.545009 0
M  V30 5857 C 542.705 3.40927 0.53508 0
M  V30 5858 C 541.818 4.30354 -0.376749 0
M  V30 5859 C 540.953 5.29297 0.449276 0
M  V30 5860 C 539.992 6.10365 -0.460606 0
M  V30 5861 N 539.129 7.01335 0.327612 0
M  V30 5862 H 543.969 2.76817 -1.10346 0
M  V30 5863 H 541.506 1.36203 -0.555611 0
M  V30 5864 H 543.464 4.04469 1.02278 0
M  V30 5865 H 542.094 2.94391 1.32414 0
M  V30 5866 H 541.146 3.67485 -0.982791 0
M  V30 5867 H 542.458 4.87067 -1.07549 0
M  V30 5868 H 541.612 5.98392 1.00058 0
M  V30 5869 H 540.351 4.73174 1.18143 0
M  V30 5870 H 539.356 5.40182 -1.02388 0
M  V30 5871 H 540.581 6.68571 -1.1912 0
M  V30 5872 H 538.527 6.47655 1.04305 0
M  V30 5873 H 538.444 7.55355 -0.3123 0
M  V30 5874 H 539.712 7.74731 0.86098 0
M  V30 5875 N 543.941 0.601185 1.45683 0
M  V30 5876 C 544.871 -0.108824 2.33246 0
M  V30 5877 C 545.852 -0.865223 1.46451 0
M  V30 5878 O 547.037 -0.83704 1.75235 0
M  V30 5879 C 544.167 -1.11101 3.2905 0
M  V30 5880 C 543.121 -0.468244 4.25431 0
M  V30 5881 C 542.447 -1.57822 5.10878 0
M  V30 5882 C 543.747 0.606469 5.18767 0
M  V30 5883 H 545.441 0.622306 2.92861 0
M  V30 5884 H 542.987 0.300714 1.40825 0
M  V30 5885 H 544.94 -1.61622 3.89174 0
M  V30 5886 H 543.664 -1.87265 2.67581 0
M  V30 5887 H 542.323 0.0160484 3.66596 0
M  V30 5888 H 541.971 -2.32998 4.45781 0
M  V30 5889 H 541.671 -1.15369 5.76163 0
M  V30 5890 H 543.195 -2.08583 5.73869 0
M  V30 5891 H 544.609 0.185589 5.73 0
M  V30 5892 H 543.006 0.952381 5.92494 0
M  V30 5893 H 544.076 1.48559 4.61582 0
M  V30 5894 N 545.419 -1.53889 0.339982 0
M  V30 5895 C 546.666 -2.00855 -0.257621 0
M  V30 5896 C 546.994 -1.22788 -1.50842 0
M  V30 5897 O 546.249 -0.302567 -1.93347 0
M  V30 5898 C 546.548 -3.51968 -0.620735 0
M  V30 5899 C 546.214 -4.47741 0.532771 0
M  V30 5900 C 544.876 -4.73645 0.849339 0
M  V30 5901 C 547.228 -5.04551 1.3068 0
M  V30 5902 C 544.556 -5.53614 1.94237 0
M  V30 5903 C 546.908 -5.85713 2.39005 0
M  V30 5904 C 545.572 -6.09912 2.71225 0
M  V30 5905 H 544.842 -0.734979 -0.0942703 0
M  V30 5906 H 547.489 -1.85714 0.467159 0
M  V30 5907 H 545.794 -3.64921 -1.42618 0
M  V30 5908 H 547.491 -3.85762 -1.09495 0
M  V30 5909 H 544.081 -4.27711 0.275973 0
M  V30 5910 H 548.265 -4.84507 1.07549 0
M  V30 5911 H 543.521 -5.7059 2.19628 0
M  V30 5912 H 547.695 -6.28748 2.99415 0
M  V30 5913 H 545.322 -6.71665 3.56047 0
M  V30 5914 N 546.897 -0.0685191 -1.57451 0
M  V30 5915 C 548.174 0.642167 -1.84758 0
M  V30 5916 C 548.554 1.87991 -0.960344 0
M  V30 5917 O 547.902 2.28485 -0.0257894 0
M  V30 5918 C 548.112 0.982946 -3.34872 0
M  V30 5919 C 549.46 1.35784 -4.02303 0
M  V30 5920 O 550.484 1.07477 -3.39598 0
M  V30 5921 O 549.343 1.88681 -5.12895 0
M  V30 5922 H 546.437 0.318625 -0.763156 0
M  V30 5923 H 548.983 -0.0992015 -1.6941 0
M  V30 5924 H 547.755 0.10372 -3.91163 0
M  V30 5925 H 547.378 1.78119 -3.55471 0
M  V30 5926 N 548.375 1.56261 0.205012 0
M  V30 5927 C 549.322 1.93754 1.25411 0
M  V30 5928 C 550.292 0.796826 1.45739 0
M  V30 5929 O 551.477 1.05414 1.59036 0
M  V30 5930 C 548.617 2.27383 2.59598 0
M  V30 5931 C 547.73 3.5447 2.46931 0
M  V30 5932 C 546.865 3.77468 3.73753 0
M  V30 5933 C 545.904 4.98014 3.55877 0
M  V30 5934 N 545.041 5.17316 4.74688 0
M  V30 5935 H 549.881 2.83203 0.92737 0
M  V30 5936 H 547.418 1.40158 0.446574 0
M  V30 5937 H 549.376 2.44895 3.37761 0
M  V30 5938 H 548.006 1.41088 2.90335 0
M  V30 5939 H 547.058 3.45061 1.60116 0
M  V30 5940 H 548.37 4.42789 2.29651 0
M  V30 5941 H 547.524 3.95165 4.60358 0
M  V30 5942 H 546.263 2.87461 3.93976 0
M  V30 5943 H 545.268 4.80249 2.67657 0
M  V30 5944 H 546.493 5.8952 3.37109 0
M  V30 5945 H 544.439 4.30255 4.95194 0
M  V30 5946 H 544.356 5.99796 4.60197 0
M  V30 5947 H 545.624 5.39463 5.62672 0
M  V30 5948 N 549.853 -0.472356 1.50355 0
M  V30 5949 C 550.803 -1.56809 1.65514 0
M  V30 5950 C 551.787 -1.5261 0.509801 0
M  V30 5951 O 552.979 -1.59655 0.764145 0
M  V30 5952 C 550.108 -2.9526 1.75146 0
M  V30 5953 C 549.194 -3.04348 2.95353 0
M  V30 5954 N 549.585 -2.83253 4.19048 0
M  V30 5955 C 547.883 -3.35482 2.93884 0
M  V30 5956 C 548.584 -2.97273 5.00003 0
M  V30 5957 N 547.56 -3.27418 4.33934 0
M  V30 5958 H 551.362 -1.39197 2.58846 0
M  V30 5959 H 548.876 -0.67906 1.47521 0
M  V30 5960 H 550.873 -3.74044 1.8411 0
M  V30 5961 H 549.533 -3.1392 0.829717 0
M  V30 5962 H 550.544 -2.5886 4.48567 0
M  V30 5963 H 547.221 -3.60138 2.11204 0
M  V30 5964 H 548.611 -2.85214 6.08361 0
M  V30 5965 N 551.331 -1.39911 -0.725443 0
M  V30 5966 C 552.278 -1.39393 -1.83952 0
M  V30 5967 C 553.248 -0.252249 -1.64173 0
M  V30 5968 O 554.433 -0.44882 -1.85446 0
M  V30 5969 C 551.573 -1.25262 -3.21564 0
M  V30 5970 C 550.686 -2.49054 -3.52982 0
M  V30 5971 C 549.821 -2.27439 -4.80047 0
M  V30 5972 C 548.86 -3.46857 -5.04338 0
M  V30 5973 N 547.997 -3.24499 -6.22611 0
M  V30 5974 H 552.837 -2.34622 -1.83729 0
M  V30 5975 H 550.374 -1.16537 -0.897636 0
M  V30 5976 H 552.332 -1.15077 -4.01015 0
M  V30 5977 H 550.962 -0.33657 -3.21041 0
M  V30 5978 H 550.014 -2.69805 -2.6816 0
M  V30 5979 H 551.326 -3.37973 -3.66846 0
M  V30 5980 H 550.48 -2.14551 -5.67497 0
M  V30 5981 H 549.219 -1.35929 -4.68374 0
M  V30 5982 H 548.224 -3.60232 -4.15346 0
M  V30 5983 H 549.449 -4.3928 -5.17889 0
M  V30 5984 H 547.395 -2.35663 -6.12208 0
M  V30 5985 H 547.312 -4.06978 -6.37106 0
M  V30 5986 H 548.58 -3.15325 -7.12875 0
M  V30 5987 N 552.809 0.956637 -1.25245 0
M  V30 5988 C 554.037 1.73571 -1.12608 0
M  V30 5989 C 554.452 1.86063 0.320324 0
M  V30 5990 O 553.809 1.35691 1.22042 0
M  V30 5991 C 553.86 3.15053 -1.77268 0
M  V30 5992 O 553.581 3.03174 -3.16255 0
M  V30 5993 C 555.082 4.09248 -1.70386 0
M  V30 5994 H 552.302 0.543955 -0.392879 0
M  V30 5995 H 554.846 1.20031 -1.65568 0
M  V30 5996 H 553.001 3.65543 -1.28284 0
M  V30 5997 H 553.415 3.9241 -3.48015 0
M  V30 5998 H 554.889 5.06138 -2.20291 0
M  V30 5999 H 555.366 4.34102 -0.667239 0
M  V30 6000 H 555.972 3.64672 -2.18849 0
M  V30 6001 N 554.287 1.06798 1.15896 0
M  V30 6002 C 555.234 0.683314 2.20453 0
M  V30 6003 C 556.204 -0.32255 1.62938 0
M  V30 6004 O 557.389 -0.210276 1.89638 0
M  V30 6005 C 554.529 0.0813266 3.45004 0
M  V30 6006 C 553.642 1.13799 4.16742 0
M  V30 6007 C 552.777 0.501598 5.28826 0
M  V30 6008 C 551.816 1.54144 5.92373 0
M  V30 6009 N 550.953 0.928038 6.9594 0
M  V30 6010 H 555.793 1.57932 2.52708 0
M  V30 6011 H 553.33 0.789544 1.24115 0
M  V30 6012 H 555.288 -0.285274 4.16224 0
M  V30 6013 H 553.918 -0.77806 3.13283 0
M  V30 6014 H 552.97 1.62223 3.44075 0
M  V30 6015 H 554.282 1.92664 4.60089 0
M  V30 6016 H 553.436 0.0823162 6.06644 0
M  V30 6017 H 552.175 -0.318883 4.86656 0
M  V30 6018 H 551.18 1.97056 5.13273 0
M  V30 6019 H 552.405 2.3641 6.36621 0
M  V30 6020 H 550.351 0.12836 6.55874 0
M  V30 6021 H 550.268 1.65401 7.37685 0
M  V30 6022 H 551.536 0.534071 7.77668 0
M  V30 6023 N 555.766 -1.3263 0.851289 0
M  V30 6024 C 557.013 -1.97368 0.453023 0
M  V30 6025 C 557.341 -1.67384 -0.990596 0
M  V30 6026 O 556.596 -0.952665 -1.70947 0
M  V30 6027 C 556.895 -3.51713 0.635015 0
M  V30 6028 C 556.561 -4.01676 2.04859 0
M  V30 6029 C 555.223 -4.15031 2.43522 0
M  V30 6030 C 557.575 -4.28206 2.97135 0
M  V30 6031 C 554.903 -4.52257 3.73739 0
M  V30 6032 C 557.255 -4.66889 4.26846 0
M  V30 6033 C 555.919 -4.7845 4.65448 0
M  V30 6034 H 555.189 -0.722219 0.165773 0
M  V30 6035 H 557.836 -1.58092 1.0807 0
M  V30 6036 H 556.141 -3.91726 -0.0759081 0
M  V30 6037 H 557.838 -3.99823 0.306964 0
M  V30 6038 H 554.428 -3.91764 1.73836 0
M  V30 6039 H 558.612 -4.174 2.68498 0
M  V30 6040 H 553.868 -4.59402 4.03435 0
M  V30 6041 H 558.042 -4.86372 4.98413 0
M  V30 6042 H 555.669 -5.07052 5.66395 0
M  V30 6043 N 557.244 -0.608902 -1.45362 0
M  V30 6044 C 558.492 -0.104401 -2.0183 0
M  V30 6045 C 558.813 1.27007 -1.47967 0
M  V30 6046 O 558.083 1.83924 -0.674455 0
M  V30 6047 H 556.663 -0.0356042 -0.746151 0
M  V30 6048 H 559.325 -0.790596 -1.78145 0
M  V30 6049 H 558.421 -0.0551793 -3.12051 0
M  V30 6050 N 558.722 1.53707 -0.348139 0
M  V30 6051 C 559.652 2.28111 0.498766 0
M  V30 6052 C 560.633 1.29851 1.09876 0
M  V30 6053 O 561.818 1.587 1.11928 0
M  V30 6054 C 558.948 3.05735 1.64753 0
M  V30 6055 C 557.902 4.11537 1.17565 0
M  V30 6056 C 557.228 4.77142 2.4133 0
M  V30 6057 C 558.528 5.21587 0.272844 0
M  V30 6058 H 560.222 2.99152 -0.121934 0
M  V30 6059 H 557.768 1.43875 -0.0600842 0
M  V30 6060 H 559.721 3.56526 2.24649 0
M  V30 6061 H 558.445 2.32354 2.2952 0
M  V30 6062 H 557.104 3.61665 0.599483 0
M  V30 6063 H 556.752 4.0035 3.04514 0
M  V30 6064 H 556.452 5.48626 2.10436 0
M  V30 6065 H 557.976 5.30719 3.01943 0
M  V30 6066 H 559.39 5.67986 0.778779 0
M  V30 6067 H 557.787 6.00074 0.0555849 0
M  V30 6068 H 558.857 4.79969 -0.689785 0
M  V30 6069 N 560.2 0.0768682 1.57412 0
M  V30 6070 C 561.611 -0.455037 1.8107 0
M  V30 6071 C 561.962 -1.69323 0.991162 0
M  V30 6072 O 561.087 -2.15328 0.215156 0
M  V30 6073 C 561.682 -0.832316 3.28417 0
M  V30 6074 C 560.241 -1.30906 3.52903 0
M  V30 6075 C 559.388 -0.296714 2.75708 0
M  V30 6076 H 562.339 0.302514 1.5579 0
M  V30 6077 H 562.36 -1.69333 3.40744 0
M  V30 6078 H 561.872 0.0690532 3.88039 0
M  V30 6079 H 559.973 -2.22875 2.98592 0
M  V30 6080 H 560.086 -1.28348 4.61588 0
M  V30 6081 H 558.45 -0.775059 2.42621 0
M  V30 6082 H 559.233 0.597015 3.38069 0
M  V30 6083 N 561.678 -1.56367 -0.196722 0
M  V30 6084 C 562.588 -1.97617 -1.2643 0
M  V30 6085 C 563.604 -0.883598 -1.49895 0
M  V30 6086 O 564.78 -1.18921 -1.62541 0
M  V30 6087 C 561.845 -2.30595 -2.58895 0
M  V30 6088 C 560.906 -3.53551 -2.43516 0
M  V30 6089 C 560.139 -3.84946 -3.69665 0
M  V30 6090 O 560.362 -3.17655 -4.73763 0
M  V30 6091 O 559.296 -4.78379 -3.65291 0
M  V30 6092 H 563.122 -2.88648 -0.944233 0
M  V30 6093 H 560.707 -1.43901 -0.401592 0
M  V30 6094 H 562.589 -2.52889 -3.37083 0
M  V30 6095 H 561.264 -1.42732 -2.90533 0
M  V30 6096 H 560.171 -3.36507 -1.63445 0
M  V30 6097 H 561.504 -4.41875 -2.16812 0
M  V30 6098 N 563.156 0.464375 -1.50603 0
M  V30 6099 C 564.384 1.23907 -1.65695 0
M  V30 6100 C 564.799 1.85658 -0.343027 0
M  V30 6101 O 564.156 1.69529 0.675739 0
M  V30 6102 C 564.207 2.3429 -2.75301 0
M  V30 6103 O 563.928 1.7507 -4.01599 0
M  V30 6104 C 565.429 3.25051 -3.01424 0
M  V30 6105 H 562.649 0.374485 -0.556778 0
M  V30 6106 H 565.193 0.55353 -1.96866 0
M  V30 6107 H 563.348 2.98607 -2.46804 0
M  V30 6108 H 563.762 2.47812 -4.62266 0
M  V30 6109 H 565.236 3.98699 -3.81763 0
M  V30 6110 H 565.713 3.84227 -2.12758 0
M  V30 6111 H 566.319 2.66463 -3.31477 0
M  V30 6112 N 564.634 1.40294 0.718013 0
M  V30 6113 C 565.544 1.42678 1.86226 0
M  V30 6114 C 566.56 0.319655 1.71039 0
M  V30 6115 O 567.736 0.563852 1.93346 0
M  V30 6116 C 564.801 1.2852 3.21999 0
M  V30 6117 C 563.862 2.49354 3.49458 0
M  V30 6118 C 563.095 2.35863 4.78753 0
M  V30 6119 O 563.318 1.37114 5.53675 0
M  V30 6120 O 562.252 3.25189 5.06494 0
M  V30 6121 H 566.078 2.39167 1.87171 0
M  V30 6122 H 563.663 1.2159 0.868112 0
M  V30 6123 H 565.545 1.22824 4.03103 0
M  V30 6124 H 564.22 0.351359 3.21787 0
M  V30 6125 H 563.127 2.60628 2.68373 0
M  V30 6126 H 564.46 3.41491 3.54464 0
M  V30 6127 N 566.112 -0.949982 1.2575 0
M  V30 6128 C 567.358 -1.69766 1.10938 0
M  V30 6129 C 567.691 -1.91056 -0.348028 0
M  V30 6130 O 566.966 -1.48488 -1.25625 0
M  V30 6131 C 567.249 -3.07779 1.86933 0
M  V30 6132 C 567.102 -2.9387 3.4053 0
M  V30 6133 C 568.421 -4.07749 1.65616 0
M  V30 6134 H 565.54 -0.616144 0.404396 0
M  V30 6135 H 568.182 -1.10394 1.54639 0
M  V30 6136 H 566.332 -3.58462 1.4979 0
M  V30 6137 H 568.004 -2.50476 3.87375 0
M  V30 6138 H 566.247 -2.29686 3.68004 0
M  V30 6139 H 566.918 -3.91719 3.88922 0
M  V30 6140 H 569.394 -3.65994 1.97959 0
M  V30 6141 H 568.27 -5.02348 2.21218 0
M  V30 6142 H 568.531 -4.38029 0.598595 0
M  V30 6143 N 567.59 -1.07411 -1.15328 0
M  V30 6144 C 568.52 -0.716472 -2.22236 0
M  V30 6145 C 569.501 0.296373 -1.67498 0
M  V30 6146 O 570.686 0.168989 -1.93463 0
M  V30 6147 C 567.816 -0.114142 -3.47112 0
M  V30 6148 C 566.77 -1.05421 -4.14814 0
M  V30 6149 C 566.096 -0.314604 -5.33774 0
M  V30 6150 C 567.396 -2.38808 -4.64508 0
M  V30 6151 H 569.09 -1.61029 -2.52408 0
M  V30 6152 H 566.636 -0.775702 -1.21321 0
M  V30 6153 H 568.589 0.148001 -4.2114 0
M  V30 6154 H 567.313 0.814755 -3.16274 0
M  V30 6155 H 565.972 -1.30128 -3.42728 0
M  V30 6156 H 565.62 0.617772 -4.99192 0
M  V30 6157 H 565.32 -0.941209 -5.80013 0
M  V30 6158 H 566.844 -0.0602747 -6.1057 0
M  V30 6159 H 568.258 -2.18424 -5.3006 0
M  V30 6160 H 566.655 -2.97069 -5.21412 0
M  V30 6161 H 567.725 -3.01067 -3.80114 0
M  V30 6162 N 569.068 1.32177 -0.85831 0
M  V30 6163 C 569.978 2.32561 -0.308606 0
M  V30 6164 C 570.994 1.64209 0.575462 0
M  V30 6165 O 572.17 1.95719 0.474961 0
M  V30 6166 C 569.235 3.43207 0.490909 0
M  V30 6167 C 568.296 4.27243 -0.419733 0
M  V30 6168 C 567.529 5.32605 0.341719 0
M  V30 6169 O 567.752 5.48332 1.57125 0
M  V30 6170 O 566.686 6.0118 -0.294379 0
M  V30 6171 H 570.512 2.81477 -1.14037 0
M  V30 6172 H 568.097 1.35866 -0.621349 0
M  V30 6173 H 569.979 4.10677 0.944574 0
M  V30 6174 H 568.654 2.96474 1.29941 0
M  V30 6175 H 567.561 3.62569 -0.921652 0
M  V30 6176 H 568.894 4.7751 -1.19352 0
M  V30 6177 N 570.547 0.616602 1.45037 0
M  V30 6178 C 571.793 0.115501 2.02471 0
M  V30 6179 C 572.126 -1.25406 1.4828 0
M  V30 6180 O 571.401 -1.82922 0.661051 0
M  V30 6181 C 571.684 0.0863588 3.59996 0
M  V30 6182 C 571.537 1.48723 4.24501 0
M  V30 6183 C 572.856 -0.596762 4.36035 0
M  V30 6184 H 569.975 0.0434461 0.735718 0
M  V30 6185 H 572.617 0.7903 1.72784 0
M  V30 6186 H 570.767 -0.488277 3.85419 0
M  V30 6187 H 572.439 2.10964 4.10234 0
M  V30 6188 H 570.682 2.04534 3.82555 0
M  V30 6189 H 571.353 1.419 5.3345 0
M  V30 6190 H 573.829 -0.10824 4.15959 0
M  V30 6191 H 572.705 -0.586289 5.4576 0
M  V30 6192 H 572.966 -1.66451 4.09569 0
M  V30 6193 N 572.025 -1.5352 0.356285 0
M  V30 6194 C 572.973 -2.26945 -0.50978 0
M  V30 6195 C 573.967 -1.29569 -1.09125 0
M  V30 6196 O 575.173 -1.47231 -1.03552 0
M  V30 6197 H 571.548 -0.729368 -0.183102 0
M  V30 6198 H 573.519 -2.98111 0.131374 0
M  V30 6199 C 572.268 -3.06466 -1.64237 0
M  V30 6200 H 571.591 -3.81233 -1.20423 0
M  V30 6201 H 573.031 -3.61035 -2.22327 0
M  V30 6202 C 571.49 -2.16737 -2.57928 0
M  V30 6203 O 572.02 -1.77195 -3.60507 0
M  V30 6204 N 570.226 -1.81558 -2.26903 0
M  V30 6205 H 569.773 -2.13913 -1.43524 0
M  V30 6206 H 569.731 -1.21806 -2.89846 0
M  V30 6207 O 573.542 -0.225101 -1.59924 0
M  V30 6208 H 574.233 0.354711 -1.90425 0
M  V30 END ATOM
M  V30 BEGIN BOND
M  V30 END BOND
M  V30 END CTAB
M  END
$$$$
