drugbank_target|Q96PY6 Serine/threonine-protein kinase Nek1 (DB12010)
 OpenBabel12092121173D

  0  0  0     0  0            999 V3000
M  V30 BEGIN CTAB
M  V30 COUNTS 19963 20133 0 0 0
M  V30 BEGIN ATOM
M  V30 1 H -0.908 1.98254 -0.117106 0
M  V30 2 N 0 1.576 0 0
M  V30 3 C 0.933 2.03868 1.02534 0
M  V30 4 C 1.911 0.928543 1.3348 0
M  V30 5 O 3.095 1.19667 1.45644 0
M  V30 6 C 0.222 2.43627 2.35294 0
M  V30 7 C -0.732 3.65373 2.2001 0
M  V30 8 S 0.101 5.13292 1.52614 0
M  V30 9 C 1.257 5.56322 2.86805 0
M  V30 10 H 1.49 2.90518 0.631377 0
M  V30 11 H -0.977 1.52953 0.210867 0
M  V30 12 H 0.981 2.67203 3.11629 0
M  V30 13 H -0.358 1.57376 2.7183 0
M  V30 14 H -1.165 3.90944 3.18086 0
M  V30 15 H -1.563 3.418 1.51819 0
M  V30 16 H 0.729 5.58782 3.83104 0
M  V30 17 H 1.672 6.56266 2.65933 0
M  V30 18 H 2.08 4.83886 2.90714 0
M  V30 19 N 1.4781 -0.272755 1.55222 0
M  V30 20 C 2.3881 -1.35918 1.91216 0
M  V30 21 C 3.4041 -1.54026 0.809436 0
M  V30 22 O 4.5801 -1.68148 1.10852 0
M  V30 23 C 1.6451 -2.69834 2.17693 0
M  V30 24 C 0.7061 -2.6047 3.41253 0
M  V30 25 C -0.0609 -3.88 3.66458 0
M  V30 26 O 0.1621 -4.88693 2.94169 0
M  V30 27 O -0.9039 -3.88189 4.59992 0
M  V30 28 H 2.9221 -1.0839 2.83699 0
M  V30 29 H 0.5071 -0.471301 1.41771 0
M  V30 30 H 2.3891 -3.49017 2.36147 0
M  V30 31 H 1.0641 -2.97148 1.28392 0
M  V30 32 H -0.0289 -1.79663 3.28134 0
M  V30 33 H 1.3041 -2.38106 4.30774 0
M  V30 34 N 2.9562 -1.48159 -0.537278 0
M  V30 35 C 3.9032 -1.62138 -1.64256 0
M  V30 36 C 4.8732 -0.463668 -1.59497 0
M  V30 37 O 6.0582 -0.686241 -1.78032 0
M  V30 38 C 3.1982 -1.66028 -3.02537 0
M  V30 39 C 2.3112 -2.92855 -3.17585 0
M  V30 40 C 1.4462 -2.87952 -4.46382 0
M  V30 41 C 0.4852 -4.09516 -4.54932 0
M  V30 42 N -0.3778 -4.02733 -5.75109 0
M  V30 43 H 4.4622 -2.56529 -1.51647 0
M  V30 44 H 1.9992 -1.27224 -0.738414 0
M  V30 45 H 3.9572 -1.66265 -3.82638 0
M  V30 46 H 2.5872 -0.751331 -3.13934 0
M  V30 47 H 1.6392 -3.02395 -2.30784 0
M  V30 48 H 2.9512 -3.82822 -3.19764 0
M  V30 49 H 2.1052 -2.8655 -5.34765 0
M  V30 50 H 0.8442 -1.95702 -4.46712 0
M  V30 51 H -0.1508 -4.11201 -3.64957 0
M  V30 52 H 1.0742 -5.02917 -4.56346 0
M  V30 53 H -0.9798 -3.13299 -5.76351 0
M  V30 54 H -1.0628 -4.86397 -5.78752 0
M  V30 55 H 0.2052 -4.05379 -6.65799 0
M  V30 56 N 4.4343 0.785586 -1.36625 0
M  V30 57 C 5.6643 1.5722 -1.34036 0
M  V30 58 C 6.0723 1.89033 0.0795062 0
M  V30 59 O 5.4153 1.50881 1.04789 0
M  V30 60 C 5.4773 2.91759 -2.10041 0
M  V30 61 C 5.1413 2.82654 -3.59104 0
M  V30 62 C 6.1383 2.54634 -4.53274 0
M  V30 63 C 3.8233 3.01111 -4.02042 0
M  V30 64 C 5.8173 2.45177 -5.88359 0
M  V30 65 C 3.5043 2.91276 -5.37216 0
M  V30 66 C 4.5023 2.63348 -6.30188 0
M  V30 67 O 4.1903 2.53514 -7.6288 0
M  V30 68 H 3.9223 0.494177 -0.461265 0
M  V30 69 H 6.4763 0.982632 -1.8037 0
M  V30 70 H 4.7063 3.52781 -1.58375 0
M  V30 71 H 6.3953 3.53059 -2.00261 0
M  V30 72 H 7.1613 2.40073 -4.21414 0
M  V30 73 H 3.0403 3.21854 -3.30047 0
M  V30 74 H 6.5843 2.23299 -6.60896 0
M  V30 75 H 2.4813 3.054 -5.68684 0
M  V30 76 H 3.2493 2.68967 -7.73045 0
M  V30 77 N 5.9124 1.20967 1.01018 0
M  V30 78 C 7.1584 1.02526 1.74975 0
M  V30 79 C 7.4914 -0.4408 1.89131 0
M  V30 80 O 6.7664 -1.32718 1.42184 0
M  V30 81 C 7.0494 1.71699 3.1653 0
M  V30 82 C 6.9024 3.25791 3.10129 0
M  V30 83 C 8.2214 1.45531 4.15342 0
M  V30 84 H 5.3404 0.373863 0.635134 0
M  V30 85 H 7.9824 1.49071 1.17805 0
M  V30 86 H 6.1324 1.32128 3.65341 0
M  V30 87 H 7.8044 3.74697 2.69072 0
M  V30 88 H 6.0474 3.56363 2.47362 0
M  V30 89 H 6.7184 3.69353 4.10222 0
M  V30 90 H 9.1944 1.79872 3.75213 0
M  V30 91 H 8.0704 1.96453 5.1254 0
M  V30 92 H 8.3314 0.384237 4.40427 0
M  V30 93 N 7.3905 -1.2043 1.01659 0
M  V30 94 C 8.8065 -1.41852 0.731442 0
M  V30 95 C 9.0065 -1.89358 -0.688898 0
M  V30 96 O 8.0625 -2.06247 -1.45666 0
M  V30 97 C 9.3755 -2.44019 1.75714 0
M  V30 98 C 10.9235 -2.57785 1.77527 0
M  V30 99 C 11.3985 -3.63194 2.79023 0
M  V30 100 N 12.8895 -3.70678 2.77763 0
M  V30 101 C 13.6245 -4.51897 3.52954 0
M  V30 102 N 13.1205 -5.36921 4.37821 0
M  V30 103 N 14.9135 -4.4643 3.41551 0
M  V30 104 H 7.0645 -0.879093 1.93354 0
M  V30 105 H 9.3275 -0.448425 0.835236 0
M  V30 106 H 9.0335 -2.1611 2.77469 0
M  V30 107 H 8.9075 -3.43007 1.56927 0
M  V30 108 H 11.2945 -2.85023 0.764569 0
M  V30 109 H 11.3755 -1.58992 2.00387 0
M  V30 110 H 11.0195 -3.36699 3.80258 0
M  V30 111 H 10.9495 -4.61609 2.53425 0
M  V30 112 H 13.4405 -3.09944 2.16201 0
M  V30 113 H 13.7535 -5.95981 4.91962 0
M  V30 114 H 12.0985 -5.36424 4.41899 0
M  V30 115 H 15.2895 -3.79042 2.74672 0
M  V30 116 H 15.4625 -5.09491 4.00404 0
M  V30 117 N 8.8686 -0.792821 -1.36206 0
M  V30 118 C 9.7986 -0.207853 -2.32573 0
M  V30 119 C 10.7796 0.659055 -1.56813 0
M  V30 120 O 11.9646 0.592176 -1.84951 0
M  V30 121 C 9.0946 0.655449 -3.41059 0
M  V30 122 C 8.0486 -0.111842 -4.27854 0
M  V30 123 C 7.3746 0.872274 -5.27537 0
M  V30 124 C 8.6746 -1.30299 -5.05786 0
M  V30 125 H 10.3686 -1.01294 -2.81744 0
M  V30 126 H 7.9146 -0.48854 -1.3546 0
M  V30 127 H 9.8676 1.07464 -4.07467 0
M  V30 128 H 8.5916 1.49328 -2.90463 0
M  V30 129 H 7.2506 -0.512053 -3.63006 0
M  V30 130 H 6.8986 1.70523 -4.73214 0
M  V30 131 H 6.5986 0.363291 -5.86476 0
M  V30 132 H 8.1226 1.28996 -5.96818 0
M  V30 133 H 9.5366 -0.959379 -5.65216 0
M  V30 134 H 7.9336 -1.7455 -5.74154 0
M  V30 135 H 9.0036 -2.09663 -4.37229 0
M  V30 136 N 10.3467 1.47872 -0.545128 0
M  V30 137 C 11.2787 2.27869 0.246621 0
M  V30 138 C 12.2917 1.36282 0.890561 0
M  V30 139 O 13.4807 1.61207 0.766449 0
M  V30 140 C 10.5807 3.10159 1.36582 0
M  V30 141 C 9.7537 4.29627 0.820954 0
M  V30 142 C 8.8127 4.93607 1.82314 0
M  V30 143 O 7.8387 5.52366 1.37406 0
M  V30 144 N 9.0407 4.87211 3.15603 0
M  V30 145 H 11.8057 2.96459 -0.439539 0
M  V30 146 H 9.3667 1.57367 -0.380421 0
M  V30 147 H 11.3587 3.49829 2.03474 0
M  V30 148 H 9.9287 2.43891 1.9554 0
M  V30 149 H 9.1487 3.94192 -0.0244032 0
M  V30 150 H 10.4367 5.06928 0.436063 0
M  V30 151 H 9.8347 4.40651 3.54744 0
M  V30 152 H 8.3917 5.30937 3.78087 0
M  V30 153 N 11.8248 0.280983 1.55075 0
M  V30 154 C 12.7718 -0.603937 2.22758 0
M  V30 155 C 13.7418 -1.1452 1.20309 0
M  V30 156 O 14.9268 -1.19343 1.48869 0
M  V30 157 C 12.0668 -1.77947 2.95684 0
M  V30 158 C 11.1798 -1.2715 4.12864 0
M  V30 159 C 10.3148 -2.4093 4.7342 0
M  V30 160 C 9.3538 -1.87165 5.82783 0
M  V30 161 N 8.4908 -2.94441 6.37377 0
M  V30 162 H 13.3308 -0.020124 2.97993 0
M  V30 163 H 10.8678 0.00183425 1.471 0
M  V30 164 H 12.8258 -2.47055 3.36184 0
M  V30 165 H 11.4558 -2.33522 2.22861 0
M  V30 166 H 10.5078 -0.473331 3.77444 0
M  V30 167 H 11.8198 -0.837751 4.91715 0
M  V30 168 H 10.9738 -3.18021 5.1667 0
M  V30 169 H 9.7128 -2.87623 3.93859 0
M  V30 170 H 8.7178 -1.08556 5.38976 0
M  V30 171 H 9.9428 -1.41401 6.64216 0
M  V30 172 H 7.8888 -3.40505 5.60707 0
M  V30 173 H 7.8058 -2.55501 7.11516 0
M  V30 174 H 9.0738 -3.71489 6.85285 0
M  V30 175 N 13.3029 -1.57598 0.00835791 0
M  V30 176 C 14.5519 -1.90107 -0.673968 0
M  V30 177 C 14.8649 -0.884275 -1.7447 0
M  V30 178 O 16.0709 -1.09987 -2.48224 0
M  V30 179 C 14.5269 -3.37497 -1.24995 0
M  V30 180 C 14.1349 -4.47491 -0.2136 0
M  V30 181 C 15.8789 -3.79104 -1.90999 0
M  V30 182 C 13.7859 -5.85963 -0.80005 0
M  V30 183 H 12.7159 -0.709393 -0.255495 0
M  V30 184 H 15.3669 -1.83365 0.0702693 0
M  V30 185 H 13.7489 -3.39102 -2.04513 0
M  V30 186 H 14.9229 -4.57414 0.557596 0
M  V30 187 H 13.2379 -4.14956 0.346474 0
M  V30 188 H 15.8349 -4.79901 -2.35795 0
M  V30 189 H 16.1779 -3.1306 -2.74407 0
M  V30 190 H 16.7109 -3.79833 -1.18203 0
M  V30 191 H 13.4499 -6.555 -0.00456708 0
M  V30 192 H 12.9699 -5.79687 -1.54021 0
M  V30 193 H 14.6489 -6.33884 -1.29615 0
M  V30 194 N 14.781 0.264519 -1.55364 0
M  V30 195 C 16.029 0.993021 -1.76021 0
M  V30 196 C 16.35 1.86511 -0.569099 0
M  V30 197 O 15.62 1.91438 0.415735 0
M  V30 198 H 14.2 0.369639 -0.649135 0
M  V30 199 H 16.862 0.286707 -1.9278 0
M  V30 200 H 15.958 1.62502 -2.66457 0
M  V30 201 N 16.2591 1.48442 0.529413 0
M  V30 202 C 17.1691 1.6569 1.66084 0
M  V30 203 C 18.1851 0.539432 1.65427 0
M  V30 204 O 19.3611 0.810572 1.84368 0
M  V30 205 C 16.4261 1.69315 3.02545 0
M  V30 206 C 15.4871 2.92694 3.14052 0
M  V30 207 C 14.7201 2.96137 4.44003 0
M  V30 208 O 14.9431 2.07973 5.31134 0
M  V30 209 O 13.8771 3.88312 4.59888 0
M  V30 210 H 17.7031 2.61483 1.54469 0
M  V30 211 H 15.2881 1.3185 0.702567 0
M  V30 212 H 17.1701 1.74217 3.83701 0
M  V30 213 H 15.8451 0.766966 3.14483 0
M  V30 214 H 14.7521 2.93324 2.32189 0
M  V30 215 H 16.0851 3.84699 3.0703 0
M  V30 216 N 17.7372 -0.778329 1.37039 0
M  V30 217 C 18.9852 -1.53361 1.31623 0
M  V30 218 C 19.3062 -1.94739 -0.100831 0
M  V30 219 O 18.5762 -1.65797 -1.04347 0
M  V30 220 H 17.1562 -0.568794 0.484234 0
M  V30 221 H 19.8182 -0.926742 1.71457 0
M  V30 222 H 18.9142 -2.43606 1.95096 0
M  V30 223 N 19.2153 -1.21501 -1.00376 0
M  V30 224 C 20.4403 -1.05977 -1.78279 0
M  V30 225 C 20.8653 0.385994 -1.84097 0
M  V30 226 O 20.2233 1.27849 -1.28547 0
M  V30 227 C 20.2713 -1.66302 -3.19963 0
M  V30 228 O 19.3753 -0.909333 -4.0225 0
M  V30 229 H 18.7163 -0.372906 -0.549397 0
M  V30 230 H 21.2463 -1.6107 -1.26165 0
M  V30 231 H 21.2563 -1.70574 -3.70632 0
M  V30 232 H 19.9313 -2.71515 -3.15043 0
M  V30 233 H 18.5083 -0.941795 -3.60811 0
M  V30 234 N 20.6934 1.19889 -1.02296 0
M  V30 235 C 21.9404 1.8942 -0.715972 0
M  V30 236 C 22.2684 1.79251 0.754944 0
M  V30 237 O 21.5234 1.17526 1.56481 0
M  V30 238 C 21.8224 3.39883 -1.10518 0
M  V30 239 C 21.4884 3.70254 -2.57337 0
M  V30 240 C 20.1504 3.78254 -2.97452 0
M  V30 241 C 22.5024 3.84052 -3.52354 0
M  V30 242 C 19.8304 3.97514 -4.31509 0
M  V30 243 C 22.1824 4.04824 -4.86108 0
M  V30 244 C 20.8464 4.11054 -5.25919 0
M  V30 245 H 20.1164 0.693138 -0.261993 0
M  V30 246 H 22.7634 1.42012 -1.28472 0
M  V30 247 H 21.0684 3.8915 -0.454953 0
M  V30 248 H 22.7654 3.9199 -0.845261 0
M  V30 249 H 19.3554 3.64632 -2.25258 0
M  V30 250 H 23.5394 3.77221 -3.22518 0
M  V30 251 H 18.7954 4.00574 -4.61898 0
M  V30 252 H 22.9694 4.14442 -5.59653 0
M  V30 253 H 20.5964 4.2573 -6.29808 0
M  V30 254 N 22.1715 0.800033 1.35784 0
M  V30 255 C 23.4195 0.376597 1.9856 0
M  V30 256 C 23.7405 -1.05812 1.63795 0
M  V30 257 O 23.0105 -1.73103 0.917171 0
M  V30 258 H 21.5905 0.136261 0.734467 0
M  V30 259 H 24.2525 1.02442 1.65806 0
M  V30 260 H 23.3485 0.477002 3.08433 0
M  V30 261 N 23.6496 -1.47581 0.552962 0
M  V30 262 C 24.5966 -2.29957 -0.197108 0
M  V30 263 C 25.5666 -1.38799 -0.912359 0
M  V30 264 O 26.7516 -1.67761 -0.908888 0
M  V30 265 C 23.8916 -3.22672 -1.22379 0
M  V30 266 C 23.0046 -4.28919 -0.515038 0
M  V30 267 C 22.1396 -5.0879 -1.52664 0
M  V30 268 C 21.1786 -6.06815 -0.802631 0
M  V30 269 N 20.3156 -6.7966 -1.76086 0
M  V30 270 H 25.1556 -2.93578 0.511486 0
M  V30 271 H 22.6926 -1.4471 0.264067 0
M  V30 272 H 24.6506 -3.74845 -1.83159 0
M  V30 273 H 23.2806 -2.60925 -1.90047 0
M  V30 274 H 22.3326 -3.79835 0.207192 0
M  V30 275 H 23.6446 -4.98773 0.0523425 0
M  V30 276 H 22.7986 -5.65091 -2.20809 0
M  V30 277 H 21.5376 -4.38828 -2.12794 0
M  V30 278 H 20.5426 -5.49695 -0.107238 0
M  V30 279 H 21.7676 -6.78784 -0.207135 0
M  V30 280 H 19.7136 -6.12432 -2.35081 0
M  V30 281 H 19.6306 -7.45669 -1.24552 0
M  V30 282 H 20.8986 -7.40538 -2.43359 0
M  V30 283 N 25.1277 -0.289203 -1.54924 0
M  V30 284 C 26.0907 0.579144 -2.21762 0
M  V30 285 C 27.0907 1.07047 -1.1999 0
M  V30 286 O 28.2807 0.968384 -1.44803 0
M  V30 287 C 25.4127 1.80055 -2.8947 0
M  V30 288 H 26.6057 -0.00464908 -2.999 0
M  V30 289 H 24.1587 -0.0399306 -1.56249 0
M  V30 290 H 24.8937 2.42449 -2.15381 0
M  V30 291 H 24.6787 1.45602 -3.64064 0
M  V30 292 H 26.1687 2.41773 -3.40493 0
M  V30 293 N 26.6058 1.57591 -0.0167156 0
M  V30 294 C 27.8548 1.90461 0.663877 0
M  V30 295 C 28.1678 0.893515 1.73999 0
M  V30 296 O 29.3738 1.11302 2.47637 0
M  V30 297 C 27.8298 3.38155 1.23204 0
M  V30 298 C 27.4378 4.47597 0.189866 0
M  V30 299 C 29.1818 3.80111 1.88986 0
M  V30 300 C 27.0888 5.86379 0.768964 0
M  V30 301 H 26.0188 0.710738 0.251729 0
M  V30 302 H 28.6698 1.83326 -0.0799926 0
M  V30 303 H 27.0518 3.40182 2.02712 0
M  V30 304 H 28.2258 4.57112 -0.581846 0
M  V30 305 H 26.5408 4.14766 -0.368475 0
M  V30 306 H 29.1378 4.81145 2.33247 0
M  V30 307 H 29.4808 3.14511 2.72743 0
M  V30 308 H 30.0138 3.80454 1.16187 0
M  V30 309 H 26.7528 6.55493 -0.0301957 0
M  V30 310 H 26.2728 5.80496 1.50945 0
M  V30 311 H 27.9518 6.34563 1.26251 0
M  V30 312 N 28.0839 -0.256276 1.55502 0
M  V30 313 C 29.0139 -1.32102 1.92539 0
M  V30 314 C 29.9949 -1.50684 0.789194 0
M  V30 315 O 31.1799 -1.63449 1.04872 0
M  V30 316 C 28.3099 -2.67752 2.21192 0
M  V30 317 C 27.2639 -2.63878 3.36975 0
M  V30 318 C 26.5899 -4.03236 3.51147 0
M  V30 319 C 27.8899 -2.21682 4.72921 0
M  V30 320 H 29.5839 -1.01351 2.81724 0
M  V30 321 H 27.1299 -0.486105 1.35547 0
M  V30 322 H 29.0829 -3.42365 2.45691 0
M  V30 323 H 27.8069 -3.0012 1.28824 0
M  V30 324 H 26.4659 -1.91722 3.12471 0
M  V30 325 H 26.1139 -4.32854 2.56216 0
M  V30 326 H 25.8139 -4.01535 4.29003 0
M  V30 327 H 27.3379 -4.79563 3.77957 0
M  V30 328 H 28.7519 -2.86023 4.96854 0
M  V30 329 H 27.1489 -2.3111 5.53812 0
M  V30 330 H 28.2189 -1.16833 4.70615 0
M  V30 331 N 29.562 -1.4872 -0.521534 0
M  V30 332 C 30.808 -1.574 -1.27879 0
M  V30 333 C 31.141 -0.250817 -1.92573 0
M  V30 334 O 30.416 0.743934 -1.79711 0
M  V30 335 C 30.699 -2.71843 -2.36164 0
M  V30 336 C 30.552 -4.13893 -1.76105 0
M  V30 337 C 31.871 -2.82008 -3.37875 0
M  V30 338 H 28.99 -0.572941 -0.463581 0
M  V30 339 H 31.632 -1.80927 -0.580119 0
M  V30 340 H 29.782 -2.51914 -2.95756 0
M  V30 341 H 31.454 -4.45284 -1.20499 0
M  V30 342 H 29.697 -4.20498 -1.06601 0
M  V30 343 H 30.368 -4.89804 -2.5455 0
M  V30 344 H 32.844 -3.00086 -2.88249 0
M  V30 345 H 31.72 -3.63796 -4.11028 0
M  V30 346 H 31.981 -1.90511 -3.98946 0
M  V30 347 N 31.0401 0.771051 -1.3745 0
M  V30 348 C 31.9871 1.88435 -1.3327 0
M  V30 349 C 32.9571 1.64914 -0.198136 0
M  V30 350 O 34.1421 1.86821 -0.387606 0
M  V30 351 C 31.2821 3.25509 -1.14622 0
M  V30 352 C 30.3951 3.60979 -2.37314 0
M  V30 353 C 29.5301 4.87265 -2.11533 0
M  V30 354 C 28.5691 5.15469 -3.30088 0
M  V30 355 N 27.7061 6.32944 -3.03853 0
M  V30 356 H 32.5461 1.91344 -2.28455 0
M  V30 357 H 30.0831 0.935466 -1.13523 0
M  V30 358 H 32.0411 4.04582 -1.01831 0
M  V30 359 H 30.6711 3.21974 -0.230837 0
M  V30 360 H 29.7231 2.76885 -2.60842 0
M  V30 361 H 31.0351 3.77759 -3.25729 0
M  V30 362 H 30.1891 5.74244 -1.95777 0
M  V30 363 H 28.9281 4.7259 -1.20457 0
M  V30 364 H 27.9331 4.26966 -3.46382 0
M  V30 365 H 29.1581 5.32052 -4.22016 0
M  V30 366 H 27.1041 6.19625 -2.15407 0
M  V30 367 H 27.0211 6.50143 -3.85812 0
M  V30 368 H 28.2891 7.22857 -2.91716 0
M  V30 369 N 32.5182 1.22032 0.997298 0
M  V30 370 C 33.7432 1.06921 1.77715 0
M  V30 371 C 34.1682 -0.376226 1.84299 0
M  V30 372 O 33.5262 -1.27165 1.29223 0
M  V30 373 C 33.5742 1.67996 3.19076 0
M  V30 374 O 32.6782 0.930653 4.01762 0
M  V30 375 H 32.0192 0.375814 0.547412 0
M  V30 376 H 34.5492 1.61737 1.25309 0
M  V30 377 H 34.5592 1.72538 3.69723 0
M  V30 378 H 33.2342 2.73182 3.13599 0
M  V30 379 H 31.8112 0.960917 3.60307 0
M  V30 380 N 33.9963 -1.19345 1.0293 0
M  V30 381 C 35.2243 -1.92997 0.745644 0
M  V30 382 C 35.6393 -1.75519 -0.695589 0
M  V30 383 O 34.9963 -1.07737 -1.47306 0
M  V30 384 C 35.0473 -3.44741 1.08792 0
M  V30 385 O 34.7683 -3.61658 2.47256 0
M  V30 386 C 36.2693 -4.35515 0.827129 0
M  V30 387 H 33.4893 -0.613042 0.272801 0
M  V30 388 H 36.0333 -1.51473 1.3739 0
M  V30 389 H 34.1883 -3.84097 0.504832 0
M  V30 390 H 34.6023 -4.55514 2.60015 0
M  V30 391 H 36.0763 -5.40589 1.11658 0
M  V30 392 H 36.5533 -4.38552 -0.238436 0
M  V30 393 H 37.1593 -4.01841 1.39297 0
M  V30 394 N 35.4744 -0.807222 -1.35358 0
M  V30 395 C 36.3844 -0.219594 -2.3357 0
M  V30 396 C 37.4004 0.637734 -1.61892 0
M  V30 397 O 38.5764 0.549336 -1.93763 0
M  V30 398 C 35.6414 0.62158 -3.41083 0
M  V30 399 C 34.7024 -0.256315 -4.28534 0
M  V30 400 C 33.9354 0.544807 -5.30912 0
M  V30 401 O 34.1584 1.77944 -5.41934 0
M  V30 402 O 33.0924 -0.0646478 -6.01865 0
M  V30 403 H 36.9184 -1.03208 -2.85625 0
M  V30 404 H 34.5034 -0.569025 -1.38139 0
M  V30 405 H 36.3854 1.10067 -4.06772 0
M  V30 406 H 35.0604 1.41165 -2.91297 0
M  V30 407 H 33.9674 -0.782559 -3.65823 0
M  V30 408 H 35.3004 -1.01034 -4.81719 0
M  V30 409 N 36.9525 1.47285 -0.560781 0
M  V30 410 C 38.2295 1.9558 0.0277798 0
M  V30 411 C 38.6095 1.5034 1.48192 0
M  V30 412 O 37.9575 0.743882 2.16052 0
M  V30 413 C 38.1675 3.48789 -0.121418 0
M  V30 414 C 39.5155 4.24594 0.0220912 0
M  V30 415 O 40.5395 3.56166 -0.0491439 0
M  V30 416 O 39.3985 5.46217 0.175958 0
M  V30 417 H 36.4925 0.824663 0.0621342 0
M  V30 418 H 39.0385 1.5767 -0.627556 0
M  V30 419 H 37.8105 3.74533 -1.13316 0
M  V30 420 H 37.4335 3.93473 0.571366 0
M  V30 421 N 38.4306 0.297415 1.54768 0
M  V30 422 C 39.6786 -0.312295 1.99673 0
M  V30 423 C 39.9996 -1.54686 1.18732 0
M  V30 424 O 39.2696 -1.93854 0.282382 0
M  V30 425 H 37.8496 -0.118381 0.73756 0
M  V30 426 H 40.5116 0.407915 1.90583 0
M  V30 427 H 39.6076 -0.586813 3.06534 0
M  V30 428 N 39.9087 -1.5758 0.0250728 0
M  V30 429 C 41.3247 -1.56124 -0.331282 0
M  V30 430 C 41.5247 -1.03029 -1.73169 0
M  V30 431 O 40.5807 -0.675215 -2.43305 0
M  V30 432 C 41.8937 -3.00139 -0.183584 0
M  V30 433 C 43.4417 -3.11946 -0.256654 0
M  V30 434 C 43.9167 -4.57793 -0.137792 0
M  V30 435 N 45.4077 -4.6279 -0.194904 0
M  V30 436 C 46.1427 -5.7326 -0.126655 0
M  V30 437 N 45.6387 -6.928 -0.00755288 0
M  V30 438 N 47.4317 -5.61811 -0.180348 0
M  V30 439 H 39.5827 -1.90424 0.94087 0
M  V30 440 H 41.8457 -0.875761 0.362968 0
M  V30 441 H 41.5517 -3.4292 0.780927 0
M  V30 442 H 41.4257 -3.64899 -0.955448 0
M  V30 443 H 43.8127 -2.69079 -1.21162 0
M  V30 444 H 43.8937 -2.49915 0.545517 0
M  V30 445 H 43.5377 -5.01339 0.813739 0
M  V30 446 H 43.4677 -5.17798 -0.958775 0
M  V30 447 H 45.9587 -3.76807 -0.287267 0
M  V30 448 H 46.2717 -7.72791 0.0379428 0
M  V30 449 H 44.6167 -6.94995 0.0271731 0
M  V30 450 H 47.8077 -4.6731 -0.271767 0
M  V30 451 H 47.9807 -6.47882 -0.123697 0
M  V30 452 N 41.3868 0.248026 -1.55636 0
M  V30 453 C 42.3188 1.32993 -1.8667 0
M  V30 454 C 43.3318 1.44345 -0.752877 0
M  V30 455 O 44.5208 1.45715 -1.03098 0
M  V30 456 C 41.6208 2.70863 -2.03682 0
M  V30 457 C 40.7938 2.81792 -3.34532 0
M  V30 458 C 39.8528 4.005 -3.41301 0
M  V30 459 O 38.8788 3.9008 -4.14519 0
M  V30 460 N 40.0808 5.13618 -2.70512 0
M  V30 461 H 42.8458 1.06707 -2.8006 0
M  V30 462 H 40.4068 0.438129 -1.55859 0
M  V30 463 H 42.3988 3.48612 -2.05553 0
M  V30 464 H 40.9688 2.89862 -1.17041 0
M  V30 465 H 40.1888 1.90729 -3.44987 0
M  V30 466 H 41.4768 2.86043 -4.20781 0
M  V30 467 H 40.8748 5.24975 -2.10755 0
M  V30 468 H 39.4318 5.89505 -2.78077 0
M  V30 469 N 42.8649 1.48995 0.513639 0
M  V30 470 C 44.0949 1.61297 1.291 0
M  V30 471 C 44.5029 0.278656 1.87137 0
M  V30 472 O 43.8459 -0.744325 1.67945 0
M  V30 473 C 43.9079 2.61326 2.46879 0
M  V30 474 C 43.5719 4.05993 2.09807 0
M  V30 475 C 44.5689 4.93183 1.64519 0
M  V30 476 C 42.2539 4.51642 2.19829 0
M  V30 477 C 44.2479 6.24056 1.2974 0
M  V30 478 C 41.9349 5.82532 1.84662 0
M  V30 479 C 42.9329 6.68562 1.3969 0
M  V30 480 O 42.6209 7.97014 1.04992 0
M  V30 481 H 42.3529 0.546236 0.39825 0
M  V30 482 H 44.9069 1.95673 0.62459 0
M  V30 483 H 43.1369 2.22104 3.16554 0
M  V30 484 H 44.8259 2.6329 3.08923 0
M  V30 485 H 45.5919 4.59147 1.56233 0
M  V30 486 H 41.4709 3.84855 2.53786 0
M  V30 487 H 45.0149 6.91161 0.945659 0
M  V30 488 H 40.9119 6.16099 1.92594 0
M  V30 489 H 41.6799 8.09913 1.18249 0
M  V30 490 N 44.343 -0.763751 1.37857 0
M  V30 491 C 45.589 -1.52483 1.33704 0
M  V30 492 C 45.922 -1.94051 -0.0759612 0
M  V30 493 O 45.197 -1.64675 -1.03501 0
M  V30 494 C 45.48 -2.78441 2.28348 0
M  V30 495 C 45.333 -2.43075 3.78463 0
M  V30 496 C 46.652 -3.80415 2.21298 0
M  V30 497 H 43.771 -0.553169 0.487005 0
M  V30 498 H 46.413 -0.875562 1.68624 0
M  V30 499 H 44.563 -3.33842 1.987 0
M  V30 500 H 46.235 -1.93527 4.18742 0
M  V30 501 H 44.478 -1.75666 3.96641 0
M  V30 502 H 45.149 -3.33149 4.40132 0
M  V30 503 H 47.625 -3.34527 2.47449 0
M  V30 504 H 46.501 -4.66257 2.89647 0
M  V30 505 H 46.762 -4.25262 1.20849 0
M  V30 506 N 45.8211 -1.22559 -0.990812 0
M  V30 507 C 47.0701 -1.04553 -1.72486 0
M  V30 508 C 47.3831 0.419349 -1.91052 0
M  V30 509 O 48.5891 0.719121 -2.61803 0
M  V30 510 C 47.0451 -1.82231 -3.10355 0
M  V30 511 C 46.6531 -3.32981 -2.99713 0
M  V30 512 C 48.3971 -1.7268 -3.87791 0
M  V30 513 C 46.3041 -4.03091 -4.32748 0
M  V30 514 H 45.2341 -0.387614 -0.646739 0
M  V30 515 H 47.8851 -1.46429 -1.10593 0
M  V30 516 H 46.2671 -1.33155 -3.72942 0
M  V30 517 H 47.4411 -3.89466 -2.46278 0
M  V30 518 H 45.7561 -3.43231 -2.35758 0
M  V30 519 H 48.3531 -2.22381 -4.86262 0
M  V30 520 H 48.6961 -0.687607 -4.10582 0
M  V30 521 H 49.2291 -2.1931 -3.31885 0
M  V30 522 H 45.9681 -5.07273 -4.15156 0
M  V30 523 H 45.4881 -3.51394 -4.86089 0
M  V30 524 H 47.1671 -4.08804 -5.01486 0
M  V30 525 N 47.2992 1.18797 -1.03562 0
M  V30 526 C 48.2462 2.22253 -0.622259 0
M  V30 527 C 49.2162 1.61987 0.36736 0
M  V30 528 O 50.4012 1.88986 0.262492 0
M  V30 529 C 47.5412 3.45097 0.0138462 0
M  V30 530 C 46.6542 4.19722 -1.02263 0
M  V30 531 C 45.7892 5.30009 -0.355573 0
M  V30 532 C 44.8282 5.96399 -1.37749 0
M  V30 533 N 43.9652 6.98234 -0.735766 0
M  V30 534 H 48.8052 2.56968 -1.50903 0
M  V30 535 H 46.3422 1.26245 -0.755017 0
M  V30 536 H 48.3002 4.15279 0.399948 0
M  V30 537 H 46.9302 3.11018 0.864158 0
M  V30 538 H 45.9822 3.48418 -1.52673 0
M  V30 539 H 47.2942 4.65227 -1.79903 0
M  V30 540 H 46.4482 6.0664 0.0850095 0
M  V30 541 H 45.1872 4.85592 0.452967 0
M  V30 542 H 44.1922 5.18512 -1.82826 0
M  V30 543 H 45.4172 6.42899 -2.18764 0
M  V30 544 H 43.3632 6.55979 0.0525597 0
M  V30 545 H 43.2802 7.41965 -1.44995 0
M  V30 546 H 44.5482 7.78845 -0.31941 0
M  V30 547 N 48.7773 0.814389 1.34928 0
M  V30 548 C 49.6873 0.231978 2.3345 0
M  V30 549 C 50.7033 -0.629139 1.62228 0
M  V30 550 O 51.8793 -0.539052 1.94052 0
M  V30 551 C 48.9443 -0.603482 3.41407 0
M  V30 552 C 48.0053 0.279037 4.28392 0
M  V30 553 C 47.2383 -0.516643 5.31193 0
M  V30 554 O 47.4613 -1.75068 5.4287 0
M  V30 555 O 46.3953 0.0965652 6.01823 0
M  V30 556 H 50.2213 1.04721 2.85074 0
M  V30 557 H 47.8063 0.576343 1.37836 0
M  V30 558 H 49.6883 -1.07908 4.0735 0
M  V30 559 H 48.3633 -1.39618 2.92042 0
M  V30 560 H 47.2703 0.801948 3.65403 0
M  V30 561 H 48.6033 1.03588 4.81176 0
M  V30 562 N 50.2554 -1.46986 0.568584 0
M  V30 563 C 51.5044 -2.01646 0.0465894 0
M  V30 564 C 51.8174 -1.44721 -1.31587 0
M  V30 565 O 53.0234 -1.91113 -1.92842 0
M  V30 566 C 51.4794 -3.59885 0.032752 0
M  V30 567 C 51.0874 -4.25804 1.39266 0
M  V30 568 C 52.8314 -4.22255 -0.436038 0
M  V30 569 C 50.7384 -5.76081 1.33732 0
M  V30 570 H 49.6684 -0.753876 0.013647 0
M  V30 571 H 52.3194 -1.68864 0.718131 0
M  V30 572 H 50.7014 -3.8968 -0.704669 0
M  V30 573 H 51.8754 -4.07637 2.1487 0
M  V30 574 H 50.1904 -3.7547 1.80032 0
M  V30 575 H 52.7874 -5.32394 -0.49602 0
M  V30 576 H 53.1304 -3.90212 -1.45053 0
M  V30 577 H 53.6634 -3.97033 0.246877 0
M  V30 578 H 50.4024 -6.12761 2.32817 0
M  V30 579 H 49.9224 -5.96553 0.623267 0
M  V30 580 H 51.6014 -6.38518 1.0442 0
M  V30 581 N 51.7335 -0.305618 -1.54608 0
M  V30 582 C 52.6815 0.584119 -2.25146 0
M  V30 583 C 53.6755 1.13326 -1.25911 0
M  V30 584 O 54.8815 1.08337 -1.43747 0
M  V30 585 H 51.2565 0.206983 -0.722954 0
M  V30 586 H 53.2275 -0.033291 -2.98381 0
M  V30 587 C 51.9765 1.74225 -3.009 0
M  V30 588 H 51.2995 1.32892 -3.77067 0
M  V30 589 H 52.7395 2.34077 -3.53531 0
M  V30 590 C 51.1985 2.64914 -2.0814 0
M  V30 591 O 51.7285 3.66137 -1.65246 0
M  V30 592 N 49.9345 2.3275 -1.74 0
M  V30 593 H 49.4815 1.50479 -2.09078 0
M  V30 594 H 49.4395 2.93694 -1.12211 0
M  V30 595 N 53.2116 1.57565 -0.0334293 0
M  V30 596 C 54.4606 1.91155 0.643639 0
M  V30 597 C 54.7736 0.91192 1.73042 0
M  V30 598 O 55.9796 1.13923 2.46442 0
M  V30 599 C 54.4356 3.39443 1.1961 0
M  V30 600 C 54.0436 4.47774 0.142381 0
M  V30 601 C 55.7876 3.82094 1.84944 0
M  V30 602 C 53.6946 5.87162 0.706727 0
M  V30 603 H 52.6246 0.713368 0.244176 0
M  V30 604 H 55.2756 1.8323 -0.0994323 0
M  V30 605 H 53.6576 3.42313 1.99092 0
M  V30 606 H 54.8316 4.56469 -0.630296 0
M  V30 607 H 53.1466 4.14352 -0.412446 0
M  V30 608 H 55.7436 4.83591 2.2813 0
M  V30 609 H 56.0866 3.17386 2.69392 0
M  V30 610 H 56.6196 3.81665 1.12145 0
M  V30 611 H 53.3586 6.55424 -0.0997178 0
M  V30 612 H 52.8786 5.82064 1.44779 0
M  V30 613 H 54.5576 6.35866 1.19514 0
M  V30 614 N 54.6897 -0.239769 1.55765 0
M  V30 615 C 55.9147 -0.988373 1.82335 0
M  V30 616 C 56.3397 -1.77886 0.611421 0
M  V30 617 O 55.6977 -1.75889 -0.439639 0
M  V30 618 C 55.7457 -1.89627 3.06715 0
M  V30 619 O 54.8497 -2.98904 2.84131 0
M  V30 620 H 54.1907 -0.280858 0.601677 0
M  V30 621 H 56.7207 -0.258597 2.02959 0
M  V30 622 H 56.7307 -2.30957 3.36338 0
M  V30 623 H 55.4057 -1.31511 3.9456 0
M  V30 624 H 53.9827 -2.61651 2.65694 0
M  V30 625 N 56.1678 -1.49265 -0.50573 0
M  V30 626 C 57.5838 -1.35923 -0.836486 0
M  V30 627 C 57.7838 -0.388704 -1.97715 0
M  V30 628 O 56.8398 0.181336 -2.51848 0
M  V30 629 C 58.1528 -2.76531 -1.18115 0
M  V30 630 C 59.7008 -2.85197 -1.28964 0
M  V30 631 C 60.1758 -4.26561 -1.66761 0
M  V30 632 N 61.6668 -4.2935 -1.73819 0
M  V30 633 C 62.4018 -5.35693 -2.045 0
M  V30 634 N 61.8978 -6.52287 -2.33438 0
M  V30 635 N 63.6908 -5.23105 -2.05711 0
M  V30 636 H 55.8418 -2.10965 0.246519 0
M  V30 637 H 58.1048 -0.9468 0.0476887 0
M  V30 638 H 57.8108 -3.49226 -0.416398 0
M  V30 639 H 57.6848 -3.11599 -2.1257 0
M  V30 640 H 60.0718 -2.12742 -2.04511 0
M  V30 641 H 60.1528 -2.53718 -0.325704 0
M  V30 642 H 59.7968 -4.99541 -0.917656 0
M  V30 643 H 59.7268 -4.55502 -2.64246 0
M  V30 644 H 62.2178 -3.4526 -1.53635 0
M  V30 645 H 62.5308 -7.29158 -2.56024 0
M  V30 646 H 60.8758 -6.55521 -2.30905 0
M  V30 647 H 64.0668 -4.31026 -1.82577 0
M  V30 648 H 64.2398 -6.06078 -2.29289 0
M  V30 649 N 57.6459 0.756429 -1.3826 0
M  V30 650 C 58.5789 1.87802 -1.29637 0
M  V30 651 C 59.5569 1.61667 -0.173939 0
M  V30 652 O 60.7409 1.85208 -0.350775 0
M  V30 653 C 57.8679 3.23354 -1.00797 0
M  V30 654 C 56.9139 3.68379 -2.14939 0
M  V30 655 S 57.7469 3.8025 -3.77054 0
M  V30 656 C 58.9029 5.18626 -3.50396 0
M  V30 657 H 59.1359 1.94829 -2.24564 0
M  V30 658 H 56.6689 0.919117 -1.24063 0
M  V30 659 H 58.6269 4.01637 -0.848413 0
M  V30 660 H 57.2879 3.14008 -0.0759369 0
M  V30 661 H 56.4809 4.66693 -1.90299 0
M  V30 662 H 56.0829 2.97242 -2.26988 0
M  V30 663 H 58.3749 6.04289 -3.06334 0
M  V30 664 H 59.3179 5.48286 -4.48094 0
M  V30 665 H 59.7259 4.87289 -2.84973 0
M  V30 666 N 59.124 1.23083 0.984299 0
M  V30 667 C 60.349 1.088 1.76571 0
M  V30 668 C 60.774 -0.356657 1.84688 0
M  V30 669 O 60.132 -1.25788 1.30565 0
M  V30 670 C 60.18 1.71371 3.17277 0
M  V30 671 O 59.284 0.973213 4.00752 0
M  V30 672 H 58.625 0.381599 0.543395 0
M  V30 673 H 61.155 1.63057 1.23587 0
M  V30 674 H 61.165 1.76449 3.67872 0
M  V30 675 H 59.84 2.76493 3.10684 0
M  V30 676 H 58.417 0.999078 3.59267 0
M  V30 677 N 60.6021 -1.18246 1.0419 0
M  V30 678 C 61.8271 -1.92736 0.765996 0
M  V30 679 C 62.2521 -1.75728 -0.67091 0
M  V30 680 O 61.6101 -1.06825 -1.46486 0
M  V30 681 C 61.6581 -3.42148 1.13875 0
M  V30 682 O 60.7621 -4.11548 0.264954 0
M  V30 683 H 60.1031 -0.601238 0.281797 0
M  V30 684 H 62.6331 -1.49942 1.39207 0
M  V30 685 H 62.6431 -3.92858 1.1012 0
M  V30 686 H 61.3181 -3.53848 2.18551 0
M  V30 687 H 59.8951 -3.71137 0.362226 0
M  V30 688 N 62.0802 -0.821533 -1.34494 0
M  V30 689 C 63.0272 -0.240397 -2.29545 0
M  V30 690 C 63.9972 0.634031 -1.53523 0
M  V30 691 O 65.1822 0.575966 -1.81899 0
M  V30 692 C 62.3222 0.592869 -3.39969 0
M  V30 693 C 61.4352 -0.30365 -4.30932 0
M  V30 694 C 60.5702 0.539049 -5.28458 0
M  V30 695 C 59.6092 -0.356942 -6.11058 0
M  V30 696 N 58.7462 0.446603 -7.00678 0
M  V30 697 H 63.5862 -1.05632 -2.7865 0
M  V30 698 H 61.1232 -0.532413 -1.37127 0
M  V30 699 H 63.0812 1.09129 -4.02675 0
M  V30 700 H 61.7112 1.37392 -2.92102 0
M  V30 701 H 60.7632 -0.920276 -3.691 0
M  V30 702 H 62.0752 -0.992661 -4.88823 0
M  V30 703 H 61.2292 1.102 -5.96608 0
M  V30 704 H 59.9682 1.26157 -4.71101 0
M  V30 705 H 58.9732 -0.932047 -5.41842 0
M  V30 706 H 60.1982 -1.07755 -6.70497 0
M  V30 707 H 58.1442 1.15282 -6.45791 0
M  V30 708 H 58.0612 -0.184048 -7.55776 0
M  V30 709 H 59.3292 0.992352 -7.73158 0
M  V30 710 N 63.5583 1.46682 -0.576371 0
M  V30 711 C 64.4683 2.34032 0.163141 0
M  V30 712 C 65.4843 1.49367 0.892501 0
M  V30 713 O 66.6603 1.82252 0.857106 0
M  V30 714 C 63.7253 3.26435 1.16795 0
M  V30 715 C 62.7863 4.26998 0.443944 0
M  V30 716 C 62.0193 5.14986 1.40088 0
M  V30 717 O 62.2423 5.05785 2.637 0
M  V30 718 O 61.1763 5.94906 0.914917 0
M  V30 719 H 65.0023 2.98607 -0.55388 0
M  V30 720 H 62.5873 1.45554 -0.336821 0
M  V30 721 H 64.4693 3.83459 1.74748 0
M  V30 722 H 63.1443 2.64465 1.86655 0
M  V30 723 H 62.0513 3.7368 -0.177271 0
M  V30 724 H 63.3843 4.91736 -0.213566 0
M  V30 725 N 65.0364 0.313813 1.54444 0
M  V30 726 C 66.4524 -0.0391619 1.59552 0
M  V30 727 C 66.6524 -1.51322 1.33056 0
M  V30 728 O 65.7084 -2.26782 1.11022 0
M  V30 729 C 67.0214 0.370302 2.98411 0
M  V30 730 C 68.5694 0.320139 3.11358 0
M  V30 731 C 69.0444 0.704617 4.52547 0
M  V30 732 N 70.5354 0.657645 4.58508 0
M  V30 733 C 71.2704 0.927453 5.6585 0
M  V30 734 N 70.7664 1.26389 6.81174 0
M  V30 735 N 72.5594 0.853662 5.5558 0
M  V30 736 H 64.7104 1.27433 1.69925 0
M  V30 737 H 66.9734 0.517511 0.794284 0
M  V30 738 H 66.6794 1.39694 3.22767 0
M  V30 739 H 66.5534 -0.269619 3.76235 0
M  V30 740 H 68.9404 -0.697275 2.86744 0
M  V30 741 H 69.0214 0.99486 2.35661 0
M  V30 742 H 68.6654 1.7199 4.77893 0
M  V30 743 H 68.5954 0.00768843 5.26599 0
M  V30 744 H 71.0864 0.409067 3.75679 0
M  V30 745 H 71.3994 1.4554 7.58972 0
M  V30 746 H 69.7444 1.30206 6.82694 0
M  V30 747 H 72.9354 0.590383 4.64362 0
M  V30 748 H 73.1084 1.0673 6.3915 0
M  V30 749 N 66.5145 -1.57545 0.0417849 0
M  V30 750 C 67.4245 -2.14451 -0.951213 0
M  V30 751 C 68.4405 -1.09992 -1.34825 0
M  V30 752 O 69.6165 -1.42114 -1.42708 0
M  V30 753 C 66.6815 -2.67063 -2.21084 0
M  V30 754 C 65.7425 -3.86284 -1.87304 0
M  V30 755 C 64.9755 -4.36378 -3.07261 0
M  V30 756 O 65.1985 -3.85587 -4.20332 0
M  V30 757 O 64.1325 -5.28077 -2.88822 0
M  V30 758 H 67.9585 -2.99601 -0.497287 0
M  V30 759 H 65.5435 -1.48317 -0.179567 0
M  V30 760 H 67.4255 -3.00914 -2.95006 0
M  V30 761 H 66.1005 -1.84989 -2.65633 0
M  V30 762 H 65.0075 -3.57338 -1.10727 0
M  V30 763 H 66.3405 -4.6956 -1.47562 0
M  V30 764 N 67.9926 0.231505 -1.5589 0
M  V30 765 C 68.9026 1.308 -1.94752 0
M  V30 766 C 69.9186 1.51826 -0.849989 0
M  V30 767 O 71.0946 1.6515 -1.15271 0
M  V30 768 C 68.1596 2.63968 -2.24771 0
M  V30 769 C 67.2206 2.51331 -3.48039 0
M  V30 770 C 66.4536 3.78148 -3.76616 0
M  V30 771 O 66.6766 4.80722 -3.07022 0
M  V30 772 O 65.6106 3.75857 -4.70123 0
M  V30 773 H 69.4366 1.0083 -2.86474 0
M  V30 774 H 67.0216 0.433547 -1.42971 0
M  V30 775 H 68.9036 3.42633 -2.45318 0
M  V30 776 H 67.5786 2.9364 -1.36225 0
M  V30 777 H 66.4856 1.709 -3.32782 0
M  V30 778 H 67.8186 2.26601 -4.36936 0
M  V30 779 N 69.4707 1.49531 0.497807 0
M  V30 780 C 70.6957 1.63159 1.28039 0
M  V30 781 C 71.1207 0.30418 1.85624 0
M  V30 782 O 70.4787 -0.728618 1.66015 0
M  V30 783 C 70.5267 2.70537 2.38416 0
M  V30 784 O 69.6307 2.29931 3.42353 0
M  V30 785 H 68.9717 0.546001 0.377861 0
M  V30 786 H 71.5017 1.9574 0.59558 0
M  V30 787 H 71.5117 2.92802 2.84132 0
M  V30 788 H 70.1867 3.6689 1.95869 0
M  V30 789 H 68.7637 2.18009 3.02533 0
M  V30 790 N 70.9488 -0.749086 1.3866 0
M  V30 791 C 72.3648 -1.05276 1.19955 0
M  V30 792 C 72.5648 -2.01435 0.05134 0
M  V30 793 O 71.6208 -2.45232 -0.60147 0
M  V30 794 C 72.9338 -1.62853 2.52783 0
M  V30 795 C 74.4818 -1.75002 2.59506 0
M  V30 796 C 74.9568 -2.35991 3.92521 0
M  V30 797 N 76.4478 -2.43416 3.94085 0
M  V30 798 C 77.1828 -2.91511 4.9377 0
M  V30 799 N 76.6788 -3.39608 6.03853 0
M  V30 800 N 78.4718 -2.90592 4.81157 0
M  V30 801 H 70.6228 -0.111066 2.12109 0
M  V30 802 H 72.8858 -0.111901 0.941373 0
M  V30 803 H 72.5918 -0.99664 3.37283 0
M  V30 804 H 72.4658 -2.61854 2.715 0
M  V30 805 H 74.8528 -2.37317 1.75398 0
M  V30 806 H 74.9338 -0.74693 2.44652 0
M  V30 807 H 74.5778 -1.74308 4.77053 0
M  V30 808 H 74.5078 -3.3695 4.04688 0
M  V30 809 H 76.9988 -2.09405 3.14576 0
M  V30 810 H 77.3118 -3.74775 6.75843 0
M  V30 811 H 75.6568 -3.37653 6.07466 0
M  V30 812 H 78.8478 -2.52332 3.94267 0
M  V30 813 H 79.0208 -3.27762 5.58996 0
M  V30 814 N 72.4269 -1.23603 -0.977757 0
M  V30 815 C 73.8429 -0.999251 -1.24447 0
M  V30 816 C 74.0429 0.298053 -1.99283 0
M  V30 817 O 73.0989 1.01681 -2.31122 0
M  V30 818 C 74.4119 -2.20784 -2.04144 0
M  V30 819 C 75.9599 -2.25303 -2.17273 0
M  V30 820 C 76.4349 -3.45755 -3.00362 0
M  V30 821 N 77.9259 -3.4601 -3.07947 0
M  V30 822 C 78.6609 -4.35868 -3.72568 0
M  V30 823 N 78.1569 -5.35966 -4.38991 0
M  V30 824 N 79.9499 -4.23605 -3.6948 0
M  V30 825 H 72.1009 -2.06986 -0.476483 0
M  V30 826 H 74.3639 -0.907801 -0.273134 0
M  V30 827 H 74.0699 -3.14945 -1.56533 0
M  V30 828 H 73.9439 -2.22085 -3.04891 0
M  V30 829 H 76.3309 -1.3168 -2.64092 0
M  V30 830 H 76.4119 -2.28033 -1.15907 0
M  V30 831 H 76.0559 -4.39687 -2.5424 0
M  V30 832 H 75.9859 -3.40266 -4.01904 0
M  V30 833 H 78.4769 -2.73588 -2.60688 0
M  V30 834 H 78.7899 -6.00783 -4.86086 0
M  V30 835 H 77.1349 -5.39863 -4.37691 0
M  V30 836 H 80.3259 -3.44647 -3.16759 0
M  V30 837 H 80.4989 -4.93836 -4.1956 0
M  V30 838 N 73.905 1.17692 -1.04816 0
M  V30 839 C 74.815 2.25229 -0.65643 0
M  V30 840 C 75.831 1.71018 0.320761 0
M  V30 841 O 77.007 2.00649 0.173805 0
M  V30 842 C 74.072 3.46684 -0.0332629 0
M  V30 843 C 73.133 4.15997 -1.06042 0
M  V30 844 C 72.366 5.31654 -0.466893 0
M  V30 845 O 72.589 5.65777 0.724758 0
M  V30 846 O 71.523 5.89831 -1.1993 0
M  V30 847 H 75.349 2.61016 -1.55255 0
M  V30 848 H 72.934 1.24919 -0.81949 0
M  V30 849 H 74.816 4.20234 0.313256 0
M  V30 850 H 73.491 3.12703 0.836566 0
M  V30 851 H 72.398 3.44482 -1.45886 0
M  V30 852 H 73.731 4.53996 -1.90127 0
M  V30 853 N 75.3831 0.828654 1.34056 0
M  V30 854 C 76.6291 0.42008 1.98402 0
M  V30 855 C 76.9621 -1.01564 1.65525 0
M  V30 856 O 76.2371 -1.70834 0.929831 0
M  V30 857 C 76.5201 0.62927 3.54559 0
M  V30 858 C 76.3731 2.11152 3.97159 0
M  V30 859 C 77.6921 0.0688756 4.40046 0
M  V30 860 H 74.8111 0.154104 0.720709 0
M  V30 861 H 77.4531 1.04228 1.5886 0
M  V30 862 H 75.6031 0.0996418 3.88372 0
M  V30 863 H 77.2751 2.70522 3.73651 0
M  V30 864 H 75.5181 2.59985 3.47261 0
M  V30 865 H 76.1891 2.20868 5.05887 0
M  V30 866 H 78.6651 0.521458 4.1282 0
M  V30 867 H 77.5411 0.245006 5.48353 0
M  V30 868 H 77.8021 -1.0266 4.30015 0
M  V30 869 N 76.8612 -1.46375 0.584142 0
M  V30 870 C 77.8242 -2.28784 -0.138108 0
M  V30 871 C 78.8242 -1.38471 -0.817462 0
M  V30 872 O 80.0142 -1.60833 -0.669199 0
M  V30 873 C 77.1462 -3.18892 -1.20503 0
M  V30 874 H 78.3392 -2.94117 0.586127 0
M  V30 875 H 75.8922 -1.52509 0.342171 0
M  V30 876 H 76.6272 -2.58309 -1.96079 0
M  V30 877 H 76.4122 -3.85388 -0.722384 0
M  V30 878 H 77.9022 -3.80914 -1.71155 0
M  V30 879 N 78.3393 -0.321999 -1.54275 0
M  V30 880 C 79.5853 0.281461 -2.00837 0
M  V30 881 C 79.9183 1.51909 -1.20985 0
M  V30 882 O 79.1933 1.923 -0.291733 0
M  V30 883 C 79.4763 0.617162 -3.54772 0
M  V30 884 C 79.3293 -0.631064 -4.45351 0
M  V30 885 C 80.6483 1.43542 -4.16033 0
M  V30 886 H 77.7673 0.100826 -0.730071 0
M  V30 887 H 80.4093 -0.438268 -1.84876 0
M  V30 888 H 78.5593 1.23034 -3.68504 0
M  V30 889 H 80.2313 -1.26934 -4.43492 0
M  V30 890 H 78.4743 -1.26025 -4.15091 0
M  V30 891 H 79.1453 -0.351735 -5.50878 0
M  V30 892 H 81.6213 0.917134 -4.05867 0
M  V30 893 H 80.4973 1.63907 -5.23856 0
M  V30 894 H 80.7583 2.43108 -3.69257 0
M  V30 895 N 79.8174 1.5752 -0.0501392 0
M  V30 896 C 80.7474 2.14502 0.922566 0
M  V30 897 C 81.7284 1.06642 1.3252 0
M  V30 898 O 82.9134 1.34577 1.4001 0
M  V30 899 C 80.0434 2.68916 2.19776 0
M  V30 900 C 78.9974 3.8175 1.93523 0
M  V30 901 C 78.3234 4.22677 3.27487 0
M  V30 902 C 79.6234 5.06932 1.25765 0
M  V30 903 H 81.3174 2.9603 0.447952 0
M  V30 904 H 78.8634 1.42401 0.214024 0
M  V30 905 H 80.8164 3.07419 2.88222 0
M  V30 906 H 79.5404 1.84578 2.69441 0
M  V30 907 H 78.1994 3.43718 1.27489 0
M  V30 908 H 77.8474 3.35291 3.74952 0
M  V30 909 H 77.5474 4.98725 3.1072 0
M  V30 910 H 79.0714 4.63779 3.97166 0
M  V30 911 H 80.4854 5.42888 1.84244 0
M  V30 912 H 78.8824 5.88116 1.19328 0
M  V30 913 H 79.9524 4.84337 0.233536 0
M  V30 914 N 81.2955 -0.223234 1.56011 0
M  V30 915 C 82.2585 -1.26014 1.9145 0
M  V30 916 C 83.2585 -1.3989 0.792937 0
M  V30 917 O 84.4485 -1.38184 1.0607 0
M  V30 918 C 81.5805 -2.63422 2.16383 0
M  V30 919 H 82.7735 -0.95796 2.84189 0
M  V30 920 H 80.3265 -0.463576 1.49267 0
M  V30 921 H 81.0615 -2.98741 1.2619 0
M  V30 922 H 80.8465 -2.54728 2.98088 0
M  V30 923 H 82.3365 -3.38249 2.44903 0
M  V30 924 N 82.7736 -1.49793 -0.48987 0
M  V30 925 C 83.7216 -1.67783 -1.61095 0
M  V30 926 C 84.7156 -0.543683 -1.60438 0
M  V30 927 O 85.9216 -0.723647 -1.64813 0
M  V30 928 H 82.2966 -0.529255 -0.534222 0
M  V30 929 H 84.2676 -2.61861 -1.43078 0
M  V30 930 C 83.0166 -1.77191 -2.99164 0
M  V30 931 H 82.3396 -2.63841 -3.0038 0
M  V30 932 H 83.7796 -1.93809 -3.77113 0
M  V30 933 C 82.2386 -0.519203 -3.32875 0
M  V30 934 O 82.7686 0.350124 -4.00171 0
M  V30 935 N 80.9746 -0.378816 -2.8812 0
M  V30 936 H 80.5216 -1.08725 -2.33531 0
M  V30 937 H 80.4796 0.458239 -3.11043 0
M  V30 938 N 84.2517 0.741722 -1.39055 0
M  V30 939 C 85.1847 1.86416 -1.31622 0
M  V30 940 C 86.1627 1.61473 -0.191076 0
M  V30 941 O 87.3467 1.84825 -0.370399 0
M  V30 942 C 84.4737 3.22266 -1.04221 0
M  V30 943 C 83.5197 3.66079 -2.18834 0
M  V30 944 S 84.3527 3.7623 -3.81066 0
M  V30 945 C 85.5087 5.14881 -3.55877 0
M  V30 946 H 85.7417 1.92437 -2.26617 0
M  V30 947 H 83.2747 0.905907 -1.25031 0
M  V30 948 H 85.2327 4.00714 -0.890964 0
M  V30 949 H 83.8937 3.1391 -0.109237 0
M  V30 950 H 83.0867 4.64648 -1.95238 0
M  V30 951 H 82.6887 2.94817 -2.30128 0
M  V30 952 H 84.9807 6.01006 -3.12726 0
M  V30 953 H 85.9237 5.43503 -4.53884 0
M  V30 954 H 86.3317 4.84239 -2.90126 0
M  V30 955 N 85.7298 1.2412 0.971189 0
M  V30 956 C 86.6768 1.0305 2.06517 0
M  V30 957 C 87.6468 -0.0550666 1.66009 0
M  V30 958 O 88.8318 0.0988688 1.90544 0
M  V30 959 C 85.9718 0.637653 3.39158 0
M  V30 960 C 85.0848 1.79633 3.92882 0
M  V30 961 C 84.2198 1.34939 5.13775 0
M  V30 962 C 83.2588 2.47823 5.59687 0
M  V30 963 N 82.3958 2.04022 6.71803 0
M  V30 964 H 87.2358 1.96685 2.23873 0
M  V30 965 H 84.7728 0.979694 1.09729 0
M  V30 966 H 86.7308 0.390931 4.15364 0
M  V30 967 H 85.3608 -0.261693 3.21737 0
M  V30 968 H 84.4128 2.15681 3.13346 0
M  V30 969 H 85.7248 2.64466 4.22918 0
M  V30 970 H 84.8788 1.06134 5.97345 0
M  V30 971 H 83.6178 0.471557 4.85415 0
M  V30 972 H 82.6228 2.77392 4.74693 0
M  V30 973 H 83.8478 3.36158 5.90063 0
M  V30 974 H 81.7938 1.18632 6.45184 0
M  V30 975 H 81.7108 2.82409 7.01271 0
M  V30 976 H 82.9788 1.78347 7.58823 0
M  V30 977 N 87.2079 -1.17134 1.05439 0
M  V30 978 C 88.1579 -2.1919 0.627675 0
M  V30 979 C 89.1419 -1.57328 -0.337147 0
M  V30 980 O 90.3339 -1.76329 -0.153976 0
M  V30 981 C 87.4629 -3.43299 0.00651435 0
M  V30 982 C 86.5489 -4.12255 0.995312 0
M  V30 983 N 86.9399 -4.56997 2.16765 0
M  V30 984 C 85.2379 -4.38316 0.824336 0
M  V30 985 C 85.9389 -5.10239 2.7934 0
M  V30 986 N 84.9149 -5.02595 2.07122 0
M  V30 987 H 88.7169 -2.5149 1.52086 0
M  V30 988 H 86.2309 -1.33491 0.924868 0
M  V30 989 H 88.2279 -4.15693 -0.316965 0
M  V30 990 H 86.8879 -3.1249 -0.882033 0
M  V30 991 H 87.8989 -4.51006 2.54587 0
M  V30 992 H 84.5759 -4.17498 -0.0129526 0
M  V30 993 H 85.9659 -5.54961 3.78772 0
M  V30 994 N 88.686 -0.835752 -1.33615 0
M  V30 995 C 90.097 -0.487099 -1.80234 0
M  V30 996 C 90.448 0.993627 -1.69179 0
M  V30 997 O 89.573 1.77403 -1.23924 0
M  V30 998 C 90.168 -0.877385 -3.27242 0
M  V30 999 C 88.727 -0.580915 -3.7189 0
M  V30 1000 C 87.874 -1.0874 -2.5509 0
M  V30 1001 H 90.825 -1.02474 -1.2118 0
M  V30 1002 H 90.846 -0.186195 -3.80044 0
M  V30 1003 H 90.358 -1.95512 -3.35256 0
M  V30 1004 H 88.459 0.486881 -3.69405 0
M  V30 1005 H 88.572 -1.13396 -4.65487 0
M  V30 1006 H 86.936 -0.508392 -2.49575 0
M  V30 1007 H 87.719 -2.17184 -2.65868 0
M  V30 1008 N 90.1641 1.46063 -0.591896 0
M  V30 1009 C 91.1121 2.32124 0.148739 0
M  V30 1010 C 92.1061 1.45035 0.875286 0
M  V30 1011 O 93.3121 1.61609 0.792632 0
M  V30 1012 H 89.6871 0.749024 0.066832 0
M  V30 1013 H 91.6581 2.92392 -0.595783 0
M  V30 1014 C 90.4071 3.28373 1.1431 0
M  V30 1015 H 89.7301 3.95371 0.59346 0
M  V30 1016 H 91.1701 3.91352 1.63155 0
M  V30 1017 C 89.6291 2.54393 2.20875 0
M  V30 1018 O 90.1591 2.31373 3.28374 0
M  V30 1019 N 88.3651 2.14797 1.95731 0
M  V30 1020 H 87.9121 2.33719 1.08319 0
M  V30 1021 H 87.8701 1.65619 2.67241 0
M  V30 1022 N 91.6422 0.330177 1.54103 0
M  V30 1023 C 92.8912 -0.271336 1.99867 0
M  V30 1024 C 93.2042 -1.52723 1.22209 0
M  V30 1025 O 94.4102 -2.20515 1.58383 0
M  V30 1026 C 92.8662 -0.534032 3.55916 0
M  V30 1027 C 92.4742 0.705193 4.42415 0
M  V30 1028 C 94.2182 -1.09514 4.1013 0
M  V30 1029 C 92.1252 0.414035 5.89949 0
M  V30 1030 H 91.0552 -0.105166 0.74663 0
M  V30 1031 H 93.7062 0.443429 1.78062 0
M  V30 1032 H 92.0882 -1.30915 3.73734 0
M  V30 1033 H 93.2622 1.4804 4.36372 0
M  V30 1034 H 91.5772 1.18698 3.99124 0
M  V30 1035 H 94.1742 -1.3277 5.17954 0
M  V30 1036 H 94.5172 -2.04656 3.62521 0
M  V30 1037 H 95.0502 -0.381038 3.95971 0
M  V30 1038 H 91.7892 1.33481 6.41766 0
M  V30 1039 H 91.3092 -0.323336 5.98928 0
M  V30 1040 H 92.9882 0.0263105 6.46995 0
M  V30 1041 N 93.1203 -1.57491 0.0584922 0
M  V30 1042 C 94.3663 -1.93264 -0.614558 0
M  V30 1043 C 94.6993 -0.937717 -1.7006 0
M  V30 1044 O 93.9743 0.0351652 -1.94468 0
M  V30 1045 C 94.2573 -3.3938 -1.20386 0
M  V30 1046 C 94.1103 -4.49625 -0.125375 0
M  V30 1047 C 95.4293 -3.86039 -2.11334 0
M  V30 1048 H 92.5483 -0.702791 -0.221933 0
M  V30 1049 H 95.1903 -1.8961 0.12175 0
M  V30 1050 H 93.3403 -3.42626 -1.83139 0
M  V30 1051 H 95.0123 -4.58506 0.506971 0
M  V30 1052 H 93.2553 -4.30354 0.545672 0
M  V30 1053 H 93.9263 -5.48967 -0.577861 0
M  V30 1054 H 96.4023 -3.84716 -1.58534 0
M  V30 1055 H 95.2783 -4.88914 -2.49507 0
M  V30 1056 H 95.5393 -3.23215 -3.01636 0
M  V30 1057 N 94.5984 0.214957 -1.56127 0
M  V30 1058 C 95.5304 1.29004 -1.89448 0
M  V30 1059 C 96.5434 1.42716 -0.783326 0
M  V30 1060 O 97.7324 1.43496 -1.06166 0
M  V30 1061 C 94.8324 2.66482 -2.09381 0
M  V30 1062 C 94.0054 2.74633 -3.40434 0
M  V30 1063 C 93.0644 3.9317 -3.49719 0
M  V30 1064 O 92.0904 3.812 -4.227 0
M  V30 1065 N 93.2924 5.07765 -2.81346 0
M  V30 1066 H 96.0574 1.00743 -2.82261 0
M  V30 1067 H 93.6184 0.40497 -1.56753 0
M  V30 1068 H 95.6104 3.44173 -2.12901 0
M  V30 1069 H 94.1804 2.87314 -1.23163 0
M  V30 1070 H 93.4004 1.83368 -3.48955 0
M  V30 1071 H 94.6884 2.77054 -4.26754 0
M  V30 1072 H 94.0864 5.20386 -2.21843 0
M  V30 1073 H 92.6434 5.83474 -2.90519 0
M  V30 1074 N 96.0765 1.50051 0.48192 0
M  V30 1075 C 97.3065 1.63999 1.2565 0
M  V30 1076 C 97.7145 0.318288 1.86504 0
M  V30 1077 O 97.0575 -0.708534 1.69486 0
M  V30 1078 C 97.1195 2.66504 2.4128 0
M  V30 1079 C 96.7835 4.10352 2.01148 0
M  V30 1080 C 97.7805 4.96562 1.54021 0
M  V30 1081 C 95.4655 4.56203 2.10199 0
M  V30 1082 C 97.4595 6.26668 1.16473 0
M  V30 1083 C 95.1465 5.86318 1.72264 0
M  V30 1084 C 96.1445 6.71375 1.25477 0
M  V30 1085 O 95.8325 7.99062 0.880626 0
M  V30 1086 H 95.5645 0.55456 0.386574 0
M  V30 1087 H 98.1185 1.96954 0.582944 0
M  V30 1088 H 96.3485 2.28769 3.11772 0
M  V30 1089 H 98.0375 2.69783 3.03268 0
M  V30 1090 H 98.8035 4.62358 1.46458 0
M  V30 1091 H 94.6825 3.90152 2.45566 0
M  V30 1092 H 98.2265 6.93011 0.798841 0
M  V30 1093 H 94.1235 6.20046 1.79482 0
M  V30 1094 H 94.8915 8.12239 1.01043 0
M  V30 1095 N 97.5546 -0.734337 1.39446 0
M  V30 1096 C 98.9706 -1.03997 1.21065 0
M  V30 1097 C 99.1706 -2.01369 0.0727019 0
M  V30 1098 O 98.2266 -2.45856 -0.575426 0
M  V30 1099 C 99.5396 -1.60163 2.54496 0
M  V30 1100 C 101.088 -1.7224 2.61347 0
M  V30 1101 C 101.563 -2.31814 3.95002 0
M  V30 1102 N 103.054 -2.39223 3.96644 0
M  V30 1103 C 103.789 -2.86258 4.96834 0
M  V30 1104 N 103.285 -3.33184 6.07421 0
M  V30 1105 N 105.078 -2.85473 4.84213 0
M  V30 1106 H 97.2286 -0.0885624 2.12215 0
M  V30 1107 H 99.4916 -0.10191 0.942506 0
M  V30 1108 H 99.1976 -0.960811 3.38321 0
M  V30 1109 H 99.0716 -2.5896 2.74262 0
M  V30 1110 H 101.459 -2.35443 1.77906 0
M  V30 1111 H 101.54 -0.720939 2.4543 0
M  V30 1112 H 101.184 -1.69238 4.78875 0
M  V30 1113 H 101.114 -3.32638 4.08239 0
M  V30 1114 H 103.605 -2.06057 3.16779 0
M  V30 1115 H 103.918 -3.67586 6.7978 0
M  V30 1116 H 102.263 -3.31191 6.11013 0
M  V30 1117 H 105.454 -2.48136 3.96921 0
M  V30 1118 H 105.627 -3.21814 5.62441 0
M  V30 1119 N 99.0327 -1.24633 -0.964593 0
M  V30 1120 C 99.9427 -1.05859 -2.09359 0
M  V30 1121 C 100.959 0.00148855 -1.74 0
M  V30 1122 O 102.135 -0.197346 -2.00431 0
M  V30 1123 C 99.1997 -0.668879 -3.40187 0
M  V30 1124 C 98.2607 -1.80578 -3.89474 0
M  V30 1125 C 97.4937 -1.43457 -5.14058 0
M  V30 1126 O 97.7167 -0.325775 -5.69469 0
M  V30 1127 O 96.6507 -2.2613 -5.57807 0
M  V30 1128 H 100.477 -2.00516 -2.28094 0
M  V30 1129 H 98.0617 -1.03481 -1.0776 0
M  V30 1130 H 99.9437 -0.463211 -4.18846 0
M  V30 1131 H 98.6187 0.248536 -3.22744 0
M  V30 1132 H 97.5257 -2.06623 -3.11862 0
M  V30 1133 H 98.8587 -2.70208 -4.11398 0
M  V30 1134 N 100.511 1.16574 -1.06058 0
M  V30 1135 C 101.736 1.91493 -0.796562 0
M  V30 1136 C 102.161 1.76773 0.642868 0
M  V30 1137 O 101.519 1.09142 1.44768 0
M  V30 1138 C 101.567 3.40293 -1.19303 0
M  V30 1139 O 100.671 4.11074 -0.330394 0
M  V30 1140 H 100.012 0.596678 -0.291326 0
M  V30 1141 H 102.542 1.47708 -1.41575 0
M  V30 1142 H 102.552 3.91057 -1.16356 0
M  V30 1143 H 101.227 3.50326 -2.24153 0
M  V30 1144 H 99.8038 3.70513 -0.421225 0
M  V30 1145 N 101.989 0.842826 1.3317 0
M  V30 1146 C 103.236 0.440447 1.97652 0
M  V30 1147 C 103.564 -1.00123 1.6675 0
M  V30 1148 O 102.819 -1.7155 0.941761 0
M  V30 1149 C 103.118 0.612607 3.52111 0
M  V30 1150 C 102.784 2.02297 4.02972 0
M  V30 1151 C 101.446 2.40874 4.16573 0
M  V30 1152 C 103.798 2.94402 4.30089 0
M  V30 1153 C 101.126 3.70852 4.54627 0
M  V30 1154 C 103.478 4.23865 4.69597 0
M  V30 1155 C 102.142 4.62392 4.81404 0
M  V30 1156 H 101.412 0.161171 0.72326 0
M  V30 1157 H 104.059 1.07061 1.58777 0
M  V30 1158 H 102.364 -0.100849 3.9167 0
M  V30 1159 H 104.061 0.2815 4.00011 0
M  V30 1160 H 100.651 1.71338 3.92863 0
M  V30 1161 H 104.835 2.65835 4.19101 0
M  V30 1162 H 100.091 4.00501 4.61962 0
M  V30 1163 H 104.265 4.95306 4.89536 0
M  V30 1164 H 101.892 5.63154 5.10648 0
M  V30 1165 N 103.467 -1.45747 0.599634 0
M  V30 1166 C 104.377 -2.34262 -0.125888 0
M  V30 1167 C 105.393 -1.50768 -0.868625 0
M  V30 1168 O 106.569 -1.83592 -0.828003 0
M  V30 1169 C 103.634 -3.28252 -1.11587 0
M  V30 1170 C 102.695 -4.27651 -0.375956 0
M  V30 1171 C 101.928 -5.1715 -1.31877 0
M  V30 1172 O 102.151 -5.09916 -2.55621 0
M  V30 1173 O 101.085 -5.96286 -0.820157 0
M  V30 1174 H 104.911 -2.97688 0.601315 0
M  V30 1175 H 102.496 -1.44999 0.359934 0
M  V30 1176 H 104.378 -3.86191 -1.68626 0
M  V30 1177 H 103.053 -2.67401 -1.82424 0
M  V30 1178 H 101.96 -3.7335 0.236698 0
M  V30 1179 H 103.293 -4.91334 0.29177 0
M  V30 1180 N 104.945 -0.338344 -1.53925 0
M  V30 1181 C 105.855 0.529421 -2.28548 0
M  V30 1182 C 106.871 1.11645 -1.3346 0
M  V30 1183 O 108.047 1.13325 -1.66492 0
M  V30 1184 C 105.112 1.66713 -3.03987 0
M  V30 1185 C 104.173 1.11041 -4.14691 0
M  V30 1186 C 103.406 2.19389 -4.86522 0
M  V30 1187 O 103.629 3.40013 -4.57982 0
M  V30 1188 O 102.563 1.83976 -5.73094 0
M  V30 1189 H 106.389 -0.0770399 -3.03602 0
M  V30 1190 H 103.974 -0.103555 -1.49041 0
M  V30 1191 H 105.856 2.32918 -3.5118 0
M  V30 1192 H 104.531 2.25949 -2.31794 0
M  V30 1193 H 103.438 0.413024 -3.71813 0
M  V30 1194 H 104.771 0.562975 -4.8897 0
M  V30 1195 N 106.423 1.57458 -0.0668435 0
M  V30 1196 C 107.371 2.13639 0.919851 0
M  V30 1197 C 108.365 1.07204 1.31163 0
M  V30 1198 O 109.571 1.25591 1.28945 0
M  V30 1199 H 105.946 0.683048 0.314562 0
M  V30 1200 H 107.917 2.95415 0.421047 0
M  V30 1201 C 106.666 2.70892 2.17975 0
M  V30 1202 H 105.989 3.5246 1.88711 0
M  V30 1203 H 107.429 3.13803 2.85138 0
M  V30 1204 C 105.888 1.65414 2.93496 0
M  V30 1205 O 106.418 1.07619 3.87015 0
M  V30 1206 N 104.624 1.36564 2.56512 0
M  V30 1207 H 104.171 1.83751 1.80536 0
M  V30 1208 H 104.129 0.66223 3.07347 0
M  V30 1209 N 107.901 -0.206675 1.56239 0
M  V30 1210 C 109.149 -0.927007 1.79586 0
M  V30 1211 C 109.47 -1.8427 0.637929 0
M  V30 1212 O 108.74 -1.92849 -0.344398 0
M  V30 1213 H 107.32 -0.345292 0.662407 0
M  V30 1214 H 109.982 -0.21496 1.93711 0
M  V30 1215 H 109.078 -1.52501 2.72305 0
M  V30 1216 N 109.379 -1.50304 -0.473955 0
M  V30 1217 C 110.604 -1.65175 -1.25427 0
M  V30 1218 C 111.029 -0.333673 -1.85117 0
M  V30 1219 O 110.387 0.702114 -1.67153 0
M  V30 1220 C 110.435 -2.74295 -2.34082 0
M  V30 1221 O 109.539 -2.35349 -3.38651 0
M  V30 1222 H 108.88 -0.551944 -0.369126 0
M  V30 1223 H 111.41 -1.96662 -0.564364 0
M  V30 1224 H 111.42 -2.97285 -2.79438 0
M  V30 1225 H 110.095 -3.69959 -1.90008 0
M  V30 1226 H 108.672 -2.22794 -2.99027 0
M  V30 1227 N 110.857 0.726932 -1.39834 0
M  V30 1228 C 111.787 1.85405 -1.41941 0
M  V30 1229 C 112.768 1.67751 -0.281728 0
M  V30 1230 O 113.953 1.8795 -0.488717 0
M  V30 1231 C 111.083 3.23243 -1.2701 0
M  V30 1232 C 110.037 3.55549 -2.38262 0
M  V30 1233 C 109.363 4.9241 -2.08415 0
M  V30 1234 C 110.663 3.577 -3.80589 0
M  V30 1235 H 112.357 1.83899 -2.36266 0
M  V30 1236 H 109.903 0.883349 -1.13723 0
M  V30 1237 H 111.856 4.01775 -1.27103 0
M  V30 1238 H 110.58 3.25296 -0.291564 0
M  V30 1239 H 109.239 2.79351 -2.37399 0
M  V30 1240 H 108.887 4.91052 -1.0898 0
M  V30 1241 H 108.587 5.14992 -2.82943 0
M  V30 1242 H 110.111 5.73289 -2.10171 0
M  V30 1243 H 111.525 4.26293 -3.83337 0
M  V30 1244 H 109.922 3.91804 -4.54543 0
M  V30 1245 H 110.992 2.57328 -4.10987 0
M  V30 1246 N 112.336 1.25143 0.95797 0
M  V30 1247 C 113.566 1.12261 1.73439 0
M  V30 1248 C 113.974 -0.326715 1.86358 0
M  V30 1249 O 113.317 -1.2367 1.35836 0
M  V30 1250 C 113.379 1.69966 3.16784 0
M  V30 1251 C 113.043 3.18936 3.27305 0
M  V30 1252 C 114.04 4.15968 3.11877 0
M  V30 1253 C 111.725 3.59083 3.51234 0
M  V30 1254 C 113.719 5.51126 3.20217 0
M  V30 1255 C 111.406 4.9438 3.5921 0
M  V30 1256 C 112.404 5.90211 3.43716 0
M  V30 1257 O 112.092 7.23046 3.51368 0
M  V30 1258 H 111.824 0.392476 0.550399 0
M  V30 1259 H 114.378 1.65927 1.21068 0
M  V30 1260 H 112.608 1.10744 3.70503 0
M  V30 1261 H 114.297 1.52232 3.76272 0
M  V30 1262 H 115.063 3.86292 2.93264 0
M  V30 1263 H 110.942 2.84989 3.62356 0
M  V30 1264 H 114.486 6.25905 3.0804 0
M  V30 1265 H 110.383 5.23723 3.77339 0
M  V30 1266 H 111.151 7.31097 3.6802 0
M  V30 1267 N 113.814 -1.1601 1.06675 0
M  V30 1268 C 115.063 -1.85973 0.780818 0
M  V30 1269 C 115.376 -1.82819 -0.695444 0
M  V30 1270 O 116.582 -2.484 -1.09589 0
M  V30 1271 C 115.038 -3.33757 1.34665 0
M  V30 1272 C 114.646 -3.45374 2.85343 0
M  V30 1273 C 116.39 -4.0895 1.13843 0
M  V30 1274 C 114.297 -4.87266 3.35151 0
M  V30 1275 H 113.227 -0.696661 0.288407 0
M  V30 1276 H 115.878 -1.30903 1.28595 0
M  V30 1277 H 114.26 -3.88456 0.769274 0
M  V30 1278 H 115.434 -3.00816 3.49065 0
M  V30 1279 H 113.749 -2.83619 3.04876 0
M  V30 1280 H 116.346 -5.13654 1.4854 0
M  V30 1281 H 116.689 -4.16229 0.0770282 0
M  V30 1282 H 117.222 -3.605 1.68179 0
M  V30 1283 H 113.961 -4.85168 4.40786 0
M  V30 1284 H 113.481 -5.32433 2.76179 0
M  V30 1285 H 115.16 -5.56097 3.30704 0
M  V30 1286 N 115.292 -0.849877 -1.32721 0
M  V30 1287 C 116.538 -0.451591 -1.97708 0
M  V30 1288 C 116.871 0.989175 -1.6712 0
M  V30 1289 O 116.146 1.69334 -0.956891 0
M  V30 1290 C 116.429 -0.685598 -3.53513 0
M  V30 1291 C 116.282 -2.17444 -3.93749 0
M  V30 1292 C 117.601 -0.138874 -4.39881 0
M  V30 1293 H 114.72 -0.16555 -0.718166 0
M  V30 1294 H 117.362 -1.06742 -1.57182 0
M  V30 1295 H 115.512 -0.161416 -3.88165 0
M  V30 1296 H 117.184 -2.76433 -3.693 0
M  V30 1297 H 115.427 -2.65476 -3.43081 0
M  V30 1298 H 116.098 -2.28888 -5.02309 0
M  V30 1299 H 118.574 -0.587068 -4.11938 0
M  V30 1300 H 117.45 -0.332213 -5.47894 0
M  V30 1301 H 117.711 0.95806 -4.31594 0
M  V30 1302 N 116.77 1.45427 -0.607355 0
M  V30 1303 C 117.703 2.27635 0.160482 0
M  V30 1304 C 118.681 1.37122 0.873857 0
M  V30 1305 O 119.865 1.66551 0.882775 0
M  V30 1306 C 116.992 3.15486 1.23231 0
M  V30 1307 C 116.038 4.21939 0.622097 0
M  V30 1308 S 116.871 5.32459 -0.569852 0
M  V30 1309 C 118.027 6.23879 0.502577 0
M  V30 1310 H 118.26 2.9241 -0.536983 0
M  V30 1311 H 115.793 1.49265 -0.394868 0
M  V30 1312 H 117.751 3.66659 1.84585 0
M  V30 1313 H 116.412 2.49977 1.90185 0
M  V30 1314 H 115.605 4.8333 1.42856 0
M  V30 1315 H 115.207 3.73906 0.0837063 0
M  V30 1316 H 117.499 6.63261 1.38171 0
M  V30 1317 H 118.442 7.0806 -0.0751759 0
M  V30 1318 H 118.85 5.58545 0.8178 0
M  V30 1319 N 118.248 0.346503 1.53744 0
M  V30 1320 C 119.525 -0.304532 1.93215 0
M  V30 1321 C 119.905 -1.67993 1.27834 0
M  V30 1322 O 119.253 -2.24411 0.430352 0
M  V30 1323 C 119.463 -0.373852 3.46992 0
M  V30 1324 C 120.811 -0.62329 4.2 0
M  V30 1325 O 121.835 -0.455847 3.53271 0
M  V30 1326 O 120.694 -0.947879 5.38217 0
M  V30 1327 H 117.788 -0.178318 0.807547 0
M  V30 1328 H 120.334 0.397895 1.64969 0
M  V30 1329 H 119.106 0.591224 3.86808 0
M  V30 1330 H 118.729 -1.12294 3.81413 0
M  V30 1331 N 119.726 -1.57421 0.075193 0
M  V30 1332 C 120.956 -1.97659 -0.601203 0
M  V30 1333 C 121.364 -0.952427 -1.63479 0
M  V30 1334 O 120.707 0.0688241 -1.83571 0
M  V30 1335 C 120.769 -3.34218 -1.32434 0
M  V30 1336 C 120.433 -4.5484 -0.443826 0
M  V30 1337 C 121.43 -5.19034 0.299969 0
M  V30 1338 C 119.115 -5.00952 -0.367709 0
M  V30 1339 C 121.109 -6.27695 1.10807 0
M  V30 1340 C 118.796 -6.09484 0.444058 0
M  V30 1341 C 119.794 -6.72719 1.18061 0
M  V30 1342 O 119.482 -7.79161 1.97898 0
M  V30 1343 H 119.214 -0.65494 -0.167422 0
M  V30 1344 H 121.768 -2.04886 0.145157 0
M  V30 1345 H 119.998 -3.23615 -2.11685 0
M  V30 1346 H 121.687 -3.59038 -1.89331 0
M  V30 1347 H 122.453 -4.84351 0.250776 0
M  V30 1348 H 118.332 -4.51509 -0.930638 0
M  V30 1349 H 121.876 -6.76982 1.68347 0
M  V30 1350 H 117.773 -6.43601 0.494803 0
M  V30 1351 H 118.541 -7.96055 1.90367 0
M  V30 1352 N 121.204 0.198386 -1.56346 0
M  V30 1353 C 122.444 0.92609 -1.82217 0
M  V30 1354 C 122.808 1.80584 -0.652195 0
M  V30 1355 O 124.009 2.56907 -0.790716 0
M  V30 1356 C 122.28 1.72354 -3.13096 0
M  V30 1357 S 123.839 2.50371 -3.6036 0
M  V30 1358 H 120.657 0.310677 -0.639532 0
M  V30 1359 H 123.259 0.189755 -1.94577 0
M  V30 1360 H 121.963 1.0678 -3.96265 0
M  V30 1361 H 121.494 2.50175 -3.03605 0
M  V30 1362 H 123.509 3.74488 -3.25535 0
M  V30 1363 N 122.682 1.50554 0.465978 0
M  V30 1364 C 123.592 1.72585 1.58907 0
M  V30 1365 C 124.608 0.60911 1.6299 0
M  V30 1366 O 125.784 0.88804 1.80765 0
M  V30 1367 C 122.849 1.81995 2.95091 0
M  V30 1368 C 121.91 3.05751 3.01355 0
M  V30 1369 C 121.143 3.14702 4.31043 0
M  V30 1370 O 121.366 2.30313 5.21835 0
M  V30 1371 O 120.3 4.07468 4.43005 0
M  V30 1372 H 124.126 2.67799 1.43239 0
M  V30 1373 H 121.711 1.34711 0.646013 0
M  V30 1374 H 123.593 1.90335 3.75966 0
M  V30 1375 H 122.268 0.899659 3.10947 0
M  V30 1376 H 121.175 3.02908 2.19539 0
M  V30 1377 H 122.508 3.97375 2.90437 0
M  V30 1378 N 124.16 -0.719506 1.40217 0
M  V30 1379 C 125.408 -1.47641 1.3801 0
M  V30 1380 C 125.729 -1.94992 -0.018145 0
M  V30 1381 O 124.999 -1.70073 -0.972207 0
M  V30 1382 H 123.579 -0.547744 0.507923 0
M  V30 1383 H 126.241 -0.853187 1.75233 0
M  V30 1384 H 125.337 -2.35112 2.05253 0
M  V30 1385 N 125.638 -1.25649 -0.95132 0
M  V30 1386 C 126.886 -1.10375 -1.69298 0
M  V30 1387 C 127.207 0.355339 -1.91735 0
M  V30 1388 O 126.477 1.25188 -1.50681 0
M  V30 1389 H 125.057 -0.405461 -0.627384 0
M  V30 1390 H 127.719 -1.57823 -1.14358 0
M  V30 1391 H 126.815 -1.61465 -2.67087 0
M  V30 1392 N 127.117 1.15442 -1.07289 0
M  V30 1393 C 128.394 1.82306 -0.708792 0
M  V30 1394 C 128.774 1.94991 0.808807 0
M  V30 1395 O 128.122 1.50085 1.72298 0
M  V30 1396 C 128.332 3.18695 -1.42247 0
M  V30 1397 C 129.68 3.94341 -1.57417 0
M  V30 1398 O 130.704 3.28247 -1.38319 0
M  V30 1399 O 129.563 5.12839 -1.88834 0
M  V30 1400 H 126.657 0.787628 -0.252132 0
M  V30 1401 H 129.203 1.22559 -1.17377 0
M  V30 1402 H 127.975 3.04557 -2.45684 0
M  V30 1403 H 127.598 3.86128 -0.948223 0
M  V30 1404 N 128.595 0.856903 1.32268 0
M  V30 1405 C 129.525 0.31858 2.31316 0
M  V30 1406 C 130.506 -0.583487 1.59779 0
M  V30 1407 O 131.691 -0.503259 1.87566 0
M  V30 1408 C 128.821 -0.491979 3.43798 0
M  V30 1409 C 127.775 0.315849 4.26833 0
M  V30 1410 C 127.101 -0.619586 5.31098 0
M  V30 1411 C 128.401 1.54282 4.98993 0
M  V30 1412 H 130.095 1.14621 2.76591 0
M  V30 1413 H 127.641 0.552613 1.32974 0
M  V30 1414 H 129.594 -0.879012 4.1213 0
M  V30 1415 H 128.318 -1.35299 2.97257 0
M  V30 1416 H 126.977 0.684664 3.6015 0
M  V30 1417 H 126.625 -1.47751 4.8081 0
M  V30 1418 H 126.325 -0.0830621 5.87541 0
M  V30 1419 H 127.849 -1.00375 6.02293 0
M  V30 1420 H 129.263 1.22796 5.59995 0
M  V30 1421 H 127.66 2.01745 5.65172 0
M  V30 1422 H 128.73 2.30285 4.26728 0
M  V30 1423 N 130.073 -1.45103 0.615059 0
M  V30 1424 C 131.32 -2.02183 0.113179 0
M  V30 1425 C 131.648 -1.48249 -1.25906 0
M  V30 1426 O 130.903 -0.650265 -1.84581 0
M  V30 1427 C 131.202 -3.57386 0.0318797 0
M  V30 1428 C 130.868 -4.30505 1.34077 0
M  V30 1429 C 129.53 -4.50197 1.69929 0
M  V30 1430 C 131.882 -4.72238 2.20546 0
M  V30 1431 C 129.21 -5.08881 2.91988 0
M  V30 1432 C 131.562 -5.32272 3.41861 0
M  V30 1433 C 130.226 -5.50187 3.77956 0
M  V30 1434 H 129.496 -0.739842 0.0414151 0
M  V30 1435 H 132.143 -1.74073 0.798168 0
M  V30 1436 H 130.448 -3.84817 -0.736409 0
M  V30 1437 H 132.145 -3.99264 -0.372712 0
M  V30 1438 H 128.735 -4.15496 1.05173 0
M  V30 1439 H 132.919 -4.56751 1.94146 0
M  V30 1440 H 128.175 -5.20939 3.2005 0
M  V30 1441 H 132.349 -5.63563 4.09109 0
M  V30 1442 H 129.976 -5.95427 4.72622 0
M  V30 1443 N 131.551 -0.354651 -1.53558 0
M  V30 1444 C 132.498 0.496968 -2.25386 0
M  V30 1445 C 133.468 1.0865 -1.25636 0
M  V30 1446 O 134.653 1.12104 -1.54394 0
M  V30 1447 C 131.793 1.63637 -3.03837 0
M  V30 1448 C 130.906 1.07307 -4.18461 0
M  V30 1449 C 130.041 2.18068 -4.84376 0
M  V30 1450 C 129.08 1.59147 -5.91049 0
M  V30 1451 N 128.217 2.63695 -6.50699 0
M  V30 1452 H 133.057 -0.122075 -2.9775 0
M  V30 1453 H 130.594 -0.0720154 -1.46924 0
M  V30 1454 H 132.552 2.30734 -3.47589 0
M  V30 1455 H 131.182 2.22623 -2.33749 0
M  V30 1456 H 130.234 0.292708 -3.79272 0
M  V30 1457 H 131.546 0.602193 -4.95152 0
M  V30 1458 H 130.7 2.93007 -5.31255 0
M  V30 1459 H 129.439 2.68504 -4.07133 0
M  V30 1460 H 128.444 0.827175 -5.43542 0
M  V30 1461 H 129.669 1.09549 -6.70206 0
M  V30 1462 H 127.615 3.13365 -5.76315 0
M  V30 1463 H 127.532 2.21263 -7.22896 0
M  V30 1464 H 128.8 3.3837 -7.02229 0
M  V30 1465 N 133.029 1.57378 -0.0835403 0
M  V30 1466 C 134.445 1.57246 0.273109 0
M  V30 1467 C 134.645 1.09385 1.69225 0
M  V30 1468 O 133.701 0.765051 2.40631 0
M  V30 1469 C 135.014 3.00614 0.0720628 0
M  V30 1470 C 136.562 3.12684 0.1407 0
M  V30 1471 C 137.037 4.57989 -0.0322094 0
M  V30 1472 N 138.528 4.63194 0.0230085 0
M  V30 1473 C 139.263 5.73335 -0.0861941 0
M  V30 1474 N 138.759 6.9235 -0.24958 0
M  V30 1475 N 140.552 5.62093 -0.0282886 0
M  V30 1476 H 132.703 1.86801 -1.0109 0
M  V30 1477 H 134.966 0.861687 -0.395222 0
M  V30 1478 H 134.672 3.39786 -0.907662 0
M  V30 1479 H 134.546 3.68193 0.81936 0
M  V30 1480 H 136.933 2.73391 1.11092 0
M  V30 1481 H 137.014 2.47719 -0.637896 0
M  V30 1482 H 136.658 4.97973 -0.999247 0
M  V30 1483 H 136.588 5.21 0.765937 0
M  V30 1484 H 139.079 3.77613 0.14722 0
M  V30 1485 H 139.392 7.72117 -0.324733 0
M  V30 1486 H 137.737 6.94415 -0.285097 0
M  V30 1487 H 140.928 4.67997 0.0981408 0
M  V30 1488 H 141.101 6.47895 -0.116845 0
M  V30 1489 N 134.507 -0.190092 1.56449 0
M  V30 1490 C 135.756 -0.907912 1.80111 0
M  V30 1491 C 136.069 -1.84214 0.657619 0
M  V30 1492 O 137.275 -2.60094 0.778663 0
M  V30 1493 C 135.731 -1.66485 3.19078 0
M  V30 1494 C 135.339 -0.7752 4.41242 0
M  V30 1495 C 137.083 -2.37201 3.52045 0
M  V30 1496 C 134.99 -1.53129 5.71231 0
M  V30 1497 H 133.92 -0.34276 0.671589 0
M  V30 1498 H 136.571 -0.161109 1.82791 0
M  V30 1499 H 134.953 -2.45572 3.10661 0
M  V30 1500 H 136.127 -0.0226298 4.60794 0
M  V30 1501 H 134.442 -0.178627 4.16017 0
M  V30 1502 H 137.039 -2.94329 4.46402 0
M  V30 1503 H 137.382 -3.11632 2.76028 0
M  V30 1504 H 137.915 -1.65075 3.61932 0
M  V30 1505 H 134.654 -0.82967 6.50228 0
M  V30 1506 H 134.174 -2.25767 5.55688 0
M  V30 1507 H 135.853 -2.08377 6.12526 0
M  V30 1508 N 135.985 -1.50799 -0.457987 0
M  V30 1509 C 136.933 -1.71162 -1.575 0
M  V30 1510 C 137.927 -0.577592 -1.59249 0
M  V30 1511 O 139.133 -0.758443 -1.63241 0
M  V30 1512 H 135.508 -0.540468 -0.522875 0
M  V30 1513 H 137.479 -2.64837 -1.37492 0
M  V30 1514 C 136.228 -1.83496 -2.95338 0
M  V30 1515 H 135.551 -2.70153 -2.94716 0
M  V30 1516 H 136.991 -2.01765 -3.72917 0
M  V30 1517 C 135.45 -0.589694 -3.31699 0
M  V30 1518 O 135.98 0.265163 -4.00824 0
M  V30 1519 N 134.186 -0.439845 -2.87252 0
M  V30 1520 H 133.733 -1.13655 -2.31172 0
M  V30 1521 H 133.691 0.392159 -3.11945 0
M  V30 1522 N 137.463 0.71206 -1.40597 0
M  V30 1523 C 138.426 1.80785 -1.40888 0
M  V30 1524 C 139.426 1.57937 -0.302103 0
M  V30 1525 O 140.616 1.64913 -0.561182 0
M  V30 1526 C 137.748 3.18927 -1.20409 0
M  V30 1527 H 138.941 1.81924 -2.38419 0
M  V30 1528 H 136.494 0.91805 -1.26497 0
M  V30 1529 H 137.229 3.23436 -0.236522 0
M  V30 1530 H 137.014 3.36911 -2.00582 0
M  V30 1531 H 138.504 3.98949 -1.23408 0
M  V30 1532 N 138.941 1.26152 0.944643 0
M  V30 1533 C 139.873 1.03199 2.04652 0
M  V30 1534 C 140.886 -0.00642356 1.62799 0
M  V30 1535 O 142.075 0.233263 1.76969 0
M  V30 1536 C 139.175 0.540111 3.34568 0
M  V30 1537 C 138.348 1.64697 4.05208 0
M  V30 1538 C 137.407 1.15374 5.13396 0
M  V30 1539 O 136.433 1.85013 5.38293 0
M  V30 1540 N 137.635 0.00031529 5.805 0
M  V30 1541 H 140.4 1.9808 2.2491 0
M  V30 1542 H 137.961 1.17491 1.11389 0
M  V30 1543 H 139.953 0.194401 4.04233 0
M  V30 1544 H 138.523 -0.315021 3.11009 0
M  V30 1545 H 137.743 2.16379 3.29506 0
M  V30 1546 H 139.031 2.3903 4.49157 0
M  V30 1547 H 138.429 -0.581336 5.62705 0
M  V30 1548 H 136.986 -0.286346 6.51171 0
M  V30 1549 N 140.419 -1.14872 1.07899 0
M  V30 1550 C 141.366 -2.19791 0.704319 0
M  V30 1551 C 142.336 -1.63238 -0.306987 0
M  V30 1552 O 143.521 -1.8983 -0.192171 0
M  V30 1553 C 140.661 -3.44911 0.114244 0
M  V30 1554 C 139.774 -4.15637 1.1777 0
M  V30 1555 C 138.909 -5.28324 0.552037 0
M  V30 1556 C 137.948 -5.90875 1.59789 0
M  V30 1557 N 137.085 -6.95022 0.994404 0
M  V30 1558 H 141.925 -2.5119 1.60336 0
M  V30 1559 H 139.462 -1.23356 0.801352 0
M  V30 1560 H 141.42 -4.16477 -0.245544 0
M  V30 1561 H 140.05 -3.14011 -0.74813 0
M  V30 1562 H 139.102 -3.42512 1.65499 0
M  V30 1563 H 140.414 -4.5823 1.97046 0
M  V30 1564 H 139.568 -6.06538 0.1402 0
M  V30 1565 H 138.307 -4.86939 -0.272431 0
M  V30 1566 H 137.312 -5.11369 2.01945 0
M  V30 1567 H 138.537 -6.34337 2.42474 0
M  V30 1568 H 136.483 -6.55722 0.190939 0
M  V30 1569 H 136.4 -7.36073 1.72432 0
M  V30 1570 H 137.668 -7.77123 0.608253 0
M  V30 1571 N 141.898 -0.863906 -1.31812 0
M  V30 1572 C 143.146 -0.470904 -1.96537 0
M  V30 1573 C 143.467 0.978771 -1.68657 0
M  V30 1574 O 142.737 1.6853 -0.998717 0
M  V30 1575 H 141.317 -0.171148 -0.72713 0
M  V30 1576 H 143.979 -1.10236 -1.60729 0
M  V30 1577 H 143.075 -0.623616 -3.05806 0
M  V30 1578 N 143.376 1.44774 -0.622745 0
M  V30 1579 C 144.622 2.0242 -0.124083 0
M  V30 1580 C 144.955 1.4881 1.24777 0
M  V30 1581 O 144.23 0.668799 1.8264 0
M  V30 1582 C 144.513 3.59957 -0.101619 0
M  V30 1583 C 144.366 4.23867 -1.50521 0
M  V30 1584 C 145.685 4.36284 0.578272 0
M  V30 1585 H 142.804 0.735528 -0.0465645 0
M  V30 1586 H 145.446 1.72447 -0.797617 0
M  V30 1587 H 143.596 3.85623 0.471934 0
M  V30 1588 H 145.268 4.09336 -2.12701 0
M  V30 1589 H 143.511 3.81684 -2.06154 0
M  V30 1590 H 144.182 5.32843 -1.4416 0
M  V30 1591 H 146.658 4.16001 0.0906057 0
M  V30 1592 H 145.534 5.46004 0.563149 0
M  V30 1593 H 145.795 4.10271 1.64713 0
M  V30 1594 N 144.854 0.36279 1.53368 0
M  V30 1595 C 145.784 -0.476976 2.28576 0
M  V30 1596 C 146.765 -1.08631 1.30894 0
M  V30 1597 O 147.95 -1.10409 1.59761 0
M  V30 1598 C 145.08 -1.61828 3.07293 0
M  V30 1599 C 144.034 -1.13633 4.1264 0
M  V30 1600 C 143.36 -2.36766 4.79423 0
M  V30 1601 C 144.66 -0.223061 5.21823 0
M  V30 1602 H 146.354 0.150474 2.99022 0
M  V30 1603 H 143.9 0.0738103 1.43811 0
M  V30 1604 H 145.853 -2.21237 3.58653 0
M  V30 1605 H 144.577 -2.27292 2.34533 0
M  V30 1606 H 143.236 -0.564945 3.62221 0
M  V30 1607 H 142.884 -3.0068 4.03238 0
M  V30 1608 H 142.584 -2.05192 5.50609 0
M  V30 1609 H 144.108 -2.96865 5.33576 0
M  V30 1610 H 145.522 -0.724545 5.68703 0
M  V30 1611 H 143.919 0.001678 6.001 0
M  V30 1612 H 144.989 0.735553 4.79289 0
M  V30 1613 N 146.332 -1.57332 0.0918853 0
M  V30 1614 C 147.579 -1.94236 -0.572577 0
M  V30 1615 C 147.907 -0.973398 -1.6839 0
M  V30 1616 O 147.162 0.00756912 -1.95699 0
M  V30 1617 C 147.461 -3.37689 -1.17051 0
M  V30 1618 C 147.127 -4.50527 -0.183304 0
M  V30 1619 C 145.789 -4.81119 0.0882276 0
M  V30 1620 C 148.141 -5.18883 0.49095 0
M  V30 1621 C 145.469 -5.77395 1.04076 0
M  V30 1622 C 147.821 -6.1618 1.43193 0
M  V30 1623 C 146.485 -6.45179 1.71173 0
M  V30 1624 H 145.755 -0.710762 -0.209521 0
M  V30 1625 H 148.402 -1.9077 0.167036 0
M  V30 1626 H 146.707 -3.37718 -1.9863 0
M  V30 1627 H 148.404 -3.63543 -1.69227 0
M  V30 1628 H 144.994 -4.26681 -0.405124 0
M  V30 1629 H 149.178 -4.95427 0.294312 0
M  V30 1630 H 144.434 -5.98179 1.26457 0
M  V30 1631 H 148.608 -6.68243 1.96023 0
M  V30 1632 H 146.235 -7.1959 2.4514 0
M  V30 1633 N 147.81 0.181792 -1.56548 0
M  V30 1634 C 148.742 1.24956 -1.92142 0
M  V30 1635 C 149.755 1.41022 -0.813422 0
M  V30 1636 O 150.944 1.41212 -1.09186 0
M  V30 1637 C 148.044 2.61981 -2.14987 0
M  V30 1638 C 147.217 2.6735 -3.46183 0
M  V30 1639 C 146.276 3.85664 -3.5798 0
M  V30 1640 O 145.302 3.72148 -4.30691 0
M  V30 1641 N 146.504 5.01683 -2.92053 0
M  V30 1642 H 149.269 0.947329 -2.84334 0
M  V30 1643 H 146.83 0.371629 -1.57577 0
M  V30 1644 H 148.822 3.3958 -2.20154 0
M  V30 1645 H 147.392 2.84637 -1.2923 0
M  V30 1646 H 146.612 1.75925 -3.52766 0
M  V30 1647 H 147.9 2.67939 -4.32534 0
M  V30 1648 H 147.298 5.15564 -2.32832 0
M  V30 1649 H 145.855 5.77181 -3.0283 0
M  V30 1650 N 149.288 1.51039 0.449983 0
M  V30 1651 C 150.198 1.74261 1.57067 0
M  V30 1652 C 151.214 0.626363 1.62335 0
M  V30 1653 O 152.39 0.907162 1.79812 0
M  V30 1654 C 149.455 1.85114 2.93144 0
M  V30 1655 C 148.516 3.0893 2.98095 0
M  V30 1656 C 147.749 3.19256 4.27681 0
M  V30 1657 O 147.972 2.35835 5.19363 0
M  V30 1658 O 146.906 4.12144 4.38658 0
M  V30 1659 H 150.732 2.69303 1.40391 0
M  V30 1660 H 148.317 1.35389 0.631688 0
M  V30 1661 H 150.199 1.94311 3.73926 0
M  V30 1662 H 148.874 0.932588 3.09975 0
M  V30 1663 H 147.781 3.0522 2.16314 0
M  V30 1664 H 149.114 4.00433 2.86206 0
M  V30 1665 N 150.766 -0.704594 1.40972 0
M  V30 1666 C 152.043 -1.45847 1.30338 0
M  V30 1667 C 152.423 -2.10973 -0.0732344 0
M  V30 1668 O 151.771 -2.00997 -1.08685 0
M  V30 1669 C 151.981 -2.48525 2.45023 0
M  V30 1670 C 153.329 -3.1404 2.8577 0
M  V30 1671 O 154.353 -2.58848 2.44696 0
M  V30 1672 O 153.212 -4.13981 3.56766 0
M  V30 1673 H 150.306 -0.649092 0.512454 0
M  V30 1674 H 152.852 -0.735836 1.52917 0
M  V30 1675 H 151.624 -1.98994 3.36923 0
M  V30 1676 H 151.247 -3.2831 2.24272 0
M  V30 1677 N 152.244 -1.26651 -0.937939 0
M  V30 1678 C 153.176 -1.04283 -2.04102 0
M  V30 1679 C 154.189 -0.00221014 -1.628 0
M  V30 1680 O 155.378 -0.242645 -1.76843 0
M  V30 1681 C 152.478 -0.557846 -3.34277 0
M  V30 1682 C 151.651 -1.66843 -4.04329 0
M  V30 1683 C 150.71 -1.18095 -5.12777 0
M  V30 1684 O 149.736 -1.87865 -5.37304 0
M  V30 1685 N 150.938 -0.0311006 -5.80492 0
M  V30 1686 H 153.703 -1.9927 -2.23856 0
M  V30 1687 H 151.264 -1.1808 -1.10764 0
M  V30 1688 H 153.256 -0.215836 -4.04124 0
M  V30 1689 H 151.826 0.298523 -3.11171 0
M  V30 1690 H 151.046 -2.18123 -3.28353 0
M  V30 1691 H 152.334 -2.41408 -4.47883 0
M  V30 1692 H 151.732 0.551486 -5.63005 0
M  V30 1693 H 150.289 0.251809 -6.51313 0
M  V30 1694 N 153.722 1.14298 -1.08507 0
M  V30 1695 C 154.971 1.84708 -0.810305 0
M  V30 1696 C 155.284 1.83903 0.666271 0
M  V30 1697 O 156.49 2.50112 1.05624 0
M  V30 1698 C 154.946 3.31572 -1.39957 0
M  V30 1699 C 154.554 3.40791 -2.90801 0
M  V30 1700 C 156.298 4.07087 -1.20334 0
M  V30 1701 C 154.205 4.81872 -3.4286 0
M  V30 1702 H 153.135 0.691985 -0.299454 0
M  V30 1703 H 155.786 1.28841 -1.30661 0
M  V30 1704 H 154.168 3.87183 -0.830976 0
M  V30 1705 H 155.342 2.95225 -3.53806 0
M  V30 1706 H 153.657 2.78732 -3.0935 0
M  V30 1707 H 156.254 5.11225 -1.56693 0
M  V30 1708 H 156.597 4.16054 -0.143237 0
M  V30 1709 H 157.13 3.57779 -1.73893 0
M  V30 1710 H 153.869 4.78094 -4.48449 0
M  V30 1711 H 153.389 5.27972 -2.84615 0
M  V30 1712 H 155.068 5.50765 -3.39509 0
M  V30 1713 N 155.201 0.870884 1.31352 0
M  V30 1714 C 156.131 0.343096 2.30966 0
M  V30 1715 C 157.112 -0.566507 1.60389 0
M  V30 1716 O 158.297 -0.483336 1.88089 0
M  V30 1717 C 155.427 -0.455487 3.443 0
M  V30 1718 C 154.381 0.361103 4.26474 0
M  V30 1719 C 153.707 -0.563221 5.31725 0
M  V30 1720 C 155.007 1.59566 4.97329 0
M  V30 1721 H 156.701 1.17548 2.75359 0
M  V30 1722 H 154.247 0.566686 1.32381 0
M  V30 1723 H 156.2 -0.83525 4.13039 0
M  V30 1724 H 154.924 -1.32139 2.98675 0
M  V30 1725 H 153.583 0.722825 3.59403 0
M  V30 1726 H 153.231 -1.42643 4.82351 0
M  V30 1727 H 152.931 -0.0207409 5.87596 0
M  V30 1728 H 154.455 -0.939808 6.03324 0
M  V30 1729 H 155.869 1.28728 5.58661 0
M  V30 1730 H 154.266 2.07728 5.63 0
M  V30 1731 H 155.336 2.34798 4.24262 0
M  V30 1732 N 156.679 -1.44442 0.630414 0
M  V30 1733 C 157.956 -1.9549 0.0655657 0
M  V30 1734 C 158.336 -1.5724 -1.40851 0
M  V30 1735 O 157.684 -0.846116 -2.12257 0
M  V30 1736 C 157.894 -3.47812 0.287691 0
M  V30 1737 C 159.242 -4.24216 0.180513 0
M  V30 1738 O 160.266 -3.55526 0.219019 0
M  V30 1739 O 159.125 -5.46434 0.0848493 0
M  V30 1740 H 156.219 -0.826688 -0.0227177 0
M  V30 1741 H 158.765 -1.54496 0.702068 0
M  V30 1742 H 157.537 -3.687 1.31056 0
M  V30 1743 H 157.16 -3.95751 -0.382984 0
M  V30 1744 N 158.157 -0.370918 -1.53173 0
M  V30 1745 C 159.403 0.209976 -2.02313 0
M  V30 1746 C 159.758 1.45987 -1.25322 0
M  V30 1747 O 159.051 1.8856 -0.339965 0
M  V30 1748 C 159.245 0.549696 -3.53147 0
M  V30 1749 C 159.074 -0.665721 -4.44745 0
M  V30 1750 C 157.844 -1.17942 -4.91343 0
M  V30 1751 C 160.042 -1.53255 -4.90935 0
M  V30 1752 N 158.024 -2.35431 -5.66962 0
M  V30 1753 C 159.395 -2.55403 -5.64951 0
M  V30 1754 C 161.45 -1.5548 -4.73002 0
M  V30 1755 C 160.153 -3.5964 -6.22938 0
M  V30 1756 C 162.179 -2.58613 -5.31858 0
M  V30 1757 C 161.541 -3.59485 -6.05764 0
M  V30 1758 H 157.64 0.0394095 -0.781006 0
M  V30 1759 H 160.224 -0.516666 -1.8772 0
M  V30 1760 H 158.395 1.24541 -3.67891 0
M  V30 1761 H 160.127 1.11614 -3.89004 0
M  V30 1762 H 156.882 -0.743228 -4.67732 0
M  V30 1763 H 157.306 -2.94827 -6.09431 0
M  V30 1764 H 161.948 -0.788457 -4.15383 0
M  V30 1765 H 159.666 -4.37153 -6.79649 0
M  V30 1766 H 163.252 -2.61195 -5.19873 0
M  V30 1767 H 162.132 -4.3798 -6.50495 0
M  V30 1768 N 159.635 1.57281 -0.100228 0
M  V30 1769 C 160.882 1.94537 0.562268 0
M  V30 1770 C 161.21 0.982315 1.67871 0
M  V30 1771 O 160.465 0.00280936 1.957 0
M  V30 1772 C 160.764 3.38305 1.15259 0
M  V30 1773 C 160.43 4.50618 0.159409 0
M  V30 1774 C 159.092 4.81066 -0.113741 0
M  V30 1775 C 161.444 5.18615 -0.518461 0
M  V30 1776 C 158.772 5.76835 -1.07137 0
M  V30 1777 C 161.124 6.15412 -1.46459 0
M  V30 1778 C 159.788 6.44262 -1.74592 0
M  V30 1779 H 159.058 0.711863 0.205748 0
M  V30 1780 H 161.705 1.90679 -0.17715 0
M  V30 1781 H 160.01 3.38766 1.96836 0
M  V30 1782 H 161.707 3.64435 1.67297 0
M  V30 1783 H 158.297 4.2689 0.382491 0
M  V30 1784 H 162.481 4.95264 -0.320581 0
M  V30 1785 H 157.737 5.975 -1.29628 0
M  V30 1786 H 161.911 6.67194 -1.99564 0
M  V30 1787 H 159.538 7.1828 -2.48953 0
M  V30 1788 N 161.113 -0.173488 1.56642 0
M  V30 1789 C 162.359 -0.891784 1.8214 0
M  V30 1790 C 162.692 -1.8199 0.677736 0
M  V30 1791 O 161.967 -1.91842 -0.320446 0
M  V30 1792 C 162.25 -1.68933 3.18015 0
M  V30 1793 C 162.103 -0.784487 4.42906 0
M  V30 1794 C 163.422 -2.65748 3.50808 0
M  V30 1795 H 160.541 -0.322761 0.662567 0
M  V30 1796 H 163.183 -0.158095 1.89341 0
M  V30 1797 H 161.333 -2.31482 3.12007 0
M  V30 1798 H 163.005 -0.172046 4.60979 0
M  V30 1799 H 161.248 -0.0924117 4.33702 0
M  V30 1800 H 161.919 -1.37799 5.34524 0
M  V30 1801 H 164.395 -2.13327 3.57255 0
M  V30 1802 H 163.271 -3.18619 4.4696 0
M  V30 1803 H 163.532 -3.45842 2.75401 0
M  V30 1804 N 162.591 -1.51276 -0.441967 0
M  V30 1805 C 163.523 -1.68444 -1.55433 0
M  V30 1806 C 164.536 -0.565187 -1.52674 0
M  V30 1807 O 165.725 -0.839356 -1.57534 0
M  V30 1808 C 162.825 -1.67966 -2.94348 0
M  V30 1809 C 161.998 -2.964 -3.21661 0
M  V30 1810 C 161.057 -2.88171 -4.40277 0
M  V30 1811 O 160.083 -3.62119 -4.39157 0
M  V30 1812 N 161.285 -2.03706 -5.43584 0
M  V30 1813 H 164.05 -2.644 -1.41112 0
M  V30 1814 H 161.611 -1.49104 -0.630838 0
M  V30 1815 H 163.603 -1.60035 -3.71713 0
M  V30 1816 H 162.173 -0.796225 -3.0229 0
M  V30 1817 H 161.393 -3.18234 -2.32638 0
M  V30 1818 H 162.681 -3.81427 -3.36736 0
M  V30 1819 H 162.079 -1.42995 -5.47329 0
M  V30 1820 H 160.636 -2.01658 -6.1982 0
M  V30 1821 N 164.069 0.697108 -1.41344 0
M  V30 1822 C 165.318 1.45279 -1.39918 0
M  V30 1823 C 165.631 1.95597 -0.0109624 0
M  V30 1824 O 166.837 2.71208 0.125919 0
M  V30 1825 C 165.293 2.62695 -2.46007 0
M  V30 1826 C 164.901 2.19169 -3.90729 0
M  V30 1827 C 166.645 3.40336 -2.53715 0
M  V30 1828 C 164.552 3.33535 -4.88373 0
M  V30 1829 H 163.482 0.545692 -0.520323 0
M  V30 1830 H 166.133 0.756929 -1.67161 0
M  V30 1831 H 164.515 3.34541 -2.11892 0
M  V30 1832 H 165.689 1.54623 -4.34083 0
M  V30 1833 H 164.004 1.54525 -3.86666 0
M  V30 1834 H 166.601 4.2547 -3.2385 0
M  V30 1835 H 166.944 3.85418 -1.5735 0
M  V30 1836 H 167.477 2.75546 -2.86913 0
M  V30 1837 H 164.216 2.93468 -5.86137 0
M  V30 1838 H 163.736 3.96936 -4.49668 0
M  V30 1839 H 165.415 3.99335 -5.09059 0
M  V30 1840 N 165.547 1.27147 0.931209 0
M  V30 1841 C 166.787 1.14511 1.69312 0
M  V30 1842 C 167.151 -0.304638 1.89568 0
M  V30 1843 O 168.352 -0.553343 2.63043 0
M  V30 1844 C 166.623 1.90349 3.02493 0
M  V30 1845 S 168.182 1.93884 3.93642 0
M  V30 1846 H 165 0.408858 0.581684 0
M  V30 1847 H 167.602 1.61006 1.10893 0
M  V30 1848 H 166.306 2.94877 2.85439 0
M  V30 1849 H 165.837 1.44333 3.65966 0
M  V30 1850 H 167.852 1.03273 4.85334 0
M  V30 1851 N 167.025 -1.13721 1.09112 0
M  V30 1852 C 167.955 -2.21148 0.749385 0
M  V30 1853 C 168.936 -1.6792 -0.271475 0
M  V30 1854 O 170.121 -1.93693 -0.140251 0
M  V30 1855 C 167.251 -3.46905 0.165659 0
M  V30 1856 C 166.205 -4.13203 1.11567 0
M  V30 1857 C 165.531 -5.33248 0.393809 0
M  V30 1858 C 166.831 -4.60912 2.45678 0
M  V30 1859 H 168.525 -2.4999 1.64758 0
M  V30 1860 H 166.071 -1.20156 0.793626 0
M  V30 1861 H 168.024 -4.21313 -0.085466 0
M  V30 1862 H 166.748 -3.17449 -0.767714 0
M  V30 1863 H 165.407 -3.40758 1.35202 0
M  V30 1864 H 165.055 -5.00054 -0.543599 0
M  V30 1865 H 164.755 -5.78552 1.02721 0
M  V30 1866 H 166.279 -6.10413 0.150908 0
M  V30 1867 H 167.693 -5.26759 2.26269 0
M  V30 1868 H 166.09 -5.16944 3.04776 0
M  V30 1869 H 167.16 -3.75603 3.06677 0
M  V30 1870 N 168.503 -0.877838 -1.30888 0
M  V30 1871 C 169.466 -0.344265 -2.266 0
M  V30 1872 C 170.466 0.50922 -1.52524 0
M  V30 1873 O 171.656 0.317398 -1.71284 0
M  V30 1874 C 168.788 0.510198 -3.37061 0
M  V30 1875 H 169.981 -1.1893 -2.7531 0
M  V30 1876 H 167.534 -0.654088 -1.41956 0
M  V30 1877 H 168.269 1.37612 -2.93655 0
M  V30 1878 H 168.054 -0.101047 -3.9197 0
M  V30 1879 H 169.544 0.875537 -4.08319 0
M  V30 1880 N 169.982 1.44106 -0.638065 0
M  V30 1881 C 170.912 2.33448 0.0494287 0
M  V30 1882 C 171.893 1.48606 0.827672 0
M  V30 1883 O 173.078 1.77308 0.792173 0
M  V30 1884 C 170.208 3.31771 1.02691 0
M  V30 1885 C 169.162 4.26485 0.359823 0
M  V30 1886 C 168.488 5.14729 1.44769 0
M  V30 1887 C 169.788 5.17056 -0.738296 0
M  V30 1888 H 171.482 2.91183 -0.696636 0
M  V30 1889 H 169.028 1.40014 -0.336456 0
M  V30 1890 H 170.981 3.93161 1.51666 0
M  V30 1891 H 169.705 2.7226 1.80395 0
M  V30 1892 H 168.364 3.66437 -0.10934 0
M  V30 1893 H 168.012 4.51566 2.21578 0
M  V30 1894 H 167.712 5.78913 1.00668 0
M  V30 1895 H 169.236 5.78991 1.93911 0
M  V30 1896 H 170.65 5.72342 -0.331354 0
M  V30 1897 H 169.047 5.89879 -1.10286 0
M  V30 1898 H 170.117 4.57652 -1.60258 0
M  V30 1899 N 171.46 0.379036 1.52974 0
M  V30 1900 C 172.407 -0.461048 2.26148 0
M  V30 1901 C 173.377 -1.06637 1.27349 0
M  V30 1902 O 174.562 -1.09633 1.56157 0
M  V30 1903 C 171.702 -1.58782 3.06402 0
M  V30 1904 C 170.815 -1.00636 4.20115 0
M  V30 1905 C 169.95 -2.10334 4.87784 0
M  V30 1906 C 168.989 -1.49724 5.93506 0
M  V30 1907 N 168.126 -2.5331 6.54812 0
M  V30 1908 H 172.966 0.169429 2.97518 0
M  V30 1909 H 170.503 0.0953806 1.4679 0
M  V30 1910 H 172.461 -2.25174 3.51215 0
M  V30 1911 H 171.091 -2.18876 2.37261 0
M  V30 1912 H 170.143 -0.232332 3.7969 0
M  V30 1913 H 171.455 -0.523343 4.96047 0
M  V30 1914 H 170.609 -2.84519 5.35849 0
M  V30 1915 H 169.348 -2.61992 4.11353 0
M  V30 1916 H 168.353 -0.740598 5.44789 0
M  V30 1917 H 169.578 -0.988732 6.71864 0
M  V30 1918 H 167.524 -3.04156 5.81227 0
M  V30 1919 H 167.441 -2.09734 7.26325 0
M  V30 1920 H 168.709 -3.27155 7.07524 0
M  V30 1921 N 172.938 -1.57226 0.108567 0
M  V30 1922 C 173.888 -2.11305 -0.856396 0
M  V30 1923 C 174.872 -1.03129 -1.23504 0
M  V30 1924 O 176.064 -1.29381 -1.20787 0
M  V30 1925 C 173.193 -2.70771 -2.11041 0
M  V30 1926 C 172.279 -3.86011 -1.7566 0
M  V30 1927 N 172.67 -4.93492 -1.10902 0
M  V30 1928 C 170.968 -3.95999 -2.05185 0
M  V30 1929 C 171.669 -5.73984 -0.944308 0
M  V30 1930 N 170.645 -5.2346 -1.46596 0
M  V30 1931 H 174.447 -2.91784 -0.352002 0
M  V30 1932 H 171.961 -1.62126 -0.0942324 0
M  V30 1933 H 173.958 -3.07851 -2.81128 0
M  V30 1934 H 172.618 -1.91751 -2.62034 0
M  V30 1935 H 173.629 -5.1208 -0.774235 0
M  V30 1936 H 170.306 -3.28007 -2.58298 0
M  V30 1937 H 171.696 -6.70479 -0.436813 0
M  V30 1938 N 174.416 0.165178 -1.56732 0
M  V30 1939 C 175.662 0.882112 -1.82611 0
M  V30 1940 C 175.995 1.81628 -0.687378 0
M  V30 1941 O 175.27 1.92009 0.310267 0
M  V30 1942 C 175.553 1.67245 -3.18906 0
M  V30 1943 C 175.406 0.760987 -4.43316 0
M  V30 1944 C 176.725 2.63884 -3.52212 0
M  V30 1945 H 173.844 0.319242 -0.664269 0
M  V30 1946 H 176.486 0.148052 -1.89422 0
M  V30 1947 H 174.636 2.29824 -3.1323 0
M  V30 1948 H 176.308 0.147596 -4.61064 0
M  V30 1949 H 174.551 0.0694102 -4.33744 0
M  V30 1950 H 175.222 1.34962 -5.35247 0
M  V30 1951 H 177.698 2.11429 -3.58381 0
M  V30 1952 H 176.574 3.16245 -4.48643 0
M  V30 1953 H 176.835 3.44377 -2.77231 0
M  V30 1954 N 175.894 1.51508 0.433938 0
M  V30 1955 C 176.844 1.69451 1.52546 0
M  V30 1956 C 177.828 0.548474 1.51263 0
M  V30 1957 O 179.02 0.804529 1.57659 0
M  V30 1958 C 176.149 1.82604 2.90707 0
M  V30 1959 C 175.235 3.03002 2.96733 0
M  V30 1960 N 175.626 4.26121 2.72496 0
M  V30 1961 C 173.924 3.02327 3.27894 0
M  V30 1962 C 174.625 5.07407 2.84452 0
M  V30 1963 N 173.601 4.42126 3.16269 0
M  V30 1964 H 177.403 2.62305 1.32564 0
M  V30 1965 H 174.917 1.49202 0.641297 0
M  V30 1966 H 176.914 1.93569 3.69238 0
M  V30 1967 H 175.574 0.909339 3.11707 0
M  V30 1968 H 176.585 4.55009 2.4736 0
M  V30 1969 H 173.262 2.20301 3.54646 0
M  V30 1970 H 174.652 6.15422 2.69639 0
M  V30 1971 N 177.372 -0.689602 1.41712 0
M  V30 1972 C 178.649 -1.44457 1.31877 0
M  V30 1973 C 179.029 -2.11039 -0.0508537 0
M  V30 1974 O 178.377 -2.02138 -1.06547 0
M  V30 1975 C 178.587 -2.45913 2.47645 0
M  V30 1976 C 179.935 -3.10991 2.89084 0
M  V30 1977 O 180.959 -2.56238 2.47428 0
M  V30 1978 O 179.818 -4.10174 3.61137 0
M  V30 1979 H 176.912 -0.64362 0.519309 0
M  V30 1980 H 179.458 -0.719576 1.53689 0
M  V30 1981 H 178.23 -1.95409 3.39015 0
M  V30 1982 H 177.853 -3.25913 2.27742 0
M  V30 1983 N 178.85 -1.27639 -0.924453 0
M  V30 1984 C 180.266 -1.05113 -1.20097 0
M  V30 1985 C 180.466 0.213262 -2.00368 0
M  V30 1986 O 179.522 0.91787 -2.35226 0
M  V30 1987 C 180.835 -2.29244 -1.94596 0
M  V30 1988 C 182.383 -2.34315 -2.07522 0
M  V30 1989 C 182.858 -3.58183 -2.85427 0
M  V30 1990 N 184.349 -3.5876 -2.92994 0
M  V30 1991 C 185.084 -4.51277 -3.53746 0
M  V30 1992 N 184.58 -5.54102 -4.15863 0
M  V30 1993 N 186.373 -4.38894 -3.51181 0
M  V30 1994 H 178.524 -2.08821 -0.388264 0
M  V30 1995 H 180.787 -0.918568 -0.234385 0
M  V30 1996 H 180.493 -3.21301 -1.43034 0
M  V30 1997 H 180.367 -2.34816 -2.95197 0
M  V30 1998 H 182.754 -1.42762 -2.58269 0
M  V30 1999 H 182.835 -2.32744 -1.06131 0
M  V30 2000 H 182.479 -4.50074 -2.35363 0
M  V30 2001 H 182.409 -3.57006 -3.8711 0
M  V30 2002 H 184.9 -2.84398 -2.4885 0
M  V30 2003 H 185.213 -6.20859 -4.60168 0
M  V30 2004 H 183.558 -5.57941 -4.144 0
M  V30 2005 H 186.749 -3.57772 -3.01856 0
M  V30 2006 H 186.922 -5.11186 -3.98237 0
M  V30 2007 N 180.328 1.1314 -1.09713 0
M  V30 2008 C 181.275 2.18642 -0.739196 0
M  V30 2009 C 182.245 1.63706 0.280978 0
M  V30 2010 O 183.43 1.90111 0.161946 0
M  V30 2011 C 180.57 3.44685 -0.169102 0
M  V30 2012 C 179.683 4.13711 -1.24367 0
M  V30 2013 C 178.818 5.27379 -0.636019 0
M  V30 2014 C 177.857 5.88259 -1.69169 0
M  V30 2015 N 176.994 6.93352 -1.10485 0
M  V30 2016 H 181.834 2.48607 -1.64312 0
M  V30 2017 H 179.371 1.22066 -0.820875 0
M  V30 2018 H 181.329 4.16815 0.179256 0
M  V30 2019 H 179.959 3.15161 0.698079 0
M  V30 2020 H 179.011 3.39835 -1.70927 0
M  V30 2021 H 180.323 4.55037 -2.04311 0
M  V30 2022 H 179.477 6.06238 -0.236677 0
M  V30 2023 H 178.216 4.8731 0.194928 0
M  V30 2024 H 177.221 5.08092 -2.10055 0
M  V30 2025 H 178.446 6.30399 -2.52536 0
M  V30 2026 H 176.392 6.55335 -0.295234 0
M  V30 2027 H 176.309 7.33236 -1.84121 0
M  V30 2028 H 177.577 7.76057 -0.73181 0
M  V30 2029 N 181.806 0.884767 1.30421 0
M  V30 2030 C 183.055 0.499164 1.95426 0
M  V30 2031 C 183.368 -0.95645 1.70621 0
M  V30 2032 O 184.574 -1.44889 2.29607 0
M  V30 2033 C 183.03 0.84177 3.49917 0
M  V30 2034 C 182.638 2.31514 3.83543 0
M  V30 2035 C 184.382 0.525355 4.21237 0
M  V30 2036 C 182.289 2.59939 5.31212 0
M  V30 2037 H 181.219 0.182944 0.73147 0
M  V30 2038 H 183.87 1.07971 1.48373 0
M  V30 2039 H 182.252 0.190311 3.95542 0
M  V30 2040 H 183.426 3.0109 3.48829 0
M  V30 2041 H 181.741 2.59907 3.25326 0
M  V30 2042 H 184.338 0.714762 5.29901 0
M  V30 2043 H 184.681 -0.535222 4.12845 0
M  V30 2044 H 185.214 1.134 3.81294 0
M  V30 2045 H 181.953 3.64736 5.44654 0
M  V30 2046 H 181.473 1.94972 5.67227 0
M  V30 2047 H 183.152 2.45429 5.98643 0
M  V30 2048 N 183.284 -1.43765 0.645699 0
M  V30 2049 C 184.214 -2.33471 -0.0370477 0
M  V30 2050 C 185.195 -1.49042 -0.819779 0
M  V30 2051 O 186.38 -1.77726 -0.782758 0
M  V30 2052 C 183.51 -3.32311 -1.0093 0
M  V30 2053 C 182.464 -4.2667 -0.337201 0
M  V30 2054 C 181.79 -5.1549 -1.42037 0
M  V30 2055 C 183.09 -5.16657 0.765706 0
M  V30 2056 H 184.784 -2.90809 0.712069 0
M  V30 2057 H 182.33 -1.39834 0.343876 0
M  V30 2058 H 184.283 -3.9396 -1.49578 0
M  V30 2059 H 183.007 -2.73213 -1.78948 0
M  V30 2060 H 181.666 -3.66374 0.128771 0
M  V30 2061 H 181.314 -4.52735 -2.1918 0
M  V30 2062 H 181.014 -5.79438 -0.975966 0
M  V30 2063 H 182.538 -5.80012 -1.90838 0
M  V30 2064 H 183.952 -5.72158 0.361702 0
M  V30 2065 H 182.349 -5.89286 1.13413 0
M  V30 2066 H 183.419 -4.56796 1.62683 0
M  V30 2067 N 184.763 -0.387143 -1.52771 0
M  V30 2068 C 185.713 0.465942 -2.23188 0
M  V30 2069 C 186.697 1.03138 -1.23496 0
M  V30 2070 O 187.889 0.957845 -1.48843 0
M  V30 2071 C 185.018 1.59384 -3.04059 0
M  V30 2072 C 184.104 1.04024 -4.11144 0
M  V30 2073 N 184.495 0.211416 -5.05358 0
M  V30 2074 C 182.793 1.31295 -4.26237 0
M  V30 2075 C 183.494 -0.0941698 -5.81624 0
M  V30 2076 N 182.47 0.509207 -5.4121 0
M  V30 2077 H 186.272 -0.173856 -2.93385 0
M  V30 2078 H 183.786 -0.19633 -1.61209 0
M  V30 2079 H 185.783 2.21738 -3.53041 0
M  V30 2080 H 184.443 2.23648 -2.35397 0
M  V30 2081 H 185.454 -0.151151 -5.17679 0
M  V30 2082 H 182.131 1.95679 -3.68803 0
M  V30 2083 H 183.521 -0.765572 -6.67524 0
M  V30 2084 N 186.241 1.57166 -0.116904 0
M  V30 2085 C 187.657 1.5779 0.239693 0
M  V30 2086 C 187.857 1.1295 1.66867 0
M  V30 2087 O 186.913 0.81592 2.38954 0
M  V30 2088 C 188.226 3.00699 0.00828202 0
M  V30 2089 C 189.774 3.12912 0.0743438 0
M  V30 2090 C 190.249 4.57817 -0.129348 0
M  V30 2091 N 191.74 4.63139 -0.075247 0
M  V30 2092 C 192.475 5.73023 -0.207788 0
M  V30 2093 N 191.971 6.91665 -0.396382 0
M  V30 2094 N 193.764 5.61906 -0.14751 0
M  V30 2095 H 185.915 1.84615 -1.05029 0
M  V30 2096 H 188.178 0.85311 -0.41341 0
M  V30 2097 H 187.884 3.37784 -0.979531 0
M  V30 2098 H 187.758 3.69848 0.741077 0
M  V30 2099 H 190.145 2.75686 1.05268 0
M  V30 2100 H 190.226 2.4631 -0.690297 0
M  V30 2101 H 189.87 4.95742 -1.10465 0
M  V30 2102 H 189.8 5.22507 0.655253 0
M  V30 2103 H 192.291 3.7784 0.0670898 0
M  V30 2104 H 192.604 7.71255 -0.488437 0
M  V30 2105 H 190.949 6.93654 -0.432329 0
M  V30 2106 H 194.14 4.681 -0.00115036 0
M  V30 2107 H 194.313 6.47501 -0.254247 0
M  V30 2108 N 187.719 -0.156864 1.56817 0
M  V30 2109 C 188.996 -0.899244 1.73704 0
M  V30 2110 C 189.376 -1.99771 0.682254 0
M  V30 2111 O 188.724 -2.26515 -0.300522 0
M  V30 2112 C 188.934 -1.45075 3.17418 0
M  V30 2113 C 190.282 -1.91802 3.7881 0
M  V30 2114 O 191.306 -1.54838 3.20786 0
M  V30 2115 O 190.165 -2.5994 4.80722 0
M  V30 2116 H 187.259 -0.424267 0.709878 0
M  V30 2117 H 189.805 -0.143561 1.69092 0
M  V30 2118 H 188.577 -0.660846 3.85679 0
M  V30 2119 H 188.2 -2.27021 3.26416 0
M  V30 2120 N 189.197 -1.51736 -0.425897 0
M  V30 2121 C 190.446 -1.64201 -1.17136 0
M  V30 2122 C 190.759 -0.369705 -1.92074 0
M  V30 2123 O 191.965 -0.373898 -2.68913 0
M  V30 2124 C 190.421 -2.90035 -2.13091 0
M  V30 2125 C 190.029 -4.24312 -1.43747 0
M  V30 2126 C 191.773 -3.1186 -2.87999 0
M  V30 2127 C 189.68 -5.41285 -2.38253 0
M  V30 2128 H 188.61 -0.611624 -0.440944 0
M  V30 2129 H 191.261 -1.78212 -0.437328 0
M  V30 2130 H 189.643 -2.69684 -2.89977 0
M  V30 2131 H 190.817 -4.55086 -0.723408 0
M  V30 2132 H 189.132 -4.08456 -0.809465 0
M  V30 2133 H 191.729 -3.96427 -3.58817 0
M  V30 2134 H 192.072 -2.25403 -3.49999 0
M  V30 2135 H 192.605 -3.32605 -2.18217 0
M  V30 2136 H 189.344 -6.30037 -1.80925 0
M  V30 2137 H 188.864 -5.14872 -3.0768 0
M  V30 2138 H 190.543 -5.73694 -2.99139 0
M  V30 2139 N 190.675 0.682077 -1.42076 0
M  V30 2140 C 191.622 1.79578 -1.44984 0
M  V30 2141 C 192.592 1.6332 -0.302614 0
M  V30 2142 O 193.777 1.83978 -0.505633 0
M  V30 2143 C 190.917 3.1756 -1.35091 0
M  V30 2144 C 190.03 3.45156 -2.59791 0
M  V30 2145 C 189.165 4.72826 -2.42093 0
M  V30 2146 C 188.204 4.93433 -3.62202 0
M  V30 2147 N 187.341 6.12338 -3.43491 0
M  V30 2148 H 192.181 1.76427 -2.40161 0
M  V30 2149 H 189.718 0.861376 -1.19242 0
M  V30 2150 H 191.676 3.97287 -1.27354 0
M  V30 2151 H 190.306 3.19854 -0.435133 0
M  V30 2152 H 189.358 2.59736 -2.77923 0
M  V30 2153 H 190.67 3.5628 -3.49094 0
M  V30 2154 H 189.824 5.60631 -2.319 0
M  V30 2155 H 188.563 4.63973 -1.50268 0
M  V30 2156 H 187.568 4.04073 -3.72834 0
M  V30 2157 H 188.793 5.04136 -4.54998 0
M  V30 2158 H 186.739 6.04672 -2.54377 0
M  V30 2159 H 186.656 6.2429 -4.26377 0
M  V30 2160 H 187.924 7.02841 -3.37097 0
M  V30 2161 N 192.153 1.28127 0.917671 0
M  V30 2162 C 193.378 1.18007 1.70555 0
M  V30 2163 C 193.803 -0.258257 1.86319 0
M  V30 2164 O 193.161 -1.1869 1.37049 0
M  V30 2165 C 193.209 1.87948 3.07746 0
M  V30 2166 O 192.313 1.18427 3.9503 0
M  V30 2167 H 191.654 0.409867 0.522403 0
M  V30 2168 H 194.184 1.69379 1.1477 0
M  V30 2169 H 194.194 1.95701 3.58001 0
M  V30 2170 H 192.869 2.92573 2.95591 0
M  V30 2171 H 191.446 1.18811 3.53466 0
M  V30 2172 N 193.631 -1.12557 1.10312 0
M  V30 2173 C 194.563 -2.17971 0.708625 0
M  V30 2174 C 195.576 -1.60806 -0.254027 0
M  V30 2175 O 196.765 -1.78458 -0.0386891 0
M  V30 2176 C 193.865 -3.38891 0.0248198 0
M  V30 2177 C 193.038 -4.25548 1.01132 0
M  V30 2178 C 192.097 -5.24972 0.35924 0
M  V30 2179 O 191.123 -5.60174 1.00965 0
M  V30 2180 N 192.325 -5.73747 -0.882847 0
M  V30 2181 H 195.09 -2.52427 1.61557 0
M  V30 2182 H 192.651 -1.27967 0.991771 0
M  V30 2183 H 194.643 -4.02485 -0.422852 0
M  V30 2184 H 193.213 -3.02596 -0.784514 0
M  V30 2185 H 192.433 -3.58589 1.6373 0
M  V30 2186 H 193.721 -4.80294 1.67914 0
M  V30 2187 H 193.119 -5.4731 -1.43065 0
M  V30 2188 H 191.676 -6.39234 -1.27369 0
M  V30 2189 N 195.109 -0.891671 -1.2995 0
M  V30 2190 C 196.057 -0.353066 -2.29905 0
M  V30 2191 C 197.051 0.543509 -1.60444 0
M  V30 2192 O 198.257 0.4272 -1.74857 0
M  V30 2193 H 194.632 -0.095531 -0.745907 0
M  V30 2194 H 196.603 -1.20961 -2.72784 0
M  V30 2195 C 195.352 0.411475 -3.45257 0
M  V30 2196 H 194.675 -0.269182 -3.98893 0
M  V30 2197 H 196.115 0.753328 -4.17254 0
M  V30 2198 C 194.574 1.6111 -2.9588 0
M  V30 2199 O 195.104 2.71045 -2.96475 0
M  V30 2200 N 193.31 1.45054 -2.51809 0
M  V30 2201 H 192.857 0.556175 -2.51524 0
M  V30 2202 H 192.815 2.25453 -2.1913 0
M  V30 2203 N 196.587 1.43421 -0.653314 0
M  V30 2204 C 197.836 2.01032 -0.164076 0
M  V30 2205 C 198.149 1.52147 1.22926 0
M  V30 2206 O 199.355 2.02031 1.81371 0
M  V30 2207 C 197.811 3.59082 -0.24252 0
M  V30 2208 C 197.419 4.1696 -1.63855 0
M  V30 2209 C 199.163 4.24079 0.18911 0
M  V30 2210 C 197.07 5.67304 -1.67092 0
M  V30 2211 H 196 0.751798 -0.0575769 0
M  V30 2212 H 198.651 1.6439 -0.815362 0
M  V30 2213 H 197.033 3.93125 0.476276 0
M  V30 2214 H 198.207 3.94416 -2.38271 0
M  V30 2215 H 196.522 3.64335 -2.01616 0
M  V30 2216 H 199.119 5.34381 0.184775 0
M  V30 2217 H 199.462 3.98005 1.22056 0
M  V30 2218 H 199.995 3.94918 -0.477938 0
M  V30 2219 H 196.734 5.98145 -2.68146 0
M  V30 2220 H 196.254 5.91904 -0.970014 0
M  V30 2221 H 197.933 6.31344 -1.4147 0
M  V30 2222 N 198.065 0.39524 1.52563 0
M  V30 2223 C 199.312 -0.185044 2.01653 0
M  V30 2224 C 199.64 -1.46317 1.28146 0
M  V30 2225 O 198.895 -1.9213 0.372074 0
M  V30 2226 C 199.194 -0.493444 3.53977 0
M  V30 2227 C 198.86 0.69384 4.4553 0
M  V30 2228 C 197.522 1.01954 4.70275 0
M  V30 2229 C 199.874 1.48785 4.99512 0
M  V30 2230 C 197.202 2.14069 5.46252 0
M  V30 2231 C 199.554 2.59965 5.76716 0
M  V30 2232 C 198.218 2.93037 5.99738 0
M  V30 2233 H 197.488 -0.0677123 0.7379 0
M  V30 2234 H 200.135 0.533807 1.8391 0
M  V30 2235 H 198.44 -1.29369 3.69825 0
M  V30 2236 H 200.137 -0.955163 3.89458 0
M  V30 2237 H 196.727 0.429987 4.26438 0
M  V30 2238 H 200.911 1.24946 4.80315 0
M  V30 2239 H 196.167 2.40056 5.62302 0
M  V30 2240 H 200.341 3.21887 6.17545 0
M  V30 2241 H 197.968 3.8003 6.58393 0
M  V30 2242 N 199.544 -1.57102 0.125237 0
M  V30 2243 C 200.474 -2.18659 -0.819174 0
M  V30 2244 C 201.455 -1.12843 -1.27281 0
M  V30 2245 O 202.64 -1.41104 -1.33429 0
M  V30 2246 C 199.77 -2.79096 -2.06695 0
M  V30 2247 C 198.724 -3.90548 -1.75088 0
M  V30 2248 C 198.05 -4.37821 -3.06948 0
M  V30 2249 C 199.35 -5.12356 -1.01435 0
M  V30 2250 H 201.044 -2.9783 -0.306202 0
M  V30 2251 H 198.59 -1.4326 -0.145839 0
M  V30 2252 H 200.543 -3.2082 -2.73226 0
M  V30 2253 H 199.267 -1.97223 -2.60328 0
M  V30 2254 H 197.926 -3.49409 -1.10944 0
M  V30 2255 H 197.574 -3.52799 -3.58527 0
M  V30 2256 H 197.274 -5.12982 -2.86571 0
M  V30 2257 H 198.798 -4.822 -3.74587 0
M  V30 2258 H 200.212 -5.5106 -1.58132 0
M  V30 2259 H 198.609 -5.9314 -0.911319 0
M  V30 2260 H 199.679 -4.849 -0.00218681 0
M  V30 2261 N 201.022 0.148545 -1.56898 0
M  V30 2262 C 202.25 0.876389 -1.87422 0
M  V30 2263 C 202.665 1.74809 -0.713256 0
M  V30 2264 O 202.022 1.79725 0.317025 0
M  V30 2265 C 202.073 1.73438 -3.17178 0
M  V30 2266 O 201.794 0.897809 -4.28802 0
M  V30 2267 C 203.295 2.56993 -3.61205 0
M  V30 2268 H 200.515 0.253489 -0.621277 0
M  V30 2269 H 203.059 0.141798 -2.04008 0
M  V30 2270 H 201.214 2.42205 -3.0235 0
M  V30 2271 H 201.628 1.48672 -5.02988 0
M  V30 2272 H 203.102 3.12773 -4.54838 0
M  V30 2273 H 203.579 3.32958 -2.86419 0
M  V30 2274 H 204.185 1.9352 -3.78722 0
M  V30 2275 N 202.5 1.5196 0.417844 0
M  V30 2276 C 203.447 1.74678 1.50852 0
M  V30 2277 C 204.417 0.588947 1.55308 0
M  V30 2278 O 205.602 0.825544 1.72016 0
M  V30 2279 C 202.742 1.89544 2.88387 0
M  V30 2280 C 201.855 3.17166 2.93309 0
M  V30 2281 C 200.99 3.22513 4.22088 0
M  V30 2282 C 200.029 4.44372 4.20951 0
M  V30 2283 N 199.166 4.47161 5.41287 0
M  V30 2284 H 204.006 2.67768 1.30783 0
M  V30 2285 H 201.543 1.32689 0.63498 0
M  V30 2286 H 203.501 1.96146 3.68216 0
M  V30 2287 H 202.131 0.998424 3.06971 0
M  V30 2288 H 201.183 3.19778 2.06024 0
M  V30 2289 H 202.495 4.07021 2.88332 0
M  V30 2290 H 201.649 3.28139 5.10303 0
M  V30 2291 H 200.388 2.30581 4.29748 0
M  V30 2292 H 199.393 4.38902 3.31127 0
M  V30 2293 H 200.618 5.3759 4.14938 0
M  V30 2294 H 198.564 3.58108 5.49632 0
M  V30 2295 H 198.481 5.3085 5.3827 0
M  V30 2296 H 199.749 4.57005 6.3148 0
M  V30 2297 N 203.978 -0.674533 1.42435 0
M  V30 2298 C 205.255 -1.4305 1.33402 0
M  V30 2299 C 205.635 -2.11081 -0.0284674 0
M  V30 2300 O 204.983 -2.03257 -1.04397 0
M  V30 2301 C 205.193 -2.43272 2.50239 0
M  V30 2302 C 206.541 -3.07907 2.92367 0
M  V30 2303 O 207.565 -2.53599 2.50132 0
M  V30 2304 O 206.424 -4.0632 3.65467 0
M  V30 2305 H 203.518 -0.638076 0.526106 0
M  V30 2306 H 206.064 -0.703235 1.54443 0
M  V30 2307 H 204.836 -1.91803 3.41068 0
M  V30 2308 H 204.459 -3.23479 2.31186 0
M  V30 2309 N 205.456 -1.28612 -0.910864 0
M  V30 2310 C 206.704 -1.15705 -1.65701 0
M  V30 2311 C 207.025 0.29416 -1.92769 0
M  V30 2312 O 206.295 1.20331 -1.54588 0
M  V30 2313 H 204.875 -0.425216 -0.614167 0
M  V30 2314 H 207.537 -1.61381 -1.0928 0
M  V30 2315 H 206.633 -1.6988 -2.61815 0
M  V30 2316 N 206.934 1.1197 -1.10907 0
M  V30 2317 C 208.162 1.87402 -0.876824 0
M  V30 2318 C 208.577 1.79894 0.573025 0
M  V30 2319 O 207.934 1.17629 1.39534 0
M  V30 2320 C 207.985 3.36428 -1.32282 0
M  V30 2321 O 207.706 3.43765 -2.71582 0
M  V30 2322 C 209.207 4.28783 -1.12518 0
M  V30 2323 H 206.427 0.592793 -0.314384 0
M  V30 2324 H 208.971 1.41649 -1.47499 0
M  V30 2325 H 207.126 3.79706 -0.768229 0
M  V30 2326 H 207.54 4.3652 -2.90776 0
M  V30 2327 H 209.014 5.31613 -1.48633 0
M  V30 2328 H 209.491 4.39153 -0.0642394 0
M  V30 2329 H 210.097 3.91291 -1.66648 0
M  V30 2330 N 208.412 0.89855 1.29475 0
M  V30 2331 C 209.658 0.524658 1.95896 0
M  V30 2332 C 209.991 -0.926468 1.70676 0
M  V30 2333 O 209.266 -1.65665 1.01908 0
M  V30 2334 C 209.549 0.81633 3.50725 0
M  V30 2335 C 209.402 2.31907 3.85408 0
M  V30 2336 C 210.721 0.302038 4.39062 0
M  V30 2337 H 207.84 0.19209 0.711527 0
M  V30 2338 H 210.482 1.12502 1.53112 0
M  V30 2339 H 208.632 0.305369 3.87298 0
M  V30 2340 H 210.304 2.89949 3.58786 0
M  V30 2341 H 208.547 2.78027 3.32992 0
M  V30 2342 H 209.218 2.47373 4.93468 0
M  V30 2343 H 211.694 0.739551 4.09475 0
M  V30 2344 H 210.57 0.535331 5.46283 0
M  V30 2345 H 210.831 -0.797216 4.34853 0
M  V30 2346 N 209.89 -1.43072 0.660911 0
M  V30 2347 C 210.822 -2.29108 -0.0647641 0
M  V30 2348 C 211.835 -1.42928 -0.779448 0
M  V30 2349 O 213.024 -1.66788 -0.635921 0
M  V30 2350 C 210.124 -3.20032 -1.11503 0
M  V30 2351 C 209.297 -4.34792 -0.476955 0
M  V30 2352 C 208.356 -5.06534 -1.42513 0
M  V30 2353 O 207.382 -5.61538 -0.930771 0
M  V30 2354 N 208.584 -5.1075 -2.75889 0
M  V30 2355 H 211.349 -2.92029 0.673731 0
M  V30 2356 H 208.91 -1.53846 0.50427 0
M  V30 2357 H 210.902 -3.64892 -1.75032 0
M  V30 2358 H 209.472 -2.58658 -1.75541 0
M  V30 2359 H 208.692 -3.92752 0.337572 0
M  V30 2360 H 209.98 -5.0879 -0.0318525 0
M  V30 2361 H 209.378 -4.67447 -3.18606 0
M  V30 2362 H 207.935 -5.59302 -3.347 0
M  V30 2363 N 211.368 -0.403325 -1.52352 0
M  V30 2364 C 212.298 0.416205 -2.29761 0
M  V30 2365 C 213.279 1.05123 -1.33728 0
M  V30 2366 O 214.464 1.06134 -1.62632 0
M  V30 2367 C 211.594 1.53624 -3.11475 0
M  V30 2368 C 210.548 1.02653 -4.15507 0
M  V30 2369 C 209.874 2.23971 -4.85532 0
M  V30 2370 C 211.174 0.08463 -5.22231 0
M  V30 2371 H 212.868 -0.229701 -2.98518 0
M  V30 2372 H 210.414 -0.111913 -1.43564 0
M  V30 2373 H 212.367 2.1165 -3.64393 0
M  V30 2374 H 211.091 2.20994 -2.40477 0
M  V30 2375 H 209.75 0.46871 -3.63591 0
M  V30 2376 H 209.398 2.89883 -4.11068 0
M  V30 2377 H 209.098 1.90521 -5.55856 0
M  V30 2378 H 210.622 2.82614 -5.41259 0
M  V30 2379 H 212.036 0.573509 -5.70424 0
M  V30 2380 H 210.433 -0.160783 -5.99885 0
M  V30 2381 H 211.503 -0.86237 -4.7717 0
M  V30 2382 N 212.846 1.57033 -0.133567 0
M  V30 2383 C 214.094 1.953 0.519848 0
M  V30 2384 C 214.415 1.01866 1.66278 0
M  V30 2385 O 213.685 0.0776513 1.95746 0
M  V30 2386 H 212.265 0.721091 0.195032 0
M  V30 2387 H 214.927 1.93809 -0.205921 0
M  V30 2388 H 214.023 2.98695 0.904854 0
M  V30 2389 N 214.325 -0.140222 1.56975 0
M  V30 2390 C 215.602 -0.880769 1.74648 0
M  V30 2391 C 215.982 -1.99036 0.703404 0
M  V30 2392 O 215.33 -2.26821 -0.27648 0
M  V30 2393 C 215.54 -1.417 3.18939 0
M  V30 2394 C 216.888 -1.87774 3.80823 0
M  V30 2395 O 217.912 -1.51427 3.2241 0
M  V30 2396 O 216.771 -2.54827 4.83452 0
M  V30 2397 H 213.865 -0.416713 0.714338 0
M  V30 2398 H 216.411 -0.125618 1.69234 0
M  V30 2399 H 215.183 -0.619902 3.86359 0
M  V30 2400 H 214.806 -2.23546 3.28805 0
M  V30 2401 N 215.803 -1.52179 -0.40978 0
M  V30 2402 C 217.05 -1.66206 -1.15679 0
M  V30 2403 C 217.378 -0.391674 -1.90516 0
M  V30 2404 O 216.633 0.62533 -1.8544 0
M  V30 2405 C 216.932 -2.83428 -2.17723 0
M  V30 2406 C 216.598 -4.21672 -1.59699 0
M  V30 2407 C 215.26 -4.59274 -1.43599 0
M  V30 2408 C 217.612 -5.07825 -1.17317 0
M  V30 2409 C 214.94 -5.80709 -0.836328 0
M  V30 2410 C 217.292 -6.29864 -0.587691 0
M  V30 2411 C 215.956 -6.66216 -0.413818 0
M  V30 2412 H 215.226 -0.608192 -0.423301 0
M  V30 2413 H 217.873 -1.86279 -0.444097 0
M  V30 2414 H 216.178 -2.57687 -2.95135 0
M  V30 2415 H 217.875 -2.91477 -2.75394 0
M  V30 2416 H 214.465 -3.9204 -1.73213 0
M  V30 2417 H 218.649 -4.79359 -1.28565 0
M  V30 2418 H 213.905 -6.07498 -0.689626 0
M  V30 2419 H 218.079 -6.95948 -0.250894 0
M  V30 2420 H 215.706 -7.60182 0.0529471 0
M  V30 2421 N 217.281 0.66697 -1.42791 0
M  V30 2422 C 218.529 1.42417 -1.43394 0
M  V30 2423 C 218.85 1.94925 -0.0542373 0
M  V30 2424 O 218.12 1.73564 0.908415 0
M  V30 2425 H 216.7 0.528515 -0.527902 0
M  V30 2426 H 219.362 0.787562 -1.78279 0
M  V30 2427 H 218.458 2.27333 -2.13837 0
M  V30 2428 N 218.759 1.29093 0.90403 0
M  V30 2429 C 220.008 1.16187 1.64874 0
M  V30 2430 C 220.321 -0.286742 1.93487 0
M  V30 2431 O 221.527 -0.537062 2.66135 0
M  V30 2432 C 219.983 2.03177 2.97064 0
M  V30 2433 C 219.591 3.52836 2.76062 0
M  V30 2434 C 221.335 1.98984 3.74974 0
M  V30 2435 C 219.242 4.31945 4.03952 0
M  V30 2436 H 218.172 0.431246 0.618501 0
M  V30 2437 H 220.823 1.53699 1.00243 0
M  V30 2438 H 219.205 1.5853 3.62883 0
M  V30 2439 H 220.379 4.05507 2.18863 0
M  V30 2440 H 218.694 3.58656 2.11553 0
M  V30 2441 H 221.291 2.55351 4.69787 0
M  V30 2442 H 221.634 0.968815 4.0487 0
M  V30 2443 H 222.167 2.41652 3.15989 0
M  V30 2444 H 218.906 5.34667 3.79225 0
M  V30 2445 H 218.426 3.84045 4.60727 0
M  V30 2446 H 220.105 4.42379 4.72133 0
M  V30 2447 N 220.237 -1.11381 1.11499 0
M  V30 2448 C 221.2 -2.15622 0.777153 0
M  V30 2449 C 222.2 -1.59504 -0.203779 0
M  V30 2450 O 223.39 -1.74188 0.020782 0
M  V30 2451 C 220.522 -3.40556 0.153116 0
M  V30 2452 H 221.715 -2.47021 1.70061 0
M  V30 2453 H 219.268 -1.26577 0.916952 0
M  V30 2454 H 220.003 -3.14767 -0.780536 0
M  V30 2455 H 219.788 -3.8257 0.859238 0
M  V30 2456 H 221.278 -4.17546 -0.0671044 0
M  V30 2457 N 221.715 -0.905404 -1.28997 0
M  V30 2458 C 223.131 -0.60233 -1.47798 0
M  V30 2459 C 223.331 0.854645 -1.82478 0
M  V30 2460 O 222.387 1.63439 -1.92468 0
M  V30 2461 C 223.7 -1.53306 -2.58685 0
M  V30 2462 C 225.248 -1.53887 -2.72558 0
M  V30 2463 C 225.723 -2.45602 -3.86579 0
M  V30 2464 N 227.214 -2.43681 -3.93921 0
M  V30 2465 C 227.949 -3.11347 -4.81509 0
M  V30 2466 N 227.445 -3.88313 -5.73746 0
M  V30 2467 N 229.238 -3.00476 -4.75048 0
M  V30 2468 H 221.389 -1.84765 -1.04764 0
M  V30 2469 H 223.652 -0.792025 -0.520961 0
M  V30 2470 H 223.358 -2.57141 -2.39941 0
M  V30 2471 H 223.232 -1.25787 -3.55609 0
M  V30 2472 H 225.619 -0.507941 -2.90696 0
M  V30 2473 H 225.7 -1.85447 -1.76191 0
M  V30 2474 H 225.344 -3.48792 -3.69197 0
M  V30 2475 H 225.274 -2.11349 -4.82327 0
M  V30 2476 H 227.765 -1.87767 -3.27951 0
M  V30 2477 H 228.078 -4.36985 -6.37389 0
M  V30 2478 H 226.423 -3.92419 -5.73614 0
M  V30 2479 H 229.614 -2.39858 -4.01977 0
M  V30 2480 H 229.787 -3.53485 -5.43095 0
M  V30 2481 N 223.193 1.4272 -0.668489 0
M  V30 2482 C 224.439 2.01923 -0.188419 0
M  V30 2483 C 224.772 1.52704 1.19979 0
M  V30 2484 O 224.047 0.726566 1.8042 0
M  V30 2485 C 224.33 3.59451 -0.216085 0
M  V30 2486 C 224.183 4.18864 -1.6393 0
M  V30 2487 C 225.502 4.37903 0.439179 0
M  V30 2488 H 222.621 0.733674 -0.0699412 0
M  V30 2489 H 225.263 1.69822 -0.852076 0
M  V30 2490 H 223.413 3.86929 0.349012 0
M  V30 2491 H 225.085 4.02362 -2.25616 0
M  V30 2492 H 223.328 3.74933 -2.18193 0
M  V30 2493 H 223.999 5.27987 -1.61039 0
M  V30 2494 H 226.475 4.16079 -0.0417878 0
M  V30 2495 H 225.351 5.47519 0.389157 0
M  V30 2496 H 225.612 4.15303 1.51577 0
M  V30 2497 N 224.671 0.411399 1.52136 0
M  V30 2498 C 225.601 -0.404015 2.29978 0
M  V30 2499 C 226.582 -1.04412 1.34284 0
M  V30 2500 O 227.767 -1.0527 1.63192 0
M  V30 2501 C 224.897 -1.5197 3.12286 0
M  V30 2502 C 223.851 -1.00448 4.16046 0
M  V30 2503 C 223.177 -2.21393 4.86712 0
M  V30 2504 C 224.477 -0.0569336 5.22269 0
M  V30 2505 H 226.171 0.245529 2.98392 0
M  V30 2506 H 223.717 0.119525 1.43503 0
M  V30 2507 H 225.67 -2.09715 3.6551 0
M  V30 2508 H 224.394 -2.19716 2.41646 0
M  V30 2509 H 223.053 -0.449421 3.63835 0
M  V30 2510 H 222.701 -2.87699 4.12599 0
M  V30 2511 H 222.401 -1.87571 5.56858 0
M  V30 2512 H 223.925 -2.7974 5.4275 0
M  V30 2513 H 225.339 -0.54325 5.7072 0
M  V30 2514 H 223.736 0.192594 5.99791 0
M  V30 2515 H 224.806 0.887663 4.76706 0
M  V30 2516 N 226.149 -1.5696 0.141893 0
M  V30 2517 C 227.097 -2.17784 -0.816874 0
M  V30 2518 C 228.091 -1.1334 -1.25899 0
M  V30 2519 O 229.297 -1.316 -1.22806 0
M  V30 2520 H 225.672 -0.697278 -0.281615 0
M  V30 2521 H 227.643 -2.97087 -0.279621 0
M  V30 2522 C 226.392 -2.80983 -2.04802 0
M  V30 2523 H 225.715 -3.61062 -1.7168 0
M  V30 2524 H 227.155 -3.2705 -2.69841 0
M  V30 2525 C 225.614 -1.79228 -2.8527 0
M  V30 2526 O 226.144 -1.25962 -3.8144 0
M  V30 2527 N 224.35 -1.48647 -2.49704 0
M  V30 2528 H 223.897 -1.92155 -1.71564 0
M  V30 2529 H 223.855 -0.808115 -3.03837 0
M  V30 2530 N 227.627 0.131896 -1.57047 0
M  V30 2531 C 228.852 0.860418 -1.8871 0
M  V30 2532 C 229.277 1.73251 -0.73251 0
M  V30 2533 O 228.635 1.785 0.317429 0
M  V30 2534 C 228.683 1.68047 -3.19049 0
M  V30 2535 O 227.787 2.7862 -3.04047 0
M  V30 2536 H 227.128 0.238743 -0.619595 0
M  V30 2537 H 229.658 0.118169 -2.04258 0
M  V30 2538 H 229.668 2.07238 -3.51449 0
M  V30 2539 H 228.343 1.04018 -4.02682 0
M  V30 2540 H 226.92 2.42726 -2.83088 0
M  V30 2541 N 229.106 1.52395 0.401703 0
M  V30 2542 C 230.334 1.70676 1.16949 0
M  V30 2543 C 230.749 0.419503 1.8408 0
M  V30 2544 O 230.106 -0.605061 1.72178 0
M  V30 2545 C 230.157 2.84753 2.22706 0
M  V30 2546 O 229.878 4.08495 1.58314 0
M  V30 2547 C 231.379 3.14608 3.12309 0
M  V30 2548 H 228.599 0.571787 0.351142 0
M  V30 2549 H 231.143 1.98987 0.471652 0
M  V30 2550 H 229.298 2.58941 2.88147 0
M  V30 2551 H 229.712 4.72117 2.28485 0
M  V30 2552 H 231.186 3.97923 3.82572 0
M  V30 2553 H 231.663 2.28464 3.75101 0
M  V30 2554 H 232.269 3.42212 2.52529 0
M  V30 2555 N 230.584 -0.659388 1.43143 0
M  V30 2556 C 231.83 -1.42145 1.44647 0
M  V30 2557 C 232.163 -1.9408 0.0681907 0
M  V30 2558 O 231.438 -1.71899 -0.910007 0
M  V30 2559 C 231.721 -2.60735 2.48373 0
M  V30 2560 C 231.574 -2.14332 3.95451 0
M  V30 2561 C 232.893 -3.62951 2.48906 0
M  V30 2562 H 230.012 -0.51552 0.526696 0
M  V30 2563 H 232.654 -0.748069 1.74654 0
M  V30 2564 H 230.804 -3.18184 2.22916 0
M  V30 2565 H 232.476 -1.61932 4.31944 0
M  V30 2566 H 230.719 -1.4576 4.08578 0
M  V30 2567 H 231.39 -2.99583 4.63631 0
M  V30 2568 H 233.866 -3.1525 2.71582 0
M  V30 2569 H 232.742 -4.43487 3.23435 0
M  V30 2570 H 233.003 -4.15126 1.52061 0
M  V30 2571 N 232.062 -1.29571 -0.897171 0
M  V30 2572 C 232.972 -1.16808 -2.03453 0
M  V30 2573 C 233.988 -0.0907471 -1.73763 0
M  V30 2574 O 235.164 -0.303312 -1.99103 0
M  V30 2575 C 232.229 -0.848264 -3.36163 0
M  V30 2576 C 231.29 -2.0097 -3.79354 0
M  V30 2577 C 230.523 -1.70505 -5.05731 0
M  V30 2578 O 230.746 -0.62718 -5.66941 0
M  V30 2579 O 229.68 -2.5538 -5.45036 0
M  V30 2580 H 233.506 -2.12325 -2.17144 0
M  V30 2581 H 231.091 -1.09047 -1.02123 0
M  V30 2582 H 232.973 -0.684581 -4.15802 0
M  V30 2583 H 231.648 0.0771071 -3.23608 0
M  V30 2584 H 230.555 -2.22863 -3.00471 0
M  V30 2585 H 231.888 -2.91636 -3.96496 0
M  V30 2586 N 233.54 1.10788 -1.12088 0
M  V30 2587 C 234.47 2.19083 -0.807755 0
M  V30 2588 C 235.451 1.6858 0.226859 0
M  V30 2589 O 236.636 1.93997 0.0888475 0
M  V30 2590 C 233.766 3.46344 -0.257576 0
M  V30 2591 C 232.72 4.101 -1.22483 0
M  V30 2592 C 232.046 5.32016 -0.535052 0
M  V30 2593 C 233.346 4.54236 -2.57811 0
M  V30 2594 H 235.04 2.45534 -1.71328 0
M  V30 2595 H 232.586 1.1801 -0.825205 0
M  V30 2596 H 234.539 4.21392 -0.0262679 0
M  V30 2597 H 233.263 3.19373 0.683278 0
M  V30 2598 H 231.922 3.37054 -1.44189 0
M  V30 2599 H 231.57 5.01319 0.410827 0
M  V30 2600 H 231.27 5.75625 -1.18024 0
M  V30 2601 H 232.794 6.09799 -0.312695 0
M  V30 2602 H 234.208 5.20575 -2.40155 0
M  V30 2603 H 232.605 5.08682 -3.18375 0
M  V30 2604 H 233.675 3.6734 -3.16528 0
M  V30 2605 N 235.018 0.912232 1.28515 0
M  V30 2606 C 235.981 0.404223 2.25607 0
M  V30 2607 C 236.981 -0.468602 1.53821 0
M  V30 2608 O 238.171 -0.271873 1.72065 0
M  V30 2609 C 235.303 -0.420653 3.38295 0
M  V30 2610 H 236.496 1.26188 2.7206 0
M  V30 2611 H 234.049 0.691495 1.40171 0
M  V30 2612 H 234.784 -1.29777 2.97201 0
M  V30 2613 H 234.569 0.204935 3.91564 0
M  V30 2614 H 236.059 -0.766971 4.10496 0
M  V30 2615 N 236.496 -1.42363 0.676048 0
M  V30 2616 C 237.912 -1.55811 0.345718 0
M  V30 2617 C 238.112 -1.65544 -1.14879 0
M  V30 2618 O 237.168 -1.62306 -1.93424 0
M  V30 2619 C 238.481 -2.80746 1.07713 0
M  V30 2620 C 240.029 -2.9452 1.05958 0
M  V30 2621 C 240.504 -4.22318 1.77233 0
M  V30 2622 N 241.995 -4.29233 1.74108 0
M  V30 2623 C 242.73 -5.26935 2.26113 0
M  V30 2624 N 242.226 -6.30783 2.86505 0
M  V30 2625 N 244.019 -5.18741 2.1648 0
M  V30 2626 H 236.17 -1.34289 1.6456 0
M  V30 2627 H 238.433 -0.646506 0.69335 0
M  V30 2628 H 238.139 -2.79696 2.13221 0
M  V30 2629 H 238.013 -3.71676 0.64316 0
M  V30 2630 H 240.4 -2.95097 0.0128255 0
M  V30 2631 H 240.481 -2.04817 1.53244 0
M  V30 2632 H 240.125 -4.22502 2.81877 0
M  V30 2633 H 240.055 -5.10958 1.27396 0
M  V30 2634 H 242.546 -3.54814 1.30059 0
M  V30 2635 H 242.859 -7.01691 3.23805 0
M  V30 2636 H 241.204 -6.31341 2.90575 0
M  V30 2637 H 244.395 -4.36533 1.68987 0
M  V30 2638 H 244.568 -5.94721 2.57316 0
M  V30 2639 N 237.974 -0.419461 -1.51915 0
M  V30 2640 C 239.202 0.152136 -2.0634 0
M  V30 2641 C 239.617 1.37988 -1.28859 0
M  V30 2642 O 238.974 1.79243 -0.343232 0
M  V30 2643 C 239.025 0.492266 -3.58133 0
M  V30 2644 O 238.746 -0.686736 -4.32684 0
M  V30 2645 C 240.247 1.11648 -4.2901 0
M  V30 2646 H 237.467 0.0158325 -0.670813 0
M  V30 2647 H 240.011 -0.593394 -1.95702 0
M  V30 2648 H 238.166 1.18769 -3.68745 0
M  V30 2649 H 238.58 -0.400341 -5.2297 0
M  V30 2650 H 240.054 1.3046 -5.36362 0
M  V30 2651 H 240.531 2.09251 -3.86148 0
M  V30 2652 H 241.137 0.460958 -4.22795 0
M  V30 2653 N 239.452 1.56882 -0.150215 0
M  V30 2654 C 240.692 1.98119 0.502804 0
M  V30 2655 C 241.056 1.03327 1.61826 0
M  V30 2656 O 242.257 1.33621 2.33236 0
M  V30 2657 C 240.528 3.43329 0.992988 0
M  V30 2658 S 242.087 4.0659 1.65015 0
M  V30 2659 H 238.905 0.692189 0.162467 0
M  V30 2660 H 241.507 1.93988 -0.242689 0
M  V30 2661 H 240.211 4.10046 0.170436 0
M  V30 2662 H 239.742 3.5118 1.77303 0
M  V30 2663 H 241.757 3.99906 2.93752 0
M  V30 2664 N 240.93 -0.123565 1.57115 0
M  V30 2665 C 242.179 -0.830704 1.83799 0
M  V30 2666 C 242.492 -1.81259 0.735158 0
M  V30 2667 O 243.698 -2.56558 0.888278 0
M  V30 2668 C 242.154 -1.52802 3.25852 0
M  V30 2669 C 241.762 -0.587356 4.44133 0
M  V30 2670 C 243.506 -2.22056 3.61789 0
M  V30 2671 C 241.413 -1.28764 5.77212 0
M  V30 2672 H 240.343 -0.313967 0.685522 0
M  V30 2673 H 242.994 -0.0834359 1.8331 0
M  V30 2674 H 241.376 -2.32175 3.20797 0
M  V30 2675 H 242.55 0.172829 4.60476 0
M  V30 2676 H 240.865 -0.00201892 4.164 0
M  V30 2677 H 243.462 -2.75131 4.58483 0
M  V30 2678 H 243.805 -2.99644 2.88997 0
M  V30 2679 H 244.338 -1.49576 3.68608 0
M  V30 2680 H 241.077 -0.55314 6.53162 0
M  V30 2681 H 240.597 -2.01995 5.64764 0
M  V30 2682 H 242.276 -1.8221 6.20813 0
M  V30 2683 N 242.408 -1.52605 -0.393616 0
M  V30 2684 C 243.656 -1.67093 -1.13685 0
M  V30 2685 C 243.977 -0.411011 -1.90619 0
M  V30 2686 O 243.247 0.574491 -1.87287 0
M  V30 2687 H 241.827 -0.615923 -0.422668 0
M  V30 2688 H 244.489 -1.89704 -0.447039 0
M  V30 2689 H 243.585 -2.51922 -1.84232 0
M  V30 2690 N 243.887 0.651787 -1.4349 0
M  V30 2691 C 245.115 1.43937 -1.48626 0
M  V30 2692 C 245.53 1.8851 -0.104587 0
M  V30 2693 O 244.887 1.5958 0.885464 0
M  V30 2694 C 244.938 2.6734 -2.43334 0
M  V30 2695 O 244.659 2.24631 -3.76128 0
M  V30 2696 C 246.16 3.60683 -2.57726 0
M  V30 2697 H 243.38 0.44213 -0.504739 0
M  V30 2698 H 245.924 0.798944 -1.88248 0
M  V30 2699 H 244.079 3.2752 -2.06904 0
M  V30 2700 H 244.493 3.04485 -4.2707 0
M  V30 2701 H 245.967 4.43933 -3.28067 0
M  V30 2702 H 246.444 4.08126 -1.62265 0
M  V30 2703 H 247.05 3.06384 -2.94973 0
M  V30 2704 N 245.365 1.30045 0.890287 0
M  V30 2705 C 246.776 1.16738 1.45702 0
M  V30 2706 C 247.127 -0.233939 1.948 0
M  V30 2707 O 246.252 -1.13021 1.84541 0
M  V30 2708 C 246.847 2.11313 2.64825 0
M  V30 2709 C 245.406 2.02001 3.17604 0
M  V30 2710 C 244.553 2.01699 1.90296 0
M  V30 2711 H 247.504 1.42392 0.700726 0
M  V30 2712 H 247.525 1.69086 3.40867 0
M  V30 2713 H 247.037 3.13294 2.2906 0
M  V30 2714 H 245.138 1.03142 3.5804 0
M  V30 2715 H 245.251 2.90128 3.81264 0
M  V30 2716 H 243.615 1.46427 2.08402 0
M  V30 2717 H 244.398 3.05402 1.56795 0
M  V30 2718 N 246.843 -1.10192 1.12674 0
M  V30 2719 C 248.073 -1.85713 0.905213 0
M  V30 2720 C 248.481 -1.81056 -0.549108 0
M  V30 2721 O 247.824 -1.19927 -1.39151 0
M  V30 2722 C 247.886 -3.34972 1.30516 0
M  V30 2723 C 247.55 -3.63385 2.77129 0
M  V30 2724 C 248.547 -3.59772 3.75313 0
M  V30 2725 C 246.232 -3.91981 3.14096 0
M  V30 2726 C 248.226 -3.84354 5.08479 0
M  V30 2727 C 245.913 -4.16218 4.47443 0
M  V30 2728 C 246.911 -4.12395 5.44444 0
M  V30 2729 O 246.599 -4.36014 6.75387 0
M  V30 2730 H 246.331 -0.593719 0.323223 0
M  V30 2731 H 248.885 -1.40198 1.50112 0
M  V30 2732 H 247.115 -3.81156 0.652463 0
M  V30 2733 H 248.804 -3.91886 1.05736 0
M  V30 2734 H 249.57 -3.37716 3.48099 0
M  V30 2735 H 245.449 -3.94085 2.39202 0
M  V30 2736 H 248.993 -3.81285 5.84181 0
M  V30 2737 H 244.89 -4.37754 4.74386 0
M  V30 2738 H 245.658 -4.53516 6.8137 0
M  V30 2739 N 248.321 -0.919034 -1.28029 0
M  V30 2740 C 249.551 -0.570143 -1.98577 0
M  V30 2741 C 249.959 0.854172 -1.68821 0
M  V30 2742 O 249.302 1.57807 -0.940351 0
M  V30 2743 C 249.364 -0.705734 -3.52505 0
M  V30 2744 C 249.028 -2.10057 -4.05863 0
M  V30 2745 C 250.025 -3.07385 -4.19298 0
M  V30 2746 C 247.71 -2.41517 -4.40426 0
M  V30 2747 C 249.704 -4.34287 -4.66555 0
M  V30 2748 C 247.391 -3.68657 -4.87376 0
M  V30 2749 C 248.389 -4.64856 -5.00398 0
M  V30 2750 O 248.077 -5.89735 -5.46322 0
M  V30 2751 H 247.809 -0.215592 -0.6407 0
M  V30 2752 H 250.363 -1.23583 -1.64062 0
M  V30 2753 H 248.593 0.0170414 -3.86696 0
M  V30 2754 H 250.282 -0.363172 -4.04272 0
M  V30 2755 H 251.048 -2.84398 -3.92865 0
M  V30 2756 H 246.927 -1.67389 -4.29537 0
M  V30 2757 H 250.471 -5.09377 -4.76635 0
M  V30 2758 H 246.368 -3.91466 -5.13249 0
M  V30 2759 H 247.136 -5.92599 -5.64596 0
M  V30 2760 N 249.799 1.42003 -0.683588 0
M  V30 2761 C 250.729 2.33487 -0.024866 0
M  V30 2762 C 251.71 1.51163 0.779975 0
M  V30 2763 O 252.895 1.79739 0.735362 0
M  V30 2764 C 250.025 3.3487 0.920836 0
M  V30 2765 C 248.979 4.27414 0.223958 0
M  V30 2766 C 248.305 5.19074 1.2832 0
M  V30 2767 C 249.605 5.14445 -0.90242 0
M  V30 2768 H 251.299 2.88819 -0.788921 0
M  V30 2769 H 248.845 1.38873 -0.38083 0
M  V30 2770 H 250.798 3.97787 1.39081 0
M  V30 2771 H 249.522 2.77861 1.71642 0
M  V30 2772 H 248.181 3.65904 -0.225864 0
M  V30 2773 H 247.829 4.58387 2.071 0
M  V30 2774 H 247.529 5.81822 0.821995 0
M  V30 2775 H 249.053 5.84867 1.75392 0
M  V30 2776 H 250.467 5.70998 -0.513272 0
M  V30 2777 H 248.864 5.86072 -1.28997 0
M  V30 2778 H 249.934 4.52322 -1.74737 0
M  V30 2779 N 251.277 0.427512 1.51691 0
M  V30 2780 C 252.502 -0.143601 2.06902 0
M  V30 2781 C 252.927 -1.36536 1.29382 0
M  V30 2782 O 252.285 -1.78289 0.329043 0
M  V30 2783 C 252.333 -0.454207 3.57728 0
M  V30 2784 O 251.437 -1.54228 3.82475 0
M  V30 2785 H 250.778 -0.00617128 0.663971 0
M  V30 2786 H 253.308 0.606014 1.95419 0
M  V30 2787 H 253.318 -0.707525 4.01818 0
M  V30 2788 H 251.993 0.438812 4.13579 0
M  V30 2789 H 250.57 -1.2797 3.50254 0
M  V30 2790 N 252.755 -1.56801 0.158532 0
M  V30 2791 C 254.166 -1.83189 -0.360366 0
M  V30 2792 C 254.517 -1.07778 -1.63946 0
M  V30 2793 O 253.642 -0.326718 -2.13919 0
M  V30 2794 C 254.237 -3.32297 -0.660595 0
M  V30 2795 C 252.796 -3.59227 -1.12398 0
M  V30 2796 C 251.943 -2.76877 -0.153097 0
M  V30 2797 H 254.894 -1.54008 0.383031 0
M  V30 2798 H 254.915 -3.4908 -1.51405 0
M  V30 2799 H 254.427 -3.87156 0.270527 0
M  V30 2800 H 252.528 -3.09766 -2.07064 0
M  V30 2801 H 252.641 -4.67632 -1.04197 0
M  V30 2802 H 251.005 -2.46319 -0.647983 0
M  V30 2803 H 251.788 -3.34511 0.77182 0
M  V30 2804 N 254.233 0.115231 -1.57178 0
M  V30 2805 C 255.143 1.15994 -2.03918 0
M  V30 2806 C 256.159 1.45103 -0.960268 0
M  V30 2807 O 257.335 1.56144 -1.27204 0
M  V30 2808 C 254.4 2.46568 -2.43732 0
M  V30 2809 C 253.461 2.24822 -3.65723 0
M  V30 2810 C 252.694 3.4917 -4.03629 0
M  V30 2811 O 252.917 4.56623 -3.41835 0
M  V30 2812 O 251.851 3.39949 -4.96708 0
M  V30 2813 H 255.677 0.793019 -2.93164 0
M  V30 2814 H 253.262 0.3263 -1.45793 0
M  V30 2815 H 255.144 3.23492 -2.70057 0
M  V30 2816 H 253.819 2.82726 -1.57631 0
M  V30 2817 H 252.726 1.45744 -3.44542 0
M  V30 2818 H 254.059 1.93566 -4.52541 0
M  V30 2819 N 255.711 1.52812 0.385517 0
M  V30 2820 C 256.96 1.67249 1.12741 0
M  V30 2821 C 257.273 0.4205 1.91027 0
M  V30 2822 O 258.479 0.445064 2.67827 0
M  V30 2823 C 256.935 2.95583 2.05326 0
M  V30 2824 C 256.543 4.27974 1.32447 0
M  V30 2825 C 258.287 3.19386 2.7963 0
M  V30 2826 C 256.194 5.47412 2.23818 0
M  V30 2827 H 255.124 0.6231 0.424573 0
M  V30 2828 H 257.775 1.79309 0.389924 0
M  V30 2829 H 256.157 2.77277 2.82725 0
M  V30 2830 H 257.331 4.56844 0.602495 0
M  V30 2831 H 255.646 4.10459 0.700885 0
M  V30 2832 H 258.243 4.05801 3.48181 0
M  V30 2833 H 258.586 2.34604 3.43899 0
M  V30 2834 H 259.119 3.38274 2.09322 0
M  V30 2835 H 255.858 6.34612 1.64157 0
M  V30 2836 H 255.378 5.22849 2.93921 0
M  V30 2837 H 257.057 5.81423 2.83824 0
M  V30 2838 N 257.189 -0.644168 1.43834 0
M  V30 2839 C 258.429 -1.41565 1.47441 0
M  V30 2840 C 258.793 -1.91743 0.0992723 0
M  V30 2841 O 259.994 -2.68798 0.0100192 0
M  V30 2842 C 258.265 -2.55902 2.49498 0
M  V30 2843 S 259.824 -3.44287 2.72051 0
M  V30 2844 H 256.642 -0.483118 0.521649 0
M  V30 2845 H 259.244 -0.747008 1.80666 0
M  V30 2846 H 257.948 -2.17327 3.48134 0
M  V30 2847 H 257.479 -3.27607 2.17801 0
M  V30 2848 H 259.494 -4.52927 2.0266 0
M  V30 2849 N 258.668 -1.30515 -0.883378 0
M  V30 2850 C 259.578 -1.18959 -2.02203 0
M  V30 2851 C 260.594 -0.109172 -1.73657 0
M  V30 2852 O 261.77 -0.324413 -1.9877 0
M  V30 2853 C 258.835 -0.883871 -3.35244 0
M  V30 2854 C 257.896 -2.04982 -3.77201 0
M  V30 2855 C 257.129 -1.75859 -5.03894 0
M  V30 2856 O 257.352 -0.687276 -5.66244 0
M  V30 2857 O 256.286 -2.61146 -5.42297 0
M  V30 2858 H 260.112 -2.14616 -2.1488 0
M  V30 2859 H 257.697 -1.10124 -1.0096 0
M  V30 2860 H 259.579 -0.728644 -4.15053 0
M  V30 2861 H 258.254 0.0427798 -3.23672 0
M  V30 2862 H 257.161 -2.26038 -2.9809 0
M  V30 2863 H 258.494 -2.95825 -3.93381 0
M  V30 2864 N 260.146 1.09593 -1.13257 0
M  V30 2865 C 261.094 2.18271 -0.803783 0
M  V30 2866 C 262.088 1.68054 0.213148 0
M  V30 2867 O 263.294 1.79862 0.0704699 0
M  V30 2868 H 259.669 0.711949 -0.242143 0
M  V30 2869 H 261.64 2.43235 -1.72856 0
M  V30 2870 C 260.389 3.46536 -0.28424 0
M  V30 2871 H 259.712 3.85545 -1.05807 0
M  V30 2872 H 261.152 4.23899 -0.0925945 0
M  V30 2873 C 259.611 3.22036 0.989684 0
M  V30 2874 O 260.141 3.44509 2.06584 0
M  V30 2875 N 258.347 2.7565 0.920086 0
M  V30 2876 H 257.894 2.57562 0.0442019 0
M  V30 2877 H 257.852 2.59635 1.77306 0
M  V30 2878 N 261.624 0.925811 1.2754 0
M  V30 2879 C 262.571 0.422045 2.26908 0
M  V30 2880 C 263.541 -0.510029 1.58076 0
M  V30 2881 O 264.726 -0.429599 1.85901 0
M  V30 2882 C 261.866 -0.320837 3.43605 0
M  V30 2883 C 260.979 0.64513 4.27156 0
M  V30 2884 C 260.114 -0.117405 5.3107 0
M  V30 2885 C 259.153 0.841391 6.0629 0
M  V30 2886 N 258.29 0.111604 7.02011 0
M  V30 2887 H 263.13 1.27441 2.69375 0
M  V30 2888 H 260.667 0.639697 1.32462 0
M  V30 2889 H 262.625 -0.76785 4.10073 0
M  V30 2890 H 261.255 -1.13745 3.02096 0
M  V30 2891 H 260.307 1.21067 3.6062 0
M  V30 2892 H 261.619 1.37797 4.79389 0
M  V30 2893 H 260.773 -0.624422 6.03478 0
M  V30 2894 H 259.512 -0.883219 4.79636 0
M  V30 2895 H 258.517 1.35967 5.32722 0
M  V30 2896 H 259.742 1.60696 6.59813 0
M  V30 2897 H 257.688 -0.635999 6.5291 0
M  V30 2898 H 257.605 0.784044 7.51923 0
M  V30 2899 H 258.873 -0.374823 7.78598 0
M  V30 2900 N 263.102 -1.41638 0.69111 0
M  V30 2901 C 264.513 -1.84346 0.295517 0
M  V30 2902 C 264.864 -1.57833 -1.16547 0
M  V30 2903 O 263.989 -1.04648 -1.89414 0
M  V30 2904 C 264.584 -3.34636 0.529575 0
M  V30 2905 C 263.143 -3.7593 0.187944 0
M  V30 2906 C 262.29 -2.65082 0.814052 0
M  V30 2907 H 265.241 -1.31253 0.892092 0
M  V30 2908 H 265.262 -3.79903 -0.213148 0
M  V30 2909 H 264.774 -3.53901 1.59297 0
M  V30 2910 H 262.875 -3.62268 -0.871367 0
M  V30 2911 H 262.988 -4.74808 0.63985 0
M  V30 2912 H 261.352 -2.53528 0.244017 0
M  V30 2913 H 262.135 -2.87167 1.88123 0
M  V30 2914 N 264.58 -0.43555 -1.51462 0
M  V30 2915 C 265.81 0.130053 -2.0619 0
M  V30 2916 C 266.218 1.37164 -1.30317 0
M  V30 2917 O 265.561 1.80225 -0.355598 0
M  V30 2918 C 265.623 0.519418 -3.55728 0
M  V30 2919 C 265.287 -0.615119 -4.52841 0
M  V30 2920 C 266.284 -1.48671 -4.9819 0
M  V30 2921 C 263.969 -0.795341 -4.95963 0
M  V30 2922 C 265.963 -2.52324 -5.8533 0
M  V30 2923 C 263.65 -1.83514 -5.82894 0
M  V30 2924 C 264.648 -2.69748 -6.27475 0
M  V30 2925 O 264.336 -3.71944 -7.1268 0
M  V30 2926 H 264.068 0.0121612 -0.675891 0
M  V30 2927 H 266.622 -0.6129 -1.96043 0
M  V30 2928 H 264.852 1.31505 -3.63653 0
M  V30 2929 H 266.541 1.01597 -3.92979 0
M  V30 2930 H 267.307 -1.359 -4.65571 0
M  V30 2931 H 263.186 -0.133713 -4.60806 0
M  V30 2932 H 266.73 -3.19665 -6.20048 0
M  V30 2933 H 262.627 -1.96306 -6.14926 0
M  V30 2934 H 263.395 -3.68503 -7.30854 0
M  V30 2935 N 266.058 1.56714 -0.166846 0
M  V30 2936 C 267.006 2.19056 0.782123 0
M  V30 2937 C 268 1.15328 1.24079 0
M  V30 2938 O 269.206 1.33537 1.20697 0
M  V30 2939 H 265.581 0.70167 0.270486 0
M  V30 2940 H 267.552 2.97494 0.232322 0
M  V30 2941 C 266.301 2.84206 2.00306 0
M  V30 2942 H 265.624 3.63748 1.65914 0
M  V30 2943 H 267.064 3.31302 2.64604 0
M  V30 2944 C 265.523 1.83744 2.82382 0
M  V30 2945 O 266.053 1.32014 3.79388 0
M  V30 2946 N 264.259 1.52601 2.47308 0
M  V30 2947 H 263.806 1.9486 1.68485 0
M  V30 2948 H 263.764 0.856351 3.02513 0
M  V30 2949 N 267.536 -0.106894 1.57237 0
M  V30 2950 C 268.484 -1.14944 2.02215 0
M  V30 2951 C 269.478 -1.42167 0.92114 0
M  V30 2952 O 270.684 -1.41987 1.10634 0
M  V30 2953 H 267.059 -0.387841 0.64427 0
M  V30 2954 H 269.03 -0.743683 2.88984 0
M  V30 2955 C 267.779 -2.4647 2.4525 0
M  V30 2956 H 267.102 -2.26363 3.29545 0
M  V30 2957 H 268.542 -3.17948 2.80508 0
M  V30 2958 C 267.001 -3.09921 1.321 0
M  V30 2959 O 267.531 -3.9651 0.643622 0
M  V30 2960 N 265.737 -2.69986 1.07497 0
M  V30 2961 H 265.284 -1.99667 1.62761 0
M  V30 2962 H 265.242 -3.12769 0.319876 0
M  V30 2963 N 269.014 -1.53014 -0.377408 0
M  V30 2964 C 269.961 -1.78616 -1.46168 0
M  V30 2965 C 270.931 -0.629917 -1.53692 0
M  V30 2966 O 272.116 -0.870861 -1.69766 0
M  V30 2967 C 269.256 -1.97123 -2.8326 0
M  V30 2968 C 268.369 -3.24831 -2.84796 0
M  V30 2969 C 267.504 -3.33591 -4.13389 0
M  V30 2970 C 266.543 -4.55377 -4.09021 0
M  V30 2971 N 265.68 -4.61355 -5.29241 0
M  V30 2972 H 270.52 -2.71142 -1.23637 0
M  V30 2973 H 268.057 -1.34326 -0.599577 0
M  V30 2974 H 270.015 -2.05839 -3.62886 0
M  V30 2975 H 268.645 -1.07946 -3.04216 0
M  V30 2976 H 267.697 -3.25128 -1.97474 0
M  V30 2977 H 269.009 -4.14523 -2.77439 0
M  V30 2978 H 268.163 -3.41554 -5.01424 0
M  V30 2979 H 266.902 -2.41894 -4.23484 0
M  V30 2980 H 265.907 -4.47527 -3.19373 0
M  V30 2981 H 267.132 -5.48402 -4.00539 0
M  V30 2982 H 265.078 -3.72554 -5.39944 0
M  V30 2983 H 264.995 -5.44935 -5.24006 0
M  V30 2984 H 266.263 -4.73586 -6.19141 0
M  V30 2985 N 270.492 0.636531 -1.44174 0
M  V30 2986 C 271.717 1.42847 -1.50364 0
M  V30 2987 C 272.142 1.87665 -0.127867 0
M  V30 2988 O 271.5 1.58408 0.88185 0
M  V30 2989 C 271.548 2.62854 -2.4686 0
M  V30 2990 O 270.652 3.62501 -1.9664 0
M  V30 2991 H 269.993 0.427642 -0.507955 0
M  V30 2992 H 272.523 0.777422 -1.89255 0
M  V30 2993 H 272.533 3.10465 -2.64718 0
M  V30 2994 H 271.208 2.29578 -3.46795 0
M  V30 2995 H 269.785 3.21735 -1.88523 0
M  V30 2996 N 271.97 1.30982 0.876444 0
M  V30 2997 C 273.247 1.10942 1.61094 0
M  V30 2998 C 273.627 -0.338223 2.08373 0
M  V30 2999 O 272.975 -1.33122 1.85717 0
M  V30 3000 C 273.185 2.11789 2.77392 0
M  V30 3001 C 274.533 2.43965 3.47514 0
M  V30 3002 O 275.557 2.10166 2.87591 0
M  V30 3003 O 274.416 3.01817 4.55597 0
M  V30 3004 H 271.51 0.42667 0.708436 0
M  V30 3005 H 274.056 1.42438 0.922474 0
M  V30 3006 H 272.828 3.09194 2.39823 0
M  V30 3007 H 272.451 1.81161 3.5393 0
M  V30 3008 N 273.449 -1.08991 1.13837 0
M  V30 3009 C 274.698 -1.80631 0.897509 0
M  V30 3010 C 275.011 -1.86872 -0.57777 0
M  V30 3011 O 276.217 -2.54866 -0.935701 0
M  V30 3012 C 274.673 -3.24517 1.55618 0
M  V30 3013 C 274.281 -3.26529 3.0673 0
M  V30 3014 C 276.025 -4.00882 1.3962 0
M  V30 3015 C 273.932 -4.64965 3.65461 0
M  V30 3016 H 272.862 -0.67691 0.332129 0
M  V30 3017 H 275.513 -1.2246 1.3666 0
M  V30 3018 H 273.895 -3.82778 1.01476 0
M  V30 3019 H 275.069 -2.78008 3.67489 0
M  V30 3020 H 273.384 -2.63656 3.22296 0
M  V30 3021 H 275.981 -5.03167 1.80906 0
M  V30 3022 H 276.324 -4.14896 0.341578 0
M  V30 3023 H 276.857 -3.49075 1.90766 0
M  V30 3024 H 273.596 -4.56153 4.70749 0
M  V30 3025 H 273.116 -5.13792 3.09481 0
M  V30 3026 H 274.795 -5.3394 3.654 0
M  V30 3027 N 274.927 -0.932562 -1.27047 0
M  V30 3028 C 276.173 -0.585913 -1.94778 0
M  V30 3029 C 276.528 0.864142 -1.71902 0
M  V30 3030 O 275.821 1.60894 -1.04037 0
M  V30 3031 C 276.015 -0.853713 -3.47054 0
M  V30 3032 C 275.844 -2.32825 -3.84737 0
M  V30 3033 C 274.614 -2.98184 -4.07939 0
M  V30 3034 C 276.812 -3.30612 -3.93954 0
M  V30 3035 N 274.794 -4.3574 -4.3244 0
M  V30 3036 C 276.165 -4.53395 -4.22887 0
M  V30 3037 C 278.22 -3.25755 -3.76548 0
M  V30 3038 C 276.923 -5.71927 -4.36224 0
M  V30 3039 C 278.949 -4.43604 -3.91113 0
M  V30 3040 C 278.311 -5.65166 -4.20437 0
M  V30 3041 H 274.41 -0.264617 -0.735868 0
M  V30 3042 H 276.994 -1.20019 -1.53309 0
M  V30 3043 H 275.165 -0.268557 -3.8747 0
M  V30 3044 H 276.897 -0.469202 -4.01971 0
M  V30 3045 H 273.652 -2.48835 -4.02961 0
M  V30 3046 H 274.076 -5.06915 -4.48738 0
M  V30 3047 H 278.718 -2.32835 -3.52913 0
M  V30 3048 H 276.436 -6.65308 -4.58683 0
M  V30 3049 H 280.022 -4.41368 -3.79059 0
M  V30 3050 H 278.902 -6.54836 -4.31462 0
M  V30 3051 N 276.405 1.4127 -0.698611 0
M  V30 3052 C 277.368 2.29158 -0.044132 0
M  V30 3053 C 278.368 1.44529 0.704841 0
M  V30 3054 O 279.558 1.65643 0.539276 0
M  V30 3055 C 276.69 3.27459 0.947809 0
M  V30 3056 H 277.883 2.88529 -0.817994 0
M  V30 3057 H 275.436 1.49307 -0.46228 0
M  V30 3058 H 276.171 2.73073 1.74933 0
M  V30 3059 H 275.956 3.8991 0.41385 0
M  V30 3060 H 277.446 3.93311 1.40344 0
M  V30 3061 N 277.883 0.443576 1.51229 0
M  V30 3062 C 278.813 -0.355142 2.30783 0
M  V30 3063 C 279.794 -1.0154 1.36468 0
M  V30 3064 O 280.979 -1.01785 1.65389 0
M  V30 3065 C 278.109 -1.45312 3.15439 0
M  V30 3066 C 277.063 -0.916002 4.18083 0
M  V30 3067 C 276.389 -2.1102 4.91299 0
M  V30 3068 C 277.689 0.0538602 5.22272 0
M  V30 3069 H 279.383 0.308767 2.97804 0
M  V30 3070 H 276.929 0.149937 1.43217 0
M  V30 3071 H 278.882 -2.01914 3.69876 0
M  V30 3072 H 277.606 -2.14541 2.46252 0
M  V30 3073 H 276.265 -0.372145 3.64706 0
M  V30 3074 H 275.913 -2.78882 4.18609 0
M  V30 3075 H 275.613 -1.75717 5.60712 0
M  V30 3076 H 277.137 -2.68164 5.48562 0
M  V30 3077 H 278.551 -0.422069 5.71744 0
M  V30 3078 H 276.948 0.319776 5.99247 0
M  V30 3079 H 278.018 0.98858 4.74716 0
M  V30 3080 N 279.361 -1.56624 0.175154 0
M  V30 3081 C 280.609 -1.96609 -0.467885 0
M  V30 3082 C 280.93 -1.06238 -1.63519 0
M  V30 3083 O 280.2 -0.129523 -1.95471 0
M  V30 3084 H 278.78 -0.726008 -0.175845 0
M  V30 3085 H 281.442 -1.93195 0.257234 0
M  V30 3086 H 280.538 -3.00989 -0.825342 0
M  V30 3087 N 280.839 0.0985539 -1.57292 0
M  V30 3088 C 282.079 0.808332 -1.87737 0
M  V30 3089 C 282.443 1.7607 -0.76572 0
M  V30 3090 O 283.644 2.51358 -0.952499 0
M  V30 3091 C 281.915 1.52093 -3.23423 0
M  V30 3092 S 283.474 2.26947 -3.75554 0
M  V30 3093 H 280.292 0.269377 -0.657995 0
M  V30 3094 H 282.894 0.0656269 -1.9539 0
M  V30 3095 H 281.598 0.81363 -4.02254 0
M  V30 3096 H 281.129 2.30361 -3.189 0
M  V30 3097 H 283.144 3.53027 -3.48692 0
M  V30 3098 N 282.317 1.53212 0.369288 0
M  V30 3099 C 283.563 1.69466 1.11397 0
M  V30 3100 C 283.896 0.443257 1.89074 0
M  V30 3101 O 283.171 -0.559386 1.86282 0
M  V30 3102 C 283.454 2.9422 2.07621 0
M  V30 3103 C 283.307 4.29508 1.33577 0
M  V30 3104 C 284.626 3.14565 3.07794 0
M  V30 3105 H 281.745 0.616667 0.403597 0
M  V30 3106 H 284.387 1.85845 0.395179 0
M  V30 3107 H 282.537 2.80387 2.68916 0
M  V30 3108 H 284.209 4.55147 0.750955 0
M  V30 3109 H 282.452 4.29088 0.637618 0
M  V30 3110 H 283.123 5.12926 2.03989 0
M  V30 3111 H 285.599 3.2756 2.56601 0
M  V30 3112 H 284.475 4.03297 3.72348 0
M  V30 3113 H 284.736 2.29675 3.77759 0
M  V30 3114 N 283.795 -0.628877 1.44509 0
M  V30 3115 C 284.725 -1.75187 1.54376 0
M  V30 3116 C 285.706 -1.65411 0.396618 0
M  V30 3117 O 286.891 -1.84137 0.617031 0
M  V30 3118 C 284.021 -3.13725 1.48976 0
M  V30 3119 C 282.975 -3.38291 2.62189 0
M  V30 3120 C 282.301 -4.76883 2.41841 0
M  V30 3121 C 283.601 -3.30632 4.04326 0
M  V30 3122 H 285.295 -1.67187 2.48373 0
M  V30 3123 H 282.841 -0.802909 1.19538 0
M  V30 3124 H 284.794 -3.92064 1.54478 0
M  V30 3125 H 283.518 -3.22515 0.514961 0
M  V30 3126 H 282.177 -2.62334 2.56079 0
M  V30 3127 H 281.825 -4.82378 1.42548 0
M  V30 3128 H 281.525 -4.94278 3.17747 0
M  V30 3129 H 283.049 -5.57449 2.49165 0
M  V30 3130 H 284.463 -3.98873 4.11793 0
M  V30 3131 H 282.86 -3.59561 4.80454 0
M  V30 3132 H 283.93 -2.28404 4.27738 0
M  V30 3133 N 285.273 -1.31445 -0.869486 0
M  V30 3134 C 286.503 -1.23942 -1.65294 0
M  V30 3135 C 286.911 0.197561 -1.88166 0
M  V30 3136 O 286.254 1.14019 -1.44033 0
M  V30 3137 C 286.316 -1.91385 -3.04322 0
M  V30 3138 C 285.98 -3.40726 -3.04557 0
M  V30 3139 C 286.977 -4.36464 -2.82481 0
M  V30 3140 C 284.662 -3.82425 -3.25663 0
M  V30 3141 C 286.656 -5.71876 -2.8149 0
M  V30 3142 C 284.343 -5.1795 -3.243 0
M  V30 3143 C 285.341 -6.12486 -3.02241 0
M  V30 3144 O 285.029 -7.45534 -3.00724 0
M  V30 3145 H 284.761 -0.429459 -0.522054 0
M  V30 3146 H 287.315 -1.73873 -1.0935 0
M  V30 3147 H 285.545 -1.36004 -3.61994 0
M  V30 3148 H 287.234 -1.77791 -3.64891 0
M  V30 3149 H 288 -4.05576 -2.65956 0
M  V30 3150 H 283.879 -3.09274 -3.41863 0
M  V30 3151 H 287.423 -6.45638 -2.64191 0
M  V30 3152 H 283.32 -5.48473 -3.40365 0
M  V30 3153 H 284.088 -7.54713 -3.16782 0
M  V30 3154 N 286.751 1.08385 -1.14413 0
M  V30 3155 C 287.661 2.18856 -0.844951 0
M  V30 3156 C 288.677 1.73121 0.174668 0
M  V30 3157 O 289.853 2.014 0.00312857 0
M  V30 3158 C 286.918 3.45155 -0.32696 0
M  V30 3159 C 285.979 4.05513 -1.40916 0
M  V30 3160 C 285.212 5.25784 -0.915793 0
M  V30 3161 O 285.435 5.69884 0.242651 0
M  V30 3162 O 284.369 5.77545 -1.69487 0
M  V30 3163 H 288.195 2.46919 -1.76818 0
M  V30 3164 H 285.78 1.17524 -0.922411 0
M  V30 3165 H 287.662 4.21377 -0.0440211 0
M  V30 3166 H 286.337 3.18668 0.568539 0
M  V30 3167 H 285.244 3.30879 -1.74556 0
M  V30 3168 H 286.577 4.3625 -2.27919 0
M  V30 3169 N 288.23 0.939286 1.26551 0
M  V30 3170 C 289.16 0.465044 2.28822 0
M  V30 3171 C 290.141 -0.480692 1.63167 0
M  V30 3172 O 291.326 -0.382955 1.90387 0
M  V30 3173 C 288.456 -0.27234 3.46231 0
M  V30 3174 C 287.41 0.58666 4.2396 0
M  V30 3175 C 286.736 -0.280573 5.33963 0
M  V30 3176 C 288.036 1.85704 4.88171 0
M  V30 3177 H 289.73 1.31979 2.68741 0
M  V30 3178 H 287.276 0.636061 1.29191 0
M  V30 3179 H 289.229 -0.615133 4.16886 0
M  V30 3180 H 287.953 -1.16121 3.0526 0
M  V30 3181 H 286.612 0.91232 3.55067 0
M  V30 3182 H 286.26 -1.16874 4.89234 0
M  V30 3183 H 285.96 0.29076 5.8688 0
M  V30 3184 H 287.484 -0.618678 6.07458 0
M  V30 3185 H 288.898 1.58161 5.51052 0
M  V30 3186 H 287.295 2.37279 5.51197 0
M  V30 3187 H 288.365 2.56957 4.11219 0
M  V30 3188 N 289.708 -1.40897 0.706093 0
M  V30 3189 C 290.948 -2.02916 0.245827 0
M  V30 3190 C 291.312 -1.54751 -1.13649 0
M  V30 3191 O 292.513 -2.08768 -1.69321 0
M  V30 3192 C 290.784 -3.56031 0.312537 0
M  V30 3193 S 292.343 -4.38741 -0.0721388 0
M  V30 3194 H 289.161 -0.704186 0.0982007 0
M  V30 3195 H 291.763 -1.72168 0.926207 0
M  V30 3196 H 290.467 -3.88579 1.32039 0
M  V30 3197 H 289.998 -3.91495 -0.386641 0
M  V30 3198 H 292.013 -4.78952 -1.29692 0
M  V30 3199 N 291.186 -0.45159 -1.50991 0
M  V30 3200 C 292.414 0.108334 -2.06616 0
M  V30 3201 C 292.829 1.35224 -1.31757 0
M  V30 3202 O 292.186 1.78475 -0.381174 0
M  V30 3203 C 292.237 0.41619 -3.59096 0
M  V30 3204 O 291.958 -0.778361 -4.3113 0
M  V30 3205 C 293.459 1.02523 -4.31282 0
M  V30 3206 H 290.679 0.00159995 -0.670998 0
M  V30 3207 H 293.223 -0.634771 -1.94399 0
M  V30 3208 H 291.378 1.10921 -3.71181 0
M  V30 3209 H 291.792 -0.511181 -5.22003 0
M  V30 3210 H 293.266 1.19053 -5.39009 0
M  V30 3211 H 293.743 2.01013 -3.905 0
M  V30 3212 H 294.349 0.371173 -4.23677 0
M  V30 3213 N 292.664 1.56529 -0.183458 0
M  V30 3214 C 293.594 2.21549 0.737456 0
M  V30 3215 C 294.575 1.17489 1.23005 0
M  V30 3216 O 295.76 1.45959 1.281 0
M  V30 3217 C 292.89 2.86575 1.96194 0
M  V30 3218 C 291.844 3.96778 1.60473 0
M  V30 3219 C 291.17 4.48911 2.90487 0
M  V30 3220 C 292.47 5.15767 0.823497 0
M  V30 3221 H 294.164 2.98761 0.195453 0
M  V30 3222 H 291.71 1.43702 0.0925686 0
M  V30 3223 H 293.663 3.30739 2.61131 0
M  V30 3224 H 292.387 2.06749 2.52828 0
M  V30 3225 H 291.046 3.53286 0.978997 0
M  V30 3226 H 290.694 3.65862 3.45186 0
M  V30 3227 H 290.394 5.23265 2.67335 0
M  V30 3228 H 291.918 4.95771 3.56432 0
M  V30 3229 H 293.332 5.56549 1.37571 0
M  V30 3230 H 291.729 5.96114 0.690551 0
M  V30 3231 H 292.799 4.84574 -0.177782 0
M  V30 3232 N 294.142 -0.090211 1.57342 0
M  V30 3233 C 295.089 -1.10909 2.02405 0
M  V30 3234 C 296.059 -1.39523 0.901252 0
M  V30 3235 O 297.244 -1.50903 1.1676 0
M  V30 3236 C 294.384 -2.42277 2.45755 0
M  V30 3237 C 293.497 -2.20352 3.71576 0
M  V30 3238 C 292.632 -3.45154 4.03785 0
M  V30 3239 C 291.671 -3.18512 5.22701 0
M  V30 3240 N 290.808 -4.35593 5.50639 0
M  V30 3241 H 295.648 -0.71782 2.89225 0
M  V30 3242 H 293.185 -0.342901 1.43048 0
M  V30 3243 H 295.143 -3.18951 2.68935 0
M  V30 3244 H 293.773 -2.79242 1.61938 0
M  V30 3245 H 292.825 -1.34458 3.55844 0
M  V30 3246 H 294.137 -1.96661 4.58395 0
M  V30 3247 H 293.291 -4.30233 4.27767 0
M  V30 3248 H 292.03 -3.71904 3.15498 0
M  V30 3249 H 291.035 -2.31827 4.98534 0
M  V30 3250 H 292.26 -2.93103 6.12591 0
M  V30 3251 H 290.206 -4.6241 4.6531 0
M  V30 3252 H 290.123 -4.1511 6.31838 0
M  V30 3253 H 291.391 -5.21723 5.7916 0
M  V30 3254 N 295.62 -1.53406 -0.361157 0
M  V30 3255 C 296.57 -1.76536 -1.44287 0
M  V30 3256 C 297.554 -0.620019 -1.48474 0
M  V30 3257 O 298.746 -0.878834 -1.53641 0
M  V30 3258 C 295.875 -1.96266 -2.81664 0
M  V30 3259 C 294.961 -3.16815 -2.81938 0
M  V30 3260 N 295.352 -4.38637 -2.51855 0
M  V30 3261 C 293.65 -3.17627 -3.13096 0
M  V30 3262 C 294.351 -5.20401 -2.59919 0
M  V30 3263 N 293.327 -4.56712 -2.94814 0
M  V30 3264 H 297.129 -2.68331 -1.19899 0
M  V30 3265 H 294.643 -1.52091 -0.56938 0
M  V30 3266 H 296.64 -2.10966 -3.59582 0
M  V30 3267 H 295.3 -1.05702 -3.07013 0
M  V30 3268 H 296.311 -4.66293 -2.25369 0
M  V30 3269 H 292.988 -2.36971 -3.43731 0
M  V30 3270 H 294.378 -6.27586 -2.39969 0
M  V30 3271 N 297.098 0.621204 -1.44841 0
M  V30 3272 C 298.061 1.71459 -1.521 0
M  V30 3273 C 299.061 1.55696 -0.401933 0
M  V30 3274 O 300.251 1.61011 -0.664925 0
M  V30 3275 C 297.383 3.10624 -1.40447 0
M  V30 3276 H 298.576 1.66394 -2.49506 0
M  V30 3277 H 296.129 0.835745 -1.3208 0
M  V30 3278 H 296.864 3.21277 -0.441737 0
M  V30 3279 H 296.649 3.23473 -2.21602 0
M  V30 3280 H 298.139 3.90293 -1.4853 0
M  V30 3281 N 298.576 1.31904 0.862503 0
M  V30 3282 C 299.823 1.22017 1.61611 0
M  V30 3283 C 300.151 -0.21991 1.93253 0
M  V30 3284 O 299.406 -1.17076 1.56817 0
M  V30 3285 C 299.705 2.01713 2.95037 0
M  V30 3286 C 299.371 3.51145 2.82857 0
M  V30 3287 C 298.033 3.91889 2.79243 0
M  V30 3288 C 300.385 4.46204 2.69353 0
M  V30 3289 C 297.713 5.25947 2.59993 0
M  V30 3290 C 300.065 5.80397 2.5164 0
M  V30 3291 C 298.729 6.20352 2.46413 0
M  V30 3292 H 297.999 0.44649 0.591378 0
M  V30 3293 H 300.646 1.63248 1.00111 0
M  V30 3294 H 298.951 1.53185 3.60613 0
M  V30 3295 H 300.648 1.91437 3.52353 0
M  V30 3296 H 297.238 3.1878 2.86491 0
M  V30 3297 H 301.422 4.15652 2.71196 0
M  V30 3298 H 296.678 5.5597 2.54376 0
M  V30 3299 H 300.852 6.53676 2.40169 0
M  V30 3300 H 298.479 7.24172 2.31256 0
M  V30 3301 N 300.054 -1.07777 1.14986 0
M  V30 3302 C 300.964 -2.18404 0.856546 0
M  V30 3303 C 301.98 -1.73211 -0.165485 0
M  V30 3304 O 303.156 -2.01399 0.00755219 0
M  V30 3305 C 300.221 -3.44977 0.34526 0
M  V30 3306 C 299.282 -4.0476 1.43065 0
M  V30 3307 C 298.515 -5.25291 0.943663 0
M  V30 3308 O 298.738 -5.70004 -0.212426 0
M  V30 3309 O 297.672 -5.76638 1.72547 0
M  V30 3310 H 301.498 -2.45978 1.78125 0
M  V30 3311 H 299.083 -1.17033 0.928631 0
M  V30 3312 H 300.965 -4.21348 0.0663671 0
M  V30 3313 H 299.64 -3.18965 -0.551631 0
M  V30 3314 H 298.547 -3.29949 1.76309 0
M  V30 3315 H 299.88 -4.35035 2.30229 0
M  V30 3316 N 301.532 -0.945985 -1.26051 0
M  V30 3317 C 302.495 -0.463897 -2.24456 0
M  V30 3318 C 303.495 0.427655 -1.55009 0
M  V30 3319 O 304.685 0.226157 -1.72726 0
M  V30 3320 C 301.817 0.330812 -3.39291 0
M  V30 3321 H 303.01 -1.33357 -2.68619 0
M  V30 3322 H 300.563 -0.728416 -1.38289 0
M  V30 3323 H 301.298 1.21852 -3.00537 0
M  V30 3324 H 301.083 -0.308679 -3.90883 0
M  V30 3325 H 302.573 0.657865 -4.12386 0
M  V30 3326 N 303.011 1.40521 -0.713556 0
M  V30 3327 C 304.259 2.00527 -0.251692 0
M  V30 3328 C 304.58 1.56857 1.15848 0
M  V30 3329 O 303.85 0.807127 1.785 0
M  V30 3330 H 302.43 0.741551 -0.0900646 0
M  V30 3331 H 305.092 1.71887 -0.918733 0
M  V30 3332 H 304.188 3.10813 -0.283192 0
M  V30 3333 N 304.489 0.459591 1.5075 0
M  V30 3334 C 305.714 -0.0996819 2.0716 0
M  V30 3335 C 306.139 -1.33761 1.32249 0
M  V30 3336 O 305.497 -1.77551 0.366786 0
M  V30 3337 C 305.545 -0.378226 3.58611 0
M  V30 3338 O 304.649 -1.46081 3.85661 0
M  V30 3339 H 303.99 0.00791392 0.663953 0
M  V30 3340 H 306.52 0.647329 1.9409 0
M  V30 3341 H 306.53 -0.622135 4.03229 0
M  V30 3342 H 305.205 0.526439 4.12555 0
M  V30 3343 H 303.782 -1.20511 3.5289 0
M  V30 3344 N 305.967 -1.56429 0.191757 0
M  V30 3345 C 306.9 -2.14829 -0.76967 0
M  V30 3346 C 307.878 -1.08405 -1.2119 0
M  V30 3347 O 309.062 -1.36498 -1.30002 0
M  V30 3348 C 306.189 -2.70446 -2.03903 0
M  V30 3349 C 305.235 -3.89428 -1.7392 0
M  V30 3350 S 306.068 -5.28048 -0.890265 0
M  V30 3351 C 307.224 -5.87085 -2.16984 0
M  V30 3352 H 307.457 -2.96042 -0.273204 0
M  V30 3353 H 304.99 -1.54383 -0.0231975 0
M  V30 3354 H 306.948 -3.03134 -2.76803 0
M  V30 3355 H 305.609 -1.89281 -2.50662 0
M  V30 3356 H 304.802 -4.26742 -2.68155 0
M  V30 3357 H 304.404 -3.57732 -1.09103 0
M  V30 3358 H 306.696 -6.01244 -3.12269 0
M  V30 3359 H 307.639 -6.83747 -1.84108 0
M  V30 3360 H 308.047 -5.15663 -2.29678 0
M  V30 3361 N 307.445 0.0818655 -1.57387 0
M  V30 3362 C 308.392 1.09834 -2.0299 0
M  V30 3363 C 309.362 1.39043 -0.908639 0
M  V30 3364 O 310.547 1.50282 -1.17559 0
M  V30 3365 C 307.687 2.40971 -2.47037 0
M  V30 3366 C 306.8 2.18379 -3.7274 0
M  V30 3367 C 305.935 3.43008 -4.0561 0
M  V30 3368 C 304.974 3.15736 -5.24383 0
M  V30 3369 N 304.111 4.32667 -5.52941 0
M  V30 3370 H 308.951 0.702472 -2.89602 0
M  V30 3371 H 306.488 0.33531 -1.43227 0
M  V30 3372 H 308.446 3.1752 -2.70623 0
M  V30 3373 H 307.076 2.78379 -1.63417 0
M  V30 3374 H 306.128 1.32569 -3.56552 0
M  V30 3375 H 307.44 1.94227 -4.59431 0
M  V30 3376 H 306.594 4.27958 -4.30043 0
M  V30 3377 H 305.333 3.70225 -3.17466 0
M  V30 3378 H 304.338 2.2918 -4.99757 0
M  V30 3379 H 305.563 2.8985 -6.14136 0
M  V30 3380 H 303.509 4.59935 -4.67756 0
M  V30 3381 H 303.426 4.11753 -6.34031 0
M  V30 3382 H 304.694 5.18644 -5.81918 0
M  V30 3383 N 308.923 1.53595 0.353017 0
M  V30 3384 C 309.871 1.81605 1.45335 0
M  V30 3385 C 310.865 0.685923 1.54892 0
M  V30 3386 O 312.071 0.869095 1.57628 0
M  V30 3387 H 308.446 0.575204 0.484401 0
M  V30 3388 H 310.417 2.73679 1.18921 0
M  V30 3389 C 309.166 2.03406 2.81995 0
M  V30 3390 H 308.489 2.89814 2.75405 0
M  V30 3391 H 309.929 2.26975 3.58132 0
M  V30 3392 C 308.388 0.816794 3.26849 0
M  V30 3393 O 308.918 0.0115856 4.01698 0
M  V30 3394 N 307.124 0.636682 2.8354 0
M  V30 3395 H 306.671 1.2931 2.22793 0
M  V30 3396 H 306.629 -0.176336 3.13905 0
M  V30 3397 N 310.401 -0.613514 1.45168 0
M  V30 3398 C 311.331 -1.7354 1.56225 0
M  V30 3399 C 312.312 -1.64981 0.41414 0
M  V30 3400 O 313.497 -1.83472 0.636526 0
M  V30 3401 C 310.627 -3.12128 1.52295 0
M  V30 3402 C 309.581 -3.35491 2.65762 0
M  V30 3403 C 308.907 -4.74291 2.46885 0
M  V30 3404 C 310.207 -3.26325 4.0781 0
M  V30 3405 H 311.901 -1.64543 2.50132 0
M  V30 3406 H 309.447 -0.790185 1.20383 0
M  V30 3407 H 311.4 -3.90404 1.58628 0
M  V30 3408 H 310.124 -3.2195 0.549139 0
M  V30 3409 H 308.783 -2.59603 2.58847 0
M  V30 3410 H 308.431 -4.80839 1.47657 0
M  V30 3411 H 308.131 -4.9088 3.22972 0
M  V30 3412 H 309.655 -5.54775 2.55063 0
M  V30 3413 H 311.069 -3.94483 4.16 0
M  V30 3414 H 309.466 -3.54445 4.8424 0
M  V30 3415 H 310.536 -2.23855 4.30136 0
M  V30 3416 N 311.879 -1.3236 -0.855495 0
M  V30 3417 C 313.125 -1.23054 -1.612 0
M  V30 3418 C 313.458 0.207404 -1.93089 0
M  V30 3419 O 312.733 1.14432 -1.57275 0
M  V30 3420 C 313.016 -2.08937 -2.93287 0
M  V30 3421 C 312.869 -3.61105 -2.68185 0
M  V30 3422 C 314.188 -1.94986 -3.94549 0
M  V30 3423 H 311.307 -0.448364 -0.584926 0
M  V30 3424 H 313.949 -1.62297 -0.987917 0
M  V30 3425 H 312.099 -1.75599 -3.46551 0
M  V30 3426 H 313.771 -4.04652 -2.21483 0
M  V30 3427 H 312.014 -3.83813 -2.02164 0
M  V30 3428 H 312.685 -4.16522 -3.62234 0
M  V30 3429 H 315.161 -2.24189 -3.5054 0
M  V30 3430 H 314.037 -2.57356 -4.84829 0
M  V30 3431 H 314.298 -0.917263 -4.3248 0
M  V30 3432 N 313.357 1.07166 -1.15556 0
M  V30 3433 C 314.287 2.16403 -0.877046 0
M  V30 3434 C 315.268 1.69217 0.173111 0
M  V30 3435 O 316.453 1.94181 0.027084 0
M  V30 3436 C 313.583 3.45349 -0.367632 0
M  V30 3437 C 312.537 4.05995 -1.35468 0
M  V30 3438 C 311.863 5.30045 -0.704038 0
M  V30 3439 C 313.163 4.45804 -2.72132 0
M  V30 3440 H 314.857 2.39959 -1.79053 0
M  V30 3441 H 312.403 1.15325 -0.862331 0
M  V30 3442 H 314.356 4.21095 -0.160317 0
M  V30 3443 H 313.08 3.21385 0.581326 0
M  V30 3444 H 311.739 3.32296 -1.54839 0
M  V30 3445 H 311.387 5.02373 0.251128 0
M  V30 3446 H 311.087 5.71579 -1.36277 0
M  V30 3447 H 312.611 6.08495 -0.50654 0
M  V30 3448 H 314.025 5.12671 -2.56595 0
M  V30 3449 H 312.422 4.98296 -3.34397 0
M  V30 3450 H 313.492 3.57083 -3.28054 0
M  V30 3451 N 314.835 0.952656 1.25548 0
M  V30 3452 C 315.782 0.47008 2.25962 0
M  V30 3453 C 316.752 -0.476384 1.59122 0
M  V30 3454 O 317.937 -0.39007 1.8677 0
M  V30 3455 C 315.077 -0.247881 3.44209 0
M  V30 3456 C 314.19 0.735591 4.25691 0
M  V30 3457 C 313.325 -0.0047306 5.312 0
M  V30 3458 C 312.364 0.969805 6.04368 0
M  V30 3459 N 311.501 0.260486 7.01617 0
M  V30 3460 H 316.341 1.33126 2.66611 0
M  V30 3461 H 313.878 0.66765 1.31076 0
M  V30 3462 H 315.836 -0.680695 4.1161 0
M  V30 3463 H 314.466 -1.07312 3.0444 0
M  V30 3464 H 313.518 1.28689 3.57971 0
M  V30 3465 H 314.83 1.47934 4.76358 0
M  V30 3466 H 313.984 -0.496275 6.04667 0
M  V30 3467 H 312.723 -0.781282 4.81401 0
M  V30 3468 H 311.728 1.47237 5.29718 0
M  V30 3469 H 312.953 1.74655 6.56256 0
M  V30 3470 H 310.899 -0.497364 6.54112 0
M  V30 3471 H 310.816 0.943362 7.50091 0
M  V30 3472 H 312.084 -0.209587 7.79218 0
M  V30 3473 N 316.313 -1.40141 0.720998 0
M  V30 3474 C 317.562 -2.0002 0.259804 0
M  V30 3475 C 317.875 -1.57839 -1.15526 0
M  V30 3476 O 319.081 -2.10455 -1.71525 0
M  V30 3477 C 317.537 -3.57516 0.413566 0
M  V30 3478 C 317.145 -4.08667 1.83562 0
M  V30 3479 C 318.889 -4.24498 0.0134387 0
M  V30 3480 C 316.796 -5.58686 1.93968 0
M  V30 3481 H 315.726 -0.748195 0.0933806 0
M  V30 3482 H 318.377 -1.60313 0.892866 0
M  V30 3483 H 316.759 -3.9495 -0.288169 0
M  V30 3484 H 317.933 -3.82598 2.56817 0
M  V30 3485 H 316.248 -3.543 2.1877 0
M  V30 3486 H 318.845 -5.34654 0.0703954 0
M  V30 3487 H 319.188 -4.03375 -1.02927 0
M  V30 3488 H 319.721 -3.92188 0.665815 0
M  V30 3489 H 316.46 -5.8467 2.96379 0
M  V30 3490 H 315.98 -5.86602 1.25131 0
M  V30 3491 H 317.659 -6.23875 1.71431 0
M  V30 3492 N 317.792 -0.46758 -1.50504 0
M  V30 3493 C 319.041 0.0902868 -2.01498 0
M  V30 3494 C 319.354 1.411 -1.35463 0
M  V30 3495 O 320.56 2.0536 -1.77594 0
M  V30 3496 C 319.016 0.21142 -3.59278 0
M  V30 3497 C 318.624 -1.10065 -4.34269 0
M  V30 3498 C 320.368 0.721433 -4.18325 0
M  V30 3499 C 318.275 -0.943505 -5.83825 0
M  V30 3500 H 317.205 0.037517 -0.753066 0
M  V30 3501 H 319.856 -0.601943 -1.73346 0
M  V30 3502 H 318.238 0.967352 -3.84003 0
M  V30 3503 H 319.412 -1.86726 -4.21272 0
M  V30 3504 H 317.727 -1.5415 -3.86816 0
M  V30 3505 H 320.324 0.85598 -5.27804 0
M  V30 3506 H 320.667 1.71186 -3.79475 0
M  V30 3507 H 321.2 0.0229843 -3.97793 0
M  V30 3508 H 317.939 -1.90719 -6.27141 0
M  V30 3509 H 317.459 -0.217213 -5.99407 0
M  V30 3510 H 319.138 -0.608715 -6.4413 0
M  V30 3511 N 319.27 1.56325 -0.20005 0
M  V30 3512 C 320.495 2.02548 0.44597 0
M  V30 3513 C 320.92 1.07922 1.5406 0
M  V30 3514 O 320.278 0.0635775 1.81188 0
M  V30 3515 C 320.326 3.47175 0.974761 0
M  V30 3516 O 319.43 3.55671 2.08739 0
M  V30 3517 H 318.771 0.655862 0.103638 0
M  V30 3518 H 321.301 2.02201 -0.312381 0
M  V30 3519 H 321.311 3.87067 1.2901 0
M  V30 3520 H 319.986 4.15538 0.17347 0
M  V30 3521 H 318.563 3.27657 1.78032 0
M  V30 3522 N 320.748 -0.0735177 1.57428 0
M  V30 3523 C 321.996 -0.771472 1.86796 0
M  V30 3524 C 322.317 -1.78201 0.791804 0
M  V30 3525 O 321.587 -1.95074 -0.179718 0
M  V30 3526 H 320.167 -0.28791 0.689287 0
M  V30 3527 H 322.829 -0.0500161 1.94836 0
M  V30 3528 H 321.925 -1.28874 2.8425 0
M  V30 3529 N 322.226 -1.5378 -0.344866 0
M  V30 3530 C 323.451 -1.75211 -1.10977 0
M  V30 3531 C 323.876 -0.48936 -1.81623 0
M  V30 3532 O 323.234 0.557925 -1.72502 0
M  V30 3533 C 323.282 -2.93147 -2.09993 0
M  V30 3534 O 322.386 -2.63203 -3.17487 0
M  V30 3535 H 321.727 -0.581241 -0.321021 0
M  V30 3536 H 324.257 -2.00738 -0.395661 0
M  V30 3537 H 324.267 -3.19898 -2.53237 0
M  V30 3538 H 322.942 -3.84731 -1.5797 0
M  V30 3539 H 321.519 -2.47336 -2.79069 0
M  V30 3540 N 323.704 0.605807 -1.45491 0
M  V30 3541 C 324.951 1.36476 -1.49601 0
M  V30 3542 C 325.279 1.94007 -0.138452 0
M  V30 3543 O 324.534 1.75638 0.863114 0
M  V30 3544 C 324.833 2.53012 -2.52428 0
M  V30 3545 C 324.499 2.13617 -3.97087 0
M  V30 3546 C 323.161 2.02587 -4.36477 0
M  V30 3547 C 325.513 1.82899 -4.88055 0
M  V30 3548 C 322.841 1.59064 -5.64726 0
M  V30 3549 C 325.193 1.40861 -6.16718 0
M  V30 3550 C 323.857 1.28391 -6.55036 0
M  V30 3551 H 323.127 0.499402 -0.547429 0
M  V30 3552 H 325.774 0.684546 -1.78847 0
M  V30 3553 H 324.079 3.26379 -2.16758 0
M  V30 3554 H 325.776 3.1124 -2.52845 0
M  V30 3555 H 322.366 2.23129 -3.65939 0
M  V30 3556 H 326.55 1.90317 -4.58359 0
M  V30 3557 H 321.806 1.48034 -5.93208 0
M  V30 3558 H 325.98 1.16138 -6.86648 0
M  V30 3559 H 323.607 0.944403 -7.54311 0
M  V30 3560 N 325.182 1.32811 0.848464 0
M  V30 3561 C 326.593 1.21315 1.41914 0
M  V30 3562 C 326.944 -0.171847 1.95446 0
M  V30 3563 O 326.069 -1.07093 1.88043 0
M  V30 3564 C 326.664 2.19631 2.57968 0
M  V30 3565 C 325.223 2.12003 3.11017 0
M  V30 3566 C 324.37 2.07651 1.83783 0
M  V30 3567 H 327.321 1.44549 0.655071 0
M  V30 3568 H 327.342 1.79845 3.35315 0
M  V30 3569 H 326.854 3.20423 2.18976 0
M  V30 3570 H 324.955 1.14481 3.54577 0
M  V30 3571 H 325.068 3.02111 3.71841 0
M  V30 3572 H 323.432 1.52983 2.03638 0
M  V30 3573 H 324.215 3.10235 1.47 0
M  V30 3574 N 326.66 -1.06551 1.16123 0
M  V30 3575 C 328.071 -1.60768 0.949232 0
M  V30 3576 C 328.422 -1.89523 -0.507508 0
M  V30 3577 O 327.547 -1.66671 -1.38021 0
M  V30 3578 C 328.142 -2.92086 1.71671 0
M  V30 3579 C 326.701 -3.43015 1.54977 0
M  V30 3580 C 325.848 -2.16947 1.72711 0
M  V30 3581 H 328.799 -0.895354 1.31031 0
M  V30 3582 H 328.82 -3.6138 1.19099 0
M  V30 3583 H 328.332 -2.71127 2.7769 0
M  V30 3584 H 326.433 -3.69039 0.513873 0
M  V30 3585 H 326.546 -4.18516 2.33198 0
M  V30 3586 H 324.91 -2.27041 1.15431 0
M  V30 3587 H 325.693 -1.98473 2.80113 0
M  V30 3588 N 328.138 -0.959301 -1.25041 0
M  V30 3589 C 329.384 -0.617525 -1.9317 0
M  V30 3590 C 329.717 0.843981 -1.74902 0
M  V30 3591 O 328.992 1.60615 -1.09696 0
M  V30 3592 C 329.275 -0.982736 -3.46431 0
M  V30 3593 C 329.128 -2.50032 -3.73904 0
M  V30 3594 C 330.447 -0.511176 -4.37121 0
M  V30 3595 H 327.566 -0.22582 -0.701552 0
M  V30 3596 H 330.208 -1.19679 -1.4757 0
M  V30 3597 H 328.358 -0.489806 -3.854 0
M  V30 3598 H 330.03 -3.06737 -3.44544 0
M  V30 3599 H 328.273 -2.93598 -3.19348 0
M  V30 3600 H 328.944 -2.70635 -4.81103 0
M  V30 3601 H 331.42 -0.934075 -4.0548 0
M  V30 3602 H 330.296 -0.795361 -5.43107 0
M  V30 3603 H 330.557 0.588834 -4.38161 0
M  V30 3604 N 329.616 1.39756 -0.72842 0
M  V30 3605 C 330.841 2.05472 -0.282159 0
M  V30 3606 C 331.266 1.54549 1.07221 0
M  V30 3607 O 330.624 0.686372 1.67805 0
M  V30 3608 C 330.672 3.59462 -0.286264 0
M  V30 3609 O 329.776 4.05918 0.728298 0
M  V30 3610 H 329.117 0.651226 -0.129618 0
M  V30 3611 H 331.647 1.78915 -0.992499 0
M  V30 3612 H 331.657 4.07798 -0.128373 0
M  V30 3613 H 330.332 3.95889 -1.27456 0
M  V30 3614 H 328.909 3.69012 0.537081 0
M  V30 3615 N 331.094 0.475555 1.50254 0
M  V30 3616 C 332.024 -0.30611 2.31485 0
M  V30 3617 C 333.005 -0.986228 1.38591 0
M  V30 3618 O 334.19 -0.982541 1.67511 0
M  V30 3619 C 331.32 -1.38588 3.1845 0
M  V30 3620 C 330.274 -0.827115 4.19932 0
M  V30 3621 C 329.6 -2.00551 4.95665 0
M  V30 3622 C 330.9 0.16463 5.2204 0
M  V30 3623 H 332.594 0.371866 2.97082 0
M  V30 3624 H 330.14 0.180282 1.42867 0
M  V30 3625 H 332.093 -1.94023 3.74076 0
M  V30 3626 H 330.817 -2.09269 2.50747 0
M  V30 3627 H 329.476 -0.294702 3.65414 0
M  V30 3628 H 329.124 -2.6994 4.2443 0
M  V30 3629 H 328.824 -1.63784 5.64313 0
M  V30 3630 H 330.348 -2.56468 5.54127 0
M  V30 3631 H 331.762 -0.300699 5.72511 0
M  V30 3632 H 330.159 0.446813 5.98434 0
M  V30 3633 H 331.229 1.08905 4.72512 0
M  V30 3634 N 332.573 -1.56217 0.208337 0
M  V30 3635 C 333.523 -2.16324 -0.720281 0
M  V30 3636 C 334.507 -1.10775 -1.16695 0
M  V30 3637 O 335.699 -1.36801 -1.12314 0
M  V30 3638 C 332.828 -2.83644 -1.93393 0
M  V30 3639 C 331.914 -3.96401 -1.50755 0
M  V30 3640 N 332.305 -4.99546 -0.792937 0
M  V30 3641 C 330.603 -4.08246 -1.79585 0
M  V30 3642 C 331.304 -5.78828 -0.577364 0
M  V30 3643 N 330.28 -5.31723 -1.1301 0
M  V30 3644 H 334.082 -2.93432 -0.165725 0
M  V30 3645 H 331.596 -1.62397 0.00906463 0
M  V30 3646 H 333.593 -3.25107 -2.60981 0
M  V30 3647 H 332.253 -2.08027 -2.49308 0
M  V30 3648 H 333.264 -5.15967 -0.447004 0
M  V30 3649 H 329.941 -3.4377 -2.36915 0
M  V30 3650 H 331.331 -6.71899 -0.00952956 0
M  V30 3651 N 334.051 0.0651679 -1.57465 0
M  V30 3652 C 335.281 0.774683 -1.91526 0
M  V30 3653 C 335.689 1.71305 -0.803196 0
M  V30 3654 O 335.032 1.82231 0.231881 0
M  V30 3655 C 335.094 1.61645 -3.21109 0
M  V30 3656 C 334.758 0.846753 -4.49087 0
M  V30 3657 C 335.755 0.163024 -5.19644 0
M  V30 3658 C 333.44 0.811966 -4.95694 0
M  V30 3659 C 335.434 -0.54519 -6.35064 0
M  V30 3660 C 333.121 0.0999836 -6.11018 0
M  V30 3661 C 334.119 -0.577388 -6.80555 0
M  V30 3662 O 333.807 -1.27789 -7.93678 0
M  V30 3663 H 333.539 0.225031 -0.637446 0
M  V30 3664 H 336.093 0.0377134 -2.05365 0
M  V30 3665 H 334.323 2.39638 -3.03497 0
M  V30 3666 H 336.012 2.20525 -3.40769 0
M  V30 3667 H 336.778 0.181163 -4.84662 0
M  V30 3668 H 332.657 1.32867 -4.41438 0
M  V30 3669 H 336.201 -1.07446 -6.89276 0
M  V30 3670 H 332.098 0.0797945 -6.45451 0
M  V30 3671 H 332.866 -1.18784 -8.09835 0
M  V30 3672 N 335.529 1.53961 0.336706 0
M  V30 3673 C 336.754 1.75797 1.10046 0
M  V30 3674 C 337.179 0.498985 1.81361 0
M  V30 3675 O 336.537 -0.548769 1.72795 0
M  V30 3676 C 336.585 2.94257 2.08436 0
M  V30 3677 O 335.689 2.64883 3.16087 0
M  V30 3678 H 335.03 0.582936 0.317934 0
M  V30 3679 H 337.56 2.00945 0.38501 0
M  V30 3680 H 337.57 3.21237 2.51537 0
M  V30 3681 H 336.245 3.85564 1.55927 0
M  V30 3682 H 334.822 2.48812 2.77753 0
M  V30 3683 N 337.007 -0.598083 1.45811 0
M  V30 3684 C 338.237 -1.38121 1.53643 0
M  V30 3685 C 338.645 -1.88425 0.171081 0
M  V30 3686 O 337.988 -1.63409 -0.839237 0
M  V30 3687 C 338.05 -2.61432 2.46766 0
M  V30 3688 C 337.714 -2.32702 3.93318 0
M  V30 3689 C 338.711 -1.92479 4.82957 0
M  V30 3690 C 336.396 -2.45321 4.38318 0
M  V30 3691 C 338.39 -1.65248 6.15607 0
M  V30 3692 C 336.077 -2.17703 5.71007 0
M  V30 3693 C 337.075 -1.7773 6.5947 0
M  V30 3694 O 336.763 -1.50441 7.89698 0
M  V30 3695 H 336.495 -0.428863 0.522544 0
M  V30 3696 H 339.049 -0.73557 1.91777 0
M  V30 3697 H 337.279 -3.28749 2.0362 0
M  V30 3698 H 338.968 -3.23487 2.45175 0
M  V30 3699 H 339.734 -1.82258 4.49452 0
M  V30 3700 H 335.613 -2.75399 3.69697 0
M  V30 3701 H 339.157 -1.33973 6.84614 0
M  V30 3702 H 335.054 -2.27544 6.04065 0
M  V30 3703 H 335.822 -1.64415 8.01817 0
M  V30 3704 N 338.485 -1.33259 -0.841409 0
M  V30 3705 C 339.762 -1.15174 -1.58096 0
M  V30 3706 C 340.142 0.282858 -2.09196 0
M  V30 3707 O 339.49 1.28151 -1.89181 0
M  V30 3708 C 339.7 -2.1907 -2.71679 0
M  V30 3709 C 341.048 -2.53093 -3.40924 0
M  V30 3710 O 342.072 -2.17717 -2.81918 0
M  V30 3711 O 340.931 -3.1379 -4.47435 0
M  V30 3712 H 338.025 -0.445303 -0.696875 0
M  V30 3713 H 340.571 -1.44833 -0.884385 0
M  V30 3714 H 339.343 -3.15443 -2.31541 0
M  V30 3715 H 338.966 -1.90481 -3.49002 0
M  V30 3716 N 339.963 1.05934 -1.16686 0
M  V30 3717 C 340.893 2.1546 -0.899949 0
M  V30 3718 C 341.874 1.69391 0.155154 0
M  V30 3719 O 343.059 1.94199 0.00648693 0
M  V30 3720 C 340.189 3.44939 -0.404241 0
M  V30 3721 C 339.143 4.04536 -1.39767 0
M  V30 3722 C 338.469 5.29268 -0.760216 0
M  V30 3723 C 339.769 4.42893 -2.76845 0
M  V30 3724 H 341.463 2.38046 -1.81588 0
M  V30 3725 H 339.009 1.14404 -0.874514 0
M  V30 3726 H 340.962 4.20901 -0.204971 0
M  V30 3727 H 339.686 3.21983 0.547206 0
M  V30 3728 H 338.345 3.30635 -1.58355 0
M  V30 3729 H 337.993 5.02611 0.197831 0
M  V30 3730 H 337.693 5.70101 -1.42332 0
M  V30 3731 H 339.217 6.07924 -0.57105 0
M  V30 3732 H 340.631 5.09921 -2.62019 0
M  V30 3733 H 339.028 4.94721 -3.39663 0
M  V30 3734 H 340.098 3.53584 -3.31823 0
M  V30 3735 N 341.441 0.965919 1.2453 0
M  V30 3736 C 342.857 0.67216 1.44756 0
M  V30 3737 C 343.057 -0.766609 1.86347 0
M  V30 3738 O 342.113 -1.5407 2.00047 0
M  V30 3739 C 343.426 1.65473 2.51076 0
M  V30 3740 C 344.974 1.66716 2.64905 0
M  V30 3741 C 345.449 2.63766 3.74421 0
M  V30 3742 N 346.94 2.62198 3.81846 0
M  V30 3743 C 347.675 3.33966 4.66106 0
M  V30 3744 N 347.171 4.15245 5.54566 0
M  V30 3745 N 348.964 3.22799 4.60171 0
M  V30 3746 H 341.115 1.89553 0.958293 0
M  V30 3747 H 343.378 0.815979 0.482579 0
M  V30 3748 H 343.084 2.68296 2.27399 0
M  V30 3749 H 342.958 1.4261 3.49202 0
M  V30 3750 H 345.345 0.646057 2.87941 0
M  V30 3751 H 345.426 1.93642 1.67142 0
M  V30 3752 H 345.07 3.6601 3.52135 0
M  V30 3753 H 345 2.34121 4.71694 0
M  V30 3754 H 347.491 2.032 3.18619 0
M  V30 3755 H 347.804 4.66898 6.15814 0
M  V30 3756 H 346.149 4.1934 5.54237 0
M  V30 3757 H 349.34 2.58764 3.90075 0
M  V30 3758 H 349.513 3.78994 5.25612 0
M  V30 3759 N 342.919 -1.39368 0.735821 0
M  V30 3760 C 344.144 -2.05319 0.293052 0
M  V30 3761 C 344.569 -1.55115 -1.064 0
M  V30 3762 O 343.927 -0.695261 -1.67439 0
M  V30 3763 C 343.975 -3.59305 0.305323 0
M  V30 3764 O 343.079 -4.06299 -0.706761 0
M  V30 3765 H 342.42 -0.650529 0.13307 0
M  V30 3766 H 344.95 -1.78386 1.00197 0
M  V30 3767 H 344.96 -4.07724 0.149997 0
M  V30 3768 H 343.635 -3.95207 1.29553 0
M  V30 3769 H 342.212 -3.69292 -0.517504 0
M  V30 3770 N 344.397 -0.483516 -1.5 0
M  V30 3771 C 345.327 0.293829 -2.31644 0
M  V30 3772 C 346.308 0.978864 -1.39112 0
M  V30 3773 O 347.493 0.973644 -1.68029 0
M  V30 3774 C 344.623 1.36897 -3.19181 0
M  V30 3775 C 343.577 0.804833 -4.20365 0
M  V30 3776 C 342.903 1.9792 -4.96721 0
M  V30 3777 C 344.203 -0.192313 -5.21946 0
M  V30 3778 H 345.897 -0.387616 -2.9688 0
M  V30 3779 H 343.443 -0.187856 -1.42769 0
M  V30 3780 H 345.396 1.92037 -3.751 0
M  V30 3781 H 344.12 2.07936 -2.51853 0
M  V30 3782 H 342.779 0.275319 -3.65565 0
M  V30 3783 H 342.427 2.67686 -4.25856 0
M  V30 3784 H 342.127 1.60789 -5.65173 0
M  V30 3785 H 343.651 2.53526 -5.55479 0
M  V30 3786 H 345.065 0.270333 -5.72662 0
M  V30 3787 H 343.462 -0.478543 -5.98189 0
M  V30 3788 H 344.532 -1.11409 -4.71928 0
M  V30 3789 N 345.875 1.56104 -0.216619 0
M  V30 3790 C 347.121 1.98466 0.417033 0
M  V30 3791 C 347.454 1.10403 1.59765 0
M  V30 3792 O 346.729 0.160632 1.93836 0
M  V30 3793 C 347.012 3.49769 0.85637 0
M  V30 3794 C 346.865 4.48606 -0.327546 0
M  V30 3795 C 348.184 4.05339 1.7143 0
M  V30 3796 H 345.303 0.721551 0.150112 0
M  V30 3797 H 347.945 1.87423 -0.311864 0
M  V30 3798 H 346.095 3.5931 1.47745 0
M  V30 3799 H 347.767 4.5108 -0.965618 0
M  V30 3800 H 346.01 4.22682 -0.975805 0
M  V30 3801 H 346.681 5.51995 0.0227149 0
M  V30 3802 H 349.157 3.98712 1.19031 0
M  V30 3803 H 348.033 5.11533 1.99061 0
M  V30 3804 H 348.294 3.51918 2.67593 0
M  V30 3805 N 347.353 -0.0568162 1.57498 0
M  V30 3806 C 348.578 -0.769402 1.92601 0
M  V30 3807 C 349.003 -1.69559 0.814336 0
M  V30 3808 O 348.361 -1.79811 -0.231903 0
M  V30 3809 C 348.409 -1.52634 3.26704 0
M  V30 3810 O 347.513 -2.63797 3.16994 0
M  V30 3811 H 346.854 -0.208909 0.63028 0
M  V30 3812 H 349.384 -0.0205798 2.0459 0
M  V30 3813 H 349.394 -1.90234 3.60936 0
M  V30 3814 H 348.069 -0.846875 4.07186 0
M  V30 3815 H 346.646 -2.28943 2.94346 0
M  V30 3816 N 348.832 -1.54138 -0.328536 0
M  V30 3817 C 349.764 -1.79509 -1.4251 0
M  V30 3818 C 350.777 -0.67688 -1.48061 0
M  V30 3819 O 351.966 -0.953898 -1.50874 0
M  V30 3820 C 349.066 -1.89337 -2.81078 0
M  V30 3821 C 348.239 -3.19443 -2.98789 0
M  V30 3822 C 347.298 -3.20036 -4.17688 0
M  V30 3823 O 346.324 -3.93697 -4.11086 0
M  V30 3824 N 347.526 -2.43467 -5.26976 0
M  V30 3825 H 350.291 -2.74139 -1.21111 0
M  V30 3826 H 347.852 -1.53373 -0.518499 0
M  V30 3827 H 349.844 -1.87167 -3.58818 0
M  V30 3828 H 348.414 -1.01826 -2.95551 0
M  V30 3829 H 347.634 -3.34614 -2.08391 0
M  V30 3830 H 348.922 -4.05354 -3.07515 0
M  V30 3831 H 348.32 -1.83201 -5.35214 0
M  V30 3832 H 346.877 -2.4708 -6.03154 0
M  V30 3833 N 350.31 0.590341 -1.46126 0
M  V30 3834 C 351.24 1.71032 -1.58966 0
M  V30 3835 C 352.221 1.64302 -0.440335 0
M  V30 3836 O 353.406 1.82436 -0.665634 0
M  V30 3837 C 350.536 3.09665 -1.57241 0
M  V30 3838 C 349.49 3.31221 -2.71066 0
M  V30 3839 C 348.816 4.70303 -2.54399 0
M  V30 3840 C 350.116 3.19796 -4.1295 0
M  V30 3841 H 351.81 1.60543 -2.52718 0
M  V30 3842 H 349.356 0.770933 -1.21625 0
M  V30 3843 H 351.309 3.87831 -1.64819 0
M  V30 3844 H 350.033 3.21036 -0.600289 0
M  V30 3845 H 348.692 2.55452 -2.62944 0
M  V30 3846 H 348.34 4.78429 -1.55288 0
M  V30 3847 H 348.04 4.85679 -3.30741 0
M  V30 3848 H 349.564 5.50647 -2.63857 0
M  V30 3849 H 350.978 3.87815 -4.22223 0
M  V30 3850 H 349.375 3.46696 -4.89818 0
M  V30 3851 H 350.445 2.16983 -4.33643 0
M  V30 3852 N 351.788 1.33704 0.83433 0
M  V30 3853 C 353.035 1.25417 1.58987 0
M  V30 3854 C 353.363 -0.178869 1.93676 0
M  V30 3855 O 352.618 -1.13723 1.59265 0
M  V30 3856 C 352.917 2.07926 2.90692 0
M  V30 3857 C 352.583 3.57066 2.75345 0
M  V30 3858 C 351.245 3.97724 2.70867 0
M  V30 3859 C 353.597 4.51817 2.59828 0
M  V30 3860 C 350.925 5.31344 2.48778 0
M  V30 3861 C 353.277 5.85604 2.39272 0
M  V30 3862 C 351.941 6.25439 2.33199 0
M  V30 3863 H 351.211 0.458934 0.581774 0
M  V30 3864 H 353.858 1.65335 0.966261 0
M  V30 3865 H 352.163 1.608 3.57282 0
M  V30 3866 H 353.86 1.98868 3.48213 0
M  V30 3867 H 350.45 3.24785 2.79665 0
M  V30 3868 H 354.634 4.21311 2.62319 0
M  V30 3869 H 349.89 5.61241 2.42526 0
M  V30 3870 H 354.064 6.58623 2.2625 0
M  V30 3871 H 351.691 7.28914 2.15843 0
M  V30 3872 N 353.266 -1.05314 1.17247 0
M  V30 3873 C 354.213 -2.13031 0.888058 0
M  V30 3874 C 355.183 -1.65253 -0.167537 0
M  V30 3875 O 356.368 -1.90775 -0.0305974 0
M  V30 3876 C 353.508 -3.42702 0.406147 0
M  V30 3877 C 352.621 -4.04161 1.52572 0
M  V30 3878 C 351.756 -5.21744 0.997808 0
M  V30 3879 C 350.795 -5.75207 2.09291 0
M  V30 3880 N 349.932 -6.84094 1.57986 0
M  V30 3881 H 354.772 -2.36698 1.81048 0
M  V30 3882 H 352.309 -1.16121 0.903013 0
M  V30 3883 H 354.267 -4.17059 0.108305 0
M  V30 3884 H 352.897 -3.19222 -0.479313 0
M  V30 3885 H 351.949 -3.27253 1.93931 0
M  V30 3886 H 353.261 -4.39881 2.35172 0
M  V30 3887 H 352.415 -6.03168 0.653739 0
M  V30 3888 H 351.154 -4.87495 0.141232 0
M  V30 3889 H 350.159 -4.92414 2.44557 0
M  V30 3890 H 351.384 -6.11505 2.95362 0
M  V30 3891 H 349.33 -6.51745 0.74598 0
M  V30 3892 H 349.247 -7.18811 2.34195 0
M  V30 3893 H 350.515 -7.69172 1.26468 0
M  V30 3894 N 354.744 -0.972509 -1.24016 0
M  V30 3895 C 356.16 -0.679827 -1.44397 0
M  V30 3896 C 356.36 0.756716 -1.86751 0
M  V30 3897 O 355.416 1.53007 -2.00861 0
M  V30 3898 C 356.729 -1.66803 -2.50195 0
M  V30 3899 C 358.277 -1.68119 -2.64017 0
M  V30 3900 C 358.752 -2.65748 -3.73017 0
M  V30 3901 N 360.243 -2.64219 -3.8045 0
M  V30 3902 C 360.978 -3.36433 -4.64328 0
M  V30 3903 N 360.474 -4.1818 -5.52356 0
M  V30 3904 N 362.267 -3.25235 -4.58453 0
M  V30 3905 H 354.418 -1.90059 -0.948228 0
M  V30 3906 H 356.681 -0.818527 -0.478245 0
M  V30 3907 H 356.387 -2.69498 -2.25973 0
M  V30 3908 H 356.261 -1.4446 -3.48441 0
M  V30 3909 H 358.648 -0.661319 -2.87594 0
M  V30 3910 H 358.729 -1.94525 -1.66113 0
M  V30 3911 H 358.373 -3.67872 -3.50189 0
M  V30 3912 H 358.303 -2.36619 -4.70446 0
M  V30 3913 H 360.794 -2.04887 -3.17537 0
M  V30 3914 H 361.107 -4.70157 -6.13329 0
M  V30 3915 H 359.452 -4.22273 -5.52006 0
M  V30 3916 H 362.643 -2.60829 -3.88698 0
M  V30 3917 H 362.816 -3.81776 -5.23594 0
M  V30 3918 N 356.222 1.38976 -0.743202 0
M  V30 3919 C 357.17 2.32394 -0.0978389 0
M  V30 3920 C 358.164 1.53486 0.716824 0
M  V30 3921 O 359.37 1.69092 0.617088 0
M  V30 3922 H 355.745 0.75189 -0.0128402 0
M  V30 3923 H 357.716 2.84441 -0.901981 0
M  V30 3924 C 356.465 3.38629 0.789036 0
M  V30 3925 H 355.788 3.99432 0.171559 0
M  V30 3926 H 357.228 4.06426 1.20807 0
M  V30 3927 C 355.687 2.76347 1.92702 0
M  V30 3928 O 356.217 2.64836 3.02034 0
M  V30 3929 N 354.423 2.34311 1.71891 0
M  V30 3930 H 353.97 2.43873 0.829675 0
M  V30 3931 H 353.928 1.9298 2.48205 0
M  V30 3932 N 357.7 0.491464 1.49741 0
M  V30 3933 C 359.111 0.0413169 1.86654 0
M  V30 3934 C 359.462 -1.36985 1.40462 0
M  V30 3935 O 358.587 -2.01917 0.778354 0
M  V30 3936 C 359.182 0.0682023 3.38731 0
M  V30 3937 C 357.741 -0.32656 3.74981 0
M  V30 3938 C 356.888 0.444888 2.73708 0
M  V30 3939 H 359.839 0.704733 1.42194 0
M  V30 3940 H 359.86 -0.729322 3.73445 0
M  V30 3941 H 359.372 1.09539 3.72321 0
M  V30 3942 H 357.473 -1.35734 3.46997 0
M  V30 3943 H 357.586 -0.013741 4.79098 0
M  V30 3944 H 355.95 -0.104062 2.54487 0
M  V30 3945 H 356.733 1.47197 3.10142 0
M  V30 3946 N 359.178 -1.55987 0.224894 0
M  V30 3947 C 360.594 -1.59066 -0.130426 0
M  V30 3948 C 360.794 -1.24176 -1.5869 0
M  V30 3949 O 359.85 -0.978592 -2.32766 0
M  V30 3950 C 361.163 -3.00042 0.198883 0
M  V30 3951 C 362.711 -3.1268 0.141391 0
M  V30 3952 C 363.186 -4.55839 0.444422 0
M  V30 3953 N 364.677 -4.6152 0.394115 0
M  V30 3954 C 365.412 -5.70231 0.602038 0
M  V30 3955 N 364.908 -6.87291 0.871914 0
M  V30 3956 N 366.701 -5.59555 0.534245 0
M  V30 3957 H 358.852 -1.76941 1.17497 0
M  V30 3958 H 361.115 -0.822604 0.471197 0
M  V30 3959 H 360.821 -3.30234 1.2099 0
M  V30 3960 H 360.695 -3.74075 -0.484535 0
M  V30 3961 H 363.082 -2.82283 -0.860265 0
M  V30 3962 H 363.163 -2.40969 0.858335 0
M  V30 3963 H 362.807 -4.86954 1.44353 0
M  V30 3964 H 362.737 -5.2578 -0.293752 0
M  V30 3965 H 365.228 -3.77405 0.193356 0
M  V30 3966 H 365.541 -7.66058 1.01858 0
M  V30 3967 H 363.886 -6.89028 0.909145 0
M  V30 3968 H 367.077 -4.6698 0.323612 0
M  V30 3969 H 367.25 -6.44211 0.699693 0
M  V30 3970 N 360.656 0.0484629 -1.57525 0
M  V30 3971 C 361.933 0.777447 -1.79486 0
M  V30 3972 C 362.313 1.94597 -0.818251 0
M  V30 3973 O 361.661 2.28047 0.143767 0
M  V30 3974 C 361.871 1.22864 -3.26658 0
M  V30 3975 C 363.219 1.65251 -3.91123 0
M  V30 3976 O 364.243 1.32372 -3.3069 0
M  V30 3977 O 363.102 2.26207 -4.97486 0
M  V30 3978 H 360.196 0.374357 -0.737419 0
M  V30 3979 H 362.742 0.0267359 -1.69679 0
M  V30 3980 H 361.514 0.393589 -3.89316 0
M  V30 3981 H 361.137 2.03996 -3.41279 0
M  V30 3982 N 362.134 1.5431 0.320358 0
M  V30 3983 C 363.55 1.45091 0.664889 0
M  V30 3984 C 363.75 0.626382 1.91517 0
M  V30 3985 O 362.806 0.126443 2.52183 0
M  V30 3986 C 364.119 2.88848 0.83591 0
M  V30 3987 C 365.667 2.9877 0.933046 0
M  V30 3988 C 366.142 4.43683 1.13621 0
M  V30 3989 N 367.633 4.47309 1.20287 0
M  V30 3990 C 368.368 5.56595 1.37801 0
M  V30 3991 N 367.864 6.75844 1.52338 0
M  V30 3992 N 369.657 5.44248 1.40535 0
M  V30 3993 H 361.808 2.06398 -0.501374 0
M  V30 3994 H 364.071 0.933963 -0.162534 0
M  V30 3995 H 363.777 3.51698 -0.0116092 0
M  V30 3996 H 363.651 3.35148 1.73078 0
M  V30 3997 H 366.038 2.36045 1.77107 0
M  V30 3998 H 366.119 2.55796 0.0145782 0
M  V30 3999 H 365.763 5.06995 0.303032 0
M  V30 4000 H 365.693 4.84269 2.0686 0
M  V30 4001 H 368.184 3.61388 1.10485 0
M  V30 4002 H 368.497 7.54892 1.65403 0
M  V30 4003 H 366.842 6.78746 1.4943 0
M  V30 4004 H 370.033 4.50038 1.28777 0
M  V30 4005 H 370.206 6.29473 1.53842 0
M  V30 4006 N 363.613 -0.582584 1.46437 0
M  V30 4007 C 365.024 -1.1647 1.45916 0
M  V30 4008 C 365.375 -1.95177 0.200077 0
M  V30 4009 O 364.5 -2.04874 -0.696819 0
M  V30 4010 C 365.095 -2.11885 2.64367 0
M  V30 4011 C 363.654 -2.65421 2.66887 0
M  V30 4012 C 362.801 -1.41294 2.38603 0
M  V30 4013 H 365.752 -0.370514 1.54314 0
M  V30 4014 H 365.773 -2.9535 2.39892 0
M  V30 4015 H 365.285 -1.54573 3.5599 0
M  V30 4016 H 363.386 -3.26602 1.79338 0
M  V30 4017 H 363.499 -3.08147 3.66854 0
M  V30 4018 H 361.863 -1.71109 1.88663 0
M  V30 4019 H 362.646 -0.858125 3.32402 0
M  V30 4020 N 365.091 -1.34144 -0.827227 0
M  V30 4021 C 366.316 -1.29476 -1.62021 0
M  V30 4022 C 366.741 0.129292 -1.87655 0
M  V30 4023 O 366.099 1.08967 -1.449 0
M  V30 4024 C 366.147 -2.08702 -2.94068 0
M  V30 4025 O 365.251 -1.45359 -3.85933 0
M  V30 4026 H 364.592 -0.444881 -0.492927 0
M  V30 4027 H 367.122 -1.76882 -1.02829 0
M  V30 4028 H 367.132 -2.19898 -3.43669 0
M  V30 4029 H 365.807 -3.12241 -2.74734 0
M  V30 4030 H 364.384 -1.42879 -3.44442 0
M  V30 4031 N 366.569 1.04691 -1.17803 0
M  V30 4032 C 367.815 1.78045 -0.970969 0
M  V30 4033 C 368.148 1.87686 0.498751 0
M  V30 4034 O 367.423 1.38035 1.37027 0
M  V30 4035 C 367.706 3.2166 -1.61884 0
M  V30 4036 C 367.559 3.20001 -3.161 0
M  V30 4037 C 368.878 4.1962 -1.3269 0
M  V30 4038 H 365.997 0.64633 -0.354155 0
M  V30 4039 H 368.639 1.22333 -1.45378 0
M  V30 4040 H 366.789 3.69232 -1.20831 0
M  V30 4041 H 368.461 2.80467 -3.66246 0
M  V30 4042 H 366.704 2.58203 -3.48588 0
M  V30 4043 H 367.375 4.21386 -3.56564 0
M  V30 4044 H 369.851 3.80567 -1.68249 0
M  V30 4045 H 368.727 5.18339 -1.80599 0
M  V30 4046 H 368.988 4.414 -0.248622 0
M  V30 4047 N 368.047 0.979072 1.23499 0
M  V30 4048 C 368.995 0.510604 2.26926 0
M  V30 4049 C 369.989 -0.431691 1.63807 0
M  V30 4050 O 371.195 -0.30573 1.77385 0
M  V30 4051 H 367.57 0.146688 0.737554 0
M  V30 4052 H 369.541 1.39466 2.63803 0
M  V30 4053 C 368.29 -0.172658 3.47271 0
M  V30 4054 H 367.613 0.543331 3.96091 0
M  V30 4055 H 369.053 -0.464101 4.21452 0
M  V30 4056 C 367.512 -1.40345 3.06276 0
M  V30 4057 O 368.042 -2.49978 3.14442 0
M  V30 4058 N 366.248 -1.27362 2.61203 0
M  V30 4059 H 365.795 -0.381584 2.54758 0
M  V30 4060 H 365.753 -2.09822 2.34141 0
M  V30 4061 N 369.525 -1.3858 0.750561 0
M  V30 4062 C 370.75 -2.04997 0.314812 0
M  V30 4063 C 371.175 -1.56235 -1.04749 0
M  V30 4064 O 370.533 -0.712981 -1.66692 0
M  V30 4065 C 370.581 -3.58961 0.343415 0
M  V30 4066 O 369.685 -4.07025 -0.663628 0
M  V30 4067 H 369.026 -0.649081 0.139962 0
M  V30 4068 H 371.556 -1.77313 1.02084 0
M  V30 4069 H 371.566 -4.07542 0.193233 0
M  V30 4070 H 370.241 -3.93811 1.33738 0
M  V30 4071 H 368.818 -3.6982 -0.478307 0
M  V30 4072 N 371.003 -0.499398 -1.49478 0
M  V30 4073 C 372.252 0.0475259 -2.01644 0
M  V30 4074 C 372.565 1.38195 -1.38425 0
M  V30 4075 O 373.771 2.01547 -1.8191 0
M  V30 4076 C 372.227 0.135164 -3.59646 0
M  V30 4077 C 371.835 -1.19252 -4.31837 0
M  V30 4078 C 373.579 0.632538 -4.19761 0
M  V30 4079 C 371.486 -1.06713 -5.81693 0
M  V30 4080 H 370.416 0.0215349 -0.753692 0
M  V30 4081 H 373.067 -0.638577 -1.7203 0
M  V30 4082 H 371.449 0.885681 -3.85969 0
M  V30 4083 H 372.623 -1.9562 -4.17216 0
M  V30 4084 H 370.938 -1.62321 -3.83459 0
M  V30 4085 H 373.535 0.743833 -5.29501 0
M  V30 4086 H 373.878 1.63098 -3.83021 0
M  V30 4087 H 374.411 -0.0613987 -3.97753 0
M  V30 4088 H 371.15 -2.03979 -6.22955 0
M  V30 4089 H 370.67 -0.344307 -5.98811 0
M  V30 4090 H 372.349 -0.745208 -6.42694 0
M  V30 4091 N 372.481 1.55866 -0.233164 0
M  V30 4092 C 373.411 2.23783 0.666599 0
M  V30 4093 C 374.392 1.21343 1.19205 0
M  V30 4094 O 375.577 1.4996 1.23392 0
M  V30 4095 C 372.707 2.92671 1.86978 0
M  V30 4096 C 371.661 4.01682 1.47768 0
M  V30 4097 C 370.987 4.57926 2.76058 0
M  V30 4098 C 372.287 5.18126 0.658993 0
M  V30 4099 H 373.981 2.99232 0.100306 0
M  V30 4100 H 371.527 1.43924 0.046804 0
M  V30 4101 H 373.48 3.3888 2.50476 0
M  V30 4102 H 372.204 2.14688 2.46123 0
M  V30 4103 H 370.863 3.56222 0.866106 0
M  V30 4104 H 370.511 3.76659 3.33372 0
M  V30 4105 H 370.211 5.31505 2.50552 0
M  V30 4106 H 371.735 5.06859 3.40479 0
M  V30 4107 H 373.149 5.60644 1.19795 0
M  V30 4108 H 371.546 5.98009 0.500552 0
M  V30 4109 H 372.616 4.83763 -0.331856 0
M  V30 4110 N 373.959 -0.0401083 1.57549 0
M  V30 4111 C 374.869 -1.06133 2.0922 0
M  V30 4112 C 375.885 -1.40356 1.0284 0
M  V30 4113 O 377.061 -1.49897 1.34509 0
M  V30 4114 C 374.126 -2.34658 2.55218 0
M  V30 4115 C 373.187 -2.07117 3.76033 0
M  V30 4116 C 372.42 -3.29514 4.19829 0
M  V30 4117 O 372.643 -4.39794 3.63232 0
M  V30 4118 O 371.577 -3.15863 5.12362 0
M  V30 4119 H 375.403 -0.652244 2.96613 0
M  V30 4120 H 372.988 -0.256368 1.47184 0
M  V30 4121 H 374.87 -3.10239 2.85184 0
M  V30 4122 H 373.545 -2.74883 1.70941 0
M  V30 4123 H 372.452 -1.29139 3.51104 0
M  V30 4124 H 373.785 -1.71754 4.61261 0
M  V30 4125 N 375.437 -1.54477 -0.31217 0
M  V30 4126 C 376.384 -1.84655 -1.38461 0
M  V30 4127 C 377.354 -0.694536 -1.50882 0
M  V30 4128 O 378.539 -0.942081 -1.6592 0
M  V30 4129 C 375.679 -2.0896 -2.74645 0
M  V30 4130 C 374.792 -3.36618 -2.70763 0
M  V30 4131 C 373.927 -3.50824 -3.98868 0
M  V30 4132 C 372.966 -4.72315 -3.89339 0
M  V30 4133 N 372.103 -4.83387 -5.09197 0
M  V30 4134 H 376.943 -2.76142 -1.12026 0
M  V30 4135 H 374.48 -1.36748 -0.542065 0
M  V30 4136 H 376.438 -2.21045 -3.53829 0
M  V30 4137 H 375.068 -1.20752 -2.99364 0
M  V30 4138 H 374.12 -3.33211 -1.83506 0
M  V30 4139 H 375.432 -4.25917 -2.59608 0
M  V30 4140 H 374.586 -3.62513 -4.86486 0
M  V30 4141 H 373.325 -2.59638 -4.12843 0
M  V30 4142 H 372.33 -4.6067 -3.00105 0
M  V30 4143 H 373.555 -5.64897 -3.76919 0
M  V30 4144 H 371.501 -3.9512 -5.23657 0
M  V30 4145 H 371.418 -5.66669 -5.00422 0
M  V30 4146 H 372.686 -4.9942 -5.98498 0
M  V30 4147 N 376.915 0.57481 -1.46744 0
M  V30 4148 C 378.163 1.33009 -1.52161 0
M  V30 4149 C 378.484 1.94185 -0.178092 0
M  V30 4150 O 377.754 1.7899 0.796196 0
M  V30 4151 H 376.334 0.493873 -0.560445 0
M  V30 4152 H 378.996 0.672589 -1.82927 0
M  V30 4153 H 378.092 2.13273 -2.27862 0
M  V30 4154 N 378.394 1.34581 0.820102 0
M  V30 4155 C 379.641 1.27096 1.57648 0
M  V30 4156 C 379.969 -0.158317 1.93855 0
M  V30 4157 O 379.224 -1.12028 1.60463 0
M  V30 4158 C 379.523 2.10997 2.8847 0
M  V30 4159 C 379.189 3.59966 2.71543 0
M  V30 4160 C 377.851 4.00575 2.66634 0
M  V30 4161 C 380.203 4.54548 2.55021 0
M  V30 4162 C 377.531 5.33953 2.43128 0
M  V30 4163 C 379.883 5.88109 2.33047 0
M  V30 4164 C 378.547 6.27878 2.26552 0
M  V30 4165 H 377.817 0.465078 0.576874 0
M  V30 4166 H 380.464 1.6635 0.948671 0
M  V30 4167 H 378.769 1.6458 3.55557 0
M  V30 4168 H 380.466 2.0255 3.46084 0
M  V30 4169 H 377.056 3.27733 2.76205 0
M  V30 4170 H 381.24 4.24069 2.57835 0
M  V30 4171 H 376.496 5.63781 2.3656 0
M  V30 4172 H 380.67 6.60985 2.19251 0
M  V30 4173 H 378.297 7.31162 2.081 0
M  V30 4174 N 379.872 -1.04064 1.18357 0
M  V30 4175 C 381.121 -1.76662 0.973313 0
M  V30 4176 C 381.434 -1.89154 -0.497991 0
M  V30 4177 O 382.64 -2.58606 -0.826762 0
M  V30 4178 C 381.096 -3.17624 1.69242 0
M  V30 4179 C 380.704 -3.13225 3.20303 0
M  V30 4180 C 382.448 -3.946 1.56497 0
M  V30 4181 C 380.355 -4.49046 3.84853 0
M  V30 4182 H 379.285 -0.662214 0.36054 0
M  V30 4183 H 381.936 -1.16553 1.41731 0
M  V30 4184 H 380.318 -3.78129 1.1762 0
M  V30 4185 H 381.492 -2.62172 3.78949 0
M  V30 4186 H 379.807 -2.49749 3.33189 0
M  V30 4187 H 382.404 -4.95042 2.02084 0
M  V30 4188 H 382.747 -4.13074 0.517243 0
M  V30 4189 H 383.28 -3.4067 2.05399 0
M  V30 4190 H 380.019 -4.35777 4.89672 0
M  V30 4191 H 379.539 -5.00203 3.30994 0
M  V30 4192 H 381.218 -5.17961 3.87718 0
M  V30 4193 N 381.35 -0.985608 -1.22978 0
M  V30 4194 C 382.313 -0.535071 -2.22867 0
M  V30 4195 C 383.313 0.378123 -1.56291 0
M  V30 4196 O 384.503 0.171092 -1.73358 0
M  V30 4197 C 381.635 0.222702 -3.40172 0
M  V30 4198 H 382.828 -1.41835 -2.6424 0
M  V30 4199 H 380.381 -0.772042 -1.35901 0
M  V30 4200 H 381.116 1.12229 -3.04262 0
M  V30 4201 H 380.901 -0.43288 -3.89703 0
M  V30 4202 H 382.391 0.526335 -4.1427 0
M  V30 4203 N 382.828 1.3818 -0.7579 0
M  V30 4204 C 383.775 2.30416 -0.133057 0
M  V30 4205 C 384.745 1.50398 0.704957 0
M  V30 4206 O 385.93 1.79014 0.660192 0
M  V30 4207 C 383.07 3.36834 0.750813 0
M  V30 4208 C 382.183 4.31879 -0.102297 0
M  V30 4209 C 381.318 5.25368 0.784979 0
M  V30 4210 C 380.357 6.12058 -0.0715046 0
M  V30 4211 N 379.494 6.97832 0.772972 0
M  V30 4212 H 384.334 2.83274 -0.925186 0
M  V30 4213 H 381.871 1.39461 -0.467866 0
M  V30 4214 H 383.829 3.97145 1.27794 0
M  V30 4215 H 382.459 2.85374 1.50868 0
M  V30 4216 H 381.511 3.72991 -0.747095 0
M  V30 4217 H 382.823 4.92921 -0.763552 0
M  V30 4218 H 381.977 5.90818 1.37911 0
M  V30 4219 H 380.716 4.64703 1.47996 0
M  V30 4220 H 379.721 5.456 -0.678272 0
M  V30 4221 H 380.946 6.74793 -0.763606 0
M  V30 4222 H 378.892 6.3971 1.45282 0
M  V30 4223 H 378.809 7.55812 0.168709 0
M  V30 4224 H 380.077 7.67687 1.35194 0
M  V30 4225 N 384.306 0.507319 1.49211 0
M  V30 4226 C 385.722 0.163682 1.58758 0
M  V30 4227 C 385.922 -1.33208 1.51188 0
M  V30 4228 O 384.978 -2.10855 1.38911 0
M  V30 4229 C 386.291 0.746095 2.91297 0
M  V30 4230 C 387.839 0.712773 3.04776 0
M  V30 4231 C 388.314 1.27336 4.39943 0
M  V30 4232 N 389.805 1.23433 4.46451 0
M  V30 4233 C 390.54 1.63821 5.495 0
M  V30 4234 N 390.036 2.11832 6.5962 0
M  V30 4235 N 391.829 1.55198 5.4025 0
M  V30 4236 H 383.98 1.47972 1.52375 0
M  V30 4237 H 386.243 0.614147 0.722168 0
M  V30 4238 H 385.949 1.79534 3.02424 0
M  V30 4239 H 385.823 0.210137 3.76614 0
M  V30 4240 H 388.21 -0.327656 2.93275 0
M  V30 4241 H 388.291 1.28595 2.21127 0
M  V30 4242 H 387.935 2.3126 4.52196 0
M  V30 4243 H 387.865 0.676066 5.22242 0
M  V30 4244 H 390.356 0.882627 3.67448 0
M  V30 4245 H 390.669 2.40703 7.34358 0
M  V30 4246 H 389.014 2.1581 6.60644 0
M  V30 4247 H 392.205 1.17505 4.53112 0
M  V30 4248 H 392.378 1.86997 6.20432 0
M  V30 4249 N 385.784 -1.5574 0.241426 0
M  V30 4250 C 387.033 -1.97986 -0.385295 0
M  V30 4251 C 387.346 -1.13267 -1.59468 0
M  V30 4252 O 388.552 -1.45501 -2.2922 0
M  V30 4253 C 387.008 -3.52275 -0.736884 0
M  V30 4254 C 386.616 -4.45726 0.450796 0
M  V30 4255 C 388.36 -4.03189 -1.3281 0
M  V30 4256 C 386.267 -5.91352 0.0756662 0
M  V30 4257 H 385.197 -0.739386 -0.147731 0
M  V30 4258 H 387.848 -1.80308 0.340779 0
M  V30 4259 H 386.23 -3.65628 -1.52094 0
M  V30 4260 H 387.404 -4.44131 1.22819 0
M  V30 4261 H 385.719 -4.05264 0.956573 0
M  V30 4262 H 388.316 -5.09505 -1.62201 0
M  V30 4263 H 388.659 -3.50212 -2.25071 0
M  V30 4264 H 389.192 -3.93141 -0.607069 0
M  V30 4265 H 385.931 -6.48354 0.965272 0
M  V30 4266 H 385.451 -5.96095 -0.665635 0
M  V30 4267 H 387.13 -6.46084 -0.344075 0
M  V30 4268 N 387.262 0.0317525 -1.57568 0
M  V30 4269 C 388.172 1.05021 -2.0978 0
M  V30 4270 C 389.188 1.39809 -1.03583 0
M  V30 4271 O 390.364 1.49182 -1.35302 0
M  V30 4272 C 387.429 2.33301 -2.56459 0
M  V30 4273 C 386.49 2.0512 -3.77127 0
M  V30 4274 C 385.723 3.27283 -4.2157 0
M  V30 4275 O 385.946 4.37861 -3.65559 0
M  V30 4276 O 384.88 3.13141 -5.14029 0
M  V30 4277 H 388.706 0.636505 -2.96955 0
M  V30 4278 H 386.291 0.248559 -1.47318 0
M  V30 4279 H 388.173 3.08722 -2.86825 0
M  V30 4280 H 386.848 2.73973 -1.72397 0
M  V30 4281 H 385.755 1.27276 -3.51784 0
M  V30 4282 H 387.088 1.69305 -4.62165 0
M  V30 4283 N 388.74 1.54641 0.303973 0
M  V30 4284 C 389.687 1.85386 1.37479 0
M  V30 4285 C 390.657 0.702528 1.50512 0
M  V30 4286 O 391.842 0.950867 1.65418 0
M  V30 4287 C 388.982 2.10413 2.73533 0
M  V30 4288 C 388.095 3.38049 2.68974 0
M  V30 4289 C 387.23 3.52934 3.97002 0
M  V30 4290 C 386.269 4.74373 3.86829 0
M  V30 4291 N 385.406 4.8608 5.06627 0
M  V30 4292 H 390.246 2.76732 1.1056 0
M  V30 4293 H 387.783 1.37034 0.534805 0
M  V30 4294 H 389.741 2.22919 3.52652 0
M  V30 4295 H 388.371 1.22338 2.98719 0
M  V30 4296 H 387.423 3.3418 1.81736 0
M  V30 4297 H 388.735 4.27288 2.57346 0
M  V30 4298 H 387.889 3.65088 4.84557 0
M  V30 4299 H 386.628 2.61824 4.1146 0
M  V30 4300 H 385.633 4.62255 2.97658 0
M  V30 4301 H 386.858 5.66888 3.73918 0
M  V30 4302 H 384.804 3.97891 5.21554 0
M  V30 4303 H 384.721 5.69315 4.9741 0
M  V30 4304 H 385.989 5.02587 5.95841 0
M  V30 4305 N 390.218 -0.567019 1.47046 0
M  V30 4306 C 391.465 -1.32462 1.53167 0
M  V30 4307 C 391.793 -1.93571 0.189841 0
M  V30 4308 O 391.048 -1.77865 -0.816243 0
M  V30 4309 C 391.347 -2.4623 2.59047 0
M  V30 4310 C 391.013 -2.03014 4.02612 0
M  V30 4311 C 389.675 -1.90944 4.41694 0
M  V30 4312 C 392.027 -1.69895 4.92732 0
M  V30 4313 C 389.355 -1.44035 5.68745 0
M  V30 4314 C 391.707 -1.2446 6.20236 0
M  V30 4315 C 390.371 -1.10979 6.5821 0
M  V30 4316 H 389.641 -0.484713 0.560477 0
M  V30 4317 H 392.288 -0.636888 1.80599 0
M  V30 4318 H 390.593 -3.20517 2.25335 0
M  V30 4319 H 392.29 -3.04427 2.61008 0
M  V30 4320 H 388.88 -2.13348 3.71726 0
M  V30 4321 H 393.064 -1.78098 4.63244 0
M  V30 4322 H 388.32 -1.32254 5.96925 0
M  V30 4323 H 392.494 -0.978924 6.89485 0
M  V30 4324 H 390.121 -0.744078 7.5655 0
M  V30 4325 N 391.696 -1.35014 -0.812953 0
M  V30 4326 C 392.626 -1.30069 -1.93919 0
M  V30 4327 C 393.607 -0.176275 -1.69184 0
M  V30 4328 O 394.792 -0.370227 -1.90638 0
M  V30 4329 C 391.922 -1.06547 -3.30552 0
M  V30 4330 C 390.876 -2.15561 -3.69753 0
M  V30 4331 C 390.202 -1.77214 -5.04479 0
M  V30 4332 C 391.502 -3.57476 -3.808 0
M  V30 4333 H 393.196 -2.24303 -1.98314 0
M  V30 4334 H 390.742 -1.07977 -0.952736 0
M  V30 4335 H 392.695 -1.01729 -4.08937 0
M  V30 4336 H 391.419 -0.0875719 -3.26483 0
M  V30 4337 H 390.078 -2.19466 -2.9365 0
M  V30 4338 H 389.726 -0.780589 -4.96906 0
M  V30 4339 H 389.426 -2.50184 -5.31678 0
M  V30 4340 H 390.95 -1.7391 -5.8531 0
M  V30 4341 H 392.364 -3.55929 -4.4943 0
M  V30 4342 H 390.761 -4.29152 -4.19462 0
M  V30 4343 H 391.831 -3.94091 -2.82525 0
M  V30 4344 N 393.175 1.03435 -1.18907 0
M  V30 4345 C 394.4 1.80919 -1.01406 0
M  V30 4346 C 394.825 1.83055 0.432721 0
M  V30 4347 O 394.183 1.25252 1.31079 0
M  V30 4348 C 394.231 3.24091 -1.58105 0
M  V30 4349 O 393.335 4.04434 -0.806669 0
M  V30 4350 H 392.676 0.558709 -0.358803 0
M  V30 4351 H 395.206 1.30223 -1.57807 0
M  V30 4352 H 395.216 3.74853 -1.61087 0
M  V30 4353 H 393.891 3.21851 -2.6341 0
M  V30 4354 H 392.468 3.63091 -0.849666 0
M  V30 4355 N 394.653 0.992116 1.22453 0
M  V30 4356 C 396.064 0.702776 1.72968 0
M  V30 4357 C 396.415 -0.780399 1.80012 0
M  V30 4358 O 395.54 -1.61007 1.44589 0
M  V30 4359 C 396.135 1.26903 3.14135 0
M  V30 4360 C 394.694 1.02909 3.62059 0
M  V30 4361 C 393.841 1.38969 2.39964 0
M  V30 4362 H 396.792 1.16457 1.07812 0
M  V30 4363 H 396.813 0.647223 3.74955 0
M  V30 4364 H 396.325 2.34851 3.08977 0
M  V30 4365 H 394.426 -0.0337979 3.72585 0
M  V30 4366 H 394.539 1.69191 4.48231 0
M  V30 4367 H 392.903 0.808279 2.41535 0
M  V30 4368 H 393.686 2.4792 2.37467 0
M  V30 4369 N 396.131 -1.37776 0.765217 0
M  V30 4370 C 397.063 -2.28958 0.105361 0
M  V30 4371 C 398.076 -1.48316 -0.67128 0
M  V30 4372 O 399.265 -1.71046 -0.51045 0
M  V30 4373 C 396.365 -3.27421 -0.874569 0
M  V30 4374 C 395.538 -4.37132 -0.153123 0
M  V30 4375 C 394.597 -5.1571 -1.04547 0
M  V30 4376 O 393.623 -5.66896 -0.511672 0
M  V30 4377 N 394.825 -5.29808 -2.37243 0
M  V30 4378 H 397.59 -2.86227 0.888495 0
M  V30 4379 H 395.151 -1.49682 0.617 0
M  V30 4380 H 397.143 -3.7687 -1.47483 0
M  V30 4381 H 395.713 -2.70967 -1.55871 0
M  V30 4382 H 394.933 -3.89166 0.627975 0
M  V30 4383 H 396.221 -5.07625 0.345643 0
M  V30 4384 H 395.619 -4.89793 -2.83054 0
M  V30 4385 H 394.176 -5.82589 -2.9229 0
M  V30 4386 N 397.609 -0.515225 -1.4894 0
M  V30 4387 C 398.539 0.244628 -2.32215 0
M  V30 4388 C 399.52 0.949136 -1.41157 0
M  V30 4389 O 400.705 0.937783 -1.70057 0
M  V30 4390 C 397.835 1.30096 -3.22013 0
M  V30 4391 C 396.789 0.715486 -4.21977 0
M  V30 4392 C 396.115 1.87339 -5.00808 0
M  V30 4393 C 397.415 -0.302982 -5.2142 0
M  V30 4394 H 399.109 -0.450501 -2.95991 0
M  V30 4395 H 396.655 -0.218098 -1.42339 0
M  V30 4396 H 398.608 1.84037 -3.79089 0
M  V30 4397 H 397.332 2.02547 -2.56207 0
M  V30 4398 H 395.991 0.197715 -3.66066 0
M  V30 4399 H 395.639 2.58592 -4.31438 0
M  V30 4400 H 395.339 1.48764 -5.68457 0
M  V30 4401 H 396.863 2.41686 -5.60732 0
M  V30 4402 H 398.277 0.148802 -5.73107 0
M  V30 4403 H 396.674 -0.60532 -5.97039 0
M  V30 4404 H 397.744 -1.21395 -4.69459 0
M  V30 4405 N 399.087 1.5561 -0.249682 0
M  V30 4406 C 400.336 1.98187 0.37479 0
M  V30 4407 C 400.649 1.14111 1.58865 0
M  V30 4408 O 401.855 1.46714 2.28445 0
M  V30 4409 C 400.311 3.52661 0.718192 0
M  V30 4410 C 399.919 4.45481 -0.474428 0
M  V30 4411 C 401.663 4.03888 1.3067 0
M  V30 4412 C 399.57 5.91303 -0.107026 0
M  V30 4413 H 398.5 0.740159 0.143808 0
M  V30 4414 H 401.151 1.80125 -0.350336 0
M  V30 4415 H 399.533 3.66429 1.50152 0
M  V30 4416 H 400.707 4.43473 -1.25172 0
M  V30 4417 H 399.022 4.04751 -0.978052 0
M  V30 4418 H 401.619 5.10358 1.59496 0
M  V30 4419 H 401.962 3.51401 2.23211 0
M  V30 4420 H 402.495 3.93457 0.586211 0
M  V30 4421 H 399.234 6.47833 -0.999642 0
M  V30 4422 H 398.754 5.9644 0.634013 0
M  V30 4423 H 400.433 6.46258 0.309807 0
M  V30 4424 N 400.565 -0.0233959 1.57583 0
M  V30 4425 C 401.528 -1.00693 2.05897 0
M  V30 4426 C 402.528 -1.28693 0.964092 0
M  V30 4427 O 403.718 -1.23602 1.22753 0
M  V30 4428 C 400.85 -2.33825 2.4807 0
M  V30 4429 H 402.043 -0.589476 2.9405 0
M  V30 4430 H 399.596 -0.270354 1.53944 0
M  V30 4431 H 400.331 -2.80307 1.6309 0
M  V30 4432 H 400.116 -2.1483 3.2801 0
M  V30 4433 H 401.606 -3.04426 2.85857 0
M  V30 4434 N 402.043 -1.548 -0.295768 0
M  V30 4435 C 402.953 -1.89177 -1.38742 0
M  V30 4436 C 403.969 -0.786481 -1.55211 0
M  V30 4437 O 405.145 -1.08344 -1.69775 0
M  V30 4438 C 402.21 -2.13663 -2.73036 0
M  V30 4439 C 401.271 -3.37349 -2.65508 0
M  V30 4440 C 400.504 -3.60658 -3.93398 0
M  V30 4441 O 400.727 -2.86882 -4.93006 0
M  V30 4442 O 399.661 -4.54179 -3.94975 0
M  V30 4443 H 403.487 -2.82059 -1.12589 0
M  V30 4444 H 401.072 -1.41056 -0.492295 0
M  V30 4445 H 402.954 -2.3094 -3.52484 0
M  V30 4446 H 401.629 -1.23967 -2.99022 0
M  V30 4447 H 400.536 -3.25431 -1.84514 0
M  V30 4448 H 401.869 -4.27192 -2.44474 0
M  V30 4449 N 403.521 0.559213 -1.47345 0
M  V30 4450 C 404.431 1.69388 -1.62311 0
M  V30 4451 C 405.447 1.6648 -0.505993 0
M  V30 4452 O 406.623 1.85964 -0.773262 0
M  V30 4453 C 403.688 3.05894 -1.63185 0
M  V30 4454 C 402.749 3.19885 -2.86307 0
M  V30 4455 C 401.982 4.49879 -2.87131 0
M  V30 4456 O 402.205 5.35217 -1.97229 0
M  V30 4457 O 401.139 4.67618 -3.78968 0
M  V30 4458 H 404.965 1.59706 -2.58317 0
M  V30 4459 H 402.55 0.728989 -1.30407 0
M  V30 4460 H 404.432 3.87133 -1.66451 0
M  V30 4461 H 403.107 3.15964 -0.70345 0
M  V30 4462 H 402.014 2.38052 -2.88587 0
M  V30 4463 H 403.347 3.14718 -3.78435 0
M  V30 4464 N 404.999 1.35443 0.805782 0
M  V30 4465 C 406.246 1.28761 1.56291 0
M  V30 4466 C 406.574 -0.137747 1.94012 0
M  V30 4467 O 405.829 -1.1032 1.61642 0
M  V30 4468 C 406.128 2.14045 2.86216 0
M  V30 4469 C 405.794 3.62826 2.67709 0
M  V30 4470 C 404.456 4.0338 2.6237 0
M  V30 4471 C 406.808 4.57227 2.50186 0
M  V30 4472 C 404.136 5.36501 2.37451 0
M  V30 4473 C 406.488 5.90547 2.26797 0
M  V30 4474 C 405.152 6.30245 2.1988 0
M  V30 4475 H 404.422 0.471171 0.571908 0
M  V30 4476 H 407.069 1.67347 0.930974 0
M  V30 4477 H 405.374 1.68342 3.53791 0
M  V30 4478 H 407.071 2.0621 3.43917 0
M  V30 4479 H 403.661 3.30644 2.72713 0
M  V30 4480 H 407.845 4.2678 2.53323 0
M  V30 4481 H 403.101 5.66259 2.30567 0
M  V30 4482 H 407.275 6.63274 2.12228 0
M  V30 4483 H 404.902 7.33328 2.00333 0
M  V30 4484 N 406.477 -1.02803 1.19454 0
M  V30 4485 C 407.717 -1.77769 1.00883 0
M  V30 4486 C 408.081 -1.86596 -0.45233 0
M  V30 4487 O 409.282 -2.57895 -0.757877 0
M  V30 4488 C 407.553 -3.16486 1.66046 0
M  V30 4489 S 409.112 -4.07632 1.62424 0
M  V30 4490 H 405.93 -0.611949 0.361993 0
M  V30 4491 H 408.532 -1.23175 1.51816 0
M  V30 4492 H 407.236 -3.0768 2.7159 0
M  V30 4493 H 406.767 -3.76156 1.15196 0
M  V30 4494 H 408.782 -4.91937 0.64903 0
M  V30 4495 N 407.956 -0.998596 -1.21925 0
M  V30 4496 C 408.886 -0.573688 -2.26343 0
M  V30 4497 C 409.867 0.402296 -1.65274 0
M  V30 4498 O 411.052 0.291683 -1.91997 0
M  V30 4499 C 408.182 0.106839 -3.47136 0
M  V30 4500 C 407.136 -0.788269 -4.20678 0
M  V30 4501 C 406.462 0.0254927 -5.34694 0
M  V30 4502 C 407.762 -2.08784 -4.78755 0
M  V30 4503 H 409.456 -1.44651 -2.62138 0
M  V30 4504 H 407.002 -0.696975 -1.26009 0
M  V30 4505 H 408.955 0.415531 -4.19346 0
M  V30 4506 H 407.679 1.01424 -3.10452 0
M  V30 4507 H 406.338 -1.08069 -3.50309 0
M  V30 4508 H 405.986 0.933989 -4.94253 0
M  V30 4509 H 405.686 -0.570437 -5.84825 0
M  V30 4510 H 407.21 0.328147 -6.09718 0
M  V30 4511 H 408.624 -1.84272 -5.42878 0
M  V30 4512 H 407.021 -2.63307 -5.39249 0
M  V30 4513 H 408.091 -2.76284 -3.98491 0
M  V30 4514 N 409.434 1.37368 -0.772513 0
M  V30 4515 C 410.381 2.30262 -0.157488 0
M  V30 4516 C 411.351 1.51137 0.688965 0
M  V30 4517 O 412.536 1.79704 0.641168 0
M  V30 4518 C 409.676 3.37611 0.715045 0
M  V30 4519 C 408.789 4.31746 -0.148098 0
M  V30 4520 C 407.924 5.26171 0.729213 0
M  V30 4521 C 406.963 6.11948 -0.136418 0
M  V30 4522 N 406.1 6.98613 0.698914 0
M  V30 4523 H 410.94 2.82277 -0.955179 0
M  V30 4524 H 408.477 1.38957 -0.482631 0
M  V30 4525 H 410.435 3.98479 1.23575 0
M  V30 4526 H 409.065 2.86959 1.47833 0
M  V30 4527 H 408.117 3.72178 -0.786613 0
M  V30 4528 H 409.429 4.92084 -0.81579 0
M  V30 4529 H 408.583 5.92247 1.31637 0
M  V30 4530 H 407.322 4.66246 1.43059 0
M  V30 4531 H 406.327 5.4485 -0.736102 0
M  V30 4532 H 407.552 6.73945 -0.835134 0
M  V30 4533 H 405.498 6.41215 1.38489 0
M  V30 4534 H 405.415 7.55948 0.0885358 0
M  V30 4535 H 406.683 7.69077 1.27044 0
M  V30 4536 N 410.912 0.523116 1.48665 0
M  V30 4537 C 412.14 -0.0096312 2.06898 0
M  V30 4538 C 412.555 -1.28784 1.38059 0
M  V30 4539 O 411.912 -1.76453 0.465893 0
M  V30 4540 C 411.963 -0.244386 3.60673 0
M  V30 4541 O 411.684 0.983172 4.26925 0
M  V30 4542 C 413.185 -0.818289 4.35682 0
M  V30 4543 H 410.405 0.0304161 0.67031 0
M  V30 4544 H 412.949 0.726799 1.91149 0
M  V30 4545 H 411.104 -0.930847 3.76051 0
M  V30 4546 H 411.518 0.759653 5.1897 0
M  V30 4547 H 412.992 -0.93201 5.44075 0
M  V30 4548 H 413.469 -1.82153 3.99646 0
M  V30 4549 H 414.075 -0.168609 4.24966 0
M  V30 4550 N 412.39 -1.55475 0.257931 0
M  V30 4551 C 413.637 -1.99207 -0.363728 0
M  V30 4552 C 413.965 -1.1462 -1.57139 0
M  V30 4553 O 413.22 -0.199653 -1.94679 0
M  V30 4554 C 413.519 -3.48183 -0.806433 0
M  V30 4555 C 413.185 -4.49936 0.294684 0
M  V30 4556 C 411.847 -4.77481 0.597076 0
M  V30 4557 C 414.199 -5.10769 1.03751 0
M  V30 4558 C 411.527 -5.63132 1.64618 0
M  V30 4559 C 413.879 -5.97558 2.07622 0
M  V30 4560 C 412.543 -6.23432 2.38514 0
M  V30 4561 H 411.813 -0.728949 -0.133097 0
M  V30 4562 H 414.46 -1.8793 0.368059 0
M  V30 4563 H 412.765 -3.56848 -1.61761 0
M  V30 4564 H 414.462 -3.79415 -1.29789 0
M  V30 4565 H 411.052 -4.28572 0.0488649 0
M  V30 4566 H 415.236 -4.89527 0.817149 0
M  V30 4567 H 410.492 -5.8143 1.89074 0
M  V30 4568 H 414.666 -6.43735 2.65666 0
M  V30 4569 H 412.293 -6.89594 3.19943 0
M  V30 4570 N 413.868 0.0150385 -1.57593 0
M  V30 4571 C 415.093 0.718067 -1.94573 0
M  V30 4572 C 415.518 1.6734 -0.859005 0
M  V30 4573 O 414.876 1.80362 0.184147 0
M  V30 4574 C 414.924 1.43918 -3.30636 0
M  V30 4575 O 414.028 2.55299 -3.23876 0
M  V30 4576 H 413.369 0.192125 -0.635597 0
M  V30 4577 H 415.899 -0.0336708 -2.04572 0
M  V30 4578 H 415.909 1.80598 -3.65853 0
M  V30 4579 H 414.584 0.738619 -4.09289 0
M  V30 4580 H 413.161 2.21058 -3.00312 0
M  V30 4581 N 415.346 1.54954 0.287554 0
M  V30 4582 C 416.293 1.86834 1.35505 0
M  V30 4583 C 417.263 0.718452 1.49758 0
M  V30 4584 O 418.448 0.968358 1.644 0
M  V30 4585 C 415.588 2.13303 2.71286 0
M  V30 4586 C 414.701 3.40883 2.65373 0
M  V30 4587 C 413.836 3.57125 3.93236 0
M  V30 4588 C 412.875 4.78449 3.81776 0
M  V30 4589 N 412.012 4.91426 5.01443 0
M  V30 4590 H 416.852 2.77889 1.07619 0
M  V30 4591 H 414.389 1.37593 0.520241 0
M  V30 4592 H 416.347 2.26646 3.50267 0
M  V30 4593 H 414.977 1.25499 2.97405 0
M  V30 4594 H 414.029 3.36088 1.78182 0
M  V30 4595 H 415.341 4.29993 2.52799 0
M  V30 4596 H 414.495 3.70207 4.80658 0
M  V30 4597 H 413.234 2.66173 4.0866 0
M  V30 4598 H 412.239 4.65386 2.92738 0
M  V30 4599 H 413.464 5.70822 3.67884 0
M  V30 4600 H 411.41 4.03401 5.17304 0
M  V30 4601 H 411.327 5.74559 4.91343 0
M  V30 4602 H 412.595 5.08879 5.90477 0
M  V30 4603 N 416.824 -0.551391 1.4764 0
M  V30 4604 C 418.071 -1.3083 1.54563 0
M  V30 4605 C 418.399 -1.93359 0.210361 0
M  V30 4606 O 417.654 -1.78721 -0.797332 0
M  V30 4607 C 417.953 -2.43469 2.61644 0
M  V30 4608 C 417.619 -1.98732 4.04742 0
M  V30 4609 C 416.281 -1.86248 4.43695 0
M  V30 4610 C 418.633 -1.64659 4.94507 0
M  V30 4611 C 415.961 -1.37995 5.70241 0
M  V30 4612 C 418.313 -1.17875 6.21521 0
M  V30 4613 C 416.977 -1.03992 6.5935 0
M  V30 4614 H 416.247 -0.478741 0.565587 0
M  V30 4615 H 418.894 -0.617697 1.81264 0
M  V30 4616 H 417.199 -3.18109 2.28722 0
M  V30 4617 H 418.896 -3.01642 2.64222 0
M  V30 4618 H 415.486 -2.09393 3.73968 0
M  V30 4619 H 419.67 -1.73174 4.65107 0
M  V30 4620 H 414.926 -1.25915 5.98294 0
M  V30 4621 H 419.1 -0.905739 6.90485 0
M  V30 4622 H 416.727 -0.663794 7.57296 0
M  V30 4623 N 418.302 -1.35869 -0.798587 0
M  V30 4624 C 419.55 -1.29332 -1.55298 0
M  V30 4625 C 419.871 0.129729 -1.94568 0
M  V30 4626 O 419.141 1.06796 -1.6423 0
M  V30 4627 H 417.721 -0.475737 -0.57592 0
M  V30 4628 H 420.383 -1.70062 -0.952093 0
M  V30 4629 H 419.479 -1.91458 -2.46476 0
M  V30 4630 N 419.78 1.02168 -1.19998 0
M  V30 4631 C 421.005 1.79833 -1.03319 0
M  V30 4632 C 421.43 1.83504 0.413281 0
M  V30 4633 O 420.788 1.26635 1.29743 0
M  V30 4634 C 420.836 3.22396 -1.61533 0
M  V30 4635 O 419.94 4.03555 -0.849519 0
M  V30 4636 H 419.281 0.554872 -0.364709 0
M  V30 4637 H 421.811 1.28542 -1.59179 0
M  V30 4638 H 421.821 3.73124 -1.65054 0
M  V30 4639 H 420.496 3.19039 -2.66809 0
M  V30 4640 H 419.073 3.62169 -0.888129 0
M  V30 4641 N 421.258 1.00505 1.21394 0
M  V30 4642 C 422.19 0.52372 2.23136 0
M  V30 4643 C 423.203 -0.387714 1.58116 0
M  V30 4644 O 424.392 -0.187905 1.77508 0
M  V30 4645 C 421.492 -0.258885 3.3791 0
M  V30 4646 C 420.665 0.651634 4.32519 0
M  V30 4647 C 419.724 -0.0813705 5.26137 0
M  V30 4648 O 418.75 0.537295 5.66658 0
M  V30 4649 N 419.952 -1.35992 5.64346 0
M  V30 4650 H 422.717 1.39865 2.65062 0
M  V30 4651 H 420.278 0.881196 1.35818 0
M  V30 4652 H 422.27 -0.758208 3.97534 0
M  V30 4653 H 420.84 -1.035 2.94968 0
M  V30 4654 H 420.06 1.33145 3.71034 0
M  V30 4655 H 421.348 1.27129 4.92662 0
M  V30 4656 H 420.746 -1.88368 5.33417 0
M  V30 4657 H 419.303 -1.8042 6.26332 0
M  V30 4658 N 422.737 -1.36956 0.779787 0
M  V30 4659 C 424.148 -1.82094 0.412156 0
M  V30 4660 C 424.499 -1.64926 -1.06273 0
M  V30 4661 O 423.624 -1.16483 -1.82375 0
M  V30 4662 C 424.219 -3.3059 0.741319 0
M  V30 4663 C 422.778 -3.73974 0.426641 0
M  V30 4664 C 421.925 -2.59368 0.980987 0
M  V30 4665 H 424.876 -1.25314 0.973758 0
M  V30 4666 H 424.897 -3.80489 0.028887 0
M  V30 4667 H 424.409 -3.43054 1.81482 0
M  V30 4668 H 422.51 -3.67076 -0.639215 0
M  V30 4669 H 422.623 -4.69778 0.940515 0
M  V30 4670 H 420.987 -2.51463 0.404757 0
M  V30 4671 H 421.77 -2.74621 2.06005 0
M  V30 4672 N 424.215 -0.530993 -1.48385 0
M  V30 4673 C 425.464 0.00474348 -2.01699 0
M  V30 4674 C 425.777 1.35227 -1.41325 0
M  V30 4675 O 426.983 1.97643 -1.86144 0
M  V30 4676 C 425.439 0.0588473 -3.59852 0
M  V30 4677 C 425.047 -1.28385 -4.2921 0
M  V30 4678 C 426.791 0.543358 -4.21008 0
M  V30 4679 C 424.698 -1.19028 -5.79298 0
M  V30 4680 H 423.628 0.00554317 -0.75398 0
M  V30 4681 H 426.279 -0.674924 -1.70637 0
M  V30 4682 H 424.661 0.803612 -3.8776 0
M  V30 4683 H 425.835 -2.04426 -4.12973 0
M  V30 4684 H 424.15 -1.70418 -3.7993 0
M  V30 4685 H 426.747 0.631351 -5.3096 0
M  V30 4686 H 427.09 1.54937 -3.86394 0
M  V30 4687 H 427.623 -0.145754 -3.97533 0
M  V30 4688 H 424.362 -2.17147 -6.18488 0
M  V30 4689 H 423.882 -0.471246 -5.97946 0
M  V30 4690 H 425.561 -0.881365 -6.40969 0
M  V30 4691 N 425.693 1.55336 -0.266172 0
M  V30 4692 C 427.104 1.85236 0.233315 0
M  V30 4693 C 427.455 1.18816 1.56132 0
M  V30 4694 O 426.58 0.473307 2.11161 0
M  V30 4695 C 427.175 3.36059 0.430113 0
M  V30 4696 C 425.734 3.66116 0.873842 0
M  V30 4697 C 424.881 2.77274 -0.0380016 0
M  V30 4698 H 427.832 1.51004 -0.488214 0
M  V30 4699 H 427.853 3.58681 1.26998 0
M  V30 4700 H 427.365 3.84373 -0.536588 0
M  V30 4701 H 425.466 3.23295 1.85233 0
M  V30 4702 H 425.579 4.73699 0.717358 0
M  V30 4703 H 423.943 2.50198 0.476759 0
M  V30 4704 H 424.726 3.284 -1.00042 0
M  V30 4705 N 427.171 -0.0066808 1.57599 0
M  V30 4706 C 428.134 -0.985035 2.06953 0
M  V30 4707 C 429.134 -1.27663 0.977687 0
M  V30 4708 O 430.324 -1.22293 1.24057 0
M  V30 4709 C 427.456 -2.3118 2.50536 0
M  V30 4710 H 428.649 -0.558255 2.94658 0
M  V30 4711 H 426.202 -0.254011 1.54222 0
M  V30 4712 H 426.937 -2.78561 1.66054 0
M  V30 4713 H 426.722 -2.11338 3.3027 0
M  V30 4714 H 428.212 -3.01377 2.8907 0
M  V30 4715 N 428.649 -1.55105 -0.279332 0
M  V30 4716 C 429.596 -1.8755 -1.34513 0
M  V30 4717 C 430.566 -0.726384 -1.49375 0
M  V30 4718 O 431.751 -0.977063 -1.63884 0
M  V30 4719 C 428.891 -2.14738 -2.70151 0
M  V30 4720 C 428.004 -3.42285 -2.63562 0
M  V30 4721 C 427.139 -3.59206 -3.91337 0
M  V30 4722 C 426.178 -4.80467 -3.79233 0
M  V30 4723 N 425.315 -4.94079 -4.98829 0
M  V30 4724 H 430.155 -2.78456 -1.06143 0
M  V30 4725 H 427.692 -1.37867 -0.512936 0
M  V30 4726 H 429.65 -2.28501 -3.49061 0
M  V30 4727 H 428.28 -1.27075 -2.96735 0
M  V30 4728 H 427.332 -3.37029 -1.76397 0
M  V30 4729 H 428.644 -4.31328 -2.50515 0
M  V30 4730 H 427.798 -3.72751 -4.78687 0
M  V30 4731 H 426.537 -2.68337 -4.07243 0
M  V30 4732 H 425.542 -4.66932 -2.90266 0
M  V30 4733 H 426.767 -5.72765 -3.64852 0
M  V30 4734 H 424.713 -4.06139 -5.15158 0
M  V30 4735 H 424.63 -5.77156 -4.8829 0
M  V30 4736 H 425.898 -5.12003 -5.8777 0
M  V30 4737 N 430.127 0.543554 -1.4793 0
M  V30 4738 C 431.543 0.870806 -1.3375 0
M  V30 4739 C 431.743 1.9864 -0.338261 0
M  V30 4740 O 430.799 2.51305 0.245371 0
M  V30 4741 C 432.112 1.25114 -2.73435 0
M  V30 4742 C 433.66 1.3618 -2.81823 0
M  V30 4743 C 434.135 1.77563 -4.22179 0
M  V30 4744 N 435.626 1.8469 -4.24787 0
M  V30 4745 C 436.361 2.18067 -5.30315 0
M  V30 4746 N 435.857 2.49963 -6.46135 0
M  V30 4747 N 437.65 2.18958 -5.17701 0
M  V30 4748 H 429.801 -0.19275 -2.11524 0
M  V30 4749 H 432.064 -0.0235777 -0.947707 0
M  V30 4750 H 431.77 0.50514 -3.48053 0
M  V30 4751 H 431.644 2.20431 -3.06088 0
M  V30 4752 H 434.031 2.09859 -2.07468 0
M  V30 4753 H 434.112 0.390169 -2.52807 0
M  V30 4754 H 433.756 1.04449 -4.97044 0
M  V30 4755 H 433.686 2.75753 -4.48629 0
M  V30 4756 H 436.177 1.62372 -3.41239 0
M  V30 4757 H 436.49 2.74497 -7.22406 0
M  V30 4758 H 434.835 2.47513 -6.49432 0
M  V30 4759 H 438.026 1.93488 -4.2624 0
M  V30 4760 H 438.199 2.44639 -6.00047 0
M  V30 4761 N 431.605 1.3629 0.791371 0
M  V30 4762 C 433.016 1.27225 1.36641 0
M  V30 4763 C 433.367 -0.0887968 1.95999 0
M  V30 4764 O 432.492 -0.990207 1.92416 0
M  V30 4765 C 433.087 2.30375 2.48421 0
M  V30 4766 C 431.646 2.25004 3.01746 0
M  V30 4767 C 430.793 2.15259 1.7481 0
M  V30 4768 H 433.744 1.47198 0.593173 0
M  V30 4769 H 433.765 1.93905 3.27385 0
M  V30 4770 H 433.277 3.29422 2.05189 0
M  V30 4771 H 431.378 1.29417 3.49403 0
M  V30 4772 H 431.491 3.1761 3.58693 0
M  V30 4773 H 429.855 1.61482 1.96966 0
M  V30 4774 H 430.638 3.16191 1.33709 0
M  V30 4775 N 433.083 -1.0153 1.20538 0
M  V30 4776 C 434.046 -2.0826 0.957098 0
M  V30 4777 C 435.046 -1.60657 -0.0678655 0
M  V30 4778 O 436.236 -1.73385 0.168332 0
M  V30 4779 C 433.368 -3.38033 0.441188 0
M  V30 4780 H 434.561 -2.31719 1.90384 0
M  V30 4781 H 432.114 -1.1835 1.02093 0
M  V30 4782 H 432.849 -3.20249 -0.510961 0
M  V30 4783 H 432.634 -3.73911 1.18038 0
M  V30 4784 H 434.124 -4.16613 0.287009 0
M  V30 4785 N 434.561 -1.01147 -1.20859 0
M  V30 4786 C 435.786 -0.716698 -1.94623 0
M  V30 4787 C 436.211 0.715415 -1.73964 0
M  V30 4788 O 435.569 1.49157 -1.03062 0
M  V30 4789 C 435.617 -1.0513 -3.44935 0
M  V30 4790 O 434.721 -0.160131 -4.12089 0
M  V30 4791 H 434.062 -0.266404 -0.608214 0
M  V30 4792 H 436.592 -1.35346 -1.53436 0
M  V30 4793 H 436.602 -1.00086 -3.95533 0
M  V30 4794 H 435.277 -2.09475 -3.59295 0
M  V30 4795 H 433.854 -0.267657 -3.71938 0
M  V30 4796 N 436.039 1.36541 -0.78704 0
M  V30 4797 C 437.287 1.98911 -0.357633 0
M  V30 4798 C 437.608 1.62778 1.07371 0
M  V30 4799 O 436.878 0.900612 1.73971 0
M  V30 4800 H 435.458 0.735734 -0.129246 0
M  V30 4801 H 438.12 1.66776 -1.00855 0
M  V30 4802 H 437.216 3.08874 -0.447549 0
M  V30 4803 N 437.518 0.538854 1.48102 0
M  V30 4804 C 438.45 -0.256278 2.27763 0
M  V30 4805 C 439.463 -0.89633 1.35904 0
M  V30 4806 O 440.652 -0.773275 1.60881 0
M  V30 4807 C 437.752 -1.37896 3.09577 0
M  V30 4808 C 436.925 -0.839159 4.29275 0
M  V30 4809 C 435.984 -1.84405 4.9283 0
M  V30 4810 O 435.01 -1.39746 5.51779 0
M  V30 4811 N 436.212 -3.17666 4.85869 0
M  V30 4812 H 438.977 0.426968 2.96643 0
M  V30 4813 H 436.538 0.373747 1.57527 0
M  V30 4814 H 438.53 -2.04955 3.48963 0
M  V30 4815 H 437.1 -1.96572 2.4306 0
M  V30 4816 H 436.32 0.00769287 3.94199 0
M  V30 4817 H 437.608 -0.457548 5.06739 0
M  V30 4818 H 437.006 -3.56609 4.39143 0
M  V30 4819 H 435.563 -3.80334 5.29329 0
M  V30 4820 N 438.996 -1.55193 0.274407 0
M  V30 4821 C 439.944 -2.23924 -0.629362 0
M  V30 4822 C 440.938 -1.23602 -1.1584 0
M  V30 4823 O 442.144 -1.41535 -1.11211 0
M  V30 4824 H 438.519 -0.718637 -0.221507 0
M  V30 4825 H 440.49 -2.98388 -0.0268322 0
M  V30 4826 C 439.239 -2.97329 -1.80252 0
M  V30 4827 H 438.562 -3.74313 -1.40462 0
M  V30 4828 H 440.002 -3.48743 -2.41152 0
M  V30 4829 C 438.461 -2.0276 -2.69054 0
M  V30 4830 O 438.991 -1.57836 -3.69392 0
M  V30 4831 N 437.197 -1.69275 -2.36208 0
M  V30 4832 H 436.744 -2.06004 -1.54661 0
M  V30 4833 H 436.702 -1.06271 -2.95895 0
M  V30 4834 N 440.474 -0.00167713 -1.576 0
M  V30 4835 C 441.699 0.69739 -1.95323 0
M  V30 4836 C 442.124 1.6642 -0.876706 0
M  V30 4837 O 441.482 1.80548 0.165007 0
M  V30 4838 C 441.53 1.40403 -3.32144 0
M  V30 4839 O 440.634 2.5185 -3.26566 0
M  V30 4840 H 439.975 0.185373 -0.637599 0
M  V30 4841 H 442.505 -0.0553665 -2.04525 0
M  V30 4842 H 442.515 1.76707 -3.67748 0
M  V30 4843 H 441.19 0.695167 -4.10049 0
M  V30 4844 H 439.767 2.17861 -3.0264 0
M  V30 4845 N 441.952 1.55251 0.271103 0
M  V30 4846 C 443.201 1.75151 1.00025 0
M  V30 4847 C 443.514 0.561041 1.87381 0
M  V30 4848 O 444.72 0.642506 2.63788 0
M  V30 4849 C 443.176 3.09999 1.82835 0
M  V30 4850 C 442.784 4.3662 1.00336 0
M  V30 4851 C 444.528 3.39249 2.55168 0
M  V30 4852 C 442.435 5.62506 1.82595 0
M  V30 4853 H 441.365 0.652877 0.377183 0
M  V30 4854 H 444.016 1.81708 0.255843 0
M  V30 4855 H 442.398 2.97485 2.61378 0
M  V30 4856 H 443.572 4.60055 0.261959 0
M  V30 4857 H 441.887 4.14527 0.394486 0
M  V30 4858 H 444.484 4.3051 3.1712 0
M  V30 4859 H 444.827 2.59467 3.2555 0
M  V30 4860 H 445.36 3.52869 1.83653 0
M  V30 4861 H 442.099 6.45041 1.16631 0
M  V30 4862 H 441.619 5.43211 2.54327 0
M  V30 4863 H 443.298 6.00875 2.39913 0
M  V30 4864 N 443.43 -0.535701 1.48216 0
M  V30 4865 C 444.655 -1.32149 1.59848 0
M  V30 4866 C 445.08 -1.86338 0.256842 0
M  V30 4867 O 444.438 -1.64107 -0.770632 0
M  V30 4868 C 444.486 -2.45224 2.64381 0
M  V30 4869 O 443.59 -3.48093 2.21144 0
M  V30 4870 H 442.931 -0.391634 0.536208 0
M  V30 4871 H 445.461 -0.645202 1.94161 0
M  V30 4872 H 445.471 -2.91491 2.85476 0
M  V30 4873 H 444.146 -2.05143 3.61786 0
M  V30 4874 H 442.723 -3.07984 2.10239 0
M  V30 4875 N 444.908 -1.36708 -0.784132 0
M  V30 4876 C 446.154 -1.31426 -1.54451 0
M  V30 4877 C 446.487 0.10476 -1.93917 0
M  V30 4878 O 445.762 1.05934 -1.6312 0
M  V30 4879 C 446.045 -2.24189 -2.818 0
M  V30 4880 C 445.898 -3.74813 -2.48667 0
M  V30 4881 C 447.217 -2.15626 -3.83658 0
M  V30 4882 H 444.336 -0.478739 -0.560337 0
M  V30 4883 H 446.978 -1.67305 -0.900498 0
M  V30 4884 H 445.128 -1.93722 -3.36755 0
M  V30 4885 H 446.8 -4.15823 -1.99722 0
M  V30 4886 H 445.043 -3.93989 -1.81535 0
M  V30 4887 H 445.714 -4.35138 -3.39646 0
M  V30 4888 H 448.19 -2.42456 -3.38163 0
M  V30 4889 H 447.066 -2.82694 -4.70506 0
M  V30 4890 H 447.327 -1.14522 -4.27009 0
M  V30 4891 N 446.386 1.0089 -1.21074 0
M  V30 4892 C 447.319 2.09279 -0.909806 0
M  V30 4893 C 448.297 1.61986 0.141145 0
M  V30 4894 O 449.481 1.88495 0.0130332 0
M  V30 4895 C 446.608 3.36723 -0.365374 0
M  V30 4896 C 445.654 4.02919 -1.39852 0
M  V30 4897 S 446.487 4.45835 -2.96633 0
M  V30 4898 C 447.643 5.76471 -2.43786 0
M  V30 4899 H 447.876 2.34484 -1.82769 0
M  V30 4900 H 445.409 1.14115 -1.04006 0
M  V30 4901 H 447.367 4.10459 -0.0578203 0
M  V30 4902 H 446.028 3.09577 0.531136 0
M  V30 4903 H 445.221 4.94634 -0.967117 0
M  V30 4904 H 444.823 3.35441 -1.65395 0
M  V30 4905 H 447.115 6.52027 -1.84029 0
M  V30 4906 H 448.058 6.24418 -3.33928 0
M  V30 4907 H 448.466 5.33104 -1.85636 0
M  V30 4908 N 447.864 1.01787 1.20321 0
M  V30 4909 C 449.275 0.739307 1.71438 0
M  V30 4910 C 449.626 -0.742041 1.81627 0
M  V30 4911 O 448.751 -1.57903 1.47971 0
M  V30 4912 C 449.346 1.33538 3.11373 0
M  V30 4913 C 447.905 1.10566 3.59795 0
M  V30 4914 C 447.052 1.44028 2.36962 0
M  V30 4915 H 450.003 1.18718 1.05317 0
M  V30 4916 H 450.024 0.726611 3.73498 0
M  V30 4917 H 449.536 2.41352 3.03926 0
M  V30 4918 H 447.637 0.0452405 3.72573 0
M  V30 4919 H 447.75 1.78661 4.44542 0
M  V30 4920 H 446.114 0.85933 2.39766 0
M  V30 4921 H 446.897 2.52901 2.32155 0
M  V30 4922 N 449.342 -1.36122 0.79427 0
M  V30 4923 C 450.305 -2.28309 0.201889 0
M  V30 4924 C 451.305 -1.49041 -0.603603 0
M  V30 4925 O 452.495 -1.68964 -0.423888 0
M  V30 4926 C 449.627 -3.3321 -0.719978 0
M  V30 4927 H 450.82 -2.82208 1.01481 0
M  V30 4928 H 448.373 -1.45768 0.564037 0
M  V30 4929 H 449.108 -2.84475 -1.55706 0
M  V30 4930 H 448.893 -3.91835 -0.144266 0
M  V30 4931 H 450.383 -4.02044 -1.12916 0
M  V30 4932 N 450.82 -0.546701 -1.47814 0
M  V30 4933 C 451.752 0.244196 -2.27895 0
M  V30 4934 C 452.765 0.88911 -1.36377 0
M  V30 4935 O 453.954 0.764733 -1.61289 0
M  V30 4936 C 451.054 1.36252 -3.10304 0
M  V30 4937 C 450.227 0.816382 -4.29714 0
M  V30 4938 C 449.286 1.81789 -4.93801 0
M  V30 4939 O 448.312 1.36818 -5.52512 0
M  V30 4940 N 449.514 3.15085 -4.87547 0
M  V30 4941 H 452.279 -0.442694 -2.96412 0
M  V30 4942 H 449.84 -0.382095 -1.57327 0
M  V30 4943 H 451.832 2.03102 -3.50045 0
M  V30 4944 H 450.402 1.95281 -2.44099 0
M  V30 4945 H 449.622 -0.0285981 -3.9419 0
M  V30 4946 H 450.91 0.430668 -5.06974 0
M  V30 4947 H 450.308 3.54275 -4.41028 0
M  V30 4948 H 448.865 3.77522 -5.31339 0
M  V30 4949 N 452.299 1.55045 -0.282633 0
M  V30 4950 C 453.246 2.22822 0.601566 0
M  V30 4951 C 454.216 1.20431 1.14392 0
M  V30 4952 O 455.401 1.48996 1.19184 0
M  V30 4953 C 452.541 2.95873 1.77632 0
M  V30 4954 C 451.654 4.12999 1.26711 0
M  V30 4955 C 450.789 4.73676 2.40426 0
M  V30 4956 C 449.828 5.82981 1.86545 0
M  V30 4957 N 448.965 6.3769 2.93762 0
M  V30 4958 H 453.805 2.97995 0.0169528 0
M  V30 4959 H 451.342 1.471 -0.00339964 0
M  V30 4960 H 453.3 3.36447 2.46697 0
M  V30 4961 H 451.93 2.2311 2.33285 0
M  V30 4962 H 450.982 3.77494 0.469314 0
M  V30 4963 H 452.294 4.91803 0.832518 0
M  V30 4964 H 451.448 5.17008 3.17471 0
M  V30 4965 H 450.187 3.94164 2.87203 0
M  V30 4966 H 449.192 5.39092 1.07983 0
M  V30 4967 H 450.417 6.64366 1.40694 0
M  V30 4968 H 448.363 5.61069 3.39908 0
M  V30 4969 H 448.28 7.11788 2.54744 0
M  V30 4970 H 449.548 6.8568 3.7076 0
M  V30 4971 N 453.777 0.010035 1.57597 0
M  V30 4972 C 455.026 -0.671945 1.90178 0
M  V30 4973 C 455.339 -1.74376 0.886131 0
M  V30 4974 O 456.545 -2.48107 1.10252 0
M  V30 4975 C 455.001 -1.24636 3.3763 0
M  V30 4976 C 454.609 -0.208838 4.47513 0
M  V30 4977 C 456.353 -1.90595 3.79307 0
M  V30 4978 C 454.26 -0.793814 5.86048 0
M  V30 4979 H 453.19 -0.25474 0.709665 0
M  V30 4980 H 455.841 0.0722206 1.83358 0
M  V30 4981 H 454.223 -2.04152 3.3932 0
M  V30 4982 H 455.397 0.562463 4.57354 0
M  V30 4983 H 453.712 0.350889 4.14919 0
M  V30 4984 H 456.309 -2.35284 4.80151 0
M  V30 4985 H 456.652 -2.74074 3.13352 0
M  V30 4986 H 457.185 -1.17798 3.79958 0
M  V30 4987 H 453.924 0.00240855 6.555 0
M  V30 4988 H 453.444 -1.53404 5.79851 0
M  V30 4989 H 455.123 -1.2894 6.34022 0
M  V30 4990 N 455.255 -1.55392 -0.262866 0
M  V30 4991 C 456.483 -1.80513 -1.01108 0
M  V30 4992 C 456.898 -0.583533 -1.79556 0
M  V30 4993 O 456.255 0.447585 -1.76926 0
M  V30 4994 C 456.306 -3.03648 -1.96164 0
M  V30 4995 O 456.027 -4.2109 -1.20893 0
M  V30 4996 C 457.528 -3.41448 -2.82715 0
M  V30 4997 H 454.748 -0.601079 -0.298236 0
M  V30 4998 H 457.292 -2.02425 -0.290582 0
M  V30 4999 H 455.447 -2.83832 -2.63663 0
M  V30 5000 H 455.861 -4.90771 -1.85051 0
M  V30 5001 H 457.335 -4.30751 -3.45192 0
M  V30 5002 H 457.812 -2.61308 -3.53008 0
M  V30 5003 H 458.418 -3.63559 -2.20693 0
M  V30 5004 N 456.733 0.527833 -1.48498 0
M  V30 5005 C 457.68 1.6322 -1.6318 0
M  V30 5006 C 458.65 1.59199 -0.473815 0
M  V30 5007 O 459.835 1.77591 -0.697563 0
M  V30 5008 C 456.975 3.01474 -1.67951 0
M  V30 5009 C 456.088 3.15713 -2.94871 0
M  V30 5010 C 455.223 4.44539 -2.90789 0
M  V30 5011 C 454.262 4.52315 -4.12404 0
M  V30 5012 N 453.399 5.72533 -4.06387 0
M  V30 5013 H 458.239 1.50011 -2.57489 0
M  V30 5014 H 455.776 0.730298 -1.27691 0
M  V30 5015 H 457.734 3.81572 -1.68698 0
M  V30 5016 H 456.364 3.1345 -0.771306 0
M  V30 5017 H 455.416 2.28854 -3.03859 0
M  V30 5018 H 456.728 3.1732 -3.8485 0
M  V30 5019 H 455.882 5.3293 -2.89949 0
M  V30 5020 H 454.621 4.45457 -1.98542 0
M  V30 5021 H 453.626 3.62331 -4.13517 0
M  V30 5022 H 454.851 4.53134 -5.05812 0
M  V30 5023 H 452.797 5.74344 -3.16962 0
M  V30 5024 H 452.714 5.75643 -4.90073 0
M  V30 5025 H 453.982 6.63204 -4.0961 0
M  V30 5026 N 458.211 1.37122 0.776871 0
M  V30 5027 C 459.622 1.28667 1.35284 0
M  V30 5028 C 459.973 -0.0680035 1.96082 0
M  V30 5029 O 459.098 -0.969743 1.93455 0
M  V30 5030 C 459.693 2.32997 2.45963 0
M  V30 5031 C 458.252 2.28191 2.99342 0
M  V30 5032 C 457.399 2.17101 1.72517 0
M  V30 5033 H 460.35 1.47819 0.577527 0
M  V30 5034 H 460.371 1.97366 3.2531 0
M  V30 5035 H 459.883 3.3158 2.01684 0
M  V30 5036 H 457.984 1.33115 3.4801 0
M  V30 5037 H 458.097 3.21397 3.55304 0
M  V30 5038 H 456.461 1.63562 1.95242 0
M  V30 5039 H 457.244 3.17591 1.30348 0
M  V30 5040 N 459.689 -1.00246 1.21608 0
M  V30 5041 C 460.652 -2.07233 0.979133 0
M  V30 5042 C 461.652 -1.6072 -0.0508219 0
M  V30 5043 O 462.842 -1.73196 0.186712 0
M  V30 5044 C 459.974 -3.37546 0.477016 0
M  V30 5045 H 461.167 -2.29687 1.92831 0
M  V30 5046 H 458.72 -1.17261 1.03342 0
M  V30 5047 H 459.455 -3.20773 -0.476966 0
M  V30 5048 H 459.24 -3.72638 1.21997 0
M  V30 5049 H 460.73 -4.16285 0.331181 0
M  V30 5050 N 461.167 -1.02423 -1.1978 0
M  V30 5051 C 462.13 -0.605703 -2.21052 0
M  V30 5052 C 463.13 0.328209 -1.57415 0
M  V30 5053 O 464.32 0.115853 -1.73814 0
M  V30 5054 C 461.452 0.114366 -3.40708 0
M  V30 5055 H 462.645 -1.5017 -2.59594 0
M  V30 5056 H 460.198 -0.814888 -1.33376 0
M  V30 5057 H 460.933 1.02492 -3.07678 0
M  V30 5058 H 460.718 -0.556641 -3.88129 0
M  V30 5059 H 462.208 0.394272 -4.15735 0
M  V30 5060 N 462.645 1.35699 -0.801477 0
M  V30 5061 C 463.592 2.29876 -0.206294 0
M  V30 5062 C 464.562 1.52565 0.656752 0
M  V30 5063 O 465.747 1.81024 0.602906 0
M  V30 5064 C 462.887 3.39052 0.643272 0
M  V30 5065 C 462 4.31335 -0.239644 0
M  V30 5066 C 461.135 5.27599 0.61744 0
M  V30 5067 C 460.174 6.11521 -0.26619 0
M  V30 5068 N 459.311 6.99938 0.550571 0
M  V30 5069 H 464.151 2.80187 -1.01484 0
M  V30 5070 H 461.688 1.37902 -0.511997 0
M  V30 5071 H 463.646 4.0101 1.15094 0
M  V30 5072 H 462.276 2.9003 1.41713 0
M  V30 5073 H 461.328 3.70426 -0.865381 0
M  V30 5074 H 462.64 4.90243 -0.919985 0
M  V30 5075 H 461.794 5.94906 1.19045 0
M  V30 5076 H 460.533 4.69176 1.33137 0
M  V30 5077 H 459.538 5.43166 -0.851507 0
M  V30 5078 H 460.763 6.72022 -0.9779 0
M  V30 5079 H 458.709 6.44008 1.24856 0
M  V30 5080 H 458.626 7.55966 -0.071832 0
M  V30 5081 H 459.894 7.71599 1.10702 0
M  V30 5082 N 464.123 0.554532 1.47522 0
M  V30 5083 C 465.353 0.0342074 2.06572 0
M  V30 5084 C 465.761 -1.26375 1.40805 0
M  V30 5085 O 465.104 -1.7683 0.49769 0
M  V30 5086 C 465.166 -0.235096 3.5873 0
M  V30 5087 C 464.83 0.973024 4.46521 0
M  V30 5088 C 465.827 1.8779 4.848 0
M  V30 5089 C 463.512 1.18694 4.88075 0
M  V30 5090 C 465.506 2.98039 5.63428 0
M  V30 5091 C 463.193 2.29254 5.66468 0
M  V30 5092 C 464.191 3.18757 6.04055 0
M  V30 5093 O 463.879 4.27401 6.8087 0
M  V30 5094 H 463.611 0.041587 0.67472 0
M  V30 5095 H 466.165 0.766748 1.90552 0
M  V30 5096 H 464.395 -1.02191 3.72953 0
M  V30 5097 H 466.084 -0.700477 3.9981 0
M  V30 5098 H 466.85 1.72467 4.53299 0
M  V30 5099 H 462.729 0.49947 4.58286 0
M  V30 5100 H 466.273 3.67926 5.92685 0
M  V30 5101 H 462.17 2.4455 5.97382 0
M  V30 5102 H 462.938 4.25415 6.9926 0
M  V30 5103 N 465.601 -1.54893 0.290851 0
M  V30 5104 C 466.849 -1.99538 -0.320756 0
M  V30 5105 C 467.17 -1.18075 -1.55188 0
M  V30 5106 O 466.44 -0.274162 -1.93972 0
M  V30 5107 H 465.02 -0.737052 -0.121507 0
M  V30 5108 H 467.682 -1.90755 0.399832 0
M  V30 5109 H 466.778 -3.06282 -0.599802 0
M  V30 5110 N 467.08 -0.0183926 -1.57589 0
M  V30 5111 C 468.329 0.66185 -1.90532 0
M  V30 5112 C 468.642 1.73904 -0.895366 0
M  V30 5113 O 469.848 2.47518 -1.11566 0
M  V30 5114 C 468.304 1.22844 -3.38286 0
M  V30 5115 C 467.912 0.185103 -4.47617 0
M  V30 5116 C 469.656 1.88581 -3.80312 0
M  V30 5117 C 467.563 0.762723 -5.86461 0
M  V30 5118 H 466.493 0.250972 -0.711006 0
M  V30 5119 H 469.144 -0.0819435 -1.83317 0
M  V30 5120 H 467.526 2.0235 -3.40398 0
M  V30 5121 H 468.7 -0.58671 -4.5705 0
M  V30 5122 H 467.015 -0.372889 -4.14727 0
M  V30 5123 H 469.612 2.32735 -4.81392 0
M  V30 5124 H 469.955 2.72408 -3.14801 0
M  V30 5125 H 470.488 1.15782 -3.80578 0
M  V30 5126 H 467.227 -0.0371713 -6.55489 0
M  V30 5127 H 466.747 1.50327 -5.80656 0
M  V30 5128 H 468.426 1.25576 -6.34697 0
M  V30 5129 N 468.558 1.5553 0.254621 0
M  V30 5130 C 469.969 1.67518 0.824286 0
M  V30 5131 C 470.32 0.614429 1.86331 0
M  V30 5132 O 469.445 -0.240736 2.15057 0
M  V30 5133 C 470.04 3.03692 1.50189 0
M  V30 5134 C 468.599 3.17646 2.01935 0
M  V30 5135 C 467.746 2.63373 0.867746 0
M  V30 5136 H 470.697 1.58671 0.0305843 0
M  V30 5137 H 470.718 2.97706 2.36962 0
M  V30 5138 H 470.23 3.80874 0.745431 0
M  V30 5139 H 468.331 2.45273 2.80485 0
M  V30 5140 H 468.444 4.24455 2.22204 0
M  V30 5141 H 466.808 2.20999 1.26616 0
M  V30 5142 H 467.591 3.43074 0.124498 0
M  V30 5143 N 470.036 -0.519951 1.48776 0
M  V30 5144 C 470.966 -1.63253 1.66945 0
M  V30 5145 C 471.947 -1.62014 0.518224 0
M  V30 5146 O 473.132 -1.79053 0.751919 0
M  V30 5147 C 470.262 -3.0181 1.71836 0
M  V30 5148 C 469.216 -3.17911 2.8656 0
M  V30 5149 C 468.542 -4.5763 2.76548 0
M  V30 5150 C 469.842 -2.99729 4.27738 0
M  V30 5151 H 471.536 -1.48302 2.6009 0
M  V30 5152 H 469.082 -0.712026 1.25165 0
M  V30 5153 H 471.035 -3.79525 1.83135 0
M  V30 5154 H 469.759 -3.17806 0.752775 0
M  V30 5155 H 468.418 -2.42616 2.74833 0
M  V30 5156 H 468.066 -4.70476 1.77937 0
M  V30 5157 H 467.766 -4.69346 3.53536 0
M  V30 5158 H 469.29 -5.37431 2.89828 0
M  V30 5159 H 470.704 -3.67228 4.40246 0
M  V30 5160 H 469.101 -3.22932 5.05801 0
M  V30 5161 H 470.171 -1.96047 4.43502 0
M  V30 5162 N 471.514 -1.37532 -0.769588 0
M  V30 5163 C 472.477 -1.33292 -1.86456 0
M  V30 5164 C 473.477 -0.236537 -1.59051 0
M  V30 5165 O 474.667 -0.492511 -1.67093 0
M  V30 5166 C 471.799 -1.07118 -3.23633 0
M  V30 5167 H 472.992 -2.30692 -1.91628 0
M  V30 5168 H 470.545 -1.22593 -0.969572 0
M  V30 5169 H 471.28 -0.102578 -3.24138 0
M  V30 5170 H 471.065 -1.86479 -3.44917 0
M  V30 5171 H 472.555 -1.06806 -4.03711 0
M  V30 5172 N 472.992 0.995999 -1.22138 0
M  V30 5173 C 474.222 1.76809 -1.06874 0
M  V30 5174 C 474.63 1.85265 0.383866 0
M  V30 5175 O 473.973 1.31969 1.27789 0
M  V30 5176 C 474.035 3.2186 -1.60144 0
M  V30 5177 C 473.699 3.36958 -3.0872 0
M  V30 5178 C 474.696 3.2452 -4.0618 0
M  V30 5179 C 472.381 3.62109 -3.48112 0
M  V30 5180 C 474.375 3.37013 -5.41019 0
M  V30 5181 C 472.062 3.74243 -4.831 0
M  V30 5182 C 473.06 3.61702 -5.79362 0
M  V30 5183 O 472.748 3.73436 -7.119 0
M  V30 5184 H 472.48 0.562207 -0.375365 0
M  V30 5185 H 475.034 1.26113 -1.62125 0
M  V30 5186 H 473.264 3.73734 -0.992981 0
M  V30 5187 H 474.953 3.80775 -1.40589 0
M  V30 5188 H 475.719 3.05004 -3.77091 0
M  V30 5189 H 471.598 3.70949 -2.73712 0
M  V30 5190 H 475.142 3.27141 -6.16137 0
M  V30 5191 H 471.039 3.93266 -5.11872 0
M  V30 5192 H 471.807 3.90328 -7.19435 0
M  V30 5193 N 474.47 1.03057 1.19235 0
M  V30 5194 C 475.417 0.612832 2.22515 0
M  V30 5195 C 476.387 -0.374224 1.61829 0
M  V30 5196 O 477.572 -0.270501 1.88873 0
M  V30 5197 C 474.712 -0.028475 3.45088 0
M  V30 5198 C 473.825 1.00483 4.20151 0
M  V30 5199 C 472.96 0.333102 5.30155 0
M  V30 5200 C 471.999 1.3522 5.96977 0
M  V30 5201 N 471.136 0.70616 6.9854 0
M  V30 5202 H 475.976 1.49812 2.57605 0
M  V30 5203 H 473.513 0.749658 1.26564 0
M  V30 5204 H 475.471 -0.417548 4.15105 0
M  V30 5205 H 474.101 -0.877334 3.10649 0
M  V30 5206 H 473.153 1.51194 3.49062 0
M  V30 5207 H 474.465 1.77929 4.65986 0
M  V30 5208 H 473.619 -0.110725 6.06599 0
M  V30 5209 H 472.358 -0.473547 4.85396 0
M  V30 5210 H 471.363 1.80627 5.19282 0
M  V30 5211 H 472.588 2.16037 6.4382 0
M  V30 5212 H 470.534 -0.0803667 6.55951 0
M  V30 5213 H 470.451 1.41848 7.42573 0
M  V30 5214 H 471.719 0.286391 7.78974 0
M  V30 5215 N 475.948 -1.35272 0.808662 0
M  V30 5216 C 476.895 -2.29764 0.218482 0
M  V30 5217 C 477.865 -1.52911 -0.648652 0
M  V30 5218 O 479.05 -1.81341 -0.593297 0
M  V30 5219 C 476.19 -3.39388 -0.625282 0
M  V30 5220 C 475.303 -4.31202 0.262516 0
M  V30 5221 C 474.438 -5.27919 -0.589451 0
M  V30 5222 C 473.477 -6.11371 0.298617 0
M  V30 5223 N 472.614 -7.0022 -0.513443 0
M  V30 5224 H 477.454 -2.79645 1.02968 0
M  V30 5225 H 474.991 -1.37629 0.519303 0
M  V30 5226 H 476.949 -4.01615 -1.12966 0
M  V30 5227 H 475.579 -2.90777 -1.40173 0
M  V30 5228 H 474.631 -3.69962 0.885013 0
M  V30 5229 H 475.943 -4.89748 0.945971 0
M  V30 5230 H 475.097 -5.95529 -1.15888 0
M  V30 5231 H 473.836 -4.69875 -1.30647 0
M  V30 5232 H 472.841 -5.42707 0.880301 0
M  V30 5233 H 474.066 -6.71494 1.01352 0
M  V30 5234 H 472.012 -6.44662 -1.21439 0
M  V30 5235 H 471.929 -7.55917 0.111922 0
M  V30 5236 H 473.197 -7.72175 -1.06608 0
M  V30 5237 N 477.426 -0.562348 -1.47226 0
M  V30 5238 C 478.656 -0.0451619 -2.06551 0
M  V30 5239 C 479.064 1.25626 -1.41473 0
M  V30 5240 O 478.407 1.76563 -0.507061 0
M  V30 5241 C 478.469 0.216068 -3.5885 0
M  V30 5242 C 478.133 -0.996691 -4.45999 0
M  V30 5243 C 479.13 -1.90358 -4.83797 0
M  V30 5244 C 476.815 -1.21281 -4.87438 0
M  V30 5245 C 478.809 -3.01023 -5.6184 0
M  V30 5246 C 476.496 -2.32255 -5.65244 0
M  V30 5247 C 477.494 -3.21956 -6.02356 0
M  V30 5248 O 477.182 -4.31005 -6.78594 0
M  V30 5249 H 476.914 -0.0451646 -0.67449 0
M  V30 5250 H 479.468 -0.776842 -1.90143 0
M  V30 5251 H 477.698 1.00212 -3.7349 0
M  V30 5252 H 479.387 0.679264 -4.00176 0
M  V30 5253 H 480.153 -1.74868 -4.52378 0
M  V30 5254 H 476.032 -0.523767 -4.58015 0
M  V30 5255 H 479.576 -3.71064 -5.90726 0
M  V30 5256 H 475.473 -2.47715 -5.96077 0
M  V30 5257 H 476.241 -4.29118 -6.96994 0
M  V30 5258 N 478.904 1.54736 -0.299062 0
M  V30 5259 C 480.152 1.99706 0.31017 0
M  V30 5260 C 480.473 1.18896 1.54559 0
M  V30 5261 O 479.743 0.284445 1.93824 0
M  V30 5262 H 478.323 0.737686 0.117596 0
M  V30 5263 H 480.985 1.9054 -0.409943 0
M  V30 5264 H 480.081 3.06596 0.58355 0
M  V30 5265 N 480.382 0.0267497 1.57577 0
M  V30 5266 C 481.659 -0.690926 1.82991 0
M  V30 5267 C 482.039 -1.90471 0.910164 0
M  V30 5268 O 481.387 -2.28474 -0.0347985 0
M  V30 5269 C 481.597 -1.07139 3.32148 0
M  V30 5270 C 482.945 -1.46402 3.98562 0
M  V30 5271 O 483.969 -1.16443 3.36629 0
M  V30 5272 O 482.828 -2.02214 5.07712 0
M  V30 5273 H 479.922 -0.338747 0.75444 0
M  V30 5274 H 482.468 0.0542506 1.69613 0
M  V30 5275 H 481.24 -0.207394 3.9075 0
M  V30 5276 H 480.863 -1.87481 3.50623 0
M  V30 5277 N 481.861 -1.55662 -0.24637 0
M  V30 5278 C 482.808 -1.90361 -1.30504 0
M  V30 5279 C 483.778 -0.757905 -1.47801 0
M  V30 5280 O 484.963 -1.01161 -1.61775 0
M  V30 5281 C 482.103 -2.2042 -2.65535 0
M  V30 5282 C 481.216 -3.47799 -2.56242 0
M  V30 5283 C 480.351 -3.67426 -3.8363 0
M  V30 5284 C 479.39 -4.88403 -3.68956 0
M  V30 5285 N 478.527 -5.04548 -4.88237 0
M  V30 5286 H 483.367 -2.80645 -1.00213 0
M  V30 5287 H 480.904 -1.38924 -0.483577 0
M  V30 5288 H 482.862 -2.35853 -3.44135 0
M  V30 5289 H 481.492 -1.3334 -2.93973 0
M  V30 5290 H 480.544 -3.40694 -1.69208 0
M  V30 5291 H 481.856 -4.36544 -2.4131 0
M  V30 5292 H 481.01 -3.82821 -4.70673 0
M  V30 5293 H 479.749 -2.76914 -4.01459 0
M  V30 5294 H 478.754 -4.72984 -2.80296 0
M  V30 5295 H 479.979 -5.80375 -3.52621 0
M  V30 5296 H 477.925 -4.16974 -5.06427 0
M  V30 5297 H 477.842 -5.87384 -4.75937 0
M  V30 5298 H 479.11 -5.24355 -5.76777 0
M  V30 5299 N 483.339 0.512053 -1.4905 0
M  V30 5300 C 484.286 1.6148 -1.64902 0
M  V30 5301 C 485.256 1.58687 -0.490673 0
M  V30 5302 O 486.441 1.76842 -0.71636 0
M  V30 5303 C 483.581 2.99676 -1.71139 0
M  V30 5304 C 482.694 3.12568 -2.98203 0
M  V30 5305 C 481.829 4.4143 -2.95487 0
M  V30 5306 C 480.868 4.47916 -4.17179 0
M  V30 5307 N 480.005 5.68191 -4.12437 0
M  V30 5308 H 484.845 1.47271 -2.59066 0
M  V30 5309 H 482.382 0.716713 -1.28459 0
M  V30 5310 H 484.34 3.79761 -1.72736 0
M  V30 5311 H 482.97 3.12614 -0.804508 0
M  V30 5312 H 482.022 2.25618 -3.06269 0
M  V30 5313 H 483.334 3.1322 -3.88194 0
M  V30 5314 H 482.488 5.29825 -2.95585 0
M  V30 5315 H 481.227 4.43326 -2.03256 0
M  V30 5316 H 480.232 3.57925 -4.17337 0
M  V30 5317 H 481.457 4.47744 -5.1059 0
M  V30 5318 H 479.403 5.7095 -3.23036 0
M  V30 5319 H 479.32 5.70413 -4.96151 0
M  V30 5320 H 480.588 6.58823 -4.16621 0
M  V30 5321 N 484.817 1.37938 0.762283 0
M  V30 5322 C 485.747 1.37176 1.88958 0
M  V30 5323 C 486.728 0.238945 1.68413 0
M  V30 5324 O 487.913 0.440726 1.89133 0
M  V30 5325 C 485.043 1.18742 3.2637 0
M  V30 5326 C 483.997 2.29136 3.61498 0
M  V30 5327 C 483.323 1.95816 4.97554 0
M  V30 5328 C 484.623 3.71363 3.6727 0
M  V30 5329 H 486.317 2.31509 1.89853 0
M  V30 5330 H 483.863 1.11438 0.912005 0
M  V30 5331 H 485.816 1.16837 4.04879 0
M  V30 5332 H 484.54 0.208683 3.25933 0
M  V30 5333 H 483.199 2.30213 2.85303 0
M  V30 5334 H 482.847 0.964475 4.93667 0
M  V30 5335 H 482.547 2.69745 5.22026 0
M  V30 5336 H 484.071 1.95513 5.78452 0
M  V30 5337 H 485.485 3.72364 4.35911 0
M  V30 5338 H 483.882 4.44425 4.03245 0
M  V30 5339 H 484.952 4.04305 2.67704 0
M  V30 5340 N 486.295 -0.989507 1.22664 0
M  V30 5341 C 487.245 -2.06478 0.967005 0
M  V30 5342 C 488.229 -1.60682 -0.0836374 0
M  V30 5343 O 489.421 -1.76541 0.127322 0
M  V30 5344 C 486.55 -3.38861 0.550313 0
M  V30 5345 C 485.636 -3.9128 1.63587 0
M  V30 5346 N 486.027 -4.16884 2.86429 0
M  V30 5347 C 484.325 -4.1972 1.50834 0
M  V30 5348 C 485.026 -4.5954 3.56648 0
M  V30 5349 N 484.002 -4.63434 2.84131 0
M  V30 5350 H 487.804 -2.24219 1.90008 0
M  V30 5351 H 485.318 -1.17153 1.12467 0
M  V30 5352 H 487.315 -4.15465 0.345612 0
M  V30 5353 H 485.975 -3.22518 -0.375822 0
M  V30 5354 H 486.986 -4.04976 3.22823 0
M  V30 5355 H 483.663 -4.1243 0.648643 0
M  V30 5356 H 485.053 -4.87944 4.61909 0
M  V30 5357 N 487.773 -1.03688 -1.18687 0
M  V30 5358 C 488.683 -0.634908 -2.25845 0
M  V30 5359 C 489.699 0.337065 -1.70704 0
M  V30 5360 O 490.875 0.192943 -2.00474 0
M  V30 5361 C 487.94 -0.000180054 -3.467 0
M  V30 5362 C 487.001 -1.02067 -4.1699 0
M  V30 5363 C 486.234 -0.41614 -5.32075 0
M  V30 5364 O 486.457 0.778712 -5.65059 0
M  V30 5365 O 485.391 -1.14296 -5.90948 0
M  V30 5366 H 489.217 -1.52757 -2.62486 0
M  V30 5367 H 486.802 -0.807533 -1.25695 0
M  V30 5368 H 488.684 0.353342 -4.19916 0
M  V30 5369 H 487.359 0.866367 -3.11891 0
M  V30 5370 H 486.266 -1.42592 -3.45859 0
M  V30 5371 H 487.599 -1.85786 -4.5579 0
M  V30 5372 N 489.251 1.34841 -0.815825 0
M  V30 5373 C 490.198 2.29644 -0.230664 0
M  V30 5374 C 491.168 1.53253 0.640533 0
M  V30 5375 O 492.353 1.81653 0.583672 0
M  V30 5376 C 489.493 3.39715 0.607275 0
M  V30 5377 C 488.606 4.31056 -0.28538 0
M  V30 5378 C 487.741 5.28225 0.561446 0
M  V30 5379 C 486.78 6.11204 -0.331035 0
M  V30 5380 N 485.917 7.00483 0.476302 0
M  V30 5381 H 490.757 2.79095 -1.0445 0
M  V30 5382 H 488.294 1.37351 -0.526595 0
M  V30 5383 H 490.252 4.02208 1.10835 0
M  V30 5384 H 488.882 2.91517 1.38629 0
M  V30 5385 H 487.934 3.69487 -0.904621 0
M  V30 5386 H 489.246 4.89239 -0.97193 0
M  V30 5387 H 488.4 5.96135 1.12728 0
M  V30 5388 H 487.139 4.70562 1.28153 0
M  V30 5389 H 486.144 5.42232 -0.909069 0
M  V30 5390 H 487.369 6.70947 -1.04912 0
M  V30 5391 H 485.315 6.45296 1.18019 0
M  V30 5392 H 485.232 7.55847 -0.152008 0
M  V30 5393 H 486.5 7.7273 1.02512 0
M  V30 5394 N 490.729 0.570148 1.46925 0
M  V30 5395 C 491.676 -0.170257 2.30171 0
M  V30 5396 C 492.646 -0.896099 1.39855 0
M  V30 5397 O 493.831 -0.889248 1.68811 0
M  V30 5398 C 490.971 -1.18605 3.24079 0
M  V30 5399 C 490.084 -0.464947 4.29491 0
M  V30 5400 C 489.219 -1.46716 5.10537 0
M  V30 5401 C 488.258 -0.731758 6.0771 0
M  V30 5402 N 487.395 -1.68142 6.81669 0
M  V30 5403 H 492.235 0.545713 2.92961 0
M  V30 5404 H 489.772 0.280938 1.44392 0
M  V30 5405 H 491.73 -1.78771 3.76957 0
M  V30 5406 H 490.36 -1.86989 2.63125 0
M  V30 5407 H 489.412 0.251506 3.79568 0
M  V30 5408 H 490.724 0.110548 4.98677 0
M  V30 5409 H 489.878 -2.14199 5.6763 0
M  V30 5410 H 488.617 -2.07658 4.41282 0
M  V30 5411 H 487.622 -0.0430787 5.49783 0
M  V30 5412 H 488.847 -0.127904 6.7898 0
M  V30 5413 H 486.793 -2.27918 6.15134 0
M  V30 5414 H 486.71 -1.15841 7.47072 0
M  V30 5415 H 487.978 -2.347 7.43328 0
M  V30 5416 N 492.207 -1.54576 0.307264 0
M  V30 5417 C 493.618 -1.8579 -0.184121 0
M  V30 5418 C 493.969 -1.22914 -1.52927 0
M  V30 5419 O 493.094 -0.529126 -2.09831 0
M  V30 5420 C 493.689 -3.37081 -0.340862 0
M  V30 5421 C 492.248 -3.68304 -0.776465 0
M  V30 5422 C 491.395 -2.77076 0.111503 0
M  V30 5423 H 494.346 -1.49656 0.528078 0
M  V30 5424 H 494.367 -3.61922 -1.17443 0
M  V30 5425 H 493.879 -3.82815 0.638309 0
M  V30 5426 H 491.98 -3.28092 -1.76596 0
M  V30 5427 H 492.093 -4.75434 -0.591512 0
M  V30 5428 H 490.457 -2.51374 -0.410256 0
M  V30 5429 H 491.24 -3.25632 1.08714 0
M  V30 5430 N 493.685 -0.035106 -1.57561 0
M  V30 5431 C 494.615 0.942993 -2.13612 0
M  V30 5432 C 495.596 1.33531 -1.05373 0
M  V30 5433 O 496.781 1.41287 -1.33235 0
M  V30 5434 C 493.911 2.22332 -2.66807 0
M  V30 5435 C 492.865 1.97156 -3.79886 0
M  V30 5436 C 492.191 3.31506 -4.19533 0
M  V30 5437 C 493.491 1.30596 -5.05709 0
M  V30 5438 H 495.185 0.476179 -2.95589 0
M  V30 5439 H 492.731 0.227602 -1.4219 0
M  V30 5440 H 494.684 2.91142 -3.04654 0
M  V30 5441 H 493.408 2.7119 -1.81999 0
M  V30 5442 H 492.067 1.30763 -3.42486 0
M  V30 5443 H 491.715 3.78134 -3.31698 0
M  V30 5444 H 491.415 3.15465 -4.95738 0
M  V30 5445 H 492.939 4.01574 -4.59968 0
M  V30 5446 H 494.353 1.89416 -5.41105 0
M  V30 5447 H 492.75 1.24934 -5.86951 0
M  V30 5448 H 493.82 0.279742 -4.84092 0
M  V30 5449 N 495.163 1.55791 0.238111 0
M  V30 5450 C 496.095 1.87513 1.31802 0
M  V30 5451 C 497.108 0.762053 1.43863 0
M  V30 5452 O 498.297 1.04024 1.45056 0
M  V30 5453 C 495.397 2.05402 2.69561 0
M  V30 5454 C 494.57 3.3632 2.79656 0
M  V30 5455 C 493.629 3.43844 3.98319 0
M  V30 5456 O 492.655 4.16994 3.87433 0
M  V30 5457 N 493.857 2.73777 5.11885 0
M  V30 5458 H 496.622 2.80734 1.04922 0
M  V30 5459 H 494.183 1.56135 0.428196 0
M  V30 5460 H 496.175 2.07769 3.47296 0
M  V30 5461 H 494.745 1.18884 2.89111 0
M  V30 5462 H 493.965 3.46195 1.88528 0
M  V30 5463 H 495.253 4.22594 2.83358 0
M  V30 5464 H 494.651 2.14094 5.23622 0
M  V30 5465 H 493.208 2.81825 5.87723 0
M  V30 5466 N 496.642 -0.504142 1.49319 0
M  V30 5467 C 497.589 -1.60603 1.65756 0
M  V30 5468 C 498.559 -1.58425 0.499082 0
M  V30 5469 O 499.744 -1.76459 0.725728 0
M  V30 5470 C 496.884 -2.98764 1.72726 0
M  V30 5471 C 495.997 -3.10982 2.99857 0
M  V30 5472 C 495.132 -4.39857 2.97824 0
M  V30 5473 C 494.171 -4.45697 4.19548 0
M  V30 5474 N 493.308 -5.65995 4.15444 0
M  V30 5475 H 498.148 -1.45895 2.59843 0
M  V30 5476 H 495.685 -0.709891 1.28837 0
M  V30 5477 H 497.643 -3.78839 1.74747 0
M  V30 5478 H 496.273 -3.12183 0.821075 0
M  V30 5479 H 495.325 -2.23991 3.07461 0
M  V30 5480 H 496.637 -3.11157 3.89849 0
M  V30 5481 H 495.791 -5.2825 2.98391 0
M  V30 5482 H 494.53 -4.42242 2.05604 0
M  V30 5483 H 493.535 -3.55707 4.19229 0
M  V30 5484 H 494.76 -4.4503 5.12957 0
M  V30 5485 H 492.706 -5.69229 3.26059 0
M  V30 5486 H 492.623 -5.67773 4.99169 0
M  V30 5487 H 493.891 -6.56604 4.20109 0
M  V30 5488 N 498.12 -1.38341 -0.754957 0
M  V30 5489 C 499.07 -1.31964 -1.85929 0
M  V30 5490 C 500.054 -0.204181 -1.59599 0
M  V30 5491 O 501.246 -0.440036 -1.71443 0
M  V30 5492 C 498.375 -1.14565 -3.2362 0
M  V30 5493 C 497.461 -2.30727 -3.55846 0
M  V30 5494 N 497.852 -3.56165 -3.59138 0
M  V30 5495 C 496.15 -2.23249 -3.86104 0
M  V30 5496 C 496.851 -4.32865 -3.88591 0
M  V30 5497 N 495.827 -3.62203 -4.05351 0
M  V30 5498 H 499.629 -2.2694 -1.8675 0
M  V30 5499 H 497.143 -1.31553 -0.952243 0
M  V30 5500 H 499.14 -1.0808 -4.02647 0
M  V30 5501 H 497.8 -0.205212 -3.24051 0
M  V30 5502 H 498.811 -3.89854 -3.40932 0
M  V30 5503 H 495.488 -1.37357 -3.94258 0
M  V30 5504 H 496.878 -5.41504 -3.97773 0
M  V30 5505 N 499.598 0.982988 -1.23187 0
M  V30 5506 C 500.545 2.07491 -1.01075 0
M  V30 5507 C 501.515 1.65949 0.070905 0
M  V30 5508 O 502.7 1.90629 -0.0806822 0
M  V30 5509 C 499.84 3.39751 -0.605261 0
M  V30 5510 C 498.953 3.94578 -1.75876 0
M  V30 5511 C 498.088 5.15039 -1.3003 0
M  V30 5512 C 497.127 5.62027 -2.42472 0
M  V30 5513 N 496.264 6.73719 -1.97602 0
M  V30 5514 H 501.104 2.25739 -1.9454 0
M  V30 5515 H 498.641 1.10659 -0.969179 0
M  V30 5516 H 500.599 4.15719 -0.351279 0
M  V30 5517 H 499.229 3.21473 0.292382 0
M  V30 5518 H 498.281 3.1539 -2.12681 0
M  V30 5519 H 499.593 4.25422 -2.60418 0
M  V30 5520 H 498.747 5.9833 -1.00429 0
M  V30 5521 H 497.486 4.85843 -0.425216 0
M  V30 5522 H 496.491 4.77318 -2.7285 0
M  V30 5523 H 497.716 5.93244 -3.30512 0
M  V30 5524 H 495.662 6.46287 -1.1247 0
M  V30 5525 H 495.579 7.03934 -2.75705 0
M  V30 5526 H 496.847 7.6049 -1.71098 0
M  V30 5527 N 501.076 1.04316 1.18135 0
M  V30 5528 C 502.008 0.594444 2.21357 0
M  V30 5529 C 503.021 -0.337215 1.59269 0
M  V30 5530 O 504.21 -0.131337 1.78016 0
M  V30 5531 C 501.31 -0.151251 3.38562 0
M  V30 5532 C 500.483 0.788907 4.30227 0
M  V30 5533 C 499.542 0.0860572 5.2613 0
M  V30 5534 O 498.568 0.717302 5.64662 0
M  V30 5535 N 499.77 -1.17969 5.68387 0
M  V30 5536 H 502.535 1.48227 2.60478 0
M  V30 5537 H 500.096 0.92396 1.32946 0
M  V30 5538 H 502.088 -0.631352 3.99745 0
M  V30 5539 H 500.658 -0.940639 2.98112 0
M  V30 5540 H 499.878 1.44882 3.6661 0
M  V30 5541 H 501.166 1.42738 4.88368 0
M  V30 5542 H 500.564 -1.71302 5.3914 0
M  V30 5543 H 499.121 -1.60402 6.31755 0
M  V30 5544 N 502.554 -1.34406 0.822964 0
M  V30 5545 C 503.517 -2.2783 0.250271 0
M  V30 5546 C 504.517 -1.50288 -0.571854 0
M  V30 5547 O 505.707 -1.69825 -0.387952 0
M  V30 5548 C 502.839 -3.34663 -0.649137 0
M  V30 5549 H 504.032 -2.79992 1.07444 0
M  V30 5550 H 501.585 -1.44539 0.594829 0
M  V30 5551 H 502.32 -2.87714 -1.49637 0
M  V30 5552 H 502.105 -3.92052 -0.0611199 0
M  V30 5553 H 503.595 -4.04349 -1.04363 0
M  V30 5554 N 504.032 -0.577932 -1.46621 0
M  V30 5555 C 504.982 0.178869 -2.27297 0
M  V30 5556 C 505.966 0.866279 -1.35589 0
M  V30 5557 O 507.158 0.761163 -1.59798 0
M  V30 5558 C 504.287 1.19499 -3.2183 0
M  V30 5559 C 503.373 0.50994 -4.21023 0
M  V30 5560 N 503.764 -0.43177 -5.03954 0
M  V30 5561 C 502.062 0.761287 -4.39455 0
M  V30 5562 C 502.763 -0.831693 -5.75724 0
M  V30 5563 N 501.739 -0.181897 -5.43296 0
M  V30 5564 H 505.541 -0.544859 -2.88805 0
M  V30 5565 H 503.055 -0.399373 -1.57413 0
M  V30 5566 H 505.052 1.75131 -3.78332 0
M  V30 5567 H 503.712 1.91959 -2.61881 0
M  V30 5568 H 504.723 -0.807045 -5.11573 0
M  V30 5569 H 501.4 1.47282 -3.90659 0
M  V30 5570 H 502.79 -1.6067 -6.52407 0
M  V30 5571 N 505.51 1.54411 -0.315457 0
M  V30 5572 C 506.442 2.21527 0.588067 0
M  V30 5573 C 507.455 1.21263 1.08624 0
M  V30 5574 O 508.644 1.47777 1.00121 0
M  V30 5575 C 505.744 2.85963 1.81875 0
M  V30 5576 C 504.917 4.12291 1.46063 0
M  V30 5577 C 503.976 4.60396 2.54799 0
M  V30 5578 O 503.002 5.25265 2.19283 0
M  V30 5579 N 504.204 4.33935 3.85591 0
M  V30 5580 H 506.969 2.99697 0.013414 0
M  V30 5581 H 504.53 1.61308 -0.138295 0
M  V30 5582 H 506.522 3.15071 2.53993 0
M  V30 5583 H 505.092 2.11548 2.30144 0
M  V30 5584 H 504.312 3.90036 0.571445 0
M  V30 5585 H 505.6 4.9452 1.19695 0
M  V30 5586 H 504.998 3.81996 4.17248 0
M  V30 5587 H 503.555 4.67718 4.53964 0
M  V30 5588 N 506.988 0.0434614 1.5754 0
M  V30 5589 C 508.216 -0.641835 1.96693 0
M  V30 5590 C 508.631 -1.64832 0.920652 0
M  V30 5591 O 507.988 -1.82247 -0.095993 0
M  V30 5592 C 508.039 -1.33557 3.35924 0
M  V30 5593 O 507.76 -0.369403 4.3654 0
M  V30 5594 C 509.261 -2.11135 3.89791 0
M  V30 5595 H 506.481 -0.176013 0.647503 0
M  V30 5596 H 509.025 0.107478 2.04217 0
M  V30 5597 H 507.18 -2.03617 3.29574 0
M  V30 5598 H 507.594 -0.863674 5.1734 0
M  V30 5599 H 509.068 -2.55107 4.89514 0
M  V30 5600 H 509.545 -2.95634 3.24803 0
M  V30 5601 H 510.151 -1.46002 3.99454 0
M  V30 5602 N 508.466 -1.55915 -0.229846 0
M  V30 5603 C 509.877 -1.68809 -0.797531 0
M  V30 5604 C 510.228 -0.643995 -1.8533 0
M  V30 5605 O 509.353 0.206492 -2.15413 0
M  V30 5606 C 509.948 -3.06043 -1.45338 0
M  V30 5607 C 508.507 -3.20819 -1.96856 0
M  V30 5608 C 507.654 -2.6472 -0.825736 0
M  V30 5609 H 510.605 -1.58699 -0.00533733 0
M  V30 5610 H 510.626 -3.01438 -2.32196 0
M  V30 5611 H 510.138 -3.82012 -0.684743 0
M  V30 5612 H 508.239 -2.49704 -2.76548 0
M  V30 5613 H 508.352 -4.27937 -2.15423 0
M  V30 5614 H 506.716 -2.22985 -1.23084 0
M  V30 5615 H 507.499 -3.43229 -0.0699019 0
M  V30 5616 N 509.944 0.496216 -1.49584 0
M  V30 5617 C 510.854 1.62352 -1.69349 0
M  V30 5618 C 511.87 1.64184 -0.576147 0
M  V30 5619 O 513.046 1.82517 -0.85144 0
M  V30 5620 C 510.111 2.98698 -1.76013 0
M  V30 5621 C 509.172 3.07454 -2.99617 0
M  V30 5622 C 508.405 4.37296 -3.05953 0
M  V30 5623 O 508.628 5.2637 -2.19752 0
M  V30 5624 O 507.562 4.51124 -3.9846 0
M  V30 5625 H 511.388 1.48606 -2.64859 0
M  V30 5626 H 508.973 0.673022 -1.33382 0
M  V30 5627 H 510.855 3.79725 -1.82721 0
M  V30 5628 H 509.53 3.12696 -0.836828 0
M  V30 5629 H 508.437 2.25597 -2.98424 0
M  V30 5630 H 509.77 2.98385 -3.91443 0
M  V30 5631 N 511.423 1.38739 0.74761 0
M  V30 5632 C 512.37 1.36449 1.86146 0
M  V30 5633 C 513.34 0.226098 1.64554 0
M  V30 5634 O 514.525 0.41926 1.86137 0
M  V30 5635 C 511.665 1.2013 3.23516 0
M  V30 5636 C 510.778 2.43407 3.56899 0
M  V30 5637 C 509.913 2.19773 4.83605 0
M  V30 5638 C 508.952 3.3879 5.09792 0
M  V30 5639 N 508.089 3.14553 6.27695 0
M  V30 5640 H 512.929 2.3167 1.87438 0
M  V30 5641 H 510.466 1.15094 0.916063 0
M  V30 5642 H 512.424 1.08683 4.02795 0
M  V30 5643 H 511.054 0.285453 3.21535 0
M  V30 5644 H 510.106 2.65504 2.72418 0
M  V30 5645 H 511.418 3.32094 3.72176 0
M  V30 5646 H 510.572 2.05496 5.70838 0
M  V30 5647 H 509.311 1.28461 4.70478 0
M  V30 5648 H 508.316 3.53579 4.21025 0
M  V30 5649 H 509.541 4.30986 5.24812 0
M  V30 5650 H 507.487 2.25893 6.1588 0
M  V30 5651 H 507.404 3.96791 6.435 0
M  V30 5652 H 508.672 3.03943 7.17801 0
M  V30 5653 N 512.901 -0.976442 1.23707 0
M  V30 5654 C 514.317 -1.24341 1.00058 0
M  V30 5655 C 514.517 -1.99315 -0.295932 0
M  V30 5656 O 513.573 -2.3123 -1.01435 0
M  V30 5657 C 514.886 -2.03909 2.21001 0
M  V30 5658 C 516.434 -2.17034 2.25534 0
M  V30 5659 C 516.909 -2.99994 3.46075 0
M  V30 5660 N 518.4 -3.07578 3.46338 0
M  V30 5661 C 519.135 -3.72104 4.36264 0
M  V30 5662 N 518.631 -4.3842 5.36432 0
M  V30 5663 N 520.424 -3.69029 4.23998 0
M  V30 5664 H 512.575 -0.47428 2.07037 0
M  V30 5665 H 514.838 -0.272167 0.908091 0
M  V30 5666 H 514.544 -1.56198 3.15111 0
M  V30 5667 H 514.418 -3.04654 2.22409 0
M  V30 5668 H 516.805 -2.63951 1.31961 0
M  V30 5669 H 516.886 -1.15664 2.28156 0
M  V30 5670 H 516.53 -2.53772 4.39957 0
M  V30 5671 H 516.46 -4.01541 3.40694 0
M  V30 5672 H 518.951 -2.60397 2.73865 0
M  V30 5673 H 519.264 -4.85447 6.013 0
M  V30 5674 H 517.609 -4.37116 5.40328 0
M  V30 5675 H 520.8 -3.16392 3.44984 0
M  V30 5676 H 520.973 -4.19034 4.94282 0
M  V30 5677 N 514.379 -1.04941 -1.1758 0
M  V30 5678 C 515.625 -0.759112 -1.88057 0
M  V30 5679 C 515.958 0.711918 -1.8068 0
M  V30 5680 O 515.233 1.52035 -1.21308 0
M  V30 5681 C 515.516 -1.237 -3.38187 0
M  V30 5682 C 515.369 -2.77078 -3.54327 0
M  V30 5683 C 516.688 -0.834014 -4.32125 0
M  V30 5684 H 513.807 -0.277237 -0.682868 0
M  V30 5685 H 516.449 -1.30296 -1.38286 0
M  V30 5686 H 514.599 -0.774337 -3.80705 0
M  V30 5687 H 516.271 -3.31449 -3.20842 0
M  V30 5688 H 514.514 -3.16477 -2.96689 0
M  V30 5689 H 515.185 -3.05577 -4.59703 0
M  V30 5690 H 517.661 -1.23228 -3.97434 0
M  V30 5691 H 516.537 -1.19603 -5.35711 0
M  V30 5692 H 516.798 0.262195 -4.41322 0
M  V30 5693 N 515.857 1.33968 -0.830081 0
M  V30 5694 C 516.805 2.31301 -0.245435 0
M  V30 5695 C 517.799 1.57734 0.617762 0
M  V30 5696 O 519.005 1.72674 0.508303 0
M  V30 5697 H 515.38 0.749552 -0.0606316 0
M  V30 5698 H 517.351 2.78129 -1.08105 0
M  V30 5699 C 516.1 3.42961 0.572084 0
M  V30 5700 H 515.423 3.99714 -0.0828118 0
M  V30 5701 H 516.863 4.13286 0.94715 0
M  V30 5702 C 515.322 2.88043 1.74737 0
M  V30 5703 O 515.852 2.83508 2.8458 0
M  V30 5704 N 514.058 2.44768 1.56642 0
M  V30 5705 H 513.605 2.48656 0.672901 0
M  V30 5706 H 513.563 2.08375 2.3543 0
M  V30 5707 N 517.335 0.585699 1.46312 0
M  V30 5708 C 518.563 0.0781299 2.06752 0
M  V30 5709 C 518.978 -1.22812 1.43396 0
M  V30 5710 O 518.335 -1.74318 0.540314 0
M  V30 5711 C 518.386 -0.0911927 3.61385 0
M  V30 5712 O 518.107 1.16336 4.22371 0
M  V30 5713 C 519.608 -0.632765 4.38761 0
M  V30 5714 H 516.828 0.0588188 0.668417 0
M  V30 5715 H 519.372 0.807218 1.87894 0
M  V30 5716 H 517.527 -0.770514 3.7966 0
M  V30 5717 H 517.941 0.979082 5.15281 0
M  V30 5718 H 519.415 -0.70041 5.47538 0
M  V30 5719 H 519.892 -1.65039 4.07012 0
M  V30 5720 H 520.498 0.0117856 4.25298 0
M  V30 5721 N 518.813 -1.54241 0.323641 0
M  V30 5722 C 520.061 -2.00174 -0.278359 0
M  V30 5723 C 520.382 -1.2134 -1.52648 0
M  V30 5724 O 519.652 -0.315244 -1.93347 0
M  V30 5725 H 518.232 -0.739463 -0.105845 0
M  V30 5726 H 520.894 -1.89864 0.440204 0
M  V30 5727 H 519.99 -3.07486 -0.5347 0
M  V30 5728 N 520.291 -0.0518155 -1.57515 0
M  V30 5729 C 521.201 0.937539 -2.15052 0
M  V30 5730 C 522.217 1.34121 -1.10849 0
M  V30 5731 O 523.393 1.418 -1.4302 0
M  V30 5732 C 520.458 2.19379 -2.68466 0
M  V30 5733 C 519.519 1.84841 -3.87469 0
M  V30 5734 C 518.752 3.04477 -4.38326 0
M  V30 5735 O 518.975 4.17868 -3.88256 0
M  V30 5736 O 517.909 2.85453 -5.29906 0
M  V30 5737 H 521.735 0.478201 -2.99912 0
M  V30 5738 H 519.32 0.17012 -1.48428 0
M  V30 5739 H 521.202 2.93084 -3.02787 0
M  V30 5740 H 519.877 2.64449 -1.86677 0
M  V30 5741 H 518.784 1.08449 -3.58036 0
M  V30 5742 H 520.117 1.44569 -4.7049 0
M  V30 5743 N 521.769 1.56035 0.221574 0
M  V30 5744 C 522.679 1.95581 1.29558 0
M  V30 5745 C 523.695 0.859639 1.51282 0
M  V30 5746 O 524.871 1.16321 1.64413 0
M  V30 5747 C 521.936 2.26447 2.62531 0
M  V30 5748 C 520.997 3.49632 2.4911 0
M  V30 5749 C 520.23 3.79017 3.75742 0
M  V30 5750 O 520.453 3.10077 4.78757 0
M  V30 5751 O 519.387 4.72507 3.72855 0
M  V30 5752 H 523.213 2.8711 0.990035 0
M  V30 5753 H 520.798 1.43244 0.424434 0
M  V30 5754 H 522.68 2.47494 3.41064 0
M  V30 5755 H 521.355 1.38092 2.92766 0
M  V30 5756 H 520.262 3.33864 1.68777 0
M  V30 5757 H 521.595 4.3837 2.23814 0
M  V30 5758 N 523.247 -0.488276 1.49845 0
M  V30 5759 C 524.663 -0.820566 1.3689 0
M  V30 5760 C 524.863 -1.97248 0.411752 0
M  V30 5761 O 523.919 -2.52042 -0.151931 0
M  V30 5762 C 525.232 -1.1488 2.77891 0
M  V30 5763 C 526.78 -1.25626 2.86683 0
M  V30 5764 C 527.255 -1.61772 4.28479 0
M  V30 5765 N 528.746 -1.68797 4.31349 0
M  V30 5766 C 529.481 -1.98235 5.38043 0
M  V30 5767 N 528.977 -2.2581 6.54967 0
M  V30 5768 N 530.77 -1.99593 5.2547 0
M  V30 5769 H 522.921 0.271123 2.10662 0
M  V30 5770 H 525.184 0.058735 0.946179 0
M  V30 5771 H 524.89 -0.375614 3.49688 0
M  V30 5772 H 524.764 -2.08919 3.14058 0
M  V30 5773 H 527.151 -2.02014 2.15114 0
M  V30 5774 H 527.232 -0.296072 2.54081 0
M  V30 5775 H 526.876 -0.859295 5.00578 0
M  V30 5776 H 526.806 -2.58912 4.58554 0
M  V30 5777 H 529.297 -1.49595 3.4703 0
M  V30 5778 H 529.61 -2.47497 7.32096 0
M  V30 5779 H 527.955 -2.23239 6.58171 0
M  V30 5780 H 531.146 -1.77535 4.33127 0
M  V30 5781 H 531.319 -2.222 6.08713 0
M  V30 5782 N 524.725 -1.39134 -0.740242 0
M  V30 5783 C 526.141 -1.20623 -1.0451 0
M  V30 5784 C 526.341 -0.0641651 -2.01398 0
M  V30 5785 O 525.397 0.585843 -2.4561 0
M  V30 5786 C 526.71 -2.53815 -1.6124 0
M  V30 5787 C 528.258 -2.60615 -1.73346 0
M  V30 5788 C 528.733 -3.94015 -2.33486 0
M  V30 5789 N 530.224 -3.95627 -2.40902 0
M  V30 5790 C 530.959 -4.95616 -2.88361 0
M  V30 5791 N 530.455 -6.06003 -3.35756 0
M  V30 5792 N 532.248 -4.82998 -2.87523 0
M  V30 5793 H 524.399 -2.12176 -0.0975576 0
M  V30 5794 H 526.662 -0.942066 -0.105904 0
M  V30 5795 H 526.368 -3.37911 -0.975144 0
M  V30 5796 H 526.242 -2.73162 -2.6012 0
M  V30 5797 H 528.629 -1.76906 -2.36195 0
M  V30 5798 H 528.71 -2.45123 -0.731336 0
M  V30 5799 H 528.354 -4.78153 -1.71267 0
M  V30 5800 H 528.284 -4.06825 -3.34366 0
M  V30 5801 H 530.775 -3.15903 -2.07398 0
M  V30 5802 H 531.088 -6.78215 -3.70464 0
M  V30 5803 H 529.433 -6.09604 -3.33778 0
M  V30 5804 H 532.624 -3.95866 -2.49816 0
M  V30 5805 H 532.797 -5.61072 -3.24196 0
M  V30 5806 N 526.204 0.969867 -1.24223 0
M  V30 5807 C 527.151 2.06407 -1.0327 0
M  V30 5808 C 528.121 1.66014 0.0533 0
M  V30 5809 O 529.306 1.90533 -0.100896 0
M  V30 5810 C 526.446 3.3909 -0.641262 0
M  V30 5811 C 525.559 3.9269 -1.80051 0
M  V30 5812 C 524.694 5.13631 -1.35486 0
M  V30 5813 C 523.733 5.59423 -2.48419 0
M  V30 5814 N 522.87 6.71586 -2.04737 0
M  V30 5815 H 527.71 2.23663 -1.96923 0
M  V30 5816 H 525.247 1.09624 -0.980862 0
M  V30 5817 H 527.205 4.15323 -0.395351 0
M  V30 5818 H 525.835 3.21765 0.258269 0
M  V30 5819 H 524.887 3.13116 -2.16014 0
M  V30 5820 H 526.199 4.22636 -2.64916 0
M  V30 5821 H 525.353 5.97231 -1.0677 0
M  V30 5822 H 524.092 4.85364 -0.476722 0
M  V30 5823 H 523.097 4.74398 -2.77897 0
M  V30 5824 H 524.322 5.89705 -3.36786 0
M  V30 5825 H 522.268 6.45058 -1.19318 0
M  V30 5826 H 522.185 7.0097 -2.83156 0
M  V30 5827 H 523.453 7.58633 -1.79154 0
M  V30 5828 N 527.682 1.05563 1.17022 0
M  V30 5829 C 528.931 0.763036 1.8671 0
M  V30 5830 C 529.244 -0.712857 1.82147 0
M  V30 5831 O 530.45 -1.11955 2.47343 0
M  V30 5832 C 528.906 1.31474 3.35026 0
M  V30 5833 C 528.514 2.82034 3.48081 0
M  V30 5834 C 530.258 1.09935 4.10018 0
M  V30 5835 C 528.165 3.30486 4.90442 0
M  V30 5836 H 527.095 0.281747 0.699382 0
M  V30 5837 H 529.746 1.2734 1.32124 0
M  V30 5838 H 528.128 0.732171 3.89173 0
M  V30 5839 H 529.302 3.46178 3.04133 0
M  V30 5840 H 527.617 3.02156 2.86515 0
M  V30 5841 H 530.214 1.43632 5.15048 0
M  V30 5842 H 530.557 0.0373072 4.16283 0
M  V30 5843 H 531.09 1.64732 3.62089 0
M  V30 5844 H 527.829 4.36137 4.89352 0
M  V30 5845 H 527.349 2.71086 5.35044 0
M  V30 5846 H 529.028 3.25382 5.59227 0
M  V30 5847 N 529.16 -1.33526 0.837174 0
M  V30 5848 C 530.385 -2.0258 0.444545 0
M  V30 5849 C 530.81 -1.6258 -0.946006 0
M  V30 5850 O 530.168 -0.817548 -1.6182 0
M  V30 5851 C 530.216 -3.5605 0.571006 0
M  V30 5852 O 529.32 -4.10422 -0.403431 0
M  V30 5853 H 528.661 -0.638866 0.180958 0
M  V30 5854 H 531.191 -1.70462 1.13154 0
M  V30 5855 H 531.201 -4.05488 0.452024 0
M  V30 5856 H 529.876 -3.84509 1.58512 0
M  V30 5857 H 528.453 -3.72113 -0.242147 0
M  V30 5858 N 530.638 -0.59345 -1.46 0
M  V30 5859 C 531.548 0.135817 -2.34207 0
M  V30 5860 C 532.564 0.875008 -1.50398 0
M  V30 5861 O 533.74 0.835778 -1.83239 0
M  V30 5862 C 530.805 1.12977 -3.27776 0
M  V30 5863 C 529.866 0.394081 -4.27487 0
M  V30 5864 C 529.099 1.34068 -5.16586 0
M  V30 5865 O 529.322 2.5778 -5.08828 0
M  V30 5866 O 528.256 0.845426 -5.95933 0
M  V30 5867 H 532.082 -0.588691 -2.9794 0
M  V30 5868 H 529.667 -0.353784 -1.45151 0
M  V30 5869 H 531.549 1.70261 -3.85473 0
M  V30 5870 H 530.224 1.83556 -2.66625 0
M  V30 5871 H 529.131 -0.220869 -3.73447 0
M  V30 5872 H 530.464 -0.270939 -4.91454 0
M  V30 5873 N 532.116 1.54067 -0.331816 0
M  V30 5874 C 533.026 2.28322 0.539104 0
M  V30 5875 C 534.042 1.32985 1.1221 0
M  V30 5876 O 535.218 1.6601 1.1403 0
M  V30 5877 C 532.283 3.03277 1.68 0
M  V30 5878 C 531.344 4.14216 1.12798 0
M  V30 5879 C 530.577 4.85588 2.2145 0
M  V30 5880 O 530.8 4.56536 3.41952 0
M  V30 5881 O 529.734 5.72309 1.86404 0
M  V30 5882 H 533.56 3.03632 -0.0641692 0
M  V30 5883 H 531.145 1.49083 -0.0972365 0
M  V30 5884 H 533.027 3.50189 2.34405 0
M  V30 5885 H 531.702 2.30834 2.2693 0
M  V30 5886 H 530.609 3.71635 0.428782 0
M  V30 5887 H 531.942 4.88727 0.583698 0
M  V30 5888 N 533.594 0.0601682 1.57485 0
M  V30 5889 C 534.557 -0.896373 2.10945 0
M  V30 5890 C 535.557 -1.23402 1.03095 0
M  V30 5891 O 536.747 -1.16921 1.29132 0
M  V30 5892 C 533.879 -2.20346 2.60116 0
M  V30 5893 H 535.072 -0.432778 2.96761 0
M  V30 5894 H 532.625 -0.188372 1.55161 0
M  V30 5895 H 533.36 -2.71268 1.7772 0
M  V30 5896 H 533.145 -1.9714 3.38937 0
M  V30 5897 H 534.635 -2.88846 3.01592 0
M  V30 5898 N 535.072 -1.5615 -0.213296 0
M  V30 5899 C 536.035 -1.92249 -1.24792 0
M  V30 5900 C 537.035 -0.801828 -1.39382 0
M  V30 5901 O 538.225 -1.06948 -1.37506 0
M  V30 5902 C 535.357 -2.18056 -2.62039 0
M  V30 5903 H 536.55 -2.84793 -0.939845 0
M  V30 5904 H 534.103 -1.49559 -0.454062 0
M  V30 5905 H 534.838 -1.2809 -2.97932 0
M  V30 5906 H 534.623 -2.99703 -2.52825 0
M  V30 5907 H 536.113 -2.47051 -3.36683 0
M  V30 5908 N 536.55 0.480323 -1.50102 0
M  V30 5909 C 537.966 0.813295 -1.37323 0
M  V30 5910 C 538.166 1.97027 -0.422206 0
M  V30 5911 O 537.222 2.5212 0.138563 0
M  V30 5912 C 538.535 1.13404 -2.78496 0
M  V30 5913 C 540.083 1.24104 -2.87345 0
M  V30 5914 C 540.558 1.59497 -4.29331 0
M  V30 5915 N 542.049 1.66507 -4.32238 0
M  V30 5916 C 542.784 1.95378 -5.39087 0
M  V30 5917 N 542.28 2.22333 -6.56155 0
M  V30 5918 N 544.073 1.96803 -5.26522 0
M  V30 5919 H 536.224 -0.282291 -2.10516 0
M  V30 5920 H 538.487 -0.063752 -0.945854 0
M  V30 5921 H 538.193 0.357064 -3.49883 0
M  V30 5922 H 538.067 2.07251 -3.15162 0
M  V30 5923 H 540.454 2.00871 -2.16183 0
M  V30 5924 H 540.535 0.282593 -2.54234 0
M  V30 5925 H 540.179 0.832736 -5.01027 0
M  V30 5926 H 540.109 2.56477 -4.59921 0
M  V30 5927 H 542.6 1.47753 -3.47818 0
M  V30 5928 H 542.913 2.43611 -7.33399 0
M  V30 5929 H 541.258 2.19745 -6.59346 0
M  V30 5930 H 544.449 1.75235 -4.34062 0
M  V30 5931 H 544.622 2.18969 -6.09883 0
M  V30 5932 N 538.028 1.39524 0.732853 0
M  V30 5933 C 538.975 1.38416 1.84688 0
M  V30 5934 C 539.945 0.243539 1.64305 0
M  V30 5935 O 541.13 0.438979 1.85681 0
M  V30 5936 C 538.27 1.23555 3.22224 0
M  V30 5937 C 537.383 2.47179 3.54298 0
M  V30 5938 C 536.518 2.2489 4.81246 0
M  V30 5939 C 535.557 3.44178 5.0617 0
M  V30 5940 N 534.694 3.21192 6.24323 0
M  V30 5941 H 539.534 2.33645 1.84971 0
M  V30 5942 H 537.071 1.16059 0.903804 0
M  V30 5943 H 539.029 1.12949 4.0162 0
M  V30 5944 H 537.659 0.31954 3.21215 0
M  V30 5945 H 536.711 2.68379 2.69587 0
M  V30 5946 H 538.023 3.36022 3.68633 0
M  V30 5947 H 537.177 2.11538 5.68627 0
M  V30 5948 H 535.916 1.33443 4.69089 0
M  V30 5949 H 534.921 3.58025 4.17251 0
M  V30 5950 H 536.146 4.36528 5.20212 0
M  V30 5951 H 534.092 2.32413 6.1345 0
M  V30 5952 H 534.009 4.03594 6.39256 0
M  V30 5953 H 535.277 3.1154 7.14537 0
M  V30 5954 N 539.506 -0.963266 1.24736 0
M  V30 5955 C 540.922 -1.23273 1.01371 0
M  V30 5956 C 541.122 -1.99618 -0.274776 0
M  V30 5957 O 540.178 -2.32293 -0.989769 0
M  V30 5958 C 541.491 -2.01554 2.23152 0
M  V30 5959 C 543.039 -2.14629 2.27823 0
M  V30 5960 C 543.514 -2.96307 3.49237 0
M  V30 5961 N 545.005 -3.03887 3.49581 0
M  V30 5962 C 545.74 -3.67456 4.40186 0
M  V30 5963 N 545.236 -4.32706 5.41052 0
M  V30 5964 N 547.029 -3.64511 4.27888 0
M  V30 5965 H 539.18 -0.452294 2.07528 0
M  V30 5966 H 541.443 -0.262521 0.910926 0
M  V30 5967 H 541.149 -1.52847 3.1675 0
M  V30 5968 H 541.023 -3.02278 2.25628 0
M  V30 5969 H 543.41 -2.62537 1.34753 0
M  V30 5970 H 543.491 -1.13238 2.2937 0
M  V30 5971 H 543.135 -2.49091 4.42624 0
M  V30 5972 H 543.065 -3.97905 3.44933 0
M  V30 5973 H 545.556 -2.57477 2.76611 0
M  V30 5974 H 545.869 -4.79042 6.06415 0
M  V30 5975 H 544.214 -4.31361 5.44934 0
M  V30 5976 H 547.405 -3.12715 3.4832 0
M  V30 5977 H 547.578 -4.13768 4.98698 0
M  V30 5978 N 540.985 -1.06182 -1.16461 0
M  V30 5979 C 542.401 -0.785065 -1.38956 0
M  V30 5980 C 542.601 0.616103 -1.9185 0
M  V30 5981 O 541.657 1.37686 -2.11657 0
M  V30 5982 C 542.97 -1.84902 -2.37132 0
M  V30 5983 C 544.518 -1.8724 -2.50819 0
M  V30 5984 C 544.993 -2.92686 -3.52277 0
M  V30 5985 N 546.484 -2.91712 -3.59803 0
M  V30 5986 C 547.219 -3.69949 -4.38093 0
M  V30 5987 N 546.715 -4.58 -5.19815 0
M  V30 5988 N 548.508 -3.58346 -4.33064 0
M  V30 5989 H 540.659 -1.96569 -0.804634 0
M  V30 5990 H 542.922 -0.851747 -0.416211 0
M  V30 5991 H 542.628 -2.85518 -2.0536 0
M  V30 5992 H 542.502 -1.69908 -3.36766 0
M  V30 5993 H 544.889 -0.872827 -2.81897 0
M  V30 5994 H 544.97 -2.06311 -1.51226 0
M  V30 5995 H 544.614 -3.92835 -3.21937 0
M  V30 5996 H 544.544 -2.70864 -4.51598 0
M  V30 5997 H 547.035 -2.27876 -3.01464 0
M  V30 5998 H 547.348 -5.14357 -5.76764 0
M  V30 5999 H 545.693 -4.62056 -5.19162 0
M  V30 6000 H 548.884 -2.88943 -3.68279 0
M  V30 6001 H 549.057 -4.19563 -4.93833 0
M  V30 6002 N 542.463 1.3308 -0.844243 0
M  V30 6003 C 543.393 2.3161 -0.296493 0
M  V30 6004 C 544.374 1.59215 0.598707 0
M  V30 6005 O 545.559 1.87077 0.521134 0
M  V30 6006 C 542.689 3.43313 0.524762 0
M  V30 6007 C 541.643 4.27115 -0.275106 0
M  V30 6008 C 540.969 5.30483 0.670236 0
M  V30 6009 C 542.269 5.00443 -1.49514 0
M  V30 6010 H 543.963 2.77672 -1.11976 0
M  V30 6011 H 541.509 1.33496 -0.539899 0
M  V30 6012 H 543.462 4.11273 0.918298 0
M  V30 6013 H 542.186 2.95952 1.3813 0
M  V30 6014 H 540.845 3.60787 -0.650267 0
M  V30 6015 H 540.493 4.79379 1.52332 0
M  V30 6016 H 540.193 5.87435 0.139123 0
M  V30 6017 H 541.717 6.01308 1.06117 0
M  V30 6018 H 543.131 5.61141 -1.17447 0
M  V30 6019 H 541.528 5.67071 -1.96343 0
M  V30 6020 H 542.598 4.28906 -2.26202 0
M  V30 6021 N 543.941 0.601185 1.45683 0
M  V30 6022 C 544.851 -0.123395 2.34275 0
M  V30 6023 C 545.867 -0.86702 1.5086 0
M  V30 6024 O 547.043 -0.826049 1.8368 0
M  V30 6025 C 544.108 -1.11237 3.2837 0
M  V30 6026 C 543.169 -0.371405 4.2769 0
M  V30 6027 C 542.402 -1.31327 5.1729 0
M  V30 6028 O 542.625 -2.55078 5.10188 0
M  V30 6029 O 541.559 -0.813811 5.96373 0
M  V30 6030 H 545.385 0.604483 2.97623 0
M  V30 6031 H 542.97 0.361477 1.44961 0
M  V30 6032 H 544.852 -1.68214 3.8637 0
M  V30 6033 H 543.527 -1.82139 2.67595 0
M  V30 6034 H 542.434 0.24067 3.73325 0
M  V30 6035 H 543.767 0.296998 4.91303 0
M  V30 6036 N 545.419 -1.53889 0.339982 0
M  V30 6037 C 546.666 -2.00855 -0.257621 0
M  V30 6038 C 546.994 -1.22788 -1.50842 0
M  V30 6039 O 546.249 -0.302567 -1.93347 0
M  V30 6040 C 546.548 -3.51968 -0.620735 0
M  V30 6041 C 546.214 -4.47741 0.532771 0
M  V30 6042 C 544.876 -4.73645 0.849339 0
M  V30 6043 C 547.228 -5.04551 1.3068 0
M  V30 6044 C 544.556 -5.53614 1.94237 0
M  V30 6045 C 546.908 -5.85713 2.39005 0
M  V30 6046 C 545.572 -6.09912 2.71225 0
M  V30 6047 H 544.842 -0.734979 -0.0942703 0
M  V30 6048 H 547.489 -1.85714 0.467159 0
M  V30 6049 H 545.794 -3.64921 -1.42618 0
M  V30 6050 H 547.491 -3.85762 -1.09495 0
M  V30 6051 H 544.081 -4.27711 0.275973 0
M  V30 6052 H 548.265 -4.84507 1.07549 0
M  V30 6053 H 543.521 -5.7059 2.19628 0
M  V30 6054 H 547.695 -6.28748 2.99415 0
M  V30 6055 H 545.322 -6.71665 3.56047 0
M  V30 6056 N 546.897 -0.0685191 -1.57451 0
M  V30 6057 C 548.146 0.600898 -1.92541 0
M  V30 6058 C 548.459 1.70967 -0.950239 0
M  V30 6059 O 549.665 2.43844 -1.19384 0
M  V30 6060 C 548.121 1.12019 -3.42023 0
M  V30 6061 C 547.729 0.0426028 -4.4798 0
M  V30 6062 C 549.473 1.76386 -3.86119 0
M  V30 6063 C 547.38 0.575759 -5.88591 0
M  V30 6064 H 546.31 0.228225 -0.71863 0
M  V30 6065 H 548.961 -0.140223 -1.82963 0
M  V30 6066 H 547.343 1.91418 -3.46663 0
M  V30 6067 H 548.517 -0.73182 -4.54952 0
M  V30 6068 H 546.832 -0.504642 -4.13331 0
M  V30 6069 H 549.429 2.17302 -4.88553 0
M  V30 6070 H 549.772 2.62255 -3.23308 0
M  V30 6071 H 550.305 1.03615 -3.84069 0
M  V30 6072 H 547.044 -0.245691 -6.55039 0
M  V30 6073 H 546.564 1.31778 -5.85145 0
M  V30 6074 H 548.243 1.0532 -6.3837 0
M  V30 6075 N 548.375 1.56261 0.205012 0
M  V30 6076 C 549.285 1.96944 1.27476 0
M  V30 6077 C 550.301 0.875636 1.50362 0
M  V30 6078 O 551.477 1.18058 1.6317 0
M  V30 6079 C 548.542 2.29219 2.60115 0
M  V30 6080 C 547.603 3.52255 2.45387 0
M  V30 6081 C 546.836 3.8298 3.71701 0
M  V30 6082 O 547.059 3.15138 4.75441 0
M  V30 6083 O 545.993 4.76435 3.67823 0
M  V30 6084 H 549.819 2.88144 0.959527 0
M  V30 6085 H 547.404 1.43686 0.409217 0
M  V30 6086 H 549.286 2.51098 3.3842 0
M  V30 6087 H 547.961 1.4119 2.91285 0
M  V30 6088 H 546.868 3.35635 1.65227 0
M  V30 6089 H 548.201 4.40719 2.19152 0
M  V30 6090 N 549.853 -0.472356 1.50355 0
M  V30 6091 C 550.8 -1.57051 1.69126 0
M  V30 6092 C 551.77 -1.5733 0.532574 0
M  V30 6093 O 552.955 -1.7488 0.762994 0
M  V30 6094 C 550.095 -2.95033 1.79024 0
M  V30 6095 C 549.208 -3.04552 3.06386 0
M  V30 6096 C 548.343 -4.33441 3.07087 0
M  V30 6097 C 547.382 -4.36697 4.28908 0
M  V30 6098 N 546.519 -5.57056 4.27356 0
M  V30 6099 H 551.359 -1.40351 2.62879 0
M  V30 6100 H 548.896 -0.682403 1.30314 0
M  V30 6101 H 550.854 -3.75048 1.82744 0
M  V30 6102 H 549.484 -3.10371 0.887109 0
M  V30 6103 H 548.536 -2.17419 3.12143 0
M  V30 6104 H 549.848 -3.02818 3.96362 0
M  V30 6105 H 549.002 -5.21801 3.09529 0
M  V30 6106 H 547.741 -4.37782 2.14939 0
M  V30 6107 H 546.746 -3.46734 4.2668 0
M  V30 6108 H 547.971 -4.34049 5.22282 0
M  V30 6109 H 545.917 -5.62184 3.3806 0
M  V30 6110 H 545.834 -5.57058 5.111 0
M  V30 6111 H 547.102 -6.47545 4.33942 0
M  V30 6112 N 551.331 -1.39911 -0.725443 0
M  V30 6113 C 552.241 -1.41688 -1.8698 0
M  V30 6114 C 553.257 -0.310579 -1.71206 0
M  V30 6115 O 554.433 -0.55359 -1.93642 0
M  V30 6116 C 551.498 -1.26811 -3.22676 0
M  V30 6117 C 550.559 -2.47497 -3.50776 0
M  V30 6118 C 549.792 -2.3332 -4.79997 0
M  V30 6119 O 550.015 -1.34175 -5.54394 0
M  V30 6120 O 548.949 -3.22498 -5.08211 0
M  V30 6121 H 552.775 -2.38171 -1.88436 0
M  V30 6122 H 550.36 -1.21128 -0.874548 0
M  V30 6123 H 552.242 -1.20684 -4.03749 0
M  V30 6124 H 550.917 -0.334289 -3.21969 0
M  V30 6125 H 549.824 -2.59201 -2.69751 0
M  V30 6126 H 551.157 -3.39606 -3.5627 0
M  V30 6127 N 552.809 0.956637 -1.25245 0
M  V30 6128 C 553.756 2.053 -1.05454 0
M  V30 6129 C 554.726 1.66062 0.0356889 0
M  V30 6130 O 555.911 1.90415 -0.121099 0
M  V30 6131 C 553.051 3.38391 -0.677191 0
M  V30 6132 C 552.164 3.90758 -1.84206 0
M  V30 6133 C 551.299 5.12165 -1.40926 0
M  V30 6134 C 550.338 5.56757 -2.54338 0
M  V30 6135 N 549.475 6.69376 -2.11848 0
M  V30 6136 H 554.315 2.21562 -1.99284 0
M  V30 6137 H 551.852 1.08578 -0.992434 0
M  V30 6138 H 553.81 4.1488 -0.43938 0
M  V30 6139 H 552.44 3.22021 0.224127 0
M  V30 6140 H 551.492 3.10808 -2.19323 0
M  V30 6141 H 552.804 4.19802 -2.69383 0
M  V30 6142 H 551.958 5.96065 -1.13098 0
M  V30 6143 H 550.697 4.84832 -0.528175 0
M  V30 6144 H 549.702 4.71423 -2.82913 0
M  V30 6145 H 550.927 5.861 -3.43022 0
M  V30 6146 H 548.873 6.43756 -1.26153 0
M  V30 6147 H 548.79 6.97927 -2.90574 0
M  V30 6148 H 550.058 7.5669 -1.87191 0
M  V30 6149 N 554.287 1.06798 1.15896 0
M  V30 6150 C 555.234 0.683314 2.20453 0
M  V30 6151 C 556.204 -0.32255 1.62938 0
M  V30 6152 O 557.389 -0.210276 1.89638 0
M  V30 6153 C 554.529 0.0813266 3.45004 0
M  V30 6154 C 553.642 1.13799 4.16742 0
M  V30 6155 C 552.777 0.501598 5.28826 0
M  V30 6156 C 551.816 1.54144 5.92373 0
M  V30 6157 N 550.953 0.928038 6.9594 0
M  V30 6158 H 555.793 1.57932 2.52708 0
M  V30 6159 H 553.33 0.789544 1.24115 0
M  V30 6160 H 555.288 -0.285274 4.16224 0
M  V30 6161 H 553.918 -0.77806 3.13283 0
M  V30 6162 H 552.97 1.62223 3.44075 0
M  V30 6163 H 554.282 1.92664 4.60089 0
M  V30 6164 H 553.436 0.0823162 6.06644 0
M  V30 6165 H 552.175 -0.318883 4.86656 0
M  V30 6166 H 551.18 1.97056 5.13273 0
M  V30 6167 H 552.405 2.3641 6.36621 0
M  V30 6168 H 550.351 0.12836 6.55874 0
M  V30 6169 H 550.268 1.65401 7.37685 0
M  V30 6170 H 551.536 0.534071 7.77668 0
M  V30 6171 N 555.766 -1.3263 0.851289 0
M  V30 6172 C 556.698 -2.27824 0.250757 0
M  V30 6173 C 557.711 -1.52285 -0.575598 0
M  V30 6174 O 558.9 -1.73946 -0.400638 0
M  V30 6175 C 556 -3.3232 -0.664571 0
M  V30 6176 C 555.173 -4.37221 0.125187 0
M  V30 6177 C 554.232 -5.21314 -0.715385 0
M  V30 6178 O 553.258 -5.69002 -0.150111 0
M  V30 6179 N 554.46 -5.43823 -2.03069 0
M  V30 6180 H 557.225 -2.79997 1.06873 0
M  V30 6181 H 554.786 -1.45455 0.710943 0
M  V30 6182 H 556.778 -3.85486 -1.23216 0
M  V30 6183 H 555.348 -2.80331 -1.38323 0
M  V30 6184 H 554.568 -3.84384 0.874199 0
M  V30 6185 H 555.856 -5.04399 0.667774 0
M  V30 6186 H 555.254 -5.06803 -2.51332 0
M  V30 6187 H 553.811 -5.99998 -2.54648 0
M  V30 6188 N 557.244 -0.608902 -1.45362 0
M  V30 6189 C 558.191 0.109172 -2.30542 0
M  V30 6190 C 559.161 0.858704 -1.42181 0
M  V30 6191 O 560.346 0.844178 -1.71109 0
M  V30 6192 C 557.486 1.09971 -3.27109 0
M  V30 6193 C 556.599 0.350911 -4.30572 0
M  V30 6194 C 555.734 1.33129 -5.14247 0
M  V30 6195 C 554.773 0.570377 -6.09437 0
M  V30 6196 N 553.91 1.5001 -6.85887 0
M  V30 6197 H 558.75 -0.623195 -2.91411 0
M  V30 6198 H 556.287 -0.319122 -1.43597 0
M  V30 6199 H 558.245 1.68714 -3.81564 0
M  V30 6200 H 556.875 1.79947 -2.67991 0
M  V30 6201 H 555.927 -0.352054 -3.78767 0
M  V30 6202 H 557.239 -0.242725 -4.98209 0
M  V30 6203 H 556.393 1.99074 -5.73109 0
M  V30 6204 H 555.132 1.95885 -4.46632 0
M  V30 6205 H 554.137 -0.102702 -5.49704 0
M  V30 6206 H 555.362 -0.0521607 -6.7908 0
M  V30 6207 H 553.308 2.11529 -6.2096 0
M  V30 6208 H 553.225 0.959934 -7.49881 0
M  V30 6209 H 554.493 2.14909 -7.49289 0
M  V30 6210 N 558.722 1.53707 -0.348139 0
M  V30 6211 C 559.999 1.93247 0.302475 0
M  V30 6212 C 560.379 1.28012 1.67857 0
M  V30 6213 O 559.727 0.43274 2.24365 0
M  V30 6214 C 559.937 3.47031 0.370159 0
M  V30 6215 C 561.285 4.20066 0.61882 0
M  V30 6216 O 562.309 3.53319 0.452087 0
M  V30 6217 O 561.168 5.38318 0.94215 0
M  V30 6218 H 558.262 0.807736 0.177458 0
M  V30 6219 H 560.808 1.64927 -0.399651 0
M  V30 6220 H 559.58 3.86745 -0.59534 0
M  V30 6221 H 559.203 3.81532 1.11888 0
M  V30 6222 N 560.2 0.0768682 1.57412 0
M  V30 6223 C 561.132 -0.918248 2.10002 0
M  V30 6224 C 562.145 -1.25808 1.03325 0
M  V30 6225 O 563.334 -1.21438 1.30824 0
M  V30 6226 C 560.434 -2.23263 2.54964 0
M  V30 6227 C 559.607 -2.07088 3.8527 0
M  V30 6228 C 558.666 -3.21876 4.16272 0
M  V30 6229 O 557.692 -2.96643 4.8579 0
M  V30 6230 N 558.894 -4.4712 3.70221 0
M  V30 6231 H 561.659 -0.469209 2.96004 0
M  V30 6232 H 559.22 -0.108725 1.61535 0
M  V30 6233 H 561.212 -2.9897 2.72762 0
M  V30 6234 H 559.782 -2.59649 1.74072 0
M  V30 6235 H 559.002 -1.15818 3.76802 0
M  V30 6236 H 560.29 -1.93537 4.70554 0
M  V30 6237 H 559.688 -4.70506 3.1407 0
M  V30 6238 H 558.245 -5.19837 3.93209 0
M  V30 6239 N 561.678 -1.56367 -0.196722 0
M  V30 6240 C 562.927 -1.79724 -0.915539 0
M  V30 6241 C 563.24 -0.649804 -1.84491 0
M  V30 6242 O 564.446 -0.767631 -2.60422 0
M  V30 6243 C 562.902 -3.18369 -1.67836 0
M  V30 6244 C 562.51 -4.4091 -0.793897 0
M  V30 6245 C 564.254 -3.51037 -2.38691 0
M  V30 6246 C 562.161 -5.70577 -1.55549 0
M  V30 6247 H 561.091 -0.67013 -0.345604 0
M  V30 6248 H 563.742 -1.82721 -0.168856 0
M  V30 6249 H 562.124 -3.09617 -2.46887 0
M  V30 6250 H 563.298 -4.60781 -0.042163 0
M  V30 6251 H 561.613 -4.15937 -0.19626 0
M  V30 6252 H 564.21 -4.4515 -2.96219 0
M  V30 6253 H 564.553 -2.74704 -3.12799 0
M  V30 6254 H 565.086 -3.61229 -1.66608 0
M  V30 6255 H 561.825 -6.49871 -0.857226 0
M  V30 6256 H 561.345 -5.54726 -2.2812 0
M  V30 6257 H 563.024 -6.11637 -2.10971 0
M  V30 6258 N 563.156 0.464375 -1.50603 0
M  V30 6259 C 564.405 1.21277 -1.61167 0
M  V30 6260 C 564.718 1.92953 -0.320704 0
M  V30 6261 O 565.924 2.69778 -0.30534 0
M  V30 6262 C 564.38 2.20403 -2.84518 0
M  V30 6263 C 563.988 1.54499 -4.20516 0
M  V30 6264 C 565.732 2.95843 -3.0443 0
M  V30 6265 C 563.639 2.51951 -5.35047 0
M  V30 6266 H 562.569 0.456367 -0.600204 0
M  V30 6267 H 565.22 0.48254 -1.77042 0
M  V30 6268 H 563.602 2.96746 -2.62217 0
M  V30 6269 H 564.776 0.83899 -4.53098 0
M  V30 6270 H 563.091 0.913152 -4.06264 0
M  V30 6271 H 565.688 3.6879 -3.87167 0
M  V30 6272 H 566.031 3.55622 -2.16423 0
M  V30 6273 H 566.564 2.26611 -3.26944 0
M  V30 6274 H 563.303 1.96901 -6.25228 0
M  V30 6275 H 562.823 3.20683 -5.06875 0
M  V30 6276 H 564.502 3.13643 -5.65895 0
M  V30 6277 N 564.634 1.40294 0.718013 0
M  V30 6278 C 565.859 1.41941 1.5122 0
M  V30 6279 C 566.284 0.0202371 1.88089 0
M  V30 6280 O 565.642 -0.971078 1.53101 0
M  V30 6281 C 565.69 2.3141 2.76554 0
M  V30 6282 O 564.794 1.75567 3.73162 0
M  V30 6283 H 564.135 0.482644 0.456016 0
M  V30 6284 H 566.665 1.84494 0.884478 0
M  V30 6285 H 566.675 2.46513 3.25108 0
M  V30 6286 H 565.35 3.33085 2.49053 0
M  V30 6287 H 563.927 1.69798 3.31999 0
M  V30 6288 N 566.112 -0.949982 1.2575 0
M  V30 6289 C 567.042 -2.06483 1.09028 0
M  V30 6290 C 568.023 -1.701 -0.00201532 0
M  V30 6291 O 569.208 -1.93469 0.168383 0
M  V30 6292 C 566.338 -3.39899 0.71316 0
M  V30 6293 C 565.292 -3.90309 1.75621 0
M  V30 6294 C 564.618 -5.20274 1.23365 0
M  V30 6295 C 565.918 -4.16169 3.15596 0
M  V30 6296 H 567.612 -2.20731 2.02283 0
M  V30 6297 H 565.158 -1.06066 0.973964 0
M  V30 6298 H 567.111 -4.17346 0.58309 0
M  V30 6299 H 565.835 -3.25602 -0.255091 0
M  V30 6300 H 564.494 -3.15035 1.8748 0
M  V30 6301 H 564.142 -5.02351 0.255491 0
M  V30 6302 H 563.842 -5.54971 1.93082 0
M  V30 6303 H 565.366 -6.00314 1.11607 0
M  V30 6304 H 566.78 -4.84259 3.06864 0
M  V30 6305 H 565.177 -4.62131 3.82825 0
M  V30 6306 H 566.247 -3.22273 3.6231 0
M  V30 6307 N 567.59 -1.07411 -1.15328 0
M  V30 6308 C 568.523 -0.63913 -2.19067 0
M  V30 6309 C 569.501 0.343929 -1.58921 0
M  V30 6310 O 570.685 0.250207 -1.86832 0
M  V30 6311 C 567.812 0.0613977 -3.38644 0
M  V30 6312 C 566.858 -0.880201 -4.17318 0
M  V30 6313 S 567.691 -2.38152 -4.79629 0
M  V30 6314 C 568.847 -1.69281 -6.02573 0
M  V30 6315 H 569.08 -1.51799 -2.55626 0
M  V30 6316 H 566.613 -0.888138 -1.26299 0
M  V30 6317 H 568.571 0.459323 -4.07922 0
M  V30 6318 H 567.232 0.916605 -3.00428 0
M  V30 6319 H 566.425 -0.336781 -5.02874 0
M  V30 6320 H 566.027 -1.21854 -3.53592 0
M  V30 6321 H 568.319 -1.00488 -6.70006 0
M  V30 6322 H 569.262 -2.52671 -6.61485 0
M  V30 6323 H 569.67 -1.17053 -5.52231 0
M  V30 6324 N 569.068 1.32177 -0.85831 0
M  V30 6325 C 570.015 2.28794 -0.303607 0
M  V30 6326 C 570.985 1.55213 0.591453 0
M  V30 6327 O 572.17 1.83418 0.525585 0
M  V30 6328 C 569.31 3.41475 0.49889 0
M  V30 6329 C 568.423 4.2993 -0.422373 0
M  V30 6330 C 567.558 5.29743 0.393111 0
M  V30 6331 C 566.597 6.09842 -0.525317 0
M  V30 6332 N 565.734 7.01643 0.253208 0
M  V30 6333 H 570.574 2.75631 -1.13276 0
M  V30 6334 H 568.111 1.35606 -0.570026 0
M  V30 6335 H 570.069 4.05531 0.979826 0
M  V30 6336 H 568.699 2.95779 1.29284 0
M  V30 6337 H 567.751 3.66422 -1.02171 0
M  V30 6338 H 569.063 4.85899 -1.12709 0
M  V30 6339 H 568.217 5.9942 0.937056 0
M  V30 6340 H 566.956 4.744 1.13117 0
M  V30 6341 H 565.961 5.39066 -1.08112 0
M  V30 6342 H 567.186 6.6727 -1.26205 0
M  V30 6343 H 565.132 6.48725 0.974295 0
M  V30 6344 H 565.049 7.54981 -0.392398 0
M  V30 6345 H 566.317 7.756 0.778761 0
M  V30 6346 N 570.547 0.616602 1.45037 0
M  V30 6347 C 571.51 -0.0871112 2.29034 0
M  V30 6348 C 572.51 -0.786414 1.40258 0
M  V30 6349 O 573.7 -0.633207 1.62284 0
M  V30 6350 C 570.832 -1.13369 3.21497 0
M  V30 6351 H 572.025 0.651497 2.92738 0
M  V30 6352 H 569.578 0.376058 1.51709 0
M  V30 6353 H 570.313 -1.90277 2.62612 0
M  V30 6354 H 570.098 -0.636358 3.86902 0
M  V30 6355 H 571.588 -1.62627 3.84633 0
M  V30 6356 N 572.025 -1.5352 0.356285 0
M  V30 6357 C 572.935 -2.29151 -0.502712 0
M  V30 6358 C 573.951 -1.34753 -1.1008 0
M  V30 6359 O 575.127 -1.67803 -1.11374 0
M  V30 6360 C 572.192 -3.05911 -1.63154 0
M  V30 6361 C 571.253 -4.15958 -1.06194 0
M  V30 6362 C 570.486 -4.8905 -2.13696 0
M  V30 6363 O 570.709 -4.61919 -3.34645 0
M  V30 6364 O 569.643 -5.75202 -1.77275 0
M  V30 6365 H 573.469 -3.03492 0.112466 0
M  V30 6366 H 571.054 -1.4891 0.120942 0
M  V30 6367 H 572.936 -3.53874 -2.28804 0
M  V30 6368 H 571.611 -2.34415 -2.23229 0
M  V30 6369 H 570.518 -3.7227 -0.369603 0
M  V30 6370 H 571.851 -4.89593 -0.505872 0
M  V30 6371 N 573.503 -0.0852151 -1.57369 0
M  V30 6372 C 574.435 0.907099 -2.10486 0
M  V30 6373 C 575.448 1.25259 -1.03991 0
M  V30 6374 O 576.637 1.20743 -1.31467 0
M  V30 6375 C 573.737 2.21908 -2.56145 0
M  V30 6376 C 572.91 2.05042 -3.86363 0
M  V30 6377 C 571.969 3.19664 -4.17973 0
M  V30 6378 O 570.995 2.94062 -4.87356 0
M  V30 6379 N 572.197 4.45151 -3.72587 0
M  V30 6380 H 574.962 0.453505 -2.96249 0
M  V30 6381 H 572.523 0.100157 -1.6159 0
M  V30 6382 H 574.515 2.97519 -2.74343 0
M  V30 6383 H 573.085 2.58723 -1.75446 0
M  V30 6384 H 572.305 1.13819 -3.77411 0
M  V30 6385 H 573.593 1.91039 -4.71574 0
M  V30 6386 H 572.991 4.68834 -3.16561 0
M  V30 6387 H 571.548 5.17744 -3.9596 0
M  V30 6388 N 574.981 1.5647 0.188427 0
M  V30 6389 C 575.914 1.90146 1.26173 0
M  V30 6390 C 576.892 0.762294 1.43624 0
M  V30 6391 O 578.076 1.01395 1.58907 0
M  V30 6392 C 575.203 2.13748 2.62735 0
M  V30 6393 C 574.249 3.36448 2.62116 0
M  V30 6394 S 575.082 4.91364 2.12889 0
M  V30 6395 C 576.238 5.18041 3.51261 0
M  V30 6396 H 576.471 2.80886 0.974192 0
M  V30 6397 H 574.004 1.49335 0.392226 0
M  V30 6398 H 575.962 2.28028 3.41341 0
M  V30 6399 H 574.623 1.23747 2.88696 0
M  V30 6400 H 573.816 3.50109 3.62546 0
M  V30 6401 H 573.418 3.21196 1.91596 0
M  V30 6402 H 575.71 5.0897 4.47164 0
M  V30 6403 H 576.653 6.19764 3.42489 0
M  V30 6404 H 577.061 4.45657 3.46482 0
M  V30 6405 N 576.459 -0.456382 1.50847 0
M  V30 6406 C 577.406 -1.55249 1.70782 0
M  V30 6407 C 578.376 -1.56757 0.549231 0
M  V30 6408 O 579.561 -1.74061 0.7815 0
M  V30 6409 C 576.701 -2.93118 1.82143 0
M  V30 6410 C 575.814 -3.01285 3.09598 0
M  V30 6411 C 574.949 -4.30159 3.11667 0
M  V30 6412 C 573.988 -4.32124 4.33515 0
M  V30 6413 N 573.125 -5.52492 4.3324 0
M  V30 6414 H 577.965 -1.37555 2.64353 0
M  V30 6415 H 575.502 -0.668543 1.3103 0
M  V30 6416 H 577.46 -3.73088 1.86711 0
M  V30 6417 H 576.09 -3.09413 0.919978 0
M  V30 6418 H 575.142 -2.14096 3.14431 0
M  V30 6419 H 576.454 -2.98597 3.99551 0
M  V30 6420 H 575.608 -5.18489 3.15046 0
M  V30 6421 H 574.347 -4.35477 2.1957 0
M  V30 6422 H 573.352 -3.42189 4.30333 0
M  V30 6423 H 574.577 -4.28485 5.26856 0
M  V30 6424 H 572.523 -5.58567 3.44004 0
M  V30 6425 H 572.44 -5.51605 5.16979 0
M  V30 6426 H 573.708 -6.42906 4.40786 0
M  V30 6427 N 577.937 -1.40673 -0.710563 0
M  V30 6428 C 579.353 -1.22813 -1.01928 0
M  V30 6429 C 579.553 -0.10687 -2.01216 0
M  V30 6430 O 578.609 0.533614 -2.46797 0
M  V30 6431 C 579.922 -2.57178 -1.5582 0
M  V30 6432 C 581.47 -2.64233 -1.67779 0
M  V30 6433 C 581.945 -3.98879 -2.25076 0
M  V30 6434 N 583.436 -4.00647 -2.32456 0
M  V30 6435 C 584.171 -5.01621 -2.77784 0
M  V30 6436 N 583.667 -6.12989 -3.22826 0
M  V30 6437 N 585.46 -4.88988 -2.77213 0
M  V30 6438 H 577.611 -2.12335 -0.05253 0
M  V30 6439 H 579.874 -0.9441 -0.085898 0
M  V30 6440 H 579.58 -3.39903 -0.903249 0
M  V30 6441 H 579.454 -2.78618 -2.54267 0
M  V30 6442 H 581.841 -1.81876 -2.3239 0
M  V30 6443 H 581.922 -2.46619 -0.679178 0
M  V30 6444 H 581.566 -4.81678 -1.61086 0
M  V30 6445 H 581.496 -4.13826 -3.25661 0
M  V30 6446 H 583.987 -3.20231 -2.0065 0
M  V30 6447 H 584.3 -6.85921 -3.55995 0
M  V30 6448 H 582.645 -6.16547 -3.20773 0
M  V30 6449 H 585.836 -4.01075 -2.41363 0
M  V30 6450 H 586.009 -5.67822 -3.12221 0
M  V30 6451 N 579.415 0.9433 -1.26252 0
M  V30 6452 C 580.347 2.04542 -1.03417 0
M  V30 6453 C 581.36 1.62799 0.0046911 0
M  V30 6454 O 582.549 1.76944 -0.235146 0
M  V30 6455 C 579.649 3.34511 -0.543671 0
M  V30 6456 C 578.822 4.05033 -1.65128 0
M  V30 6457 C 577.881 5.13273 -1.1592 0
M  V30 6458 O 576.907 5.38095 -1.85586 0
M  V30 6459 N 578.109 5.805 -0.00649279 0
M  V30 6460 H 580.874 2.24699 -1.98319 0
M  V30 6461 H 578.435 1.11264 -1.1761 0
M  V30 6462 H 580.427 4.04212 -0.198703 0
M  V30 6463 H 578.997 3.11042 0.311711 0
M  V30 6464 H 578.217 3.29275 -2.16729 0
M  V30 6465 H 579.505 4.48903 -2.39508 0
M  V30 6466 H 578.903 5.62767 0.575347 0
M  V30 6467 H 577.46 6.51201 0.279416 0
M  V30 6468 N 580.893 1.08022 1.14757 0
M  V30 6469 C 581.803 0.718292 2.23333 0
M  V30 6470 C 582.819 -0.273477 1.71837 0
M  V30 6471 O 583.995 -0.118406 2.01052 0
M  V30 6472 C 581.06 0.128855 3.4646 0
M  V30 6473 C 580.121 1.17473 4.12915 0
M  V30 6474 C 579.354 0.61333 5.30164 0
M  V30 6475 O 579.577 -0.568458 5.6756 0
M  V30 6476 O 578.511 1.3615 5.86299 0
M  V30 6477 H 582.337 1.62394 2.56636 0
M  V30 6478 H 579.922 0.853628 1.22611 0
M  V30 6479 H 581.804 -0.197249 4.20938 0
M  V30 6480 H 580.479 -0.750014 3.14891 0
M  V30 6481 H 579.386 1.5533 3.40328 0
M  V30 6482 H 580.719 2.02574 4.48581 0
M  V30 6483 N 582.371 -1.3172 0.865308 0
M  V30 6484 C 583.318 -2.2863 0.315736 0
M  V30 6485 C 584.288 -1.55524 -0.583213 0
M  V30 6486 O 585.473 -1.83694 -0.51585 0
M  V30 6487 C 582.613 -3.41735 -0.480773 0
M  V30 6488 C 581.726 -4.297 0.445167 0
M  V30 6489 C 580.861 -5.29944 -0.365012 0
M  V30 6490 C 579.9 -6.09554 0.557651 0
M  V30 6491 N 579.037 -7.01768 -0.215994 0
M  V30 6492 H 583.877 -2.75026 1.14736 0
M  V30 6493 H 581.414 -1.35302 0.577209 0
M  V30 6494 H 583.372 -4.06045 -0.958306 0
M  V30 6495 H 582.002 -2.96461 -1.27714 0
M  V30 6496 H 581.054 -3.65875 1.04113 0
M  V30 6497 H 582.366 -4.85295 1.15284 0
M  V30 6498 H 581.52 -5.99908 -0.905255 0
M  V30 6499 H 580.259 -4.74994 -1.106 0
M  V30 6500 H 579.264 -5.38485 1.10969 0
M  V30 6501 H 580.489 -6.66591 1.29742 0
M  V30 6502 H 578.435 -6.49232 -0.939878 0
M  V30 6503 H 578.352 -7.54762 0.432431 0
M  V30 6504 H 579.62 -7.76002 -0.737618 0
M  V30 6505 N 583.85 -0.624285 -1.44708 0
M  V30 6506 C 584.76 0.0861083 -2.34442 0
M  V30 6507 C 585.776 0.84291 -1.5222 0
M  V30 6508 O 586.952 0.796723 -1.84971 0
M  V30 6509 C 584.017 1.05999 -3.30099 0
M  V30 6510 C 583.077 0.303316 -4.28227 0
M  V30 6511 C 582.311 1.23081 -5.19314 0
M  V30 6512 O 582.534 2.46929 -5.14181 0
M  V30 6513 O 581.468 0.71883 -5.97592 0
M  V30 6514 H 585.293 -0.651756 -2.96624 0
M  V30 6515 H 582.879 -0.384493 -1.44368 0
M  V30 6516 H 584.76 1.62046 -3.88997 0
M  V30 6517 H 583.436 1.77859 -2.70459 0
M  V30 6518 H 582.343 -0.300033 -3.72895 0
M  V30 6519 H 583.676 -0.375123 -4.90768 0
M  V30 6520 N 585.328 1.53329 -0.364422 0
M  V30 6521 C 586.744 1.59594 -0.0133165 0
M  V30 6522 C 586.944 1.37959 1.46865 0
M  V30 6523 O 586 1.18418 2.2301 0
M  V30 6524 C 587.313 2.97032 -0.468213 0
M  V30 6525 C 588.861 3.10138 -0.422334 0
M  V30 6526 C 589.336 4.49986 -0.853024 0
M  V30 6527 N 590.827 4.56098 -0.808037 0
M  V30 6528 C 591.562 5.62495 -1.11299 0
M  V30 6529 N 591.058 6.7665 -1.48717 0
M  V30 6530 N 592.851 5.52473 -1.03586 0
M  V30 6531 H 585.002 1.65644 -1.32951 0
M  V30 6532 H 587.265 0.77684 -0.543345 0
M  V30 6533 H 586.971 3.18 -1.5023 0
M  V30 6534 H 586.845 3.76918 0.145775 0
M  V30 6535 H 589.232 2.88881 0.602622 0
M  V30 6536 H 589.313 2.32263 -1.0718 0
M  V30 6537 H 588.957 4.7198 -1.87609 0
M  V30 6538 H 588.887 5.26289 -0.180819 0
M  V30 6539 H 591.378 3.74131 -0.532361 0
M  V30 6540 H 591.691 7.53776 -1.70415 0
M  V30 6541 H 590.036 6.78044 -1.52581 0
M  V30 6542 H 593.227 4.6217 -0.742736 0
M  V30 6543 H 593.4 6.35295 -1.27686 0
M  V30 6544 N 586.806 0.0935595 1.57322 0
M  V30 6545 C 587.736 -0.863062 2.16964 0
M  V30 6546 C 588.717 -1.29528 1.10256 0
M  V30 6547 O 589.902 -1.36245 1.38387 0
M  V30 6548 C 587.032 -2.12276 2.74875 0
M  V30 6549 C 585.986 -1.82921 3.86942 0
M  V30 6550 C 585.312 -3.15707 4.31548 0
M  V30 6551 C 586.612 -1.11737 5.10208 0
M  V30 6552 H 588.306 -0.366145 2.97153 0
M  V30 6553 H 585.852 -0.174673 1.42937 0
M  V30 6554 H 587.805 -2.79634 3.1525 0
M  V30 6555 H 586.529 -2.64248 1.91938 0
M  V30 6556 H 585.188 -1.17961 3.47103 0
M  V30 6557 H 584.836 -3.65563 3.45504 0
M  V30 6558 H 584.536 -2.96849 5.07104 0
M  V30 6559 H 586.06 -3.84226 4.74555 0
M  V30 6560 H 587.474 -1.69203 5.47762 0
M  V30 6561 H 585.871 -1.03064 5.91183 0
M  V30 6562 H 586.941 -0.0998818 4.84797 0
M  V30 6563 N 588.284 -1.56567 -0.180126 0
M  V30 6564 C 589.194 -1.98947 -1.24327 0
M  V30 6565 C 590.21 -0.899446 -1.4895 0
M  V30 6566 O 591.386 -1.20639 -1.61271 0
M  V30 6567 C 588.451 -2.33328 -2.56435 0
M  V30 6568 C 587.512 -3.56114 -2.39752 0
M  V30 6569 C 586.745 -3.88845 -3.65561 0
M  V30 6570 O 586.968 -3.22662 -4.70368 0
M  V30 6571 O 585.902 -4.82226 -3.60197 0
M  V30 6572 H 589.728 -2.89634 -0.913565 0
M  V30 6573 H 587.313 -1.44319 -0.386306 0
M  V30 6574 H 589.195 -2.5645 -3.34382 0
M  V30 6575 H 587.87 -1.45806 -2.89002 0
M  V30 6576 H 586.777 -3.38221 -1.59866 0
M  V30 6577 H 588.11 -4.4415 -2.12113 0
M  V30 6578 N 589.762 0.448376 -1.51087 0
M  V30 6579 C 591.178 0.783984 -1.39017 0
M  V30 6580 C 591.378 1.96087 -0.463904 0
M  V30 6581 O 590.434 2.52357 0.0850534 0
M  V30 6582 C 591.747 1.07471 -2.80839 0
M  V30 6583 C 593.295 1.17981 -2.89913 0
M  V30 6584 C 593.77 1.50354 -4.32617 0
M  V30 6585 N 595.261 1.57301 -4.35673 0
M  V30 6586 C 595.996 1.839 -5.4311 0
M  V30 6587 N 595.492 2.08365 -6.60724 0
M  V30 6588 N 597.285 1.8559 -5.30578 0
M  V30 6589 H 589.436 -0.326881 -2.0987 0
M  V30 6590 H 591.699 -0.0838006 -0.944289 0
M  V30 6591 H 591.405 0.282768 -3.50561 0
M  V30 6592 H 591.279 2.00519 -3.19487 0
M  V30 6593 H 593.666 1.9624 -2.20395 0
M  V30 6594 H 593.747 0.228603 -2.54776 0
M  V30 6595 H 593.391 0.726273 -5.0268 0
M  V30 6596 H 593.321 2.46663 -4.65258 0
M  V30 6597 H 595.812 1.40342 -3.50874 0
M  V30 6598 H 596.125 2.27999 -7.38401 0
M  V30 6599 H 594.47 2.0571 -6.63859 0
M  V30 6600 H 597.661 1.65989 -4.37682 0
M  V30 6601 H 597.834 2.05983 -6.1439 0
M  V30 6602 N 591.24 1.41047 0.703093 0
M  V30 6603 C 592.489 1.39301 1.4587 0
M  V30 6604 C 592.802 0.00267077 1.956 0
M  V30 6605 O 594.008 -0.137414 2.71152 0
M  V30 6606 C 592.464 2.44891 2.63735 0
M  V30 6607 C 592.072 3.89796 2.20824 0
M  V30 6608 C 593.816 2.5227 3.41409 0
M  V30 6609 C 591.723 4.86955 3.35602 0
M  V30 6610 H 590.653 0.518005 0.547893 0
M  V30 6611 H 593.304 1.66839 0.764009 0
M  V30 6612 H 591.686 2.10472 3.35436 0
M  V30 6613 H 592.86 4.33424 1.56461 0
M  V30 6614 H 591.175 3.86008 1.56163 0
M  V30 6615 H 593.772 3.22044 4.26839 0
M  V30 6616 H 594.115 1.55714 3.86081 0
M  V30 6617 H 594.648 2.85742 2.7676 0
M  V30 6618 H 591.387 5.84888 2.9595 0
M  V30 6619 H 590.907 4.47982 3.98839 0
M  V30 6620 H 592.586 5.07361 4.01489 0
M  V30 6621 N 592.718 -0.936591 1.26751 0
M  V30 6622 C 593.666 -2.0573 1.08527 0
M  V30 6623 C 594.66 -1.69397 0.0108784 0
M  V30 6624 O 595.866 -1.79215 0.167915 0
M  V30 6625 H 592.241 -0.673691 0.334133 0
M  V30 6626 H 594.212 -2.1825 2.03493 0
M  V30 6627 C 592.961 -3.39738 0.739845 0
M  V30 6628 H 592.284 -3.68174 1.55845 0
M  V30 6629 H 593.724 -4.18955 0.652149 0
M  V30 6630 C 592.183 -3.32292 -0.555288 0
M  V30 6631 O 592.713 -3.68794 -1.59229 0
M  V30 6632 N 590.919 -2.85394 -0.54762 0
M  V30 6633 H 590.466 -2.55886 0.296667 0
M  V30 6634 H 590.424 -2.80795 -1.41427 0
M  V30 6635 N 594.196 -1.08629 -1.14182 0
M  V30 6636 C 595.612 -0.814363 -1.3726 0
M  V30 6637 C 595.812 0.575271 -1.93114 0
M  V30 6638 O 594.868 1.33165 -2.1453 0
M  V30 6639 C 596.181 -1.8989 -2.33157 0
M  V30 6640 C 597.729 -1.92518 -2.46791 0
M  V30 6641 C 598.204 -3.00092 -3.45989 0
M  V30 6642 N 599.695 -2.99279 -3.53534 0
M  V30 6643 C 600.43 -3.79158 -4.30147 0
M  V30 6644 N 599.926 -4.68923 -5.09983 0
M  V30 6645 N 601.719 -3.67451 -4.25366 0
M  V30 6646 H 593.87 -1.98232 -0.762758 0
M  V30 6647 H 596.133 -0.860383 -0.398051 0
M  V30 6648 H 595.839 -2.89809 -1.99257 0
M  V30 6649 H 595.713 -1.77013 -3.33086 0
M  V30 6650 H 598.1 -0.932425 -2.79982 0
M  V30 6651 H 598.181 -2.09473 -1.46816 0
M  V30 6652 H 597.825 -3.99575 -3.13532 0
M  V30 6653 H 597.755 -2.80382 -4.45751 0
M  V30 6654 H 600.246 -2.3422 -2.96563 0
M  V30 6655 H 600.559 -5.26475 -5.65724 0
M  V30 6656 H 598.904 -4.72964 -5.09244 0
M  V30 6657 H 602.095 -2.9669 -3.62067 0
M  V30 6658 H 602.268 -4.29944 -4.84822 0
M  V30 6659 N 595.674 1.31259 -0.872281 0
M  V30 6660 C 596.637 2.26744 -0.334656 0
M  V30 6661 C 597.637 1.52307 0.515681 0
M  V30 6662 O 598.827 1.71148 0.324656 0
M  V30 6663 C 595.959 3.36841 0.524482 0
M  V30 6664 H 597.152 2.75812 -1.17762 0
M  V30 6665 H 594.705 1.42232 -0.648064 0
M  V30 6666 H 595.44 2.93069 1.38855 0
M  V30 6667 H 595.225 3.92009 -0.0844299 0
M  V30 6668 H 596.715 4.07944 0.892838 0
M  V30 6669 N 597.152 0.631951 1.44375 0
M  V30 6670 C 598.568 0.297642 1.568 0
M  V30 6671 C 598.768 -1.19916 1.61934 0
M  V30 6672 O 597.824 -1.98324 1.56281 0
M  V30 6673 C 599.137 0.990286 2.83926 0
M  V30 6674 C 600.685 0.968507 2.97639 0
M  V30 6675 C 601.16 1.64163 4.27568 0
M  V30 6676 N 602.651 1.60826 4.34384 0
M  V30 6677 C 603.386 2.09802 5.33639 0
M  V30 6678 N 602.882 2.66973 6.39294 0
M  V30 6679 N 604.675 2.00426 5.25153 0
M  V30 6680 H 596.826 1.60353 1.39286 0
M  V30 6681 H 599.089 0.673142 0.667521 0
M  V30 6682 H 598.795 2.04519 2.8612 0
M  V30 6683 H 598.669 0.528563 3.73478 0
M  V30 6684 H 601.056 -0.0779247 2.94997 0
M  V30 6685 H 601.137 1.46873 2.09433 0
M  V30 6686 H 600.781 2.68752 4.3097 0
M  V30 6687 H 600.711 1.11624 5.14634 0
M  V30 6688 H 603.202 1.19087 3.58646 0
M  V30 6689 H 603.515 3.02074 7.11316 0
M  V30 6690 H 601.86 2.71024 6.39977 0
M  V30 6691 H 605.051 1.55483 4.41523 0
M  V30 6692 H 605.224 2.38906 6.02352 0
M  V30 6693 N 598.631 -1.53133 0.372548 0
M  V30 6694 C 599.541 -2.29671 -0.478379 0
M  V30 6695 C 600.557 -1.35913 -1.08644 0
M  V30 6696 O 601.733 -1.68975 -1.09588 0
M  V30 6697 C 598.798 -3.07625 -1.599 0
M  V30 6698 C 597.859 -4.17061 -1.01776 0
M  V30 6699 C 597.092 -4.91289 -2.08497 0
M  V30 6700 O 597.315 -4.65442 -3.29727 0
M  V30 6701 O 596.249 -5.7705 -1.71164 0
M  V30 6702 H 600.075 -3.03355 0.144649 0
M  V30 6703 H 597.66 -1.48773 0.136729 0
M  V30 6704 H 599.542 -3.56281 -2.25038 0
M  V30 6705 H 598.217 -2.3677 -2.2073 0
M  V30 6706 H 597.124 -3.72641 -0.330098 0
M  V30 6707 H 598.457 -4.90102 -0.453915 0
M  V30 6708 N 600.109 -0.101901 -1.5727 0
M  V30 6709 C 601.041 0.884723 -2.11436 0
M  V30 6710 C 602.054 1.24149 -1.05314 0
M  V30 6711 O 603.243 1.19341 -1.3274 0
M  V30 6712 C 600.343 2.19179 -2.58484 0
M  V30 6713 C 599.516 2.00933 -3.88516 0
M  V30 6714 C 598.575 3.15213 -4.2134 0
M  V30 6715 O 597.601 2.88877 -4.90448 0
M  V30 6716 N 598.803 4.41174 -3.77288 0
M  V30 6717 H 601.568 0.422058 -2.96713 0
M  V30 6718 H 599.129 0.0830128 -1.61687 0
M  V30 6719 H 601.121 2.94593 -2.77484 0
M  V30 6720 H 599.691 2.56847 -1.7818 0
M  V30 6721 H 598.911 1.09809 -3.78597 0
M  V30 6722 H 600.199 1.86026 -4.73573 0
M  V30 6723 H 599.597 4.6545 -3.21516 0
M  V30 6724 H 598.154 5.13515 -4.01429 0
M  V30 6725 N 601.587 1.56661 0.17182 0
M  V30 6726 C 602.835 1.81606 0.886774 0
M  V30 6727 C 603.156 0.678818 1.82803 0
M  V30 6728 O 602.426 -0.301354 1.93568 0
M  V30 6729 H 601.006 0.669934 0.330451 0
M  V30 6730 H 603.668 1.94142 0.171757 0
M  V30 6731 H 602.764 2.75634 1.46398 0
M  V30 6732 N 603.065 -0.440357 1.51323 0
M  V30 6733 C 604.311 -1.18874 1.65047 0
M  V30 6734 C 604.666 -1.88988 0.360742 0
M  V30 6735 O 603.959 -1.80479 -0.643272 0
M  V30 6736 C 604.153 -2.2339 2.78984 0
M  V30 6737 C 603.982 -1.63534 4.18911 0
M  V30 6738 C 602.752 -1.42158 4.84891 0
M  V30 6739 C 604.95 -1.11324 5.02107 0
M  V30 6740 N 602.932 -0.778679 6.08942 0
M  V30 6741 C 604.303 -0.595421 6.17134 0
M  V30 6742 C 606.358 -1.00471 4.87658 0
M  V30 6743 C 605.061 0.0202557 7.19297 0
M  V30 6744 C 607.087 -0.402928 5.90026 0
M  V30 6745 C 606.449 0.10436 7.04323 0
M  V30 6746 H 602.548 -0.422771 0.657866 0
M  V30 6747 H 605.132 -0.485814 1.88542 0
M  V30 6748 H 603.303 -2.91074 2.57158 0
M  V30 6749 H 605.035 -2.90366 2.81904 0
M  V30 6750 H 601.79 -1.68247 4.42707 0
M  V30 6751 H 602.214 -0.474755 6.75333 0
M  V30 6752 H 606.856 -1.38278 3.99548 0
M  V30 6753 H 604.574 0.410468 8.07057 0
M  V30 6754 H 608.16 -0.320897 5.80914 0
M  V30 6755 H 607.04 0.562697 7.82179 0
M  V30 6756 N 604.543 -1.41418 -0.695603 0
M  V30 6757 C 605.959 -1.23887 -1.00619 0
M  V30 6758 C 606.159 -0.128206 -2.01092 0
M  V30 6759 O 605.215 0.507408 -2.47349 0
M  V30 6760 C 606.528 -2.58816 -1.53083 0
M  V30 6761 C 608.076 -2.65998 -1.64967 0
M  V30 6762 C 608.551 -4.01244 -2.20833 0
M  V30 6763 N 610.042 -4.0309 -2.28194 0
M  V30 6764 C 610.777 -5.04539 -2.72448 0
M  V30 6765 N 610.273 -6.16378 -3.16306 0
M  V30 6766 N 612.066 -4.91901 -2.72011 0
M  V30 6767 H 604.217 -2.12379 -0.0300061 0
M  V30 6768 H 606.48 -0.944958 -0.0758797 0
M  V30 6769 H 606.186 -3.40842 -0.867147 0
M  V30 6770 H 606.06 -2.81299 -2.51298 0
M  V30 6771 H 608.447 -1.84331 -2.30448 0
M  V30 6772 H 608.528 -2.47325 -0.652982 0
M  V30 6773 H 608.172 -4.83359 -1.55968 0
M  V30 6774 H 608.102 -4.17257 -3.21254 0
M  V30 6775 H 610.593 -3.22341 -1.97242 0
M  V30 6776 H 610.906 -6.89658 -3.487 0
M  V30 6777 H 609.251 -6.19914 -3.14215 0
M  V30 6778 H 612.442 -4.03613 -2.37095 0
M  V30 6779 H 612.615 -5.71102 -3.06181 0
M  V30 6780 N 606.021 0.929856 -1.27246 0
M  V30 6781 C 606.969 2.05151 -1.09616 0
M  V30 6782 C 607.963 1.69388 -0.0198617 0
M  V30 6783 O 609.169 1.79124 -0.177417 0
M  V30 6784 H 605.544 0.671909 -0.337701 0
M  V30 6785 H 607.515 2.17168 -2.04648 0
M  V30 6786 C 606.264 3.3934 -0.757851 0
M  V30 6787 H 605.587 3.67343 -1.57795 0
M  V30 6788 H 607.027 4.18603 -0.674358 0
M  V30 6789 C 605.486 3.32582 0.537658 0
M  V30 6790 O 606.016 3.69633 1.57271 0
M  V30 6791 N 604.222 2.8568 0.532478 0
M  V30 6792 H 603.769 2.55725 -0.310233 0
M  V30 6793 H 603.727 2.81541 1.39936 0
M  V30 6794 N 607.499 1.09233 1.13605 0
M  V30 6795 C 608.745 0.828385 1.8511 0
M  V30 6796 C 609.078 -0.64437 1.83198 0
M  V30 6797 O 608.353 -1.47428 1.26867 0
M  V30 6798 C 608.636 1.36167 3.33363 0
M  V30 6799 C 608.489 2.90038 3.438 0
M  V30 6800 C 609.808 0.993819 4.28732 0
M  V30 6801 H 606.927 0.30239 0.672108 0
M  V30 6802 H 609.569 1.35339 1.33355 0
M  V30 6803 H 607.719 0.9151 3.77569 0
M  V30 6804 H 609.391 3.43128 3.08319 0
M  V30 6805 H 607.634 3.27271 2.84739 0
M  V30 6806 H 608.305 3.22428 4.48045 0
M  V30 6807 H 610.781 1.37893 3.92587 0
M  V30 6808 H 609.657 1.39403 5.30903 0
M  V30 6809 H 609.918 -0.0982206 4.41991 0
M  V30 6810 N 608.977 -1.30795 0.87923 0
M  V30 6811 C 609.907 -2.30742 0.357796 0
M  V30 6812 C 610.888 -1.60747 -0.556283 0
M  V30 6813 O 612.073 -1.88393 -0.47135 0
M  V30 6814 C 609.203 -3.44583 -0.433555 0
M  V30 6815 C 608.157 -4.26235 0.388251 0
M  V30 6816 C 607.483 -5.32073 -0.529352 0
M  V30 6817 C 608.783 -4.96303 1.62729 0
M  V30 6818 H 610.477 -2.74605 1.19299 0
M  V30 6819 H 608.023 -1.32017 0.575104 0
M  V30 6820 H 609.976 -4.13563 -0.808934 0
M  V30 6821 H 608.7 -2.99511 -1.30234 0
M  V30 6822 H 607.359 -3.58936 0.745695 0
M  V30 6823 H 607.007 -4.83249 -1.39569 0
M  V30 6824 H 606.707 -5.87598 0.0166741 0
M  V30 6825 H 608.231 -6.0391 -0.901373 0
M  V30 6826 H 609.645 -5.5783 1.32283 0
M  V30 6827 H 608.042 -5.61666 2.11309 0
M  V30 6828 H 609.112 -4.22758 2.37494 0
M  V30 6829 N 610.455 -0.639598 -1.44038 0
M  V30 6830 C 611.68 -0.153117 -2.06834 0
M  V30 6831 C 612.105 1.16676 -1.47541 0
M  V30 6832 O 611.463 1.71769 -0.580093 0
M  V30 6833 C 611.511 -0.0609169 -3.60549 0
M  V30 6834 O 610.615 0.98071 -4.00569 0
M  V30 6835 H 609.956 -0.0886402 -0.658057 0
M  V30 6836 H 612.486 -0.878674 -1.84771 0
M  V30 6837 H 612.496 0.126892 -4.07803 0
M  V30 6838 H 611.171 -1.0245 -4.03084 0
M  V30 6839 H 609.748 0.766789 -3.64931 0
M  V30 6840 N 611.933 1.52934 -0.380664 0
M  V30 6841 C 612.896 2.24809 0.446473 0
M  V30 6842 C 613.896 1.26133 0.997347 0
M  V30 6843 O 615.086 1.50297 0.880714 0
M  V30 6844 C 612.218 2.99649 1.62553 0
M  V30 6845 H 613.411 2.99343 -0.182677 0
M  V30 6846 H 610.964 1.55736 -0.132618 0
M  V30 6847 H 611.699 2.29395 2.29235 0
M  V30 6848 H 611.484 3.72066 1.23732 0
M  V30 6849 H 612.974 3.54246 2.21133 0
M  V30 6850 N 613.412 0.11024 1.57214 0
M  V30 6851 C 614.66 -0.548783 1.94506 0
M  V30 6852 C 614.981 -1.67772 0.99386 0
M  V30 6853 O 614.251 -1.9584 0.0485841 0
M  V30 6854 H 612.831 -0.205715 0.718116 0
M  V30 6855 H 615.493 0.177127 1.94093 0
M  V30 6856 H 614.589 -0.949096 2.97319 0
M  V30 6857 N 614.89 -1.56749 -0.16351 0
M  V30 6858 C 616.138 -1.82074 -0.87713 0
M  V30 6859 C 616.459 -0.688503 -1.82441 0
M  V30 6860 O 615.729 0.291085 -1.93725 0
M  V30 6861 H 614.309 -0.671677 -0.326893 0
M  V30 6862 H 616.971 -1.9423 -0.161459 0
M  V30 6863 H 616.067 -2.76407 -1.44934 0
M  V30 6864 N 616.368 0.432326 -1.51554 0
M  V30 6865 C 617.593 1.20824 -1.68571 0
M  V30 6866 C 618.018 1.84126 -0.384596 0
M  V30 6867 O 617.376 1.69025 0.655751 0
M  V30 6868 C 617.424 2.26429 -2.80646 0
M  V30 6869 O 616.528 3.32032 -2.44598 0
M  V30 6870 H 615.869 0.353765 -0.561913 0
M  V30 6871 H 618.399 0.509916 -1.98144 0
M  V30 6872 H 618.409 2.71133 -3.04878 0
M  V30 6873 H 617.084 1.79733 -3.75058 0
M  V30 6874 H 615.661 2.92769 -2.30956 0
M  V30 6875 N 617.846 1.41785 0.688094 0
M  V30 6876 C 619.094 1.41264 1.4453 0
M  V30 6877 C 619.415 0.0252946 1.94984 0
M  V30 6878 O 618.685 -0.934081 1.72197 0
M  V30 6879 H 617.265 0.519998 0.536294 0
M  V30 6880 H 619.927 1.7709 0.813941 0
M  V30 6881 H 619.023 2.10439 2.30482 0
M  V30 6882 N 619.324 -0.923095 1.27737 0
M  V30 6883 C 620.234 -2.05765 1.12685 0
M  V30 6884 C 621.25 -1.73911 0.0557197 0
M  V30 6885 O 622.426 -1.99674 0.263137 0
M  V30 6886 C 619.491 -3.37804 0.780363 0
M  V30 6887 C 618.552 -3.83326 1.93286 0
M  V30 6888 C 617.785 -5.09064 1.60281 0
M  V30 6889 O 618.008 -5.6809 0.512828 0
M  V30 6890 O 616.942 -5.50071 2.44347 0
M  V30 6891 H 620.768 -2.21378 2.07907 0
M  V30 6892 H 618.353 -1.04299 1.06968 0
M  V30 6893 H 620.235 -4.17097 0.600668 0
M  V30 6894 H 618.91 -3.23387 -0.142291 0
M  V30 6895 H 617.817 -3.049 2.16764 0
M  V30 6896 H 619.15 -4.02292 2.83588 0
M  V30 6897 N 620.802 -1.09834 -1.13024 0
M  V30 6898 C 622.048 -0.83819 -1.84668 0
M  V30 6899 C 622.381 0.634645 -1.83537 0
M  V30 6900 O 621.656 1.46753 -1.27647 0
M  V30 6901 C 621.939 -1.37933 -3.32636 0
M  V30 6902 C 621.792 -2.91857 -3.42257 0
M  V30 6903 C 623.111 -1.01654 -4.28199 0
M  V30 6904 H 620.23 -0.30595 -0.670495 0
M  V30 6905 H 622.872 -1.36044 -1.32635 0
M  V30 6906 H 621.022 -0.935111 -3.77078 0
M  V30 6907 H 622.694 -3.44759 -3.06495 0
M  V30 6908 H 620.937 -3.28776 -2.83 0
M  V30 6909 H 621.608 -3.24799 -4.46329 0
M  V30 6910 H 624.084 -1.39973 -3.9185 0
M  V30 6911 H 622.96 -1.42217 -5.30156 0
M  V30 6912 H 623.221 0.0747794 -4.42037 0
M  V30 6913 N 622.28 1.30327 -0.886154 0
M  V30 6914 C 623.227 2.28099 -0.352069 0
M  V30 6915 C 624.197 1.56433 0.558397 0
M  V30 6916 O 625.382 1.84492 0.486561 0
M  V30 6917 C 622.522 3.42456 0.426346 0
M  V30 6918 C 621.635 4.28938 -0.513472 0
M  V30 6919 C 620.77 5.30458 0.280657 0
M  V30 6920 C 619.809 6.0859 -0.654556 0
M  V30 6921 N 618.946 7.02022 0.104322 0
M  V30 6922 H 623.786 2.73166 -1.19097 0
M  V30 6923 H 621.323 1.34367 -0.598662 0
M  V30 6924 H 623.281 4.07518 0.893587 0
M  V30 6925 H 621.911 2.98455 1.22981 0
M  V30 6926 H 620.963 3.64173 -1.09921 0
M  V30 6927 H 622.275 4.83399 -1.2299 0
M  V30 6928 H 621.429 6.01273 0.8097 0
M  V30 6929 H 620.168 4.76693 1.03029 0
M  V30 6930 H 619.173 5.36651 -1.19522 0
M  V30 6931 H 620.398 6.64443 -1.4033 0
M  V30 6932 H 618.344 6.50645 0.836472 0
M  V30 6933 H 618.261 7.53979 -0.552453 0
M  V30 6934 H 619.529 7.77077 0.614069 0
M  V30 6935 N 623.758 0.647228 1.43697 0
M  V30 6936 C 624.721 -0.0385101 2.29168 0
M  V30 6937 C 625.721 -0.756487 1.41894 0
M  V30 6938 O 626.911 -0.598641 1.63591 0
M  V30 6939 C 624.043 -1.06524 3.23829 0
M  V30 6940 H 625.236 0.713445 2.9129 0
M  V30 6941 H 622.789 0.408153 1.50877 0
M  V30 6942 H 623.524 -1.84664 2.66589 0
M  V30 6943 H 623.309 -0.554147 3.88164 0
M  V30 6944 H 624.799 -1.54432 3.87996 0
M  V30 6945 N 625.236 -1.5273 0.388769 0
M  V30 6946 C 626.647 -1.86505 -0.0853788 0
M  V30 6947 C 626.998 -1.30847 -1.46197 0
M  V30 6948 O 626.123 -0.639609 -2.06732 0
M  V30 6949 C 626.718 -3.38414 -0.161703 0
M  V30 6950 C 625.277 -3.71902 -0.580144 0
M  V30 6951 C 624.424 -2.76095 0.258218 0
M  V30 6952 H 627.375 -1.46647 0.606665 0
M  V30 6953 H 627.396 -3.67638 -0.980936 0
M  V30 6954 H 626.908 -3.78893 0.840333 0
M  V30 6955 H 625.009 -3.36992 -1.58957 0
M  V30 6956 H 625.122 -4.77902 -0.338663 0
M  V30 6957 H 623.486 -2.53195 -0.276432 0
M  V30 6958 H 624.269 -3.19411 1.25822 0
M  V30 6959 N 626.714 -0.118576 -1.57153 0
M  V30 6960 C 627.961 0.539526 -1.9518 0
M  V30 6961 C 628.289 1.66714 -1.00184 0
M  V30 6962 O 627.544 1.95683 -0.0256482 0
M  V30 6963 C 627.843 1.11303 -3.39627 0
M  V30 6964 C 627.509 0.106809 -4.50773 0
M  V30 6965 C 626.171 -0.169876 -4.809 0
M  V30 6966 C 628.523 -0.57895 -5.17975 0
M  V30 6967 C 625.851 -1.13861 -5.75545 0
M  V30 6968 C 628.203 -1.53631 -6.13661 0
M  V30 6969 C 626.867 -1.82099 -6.42181 0
M  V30 6970 H 626.137 0.197427 -0.714215 0
M  V30 6971 H 628.784 -0.199391 -1.90459 0
M  V30 6972 H 627.089 1.92869 -3.4104 0
M  V30 6973 H 628.786 1.63032 -3.66363 0
M  V30 6974 H 625.376 0.332645 -4.27307 0
M  V30 6975 H 629.56 -0.378359 -4.94856 0
M  V30 6976 H 624.816 -1.36592 -5.95947 0
M  V30 6977 H 628.99 -2.07337 -6.64819 0
M  V30 6978 H 626.617 -2.57319 -7.15326 0
M  V30 6979 N 628.193 1.56834 0.155195 0
M  V30 6980 C 629.123 2.00678 1.19376 0
M  V30 6981 C 630.104 0.884973 1.45266 0
M  V30 6982 O 631.289 1.1522 1.56326 0
M  V30 6983 C 628.419 2.38042 2.5289 0
M  V30 6984 C 627.373 3.53332 2.41538 0
M  V30 6985 C 626.699 3.76485 3.79688 0
M  V30 6986 C 627.999 4.86265 1.9064 0
M  V30 6987 H 629.693 2.87688 0.829232 0
M  V30 6988 H 627.239 1.38407 0.397445 0
M  V30 6989 H 629.192 2.67314 3.25763 0
M  V30 6990 H 627.916 1.4796 2.91162 0
M  V30 6991 H 626.575 3.24213 1.71117 0
M  V30 6992 H 626.223 2.83667 4.15382 0
M  V30 6993 H 625.923 4.54068 3.72956 0
M  V30 6994 H 627.447 4.08174 4.54122 0
M  V30 6995 H 628.861 5.14308 2.53299 0
M  V30 6996 H 627.258 5.67597 1.94818 0
M  V30 6997 H 628.328 4.77184 0.861596 0
M  V30 6998 N 629.671 -0.424282 1.51781 0
M  V30 6999 C 630.919 -1.17028 1.64769 0
M  V30 7000 C 631.24 -1.91409 0.372523 0
M  V30 7001 O 630.51 -1.86091 -0.612108 0
M  V30 7002 H 629.09 -0.434992 0.607282 0
M  V30 7003 H 631.752 -0.485169 1.88765 0
M  V30 7004 H 630.848 -1.8927 2.4816 0
M  V30 7005 N 631.149 -1.42148 -0.680565 0
M  V30 7006 C 632.374 -1.45901 -1.47403 0
M  V30 7007 C 632.799 -0.0700985 -1.87969 0
M  V30 7008 O 632.157 0.930145 -1.55621 0
M  V30 7009 C 632.205 -2.38661 -2.70321 0
M  V30 7010 O 631.309 -1.85399 -3.68376 0
M  V30 7011 H 630.65 -0.494565 -0.443059 0
M  V30 7012 H 633.18 -1.86774 -0.835251 0
M  V30 7013 H 633.19 -2.55046 -3.18458 0
M  V30 7014 H 631.865 -3.39571 -2.40134 0
M  V30 7015 H 630.442 -1.78541 -3.2738 0
M  V30 7016 N 632.627 0.916307 -1.28225 0
M  V30 7017 C 633.875 1.6619 -1.15002 0
M  V30 7018 C 634.196 1.92642 0.302329 0
M  V30 7019 O 633.466 1.54076 1.20985 0
M  V30 7020 H 632.046 0.615964 -0.422608 0
M  V30 7021 H 634.708 1.09963 -1.60917 0
M  V30 7022 H 633.804 2.62533 -1.68769 0
M  V30 7023 N 634.105 1.10431 1.1244 0
M  V30 7024 C 635.353 0.845045 1.83585 0
M  V30 7025 C 635.674 -0.631168 1.84503 0
M  V30 7026 O 634.944 -1.45825 1.30813 0
M  V30 7027 H 633.524 0.309628 0.679809 0
M  V30 7028 H 636.186 1.39458 1.36153 0
M  V30 7029 H 635.282 1.20786 2.8778 0
M  V30 7030 N 635.583 -1.29855 0.893053 0
M  V30 7031 C 636.811 -1.99976 0.530788 0
M  V30 7032 C 637.226 -1.66889 -0.882799 0
M  V30 7033 O 636.583 -0.910352 -1.58173 0
M  V30 7034 C 636.634 -3.54547 0.705587 0
M  V30 7035 O 636.355 -3.86458 2.06353 0
M  V30 7036 C 637.856 -4.41937 0.347387 0
M  V30 7037 H 635.076 -0.639129 0.204339 0
M  V30 7038 H 637.62 -1.65549 1.20057 0
M  V30 7039 H 635.775 -3.87311 0.0830685 0
M  V30 7040 H 636.189 -4.81146 2.08803 0
M  V30 7041 H 637.663 -5.4954 0.520557 0
M  V30 7042 H 638.14 -4.33339 -0.715139 0
M  V30 7043 H 638.746 -4.14633 0.946567 0
M  V30 7044 N 637.061 -0.65484 -1.43351 0
M  V30 7045 C 638.31 -0.166215 -2.01014 0
M  V30 7046 C 638.623 1.22764 -1.52278 0
M  V30 7047 O 639.829 1.81156 -2.02224 0
M  V30 7048 C 638.285 -0.246341 -3.59056 0
M  V30 7049 C 637.893 -1.64299 -4.16785 0
M  V30 7050 C 639.637 0.184597 -4.24098 0
M  V30 7051 C 637.544 -1.67695 -5.67126 0
M  V30 7052 H 636.474 -0.0583769 -0.751737 0
M  V30 7053 H 639.125 -0.817111 -1.64303 0
M  V30 7054 H 637.507 0.472092 -3.93176 0
M  V30 7055 H 638.681 -2.3869 -3.94162 0
M  V30 7056 H 636.996 -2.02004 -3.6412 0
M  V30 7057 H 639.593 0.179088 -5.344 0
M  V30 7058 H 639.936 1.21632 -3.98135 0
M  V30 7059 H 640.469 -0.482141 -3.94867 0
M  V30 7060 H 637.208 -2.68783 -5.9786 0
M  V30 7061 H 636.728 -0.976313 -5.91801 0
M  V30 7062 H 638.407 -1.42142 -6.31193 0
M  V30 7063 N 638.539 1.52521 -0.396863 0
M  V30 7064 C 639.502 2.2527 0.422604 0
M  V30 7065 C 640.502 1.27184 0.983913 0
M  V30 7066 O 641.692 1.51222 0.864723 0
M  V30 7067 C 638.824 3.01356 1.59365 0
M  V30 7068 H 640.017 2.99133 -0.214416 0
M  V30 7069 H 637.57 1.55587 -0.149128 0
M  V30 7070 H 638.305 2.31813 2.26789 0
M  V30 7071 H 638.09 3.73357 1.19779 0
M  V30 7072 H 639.58 3.56571 2.17363 0
M  V30 7073 N 640.017 0.126909 1.57088 0
M  V30 7074 C 641.428 -0.397201 1.82426 0
M  V30 7075 C 641.779 -1.66084 1.04453 0
M  V30 7076 O 640.904 -2.14534 0.283552 0
M  V30 7077 C 641.499 -0.727411 3.30899 0
M  V30 7078 C 640.058 -1.19612 3.56889 0
M  V30 7079 C 639.205 -0.20885 2.76512 0
M  V30 7080 H 642.156 0.351924 1.54749 0
M  V30 7081 H 642.177 -1.58407 3.45959 0
M  V30 7082 H 641.689 0.19247 3.87622 0
M  V30 7083 H 639.79 -2.13263 3.05532 0
M  V30 7084 H 639.903 -1.13598 4.65438 0
M  V30 7085 H 638.267 -0.697479 2.44964 0
M  V30 7086 H 639.05 0.704267 3.35998 0
M  V30 7087 N 641.495 -1.56914 -0.146875 0
M  V30 7088 C 642.72 -1.87881 -0.878386 0
M  V30 7089 C 643.145 -0.715945 -1.73942 0
M  V30 7090 O 642.503 0.334447 -1.78189 0
M  V30 7091 C 642.551 -3.17431 -1.71084 0
M  V30 7092 O 641.655 -3.01374 -2.81509 0
M  V30 7093 H 640.996 -0.617289 -0.244644 0
M  V30 7094 H 643.526 -2.04136 -0.137654 0
M  V30 7095 H 643.536 -3.49455 -2.10582 0
M  V30 7096 H 642.211 -4.01671 -1.07856 0
M  V30 7097 H 640.788 -2.80758 -2.45416 0
M  V30 7098 N 642.974 0.416227 -1.52004 0
M  V30 7099 C 644.199 1.19029 -1.69843 0
M  V30 7100 C 644.624 1.83708 -0.404103 0
M  V30 7101 O 643.982 1.69711 0.637787 0
M  V30 7102 C 644.03 2.23439 -2.83032 0
M  V30 7103 O 643.134 3.29419 -2.48106 0
M  V30 7104 H 642.475 0.347785 -0.565634 0
M  V30 7105 H 645.005 0.488871 -1.98674 0
M  V30 7106 H 645.015 2.67884 -3.07737 0
M  V30 7107 H 643.69 1.75745 -3.76944 0
M  V30 7108 H 642.267 2.90303 -2.34048 0
M  V30 7109 N 644.452 1.42507 0.673017 0
M  V30 7110 C 645.699 1.43072 1.43306 0
M  V30 7111 C 646.027 0.0478004 1.94441 0
M  V30 7112 O 645.282 -0.944106 1.71421 0
M  V30 7113 C 645.581 2.40351 2.64511 0
M  V30 7114 C 645.247 3.8669 2.31908 0
M  V30 7115 C 643.909 4.26551 2.22728 0
M  V30 7116 C 646.261 4.78991 2.05467 0
M  V30 7117 C 643.589 5.56691 1.85234 0
M  V30 7118 C 645.941 6.09476 1.69477 0
M  V30 7119 C 644.605 6.48334 1.58808 0
M  V30 7120 H 643.875 0.523536 0.524395 0
M  V30 7121 H 646.522 1.75459 0.76723 0
M  V30 7122 H 644.827 2.01297 3.36135 0
M  V30 7123 H 646.524 2.38051 3.22696 0
M  V30 7124 H 643.114 3.55132 2.39956 0
M  V30 7125 H 647.298 4.48982 2.11492 0
M  V30 7126 H 642.554 5.85657 1.75545 0
M  V30 7127 H 646.728 6.80482 1.48043 0
M  V30 7128 H 644.355 7.49084 1.29525 0
M  V30 7129 N 645.93 -0.909495 1.28709 0
M  V30 7130 C 647.155 -1.69801 1.1909 0
M  V30 7131 C 647.58 -1.86479 -0.246388 0
M  V30 7132 O 646.938 -1.37802 -1.17815 0
M  V30 7133 C 646.986 -3.06543 1.89904 0
M  V30 7134 O 646.09 -3.94268 1.2094 0
M  V30 7135 H 645.431 -0.519783 0.413185 0
M  V30 7136 H 647.961 -1.13689 1.70106 0
M  V30 7137 H 647.971 -3.56748 1.97977 0
M  V30 7138 H 646.646 -2.93722 2.94449 0
M  V30 7139 H 645.223 -3.52702 1.2106 0
M  V30 7140 N 647.408 -1.11026 -1.11852 0
M  V30 7141 C 648.633 -0.879064 -1.87849 0
M  V30 7142 C 649.058 0.565406 -1.79401 0
M  V30 7143 O 648.416 1.39886 -1.15333 0
M  V30 7144 C 648.464 -1.33985 -3.34784 0
M  V30 7145 O 647.568 -0.508803 -4.09249 0
M  V30 7146 H 646.909 -0.316992 -0.583448 0
M  V30 7147 H 649.439 -1.47863 -1.41413 0
M  V30 7148 H 649.449 -1.33248 -3.85628 0
M  V30 7149 H 648.124 -2.39172 -3.40249 0
M  V30 7150 H 646.701 -0.581913 -3.68332 0
M  V30 7151 N 648.886 1.2938 -0.899927 0
M  V30 7152 C 650.302 1.48052 -0.596059 0
M  V30 7153 C 650.502 1.82114 0.862372 0
M  V30 7154 O 649.558 1.91774 1.64253 0
M  V30 7155 C 650.871 2.59332 -1.52208 0
M  V30 7156 C 652.419 2.73208 -1.5273 0
M  V30 7157 C 652.894 3.87617 -2.43961 0
M  V30 7158 N 654.385 3.9495 -2.42009 0
M  V30 7159 C 655.12 4.82824 -3.09303 0
M  V30 7160 N 654.616 5.75387 -3.85877 0
M  V30 7161 N 656.409 4.76317 -2.98459 0
M  V30 7162 H 648.56 1.05546 -1.8432 0
M  V30 7163 H 650.823 0.524314 -0.78981 0
M  V30 7164 H 650.529 2.41029 -2.56121 0
M  V30 7165 H 650.403 3.56139 -1.24278 0
M  V30 7166 H 652.79 2.90908 -0.495614 0
M  V30 7167 H 652.871 1.76975 -1.84698 0
M  V30 7168 H 652.515 3.70672 -3.47224 0
M  V30 7169 H 652.445 4.83218 -2.09303 0
M  V30 7170 H 654.936 3.28744 -1.86375 0
M  V30 7171 H 655.249 6.39235 -4.34279 0
M  V30 7172 H 653.594 5.75272 -3.89984 0
M  V30 7173 H 656.785 4.0299 -2.38152 0
M  V30 7174 H 656.958 5.44589 -3.51179 0
M  V30 7175 N 650.364 0.662433 1.43002 0
M  V30 7176 C 651.612 0.179237 2.01304 0
M  V30 7177 C 651.933 -1.21428 1.52579 0
M  V30 7178 O 651.203 -1.81294 0.742252 0
M  V30 7179 H 649.783 0.0632725 0.744316 0
M  V30 7180 H 652.445 0.856169 1.75088 0
M  V30 7181 H 651.541 0.170957 3.11631 0
M  V30 7182 N 651.842 -1.52309 0.404946 0
M  V30 7183 C 652.774 -2.24579 -0.45791 0
M  V30 7184 C 653.787 -1.2739 -1.01369 0
M  V30 7185 O 654.976 -1.53363 -0.91335 0
M  V30 7186 C 652.076 -2.9608 -1.64893 0
M  V30 7187 C 651.249 -4.20106 -1.21777 0
M  V30 7188 C 650.308 -4.74468 -2.27523 0
M  V30 7189 O 649.334 -5.37157 -1.88285 0
M  V30 7190 N 650.536 -4.55678 -3.59635 0
M  V30 7191 H 653.301 -2.99265 0.161341 0
M  V30 7192 H 650.862 -1.60228 0.232107 0
M  V30 7193 H 652.854 -3.29344 -2.35191 0
M  V30 7194 H 651.424 -2.24606 -2.17419 0
M  V30 7195 H 650.644 -3.92704 -0.343071 0
M  V30 7196 H 651.932 -5.00658 -0.906596 0
M  V30 7197 H 651.33 -4.05673 -3.94266 0
M  V30 7198 H 649.887 -4.9339 -4.25922 0
M  V30 7199 N 653.32 -0.135238 -1.57019 0
M  V30 7200 C 654.55 0.525303 -1.9981 0
M  V30 7201 C 654.958 1.59724 -1.01415 0
M  V30 7202 O 654.301 1.837 -0.00130938 0
M  V30 7203 C 654.363 1.19578 -3.3903 0
M  V30 7204 C 654.027 0.269855 -4.56203 0
M  V30 7205 C 655.024 -0.497905 -5.1751 0
M  V30 7206 C 652.709 0.176188 -5.01991 0
M  V30 7207 C 654.703 -1.3469 -6.23007 0
M  V30 7208 C 652.39 -0.676422 -6.07345 0
M  V30 7209 C 653.388 -1.43658 -6.67721 0
M  V30 7210 O 653.076 -2.27501 -7.71037 0
M  V30 7211 H 652.808 0.142296 -0.660854 0
M  V30 7212 H 655.362 -0.223272 -2.04183 0
M  V30 7213 H 653.592 1.99176 -3.3146 0
M  V30 7214 H 655.281 1.75486 -3.66005 0
M  V30 7215 H 656.047 -0.435507 -4.83041 0
M  V30 7216 H 651.926 0.757583 -4.54733 0
M  V30 7217 H 655.47 -1.9407 -6.70062 0
M  V30 7218 H 651.367 -0.740154 -6.41243 0
M  V30 7219 H 652.135 -2.20619 -7.88206 0
M  V30 7220 N 654.798 1.5699 0.138552 0
M  V30 7221 C 655.708 2.02174 1.19008 0
M  V30 7222 C 656.724 0.938622 1.46512 0
M  V30 7223 O 657.9 1.24872 1.58016 0
M  V30 7224 C 654.965 2.40045 2.50159 0
M  V30 7225 C 654.026 3.62346 2.30226 0
M  V30 7226 C 653.259 3.98401 3.55123 0
M  V30 7227 O 653.482 3.35019 4.61647 0
M  V30 7228 O 652.416 4.91606 3.47285 0
M  V30 7229 H 656.242 2.91954 0.836452 0
M  V30 7230 H 653.827 1.45293 0.347907 0
M  V30 7231 H 655.709 2.65225 3.27465 0
M  V30 7232 H 654.384 1.53417 2.85035 0
M  V30 7233 H 653.291 3.42341 1.50843 0
M  V30 7234 H 654.624 4.49617 2.00262 0
M  V30 7235 N 656.276 -0.40816 1.52223 0
M  V30 7236 C 657.226 -1.49648 1.72016 0
M  V30 7237 C 658.21 -1.50311 0.574069 0
M  V30 7238 O 659.402 -1.56271 0.831173 0
M  V30 7239 C 656.531 -2.87566 1.87512 0
M  V30 7240 C 655.617 -2.91547 3.07995 0
M  V30 7241 N 656.008 -2.65225 4.30685 0
M  V30 7242 C 654.306 -3.22715 3.07849 0
M  V30 7243 C 655.007 -2.75799 5.12162 0
M  V30 7244 N 653.983 -3.08719 4.4743 0
M  V30 7245 H 657.785 -1.28093 2.64517 0
M  V30 7246 H 655.299 -0.61588 1.50269 0
M  V30 7247 H 657.296 -3.65899 1.99809 0
M  V30 7248 H 655.956 -3.10118 0.962114 0
M  V30 7249 H 656.967 -2.39601 4.59142 0
M  V30 7250 H 653.644 -3.50856 2.26289 0
M  V30 7251 H 655.034 -2.59155 6.1991 0
M  V30 7252 N 657.755 -1.42862 -0.66545 0
M  V30 7253 C 658.985 -1.47032 -1.45138 0
M  V30 7254 C 659.393 -0.0829977 -1.89018 0
M  V30 7255 O 658.736 0.914551 -1.59316 0
M  V30 7256 C 658.798 -2.34302 -2.72659 0
M  V30 7257 C 658.462 -3.82034 -2.50796 0
M  V30 7258 C 659.459 -4.73453 -2.14799 0
M  V30 7259 C 657.144 -4.26397 -2.655 0
M  V30 7260 C 659.138 -6.07228 -1.93785 0
M  V30 7261 C 656.825 -5.6023 -2.44103 0
M  V30 7262 C 657.823 -6.50462 -2.08299 0
M  V30 7263 O 657.511 -7.8182 -1.87116 0
M  V30 7264 H 657.243 -0.501969 -0.452772 0
M  V30 7265 H 659.797 -1.88137 -0.82423 0
M  V30 7266 H 658.027 -1.88063 -3.37889 0
M  V30 7267 H 659.716 -2.29818 -3.34572 0
M  V30 7268 H 660.482 -4.4046 -2.03026 0
M  V30 7269 H 656.361 -3.56448 -2.92345 0
M  V30 7270 H 659.905 -6.7762 -1.65763 0
M  V30 7271 H 655.802 -5.92793 -2.55475 0
M  V30 7272 H 656.57 -7.93274 -2.01639 0
M  V30 7273 N 659.233 0.902656 -1.29189 0
M  V30 7274 C 660.183 1.99326 -1.10695 0
M  V30 7275 C 661.167 1.60877 -0.0272521 0
M  V30 7276 O 662.359 1.75245 -0.248635 0
M  V30 7277 C 659.488 3.34265 -0.78244 0
M  V30 7278 C 658.574 3.79081 -1.90153 0
M  V30 7279 N 658.965 3.96162 -3.14466 0
M  V30 7280 C 657.263 4.08333 -1.79389 0
M  V30 7281 C 657.964 4.3388 -3.87458 0
M  V30 7282 N 656.94 4.42759 -3.15381 0
M  V30 7283 H 660.742 2.10597 -2.05003 0
M  V30 7284 H 658.256 1.09127 -1.20271 0
M  V30 7285 H 660.253 4.12097 -0.630996 0
M  V30 7286 H 658.913 3.2434 0.152754 0
M  V30 7287 H 659.924 3.81775 -3.49954 0
M  V30 7288 H 656.601 4.06982 -0.931217 0
M  V30 7289 H 657.991 4.54965 -4.94425 0
M  V30 7290 N 660.711 1.11618 1.11262 0
M  V30 7291 C 661.674 0.779447 2.15539 0
M  V30 7292 C 662.674 -0.202081 1.59525 0
M  V30 7293 O 663.864 0.0226356 1.74185 0
M  V30 7294 C 660.996 0.15674 3.40539 0
M  V30 7295 H 662.189 1.70324 2.4684 0
M  V30 7296 H 659.742 0.918298 1.26479 0
M  V30 7297 H 660.477 -0.777186 3.1485 0
M  V30 7298 H 660.262 0.863308 3.82478 0
M  V30 7299 H 661.752 -0.062661 4.17553 0
M  V30 7300 N 662.189 -1.289 0.906776 0
M  V30 7301 C 663.438 -1.9455 0.532262 0
M  V30 7302 C 663.751 -1.72219 -0.927353 0
M  V30 7303 O 664.957 -2.32033 -1.40971 0
M  V30 7304 C 663.413 -3.48438 0.901041 0
M  V30 7305 C 663.021 -3.79558 2.37991 0
M  V30 7306 C 664.765 -4.20284 0.596777 0
M  V30 7307 C 662.672 -5.26723 2.68918 0
M  V30 7308 H 661.602 -0.728259 0.195333 0
M  V30 7309 H 664.253 -1.46519 1.10474 0
M  V30 7310 H 662.635 -3.95162 0.257419 0
M  V30 7311 H 663.809 -3.43668 3.06967 0
M  V30 7312 H 662.124 -3.20868 2.65391 0
M  V30 7313 H 664.721 -5.28612 0.8046 0
M  V30 7314 H 665.064 -4.13694 -0.465072 0
M  V30 7315 H 665.597 -3.79315 1.19855 0
M  V30 7316 H 662.336 -5.38384 3.73928 0
M  V30 7317 H 661.856 -5.63836 2.04571 0
M  V30 7318 H 663.535 -5.94391 2.55555 0
M  V30 7319 N 663.667 -0.670007 -1.42649 0
M  V30 7320 C 664.914 -0.190286 -2.01604 0
M  V30 7321 C 665.242 1.20155 -1.52948 0
M  V30 7322 O 664.497 1.81964 -0.72026 0
M  V30 7323 C 664.796 -0.168298 -3.57004 0
M  V30 7324 C 664.462 -1.50415 -4.25072 0
M  V30 7325 C 663.124 -1.86992 -4.43382 0
M  V30 7326 C 665.476 -2.38414 -4.63474 0
M  V30 7327 C 662.804 -3.11203 -4.97363 0
M  V30 7328 C 665.156 -3.61933 -5.18833 0
M  V30 7329 C 663.82 -3.98685 -5.35356 0
M  V30 7330 H 663.09 -0.0696305 -0.737721 0
M  V30 7331 H 665.737 -0.864044 -1.70899 0
M  V30 7332 H 664.042 0.588958 -3.87348 0
M  V30 7333 H 665.739 0.22001 -4.00396 0
M  V30 7334 H 662.329 -1.20959 -4.11177 0
M  V30 7335 H 666.513 -2.11442 -4.49006 0
M  V30 7336 H 661.769 -3.39705 -5.08341 0
M  V30 7337 H 665.943 -4.30326 -5.47533 0
M  V30 7338 H 663.57 -4.95009 -5.76949 0
M  V30 7339 N 665.145 1.52092 -0.413018 0
M  V30 7340 C 666.422 1.94356 0.22024 0
M  V30 7341 C 666.802 1.35017 1.62277 0
M  V30 7342 O 666.15 0.527511 2.22328 0
M  V30 7343 C 666.36 3.48289 0.222638 0
M  V30 7344 C 667.708 4.22313 0.440098 0
M  V30 7345 O 668.732 3.54919 0.301826 0
M  V30 7346 O 667.591 5.41829 0.712984 0
M  V30 7347 H 664.685 0.814536 0.14304 0
M  V30 7348 H 667.231 1.63083 -0.469242 0
M  V30 7349 H 666.003 3.83872 -0.758836 0
M  V30 7350 H 665.626 3.85934 0.956057 0
M  V30 7351 N 666.623 0.143563 1.56945 0
M  V30 7352 C 667.555 -0.828353 2.13708 0
M  V30 7353 C 668.568 -1.21313 1.08568 0
M  V30 7354 O 669.757 -1.1578 1.35857 0
M  V30 7355 C 666.857 -2.12248 2.64204 0
M  V30 7356 C 666.03 -1.90561 3.93707 0
M  V30 7357 C 665.089 -3.03931 4.29549 0
M  V30 7358 O 664.115 -2.75772 4.97934 0
M  V30 7359 N 665.317 -4.31016 3.88852 0
M  V30 7360 H 668.082 -0.343242 2.97728 0
M  V30 7361 H 665.643 -0.0401152 1.6185 0
M  V30 7362 H 667.635 -2.87132 2.85197 0
M  V30 7363 H 666.205 -2.52033 1.84928 0
M  V30 7364 H 665.425 -0.997327 3.81375 0
M  V30 7365 H 666.713 -1.73405 4.78339 0
M  V30 7366 H 666.111 -4.56762 3.33743 0
M  V30 7367 H 664.668 -5.02691 4.14903 0
M  V30 7368 N 668.101 -1.57061 -0.130224 0
M  V30 7369 C 669.034 -1.94698 -1.19029 0
M  V30 7370 C 670.012 -0.815074 -1.40696 0
M  V30 7371 O 671.196 -1.07223 -1.55034 0
M  V30 7372 C 668.323 -2.23352 -2.5462 0
M  V30 7373 C 667.369 -3.45945 -2.49448 0
M  V30 7374 S 668.202 -4.98927 -1.94505 0
M  V30 7375 C 669.358 -5.30721 -3.31792 0
M  V30 7376 H 669.591 -2.84308 -0.869272 0
M  V30 7377 H 667.124 -1.50688 -0.336531 0
M  V30 7378 H 669.082 -2.40539 -3.32643 0
M  V30 7379 H 667.743 -1.34376 -2.83905 0
M  V30 7380 H 666.936 -3.63324 -3.49302 0
M  V30 7381 H 666.538 -3.28086 -1.79543 0
M  V30 7382 H 668.83 -5.25215 -4.27966 0
M  V30 7383 H 669.773 -6.32048 -3.19251 0
M  V30 7384 H 670.181 -4.5821 -3.29703 0
M  V30 7385 N 669.579 0.400081 -1.52437 0
M  V30 7386 C 670.511 1.50729 -1.72666 0
M  V30 7387 C 671.524 1.51058 -0.607075 0
M  V30 7388 O 672.713 1.5516 -0.88248 0
M  V30 7389 C 669.813 2.89604 -1.76019 0
M  V30 7390 C 668.986 3.13365 -3.05157 0
M  V30 7391 C 668.045 4.32163 -3.00203 0
M  V30 7392 O 667.071 4.29004 -3.74092 0
M  V30 7393 N 668.273 5.3776 -2.18619 0
M  V30 7394 H 671.038 1.33767 -2.68191 0
M  V30 7395 H 668.599 0.58948 -1.50787 0
M  V30 7396 H 670.591 3.67159 -1.70225 0
M  V30 7397 H 669.161 2.99979 -0.879284 0
M  V30 7398 H 668.381 2.23774 -3.24529 0
M  V30 7399 H 669.669 3.26089 -3.90568 0
M  V30 7400 H 669.067 5.43177 -1.58035 0
M  V30 7401 H 667.624 6.14023 -2.18674 0
M  V30 7402 N 671.057 1.43213 0.657864 0
M  V30 7403 C 671.989 1.43974 1.78337 0
M  V30 7404 C 673.002 0.336482 1.59285 0
M  V30 7405 O 674.191 0.600631 1.68091 0
M  V30 7406 C 671.291 1.23242 3.15697 0
M  V30 7407 C 670.464 2.46319 3.61449 0
M  V30 7408 C 669.523 2.2088 4.77597 0
M  V30 7409 O 668.549 2.942 4.87273 0
M  V30 7410 N 669.751 1.22251 5.67481 0
M  V30 7411 H 672.516 2.40993 1.78164 0
M  V30 7412 H 670.077 1.3831 0.841549 0
M  V30 7413 H 672.069 1.04113 3.91079 0
M  V30 7414 H 670.639 0.346849 3.1067 0
M  V30 7415 H 669.859 2.80904 2.76563 0
M  V30 7416 H 671.147 3.28239 3.88763 0
M  V30 7417 H 670.545 0.616433 5.62331 0
M  V30 7418 H 669.102 1.09107 6.42603 0
M  V30 7419 N 672.536 -0.895792 1.29666 0
M  V30 7420 C 673.468 -2.00563 1.10937 0
M  V30 7421 C 674.481 -1.62705 0.055734 0
M  V30 7422 O 675.67 -1.7595 0.300656 0
M  V30 7423 C 672.77 -3.32262 0.667448 0
M  V30 7424 C 671.943 -3.98625 1.80047 0
M  V30 7425 C 671.002 -5.08617 1.3489 0
M  V30 7426 O 670.028 -5.30837 2.05429 0
M  V30 7427 N 671.23 -5.80076 0.221937 0
M  V30 7428 H 673.995 -2.17184 2.06522 0
M  V30 7429 H 671.556 -1.06822 1.21658 0
M  V30 7430 H 673.548 -4.03196 0.348586 0
M  V30 7431 H 672.118 -3.11985 -0.196055 0
M  V30 7432 H 671.338 -3.21005 2.28801 0
M  V30 7433 H 672.626 -4.39704 2.56003 0
M  V30 7434 H 672.024 -5.64514 -0.366084 0
M  V30 7435 H 670.581 -6.51789 -0.0375346 0
M  V30 7436 N 674.014 -1.12206 -1.10668 0
M  V30 7437 C 675.43 -0.857619 -1.346 0
M  V30 7438 C 675.63 0.513542 -1.94846 0
M  V30 7439 O 674.686 1.26273 -2.18658 0
M  V30 7440 C 675.999 -1.97212 -2.26998 0
M  V30 7441 C 677.547 -2.00272 -2.40542 0
M  V30 7442 C 678.022 -3.10948 -3.36267 0
M  V30 7443 N 679.513 -3.10375 -3.43834 0
M  V30 7444 C 680.248 -3.92651 -4.17867 0
M  V30 7445 N 679.744 -4.84911 -4.94807 0
M  V30 7446 N 681.537 -3.80798 -4.1346 0
M  V30 7447 H 673.688 -2.00558 -0.699306 0
M  V30 7448 H 675.951 -0.872612 -0.370477 0
M  V30 7449 H 675.657 -2.96002 -1.89936 0
M  V30 7450 H 675.531 -1.87521 -3.27286 0
M  V30 7451 H 677.918 -1.02103 -2.76874 0
M  V30 7452 H 677.999 -2.14037 -1.40077 0
M  V30 7453 H 677.643 -4.09348 -3.00661 0
M  V30 7454 H 677.573 -2.94421 -4.36605 0
M  V30 7455 H 680.064 -2.43536 -2.88961 0
M  V30 7456 H 680.377 -5.44207 -5.48688 0
M  V30 7457 H 678.722 -4.88926 -4.93939 0
M  V30 7458 H 681.913 -3.08058 -3.52445 0
M  V30 7459 H 682.086 -4.4515 -4.70898 0
M  V30 7460 N 675.492 1.28418 -0.913599 0
M  V30 7461 C 676.455 2.25564 -0.406624 0
M  V30 7462 C 677.455 1.5387 0.466965 0
M  V30 7463 O 678.645 1.72094 0.270042 0
M  V30 7464 C 675.777 3.38339 0.417053 0
M  V30 7465 H 676.97 2.71926 -1.26477 0
M  V30 7466 H 674.523 1.40098 -0.692986 0
M  V30 7467 H 675.258 2.97339 1.29461 0
M  V30 7468 H 675.043 3.91542 -0.209102 0
M  V30 7469 H 676.533 4.10578 0.762602 0
M  V30 7470 N 676.97 0.677563 1.42291 0
M  V30 7471 C 677.88 0.000962654 2.346 0
M  V30 7472 C 678.896 -0.785833 1.55244 0
M  V30 7473 O 680.072 -0.727523 1.87801 0
M  V30 7474 C 677.137 -0.936746 3.33805 0
M  V30 7475 C 676.198 -0.144173 4.29058 0
M  V30 7476 C 675.431 -1.03722 5.23524 0
M  V30 7477 O 675.654 -2.27675 5.22992 0
M  V30 7478 O 674.588 -0.496542 5.99848 0
M  V30 7479 H 678.414 0.761397 2.94001 0
M  V30 7480 H 675.999 0.43781 1.42841 0
M  V30 7481 H 677.881 -1.47497 3.94744 0
M  V30 7482 H 676.556 -1.67698 2.76874 0
M  V30 7483 H 675.463 0.438224 3.71524 0
M  V30 7484 H 676.796 0.55701 4.89038 0
M  V30 7485 N 678.448 -1.51871 0.421078 0
M  V30 7486 C 679.725 -1.9447 -0.20993 0
M  V30 7487 C 680.105 -1.35875 -1.61558 0
M  V30 7488 O 679.453 -0.539294 -2.22045 0
M  V30 7489 C 679.663 -3.48402 -0.204165 0
M  V30 7490 C 681.011 -4.2254 -0.417696 0
M  V30 7491 O 682.035 -3.55074 -0.282999 0
M  V30 7492 O 680.894 -5.422 -0.684239 0
M  V30 7493 H 677.988 -0.815283 -0.138718 0
M  V30 7494 H 680.534 -1.62832 0.477884 0
M  V30 7495 H 679.306 -3.83464 0.779183 0
M  V30 7496 H 678.929 -3.86436 -0.935576 0
M  V30 7497 N 679.926 -0.151884 -1.56866 0
M  V30 7498 C 680.874 0.80299 -2.183 0
M  V30 7499 C 681.868 1.25174 -1.14139 0
M  V30 7500 O 683.074 1.21966 -1.3238 0
M  V30 7501 H 679.449 0.277169 -0.699057 0
M  V30 7502 H 681.42 0.260699 -2.97259 0
M  V30 7503 C 680.169 2.03009 -2.82281 0
M  V30 7504 H 679.492 1.69377 -3.62148 0
M  V30 7505 H 680.932 2.67753 -3.28762 0
M  V30 7506 C 679.391 2.84123 -1.81041 0
M  V30 7507 O 679.921 3.8063 -1.28388 0
M  V30 7508 N 678.127 2.48753 -1.50234 0
M  V30 7509 H 677.674 1.70337 -1.93244 0
M  V30 7510 H 677.632 3.03316 -0.827445 0
M  V30 7511 N 681.404 1.57128 0.121893 0
M  V30 7512 C 682.314 2.03425 1.16857 0
M  V30 7513 C 683.33 0.954108 1.45509 0
M  V30 7514 O 684.506 1.26541 1.56682 0
M  V30 7515 C 681.571 2.42685 2.47599 0
M  V30 7516 C 680.632 3.64767 2.2637 0
M  V30 7517 C 679.865 4.02145 3.50878 0
M  V30 7518 O 680.088 3.39897 4.58068 0
M  V30 7519 O 679.022 4.95262 3.42051 0
M  V30 7520 H 682.848 2.92825 0.80544 0
M  V30 7521 H 680.433 1.45654 0.332477 0
M  V30 7522 H 682.315 2.68684 3.24634 0
M  V30 7523 H 680.99 1.56432 2.83392 0
M  V30 7524 H 679.897 3.43922 1.47203 0
M  V30 7525 H 681.23 4.51716 1.95482 0
M  V30 7526 N 682.882 -0.391992 1.52647 0
M  V30 7527 C 683.845 -1.46135 1.7657 0
M  V30 7528 C 684.845 -1.47701 0.635698 0
M  V30 7529 O 686.035 -1.48924 0.903728 0
M  V30 7530 C 683.167 -2.85443 1.86374 0
M  V30 7531 H 684.36 -1.26208 2.72051 0
M  V30 7532 H 681.913 -0.623549 1.43323 0
M  V30 7533 H 682.648 -3.10718 0.928685 0
M  V30 7534 H 682.433 -2.85708 2.68539 0
M  V30 7535 H 683.923 -3.62933 2.06566 0
M  V30 7536 N 684.36 -1.4356 -0.65026 0
M  V30 7537 C 685.307 -1.48948 -1.76304 0
M  V30 7538 C 686.277 -0.338919 -1.62605 0
M  V30 7539 O 687.462 -0.54649 -1.82806 0
M  V30 7540 C 684.602 -1.42131 -3.14472 0
M  V30 7541 C 683.715 -2.67415 -3.39284 0
M  V30 7542 C 682.85 -2.52565 -4.67316 0
M  V30 7543 C 681.889 -3.73103 -4.85243 0
M  V30 7544 N 681.026 -3.57046 -6.04535 0
M  V30 7545 H 685.866 -2.44032 -1.71034 0
M  V30 7546 H 683.403 -1.21131 -0.834601 0
M  V30 7547 H 685.361 -1.36172 -3.94351 0
M  V30 7548 H 683.991 -0.506273 -3.18805 0
M  V30 7549 H 683.043 -2.8364 -2.53481 0
M  V30 7550 H 684.355 -3.56943 -3.48415 0
M  V30 7551 H 683.509 -2.44331 -5.55326 0
M  V30 7552 H 682.248 -1.60566 -4.60511 0
M  V30 7553 H 681.253 -3.81743 -3.95667 0
M  V30 7554 H 682.478 -4.66115 -4.93876 0
M  V30 7555 H 680.424 -2.67783 -5.98856 0
M  V30 7556 H 680.341 -4.40178 -6.14638 0
M  V30 7557 H 681.609 -3.52669 -6.95158 0
M  V30 7558 N 685.838 0.888903 -1.30139 0
M  V30 7559 C 687.084 1.64288 -1.19922 0
M  V30 7560 C 687.439 1.90839 0.244561 0
M  V30 7561 O 686.732 1.51544 1.17239 0
M  V30 7562 C 686.926 2.99041 -1.95728 0
M  V30 7563 C 686.755 2.85644 -3.47329 0
M  V30 7564 C 685.525 2.85836 -4.16685 0
M  V30 7565 C 687.723 2.6188 -4.42632 0
M  V30 7566 N 685.705 2.63289 -5.54574 0
M  V30 7567 C 687.076 2.48418 -5.68057 0
M  V30 7568 C 689.131 2.47073 -4.32272 0
M  V30 7569 C 687.834 2.21655 -6.84296 0
M  V30 7570 C 689.86 2.21695 -5.48275 0
M  V30 7571 C 689.222 2.09007 -6.72678 0
M  V30 7572 H 685.321 0.606315 -0.493868 0
M  V30 7573 H 687.905 1.0478 -1.64102 0
M  V30 7574 H 686.076 3.56589 -1.53945 0
M  V30 7575 H 687.808 3.63607 -1.77685 0
M  V30 7576 H 684.563 2.97521 -3.68481 0
M  V30 7577 H 684.987 2.55039 -6.27124 0
M  V30 7578 H 689.629 2.55621 -3.36776 0
M  V30 7579 H 687.347 2.11845 -7.79838 0
M  V30 7580 H 690.933 2.11067 -5.42164 0
M  V30 7581 H 689.813 1.89643 -7.60924 0
M  V30 7582 N 687.317 1.12792 1.10072 0
M  V30 7583 C 688.264 0.79921 2.16521 0
M  V30 7584 C 689.234 -0.235726 1.64419 0
M  V30 7585 O 690.419 -0.109457 1.90486 0
M  V30 7586 C 687.559 0.264091 3.44088 0
M  V30 7587 C 686.672 1.35729 4.10124 0
M  V30 7588 C 685.807 0.781212 5.25424 0
M  V30 7589 C 684.846 1.85327 5.8337 0
M  V30 7590 N 683.983 1.29564 6.90042 0
M  V30 7591 H 688.823 1.71105 2.43981 0
M  V30 7592 H 686.36 0.854225 1.19756 0
M  V30 7593 H 688.318 -0.0642423 4.17151 0
M  V30 7594 H 686.948 -0.610901 3.16967 0
M  V30 7595 H 686 1.80234 3.34993 0
M  V30 7596 H 687.312 2.16782 4.4923 0
M  V30 7597 H 686.466 0.403769 6.05355 0
M  V30 7598 H 685.205 -0.0604686 4.87663 0
M  V30 7599 H 684.21 2.23986 5.02106 0
M  V30 7600 H 685.435 2.69824 6.23195 0
M  V30 7601 H 683.381 0.475844 6.54272 0
M  V30 7602 H 683.298 2.04271 7.2788 0
M  V30 7603 H 684.566 0.945545 7.73744 0
M  V30 7604 N 688.795 -1.27931 0.920396 0
M  V30 7605 C 690.211 -1.47085 0.619537 0
M  V30 7606 C 690.411 -1.83463 -0.833291 0
M  V30 7607 O 689.467 -1.94363 -1.61181 0
M  V30 7608 C 690.78 -2.56878 1.56314 0
M  V30 7609 C 692.328 -2.70743 1.57058 0
M  V30 7610 C 692.803 -3.83687 2.50097 0
M  V30 7611 N 694.294 -3.9105 2.48262 0
M  V30 7612 C 695.029 -4.77842 3.16945 0
M  V30 7613 N 694.525 -5.69176 3.94982 0
M  V30 7614 N 696.318 -4.71509 3.06 0
M  V30 7615 H 688.469 -1.02601 1.85975 0
M  V30 7616 H 690.732 -0.511682 0.798051 0
M  V30 7617 H 690.438 -2.36923 2.59923 0
M  V30 7618 H 690.312 -3.54117 1.29928 0
M  V30 7619 H 692.699 -2.90083 0.541832 0
M  V30 7620 H 692.78 -1.74015 1.8749 0
M  V30 7621 H 692.424 -3.65101 3.53077 0
M  V30 7622 H 692.354 -4.79827 2.16964 0
M  V30 7623 H 694.845 -3.25738 1.91581 0
M  V30 7624 H 695.158 -6.32245 4.44394 0
M  V30 7625 H 693.503 -5.68995 3.99086 0
M  V30 7626 H 696.694 -3.99151 2.44533 0
M  V30 7627 H 696.867 -5.38933 3.59799 0
M  V30 7628 N 690.273 -0.685099 -1.4193 0
M  V30 7629 C 691.183 -0.013404 -2.34596 0
M  V30 7630 C 692.199 0.777589 -1.55658 0
M  V30 7631 O 693.375 0.717553 -1.88184 0
M  V30 7632 C 690.44 0.919031 -3.34297 0
M  V30 7633 C 689.501 0.121417 -4.29128 0
M  V30 7634 C 688.734 1.00944 -5.24067 0
M  V30 7635 O 688.957 2.24898 -5.24192 0
M  V30 7636 O 687.891 0.464724 -6.00103 0
M  V30 7637 H 691.717 -0.776978 -2.93593 0
M  V30 7638 H 689.302 -0.445379 -1.42607 0
M  V30 7639 H 691.184 1.45402 -3.9552 0
M  V30 7640 H 689.859 1.66228 -2.77759 0
M  V30 7641 H 688.766 -0.45792 -3.71287 0
M  V30 7642 H 690.099 -0.582937 -4.88736 0
M  V30 7643 N 691.751 1.51645 -0.429126 0
M  V30 7644 C 693 2.01203 0.141538 0
M  V30 7645 C 693.313 1.31828 1.44502 0
M  V30 7646 O 694.519 1.7231 2.09813 0
M  V30 7647 C 692.975 3.58624 0.302786 0
M  V30 7648 C 692.583 4.3693 -0.989775 0
M  V30 7649 C 694.327 4.16353 0.827661 0
M  V30 7650 C 692.234 5.86037 -0.794619 0
M  V30 7651 H 691.164 0.751867 0.05667 0
M  V30 7652 H 693.815 1.74822 -0.557633 0
M  V30 7653 H 692.197 3.81417 1.06476 0
M  V30 7654 H 693.371 4.25887 -1.75945 0
M  V30 7655 H 691.686 3.90614 -1.44256 0
M  V30 7656 H 694.283 5.25455 0.990026 0
M  V30 7657 H 694.626 3.74995 1.80787 0
M  V30 7658 H 695.159 3.97606 0.124213 0
M  V30 7659 H 691.898 6.31792 -1.74697 0
M  V30 7660 H 691.418 5.99765 -0.0645968 0
M  V30 7661 H 693.097 6.45471 -0.444591 0
M  V30 7662 N 693.229 0.160201 1.56784 0
M  V30 7663 C 694.459 -0.493449 2.00621 0
M  V30 7664 C 694.867 -1.5809 1.03943 0
M  V30 7665 O 694.21 -1.83675 0.0305343 0
M  V30 7666 C 694.272 -1.14169 3.4089 0
M  V30 7667 C 693.936 -0.197243 4.56574 0
M  V30 7668 C 694.933 0.580174 5.16653 0
M  V30 7669 C 692.618 -0.0963038 5.02208 0
M  V30 7670 C 694.612 1.44584 6.20785 0
M  V30 7671 C 692.299 0.772959 6.06192 0
M  V30 7672 C 693.297 1.54263 6.65351 0
M  V30 7673 O 692.985 2.39738 7.67321 0
M  V30 7674 H 692.717 -0.131764 0.663034 0
M  V30 7675 H 695.271 0.255728 2.03802 0
M  V30 7676 H 693.501 -1.93877 3.34587 0
M  V30 7677 H 695.19 -1.69641 3.6875 0
M  V30 7678 H 695.956 0.5123 4.82287 0
M  V30 7679 H 691.835 -0.685143 4.5588 0
M  V30 7680 H 695.379 2.04706 6.66889 0
M  V30 7681 H 691.276 0.842077 6.39984 0
M  V30 7682 H 692.044 2.33131 7.84597 0
M  V30 7683 N 694.707 -1.5719 -0.113559 0
M  V30 7684 C 695.955 -1.84772 -0.818761 0
M  V30 7685 C 696.276 -0.746196 -1.80158 0
M  V30 7686 O 695.546 0.229305 -1.94553 0
M  V30 7687 H 694.126 -0.681737 -0.305359 0
M  V30 7688 H 696.788 -1.94645 -0.0995845 0
M  V30 7689 H 695.884 -2.80878 -1.36067 0
M  V30 7690 N 696.185 0.383891 -1.52853 0
M  V30 7691 C 697.601 0.724316 -1.42218 0
M  V30 7692 C 697.801 1.93943 -0.546654 0
M  V30 7693 O 696.857 2.5249 -0.0220562 0
M  V30 7694 C 698.17 0.954635 -2.85144 0
M  V30 7695 C 699.718 1.05579 -2.94656 0
M  V30 7696 C 700.193 1.3187 -4.38605 0
M  V30 7697 N 701.684 1.38681 -4.41952 0
M  V30 7698 C 702.419 1.60699 -5.50421 0
M  V30 7699 N 701.915 1.80154 -6.68967 0
M  V30 7700 N 703.708 1.6292 -5.37972 0
M  V30 7701 H 695.859 -0.4156 -2.08294 0
M  V30 7702 H 698.122 -0.123776 -0.939885 0
M  V30 7703 H 697.828 0.133829 -3.51445 0
M  V30 7704 H 697.702 1.86788 -3.27704 0
M  V30 7705 H 700.089 1.86716 -2.2852 0
M  V30 7706 H 700.17 0.120338 -2.55517 0
M  V30 7707 H 699.814 0.512416 -5.05309 0
M  V30 7708 H 699.744 2.26708 -4.75301 0
M  V30 7709 H 702.235 1.25334 -3.56511 0
M  V30 7710 H 702.548 1.96476 -7.47407 0
M  V30 7711 H 700.893 1.77368 -6.71986 0
M  V30 7712 H 704.084 1.47276 -4.44328 0
M  V30 7713 H 704.257 1.79739 -6.22574 0
M  V30 7714 N 697.663 1.43903 0.642637 0
M  V30 7715 C 698.911 1.45791 1.39962 0
M  V30 7716 C 699.232 0.0873144 1.94804 0
M  V30 7717 O 698.502 -0.878825 1.75081 0
M  V30 7718 H 697.082 0.536797 0.519479 0
M  V30 7719 H 699.744 1.7959 0.757189 0
M  V30 7720 H 698.84 2.17665 2.2367 0
M  V30 7721 N 699.141 -0.881989 1.30609 0
M  V30 7722 C 700.071 -2.00413 1.1982 0
M  V30 7723 C 701.052 -1.69871 0.0881538 0
M  V30 7724 O 702.237 -1.92304 0.2707 0
M  V30 7725 C 699.367 -3.35641 0.89233 0
M  V30 7726 C 698.321 -3.80451 1.96064 0
M  V30 7727 C 697.647 -5.13003 1.5077 0
M  V30 7728 C 698.947 -3.98855 3.37213 0
M  V30 7729 H 700.641 -2.09698 2.13699 0
M  V30 7730 H 698.187 -1.00754 1.02882 0
M  V30 7731 H 700.14 -4.13669 0.803497 0
M  V30 7732 H 698.864 -3.26497 -0.0821381 0
M  V30 7733 H 697.523 -3.04654 2.03916 0
M  V30 7734 H 697.171 -5.0029 0.521417 0
M  V30 7735 H 696.871 -5.43956 2.22229 0
M  V30 7736 H 698.395 -5.93554 1.43271 0
M  V30 7737 H 699.809 -4.67312 3.32103 0
M  V30 7738 H 698.206 -4.41188 4.06784 0
M  V30 7739 H 699.276 -3.02614 3.78883 0
M  V30 7740 N 700.619 -1.13374 -1.09472 0
M  V30 7741 C 702.03 -0.90801 -1.63132 0
M  V30 7742 C 702.381 0.555576 -1.8817 0
M  V30 7743 O 701.506 1.42218 -1.63104 0
M  V30 7744 C 702.101 -1.64182 -2.96361 0
M  V30 7745 C 700.66 -1.46197 -3.46848 0
M  V30 7746 C 699.807 -1.67134 -2.21273 0
M  V30 7747 H 702.758 -1.2871 -0.928411 0
M  V30 7748 H 702.779 -1.09863 -3.64294 0
M  V30 7749 H 702.291 -2.707 -2.78106 0
M  V30 7750 H 700.392 -0.419788 -3.70228 0
M  V30 7751 H 700.505 -2.22472 -4.24315 0
M  V30 7752 H 698.869 -1.09616 -2.29905 0
M  V30 7753 H 699.652 -2.74971 -2.05538 0
M  V30 7754 N 702.098 1.27442 -0.927168 0
M  V30 7755 C 703.008 2.30599 -0.431448 0
M  V30 7756 C 704.024 1.67028 0.48761 0
M  V30 7757 O 705.2 1.97962 0.370546 0
M  V30 7758 C 702.265 3.45327 0.308292 0
M  V30 7759 C 701.326 4.24418 -0.645615 0
M  V30 7760 C 700.559 5.33667 0.0589164 0
M  V30 7761 O 700.782 5.5589 1.27838 0
M  V30 7762 O 699.716 5.98774 -0.612638 0
M  V30 7763 H 703.542 2.75036 -1.28797 0
M  V30 7764 H 701.127 1.32382 -0.692495 0
M  V30 7765 H 703.009 4.15107 0.725555 0
M  V30 7766 H 701.684 3.02945 1.14043 0
M  V30 7767 H 700.591 3.57174 -1.11255 0
M  V30 7768 H 701.924 4.70512 -1.44496 0
M  V30 7769 N 703.576 0.692616 1.41565 0
M  V30 7770 C 704.992 0.363878 1.55397 0
M  V30 7771 C 705.192 -1.1294 1.66874 0
M  V30 7772 O 704.248 -1.91517 1.64552 0
M  V30 7773 C 705.561 1.10982 2.7947 0
M  V30 7774 C 707.109 1.09387 2.93263 0
M  V30 7775 C 707.584 1.8215 4.20221 0
M  V30 7776 N 709.075 1.79105 4.27172 0
M  V30 7777 C 709.81 2.32247 5.2426 0
M  V30 7778 N 709.306 2.93847 6.27396 0
M  V30 7779 N 711.099 2.22519 5.1618 0
M  V30 7780 H 703.25 1.66116 1.3236 0
M  V30 7781 H 705.513 0.700848 0.63837 0
M  V30 7782 H 705.219 2.1647 2.77188 0
M  V30 7783 H 705.093 0.686492 3.709 0
M  V30 7784 H 707.48 0.0472638 2.95062 0
M  V30 7785 H 707.561 1.55623 2.03015 0
M  V30 7786 H 707.205 2.86789 4.19183 0
M  V30 7787 H 707.135 1.33351 5.09436 0
M  V30 7788 H 709.626 1.34191 3.53272 0
M  V30 7789 H 709.939 3.31972 6.97864 0
M  V30 7790 H 708.284 2.97924 6.27906 0
M  V30 7791 H 711.475 1.7407 4.34531 0
M  V30 7792 H 711.648 2.64239 5.91677 0
M  V30 7793 N 705.054 -1.51416 0.437162 0
M  V30 7794 C 706.302 -2.01687 -0.129108 0
M  V30 7795 C 706.623 -1.32329 -1.43227 0
M  V30 7796 O 705.893 -0.457796 -1.90476 0
M  V30 7797 H 704.473 -0.745277 -0.0507023 0
M  V30 7798 H 707.135 -1.86075 0.579828 0
M  V30 7799 H 706.231 -3.10605 -0.305141 0
M  V30 7800 N 706.532 -0.168513 -1.56696 0
M  V30 7801 C 707.781 0.477233 -1.95973 0
M  V30 7802 C 708.094 1.64578 -1.05704 0
M  V30 7803 O 709.3 2.35758 -1.3465 0
M  V30 7804 C 707.756 0.900413 -3.48455 0
M  V30 7805 C 707.364 -0.242382 -4.47344 0
M  V30 7806 C 709.108 1.51474 -3.96555 0
M  V30 7807 C 707.015 0.200272 -5.91061 0
M  V30 7808 H 705.945 0.182061 -0.73169 0
M  V30 7809 H 708.596 -0.256297 -1.81701 0
M  V30 7810 H 706.978 1.68984 -3.58135 0
M  V30 7811 H 708.152 -1.01967 -4.49377 0
M  V30 7812 H 706.467 -0.766484 -4.09285 0
M  V30 7813 H 709.064 1.85792 -5.01384 0
M  V30 7814 H 709.407 2.41163 -3.39332 0
M  V30 7815 H 709.94 0.789802 -3.89881 0
M  V30 7816 H 706.679 -0.661775 -6.52151 0
M  V30 7817 H 706.199 0.942979 -5.92341 0
M  V30 7818 H 707.878 0.645088 -6.43776 0
M  V30 7819 N 708.01 1.57248 0.105221 0
M  V30 7820 C 708.94 2.04374 1.12931 0
M  V30 7821 C 709.921 0.93074 1.42377 0
M  V30 7822 O 711.106 1.20136 1.52581 0
M  V30 7823 C 708.236 2.45967 2.45189 0
M  V30 7824 C 707.19 3.60838 2.30174 0
M  V30 7825 C 706.516 3.88374 3.67518 0
M  V30 7826 C 707.816 4.92084 1.75073 0
M  V30 7827 H 709.51 2.9018 0.737287 0
M  V30 7828 H 707.056 1.39601 0.353211 0
M  V30 7829 H 709.009 2.77542 3.17094 0
M  V30 7830 H 707.733 1.57148 2.86308 0
M  V30 7831 H 706.392 3.29493 1.60716 0
M  V30 7832 H 706.04 2.96739 4.06147 0
M  V30 7833 H 705.74 4.65703 3.58321 0
M  V30 7834 H 707.264 4.22415 4.40906 0
M  V30 7835 H 708.678 5.22106 2.36809 0
M  V30 7836 H 707.075 5.73507 1.76662 0
M  V30 7837 H 708.145 4.79684 0.709347 0
M  V30 7838 N 709.488 -0.375779 1.53054 0
M  V30 7839 C 710.899 -0.95309 1.6054 0
M  V30 7840 C 711.25 -1.90575 0.466446 0
M  V30 7841 O 710.375 -2.12507 -0.408609 0
M  V30 7842 C 710.97 -1.73537 2.90982 0
M  V30 7843 C 709.529 -2.26218 3.00836 0
M  V30 7844 C 708.676 -1.07157 2.55759 0
M  V30 7845 H 711.627 -0.154895 1.57942 0
M  V30 7846 H 711.648 -2.59574 2.78211 0
M  V30 7847 H 711.16 -1.04176 3.73857 0
M  V30 7848 H 709.261 -2.98852 2.22527 0
M  V30 7849 H 709.374 -2.54799 4.05727 0
M  V30 7850 H 707.738 -1.43553 2.10391 0
M  V30 7851 H 708.521 -0.393099 3.41042 0
M  V30 7852 N 710.966 -1.44241 -0.634997 0
M  V30 7853 C 712.214 -1.46531 -1.39187 0
M  V30 7854 C 712.535 -0.0976441 -1.94755 0
M  V30 7855 O 711.805 0.869528 -1.75545 0
M  V30 7856 H 710.385 -0.539544 -0.516625 0
M  V30 7857 H 713.047 -1.79989 -0.747655 0
M  V30 7858 H 712.143 -2.18848 -2.22513 0
M  V30 7859 N 712.444 0.87505 -1.31075 0
M  V30 7860 C 713.69 1.63009 -1.20647 0
M  V30 7861 C 714.023 1.9276 0.236045 0
M  V30 7862 O 713.298 1.55559 1.16754 0
M  V30 7863 C 713.581 2.96357 -2.0456 0
M  V30 7864 C 713.434 2.73516 -3.57084 0
M  V30 7865 C 714.753 3.974 -1.89107 0
M  V30 7866 H 711.872 0.591518 -0.439631 0
M  V30 7867 H 714.514 1.0119 -1.60812 0
M  V30 7868 H 712.664 3.49119 -1.70435 0
M  V30 7869 H 714.336 2.27465 -4.01319 0
M  V30 7870 H 712.579 2.0784 -3.80769 0
M  V30 7871 H 713.25 3.68377 -4.11099 0
M  V30 7872 H 715.726 3.5383 -2.18961 0
M  V30 7873 H 714.602 4.88596 -2.5013 0
M  V30 7874 H 714.863 4.33794 -0.85296 0
M  V30 7875 N 713.922 1.13953 1.08869 0
M  V30 7876 C 715.338 0.878924 1.33218 0
M  V30 7877 C 715.538 -0.482478 1.95638 0
M  V30 7878 O 714.594 -1.22778 2.2064 0
M  V30 7879 C 715.907 2.00798 2.23832 0
M  V30 7880 C 717.455 2.04073 2.37325 0
M  V30 7881 C 717.93 3.16258 3.31278 0
M  V30 7882 N 719.421 3.15805 3.38853 0
M  V30 7883 C 720.156 3.99249 4.11567 0
M  V30 7884 N 719.652 4.92721 4.87029 0
M  V30 7885 N 721.445 3.87327 4.0735 0
M  V30 7886 H 713.596 2.01645 0.66731 0
M  V30 7887 H 715.859 0.878395 0.356547 0
M  V30 7888 H 715.565 2.98986 1.85203 0
M  V30 7889 H 715.439 1.92704 3.24261 0
M  V30 7890 H 717.826 1.06495 2.75214 0
M  V30 7891 H 717.907 2.16239 1.36654 0
M  V30 7892 H 717.551 4.14079 2.9411 0
M  V30 7893 H 717.481 3.0133 4.31866 0
M  V30 7894 H 719.972 2.48102 2.8505 0
M  V30 7895 H 720.285 5.52867 5.39961 0
M  V30 7896 H 718.63 4.96723 4.86098 0
M  V30 7897 H 721.821 3.13627 3.475 0
M  V30 7898 H 721.994 4.52585 4.63757 0
M  V30 7899 N 715.4 -1.26948 0.933913 0
M  V30 7900 C 716.811 -1.76058 0.621324 0
M  V30 7901 C 717.162 -1.76175 -0.863522 0
M  V30 7902 O 716.287 -1.36921 -1.67576 0
M  V30 7903 C 716.882 -3.19713 1.12111 0
M  V30 7904 C 715.441 -3.66465 0.859074 0
M  V30 7905 C 714.588 -2.46186 1.27624 0
M  V30 7906 H 717.539 -1.13127 1.11301 0
M  V30 7907 H 717.56 -3.77566 0.471608 0
M  V30 7908 H 717.072 -3.19596 2.20182 0
M  V30 7909 H 715.173 -3.72021 -0.207566 0
M  V30 7910 H 715.286 -4.55636 1.48098 0
M  V30 7911 H 713.65 -2.45042 0.694727 0
M  V30 7912 H 714.433 -2.48774 2.36572 0
M  V30 7913 N 716.879 -0.700114 -1.41195 0
M  V30 7914 C 718.127 -0.232546 -2.00758 0
M  V30 7915 C 718.448 1.1734 -1.55745 0
M  V30 7916 O 717.718 1.79262 -0.790058 0
M  V30 7917 H 716.298 -0.0829845 -0.742376 0
M  V30 7918 H 718.96 -0.902289 -1.72756 0
M  V30 7919 H 718.056 -0.253521 -3.11069 0
M  V30 7920 N 718.357 1.51182 -0.445186 0
M  V30 7921 C 719.604 2.02152 0.118645 0
M  V30 7922 C 719.932 1.32888 1.42025 0
M  V30 7923 O 719.187 0.435041 1.90803 0
M  V30 7924 C 719.486 3.55408 0.376797 0
M  V30 7925 C 719.152 4.43008 -0.839945 0
M  V30 7926 C 717.814 4.66669 -1.17361 0
M  V30 7927 C 720.166 4.9435 -1.65127 0
M  V30 7928 C 717.494 5.38919 -2.31913 0
M  V30 7929 C 719.846 5.67857 -2.78786 0
M  V30 7930 C 718.51 5.89779 -3.12597 0
M  V30 7931 H 717.78 0.739727 0.0434152 0
M  V30 7932 H 720.427 1.82055 -0.593984 0
M  V30 7933 H 718.732 3.73879 1.1714 0
M  V30 7934 H 720.429 3.92388 0.826602 0
M  V30 7935 H 717.019 4.24793 -0.569958 0
M  V30 7936 H 721.203 4.75947 -1.4067 0
M  V30 7937 H 716.459 5.54105 -2.58413 0
M  V30 7938 H 720.633 6.06628 -3.42017 0
M  V30 7939 H 718.26 6.45542 -4.01471 0
M  V30 7940 N 719.835 0.176821 1.56605 0
M  V30 7941 C 721.246 -0.338963 1.83597 0
M  V30 7942 C 721.597 -1.62677 1.09684 0
M  V30 7943 O 720.722 -2.13524 0.351661 0
M  V30 7944 C 721.317 -0.62177 3.33046 0
M  V30 7945 C 719.876 -1.08198 3.60514 0
M  V30 7946 C 719.023 -0.120774 2.77037 0
M  V30 7947 H 721.974 0.400978 1.53551 0
M  V30 7948 H 721.995 -1.47321 3.50823 0
M  V30 7949 H 721.507 0.315692 3.86814 0
M  V30 7950 H 719.608 -2.03435 3.12162 0
M  V30 7951 H 719.721 -0.987329 4.68816 0
M  V30 7952 H 718.085 -0.619192 2.47059 0
M  V30 7953 H 718.868 0.810806 3.33588 0
M  V30 7954 N 721.313 -1.57302 -0.09688 0
M  V30 7955 C 722.543 -1.89926 -0.813114 0
M  V30 7956 C 722.951 -0.76852 -1.72888 0
M  V30 7957 O 722.294 0.268549 -1.81726 0
M  V30 7958 C 722.356 -3.17787 -1.68082 0
M  V30 7959 C 722.02 -4.4729 -0.937061 0
M  V30 7960 C 723.017 -5.1921 -0.267687 0
M  V30 7961 C 720.702 -4.93957 -0.911671 0
M  V30 7962 C 722.696 -6.36034 0.417129 0
M  V30 7963 C 720.383 -6.10693 -0.223068 0
M  V30 7964 C 721.381 -6.8158 0.440155 0
M  V30 7965 O 721.069 -7.96092 1.11772 0
M  V30 7966 H 720.801 -0.632783 -0.237828 0
M  V30 7967 H 723.355 -2.05248 -0.0790818 0
M  V30 7968 H 721.585 -2.98607 -2.45705 0
M  V30 7969 H 723.274 -3.36257 -2.27346 0
M  V30 7970 H 724.04 -4.84198 -0.278774 0
M  V30 7971 H 719.919 -4.38671 -1.41734 0
M  V30 7972 H 723.463 -6.91301 0.93537 0
M  V30 7973 H 719.36 -6.45159 -0.209821 0
M  V30 7974 H 720.128 -8.12064 1.02443 0
M  V30 7975 N 722.791 0.367657 -1.53252 0
M  V30 7976 C 724.039 1.10832 -1.68999 0
M  V30 7977 C 724.36 1.89894 -0.443306 0
M  V30 7978 O 723.63 1.88235 0.54262 0
M  V30 7979 H 722.21 0.412153 -0.623008 0
M  V30 7980 H 724.872 0.414775 -1.90435 0
M  V30 7981 H 723.968 1.7993 -2.55013 0
M  V30 7982 N 724.269 1.44576 0.627338 0
M  V30 7983 C 725.232 1.51372 1.72102 0
M  V30 7984 C 726.232 0.395329 1.55865 0
M  V30 7985 O 727.422 0.658094 1.61291 0
M  V30 7986 C 724.554 1.39129 3.11217 0
M  V30 7987 H 725.747 2.48798 1.6745 0
M  V30 7988 H 723.3 1.31724 0.841336 0
M  V30 7989 H 724.035 0.428114 3.21462 0
M  V30 7990 H 723.82 2.20229 3.24409 0
M  V30 7991 H 725.31 1.46874 3.90919 0
M  V30 7992 N 725.747 -0.868086 1.31537 0
M  V30 7993 C 726.71 -1.95703 1.19302 0
M  V30 7994 C 727.71 -1.60355 0.119612 0
M  V30 7995 O 728.9 -1.70247 0.36902 0
M  V30 7996 C 726.032 -3.30599 0.831684 0
M  V30 7997 H 727.225 -2.07982 2.16064 0
M  V30 7998 H 724.778 -1.05661 1.15176 0
M  V30 7999 H 725.513 -3.2402 -0.134694 0
M  V30 8000 H 725.298 -3.57629 1.60761 0
M  V30 8001 H 726.788 -4.10439 0.770026 0
M  V30 8002 N 727.225 -1.14528 -1.08264 0
M  V30 8003 C 728.473 -0.912599 -1.80322 0
M  V30 8004 C 728.794 0.562256 -1.86718 0
M  V30 8005 O 728.064 1.40869 -1.36135 0
M  V30 8006 H 726.644 -0.334645 -0.667849 0
M  V30 8007 H 729.306 -1.44415 -1.30883 0
M  V30 8008 H 728.402 -1.31384 -2.83098 0
M  V30 8009 N 728.703 1.26451 -0.940633 0
M  V30 8010 C 729.653 2.24086 -0.420669 0
M  V30 8011 C 730.637 1.53501 0.482301 0
M  V30 8012 O 731.829 1.74127 0.317636 0
M  V30 8013 C 728.958 3.41866 0.313452 0
M  V30 8014 C 728.044 4.19737 -0.606779 0
M  V30 8015 N 728.435 4.7521 -1.73232 0
M  V30 8016 C 726.733 4.44091 -0.41226 0
M  V30 8017 C 727.434 5.34052 -2.30572 0
M  V30 8018 N 726.41 5.1971 -1.59381 0
M  V30 8019 H 730.212 2.64569 -1.27986 0
M  V30 8020 H 727.726 1.4153 -0.796436 0
M  V30 8021 H 729.723 4.1093 0.702991 0
M  V30 8022 H 728.383 3.0291 1.16942 0
M  V30 8023 H 729.394 4.72769 -2.11447 0
M  V30 8024 H 726.071 4.1556 0.401984 0
M  V30 8025 H 727.461 5.87845 -3.25404 0
M  V30 8026 N 730.181 0.707592 1.40822 0
M  V30 8027 C 731.131 0.0265008 2.27985 0
M  V30 8028 C 732.115 -0.740685 1.42838 0
M  V30 8029 O 733.307 -0.6142 1.66002 0
M  V30 8030 C 730.436 -0.900382 3.31282 0
M  V30 8031 C 729.522 -0.128807 4.23904 0
M  V30 8032 N 729.913 0.883744 4.9802 0
M  V30 8033 C 728.211 -0.362539 4.44524 0
M  V30 8034 C 728.912 1.34666 5.65898 0
M  V30 8035 N 727.888 0.670306 5.39451 0
M  V30 8036 H 731.69 0.802667 2.82727 0
M  V30 8037 H 729.204 0.539475 1.53178 0
M  V30 8038 H 731.201 -1.40357 3.92563 0
M  V30 8039 H 729.861 -1.67601 2.781 0
M  V30 8040 H 730.872 1.26435 5.0223 0
M  V30 8041 H 727.549 -1.11512 4.02332 0
M  V30 8042 H 728.939 2.18756 6.35292 0
M  V30 8043 N 731.66 -1.50943 0.453197 0
M  V30 8044 C 732.61 -2.25003 -0.368467 0
M  V30 8045 C 733.594 -1.27864 -0.976714 0
M  V30 8046 O 734.786 -1.52867 -0.892228 0
M  V30 8047 C 731.915 -3.10701 -1.46014 0
M  V30 8048 C 731.001 -4.15278 -0.860506 0
M  V30 8049 N 731.392 -5.05799 0.00849611 0
M  V30 8050 C 729.69 -4.31542 -1.1264 0
M  V30 8051 C 730.391 -5.80664 0.346951 0
M  V30 8052 N 729.367 -5.42912 -0.273426 0
M  V30 8053 H 733.169 -2.92352 0.301246 0
M  V30 8054 H 730.683 -1.60203 0.266233 0
M  V30 8055 H 732.68 -3.62348 -2.06179 0
M  V30 8056 H 731.34 -2.44898 -2.13202 0
M  V30 8057 H 732.351 -5.16533 0.376077 0
M  V30 8058 H 729.028 -3.76962 -1.7946 0
M  V30 8059 H 730.418 -6.63565 1.05507 0
M  V30 8060 N 733.138 -0.185124 -1.56509 0
M  V30 8061 C 734.385 0.456258 -1.97293 0
M  V30 8062 C 734.713 1.62314 -1.07165 0
M  V30 8063 O 733.968 1.95398 -0.108621 0
M  V30 8064 C 734.267 0.967977 -3.44042 0
M  V30 8065 C 733.933 -0.084476 -4.50821 0
M  V30 8066 C 732.595 -0.373689 -4.79747 0
M  V30 8067 C 734.947 -0.79812 -5.15053 0
M  V30 8068 C 732.275 -1.3817 -5.70198 0
M  V30 8069 C 734.627 -1.79521 -6.06593 0
M  V30 8070 C 733.291 -2.09172 -6.3388 0
M  V30 8071 H 732.561 0.166957 -0.721946 0
M  V30 8072 H 735.208 -0.279992 -1.89442 0
M  V30 8073 H 733.513 1.78231 -3.48914 0
M  V30 8074 H 735.21 1.47347 -3.72948 0
M  V30 8075 H 731.8 0.15111 -4.28334 0
M  V30 8076 H 735.984 -0.587903 -4.92806 0
M  V30 8077 H 731.24 -1.61745 -5.89617 0
M  V30 8078 H 735.414 -2.35347 -6.55427 0
M  V30 8079 H 733.041 -2.87427 -7.03768 0
M  V30 8080 N 734.616 1.57351 0.0885366 0
M  V30 8081 C 736.027 1.75303 0.642308 0
M  V30 8082 C 736.378 0.808238 1.78779 0
M  V30 8083 O 735.503 -0.01171 2.16397 0
M  V30 8084 C 736.098 3.17885 1.17194 0
M  V30 8085 C 734.657 3.37239 1.67172 0
M  V30 8086 C 733.804 2.7108 0.584045 0
M  V30 8087 H 736.755 1.58103 -0.137567 0
M  V30 8088 H 736.776 3.2112 2.04114 0
M  V30 8089 H 736.288 3.86625 0.338024 0
M  V30 8090 H 734.389 2.73588 2.52943 0
M  V30 8091 H 734.502 4.45594 1.76019 0
M  V30 8092 H 732.866 2.33161 1.02508 0
M  V30 8093 H 733.649 3.42464 -0.239403 0
M  V30 8094 N 736.094 -0.359525 1.53444 0
M  V30 8095 C 737.371 -1.11756 1.6053 0
M  V30 8096 C 737.751 -2.06949 0.416587 0
M  V30 8097 O 737.099 -2.20681 -0.592628 0
M  V30 8098 C 737.309 -1.85133 2.95849 0
M  V30 8099 C 738.657 -2.3945 3.50641 0
M  V30 8100 O 739.681 -1.95251 2.97918 0
M  V30 8101 O 738.54 -3.20266 4.42823 0
M  V30 8102 H 735.634 -0.513005 0.648656 0
M  V30 8103 H 738.18 -0.362301 1.65787 0
M  V30 8104 H 736.952 -1.15694 3.73806 0
M  V30 8105 H 736.575 -2.67554 2.9411 0
M  V30 8106 N 737.572 -1.44907 -0.619662 0
M  V30 8107 C 738.535 -1.52282 -1.71297 0
M  V30 8108 C 739.535 -0.40359 -1.55653 0
M  V30 8109 O 740.725 -0.666638 -1.6094 0
M  V30 8110 C 737.857 -1.40778 -3.10474 0
M  V30 8111 H 739.05 -2.49683 -1.66128 0
M  V30 8112 H 736.603 -1.32168 -0.834339 0
M  V30 8113 H 737.338 -0.445156 -3.2123 0
M  V30 8114 H 737.123 -2.21947 -3.23237 0
M  V30 8115 H 738.613 -1.48946 -3.90135 0
M  V30 8116 N 739.05 0.861098 -1.31996 0
M  V30 8117 C 740.327 1.59788 -1.12814 0
M  V30 8118 C 740.707 2.08753 0.313882 0
M  V30 8119 O 740.055 1.87258 1.30946 0
M  V30 8120 C 740.265 2.74901 -2.15012 0
M  V30 8121 C 741.613 3.44643 -2.48004 0
M  V30 8122 O 742.637 2.85119 -2.13508 0
M  V30 8123 O 741.496 4.52044 -3.07113 0
M  V30 8124 H 738.59 0.703408 -0.434909 0
M  V30 8125 H 741.136 0.905788 -1.43505 0
M  V30 8126 H 739.908 2.36198 -3.11971 0
M  V30 8127 H 739.531 3.51792 -1.85279 0
M  V30 8128 N 740.528 1.15101 1.07655 0
M  V30 8129 C 741.805 0.834578 1.76902 0
M  V30 8130 C 742.185 -0.670431 2.00171 0
M  V30 8131 O 741.533 -1.61378 1.6177 0
M  V30 8132 C 741.743 1.64191 3.07965 0
M  V30 8133 C 743.091 1.84615 3.82364 0
M  V30 8134 O 744.115 1.60941 3.17768 0
M  V30 8135 O 742.974 2.24244 4.98374 0
M  V30 8136 H 740.068 0.306608 0.768063 0
M  V30 8137 H 742.614 1.25663 1.14048 0
M  V30 8138 H 741.386 2.66386 2.86626 0
M  V30 8139 H 741.009 1.216 3.78549 0
M  V30 8140 N 742.006 -1.2595 0.947325 0
M  V30 8141 C 743.255 -1.92759 0.593887 0
M  V30 8142 C 743.568 -1.75083 -0.872093 0
M  V30 8143 O 744.774 -2.36401 -1.33518 0
M  V30 8144 C 743.23 -3.45395 1.01144 0
M  V30 8145 C 742.838 -3.71795 2.49946 0
M  V30 8146 C 744.582 -4.18173 0.730185 0
M  V30 8147 C 742.489 -5.17901 2.85539 0
M  V30 8148 H 741.419 -0.721676 0.218403 0
M  V30 8149 H 744.07 -1.4293 1.15079 0
M  V30 8150 H 742.452 -3.94143 0.383007 0
M  V30 8151 H 743.626 -3.33728 3.17746 0
M  V30 8152 H 741.941 -3.12263 2.75465 0
M  V30 8153 H 744.538 -5.25784 0.972367 0
M  V30 8154 H 744.881 -4.14964 -0.333223 0
M  V30 8155 H 745.414 -3.75309 1.31862 0
M  V30 8156 H 742.153 -5.26216 3.90867 0
M  V30 8157 H 741.673 -5.57042 2.22406 0
M  V30 8158 H 743.352 -5.8596 2.74336 0
M  V30 8159 N 743.484 -0.715051 -1.40445 0
M  V30 8160 C 744.9 -0.388555 -1.54798 0
M  V30 8161 C 745.1 1.10271 -1.68649 0
M  V30 8162 O 744.156 1.88875 -1.67578 0
M  V30 8163 C 745.469 -1.15414 -2.77669 0
M  V30 8164 C 747.017 -1.14039 -2.91486 0
M  V30 8165 C 747.492 -1.88812 -4.1727 0
M  V30 8166 N 748.983 -1.85878 -4.24268 0
M  V30 8167 C 749.718 -2.40558 -5.20499 0
M  V30 8168 N 749.214 -3.03791 -6.22642 0
M  V30 8169 N 751.007 -2.30703 -5.12574 0
M  V30 8170 H 743.158 -1.68201 -1.297 0
M  V30 8171 H 745.421 -0.710915 -0.627139 0
M  V30 8172 H 745.127 -2.20853 -2.7371 0
M  V30 8173 H 745.001 -0.745412 -3.69761 0
M  V30 8174 H 747.388 -0.0941996 -2.9495 0
M  V30 8175 H 747.469 -1.58834 -2.00513 0
M  V30 8176 H 747.113 -2.93422 -4.14568 0
M  V30 8177 H 747.043 -1.41438 -5.0725 0
M  V30 8178 H 749.534 -1.39794 -3.51093 0
M  V30 8179 H 749.847 -3.43032 -6.92495 0
M  V30 8180 H 748.192 -3.07875 -6.23087 0
M  V30 8181 H 751.383 -1.80961 -4.31707 0
M  V30 8182 H 751.556 -2.73618 -5.87398 0
M  V30 8183 N 744.962 1.50701 -0.461195 0
M  V30 8184 C 745.909 2.2831 0.338094 0
M  V30 8185 C 746.879 1.32928 0.995957 0
M  V30 8186 O 748.064 1.61857 1.0103 0
M  V30 8187 C 745.204 3.14539 1.41983 0
M  V30 8188 C 744.317 4.24942 0.77773 0
M  V30 8189 C 743.452 4.98443 1.83652 0
M  V30 8190 C 742.491 6.00733 1.17413 0
M  V30 8191 N 741.628 6.6755 2.17533 0
M  V30 8192 H 746.468 2.96167 -0.330051 0
M  V30 8193 H 744.005 1.4606 -0.174611 0
M  V30 8194 H 745.963 3.62877 2.05855 0
M  V30 8195 H 744.593 2.48749 2.05727 0
M  V30 8196 H 743.645 3.80391 0.0266924 0
M  V30 8197 H 744.957 4.98151 0.254362 0
M  V30 8198 H 744.111 5.50449 2.55129 0
M  V30 8199 H 742.85 4.24917 2.39367 0
M  V30 8200 H 741.855 5.47997 0.444944 0
M  V30 8201 H 743.08 6.76227 0.624006 0
M  V30 8202 H 741.026 5.96823 2.72284 0
M  V30 8203 H 740.943 7.36603 1.70154 0
M  V30 8204 H 742.211 7.24178 2.88421 0
M  V30 8205 N 746.441 0.193421 1.56409 0
M  V30 8206 C 747.669 -0.451438 2.01915 0
M  V30 8207 C 748.084 -1.55306 1.07357 0
M  V30 8208 O 747.441 -1.82333 0.0781512 0
M  V30 8209 C 747.492 -1.00931 3.47124 0
M  V30 8210 O 747.213 0.0483623 4.38073 0
M  V30 8211 C 748.714 -1.73021 4.0814 0
M  V30 8212 H 745.934 -0.113495 0.661332 0
M  V30 8213 H 748.478 0.301636 2.02263 0
M  V30 8214 H 746.633 -1.71277 3.47481 0
M  V30 8215 H 747.047 -0.366644 5.23217 0
M  V30 8216 H 748.521 -2.07289 5.11601 0
M  V30 8217 H 748.998 -2.6333 3.51502 0
M  V30 8218 H 749.604 -1.07264 4.11551 0
M  V30 8219 N 747.919 -1.57396 -0.0801906 0
M  V30 8220 C 748.849 -2.06145 -1.09665 0
M  V30 8221 C 749.83 -0.953273 -1.40878 0
M  V30 8222 O 751.015 -1.22548 -1.50651 0
M  V30 8223 C 748.145 -2.49836 -2.41245 0
M  V30 8224 C 747.099 -3.64454 -2.24405 0
M  V30 8225 C 746.425 -3.94172 -3.61293 0
M  V30 8226 C 747.725 -4.94807 -1.67223 0
M  V30 8227 H 749.419 -2.91316 -0.691028 0
M  V30 8228 H 746.965 -1.40145 -0.330957 0
M  V30 8229 H 748.918 -2.82552 -3.12638 0
M  V30 8230 H 747.642 -1.61683 -2.83771 0
M  V30 8231 H 746.301 -3.32008 -1.55454 0
M  V30 8232 H 745.949 -3.03163 -4.01374 0
M  V30 8233 H 745.649 -4.71345 -3.50867 0
M  V30 8234 H 747.173 -4.29376 -4.3413 0
M  V30 8235 H 748.587 -5.25807 -2.28472 0
M  V30 8236 H 746.984 -5.76245 -1.67515 0
M  V30 8237 H 748.054 -4.80751 -0.632944 0
M  V30 8238 N 749.397 0.351382 -1.53633 0
M  V30 8239 C 750.344 1.43115 -1.81071 0
M  V30 8240 C 751.314 1.52601 -0.655913 0
M  V30 8241 O 752.499 1.68264 -0.89955 0
M  V30 8242 C 749.639 2.79874 -2.01903 0
M  V30 8243 C 748.752 2.79242 -3.29618 0
M  V30 8244 C 747.887 4.07667 -3.40559 0
M  V30 8245 C 746.926 4.01233 -4.62254 0
M  V30 8246 N 746.063 5.21334 -4.70271 0
M  V30 8247 H 750.903 1.19017 -2.73201 0
M  V30 8248 H 748.44 0.576691 -1.35324 0
M  V30 8249 H 750.398 3.5934 -2.11969 0
M  V30 8250 H 749.028 3.0234 -1.13094 0
M  V30 8251 H 748.08 1.91927 -3.28433 0
M  V30 8252 H 749.392 2.70363 -4.19172 0
M  V30 8253 H 748.546 4.95555 -3.50015 0
M  V30 8254 H 747.285 4.19317 -2.49047 0
M  V30 8255 H 746.29 3.11732 -4.52884 0
M  V30 8256 H 747.515 3.91173 -5.55122 0
M  V30 8257 H 745.461 5.33543 -3.81665 0
M  V30 8258 H 745.378 5.14681 -5.5375 0
M  V30 8259 H 746.646 6.11014 -4.84027 0
M  V30 8260 N 750.875 1.45233 0.611969 0
M  V30 8261 C 752.291 1.29542 0.932251 0
M  V30 8262 C 752.491 0.24523 2.00002 0
M  V30 8263 O 751.547 -0.362333 2.49887 0
M  V30 8264 C 752.86 2.67301 1.37733 0
M  V30 8265 C 754.408 2.75163 1.49178 0
M  V30 8266 C 754.883 4.13437 1.97064 0
M  V30 8267 N 756.374 4.15709 2.04304 0
M  V30 8268 C 757.109 5.19566 2.42568 0
M  V30 8269 N 756.605 6.33771 2.79832 0
M  V30 8270 N 758.398 5.06923 2.42869 0
M  V30 8271 H 750.549 2.12192 -0.0938679 0
M  V30 8272 H 752.812 0.947775 0.0206569 0
M  V30 8273 H 752.518 3.45318 0.666951 0
M  V30 8274 H 752.392 2.95472 2.3447 0
M  V30 8275 H 754.779 1.97453 2.19309 0
M  V30 8276 H 754.86 2.50712 0.507674 0
M  V30 8277 H 754.504 4.91631 1.27521 0
M  V30 8278 H 754.434 4.35277 2.9638 0
M  V30 8279 H 756.925 3.33293 1.78113 0
M  V30 8280 H 757.238 7.08815 3.07898 0
M  V30 8281 H 755.583 6.37179 2.77538 0
M  V30 8282 H 758.774 4.1675 2.1316 0
M  V30 8283 H 758.947 5.87981 2.72364 0
M  V30 8284 N 752.353 -0.854086 1.3245 0
M  V30 8285 C 753.283 -1.97827 1.24044 0
M  V30 8286 C 754.264 -1.69646 0.124166 0
M  V30 8287 O 755.449 -1.91687 0.31143 0
M  V30 8288 C 752.579 -3.33673 0.963324 0
M  V30 8289 C 751.533 -3.76207 2.04089 0
M  V30 8290 C 750.859 -5.0969 1.61618 0
M  V30 8291 C 752.159 -3.91612 3.45597 0
M  V30 8292 H 753.853 -2.05118 2.18099 0
M  V30 8293 H 751.399 -0.985489 1.04996 0
M  V30 8294 H 753.352 -4.11871 0.891061 0
M  V30 8295 H 752.076 -3.26597 -0.0128649 0
M  V30 8296 H 750.735 -3.0026 2.10332 0
M  V30 8297 H 750.383 -4.99072 0.627418 0
M  V30 8298 H 750.083 -5.3912 2.33717 0
M  V30 8299 H 751.607 -5.90381 1.55829 0
M  V30 8300 H 753.021 -4.60163 3.4194 0
M  V30 8301 H 751.418 -4.3246 4.16051 0
M  V30 8302 H 752.488 -2.9451 3.85217 0
M  V30 8303 N 753.831 -1.1567 -1.07043 0
M  V30 8304 C 754.778 -0.856336 -2.14326 0
M  V30 8305 C 755.748 0.192051 -1.64986 0
M  V30 8306 O 756.933 0.0589148 -1.90709 0
M  V30 8307 C 754.073 -0.355227 -3.43267 0
M  V30 8308 C 753.186 -1.46555 -4.06381 0
M  V30 8309 C 752.321 -0.920245 -5.23168 0
M  V30 8310 C 751.36 -2.00729 -5.78251 0
M  V30 8311 N 750.497 -1.47813 -6.86364 0
M  V30 8312 H 755.337 -1.77514 -2.39359 0
M  V30 8313 H 752.874 -0.885676 -1.17449 0
M  V30 8314 H 754.832 -0.0463804 -4.17174 0
M  V30 8315 H 753.462 0.526649 -3.18475 0
M  V30 8316 H 752.514 -1.89052 -3.30096 0
M  V30 8317 H 753.826 -2.28616 -4.43324 0
M  V30 8318 H 752.98 -0.564127 -6.04072 0
M  V30 8319 H 751.719 -0.0688477 -4.87651 0
M  V30 8320 H 750.724 -2.3722 -4.95991 0
M  V30 8321 H 751.949 -2.86252 -6.15822 0
M  V30 8322 H 749.895 -0.649145 -6.5278 0
M  V30 8323 H 749.812 -2.23498 -7.22208 0
M  V30 8324 H 751.08 -1.15036 -7.70965 0
M  V30 8325 N 755.309 1.25446 -0.953992 0
M  V30 8326 C 756.272 2.24156 -0.478179 0
M  V30 8327 C 757.272 1.55278 0.417776 0
M  V30 8328 O 758.462 1.72866 0.215155 0
M  V30 8329 C 755.594 3.39495 0.309202 0
M  V30 8330 H 756.787 2.67764 -1.35064 0
M  V30 8331 H 754.34 1.37822 -0.737206 0
M  V30 8332 H 755.075 3.01307 1.19936 0
M  V30 8333 H 754.86 3.90679 -0.333562 0
M  V30 8334 H 756.35 4.12796 0.631594 0
M  V30 8335 N 756.787 0.722489 1.40064 0
M  V30 8336 C 758.033 0.265371 2.01056 0
M  V30 8337 C 758.366 -1.14062 1.57174 0
M  V30 8338 O 757.641 -1.77514 0.794916 0
M  V30 8339 C 757.924 0.353157 3.58364 0
M  V30 8340 C 757.777 1.79802 4.123 0
M  V30 8341 C 759.096 -0.271677 4.39261 0
M  V30 8342 H 756.215 0.0979002 0.730469 0
M  V30 8343 H 758.857 0.916289 1.66446 0
M  V30 8344 H 757.007 -0.201037 3.87979 0
M  V30 8345 H 758.679 2.40813 3.93455 0
M  V30 8346 H 756.922 2.32348 3.66329 0
M  V30 8347 H 757.593 1.81079 5.21454 0
M  V30 8348 H 760.069 0.200607 4.15616 0
M  V30 8349 H 758.945 -0.179843 5.48605 0
M  V30 8350 H 759.206 -1.35611 4.20787 0
M  V30 8351 N 758.265 -1.50454 0.469181 0
M  V30 8352 C 759.49 -2.0722 -0.0864892 0
M  V30 8353 C 759.915 -1.33098 -1.32916 0
M  V30 8354 O 759.273 -0.378084 -1.77314 0
M  V30 8355 C 759.321 -3.58845 -0.355384 0
M  V30 8356 O 758.425 -3.86583 -1.43622 0
M  V30 8357 H 757.766 -0.663889 0.0121414 0
M  V30 8358 H 760.296 -1.93674 0.659674 0
M  V30 8359 H 760.306 -4.03617 -0.596447 0
M  V30 8360 H 758.981 -4.12211 0.552698 0
M  V30 8361 H 757.558 -3.5365 -1.18262 0
M  V30 8362 N 759.743 -0.201713 -1.56304 0
M  V30 8363 C 760.69 0.716499 -2.19397 0
M  V30 8364 C 761.66 1.20494 -1.14326 0
M  V30 8365 O 762.845 1.26763 -1.42604 0
M  V30 8366 C 759.985 1.92762 -2.86246 0
M  V30 8367 C 759.098 1.47993 -4.0586 0
M  V30 8368 C 758.233 2.64706 -4.60547 0
M  V30 8369 C 757.272 2.16576 -5.72504 0
M  V30 8370 N 756.409 3.26491 -6.21569 0
M  V30 8371 H 761.249 0.171724 -2.97505 0
M  V30 8372 H 758.786 0.073016 -1.46919 0
M  V30 8373 H 760.744 2.6384 -3.23178 0
M  V30 8374 H 759.374 2.44559 -2.10691 0
M  V30 8375 H 758.426 0.66477 -3.74546 0
M  V30 8376 H 759.738 1.08686 -4.86815 0
M  V30 8377 H 758.892 3.43898 -4.99819 0
M  V30 8378 H 757.631 3.0729 -3.78713 0
M  V30 8379 H 756.636 1.3584 -5.32755 0
M  V30 8380 H 757.861 1.75015 -6.56161 0
M  V30 8381 H 755.807 3.68594 -5.42655 0
M  V30 8382 H 755.724 2.91374 -6.97594 0
M  V30 8383 H 756.992 4.05877 -6.65495 0
M  V30 8384 N 761.222 1.57436 0.0718424 0
M  V30 8385 C 762.154 2.00412 1.1121 0
M  V30 8386 C 763.167 0.910074 1.34987 0
M  V30 8387 O 764.356 1.18796 1.33228 0
M  V30 8388 C 761.456 2.32786 2.46301 0
M  V30 8389 C 760.629 3.64036 2.4248 0
M  V30 8390 C 759.688 3.8408 3.59679 0
M  V30 8391 O 758.714 4.55667 3.4111 0
M  V30 8392 N 759.916 3.2643 4.80025 0
M  V30 8393 H 762.681 2.90264 0.746118 0
M  V30 8394 H 760.242 1.59791 0.260495 0
M  V30 8395 H 762.234 2.43368 3.23348 0
M  V30 8396 H 760.804 1.48824 2.74901 0
M  V30 8397 H 760.024 3.64208 1.50818 0
M  V30 8398 H 761.312 4.50217 2.37027 0
M  V30 8399 H 760.71 2.68325 4.98014 0
M  V30 8400 H 759.267 3.42461 5.54584 0
M  V30 8401 N 762.7 -0.34323 1.53817 0
M  V30 8402 C 763.663 -1.40444 1.8113 0
M  V30 8403 C 764.663 -1.45604 0.682366 0
M  V30 8404 O 765.853 -1.45974 0.950649 0
M  V30 8405 C 762.985 -2.79369 1.95361 0
M  V30 8406 H 764.178 -1.17489 2.75928 0
M  V30 8407 H 761.731 -0.577636 1.45234 0
M  V30 8408 H 762.466 -3.07607 1.02707 0
M  V30 8409 H 762.251 -2.7702 2.77493 0
M  V30 8410 H 763.741 -3.56178 2.18008 0
M  V30 8411 N 764.178 -1.45556 -0.604258 0
M  V30 8412 C 765.126 -1.5482 -1.7359 0
M  V30 8413 C 766.12 -0.417966 -1.64163 0
M  V30 8414 O 767.326 -0.594007 -1.69916 0
M  V30 8415 H 763.701 -0.486352 -0.573556 0
M  V30 8416 H 765.672 -2.5001 -1.62903 0
M  V30 8417 C 764.421 -1.53521 -3.11972 0
M  V30 8418 H 763.744 -2.39818 -3.19886 0
M  V30 8419 H 765.184 -1.64061 -3.90973 0
M  V30 8420 C 763.643 -0.260191 -3.35894 0
M  V30 8421 O 764.173 0.658582 -3.96265 0
M  V30 8422 N 762.379 -0.154839 -2.90187 0
M  V30 8423 H 761.926 -0.903378 -2.4124 0
M  V30 8424 H 761.884 0.697437 -3.06567 0
M  V30 8425 N 765.656 0.84705 -1.32902 0
M  V30 8426 C 766.619 1.9378 -1.224 0
M  V30 8427 C 767.619 1.60144 -0.145108 0
M  V30 8428 O 768.809 1.69638 -0.396058 0
M  V30 8429 C 765.941 3.29234 -0.884174 0
M  V30 8430 H 767.134 2.04518 -2.19345 0
M  V30 8431 H 764.687 1.03816 -1.16842 0
M  V30 8432 H 765.422 3.24193 0.0831277 0
M  V30 8433 H 765.207 3.55026 -1.6643 0
M  V30 8434 H 766.697 4.09162 -0.835226 0
M  V30 8435 N 767.134 1.16236 1.06428 0
M  V30 8436 C 768.082 0.863669 2.15971 0
M  V30 8437 C 769.076 -0.166723 1.68578 0
M  V30 8438 O 770.282 -0.0208425 1.79988 0
M  V30 8439 H 766.657 0.261684 0.705 0
M  V30 8440 H 768.628 1.79498 2.38376 0
M  V30 8441 C 767.377 0.379697 3.45621 0
M  V30 8442 H 766.7 1.16399 3.82481 0
M  V30 8443 H 768.14 0.209458 4.23482 0
M  V30 8444 C 766.599 -0.900499 3.24642 0
M  V30 8445 O 767.129 -1.97004 3.50074 0
M  V30 8446 N 765.335 -0.843721 2.78082 0
M  V30 8447 H 764.882 0.0268429 2.57586 0
M  V30 8448 H 764.84 -1.70078 2.64425 0
M  V30 8449 N 768.612 -1.24939 0.960631 0
M  V30 8450 C 770.028 -1.45039 0.666018 0
M  V30 8451 C 770.228 -1.86021 -0.774501 0
M  V30 8452 O 769.284 -1.99392 -1.54916 0
M  V30 8453 C 770.597 -2.51775 1.64408 0
M  V30 8454 C 772.145 -2.6561 1.65592 0
M  V30 8455 C 772.62 -3.75536 2.62177 0
M  V30 8456 N 774.111 -3.82954 2.60577 0
M  V30 8457 C 774.846 -4.67517 3.31987 0
M  V30 8458 N 774.342 -5.56321 4.1289 0
M  V30 8459 N 776.135 -4.61535 3.20845 0
M  V30 8460 H 768.286 -0.96632 1.89145 0
M  V30 8461 H 770.549 -0.486034 0.813926 0
M  V30 8462 H 770.255 -2.28534 2.67329 0
M  V30 8463 H 770.129 -3.49804 1.41128 0
M  V30 8464 H 772.516 -2.88212 0.633846 0
M  V30 8465 H 772.597 -1.67962 1.92931 0
M  V30 8466 H 772.241 -3.53684 3.64514 0
M  V30 8467 H 772.171 -4.72682 2.32119 0
M  V30 8468 H 774.662 -3.19478 2.01847 0
M  V30 8469 H 774.975 -6.17787 4.64283 0
M  V30 8470 H 773.32 -5.5601 4.16987 0
M  V30 8471 H 776.511 -3.91169 2.57108 0
M  V30 8472 H 776.684 -5.27214 3.76762 0
M  V30 8473 N 770.09 -0.729906 -1.39679 0
M  V30 8474 C 771.022 -0.0470588 -2.29152 0
M  V30 8475 C 772.035 0.708808 -1.4656 0
M  V30 8476 O 773.224 0.553815 -1.69691 0
M  V30 8477 C 770.324 0.957612 -3.25089 0
M  V30 8478 C 769.497 0.264321 -4.36601 0
M  V30 8479 C 768.556 1.17638 -5.12882 0
M  V30 8480 O 767.582 0.655777 -5.6541 0
M  V30 8481 N 768.784 2.50649 -5.23598 0
M  V30 8482 H 771.549 -0.815364 -2.88395 0
M  V30 8483 H 769.11 -0.578707 -1.51204 0
M  V30 8484 H 771.102 1.57026 -3.72995 0
M  V30 8485 H 769.672 1.62716 -2.66912 0
M  V30 8486 H 768.892 -0.528732 -3.90638 0
M  V30 8487 H 770.18 -0.216344 -5.0834 0
M  V30 8488 H 769.578 2.95427 -4.82431 0
M  V30 8489 H 768.135 3.07022 -5.74961 0
M  V30 8490 N 771.568 1.50203 -0.477153 0
M  V30 8491 C 772.515 2.28656 0.31386 0
M  V30 8492 C 773.485 1.33977 0.981802 0
M  V30 8493 O 774.67 1.62919 0.993072 0
M  V30 8494 C 771.81 3.16027 1.38639 0
M  V30 8495 C 770.923 4.25743 0.732615 0
M  V30 8496 C 770.058 5.00363 1.78355 0
M  V30 8497 C 769.097 6.01945 1.11035 0
M  V30 8498 N 768.234 6.6982 2.10441 0
M  V30 8499 H 773.074 2.958 -0.361445 0
M  V30 8500 H 770.611 1.45867 -0.190093 0
M  V30 8501 H 772.569 3.6504 2.01994 0
M  V30 8502 H 771.199 2.50917 2.03077 0
M  V30 8503 H 770.251 3.80398 -0.0136546 0
M  V30 8504 H 771.563 4.98393 0.201513 0
M  V30 8505 H 770.717 5.53124 2.49276 0
M  V30 8506 H 769.456 4.27432 2.34847 0
M  V30 8507 H 768.461 5.48438 0.386797 0
M  V30 8508 H 769.686 6.76851 0.552248 0
M  V30 8509 H 767.632 5.99677 2.65939 0
M  V30 8510 H 767.549 7.38366 1.62332 0
M  V30 8511 H 768.817 7.27196 2.80724 0
M  V30 8512 N 773.046 0.209999 1.56195 0
M  V30 8513 C 774.294 -0.423974 1.97603 0
M  V30 8514 C 774.615 -1.61112 1.09854 0
M  V30 8515 O 773.885 -1.95134 0.173032 0
M  V30 8516 H 772.465 -0.159629 0.729745 0
M  V30 8517 H 775.127 0.300205 1.92574 0
M  V30 8518 H 774.223 -0.75809 3.02753 0
M  V30 8519 N 774.524 -1.57472 -0.0634922 0
M  V30 8520 C 775.456 -2.00999 -1.10145 0
M  V30 8521 C 776.469 -0.917219 -1.34503 0
M  V30 8522 O 777.658 -1.19501 -1.32596 0
M  V30 8523 C 774.758 -2.34089 -2.45063 0
M  V30 8524 C 773.931 -3.65317 -2.40546 0
M  V30 8525 C 772.99 -3.85982 -3.57637 0
M  V30 8526 O 772.016 -4.5747 -3.38689 0
M  V30 8527 N 773.218 -3.28971 -4.78287 0
M  V30 8528 H 775.983 -2.90656 -0.730714 0
M  V30 8529 H 773.544 -1.59926 -0.252017 0
M  V30 8530 H 775.536 -2.4508 -3.22053 0
M  V30 8531 H 774.106 -1.50279 -2.74107 0
M  V30 8532 H 773.326 -3.65003 -1.48885 0
M  V30 8533 H 774.614 -4.51468 -2.34636 0
M  V30 8534 H 774.012 -2.70962 -4.96584 0
M  V30 8535 H 772.569 -3.45398 -5.5276 0
M  V30 8536 N 776.003 0.335068 -1.53997 0
M  V30 8537 C 776.933 1.41727 -1.85568 0
M  V30 8538 C 777.914 1.54505 -0.7115 0
M  V30 8539 O 779.099 1.68573 -0.964191 0
M  V30 8540 C 776.229 2.7866 -2.07282 0
M  V30 8541 C 775.183 2.80682 -3.23112 0
M  V30 8542 C 774.509 4.20581 -3.30175 0
M  V30 8543 C 775.809 2.45458 -4.61029 0
M  V30 8544 H 777.503 1.15555 -2.76202 0
M  V30 8545 H 775.049 0.554445 -1.32898 0
M  V30 8546 H 777.002 3.54423 -2.27952 0
M  V30 8547 H 775.726 3.06286 -1.13387 0
M  V30 8548 H 774.385 2.07373 -3.02311 0
M  V30 8549 H 774.033 4.4533 -2.33859 0
M  V30 8550 H 773.733 4.22843 -4.08016 0
M  V30 8551 H 775.257 4.98174 -3.53066 0
M  V30 8552 H 776.671 3.10934 -4.81656 0
M  V30 8553 H 775.068 2.5899 -5.41336 0
M  V30 8554 H 776.138 1.40628 -4.6406 0
M  V30 8555 N 777.481 1.45874 0.596531 0
M  V30 8556 C 778.444 1.54988 1.68853 0
M  V30 8557 C 779.444 0.428302 1.54991 0
M  V30 8558 O 780.634 0.692158 1.59859 0
M  V30 8559 C 777.766 1.457 3.08195 0
M  V30 8560 H 778.959 2.52294 1.62135 0
M  V30 8561 H 776.512 1.33479 0.813206 0
M  V30 8562 H 777.247 0.496204 3.20481 0
M  V30 8563 H 777.032 2.27061 3.19665 0
M  V30 8564 H 778.522 1.55133 3.87716 0
M  V30 8565 N 778.959 -0.83999 1.33349 0
M  V30 8566 C 780.205 -1.59753 1.24927 0
M  V30 8567 C 780.538 -1.93318 -0.184855 0
M  V30 8568 O 779.813 -1.586 -1.12589 0
M  V30 8569 C 780.096 -2.90829 2.12345 0
M  V30 8570 C 779.949 -2.63953 3.6421 0
M  V30 8571 C 781.268 -3.92246 1.99577 0
M  V30 8572 H 778.387 -0.579654 0.45516 0
M  V30 8573 H 781.029 -0.968909 1.63439 0
M  V30 8574 H 779.179 -3.44478 1.79631 0
M  V30 8575 H 780.851 -2.16745 4.07209 0
M  V30 8576 H 779.094 -1.97671 3.86146 0
M  V30 8577 H 779.765 -3.57348 4.20721 0
M  V30 8578 H 782.241 -3.479 2.28265 0
M  V30 8579 H 781.117 -4.81793 2.62996 0
M  V30 8580 H 781.378 -4.3138 0.967673 0
M  V30 8581 N 780.437 -1.16799 -1.0581 0
M  V30 8582 C 781.347 -0.893492 -2.16919 0
M  V30 8583 C 782.363 0.136061 -1.73467 0
M  V30 8584 O 783.539 -0.0417348 -2.01357 0
M  V30 8585 C 780.604 -0.403763 -3.44341 0
M  V30 8586 C 779.665 -1.49914 -4.02274 0
M  V30 8587 C 778.898 -1.03269 -5.23614 0
M  V30 8588 O 779.121 0.115647 -5.70283 0
M  V30 8589 O 778.055 -1.8231 -5.73626 0
M  V30 8590 H 781.881 -1.82274 -2.42919 0
M  V30 8591 H 779.466 -0.948361 -1.1544 0
M  V30 8592 H 781.348 -0.137874 -4.21174 0
M  V30 8593 H 780.023 0.497413 -3.19855 0
M  V30 8594 H 778.93 -1.81883 -3.26909 0
M  V30 8595 H 780.263 -2.3758 -4.31064 0
M  V30 8596 N 781.915 1.24427 -0.967243 0
M  V30 8597 C 783.331 1.44684 -0.6737 0
M  V30 8598 C 783.531 1.86429 0.764625 0
M  V30 8599 O 782.587 2.00211 1.53857 0
M  V30 8600 C 783.9 2.509 -1.6574 0
M  V30 8601 C 785.448 2.64728 -1.66998 0
M  V30 8602 C 785.923 3.7414 -2.64165 0
M  V30 8603 N 787.414 3.81567 -2.62604 0
M  V30 8604 C 788.149 4.6575 -3.34462 0
M  V30 8605 N 787.645 5.54124 -4.15835 0
M  V30 8606 N 789.438 4.59827 -3.23288 0
M  V30 8607 H 781.589 0.956276 -1.89655 0
M  V30 8608 H 783.852 0.48171 -0.816492 0
M  V30 8609 H 783.558 2.27113 -2.68538 0
M  V30 8610 H 783.432 3.4905 -1.42981 0
M  V30 8611 H 785.819 2.87872 -0.649121 0
M  V30 8612 H 785.9 1.66936 -1.93819 0
M  V30 8613 H 785.544 3.51745 -3.66384 0
M  V30 8614 H 785.474 4.71444 -2.34623 0
M  V30 8615 H 787.965 3.18403 -2.03539 0
M  V30 8616 H 788.278 6.15316 -4.67553 0
M  V30 8617 H 786.623 5.53791 -4.19929 0
M  V30 8618 H 789.814 3.898 -2.59179 0
M  V30 8619 H 789.987 5.25208 -3.79553 0
M  V30 8620 N 783.393 0.737304 1.3929 0
M  V30 8621 C 784.356 0.10731 2.28949 0
M  V30 8622 C 785.356 -0.664716 1.46418 0
M  V30 8623 O 786.546 -0.493392 1.67067 0
M  V30 8624 C 783.678 -0.857145 3.29948 0
M  V30 8625 H 784.871 0.89725 2.86163 0
M  V30 8626 H 782.424 0.503279 1.47976 0
M  V30 8627 H 783.159 -1.67336 2.77794 0
M  V30 8628 H 782.944 -0.306167 3.90903 0
M  V30 8629 H 784.434 -1.29444 3.97031 0
M  V30 8630 N 784.871 -1.49948 0.485112 0
M  V30 8631 C 785.818 -2.28819 -0.301729 0
M  V30 8632 C 786.788 -1.34496 -0.974683 0
M  V30 8633 O 787.973 -1.63444 -0.984418 0
M  V30 8634 C 785.113 -3.16758 -1.36961 0
M  V30 8635 C 784.226 -4.26125 -0.710027 0
M  V30 8636 C 783.361 -5.01302 -1.75699 0
M  V30 8637 C 782.4 -6.02525 -1.07841 0
M  V30 8638 N 781.537 -6.70927 -2.06886 0
M  V30 8639 H 786.377 -2.95604 0.377127 0
M  V30 8640 H 783.914 -1.45764 0.197826 0
M  V30 8641 H 785.872 -3.66106 -2.00056 0
M  V30 8642 H 784.502 -2.51991 -2.01744 0
M  V30 8643 H 783.554 -3.80385 0.0338278 0
M  V30 8644 H 784.866 -4.98493 -0.175079 0
M  V30 8645 H 784.02 -5.54438 -2.46339 0
M  V30 8646 H 782.759 -4.28672 -2.32577 0
M  V30 8647 H 781.764 -5.48635 -0.357706 0
M  V30 8648 H 782.989 -6.77134 -0.516345 0
M  V30 8649 H 780.935 -6.01079 -2.62755 0
M  V30 8650 H 780.852 -7.39216 -1.58414 0
M  V30 8651 H 782.12 -7.28675 -2.76863 0
M  V30 8652 N 786.349 -0.21828 -1.56081 0
M  V30 8653 C 787.281 0.725447 -2.17416 0
M  V30 8654 C 788.294 1.15995 -1.14233 0
M  V30 8655 O 789.483 1.09166 -1.41227 0
M  V30 8656 C 786.583 1.99401 -2.7403 0
M  V30 8657 C 785.756 1.7156 -4.02351 0
M  V30 8658 C 784.815 2.8309 -4.43561 0
M  V30 8659 O 783.841 2.51701 -5.10525 0
M  V30 8660 N 785.043 4.11972 -4.08973 0
M  V30 8661 H 787.808 0.200801 -2.99027 0
M  V30 8662 H 785.369 -0.0371514 -1.61857 0
M  V30 8663 H 787.361 2.73198 -2.98571 0
M  V30 8664 H 785.931 2.42923 -1.96742 0
M  V30 8665 H 785.151 0.814233 -3.85699 0
M  V30 8666 H 786.439 1.50385 -4.86068 0
M  V30 8667 H 785.837 4.40319 -3.55156 0
M  V30 8668 H 784.394 4.82323 -4.38415 0
M  V30 8669 N 787.827 1.57504 0.0551401 0
M  V30 8670 C 789.073 1.88334 0.752216 0
M  V30 8671 C 789.406 0.812742 1.76375 0
M  V30 8672 O 788.681 -0.175198 1.93709 0
M  V30 8673 C 788.964 3.29824 1.44528 0
M  V30 8674 C 788.817 4.47553 0.449026 0
M  V30 8675 C 790.136 3.69808 2.38601 0
M  V30 8676 H 787.255 0.684973 0.271995 0
M  V30 8677 H 789.897 1.89994 0.0151895 0
M  V30 8678 H 788.047 3.28539 2.07351 0
M  V30 8679 H 789.719 4.60967 -0.175277 0
M  V30 8680 H 787.962 4.33168 -0.234162 0
M  V30 8681 H 788.633 5.43376 0.971917 0
M  V30 8682 H 791.109 3.72293 1.85842 0
M  V30 8683 H 789.985 4.69665 2.84088 0
M  V30 8684 H 790.246 3.00641 3.24141 0
M  V30 8685 N 789.305 -0.326896 1.54172 0
M  V30 8686 C 790.215 -1.42525 1.86343 0
M  V30 8687 C 791.231 -1.56764 0.75505 0
M  V30 8688 O 792.407 -1.71924 1.04901 0
M  V30 8689 C 789.472 -2.77286 2.08119 0
M  V30 8690 C 788.533 -2.7225 3.31931 0
M  V30 8691 C 787.766 -4.00584 3.52659 0
M  V30 8692 O 787.989 -4.98686 2.76891 0
M  V30 8693 O 786.923 -4.04045 4.46129 0
M  V30 8694 H 790.749 -1.18249 2.79734 0
M  V30 8695 H 788.334 -0.520614 1.40036 0
M  V30 8696 H 790.216 -3.57065 2.23791 0
M  V30 8697 H 788.891 -3.01459 1.17917 0
M  V30 8698 H 787.798 -1.91033 3.21647 0
M  V30 8699 H 789.131 -2.53032 4.2218 0
M  V30 8700 N 790.784 -1.46188 -0.588786 0
M  V30 8701 C 791.694 -1.58865 -1.72624 0
M  V30 8702 C 792.71 -0.472348 -1.67466 0
M  V30 8703 O 793.886 -0.735638 -1.87484 0
M  V30 8704 C 790.951 -1.56989 -3.0912 0
M  V30 8705 C 790.012 -2.79804 -3.25589 0
M  V30 8706 C 789.245 -2.78009 -4.55573 0
M  V30 8707 O 789.468 -1.86406 -5.39082 0
M  V30 8708 O 788.402 -3.6947 -4.75159 0
M  V30 8709 H 792.228 -2.55047 -1.64878 0
M  V30 8710 H 789.813 -1.28912 -0.755115 0
M  V30 8711 H 791.695 -1.58618 -3.90408 0
M  V30 8712 H 790.37 -0.639648 -3.17317 0
M  V30 8713 H 789.277 -2.83732 -2.43818 0
M  V30 8714 H 790.61 -3.72017 -3.22279 0
M  V30 8715 N 792.262 0.832906 -1.33792 0
M  V30 8716 C 793.509 1.58853 -1.25586 0
M  V30 8717 C 793.837 1.93695 0.176807 0
M  V30 8718 O 793.092 1.59386 1.13554 0
M  V30 8719 C 793.391 2.9047 -2.08235 0
M  V30 8720 C 793.057 2.74965 -3.57358 0
M  V30 8721 C 791.719 2.70444 -3.98012 0
M  V30 8722 C 794.071 2.59347 -4.52093 0
M  V30 8723 C 791.399 2.48212 -5.31608 0
M  V30 8724 C 793.751 2.38649 -5.85858 0
M  V30 8725 C 792.415 2.32533 -6.25687 0
M  V30 8726 H 791.685 0.581285 -0.459553 0
M  V30 8727 H 794.332 0.964501 -1.65438 0
M  V30 8728 H 792.637 3.57111 -1.6118 0
M  V30 8729 H 794.334 3.48001 -1.99239 0
M  V30 8730 H 790.924 2.79319 -3.25083 0
M  V30 8731 H 795.108 2.6187 -4.2159 0
M  V30 8732 H 790.364 2.41929 -5.61498 0
M  V30 8733 H 794.538 2.25549 -6.58863 0
M  V30 8734 H 792.165 2.15067 -7.29143 0
M  V30 8735 N 793.74 1.17359 1.05189 0
M  V30 8736 C 794.67 0.91365 2.14883 0
M  V30 8737 C 795.651 -0.144365 1.69486 0
M  V30 8738 O 796.836 0.00587861 1.94199 0
M  V30 8739 C 793.966 0.426196 3.44675 0
M  V30 8740 C 792.92 1.4234 4.03638 0
M  V30 8741 C 792.246 0.793902 5.28773 0
M  V30 8742 C 793.546 2.7966 4.41121 0
M  V30 8743 H 795.24 1.831 2.36885 0
M  V30 8744 H 792.786 0.881781 1.13845 0
M  V30 8745 H 794.739 0.231767 4.20762 0
M  V30 8746 H 793.463 -0.526693 3.22325 0
M  V30 8747 H 792.122 1.60457 3.2962 0
M  V30 8748 H 791.77 -0.165824 5.02727 0
M  V30 8749 H 791.47 1.45959 5.69183 0
M  V30 8750 H 792.994 0.609747 6.07548 0
M  V30 8751 H 794.408 2.6526 5.08242 0
M  V30 8752 H 792.805 3.42807 4.92548 0
M  V30 8753 H 793.875 3.34068 3.51464 0
M  V30 8754 N 795.218 -1.23913 0.973828 0
M  V30 8755 C 796.15 -2.24397 0.466763 0
M  V30 8756 C 797.163 -1.57078 -0.427828 0
M  V30 8757 O 798.352 -1.76973 -0.233019 0
M  V30 8758 C 795.452 -3.37141 -0.344798 0
M  V30 8759 C 794.625 -4.34037 0.541349 0
M  V30 8760 C 793.684 -5.2576 -0.215243 0
M  V30 8761 O 792.71 -5.67842 0.39291 0
M  V30 8762 N 793.912 -5.60702 -1.5031 0
M  V30 8763 H 796.677 -2.68536 1.33074 0
M  V30 8764 H 794.238 -1.38017 0.846346 0
M  V30 8765 H 796.23 -3.95476 -0.859133 0
M  V30 8766 H 794.8 -2.92239 -1.10974 0
M  V30 8767 H 794.02 -3.74302 1.23659 0
M  V30 8768 H 795.308 -4.95738 1.1455 0
M  V30 8769 H 794.706 -5.28451 -2.01882 0
M  V30 8770 H 793.263 -6.21538 -1.96301 0
M  V30 8771 N 796.696 -0.74468 -1.38897 0
M  V30 8772 C 798.112 -0.421302 -1.53939 0
M  V30 8773 C 798.312 1.06668 -1.70951 0
M  V30 8774 O 797.368 1.85278 -1.71547 0
M  V30 8775 C 798.681 -1.21278 -2.75159 0
M  V30 8776 C 800.229 -1.20196 -2.89001 0
M  V30 8777 C 800.704 -1.97621 -4.13171 0
M  V30 8778 N 802.195 -1.94836 -4.2023 0
M  V30 8779 C 802.93 -2.51545 -5.15279 0
M  V30 8780 N 802.426 -3.1693 -6.16058 0
M  V30 8781 N 804.219 -2.41524 -5.07565 0
M  V30 8782 H 796.37 -1.70914 -1.26103 0
M  V30 8783 H 798.633 -0.724058 -0.611919 0
M  V30 8784 H 798.339 -2.26609 -2.68963 0
M  V30 8785 H 798.213 -0.823677 -3.68097 0
M  V30 8786 H 800.6 -0.156742 -2.94683 0
M  V30 8787 H 800.681 -1.63051 -1.97099 0
M  V30 8788 H 800.325 -3.02149 -4.0825 0
M  V30 8789 H 800.255 -1.52166 -5.04136 0
M  V30 8790 H 802.746 -1.4721 -3.48048 0
M  V30 8791 H 803.059 -3.57644 -6.85062 0
M  V30 8792 H 801.404 -3.21023 -6.16417 0
M  V30 8793 H 804.595 -1.90077 -4.27771 0
M  V30 8794 H 804.768 -2.86016 -5.81462 0
M  V30 8795 N 798.174 1.49689 -0.493057 0
M  V30 8796 C 799.121 2.28976 0.28959 0
M  V30 8797 C 800.091 1.35011 0.967536 0
M  V30 8798 O 801.276 1.63964 0.975736 0
M  V30 8799 C 798.416 3.1748 1.35279 0
M  V30 8800 C 797.529 4.26496 0.687418 0
M  V30 8801 C 796.664 5.02226 1.73038 0
M  V30 8802 C 795.703 6.03089 1.04645 0
M  V30 8803 N 794.84 6.72014 2.03325 0
M  V30 8804 H 799.68 2.954 -0.392798 0
M  V30 8805 H 797.217 1.45657 -0.205554 0
M  V30 8806 H 799.175 3.67162 1.98111 0
M  V30 8807 H 797.805 2.53057 2.00405 0
M  V30 8808 H 796.857 3.80362 -0.0540001 0
M  V30 8809 H 798.169 4.98578 0.14864 0
M  V30 8810 H 797.323 5.55737 2.43395 0
M  V30 8811 H 796.062 4.29899 2.303 0
M  V30 8812 H 795.067 5.48817 0.328606 0
M  V30 8813 H 796.292 6.77398 0.480428 0
M  V30 8814 H 794.238 6.02464 2.59564 0
M  V30 8815 H 794.155 7.40046 1.54492 0
M  V30 8816 H 795.423 7.30133 2.72995 0
M  V30 8817 N 799.652 0.226554 1.55963 0
M  V30 8818 C 801.068 -0.128733 1.5908 0
M  V30 8819 C 801.268 -1.58558 1.24345 0
M  V30 8820 O 800.324 -2.32661 0.981069 0
M  V30 8821 C 801.637 0.202076 3.0002 0
M  V30 8822 C 803.185 0.144718 3.12665 0
M  V30 8823 C 803.66 0.449272 4.55791 0
M  V30 8824 N 805.151 0.399026 4.61478 0
M  V30 8825 C 805.886 0.608106 5.70166 0
M  V30 8826 N 805.382 0.879227 6.87198 0
M  V30 8827 N 807.175 0.5402 5.59498 0
M  V30 8828 H 799.326 1.17686 1.76816 0
M  V30 8829 H 801.589 0.472072 0.822102 0
M  V30 8830 H 801.295 1.21341 3.30105 0
M  V30 8831 H 801.169 -0.480554 3.74126 0
M  V30 8832 H 803.556 -0.857261 2.82374 0
M  V30 8833 H 803.637 0.860899 2.40878 0
M  V30 8834 H 803.281 1.44871 4.86801 0
M  V30 8835 H 803.211 -0.288157 5.25811 0
M  V30 8836 H 805.702 0.197372 3.77384 0
M  V30 8837 H 806.015 1.02673 7.65949 0
M  V30 8838 H 804.36 0.916477 6.88931 0
M  V30 8839 H 807.551 0.328581 4.66945 0
M  V30 8840 H 807.724 0.706548 6.44137 0
M  V30 8841 N 801.13 -1.57531 -0.0467866 0
M  V30 8842 C 802.04 -2.08768 -1.07018 0
M  V30 8843 C 803.056 -1.02245 -1.40791 0
M  V30 8844 O 804.232 -1.33873 -1.50466 0
M  V30 8845 C 801.297 -2.54221 -2.35738 0
M  V30 8846 C 800.358 -3.75152 -2.08709 0
M  V30 8847 C 799.591 -4.18428 -3.31291 0
M  V30 8848 O 799.814 -3.61365 -4.4133 0
M  V30 8849 O 798.748 -5.11018 -3.18032 0
M  V30 8850 H 802.574 -2.96334 -0.664812 0
M  V30 8851 H 800.159 -1.47074 -0.262605 0
M  V30 8852 H 802.041 -2.83866 -3.11445 0
M  V30 8853 H 800.716 -1.69774 -2.75605 0
M  V30 8854 H 799.623 -3.50553 -1.30627 0
M  V30 8855 H 800.956 -4.60528 -1.73708 0
M  V30 8856 N 802.608 0.318715 -1.54344 0
M  V30 8857 C 803.571 1.37545 -1.83342 0
M  V30 8858 C 804.571 1.445 -0.705444 0
M  V30 8859 O 805.761 1.44443 -0.973752 0
M  V30 8860 C 802.893 2.76225 -1.99781 0
M  V30 8861 H 804.086 1.13084 -2.77762 0
M  V30 8862 H 801.639 0.554457 -1.46135 0
M  V30 8863 H 802.374 3.05934 -1.07588 0
M  V30 8864 H 802.159 2.7257 -2.81865 0
M  V30 8865 H 803.649 3.52664 -2.23647 0
M  V30 8866 N 804.086 1.46499 0.581025 0
M  V30 8867 C 805.019 1.51706 1.70472 0
M  V30 8868 C 805.997 0.371036 1.5831 0
M  V30 8869 O 807.181 0.575426 1.79502 0
M  V30 8870 C 804.308 1.3972 3.08538 0
M  V30 8871 C 803.354 2.58525 3.39215 0
M  V30 8872 S 804.187 4.20872 3.311 0
M  V30 8873 C 805.343 4.11398 4.71702 0
M  V30 8874 H 805.576 2.46777 1.65796 0
M  V30 8875 H 803.109 1.34405 0.759908 0
M  V30 8876 H 805.067 1.33492 3.88188 0
M  V30 8877 H 803.728 0.460742 3.10702 0
M  V30 8878 H 802.921 2.46137 4.3981 0
M  V30 8879 H 802.523 2.61752 2.67136 0
M  V30 8880 H 804.815 3.78182 5.62125 0
M  V30 8881 H 805.758 5.11997 4.89147 0
M  V30 8882 H 806.166 3.42624 4.48631 0
M  V30 8883 N 805.565 -0.825799 1.34232 0
M  V30 8884 C 806.497 -1.94401 1.21413 0
M  V30 8885 C 807.51 -1.6218 0.141902 0
M  V30 8886 O 808.699 -1.74109 0.3935 0
M  V30 8887 C 805.799 -3.28257 0.842635 0
M  V30 8888 C 804.972 -3.88521 2.00924 0
M  V30 8889 C 804.031 -5.00752 1.61661 0
M  V30 8890 O 803.057 -5.19201 2.33279 0
M  V30 8891 N 804.259 -5.78084 0.52911 0
M  V30 8892 H 807.024 -2.05931 2.17744 0
M  V30 8893 H 804.585 -1.00223 1.27149 0
M  V30 8894 H 806.577 -4.00781 0.561822 0
M  V30 8895 H 805.147 -3.12585 -0.0304029 0
M  V30 8896 H 804.367 -3.08425 2.45495 0
M  V30 8897 H 805.655 -4.25516 2.78951 0
M  V30 8898 H 805.053 -5.65661 -0.0663322 0
M  V30 8899 H 803.61 -6.51072 0.308017 0
M  V30 8900 N 807.043 -1.17915 -1.04565 0
M  V30 8901 C 807.991 -0.897919 -2.1457 0
M  V30 8902 C 808.985 0.139883 -1.68821 0
M  V30 8903 O 810.191 -0.00779463 -1.79998 0
M  V30 8904 H 806.566 -0.272867 -0.700748 0
M  V30 8905 H 808.537 -1.83268 -2.3549 0
M  V30 8906 C 807.286 -0.434634 -3.44973 0
M  V30 8907 H 806.609 -1.22469 -3.8058 0
M  V30 8908 H 808.049 -0.276804 -4.23095 0
M  V30 8909 C 806.508 0.848738 -3.26034 0
M  V30 8910 O 807.038 1.9141 -3.53164 0
M  V30 8911 N 805.244 0.799373 -2.79389 0
M  V30 8912 H 804.791 -0.0678192 -2.57511 0
M  V30 8913 H 804.749 1.6585 -2.67098 0
M  V30 8914 N 808.521 1.23394 -0.980386 0
M  V30 8915 C 809.468 2.24859 -0.520298 0
M  V30 8916 C 810.438 1.60144 0.440821 0
M  V30 8917 O 811.623 1.87593 0.348369 0
M  V30 8918 C 808.763 3.44675 0.171145 0
M  V30 8919 C 807.876 4.23947 -0.830233 0
M  V30 8920 C 807.011 5.31079 -0.113597 0
M  V30 8921 C 806.05 6.02058 -1.10419 0
M  V30 8922 N 805.187 7.00862 -0.416709 0
M  V30 8923 H 810.027 2.63579 -1.39032 0
M  V30 8924 H 807.564 1.29556 -0.696682 0
M  V30 8925 H 809.522 4.13024 0.588838 0
M  V30 8926 H 808.152 3.06755 1.00504 0
M  V30 8927 H 807.204 3.55016 -1.36631 0
M  V30 8928 H 808.516 4.72945 -1.58508 0
M  V30 8929 H 807.67 6.05622 0.36146 0
M  V30 8930 H 806.409 4.83022 0.673854 0
M  V30 8931 H 805.414 5.26307 -1.59 0
M  V30 8932 H 806.639 6.52203 -1.8923 0
M  V30 8933 H 804.585 6.55057 0.351535 0
M  V30 8934 H 804.502 7.47804 -1.11021 0
M  V30 8935 H 805.77 7.79492 0.0359606 0
M  V30 8936 N 809.999 0.752036 1.385 0
M  V30 8937 C 810.962 0.131587 2.28822 0
M  V30 8938 C 811.962 -0.649149 1.47115 0
M  V30 8939 O 813.152 -0.475645 1.67581 0
M  V30 8940 C 810.284 -0.822101 3.30839 0
M  V30 8941 H 811.477 0.927551 2.85196 0
M  V30 8942 H 809.03 0.518945 1.47434 0
M  V30 8943 H 809.765 -1.6438 2.79553 0
M  V30 8944 H 809.55 -0.264689 3.91206 0
M  V30 8945 H 811.04 -1.25226 3.98382 0
M  V30 8946 N 811.477 -1.49425 0.500989 0
M  V30 8947 C 812.893 -1.58826 0.156951 0
M  V30 8948 C 813.093 -1.50622 -1.33848 0
M  V30 8949 O 812.149 -1.38016 -2.11442 0
M  V30 8950 C 813.462 -2.91611 0.73374 0
M  V30 8951 C 815.01 -3.05076 0.699846 0
M  V30 8952 C 815.485 -4.40479 1.2547 0
M  V30 8953 N 816.976 -4.4697 1.2154 0
M  V30 8954 C 817.711 -5.50189 1.6149 0
M  V30 8955 N 817.207 -6.60512 2.09034 0
M  V30 8956 N 819 -5.40903 1.52907 0
M  V30 8957 H 811.151 -1.53001 1.47324 0
M  V30 8958 H 813.414 -0.724765 0.61108 0
M  V30 8959 H 813.12 -3.03182 1.78251 0
M  V30 8960 H 812.994 -3.767 0.19417 0
M  V30 8961 H 815.381 -2.93134 -0.340085 0
M  V30 8962 H 815.462 -2.2167 1.27656 0
M  V30 8963 H 815.106 -4.53172 2.29341 0
M  V30 8964 H 815.036 -5.22524 0.653921 0
M  V30 8965 H 817.527 -3.67819 0.867043 0
M  V30 8966 H 817.84 -7.35372 2.37588 0
M  V30 8967 H 816.185 -6.61553 2.13008 0
M  V30 8968 H 819.376 -4.53606 1.15583 0
M  V30 8969 H 819.549 -6.21219 1.84365 0
M  V30 8970 N 812.955 -0.234822 -1.55841 0
M  V30 8971 C 813.918 0.656378 -2.196 0
M  V30 8972 C 814.918 1.11179 -1.16171 0
M  V30 8973 O 816.108 1.01845 -1.41326 0
M  V30 8974 C 813.24 1.90072 -2.82993 0
M  V30 8975 H 814.433 0.100281 -2.99732 0
M  V30 8976 H 811.986 0.0147613 -1.56293 0
M  V30 8977 H 812.721 2.49836 -2.06767 0
M  V30 8978 H 812.506 1.5825 -3.58747 0
M  V30 8979 H 813.996 2.53538 -3.31826 0
M  V30 8980 N 814.433 1.57553 0.0384317 0
M  V30 8981 C 815.343 2.09333 1.0591 0
M  V30 8982 C 816.359 1.0299 1.40247 0
M  V30 8983 O 817.535 1.34669 1.49754 0
M  V30 8984 C 814.6 2.55468 2.34386 0
M  V30 8985 C 813.661 3.76254 2.06716 0
M  V30 8986 C 812.894 4.20179 3.29067 0
M  V30 8987 O 813.117 3.637 4.39407 0
M  V30 8988 O 812.051 5.12697 3.15317 0
M  V30 8989 H 815.877 2.96683 0.649087 0
M  V30 8990 H 813.462 1.47211 0.254802 0
M  V30 8991 H 815.344 2.85514 3.09935 0
M  V30 8992 H 814.019 1.71234 2.74701 0
M  V30 8993 H 812.926 3.51241 1.28766 0
M  V30 8994 H 814.259 4.61443 1.71263 0
M  V30 8995 N 815.911 -0.310526 1.54511 0
M  V30 8996 C 817.159 -1.04484 1.72996 0
M  V30 8997 C 817.48 -1.88118 0.513479 0
M  V30 8998 O 816.75 -1.90119 -0.472384 0
M  V30 8999 H 815.33 -0.388747 0.637875 0
M  V30 9000 H 817.992 -0.343811 1.91844 0
M  V30 9001 H 817.088 -1.70341 2.61515 0
M  V30 9002 N 817.389 -1.46805 -0.573248 0
M  V30 9003 C 818.339 -1.54497 -1.67674 0
M  V30 9004 C 819.323 -0.405117 -1.55716 0
M  V30 9005 O 820.515 -0.654097 -1.64471 0
M  V30 9006 C 817.644 -1.54717 -3.0646 0
M  V30 9007 C 816.73 -2.7403 -3.2368 0
M  V30 9008 N 817.121 -3.98871 -3.11023 0
M  V30 9009 C 815.419 -2.70453 -3.54642 0
M  V30 9010 C 816.12 -4.78689 -3.30502 0
M  V30 9011 N 815.096 -4.10727 -3.56096 0
M  V30 9012 H 818.898 -2.48809 -1.56433 0
M  V30 9013 H 816.412 -1.42576 -0.777554 0
M  V30 9014 H 818.409 -1.58316 -3.8567 0
M  V30 9015 H 817.069 -0.614886 -3.18825 0
M  V30 9016 H 818.08 -4.29976 -2.88688 0
M  V30 9017 H 814.757 -1.86291 -3.73633 0
M  V30 9018 H 816.147 -5.87615 -3.2582 0
M  V30 9019 N 818.867 0.818669 -1.34668 0
M  V30 9020 C 819.8 1.93516 -1.20941 0
M  V30 9021 C 820.778 1.62292 -0.100061 0
M  V30 9022 O 821.962 1.86614 -0.265983 0
M  V30 9023 C 819.089 3.27612 -0.859524 0
M  V30 9024 C 818.135 3.77794 -1.97923 0
M  V30 9025 S 818.968 3.97043 -3.59329 0
M  V30 9026 C 820.124 5.3406 -3.2639 0
M  V30 9027 H 820.357 2.04864 -2.15449 0
M  V30 9028 H 817.89 0.974716 -1.19744 0
M  V30 9029 H 819.848 4.05087 -0.664444 0
M  V30 9030 H 818.509 3.14028 0.0672835 0
M  V30 9031 H 817.702 4.74883 -1.68827 0
M  V30 9032 H 817.304 3.0728 -2.13202 0
M  V30 9033 H 819.596 6.17626 -2.78469 0
M  V30 9034 H 820.539 5.68143 -4.22634 0
M  V30 9035 H 820.947 4.99773 -2.62464 0
M  V30 9036 N 820.346 1.18468 1.03938 0
M  V30 9037 C 821.592 0.982286 1.77423 0
M  V30 9038 C 821.925 -0.48679 1.88 0
M  V30 9039 O 821.2 -1.36146 1.38905 0
M  V30 9040 C 821.483 1.63929 3.20623 0
M  V30 9041 C 821.336 3.18132 3.17982 0
M  V30 9042 C 822.655 1.3536 4.18767 0
M  V30 9043 H 819.774 0.358264 0.644062 0
M  V30 9044 H 822.416 1.46154 1.21405 0
M  V30 9045 H 820.566 1.2318 3.68455 0
M  V30 9046 H 822.238 3.68024 2.78129 0
M  V30 9047 H 820.481 3.50225 2.55978 0
M  V30 9048 H 821.152 3.5924 4.19107 0
M  V30 9049 H 823.628 1.70669 3.79488 0
M  V30 9050 H 822.504 1.83896 5.17178 0
M  V30 9051 H 822.765 0.276722 4.41233 0
M  V30 9052 N 821.824 -1.22873 0.986916 0
M  V30 9053 C 823.054 -1.95204 0.67668 0
M  V30 9054 C 823.462 -1.73193 -0.761641 0
M  V30 9055 O 822.805 -1.0243 -1.52492 0
M  V30 9056 C 822.867 -3.48173 0.895302 0
M  V30 9057 C 822.531 -3.93912 2.31695 0
M  V30 9058 C 823.528 -4.02064 3.29607 0
M  V30 9059 C 821.213 -4.26722 2.64978 0
M  V30 9060 C 823.207 -4.42391 4.58878 0
M  V30 9061 C 820.894 -4.66729 3.94471 0
M  V30 9062 C 821.892 -4.74531 4.91232 0
M  V30 9063 O 821.58 -5.13636 6.18412 0
M  V30 9064 H 821.312 -0.628105 0.24992 0
M  V30 9065 H 823.866 -1.5714 1.32274 0
M  V30 9066 H 822.096 -3.86223 0.192072 0
M  V30 9067 H 823.785 -4.01717 0.581233 0
M  V30 9068 H 824.551 -3.76912 3.05225 0
M  V30 9069 H 820.43 -4.19858 1.9037 0
M  V30 9070 H 823.974 -4.48395 5.34404 0
M  V30 9071 H 819.871 -4.91332 4.18645 0
M  V30 9072 H 820.639 -5.31728 6.2226 0
M  V30 9073 N 823.302 -0.75937 -1.38099 0
M  V30 9074 C 824.232 -0.151077 -2.33011 0
M  V30 9075 C 825.213 0.697099 -1.5516 0
M  V30 9076 O 826.398 0.637101 -1.83452 0
M  V30 9077 C 823.528 0.738423 -3.39359 0
M  V30 9078 C 822.482 -0.0074741 -4.27999 0
M  V30 9079 C 821.808 1.00066 -5.25253 0
M  V30 9080 C 823.108 -1.17926 -5.08813 0
M  V30 9081 H 824.802 -0.943933 -2.84131 0
M  V30 9082 H 822.348 -0.455362 -1.36611 0
M  V30 9083 H 824.301 1.17369 -4.04725 0
M  V30 9084 H 823.025 1.56366 -2.86735 0
M  V30 9085 H 821.684 -0.423379 -3.64147 0
M  V30 9086 H 821.332 1.82012 -4.68914 0
M  V30 9087 H 821.032 0.506199 -5.85416 0
M  V30 9088 H 822.556 1.43512 -5.93495 0
M  V30 9089 H 823.97 -0.821262 -5.67387 0
M  V30 9090 H 822.367 -1.60497 -5.78239 0
M  V30 9091 H 823.437 -1.98938 -4.42212 0
M  V30 9092 N 824.78 1.49157 -0.508906 0
M  V30 9093 C 825.743 2.27784 0.25434 0
M  V30 9094 C 826.743 1.34132 0.88686 0
M  V30 9095 O 827.933 1.5722 0.750168 0
M  V30 9096 C 825.065 3.12347 1.36573 0
M  V30 9097 H 826.258 2.96718 -0.435714 0
M  V30 9098 H 823.811 1.54052 -0.264128 0
M  V30 9099 H 824.546 2.47997 2.08969 0
M  V30 9100 H 824.331 3.81213 0.917543 0
M  V30 9101 H 825.821 3.71712 1.90315 0
M  V30 9102 N 826.258 0.243083 1.55714 0
M  V30 9103 C 827.674 -0.111853 1.59208 0
M  V30 9104 C 827.874 -1.5723 1.2602 0
M  V30 9105 O 826.93 -2.31608 1.00569 0
M  V30 9106 C 828.243 0.233885 2.99789 0
M  V30 9107 C 829.791 0.177873 3.12494 0
M  V30 9108 C 830.266 0.49759 4.55289 0
M  V30 9109 N 831.757 0.447949 4.61029 0
M  V30 9110 C 832.492 0.668545 5.69489 0
M  V30 9111 N 831.988 0.952064 6.86227 0
M  V30 9112 N 833.781 0.599512 5.58894 0
M  V30 9113 H 825.932 1.19554 1.75558 0
M  V30 9114 H 828.195 0.480765 0.817049 0
M  V30 9115 H 827.901 1.24835 3.28799 0
M  V30 9116 H 827.775 -0.440846 3.74615 0
M  V30 9117 H 830.162 -0.827263 2.83267 0
M  V30 9118 H 830.243 0.886399 2.39951 0
M  V30 9119 H 829.887 1.50026 4.85237 0
M  V30 9120 H 829.817 -0.232371 5.26087 0
M  V30 9121 H 832.308 0.237388 3.77154 0
M  V30 9122 H 832.621 1.10791 7.64817 0
M  V30 9123 H 830.966 0.989496 6.8792 0
M  V30 9124 H 834.157 0.378088 4.66571 0
M  V30 9125 H 834.33 0.774828 6.43351 0
M  V30 9126 N 827.736 -1.57571 -0.0300757 0
M  V30 9127 C 828.666 -2.0953 -1.03051 0
M  V30 9128 C 829.647 -0.99761 -1.37774 0
M  V30 9129 O 830.832 -1.27279 -1.46676 0
M  V30 9130 C 827.962 -2.57385 -2.33174 0
M  V30 9131 C 826.916 -3.71409 -2.12696 0
M  V30 9132 C 826.242 -4.05467 -3.4857 0
M  V30 9133 C 827.542 -4.99877 -1.51396 0
M  V30 9134 H 829.236 -2.93367 -0.597999 0
M  V30 9135 H 826.782 -1.41127 -0.286203 0
M  V30 9136 H 828.735 -2.92355 -3.03491 0
M  V30 9137 H 827.459 -1.70629 -2.78484 0
M  V30 9138 H 826.118 -3.36786 -1.44813 0
M  V30 9139 H 825.766 -3.15779 -3.91526 0
M  V30 9140 H 825.466 -4.82269 -3.35694 0
M  V30 9141 H 826.99 -4.4297 -4.2025 0
M  V30 9142 H 828.404 -5.3281 -2.11629 0
M  V30 9143 H 826.801 -5.81283 -1.49098 0
M  V30 9144 H 827.871 -4.82522 -0.479676 0
M  V30 9145 N 829.214 0.302327 -1.54673 0
M  V30 9146 C 830.63 0.647911 -1.45857 0
M  V30 9147 C 830.83 1.90773 -0.64869 0
M  V30 9148 O 829.886 2.52018 -0.155865 0
M  V30 9149 C 831.199 0.802144 -2.89804 0
M  V30 9150 C 832.747 0.898114 -2.99838 0
M  V30 9151 C 833.222 1.08436 -4.44978 0
M  V30 9152 N 834.713 1.15059 -4.48682 0
M  V30 9153 C 835.448 1.31296 -5.58166 0
M  V30 9154 N 834.944 1.4444 -6.77576 0
M  V30 9155 N 836.737 1.34174 -5.45851 0
M  V30 9156 H 828.888 -0.525428 -2.05798 0
M  V30 9157 H 831.151 -0.173423 -0.932002 0
M  V30 9158 H 830.857 -0.0526531 -3.51661 0
M  V30 9159 H 830.731 1.69155 -3.37145 0
M  V30 9160 H 833.118 1.7434 -2.38096 0
M  V30 9161 H 833.199 -0.0152752 -2.55795 0
M  V30 9162 H 832.843 0.243843 -5.07314 0
M  V30 9163 H 832.773 2.01195 -4.8665 0
M  V30 9164 H 835.264 1.0626 -3.62653 0
M  V30 9165 H 835.577 1.56582 -7.56771 0
M  V30 9166 H 833.922 1.41499 -6.80443 0
M  V30 9167 H 837.113 1.23516 -4.5151 0
M  V30 9168 H 837.286 1.46485 -6.31226 0
M  V30 9169 N 830.692 1.47107 0.565454 0
M  V30 9170 C 831.624 1.55024 1.6882 0
M  V30 9171 C 832.637 0.4371 1.56822 0
M  V30 9172 O 833.826 0.706315 1.63931 0
M  V30 9173 C 830.926 1.43069 3.0722 0
M  V30 9174 C 830.099 2.68807 3.45053 0
M  V30 9175 C 829.158 2.50806 4.62583 0
M  V30 9176 O 828.184 3.24593 4.67577 0
M  V30 9177 N 829.386 1.58093 5.58558 0
M  V30 9178 H 832.151 2.51836 1.62477 0
M  V30 9179 H 829.712 1.43382 0.751885 0
M  V30 9180 H 831.704 1.28773 3.83666 0
M  V30 9181 H 830.274 0.543721 3.07835 0
M  V30 9182 H 829.494 2.97923 2.58138 0
M  V30 9183 H 830.782 3.52298 3.67101 0
M  V30 9184 H 830.18 0.972807 5.57273 0
M  V30 9185 H 828.737 1.49753 6.34364 0
M  V30 9186 N 832.17 -0.811516 1.35101 0
M  V30 9187 C 833.419 -1.56343 1.27435 0
M  V30 9188 C 833.732 -1.95019 -0.150696 0
M  V30 9189 O 834.938 -2.6924 -0.349586 0
M  V30 9190 C 833.394 -2.82124 2.23459 0
M  V30 9191 C 833.002 -2.50706 3.71283 0
M  V30 9192 C 834.746 -3.60137 2.24726 0
M  V30 9193 C 832.653 -3.72748 4.59143 0
M  V30 9194 H 831.583 -0.58682 0.473453 0
M  V30 9195 H 834.234 -0.892465 1.60335 0
M  V30 9196 H 832.616 -3.50905 1.83525 0
M  V30 9197 H 833.79 -1.89962 4.19823 0
M  V30 9198 H 832.105 -1.85947 3.72576 0
M  V30 9199 H 834.702 -4.50775 2.87587 0
M  V30 9200 H 835.045 -3.97101 1.24965 0
M  V30 9201 H 835.578 -2.98311 2.63164 0
M  V30 9202 H 832.317 -3.40896 5.59884 0
M  V30 9203 H 831.837 -4.32735 4.15332 0
M  V30 9204 H 833.516 -4.40033 4.74321 0
M  V30 9205 N 833.648 -1.19017 -1.03309 0
M  V30 9206 C 835.064 -0.941483 -1.28873 0
M  V30 9207 C 835.264 0.388587 -1.97718 0
M  V30 9208 O 834.32 1.12111 -2.26246 0
M  V30 9209 C 835.633 -2.11249 -2.13996 0
M  V30 9210 C 837.181 -2.15164 -2.27318 0
M  V30 9211 C 837.656 -3.31704 -3.15811 0
M  V30 9212 N 839.147 -3.31613 -3.23399 0
M  V30 9213 C 839.882 -4.18431 -3.9205 0
M  V30 9214 N 839.378 -5.15397 -4.62966 0
M  V30 9215 N 841.171 -4.06321 -3.88406 0
M  V30 9216 H 833.322 -2.04599 -0.570343 0
M  V30 9217 H 835.585 -0.894406 -0.314232 0
M  V30 9218 H 835.291 -3.07482 -1.70727 0
M  V30 9219 H 835.165 -2.07955 -3.14697 0
M  V30 9220 H 837.552 -1.19504 -2.6982 0
M  V30 9221 H 837.633 -2.22513 -1.26182 0
M  V30 9222 H 837.277 -4.2764 -2.74019 0
M  V30 9223 H 837.207 -3.21592 -4.16997 0
M  V30 9224 H 839.698 -2.6142 -2.72888 0
M  V30 9225 H 840.011 -5.78 -5.12968 0
M  V30 9226 H 838.356 -5.19349 -4.61846 0
M  V30 9227 H 841.547 -3.29849 -3.3214 0
M  V30 9228 H 841.72 -4.74196 -4.41635 0
M  V30 9229 N 835.127 1.22348 -0.993418 0
M  V30 9230 C 836.057 2.26584 -0.564088 0
M  V30 9231 C 837.038 1.65102 0.409298 0
M  V30 9232 O 838.223 1.91872 0.299819 0
M  V30 9233 C 835.353 3.47087 0.121554 0
M  V30 9234 C 834.307 4.21009 -0.770429 0
M  V30 9235 C 833.633 5.34678 0.0481586 0
M  V30 9236 C 834.933 4.79636 -2.06752 0
M  V30 9237 H 836.627 2.62749 -1.43538 0
M  V30 9238 H 834.173 1.26303 -0.691628 0
M  V30 9239 H 836.126 4.19166 0.433303 0
M  V30 9240 H 834.85 3.1002 1.0274 0
M  V30 9241 H 833.509 3.50764 -1.06583 0
M  V30 9242 H 833.157 4.93852 0.954933 0
M  V30 9243 H 832.857 5.85061 -0.545641 0
M  V30 9244 H 834.381 6.09573 0.353991 0
M  V30 9245 H 835.795 5.43654 -1.81969 0
M  V30 9246 H 834.192 5.4036 -2.61019 0
M  V30 9247 H 835.262 3.99659 -2.74592 0
M  V30 9248 N 836.605 0.766683 1.37694 0
M  V30 9249 C 837.537 0.107798 2.28946 0
M  V30 9250 C 838.55 -0.669701 1.48387 0
M  V30 9251 O 839.739 -0.508629 1.711 0
M  V30 9252 C 836.839 -0.871084 3.27514 0
M  V30 9253 C 836.012 -0.148471 4.37148 0
M  V30 9254 C 835.071 -1.03998 5.1582 0
M  V30 9255 O 834.097 -0.505639 5.6695 0
M  V30 9256 N 835.299 -2.36679 5.3006 0
M  V30 9257 H 838.064 0.89154 2.86132 0
M  V30 9258 H 835.625 0.618593 1.49616 0
M  V30 9259 H 837.617 -1.47081 3.77027 0
M  V30 9260 H 836.187 -1.55582 2.71133 0
M  V30 9261 H 835.407 0.632117 3.89099 0
M  V30 9262 H 836.695 0.351045 5.07588 0
M  V30 9263 H 836.093 -2.82532 4.90094 0
M  V30 9264 H 834.65 -2.9167 5.82899 0
M  V30 9265 N 838.083 -1.48885 0.516809 0
M  V30 9266 C 839.031 -2.31066 -0.266656 0
M  V30 9267 C 840.025 -1.40393 -0.94795 0
M  V30 9268 O 841.231 -1.57366 -0.873836 0
M  V30 9269 H 837.606 -0.744654 -0.104858 0
M  V30 9270 H 839.577 -2.95045 0.446236 0
M  V30 9271 C 838.326 -3.22131 -1.3087 0
M  V30 9272 H 837.649 -3.91839 -0.793865 0
M  V30 9273 H 839.089 -3.82544 -1.82856 0
M  V30 9274 C 837.548 -2.42825 -2.33533 0
M  V30 9275 O 838.078 -2.14364 -3.39722 0
M  V30 9276 N 836.284 -2.04559 -2.06407 0
M  V30 9277 H 835.831 -2.27905 -1.20071 0
M  V30 9278 H 835.789 -1.51807 -2.75322 0
M  V30 9279 N 839.561 -0.251338 -1.55583 0
M  V30 9280 C 840.808 0.372169 -1.99051 0
M  V30 9281 C 841.136 1.57623 -1.13953 0
M  V30 9282 O 840.391 1.94762 -0.191398 0
M  V30 9283 C 840.69 0.821186 -3.47838 0
M  V30 9284 C 840.356 -0.275608 -4.50057 0
M  V30 9285 C 839.018 -0.57683 -4.7773 0
M  V30 9286 C 841.37 -1.01585 -5.11204 0
M  V30 9287 C 838.698 -1.62229 -5.63825 0
M  V30 9288 C 841.05 -2.05087 -5.98433 0
M  V30 9289 C 839.714 -2.35869 -6.24437 0
M  V30 9290 H 838.984 0.136186 -0.728378 0
M  V30 9291 H 841.631 -0.360089 -1.88084 0
M  V30 9292 H 839.936 1.63272 -3.56159 0
M  V30 9293 H 841.633 1.31396 -3.78861 0
M  V30 9294 H 838.223 -0.030697 -4.28589 0
M  V30 9295 H 842.407 -0.79639 -4.89869 0
M  V30 9296 H 837.663 -1.86607 -5.82226 0
M  V30 9297 H 841.837 -2.62934 -6.44855 0
M  V30 9298 H 839.464 -3.17017 -6.90944 0
M  V30 9299 N 841.039 1.57585 0.0217189 0
M  V30 9300 C 841.987 2.08134 1.03842 0
M  V30 9301 C 842.981 0.996662 1.36978 0
M  V30 9302 O 844.187 1.18149 1.35797 0
M  V30 9303 H 840.562 0.664298 0.352438 0
M  V30 9304 H 842.533 2.92583 0.58634 0
M  V30 9305 C 841.282 2.58218 2.32849 0
M  V30 9306 H 840.605 3.41302 2.08214 0
M  V30 9307 H 842.045 2.97289 3.02316 0
M  V30 9308 C 840.504 1.48664 3.02325 0
M  V30 9309 O 841.034 0.857075 3.9245 0
M  V30 9310 N 839.24 1.21938 2.63779 0
M  V30 9311 H 838.787 1.73319 1.90574 0
M  V30 9312 H 838.745 0.488523 3.10581 0
M  V30 9313 N 842.517 -0.29412 1.54831 0
M  V30 9314 C 843.427 -1.3854 1.89325 0
M  V30 9315 C 844.443 -1.55127 0.788133 0
M  V30 9316 O 845.619 -1.6966 1.08524 0
M  V30 9317 C 842.684 -2.72809 2.13954 0
M  V30 9318 C 841.745 -2.65148 3.37631 0
M  V30 9319 C 840.978 -3.93014 3.61076 0
M  V30 9320 O 841.201 -4.927 2.87406 0
M  V30 9321 O 840.135 -3.94491 4.54599 0
M  V30 9322 H 843.961 -1.12289 2.82179 0
M  V30 9323 H 841.546 -0.490793 1.41108 0
M  V30 9324 H 843.428 -3.52238 2.31315 0
M  V30 9325 H 842.103 -2.9889 1.24285 0
M  V30 9326 H 841.01 -1.84168 3.25627 0
M  V30 9327 H 842.343 -2.4402 4.27452 0
M  V30 9328 N 843.995 -1.47404 -0.557645 0
M  V30 9329 C 845.411 -1.32913 -0.88353 0
M  V30 9330 C 845.611 -0.31929 -1.98954 0
M  V30 9331 O 844.667 0.26934 -2.51059 0
M  V30 9332 C 845.98 -2.72229 -1.27718 0
M  V30 9333 C 847.528 -2.8051 -1.38863 0
M  V30 9334 C 848.003 -4.20466 -1.81583 0
M  V30 9335 N 849.494 -4.23005 -1.88735 0
M  V30 9336 C 850.229 -5.2821 -2.23118 0
M  V30 9337 N 849.725 -6.4372 -2.56117 0
M  V30 9338 N 851.518 -5.15588 -2.23888 0
M  V30 9339 H 843.669 -2.11698 0.172557 0
M  V30 9340 H 845.932 -0.947889 0.0145334 0
M  V30 9341 H 845.638 -3.47556 -0.538329 0
M  V30 9342 H 845.512 -3.03971 -2.23342 0
M  V30 9343 H 847.899 -2.05457 -2.11829 0
M  V30 9344 H 847.98 -2.52423 -0.414274 0
M  V30 9345 H 847.624 -4.96025 -1.09187 0
M  V30 9346 H 847.554 -4.45977 -2.80021 0
M  V30 9347 H 850.045 -3.39674 -1.65621 0
M  V30 9348 H 850.358 -7.19754 -2.81378 0
M  V30 9349 H 848.703 -6.47041 -2.53698 0
M  V30 9350 H 851.894 -4.24374 -1.97546 0
M  V30 9351 H 852.067 -5.97685 -2.50353 0
M  V30 9352 N 845.473 0.80434 -1.35529 0
M  V30 9353 C 846.405 1.92445 -1.2449 0
M  V30 9354 C 847.418 1.61934 -0.167685 0
M  V30 9355 O 848.607 1.73461 -0.42115 0
M  V30 9356 C 845.707 3.26875 -0.894751 0
M  V30 9357 C 844.88 3.85275 -2.07079 0
M  V30 9358 C 843.939 4.98116 -1.69607 0
M  V30 9359 O 842.965 5.15424 -2.41509 0
M  V30 9360 N 844.167 5.77169 -0.621012 0
M  V30 9361 H 846.932 2.02441 -2.20993 0
M  V30 9362 H 844.493 0.981874 -1.28728 0
M  V30 9363 H 846.485 3.99837 -0.625511 0
M  V30 9364 H 845.055 3.12594 -0.0193306 0
M  V30 9365 H 844.275 3.0448 -2.5037 0
M  V30 9366 H 845.563 4.21024 -2.85685 0
M  V30 9367 H 844.961 5.65695 -0.0236679 0
M  V30 9368 H 843.518 6.50499 -0.411558 0
M  V30 9369 N 846.951 1.19563 1.02676 0
M  V30 9370 C 847.883 0.893054 2.11086 0
M  V30 9371 C 848.896 -0.115101 1.62393 0
M  V30 9372 O 850.085 0.11459 1.78132 0
M  V30 9373 C 847.185 0.315533 3.37428 0
M  V30 9374 C 846.358 1.37276 4.153 0
M  V30 9375 C 845.417 0.808398 5.19953 0
M  V30 9376 O 844.443 1.48661 5.49444 0
M  V30 9377 N 845.645 -0.387253 5.79207 0
M  V30 9378 H 848.41 1.82622 2.37633 0
M  V30 9379 H 845.971 1.09792 1.18984 0
M  V30 9380 H 847.963 -0.0759166 4.04629 0
M  V30 9381 H 846.533 -0.521961 3.08211 0
M  V30 9382 H 845.753 1.93897 3.43217 0
M  V30 9383 H 847.041 2.08509 4.64114 0
M  V30 9384 H 846.439 -0.955725 5.57568 0
M  V30 9385 H 844.996 -0.720457 6.47806 0
M  V30 9386 N 848.429 -1.21819 0.999893 0
M  V30 9387 C 849.678 -1.90066 0.675108 0
M  V30 9388 C 849.991 -1.78624 -0.79705 0
M  V30 9389 O 851.197 -2.41851 -1.23371 0
M  V30 9390 C 849.653 -3.40795 1.15702 0
M  V30 9391 C 849.261 -3.60859 2.6549 0
M  V30 9392 C 851.005 -4.147 0.906889 0
M  V30 9393 C 848.912 -5.05324 3.07248 0
M  V30 9394 H 847.842 -0.711763 0.248815 0
M  V30 9395 H 850.493 -1.3792 1.21038 0
M  V30 9396 H 848.875 -3.92164 0.549832 0
M  V30 9397 H 850.049 -3.19951 3.31614 0
M  V30 9398 H 848.364 -3.00298 2.88461 0
M  V30 9399 H 850.961 -5.21187 1.1945 0
M  V30 9400 H 851.304 -4.16004 -0.156923 0
M  V30 9401 H 851.837 -3.69379 1.47662 0
M  V30 9402 H 848.576 -5.09164 4.12834 0
M  V30 9403 H 848.096 -5.47108 2.45832 0
M  V30 9404 H 849.775 -5.73797 2.98941 0
M  V30 9405 N 849.908 -0.773975 -1.37286 0
M  V30 9406 C 850.855 -0.159938 -2.30245 0
M  V30 9407 C 851.825 0.687356 -1.51211 0
M  V30 9408 O 853.01 0.639255 -1.79773 0
M  V30 9409 C 850.15 0.711452 -3.37687 0
M  V30 9410 C 849.263 -0.152692 -4.3173 0
M  V30 9411 C 848.398 0.723613 -5.26248 0
M  V30 9412 C 847.437 -0.14293 -6.11933 0
M  V30 9413 N 846.574 0.691479 -6.98687 0
M  V30 9414 H 851.414 -0.958182 -2.82175 0
M  V30 9415 H 848.951 -0.48411 -1.38906 0
M  V30 9416 H 850.909 1.2315 -3.9861 0
M  V30 9417 H 849.539 1.47528 -2.87116 0
M  V30 9418 H 848.591 -0.790574 -3.72094 0
M  V30 9419 H 849.903 -0.821027 -4.91997 0
M  V30 9420 H 849.057 1.31006 -5.92387 0
M  V30 9421 H 847.796 1.42562 -4.66398 0
M  V30 9422 H 846.801 -0.7419 -5.44771 0
M  V30 9423 H 848.026 -0.842305 -6.73856 0
M  V30 9424 H 845.972 1.37806 -6.41362 0
M  V30 9425 H 845.889 0.0804911 -7.55957 0
M  V30 9426 H 847.157 1.26225 -7.69212 0
M  V30 9427 N 851.386 1.48609 -0.524698 0
M  V30 9428 C 852.349 2.28041 0.230166 0
M  V30 9429 C 853.349 1.35065 0.872584 0
M  V30 9430 O 854.539 1.58007 0.73345 0
M  V30 9431 C 851.671 3.13778 1.33252 0
M  V30 9432 H 852.864 2.96239 -0.467161 0
M  V30 9433 H 850.417 1.53763 -0.280452 0
M  V30 9434 H 851.152 2.502 2.06327 0
M  V30 9435 H 850.937 3.82165 0.877058 0
M  V30 9436 H 852.427 3.7371 1.86362 0
M  V30 9437 N 852.864 0.259585 1.55447 0
M  V30 9438 C 853.811 -0.634578 2.21905 0
M  V30 9439 C 854.781 -1.16168 1.18719 0
M  V30 9440 O 855.966 -1.21383 1.4721 0
M  V30 9441 C 853.106 -1.82005 2.93203 0
M  V30 9442 C 852.219 -1.32828 4.11073 0
M  V30 9443 C 851.354 -2.47431 4.70055 0
M  V30 9444 C 850.393 -1.95179 5.80148 0
M  V30 9445 N 849.53 -3.03197 6.33258 0
M  V30 9446 H 854.37 -0.0611886 2.97937 0
M  V30 9447 H 851.907 -0.0184378 1.47088 0
M  V30 9448 H 853.865 -2.51664 3.32748 0
M  V30 9449 H 852.495 -2.36571 2.19622 0
M  V30 9450 H 851.547 -0.525301 3.76756 0
M  V30 9451 H 852.859 -0.905435 4.90513 0
M  V30 9452 H 852.013 -3.25111 5.12238 0
M  V30 9453 H 850.752 -2.93023 3.89857 0
M  V30 9454 H 849.757 -1.15974 5.37429 0
M  V30 9455 H 850.982 -1.50541 6.62204 0
M  V30 9456 H 848.928 -3.48199 5.55961 0
M  V30 9457 H 848.845 -2.65282 7.07928 0
M  V30 9458 H 850.113 -3.80898 6.80101 0
M  V30 9459 N 854.342 -1.57594 -0.0133615 0
M  V30 9460 C 855.272 -2.10611 -1.00823 0
M  V30 9461 C 856.253 -1.01217 -1.36708 0
M  V30 9462 O 857.438 -1.28827 -1.45318 0
M  V30 9463 C 854.568 -2.59844 -2.30431 0
M  V30 9464 C 853.522 -3.73644 -2.08745 0
M  V30 9465 C 852.848 -4.09141 -3.4425 0
M  V30 9466 C 854.148 -5.01454 -1.46086 0
M  V30 9467 H 855.842 -2.93985 -0.566849 0
M  V30 9468 H 853.388 -1.41423 -0.271219 0
M  V30 9469 H 855.341 -2.95557 -3.00373 0
M  V30 9470 H 854.065 -1.73573 -2.76658 0
M  V30 9471 H 852.724 -3.38303 -1.41232 0
M  V30 9472 H 852.372 -3.19914 -3.88155 0
M  V30 9473 H 852.072 -4.85802 -3.3056 0
M  V30 9474 H 853.596 -4.47402 -4.15528 0
M  V30 9475 H 855.01 -5.35024 -2.05966 0
M  V30 9476 H 853.407 -5.82832 -1.42924 0
M  V30 9477 H 854.477 -4.83003 -0.428471 0
M  V30 9478 N 855.82 0.285905 -1.54985 0
M  V30 9479 C 857.236 0.632405 -1.46536 0
M  V30 9480 C 857.436 1.90074 -0.668888 0
M  V30 9481 O 856.492 2.51839 -0.182586 0
M  V30 9482 C 857.805 0.771361 -2.90638 0
M  V30 9483 C 859.353 0.866262 -3.00774 0
M  V30 9484 C 859.828 1.0371 -4.46103 0
M  V30 9485 N 861.319 1.10294 -4.49877 0
M  V30 9486 C 862.054 1.25369 -5.59527 0
M  V30 9487 N 861.55 1.37246 -6.7907 0
M  V30 9488 N 863.343 1.28377 -5.47244 0
M  V30 9489 H 855.494 -0.547226 -2.0523 0
M  V30 9490 H 857.757 -0.183298 -0.930111 0
M  V30 9491 H 857.463 -0.0899485 -3.51585 0
M  V30 9492 H 857.337 1.65569 -3.3892 0
M  V30 9493 H 859.724 1.71805 -2.39931 0
M  V30 9494 H 859.805 -0.0424049 -2.55765 0
M  V30 9495 H 859.449 0.190021 -5.07544 0
M  V30 9496 H 859.379 1.96022 -4.88757 0
M  V30 9497 H 861.87 1.02407 -3.6376 0
M  V30 9498 H 862.183 1.48546 -7.58389 0
M  V30 9499 H 860.528 1.34274 -6.81906 0
M  V30 9500 H 863.719 1.1872 -4.52795 0
M  V30 9501 H 863.892 1.39782 -6.32744 0
M  V30 9502 N 857.298 1.47698 0.54982 0
M  V30 9503 C 858.546 1.54397 1.30407 0
M  V30 9504 C 858.867 0.211026 1.93855 0
M  V30 9505 O 858.137 -0.765701 1.80316 0
M  V30 9506 H 856.717 0.568747 0.484289 0
M  V30 9507 H 859.379 1.84042 0.641444 0
M  V30 9508 H 858.475 2.31449 2.09375 0
M  V30 9509 N 858.776 -0.797141 1.35954 0
M  V30 9510 C 859.686 -1.94088 1.31784 0
M  V30 9511 C 860.702 -1.72588 0.221227 0
M  V30 9512 O 861.878 -1.96256 0.452255 0
M  V30 9513 C 858.943 -3.28828 1.09878 0
M  V30 9514 C 858.004 -3.63158 2.28942 0
M  V30 9515 C 857.237 -4.91469 2.08072 0
M  V30 9516 O 857.46 -5.60616 1.05196 0
M  V30 9517 O 856.394 -5.24277 2.95664 0
M  V30 9518 H 860.22 -2.00554 2.28061 0
M  V30 9519 H 857.805 -0.936288 1.16422 0
M  V30 9520 H 859.687 -4.09473 0.995485 0
M  V30 9521 H 858.362 -3.23271 0.16659 0
M  V30 9522 H 857.269 -2.82851 2.44839 0
M  V30 9523 H 858.602 -3.7343 3.20641 0
M  V30 9524 N 860.254 -1.20106 -1.0204 0
M  V30 9525 C 861.201 -0.946468 -2.10501 0
M  V30 9526 C 862.171 0.121902 -1.65652 0
M  V30 9527 O 863.356 -0.0220244 -1.90787 0
M  V30 9528 C 860.496 -0.500499 -3.41451 0
M  V30 9529 C 859.609 -1.63659 -3.998 0
M  V30 9530 C 858.744 -1.14131 -5.18794 0
M  V30 9531 C 857.783 -2.25074 -5.69217 0
M  V30 9532 N 856.92 -1.76791 -6.79477 0
M  V30 9533 H 861.76 -1.87506 -2.31615 0
M  V30 9534 H 859.297 -0.934693 -1.13587 0
M  V30 9535 H 861.255 -0.223276 -4.16602 0
M  V30 9536 H 859.885 0.391099 -3.20422 0
M  V30 9537 H 858.937 -2.02882 -3.21781 0
M  V30 9538 H 860.249 -2.47213 -4.33229 0
M  V30 9539 H 859.403 -0.819826 -6.01135 0
M  V30 9540 H 858.142 -0.275615 -4.86921 0
M  V30 9541 H 857.147 -2.58043 -4.85483 0
M  V30 9542 H 858.372 -3.12114 -6.03127 0
M  V30 9543 H 856.318 -0.925428 -6.4944 0
M  V30 9544 H 856.235 -2.53928 -7.12079 0
M  V30 9545 H 857.503 -1.47631 -7.65392 0
M  V30 9546 N 861.732 1.21287 -1.00634 0
M  V30 9547 C 862.679 2.23705 -0.567876 0
M  V30 9548 C 863.649 1.61043 0.406753 0
M  V30 9549 O 864.834 1.88289 0.308499 0
M  V30 9550 C 861.974 3.44961 0.097996 0
M  V30 9551 C 861.087 4.22091 -0.919972 0
M  V30 9552 C 860.222 5.30718 -0.226222 0
M  V30 9553 C 859.261 5.99581 -1.23165 0
M  V30 9554 N 858.398 6.99821 -0.565278 0
M  V30 9555 H 863.238 2.60571 -1.44592 0
M  V30 9556 H 860.775 1.28049 -0.724006 0
M  V30 9557 H 862.733 4.1418 0.501097 0
M  V30 9558 H 861.363 3.08818 0.939744 0
M  V30 9559 H 860.415 3.52038 -1.44131 0
M  V30 9560 H 861.727 4.69476 -1.68505 0
M  V30 9561 H 860.881 6.06253 0.232917 0
M  V30 9562 H 859.62 4.84343 0.571247 0
M  V30 9563 H 858.625 5.22816 -1.70128 0
M  V30 9564 H 859.85 6.48042 -2.03022 0
M  V30 9565 H 857.796 6.55656 0.212508 0
M  V30 9566 H 857.713 7.4528 -1.26858 0
M  V30 9567 H 858.981 7.79393 -0.129389 0
M  V30 9568 N 863.21 0.781244 1.36873 0
M  V30 9569 C 864.12 0.174981 2.33947 0
M  V30 9570 C 865.136 -0.668512 1.60645 0
M  V30 9571 O 866.312 -0.586213 1.9268 0
M  V30 9572 C 863.377 -0.686557 3.39834 0
M  V30 9573 C 862.438 0.174489 4.28945 0
M  V30 9574 C 861.671 -0.646024 5.29776 0
M  V30 9575 O 861.894 -1.88254 5.38439 0
M  V30 9576 O 860.828 -0.0502214 6.01879 0
M  V30 9577 H 864.654 0.977382 2.87543 0
M  V30 9578 H 862.239 0.542559 1.392 0
M  V30 9579 H 864.121 -1.1781 4.04597 0
M  V30 9580 H 862.796 -1.46699 2.8855 0
M  V30 9581 H 861.703 0.712604 3.6725 0
M  V30 9582 H 863.036 0.918232 4.83559 0
M  V30 9583 N 864.689 -1.48329 0.532571 0
M  V30 9584 C 865.652 -2.2816 -0.218069 0
M  V30 9585 C 866.652 -1.35526 -0.865409 0
M  V30 9586 O 867.842 -1.58394 -0.725061 0
M  V30 9587 C 864.974 -3.1448 -1.31586 0
M  V30 9588 H 866.167 -2.95987 0.482865 0
M  V30 9589 H 863.72 -1.53612 0.288603 0
M  V30 9590 H 864.455 -2.5129 -2.04997 0
M  V30 9591 H 864.24 -3.82625 -0.856779 0
M  V30 9592 H 865.73 -3.74693 -1.84377 0
M  V30 9593 N 866.167 -0.267825 -1.55308 0
M  V30 9594 C 867.115 0.638848 -2.23655 0
M  V30 9595 C 868.109 1.16363 -1.2311 0
M  V30 9596 O 869.315 1.1181 -1.41062 0
M  V30 9597 H 865.69 0.224551 -0.717691 0
M  V30 9598 H 867.661 0.0394809 -2.98374 0
M  V30 9599 C 866.41 1.8151 -2.96562 0
M  V30 9600 H 865.733 1.42048 -3.73715 0
M  V30 9601 H 867.173 2.42629 -3.47717 0
M  V30 9602 C 865.632 2.69911 -2.01618 0
M  V30 9603 O 866.162 3.70058 -1.56268 0
M  V30 9604 N 864.368 2.36924 -1.68272 0
M  V30 9605 H 863.915 1.55533 -2.05347 0
M  V30 9606 H 863.873 2.96343 -1.05016 0
M  V30 9607 N 867.645 1.57599 0.00500368 0
M  V30 9608 C 868.595 2.04585 1.00643 0
M  V30 9609 C 869.579 0.939622 1.30614 0
M  V30 9610 O 870.771 1.20342 1.29796 0
M  V30 9611 C 867.9 2.5486 2.30002 0
M  V30 9612 C 866.986 3.7235 2.03017 0
M  V30 9613 N 867.377 4.84218 1.46173 0
M  V30 9614 C 865.675 3.80185 2.33185 0
M  V30 9615 C 866.376 5.65688 1.35544 0
M  V30 9616 N 865.352 5.11536 1.83933 0
M  V30 9617 H 869.154 2.8849 0.561332 0
M  V30 9618 H 866.668 1.61026 0.210808 0
M  V30 9619 H 868.665 2.86794 3.0258 0
M  V30 9620 H 867.325 1.72372 2.75169 0
M  V30 9621 H 868.336 5.0517 1.1412 0
M  V30 9622 H 865.013 3.08543 2.81261 0
M  V30 9623 H 866.403 6.65588 0.918791 0
M  V30 9624 N 869.123 -0.277682 1.55134 0
M  V30 9625 C 870.348 -1.03254 1.7987 0
M  V30 9626 C 870.773 -1.79324 0.567861 0
M  V30 9627 O 870.131 -1.74764 -0.4824 0
M  V30 9628 C 870.179 -1.9705 3.02 0
M  V30 9629 O 869.283 -3.05744 2.76757 0
M  V30 9630 H 868.624 -0.295447 0.594649 0
M  V30 9631 H 871.154 -0.308013 2.02268 0
M  V30 9632 H 871.164 -2.3909 3.30606 0
M  V30 9633 H 869.839 -1.41094 3.91236 0
M  V30 9634 H 868.416 -2.68052 2.59235 0
M  V30 9635 N 870.601 -1.47988 -0.541979 0
M  V30 9636 C 871.511 -1.64276 -1.67483 0
M  V30 9637 C 872.527 -0.525387 -1.65879 0
M  V30 9638 O 873.703 -0.794912 -1.85049 0
M  V30 9639 C 870.768 -1.66744 -3.03969 0
M  V30 9640 C 869.829 -2.90021 -3.16522 0
M  V30 9641 C 869.062 -2.92362 -4.46498 0
M  V30 9642 O 869.285 -2.03462 -5.32878 0
M  V30 9643 O 868.219 -3.84399 -4.63164 0
M  V30 9644 H 872.045 -2.60164 -1.5668 0
M  V30 9645 H 869.63 -1.31249 -0.71372 0
M  V30 9646 H 871.512 -1.70958 -3.85164 0
M  V30 9647 H 870.187 -0.740277 -3.15122 0
M  V30 9648 H 869.094 -2.91345 -2.34667 0
M  V30 9649 H 870.427 -3.82082 -3.10281 0
M  V30 9650 N 872.079 0.78992 -1.36375 0
M  V30 9651 C 873.327 1.54472 -1.30319 0
M  V30 9652 C 873.648 1.94647 0.117338 0
M  V30 9653 O 872.918 1.64906 1.05748 0
M  V30 9654 H 871.498 0.572879 -0.479394 0
M  V30 9655 H 874.16 0.941245 -1.70665 0
M  V30 9656 H 873.256 2.45252 -1.93024 0
M  V30 9657 N 873.557 1.20646 1.01402 0
M  V30 9658 C 874.489 0.915392 2.10127 0
M  V30 9659 C 875.502 -0.0978705 1.62506 0
M  V30 9660 O 876.691 0.133477 1.78 0
M  V30 9661 C 873.791 0.351304 3.37074 0
M  V30 9662 C 872.964 1.41673 4.13821 0
M  V30 9663 C 872.023 0.8635 5.19067 0
M  V30 9664 O 871.049 1.54481 5.47836 0
M  V30 9665 N 872.251 -0.325799 5.79585 0
M  V30 9666 H 875.016 1.85132 2.35682 0
M  V30 9667 H 872.577 1.11048 1.17813 0
M  V30 9668 H 874.569 -0.032996 4.04687 0
M  V30 9669 H 873.139 -0.489242 3.08748 0
M  V30 9670 H 872.359 1.97526 3.41141 0
M  V30 9671 H 873.647 2.1342 4.61876 0
M  V30 9672 H 873.045 -0.896534 5.58551 0
M  V30 9673 H 871.602 -0.651708 6.48534 0
M  V30 9674 N 875.035 -1.20752 1.01276 0
M  V30 9675 C 875.945 -2.27079 0.589277 0
M  V30 9676 C 876.961 -1.6999 -0.371389 0
M  V30 9677 O 878.137 -2.00044 -0.233294 0
M  V30 9678 C 875.202 -3.4663 -0.0696715 0
M  V30 9679 C 874.263 -4.18962 0.936454 0
M  V30 9680 C 873.496 -5.32806 0.308856 0
M  V30 9681 O 873.719 -5.63376 -0.8924 0
M  V30 9682 O 872.653 -5.93131 1.02367 0
M  V30 9683 H 876.479 -2.6551 1.47438 0
M  V30 9684 H 874.064 -1.27297 0.782045 0
M  V30 9685 H 875.946 -4.19119 -0.437873 0
M  V30 9686 H 874.621 -3.10082 -0.929029 0
M  V30 9687 H 873.528 -3.48661 1.35595 0
M  V30 9688 H 874.861 -4.59441 1.76565 0
M  V30 9689 N 876.513 -0.788492 -1.36457 0
M  V30 9690 C 877.761 -0.359749 -1.98872 0
M  V30 9691 C 878.082 1.07197 -1.62892 0
M  V30 9692 O 877.352 1.73875 -0.902463 0
M  V30 9693 H 875.932 -0.130029 -0.735596 0
M  V30 9694 H 878.594 -1.01033 -1.66668 0
M  V30 9695 H 877.69 -0.450835 -3.08827 0
M  V30 9696 N 877.991 1.48044 -0.54043 0
M  V30 9697 C 879.216 2.07396 -0.0124765 0
M  V30 9698 C 879.641 1.39288 1.26414 0
M  V30 9699 O 878.999 0.462252 1.75308 0
M  V30 9700 C 879.047 3.60131 0.18377 0
M  V30 9701 O 878.151 3.92995 1.25014 0
M  V30 9702 H 877.492 0.662554 -0.0438026 0
M  V30 9703 H 880.022 1.90306 -0.751327 0
M  V30 9704 H 880.032 4.06003 0.403197 0
M  V30 9705 H 878.707 4.09105 -0.74874 0
M  V30 9706 H 877.284 3.5889 1.01254 0
M  V30 9707 N 879.47 0.276058 1.55163 0
M  V30 9708 C 880.38 -0.621066 2.2623 0
M  V30 9709 C 881.396 -1.16931 1.28853 0
M  V30 9710 O 882.572 -1.1994 1.61791 0
M  V30 9711 C 879.637 -1.78824 2.97023 0
M  V30 9712 C 878.698 -1.27657 4.09881 0
M  V30 9713 C 877.931 -2.38812 4.77289 0
M  V30 9714 O 878.154 -3.58188 4.43912 0
M  V30 9715 O 877.088 -2.06915 5.65217 0
M  V30 9716 H 880.914 -0.0453346 3.03666 0
M  V30 9717 H 878.499 0.0434275 1.49337 0
M  V30 9718 H 880.381 -2.46877 3.41511 0
M  V30 9719 H 879.056 -2.35104 2.22503 0
M  V30 9720 H 877.963 -0.56248 3.69847 0
M  V30 9721 H 879.296 -0.759509 4.86305 0
M  V30 9722 N 880.948 -1.576 0.00335426 0
M  V30 9723 C 881.858 -2.12067 -1.00322 0
M  V30 9724 C 882.874 -1.06672 -1.37467 0
M  V30 9725 O 884.05 -1.38592 -1.46131 0
M  V30 9726 C 881.115 -2.61593 -2.27531 0
M  V30 9727 C 880.176 -3.81602 -1.96668 0
M  V30 9728 C 879.409 -4.28756 -3.17811 0
M  V30 9729 O 879.632 -3.75222 -4.2961 0
M  V30 9730 O 878.566 -5.20877 -3.01613 0
M  V30 9731 H 882.392 -2.98299 -0.570199 0
M  V30 9732 H 879.977 -1.47835 -0.215682 0
M  V30 9733 H 881.859 -2.93631 -3.02256 0
M  V30 9734 H 880.534 -1.78457 -2.70065 0
M  V30 9735 H 879.441 -3.54531 -1.19408 0
M  V30 9736 H 880.774 -4.65822 -1.58968 0
M  V30 9737 N 882.426 0.269451 -1.5528 0
M  V30 9738 C 883.389 1.31642 -1.87625 0
M  V30 9739 C 884.389 1.42182 -0.751058 0
M  V30 9740 O 885.579 1.41272 -1.01921 0
M  V30 9741 C 882.711 2.6973 -2.08467 0
M  V30 9742 H 883.904 1.0419 -2.81219 0
M  V30 9743 H 881.457 0.507685 -1.47825 0
M  V30 9744 H 882.192 3.02356 -1.17266 0
M  V30 9745 H 881.977 2.63465 -2.90394 0
M  V30 9746 H 883.467 3.4537 -2.34753 0
M  V30 9747 N 883.904 1.48273 0.534124 0
M  V30 9748 C 885.181 1.46567 1.29528 0
M  V30 9749 C 885.561 0.17509 2.10373 0
M  V30 9750 O 884.909 -0.843228 2.12372 0
M  V30 9751 C 885.119 2.72519 2.18023 0
M  V30 9752 C 886.467 3.2068 2.78298 0
M  V30 9753 O 887.491 2.73408 2.28313 0
M  V30 9754 O 886.35 4.02924 3.69208 0
M  V30 9755 H 883.444 0.585151 0.584403 0
M  V30 9756 H 885.99 1.60502 0.551119 0
M  V30 9757 H 884.762 3.57965 1.5804 0
M  V30 9758 H 884.385 2.61285 2.99693 0
M  V30 9759 N 885.382 -0.782676 1.36792 0
M  V30 9760 C 886.315 -1.90241 1.2603 0
M  V30 9761 C 887.293 -1.61969 0.143055 0
M  V30 9762 O 888.477 -1.85843 0.315366 0
M  V30 9763 C 885.604 -3.25218 0.946082 0
M  V30 9764 C 884.65 -3.72414 2.0787 0
M  V30 9765 S 885.483 -3.87376 3.69729 0
M  V30 9766 C 886.639 -5.25219 3.40435 0
M  V30 9767 H 886.872 -1.99079 2.20805 0
M  V30 9768 H 884.405 -0.942625 1.22286 0
M  V30 9769 H 886.363 -4.03183 0.771612 0
M  V30 9770 H 885.024 -3.14096 0.0159991 0
M  V30 9771 H 884.217 -4.7024 1.81358 0
M  V30 9772 H 883.819 -3.01519 2.21274 0
M  V30 9773 H 886.111 -6.10025 2.94746 0
M  V30 9774 H 887.054 -5.56738 4.37549 0
M  V30 9775 H 887.462 -4.92638 2.75622 0
M  V30 9776 N 886.86 -1.21182 -1.00761 0
M  V30 9777 C 888.276 -0.968607 -1.26847 0
M  V30 9778 C 888.476 0.346561 -1.98497 0
M  V30 9779 O 887.532 1.07287 -2.28573 0
M  V30 9780 C 888.845 -2.1574 -2.09467 0
M  V30 9781 C 890.393 -2.19937 -2.22703 0
M  V30 9782 C 890.868 -3.38328 -3.08704 0
M  V30 9783 N 892.359 -3.38398 -3.16293 0
M  V30 9784 C 893.094 -4.26653 -3.83086 0
M  V30 9785 N 892.59 -5.25101 -4.5193 0
M  V30 9786 N 894.383 -4.14469 -3.797 0
M  V30 9787 H 886.534 -2.05763 -0.526816 0
M  V30 9788 H 888.797 -0.90087 -0.29519 0
M  V30 9789 H 888.503 -3.11034 -1.64167 0
M  V30 9790 H 888.377 -2.14584 -3.10216 0
M  V30 9791 H 890.764 -1.25201 -2.67224 0
M  V30 9792 H 890.845 -2.25139 -1.21433 0
M  V30 9793 H 890.489 -4.33356 -2.64886 0
M  V30 9794 H 890.419 -3.30364 -4.10082 0
M  V30 9795 H 892.91 -2.67149 -2.67282 0
M  V30 9796 H 893.223 -5.8875 -5.00592 0
M  V30 9797 H 891.568 -5.29029 -4.50726 0
M  V30 9798 H 894.759 -3.3682 -3.25069 0
M  V30 9799 H 894.932 -4.83458 -4.31477 0
M  V30 9800 N 888.338 1.20213 -1.01915 0
M  V30 9801 C 889.754 1.41696 -0.734459 0
M  V30 9802 C 889.954 1.89504 0.684867 0
M  V30 9803 O 889.01 2.06556 1.45227 0
M  V30 9804 C 890.323 2.43644 -1.76233 0
M  V30 9805 C 891.871 2.57406 -1.78076 0
M  V30 9806 C 892.346 3.626 -2.79796 0
M  V30 9807 N 893.837 3.70086 -2.78551 0
M  V30 9808 C 894.572 4.51145 -3.53915 0
M  V30 9809 N 894.068 5.35988 -4.38963 0
M  V30 9810 N 895.861 4.45702 -3.425 0
M  V30 9811 H 888.012 0.874976 -1.93541 0
M  V30 9812 H 890.275 0.446647 -0.836188 0
M  V30 9813 H 889.981 2.15519 -2.77929 0
M  V30 9814 H 889.855 3.42672 -1.57657 0
M  V30 9815 H 892.242 2.8486 -0.770634 0
M  V30 9816 H 892.323 1.58565 -2.00725 0
M  V30 9817 H 891.967 3.35889 -3.80973 0
M  V30 9818 H 891.897 4.61069 -2.54407 0
M  V30 9819 H 894.388 3.09484 -2.1686 0
M  V30 9820 H 894.701 5.94932 -4.9323 0
M  V30 9821 H 893.046 5.35482 -4.4304 0
M  V30 9822 H 896.237 3.78456 -2.75478 0
M  V30 9823 H 896.41 5.08637 -4.01487 0
M  V30 9824 N 889.816 0.795718 1.36037 0
M  V30 9825 C 890.763 0.196548 2.29962 0
M  V30 9826 C 891.733 -0.663213 1.52285 0
M  V30 9827 O 892.918 -0.610574 1.80767 0
M  V30 9828 C 890.058 -0.657639 3.38776 0
M  V30 9829 C 889.171 0.221358 4.31433 0
M  V30 9830 C 888.306 -0.6398 5.27333 0
M  V30 9831 C 887.345 0.240265 6.11628 0
M  V30 9832 N 886.482 -0.580237 6.99698 0
M  V30 9833 H 891.322 1.00295 2.80615 0
M  V30 9834 H 888.859 0.506147 1.38118 0
M  V30 9835 H 890.817 -1.16793 4.00519 0
M  V30 9836 H 889.447 -1.42941 2.89426 0
M  V30 9837 H 888.499 0.84967 3.70789 0
M  V30 9838 H 889.811 0.899195 4.90628 0
M  V30 9839 H 888.965 -1.21566 5.94396 0
M  V30 9840 H 887.704 -1.35124 4.68607 0
M  V30 9841 H 886.709 0.828474 5.43522 0
M  V30 9842 H 887.934 0.949403 6.72431 0
M  V30 9843 H 885.88 -1.27585 6.43473 0
M  V30 9844 H 885.797 0.0397853 7.5599 0
M  V30 9845 H 887.065 -1.13972 7.71123 0
M  V30 9846 N 891.294 -1.47756 0.548274 0
M  V30 9847 C 892.241 -2.29893 -0.204408 0
M  V30 9848 C 893.211 -1.38509 -0.916761 0
M  V30 9849 O 894.396 -1.67472 -0.91421 0
M  V30 9850 C 891.536 -3.22282 -1.23403 0
M  V30 9851 C 890.649 -4.28753 -0.528654 0
M  V30 9852 C 889.784 -5.08303 -1.54279 0
M  V30 9853 C 888.823 -6.06557 -0.821893 0
M  V30 9854 N 887.96 -6.79098 -1.78243 0
M  V30 9855 H 892.8 -2.93739 0.502163 0
M  V30 9856 H 890.337 -1.44793 0.259471 0
M  V30 9857 H 892.295 -3.74262 -1.84348 0
M  V30 9858 H 890.925 -2.6032 -1.90875 0
M  V30 9859 H 889.977 -3.79899 0.195132 0
M  V30 9860 H 891.289 -4.98787 0.0365066 0
M  V30 9861 H 890.443 -5.64388 -2.22602 0
M  V30 9862 H 889.182 -4.3815 -2.14186 0
M  V30 9863 H 888.187 -5.49659 -0.12469 0
M  V30 9864 H 889.412 -6.78715 -0.228685 0
M  V30 9865 H 887.358 -6.11682 -2.37025 0
M  V30 9866 H 887.275 -7.4527 -1.26919 0
M  V30 9867 H 888.543 -7.39762 -2.45709 0
M  V30 9868 N 892.772 -0.284283 -1.55015 0
M  V30 9869 C 894.021 0.33055 -1.98973 0
M  V30 9870 C 894.334 1.56284 -1.17621 0
M  V30 9871 O 895.54 2.2512 -1.51767 0
M  V30 9872 C 893.996 0.639457 -3.54174 0
M  V30 9873 C 893.604 -0.573543 -4.44313 0
M  V30 9874 C 895.348 1.21641 -4.06699 0
M  V30 9875 C 893.255 -0.238715 -5.90918 0
M  V30 9876 H 892.185 0.127285 -0.743179 0
M  V30 9877 H 894.836 -0.390372 -1.793 0
M  V30 9878 H 893.218 1.41953 -3.69683 0
M  V30 9879 H 894.392 -1.3502 -4.40575 0
M  V30 9880 H 892.707 -1.06797 -4.02472 0
M  V30 9881 H 895.304 1.48088 -5.13784 0
M  V30 9882 H 895.647 2.15328 -3.56286 0
M  V30 9883 H 896.18 0.498422 -3.94665 0
M  V30 9884 H 892.919 -1.1437 -6.45445 0
M  V30 9885 H 892.439 0.500997 -5.97704 0
M  V30 9886 H 894.118 0.165774 -6.46788 0
M  V30 9887 N 894.251 1.57596 -0.0117121 0
M  V30 9888 C 895.161 2.12596 0.991964 0
M  V30 9889 C 896.177 1.07399 1.36899 0
M  V30 9890 O 897.353 1.39365 1.45394 0
M  V30 9891 C 894.418 2.62796 2.2614 0
M  V30 9892 C 893.479 3.8264 1.94642 0
M  V30 9893 C 892.712 4.30435 3.15533 0
M  V30 9894 O 892.935 3.77495 4.27614 0
M  V30 9895 O 891.869 5.22469 2.98847 0
M  V30 9896 H 895.695 2.98597 0.554371 0
M  V30 9897 H 893.28 1.47947 0.207839 0
M  V30 9898 H 895.162 2.9523 3.00695 0
M  V30 9899 H 893.837 1.79886 2.69114 0
M  V30 9900 H 892.744 3.5516 1.17526 0
M  V30 9901 H 894.077 4.66658 1.56496 0
M  V30 9902 N 895.729 -0.261212 1.5542 0
M  V30 9903 C 896.954 -1.01341 1.80955 0
M  V30 9904 C 897.379 -1.78711 0.586849 0
M  V30 9905 O 896.737 -1.75266 -0.463837 0
M  V30 9906 C 896.785 -1.93835 3.04073 0
M  V30 9907 O 895.889 -3.02791 2.79985 0
M  V30 9908 H 895.23 -0.289123 0.597749 0
M  V30 9909 H 897.76 -0.286543 2.02584 0
M  V30 9910 H 897.77 -2.3557 3.33123 0
M  V30 9911 H 896.445 -1.36936 3.9271 0
M  V30 9912 H 895.022 -2.65287 2.62063 0
M  V30 9913 N 897.207 -1.48554 -0.526253 0
M  V30 9914 C 898.137 -1.66252 -1.63959 0
M  V30 9915 C 899.118 -0.511351 -1.62232 0
M  V30 9916 O 900.303 -0.744322 -1.7937 0
M  V30 9917 C 897.433 -1.70556 -3.02536 0
M  V30 9918 C 896.387 -2.8521 -3.19123 0
M  V30 9919 C 895.713 -2.74606 -4.58798 0
M  V30 9920 C 897.013 -4.26463 -3.0154 0
M  V30 9921 H 898.707 -2.59459 -1.49404 0
M  V30 9922 H 896.253 -1.24862 -0.717326 0
M  V30 9923 H 898.206 -1.81524 -3.80298 0
M  V30 9924 H 896.93 -0.739297 -3.18123 0
M  V30 9925 H 895.589 -2.73802 -2.43779 0
M  V30 9926 H 895.237 -1.75941 -4.71226 0
M  V30 9927 H 894.937 -3.51544 -4.70841 0
M  V30 9928 H 896.461 -2.87548 -5.38655 0
M  V30 9929 H 897.875 -4.38685 -3.69091 0
M  V30 9930 H 896.272 -5.04428 -3.25073 0
M  V30 9931 H 897.342 -4.42667 -1.97925 0
M  V30 9932 N 898.685 0.775411 -1.37205 0
M  V30 9933 C 899.632 1.88857 -1.32671 0
M  V30 9934 C 900.602 1.64976 -0.192899 0
M  V30 9935 O 901.787 1.86944 -0.381673 0
M  V30 9936 C 898.927 3.25871 -1.13588 0
M  V30 9937 C 898.04 3.61731 -2.36167 0
M  V30 9938 C 897.175 4.87934 -2.09985 0
M  V30 9939 C 896.214 5.16514 -3.2845 0
M  V30 9940 N 895.351 6.33905 -3.01842 0
M  V30 9941 H 900.191 1.92068 -2.27846 0
M  V30 9942 H 897.728 0.939066 -1.13225 0
M  V30 9943 H 899.686 4.04903 -1.00546 0
M  V30 9944 H 898.316 3.22045 -0.220613 0
M  V30 9945 H 897.368 2.77712 -2.59962 0
M  V30 9946 H 898.68 3.78792 -3.24528 0
M  V30 9947 H 897.834 5.74863 -1.93953 0
M  V30 9948 H 896.573 4.7297 -1.18956 0
M  V30 9949 H 895.578 4.28063 -3.45025 0
M  V30 9950 H 896.803 5.33389 -4.20325 0
M  V30 9951 H 894.749 6.20306 -2.13439 0
M  V30 9952 H 894.666 6.51364 -3.83746 0
M  V30 9953 H 895.934 7.23779 -2.8942 0
M  V30 9954 N 900.163 1.21714 1.00117 0
M  V30 9955 C 901.126 0.981338 2.07129 0
M  V30 9956 C 902.126 -0.0491116 1.60725 0
M  V30 9957 O 903.316 0.188555 1.73177 0
M  V30 9958 C 900.448 0.480608 3.37495 0
M  V30 9959 H 901.641 1.93075 2.29482 0
M  V30 9960 H 899.194 1.03467 1.17151 0
M  V30 9961 H 899.929 -0.473552 3.20824 0
M  V30 9962 H 899.714 1.22393 3.72508 0
M  V30 9963 H 901.204 0.33561 4.16249 0
M  V30 9964 N 901.641 -1.19671 1.02551 0
M  V30 9965 C 902.591 -2.20655 0.574037 0
M  V30 9966 C 903.575 -1.56459 -0.375412 0
M  V30 9967 O 904.767 -1.75901 -0.196929 0
M  V30 9968 C 901.896 -3.43213 -0.0772031 0
M  V30 9969 C 900.982 -4.1456 0.894485 0
M  V30 9970 N 901.373 -4.62147 2.05557 0
M  V30 9971 C 899.671 -4.40196 0.717205 0
M  V30 9972 C 900.372 -5.16899 2.66814 0
M  V30 9973 N 899.348 -5.07496 1.94804 0
M  V30 9974 H 903.15 -2.55124 1.45908 0
M  V30 9975 H 900.664 -1.35707 0.89204 0
M  V30 9976 H 902.661 -4.14797 -0.41824 0
M  V30 9977 H 901.321 -3.10247 -0.957973 0
M  V30 9978 H 902.332 -4.5708 2.43513 0
M  V30 9979 H 899.009 -4.17342 -0.114758 0
M  V30 9980 H 900.399 -5.64032 3.65126 0
M  V30 9981 N 903.119 -0.802921 -1.35613 0
M  V30 9982 C 904.082 -0.216422 -2.28176 0
M  V30 9983 C 905.082 0.594101 -1.49422 0
M  V30 9984 O 906.272 0.41312 -1.6923 0
M  V30 9985 C 903.404 0.698746 -3.33662 0
M  V30 9986 H 904.597 -1.03276 -2.81557 0
M  V30 9987 H 902.15 -0.573307 -1.45406 0
M  V30 9988 H 902.885 1.53891 -2.85461 0
M  V30 9989 H 902.67 0.119314 -3.91918 0
M  V30 9990 H 904.16 1.10354 -4.02755 0
M  V30 9991 N 904.597 1.47463 -0.556102 0
M  V30 9992 C 905.545 2.31692 0.205299 0
M  V30 9993 C 906.539 1.42857 0.910394 0
M  V30 9994 O 907.745 1.59628 0.831806 0
M  V30 9995 H 904.12 0.747172 0.0850775 0
M  V30 9996 H 906.091 2.93758 -0.524305 0
M  V30 9997 C 904.84 3.25487 1.22283 0
M  V30 9998 H 904.163 3.93806 0.689697 0
M  V30 9999 H 905.603 3.87257 1.7265 0
M  V30 10000 C 904.062 2.48931 2.27013 0
M  V30 10001 O 904.592 2.23296 3.33919 0
M  V30 10002 N 902.798 2.0996 2.00911 0
M  V30 10003 H 902.345 2.31008 1.13986 0
M  V30 10004 H 902.303 1.59053 2.712 0
M  V30 10005 N 906.075 0.2925 1.54862 0
M  V30 10006 C 907.038 -0.574423 2.21885 0
M  V30 10007 C 908.038 -1.06791 1.20218 0
M  V30 10008 O 909.228 -0.9653 1.45009 0
M  V30 10009 C 906.36 -1.79438 2.89853 0
M  V30 10010 H 907.553 0.0110319 2.99898 0
M  V30 10011 H 905.106 0.043256 1.5624 0
M  V30 10012 H 905.841 -2.4199 2.15897 0
M  V30 10013 H 905.626 -1.44827 3.64373 0
M  V30 10014 H 907.116 -2.41048 3.41007 0
M  V30 10015 N 907.553 -1.57587 0.0200696 0
M  V30 10016 C 908.969 -1.56018 -0.336237 0
M  V30 10017 C 909.169 -1.02478 -1.73495 0
M  V30 10018 O 908.225 -0.667487 -2.43518 0
M  V30 10019 C 909.538 -3.00079 -0.193112 0
M  V30 10020 C 911.086 -3.11863 -0.266557 0
M  V30 10021 C 911.561 -4.57747 -0.152326 0
M  V30 10022 N 913.052 -4.62726 -0.209596 0
M  V30 10023 C 913.787 -5.73217 -0.144855 0
M  V30 10024 N 913.283 -6.92794 -0.0295487 0
M  V30 10025 N 915.076 -5.61751 -0.198184 0
M  V30 10026 H 907.227 -1.90722 0.93482 0
M  V30 10027 H 909.49 -0.876909 0.360186 0
M  V30 10028 H 909.196 -3.43167 0.770036 0
M  V30 10029 H 909.07 -3.64593 -0.967029 0
M  V30 10030 H 911.457 -2.68693 -1.22016 0
M  V30 10031 H 911.538 -2.50087 0.53758 0
M  V30 10032 H 911.182 -5.01595 0.797817 0
M  V30 10033 H 911.112 -5.17491 -0.97521 0
M  V30 10034 H 913.603 -3.76713 -0.299229 0
M  V30 10035 H 913.916 -7.72799 0.0134071 0
M  V30 10036 H 912.261 -6.95 0.00510737 0
M  V30 10037 H 915.452 -4.67222 -0.286603 0
M  V30 10038 H 915.625 -6.47839 -0.144266 0
M  V30 10039 N 909.032 0.252966 -1.55557 0
M  V30 10040 C 909.995 1.29645 -1.8901 0
M  V30 10041 C 910.995 1.41378 -0.766096 0
M  V30 10042 O 912.185 1.40183 -1.03414 0
M  V30 10043 C 909.317 2.67504 -2.11316 0
M  V30 10044 H 910.51 1.01202 -2.82309 0
M  V30 10045 H 908.063 0.491977 -1.48355 0
M  V30 10046 H 908.798 3.01095 -1.20466 0
M  V30 10047 H 908.583 2.6037 -2.93172 0
M  V30 10048 H 910.073 3.42861 -2.38403 0
M  V30 10049 N 910.51 1.48831 0.518367 0
M  V30 10050 C 911.473 1.63721 1.604 0
M  V30 10051 C 912.473 0.509857 1.52503 0
M  V30 10052 O 913.663 0.775922 1.55965 0
M  V30 10053 C 910.795 1.61831 3.00039 0
M  V30 10054 H 911.988 2.60534 1.48533 0
M  V30 10055 H 909.541 1.37602 0.741309 0
M  V30 10056 H 910.276 0.665387 3.17401 0
M  V30 10057 H 910.061 2.43686 3.0718 0
M  V30 10058 H 911.551 1.75467 3.78947 0
M  V30 10059 N 911.988 -0.768124 1.37614 0
M  V30 10060 C 913.234 -1.52907 1.33219 0
M  V30 10061 C 913.567 -1.94026 -0.0821218 0
M  V30 10062 O 912.842 -1.64345 -1.04023 0
M  V30 10063 C 913.125 -2.79164 2.27463 0
M  V30 10064 C 912.978 -2.44276 3.7769 0
M  V30 10065 C 914.297 -3.81115 2.20089 0
M  V30 10066 H 911.416 -0.554712 0.485246 0
M  V30 10067 H 914.058 -0.880911 1.68345 0
M  V30 10068 H 912.208 -3.34472 1.97639 0
M  V30 10069 H 913.88 -1.94855 4.18126 0
M  V30 10070 H 912.123 -1.76925 3.96081 0
M  V30 10071 H 912.794 -3.34544 4.39072 0
M  V30 10072 H 915.27 -3.35311 2.46386 0
M  V30 10073 H 914.146 -4.67174 2.88166 0
M  V30 10074 H 914.407 -4.25644 1.19498 0
M  V30 10075 N 913.466 -1.22244 -0.994698 0
M  V30 10076 C 914.396 -1.01513 -2.10279 0
M  V30 10077 C 915.377 0.0633365 -1.69982 0
M  V30 10078 O 916.562 -0.0985268 -1.9395 0
M  V30 10079 C 913.692 -0.59016 -3.42249 0
M  V30 10080 C 912.646 -1.61436 -3.96387 0
M  V30 10081 C 911.972 -1.04528 -5.24383 0
M  V30 10082 C 913.272 -3.00388 -4.27276 0
M  V30 10083 H 914.966 -1.94194 -2.2788 0
M  V30 10084 H 912.512 -0.935094 -1.09508 0
M  V30 10085 H 914.465 -0.432254 -4.19177 0
M  V30 10086 H 913.189 0.372308 -3.24471 0
M  V30 10087 H 911.848 -1.76001 -3.21589 0
M  V30 10088 H 911.496 -0.0742225 -5.02945 0
M  V30 10089 H 911.196 -1.72949 -5.61571 0
M  V30 10090 H 912.72 -0.898922 -6.03947 0
M  V30 10091 H 914.134 -2.89207 -4.95007 0
M  V30 10092 H 912.531 -3.65916 -4.75631 0
M  V30 10093 H 913.601 -3.50456 -3.35125 0
M  V30 10094 N 914.944 1.19125 -1.03184 0
M  V30 10095 C 915.891 2.2245 -0.6152 0
M  V30 10096 C 916.861 1.61869 0.372502 0
M  V30 10097 O 918.046 1.88901 0.268491 0
M  V30 10098 C 915.186 3.45091 0.0248027 0
M  V30 10099 C 914.299 4.20044 -1.0093 0
M  V30 10100 C 913.434 5.30119 -0.338744 0
M  V30 10101 C 912.473 5.96833 -1.35855 0
M  V30 10102 N 911.61 6.98464 -0.713594 0
M  V30 10103 H 916.45 2.57445 -1.50086 0
M  V30 10104 H 913.987 1.26485 -0.751005 0
M  V30 10105 H 915.945 4.15149 0.413131 0
M  V30 10106 H 914.575 3.10742 0.874028 0
M  V30 10107 H 913.627 3.48901 -1.51566 0
M  V30 10108 H 914.939 4.65796 -1.78425 0
M  V30 10109 H 914.093 6.0661 0.104269 0
M  V30 10110 H 912.832 4.85446 0.468382 0
M  V30 10111 H 911.837 5.1909 -1.81179 0
M  V30 10112 H 913.062 6.4359 -2.16722 0
M  V30 10113 H 911.008 6.55959 0.0733863 0
M  V30 10114 H 910.925 7.42422 -1.42638 0
M  V30 10115 H 912.193 7.78943 -0.294681 0
M  V30 10116 N 916.422 0.810101 1.35185 0
M  V30 10117 C 917.332 0.224565 2.33523 0
M  V30 10118 C 918.348 -0.634287 1.62027 0
M  V30 10119 O 919.524 -0.545211 1.9388 0
M  V30 10120 C 916.589 -0.614319 3.41214 0
M  V30 10121 C 915.65 0.265435 4.28479 0
M  V30 10122 C 914.883 -0.533506 5.31027 0
M  V30 10123 O 915.106 -1.7679 5.42311 0
M  V30 10124 O 914.04 0.0774573 6.0185 0
M  V30 10125 H 917.866 1.03815 2.85405 0
M  V30 10126 H 915.451 0.571964 1.38018 0
M  V30 10127 H 917.333 -1.09201 4.07005 0
M  V30 10128 H 916.008 -1.40545 2.91597 0
M  V30 10129 H 914.915 0.790343 3.65656 0
M  V30 10130 H 916.248 1.0206 4.81503 0
M  V30 10131 N 917.9 -1.47166 0.563914 0
M  V30 10132 C 918.832 -2.28165 -0.217583 0
M  V30 10133 C 919.845 -1.37405 -0.873134 0
M  V30 10134 O 921.034 -1.6217 -0.745857 0
M  V30 10135 C 918.134 -3.11873 -1.32621 0
M  V30 10136 C 917.307 -4.30637 -0.766177 0
M  V30 10137 C 916.366 -4.95889 -1.76014 0
M  V30 10138 O 915.392 -5.54071 -1.3036 0
M  V30 10139 N 916.594 -4.91191 -3.09373 0
M  V30 10140 H 919.359 -2.95876 0.477256 0
M  V30 10141 H 916.92 -1.5687 0.40043 0
M  V30 10142 H 918.912 -3.52392 -1.99003 0
M  V30 10143 H 917.482 -2.46361 -1.92419 0
M  V30 10144 H 916.702 -3.94129 0.0745998 0
M  V30 10145 H 917.99 -5.07442 -0.371472 0
M  V30 10146 H 917.388 -4.45133 -3.49104 0
M  V30 10147 H 915.945 -5.35708 -3.71295 0
M  V30 10148 N 919.378 -0.300708 -1.54705 0
M  V30 10149 C 920.308 0.568675 -2.26469 0
M  V30 10150 C 921.289 1.13817 -1.26411 0
M  V30 10151 O 922.474 1.16756 -1.55183 0
M  V30 10152 C 919.604 1.74077 -3.00524 0
M  V30 10153 C 918.558 1.30165 -4.07727 0
M  V30 10154 C 917.884 2.55888 -4.69495 0
M  V30 10155 C 919.184 0.433106 -5.20501 0
M  V30 10156 H 920.878 -0.0298851 -2.99385 0
M  V30 10157 H 918.424 -0.0158135 -1.43991 0
M  V30 10158 H 920.377 2.35506 -3.49449 0
M  V30 10159 H 919.101 2.36556 -2.25186 0
M  V30 10160 H 917.76 0.710414 -3.59651 0
M  V30 10161 H 917.408 3.16681 -3.90797 0
M  V30 10162 H 917.108 2.27207 -5.41895 0
M  V30 10163 H 918.632 3.18121 -5.21183 0
M  V30 10164 H 920.046 0.95307 -5.65322 0
M  V30 10165 H 918.443 0.240085 -5.9962 0
M  V30 10166 H 919.513 -0.541866 -4.81863 0
M  V30 10167 N 920.856 1.57574 -0.0284266 0
M  V30 10168 C 921.766 2.13637 0.96936 0
M  V30 10169 C 922.782 1.08845 1.35752 0
M  V30 10170 O 923.958 1.40899 1.43908 0
M  V30 10171 C 921.023 2.65179 2.2334 0
M  V30 10172 C 920.084 3.84683 1.90572 0
M  V30 10173 C 919.317 4.33758 3.1095 0
M  V30 10174 O 919.54 3.82009 4.23586 0
M  V30 10175 O 918.474 5.2561 2.93288 0
M  V30 10176 H 922.3 2.99169 0.52267 0
M  V30 10177 H 919.885 1.48159 0.192135 0
M  V30 10178 H 921.767 2.98402 2.97547 0
M  V30 10179 H 920.442 1.82731 2.67191 0
M  V30 10180 H 919.349 3.56386 1.13753 0
M  V30 10181 H 920.682 4.68292 1.51538 0
M  V30 10182 N 922.334 -0.244713 1.55689 0
M  V30 10183 C 923.75 -0.593331 1.48161 0
M  V30 10184 C 923.95 -1.88234 0.719047 0
M  V30 10185 O 923.006 -2.51266 0.249292 0
M  V30 10186 C 924.319 -0.694032 2.92581 0
M  V30 10187 C 925.867 -0.786213 3.02965 0
M  V30 10188 C 926.342 -0.918457 4.48696 0
M  V30 10189 N 927.833 -0.983272 4.52643 0
M  V30 10190 C 928.568 -1.1049 5.62654 0
M  V30 10191 N 928.064 -1.19193 6.8247 0
M  V30 10192 N 929.857 -1.13823 5.50455 0
M  V30 10193 H 922.008 0.601446 2.03707 0
M  V30 10194 H 924.271 0.207894 0.924924 0
M  V30 10195 H 923.977 0.183133 3.51223 0
M  V30 10196 H 923.851 -1.56525 3.4319 0
M  V30 10197 H 926.238 -1.65383 2.44402 0
M  V30 10198 H 926.319 0.110202 2.55563 0
M  V30 10199 H 925.963 -0.0553881 5.0787 0
M  V30 10200 H 925.893 -1.82994 4.93782 0
M  V30 10201 H 928.384 -0.927269 3.66347 0
M  V30 10202 H 928.697 -1.28387 7.62061 0
M  V30 10203 H 927.042 -1.16147 6.85226 0
M  V30 10204 H 930.233 -1.06673 4.55783 0
M  V30 10205 H 930.406 -1.22957 6.36228 0
M  V30 10206 N 923.813 -1.49104 -0.510467 0
M  V30 10207 C 924.76 -1.65074 -1.61305 0
M  V30 10208 C 925.73 -0.492362 -1.58635 0
M  V30 10209 O 926.915 -0.718241 -1.76765 0
M  V30 10210 C 924.055 -1.71457 -2.99493 0
M  V30 10211 C 923.168 -2.98536 -3.12251 0
M  V30 10212 C 922.303 -2.95957 -4.41116 0
M  V30 10213 C 921.342 -4.17655 -4.47471 0
M  V30 10214 N 920.479 -4.13041 -5.67751 0
M  V30 10215 H 925.319 -2.59222 -1.46996 0
M  V30 10216 H 922.856 -1.28535 -0.715346 0
M  V30 10217 H 924.814 -1.7314 -3.79577 0
M  V30 10218 H 923.444 -0.807834 -3.12528 0
M  V30 10219 H 922.496 -3.06509 -2.25292 0
M  V30 10220 H 923.808 -3.88527 -3.12807 0
M  V30 10221 H 922.962 -2.96149 -5.2951 0
M  V30 10222 H 921.701 -2.03728 -4.4311 0
M  V30 10223 H 920.706 -4.17717 -3.57481 0
M  V30 10224 H 921.931 -5.11066 -4.472 0
M  V30 10225 H 919.877 -3.23643 -5.70606 0
M  V30 10226 H 919.794 -4.96757 -5.69884 0
M  V30 10227 H 921.062 -4.17322 -6.58379 0
M  V30 10228 N 925.291 0.760815 -1.38019 0
M  V30 10229 C 926.707 1.06289 -1.19058 0
M  V30 10230 C 926.907 2.01471 -0.0342603 0
M  V30 10231 O 925.963 2.44713 0.62224 0
M  V30 10232 C 927.276 1.6499 -2.51394 0
M  V30 10233 C 928.824 1.77196 -2.58013 0
M  V30 10234 C 929.299 2.3931 -3.90506 0
M  V30 10235 N 930.79 2.46749 -3.92007 0
M  V30 10236 C 931.525 2.95687 -4.91281 0
M  V30 10237 N 931.021 3.44715 -6.00952 0
M  V30 10238 N 932.814 2.94661 -4.78677 0
M  V30 10239 H 924.965 0.129045 -2.12008 0
M  V30 10240 H 927.228 0.119878 -0.94039 0
M  V30 10241 H 926.934 1.0252 -3.36426 0
M  V30 10242 H 926.808 2.64146 -2.6927 0
M  V30 10243 H 929.195 2.38796 -1.7338 0
M  V30 10244 H 929.276 0.767645 -2.4401 0
M  V30 10245 H 928.92 1.78346 -4.75558 0
M  V30 10246 H 928.85 3.40369 -4.01817 0
M  V30 10247 H 931.341 2.12064 -3.12789 0
M  V30 10248 H 931.654 3.80492 -6.72641 0
M  V30 10249 H 929.999 3.42791 -6.04582 0
M  V30 10250 H 933.19 2.55665 -3.92113 0
M  V30 10251 H 933.363 3.32489 -5.56197 0
M  V30 10252 N 926.769 1.22769 0.988202 0
M  V30 10253 C 927.716 1.00195 2.07917 0
M  V30 10254 C 928.686 -0.0779391 1.65917 0
M  V30 10255 O 929.871 0.0726005 1.90662 0
M  V30 10256 C 927.011 0.590853 3.40004 0
M  V30 10257 C 926.124 1.74202 3.9532 0
M  V30 10258 C 925.259 1.27846 5.15586 0
M  V30 10259 C 924.298 2.40087 5.63049 0
M  V30 10260 N 923.435 1.94744 6.74551 0
M  V30 10261 H 928.275 1.93581 2.26562 0
M  V30 10262 H 925.812 0.96448 1.11068 0
M  V30 10263 H 927.77 0.333653 4.15864 0
M  V30 10264 H 926.4 -0.306007 3.21346 0
M  V30 10265 H 925.452 2.11342 3.16289 0
M  V30 10266 H 926.764 2.58612 4.26522 0
M  V30 10267 H 925.918 0.978919 5.9875 0
M  V30 10268 H 924.657 0.404617 4.86019 0
M  V30 10269 H 923.662 2.70824 4.78471 0
M  V30 10270 H 924.887 3.27995 5.9464 0
M  V30 10271 H 922.833 1.09729 6.46758 0
M  V30 10272 H 922.75 2.72718 7.05096 0
M  V30 10273 H 924.018 1.67873 7.61209 0
M  V30 10274 N 928.247 -1.18576 1.03814 0
M  V30 10275 C 929.157 -2.25778 0.637311 0
M  V30 10276 C 930.173 -1.7074 -0.335248 0
M  V30 10277 O 931.349 -2.00494 -0.19081 0
M  V30 10278 C 928.414 -3.467 0.00386953 0
M  V30 10279 C 927.475 -4.16881 1.02511 0
M  V30 10280 C 926.708 -5.32031 0.421802 0
M  V30 10281 O 926.931 -5.65142 -0.772699 0
M  V30 10282 O 925.865 -5.90826 1.14925 0
M  V30 10283 H 929.691 -2.62323 1.53037 0
M  V30 10284 H 927.276 -1.25609 0.80887 0
M  V30 10285 H 929.158 -4.19953 -0.348873 0
M  V30 10286 H 927.833 -3.11983 -0.863047 0
M  V30 10287 H 926.74 -3.45707 1.4296 0
M  V30 10288 H 928.073 -4.55592 1.86271 0
M  V30 10289 N 929.725 -0.817259 -1.34754 0
M  V30 10290 C 930.688 -0.240611 -2.27934 0
M  V30 10291 C 931.688 0.578219 -1.50044 0
M  V30 10292 O 932.878 0.395148 -1.69659 0
M  V30 10293 C 930.01 0.663318 -3.34384 0
M  V30 10294 H 931.203 -1.06257 -2.80445 0
M  V30 10295 H 928.756 -0.588697 -1.4479 0
M  V30 10296 H 929.491 1.50855 -2.87077 0
M  V30 10297 H 929.276 0.0777388 -3.92023 0
M  V30 10298 H 930.766 1.06076 -4.03903 0
M  V30 10299 N 931.203 1.46865 -0.571711 0
M  V30 10300 C 932.433 2.06518 -0.0583129 0
M  V30 10301 C 932.841 1.4227 1.24723 0
M  V30 10302 O 932.184 0.518293 1.76237 0
M  V30 10303 C 932.246 3.5898 0.193214 0
M  V30 10304 C 931.91 4.45355 -1.02507 0
M  V30 10305 C 932.907 4.82575 -1.93435 0
M  V30 10306 C 930.592 4.86656 -1.24382 0
M  V30 10307 C 932.586 5.59912 -3.04595 0
M  V30 10308 C 930.273 5.63754 -2.35849 0
M  V30 10309 C 931.271 6.00294 -3.25785 0
M  V30 10310 O 930.959 6.75836 -4.35318 0
M  V30 10311 H 930.691 0.674188 -0.0494584 0
M  V30 10312 H 933.245 1.89644 -0.788934 0
M  V30 10313 H 931.475 3.7412 0.978319 0
M  V30 10314 H 933.164 4.006 0.653769 0
M  V30 10315 H 933.93 4.51256 -1.77745 0
M  V30 10316 H 929.809 4.57672 -0.55292 0
M  V30 10317 H 933.353 5.88351 -3.74818 0
M  V30 10318 H 929.25 5.94487 -2.51506 0
M  V30 10319 H 930.018 6.94247 -4.33547 0
M  V30 10320 N 932.681 0.308908 1.54543 0
M  V30 10321 C 933.591 -0.572939 2.27496 0
M  V30 10322 C 934.607 -1.14171 1.31305 0
M  V30 10323 O 935.783 -1.16481 1.64299 0
M  V30 10324 C 932.848 -1.72483 3.0075 0
M  V30 10325 C 931.909 -1.18934 4.12496 0
M  V30 10326 C 931.142 -2.28634 4.82247 0
M  V30 10327 O 931.365 -3.48691 4.5141 0
M  V30 10328 O 930.299 -1.94879 5.69478 0
M  V30 10329 H 934.125 0.0190877 3.03694 0
M  V30 10330 H 931.71 0.0750943 1.49211 0
M  V30 10331 H 933.592 -2.39578 3.46671 0
M  V30 10332 H 932.267 -2.30332 2.2744 0
M  V30 10333 H 931.174 -0.483904 3.70957 0
M  V30 10334 H 932.507 -0.656185 4.87806 0
M  V30 10335 N 934.159 -1.57557 0.0367827 0
M  V30 10336 C 935.575 -1.56366 -0.31967 0
M  V30 10337 C 935.775 -1.04313 -1.72398 0
M  V30 10338 O 934.831 -0.693278 -2.42796 0
M  V30 10339 C 936.144 -3.00267 -0.161274 0
M  V30 10340 C 937.692 -3.12128 -0.233464 0
M  V30 10341 C 938.167 -4.57882 -0.103767 0
M  V30 10342 N 939.658 -4.62922 -0.160506 0
M  V30 10343 C 940.393 -5.73338 -0.0840493 0
M  V30 10344 N 939.889 -6.92786 0.043933 0
M  V30 10345 N 941.682 -5.61929 -0.138592 0
M  V30 10346 H 933.833 -1.8972 0.954996 0
M  V30 10347 H 936.096 -0.87304 0.369467 0
M  V30 10348 H 935.802 -3.42331 0.80639 0
M  V30 10349 H 935.676 -3.65599 -0.928304 0
M  V30 10350 H 938.063 -2.69972 -1.19159 0
M  V30 10351 H 938.144 -2.49503 0.564075 0
M  V30 10352 H 937.788 -5.0072 0.850973 0
M  V30 10353 H 937.718 -5.18496 -0.920268 0
M  V30 10354 H 940.209 -3.7701 -0.259257 0
M  V30 10355 H 940.522 -7.72741 0.095372 0
M  V30 10356 H 938.867 -6.94955 0.0788211 0
M  V30 10357 H 942.058 -4.67499 -0.237031 0
M  V30 10358 H 942.231 -6.47956 -0.075546 0
M  V30 10359 N 935.637 0.236453 -1.55816 0
M  V30 10360 C 936.547 1.31418 -1.94336 0
M  V30 10361 C 937.563 1.52095 -0.845164 0
M  V30 10362 O 938.739 1.65515 -1.14746 0
M  V30 10363 C 935.804 2.6468 -2.23932 0
M  V30 10364 C 934.865 2.52435 -3.47239 0
M  V30 10365 C 934.098 3.79342 -3.75414 0
M  V30 10366 O 934.321 4.81694 -3.05495 0
M  V30 10367 O 933.255 3.77347 -4.68927 0
M  V30 10368 H 937.081 1.01739 -2.86152 0
M  V30 10369 H 934.666 0.438084 -1.42833 0
M  V30 10370 H 936.548 3.4341 -2.44228 0
M  V30 10371 H 935.223 2.94071 -1.35292 0
M  V30 10372 H 934.13 1.71955 -3.32238 0
M  V30 10373 H 935.463 2.27987 -4.36214 0
M  V30 10374 N 937.115 1.49373 0.502552 0
M  V30 10375 C 938.062 1.65927 1.60427 0
M  V30 10376 C 939.032 0.500768 1.58371 0
M  V30 10377 O 940.217 0.727606 1.76382 0
M  V30 10378 C 937.357 1.73043 2.9858 0
M  V30 10379 C 936.47 3.00187 3.10663 0
M  V30 10380 C 935.605 2.98292 4.3954 0
M  V30 10381 C 934.644 4.20022 4.4525 0
M  V30 10382 N 933.781 4.16046 5.65553 0
M  V30 10383 H 938.621 2.59998 1.45619 0
M  V30 10384 H 936.158 1.28912 0.708519 0
M  V30 10385 H 938.116 1.7515 3.78653 0
M  V30 10386 H 936.746 0.824397 3.12095 0
M  V30 10387 H 935.798 3.07699 2.23663 0
M  V30 10388 H 937.11 3.9018 3.10742 0
M  V30 10389 H 936.264 2.98953 5.27932 0
M  V30 10390 H 935.003 2.06075 4.42023 0
M  V30 10391 H 934.008 4.19607 3.5526 0
M  V30 10392 H 935.233 5.13431 4.44484 0
M  V30 10393 H 933.179 3.26665 5.68881 0
M  V30 10394 H 933.096 4.99773 5.67242 0
M  V30 10395 H 934.364 4.20807 6.56156 0
M  V30 10396 N 938.594 -0.753485 1.38421 0
M  V30 10397 C 939.541 -1.86723 1.35659 0
M  V30 10398 C 940.511 -1.64648 0.219121 0
M  V30 10399 O 941.696 -1.86313 0.411366 0
M  V30 10400 C 938.836 -3.24023 1.18758 0
M  V30 10401 C 937.949 -3.57928 2.41892 0
M  V30 10402 C 937.084 -4.84532 2.17721 0
M  V30 10403 C 936.123 -5.11224 3.36626 0
M  V30 10404 N 935.26 -6.29023 3.11889 0
M  V30 10405 H 940.1 -1.88419 2.30873 0
M  V30 10406 H 937.637 -0.920934 1.14705 0
M  V30 10407 H 939.595 -4.03252 1.06974 0
M  V30 10408 H 938.225 -3.21654 0.27182 0
M  V30 10409 H 937.277 -2.73541 2.64347 0
M  V30 10410 H 938.589 -3.73581 3.30513 0
M  V30 10411 H 937.743 -5.71704 2.03074 0
M  V30 10412 H 936.482 -4.71018 1.26465 0
M  V30 10413 H 935.487 -4.2252 3.51791 0
M  V30 10414 H 936.712 -5.26635 4.28757 0
M  V30 10415 H 934.658 -6.16832 2.2328 0
M  V30 10416 H 934.575 -6.45177 3.9406 0
M  V30 10417 H 935.843 -7.19083 3.00898 0
M  V30 10418 N 940.072 -1.23292 -0.981677 0
M  V30 10419 C 941.318 -1.06582 -1.72535 0
M  V30 10420 C 941.651 0.396538 -1.90108 0
M  V30 10421 O 940.926 1.29363 -1.45243 0
M  V30 10422 C 941.209 -1.7904 -3.12437 0
M  V30 10423 C 941.062 -3.32941 -3.02441 0
M  V30 10424 C 942.381 -1.55185 -4.11832 0
M  V30 10425 H 939.5 -0.388585 -0.626236 0
M  V30 10426 H 942.142 -1.51779 -1.14293 0
M  V30 10427 H 940.292 -1.40619 -3.62158 0
M  V30 10428 H 941.964 -3.80875 -2.60254 0
M  V30 10429 H 940.207 -3.62039 -2.38977 0
M  V30 10430 H 940.878 -3.78827 -4.0149 0
M  V30 10431 H 943.354 -1.88581 -3.70913 0
M  V30 10432 H 942.23 -2.08362 -5.07815 0
M  V30 10433 H 942.491 -0.486925 -4.3941 0
M  V30 10434 N 941.55 1.18024 -1.04442 0
M  V30 10435 C 942.796 1.88631 -0.760907 0
M  V30 10436 C 943.151 1.79059 0.703957 0
M  V30 10437 O 942.444 1.18261 1.50748 0
M  V30 10438 C 942.638 3.37834 -1.16631 0
M  V30 10439 C 942.467 3.61929 -2.66904 0
M  V30 10440 C 941.237 3.7908 -3.34105 0
M  V30 10441 C 943.435 3.622 -3.65124 0
M  V30 10442 N 941.417 3.90949 -4.73321 0
M  V30 10443 C 942.788 3.79827 -4.90032 0
M  V30 10444 C 944.843 3.45308 -3.58701 0
M  V30 10445 C 943.546 3.82312 -6.09287 0
M  V30 10446 C 945.572 3.49078 -4.77387 0
M  V30 10447 C 944.934 3.67206 -6.01115 0
M  V30 10448 H 941.033 0.708704 -0.330549 0
M  V30 10449 H 943.617 1.41739 -1.33485 0
M  V30 10450 H 941.788 3.83413 -0.6204 0
M  V30 10451 H 943.52 3.96026 -0.83342 0
M  V30 10452 H 940.275 3.78619 -2.84508 0
M  V30 10453 H 940.699 4.00696 -5.45685 0
M  V30 10454 H 945.341 3.30236 -2.64015 0
M  V30 10455 H 943.059 3.96171 -7.04325 0
M  V30 10456 H 946.645 3.37277 -4.74063 0
M  V30 10457 H 945.525 3.70017 -6.91417 0
M  V30 10458 N 943.028 0.824394 1.34319 0
M  V30 10459 C 943.938 0.24932 2.33271 0
M  V30 10460 C 944.954 -0.617066 1.62691 0
M  V30 10461 O 946.13 -0.524616 1.94447 0
M  V30 10462 C 943.195 -0.578094 3.41846 0
M  V30 10463 C 942.256 0.310866 4.28173 0
M  V30 10464 C 941.489 -0.477153 5.31563 0
M  V30 10465 O 941.712 -1.71028 5.44156 0
M  V30 10466 O 940.646 0.141287 6.01734 0
M  V30 10467 H 944.472 1.06837 2.84288 0
M  V30 10468 H 942.057 0.58657 1.37403 0
M  V30 10469 H 943.939 -1.04878 4.0814 0
M  V30 10470 H 942.614 -1.37444 2.93071 0
M  V30 10471 H 941.521 0.829081 3.64797 0
M  V30 10472 H 942.854 1.07161 4.80393 0
M  V30 10473 N 944.506 -1.46559 0.579492 0
M  V30 10474 C 945.416 -2.34066 -0.15816 0
M  V30 10475 C 946.432 -1.49556 -0.88932 0
M  V30 10476 O 947.608 -1.82434 -0.853226 0
M  V30 10477 C 944.673 -3.26683 -1.161 0
M  V30 10478 C 943.734 -4.27092 -0.434855 0
M  V30 10479 C 942.967 -5.15283 -1.38992 0
M  V30 10480 O 943.19 -5.06345 -2.62623 0
M  V30 10481 O 942.124 -5.95099 -0.902253 0
M  V30 10482 H 945.95 -2.98488 0.560234 0
M  V30 10483 H 943.535 -1.45482 0.339918 0
M  V30 10484 H 945.417 -3.8383 -1.73932 0
M  V30 10485 H 944.092 -2.64862 -1.86091 0
M  V30 10486 H 942.999 -3.73641 0.185224 0
M  V30 10487 H 944.332 -4.9169 0.224031 0
M  V30 10488 N 945.984 -0.3171 -1.54377 0
M  V30 10489 C 946.934 0.567199 -2.20832 0
M  V30 10490 C 947.918 1.08661 -1.18666 0
M  V30 10491 O 949.11 1.0247 -1.44322 0
M  V30 10492 C 946.239 1.73079 -2.96477 0
M  V30 10493 C 945.325 1.22658 -4.05975 0
M  V30 10494 N 945.716 0.441565 -5.03869 0
M  V30 10495 C 944.014 1.50589 -4.19808 0
M  V30 10496 C 944.715 0.171063 -5.81448 0
M  V30 10497 N 943.691 0.755389 -5.38326 0
M  V30 10498 H 947.493 -0.0399349 -2.93873 0
M  V30 10499 H 945.007 -0.122639 -1.61936 0
M  V30 10500 H 947.004 2.37601 -3.42566 0
M  V30 10501 H 945.664 2.34146 -2.24957 0
M  V30 10502 H 946.675 0.0849921 -5.1783 0
M  V30 10503 H 943.352 2.12288 -3.595 0
M  V30 10504 H 944.742 -0.460484 -6.7032 0
M  V30 10505 N 947.462 1.57535 -0.0451378 0
M  V30 10506 C 948.392 2.14208 0.929372 0
M  V30 10507 C 949.373 1.06221 1.32858 0
M  V30 10508 O 950.558 1.34132 1.40436 0
M  V30 10509 C 947.688 2.68217 2.20629 0
M  V30 10510 C 946.642 3.81134 1.94734 0
M  V30 10511 C 945.968 4.21636 3.28828 0
M  V30 10512 C 947.268 5.06531 1.27374 0
M  V30 10513 H 948.962 2.95886 0.457348 0
M  V30 10514 H 946.508 1.42332 0.218544 0
M  V30 10515 H 948.461 3.06502 2.89196 0
M  V30 10516 H 947.185 1.83722 2.70026 0
M  V30 10517 H 945.844 3.43312 1.28579 0
M  V30 10518 H 945.492 3.34099 3.76014 0
M  V30 10519 H 945.192 4.97736 3.12302 0
M  V30 10520 H 946.716 4.62516 3.98637 0
M  V30 10521 H 948.13 5.423 1.85967 0
M  V30 10522 H 946.527 5.87735 1.21194 0
M  V30 10523 H 947.597 4.84261 0.248913 0
M  V30 10524 N 948.94 -0.228186 1.55939 0
M  V30 10525 C 950.186 -0.954964 1.78909 0
M  V30 10526 C 950.519 -1.8425 0.613648 0
M  V30 10527 O 949.794 -1.90604 -0.38737 0
M  V30 10528 C 950.077 -1.79957 3.1191 0
M  V30 10529 C 949.93 -0.938968 4.3989 0
M  V30 10530 C 951.249 -2.77859 3.41295 0
M  V30 10531 H 948.368 -0.345745 0.650868 0
M  V30 10532 H 951.01 -0.224244 1.88672 0
M  V30 10533 H 949.16 -2.42256 3.03717 0
M  V30 10534 H 950.832 -0.333225 4.60095 0
M  V30 10535 H 949.075 -0.244096 4.33113 0
M  V30 10536 H 949.746 -1.56416 5.29375 0
M  V30 10537 H 952.222 -2.25695 3.49572 0
M  V30 10538 H 951.098 -3.34062 4.35538 0
M  V30 10539 H 951.359 -3.55266 2.63132 0
M  V30 10540 N 950.418 -1.49637 -0.494624 0
M  V30 10541 C 951.381 -1.66252 -1.57775 0
M  V30 10542 C 952.381 -0.534054 -1.51672 0
M  V30 10543 O 953.571 -0.800637 -1.54711 0
M  V30 10544 C 950.703 -1.66584 -2.97426 0
M  V30 10545 H 951.896 -2.62864 -1.4437 0
M  V30 10546 H 949.449 -1.38764 -0.719323 0
M  V30 10547 H 950.184 -0.715798 -3.16302 0
M  V30 10548 H 949.969 -2.48543 -3.03264 0
M  V30 10549 H 951.459 -1.81474 -3.76108 0
M  V30 10550 N 951.896 0.746133 -1.38819 0
M  V30 10551 C 952.843 1.86001 -1.36647 0
M  V30 10552 C 953.813 1.6453 -0.227849 0
M  V30 10553 O 954.998 1.86092 -0.421241 0
M  V30 10554 C 952.138 3.23388 -1.20474 0
M  V30 10555 C 951.251 3.5664 -2.43786 0
M  V30 10556 C 950.386 4.8337 -2.20287 0
M  V30 10557 C 949.425 5.09431 -3.39332 0
M  V30 10558 N 948.562 6.2736 -3.1522 0
M  V30 10559 H 953.402 1.87192 -2.31869 0
M  V30 10560 H 950.939 0.914838 -1.15192 0
M  V30 10561 H 952.897 4.02679 -1.09112 0
M  V30 10562 H 951.527 3.21505 -0.288874 0
M  V30 10563 H 950.579 2.72135 -2.65794 0
M  V30 10564 H 951.891 3.71823 -3.3249 0
M  V30 10565 H 951.045 5.70619 -2.06103 0
M  V30 10566 H 949.784 4.70341 -1.28961 0
M  V30 10567 H 948.789 4.20648 -3.54027 0
M  V30 10568 H 950.014 5.24354 -4.31544 0
M  V30 10569 H 947.96 6.15639 -2.26549 0
M  V30 10570 H 947.877 6.43078 -3.97476 0
M  V30 10571 H 949.145 7.17477 -3.04707 0
M  V30 10572 N 953.375 1.23811 0.975125 0
M  V30 10573 C 954.623 1.07124 1.71373 0
M  V30 10574 C 954.944 -0.391864 1.91022 0
M  V30 10575 O 954.214 -1.28041 1.48265 0
M  V30 10576 H 952.794 0.393415 0.635007 0
M  V30 10577 H 955.456 1.55612 1.17349 0
M  V30 10578 H 954.552 1.56338 2.7012 0
M  V30 10579 N 954.853 -1.17469 1.05066 0
M  V30 10580 C 956.099 -1.87976 0.761113 0
M  V30 10581 C 956.432 -1.80756 -0.709995 0
M  V30 10582 O 955.707 -1.21469 -1.51906 0
M  V30 10583 C 955.99 -3.38055 1.2406 0
M  V30 10584 C 955.843 -3.54032 2.77455 0
M  V30 10585 C 957.162 -4.32036 0.838612 0
M  V30 10586 H 954.281 -0.682573 0.277963 0
M  V30 10587 H 956.923 -1.38147 1.30443 0
M  V30 10588 H 955.073 -3.80622 0.778388 0
M  V30 10589 H 956.745 -3.20489 3.3179 0
M  V30 10590 H 954.988 -2.96352 3.16793 0
M  V30 10591 H 955.659 -4.59377 3.06066 0
M  V30 10592 H 958.135 -3.97303 1.23651 0
M  V30 10593 H 957.011 -5.35583 1.20173 0
M  V30 10594 H 957.272 -4.41349 -0.257498 0
M  V30 10595 N 956.331 -0.831506 -1.3388 0
M  V30 10596 C 957.278 -0.257449 -2.2936 0
M  V30 10597 C 958.248 0.622604 -1.5399 0
M  V30 10598 O 959.433 0.562432 -1.82322 0
M  V30 10599 C 956.573 0.567587 -3.404 0
M  V30 10600 C 955.686 -0.335666 -4.30694 0
M  V30 10601 C 954.821 0.499762 -5.28844 0
M  V30 10602 C 953.86 -0.402343 -6.10776 0
M  V30 10603 N 952.997 0.39452 -7.00991 0
M  V30 10604 H 957.837 -1.077 -2.77857 0
M  V30 10605 H 955.374 -0.542589 -1.36727 0
M  V30 10606 H 957.332 1.06133 -4.03474 0
M  V30 10607 H 955.962 1.35217 -2.93115 0
M  V30 10608 H 955.014 -0.94768 -3.68406 0
M  V30 10609 H 956.326 -1.02896 -4.88072 0
M  V30 10610 H 955.48 1.05763 -5.9741 0
M  V30 10611 H 954.219 1.22652 -4.72025 0
M  V30 10612 H 953.224 -0.972288 -5.41135 0
M  V30 10613 H 954.449 -1.12735 -6.69677 0
M  V30 10614 H 952.395 1.1048 -6.4663 0
M  V30 10615 H 952.312 -0.240209 -7.55618 0
M  V30 10616 H 953.58 0.934867 -7.73874 0
M  V30 10617 N 957.809 1.4625 -0.587256 0
M  V30 10618 C 959.034 2.07252 -0.0784517 0
M  V30 10619 C 959.459 1.43239 1.21919 0
M  V30 10620 O 958.817 0.517791 1.73749 0
M  V30 10621 C 958.865 3.60534 0.0691037 0
M  V30 10622 O 957.969 3.96773 1.12448 0
M  V30 10623 H 957.31 0.660825 -0.064859 0
M  V30 10624 H 959.84 1.87819 -0.811491 0
M  V30 10625 H 959.85 4.0708 0.273826 0
M  V30 10626 H 958.525 4.06516 -0.878514 0
M  V30 10627 H 957.102 3.6193 0.897852 0
M  V30 10628 N 959.287 0.325282 1.54207 0
M  V30 10629 C 960.512 -0.281418 2.05482 0
M  V30 10630 C 960.937 -1.44869 1.19977 0
M  V30 10631 O 960.295 -1.80088 0.209275 0
M  V30 10632 C 960.343 -0.692029 3.53897 0
M  V30 10633 O 959.447 -1.7942 3.71325 0
M  V30 10634 H 958.788 -0.0504872 0.662078 0
M  V30 10635 H 961.318 0.474191 1.99029 0
M  V30 10636 H 961.328 -0.974219 3.96198 0
M  V30 10637 H 960.003 0.161709 4.15586 0
M  V30 10638 H 958.58 -1.51069 3.40929 0
M  V30 10639 N 960.765 -1.57509 0.0534917 0
M  V30 10640 C 962.042 -1.84137 -0.659767 0
M  V30 10641 C 962.422 -0.942362 -1.88899 0
M  V30 10642 O 961.77 -0.00398566 -2.285 0
M  V30 10643 C 961.98 -3.33919 -1.01486 0
M  V30 10644 C 963.328 -4.00989 -1.39616 0
M  V30 10645 O 964.352 -3.38557 -1.10713 0
M  V30 10646 O 963.211 -5.11071 -1.93567 0
M  V30 10647 H 960.305 -0.760081 -0.325893 0
M  V30 10648 H 962.851 -1.69497 0.0830315 0
M  V30 10649 H 961.623 -3.91046 -0.141041 0
M  V30 10650 H 961.246 -3.53755 -1.81503 0
M  V30 10651 N 962.243 0.219913 -1.56058 0
M  V30 10652 C 963.489 0.945463 -1.79412 0
M  V30 10653 C 963.822 1.83922 -0.62341 0
M  V30 10654 O 963.097 1.90806 0.377256 0
M  V30 10655 C 963.38 1.783 -3.1286 0
M  V30 10656 C 963.233 0.915626 -4.40382 0
M  V30 10657 C 964.552 2.76045 -3.42764 0
M  V30 10658 H 961.671 0.342288 -0.652693 0
M  V30 10659 H 964.313 0.214235 -1.88788 0
M  V30 10660 H 962.463 2.40642 -3.04998 0
M  V30 10661 H 964.135 0.30882 -4.60265 0
M  V30 10662 H 962.378 0.221124 -4.33236 0
M  V30 10663 H 963.049 1.53607 -5.30197 0
M  V30 10664 H 965.525 2.23838 -3.50764 0
M  V30 10665 H 964.401 3.31748 -4.37304 0
M  V30 10666 H 964.662 3.53866 -2.65012 0
M  V30 10667 N 963.721 1.49897 0.486681 0
M  V30 10668 C 964.946 1.64106 1.26823 0
M  V30 10669 C 965.371 0.317967 1.85393 0
M  V30 10670 O 964.729 -0.71626 1.66551 0
M  V30 10671 C 964.777 2.72301 2.36399 0
M  V30 10672 O 963.881 2.32469 3.40634 0
M  V30 10673 H 963.222 0.548794 0.373793 0
M  V30 10674 H 965.752 1.96177 0.581017 0
M  V30 10675 H 965.762 2.94906 2.81948 0
M  V30 10676 H 964.437 3.68335 1.93137 0
M  V30 10677 H 963.014 2.20251 3.00905 0
M  V30 10678 N 965.199 -0.738761 1.39212 0
M  V30 10679 C 966.61 -1.31684 1.32348 0
M  V30 10680 C 966.961 -1.96195 -0.0139041 0
M  V30 10681 O 966.086 -1.96056 -0.916025 0
M  V30 10682 C 966.681 -2.39444 2.39691 0
M  V30 10683 C 965.24 -2.92935 2.36359 0
M  V30 10684 C 964.387 -1.66465 2.21776 0
M  V30 10685 H 967.338 -0.536543 1.49355 0
M  V30 10686 H 967.359 -3.19744 2.06262 0
M  V30 10687 H 966.871 -1.92463 3.37016 0
M  V30 10688 H 964.972 -3.44207 1.42662 0
M  V30 10689 H 965.085 -3.46306 3.31073 0
M  V30 10690 H 963.449 -1.90657 1.68884 0
M  V30 10691 H 964.232 -1.21541 3.21065 0
M  V30 10692 N 966.677 -1.24326 -0.968545 0
M  V30 10693 C 968.088 -1.07561 -1.52603 0
M  V30 10694 C 968.439 0.353245 -1.92994 0
M  V30 10695 O 967.564 1.24151 -1.77244 0
M  V30 10696 C 968.159 -1.94634 -2.77314 0
M  V30 10697 C 966.718 -1.82095 -3.29421 0
M  V30 10698 C 965.865 -1.8962 -2.02335 0
M  V30 10699 H 968.816 -1.37815 -0.786932 0
M  V30 10700 H 968.837 -1.47812 -3.50616 0
M  V30 10701 H 968.349 -2.98621 -2.47885 0
M  V30 10702 H 966.45 -0.809376 -3.63703 0
M  V30 10703 H 966.563 -2.66142 -3.98378 0
M  V30 10704 H 964.927 -1.33339 -2.17009 0
M  V30 10705 H 965.71 -2.95185 -1.75273 0
M  V30 10706 N 968.156 1.1691 -1.05688 0
M  V30 10707 C 969.086 2.23275 -0.683402 0
M  V30 10708 C 970.067 1.6704 0.321206 0
M  V30 10709 O 971.252 1.93191 0.197691 0
M  V30 10710 C 968.382 3.47244 -0.0626006 0
M  V30 10711 C 967.336 4.16333 -0.992513 0
M  V30 10712 C 966.662 5.34182 -0.23533 0
M  V30 10713 C 967.962 4.68002 -2.31886 0
M  V30 10714 H 969.656 2.54771 -1.57264 0
M  V30 10715 H 967.202 1.2246 -0.757606 0
M  V30 10716 H 969.155 4.20874 0.210503 0
M  V30 10717 H 967.879 3.1503 0.861616 0
M  V30 10718 H 966.538 3.44622 -1.25026 0
M  V30 10719 H 966.186 4.9822 0.69181 0
M  V30 10720 H 965.886 5.81346 -0.855002 0
M  V30 10721 H 967.41 6.10592 0.0303717 0
M  V30 10722 H 968.824 5.33244 -2.10531 0
M  V30 10723 H 967.221 5.25764 -2.89296 0
M  V30 10724 H 968.291 3.84541 -2.95391 0
M  V30 10725 N 969.634 0.838594 1.33437 0
M  V30 10726 C 970.882 0.433312 1.974 0
M  V30 10727 C 971.203 -1.01078 1.66758 0
M  V30 10728 O 970.473 -1.70406 0.966373 0
M  V30 10729 H 969.053 0.15724 0.730263 0
M  V30 10730 H 971.715 1.07149 1.62804 0
M  V30 10731 H 970.811 0.565144 3.06941 0
M  V30 10732 N 971.112 -1.45937 0.595003 0
M  V30 10733 C 972.044 -2.28575 -0.169137 0
M  V30 10734 C 973.057 -1.39226 -0.843792 0
M  V30 10735 O 974.246 -1.63716 -0.711291 0
M  V30 10736 C 971.346 -3.14616 -1.25976 0
M  V30 10737 C 970.519 -4.32166 -0.67466 0
M  V30 10738 C 969.578 -4.99511 -1.65456 0
M  V30 10739 O 968.604 -5.56712 -1.18578 0
M  V30 10740 N 969.806 -4.97643 -2.98885 0
M  V30 10741 H 972.571 -2.94797 0.539908 0
M  V30 10742 H 970.132 -1.55985 0.433614 0
M  V30 10743 H 972.124 -3.56534 -1.91483 0
M  V30 10744 H 970.694 -2.50387 -1.8715 0
M  V30 10745 H 969.914 -3.93882 0.158184 0
M  V30 10746 H 971.202 -5.08116 -0.263753 0
M  V30 10747 H 970.6 -4.52438 -3.39583 0
M  V30 10748 H 969.157 -5.43463 -3.59848 0
M  V30 10749 N 972.59 -0.333456 -1.54032 0
M  V30 10750 C 973.54 0.543745 -2.21421 0
M  V30 10751 C 974.524 1.07396 -1.19812 0
M  V30 10752 O 975.716 1.00934 -1.45401 0
M  V30 10753 C 972.845 1.69925 -2.98296 0
M  V30 10754 C 971.931 1.18345 -4.07253 0
M  V30 10755 N 972.322 0.388098 -5.04309 0
M  V30 10756 C 970.62 1.46128 -4.21382 0
M  V30 10757 C 971.321 0.109383 -5.81597 0
M  V30 10758 N 970.297 0.69825 -5.39097 0
M  V30 10759 H 974.099 -0.0711018 -2.93814 0
M  V30 10760 H 971.613 -0.139807 -1.61797 0
M  V30 10761 H 973.61 2.33954 -3.45067 0
M  V30 10762 H 972.27 2.31747 -2.27428 0
M  V30 10763 H 973.281 0.0300645 -5.17891 0
M  V30 10764 H 969.958 2.08463 -3.61731 0
M  V30 10765 H 971.348 -0.531554 -6.69794 0
M  V30 10766 N 974.068 1.57479 -0.061844 0
M  V30 10767 C 974.978 2.15645 0.923826 0
M  V30 10768 C 975.994 1.117 1.33413 0
M  V30 10769 O 977.17 1.4392 1.40887 0
M  V30 10770 C 974.235 2.69857 2.17665 0
M  V30 10771 C 973.296 3.88638 1.8237 0
M  V30 10772 C 972.529 4.40256 3.01679 0
M  V30 10773 O 972.752 3.90908 4.15388 0
M  V30 10774 O 971.686 5.31713 2.82073 0
M  V30 10775 H 975.512 3.0021 0.459094 0
M  V30 10776 H 973.097 1.48534 0.160665 0
M  V30 10777 H 974.979 3.04647 2.9115 0
M  V30 10778 H 973.654 1.88357 2.63255 0
M  V30 10779 H 972.561 3.58719 1.06167 0
M  V30 10780 H 973.894 4.71401 1.4157 0
M  V30 10781 N 975.546 -0.211634 1.56173 0
M  V30 10782 C 976.774 -0.951184 1.83739 0
M  V30 10783 C 977.189 -1.7754 0.642252 0
M  V30 10784 O 976.546 -1.78302 -0.389174 0
M  V30 10785 C 976.597 -1.86075 3.09933 0
M  V30 10786 O 976.318 -1.06983 4.24837 0
M  V30 10787 C 977.819 -2.71337 3.50559 0
M  V30 10788 H 975.039 -0.278312 0.61056 0
M  V30 10789 H 977.583 -0.223871 2.03271 0
M  V30 10790 H 975.738 -2.54189 2.92347 0
M  V30 10791 H 976.152 -1.68815 4.9659 0
M  V30 10792 H 977.626 -3.30843 4.41868 0
M  V30 10793 H 978.103 -3.44226 2.72773 0
M  V30 10794 H 978.709 -2.0862 3.70618 0
M  V30 10795 N 977.024 -1.50153 -0.478725 0
M  V30 10796 C 978.272 -1.60443 -1.22892 0
M  V30 10797 C 978.593 -0.303276 -1.92627 0
M  V30 10798 O 977.863 0.678798 -1.83764 0
M  V30 10799 H 976.443 -0.591205 -0.456602 0
M  V30 10800 H 979.105 -1.86893 -0.552905 0
M  V30 10801 H 978.201 -2.41175 -1.98094 0
M  V30 10802 N 978.502 0.731368 -1.39602 0
M  V30 10803 C 979.75 1.48805 -1.36753 0
M  V30 10804 C 980.071 1.94969 0.034676 0
M  V30 10805 O 979.341 1.69243 0.986591 0
M  V30 10806 H 977.921 0.55203 -0.503261 0
M  V30 10807 H 980.583 0.868013 -1.74504 0
M  V30 10808 H 979.679 2.36844 -2.03252 0
M  V30 10809 N 979.98 1.24838 0.961938 0
M  V30 10810 C 981.205 1.11967 1.7458 0
M  V30 10811 C 981.63 -0.323287 1.85301 0
M  V30 10812 O 980.988 -1.23412 1.32812 0
M  V30 10813 C 981.036 1.77066 3.14134 0
M  V30 10814 O 980.14 1.04534 3.98932 0
M  V30 10815 H 979.481 0.391338 0.536424 0
M  V30 10816 H 982.011 1.65259 1.20626 0
M  V30 10817 H 982.021 1.83056 3.64629 0
M  V30 10818 H 980.696 2.82052 3.05646 0
M  V30 10819 H 979.273 1.06372 3.57407 0
M  V30 10820 N 981.458 -1.16348 1.06306 0
M  V30 10821 C 982.869 -1.68491 0.80422 0
M  V30 10822 C 983.22 -1.84327 -0.672159 0
M  V30 10823 O 982.345 -1.53892 -1.52139 0
M  V30 10824 C 982.94 -3.06048 1.45328 0
M  V30 10825 C 981.499 -3.55311 1.24221 0
M  V30 10826 C 980.646 -2.31291 1.5297 0
M  V30 10827 H 983.597 -1.00708 1.22652 0
M  V30 10828 H 983.618 -3.70451 0.868674 0
M  V30 10829 H 983.13 -2.9449 2.52779 0
M  V30 10830 H 981.231 -3.72128 0.187447 0
M  V30 10831 H 981.344 -4.37397 1.95502 0
M  V30 10832 H 979.708 -2.3631 0.950241 0
M  V30 10833 H 980.491 -2.22331 2.6158 0
M  V30 10834 N 982.937 -0.845659 -1.3299 0
M  V30 10835 C 984.162 -0.457435 -2.02293 0
M  V30 10836 C 984.587 0.935634 -1.63179 0
M  V30 10837 O 983.945 1.61297 -0.827835 0
M  V30 10838 C 983.993 -0.593665 -3.5568 0
M  V30 10839 O 983.097 0.37729 -4.10671 0
M  V30 10840 H 982.438 -0.185022 -0.637701 0
M  V30 10841 H 984.968 -1.14237 -1.69738 0
M  V30 10842 H 984.978 -0.477834 -4.05192 0
M  V30 10843 H 983.653 -1.60957 -3.83491 0
M  V30 10844 H 982.23 0.218448 -3.7226 0
M  V30 10845 N 984.415 1.45619 -0.602734 0
M  V30 10846 C 985.362 2.30493 0.118944 0
M  V30 10847 C 986.332 1.41816 0.864723 0
M  V30 10848 O 987.517 1.7075 0.851424 0
M  V30 10849 C 984.657 3.2664 1.11356 0
M  V30 10850 C 983.77 4.3042 0.369161 0
M  V30 10851 C 982.905 5.13678 1.35307 0
M  V30 10852 C 981.944 6.09189 0.596207 0
M  V30 10853 N 981.081 6.85245 1.52916 0
M  V30 10854 H 985.921 2.91672 -0.610836 0
M  V30 10855 H 983.458 1.43731 -0.313032 0
M  V30 10856 H 985.416 3.80846 1.7033 0
M  V30 10857 H 984.046 2.67225 1.81081 0
M  V30 10858 H 983.098 3.78913 -0.335994 0
M  V30 10859 H 984.41 4.98307 -0.221603 0
M  V30 10860 H 983.564 5.7226 2.01502 0
M  V30 10861 H 982.303 4.45798 1.97777 0
M  V30 10862 H 981.308 5.49743 -0.0793984 0
M  V30 10863 H 982.533 6.79096 -0.0233734 0
M  V30 10864 H 980.479 6.20058 2.14159 0
M  V30 10865 H 980.396 7.49467 0.991713 0
M  V30 10866 H 981.664 7.48371 2.18083 0
M  V30 10867 N 985.893 0.34162 1.53853 0
M  V30 10868 C 986.825 -0.550383 2.22494 0
M  V30 10869 C 987.838 -1.0655 1.23089 0
M  V30 10870 O 989.027 -0.975985 1.49455 0
M  V30 10871 C 986.127 -1.76995 2.89009 0
M  V30 10872 C 985.3 -1.39045 4.14711 0
M  V30 10873 C 984.359 -2.46947 4.64654 0
M  V30 10874 O 983.385 -2.10336 5.28912 0
M  V30 10875 N 984.587 -3.7817 4.40418 0
M  V30 10876 H 987.352 0.037456 2.99677 0
M  V30 10877 H 984.913 0.165654 1.6105 0
M  V30 10878 H 986.905 -2.48608 3.19337 0
M  V30 10879 H 985.475 -2.2652 2.15424 0
M  V30 10880 H 984.695 -0.505161 3.9095 0
M  V30 10881 H 985.983 -1.11284 4.96481 0
M  V30 10882 H 985.381 -4.10704 3.89023 0
M  V30 10883 H 983.938 -4.45959 4.75356 0
M  V30 10884 N 987.371 -1.57444 0.0701946 0
M  V30 10885 C 988.303 -2.09611 -0.927142 0
M  V30 10886 C 989.316 -1.02791 -1.26245 0
M  V30 10887 O 990.505 -1.30309 -1.21992 0
M  V30 10888 C 987.605 -2.54015 -2.24342 0
M  V30 10889 C 986.778 -3.84389 -2.08719 0
M  V30 10890 C 985.837 -4.14904 -3.23638 0
M  V30 10891 O 984.863 -4.84528 -2.98699 0
M  V30 10892 N 986.065 -3.68322 -4.48686 0
M  V30 10893 H 988.83 -2.95803 -0.481753 0
M  V30 10894 H 986.391 -1.61487 -0.115572 0
M  V30 10895 H 988.383 -2.71492 -3.00124 0
M  V30 10896 H 986.953 -1.72969 -2.60385 0
M  V30 10897 H 986.173 -3.76308 -1.17415 0
M  V30 10898 H 987.461 -4.69729 -1.9553 0
M  V30 10899 H 986.859 -3.12073 -4.71834 0
M  V30 10900 H 985.416 -3.91002 -5.21499 0
M  V30 10901 N 988.849 0.203349 -1.56283 0
M  V30 10902 C 989.782 1.27982 -1.88934 0
M  V30 10903 C 990.76 1.44345 -0.748555 0
M  V30 10904 O 991.944 1.59867 -0.998741 0
M  V30 10905 C 989.071 2.64762 -2.11231 0
M  V30 10906 C 988.117 2.65315 -3.33932 0
M  V30 10907 S 988.95 2.17568 -4.8931 0
M  V30 10908 C 990.106 3.56189 -5.14665 0
M  V30 10909 H 990.339 1.00095 -2.79943 0
M  V30 10910 H 987.872 0.406458 -1.48954 0
M  V30 10911 H 989.83 3.43501 -2.2476 0
M  V30 10912 H 988.491 2.89864 -1.20986 0
M  V30 10913 H 987.684 3.6587 -3.46634 0
M  V30 10914 H 987.286 1.94652 -3.19353 0
M  V30 10915 H 989.578 4.52001 -5.0468 0
M  V30 10916 H 990.521 3.48387 -6.16467 0
M  V30 10917 H 990.929 3.50719 -4.42331 0
M  V30 10918 N 990.327 1.50405 0.470755 0
M  V30 10919 C 991.743 1.37838 0.804534 0
M  V30 10920 C 991.943 0.434743 1.96754 0
M  V30 10921 O 990.999 -0.122507 2.52203 0
M  V30 10922 C 992.312 2.79212 1.11629 0
M  V30 10923 C 993.86 2.88129 1.22272 0
M  V30 10924 C 994.335 4.30337 1.5676 0
M  V30 10925 N 995.826 4.3329 1.63751 0
M  V30 10926 C 996.561 5.4032 1.91942 0
M  V30 10927 N 996.057 6.57558 2.18151 0
M  V30 10928 N 997.85 5.27764 1.93446 0
M  V30 10929 H 990.001 2.10332 -0.295689 0
M  V30 10930 H 992.264 0.945429 -0.0697733 0
M  V30 10931 H 991.97 3.50103 0.334778 0
M  V30 10932 H 991.844 3.16475 2.0524 0
M  V30 10933 H 994.231 2.17457 1.9949 0
M  V30 10934 H 994.312 2.54409 0.2664 0
M  V30 10935 H 993.956 5.01547 0.800817 0
M  V30 10936 H 993.886 4.61545 2.53543 0
M  V30 10937 H 996.377 3.48752 1.45535 0
M  V30 10938 H 996.69 7.34935 2.38936 0
M  V30 10939 H 995.035 6.60732 2.15542 0
M  V30 10940 H 998.226 4.35169 1.72468 0
M  V30 10941 H 998.399 6.11264 2.15081 0
M  V30 10942 N 991.805 -0.723954 1.39988 0
M  V30 10943 C 993.03 -1.5182 1.41299 0
M  V30 10944 C 993.455 -1.88096 0.0122636 0
M  V30 10945 O 992.813 -1.52687 -0.977559 0
M  V30 10946 C 992.861 -2.77532 2.30235 0
M  V30 10947 O 991.965 -3.73903 1.73984 0
M  V30 10948 H 991.306 -0.458058 0.480707 0
M  V30 10949 H 993.836 -0.892291 1.84118 0
M  V30 10950 H 993.846 -3.2615 2.45132 0
M  V30 10951 H 992.521 -2.50462 3.32026 0
M  V30 10952 H 991.098 -3.32715 1.68389 0
M  V30 10953 N 993.283 -1.25346 -0.955304 0
M  V30 10954 C 994.529 -1.10218 -1.70235 0
M  V30 10955 C 994.862 0.356124 -1.90907 0
M  V30 10956 O 994.137 1.26253 -1.47954 0
M  V30 10957 C 994.42 -1.85627 -3.08569 0
M  V30 10958 C 994.273 -3.39281 -2.95311 0
M  V30 10959 C 995.592 -1.63886 -4.08448 0
M  V30 10960 H 992.711 -0.401781 -0.617852 0
M  V30 10961 H 995.353 -1.5417 -1.11048 0
M  V30 10962 H 993.503 -1.48269 -3.59094 0
M  V30 10963 H 995.175 -3.8631 -2.52116 0
M  V30 10964 H 993.418 -3.67027 -2.31244 0
M  V30 10965 H 994.089 -3.87258 -3.93364 0
M  V30 10966 H 996.565 -1.96406 -3.6683 0
M  V30 10967 H 995.441 -2.19087 -5.03281 0
M  V30 10968 H 995.702 -0.580021 -4.38279 0
M  V30 10969 N 994.761 1.15782 -1.06922 0
M  V30 10970 C 996.01 1.85807 -0.784774 0
M  V30 10971 C 996.323 1.82967 0.691551 0
M  V30 10972 O 997.529 2.48632 1.0906 0
M  V30 10973 C 995.985 3.33469 -1.35375 0
M  V30 10974 C 995.593 3.44766 -2.86077 0
M  V30 10975 C 997.337 4.08707 -1.14713 0
M  V30 10976 C 995.244 4.86551 -3.36187 0
M  V30 10977 H 994.174 0.696046 -0.28989 0
M  V30 10978 H 996.825 1.30629 -1.28873 0
M  V30 10979 H 995.207 3.88292 -0.77754 0
M  V30 10980 H 996.381 3.00073 -3.49704 0
M  V30 10981 H 994.696 2.82969 -3.05479 0
M  V30 10982 H 997.293 5.13336 -1.49633 0
M  V30 10983 H 997.636 4.16211 -0.0858868 0
M  V30 10984 H 998.169 3.60142 -1.68946 0
M  V30 10985 H 994.908 4.84229 -4.41818 0
M  V30 10986 H 994.428 5.31844 -2.77312 0
M  V30 10987 H 996.107 5.55392 -3.31887 0
M  V30 10988 N 996.239 0.8527 1.3254 0
M  V30 10989 C 997.464 0.468157 2.02047 0
M  V30 10990 C 997.889 -0.926967 1.63673 0
M  V30 10991 O 997.247 -1.60855 0.836378 0
M  V30 10992 C 997.295 0.612519 3.5536 0
M  V30 10993 O 996.399 -0.355506 4.10865 0
M  V30 10994 H 995.74 0.188401 0.636711 0
M  V30 10995 H 998.27 1.15135 1.6913 0
M  V30 10996 H 998.28 0.499315 4.04933 0
M  V30 10997 H 996.955 1.62988 3.82632 0
M  V30 10998 H 995.532 -0.198703 3.7237 0
M  V30 10999 N 997.718 -1.45297 0.610449 0
M  V30 11000 C 998.964 -2.02518 0.106917 0
M  V30 11001 C 999.297 -1.47747 -1.26034 0
M  V30 11002 O 998.572 -0.65329 -1.832 0
M  V30 11003 C 998.855 -3.6003 0.0710975 0
M  V30 11004 C 998.708 -4.25128 1.46922 0
M  V30 11005 C 1000.03 -4.35778 -0.61524 0
M  V30 11006 H 997.146 -0.735896 0.040327 0
M  V30 11007 H 999.788 -1.73117 0.782968 0
M  V30 11008 H 997.938 -3.85209 -0.504611 0
M  V30 11009 H 999.61 -4.11125 2.09223 0
M  V30 11010 H 997.853 -3.83418 2.02911 0
M  V30 11011 H 998.524 -5.34046 1.39637 0
M  V30 11012 H 1001 -4.1591 -0.125871 0
M  V30 11013 H 999.876 -5.45506 -0.609419 0
M  V30 11014 H 1000.14 -4.08859 -1.68186 0
M  V30 11015 N 999.196 -0.349774 -1.5367 0
M  V30 11016 C 1000.42 0.246038 -2.05432 0
M  V30 11017 C 1000.84 1.43719 -1.22435 0
M  V30 11018 O 1000.2 1.80622 -0.261166 0
M  V30 11019 C 1000.25 0.65501 -3.55516 0
M  V30 11020 O 999.968 -0.488782 -4.35365 0
M  V30 11021 C 1001.47 1.31088 -4.23475 0
M  V30 11022 H 998.689 0.0463952 -0.669394 0
M  V30 11023 H 1001.23 -0.503566 -1.98203 0
M  V30 11024 H 999.388 1.35455 -3.62947 0
M  V30 11025 H 999.802 -0.161528 -5.24251 0
M  V30 11026 H 1001.28 1.54774 -5.29857 0
M  V30 11027 H 1001.75 2.26636 -3.76208 0
M  V30 11028 H 1002.36 0.653211 -4.20254 0
M  V30 11029 N 1000.67 1.57404 -0.0785433 0
M  V30 11030 C 1001.9 1.98492 0.601292 0
M  V30 11031 C 1002.32 0.956832 1.61945 0
M  V30 11032 O 1001.68 -0.0767502 1.81137 0
M  V30 11033 C 1001.73 3.38596 1.24036 0
M  V30 11034 O 1000.83 3.38461 2.35622 0
M  V30 11035 H 1000.17 0.645882 0.154054 0
M  V30 11036 H 1002.7 2.04012 -0.155056 0
M  V30 11037 H 1002.71 3.75929 1.5856 0
M  V30 11038 H 1001.39 4.12952 0.494341 0
M  V30 11039 H 999.967 3.12906 2.02841 0
M  V30 11040 N 1002.15 -0.195058 1.56388 0
M  V30 11041 C 1003.11 -1.2254 1.93692 0
M  V30 11042 C 1004.11 -1.38437 0.81804 0
M  V30 11043 O 1005.3 -1.36248 1.08545 0
M  V30 11044 C 1002.44 -2.59476 2.21099 0
M  V30 11045 H 1003.63 -0.906544 2.8587 0
M  V30 11046 H 1001.18 -0.436577 1.50079 0
M  V30 11047 H 1001.92 -2.96417 1.31558 0
M  V30 11048 H 1001.7 -2.4931 3.02634 0
M  V30 11049 H 1003.19 -3.33777 2.50964 0
M  V30 11050 N 1003.63 -1.50653 -0.462772 0
M  V30 11051 C 1004.56 -1.73056 -1.5676 0
M  V30 11052 C 1005.54 -0.579699 -1.59917 0
M  V30 11053 O 1006.73 -0.819729 -1.76051 0
M  V30 11054 C 1003.86 -1.83234 -2.9503 0
M  V30 11055 C 1002.81 -2.98488 -3.06739 0
M  V30 11056 C 1002.14 -2.93818 -4.46738 0
M  V30 11057 C 1003.44 -4.38869 -2.83181 0
M  V30 11058 H 1005.13 -2.65562 -1.38265 0
M  V30 11059 H 1002.68 -1.27792 -0.663722 0
M  V30 11060 H 1004.63 -1.97491 -3.72257 0
M  V30 11061 H 1003.35 -0.873558 -3.14701 0
M  V30 11062 H 1002.01 -2.83895 -2.31946 0
M  V30 11063 H 1001.66 -1.95769 -4.63339 0
M  V30 11064 H 1001.36 -3.71197 -4.55507 0
M  V30 11065 H 1002.88 -3.10135 -5.25974 0
M  V30 11066 H 1004.3 -4.53945 -3.50153 0
M  V30 11067 H 1002.69 -5.17762 -3.03386 0
M  V30 11068 H 1003.76 -4.50663 -1.78972 0
M  V30 11069 N 1005.11 0.71652 -1.4037 0
M  V30 11070 C 1006.06 1.8306 -1.40562 0
M  V30 11071 C 1007.03 1.64009 -0.262697 0
M  V30 11072 O 1008.21 1.85157 -0.460619 0
M  V30 11073 C 1005.35 3.2076 -1.27307 0
M  V30 11074 C 1004.46 3.51389 -2.51296 0
M  V30 11075 C 1003.6 4.78589 -2.30491 0
M  V30 11076 C 1002.64 5.02119 -3.50061 0
M  V30 11077 N 1001.77 6.20533 -3.28457 0
M  V30 11078 H 1006.61 1.82231 -2.35788 0
M  V30 11079 H 1004.15 0.890198 -1.17106 0
M  V30 11080 H 1006.11 4.00274 -1.17628 0
M  V30 11081 H 1004.74 3.2082 -0.357005 0
M  V30 11082 H 1003.79 2.66436 -2.71507 0
M  V30 11083 H 1005.1 3.64686 -3.40302 0
M  V30 11084 H 1004.26 5.66119 -2.1816 0
M  V30 11085 H 1003 4.67499 -1.38909 0
M  V30 11086 H 1002 4.13044 -3.6287 0
M  V30 11087 H 1003.23 5.15082 -4.42569 0
M  V30 11088 H 1001.17 6.10695 -2.39556 0
M  V30 11089 H 1001.09 6.34502 -4.11027 0
M  V30 11090 H 1002.36 7.10853 -3.19857 0
M  V30 11091 N 1006.59 1.25851 0.948643 0
M  V30 11092 C 1007.5 1.08516 2.07994 0
M  V30 11093 C 1008.51 0.0206696 1.73988 0
M  V30 11094 O 1009.69 0.222854 2.00163 0
M  V30 11095 C 1006.75 0.712145 3.39307 0
M  V30 11096 C 1005.81 1.85523 3.87143 0
M  V30 11097 C 1005.05 1.49992 5.1219 0
M  V30 11098 O 1005.27 0.398268 5.69008 0
M  V30 11099 O 1004.2 2.33215 5.54882 0
M  V30 11100 H 1008.03 2.03405 2.25522 0
M  V30 11101 H 1005.62 1.04844 1.06433 0
M  V30 11102 H 1007.5 0.516512 4.18223 0
M  V30 11103 H 1006.17 -0.207416 3.23035 0
M  V30 11104 H 1005.08 2.10578 3.09205 0
M  V30 11105 H 1006.41 2.75425 4.07924 0
M  V30 11106 N 1008.06 -1.15214 1.07534 0
M  V30 11107 C 1009.31 -1.86319 0.800814 0
M  V30 11108 C 1009.64 -1.82221 -0.671494 0
M  V30 11109 O 1008.92 -1.24664 -1.49295 0
M  V30 11110 C 1009.2 -3.35347 1.31203 0
M  V30 11111 C 1009.05 -3.48067 2.84902 0
M  V30 11112 C 1010.37 -4.3016 0.930064 0
M  V30 11113 H 1007.49 -0.676523 0.292379 0
M  V30 11114 H 1010.13 -1.35349 1.33344 0
M  V30 11115 H 1008.28 -3.78886 0.858949 0
M  V30 11116 H 1009.96 -3.13379 3.38514 0
M  V30 11117 H 1008.2 -2.89566 3.23008 0
M  V30 11118 H 1008.87 -4.52782 3.15741 0
M  V30 11119 H 1011.35 -3.94591 1.3205 0
M  V30 11120 H 1010.22 -5.32914 1.31507 0
M  V30 11121 H 1010.48 -4.41796 -0.163824 0
M  V30 11122 N 1009.54 -0.859717 -1.32086 0
M  V30 11123 C 1010.79 -0.464662 -1.96686 0
M  V30 11124 C 1011.11 0.98412 -1.68345 0
M  V30 11125 O 1010.38 1.68847 -0.993361 0
M  V30 11126 H 1008.96 -0.168838 -0.727669 0
M  V30 11127 H 1011.62 -1.09726 -1.61079 0
M  V30 11128 H 1010.72 -0.613904 -3.06003 0
M  V30 11129 N 1011.02 1.44971 -0.618145 0
M  V30 11130 C 1012.27 2.02458 -0.117656 0
M  V30 11131 C 1012.6 1.48413 1.25248 0
M  V30 11132 O 1011.87 0.662997 1.82851 0
M  V30 11133 C 1012.16 3.59987 -0.0901897 0
M  V30 11134 C 1012.01 4.24343 -1.49175 0
M  V30 11135 C 1013.33 4.36099 0.592121 0
M  V30 11136 H 1010.45 0.735672 -0.0442291 0
M  V30 11137 H 1013.09 1.727 -0.792138 0
M  V30 11138 H 1011.24 3.85471 0.484175 0
M  V30 11139 H 1012.91 4.10009 -2.114 0
M  V30 11140 H 1011.16 3.82337 -2.04941 0
M  V30 11141 H 1011.83 5.33298 -1.42468 0
M  V30 11142 H 1014.3 4.1597 0.103813 0
M  V30 11143 H 1013.18 5.45822 0.580481 0
M  V30 11144 H 1013.44 4.09746 1.66015 0
M  V30 11145 N 1012.5 0.357919 1.53482 0
M  V30 11146 C 1013.78 -0.290164 1.93436 0
M  V30 11147 C 1014.16 -1.67039 1.29079 0
M  V30 11148 O 1013.5 -2.24085 0.447017 0
M  V30 11149 C 1013.71 -0.348055 3.4726 0
M  V30 11150 C 1015.06 -0.59206 4.20452 0
M  V30 11151 O 1016.09 -0.429581 3.536 0
M  V30 11152 O 1014.94 -0.907855 5.38907 0
M  V30 11153 H 1012.04 -0.172312 0.80885 0
M  V30 11154 H 1014.58 0.410144 1.64669 0
M  V30 11155 H 1013.36 0.619953 3.86358 0
M  V30 11156 H 1012.98 -1.09457 3.82237 0
M  V30 11157 N 1013.98 -1.5736 0.0868897 0
M  V30 11158 C 1015.2 -1.98809 -0.590757 0
M  V30 11159 C 1015.63 -0.965407 -1.61436 0
M  V30 11160 O 1014.98 0.067143 -1.81176 0
M  V30 11161 C 1015.03 -3.39249 -1.22238 0
M  V30 11162 O 1014.14 -3.39706 -2.33824 0
M  V30 11163 H 1013.48 -0.64669 -0.150626 0
M  V30 11164 H 1016.01 -2.03927 0.165873 0
M  V30 11165 H 1016.02 -3.76765 -1.56564 0
M  V30 11166 H 1014.69 -4.13208 -0.472434 0
M  V30 11167 H 1013.27 -3.13977 -2.01178 0
M  V30 11168 N 1015.45 0.186762 -1.56489 0
M  V30 11169 C 1016.68 0.925916 -1.85584 0
M  V30 11170 C 1017.1 1.75708 -0.671446 0
M  V30 11171 O 1016.46 1.7728 0.379687 0
M  V30 11172 C 1016.51 1.79107 -3.12975 0
M  V30 11173 O 1015.61 2.89088 -2.94112 0
M  V30 11174 H 1014.96 0.260275 -0.610863 0
M  V30 11175 H 1017.49 0.189561 -2.0372 0
M  V30 11176 H 1017.5 2.19408 -3.43983 0
M  V30 11177 H 1016.17 1.18044 -3.98796 0
M  V30 11178 H 1014.75 2.52482 -2.74422 0
M  V30 11179 N 1016.93 1.50896 0.454776 0
M  V30 11180 C 1017.86 1.73885 1.5584 0
M  V30 11181 C 1018.84 0.588172 1.59607 0
M  V30 11182 O 1020.03 0.829054 1.75614 0
M  V30 11183 C 1017.16 1.84796 2.94054 0
M  V30 11184 C 1016.11 3.00111 3.05152 0
M  V30 11185 C 1015.44 2.96183 4.45174 0
M  V30 11186 C 1016.74 4.40365 2.80849 0
M  V30 11187 H 1018.43 2.66292 1.36854 0
M  V30 11188 H 1015.98 1.28142 0.656936 0
M  V30 11189 H 1017.93 1.99462 3.71204 0
M  V30 11190 H 1016.66 0.890235 3.14233 0
M  V30 11191 H 1015.31 2.85121 2.30438 0
M  V30 11192 H 1014.96 1.98224 4.62295 0
M  V30 11193 H 1014.66 3.73608 4.53532 0
M  V30 11194 H 1016.19 3.1292 5.24322 0
M  V30 11195 H 1017.6 4.55795 3.47741 0
M  V30 11196 H 1016 5.19363 3.00636 0
M  V30 11197 H 1017.07 4.51606 1.76579 0
M  V30 11198 N 1018.41 -0.709066 1.40748 0
M  V30 11199 C 1019.64 -1.49808 1.42707 0
M  V30 11200 C 1020.05 -1.88778 0.0285574 0
M  V30 11201 O 1019.41 -1.55883 -0.949035 0
M  V30 11202 C 1019.46 -2.76926 2.32366 0
M  V30 11203 O 1019.18 -2.39602 3.66773 0
M  V30 11204 C 1020.68 -3.70773 2.42986 0
M  V30 11205 H 1017.9 -0.462106 0.486517 0
M  V30 11206 H 1020.45 -0.874135 1.84876 0
M  V30 11207 H 1018.6 -3.3559 1.93541 0
M  V30 11208 H 1019.02 -3.21443 4.14457 0
M  V30 11209 H 1020.49 -4.56789 3.09916 0
M  V30 11210 H 1020.97 -4.14332 1.45691 0
M  V30 11211 H 1021.57 -3.18019 2.8239 0
M  V30 11212 N 1019.89 -1.26353 -0.941956 0
M  V30 11213 C 1021.17 -1.02601 -1.6653 0
M  V30 11214 C 1021.55 0.44381 -2.06382 0
M  V30 11215 O 1020.89 1.42399 -1.78703 0
M  V30 11216 C 1021.1 -1.97401 -2.87809 0
M  V30 11217 C 1022.45 -2.25967 -3.59478 0
M  V30 11218 O 1023.48 -1.95261 -2.97912 0
M  V30 11219 O 1022.34 -2.78244 -4.70364 0
M  V30 11220 H 1019.43 -0.39007 -0.729228 0
M  V30 11221 H 1021.98 -1.37559 -0.993754 0
M  V30 11222 H 1020.75 -2.9659 -2.55245 0
M  V30 11223 H 1020.37 -1.62918 -3.62689 0
M  V30 11224 N 1021.37 1.14642 -1.08144 0
M  V30 11225 C 1022.6 1.89484 -0.830864 0
M  V30 11226 C 1023.01 1.78443 0.616722 0
M  V30 11227 O 1022.37 1.14191 1.42361 0
M  V30 11228 C 1022.42 3.39554 -1.24039 0
M  V30 11229 O 1022.14 3.50286 -2.63119 0
M  V30 11230 C 1023.64 4.31399 -1.02029 0
M  V30 11231 H 1020.86 0.600283 -0.299835 0
M  V30 11232 H 1023.4 1.45204 -1.44001 0
M  V30 11233 H 1021.56 3.81467 -0.675407 0
M  V30 11234 H 1021.97 4.43481 -2.80045 0
M  V30 11235 H 1023.45 5.35079 -1.35625 0
M  V30 11236 H 1023.92 4.39179 0.0428697 0
M  V30 11237 H 1024.53 3.95238 -1.57057 0
M  V30 11238 N 1022.85 0.866709 1.31628 0
M  V30 11239 C 1024.26 0.558188 1.49521 0
M  V30 11240 C 1024.46 -0.90844 1.7986 0
M  V30 11241 O 1023.52 -1.6908 1.87531 0
M  V30 11242 C 1024.83 1.45559 2.63122 0
M  V30 11243 C 1026.38 1.45728 2.77006 0
M  V30 11244 C 1026.85 2.34017 3.937 0
M  V30 11245 N 1028.34 2.31879 4.00982 0
M  V30 11246 C 1029.08 2.96915 4.90539 0
M  V30 11247 N 1028.58 3.71109 5.85021 0
M  V30 11248 N 1030.37 2.86241 4.83759 0
M  V30 11249 H 1022.52 1.81574 1.10203 0
M  V30 11250 H 1024.78 0.77621 0.544244 0
M  V30 11251 H 1024.49 2.49904 2.47469 0
M  V30 11252 H 1024.36 1.15174 3.59186 0
M  V30 11253 H 1026.75 0.421419 2.92075 0
M  V30 11254 H 1026.83 1.80134 1.81619 0
M  V30 11255 H 1026.47 3.37678 3.79389 0
M  V30 11256 H 1026.4 1.96937 4.88388 0
M  V30 11257 H 1028.9 1.77948 3.33381 0
M  V30 11258 H 1029.21 4.1787 6.5008 0
M  V30 11259 H 1027.55 3.75217 5.8501 0
M  V30 11260 H 1030.74 2.27819 4.08921 0
M  V30 11261 H 1030.92 3.37206 5.5335 0
M  V30 11262 N 1024.32 -1.44642 0.625825 0
M  V30 11263 C 1025.23 -2.34451 -0.0836134 0
M  V30 11264 C 1026.25 -1.5231 -0.841289 0
M  V30 11265 O 1027.43 -1.85056 -0.794754 0
M  V30 11266 C 1024.49 -3.30211 -1.05648 0
M  V30 11267 C 1023.55 -4.28259 -0.298759 0
M  V30 11268 C 1022.78 -5.19444 -1.22528 0
M  V30 11269 O 1023.01 -5.14444 -2.46382 0
M  V30 11270 O 1021.94 -5.97668 -0.71247 0
M  V30 11271 H 1025.77 -2.96555 0.654912 0
M  V30 11272 H 1023.35 -1.44327 0.386029 0
M  V30 11273 H 1025.23 -3.8917 -1.61632 0
M  V30 11274 H 1023.91 -2.70648 -1.77571 0
M  V30 11275 H 1022.82 -3.72863 0.304001 0
M  V30 11276 H 1024.15 -4.90728 0.380345 0
M  V30 11277 N 1025.8 -0.366053 -1.5329 0
M  V30 11278 C 1027.03 0.224236 -2.05681 0
M  V30 11279 C 1027.44 1.42412 -1.23952 0
M  V30 11280 O 1026.8 1.80334 -0.280309 0
M  V30 11281 C 1026.85 0.617266 -3.56191 0
M  V30 11282 O 1026.57 -0.534931 -4.34822 0
M  V30 11283 C 1028.07 1.26589 -4.24841 0
M  V30 11284 H 1025.29 0.0392928 -0.669849 0
M  V30 11285 H 1027.84 -0.52456 -1.97658 0
M  V30 11286 H 1025.99 1.31598 -3.64364 0
M  V30 11287 H 1026.41 -0.217123 -5.2405 0
M  V30 11288 H 1027.88 1.49146 -5.31469 0
M  V30 11289 H 1028.36 2.22633 -3.78591 0
M  V30 11290 H 1028.96 0.6086 -4.20923 0
M  V30 11291 N 1027.28 1.57312 -0.0952337 0
M  V30 11292 C 1028.5 1.99119 0.580206 0
M  V30 11293 C 1028.93 0.973955 1.60922 0
M  V30 11294 O 1028.29 -0.0575338 1.81209 0
M  V30 11295 C 1028.34 3.39893 1.20438 0
M  V30 11296 O 1027.44 3.40941 2.32019 0
M  V30 11297 H 1026.78 0.64748 0.147195 0
M  V30 11298 H 1029.31 2.03836 -0.176686 0
M  V30 11299 H 1029.32 3.7759 1.54564 0
M  V30 11300 H 1028 4.13453 0.450514 0
M  V30 11301 H 1026.57 3.1504 1.9951 0
M  V30 11302 N 1028.76 -0.17846 1.56586 0
M  V30 11303 C 1029.67 -1.24115 1.9908 0
M  V30 11304 C 1030.68 -1.48854 0.901031 0
M  V30 11305 O 1031.86 -1.61142 1.2081 0
M  V30 11306 C 1028.92 -2.56187 2.33601 0
M  V30 11307 C 1027.99 -2.39373 3.56369 0
M  V30 11308 C 1027.22 -3.65147 3.89234 0
M  V30 11309 O 1027.44 -4.70024 3.23162 0
M  V30 11310 O 1026.38 -3.59683 4.82609 0
M  V30 11311 H 1030.2 -0.910482 2.89731 0
M  V30 11312 H 1027.79 -0.38477 1.4436 0
M  V30 11313 H 1029.67 -3.34109 2.56806 0
M  V30 11314 H 1028.34 -2.88847 1.46113 0
M  V30 11315 H 1027.25 -1.59506 3.38391 0
M  V30 11316 H 1028.58 -2.1164 4.44375 0
M  V30 11317 N 1030.24 -1.51135 -0.446768 0
M  V30 11318 C 1031.15 -1.74595 -1.56696 0
M  V30 11319 C 1032.16 -0.629816 -1.62201 0
M  V30 11320 O 1033.34 -0.910987 -1.79619 0
M  V30 11321 C 1030.4 -1.85738 -2.9275 0
M  V30 11322 C 1029.46 -3.09564 -2.97437 0
M  V30 11323 C 1028.7 -3.20165 -4.27001 0
M  V30 11324 O 1028.92 -2.36939 -5.1886 0
M  V30 11325 O 1027.85 -4.13077 -4.3778 0
M  V30 11326 H 1031.68 -2.69601 -1.39817 0
M  V30 11327 H 1029.26 -1.35523 -0.628805 0
M  V30 11328 H 1031.15 -1.95107 -3.73512 0
M  V30 11329 H 1029.82 -0.939184 -3.09776 0
M  V30 11330 H 1028.73 -3.05679 -2.15664 0
M  V30 11331 H 1030.06 -4.01041 -2.85353 0
M  V30 11332 N 1031.71 0.701592 -1.41122 0
M  V30 11333 C 1032.65 1.8257 -1.36907 0
M  V30 11334 C 1033.62 1.6086 -0.237245 0
M  V30 11335 O 1034.81 1.83688 -0.423182 0
M  V30 11336 C 1031.94 3.19149 -1.13408 0
M  V30 11337 C 1030.98 3.59661 -2.29229 0
M  V30 11338 S 1031.81 3.65161 -3.91685 0
M  V30 11339 C 1032.97 5.04477 -3.70478 0
M  V30 11340 H 1033.2 1.85867 -2.32036 0
M  V30 11341 H 1030.74 0.869726 -1.27574 0
M  V30 11342 H 1032.69 3.97998 -1.00537 0
M  V30 11343 H 1031.36 3.13468 -0.199099 0
M  V30 11344 H 1030.55 4.58866 -2.08466 0
M  V30 11345 H 1030.15 2.88105 -2.38477 0
M  V30 11346 H 1032.44 5.91803 -3.29811 0
M  V30 11347 H 1033.39 5.3028 -4.69264 0
M  V30 11348 H 1033.79 4.75731 -3.03876 0
M  V30 11349 N 1033.19 1.2685 0.935242 0
M  V30 11350 C 1034.12 1.04717 2.0388 0
M  V30 11351 C 1035.14 0.00567507 1.62799 0
M  V30 11352 O 1036.33 0.246408 1.76791 0
M  V30 11353 C 1033.43 0.56496 3.34158 0
M  V30 11354 C 1032.6 1.67704 4.03973 0
M  V30 11355 C 1031.66 1.19186 5.12524 0
M  V30 11356 O 1030.68 1.89008 5.36903 0
M  V30 11357 N 1031.89 0.0434554 5.80484 0
M  V30 11358 H 1034.65 1.99746 2.23431 0
M  V30 11359 H 1032.21 1.18316 1.10512 0
M  V30 11360 H 1034.2 0.224436 4.04077 0
M  V30 11361 H 1032.77 -0.291899 3.11234 0
M  V30 11362 H 1031.99 2.18821 3.27889 0
M  V30 11363 H 1033.28 2.42361 4.47368 0
M  V30 11364 H 1032.68 -0.539502 5.63122 0
M  V30 11365 H 1031.24 -0.237946 6.51366 0
M  V30 11366 N 1034.67 -1.14067 1.0875 0
M  V30 11367 C 1035.62 -2.19261 0.720633 0
M  V30 11368 C 1036.59 -1.63462 -0.294847 0
M  V30 11369 O 1037.77 -1.89967 -0.178058 0
M  V30 11370 C 1034.91 -3.44816 0.139873 0
M  V30 11371 C 1034.03 -4.1475 1.20856 0
M  V30 11372 C 1033.16 -5.27899 0.591285 0
M  V30 11373 C 1032.2 -5.89672 1.64176 0
M  V30 11374 N 1031.34 -6.94264 1.04603 0
M  V30 11375 H 1036.18 -2.49991 1.62198 0
M  V30 11376 H 1033.71 -1.22757 0.810497 0
M  V30 11377 H 1035.67 -4.16648 -0.214587 0
M  V30 11378 H 1034.3 -3.14558 -0.724774 0
M  V30 11379 H 1033.35 -3.41272 1.6804 0
M  V30 11380 H 1034.67 -4.56753 2.00446 0
M  V30 11381 H 1033.82 -6.06417 0.185271 0
M  V30 11382 H 1032.56 -4.87128 -0.236236 0
M  V30 11383 H 1031.56 -5.09854 2.05739 0
M  V30 11384 H 1032.79 -6.32517 2.47182 0
M  V30 11385 H 1030.73 -6.55562 0.239664 0
M  V30 11386 H 1030.65 -7.34771 1.77898 0
M  V30 11387 H 1031.92 -7.7665 0.665989 0
M  V30 11388 N 1036.15 -0.873678 -1.31166 0
M  V30 11389 C 1037.38 -0.501043 -2.00742 0
M  V30 11390 C 1037.79 0.907477 -1.65561 0
M  V30 11391 O 1037.15 1.59507 -0.886771 0
M  V30 11392 C 1037.2 -0.652877 -3.55556 0
M  V30 11393 O 1036.92 -2.00593 -3.89479 0
M  V30 11394 C 1038.42 -0.281742 -4.42404 0
M  V30 11395 H 1035.64 -0.194829 -0.642092 0
M  V30 11396 H 1038.19 -1.17587 -1.67313 0
M  V30 11397 H 1036.34 -0.0255627 -3.87392 0
M  V30 11398 H 1036.75 -2.01638 -4.84193 0
M  V30 11399 H 1038.23 -0.43892 -5.50252 0
M  V30 11400 H 1038.71 0.779389 -4.32229 0
M  V30 11401 H 1039.31 -0.88491 -4.15992 0
M  V30 11402 N 1037.63 1.44308 -0.633487 0
M  V30 11403 C 1038.57 2.32455 0.0821956 0
M  V30 11404 C 1039.57 1.47482 0.833388 0
M  V30 11405 O 1040.77 1.63812 0.746021 0
M  V30 11406 H 1037.15 0.750631 0.045352 0
M  V30 11407 H 1039.12 2.90566 -0.679282 0
M  V30 11408 C 1037.87 3.31512 1.04858 0
M  V30 11409 H 1037.19 3.96908 0.479979 0
M  V30 11410 H 1038.63 3.95865 1.51879 0
M  V30 11411 C 1037.09 2.60615 2.13498 0
M  V30 11412 O 1037.62 2.40682 3.21613 0
M  V30 11413 N 1035.83 2.20315 1.89499 0
M  V30 11414 H 1035.37 2.36726 1.01581 0
M  V30 11415 H 1035.33 1.73205 2.62388 0
M  V30 11416 N 1039.1 0.374177 1.53094 0
M  V30 11417 C 1040.05 -0.48326 2.27524 0
M  V30 11418 C 1041.05 -1.07606 1.30833 0
M  V30 11419 O 1042.25 -1.01827 1.48429 0
M  V30 11420 H 1038.63 -0.174578 0.731455 0
M  V30 11421 H 1040.6 0.166156 2.97937 0
M  V30 11422 C 1039.35 -1.6065 3.08362 0
M  V30 11423 H 1038.67 -1.15966 3.82612 0
M  V30 11424 H 1040.11 -2.18099 3.63606 0
M  V30 11425 C 1038.57 -2.55381 2.19732 0
M  V30 11426 O 1039.1 -3.58414 1.8139 0
M  V30 11427 N 1037.31 -2.24769 1.84194 0
M  V30 11428 H 1036.85 -1.41018 2.15573 0
M  V30 11429 H 1036.81 -2.88404 1.25181 0
M  V30 11430 N 1040.58 -1.57259 0.103575 0
M  V30 11431 C 1041.55 -2.13337 -0.837859 0
M  V30 11432 C 1042.55 -1.06459 -1.20512 0
M  V30 11433 O 1043.74 -1.32307 -1.13316 0
M  V30 11434 C 1040.87 -2.66093 -2.13089 0
M  V30 11435 H 1042.06 -2.97842 -0.350775 0
M  V30 11436 H 1039.61 -1.55621 -0.145511 0
M  V30 11437 H 1040.35 -1.85133 -2.66264 0
M  V30 11438 H 1040.13 -3.44244 -1.87719 0
M  V30 11439 H 1041.62 -3.09443 -2.80419 0
M  V30 11440 N 1042.06 0.170153 -1.56679 0
M  V30 11441 C 1043.31 0.884902 -1.81252 0
M  V30 11442 C 1043.62 1.83361 -0.681024 0
M  V30 11443 O 1044.83 2.59082 -0.811722 0
M  V30 11444 C 1043.28 1.62408 -3.21172 0
M  V30 11445 C 1042.89 0.718947 -4.42194 0
M  V30 11446 C 1044.64 2.32699 -3.55037 0
M  V30 11447 C 1042.54 1.45843 -5.73135 0
M  V30 11448 H 1041.47 0.33418 -0.675899 0
M  V30 11449 H 1044.12 0.137818 -1.82982 0
M  V30 11450 H 1042.51 2.41596 -3.13763 0
M  V30 11451 H 1043.68 -0.0360521 -4.60786 0
M  V30 11452 H 1042 0.125634 -4.1621 0
M  V30 11453 H 1044.59 2.88621 -4.50114 0
M  V30 11454 H 1044.94 3.08092 -2.79974 0
M  V30 11455 H 1045.47 1.60453 -3.64005 0
M  V30 11456 H 1042.21 0.746799 -6.51232 0
M  V30 11457 H 1041.73 2.18672 -5.58518 0
M  V30 11458 H 1043.41 2.0056 -6.1513 0
M  V30 11459 N 1043.54 1.5137 0.438746 0
M  V30 11460 C 1044.76 1.68058 1.21537 0
M  V30 11461 C 1045.19 0.376787 1.84288 0
M  V30 11462 O 1044.55 -0.662911 1.68746 0
M  V30 11463 C 1044.59 2.79684 2.27616 0
M  V30 11464 O 1043.7 2.43189 3.33066 0
M  V30 11465 H 1043.04 0.560408 0.356144 0
M  V30 11466 H 1045.57 1.97926 0.518311 0
M  V30 11467 H 1045.58 3.03726 2.72423 0
M  V30 11468 H 1044.25 3.74293 1.81321 0
M  V30 11469 H 1042.83 2.29713 2.93746 0
M  V30 11470 N 1045.02 -0.694098 1.41492 0
M  V30 11471 C 1046.24 -1.48789 1.44488 0
M  V30 11472 C 1046.67 -1.88028 0.0521588 0
M  V30 11473 O 1046.02 -1.54727 -0.944952 0
M  V30 11474 C 1046.07 -2.72586 2.3607 0
M  V30 11475 O 1045.18 -3.70128 1.81876 0
M  V30 11476 H 1044.52 -0.447758 0.490315 0
M  V30 11477 H 1047.05 -0.853036 1.85969 0
M  V30 11478 H 1047.06 -3.20877 2.51995 0
M  V30 11479 H 1045.73 -2.43363 3.37264 0
M  V30 11480 H 1044.31 -3.29069 1.75408 0
M  V30 11481 N 1046.49 -1.27344 -0.928501 0
M  V30 11482 C 1047.44 -1.10001 -2.029 0
M  V30 11483 C 1048.41 -0.00131084 -1.661 0
M  V30 11484 O 1049.6 -0.163485 -1.90098 0
M  V30 11485 C 1046.74 -0.7524 -3.36798 0
M  V30 11486 C 1045.85 -1.92865 -3.86558 0
M  V30 11487 C 1044.98 -1.52299 -5.08899 0
M  V30 11488 C 1044.02 -2.66677 -5.50953 0
M  V30 11489 N 1043.16 -2.26706 -6.64491 0
M  V30 11490 H 1048 -2.0417 -2.17068 0
M  V30 11491 H 1045.54 -1.01637 -1.0634 0
M  V30 11492 H 1047.5 -0.531687 -4.13798 0
M  V30 11493 H 1046.13 0.15234 -3.2244 0
M  V30 11494 H 1045.18 -2.26192 -3.05845 0
M  V30 11495 H 1046.49 -2.78668 -4.13698 0
M  V30 11496 H 1045.64 -1.26348 -5.93398 0
M  V30 11497 H 1044.38 -0.636042 -4.83535 0
M  V30 11498 H 1043.39 -2.93344 -4.65004 0
M  V30 11499 H 1044.61 -3.55992 -5.78313 0
M  V30 11500 H 1042.56 -1.40462 -6.40786 0
M  V30 11501 H 1042.48 -3.06049 -6.91281 0
M  V30 11502 H 1043.74 -2.04 -7.52333 0
M  V30 11503 N 1047.97 1.13488 -1.09353 0
M  V30 11504 C 1049.39 1.36739 -0.823086 0
M  V30 11505 C 1049.59 1.93476 0.562963 0
M  V30 11506 O 1048.64 2.15374 1.31796 0
M  V30 11507 C 1049.96 2.31943 -1.91371 0
M  V30 11508 C 1051.51 2.4556 -1.94085 0
M  V30 11509 C 1051.98 3.44072 -3.02289 0
M  V30 11510 N 1053.47 3.51622 -3.01524 0
M  V30 11511 C 1054.21 4.27724 -3.8189 0
M  V30 11512 N 1053.7 5.06987 -4.72161 0
M  V30 11513 N 1055.5 4.23018 -3.70152 0
M  V30 11514 H 1047.65 0.75012 -1.98713 0
M  V30 11515 H 1049.91 0.392564 -0.862901 0
M  V30 11516 H 1049.62 1.97408 -2.91072 0
M  V30 11517 H 1049.49 3.31952 -1.79131 0
M  V30 11518 H 1051.88 2.79382 -0.950234 0
M  V30 11519 H 1051.96 1.45479 -2.10403 0
M  V30 11520 H 1051.6 3.10981 -4.01564 0
M  V30 11521 H 1051.53 4.43956 -2.83214 0
M  V30 11522 H 1054.02 2.95066 -2.36103 0
M  V30 11523 H 1054.34 5.6236 -5.30067 0
M  V30 11524 H 1052.68 5.06222 -4.76197 0
M  V30 11525 H 1055.87 3.60171 -2.98989 0
M  V30 11526 H 1056.04 4.82075 -4.33022 0
M  V30 11527 N 1049.45 0.880621 1.30701 0
M  V30 11528 C 1050.36 0.348034 2.32004 0
M  V30 11529 C 1051.38 -0.547508 1.65162 0
M  V30 11530 O 1052.55 -0.441673 1.96497 0
M  V30 11531 C 1049.62 -0.432585 3.43991 0
M  V30 11532 C 1048.68 0.492189 4.26469 0
M  V30 11533 C 1047.91 -0.25127 5.33108 0
M  V30 11534 O 1048.14 -1.47795 5.5092 0
M  V30 11535 O 1047.07 0.396376 6.00593 0
M  V30 11536 H 1050.9 1.18798 2.79501 0
M  V30 11537 H 1048.48 0.64432 1.34792 0
M  V30 11538 H 1050.36 -0.874733 4.12221 0
M  V30 11539 H 1049.04 -1.2489 2.98637 0
M  V30 11540 H 1047.94 0.983058 3.60953 0
M  V30 11541 H 1049.28 1.27439 4.75416 0
M  V30 11542 N 1050.93 -1.4397 0.641131 0
M  V30 11543 C 1052.18 -2.01163 0.147026 0
M  V30 11544 C 1052.49 -1.51099 -1.24211 0
M  V30 11545 O 1053.7 -2.00487 -1.83078 0
M  V30 11546 C 1052.15 -3.59275 0.212068 0
M  V30 11547 C 1051.76 -4.18334 1.60314 0
M  V30 11548 C 1053.51 -4.23903 -0.225057 0
M  V30 11549 C 1051.41 -5.68701 1.62276 0
M  V30 11550 H 1050.34 -0.75226 0.051201 0
M  V30 11551 H 1052.99 -1.65075 0.801396 0
M  V30 11552 H 1051.38 -3.92708 -0.509589 0
M  V30 11553 H 1052.55 -3.96422 2.34918 0
M  V30 11554 H 1050.86 -3.66031 1.9852 0
M  V30 11555 H 1053.46 -5.34205 -0.230074 0
M  V30 11556 H 1053.8 -3.96956 -1.25426 0
M  V30 11557 H 1054.34 -3.95309 0.44444 0
M  V30 11558 H 1051.08 -6.00397 2.63066 0
M  V30 11559 H 1050.6 -5.92705 0.919797 0
M  V30 11560 H 1052.28 -6.32521 1.36112 0
M  V30 11561 N 1052.41 -0.382291 -1.52893 0
M  V30 11562 C 1053.34 0.447829 -2.29165 0
M  V30 11563 C 1054.32 1.06956 -1.32267 0
M  V30 11564 O 1055.5 1.08365 -1.61154 0
M  V30 11565 C 1052.63 1.57902 -3.09329 0
M  V30 11566 C 1051.59 1.08369 -4.14053 0
M  V30 11567 C 1050.91 2.30641 -4.82399 0
M  V30 11568 C 1052.21 0.156591 -5.22065 0
M  V30 11569 H 1053.91 -0.188541 -2.98806 0
M  V30 11570 H 1051.45 -0.0921179 -1.43705 0
M  V30 11571 H 1053.41 2.16652 -3.61442 0
M  V30 11572 H 1052.13 2.24287 -2.37409 0
M  V30 11573 H 1050.79 0.518772 -3.62911 0
M  V30 11574 H 1050.44 2.9552 -4.07034 0
M  V30 11575 H 1050.14 1.98163 -5.53177 0
M  V30 11576 H 1051.66 2.90047 -5.37313 0
M  V30 11577 H 1053.08 0.652065 -5.6958 0
M  V30 11578 H 1051.47 -0.0780978 -6.00049 0
M  V30 11579 H 1052.54 -0.796529 -4.78313 0
M  V30 11580 N 1053.89 1.57202 -0.111913 0
M  V30 11581 C 1055.3 1.57713 0.244702 0
M  V30 11582 C 1055.5 1.12419 1.67225 0
M  V30 11583 O 1054.56 0.808329 2.39212 0
M  V30 11584 C 1055.87 3.00695 0.0178289 0
M  V30 11585 C 1057.42 3.12887 0.0842781 0
M  V30 11586 C 1057.89 4.57856 -0.114812 0
M  V30 11587 N 1059.38 4.6316 -0.0605423 0
M  V30 11588 C 1060.12 5.73086 -0.189594 0
M  V30 11589 N 1059.62 6.91787 -0.37442 0
M  V30 11590 N 1061.41 5.6195 -0.12967 0
M  V30 11591 H 1053.56 1.84947 -1.04443 0
M  V30 11592 H 1055.82 0.854418 -0.4107 0
M  V30 11593 H 1055.53 3.38093 -0.968802 0
M  V30 11594 H 1055.4 3.69611 0.752815 0
M  V30 11595 H 1057.79 2.7535 1.06143 0
M  V30 11596 H 1057.87 2.46528 -0.682474 0
M  V30 11597 H 1057.51 4.9609 -1.0889 0
M  V30 11598 H 1057.44 5.22297 0.671839 0
M  V30 11599 H 1059.94 3.77817 0.0790856 0
M  V30 11600 H 1060.25 7.71406 -0.463948 0
M  V30 11601 H 1058.59 6.93788 -0.410303 0
M  V30 11602 H 1061.78 4.68098 0.0137115 0
M  V30 11603 H 1061.96 6.47578 -0.233688 0
M  V30 11604 N 1055.36 -0.161842 1.56767 0
M  V30 11605 C 1056.78 -0.51396 1.51098 0
M  V30 11606 C 1056.98 -1.84158 0.817815 0
M  V30 11607 O 1056.04 -2.49592 0.382133 0
M  V30 11608 C 1057.35 -0.537966 2.95849 0
M  V30 11609 C 1058.9 -0.624512 3.06706 0
M  V30 11610 C 1059.37 -0.679322 4.52934 0
M  V30 11611 N 1060.86 -0.741953 4.57219 0
M  V30 11612 C 1061.6 -0.805096 5.6772 0
M  V30 11613 N 1061.09 -0.828492 6.87828 0
M  V30 11614 N 1062.89 -0.844843 5.55715 0
M  V30 11615 H 1055.04 0.708581 2.00232 0
M  V30 11616 H 1057.3 0.25663 0.912603 0
M  V30 11617 H 1057.01 0.369052 3.49758 0
M  V30 11618 H 1056.88 -1.38113 3.51005 0
M  V30 11619 H 1059.27 -1.52195 2.52825 0
M  V30 11620 H 1059.35 0.245515 2.54619 0
M  V30 11621 H 1058.99 0.213901 5.07449 0
M  V30 11622 H 1058.92 -1.56563 5.02788 0
M  V30 11623 H 1061.41 -0.731772 3.70747 0
M  V30 11624 H 1061.73 -0.878109 7.67795 0
M  V30 11625 H 1060.07 -0.796612 6.9042 0
M  V30 11626 H 1063.26 -0.823632 4.60797 0
M  V30 11627 H 1063.44 -0.890588 6.41851 0
M  V30 11628 N 1056.84 -1.516 -0.430713 0
M  V30 11629 C 1057.77 -1.76342 -1.53054 0
M  V30 11630 C 1058.75 -0.61349 -1.58652 0
M  V30 11631 O 1059.94 -0.856888 -1.74273 0
M  V30 11632 C 1057.07 -1.8945 -2.91077 0
M  V30 11633 C 1056.02 -3.04928 -3.00339 0
M  V30 11634 C 1055.35 -3.03228 -4.40405 0
M  V30 11635 C 1056.65 -4.44777 -2.73808 0
M  V30 11636 H 1058.34 -2.68435 -1.326 0
M  V30 11637 H 1055.89 -1.29171 -0.636466 0
M  V30 11638 H 1057.84 -2.05343 -3.67984 0
M  V30 11639 H 1056.56 -0.940114 -3.12777 0
M  V30 11640 H 1055.22 -2.88751 -2.25872 0
M  V30 11641 H 1054.87 -2.05553 -4.59083 0
M  V30 11642 H 1054.57 -3.80776 -4.47531 0
M  V30 11643 H 1056.1 -3.21222 -5.19277 0
M  V30 11644 H 1057.51 -4.6127 -3.40445 0
M  V30 11645 H 1055.91 -5.2408 -2.92335 0
M  V30 11646 H 1056.98 -4.54358 -1.69372 0
M  V30 11647 N 1058.32 0.686584 -1.41858 0
M  V30 11648 C 1059.27 1.82167 -1.4463 0
M  V30 11649 C 1060.26 1.66286 -0.323313 0
M  V30 11650 O 1061.47 1.73038 -0.495773 0
M  V30 11651 H 1057.84 0.600454 -0.452724 0
M  V30 11652 H 1059.81 1.76947 -2.40276 0
M  V30 11653 C 1058.56 3.20248 -1.35412 0
M  V30 11654 H 1057.89 3.33089 -2.21115 0
M  V30 11655 H 1059.33 3.99723 -1.41413 0
M  V30 11656 C 1057.78 3.36832 -0.0674972 0
M  V30 11657 O 1058.31 3.91845 0.884325 0
M  V30 11658 N 1056.52 2.90598 0.011519 0
M  V30 11659 H 1056.07 2.46016 -0.76381 0
M  V30 11660 H 1056.03 3.02072 0.871774 0
M  V30 11661 N 1059.8 1.27835 0.921735 0
M  V30 11662 C 1060.71 1.12904 2.05645 0
M  V30 11663 C 1061.72 0.0575704 1.73905 0
M  V30 11664 O 1062.9 0.265261 1.99645 0
M  V30 11665 C 1059.96 0.783957 3.3772 0
M  V30 11666 C 1059.03 1.93694 3.8312 0
M  V30 11667 C 1058.26 1.60823 5.08893 0
M  V30 11668 O 1058.48 0.518873 5.68035 0
M  V30 11669 O 1057.42 2.44932 5.49811 0
M  V30 11670 H 1061.24 2.08143 2.21157 0
M  V30 11671 H 1058.83 1.07078 1.04185 0
M  V30 11672 H 1060.71 0.605107 4.17033 0
M  V30 11673 H 1059.38 -0.138849 3.23402 0
M  V30 11674 H 1058.29 2.17089 3.04669 0
M  V30 11675 H 1059.62 2.84016 4.0199 0
M  V30 11676 N 1061.28 -1.12907 1.09954 0
M  V30 11677 C 1062.22 -2.20561 0.73863 0
M  V30 11678 C 1063.22 -1.67347 -0.262944 0
M  V30 11679 O 1064.42 -1.79574 -0.123834 0
M  V30 11680 H 1060.8 -0.718823 0.220901 0
M  V30 11681 H 1062.77 -2.4826 1.65559 0
M  V30 11682 C 1061.52 -3.47227 0.181239 0
M  V30 11683 H 1060.84 -3.88516 0.943144 0
M  V30 11684 H 1062.28 -4.23987 -0.0332888 0
M  V30 11685 C 1060.74 -3.18956 -1.08485 0
M  V30 11686 O 1061.27 -3.38224 -2.1672 0
M  V30 11687 N 1059.48 -2.72797 -1.00151 0
M  V30 11688 H 1059.02 -2.57317 -0.120645 0
M  V30 11689 H 1058.98 -2.54256 -1.84935 0
M  V30 11690 N 1062.75 -0.88754 -1.30232 0
M  V30 11691 C 1063.68 -0.372481 -2.3051 0
M  V30 11692 C 1064.66 0.546037 -1.61098 0
M  V30 11693 O 1065.85 0.459345 -1.88689 0
M  V30 11694 C 1062.98 0.411605 -3.44852 0
M  V30 11695 C 1061.93 -0.415383 -4.2598 0
M  V30 11696 C 1061.26 0.495463 -5.324 0
M  V30 11697 C 1062.56 -1.65886 -4.95257 0
M  V30 11698 H 1064.25 -1.21045 -2.7384 0
M  V30 11699 H 1061.8 -0.583498 -1.31648 0
M  V30 11700 H 1063.75 0.782584 -4.1407 0
M  V30 11701 H 1062.48 1.28325 -3.00334 0
M  V30 11702 H 1061.14 -0.768534 -3.58454 0
M  V30 11703 H 1060.78 1.36489 -4.84128 0
M  V30 11704 H 1060.48 -0.0540885 -5.87575 0
M  V30 11705 H 1062.01 0.862901 -6.04472 0
M  V30 11706 H 1063.42 -1.35832 -5.56976 0
M  V30 11707 H 1061.82 -2.14881 -5.60309 0
M  V30 11708 H 1062.89 -2.40181 -4.21237 0
M  V30 11709 N 1064.23 1.43628 -0.648757 0
M  V30 11710 C 1065.18 2.30755 0.0455536 0
M  V30 11711 C 1066.15 1.44495 0.819168 0
M  V30 11712 O 1067.33 1.73372 0.79667 0
M  V30 11713 C 1064.47 3.30017 1.00908 0
M  V30 11714 C 1063.59 4.31376 0.232039 0
M  V30 11715 C 1062.72 5.17723 1.18897 0
M  V30 11716 C 1061.76 6.10778 0.402096 0
M  V30 11717 N 1060.9 6.89763 1.31038 0
M  V30 11718 H 1065.74 2.89581 -0.70332 0
M  V30 11719 H 1063.28 1.42662 -0.3586 0
M  V30 11720 H 1065.23 3.86072 1.58128 0
M  V30 11721 H 1063.86 2.72851 1.72488 0
M  V30 11722 H 1062.92 3.77652 -0.456373 0
M  V30 11723 H 1064.23 4.9735 -0.380023 0
M  V30 11724 H 1063.38 5.78381 1.83194 0
M  V30 11725 H 1062.12 4.51864 1.83494 0
M  V30 11726 H 1061.13 5.49212 -0.254255 0
M  V30 11727 H 1062.35 6.78678 -0.239411 0
M  V30 11728 H 1060.3 6.26557 1.94324 0
M  V30 11729 H 1060.21 7.52243 0.752774 0
M  V30 11730 H 1061.48 7.54931 1.94164 0
M  V30 11731 N 1065.71 0.390394 1.52688 0
M  V30 11732 C 1066.67 -0.432149 2.25089 0
M  V30 11733 C 1067.67 -0.989296 1.26766 0
M  V30 11734 O 1068.86 -0.871126 1.50854 0
M  V30 11735 C 1066 -1.60642 3.00678 0
M  V30 11736 H 1067.19 0.201734 2.99221 0
M  V30 11737 H 1064.74 0.142531 1.55649 0
M  V30 11738 H 1065.48 -2.2777 2.3085 0
M  V30 11739 H 1065.26 -1.21361 3.72846 0
M  V30 11740 H 1066.75 -2.18873 3.55647 0
M  V30 11741 N 1067.19 -1.57141 0.120249 0
M  V30 11742 C 1068.12 -2.12454 -0.859987 0
M  V30 11743 C 1069.13 -1.06755 -1.22911 0
M  V30 11744 O 1070.32 -1.34124 -1.17784 0
M  V30 11745 C 1067.42 -2.61024 -2.16147 0
M  V30 11746 C 1066.6 -3.90835 -1.96385 0
M  V30 11747 C 1065.65 -4.2499 -3.10274 0
M  V30 11748 O 1064.68 -4.93786 -2.83133 0
M  V30 11749 N 1065.88 -3.82411 -4.36741 0
M  V30 11750 H 1068.65 -2.97186 -0.387402 0
M  V30 11751 H 1066.21 -1.61773 -0.0641376 0
M  V30 11752 H 1068.2 -2.80903 -2.91334 0
M  V30 11753 H 1066.77 -1.81166 -2.5475 0
M  V30 11754 H 1065.99 -3.79853 -1.05383 0
M  V30 11755 H 1067.28 -4.75712 -1.80487 0
M  V30 11756 H 1066.68 -3.26926 -4.61666 0
M  V30 11757 H 1065.23 -4.07395 -5.08795 0
M  V30 11758 N 1068.67 0.153526 -1.5685 0
M  V30 11759 C 1069.58 1.20932 -2.01029 0
M  V30 11760 C 1070.59 1.47401 -0.924598 0
M  V30 11761 O 1071.77 1.592 -1.23359 0
M  V30 11762 C 1068.83 2.52438 -2.37647 0
M  V30 11763 C 1067.89 2.33673 -3.60132 0
M  V30 11764 C 1067.13 3.58909 -3.94994 0
M  V30 11765 O 1067.35 4.64823 -3.30599 0
M  V30 11766 O 1066.28 3.5196 -4.8827 0
M  V30 11767 H 1070.11 0.864273 -2.91143 0
M  V30 11768 H 1067.7 0.361755 -1.44954 0
M  V30 11769 H 1069.58 3.29981 -2.62088 0
M  V30 11770 H 1068.25 2.86486 -1.5069 0
M  V30 11771 H 1067.16 1.54102 -3.40886 0
M  V30 11772 H 1068.49 2.04544 -4.47686 0
M  V30 11773 N 1070.14 1.51827 0.422667 0
M  V30 11774 C 1071.42 1.55772 1.18299 0
M  V30 11775 C 1071.8 0.330657 2.08494 0
M  V30 11776 O 1071.15 -0.683373 2.18042 0
M  V30 11777 C 1071.36 2.87941 1.97208 0
M  V30 11778 C 1072.71 3.4044 2.53744 0
M  V30 11779 O 1073.73 2.8959 2.07403 0
M  V30 11780 O 1072.59 4.29201 3.38303 0
M  V30 11781 H 1069.68 0.626889 0.539388 0
M  V30 11782 H 1072.23 1.64147 0.430545 0
M  V30 11783 H 1071 3.68702 1.31052 0
M  V30 11784 H 1070.63 2.82795 2.79486 0
M  V30 11785 N 1071.62 -0.679052 1.4222 0
M  V30 11786 C 1072.53 -1.82221 1.47759 0
M  V30 11787 C 1073.55 -1.70092 0.3667 0
M  V30 11788 O 1074.72 -1.91718 0.616957 0
M  V30 11789 C 1071.79 -3.18332 1.37351 0
M  V30 11790 C 1070.85 -3.42449 2.58896 0
M  V30 11791 C 1070.08 -4.72067 2.48976 0
M  V30 11792 O 1070.31 -5.49683 1.5233 0
M  V30 11793 O 1069.24 -4.97333 3.39033 0
M  V30 11794 H 1073.07 -1.80504 2.44238 0
M  V30 11795 H 1070.65 -0.834251 1.23938 0
M  V30 11796 H 1072.53 -3.99563 1.33893 0
M  V30 11797 H 1071.21 -3.20696 0.439965 0
M  V30 11798 H 1070.12 -2.61083 2.6793 0
M  V30 11799 H 1071.45 -3.44912 3.51136 0
M  V30 11800 N 1073.1 -1.28322 -0.914942 0
M  V30 11801 C 1074.05 -1.12146 -2.01722 0
M  V30 11802 C 1075.02 -0.0189279 -1.66089 0
M  V30 11803 O 1076.2 -0.183638 -1.89914 0
M  V30 11804 C 1073.34 -0.78808 -3.35981 0
M  V30 11805 C 1072.46 -1.96954 -3.84491 0
M  V30 11806 C 1071.59 -1.57688 -5.07255 0
M  V30 11807 C 1070.63 -2.72506 -5.48094 0
M  V30 11808 N 1069.77 -2.33741 -6.62049 0
M  V30 11809 H 1074.61 -2.06461 -2.1489 0
M  V30 11810 H 1072.14 -1.0276 -1.05256 0
M  V30 11811 H 1074.1 -0.575546 -4.13211 0
M  V30 11812 H 1072.73 0.118132 -3.22584 0
M  V30 11813 H 1071.78 -2.29423 -3.03429 0
M  V30 11814 H 1073.1 -2.8304 -4.10719 0
M  V30 11815 H 1072.25 -1.32634 -5.92025 0
M  V30 11816 H 1070.99 -0.687291 -4.82833 0
M  V30 11817 H 1069.99 -2.9826 -4.61867 0
M  V30 11818 H 1071.22 -3.62106 -5.74505 0
M  V30 11819 H 1069.16 -1.4725 -6.3926 0
M  V30 11820 H 1069.08 -3.13364 -6.87997 0
M  V30 11821 H 1070.35 -2.11968 -7.50127 0
M  V30 11822 N 1074.58 1.12322 -1.10551 0
M  V30 11823 C 1075.83 1.83495 -0.846998 0
M  V30 11824 C 1076.15 1.8457 0.629205 0
M  V30 11825 O 1075.42 1.30968 1.45686 0
M  V30 11826 H 1074 0.679479 -0.310351 0
M  V30 11827 H 1076.66 1.36004 -1.39602 0
M  V30 11828 H 1075.76 2.87651 -1.21092 0
M  V30 11829 N 1076.06 0.894434 1.2976 0
M  V30 11830 C 1077 0.366586 2.2787 0
M  V30 11831 C 1077.97 -0.548425 1.56785 0
M  V30 11832 O 1079.16 -0.474804 1.84798 0
M  V30 11833 C 1076.3 -0.404531 3.42721 0
M  V30 11834 C 1075.41 0.540774 4.28602 0
M  V30 11835 C 1074.55 -0.246875 5.30626 0
M  V30 11836 C 1073.59 0.693294 6.08161 0
M  V30 11837 N 1072.72 -0.059619 7.02075 0
M  V30 11838 H 1077.56 1.20834 2.72402 0
M  V30 11839 H 1075.1 0.607205 1.33983 0
M  V30 11840 H 1077.06 -0.86762 4.08079 0
M  V30 11841 H 1075.69 -1.21078 2.99232 0
M  V30 11842 H 1074.74 1.12237 3.63465 0
M  V30 11843 H 1076.05 1.26065 4.82606 0
M  V30 11844 H 1075.21 -0.771398 6.01776 0
M  V30 11845 H 1073.94 -0.999918 4.77339 0
M  V30 11846 H 1072.95 1.22936 5.35879 0
M  V30 11847 H 1074.17 1.44558 6.63536 0
M  V30 11848 H 1072.12 -0.795026 6.51165 0
M  V30 11849 H 1072.04 0.60045 7.53612 0
M  V30 11850 H 1073.31 -0.564577 7.77453 0
M  V30 11851 N 1077.53 -1.43282 0.656365 0
M  V30 11852 C 1078.47 -2.29087 -0.0720378 0
M  V30 11853 C 1079.48 -1.4268 -0.783982 0
M  V30 11854 O 1080.67 -1.66585 -0.641213 0
M  V30 11855 C 1077.77 -3.19676 -1.12519 0
M  V30 11856 C 1076.94 -4.34638 -0.490756 0
M  V30 11857 C 1076 -5.06079 -1.44121 0
M  V30 11858 O 1075.03 -5.6124 -0.948595 0
M  V30 11859 N 1076.23 -5.09872 -2.77509 0
M  V30 11860 H 1078.99 -2.92241 0.664456 0
M  V30 11861 H 1076.55 -1.54006 0.499383 0
M  V30 11862 H 1078.55 -3.64334 -1.76189 0
M  V30 11863 H 1077.12 -2.581 -1.76362 0
M  V30 11864 H 1076.34 -3.92857 0.3251 0
M  V30 11865 H 1077.62 -5.08777 -0.0480061 0
M  V30 11866 H 1077.02 -4.66433 -3.20088 0
M  V30 11867 H 1075.58 -5.58237 -3.36474 0
M  V30 11868 N 1079.01 -0.398486 -1.52479 0
M  V30 11869 C 1079.96 0.447001 -2.28264 0
M  V30 11870 C 1080.96 1.05511 -1.32529 0
M  V30 11871 O 1082.16 0.994528 -1.5003 0
M  V30 11872 H 1078.54 0.162919 -0.73414 0
M  V30 11873 H 1080.51 -0.213534 -2.97635 0
M  V30 11874 C 1079.26 1.55724 -3.10879 0
M  V30 11875 H 1078.58 1.09864 -3.84409 0
M  V30 11876 H 1080.02 2.12286 -3.67029 0
M  V30 11877 C 1078.48 2.51853 -2.23768 0
M  V30 11878 O 1079.01 3.55483 -1.87069 0
M  V30 11879 N 1077.21 2.2181 -1.87746 0
M  V30 11880 H 1076.76 1.3757 -2.17789 0
M  V30 11881 H 1076.72 2.86376 -1.29753 0
M  V30 11882 N 1080.49 1.57075 -0.12858 0
M  V30 11883 C 1081.42 2.18833 0.814519 0
M  V30 11884 C 1082.4 1.13114 1.2704 0
M  V30 11885 O 1083.59 1.41387 1.33129 0
M  V30 11886 C 1080.72 2.79535 2.06101 0
M  V30 11887 C 1079.67 3.9092 1.74257 0
M  V30 11888 C 1079 4.38473 3.06015 0
M  V30 11889 C 1080.3 5.1257 1.00345 0
M  V30 11890 H 1081.99 2.97895 0.299862 0
M  V30 11891 H 1079.54 1.4329 0.14279 0
M  V30 11892 H 1081.49 3.21401 2.72543 0
M  V30 11893 H 1080.21 1.97777 2.59907 0
M  V30 11894 H 1078.87 3.49645 1.102 0
M  V30 11895 H 1078.52 3.53561 3.57776 0
M  V30 11896 H 1078.22 5.13591 2.85479 0
M  V30 11897 H 1079.75 4.82997 3.7356 0
M  V30 11898 H 1081.16 5.51395 1.56959 0
M  V30 11899 H 1079.56 5.93333 0.898693 0
M  V30 11900 H 1080.63 4.84899 -0.0081335 0
M  V30 11901 N 1081.97 -0.145205 1.5693 0
M  V30 11902 C 1083.19 -0.876386 1.87974 0
M  V30 11903 C 1083.62 -1.73866 0.717795 0
M  V30 11904 O 1082.98 -1.78224 -0.332551 0
M  V30 11905 C 1083.03 -1.70746 3.17613 0
M  V30 11906 O 1082.13 -2.81188 3.01674 0
M  V30 11907 H 1081.47 -0.243987 0.617549 0
M  V30 11908 H 1084 -0.135482 2.04151 0
M  V30 11909 H 1084.01 -2.1021 3.49679 0
M  V30 11910 H 1082.69 -1.07429 4.01786 0
M  V30 11911 H 1081.26 -2.45117 2.81019 0
M  V30 11912 N 1083.45 -1.52049 -0.414609 0
M  V30 11913 C 1084.72 -1.56397 -1.17471 0
M  V30 11914 C 1085.1 -0.34171 -2.08316 0
M  V30 11915 O 1084.45 0.6718 -2.18401 0
M  V30 11916 C 1084.66 -2.88983 -1.95678 0
M  V30 11917 C 1086.01 -3.41781 -2.51935 0
M  V30 11918 O 1087.03 -2.90686 -2.05865 0
M  V30 11919 O 1085.89 -4.30989 -3.36022 0
M  V30 11920 H 1082.99 -0.62974 -0.536056 0
M  V30 11921 H 1085.53 -1.64374 -0.421834 0
M  V30 11922 H 1084.31 -3.69392 -1.29094 0
M  V30 11923 H 1083.93 -2.84274 -2.77983 0
M  V30 11924 N 1084.93 0.6715 -1.42579 0
M  V30 11925 C 1086.15 1.45972 -1.46628 0
M  V30 11926 C 1086.57 1.88636 -0.0785986 0
M  V30 11927 O 1085.93 1.58345 0.907372 0
M  V30 11928 C 1085.98 2.70668 -2.39627 0
M  V30 11929 O 1085.7 2.29793 -3.72997 0
M  V30 11930 C 1087.2 3.64201 -2.52731 0
M  V30 11931 H 1084.42 0.449044 -0.498598 0
M  V30 11932 H 1086.96 0.824811 -1.87129 0
M  V30 11933 H 1085.12 3.3034 -2.02371 0
M  V30 11934 H 1085.53 3.10341 -4.22834 0
M  V30 11935 H 1087.01 4.48412 -3.21918 0
M  V30 11936 H 1087.48 4.10323 -1.56626 0
M  V30 11937 H 1088.09 3.1042 -2.90722 0
M  V30 11938 N 1086.4 1.28806 0.908124 0
M  V30 11939 C 1087.65 1.16287 1.65781 0
M  V30 11940 C 1087.98 -0.287389 1.92365 0
M  V30 11941 O 1087.23 -1.22491 1.52625 0
M  V30 11942 C 1087.53 1.91267 3.01914 0
M  V30 11943 C 1087.2 3.41033 2.9497 0
M  V30 11944 C 1085.86 3.81879 2.92783 0
M  V30 11945 C 1088.21 4.36507 2.848 0
M  V30 11946 C 1085.54 5.16529 2.78235 0
M  V30 11947 C 1087.89 5.71237 2.71792 0
M  V30 11948 C 1086.56 6.11351 2.67967 0
M  V30 11949 H 1085.83 0.425526 0.606637 0
M  V30 11950 H 1088.47 1.59646 1.05762 0
M  V30 11951 H 1086.78 1.40474 3.65752 0
M  V30 11952 H 1088.48 1.78992 3.58835 0
M  V30 11953 H 1085.07 3.08561 2.97469 0
M  V30 11954 H 1089.25 4.05909 2.85573 0
M  V30 11955 H 1084.51 5.4673 2.73672 0
M  V30 11956 H 1088.68 6.44872 2.62892 0
M  V30 11957 H 1086.31 7.15637 2.56451 0
M  V30 11958 N 1087.88 -1.11734 1.11145 0
M  V30 11959 C 1088.79 -2.21267 0.779607 0
M  V30 11960 C 1089.81 -1.72526 -0.225986 0
M  V30 11961 O 1090.98 -2.01302 -0.0629166 0
M  V30 11962 C 1088.05 -3.45973 0.22435 0
M  V30 11963 C 1087.11 -4.09518 1.28816 0
M  V30 11964 C 1086.34 -5.28271 0.7593 0
M  V30 11965 O 1086.57 -5.68912 -0.411725 0
M  V30 11966 O 1085.5 -5.82322 1.52266 0
M  V30 11967 H 1089.33 -2.5206 1.6941 0
M  V30 11968 H 1086.91 -1.20211 0.887115 0
M  V30 11969 H 1088.79 -4.21322 -0.0810921 0
M  V30 11970 H 1087.47 -3.1684 -0.662891 0
M  V30 11971 H 1086.37 -3.35915 1.64657 0
M  V30 11972 H 1087.71 -4.42824 2.14868 0
M  V30 11973 N 1089.36 -0.901303 -1.29284 0
M  V30 11974 C 1090.61 -0.52401 -1.94774 0
M  V30 11975 C 1090.92 0.934645 -1.71825 0
M  V30 11976 O 1092.13 1.41953 -2.31434 0
M  V30 11977 C 1090.58 -0.886262 -3.48817 0
M  V30 11978 C 1090.19 -2.3638 -3.80564 0
M  V30 11979 C 1091.94 -0.578955 -4.20533 0
M  V30 11980 C 1089.84 -2.66682 -5.27858 0
M  V30 11981 H 1088.77 -0.192244 -0.72908 0
M  V30 11982 H 1091.42 -1.09852 -1.46986 0
M  V30 11983 H 1089.81 -0.240666 -3.95268 0
M  V30 11984 H 1090.98 -3.05508 -3.44966 0
M  V30 11985 H 1089.29 -2.64029 -3.2199 0
M  V30 11986 H 1091.89 -0.782185 -5.28948 0
M  V30 11987 H 1092.23 0.482605 -4.13493 0
M  V30 11988 H 1092.77 -1.18246 -3.79819 0
M  V30 11989 H 1089.51 -3.71643 -5.39965 0
M  V30 11990 H 1089.03 -2.02179 -5.64698 0
M  V30 11991 H 1090.71 -2.53033 -5.95469 0
M  V30 11992 N 1090.84 1.42931 -0.663954 0
M  V30 11993 C 1091.79 2.32577 0.03287 0
M  V30 11994 C 1092.78 1.49217 0.801918 0
M  V30 11995 O 1093.99 1.65358 0.711106 0
M  V30 11996 H 1090.36 0.751424 0.0294198 0
M  V30 11997 H 1092.33 2.89059 -0.740763 0
M  V30 11998 C 1091.08 3.33661 0.978025 0
M  V30 11999 H 1090.4 3.97837 0.395681 0
M  V30 12000 H 1091.84 3.98997 1.43448 0
M  V30 12001 C 1090.3 2.65085 2.07922 0
M  V30 12002 O 1090.83 2.4745 3.16435 0
M  V30 12003 N 1089.04 2.24285 1.84783 0
M  V30 12004 H 1088.59 2.38827 0.965368 0
M  V30 12005 H 1088.54 1.78732 2.58655 0
M  V30 12006 N 1092.32 0.406567 1.52266 0
M  V30 12007 C 1093.56 -0.170305 2.02084 0
M  V30 12008 C 1093.89 -1.45008 1.29176 0
M  V30 12009 O 1093.17 -1.90399 0.39731 0
M  V30 12010 C 1093.45 -0.420627 3.57635 0
M  V30 12011 C 1093.31 0.87564 4.41194 0
M  V30 12012 C 1094.62 -1.20387 4.23314 0
M  V30 12013 H 1091.74 -0.0604219 0.734519 0
M  V30 12014 H 1094.39 0.539529 1.82179 0
M  V30 12015 H 1092.54 -1.0253 3.74726 0
M  V30 12016 H 1094.21 1.51192 4.35819 0
M  V30 12017 H 1092.45 1.48718 4.07511 0
M  V30 12018 H 1093.12 0.654916 5.48101 0
M  V30 12019 H 1095.6 -0.691972 4.10306 0
M  V30 12020 H 1094.47 -1.34776 5.32096 0
M  V30 12021 H 1094.73 -2.2238 3.82099 0
M  V30 12022 N 1093.79 -1.57004 0.136909 0
M  V30 12023 C 1094.74 -2.12815 -0.818144 0
M  V30 12024 C 1095.73 -1.0534 -1.21623 0
M  V30 12025 O 1096.92 -1.31539 -1.18434 0
M  V30 12026 C 1094.05 -2.74533 -2.06122 0
M  V30 12027 C 1093.14 -3.89117 -1.68669 0
M  V30 12028 N 1093.53 -4.95412 -1.01983 0
M  V30 12029 C 1091.82 -3.99636 -1.98009 0
M  V30 12030 C 1092.53 -5.75594 -0.840624 0
M  V30 12031 N 1091.5 -5.26019 -1.37131 0
M  V30 12032 H 1095.3 -2.92372 -0.299315 0
M  V30 12033 H 1092.82 -1.6227 -0.0649741 0
M  V30 12034 H 1094.81 -3.12872 -2.7553 0
M  V30 12035 H 1093.47 -1.96446 -2.58532 0
M  V30 12036 H 1094.49 -5.13393 -0.681744 0
M  V30 12037 H 1091.16 -3.32613 -2.52339 0
M  V30 12038 H 1092.55 -6.71157 -0.315807 0
M  V30 12039 N 1095.27 0.136881 -1.57004 0
M  V30 12040 C 1096.18 1.18793 -2.023 0
M  V30 12041 C 1097.2 1.46412 -0.94018 0
M  V30 12042 O 1098.37 1.57883 -1.2504 0
M  V30 12043 C 1095.44 2.49903 -2.40311 0
M  V30 12044 C 1094.5 2.29841 -3.6259 0
M  V30 12045 C 1093.73 3.54699 -3.98779 0
M  V30 12046 O 1093.96 4.61291 -3.3551 0
M  V30 12047 O 1092.89 3.46761 -4.91976 0
M  V30 12048 H 1096.72 0.833345 -2.92043 0
M  V30 12049 H 1094.3 0.346361 -1.4533 0
M  V30 12050 H 1096.18 3.27183 -2.65574 0
M  V30 12051 H 1094.86 2.84872 -1.5372 0
M  V30 12052 H 1093.77 1.50478 -3.42501 0
M  V30 12053 H 1095.1 1.99784 -4.4983 0
M  V30 12054 N 1096.75 1.52266 0.40654 0
M  V30 12055 C 1098.03 1.57018 1.1664 0
M  V30 12056 C 1098.41 0.352752 2.08132 0
M  V30 12057 O 1097.76 -0.660208 2.18754 0
M  V30 12058 C 1097.97 2.90016 1.94143 0
M  V30 12059 C 1099.31 3.43112 2.50119 0
M  V30 12060 O 1100.34 2.91773 2.0432 0
M  V30 12061 O 1099.2 4.32765 3.33731 0
M  V30 12062 H 1096.29 0.632574 0.532709 0
M  V30 12063 H 1098.84 1.64595 0.413111 0
M  V30 12064 H 1097.61 3.70071 1.27134 0
M  V30 12065 H 1097.23 2.85744 2.76471 0
M  V30 12066 N 1098.23 -0.663929 1.42933 0
M  V30 12067 C 1099.19 -1.75899 1.46943 0
M  V30 12068 C 1100.19 -1.5682 0.355535 0
M  V30 12069 O 1101.38 -1.62914 0.616833 0
M  V30 12070 C 1098.51 -3.14657 1.31164 0
M  V30 12071 H 1099.71 -1.73727 2.44456 0
M  V30 12072 H 1097.26 -0.874587 1.2954 0
M  V30 12073 H 1097.99 -3.22447 0.346165 0
M  V30 12074 H 1097.78 -3.29909 2.11902 0
M  V30 12075 H 1099.27 -3.9453 1.36878 0
M  V30 12076 N 1099.71 -1.29285 -0.901281 0
M  V30 12077 C 1100.65 -1.1428 -2.00521 0
M  V30 12078 C 1101.62 -0.0365428 -1.6606 0
M  V30 12079 O 1102.81 -0.203771 -1.89709 0
M  V30 12080 C 1099.95 -0.823671 -3.35126 0
M  V30 12081 C 1099.06 -2.01021 -3.8238 0
M  V30 12082 C 1098.2 -1.6306 -5.05554 0
M  V30 12083 C 1097.24 -2.78304 -5.45173 0
M  V30 12084 N 1096.37 -2.4075 -6.59533 0
M  V30 12085 H 1101.21 -2.08729 -2.12688 0
M  V30 12086 H 1098.75 -1.0387 -1.04161 0
M  V30 12087 H 1100.71 -0.61934 -4.12577 0
M  V30 12088 H 1099.34 0.0839113 -3.22691 0
M  V30 12089 H 1098.39 -2.32629 -3.00978 0
M  V30 12090 H 1099.7 -2.8738 -4.07694 0
M  V30 12091 H 1098.86 -1.38906 -5.90584 0
M  V30 12092 H 1097.59 -0.738464 -4.82077 0
M  V30 12093 H 1096.6 -3.03142 -4.58678 0
M  V30 12094 H 1097.82 -3.68179 -5.70632 0
M  V30 12095 H 1095.77 -1.54022 -6.37662 0
M  V30 12096 H 1095.69 -3.20643 -6.84634 0
M  V30 12097 H 1096.96 -2.19912 -7.47836 0
M  V30 12098 N 1101.18 1.11143 -1.11736 0
M  V30 12099 C 1102.09 2.20851 -0.791331 0
M  V30 12100 C 1103.11 1.72644 0.216833 0
M  V30 12101 O 1104.29 2.01332 0.0522401 0
M  V30 12102 C 1101.35 3.4585 -0.242694 0
M  V30 12103 C 1100.41 4.08829 -1.30986 0
M  V30 12104 C 1099.65 5.27861 -0.787305 0
M  V30 12105 O 1099.87 5.69122 0.381549 0
M  V30 12106 O 1098.8 5.81506 -1.55352 0
M  V30 12107 H 1102.63 2.51158 -1.70744 0
M  V30 12108 H 1100.21 1.19739 -0.893478 0
M  V30 12109 H 1102.1 4.21359 0.0587472 0
M  V30 12110 H 1100.77 3.17187 0.646079 0
M  V30 12111 H 1099.68 3.35037 -1.66436 0
M  V30 12112 H 1101.01 4.41678 -2.17213 0
M  V30 12113 N 1102.66 0.908147 1.28804 0
M  V30 12114 C 1103.61 0.363504 2.25084 0
M  V30 12115 C 1104.6 -0.52121 1.52224 0
M  V30 12116 O 1105.79 -0.361848 1.73262 0
M  V30 12117 C 1102.92 -0.400353 3.40958 0
M  V30 12118 C 1102 0.499761 4.21145 0
M  V30 12119 N 1102.39 1.61082 4.79464 0
M  V30 12120 C 1100.69 0.299108 4.44996 0
M  V30 12121 C 1101.39 2.16906 5.39747 0
M  V30 12122 N 1100.37 1.46103 5.23598 0
M  V30 12123 H 1104.17 1.21212 2.6774 0
M  V30 12124 H 1101.69 0.760159 1.43511 0
M  V30 12125 H 1103.68 -0.807343 4.09008 0
M  V30 12126 H 1102.34 -1.24613 2.99836 0
M  V30 12127 H 1103.35 1.99347 4.77997 0
M  V30 12128 H 1100.03 -0.507611 4.14403 0
M  V30 12129 H 1101.42 3.10338 5.95936 0
M  V30 12130 N 1104.14 -1.42577 0.671525 0
M  V30 12131 C 1105.05 -2.34598 -0.00898225 0
M  V30 12132 C 1106.07 -1.54909 -0.792407 0
M  V30 12133 O 1107.24 -1.87491 -0.735477 0
M  V30 12134 C 1104.31 -3.33405 -0.950888 0
M  V30 12135 C 1103.37 -4.28993 -0.16236 0
M  V30 12136 C 1102.6 -5.2308 -1.0594 0
M  V30 12137 O 1102.82 -5.22022 -2.2989 0
M  V30 12138 O 1101.76 -5.99632 -0.521966 0
M  V30 12139 H 1105.58 -2.94321 0.748927 0
M  V30 12140 H 1103.17 -1.43025 0.43175 0
M  V30 12141 H 1105.05 -3.94115 -1.49169 0
M  V30 12142 H 1103.73 -2.7616 -1.68871 0
M  V30 12143 H 1102.63 -3.71707 0.42247 0
M  V30 12144 H 1103.97 -4.8927 0.536274 0
M  V30 12145 N 1105.62 -0.414636 -1.52048 0
M  V30 12146 C 1106.57 0.408141 -2.27163 0
M  V30 12147 C 1107.54 1.03636 -1.29803 0
M  V30 12148 O 1108.72 1.05959 -1.58674 0
M  V30 12149 C 1105.86 1.51588 -3.10024 0
M  V30 12150 C 1104.97 0.908034 -4.22349 0
M  V30 12151 C 1104.11 1.98893 -4.9256 0
M  V30 12152 C 1103.15 1.35831 -5.96839 0
M  V30 12153 N 1102.28 2.37958 -6.60545 0
M  V30 12154 H 1107.12 -0.238822 -2.97041 0
M  V30 12155 H 1104.66 -0.129614 -1.46528 0
M  V30 12156 H 1106.62 2.16916 -3.56375 0
M  V30 12157 H 1105.25 2.13279 -2.42305 0
M  V30 12158 H 1104.3 0.143652 -3.80129 0
M  V30 12159 H 1105.61 0.407426 -4.97133 0
M  V30 12160 H 1104.77 2.71935 -5.42343 0
M  V30 12161 H 1103.51 2.5232 -4.17356 0
M  V30 12162 H 1102.51 0.613246 -5.46369 0
M  V30 12163 H 1103.74 0.831655 -6.73988 0
M  V30 12164 H 1101.68 2.90508 -5.88167 0
M  V30 12165 H 1101.6 1.92725 -7.31022 0
M  V30 12166 H 1102.87 3.10553 -7.14966 0
M  V30 12167 N 1107.1 1.56929 -0.145233 0
M  V30 12168 C 1108.01 2.20238 0.808219 0
M  V30 12169 C 1109.02 1.18615 1.27304 0
M  V30 12170 O 1110.2 1.51186 1.3306 0
M  V30 12171 C 1107.26 2.81016 2.03055 0
M  V30 12172 C 1106.32 3.97759 1.61512 0
M  V30 12173 C 1105.56 4.55628 2.77918 0
M  V30 12174 O 1105.78 4.12378 3.94082 0
M  V30 12175 O 1104.71 5.45917 2.53492 0
M  V30 12176 H 1108.54 3.02221 0.299314 0
M  V30 12177 H 1106.13 1.49176 0.0817051 0
M  V30 12178 H 1108.01 3.19652 2.74592 0
M  V30 12179 H 1106.68 2.02047 2.52901 0
M  V30 12180 H 1105.59 3.63842 0.870033 0
M  V30 12181 H 1106.92 4.78242 1.16383 0
M  V30 12182 N 1108.58 -0.128553 1.57075 0
M  V30 12183 C 1109.52 -1.15812 1.9964 0
M  V30 12184 C 1110.49 -1.41679 0.86696 0
M  V30 12185 O 1111.68 -1.53705 1.13046 0
M  V30 12186 C 1108.82 -2.48198 2.39774 0
M  V30 12187 C 1107.93 -2.29348 3.66092 0
M  V30 12188 C 1107.07 -3.54898 3.95248 0
M  V30 12189 C 1106.1 -3.31164 5.14779 0
M  V30 12190 N 1105.24 -4.48891 5.39853 0
M  V30 12191 H 1110.08 -0.788136 2.87389 0
M  V30 12192 H 1107.62 -0.377682 1.42169 0
M  V30 12193 H 1109.58 -3.25414 2.61077 0
M  V30 12194 H 1108.21 -2.83108 1.5508 0
M  V30 12195 H 1107.26 -1.43095 3.5246 0
M  V30 12196 H 1108.57 -2.07781 4.53463 0
M  V30 12197 H 1107.72 -4.40536 4.17148 0
M  V30 12198 H 1106.46 -3.79487 3.06335 0
M  V30 12199 H 1105.47 -2.43915 4.92733 0
M  V30 12200 H 1106.69 -3.07954 6.05261 0
M  V30 12201 H 1104.64 -4.73619 4.53895 0
M  V30 12202 H 1104.56 -4.30394 6.21528 0
M  V30 12203 H 1105.82 -5.35691 5.66265 0
M  V30 12204 N 1110.05 -1.5248 -0.398459 0
M  V30 12205 C 1111.28 -1.71221 -1.17039 0
M  V30 12206 C 1111.7 -0.425515 -1.83224 0
M  V30 12207 O 1111.06 0.617938 -1.70444 0
M  V30 12208 C 1111.11 -2.8562 -2.20121 0
M  V30 12209 O 1110.21 -2.51934 -3.26501 0
M  V30 12210 H 1109.55 -0.569654 -0.34116 0
M  V30 12211 H 1112.08 -1.99231 -0.465652 0
M  V30 12212 H 1112.09 -3.10842 -2.64275 0
M  V30 12213 H 1110.77 -3.78969 -1.71334 0
M  V30 12214 H 1109.35 -2.3742 -2.87552 0
M  V30 12215 N 1111.53 0.65634 -1.43283 0
M  V30 12216 C 1112.78 1.41837 -1.44949 0
M  V30 12217 C 1113.11 1.94065 -0.0723212 0
M  V30 12218 O 1112.39 1.72092 0.906346 0
M  V30 12219 C 1112.67 2.60206 -2.48927 0
M  V30 12220 C 1112.52 2.1349 -3.95907 0
M  V30 12221 C 1113.84 3.62421 -2.49678 0
M  V30 12222 H 1110.96 0.514398 -0.527792 0
M  V30 12223 H 1113.6 0.74435 -1.74813 0
M  V30 12224 H 1111.75 3.17708 -2.23592 0
M  V30 12225 H 1113.42 1.61012 -4.32288 0
M  V30 12226 H 1111.67 1.4489 -4.08888 0
M  V30 12227 H 1112.34 2.98596 -4.64268 0
M  V30 12228 H 1114.81 3.14671 -2.72252 0
M  V30 12229 H 1113.69 4.42798 -3.24378 0
M  V30 12230 H 1113.95 4.14802 -1.52944 0
M  V30 12231 N 1113.01 1.29761 0.894412 0
M  V30 12232 C 1114.23 1.21064 1.68399 0
M  V30 12233 C 1114.66 -0.224608 1.86754 0
M  V30 12234 O 1114.02 -1.16199 1.39167 0
M  V30 12235 C 1114.07 1.93468 3.04306 0
M  V30 12236 O 1113.17 1.25533 3.9283 0
M  V30 12237 H 1112.51 0.419223 0.514925 0
M  V30 12238 H 1115.04 1.71421 1.11696 0
M  V30 12239 H 1115.05 2.02127 3.54413 0
M  V30 12240 H 1113.73 2.97857 2.90265 0
M  V30 12241 H 1112.3 1.25168 3.51266 0
M  V30 12242 N 1114.49 -1.10549 1.12324 0
M  V30 12243 C 1115.71 -1.8681 0.900927 0
M  V30 12244 C 1116.14 -1.80049 -0.54443 0
M  V30 12245 O 1115.5 -1.16957 -1.38531 0
M  V30 12246 C 1115.54 -3.33197 1.37883 0
M  V30 12247 O 1114.65 -4.08628 0.556529 0
M  V30 12248 H 1113.99 -0.579709 0.32378 0
M  V30 12249 H 1116.52 -1.39678 1.49503 0
M  V30 12250 H 1116.53 -3.84047 1.37739 0
M  V30 12251 H 1115.2 -3.37435 2.43127 0
M  V30 12252 H 1113.78 -3.67627 0.62486 0
M  V30 12253 N 1115.97 -0.914965 -1.28321 0
M  V30 12254 C 1117.24 -0.46764 -1.89928 0
M  V30 12255 C 1117.62 1.05364 -1.82925 0
M  V30 12256 O 1116.97 1.90223 -1.26599 0
M  V30 12257 C 1117.18 -0.999372 -3.34385 0
M  V30 12258 C 1118.53 -1.0522 -4.11356 0
M  V30 12259 O 1119.55 -0.9481 -3.4335 0
M  V30 12260 O 1118.41 -1.21085 -5.32917 0
M  V30 12261 H 1115.51 -0.148398 -0.813577 0
M  V30 12262 H 1118.05 -1.00583 -1.36679 0
M  V30 12263 H 1116.82 -2.04333 -3.33712 0
M  V30 12264 H 1116.45 -0.442083 -3.95135 0
M  V30 12265 N 1117.44 1.42219 -0.679077 0
M  V30 12266 C 1118.86 1.55737 -0.349034 0
M  V30 12267 C 1119.06 1.65789 1.14527 0
M  V30 12268 O 1118.12 1.62717 1.93079 0
M  V30 12269 C 1119.43 2.80516 -1.0831 0
M  V30 12270 C 1120.98 2.94294 -1.06584 0
M  V30 12271 C 1121.45 4.2194 -1.78132 0
M  V30 12272 N 1122.94 4.28861 -1.75021 0
M  V30 12273 C 1123.68 5.26453 -2.27234 0
M  V30 12274 N 1123.17 6.30171 -2.87847 0
M  V30 12275 N 1124.97 5.1828 -2.17584 0
M  V30 12276 H 1117.12 1.33939 -1.64846 0
M  V30 12277 H 1119.38 0.645029 -0.694725 0
M  V30 12278 H 1119.09 2.79241 -2.13816 0
M  V30 12279 H 1118.96 3.71539 -0.651069 0
M  V30 12280 H 1121.35 2.95094 -0.0191061 0
M  V30 12281 H 1121.43 2.04491 -1.53679 0
M  V30 12282 H 1121.07 4.21901 -2.82776 0
M  V30 12283 H 1121 5.10685 -1.28483 0
M  V30 12284 H 1123.49 3.54537 -1.30814 0
M  V30 12285 H 1123.81 7.01 -3.25298 0
M  V30 12286 H 1122.15 6.30721 -2.91918 0
M  V30 12287 H 1125.34 4.36172 -1.69916 0
M  V30 12288 H 1125.52 5.94172 -2.58581 0
M  V30 12289 N 1118.92 0.422693 1.51826 0
M  V30 12290 C 1119.87 -0.396088 2.27376 0
M  V30 12291 C 1120.84 -1.02946 1.30351 0
M  V30 12292 O 1122.02 -1.05116 1.59233 0
M  V30 12293 C 1119.16 -1.49942 3.10824 0
M  V30 12294 C 1118.28 -0.885623 4.22825 0
M  V30 12295 C 1117.41 -1.96278 4.93608 0
M  V30 12296 C 1116.45 -1.32664 5.97551 0
M  V30 12297 N 1115.59 -2.34452 6.61798 0
M  V30 12298 H 1120.43 0.254571 2.96911 0
M  V30 12299 H 1117.96 0.137383 1.46457 0
M  V30 12300 H 1119.92 -2.15023 3.57521 0
M  V30 12301 H 1118.55 -2.11991 2.43433 0
M  V30 12302 H 1117.6 -0.123491 3.80199 0
M  V30 12303 H 1118.92 -0.381057 4.97342 0
M  V30 12304 H 1118.07 -2.69055 5.43778 0
M  V30 12305 H 1116.81 -2.50103 4.18688 0
M  V30 12306 H 1115.81 -0.584262 5.46687 0
M  V30 12307 H 1117.04 -0.7959 6.7442 0
M  V30 12308 H 1114.99 -2.87385 5.897 0
M  V30 12309 H 1114.9 -1.88845 7.32034 0
M  V30 12310 H 1116.17 -3.06757 7.16603 0
M  V30 12311 N 1120.4 -1.5685 0.153553 0
M  V30 12312 C 1121.35 -2.1709 -0.783626 0
M  V30 12313 C 1122.32 -1.10567 -1.23952 0
M  V30 12314 O 1123.5 -1.38638 -1.31088 0
M  V30 12315 C 1120.64 -2.80183 -2.01473 0
M  V30 12316 C 1119.75 -4.01117 -1.60403 0
M  V30 12317 C 1118.89 -4.5219 -2.78743 0
M  V30 12318 C 1117.93 -5.65574 -2.34079 0
M  V30 12319 N 1117.07 -6.11235 -3.4545 0
M  V30 12320 H 1121.91 -2.96836 -0.263127 0
M  V30 12321 H 1119.44 -1.46625 -0.11816 0
M  V30 12322 H 1121.4 -3.14912 -2.73654 0
M  V30 12323 H 1120.03 -2.03071 -2.50923 0
M  V30 12324 H 1119.08 -3.72325 -0.779631 0
M  V30 12325 H 1120.39 -4.83243 -1.23605 0
M  V30 12326 H 1119.55 -4.89008 -3.59105 0
M  V30 12327 H 1118.29 -3.69085 -3.18791 0
M  V30 12328 H 1117.29 -5.28326 -1.52158 0
M  V30 12329 H 1118.52 -6.50468 -1.95109 0
M  V30 12330 H 1116.46 -5.31064 -3.85106 0
M  V30 12331 H 1116.38 -6.88304 -3.12687 0
M  V30 12332 H 1117.65 -6.527 -4.26149 0
M  V30 12333 N 1121.88 0.120221 -1.57141 0
M  V30 12334 C 1123.12 0.824472 -1.85941 0
M  V30 12335 C 1123.48 1.77552 -0.741152 0
M  V30 12336 O 1122.77 1.89842 0.258939 0
M  V30 12337 C 1122.97 1.61338 -3.18912 0
M  V30 12338 C 1122.79 0.740224 -4.43566 0
M  V30 12339 C 1121.56 0.39553 -5.0375 0
M  V30 12340 C 1123.76 0.0584053 -5.14267 0
M  V30 12341 N 1121.74 -0.488415 -6.11954 0
M  V30 12342 C 1123.12 -0.684591 -6.16209 0
M  V30 12343 C 1125.17 -0.0181409 -4.97897 0
M  V30 12344 C 1123.87 -1.49694 -7.03551 0
M  V30 12345 C 1125.9 -0.817313 -5.85725 0
M  V30 12346 C 1125.26 -1.54851 -6.87169 0
M  V30 12347 H 1121.36 0.278664 -0.730664 0
M  V30 12348 H 1123.94 0.0882789 -1.945 0
M  V30 12349 H 1122.12 2.32062 -3.11451 0
M  V30 12350 H 1123.85 2.26287 -3.35524 0
M  V30 12351 H 1120.6 0.737491 -4.67823 0
M  V30 12352 H 1121.03 -0.9222 -6.7069 0
M  V30 12353 H 1125.67 0.532815 -4.19429 0
M  V30 12354 H 1123.39 -2.05906 -7.81427 0
M  V30 12355 H 1126.97 -0.878884 -5.75123 0
M  V30 12356 H 1125.85 -2.15696 -7.53953 0
M  V30 12357 N 1123.36 1.52689 0.390367 0
M  V30 12358 C 1124.27 1.8029 1.50108 0
M  V30 12359 C 1125.28 0.689582 1.59752 0
M  V30 12360 O 1126.46 0.977024 1.76114 0
M  V30 12361 C 1123.52 1.96475 2.85654 0
M  V30 12362 C 1122.58 3.2039 2.85743 0
M  V30 12363 C 1121.82 3.35793 4.14824 0
M  V30 12364 O 1122.04 2.56033 5.09709 0
M  V30 12365 O 1120.97 4.2904 4.22147 0
M  V30 12366 H 1124.8 2.74605 1.29715 0
M  V30 12367 H 1122.39 1.37763 0.578074 0
M  V30 12368 H 1124.27 2.08835 3.66013 0
M  V30 12369 H 1122.94 1.05351 3.06077 0
M  V30 12370 H 1121.85 3.13473 2.0417 0
M  V30 12371 H 1123.18 4.11356 2.70272 0
M  V30 12372 N 1124.83 -0.648732 1.43629 0
M  V30 12373 C 1125.8 -1.74331 1.488 0
M  V30 12374 C 1126.8 -1.56434 0.372147 0
M  V30 12375 O 1127.99 -1.6225 0.634078 0
M  V30 12376 C 1125.12 -3.13248 1.34494 0
M  V30 12377 H 1126.31 -1.71125 2.46285 0
M  V30 12378 H 1123.87 -0.860798 1.30461 0
M  V30 12379 H 1124.6 -3.22062 0.380345 0
M  V30 12380 H 1124.39 -3.27643 2.15389 0
M  V30 12381 H 1125.88 -3.93056 1.41055 0
M  V30 12382 N 1126.31 -1.30234 -0.887518 0
M  V30 12383 C 1127.56 -1.18675 -1.63587 0
M  V30 12384 C 1127.88 0.259342 -1.93268 0
M  V30 12385 O 1127.15 1.17523 -1.56733 0
M  V30 12386 H 1125.73 -0.436224 -0.606397 0
M  V30 12387 H 1128.39 -1.63326 -1.06351 0
M  V30 12388 H 1127.49 -1.74575 -2.58708 0
M  V30 12389 N 1127.79 1.09952 -1.12909 0
M  V30 12390 C 1129.04 1.81657 -0.885729 0
M  V30 12391 C 1129.36 1.85863 0.589913 0
M  V30 12392 O 1128.63 1.34028 1.42875 0
M  V30 12393 H 1127.21 0.672743 -0.324694 0
M  V30 12394 H 1129.87 1.33013 -1.42456 0
M  V30 12395 H 1128.97 2.85018 -1.27167 0
M  V30 12396 N 1129.27 0.921757 1.27833 0
M  V30 12397 C 1130.2 0.373575 2.26135 0
M  V30 12398 C 1131.21 -0.492414 1.55174 0
M  V30 12399 O 1132.4 -0.305998 1.75858 0
M  V30 12400 C 1129.5 -0.483911 3.35427 0
M  V30 12401 C 1128.68 0.361411 4.35904 0
M  V30 12402 C 1127.73 -0.432461 5.2442 0
M  V30 12403 O 1126.76 0.15777 5.68981 0
M  V30 12404 N 1127.96 -1.73367 5.54007 0
M  V30 12405 H 1130.73 1.21856 2.73809 0
M  V30 12406 H 1128.29 0.788552 1.41398 0
M  V30 12407 H 1130.28 -1.02193 3.91585 0
M  V30 12408 H 1128.85 -1.22963 2.874 0
M  V30 12409 H 1128.07 1.08076 3.79095 0
M  V30 12410 H 1129.36 0.939528 5.0005 0
M  V30 12411 H 1128.76 -2.23561 5.19651 0
M  V30 12412 H 1127.31 -2.21834 6.12889 0
M  V30 12413 N 1130.75 -1.41857 0.686609 0
M  V30 12414 C 1131.68 -2.33481 0.0298353 0
M  V30 12415 C 1132.66 -1.51329 -0.776756 0
M  V30 12416 O 1133.84 -1.79895 -0.731535 0
M  V30 12417 C 1130.97 -3.35065 -0.913707 0
M  V30 12418 C 1129.93 -4.2746 -0.214861 0
M  V30 12419 C 1129.25 -5.19346 -1.27215 0
M  V30 12420 C 1130.55 -5.14252 0.913367 0
M  V30 12421 H 1132.25 -2.8865 0.795067 0
M  V30 12422 H 1129.79 -1.38792 0.383785 0
M  V30 12423 H 1131.75 -3.98082 -1.38234 0
M  V30 12424 H 1130.47 -2.78226 -1.7105 0
M  V30 12425 H 1129.13 -3.65855 0.233651 0
M  V30 12426 H 1128.78 -4.58827 -2.06124 0
M  V30 12427 H 1128.48 -5.81996 -0.80961 0
M  V30 12428 H 1130 -5.85239 -1.74147 0
M  V30 12429 H 1131.41 -5.70887 0.525424 0
M  V30 12430 H 1129.81 -5.85796 1.30244 0
M  V30 12431 H 1130.88 -4.51949 1.75699 0
M  V30 12432 N 1132.22 -0.430739 -1.51599 0
M  V30 12433 C 1133.47 0.138133 -2.02329 0
M  V30 12434 C 1133.8 1.42934 -1.31466 0
M  V30 12435 O 1133.08 1.89743 -0.427551 0
M  V30 12436 C 1133.36 0.363677 -3.58259 0
M  V30 12437 C 1133.21 -0.94572 -4.39746 0
M  V30 12438 C 1134.53 1.13637 -4.25176 0
M  V30 12439 H 1131.65 0.0487287 -0.735387 0
M  V30 12440 H 1134.29 -0.568444 -1.81297 0
M  V30 12441 H 1132.44 0.965552 -3.7631 0
M  V30 12442 H 1134.12 -1.58107 -4.33359 0
M  V30 12443 H 1132.36 -1.55183 -4.05094 0
M  V30 12444 H 1133.03 -0.742031 -5.4699 0
M  V30 12445 H 1135.51 0.626608 -4.11355 0
M  V30 12446 H 1134.38 1.26294 -5.34173 0
M  V30 12447 H 1134.64 2.16273 -3.85588 0
M  V30 12448 N 1133.7 1.56767 -0.161869 0
M  V30 12449 C 1134.95 1.95769 0.485536 0
M  V30 12450 C 1135.26 1.05006 1.65025 0
M  V30 12451 O 1136.47 1.33649 2.36326 0
M  V30 12452 C 1134.93 3.4807 0.915176 0
M  V30 12453 C 1134.53 4.47443 -0.223416 0
M  V30 12454 C 1136.28 3.95909 1.53153 0
M  V30 12455 C 1134.19 5.90971 0.225325 0
M  V30 12456 H 1133.12 0.730911 0.185161 0
M  V30 12457 H 1135.77 1.81808 -0.248592 0
M  V30 12458 H 1134.15 3.57415 1.705 0
M  V30 12459 H 1135.32 4.49805 -1.00061 0
M  V30 12460 H 1133.64 4.09606 -0.749127 0
M  V30 12461 H 1136.23 5.00592 1.87915 0
M  V30 12462 H 1136.58 3.38307 2.42599 0
M  V30 12463 H 1137.11 3.89542 0.806322 0
M  V30 12464 H 1133.85 6.52426 -0.634124 0
M  V30 12465 H 1133.37 5.91936 0.96808 0
M  V30 12466 H 1135.05 6.43497 0.672373 0
M  V30 12467 N 1135.18 -0.111886 1.57202 0
M  V30 12468 C 1136.59 -0.668261 1.74331 0
M  V30 12469 C 1136.94 -1.79959 0.781609 0
M  V30 12470 O 1136.07 -2.16356 -0.043833 0
M  V30 12471 C 1136.66 -1.219 3.1611 0
M  V30 12472 C 1135.22 -1.7216 3.34721 0
M  V30 12473 C 1134.37 -0.624223 2.70183 0
M  V30 12474 H 1137.32 0.114081 1.58289 0
M  V30 12475 H 1137.34 -2.08858 3.18054 0
M  V30 12476 H 1136.85 -0.395381 3.86081 0
M  V30 12477 H 1134.95 -2.56976 2.69803 0
M  V30 12478 H 1135.07 -1.82615 4.42932 0
M  V30 12479 H 1133.43 -1.05958 2.31614 0
M  V30 12480 H 1134.21 0.188537 3.42782 0
M  V30 12481 N 1136.66 -1.52894 -0.382264 0
M  V30 12482 C 1137.59 -1.81122 -1.47367 0
M  V30 12483 C 1138.57 -0.663653 -1.56619 0
M  V30 12484 O 1139.75 -0.911898 -1.71459 0
M  V30 12485 C 1136.88 -1.98615 -2.84902 0
M  V30 12486 C 1135.84 -3.14328 -2.90485 0
M  V30 12487 C 1135.16 -3.17086 -4.30535 0
M  V30 12488 C 1136.46 -4.53263 -2.59519 0
M  V30 12489 H 1138.16 -2.72518 -1.23993 0
M  V30 12490 H 1135.7 -1.3113 -0.595049 0
M  V30 12491 H 1137.66 -2.16946 -3.61265 0
M  V30 12492 H 1136.38 -1.03915 -3.09628 0
M  V30 12493 H 1135.04 -2.95791 -2.16572 0
M  V30 12494 H 1134.69 -2.20055 -4.52311 0
M  V30 12495 H 1134.39 -3.94821 -4.3519 0
M  V30 12496 H 1135.91 -3.3758 -5.08795 0
M  V30 12497 H 1137.33 -4.71867 -3.25598 0
M  V30 12498 H 1135.72 -5.33115 -2.75514 0
M  V30 12499 H 1136.79 -4.59516 -1.54831 0
M  V30 12500 N 1138.14 0.641106 -1.43971 0
M  V30 12501 C 1139.41 1.39897 -1.36704 0
M  V30 12502 C 1139.79 2.1109 -0.0208051 0
M  V30 12503 O 1139.14 2.05638 0.99625 0
M  V30 12504 C 1139.35 2.37366 -2.55849 0
M  V30 12505 C 1140.7 3.01 -2.99473 0
M  V30 12506 O 1141.72 2.47692 -2.55982 0
M  V30 12507 O 1140.58 3.9768 -3.74851 0
M  V30 12508 H 1137.68 0.625623 -0.540855 0
M  V30 12509 H 1140.22 0.666997 -1.56042 0
M  V30 12510 H 1139 1.8379 -3.45452 0
M  V30 12511 H 1138.62 3.17995 -2.38673 0
M  V30 12512 N 1139.62 1.30703 0.880598 0
M  V30 12513 C 1140.53 1.19389 2.01949 0
M  V30 12514 C 1141.54 0.112868 1.73634 0
M  V30 12515 O 1142.72 0.328643 1.98701 0
M  V30 12516 C 1139.78 0.891004 3.35055 0
M  V30 12517 C 1138.84 2.05784 3.76764 0
M  V30 12518 C 1138.08 1.76931 5.03519 0
M  V30 12519 O 1138.3 0.699326 5.66097 0
M  V30 12520 O 1137.23 2.623 5.4174 0
M  V30 12521 H 1141.06 2.15073 2.14423 0
M  V30 12522 H 1138.64 1.10339 1.00726 0
M  V30 12523 H 1140.53 0.737476 4.14897 0
M  V30 12524 H 1139.2 -0.0358909 3.2368 0
M  V30 12525 H 1138.11 2.26672 2.97608 0
M  V30 12526 H 1139.44 2.96661 3.9275 0
M  V30 12527 N 1141.09 -1.09351 1.1349 0
M  V30 12528 C 1142.02 -2.18037 0.835588 0
M  V30 12529 C 1143 -1.68856 -0.205373 0
M  V30 12530 O 1144.19 -1.94094 -0.0641357 0
M  V30 12531 C 1141.32 -3.45987 0.301661 0
M  V30 12532 C 1140.27 -4.08507 1.27696 0
M  V30 12533 C 1139.6 -5.31292 0.602758 0
M  V30 12534 C 1140.9 -4.50916 2.63575 0
M  V30 12535 H 1142.59 -2.43332 1.74441 0
M  V30 12536 H 1140.14 -1.1695 0.840166 0
M  V30 12537 H 1142.09 -4.21324 0.079928 0
M  V30 12538 H 1140.82 -3.20217 -0.642552 0
M  V30 12539 H 1139.48 -3.3519 1.4847 0
M  V30 12540 H 1139.12 -5.01802 -0.346953 0
M  V30 12541 H 1138.82 -5.74075 1.25345 0
M  V30 12542 H 1140.35 -6.09351 0.390325 0
M  V30 12543 H 1141.76 -5.17474 2.46765 0
M  V30 12544 H 1140.16 -5.04586 3.24827 0
M  V30 12545 H 1141.23 -3.63279 3.2118 0
M  V30 12546 N 1142.57 -0.928524 -1.27343 0
M  V30 12547 C 1143.8 -0.585734 -1.98436 0
M  V30 12548 C 1144.21 0.83644 -1.69261 0
M  V30 12549 O 1143.57 1.55603 -0.953626 0
M  V30 12550 C 1143.62 -0.803092 -3.52467 0
M  V30 12551 O 1143.34 -2.16932 -3.80621 0
M  V30 12552 C 1144.84 -0.469127 -4.40811 0
M  V30 12553 H 1142.06 -0.221887 -0.633251 0
M  V30 12554 H 1144.61 -1.24577 -1.62175 0
M  V30 12555 H 1142.76 -0.189846 -3.86935 0
M  V30 12556 H 1143.18 -2.21992 -4.75205 0
M  V30 12557 H 1144.65 -0.671906 -5.47895 0
M  V30 12558 H 1145.13 0.595365 -4.35146 0
M  V30 12559 H 1145.73 -1.06055 -4.11865 0
M  V30 12560 N 1144.05 1.41491 -0.694123 0
M  V30 12561 C 1144.98 2.33462 -0.0422169 0
M  V30 12562 C 1145.96 1.51739 0.76872 0
M  V30 12563 O 1147.15 1.8028 0.721985 0
M  V30 12564 C 1144.28 3.35545 0.895925 0
M  V30 12565 C 1143.23 4.27568 0.192188 0
M  V30 12566 C 1142.56 5.20014 1.24459 0
M  V30 12567 C 1143.86 5.1376 -0.940626 0
M  V30 12568 H 1145.55 2.88225 -0.810363 0
M  V30 12569 H 1143.1 1.38586 -0.39114 0
M  V30 12570 H 1145.05 3.9881 1.36121 0
M  V30 12571 H 1143.77 2.79129 1.69572 0
M  V30 12572 H 1142.43 3.65726 -0.25305 0
M  V30 12573 H 1142.08 4.59913 2.03687 0
M  V30 12574 H 1141.78 5.82417 0.778734 0
M  V30 12575 H 1143.3 5.86155 1.71041 0
M  V30 12576 H 1144.72 5.70601 -0.555692 0
M  V30 12577 H 1143.11 5.85097 -1.33349 0
M  V30 12578 H 1144.18 4.51011 -1.78093 0
M  V30 12579 N 1145.53 0.438773 1.51369 0
M  V30 12580 C 1146.8 -0.18722 1.94702 0
M  V30 12581 C 1147.18 -1.59962 1.37752 0
M  V30 12582 O 1146.53 -2.214 0.565171 0
M  V30 12583 C 1146.74 -0.163491 3.48617 0
M  V30 12584 C 1148.09 -0.368355 4.22999 0
M  V30 12585 O 1149.11 -0.241541 3.5538 0
M  V30 12586 O 1147.97 -0.620916 5.42961 0
M  V30 12587 H 1145.07 -0.129194 0.816846 0
M  V30 12588 H 1147.61 0.496855 1.62263 0
M  V30 12589 H 1146.39 0.823882 3.82528 0
M  V30 12590 H 1146.01 -0.890414 3.87501 0
M  V30 12591 N 1147.01 -1.56678 0.170181 0
M  V30 12592 C 1148.23 -2.01223 -0.481362 0
M  V30 12593 C 1148.65 -1.05039 -1.56883 0
M  V30 12594 O 1148.01 -0.0510751 -1.82429 0
M  V30 12595 C 1148.06 -3.45588 -1.06073 0
M  V30 12596 O 1147.78 -4.38097 -0.0166754 0
M  V30 12597 C 1149.28 -4.05527 -1.79061 0
M  V30 12598 H 1146.5 -0.659574 -0.1233 0
M  V30 12599 H 1149.04 -2.02689 0.271576 0
M  V30 12600 H 1147.2 -3.449 -1.76417 0
M  V30 12601 H 1147.61 -5.22615 -0.444276 0
M  V30 12602 H 1149.09 -5.08467 -2.1486 0
M  V30 12603 H 1149.56 -3.47554 -2.68519 0
M  V30 12604 H 1150.17 -4.09914 -1.13361 0
M  V30 12605 N 1148.48 0.103547 -1.57259 0
M  V30 12606 C 1149.71 0.82624 -1.90232 0
M  V30 12607 C 1150.13 1.71902 -0.763641 0
M  V30 12608 O 1149.49 1.79043 0.285181 0
M  V30 12609 C 1149.54 1.62265 -3.22029 0
M  V30 12610 O 1148.64 2.73091 -3.09023 0
M  V30 12611 H 1147.98 0.227528 -0.6238 0
M  V30 12612 H 1150.51 0.081307 -2.04438 0
M  V30 12613 H 1150.52 2.00865 -3.5513 0
M  V30 12614 H 1149.2 0.967383 -4.04493 0
M  V30 12615 H 1147.78 2.3758 -2.8742 0
M  V30 12616 N 1149.96 1.53094 0.37415 0
M  V30 12617 C 1151.21 1.68861 1.11769 0
M  V30 12618 C 1151.54 0.436032 1.89549 0
M  V30 12619 O 1150.79 -0.581879 1.86849 0
M  V30 12620 C 1151.09 2.88432 2.11049 0
M  V30 12621 C 1150.76 4.25284 1.49814 0
M  V30 12622 C 1149.42 4.62501 1.32841 0
M  V30 12623 C 1151.77 5.10425 1.05433 0
M  V30 12624 C 1149.1 5.82502 0.700567 0
M  V30 12625 C 1151.45 6.31064 0.440525 0
M  V30 12626 C 1150.11 6.67 0.258216 0
M  V30 12627 H 1149.38 0.617906 0.40899 0
M  V30 12628 H 1152.03 1.87265 0.4005 0
M  V30 12629 H 1150.34 2.64505 2.8904 0
M  V30 12630 H 1152.03 2.97825 2.68517 0
M  V30 12631 H 1148.62 3.95976 1.64016 0
M  V30 12632 H 1152.81 4.82229 1.17342 0
M  V30 12633 H 1148.06 6.08942 0.547652 0
M  V30 12634 H 1152.24 6.96344 0.0883962 0
M  V30 12635 H 1149.86 7.59851 -0.230354 0
M  V30 12636 N 1151.44 -0.633461 1.44309 0
M  V30 12637 C 1152.66 -1.42527 1.50668 0
M  V30 12638 C 1153.09 -1.87637 0.131861 0
M  V30 12639 O 1152.45 -1.58595 -0.878477 0
M  V30 12640 C 1152.5 -2.62328 2.47419 0
M  V30 12641 O 1151.6 -3.62081 1.97411 0
M  V30 12642 H 1150.94 -0.426559 0.508864 0
M  V30 12643 H 1153.47 -0.773392 1.8942 0
M  V30 12644 H 1153.48 -3.09901 2.65378 0
M  V30 12645 H 1152.16 -2.2884 3.47283 0
M  V30 12646 H 1150.73 -3.21333 1.89208 0
M  V30 12647 N 1152.92 -1.31168 -0.873655 0
M  V30 12648 C 1154.15 -1.23595 -1.65927 0
M  V30 12649 C 1154.56 0.199349 -1.87745 0
M  V30 12650 O 1153.92 1.13013 -1.43298 0
M  V30 12651 C 1153.97 -1.97268 -3.02932 0
M  V30 12652 O 1153.69 -3.35196 -2.82091 0
M  V30 12653 C 1155.19 -1.9649 -3.97374 0
M  V30 12654 H 1152.41 -0.427228 -0.517414 0
M  V30 12655 H 1154.96 -1.72983 -1.09074 0
M  V30 12656 H 1153.11 -1.51651 -3.56484 0
M  V30 12657 H 1153.52 -3.7266 -3.69087 0
M  V30 12658 H 1155 -2.52557 -4.90835 0
M  V30 12659 H 1155.48 -0.946525 -4.28879 0
M  V30 12660 H 1156.08 -2.4197 -3.49758 0
M  V30 12661 N 1154.4 1.08748 -1.14068 0
M  V30 12662 C 1155.62 1.84814 -0.930138 0
M  V30 12663 C 1156.04 1.81461 0.521267 0
M  V30 12664 O 1155.4 1.21577 1.36108 0
M  V30 12665 C 1155.45 3.32501 -1.41863 0
M  V30 12666 O 1155.17 3.35846 -2.81317 0
M  V30 12667 C 1156.67 4.25384 -1.24753 0
M  V30 12668 H 1153.89 0.583546 -0.331233 0
M  V30 12669 H 1156.43 1.37366 -1.51495 0
M  V30 12670 H 1154.59 3.7735 -0.876664 0
M  V30 12671 H 1155 4.28013 -3.03159 0
M  V30 12672 H 1156.48 5.27138 -1.63798 0
M  V30 12673 H 1156.95 4.38789 -0.18999 0
M  V30 12674 H 1157.56 3.86357 -1.77787 0
M  V30 12675 N 1155.87 0.935264 1.26849 0
M  V30 12676 C 1156.78 0.446122 2.30319 0
M  V30 12677 C 1157.8 -0.476965 1.67335 0
M  V30 12678 O 1158.98 -0.357934 1.98194 0
M  V30 12679 C 1156.04 -0.286297 3.45516 0
M  V30 12680 C 1155.1 0.672626 4.23998 0
M  V30 12681 C 1154.34 -0.0249345 5.33694 0
M  V30 12682 O 1154.56 -1.24296 5.56693 0
M  V30 12683 O 1153.49 0.650752 5.98372 0
M  V30 12684 H 1157.32 1.30546 2.74211 0
M  V30 12685 H 1154.9 0.70091 1.31938 0
M  V30 12686 H 1156.79 -0.699109 4.1556 0
M  V30 12687 H 1155.46 -1.12112 3.03665 0
M  V30 12688 H 1154.37 1.13527 3.56458 0
M  V30 12689 H 1155.7 1.47489 4.69583 0
M  V30 12690 N 1157.35 -1.41121 0.701616 0
M  V30 12691 C 1158.77 -1.55162 0.373766 0
M  V30 12692 C 1158.97 -1.6759 -1.11875 0
M  V30 12693 O 1158.02 -1.65768 -1.90465 0
M  V30 12694 C 1159.34 -2.78758 1.12759 0
M  V30 12695 C 1160.89 -2.92561 1.11253 0
M  V30 12696 C 1161.36 -4.19052 1.84822 0
M  V30 12697 N 1162.85 -4.26023 1.81821 0
M  V30 12698 C 1163.59 -5.22771 2.3558 0
M  V30 12699 N 1163.08 -6.25512 2.97836 0
M  V30 12700 N 1164.88 -5.14752 2.25802 0
M  V30 12701 H 1157.03 -1.31299 1.66956 0
M  V30 12702 H 1159.29 -0.633894 0.704898 0
M  V30 12703 H 1159 -2.75804 2.18231 0
M  V30 12704 H 1158.87 -3.70456 0.710095 0
M  V30 12705 H 1161.26 -2.95026 0.0660506 0
M  V30 12706 H 1161.34 -2.0202 1.56913 0
M  V30 12707 H 1160.98 -4.17349 2.89452 0
M  V30 12708 H 1160.91 -5.08577 1.36592 0
M  V30 12709 H 1163.4 -3.52411 1.36438 0
M  V30 12710 H 1163.72 -6.95736 3.36409 0
M  V30 12711 H 1162.06 -6.25997 3.01916 0
M  V30 12712 H 1165.25 -4.33414 1.76833 0
M  V30 12713 H 1165.42 -5.89983 2.68001 0
M  V30 12714 N 1158.83 -0.446794 -1.51134 0
M  V30 12715 C 1159.78 0.378002 -2.24845 0
M  V30 12716 C 1160.76 0.982126 -1.27448 0
M  V30 12717 O 1161.96 0.8987 -1.52487 0
M  V30 12718 C 1159.09 1.4733 -3.10079 0
M  V30 12719 C 1158.17 0.878102 -4.1491 0
M  V30 12720 N 1158.56 0.0129452 -5.05798 0
M  V30 12721 C 1156.86 1.14468 -4.3106 0
M  V30 12722 C 1157.56 -0.322333 -5.80806 0
M  V30 12723 N 1156.54 0.296438 -5.42791 0
M  V30 12724 H 1160.34 -0.28885 -2.92477 0
M  V30 12725 H 1157.85 -0.259439 -1.60314 0
M  V30 12726 H 1159.85 2.07713 -3.6147 0
M  V30 12727 H 1158.51 2.14239 -2.43992 0
M  V30 12728 H 1159.52 -0.354177 -5.16688 0
M  V30 12729 H 1156.2 1.81056 -3.76198 0
M  V30 12730 H 1157.59 -1.02693 -6.64006 0
M  V30 12731 N 1160.31 1.56586 -0.178487 0
M  V30 12732 C 1161.54 2.01475 0.470684 0
M  V30 12733 C 1161.95 1.0587 1.56323 0
M  V30 12734 O 1161.31 0.060749 1.82399 0
M  V30 12735 C 1161.36 3.46145 1.04238 0
M  V30 12736 O 1161.08 4.381 -0.0065582 0
M  V30 12737 C 1162.58 4.06471 1.76908 0
M  V30 12738 H 1159.8 0.660219 0.119801 0
M  V30 12739 H 1162.35 2.02542 -0.282322 0
M  V30 12740 H 1160.5 3.45831 1.74585 0
M  V30 12741 H 1160.91 5.22843 0.416554 0
M  V30 12742 H 1162.39 5.096 2.12161 0
M  V30 12743 H 1162.87 3.48974 2.66672 0
M  V30 12744 H 1163.47 4.10509 1.11186 0
M  V30 12745 N 1161.79 -0.095206 1.57312 0
M  V30 12746 C 1163.03 -0.799903 1.86358 0
M  V30 12747 C 1163.37 -1.78386 0.767593 0
M  V30 12748 O 1162.64 -1.93201 -0.224439 0
M  V30 12749 C 1162.92 -1.52875 3.26039 0
M  V30 12750 C 1162.78 -0.562781 4.46265 0
M  V30 12751 C 1164.1 -2.47935 3.63616 0
M  V30 12752 H 1161.21 -0.289339 0.677829 0
M  V30 12753 H 1163.86 -0.0635369 1.89894 0
M  V30 12754 H 1162.01 -2.15645 3.23156 0
M  V30 12755 H 1163.68 0.0579068 4.61264 0
M  V30 12756 H 1161.92 0.123847 4.33623 0
M  V30 12757 H 1162.59 -1.10989 5.40727 0
M  V30 12758 H 1165.07 -1.95257 3.67442 0
M  V30 12759 H 1163.94 -2.95948 4.62283 0
M  V30 12760 H 1164.21 -3.31687 2.92294 0
M  V30 12761 N 1163.26 -1.53291 -0.366026 0
M  V30 12762 C 1164.51 -1.69117 -1.10653 0
M  V30 12763 C 1164.83 -0.445327 -1.89847 0
M  V30 12764 O 1164.1 0.540616 -1.88293 0
M  V30 12765 H 1162.68 -0.623446 -0.41149 0
M  V30 12766 H 1165.35 -1.90479 -0.412749 0
M  V30 12767 H 1164.44 -2.55205 -1.79658 0
M  V30 12768 N 1164.74 0.6258 -1.44643 0
M  V30 12769 C 1165.65 1.76611 -1.5442 0
M  V30 12770 C 1166.67 1.68614 -0.429576 0
M  V30 12771 O 1167.84 1.89296 -0.687686 0
M  V30 12772 C 1164.91 3.13015 -1.49071 0
M  V30 12773 C 1163.97 3.32604 -2.71428 0
M  V30 12774 C 1163.2 4.62501 -2.66325 0
M  V30 12775 O 1163.43 5.43651 -1.72626 0
M  V30 12776 O 1162.36 4.84408 -3.57258 0
M  V30 12777 H 1166.19 1.71315 -2.50769 0
M  V30 12778 H 1163.77 0.787677 -1.26949 0
M  V30 12779 H 1165.65 3.94318 -1.48631 0
M  V30 12780 H 1164.33 3.18842 -0.558686 0
M  V30 12781 H 1163.24 2.50959 -2.77435 0
M  V30 12782 H 1164.57 3.31642 -3.63695 0
M  V30 12783 N 1166.22 1.31629 0.866686 0
M  V30 12784 C 1167.47 1.21683 1.62238 0
M  V30 12785 C 1167.8 -0.223767 1.92907 0
M  V30 12786 O 1167.07 -1.15761 1.563 0
M  V30 12787 C 1167.36 2.06443 2.95048 0
M  V30 12788 C 1167.21 3.58818 2.71237 0
M  V30 12789 C 1168.53 1.91634 3.96187 0
M  V30 12790 H 1165.65 0.443389 0.588707 0
M  V30 12791 H 1168.29 1.61453 1.00164 0
M  V30 12792 H 1166.44 1.72654 3.48027 0
M  V30 12793 H 1168.11 4.0276 2.24905 0
M  V30 12794 H 1166.36 3.82085 2.05411 0
M  V30 12795 H 1167.03 4.13436 3.65752 0
M  V30 12796 H 1169.5 2.21209 3.52428 0
M  V30 12797 H 1168.38 2.53236 4.86993 0
M  V30 12798 H 1168.64 0.880564 4.33242 0
M  V30 12799 N 1167.7 -1.08142 1.14644 0
M  V30 12800 C 1168.95 -1.79959 0.910908 0
M  V30 12801 C 1169.26 -1.87296 -0.563866 0
M  V30 12802 O 1170.47 -2.55555 -0.916735 0
M  V30 12803 C 1168.92 -3.23351 1.58025 0
M  V30 12804 C 1168.53 -3.2424 3.09148 0
M  V30 12805 C 1170.28 -3.99834 1.42595 0
M  V30 12806 C 1168.18 -4.62236 3.68906 0
M  V30 12807 H 1167.11 -0.674423 0.33715 0
M  V30 12808 H 1169.76 -1.21441 1.37566 0
M  V30 12809 H 1168.15 -3.82013 1.04318 0
M  V30 12810 H 1169.32 -2.75269 3.69545 0
M  V30 12811 H 1167.63 -2.61253 3.24246 0
M  V30 12812 H 1170.23 -5.01809 1.8464 0
M  V30 12813 H 1170.57 -4.14631 0.372402 0
M  V30 12814 H 1171.11 -3.47648 1.93354 0
M  V30 12815 H 1167.85 -4.52642 4.74126 0
M  V30 12816 H 1167.37 -5.11477 3.1329 0
M  V30 12817 H 1169.05 -5.3121 3.69358 0
M  V30 12818 N 1169.18 -0.941978 -1.26351 0
M  V30 12819 C 1170.12 -0.450906 -2.26353 0
M  V30 12820 C 1171.09 0.489857 -1.58712 0
M  V30 12821 O 1172.28 0.40589 -1.86433 0
M  V30 12822 C 1169.42 0.277054 -3.43986 0
M  V30 12823 C 1168.53 -0.699474 -4.263 0
M  V30 12824 C 1167.67 0.0497661 -5.31177 0
M  V30 12825 C 1166.71 -0.918531 -6.05169 0
M  V30 12826 N 1165.84 -0.200993 -7.01812 0
M  V30 12827 H 1170.68 -1.30861 -2.6773 0
M  V30 12828 H 1168.22 -0.656514 -1.31637 0
M  V30 12829 H 1170.18 0.715567 -4.11018 0
M  V30 12830 H 1168.81 1.09889 -3.0352 0
M  V30 12831 H 1167.86 -1.2565 -3.59049 0
M  V30 12832 H 1169.17 -1.4389 -4.77595 0
M  V30 12833 H 1168.33 0.547521 -6.04224 0
M  V30 12834 H 1167.07 0.822068 -4.80722 0
M  V30 12835 H 1166.07 -1.4274 -5.30947 0
M  V30 12836 H 1167.3 -1.69085 -6.57713 0
M  V30 12837 H 1165.24 0.552803 -6.53667 0
M  V30 12838 H 1165.16 -0.879735 -7.50864 0
M  V30 12839 H 1166.43 0.275642 -7.79012 0
M  V30 12840 N 1170.66 1.40747 -0.709091 0
M  V30 12841 C 1171.59 2.33404 -0.0669763 0
M  V30 12842 C 1172.57 1.52546 0.752582 0
M  V30 12843 O 1173.75 1.81036 0.702823 0
M  V30 12844 C 1170.88 3.36476 0.860285 0
M  V30 12845 C 1169.84 4.27748 0.146828 0
M  V30 12846 C 1169.16 5.21304 1.18937 0
M  V30 12847 C 1170.46 5.12734 -0.995064 0
M  V30 12848 H 1172.16 2.87349 -0.840888 0
M  V30 12849 H 1169.7 1.38163 -0.405817 0
M  V30 12850 H 1171.65 4.00231 1.31883 0
M  V30 12851 H 1170.38 2.80912 1.66602 0
M  V30 12852 H 1169.04 3.65437 -0.291826 0
M  V30 12853 H 1168.69 4.62048 1.98798 0
M  V30 12854 H 1168.39 5.8321 0.716917 0
M  V30 12855 H 1169.91 5.87936 1.64815 0
M  V30 12856 H 1171.32 5.69979 -0.61618 0
M  V30 12857 H 1169.72 5.83649 -1.39547 0
M  V30 12858 H 1170.79 4.49097 -1.82867 0
M  V30 12859 N 1172.13 0.454803 1.50895 0
M  V30 12860 C 1173.38 -0.105562 2.01824 0
M  V30 12861 C 1173.7 -1.41673 1.33992 0
M  V30 12862 O 1172.97 -1.89929 0.479994 0
M  V30 12863 H 1171.55 -0.0420011 0.745818 0
M  V30 12864 H 1174.21 0.601504 1.85386 0
M  V30 12865 H 1173.31 -0.268872 3.1094 0
M  V30 12866 N 1173.61 -1.56489 0.186789 0
M  V30 12867 C 1175.02 -1.83809 -0.327265 0
M  V30 12868 C 1175.37 -1.10718 -1.61976 0
M  V30 12869 O 1174.5 -0.36525 -2.13295 0
M  V30 12870 C 1175.09 -3.33435 -0.600551 0
M  V30 12871 C 1173.65 -3.61195 -1.059 0
M  V30 12872 C 1172.8 -2.77108 -0.103131 0
M  V30 12873 H 1175.75 -1.53292 0.410747 0
M  V30 12874 H 1175.77 -3.51754 -1.45084 0
M  V30 12875 H 1175.28 -3.86605 0.340315 0
M  V30 12876 H 1173.38 -3.13451 -2.01443 0
M  V30 12877 H 1173.5 -4.69435 -0.957458 0
M  V30 12878 H 1171.86 -2.47448 -0.603449 0
M  V30 12879 H 1172.64 -3.33065 0.832031 0
M  V30 12880 N 1175.09 0.086862 -1.5736 0
M  V30 12881 C 1176.04 1.12359 -2.03662 0
M  V30 12882 C 1177.03 1.40982 -0.939169 0
M  V30 12883 O 1178.24 1.40566 -1.12433 0
M  V30 12884 H 1174.61 0.379605 -0.649156 0
M  V30 12885 H 1176.58 0.706822 -2.89908 0
M  V30 12886 C 1175.33 2.43327 -2.48369 0
M  V30 12887 H 1174.66 2.22148 -3.324 0
M  V30 12888 H 1176.1 3.14351 -2.84534 0
M  V30 12889 C 1174.55 3.08214 -1.36036 0
M  V30 12890 O 1175.08 3.95659 -0.694063 0
M  V30 12891 N 1173.29 2.68596 -1.10927 0
M  V30 12892 H 1172.84 1.97578 -1.6529 0
M  V30 12893 H 1172.8 3.12336 -0.359679 0
M  V30 12894 N 1176.57 1.53483 0.357892 0
M  V30 12895 C 1177.82 1.69701 1.09754 0
M  V30 12896 C 1178.14 0.455389 1.89608 0
M  V30 12897 O 1177.41 -0.530623 1.88577 0
M  V30 12898 H 1175.99 0.62562 0.408178 0
M  V30 12899 H 1178.65 1.90696 0.402641 0
M  V30 12900 H 1177.74 2.56154 1.78302 0
M  V30 12901 N 1178.05 -0.61812 1.44973 0
M  V30 12902 C 1179.27 -1.40921 1.52171 0
M  V30 12903 C 1179.7 -1.87487 0.151755 0
M  V30 12904 O 1179.05 -1.59518 -0.861606 0
M  V30 12905 C 1179.1 -2.59689 2.50188 0
M  V30 12906 O 1178.21 -3.59967 2.0124 0
M  V30 12907 H 1177.55 -0.421138 0.51336 0
M  V30 12908 H 1180.08 -0.753258 1.90229 0
M  V30 12909 H 1180.09 -3.07069 2.6865 0
M  V30 12910 H 1178.76 -2.25144 3.4969 0
M  V30 12911 H 1177.34 -3.19308 1.92605 0
M  V30 12912 N 1179.52 -1.32087 -0.859693 0
M  V30 12913 C 1180.93 -1.20107 -1.42938 0
M  V30 12914 C 1181.29 0.188411 -1.95293 0
M  V30 12915 O 1180.41 1.08683 -1.87128 0
M  V30 12916 C 1181.01 -2.17436 -2.59821 0
M  V30 12917 C 1179.56 -2.09359 -3.12803 0
M  V30 12918 C 1178.71 -2.06086 -1.85537 0
M  V30 12919 H 1181.66 -1.43989 -0.667302 0
M  V30 12920 H 1181.68 -1.76996 -3.36828 0
M  V30 12921 H 1181.2 -3.18555 -2.21685 0
M  V30 12922 H 1179.3 -1.1147 -3.55535 0
M  V30 12923 H 1179.41 -2.98947 -3.74389 0
M  V30 12924 H 1177.77 -1.51251 -2.04928 0
M  V30 12925 H 1178.56 -3.08978 -1.49625 0
M  V30 12926 N 1181 1.07532 -1.15215 0
M  V30 12927 C 1182.42 1.32183 -0.894411 0
M  V30 12928 C 1182.62 1.96188 0.459614 0
M  V30 12929 O 1181.67 2.22057 1.20195 0
M  V30 12930 C 1182.99 2.21473 -2.03397 0
M  V30 12931 C 1184.53 2.34927 -2.06829 0
M  V30 12932 C 1185.01 3.27564 -3.20103 0
M  V30 12933 N 1186.5 3.35144 -3.19738 0
M  V30 12934 C 1187.24 4.0688 -4.04025 0
M  V30 12935 N 1186.73 4.81246 -4.98371 0
M  V30 12936 N 1188.52 4.02802 -3.92055 0
M  V30 12937 H 1180.68 0.643732 -2.0241 0
M  V30 12938 H 1182.94 0.346272 -0.882496 0
M  V30 12939 H 1182.64 1.81701 -3.01127 0
M  V30 12940 H 1182.52 3.2199 -1.96475 0
M  V30 12941 H 1184.91 2.73953 -1.09699 0
M  V30 12942 H 1184.99 1.34121 -2.17819 0
M  V30 12943 H 1184.63 2.89258 -4.17483 0
M  V30 12944 H 1184.56 4.2832 -3.06349 0
M  V30 12945 H 1187.05 2.82135 -2.51412 0
M  V30 12946 H 1187.36 5.33472 -5.59131 0
M  V30 12947 H 1185.71 4.80268 -5.02362 0
M  V30 12948 H 1188.9 3.43816 -3.17661 0
M  V30 12949 H 1189.07 4.58443 -4.57967 0
M  V30 12950 N 1182.48 0.948665 1.2585 0
M  V30 12951 C 1183.9 0.652147 1.45668 0
M  V30 12952 C 1184.1 -0.792217 1.85273 0
M  V30 12953 O 1183.15 -1.56812 1.97905 0
M  V30 12954 C 1184.47 1.61998 2.53332 0
M  V30 12955 C 1186.01 1.6305 2.67178 0
M  V30 12956 C 1186.49 2.58582 3.78021 0
M  V30 12957 N 1187.98 2.56911 3.85423 0
M  V30 12958 C 1188.71 3.27511 4.70664 0
M  V30 12959 N 1188.21 4.07563 5.60236 0
M  V30 12960 N 1190 3.16427 4.64576 0
M  V30 12961 H 1182.15 1.88215 0.984325 0
M  V30 12962 H 1184.42 0.809251 0.493778 0
M  V30 12963 H 1184.12 2.65137 2.31075 0
M  V30 12964 H 1184 1.37784 3.51134 0
M  V30 12965 H 1186.38 0.606315 2.88804 0
M  V30 12966 H 1186.47 1.9132 1.69795 0
M  V30 12967 H 1186.11 3.61122 3.57146 0
M  V30 12968 H 1186.04 2.27598 4.74875 0
M  V30 12969 H 1188.53 1.9879 3.21389 0
M  V30 12970 H 1188.84 4.58367 6.22189 0
M  V30 12971 H 1187.19 4.11662 5.59964 0
M  V30 12972 H 1190.38 2.53364 3.93604 0
M  V30 12973 H 1190.55 3.71714 5.30785 0
M  V30 12974 N 1183.96 -1.40369 0.716545 0
M  V30 12975 C 1184.92 -2.29083 0.0733105 0
M  V30 12976 C 1185.92 -1.45415 -0.686378 0
M  V30 12977 O 1187.11 -1.66316 -0.518139 0
M  V30 12978 C 1184.24 -3.28639 -0.906032 0
M  V30 12979 H 1185.44 -2.87464 0.85467 0
M  V30 12980 H 1182.99 -1.48706 0.481256 0
M  V30 12981 H 1183.72 -2.75279 -1.71441 0
M  V30 12982 H 1183.51 -3.90405 -0.364163 0
M  V30 12983 H 1185 -3.95066 -1.35324 0
M  V30 12984 N 1185.44 -0.462799 -1.50652 0
M  V30 12985 C 1186.68 0.0873392 -2.03212 0
M  V30 12986 C 1187.04 1.38147 -1.33915 0
M  V30 12987 O 1186.33 1.86161 -0.453286 0
M  V30 12988 C 1186.52 0.335294 -3.55824 0
M  V30 12989 C 1186.35 -0.933253 -4.3991 0
M  V30 12990 C 1185.12 -1.47417 -4.83318 0
M  V30 12991 C 1187.32 -1.8264 -4.80777 0
M  V30 12992 N 1185.3 -2.6926 -5.51699 0
M  V30 12993 C 1186.67 -2.89075 -5.48485 0
M  V30 12994 C 1188.73 -1.83778 -4.62742 0
M  V30 12995 C 1187.43 -3.96625 -6.00067 0
M  V30 12996 C 1189.46 -2.90279 -5.15259 0
M  V30 12997 C 1188.82 -3.95433 -5.82934 0
M  V30 12998 H 1184.92 -0.00785676 -0.781961 0
M  V30 12999 H 1187.5 -0.629156 -1.84254 0
M  V30 13000 H 1185.67 1.02083 -3.74745 0
M  V30 13001 H 1187.41 0.879039 -3.95038 0
M  V30 13002 H 1184.16 -1.02451 -4.62386 0
M  V30 13003 H 1184.59 -3.31115 -5.90502 0
M  V30 13004 H 1189.23 -1.03802 -4.0986 0
M  V30 13005 H 1186.95 -4.77424 -6.51991 0
M  V30 13006 H 1190.53 -2.92133 -5.0314 0
M  V30 13007 H 1189.41 -4.76487 -6.2284 0
M  V30 13008 N 1186.91 1.56388 -0.195085 0
M  V30 13009 C 1188.16 1.97189 0.44281 0
M  V30 13010 C 1188.48 1.08312 1.62153 0
M  V30 13011 O 1187.75 0.154404 1.95291 0
M  V30 13012 H 1186.33 0.728188 0.166585 0
M  V30 13013 H 1189 1.92852 -0.281815 0
M  V30 13014 H 1188.09 3.02016 0.786945 0
M  V30 13015 N 1188.39 -0.0785156 1.57404 0
M  V30 13016 C 1189.34 -1.09402 2.03224 0
M  V30 13017 C 1190.31 -1.38849 0.911596 0
M  V30 13018 O 1191.49 -1.50031 1.17878 0
M  V30 13019 C 1188.63 -2.40444 2.47549 0
M  V30 13020 C 1187.75 -2.17585 3.73203 0
M  V30 13021 C 1186.88 -3.42143 4.06339 0
M  V30 13022 C 1185.92 -3.14619 5.25054 0
M  V30 13023 N 1185.06 -4.31489 5.5386 0
M  V30 13024 H 1189.9 -0.696307 2.89751 0
M  V30 13025 H 1187.44 -0.332261 1.43298 0
M  V30 13026 H 1189.39 -3.16944 2.71298 0
M  V30 13027 H 1188.02 -2.78031 1.64009 0
M  V30 13028 H 1187.08 -1.3181 3.56834 0
M  V30 13029 H 1188.39 -1.93249 4.59844 0
M  V30 13030 H 1187.54 -4.27042 4.30953 0
M  V30 13031 H 1186.28 -3.69549 3.18253 0
M  V30 13032 H 1185.29 -2.28116 5.00243 0
M  V30 13033 H 1186.51 -2.88543 6.14752 0
M  V30 13034 H 1184.46 -4.58939 4.68734 0
M  V30 13035 H 1184.37 -4.10403 6.34906 0
M  V30 13036 H 1185.64 -5.17404 5.83021 0
M  V30 13037 N 1189.87 -1.5367 -0.349747 0
M  V30 13038 C 1191.1 -1.74858 -1.11532 0
M  V30 13039 C 1191.52 -0.483591 -1.81777 0
M  V30 13040 O 1190.88 0.563399 -1.72324 0
M  V30 13041 C 1190.93 -2.92479 -2.10923 0
M  V30 13042 O 1190.03 -2.62194 -3.18321 0
M  V30 13043 H 1189.37 -0.580219 -0.322865 0
M  V30 13044 H 1191.9 -2.00611 -0.402033 0
M  V30 13045 H 1191.91 -3.19093 -2.54252 0
M  V30 13046 H 1190.59 -3.84228 -1.59191 0
M  V30 13047 H 1189.16 -2.46448 -2.79853 0
M  V30 13048 N 1191.35 0.610423 -1.45298 0
M  V30 13049 C 1192.76 1.19234 -1.43667 0
M  V30 13050 C 1193.11 1.95523 -0.162794 0
M  V30 13051 O 1192.24 2.03507 0.735789 0
M  V30 13052 C 1192.83 2.16892 -2.60276 0
M  V30 13053 C 1191.39 2.70465 -2.61774 0
M  V30 13054 C 1190.54 1.45821 -2.35863 0
M  V30 13055 H 1193.49 0.399895 -1.53579 0
M  V30 13056 H 1193.51 2.99875 -2.34212 0
M  V30 13057 H 1193.02 1.61339 -3.52975 0
M  V30 13058 H 1191.12 3.29965 -1.73072 0
M  V30 13059 H 1191.23 3.15092 -3.60907 0
M  V30 13060 H 1189.6 1.74678 -1.85364 0
M  V30 13061 H 1190.38 0.921403 -3.30704 0
M  V30 13062 N 1192.83 1.32541 0.852676 0
M  V30 13063 C 1194.05 1.2622 1.6394 0
M  V30 13064 C 1194.47 -0.169455 1.88038 0
M  V30 13065 O 1193.83 -1.10719 1.45078 0
M  V30 13066 C 1193.88 2.02062 2.99755 0
M  V30 13067 O 1193.6 3.39641 2.76723 0
M  V30 13068 C 1195.1 2.02787 3.94198 0
M  V30 13069 H 1192.32 0.435405 0.510552 0
M  V30 13070 H 1194.86 1.74696 1.06309 0
M  V30 13071 H 1193.02 1.57303 3.54026 0
M  V30 13072 H 1193.43 3.78484 3.63111 0
M  V30 13073 H 1194.91 2.60333 4.86755 0
M  V30 13074 H 1195.38 1.01464 4.27319 0
M  V30 13075 H 1195.99 2.47504 3.45864 0
M  V30 13076 N 1194.3 -1.0692 1.15784 0
M  V30 13077 C 1195.58 -1.76367 0.845825 0
M  V30 13078 C 1195.96 -2.00594 -0.657672 0
M  V30 13079 O 1195.31 -1.62794 -1.60345 0
M  V30 13080 C 1195.52 -3.06913 1.66149 0
M  V30 13081 C 1196.87 -3.81181 1.87046 0
M  V30 13082 O 1197.89 -3.16737 1.62961 0
M  V30 13083 O 1196.75 -4.96936 2.27413 0
M  V30 13084 H 1193.84 -0.766095 0.311493 0
M  V30 13085 H 1196.39 -1.13246 1.26386 0
M  V30 13086 H 1195.16 -2.84924 2.68205 0
M  V30 13087 H 1194.79 -3.77767 1.24007 0
M  V30 13088 N 1195.78 -0.955326 -1.25345 0
M  V30 13089 C 1197.01 -0.627233 -1.97688 0
M  V30 13090 C 1197.43 0.793973 -1.70522 0
M  V30 13091 O 1196.79 1.537 -0.961556 0
M  V30 13092 C 1196.84 -0.892969 -3.49369 0
M  V30 13093 O 1195.94 0.0278871 -4.12391 0
M  V30 13094 H 1195.28 -0.238402 -0.619726 0
M  V30 13095 H 1197.81 -1.28211 -1.59446 0
M  V30 13096 H 1197.82 -0.819517 -3.99685 0
M  V30 13097 H 1196.5 -1.92879 -3.6847 0
M  V30 13098 H 1195.08 -0.0978295 -3.72772 0
M  V30 13099 N 1197.26 1.39987 -0.723979 0
M  V30 13100 C 1198.51 2.01028 -0.267511 0
M  V30 13101 C 1198.84 1.57295 1.13894 0
M  V30 13102 O 1198.12 0.796805 1.7743 0
M  V30 13103 C 1198.4 3.58326 -0.356971 0
M  V30 13104 C 1198.25 4.12109 -1.8024 0
M  V30 13105 C 1199.57 4.39289 0.267003 0
M  V30 13106 H 1196.69 0.730364 -0.0986775 0
M  V30 13107 H 1199.33 1.66348 -0.91806 0
M  V30 13108 H 1197.48 3.88001 0.196908 0
M  V30 13109 H 1199.15 3.93199 -2.41231 0
M  V30 13110 H 1197.4 3.66082 -2.32737 0
M  V30 13111 H 1198.07 5.21261 -1.81634 0
M  V30 13112 H 1200.54 4.15595 -0.20503 0
M  V30 13113 H 1199.42 5.48624 0.174004 0
M  V30 13114 H 1199.68 4.20931 1.35164 0
M  V30 13115 N 1198.74 0.470782 1.50404 0
M  V30 13116 C 1199.67 -0.313458 2.31386 0
M  V30 13117 C 1200.65 -0.990623 1.38278 0
M  V30 13118 O 1201.84 -0.987854 1.67198 0
M  V30 13119 C 1198.97 -1.39599 3.18009 0
M  V30 13120 C 1197.92 -0.840443 4.19667 0
M  V30 13121 C 1197.25 -2.02124 4.95025 0
M  V30 13122 C 1198.55 0.148055 5.2209 0
M  V30 13123 H 1200.24 0.362432 2.97198 0
M  V30 13124 H 1197.79 0.175745 1.42924 0
M  V30 13125 H 1199.74 -1.9521 3.73458 0
M  V30 13126 H 1198.46 -2.10064 2.50081 0
M  V30 13127 H 1197.12 -0.306302 3.65318 0
M  V30 13128 H 1196.77 -2.71286 4.23571 0
M  V30 13129 H 1196.47 -1.65574 5.6379 0
M  V30 13130 H 1197.99 -2.58226 5.5331 0
M  V30 13131 H 1199.41 -0.318874 5.72413 0
M  V30 13132 H 1197.8 0.427811 5.98573 0
M  V30 13133 H 1198.87 1.07404 4.72855 0
M  V30 13134 N 1200.22 -1.56282 0.203376 0
M  V30 13135 C 1201.16 -2.19473 -0.714164 0
M  V30 13136 C 1202.13 -1.14454 -1.20372 0
M  V30 13137 O 1203.32 -1.42739 -1.26611 0
M  V30 13138 C 1200.46 -2.86451 -1.92457 0
M  V30 13139 C 1199.57 -4.06017 -1.47561 0
M  V30 13140 C 1198.71 -4.60829 -2.64216 0
M  V30 13141 C 1197.75 -5.72734 -2.15967 0
M  V30 13142 N 1196.88 -6.21916 -3.25829 0
M  V30 13143 H 1201.72 -2.97523 -0.168558 0
M  V30 13144 H 1199.26 -1.46926 -0.0714525 0
M  V30 13145 H 1201.22 -3.23459 -2.63496 0
M  V30 13146 H 1199.85 -2.10951 -2.44335 0
M  V30 13147 H 1198.9 -3.74617 -0.660784 0
M  V30 13148 H 1200.21 -4.8693 -1.08168 0
M  V30 13149 H 1199.37 -5.00185 -3.43366 0
M  V30 13150 H 1198.11 -3.7904 -3.06887 0
M  V30 13151 H 1197.11 -5.32899 -1.35273 0
M  V30 13152 H 1198.34 -6.56346 -1.74316 0
M  V30 13153 H 1196.28 -5.43047 -3.68016 0
M  V30 13154 H 1196.2 -6.97904 -2.90631 0
M  V30 13155 H 1197.47 -6.65927 -4.05168 0
M  V30 13156 N 1201.7 0.070167 -1.57444 0
M  V30 13157 C 1202.94 0.767842 -1.86513 0
M  V30 13158 C 1203.26 1.78659 -0.796257 0
M  V30 13159 O 1204.46 2.53395 -0.974845 0
M  V30 13160 C 1202.92 1.41654 -3.30851 0
M  V30 13161 C 1202.53 0.436273 -4.45871 0
M  V30 13162 C 1204.27 2.09649 -3.69117 0
M  V30 13163 C 1202.18 1.09098 -5.8125 0
M  V30 13164 H 1201.11 0.290519 -0.695784 0
M  V30 13165 H 1203.76 0.0211697 -1.83488 0
M  V30 13166 H 1202.14 2.21153 -3.28493 0
M  V30 13167 H 1203.32 -0.329022 -4.59624 0
M  V30 13168 H 1201.63 -0.139314 -4.16167 0
M  V30 13169 H 1204.23 2.59411 -4.67558 0
M  V30 13170 H 1204.57 2.89663 -2.99 0
M  V30 13171 H 1205.1 1.36979 -3.73472 0
M  V30 13172 H 1201.84 0.331128 -6.54663 0
M  V30 13173 H 1201.36 1.8271 -5.71294 0
M  V30 13174 H 1203.04 1.61034 -6.2664 0
M  V30 13175 N 1203.17 1.53854 0.341593 0
M  V30 13176 C 1204.1 1.84966 1.42513 0
M  V30 13177 C 1205.08 0.704944 1.54805 0
M  V30 13178 O 1206.27 0.957036 1.68981 0
M  V30 13179 C 1203.4 2.06099 2.79536 0
M  V30 13180 C 1202.35 3.21919 2.82049 0
M  V30 13181 C 1201.68 3.28389 4.21977 0
M  V30 13182 C 1202.98 4.59984 2.4741 0
M  V30 13183 H 1204.67 2.7571 1.16724 0
M  V30 13184 H 1202.22 1.32662 0.560073 0
M  V30 13185 H 1204.17 2.26448 3.55386 0
M  V30 13186 H 1202.9 1.12087 3.06764 0
M  V30 13187 H 1201.56 3.01429 2.08653 0
M  V30 13188 H 1201.2 2.3197 4.46317 0
M  V30 13189 H 1200.9 4.0622 4.24569 0
M  V30 13190 H 1202.43 3.50951 4.99666 0
M  V30 13191 H 1203.84 4.80334 3.12973 0
M  V30 13192 H 1202.24 5.40233 2.61282 0
M  V30 13193 H 1203.31 4.6346 1.42594 0
M  V30 13194 N 1204.65 -0.602709 1.4562 0
M  V30 13195 C 1205.9 -1.35889 1.49595 0
M  V30 13196 C 1206.22 -1.9449 0.141002 0
M  V30 13197 O 1205.49 -1.77438 -0.830209 0
M  V30 13198 H 1204.07 -0.504478 0.550918 0
M  V30 13199 H 1206.73 -0.707376 1.8161 0
M  V30 13200 H 1205.83 -2.17583 2.2375 0
M  V30 13201 N 1206.13 -1.32992 -0.845635 0
M  V30 13202 C 1207.04 -1.24701 -1.98713 0
M  V30 13203 C 1208.06 -0.158864 -1.73273 0
M  V30 13204 O 1209.23 -0.381209 -1.97759 0
M  V30 13205 C 1206.3 -0.979524 -3.32575 0
M  V30 13206 C 1205.36 -2.15701 -3.71176 0
M  V30 13207 C 1204.59 -1.90219 -4.98651 0
M  V30 13208 O 1204.81 -0.849171 -5.64044 0
M  V30 13209 O 1203.75 -2.76571 -5.34595 0
M  V30 13210 H 1207.57 -2.20683 -2.08645 0
M  V30 13211 H 1205.16 -1.12971 -0.97765 0
M  V30 13212 H 1207.04 -0.847219 -4.12796 0
M  V30 13213 H 1205.72 -0.0499398 -3.23661 0
M  V30 13214 H 1204.62 -2.34483 -2.91494 0
M  V30 13215 H 1205.96 -3.0697 -3.84747 0
M  V30 13216 N 1207.61 1.06304 -1.1635 0
M  V30 13217 C 1208.57 2.11947 -0.872419 0
M  V30 13218 C 1209.57 1.60253 0.132534 0
M  V30 13219 O 1210.76 1.73922 -0.0983441 0
M  V30 13220 C 1207.89 3.39536 -0.304646 0
M  V30 13221 H 1209.09 2.39201 -1.80894 0
M  V30 13222 H 1206.64 1.22367 -0.972419 0
M  V30 13223 H 1207.37 3.17931 0.639565 0
M  V30 13224 H 1207.16 3.78363 -1.02878 0
M  V30 13225 H 1208.65 4.17431 -0.118936 0
M  V30 13226 N 1209.09 0.96196 1.24836 0
M  V30 13227 C 1210 0.494876 2.29321 0
M  V30 13228 C 1211.01 -0.441363 1.68309 0
M  V30 13229 O 1212.19 -0.315814 1.98908 0
M  V30 13230 C 1209.25 -0.212944 3.46045 0
M  V30 13231 C 1208.31 0.762411 4.22476 0
M  V30 13232 C 1207.55 0.0882756 5.33627 0
M  V30 13233 O 1207.77 -1.12459 5.59204 0
M  V30 13234 O 1206.7 0.777529 5.96857 0
M  V30 13235 H 1210.53 1.36333 2.7138 0
M  V30 13236 H 1208.11 0.728738 1.30421 0
M  V30 13237 H 1210 -0.610805 4.1695 0
M  V30 13238 H 1208.67 -1.05645 3.05975 0
M  V30 13239 H 1207.58 1.21062 3.5397 0
M  V30 13240 H 1208.91 1.57416 4.66349 0
M  V30 13241 N 1210.56 -1.39601 0.731392 0
M  V30 13242 C 1211.49 -2.33268 0.1041 0
M  V30 13243 C 1212.47 -1.53724 -0.728219 0
M  V30 13244 O 1213.66 -1.82131 -0.673933 0
M  V30 13245 C 1210.79 -3.37802 -0.806646 0
M  V30 13246 C 1209.74 -4.27928 -0.0787588 0
M  V30 13247 C 1209.07 -5.23131 -1.10628 0
M  V30 13248 C 1210.37 -5.11086 1.07651 0
M  V30 13249 H 1212.06 -2.85975 0.886496 0
M  V30 13250 H 1209.61 -1.375 0.427746 0
M  V30 13251 H 1211.56 -4.02278 -1.25499 0
M  V30 13252 H 1210.29 -2.83527 -1.62112 0
M  V30 13253 H 1208.95 -3.64926 0.349926 0
M  V30 13254 H 1208.59 -4.65152 -1.91422 0
M  V30 13255 H 1208.29 -5.84277 -0.624043 0
M  V30 13256 H 1209.82 -5.90483 -1.5544 0
M  V30 13257 H 1211.23 -5.68927 0.706781 0
M  V30 13258 H 1209.63 -5.81356 1.48814 0
M  V30 13259 H 1210.7 -4.46131 1.89988 0
M  V30 13260 N 1212.04 -0.478751 -1.50152 0
M  V30 13261 C 1212.97 0.347829 -2.26545 0
M  V30 13262 C 1213.99 0.950354 -1.32182 0
M  V30 13263 O 1215.18 0.837462 -1.57635 0
M  V30 13264 C 1212.28 1.50255 -3.0377 0
M  V30 13265 C 1211.45 1.01142 -4.25546 0
M  V30 13266 C 1210.51 2.0411 -4.85 0
M  V30 13267 O 1209.53 1.61862 -5.45701 0
M  V30 13268 N 1210.74 3.36982 -4.72677 0
M  V30 13269 H 1213.5 -0.307113 -2.98122 0
M  V30 13270 H 1211.06 -0.309981 -1.58905 0
M  V30 13271 H 1213.05 2.18848 -3.40423 0
M  V30 13272 H 1211.62 2.06205 -2.34943 0
M  V30 13273 H 1210.84 0.151124 -3.9391 0
M  V30 13274 H 1212.13 0.661326 -5.04484 0
M  V30 13275 H 1211.53 3.74011 -4.2442 0
M  V30 13276 H 1210.09 4.0135 -5.13577 0
M  V30 13277 N 1213.52 1.56172 -0.211661 0
M  V30 13278 C 1214.45 2.22843 0.697375 0
M  V30 13279 C 1215.43 1.19689 1.20866 0
M  V30 13280 O 1216.62 1.48245 1.25447 0
M  V30 13281 C 1213.75 2.90067 1.90993 0
M  V30 13282 C 1212.7 3.99608 1.5329 0
M  V30 13283 C 1212.03 4.54078 2.82343 0
M  V30 13284 C 1213.33 5.17169 0.730333 0
M  V30 13285 H 1215.02 2.99065 0.141533 0
M  V30 13286 H 1212.57 1.43846 0.0666337 0
M  V30 13287 H 1214.52 3.35396 2.55123 0
M  V30 13288 H 1213.24 2.11276 2.49058 0
M  V30 13289 H 1211.9 3.54995 0.915115 0
M  V30 13290 H 1211.55 3.72029 3.38531 0
M  V30 13291 H 1211.25 5.28001 2.57853 0
M  V30 13292 H 1212.77 5.02119 3.47432 0
M  V30 13293 H 1214.19 5.5894 1.2751 0
M  V30 13294 H 1212.59 5.97262 0.582916 0
M  V30 13295 H 1213.66 4.84174 -0.265157 0
M  V30 13296 N 1215 -0.0618163 1.57479 0
M  V30 13297 C 1215.93 -1.09931 2.01116 0
M  V30 13298 C 1216.94 -1.34405 0.91865 0
M  V30 13299 O 1218.13 -1.32469 1.19642 0
M  V30 13300 C 1215.23 -2.44814 2.34349 0
M  V30 13301 C 1214.41 -2.40157 3.65573 0
M  V30 13302 C 1213.46 -3.57226 3.86363 0
M  V30 13303 O 1212.49 -3.38202 4.5783 0
M  V30 13304 N 1213.69 -4.77937 3.2948 0
M  V30 13305 H 1216.46 -0.727621 2.90733 0
M  V30 13306 H 1214.02 -0.250315 1.59953 0
M  V30 13307 H 1216.01 -3.21792 2.45422 0
M  V30 13308 H 1214.58 -2.73947 1.50571 0
M  V30 13309 H 1213.8 -1.48496 3.65161 0
M  V30 13310 H 1215.09 -2.34156 4.51717 0
M  V30 13311 H 1214.49 -4.96296 2.7149 0
M  V30 13312 H 1213.04 -5.52392 3.45986 0
M  V30 13313 N 1216.48 -1.54033 -0.333429 0
M  V30 13314 C 1217.7 -1.75716 -1.09232 0
M  V30 13315 C 1218.12 -0.501076 -1.82029 0
M  V30 13316 O 1217.48 0.527772 -1.74702 0
M  V30 13317 C 1217.53 -2.9439 -2.09802 0
M  V30 13318 O 1217.25 -4.15141 -1.39963 0
M  V30 13319 C 1218.75 -3.28206 -2.97987 0
M  V30 13320 H 1215.97 -0.586859 -0.325326 0
M  V30 13321 H 1218.51 -2.0089 -0.382555 0
M  V30 13322 H 1216.67 -2.71518 -2.76327 0
M  V30 13323 H 1217.08 -4.81826 -2.0723 0
M  V30 13324 H 1218.56 -4.14568 -3.64469 0
M  V30 13325 H 1219.03 -2.44944 -3.64553 0
M  V30 13326 H 1219.64 -3.5312 -2.37036 0
M  V30 13327 N 1217.95 0.594978 -1.45938 0
M  V30 13328 C 1218.86 1.73296 -1.58132 0
M  V30 13329 C 1219.88 1.67665 -0.465245 0
M  V30 13330 O 1221.06 1.87794 -0.727684 0
M  V30 13331 C 1218.12 3.09783 -1.55677 0
M  V30 13332 C 1217.18 3.26772 -2.78422 0
M  V30 13333 C 1216.42 4.56748 -2.76075 0
M  V30 13334 O 1216.64 5.39867 -1.84119 0
M  V30 13335 O 1215.57 4.76721 -3.67452 0
M  V30 13336 H 1219.4 1.65957 -2.54346 0
M  V30 13337 H 1216.98 0.760572 -1.28591 0
M  V30 13338 H 1218.87 3.91077 -1.56961 0
M  V30 13339 H 1217.54 3.17585 -0.626191 0
M  V30 13340 H 1216.45 2.45018 -2.82696 0
M  V30 13341 H 1217.78 3.23853 -3.70648 0
M  V30 13342 N 1219.43 1.33438 0.838571 0
M  V30 13343 C 1220.36 1.26344 1.96365 0
M  V30 13344 C 1221.34 0.143956 1.6949 0
M  V30 13345 O 1222.53 0.333779 1.9131 0
M  V30 13346 C 1219.66 1.0022 3.32526 0
M  V30 13347 C 1218.61 2.08466 3.73799 0
M  V30 13348 C 1217.94 1.67555 5.07769 0
M  V30 13349 C 1219.24 3.50144 3.87552 0
M  V30 13350 H 1220.93 2.20478 2.02558 0
M  V30 13351 H 1218.48 1.06139 0.973168 0
M  V30 13352 H 1220.43 0.939068 4.10803 0
M  V30 13353 H 1219.16 0.0252514 3.2659 0
M  V30 13354 H 1217.81 2.13822 2.97785 0
M  V30 13355 H 1217.46 0.685619 4.98305 0
M  V30 13356 H 1217.16 2.39993 5.36356 0
M  V30 13357 H 1218.69 1.62708 5.88522 0
M  V30 13358 H 1220.1 3.47287 4.56141 0
M  V30 13359 H 1218.5 4.21069 4.27575 0
M  V30 13360 H 1219.57 3.88628 2.89994 0
M  V30 13361 N 1220.91 -1.05686 1.16912 0
M  V30 13362 C 1221.84 -2.15268 0.904532 0
M  V30 13363 C 1222.82 -1.69424 -0.151548 0
M  V30 13364 O 1224.01 -1.942 -0.00235371 0
M  V30 13365 C 1221.14 -3.44853 0.411581 0
M  V30 13366 C 1220.09 -4.04237 1.40628 0
M  V30 13367 C 1219.42 -5.29105 0.771479 0
M  V30 13368 C 1220.72 -4.42303 2.77787 0
M  V30 13369 H 1222.41 -2.37659 1.82094 0
M  V30 13370 H 1219.96 -1.14217 0.876947 0
M  V30 13371 H 1221.91 -4.20857 0.213929 0
M  V30 13372 H 1220.63 -3.22099 -0.540352 0
M  V30 13373 H 1219.29 -3.30297 1.59058 0
M  V30 13374 H 1218.94 -5.02652 -0.187133 0
M  V30 13375 H 1218.64 -5.69797 1.43545 0
M  V30 13376 H 1220.16 -6.07801 0.583988 0
M  V30 13377 H 1221.58 -5.09362 2.63103 0
M  V30 13378 H 1219.98 -4.93997 3.40716 0
M  V30 13379 H 1221.05 -3.52877 3.32575 0
M  V30 13380 N 1222.39 -0.968567 -1.24324 0
M  V30 13381 C 1223.3 -0.50703 -2.29055 0
M  V30 13382 C 1224.31 0.432431 -1.68541 0
M  V30 13383 O 1225.49 0.30526 -1.99073 0
M  V30 13384 C 1222.56 0.194589 -3.46153 0
M  V30 13385 C 1221.62 -0.784805 -4.22066 0
M  V30 13386 C 1220.85 -0.116574 -5.33573 0
M  V30 13387 O 1221.07 1.09492 -5.59792 0
M  V30 13388 O 1220.01 -0.809171 -5.96436 0
M  V30 13389 H 1223.83 -1.3777 -2.70653 0
M  V30 13390 H 1221.42 -0.735645 -1.30033 0
M  V30 13391 H 1223.3 0.588684 -4.17268 0
M  V30 13392 H 1221.97 1.04021 -3.06531 0
M  V30 13393 H 1220.88 -1.22938 -3.53323 0
M  V30 13394 H 1222.21 -1.59887 -4.65507 0
M  V30 13395 N 1223.87 1.39211 -0.738786 0
M  V30 13396 C 1224.81 2.32424 -0.0904601 0
M  V30 13397 C 1225.81 1.53258 0.721694 0
M  V30 13398 O 1227.01 1.68895 0.622454 0
M  V30 13399 H 1223.39 0.751927 -0.010453 0
M  V30 13400 H 1225.36 2.84726 -0.892945 0
M  V30 13401 C 1224.11 3.38377 0.799783 0
M  V30 13402 H 1223.43 3.99375 0.18424 0
M  V30 13403 H 1224.87 4.0604 1.22096 0
M  V30 13404 C 1223.33 2.75734 1.93578 0
M  V30 13405 O 1223.86 2.63876 3.02874 0
M  V30 13406 N 1222.07 2.33764 1.72634 0
M  V30 13407 H 1221.61 2.43609 0.837413 0
M  V30 13408 H 1221.57 1.92191 2.48817 0
M  V30 13409 N 1225.34 0.486708 1.49896 0
M  V30 13410 C 1226.57 -0.0600816 2.06813 0
M  V30 13411 C 1226.99 -1.32112 1.34877 0
M  V30 13412 O 1226.34 -1.77537 0.422725 0
M  V30 13413 C 1226.4 -0.332266 3.5997 0
M  V30 13414 O 1226.12 0.878771 4.29196 0
M  V30 13415 C 1227.62 -0.924289 4.33557 0
M  V30 13416 H 1224.84 0.0140611 0.670853 0
M  V30 13417 H 1227.38 0.67997 1.92864 0
M  V30 13418 H 1225.54 -1.02227 3.73669 0
M  V30 13419 H 1225.95 0.632873 5.20668 0
M  V30 13420 H 1227.42 -1.06441 5.4164 0
M  V30 13421 H 1227.9 -1.91844 3.95085 0
M  V30 13422 H 1228.51 -0.272189 4.24428 0
M  V30 13423 N 1226.82 -1.56058 0.219941 0
M  V30 13424 C 1228.05 -2.02652 -0.417101 0
M  V30 13425 C 1228.47 -1.09977 -1.53461 0
M  V30 13426 O 1227.82 -0.109088 -1.82174 0
M  V30 13427 C 1227.87 -3.48787 -0.950244 0
M  V30 13428 O 1227.6 -4.37928 0.12271 0
M  V30 13429 C 1229.1 -4.11018 -1.66069 0
M  V30 13430 H 1226.32 -0.663163 -0.102254 0
M  V30 13431 H 1228.86 -2.01722 0.335923 0
M  V30 13432 H 1227.02 -3.50338 -1.65355 0
M  V30 13433 H 1227.43 -5.23764 -0.277785 0
M  V30 13434 H 1228.9 -5.15046 -1.98575 0
M  V30 13435 H 1229.38 -3.55921 -2.57326 0
M  V30 13436 H 1229.99 -4.13313 -1.00263 0
M  V30 13437 N 1228.3 0.053464 -1.57509 0
M  V30 13438 C 1229.55 0.748016 -1.87317 0
M  V30 13439 C 1229.86 1.77805 -0.815161 0
M  V30 13440 O 1231.07 2.52347 -1.00167 0
M  V30 13441 C 1229.53 1.38137 -3.32334 0
M  V30 13442 C 1229.13 0.388958 -4.46308 0
M  V30 13443 C 1230.88 2.05722 -3.7132 0
M  V30 13444 C 1228.78 1.02927 -5.82374 0
M  V30 13445 H 1227.71 0.283123 -0.698826 0
M  V30 13446 H 1230.37 0.00170723 -1.835 0
M  V30 13447 H 1228.75 2.17656 -3.3082 0
M  V30 13448 H 1229.92 -0.377752 -4.59249 0
M  V30 13449 H 1228.24 -0.183447 -4.15996 0
M  V30 13450 H 1230.83 2.54437 -4.70283 0
M  V30 13451 H 1231.18 2.86475 -3.02056 0
M  V30 13452 H 1231.71 1.3301 -3.74904 0
M  V30 13453 H 1228.45 0.261674 -6.54977 0
M  V30 13454 H 1227.97 1.7664 -5.732 0
M  V30 13455 H 1229.65 1.54378 -6.28312 0
M  V30 13456 N 1229.78 1.54207 0.325255 0
M  V30 13457 C 1231.2 1.44879 0.669492 0
M  V30 13458 C 1231.4 0.620298 1.91715 0
M  V30 13459 O 1230.45 0.118435 2.52222 0
M  V30 13460 C 1231.76 2.88581 0.845077 0
M  V30 13461 C 1233.31 2.98472 0.942527 0
M  V30 13462 C 1233.79 4.4332 1.15029 0
M  V30 13463 N 1235.28 4.46925 1.21707 0
M  V30 13464 C 1236.01 5.56155 1.39568 0
M  V30 13465 N 1235.51 6.75357 1.54483 0
M  V30 13466 N 1237.3 5.43799 1.42263 0
M  V30 13467 H 1229.45 2.06556 -0.494819 0
M  V30 13468 H 1231.72 0.934474 -0.159568 0
M  V30 13469 H 1231.42 3.517 -0.000442996 0
M  V30 13470 H 1231.3 3.34596 1.74141 0
M  V30 13471 H 1233.68 2.35481 1.77855 0
M  V30 13472 H 1233.76 2.5579 0.0226995 0
M  V30 13473 H 1233.41 5.06896 0.319127 0
M  V30 13474 H 1233.34 4.8361 2.08397 0
M  V30 13475 H 1235.83 3.61036 1.11632 0
M  V30 13476 H 1236.14 7.54363 1.67799 0
M  V30 13477 H 1234.49 6.78268 1.51584 0
M  V30 13478 H 1237.68 4.49627 1.30205 0
M  V30 13479 H 1237.85 6.28982 1.5584 0
M  V30 13480 N 1231.26 -0.58723 1.46251 0
M  V30 13481 C 1232.48 -1.37661 1.55126 0
M  V30 13482 C 1232.91 -1.87123 0.191489 0
M  V30 13483 O 1232.27 -1.6131 -0.827576 0
M  V30 13484 C 1232.31 -2.54324 2.5564 0
M  V30 13485 O 1231.42 -3.55617 2.0883 0
M  V30 13486 H 1230.76 -0.410154 0.522178 0
M  V30 13487 H 1233.29 -0.712738 1.91784 0
M  V30 13488 H 1233.3 -3.01301 2.75103 0
M  V30 13489 H 1231.97 -2.17675 3.54387 0
M  V30 13490 H 1230.55 -3.15151 1.99335 0
M  V30 13491 N 1232.74 -1.33881 -0.831482 0
M  V30 13492 C 1233.65 -1.26802 -1.97379 0
M  V30 13493 C 1234.66 -0.177233 -1.73095 0
M  V30 13494 O 1235.84 -0.402163 -1.97344 0
M  V30 13495 C 1232.9 -1.01474 -3.31517 0
M  V30 13496 C 1231.96 -2.19626 -3.68867 0
M  V30 13497 C 1231.2 -1.95497 -4.96605 0
M  V30 13498 O 1231.42 -0.908948 -5.63111 0
M  V30 13499 O 1230.35 -2.82226 -5.31632 0
M  V30 13500 H 1234.18 -2.22883 -2.06293 0
M  V30 13501 H 1231.76 -1.14001 -0.965613 0
M  V30 13502 H 1233.65 -0.890954 -4.11874 0
M  V30 13503 H 1232.32 -0.0842656 -3.2359 0
M  V30 13504 H 1231.23 -2.37561 -2.88991 0
M  V30 13505 H 1232.56 -3.11034 -3.81469 0
M  V30 13506 N 1234.21 1.05064 -1.1747 0
M  V30 13507 C 1235.46 1.77481 -0.958301 0
M  V30 13508 C 1235.78 1.88725 0.51401 0
M  V30 13509 O 1236.98 2.57895 0.848657 0
M  V30 13510 C 1235.44 3.19048 -1.66543 0
M  V30 13511 C 1235.05 3.1593 -3.17636 0
M  V30 13512 C 1236.79 3.95912 -1.53146 0
M  V30 13513 C 1234.7 4.52293 -3.81032 0
M  V30 13514 H 1233.63 0.665247 -0.354913 0
M  V30 13515 H 1236.28 1.17751 -1.40737 0
M  V30 13516 H 1234.66 3.79113 -1.1441 0
M  V30 13517 H 1235.83 2.65375 -3.76713 0
M  V30 13518 H 1234.15 2.52564 -3.31059 0
M  V30 13519 H 1236.75 4.96737 -1.9788 0
M  V30 13520 H 1237.09 4.13498 -0.482203 0
M  V30 13521 H 1237.62 3.42399 -2.02504 0
M  V30 13522 H 1234.36 4.39913 -4.8596 0
M  V30 13523 H 1233.88 5.02991 -3.26741 0
M  V30 13524 H 1235.56 5.2123 -3.83312 0
M  V30 13525 N 1235.69 0.975146 1.23809 0
M  V30 13526 C 1236.92 0.658605 1.96665 0
M  V30 13527 C 1237.34 -0.766744 1.71763 0
M  V30 13528 O 1236.7 -1.52151 0.985887 0
M  V30 13529 C 1236.75 0.948438 3.47904 0
M  V30 13530 O 1235.85 0.0377241 4.12383 0
M  V30 13531 H 1235.19 0.248231 0.615855 0
M  V30 13532 H 1237.72 1.30732 1.57386 0
M  V30 13533 H 1237.73 0.883 3.9833 0
M  V30 13534 H 1236.41 1.98717 3.65355 0
M  V30 13535 H 1234.98 0.157122 3.72569 0
M  V30 13536 N 1237.17 -1.38817 0.746158 0
M  V30 13537 C 1238.58 -1.83045 0.367629 0
M  V30 13538 C 1238.93 -1.62285 -1.10263 0
M  V30 13539 O 1238.06 -1.12001 -1.85162 0
M  V30 13540 C 1238.65 -3.323 0.660482 0
M  V30 13541 C 1237.21 -3.74903 0.335318 0
M  V30 13542 C 1236.36 -2.61683 0.917446 0
M  V30 13543 H 1239.31 -1.27651 0.94291 0
M  V30 13544 H 1239.33 -3.80446 -0.0639061 0
M  V30 13545 H 1238.84 -3.47377 1.73062 0
M  V30 13546 H 1236.94 -3.65408 -0.728538 0
M  V30 13547 H 1237.06 -4.71932 0.825677 0
M  V30 13548 H 1235.42 -2.52376 0.343316 0
M  V30 13549 H 1236.2 -2.79563 1.99247 0
M  V30 13550 N 1238.65 -0.49465 -1.49636 0
M  V30 13551 C 1239.56 0.291881 -2.32777 0
M  V30 13552 C 1240.57 0.973468 -1.44221 0
M  V30 13553 O 1241.75 0.956252 -1.77251 0
M  V30 13554 C 1238.81 1.34609 -3.19502 0
M  V30 13555 C 1237.88 0.678611 -4.23903 0
M  V30 13556 C 1237.11 1.68259 -5.06483 0
M  V30 13557 O 1237.33 2.91176 -4.90482 0
M  V30 13558 O 1236.27 1.24141 -5.88959 0
M  V30 13559 H 1240.09 -0.388459 -3.01205 0
M  V30 13560 H 1237.68 -0.256086 -1.47189 0
M  V30 13561 H 1239.56 1.95617 -3.73245 0
M  V30 13562 H 1238.23 2.00947 -2.53775 0
M  V30 13563 H 1237.14 0.0289541 -3.74089 0
M  V30 13564 H 1238.47 0.0577817 -4.92166 0
M  V30 13565 N 1240.13 1.55939 -0.228214 0
M  V30 13566 C 1241.37 1.98084 0.400884 0
M  V30 13567 C 1241.69 1.11727 1.59819 0
M  V30 13568 O 1240.96 0.195794 1.94919 0
M  V30 13569 H 1239.54 0.731558 0.151102 0
M  V30 13570 H 1242.21 1.92211 -0.322659 0
M  V30 13571 H 1241.3 3.03617 0.722706 0
M  V30 13572 N 1241.6 -0.0451101 1.57535 0
M  V30 13573 C 1242.51 -1.06796 2.08882 0
M  V30 13574 C 1243.53 -1.40682 1.02394 0
M  V30 13575 O 1244.71 -1.50324 1.34033 0
M  V30 13576 C 1241.77 -2.35467 2.54472 0
M  V30 13577 C 1240.83 -2.0831 3.75374 0
M  V30 13578 C 1240.07 -3.30846 4.1878 0
M  V30 13579 O 1240.29 -4.40945 3.61834 0
M  V30 13580 O 1239.22 -3.17488 5.11356 0
M  V30 13581 H 1243.05 -0.661658 2.96405 0
M  V30 13582 H 1240.63 -0.26104 1.47102 0
M  V30 13583 H 1242.52 -3.11143 2.84198 0
M  V30 13584 H 1241.19 -2.75425 1.70068 0
M  V30 13585 H 1240.1 -1.30254 3.50692 0
M  V30 13586 H 1241.43 -1.73218 4.60713 0
M  V30 13587 N 1243.08 -1.54377 -0.317073 0
M  V30 13588 C 1244.03 -1.84214 -1.39046 0
M  V30 13589 C 1245 -0.689742 -1.51102 0
M  V30 13590 O 1246.18 -0.936809 -1.66218 0
M  V30 13591 C 1243.32 -2.08087 -2.75307 0
M  V30 13592 C 1242.44 -3.35756 -2.7183 0
M  V30 13593 C 1241.57 -3.49556 -3.9998 0
M  V30 13594 C 1240.61 -4.71076 -3.90837 0
M  V30 13595 N 1239.75 -4.81767 -5.10729 0
M  V30 13596 H 1244.59 -2.75785 -1.12902 0
M  V30 13597 H 1242.13 -1.36575 -0.546404 0
M  V30 13598 H 1244.08 -2.19921 -3.54529 0
M  V30 13599 H 1242.71 -1.19801 -2.99746 0
M  V30 13600 H 1241.77 -3.32627 -1.84563 0
M  V30 13601 H 1243.08 -4.2509 -2.60959 0
M  V30 13602 H 1242.23 -3.60967 -4.87635 0
M  V30 13603 H 1240.97 -2.58326 -4.13665 0
M  V30 13604 H 1239.98 -4.59715 -3.01566 0
M  V30 13605 H 1241.2 -5.63698 -3.78711 0
M  V30 13606 H 1239.15 -3.93455 -5.24908 0
M  V30 13607 H 1239.06 -5.65077 -5.02219 0
M  V30 13608 H 1240.33 -4.97517 -6.00081 0
M  V30 13609 N 1244.56 0.579466 -1.4656 0
M  V30 13610 C 1245.79 1.36153 -1.55389 0
M  V30 13611 C 1246.2 1.88192 -0.195062 0
M  V30 13612 O 1245.54 1.64464 0.81836 0
M  V30 13613 C 1245.6 2.58269 -2.50075 0
M  V30 13614 C 1245.27 2.27675 -3.96249 0
M  V30 13615 C 1246.26 1.86313 -4.85369 0
M  V30 13616 C 1243.95 2.39719 -4.41407 0
M  V30 13617 C 1245.94 1.57395 -6.17661 0
M  V30 13618 C 1243.63 2.10414 -5.73733 0
M  V30 13619 C 1244.63 1.69317 -6.6168 0
M  V30 13620 O 1244.32 1.40373 -7.9155 0
M  V30 13621 H 1244.05 0.422174 -0.527963 0
M  V30 13622 H 1246.6 0.711089 -1.92698 0
M  V30 13623 H 1244.83 3.26129 -2.0779 0
M  V30 13624 H 1246.52 3.20339 -2.49275 0
M  V30 13625 H 1247.29 1.7652 -4.51736 0
M  V30 13626 H 1243.17 2.70669 -3.73175 0
M  V30 13627 H 1246.71 1.25244 -6.86265 0
M  V30 13628 H 1242.61 2.19833 -6.06913 0
M  V30 13629 H 1243.38 1.54191 -8.03845 0
M  V30 13630 N 1246.04 1.3432 0.824371 0
M  V30 13631 C 1246.99 1.25776 1.93517 0
M  V30 13632 C 1247.96 0.133298 1.65564 0
M  V30 13633 O 1249.14 0.31403 1.88198 0
M  V30 13634 C 1246.28 1.01766 3.29754 0
M  V30 13635 C 1245.39 2.22973 3.7001 0
M  V30 13636 C 1244.53 1.92258 4.95187 0
M  V30 13637 C 1243.57 3.09616 5.2802 0
M  V30 13638 N 1242.7 2.78793 6.44375 0
M  V30 13639 H 1247.54 2.20774 2.00157 0
M  V30 13640 H 1245.08 1.09766 0.979274 0
M  V30 13641 H 1247.04 0.858831 4.08265 0
M  V30 13642 H 1245.67 0.10437 3.22631 0
M  V30 13643 H 1244.72 2.49781 2.86903 0
M  V30 13644 H 1246.03 3.10661 3.90245 0
M  V30 13645 H 1245.19 1.73102 5.81481 0
M  V30 13646 H 1243.93 1.01827 4.76951 0
M  V30 13647 H 1242.93 3.29368 4.40223 0
M  V30 13648 H 1244.16 4.00822 5.48196 0
M  V30 13649 H 1242.1 1.90938 6.27598 0
M  V30 13650 H 1242.02 3.60014 6.64775 0
M  V30 13651 H 1243.29 2.63139 7.33743 0
M  V30 13652 N 1247.52 -1.0444 1.18026 0
M  V30 13653 C 1248.93 -1.5903 0.978076 0
M  V30 13654 C 1249.28 -1.90407 -0.473241 0
M  V30 13655 O 1248.4 -1.69133 -1.34992 0
M  V30 13656 C 1249 -2.88942 1.76912 0
M  V30 13657 C 1247.56 -3.40164 1.61139 0
M  V30 13658 C 1246.7 -2.13797 1.76596 0
M  V30 13659 H 1249.66 -0.871574 1.32625 0
M  V30 13660 H 1249.68 -3.59173 1.25598 0
M  V30 13661 H 1249.19 -2.66074 2.82535 0
M  V30 13662 H 1247.29 -3.68053 0.580353 0
M  V30 13663 H 1247.4 -4.14241 2.40709 0
M  V30 13664 H 1245.77 -2.24922 1.19507 0
M  V30 13665 H 1246.55 -1.93389 2.83647 0
M  V30 13666 N 1248.99 -0.981699 -1.2329 0
M  V30 13667 C 1249.92 -0.542441 -2.27112 0
M  V30 13668 C 1250.91 0.425034 -1.64704 0
M  V30 13669 O 1252.09 0.318114 -1.91577 0
M  V30 13670 C 1249.22 0.154668 -3.46955 0
M  V30 13671 C 1248.17 -0.73022 -4.21725 0
M  V30 13672 C 1247.5 0.0991766 -5.34608 0
M  V30 13673 C 1248.8 -2.02166 -4.81587 0
M  V30 13674 H 1250.49 -1.41024 -2.64107 0
M  V30 13675 H 1248.04 -0.679544 -1.26957 0
M  V30 13676 H 1249.99 0.473281 -4.18734 0
M  V30 13677 H 1248.72 1.05693 -3.09025 0
M  V30 13678 H 1247.38 -1.03231 -3.51765 0
M  V30 13679 H 1247.02 1.00201 -4.92919 0
M  V30 13680 H 1246.72 -0.489788 -5.85555 0
M  V30 13681 H 1248.25 0.412141 -6.09207 0
M  V30 13682 H 1249.66 -1.76773 -5.45366 0
M  V30 13683 H 1248.06 -2.55851 -5.42826 0
M  V30 13684 H 1249.13 -2.70766 -4.02261 0
M  V30 13685 N 1250.47 1.3842 -0.753509 0
M  V30 13686 C 1251.72 1.99359 -0.306416 0
M  V30 13687 C 1252.03 1.60492 1.11811 0
M  V30 13688 O 1253.24 2.14401 1.66567 0
M  V30 13689 C 1251.7 3.56453 -0.496895 0
M  V30 13690 C 1251.3 4.04272 -1.9305 0
M  V30 13691 C 1253.05 4.24351 -0.11251 0
M  V30 13692 C 1250.96 5.54007 -2.06955 0
M  V30 13693 H 1249.89 0.745812 -0.110818 0
M  V30 13694 H 1252.54 1.58185 -0.930039 0
M  V30 13695 H 1250.92 3.95515 0.195912 0
M  V30 13696 H 1252.09 3.765 -2.65677 0
M  V30 13697 H 1250.41 3.49098 -2.26979 0
M  V30 13698 H 1253 5.34344 -0.195161 0
M  V30 13699 H 1253.35 4.05668 0.934849 0
M  V30 13700 H 1253.88 3.90528 -0.757168 0
M  V30 13701 H 1250.62 5.77594 -3.09944 0
M  V30 13702 H 1250.14 5.83522 -1.38788 0
M  V30 13703 H 1251.82 6.19704 -1.85945 0
M  V30 13704 N 1251.95 0.502579 1.49372 0
M  V30 13705 C 1253.18 -0.0381429 2.06865 0
M  V30 13706 C 1253.59 -1.30674 1.36271 0
M  V30 13707 O 1252.95 -1.77078 0.441532 0
M  V30 13708 C 1253 -0.294068 3.60302 0
M  V30 13709 O 1252.72 0.924244 4.2824 0
M  V30 13710 C 1254.22 -0.878253 4.34513 0
M  V30 13711 H 1251.44 0.0211756 0.670666 0
M  V30 13712 H 1253.99 0.700387 1.92132 0
M  V30 13713 H 1252.14 -0.982583 3.74732 0
M  V30 13714 H 1252.56 0.688062 5.19967 0
M  V30 13715 H 1254.03 -1.0069 5.42739 0
M  V30 13716 H 1254.51 -1.87643 3.97098 0
M  V30 13717 H 1255.11 -0.227157 4.24693 0
M  V30 13718 N 1253.43 -1.55816 0.23648 0
M  V30 13719 C 1254.68 -1.98294 -0.390373 0
M  V30 13720 C 1255 -1.12573 -1.59224 0
M  V30 13721 O 1254.27 -0.206128 -1.94813 0
M  V30 13722 H 1252.85 -0.732349 -0.14722 0
M  V30 13723 H 1255.51 -1.92037 0.332848 0
M  V30 13724 H 1254.61 -3.03996 -0.706595 0
M  V30 13725 N 1254.91 0.036755 -1.57557 0
M  V30 13726 C 1255.82 1.05687 -2.09446 0
M  V30 13727 C 1256.83 1.40137 -1.03139 0
M  V30 13728 O 1258.01 1.49611 -1.34828 0
M  V30 13729 C 1255.07 2.34114 -2.55717 0
M  V30 13730 C 1254.13 2.06316 -3.76473 0
M  V30 13731 C 1253.37 3.2862 -4.20529 0
M  V30 13732 O 1253.59 4.3902 -3.64167 0
M  V30 13733 O 1252.52 3.14772 -5.13033 0
M  V30 13734 H 1256.35 0.64593 -2.96751 0
M  V30 13735 H 1253.94 0.253235 -1.47238 0
M  V30 13736 H 1255.82 3.09631 -2.85844 0
M  V30 13737 H 1254.49 2.74519 -1.71526 0
M  V30 13738 H 1253.4 1.28392 -3.51378 0
M  V30 13739 H 1254.73 1.70772 -4.61625 0
M  V30 13740 N 1256.39 1.54543 0.308881 0
M  V30 13741 C 1257.33 1.84949 1.38067 0
M  V30 13742 C 1258.3 0.697746 1.50734 0
M  V30 13743 O 1259.49 0.94561 1.65719 0
M  V30 13744 C 1256.63 2.09544 2.74199 0
M  V30 13745 C 1255.74 3.37193 2.70046 0
M  V30 13746 C 1254.88 3.51672 3.98121 0
M  V30 13747 C 1253.91 4.73143 3.88333 0
M  V30 13748 N 1253.05 4.84469 5.08167 0
M  V30 13749 H 1257.89 2.76379 1.11438 0
M  V30 13750 H 1255.43 1.36863 0.539153 0
M  V30 13751 H 1257.39 2.21798 3.53358 0
M  V30 13752 H 1256.02 1.21389 2.99106 0
M  V30 13753 H 1255.07 3.33601 1.82796 0
M  V30 13754 H 1256.38 4.26468 2.58701 0
M  V30 13755 H 1255.53 3.63548 4.85714 0
M  V30 13756 H 1254.27 2.60516 4.1229 0
M  V30 13757 H 1253.28 4.61308 2.99124 0
M  V30 13758 H 1254.5 5.65698 3.75716 0
M  V30 13759 H 1252.45 3.96234 5.22814 0
M  V30 13760 H 1252.37 5.67733 4.99215 0
M  V30 13761 H 1253.63 5.00693 5.97434 0
M  V30 13762 N 1257.86 -0.571685 1.46866 0
M  V30 13763 C 1258.81 -1.67992 1.58263 0
M  V30 13764 C 1259.78 -1.60535 0.426345 0
M  V30 13765 O 1260.97 -1.79584 0.644534 0
M  V30 13766 C 1258.11 -3.06327 1.58927 0
M  V30 13767 C 1257.22 -3.24328 2.85369 0
M  V30 13768 C 1256.35 -4.52976 2.77464 0
M  V30 13769 C 1255.39 -4.64359 3.98795 0
M  V30 13770 N 1254.53 -5.84345 3.89211 0
M  V30 13771 H 1259.37 -1.57589 2.52922 0
M  V30 13772 H 1256.91 -0.767883 1.25467 0
M  V30 13773 H 1258.86 -3.86411 1.57296 0
M  V30 13774 H 1257.49 -3.15601 0.677912 0
M  V30 13775 H 1256.55 -2.37774 2.96931 0
M  V30 13776 H 1257.86 -3.28605 3.7526 0
M  V30 13777 H 1257.01 -5.41303 2.74001 0
M  V30 13778 H 1255.75 -4.51155 1.85231 0
M  V30 13779 H 1254.76 -3.74448 4.02578 0
M  V30 13780 H 1255.98 -4.6795 4.92137 0
M  V30 13781 H 1253.93 -5.835 2.99772 0
M  V30 13782 H 1253.84 -5.89938 4.72768 0
M  V30 13783 H 1255.11 -6.75072 3.89741 0
M  V30 13784 N 1259.34 -1.34755 -0.817236 0
M  V30 13785 C 1260.59 -1.2762 -1.5761 0
M  V30 13786 C 1260.92 0.152017 -1.93604 0
M  V30 13787 O 1260.2 1.09881 -1.60488 0
M  V30 13788 C 1260.48 -2.17251 -2.87183 0
M  V30 13789 C 1260.33 -3.68638 -2.57733 0
M  V30 13790 C 1261.65 -2.06206 -3.88802 0
M  V30 13791 H 1258.77 -0.464933 -0.571845 0
M  V30 13792 H 1261.41 -1.6506 -0.941028 0
M  V30 13793 H 1259.56 -1.85452 -3.41379 0
M  V30 13794 H 1261.23 -4.10829 -2.09802 0
M  V30 13795 H 1259.48 -3.89445 -1.91089 0
M  V30 13796 H 1260.15 -4.26726 -3.50156 0
M  V30 13797 H 1262.62 -2.34137 -3.43975 0
M  V30 13798 H 1261.5 -2.71136 -4.77259 0
M  V30 13799 H 1261.76 -1.04075 -4.29675 0
M  V30 13800 N 1260.82 1.03812 -1.18578 0
M  V30 13801 C 1261.75 2.11928 -0.872871 0
M  V30 13802 C 1262.76 1.62275 0.130592 0
M  V30 13803 O 1263.95 1.78233 -0.0975869 0
M  V30 13804 C 1261.05 3.37714 -0.283321 0
M  V30 13805 C 1260.23 4.16591 -1.33307 0
M  V30 13806 C 1259.29 5.20701 -0.758746 0
M  V30 13807 O 1258.31 5.50837 -1.43412 0
M  V30 13808 N 1259.51 5.78811 0.442505 0
M  V30 13809 H 1262.28 2.39364 -1.80346 0
M  V30 13810 H 1259.84 1.20027 -1.08652 0
M  V30 13811 H 1261.83 4.04538 0.114524 0
M  V30 13812 H 1260.4 3.07699 0.551347 0
M  V30 13813 H 1259.62 3.45051 -1.90613 0
M  V30 13814 H 1260.91 4.66082 -2.04071 0
M  V30 13815 H 1260.31 5.56631 1.00889 0
M  V30 13816 H 1258.86 6.47089 0.78224 0
M  V30 13817 N 1262.3 0.988223 1.22768 0
M  V30 13818 C 1263.54 0.669599 1.93121 0
M  V30 13819 C 1263.9 -0.783331 1.75294 0
M  V30 13820 O 1265.1 -1.21315 2.39867 0
M  V30 13821 C 1263.37 1.05876 3.41358 0
M  V30 13822 S 1264.93 0.857797 4.30334 0
M  V30 13823 H 1261.75 0.244972 0.667465 0
M  V30 13824 H 1264.35 1.26952 1.48673 0
M  V30 13825 H 1263.06 2.11267 3.51844 0
M  V30 13826 H 1262.59 0.450453 3.90813 0
M  V30 13827 H 1264.6 -0.254171 4.95549 0
M  V30 13828 N 1263.78 -1.38018 0.760839 0
M  V30 13829 C 1265.02 -1.99194 0.316984 0
M  V30 13830 C 1265.34 -1.61083 -1.10958 0
M  V30 13831 O 1266.54 -2.15281 -1.65428 0
M  V30 13832 C 1265 -3.56185 0.515792 0
M  V30 13833 C 1264.61 -4.03242 1.95191 0
M  V30 13834 C 1266.35 -4.24285 0.135013 0
M  V30 13835 C 1264.26 -5.52902 2.0989 0
M  V30 13836 H 1263.19 -0.745214 0.114771 0
M  V30 13837 H 1265.84 -1.5769 0.938415 0
M  V30 13838 H 1264.22 -3.95613 -0.174934 0
M  V30 13839 H 1265.4 -3.75086 2.6767 0
M  V30 13840 H 1263.71 -3.47889 2.28827 0
M  V30 13841 H 1266.31 -5.34233 0.223495 0
M  V30 13842 H 1266.65 -4.06158 -0.913322 0
M  V30 13843 H 1267.18 -3.90121 0.777868 0
M  V30 13844 H 1263.92 -5.75942 3.13003 0
M  V30 13845 H 1263.44 -5.82778 1.41881 0
M  V30 13846 H 1265.12 -6.18709 1.89229 0
M  V30 13847 N 1265.25 -0.510493 -1.49103 0
M  V30 13848 C 1266.48 0.0293113 -2.07379 0
M  V30 13849 C 1266.9 1.29195 -1.36713 0
M  V30 13850 O 1266.26 1.76204 -0.426838 0
M  V30 13851 C 1266.31 0.25629 -3.59688 0
M  V30 13852 O 1265.41 1.32907 -3.90397 0
M  V30 13853 H 1264.75 -0.0304449 -0.663302 0
M  V30 13854 H 1267.28 -0.712832 -1.91781 0
M  V30 13855 H 1267.29 0.484915 -4.05108 0
M  V30 13856 H 1265.97 -0.666163 -4.1053 0
M  V30 13857 H 1264.55 1.08464 -3.56777 0
M  V30 13858 N 1266.73 1.55688 -0.24474 0
M  V30 13859 C 1267.68 2.17946 0.669596 0
M  V30 13860 C 1268.67 1.13468 1.14078 0
M  V30 13861 O 1269.86 1.39385 1.09091 0
M  V30 13862 C 1266.99 2.8808 1.86721 0
M  V30 13863 C 1266.07 3.99811 1.41463 0
M  V30 13864 N 1266.46 5.01261 0.676131 0
M  V30 13865 C 1264.76 4.12327 1.70008 0
M  V30 13866 C 1265.46 5.80017 0.442113 0
M  V30 13867 N 1264.44 5.34216 1.00569 0
M  V30 13868 H 1268.24 2.93739 0.0971953 0
M  V30 13869 H 1265.75 1.62332 -0.0469646 0
M  V30 13870 H 1267.75 3.31109 2.53322 0
M  V30 13871 H 1266.41 2.13789 2.44385 0
M  V30 13872 H 1267.42 5.1687 0.326459 0
M  V30 13873 H 1264.1 3.49206 2.28827 0
M  V30 13874 H 1265.49 6.71739 -0.14729 0
M  V30 13875 N 1268.21 -0.0283989 1.57574 0
M  V30 13876 C 1269.12 -1.04575 2.10003 0
M  V30 13877 C 1270.14 -1.39588 1.03881 0
M  V30 13878 O 1271.31 -1.48894 1.35619 0
M  V30 13879 C 1268.38 -2.32755 2.56955 0
M  V30 13880 C 1267.44 -2.04317 3.77562 0
M  V30 13881 C 1266.67 -3.26385 4.22266 0
M  V30 13882 O 1266.89 -4.37082 3.66491 0
M  V30 13883 O 1265.83 -3.12046 5.14695 0
M  V30 13884 H 1269.65 -0.630183 2.9709 0
M  V30 13885 H 1267.24 -0.245423 1.4737 0
M  V30 13886 H 1269.12 -3.08111 2.87482 0
M  V30 13887 H 1267.8 -2.73605 1.72979 0
M  V30 13888 H 1266.7 -1.26527 3.52054 0
M  V30 13889 H 1268.04 -1.68321 4.62524 0
M  V30 13890 N 1269.69 -1.54705 -0.300681 0
M  V30 13891 C 1270.94 -1.73211 -1.03349 0
M  V30 13892 C 1271.25 -0.52518 -1.88418 0
M  V30 13893 O 1272.46 -0.592049 -2.64966 0
M  V30 13894 C 1270.91 -3.06453 -1.88717 0
M  V30 13895 C 1270.52 -4.34625 -1.0865 0
M  V30 13896 C 1272.26 -3.34317 -2.61595 0
M  V30 13897 C 1270.17 -5.58919 -1.93297 0
M  V30 13898 H 1269.1 -0.64556 -0.389574 0
M  V30 13899 H 1271.75 -1.81186 -0.290472 0
M  V30 13900 H 1270.13 -2.92443 -2.67008 0
M  V30 13901 H 1271.31 -4.59471 -0.349707 0
M  V30 13902 H 1269.62 -4.13699 -0.473521 0
M  V30 13903 H 1272.22 -4.2438 -3.25278 0
M  V30 13904 H 1272.56 -2.53207 -3.30442 0
M  V30 13905 H 1273.1 -3.493 -1.90354 0
M  V30 13906 H 1269.83 -6.42697 -1.2892 0
M  V30 13907 H 1269.35 -5.38258 -2.64647 0
M  V30 13908 H 1271.03 -5.96187 -2.51336 0
M  V30 13909 N 1271.17 0.563888 -1.47167 0
M  V30 13910 C 1272.11 1.69254 -1.59549 0
M  V30 13911 C 1273.11 1.62948 -0.463078 0
M  V30 13912 O 1274.31 1.68214 -0.640639 0
M  V30 13913 H 1270.69 0.559925 -0.501984 0
M  V30 13914 H 1272.66 1.55946 -2.54408 0
M  V30 13915 C 1271.41 3.0762 -1.62066 0
M  V30 13916 H 1270.73 3.13151 -2.48549 0
M  V30 13917 H 1272.17 3.863 -1.74781 0
M  V30 13918 C 1270.63 3.35048 -0.352721 0
M  V30 13919 O 1271.16 3.9793 0.549053 0
M  V30 13920 N 1269.37 2.8965 -0.234805 0
M  V30 13921 H 1268.91 2.38657 -0.969561 0
M  V30 13922 H 1268.87 3.08373 0.61263 0
M  V30 13923 N 1272.64 1.35187 0.810078 0
M  V30 13924 C 1274.06 1.25329 1.38381 0
M  V30 13925 C 1274.41 -0.115799 1.95858 0
M  V30 13926 O 1273.53 -1.01663 1.91033 0
M  V30 13927 C 1274.13 2.2693 2.51572 0
M  V30 13928 C 1272.69 2.20824 3.04818 0
M  V30 13929 C 1271.83 2.1283 1.7776 0
M  V30 13930 H 1274.78 1.46366 0.613402 0
M  V30 13931 H 1274.8 1.89375 3.30026 0
M  V30 13932 H 1274.32 3.26563 2.09709 0
M  V30 13933 H 1272.42 1.24589 3.51153 0
M  V30 13934 H 1272.53 3.12637 3.63036 0
M  V30 13935 H 1270.89 1.58752 1.99173 0
M  V30 13936 H 1271.68 3.14318 1.38054 0
M  V30 13937 N 1274.12 -1.03182 1.19127 0
M  V30 13938 C 1275.35 -1.80703 1.01791 0
M  V30 13939 C 1275.77 -1.83147 -0.428824 0
M  V30 13940 O 1275.13 -1.2553 -1.30812 0
M  V30 13941 C 1275.18 -3.23754 1.58794 0
M  V30 13942 O 1274.28 -4.04261 0.815274 0
M  V30 13943 H 1273.62 -0.557944 0.359992 0
M  V30 13944 H 1276.15 -1.29887 1.58084 0
M  V30 13945 H 1276.16 -3.7451 1.61884 0
M  V30 13946 H 1274.84 -3.2129 2.64094 0
M  V30 13947 H 1273.42 -3.62909 0.857392 0
M  V30 13948 N 1275.6 -0.99472 -1.22242 0
M  V30 13949 C 1276.56 -0.551619 -2.22463 0
M  V30 13950 C 1277.56 0.366498 -1.56568 0
M  V30 13951 O 1278.75 0.158204 -1.7348 0
M  V30 13952 C 1275.89 0.197416 -3.40328 0
M  V30 13953 H 1277.08 -1.43795 -2.63179 0
M  V30 13954 H 1274.63 -0.782121 -1.35324 0
M  V30 13955 H 1275.37 1.09965 -3.05087 0
M  V30 13956 H 1275.15 -0.461829 -3.89371 0
M  V30 13957 H 1276.64 0.495534 -4.1465 0
M  V30 13958 N 1277.08 1.37613 -0.768148 0
M  V30 13959 C 1278.33 1.99023 -0.327543 0
M  V30 13960 C 1278.64 1.61669 1.10103 0
M  V30 13961 O 1279.85 2.16155 1.64284 0
M  V30 13962 C 1278.3 3.55906 -0.534674 0
M  V30 13963 C 1277.91 4.02201 -1.97327 0
M  V30 13964 C 1279.65 4.24208 -0.157512 0
M  V30 13965 C 1277.56 5.51781 -2.12819 0
M  V30 13966 H 1276.49 0.744595 -0.118722 0
M  V30 13967 H 1279.14 1.5719 -0.946764 0
M  V30 13968 H 1277.52 3.95701 0.153951 0
M  V30 13969 H 1278.7 3.73661 -2.69655 0
M  V30 13970 H 1277.01 3.46671 -2.30669 0
M  V30 13971 H 1279.61 5.34107 -0.251824 0
M  V30 13972 H 1279.95 4.06636 0.89177 0
M  V30 13973 H 1280.49 3.89703 -0.798546 0
M  V30 13974 H 1277.23 5.74274 -3.16053 0
M  V30 13975 H 1276.75 5.82017 -1.4497 0
M  V30 13976 H 1278.42 6.17697 -1.92508 0
M  V30 13977 N 1278.56 0.518393 1.4883 0
M  V30 13978 C 1279.8 -0.0199348 2.0279 0
M  V30 13979 C 1280.14 -1.35026 1.39576 0
M  V30 13980 O 1279.41 -1.86927 0.537449 0
M  V30 13981 C 1279.69 -0.154184 3.5977 0
M  V30 13982 C 1279.55 1.2005 4.33484 0
M  V30 13983 C 1280.87 -0.886547 4.31078 0
M  V30 13984 H 1277.98 -0.00577061 0.736977 0
M  V30 13985 H 1280.63 0.673178 1.77675 0
M  V30 13986 H 1278.78 -0.74451 3.81299 0
M  V30 13987 H 1280.45 1.83104 4.23404 0
M  V30 13988 H 1278.69 1.78537 3.95357 0
M  V30 13989 H 1279.36 1.05968 5.41733 0
M  V30 13990 H 1281.84 -0.385711 4.14308 0
M  V30 13991 H 1280.71 -0.949355 5.40628 0
M  V30 13992 H 1280.98 -1.93424 3.97542 0
M  V30 13993 N 1280.03 -1.55556 0.252993 0
M  V30 13994 C 1281.31 -1.91022 -0.420696 0
M  V30 13995 C 1281.69 -1.17452 -1.75409 0
M  V30 13996 O 1281.04 -0.294 -2.26601 0
M  V30 13997 C 1281.25 -3.441 -0.582787 0
M  V30 13998 C 1282.6 -4.15468 -0.875873 0
M  V30 13999 O 1283.62 -3.49872 -0.668425 0
M  V30 14000 O 1282.48 -5.31508 -1.27128 0
M  V30 14001 H 1279.57 -0.7953 -0.226776 0
M  V30 14002 H 1282.12 -1.67072 0.297511 0
M  V30 14003 H 1280.89 -3.89673 0.356474 0
M  V30 14004 H 1280.52 -3.73933 -1.3513 0
M  V30 14005 N 1281.51 0.0200419 -1.57587 0
M  V30 14006 C 1282.74 0.724241 -1.94344 0
M  V30 14007 C 1283.16 1.67612 -0.853688 0
M  V30 14008 O 1282.52 1.80303 0.189873 0
M  V30 14009 C 1282.57 1.44967 -3.30177 0
M  V30 14010 O 1281.67 2.56326 -3.23064 0
M  V30 14011 H 1281.01 0.194142 -0.634984 0
M  V30 14012 H 1283.54 -0.0271756 -2.04582 0
M  V30 14013 H 1283.55 1.81758 -3.65278 0
M  V30 14014 H 1282.23 0.75161 -4.09052 0
M  V30 14015 H 1280.81 2.22011 -2.99609 0
M  V30 14016 N 1282.99 1.54862 0.292472 0
M  V30 14017 C 1284.4 1.65459 0.864891 0
M  V30 14018 C 1284.75 0.568808 1.87774 0
M  V30 14019 O 1283.88 -0.293107 2.14406 0
M  V30 14020 C 1284.47 2.99939 1.5755 0
M  V30 14021 C 1283.03 3.12628 2.09621 0
M  V30 14022 C 1282.18 2.61179 0.931713 0
M  V30 14023 H 1285.13 1.58549 0.0692679 0
M  V30 14024 H 1285.15 2.91839 2.44152 0
M  V30 14025 H 1284.66 3.78943 0.838088 0
M  V30 14026 H 1282.76 2.3836 2.86383 0
M  V30 14027 H 1282.88 4.18911 2.32488 0
M  V30 14028 H 1281.24 2.17846 1.31967 0
M  V30 14029 H 1282.02 3.42669 0.208121 0
M  V30 14030 N 1284.47 -0.556076 1.47464 0
M  V30 14031 C 1285.71 -1.31515 1.54375 0
M  V30 14032 C 1286.05 -1.93106 0.205837 0
M  V30 14033 O 1285.32 -1.77927 -0.785643 0
M  V30 14034 C 1285.61 -2.4244 2.66261 0
M  V30 14035 C 1285.46 -1.8571 4.09673 0
M  V30 14036 C 1286.78 -3.4436 2.74051 0
M  V30 14037 H 1283.9 -0.476817 0.561974 0
M  V30 14038 H 1286.54 -0.622157 1.79525 0
M  V30 14039 H 1284.69 -3.01551 2.44948 0
M  V30 14040 H 1286.36 -1.30851 4.42353 0
M  V30 14041 H 1284.6 -1.16379 4.17898 0
M  V30 14042 H 1285.27 -2.65904 4.83735 0
M  V30 14043 H 1287.75 -2.95169 2.93282 0
M  V30 14044 H 1286.63 -4.194 3.54111 0
M  V30 14045 H 1286.89 -4.03281 1.81155 0
M  V30 14046 N 1285.95 -1.35615 -0.802897 0
M  V30 14047 C 1286.86 -1.3096 -1.94645 0
M  V30 14048 C 1287.87 -0.213909 -1.7268 0
M  V30 14049 O 1289.05 -0.443932 -1.96446 0
M  V30 14050 C 1286.11 -1.08483 -3.2929 0
M  V30 14051 C 1285.18 -2.27401 -3.64126 0
M  V30 14052 C 1284.41 -2.05987 -4.92347 0
M  V30 14053 O 1284.63 -1.02819 -5.61057 0
M  V30 14054 O 1283.57 -2.93439 -5.25526 0
M  V30 14055 H 1287.39 -2.27209 -2.01519 0
M  V30 14056 H 1284.98 -1.16024 -0.941214 0
M  V30 14057 H 1286.86 -0.978118 -4.09891 0
M  V30 14058 H 1285.53 -0.152885 -3.23339 0
M  V30 14059 H 1284.44 -2.43638 -2.83886 0
M  V30 14060 H 1285.77 -3.19055 -3.74786 0
M  V30 14061 N 1287.43 1.02549 -1.19673 0
M  V30 14062 C 1288.65 1.79623 -1.0268 0
M  V30 14063 C 1289.07 1.83969 0.424345 0
M  V30 14064 O 1288.43 1.28621 1.29472 0
M  V30 14065 C 1288.48 3.24514 -1.59289 0
M  V30 14066 O 1288.2 3.20462 -2.98723 0
M  V30 14067 C 1289.7 4.18173 -1.47126 0
M  V30 14068 H 1286.92 0.565167 -0.3617 0
M  V30 14069 H 1289.46 1.29143 -1.58564 0
M  V30 14070 H 1287.62 3.72173 -1.07546 0
M  V30 14071 H 1288.03 4.11341 -3.25421 0
M  V30 14072 H 1289.51 5.17714 -1.9151 0
M  V30 14073 H 1289.98 4.37165 -0.422315 0
M  V30 14074 H 1290.59 3.7639 -1.98017 0
M  V30 14075 N 1288.9 1.00119 1.21713 0
M  V30 14076 C 1289.85 0.558388 2.23943 0
M  V30 14077 C 1290.82 -0.413576 1.60869 0
M  V30 14078 O 1292.01 -0.316478 1.88157 0
M  V30 14079 C 1289.15 -0.112618 3.44916 0
M  V30 14080 C 1288.26 0.902071 4.22477 0
M  V30 14081 C 1287.39 0.203722 5.30809 0
M  V30 14082 C 1286.43 1.20622 6.00097 0
M  V30 14083 N 1285.57 0.535607 7.00054 0
M  V30 14084 H 1290.41 1.43486 2.61182 0
M  V30 14085 H 1287.95 0.718572 1.28355 0
M  V30 14086 H 1289.9 -0.51865 4.13964 0
M  V30 14087 H 1288.53 -0.952827 3.08417 0
M  V30 14088 H 1287.59 1.42637 3.52645 0
M  V30 14089 H 1288.9 1.66513 4.70186 0
M  V30 14090 H 1288.05 -0.258614 6.06149 0
M  V30 14091 H 1286.79 -0.591773 4.84096 0
M  V30 14092 H 1285.8 1.6791 5.23532 0
M  V30 14093 H 1287.02 2.00273 6.48897 0
M  V30 14094 H 1284.97 -0.2403 6.5556 0
M  V30 14095 H 1284.88 1.23698 7.45812 0
M  V30 14096 H 1286.15 0.0963489 7.7944 0
M  V30 14097 N 1290.38 -1.37203 0.775435 0
M  V30 14098 C 1291.61 -2.04396 0.351737 0
M  V30 14099 C 1292.03 -1.58099 -1.01913 0
M  V30 14100 O 1291.39 -0.742932 -1.65379 0
M  V30 14101 C 1291.44 -3.58283 0.408105 0
M  V30 14102 O 1290.54 -4.08156 -0.590104 0
M  V30 14103 H 1289.88 -0.646451 0.151647 0
M  V30 14104 H 1292.41 -1.75443 1.05265 0
M  V30 14105 H 1292.42 -4.07127 0.266711 0
M  V30 14106 H 1291.1 -3.91335 1.40819 0
M  V30 14107 H 1289.67 -3.70622 -0.411524 0
M  V30 14108 N 1291.86 -0.526279 -1.48553 0
M  V30 14109 C 1293.27 -0.0848694 -1.86507 0
M  V30 14110 C 1293.62 1.3367 -1.43621 0
M  V30 14111 O 1292.75 2.00046 -0.825268 0
M  V30 14112 C 1293.34 -0.147241 -3.3848 0
M  V30 14113 C 1291.9 0.238954 -3.75641 0
M  V30 14114 C 1291.05 -0.508648 -2.72595 0
M  V30 14115 H 1294 -0.737728 -1.40511 0
M  V30 14116 H 1294.02 0.641964 -3.75045 0
M  V30 14117 H 1293.53 -1.18199 -3.69663 0
M  V30 14118 H 1291.63 1.27598 -3.50071 0
M  V30 14119 H 1291.75 -0.0980808 -4.79 0
M  V30 14120 H 1290.11 0.0446382 -2.54661 0
M  V30 14121 H 1290.89 -1.54395 -3.06622 0
M  V30 14122 N 1293.34 1.5542 -0.261239 0
M  V30 14123 C 1294.25 2.25627 0.642625 0
M  V30 14124 C 1295.26 1.27732 1.18155 0
M  V30 14125 O 1296.44 1.60639 1.21479 0
M  V30 14126 C 1293.5 2.95303 1.8165 0
M  V30 14127 C 1292.57 4.08644 1.31563 0
M  V30 14128 C 1291.8 4.74988 2.43355 0
M  V30 14129 O 1292.02 4.40474 3.62407 0
M  V30 14130 O 1290.96 5.63217 2.12299 0
M  V30 14131 H 1294.78 3.03609 0.0743091 0
M  V30 14132 H 1292.37 1.49372 -0.0291754 0
M  V30 14133 H 1294.25 3.3914 2.50125 0
M  V30 14134 H 1292.92 2.2025 2.37217 0
M  V30 14135 H 1291.83 3.69294 0.597746 0
M  V30 14136 H 1293.16 4.85558 0.805878 0
M  V30 14137 N 1294.82 -0.0116844 1.57596 0
M  V30 14138 C 1296.06 -0.698958 1.90055 0
M  V30 14139 C 1296.39 -1.74422 0.860659 0
M  V30 14140 O 1295.65 -1.95226 -0.136132 0
M  V30 14141 C 1295.94 -1.38985 3.29269 0
M  V30 14142 C 1295.61 -0.478916 4.48349 0
M  V30 14143 C 1294.27 -0.228071 4.80659 0
M  V30 14144 C 1296.62 0.14897 5.20987 0
M  V30 14145 C 1293.95 0.659147 5.82986 0
M  V30 14146 C 1296.3 1.02399 6.24257 0
M  V30 14147 C 1294.97 1.28413 6.55032 0
M  V30 14148 H 1294.24 -0.255767 0.69546 0
M  V30 14149 H 1296.89 0.0413339 1.91455 0
M  V30 14150 H 1295.19 -2.2039 3.23937 0
M  V30 14151 H 1296.89 -1.92747 3.51638 0
M  V30 14152 H 1293.48 -0.68459 4.23097 0
M  V30 14153 H 1297.66 -0.0318326 4.9629 0
M  V30 14154 H 1292.92 0.86882 6.05195 0
M  V30 14155 H 1297.09 1.51694 6.79678 0
M  V30 14156 H 1294.72 1.97332 7.34142 0
M  V30 14157 N 1296.29 -1.55015 -0.284256 0
M  V30 14158 C 1297.52 -1.79431 -1.04016 0
M  V30 14159 C 1297.94 -0.560254 -1.79563 0
M  V30 14160 O 1297.3 0.489804 -1.74558 0
M  V30 14161 C 1297.35 -3.01162 -1.98328 0
M  V30 14162 O 1296.45 -2.75459 -3.06914 0
M  V30 14163 H 1295.79 -0.593391 -0.297965 0
M  V30 14164 H 1298.32 -2.02136 -0.316585 0
M  V30 14165 H 1298.33 -3.29589 -2.40489 0
M  V30 14166 H 1297.01 -3.90634 -1.42751 0
M  V30 14167 H 1295.59 -2.58096 -2.69148 0
M  V30 14168 N 1297.77 0.548248 -1.47757 0
M  V30 14169 C 1298.68 1.68178 -1.63565 0
M  V30 14170 C 1299.7 1.661 -0.518351 0
M  V30 14171 O 1300.87 1.85384 -0.787061 0
M  V30 14172 C 1297.94 3.04673 -1.65454 0
M  V30 14173 C 1297 3.17749 -2.88677 0
M  V30 14174 C 1296.23 4.47733 -2.90466 0
M  V30 14175 O 1296.46 5.33736 -2.01201 0
M  V30 14176 O 1295.39 4.64789 -3.82433 0
M  V30 14177 H 1299.22 1.57781 -2.59497 0
M  V30 14178 H 1296.8 0.719277 -1.30946 0
M  V30 14179 H 1298.68 3.85885 -1.69324 0
M  V30 14180 H 1297.36 3.15433 -0.726912 0
M  V30 14181 H 1296.26 2.359 -2.90348 0
M  V30 14182 H 1297.6 3.11897 -3.80763 0
M  V30 14183 N 1299.25 1.36039 0.795694 0
M  V30 14184 C 1300.21 1.29709 1.88966 0
M  V30 14185 C 1301.21 0.206142 1.59473 0
M  V30 14186 O 1302.4 0.460534 1.68002 0
M  V30 14187 C 1299.53 1.00922 3.25619 0
M  V30 14188 H 1300.73 2.26993 1.95995 0
M  V30 14189 H 1298.28 1.2072 0.992791 0
M  V30 14190 H 1299.02 0.0407027 3.24274 0
M  V30 14191 H 1298.8 1.79863 3.48413 0
M  V30 14192 H 1300.29 0.990826 4.05675 0
M  V30 14193 N 1300.73 -1.01913 1.20215 0
M  V30 14194 C 1301.95 -1.79613 1.03702 0
M  V30 14195 C 1302.38 -1.83591 -0.409374 0
M  V30 14196 O 1301.74 -1.26911 -1.29473 0
M  V30 14197 C 1301.78 -3.22052 1.62219 0
M  V30 14198 O 1300.89 -4.03374 0.858106 0
M  V30 14199 H 1300.23 -0.554095 0.365889 0
M  V30 14200 H 1302.76 -1.28203 1.59452 0
M  V30 14201 H 1302.77 -3.72772 1.65847 0
M  V30 14202 H 1301.44 -3.18471 2.67487 0
M  V30 14203 H 1300.02 -3.6198 0.895835 0
M  V30 14204 N 1302.21 -1.00763 -1.2118 0
M  V30 14205 C 1303.62 -0.724746 -1.72059 0
M  V30 14206 C 1303.97 0.757413 -1.80991 0
M  V30 14207 O 1303.09 1.59152 -1.46627 0
M  V30 14208 C 1303.69 -1.30893 -3.12494 0
M  V30 14209 C 1302.25 -1.07511 -3.60719 0
M  V30 14210 C 1301.39 -1.42014 -2.38175 0
M  V30 14211 H 1304.35 -1.17821 -1.0632 0
M  V30 14212 H 1304.37 -0.694919 -3.741 0
M  V30 14213 H 1303.88 -2.38767 -3.05961 0
M  V30 14214 H 1301.98 -0.0136518 -3.72597 0
M  V30 14215 H 1302.09 -1.74885 -4.4604 0
M  V30 14216 H 1300.46 -0.838972 -2.40486 0
M  V30 14217 H 1301.24 -2.50924 -2.34291 0
M  V30 14218 N 1303.68 1.3679 -0.7827 0
M  V30 14219 C 1304.62 2.28805 -0.13451 0
M  V30 14220 C 1305.63 1.49159 0.652338 0
M  V30 14221 O 1306.82 1.71682 0.488626 0
M  V30 14222 C 1303.92 3.28508 0.832802 0
M  V30 14223 C 1303.09 4.37291 0.0974435 0
M  V30 14224 C 1302.15 5.16999 0.979715 0
M  V30 14225 O 1301.18 5.67501 0.439439 0
M  V30 14226 N 1302.38 5.32786 2.30477 0
M  V30 14227 H 1305.14 2.85072 -0.924873 0
M  V30 14228 H 1302.7 1.48884 -0.636012 0
M  V30 14229 H 1304.7 3.78718 1.42671 0
M  V30 14230 H 1303.27 2.7293 1.52408 0
M  V30 14231 H 1302.49 3.88335 -0.677483 0
M  V30 14232 H 1303.77 5.07143 -0.410259 0
M  V30 14233 H 1303.17 4.93358 2.76793 0
M  V30 14234 H 1301.73 5.86264 2.84848 0
M  V30 14235 N 1305.16 0.53415 1.48272 0
M  V30 14236 C 1306.1 -0.273689 2.26553 0
M  V30 14237 C 1307.07 -0.941085 1.32598 0
M  V30 14238 O 1308.26 -0.964653 1.61947 0
M  V30 14239 C 1305.38 -1.38796 3.08955 0
M  V30 14240 C 1304.43 -0.831533 4.18315 0
M  V30 14241 S 1305.26 0.303875 5.34637 0
M  V30 14242 C 1306.42 -0.812767 6.206 0
M  V30 14243 H 1306.65 0.390639 2.94722 0
M  V30 14244 H 1304.19 0.320014 1.51047 0
M  V30 14245 H 1306.14 -2.02622 3.57008 0
M  V30 14246 H 1304.8 -2.02402 2.40192 0
M  V30 14247 H 1304 -1.66758 4.75613 0
M  V30 14248 H 1303.6 -0.269881 3.73025 0
M  V30 14249 H 1305.89 -1.71043 6.55554 0
M  V30 14250 H 1306.83 -0.27767 7.07555 0
M  V30 14251 H 1307.24 -1.09505 5.53777 0
M  V30 14252 N 1306.64 -1.55279 0.269478 0
M  V30 14253 C 1307.87 -2.04334 -0.355313 0
M  V30 14254 C 1308.29 -1.14677 -1.491 0
M  V30 14255 O 1307.65 -0.144215 -1.80726 0
M  V30 14256 C 1307.7 -3.51172 -0.819162 0
M  V30 14257 O 1306.8 -3.64615 -1.9269 0
M  V30 14258 H 1306.14 -0.659827 -0.0743229 0
M  V30 14259 H 1308.67 -2.00609 0.402131 0
M  V30 14260 H 1308.68 -3.92428 -1.11642 0
M  V30 14261 H 1307.36 -4.15898 0.0117821 0
M  V30 14262 H 1305.93 -3.35261 -1.63261 0
M  V30 14263 N 1308.12 0.00332656 -1.576 0
M  V30 14264 C 1309.05 0.994803 -2.11248 0
M  V30 14265 C 1310.03 1.36061 -1.02085 0
M  V30 14266 O 1311.21 1.44494 -1.2975 0
M  V30 14267 C 1308.34 2.28772 -2.61306 0
M  V30 14268 C 1307.3 2.06362 -3.74965 0
M  V30 14269 C 1306.62 3.41638 -4.11324 0
M  V30 14270 C 1307.92 1.4289 -5.02374 0
M  V30 14271 H 1309.62 0.548119 -2.9434 0
M  V30 14272 H 1307.16 0.262208 -1.41593 0
M  V30 14273 H 1309.12 2.98485 -2.97464 0
M  V30 14274 H 1307.84 2.75547 -1.75332 0
M  V30 14275 H 1306.5 1.39076 -3.39195 0
M  V30 14276 H 1306.15 3.8611 -3.22379 0
M  V30 14277 H 1305.85 3.2746 -4.87897 0
M  V30 14278 H 1307.37 4.12671 -4.50039 0
M  V30 14279 H 1308.79 2.02555 -5.36325 0
M  V30 14280 H 1307.18 1.3921 -5.8373 0
M  V30 14281 H 1308.25 0.397708 -4.83266 0
M  V30 14282 N 1309.6 1.55164 0.276031 0
M  V30 14283 C 1310.54 1.87836 1.34113 0
M  V30 14284 C 1311.51 0.729562 1.4922 0
M  V30 14285 O 1312.7 0.980549 1.63676 0
M  V30 14286 C 1309.84 2.15313 2.69693 0
M  V30 14287 C 1308.95 3.42845 2.62833 0
M  V30 14288 C 1308.09 3.60038 3.90572 0
M  V30 14289 C 1307.13 4.81273 3.7821 0
M  V30 14290 N 1306.26 4.95139 4.97777 0
M  V30 14291 H 1311.1 2.78681 1.0555 0
M  V30 14292 H 1308.64 1.37976 0.510001 0
M  V30 14293 H 1310.6 2.29243 3.48573 0
M  V30 14294 H 1309.23 1.27706 2.96464 0
M  V30 14295 H 1308.28 3.37403 1.75679 0
M  V30 14296 H 1309.59 4.3186 2.49597 0
M  V30 14297 H 1308.75 3.73769 4.77893 0
M  V30 14298 H 1307.48 2.69203 4.06671 0
M  V30 14299 H 1306.49 4.67549 2.89271 0
M  V30 14300 H 1307.71 5.7354 3.63632 0
M  V30 14301 H 1305.66 4.07234 5.14292 0
M  V30 14302 H 1305.58 5.78194 4.8706 0
M  V30 14303 H 1306.85 5.13253 5.86679 0
M  V30 14304 N 1311.07 -0.540404 1.48045 0
M  V30 14305 C 1312 -1.65538 1.6468 0
M  V30 14306 C 1312.99 -1.62713 0.495847 0
M  V30 14307 O 1314.17 -1.80072 0.727172 0
M  V30 14308 C 1311.3 -3.0415 1.67661 0
M  V30 14309 C 1310.25 -3.2183 2.82152 0
M  V30 14310 C 1309.58 -4.61397 2.70216 0
M  V30 14311 C 1310.88 -3.05596 4.23567 0
M  V30 14312 H 1312.57 -1.51873 2.58021 0
M  V30 14313 H 1310.12 -0.729208 1.24171 0
M  V30 14314 H 1312.07 -3.82013 1.77887 0
M  V30 14315 H 1310.8 -3.18814 0.708907 0
M  V30 14316 H 1309.46 -2.4638 2.71463 0
M  V30 14317 H 1309.1 -4.72883 1.71437 0
M  V30 14318 H 1308.8 -4.74174 3.47035 0
M  V30 14319 H 1310.33 -5.41374 2.82395 0
M  V30 14320 H 1311.74 -3.73261 4.35143 0
M  V30 14321 H 1310.14 -3.29871 5.01303 0
M  V30 14322 H 1311.21 -2.0214 4.40758 0
M  V30 14323 N 1312.55 -1.36459 -0.788468 0
M  V30 14324 C 1313.46 -1.33017 -1.93245 0
M  V30 14325 C 1314.48 -0.232212 -1.72444 0
M  V30 14326 O 1315.65 -0.464743 -1.95965 0
M  V30 14327 C 1312.72 -1.1197 -3.28121 0
M  V30 14328 C 1311.78 -2.3125 -3.61693 0
M  V30 14329 C 1311.01 -2.11197 -4.90134 0
M  V30 14330 O 1311.24 -1.08764 -5.59934 0
M  V30 14331 O 1310.17 -2.98996 -5.22384 0
M  V30 14332 H 1314 -2.29333 -1.99098 0
M  V30 14333 H 1311.58 -1.17016 -0.928856 0
M  V30 14334 H 1313.46 -1.02154 -4.08831 0
M  V30 14335 H 1312.14 -0.187171 -3.23158 0
M  V30 14336 H 1311.05 -2.46635 -2.81286 0
M  V30 14337 H 1312.38 -3.23012 -3.71381 0
M  V30 14338 N 1314.03 1.01274 -1.20754 0
M  V30 14339 C 1315.28 1.74586 -1.01804 0
M  V30 14340 C 1315.6 1.89727 0.450419 0
M  V30 14341 O 1314.87 1.44257 1.32539 0
M  V30 14342 H 1313.45 0.646804 -0.373702 0
M  V30 14343 H 1316.11 1.22079 -1.5193 0
M  V30 14344 H 1315.21 2.748 -1.47958 0
M  V30 14345 N 1315.51 1.01404 1.20644 0
M  V30 14346 C 1316.46 0.575388 2.25371 0
M  V30 14347 C 1317.45 -0.384598 1.64976 0
M  V30 14348 O 1318.66 -0.2548 1.78187 0
M  V30 14349 H 1315.03 0.167752 0.733051 0
M  V30 14350 H 1317 1.46964 2.597 0
M  V30 14351 C 1315.75 -0.0731257 3.47623 0
M  V30 14352 H 1315.08 0.656551 3.94372 0
M  V30 14353 H 1316.52 -0.343203 4.22609 0
M  V30 14354 C 1314.97 -1.31515 3.1017 0
M  V30 14355 O 1315.5 -2.40869 3.21473 0
M  V30 14356 N 1313.71 -1.19829 2.64744 0
M  V30 14357 H 1313.26 -0.308463 2.55746 0
M  V30 14358 H 1313.22 -2.0303 2.40054 0
M  V30 14359 N 1316.99 -1.36373 0.789944 0
M  V30 14360 C 1317.92 -2.32616 0.202944 0
M  V30 14361 C 1318.9 -1.56674 -0.662364 0
M  V30 14362 O 1320.08 -1.84826 -0.596078 0
M  V30 14363 C 1317.21 -3.4092 -0.662646 0
M  V30 14364 C 1316.17 -4.27877 0.102811 0
M  V30 14365 C 1315.49 -5.27352 -0.883407 0
M  V30 14366 C 1316.79 -5.0606 1.29231 0
M  V30 14367 H 1318.49 -2.81958 1.00699 0
M  V30 14368 H 1316.03 -1.35562 0.48568 0
M  V30 14369 H 1317.99 -4.07239 -1.08324 0
M  V30 14370 H 1316.71 -2.90147 -1.4994 0
M  V30 14371 H 1315.37 -3.63114 0.504389 0
M  V30 14372 H 1315.02 -4.72853 -1.71521 0
M  V30 14373 H 1314.72 -5.86398 -0.375669 0
M  V30 14374 H 1316.24 -5.96545 -1.30256 0
M  V30 14375 H 1317.66 -5.65417 0.947446 0
M  V30 14376 H 1316.05 -5.74521 1.73338 0
M  V30 14377 H 1317.12 -4.37671 2.08739 0
M  V30 14378 N 1318.47 -0.542005 -1.47987 0
M  V30 14379 C 1319.38 0.217677 -2.33588 0
M  V30 14380 C 1320.39 0.927093 -1.47245 0
M  V30 14381 O 1321.57 0.899378 -1.80203 0
M  V30 14382 C 1318.63 1.24376 -3.23622 0
M  V30 14383 C 1317.69 0.543407 -4.25847 0
M  V30 14384 C 1316.93 1.5206 -5.11579 0
M  V30 14385 O 1317.15 2.75425 -4.99497 0
M  V30 14386 O 1316.08 1.05341 -5.9261 0
M  V30 14387 H 1319.91 -0.484089 -2.99817 0
M  V30 14388 H 1317.49 -0.302783 -1.463 0
M  V30 14389 H 1319.38 1.83644 -3.7928 0
M  V30 14390 H 1318.05 1.92772 -2.6004 0
M  V30 14391 H 1316.96 -0.090074 -3.73992 0
M  V30 14392 H 1318.29 -0.0988264 -4.92101 0
M  V30 14393 N 1319.94 1.55134 -0.277709 0
M  V30 14394 C 1320.85 2.26296 0.618658 0
M  V30 14395 C 1321.87 1.28978 1.16794 0
M  V30 14396 O 1323.05 1.61918 1.19768 0
M  V30 14397 C 1320.11 2.97214 1.78508 0
M  V30 14398 C 1319.17 4.10016 1.27221 0
M  V30 14399 C 1318.4 4.77543 2.38304 0
M  V30 14400 O 1318.63 4.44293 3.57715 0
M  V30 14401 O 1317.56 5.65437 2.06313 0
M  V30 14402 H 1321.39 3.03671 0.0421031 0
M  V30 14403 H 1318.97 1.49332 -0.0450166 0
M  V30 14404 H 1320.85 3.41773 2.46513 0
M  V30 14405 H 1319.53 2.22753 2.34867 0
M  V30 14406 H 1318.44 3.69907 0.558544 0
M  V30 14407 H 1319.77 4.86385 0.754333 0
M  V30 14408 N 1321.42 0.00503138 1.57599 0
M  V30 14409 C 1322.83 -0.537106 1.78807 0
M  V30 14410 C 1323.18 -1.73666 0.912945 0
M  V30 14411 O 1322.31 -2.16085 0.116775 0
M  V30 14412 C 1322.9 -0.98116 3.24282 0
M  V30 14413 C 1321.46 -1.46857 3.46569 0
M  V30 14414 C 1320.61 -0.422088 2.74069 0
M  V30 14415 H 1323.56 0.231182 1.57007 0
M  V30 14416 H 1323.58 -1.8469 3.32671 0
M  V30 14417 H 1323.09 -0.107907 3.8795 0
M  V30 14418 H 1321.19 -2.36255 2.88122 0
M  V30 14419 H 1321.31 -1.49256 4.55258 0
M  V30 14420 H 1319.67 -0.884853 2.38836 0
M  V30 14421 H 1320.45 0.442285 3.40439 0
M  V30 14422 N 1322.9 -1.55308 -0.267798 0
M  V30 14423 C 1324.18 -1.66881 -1.02029 0
M  V30 14424 C 1324.56 -0.538708 -2.04111 0
M  V30 14425 O 1323.9 0.460575 -2.2381 0
M  V30 14426 C 1324.11 -3.06318 -1.67243 0
M  V30 14427 C 1325.46 -3.64237 -2.18212 0
M  V30 14428 O 1326.49 -3.08984 -1.77221 0
M  V30 14429 O 1325.35 -4.61055 -2.93413 0
M  V30 14430 H 1322.44 -0.677967 -0.473593 0
M  V30 14431 H 1324.99 -1.67646 -0.263242 0
M  V30 14432 H 1323.76 -3.80015 -0.932985 0
M  V30 14433 H 1323.38 -3.09475 -2.49622 0
M  V30 14434 N 1324.38 0.532545 -1.4833 0
M  V30 14435 C 1325.65 1.29371 -1.46705 0
M  V30 14436 C 1326.03 2.10354 -0.177329 0
M  V30 14437 O 1325.38 2.12462 0.840968 0
M  V30 14438 C 1325.59 2.17733 -2.72751 0
M  V30 14439 C 1326.94 2.77956 -3.20976 0
M  V30 14440 O 1327.96 2.28022 -2.7365 0
M  V30 14441 O 1326.82 3.68779 -4.03317 0
M  V30 14442 H 1323.92 0.58378 -0.585773 0
M  V30 14443 H 1326.46 0.549411 -1.6056 0
M  V30 14444 H 1325.24 1.57659 -3.58133 0
M  V30 14445 H 1324.86 2.99415 -2.61603 0
M  V30 14446 N 1325.86 1.36875 0.78122 0
M  V30 14447 C 1326.79 1.34559 1.9083 0
M  V30 14448 C 1327.77 0.215713 1.68727 0
M  V30 14449 O 1328.95 0.41462 1.89722 0
M  V30 14450 C 1326.08 1.14233 3.27976 0
M  V30 14451 C 1325.04 2.24132 3.64621 0
M  V30 14452 C 1324.36 1.8894 5.00206 0
M  V30 14453 C 1325.66 3.66266 3.72353 0
M  V30 14454 H 1327.36 2.28871 1.93025 0
M  V30 14455 H 1324.9 1.10171 0.927275 0
M  V30 14456 H 1326.85 1.11246 4.06451 0
M  V30 14457 H 1325.58 0.163747 3.26189 0
M  V30 14458 H 1324.24 2.26259 2.88448 0
M  V30 14459 H 1323.89 0.896351 4.94949 0
M  V30 14460 H 1323.59 2.62525 5.25694 0
M  V30 14461 H 1325.11 1.87523 5.81092 0
M  V30 14462 H 1326.52 3.66321 4.41001 0
M  V30 14463 H 1324.92 4.38825 4.09332 0
M  V30 14464 H 1325.99 4.00578 2.7325 0
M  V30 14465 N 1327.33 -1.00632 1.21289 0
M  V30 14466 C 1328.24 -2.12829 0.986957 0
M  V30 14467 C 1329.26 -1.73895 -0.0605152 0
M  V30 14468 O 1330.44 -2.00985 0.129238 0
M  V30 14469 C 1327.5 -3.4226 0.553089 0
M  V30 14470 C 1326.56 -3.95376 1.67262 0
M  V30 14471 C 1325.79 -5.18629 1.25936 0
M  V30 14472 O 1326.02 -5.70246 0.132402 0
M  V30 14473 O 1324.95 -5.65157 2.07077 0
M  V30 14474 H 1328.78 -2.34765 1.92663 0
M  V30 14475 H 1326.36 -1.11208 0.997654 0
M  V30 14476 H 1328.24 -4.20177 0.320856 0
M  V30 14477 H 1326.92 -3.21716 -0.357881 0
M  V30 14478 H 1325.83 -3.18692 1.95924 0
M  V30 14479 H 1327.16 -4.20328 2.56097 0
M  V30 14480 N 1328.81 -1.02043 -1.20104 0
M  V30 14481 C 1330.04 -0.731315 -1.93544 0
M  V30 14482 C 1330.45 0.708582 -1.74999 0
M  V30 14483 O 1329.81 1.481 -1.06642 0
M  V30 14484 C 1329.86 -1.06233 -3.45538 0
M  V30 14485 O 1329.58 -2.44568 -3.63481 0
M  V30 14486 C 1331.08 -0.794818 -4.36116 0
M  V30 14487 H 1328.3 -0.268248 -0.615048 0
M  V30 14488 H 1330.85 -1.36264 -1.52488 0
M  V30 14489 H 1329 -0.476341 -3.8446 0
M  V30 14490 H 1329.42 -2.5663 -4.57429 0
M  V30 14491 H 1330.89 -1.07647 -5.41402 0
M  V30 14492 H 1331.37 0.270944 -4.38363 0
M  V30 14493 H 1331.97 -1.36314 -4.02863 0
M  V30 14494 N 1330.29 1.35952 -0.797165 0
M  V30 14495 C 1331.2 2.33726 -0.202271 0
M  V30 14496 C 1332.22 1.61415 0.649719 0
M  V30 14497 O 1333.39 1.93351 0.563686 0
M  V30 14498 C 1330.46 3.40612 0.64685 0
M  V30 14499 C 1329.52 4.28712 -0.224536 0
M  V30 14500 C 1328.75 5.30493 0.584153 0
M  V30 14501 O 1328.97 5.40599 1.81957 0
M  V30 14502 O 1327.91 6.01897 -0.0200239 0
M  V30 14503 H 1331.73 2.86383 -1.01087 0
M  V30 14504 H 1329.32 1.38557 -0.558768 0
M  V30 14505 H 1331.2 4.05944 1.1308 0
M  V30 14506 H 1329.88 2.90243 1.43321 0
M  V30 14507 H 1328.78 3.66394 -0.755415 0
M  V30 14508 H 1330.12 4.82454 -0.974603 0
M  V30 14509 N 1331.77 0.549846 1.47697 0
M  V30 14510 C 1333.02 0.0209424 2.01689 0
M  V30 14511 C 1333.33 -1.33417 1.43036 0
M  V30 14512 O 1334.54 -1.95257 1.88646 0
M  V30 14513 C 1332.99 -0.0130171 3.59898 0
M  V30 14514 C 1332.6 1.3384 4.2754 0
M  V30 14515 C 1334.34 -0.489701 4.21666 0
M  V30 14516 C 1332.25 1.26395 5.77735 0
M  V30 14517 H 1331.18 0.00405885 0.753989 0
M  V30 14518 H 1333.83 0.696599 1.69764 0
M  V30 14519 H 1332.21 -0.754168 3.88752 0
M  V30 14520 H 1333.39 2.09668 4.10336 0
M  V30 14521 H 1331.7 1.75242 3.77729 0
M  V30 14522 H 1334.3 -0.563684 5.31721 0
M  V30 14523 H 1334.64 -1.50004 3.88336 0
M  V30 14524 H 1335.18 0.196366 3.97315 0
M  V30 14525 H 1331.92 2.25005 6.15673 0
M  V30 14526 H 1331.44 0.547353 5.97297 0
M  V30 14527 H 1333.11 0.962918 6.39794 0
M  V30 14528 N 1333.25 -1.54984 0.285932 0
M  V30 14529 C 1334.18 -2.25916 -0.590259 0
M  V30 14530 C 1335.16 -1.25319 -1.15018 0
M  V30 14531 O 1336.34 -1.54062 -1.18231 0
M  V30 14532 C 1333.47 -2.98849 -1.76936 0
M  V30 14533 C 1332.43 -4.06466 -1.3405 0
M  V30 14534 C 1331.75 -4.67032 -2.60356 0
M  V30 14535 C 1333.05 -5.20064 -0.482754 0
M  V30 14536 H 1334.75 -2.994 0.00131571 0
M  V30 14537 H 1332.29 -1.44 0.00207281 0
M  V30 14538 H 1334.25 -3.47186 -2.3883 0
M  V30 14539 H 1332.97 -2.22918 -2.38694 0
M  V30 14540 H 1331.63 -3.58957 -0.7447 0
M  V30 14541 H 1331.28 -3.87757 -3.20396 0
M  V30 14542 H 1330.98 -5.39703 -2.32368 0
M  V30 14543 H 1332.5 -5.18124 -3.23079 0
M  V30 14544 H 1333.91 -5.64387 -1.00697 0
M  V30 14545 H 1332.31 -5.99363 -0.297291 0
M  V30 14546 H 1333.38 -4.82358 0.495861 0
M  V30 14547 N 1334.72 -0.0133892 -1.57594 0
M  V30 14548 C 1335.66 1.00211 -2.06132 0
M  V30 14549 C 1336.67 1.29869 -0.98173 0
M  V30 14550 O 1337.86 1.2661 -1.25826 0
M  V30 14551 C 1334.96 2.33354 -2.45763 0
M  V30 14552 C 1334.13 2.22441 -3.76615 0
M  V30 14553 C 1333.19 3.38385 -4.02967 0
M  V30 14554 O 1332.22 3.15973 -4.73445 0
M  V30 14555 N 1333.42 4.61672 -3.51908 0
M  V30 14556 H 1336.18 0.588079 -2.93874 0
M  V30 14557 H 1333.74 0.173714 -1.60965 0
M  V30 14558 H 1335.74 3.09716 -2.60496 0
M  V30 14559 H 1334.31 2.66451 -1.6347 0
M  V30 14560 H 1333.53 1.30905 -3.7183 0
M  V30 14561 H 1334.81 2.12337 -4.62375 0
M  V30 14562 H 1334.21 4.82777 -2.9486 0
M  V30 14563 H 1332.77 5.35256 -3.71947 0
M  V30 14564 N 1336.2 1.55448 0.259558 0
M  V30 14565 C 1337.11 1.92364 1.34289 0
M  V30 14566 C 1338.13 0.822492 1.53333 0
M  V30 14567 O 1339.3 1.12277 1.672 0
M  V30 14568 C 1336.37 2.19978 2.67975 0
M  V30 14569 C 1335.43 3.43454 2.57562 0
M  V30 14570 C 1334.66 3.69741 3.84873 0
M  V30 14571 O 1334.89 2.9831 4.86176 0
M  V30 14572 O 1333.82 4.63274 3.84267 0
M  V30 14573 H 1337.65 2.8461 1.05975 0
M  V30 14574 H 1335.23 1.42167 0.459239 0
M  V30 14575 H 1337.11 2.39104 3.46998 0
M  V30 14576 H 1335.79 1.30912 2.96047 0
M  V30 14577 H 1334.7 3.29649 1.76869 0
M  V30 14578 H 1336.03 4.32782 2.34437 0
M  V30 14579 N 1337.68 -0.524672 1.4861 0
M  V30 14580 C 1339.09 -1.10655 1.50374 0
M  V30 14581 C 1339.44 -1.94242 0.276512 0
M  V30 14582 O 1338.57 -2.07451 -0.615887 0
M  V30 14583 C 1339.16 -2.01348 2.72478 0
M  V30 14584 C 1337.72 -2.54743 2.77097 0
M  V30 14585 C 1336.87 -1.31822 2.43964 0
M  V30 14586 H 1339.82 -0.309674 1.55649 0
M  V30 14587 H 1339.84 -2.85709 2.51297 0
M  V30 14588 H 1339.35 -1.40485 3.61781 0
M  V30 14589 H 1337.45 -3.19313 1.92016 0
M  V30 14590 H 1337.57 -2.93514 3.78664 0
M  V30 14591 H 1335.93 -1.63574 1.95233 0
M  V30 14592 H 1336.71 -0.727026 3.35513 0
M  V30 14593 N 1339.16 -1.37287 -0.77395 0
M  V30 14594 C 1340.38 -1.35734 -1.56815 0
M  V30 14595 C 1340.81 0.0555546 -1.88018 0
M  V30 14596 O 1340.17 1.03197 -1.49064 0
M  V30 14597 C 1340.21 -2.2008 -2.85652 0
M  V30 14598 O 1339.32 -1.60391 -3.79932 0
M  V30 14599 H 1338.66 -0.463881 -0.47509 0
M  V30 14600 H 1341.19 -1.80781 -0.958087 0
M  V30 14601 H 1341.2 -2.33215 -3.34776 0
M  V30 14602 H 1339.87 -3.22781 -2.6227 0
M  V30 14603 H 1338.45 -1.56285 -3.3857 0
M  V30 14604 N 1340.64 0.999871 -1.21821 0
M  V30 14605 C 1341.88 1.73497 -1.0365 0
M  V30 14606 C 1342.21 1.90194 0.430271 0
M  V30 14607 O 1341.48 1.45655 1.31002 0
M  V30 14608 H 1340.06 0.642804 -0.380541 0
M  V30 14609 H 1342.72 1.20461 -1.53216 0
M  V30 14610 H 1341.81 2.73215 -1.50864 0
M  V30 14611 N 1342.11 1.02678 1.19562 0
M  V30 14612 C 1343.34 0.741569 1.93154 0
M  V30 14613 C 1343.76 -0.699292 1.75372 0
M  V30 14614 O 1343.11 -1.47533 1.07426 0
M  V30 14615 C 1343.17 1.08064 3.4497 0
M  V30 14616 O 1342.89 2.46492 3.62179 0
M  V30 14617 C 1344.39 0.817935 4.35689 0
M  V30 14618 H 1341.61 0.271506 0.613617 0
M  V30 14619 H 1344.15 1.3707 1.51763 0
M  V30 14620 H 1342.31 0.496723 3.84202 0
M  V30 14621 H 1342.72 2.59053 4.56061 0
M  V30 14622 H 1344.19 1.10517 5.40823 0
M  V30 14623 H 1344.67 -0.247693 4.38501 0
M  V30 14624 H 1345.28 1.38449 4.02134 0
M  V30 14625 N 1343.59 -1.35528 0.804364 0
M  V30 14626 C 1344.54 -2.31728 0.20125 0
M  V30 14627 C 1345.53 -1.56527 -0.647751 0
M  V30 14628 O 1346.74 -1.71672 -0.541163 0
M  V30 14629 H 1343.12 -0.750572 0.0463165 0
M  V30 14630 H 1345.09 -2.80142 1.02777 0
M  V30 14631 C 1343.84 -3.41807 -0.637429 0
M  V30 14632 H 1343.16 -3.99799 0.00651699 0
M  V30 14633 H 1344.6 -4.11403 -1.02585 0
M  V30 14634 C 1343.06 -2.84655 -1.80202 0
M  V30 14635 O 1343.59 -2.78026 -2.89939 0
M  V30 14636 N 1341.79 -2.41735 -1.61285 0
M  V30 14637 H 1341.34 -2.47327 -0.720231 0
M  V30 14638 H 1341.3 -2.03844 -2.39364 0
M  V30 14639 N 1345.07 -0.557671 -1.47404 0
M  V30 14640 C 1346.02 0.189765 -2.30019 0
M  V30 14641 C 1346.99 0.907923 -1.3909 0
M  V30 14642 O 1348.17 0.903528 -1.68051 0
M  V30 14643 C 1345.31 1.21348 -3.23061 0
M  V30 14644 C 1344.43 0.501343 -4.29081 0
M  V30 14645 C 1343.56 1.51039 -5.09275 0
M  V30 14646 C 1342.6 0.783254 -6.07068 0
M  V30 14647 N 1341.74 1.73916 -6.80219 0
M  V30 14648 H 1346.58 -0.520856 -2.93413 0
M  V30 14649 H 1344.11 -0.268686 -1.44625 0
M  V30 14650 H 1346.07 1.81961 -3.75428 0
M  V30 14651 H 1344.7 1.89213 -2.61531 0
M  V30 14652 H 1343.75 -0.219317 -3.79767 0
M  V30 14653 H 1345.07 -0.0682656 -4.98753 0
M  V30 14654 H 1344.22 2.19004 -5.65793 0
M  V30 14655 H 1342.96 2.11392 -4.39505 0
M  V30 14656 H 1341.96 0.0896883 -5.49727 0
M  V30 14657 H 1343.19 0.185464 -6.78847 0
M  V30 14658 H 1341.14 2.33125 -6.13179 0
M  V30 14659 H 1341.05 1.22171 -7.46063 0
M  V30 14660 H 1342.32 2.40993 -7.41311 0
M  V30 14661 N 1346.55 1.54831 -0.294147 0
M  V30 14662 C 1347.83 1.92071 0.369902 0
M  V30 14663 C 1348.21 1.22061 1.72233 0
M  V30 14664 O 1347.55 0.353975 2.25742 0
M  V30 14665 C 1347.76 3.45524 0.49135 0
M  V30 14666 C 1349.11 4.17644 0.765411 0
M  V30 14667 O 1350.14 3.51521 0.575428 0
M  V30 14668 O 1349 5.34692 1.12992 0
M  V30 14669 H 1346.09 0.801033 0.20561 0
M  V30 14670 H 1348.64 1.66224 -0.341702 0
M  V30 14671 H 1347.41 3.88591 -0.459663 0
M  V30 14672 H 1347.03 3.77384 1.25169 0
M  V30 14673 N 1348.03 0.0217466 1.57585 0
M  V30 14674 C 1348.94 -0.978407 2.13224 0
M  V30 14675 C 1349.95 -1.36212 1.08269 0
M  V30 14676 O 1351.13 -1.44504 1.40288 0
M  V30 14677 C 1348.19 -2.24462 2.6423 0
M  V30 14678 C 1347.26 -1.92201 3.83871 0
M  V30 14679 C 1346.49 -3.12786 4.32436 0
M  V30 14680 O 1346.71 -4.25201 3.8021 0
M  V30 14681 O 1345.65 -2.95514 5.24362 0
M  V30 14682 H 1349.47 -0.535347 2.98944 0
M  V30 14683 H 1347.06 -0.198414 1.48077 0
M  V30 14684 H 1348.94 -2.98809 2.97138 0
M  V30 14685 H 1347.61 -2.67964 1.81596 0
M  V30 14686 H 1346.52 -1.15262 3.55901 0
M  V30 14687 H 1347.85 -1.53521 4.67645 0
M  V30 14688 N 1349.51 -1.55583 -0.251311 0
M  V30 14689 C 1350.73 -1.81597 -1.00186 0
M  V30 14690 C 1351.16 -0.598216 -1.78334 0
M  V30 14691 O 1350.51 0.452667 -1.75558 0
M  V30 14692 C 1350.56 -3.05301 -1.91895 0
M  V30 14693 O 1349.67 -2.81907 -3.01002 0
M  V30 14694 H 1349.01 -0.599578 -0.285311 0
M  V30 14695 H 1351.54 -2.02762 -0.273638 0
M  V30 14696 H 1351.55 -3.34616 -2.33444 0
M  V30 14697 H 1350.22 -3.93574 -1.34433 0
M  V30 14698 H 1348.8 -2.63747 -2.63613 0
M  V30 14699 N 1350.98 0.516783 -1.48886 0
M  V30 14700 C 1351.91 1.62897 -1.67292 0
M  V30 14701 C 1352.89 1.61903 -0.521671 0
M  V30 14702 O 1354.08 1.78892 -0.755728 0
M  V30 14703 C 1351.21 3.01444 -1.72478 0
M  V30 14704 C 1350.16 3.173 -2.87236 0
M  V30 14705 C 1349.49 4.5704 -2.77522 0
M  V30 14706 C 1350.79 2.98818 -4.28375 0
M  V30 14707 H 1352.48 1.47748 -2.60405 0
M  V30 14708 H 1350.03 0.709361 -1.25316 0
M  V30 14709 H 1351.98 3.79135 -1.83942 0
M  V30 14710 H 1350.71 3.17645 -0.759538 0
M  V30 14711 H 1349.37 2.4203 -2.75349 0
M  V30 14712 H 1349.01 4.70096 -1.78938 0
M  V30 14713 H 1348.71 4.68593 -3.54534 0
M  V30 14714 H 1350.24 5.36813 -2.90972 0
M  V30 14715 H 1351.65 3.66291 -4.41026 0
M  V30 14716 H 1350.05 3.21854 -5.06488 0
M  V30 14717 H 1351.12 1.95102 -4.43918 0
M  V30 14718 N 1352.46 1.37696 0.766659 0
M  V30 14719 C 1353.87 1.29668 1.34324 0
M  V30 14720 C 1354.22 -0.0534297 1.96127 0
M  V30 14721 O 1353.35 -0.95534 1.94171 0
M  V30 14722 C 1353.94 2.34818 2.44225 0
M  V30 14723 C 1352.5 2.3041 2.97638 0
M  V30 14724 C 1351.65 2.18378 1.70899 0
M  V30 14725 H 1354.6 1.48244 0.566526 0
M  V30 14726 H 1354.62 1.99778 3.23835 0
M  V30 14727 H 1354.13 3.3307 1.99214 0
M  V30 14728 H 1352.23 1.35698 3.47011 0
M  V30 14729 H 1352.35 3.24028 3.52906 0
M  V30 14730 H 1350.71 1.65008 1.94021 0
M  V30 14731 H 1351.49 3.18551 1.27985 0
M  V30 14732 N 1353.94 -0.993397 1.22349 0
M  V30 14733 C 1355.18 -1.74807 1.05933 0
M  V30 14734 C 1355.54 -1.87815 -0.398702 0
M  V30 14735 O 1356.74 -2.5996 -0.683703 0
M  V30 14736 C 1355.02 -3.11601 1.75042 0
M  V30 14737 S 1356.57 -4.02813 1.74032 0
M  V30 14738 H 1353.39 -0.601331 0.379371 0
M  V30 14739 H 1355.99 -1.18777 1.55282 0
M  V30 14740 H 1354.7 -2.99775 2.80291 0
M  V30 14741 H 1354.23 -3.72703 1.25922 0
M  V30 14742 H 1356.24 -4.89876 0.789658 0
M  V30 14743 N 1355.42 -1.03311 -1.19015 0
M  V30 14744 C 1356.65 -0.751802 -1.92758 0
M  V30 14745 C 1357.06 0.689982 -1.7574 0
M  V30 14746 O 1356.42 1.46961 -1.08207 0
M  V30 14747 C 1356.47 -1.09892 -3.44392 0
M  V30 14748 O 1356.19 -2.48409 -3.60866 0
M  V30 14749 C 1357.69 -0.841029 -4.35249 0
M  V30 14750 H 1354.91 -0.274757 -0.612168 0
M  V30 14751 H 1357.45 -1.37873 -1.51034 0
M  V30 14752 H 1355.61 -0.517092 -3.83933 0
M  V30 14753 H 1356.02 -2.61468 -4.54681 0
M  V30 14754 H 1357.5 -1.13383 -5.4023 0
M  V30 14755 H 1357.97 0.224434 -4.38626 0
M  V30 14756 H 1358.58 -1.40579 -4.01395 0
M  V30 14757 N 1356.9 1.35099 -0.81154 0
M  V30 14758 C 1358.14 1.9788 -0.390695 0
M  V30 14759 C 1358.46 1.6509 1.04903 0
M  V30 14760 O 1359.66 2.21273 1.57324 0
M  V30 14761 C 1358.12 3.54025 -0.647632 0
M  V30 14762 C 1357.73 3.9572 -2.10023 0
M  V30 14763 C 1359.47 4.23492 -0.29239 0
M  V30 14764 C 1357.38 5.44731 -2.30266 0
M  V30 14765 H 1356.31 0.740441 -0.14235 0
M  V30 14766 H 1358.96 1.54098 -0.996294 0
M  V30 14767 H 1357.34 3.9599 0.0279838 0
M  V30 14768 H 1358.52 3.64893 -2.81407 0
M  V30 14769 H 1356.83 3.39157 -2.41581 0
M  V30 14770 H 1359.43 5.33035 -0.421618 0
M  V30 14771 H 1359.77 4.09268 0.76195 0
M  V30 14772 H 1360.3 3.86965 -0.922122 0
M  V30 14773 H 1357.04 5.63928 -3.34163 0
M  V30 14774 H 1356.56 5.7711 -1.63413 0
M  V30 14775 H 1358.24 6.1126 -2.12062 0
M  V30 14776 N 1358.37 0.56548 1.47106 0
M  V30 14777 C 1359.6 0.0496298 2.0684 0
M  V30 14778 C 1360.02 -1.24777 1.4169 0
M  V30 14779 O 1359.37 -1.75046 0.516239 0
M  V30 14780 C 1359.42 -0.140987 3.61225 0
M  V30 14781 O 1359.15 1.10504 4.23934 0
M  V30 14782 C 1360.65 -0.693171 4.37847 0
M  V30 14783 H 1357.87 0.0496018 0.669164 0
M  V30 14784 H 1360.41 0.781247 1.88989 0
M  V30 14785 H 1358.57 -0.822762 3.78562 0
M  V30 14786 H 1358.98 0.907978 5.16581 0
M  V30 14787 H 1360.45 -0.7758 5.46521 0
M  V30 14788 H 1360.93 -1.70632 4.04699 0
M  V30 14789 H 1361.54 -0.046826 4.25274 0
M  V30 14790 N 1359.85 -1.54672 0.302354 0
M  V30 14791 C 1361.13 -1.92264 -0.359711 0
M  V30 14792 C 1361.51 -1.22973 -1.71583 0
M  V30 14793 O 1360.86 -0.365942 -2.25551 0
M  V30 14794 C 1361.07 -3.4578 -0.473019 0
M  V30 14795 C 1362.42 -4.18044 -0.743252 0
M  V30 14796 O 1363.44 -3.51822 -0.556778 0
M  V30 14797 O 1362.3 -5.35283 -1.10155 0
M  V30 14798 H 1359.39 -0.802112 -0.201359 0
M  V30 14799 H 1361.94 -1.66041 0.350513 0
M  V30 14800 H 1360.71 -3.88342 0.480265 0
M  V30 14801 H 1360.33 -3.78042 -1.23166 0
M  V30 14802 N 1361.33 -0.0301034 -1.57571 0
M  V30 14803 C 1362.58 0.649283 -1.92125 0
M  V30 14804 C 1362.91 1.71722 -0.90692 0
M  V30 14805 O 1362.18 1.94373 0.0702019 0
M  V30 14806 C 1362.47 1.26482 -3.37156 0
M  V30 14807 C 1362.32 0.206375 -4.49326 0
M  V30 14808 C 1363.64 2.18256 -3.82168 0
M  V30 14809 H 1360.76 0.234561 -0.698678 0
M  V30 14810 H 1363.4 -0.0875634 -1.89798 0
M  V30 14811 H 1361.55 1.89283 -3.3927 0
M  V30 14812 H 1363.22 -0.424268 -4.59345 0
M  V30 14813 H 1361.47 -0.468035 -4.31268 0
M  V30 14814 H 1362.14 0.676689 -5.47837 0
M  V30 14815 H 1364.61 1.65441 -3.81797 0
M  V30 14816 H 1363.49 2.58277 -4.84339 0
M  V30 14817 H 1363.75 3.07411 -3.17727 0
M  V30 14818 N 1362.81 1.55714 0.243056 0
M  V30 14819 C 1364.05 1.78904 0.96772 0
M  V30 14820 C 1364.41 0.599662 1.82816 0
M  V30 14821 O 1363.7 -0.406986 1.87228 0
M  V30 14822 C 1363.9 3.05281 1.85845 0
M  V30 14823 C 1363.73 4.36397 1.08572 0
M  V30 14824 C 1362.5 4.99098 0.789274 0
M  V30 14825 C 1364.69 5.12226 0.461433 0
M  V30 14826 N 1362.68 6.139 -0.00711288 0
M  V30 14827 C 1364.05 6.19679 -0.199349 0
M  V30 14828 C 1366.1 4.96506 0.372287 0
M  V30 14829 C 1364.8 7.13122 -0.940722 0
M  V30 14830 C 1366.83 5.9033 -0.355564 0
M  V30 14831 C 1366.19 6.97194 -1.00497 0
M  V30 14832 H 1362.29 0.706567 0.335094 0
M  V30 14833 H 1364.88 1.93209 0.240503 0
M  V30 14834 H 1363.05 2.92298 2.55767 0
M  V30 14835 H 1364.78 3.16749 2.51897 0
M  V30 14836 H 1361.53 4.606 1.10201 0
M  V30 14837 H 1361.96 6.75855 -0.393512 0
M  V30 14838 H 1366.6 4.13961 0.860025 0
M  V30 14839 H 1364.32 7.95166 -1.44005 0
M  V30 14840 H 1367.9 5.80244 -0.425257 0
M  V30 14841 H 1366.78 7.68543 -1.55918 0
M  V30 14842 N 1364.29 -0.50888 1.49158 0
M  V30 14843 C 1365.54 -1.26008 1.57496 0
M  V30 14844 C 1365.85 -1.9382 0.263281 0
M  V30 14845 O 1367.05 -2.70565 0.225117 0
M  V30 14846 C 1365.51 -2.28752 2.7785 0
M  V30 14847 C 1365.12 -1.66915 4.15744 0
M  V30 14848 C 1366.86 -3.0475 2.95513 0
M  V30 14849 C 1364.77 -2.67724 5.27331 0
M  V30 14850 H 1363.7 -0.473984 0.586392 0
M  V30 14851 H 1366.35 -0.534886 1.75531 0
M  V30 14852 H 1364.73 -3.044 2.53292 0
M  V30 14853 H 1365.91 -0.973131 4.50407 0
M  V30 14854 H 1364.22 -1.03336 4.03374 0
M  V30 14855 H 1366.82 -3.80121 3.76048 0
M  V30 14856 H 1367.16 -3.6189 2.05771 0
M  V30 14857 H 1367.69 -2.36217 3.20072 0
M  V30 14858 H 1364.43 -2.15375 6.19107 0
M  V30 14859 H 1363.95 -3.35589 4.97132 0
M  V30 14860 H 1365.63 -3.30304 5.56335 0
M  V30 14861 N 1365.76 -1.381 -0.759346 0
M  V30 14862 C 1366.99 -1.37389 -1.55367 0
M  V30 14863 C 1367.41 0.0356097 -1.88066 0
M  V30 14864 O 1366.77 1.0161 -1.5015 0
M  V30 14865 C 1366.82 -2.23098 -2.83302 0
M  V30 14866 O 1365.92 -1.64412 -3.7821 0
M  V30 14867 H 1365.27 -0.468894 -0.470143 0
M  V30 14868 H 1367.8 -1.81787 -0.938858 0
M  V30 14869 H 1367.81 -2.36753 -3.32283 0
M  V30 14870 H 1366.48 -3.25544 -2.58831 0
M  V30 14871 H 1365.06 -1.59867 -3.36893 0
M  V30 14872 N 1367.24 0.986894 -1.22875 0
M  V30 14873 C 1368.15 2.11232 -1.02069 0
M  V30 14874 C 1369.17 1.73969 0.0328424 0
M  V30 14875 O 1370.34 2.00754 -0.161197 0
M  V30 14876 C 1367.41 3.41337 -0.60747 0
M  V30 14877 C 1366.47 3.92665 -1.73531 0
M  V30 14878 C 1365.7 5.1656 -1.34171 0
M  V30 14879 O 1365.93 5.69964 -0.223106 0
M  V30 14880 O 1364.86 5.61791 -2.16041 0
M  V30 14881 H 1368.69 2.3167 -1.96374 0
M  V30 14882 H 1366.27 1.09607 -1.01522 0
M  V30 14883 H 1368.15 4.19613 -0.387661 0
M  V30 14884 H 1366.83 3.22244 0.306653 0
M  V30 14885 H 1365.74 3.15534 -2.0097 0
M  V30 14886 H 1367.07 4.162 -2.62751 0
M  V30 14887 N 1368.72 1.0394 1.18466 0
M  V30 14888 C 1369.63 0.639714 2.2571 0
M  V30 14889 C 1370.65 -0.333431 1.70775 0
M  V30 14890 O 1371.82 -0.188676 2.00514 0
M  V30 14891 C 1368.89 0.007559 3.46699 0
M  V30 14892 C 1367.95 1.02955 4.16772 0
M  V30 14893 C 1367.18 0.427464 5.31985 0
M  V30 14894 O 1367.4 -0.766684 5.65224 0
M  V30 14895 O 1366.34 1.15553 5.90704 0
M  V30 14896 H 1370.16 1.53316 2.6216 0
M  V30 14897 H 1367.75 0.810206 1.25523 0
M  V30 14898 H 1369.63 -0.344404 4.1999 0
M  V30 14899 H 1368.31 -0.859727 3.12074 0
M  V30 14900 H 1367.21 1.43328 3.45554 0
M  V30 14901 H 1368.55 1.86756 4.55393 0
M  V30 14902 N 1370.2 -1.34667 0.818693 0
M  V30 14903 C 1371.15 -2.29595 0.235551 0
M  V30 14904 C 1372.12 -1.53389 -0.63727 0
M  V30 14905 O 1373.3 -1.81777 -0.579804 0
M  V30 14906 C 1370.44 -3.39843 -0.600043 0
M  V30 14907 C 1369.55 -4.30995 0.294553 0
M  V30 14908 C 1368.69 -5.28343 -0.550203 0
M  V30 14909 C 1367.73 -6.11132 0.344043 0
M  V30 14910 N 1366.86 -7.00582 -0.461392 0
M  V30 14911 H 1371.7 -2.78872 1.05044 0
M  V30 14912 H 1369.24 -1.37239 0.529517 0
M  V30 14913 H 1371.2 -4.02443 -1.09978 0
M  V30 14914 H 1369.83 -2.91811 -1.38008 0
M  V30 14915 H 1368.88 -3.69294 0.912483 0
M  V30 14916 H 1370.19 -4.89031 0.982341 0
M  V30 14917 H 1369.35 -5.96374 -1.11459 0
M  V30 14918 H 1368.09 -4.70833 -1.27151 0
M  V30 14919 H 1367.09 -5.42038 0.920608 0
M  V30 14920 H 1368.32 -6.70722 1.0634 0
M  V30 14921 H 1366.26 -6.45546 -1.16645 0
M  V30 14922 H 1366.18 -7.55813 0.168095 0
M  V30 14923 H 1367.45 -7.72946 -1.00867 0
M  V30 14924 N 1371.68 -0.573274 -1.46804 0
M  V30 14925 C 1372.59 0.168081 -2.33997 0
M  V30 14926 C 1373.6 0.895652 -1.49178 0
M  V30 14927 O 1374.78 0.860951 -1.8207 0
M  V30 14928 C 1371.84 1.17483 -3.26188 0
M  V30 14929 C 1370.9 0.452956 -4.26904 0
M  V30 14930 C 1370.14 1.41175 -5.1469 0
M  V30 14931 O 1370.36 2.64767 -5.05227 0
M  V30 14932 O 1369.29 0.927472 -5.94711 0
M  V30 14933 H 1373.12 -0.547576 -2.98723 0
M  V30 14934 H 1370.71 -0.333747 -1.45624 0
M  V30 14935 H 1372.59 1.75557 -3.8309 0
M  V30 14936 H 1371.26 1.87213 -2.6407 0
M  V30 14937 H 1370.17 -0.169383 -3.73716 0
M  V30 14938 H 1371.5 -0.203186 -4.9178 0
M  V30 14939 N 1373.15 1.5451 -0.310553 0
M  V30 14940 C 1374.38 2.04739 0.29824 0
M  V30 14941 C 1374.8 1.18737 1.46788 0
M  V30 14942 O 1374.15 0.215114 1.81228 0
M  V30 14943 C 1374.21 3.53734 0.745274 0
M  V30 14944 O 1373.93 4.36468 -0.377826 0
M  V30 14945 C 1375.43 4.20001 1.41823 0
M  V30 14946 H 1372.65 0.667997 0.0634159 0
M  V30 14947 H 1375.19 1.9942 -0.452961 0
M  V30 14948 H 1373.35 3.59383 1.44648 0
M  V30 14949 H 1373.76 5.24492 -0.0280567 0
M  V30 14950 H 1375.23 5.25747 1.68209 0
M  V30 14951 H 1375.71 3.70319 2.36137 0
M  V30 14952 H 1376.32 4.18455 0.759951 0
M  V30 14953 N 1374.63 0.0384594 1.57553 0
M  V30 14954 C 1375.58 -0.940256 2.10779 0
M  V30 14955 C 1376.55 -1.31705 1.01208 0
M  V30 14956 O 1377.74 -1.40874 1.28683 0
M  V30 14957 C 1374.88 -2.21419 2.64703 0
M  V30 14958 C 1373.99 -1.89302 3.88315 0
M  V30 14959 C 1373.12 -3.1106 4.30599 0
M  V30 14960 C 1372.16 -2.74805 5.46945 0
M  V30 14961 N 1371.3 -3.89217 5.84341 0
M  V30 14962 H 1376.14 -0.479458 2.94118 0
M  V30 14963 H 1373.68 -0.22505 1.45368 0
M  V30 14964 H 1375.63 -2.95946 2.94061 0
M  V30 14965 H 1374.26 -2.65099 1.84181 0
M  V30 14966 H 1373.32 -1.04977 3.65628 0
M  V30 14967 H 1374.63 -1.58607 4.72912 0
M  V30 14968 H 1373.78 -3.93898 4.61442 0
M  V30 14969 H 1372.52 -3.44924 3.44788 0
M  V30 14970 H 1371.53 -1.9038 5.15786 0
M  V30 14971 H 1372.75 -2.42147 6.34462 0
M  V30 14972 H 1370.7 -4.22905 5.01485 0
M  V30 14973 H 1370.61 -3.62177 6.63599 0
M  V30 14974 H 1371.88 -4.72732 6.19794 0
M  V30 14975 N 1376.11 -1.55841 -0.234795 0
M  V30 14976 C 1377.02 -1.94476 -1.31211 0
M  V30 14977 C 1378.04 -0.846782 -1.52005 0
M  V30 14978 O 1379.21 -1.14922 -1.65393 0
M  V30 14979 C 1376.28 -2.24213 -2.64442 0
M  V30 14980 C 1375.34 -3.47508 -2.52065 0
M  V30 14981 C 1374.57 -3.75817 -3.78942 0
M  V30 14982 O 1374.8 -3.06007 -4.81369 0
M  V30 14983 O 1373.73 -4.69328 -3.76848 0
M  V30 14984 H 1377.56 -2.8626 -1.01434 0
M  V30 14985 H 1375.14 -1.42879 -0.436563 0
M  V30 14986 H 1377.02 -2.44594 -3.4315 0
M  V30 14987 H 1375.7 -1.35605 -2.93927 0
M  V30 14988 H 1374.6 -3.32421 -1.71602 0
M  V30 14989 H 1375.94 -4.36457 -2.27523 0
M  V30 14990 N 1377.59 0.500963 -1.49426 0
M  V30 14991 C 1378.82 1.27911 -1.62624 0
M  V30 14992 C 1379.23 1.86439 -0.297651 0
M  V30 14993 O 1378.59 1.67831 0.716879 0
M  V30 14994 C 1378.64 2.40934 -2.69505 0
M  V30 14995 O 1378.36 1.84811 -3.97211 0
M  V30 14996 C 1379.86 3.32305 -2.93408 0
M  V30 14997 H 1377.08 0.387951 -0.547481 0
M  V30 14998 H 1379.63 0.601372 -1.95458 0
M  V30 14999 H 1377.78 3.04537 -2.39449 0
M  V30 15000 H 1378.2 2.59011 -4.56085 0
M  V30 15001 H 1379.67 4.0789 -3.71927 0
M  V30 15002 H 1380.15 3.89301 -2.03325 0
M  V30 15003 H 1380.75 2.74467 -3.24881 0
M  V30 15004 N 1379.07 1.38501 0.752011 0
M  V30 15005 C 1380 1.31746 1.87551 0
M  V30 15006 C 1381.01 0.229386 1.61176 0
M  V30 15007 O 1382.2 0.487066 1.71726 0
M  V30 15008 C 1379.3 1.01889 3.23221 0
M  V30 15009 C 1378.47 2.21637 3.77088 0
M  V30 15010 C 1377.53 1.885 4.91278 0
M  V30 15011 O 1376.56 2.61011 5.05828 0
M  V30 15012 N 1377.76 0.840909 5.74377 0
M  V30 15013 H 1380.53 2.28561 1.93856 0
M  V30 15014 H 1378.09 1.32383 0.932013 0
M  V30 15015 H 1380.08 0.777704 3.97157 0
M  V30 15016 H 1378.65 0.138658 3.12292 0
M  V30 15017 H 1377.87 2.61812 2.947 0
M  V30 15018 H 1379.16 3.01551 4.0981 0
M  V30 15019 H 1378.56 0.23962 5.65192 0
M  V30 15020 H 1377.11 0.659604 6.48454 0
M  V30 15021 N 1380.55 -0.980364 1.23396 0
M  V30 15022 C 1381.77 -1.76223 1.09363 0
M  V30 15023 C 1382.2 -1.84801 -0.350759 0
M  V30 15024 O 1381.55 -1.30966 -1.2537 0
M  V30 15025 C 1381.6 -3.16728 1.72383 0
M  V30 15026 O 1380.71 -4.00439 0.986002 0
M  V30 15027 H 1380.05 -0.542174 0.383332 0
M  V30 15028 H 1382.58 -1.23066 1.6345 0
M  V30 15029 H 1382.59 -3.67307 1.77623 0
M  V30 15030 H 1381.26 -3.098 2.77483 0
M  V30 15031 H 1379.84 -3.58946 1.01054 0
M  V30 15032 N 1382.02 -1.04567 -1.17913 0
M  V30 15033 C 1382.99 -0.645476 -2.19923 0
M  V30 15034 C 1383.99 0.299763 -1.57981 0
M  V30 15035 O 1385.18 0.0844825 -1.73995 0
M  V30 15036 C 1382.31 0.0528935 -3.40859 0
M  V30 15037 H 1383.5 -1.54828 -2.56843 0
M  V30 15038 H 1381.05 -0.838812 -1.31885 0
M  V30 15039 H 1381.79 0.969261 -3.09477 0
M  V30 15040 H 1381.57 -0.626558 -3.87062 0
M  V30 15041 H 1383.06 0.319221 -4.16378 0
M  V30 15042 N 1383.5 1.34231 -0.825823 0
M  V30 15043 C 1384.78 1.92662 -0.337743 0
M  V30 15044 C 1385.16 1.75358 1.17529 0
M  V30 15045 O 1384.51 1.13405 1.98372 0
M  V30 15046 C 1384.72 3.40394 -0.770269 0
M  V30 15047 C 1386.06 4.17546 -0.770767 0
M  V30 15048 O 1387.09 3.4899 -0.713035 0
M  V30 15049 O 1385.95 5.39903 -0.846602 0
M  V30 15050 H 1383.04 0.821768 -0.0928741 0
M  V30 15051 H 1385.59 1.43187 -0.910807 0
M  V30 15052 H 1384.36 3.46802 -1.81228 0
M  V30 15053 H 1383.98 3.97223 -0.17306 0
M  V30 15054 N 1384.98 0.581051 1.46498 0
M  V30 15055 C 1386.4 0.242599 1.57745 0
M  V30 15056 C 1386.6 -1.25508 1.57639 0
M  V30 15057 O 1385.65 -2.0367 1.49247 0
M  V30 15058 C 1386.96 0.890342 2.87217 0
M  V30 15059 C 1388.51 0.863778 3.00845 0
M  V30 15060 C 1388.99 1.49103 4.3305 0
M  V30 15061 N 1390.48 1.4553 4.39745 0
M  V30 15062 C 1391.21 1.91003 5.40653 0
M  V30 15063 N 1390.71 2.44442 6.48244 0
M  V30 15064 N 1392.5 1.8193 5.31844 0
M  V30 15065 H 1384.65 1.55382 1.44811 0
M  V30 15066 H 1386.92 0.649375 0.690664 0
M  V30 15067 H 1386.62 1.94383 2.93101 0
M  V30 15068 H 1386.5 0.397569 3.75099 0
M  V30 15069 H 1388.88 -0.181089 2.94544 0
M  V30 15070 H 1388.96 1.39455 2.14443 0
M  V30 15071 H 1388.61 2.53509 4.40109 0
M  V30 15072 H 1388.54 0.935496 5.18224 0
M  V30 15073 H 1391.03 1.06466 3.62593 0
M  V30 15074 H 1391.34 2.77002 7.2145 0
M  V30 15075 H 1389.69 2.48467 6.49068 0
M  V30 15076 H 1392.88 1.3994 4.46693 0
M  V30 15077 H 1393.05 2.17685 6.10342 0
M  V30 15078 N 1386.46 -1.54343 0.318742 0
M  V30 15079 C 1387.71 -1.9966 -0.286146 0
M  V30 15080 C 1388.02 -1.21073 -1.53625 0
M  V30 15081 O 1389.23 -1.56744 -2.21684 0
M  V30 15082 C 1387.68 -3.5551 -0.560405 0
M  V30 15083 C 1387.29 -4.42926 0.672373 0
M  V30 15084 C 1389.03 -4.09307 -1.12551 0
M  V30 15085 C 1386.94 -5.9024 0.370285 0
M  V30 15086 H 1385.87 -0.74583 -0.110698 0
M  V30 15087 H 1388.52 -1.78386 0.430215 0
M  V30 15088 H 1386.9 -3.72753 -1.33683 0
M  V30 15089 H 1388.08 -4.37458 1.448 0
M  V30 15090 H 1386.39 -3.99993 1.15736 0
M  V30 15091 H 1388.99 -5.16955 -1.36607 0
M  V30 15092 H 1389.33 -3.60994 -2.07338 0
M  V30 15093 H 1389.87 -3.95677 -0.410385 0
M  V30 15094 H 1386.6 -6.42738 1.28719 0
M  V30 15095 H 1386.12 -5.98672 -0.367731 0
M  V30 15096 H 1387.8 -6.46996 -0.0216582 0
M  V30 15097 N 1387.94 -0.0468143 -1.5753 0
M  V30 15098 C 1389.16 0.637648 -1.96829 0
M  V30 15099 C 1389.58 1.64635 -0.924158 0
M  V30 15100 O 1388.94 1.82267 0.0921139 0
M  V30 15101 C 1388.99 1.32842 -3.36207 0
M  V30 15102 O 1388.71 0.360111 -4.36617 0
M  V30 15103 C 1390.21 2.10305 -3.90239 0
M  V30 15104 H 1387.43 0.174634 -0.647876 0
M  V30 15105 H 1389.97 -0.111824 -2.04194 0
M  V30 15106 H 1388.13 2.02915 -3.30006 0
M  V30 15107 H 1388.54 0.852661 -5.17523 0
M  V30 15108 H 1390.02 2.54065 -4.90056 0
M  V30 15109 H 1390.49 2.94942 -3.25432 0
M  V30 15110 H 1391.1 1.45152 -3.99764 0
M  V30 15111 N 1389.41 1.55964 0.226527 0
M  V30 15112 C 1390.66 1.77944 0.94967 0
M  V30 15113 C 1390.98 0.614478 1.85697 0
M  V30 15114 O 1392.18 0.717793 2.6184 0
M  V30 15115 C 1390.64 3.15108 1.73881 0
M  V30 15116 C 1390.25 4.39314 0.877894 0
M  V30 15117 C 1391.99 3.46418 2.45347 0
M  V30 15118 C 1389.9 5.67505 1.6641 0
M  V30 15119 H 1388.83 0.663412 0.35833 0
M  V30 15120 H 1391.48 1.82366 0.203695 0
M  V30 15121 H 1389.86 3.04849 2.52751 0
M  V30 15122 H 1391.03 4.60616 0.130089 0
M  V30 15123 H 1389.35 4.15487 0.2756 0
M  V30 15124 H 1391.95 4.39416 3.0466 0
M  V30 15125 H 1392.29 2.68685 3.17985 0
M  V30 15126 H 1392.82 3.57984 1.73471 0
M  V30 15127 H 1389.56 6.48116 0.981089 0
M  V30 15128 H 1389.08 5.50272 2.38665 0
M  V30 15129 H 1390.76 6.075 2.22605 0
M  V30 15130 N 1390.89 -0.493031 1.4969 0
M  V30 15131 C 1391.82 -1.61058 1.63074 0
M  V30 15132 C 1392.84 -1.54504 0.513069 0
M  V30 15133 O 1394.03 -1.60291 0.785431 0
M  V30 15134 C 1391.13 -2.99877 1.57883 0
M  V30 15135 C 1390.3 -3.31531 2.85317 0
M  V30 15136 C 1389.36 -4.49799 2.7307 0
M  V30 15137 O 1388.38 -4.51189 3.47012 0
M  V30 15138 N 1389.59 -5.50182 1.85148 0
M  V30 15139 H 1392.35 -1.5 2.59461 0
M  V30 15140 H 1389.91 -0.681057 1.46878 0
M  V30 15141 H 1391.9 -3.76928 1.47333 0
M  V30 15142 H 1390.47 -3.04817 0.693218 0
M  V30 15143 H 1389.69 -2.433 3.10159 0
M  V30 15144 H 1390.98 -3.49481 3.69784 0
M  V30 15145 H 1390.38 -5.51865 1.24345 0
M  V30 15146 H 1388.94 -6.26305 1.80516 0
M  V30 15147 N 1392.37 -1.38898 -0.744656 0
M  V30 15148 C 1393.28 -1.39098 -1.88915 0
M  V30 15149 C 1394.3 -0.286956 -1.71617 0
M  V30 15150 O 1395.47 -0.526852 -1.94387 0
M  V30 15151 C 1392.54 -1.22352 -3.24393 0
M  V30 15152 C 1391.6 -2.4264 -3.54153 0
M  V30 15153 C 1390.83 -2.26683 -4.83167 0
M  V30 15154 O 1391.05 -1.26523 -5.56191 0
M  V30 15155 O 1389.99 -3.15464 -5.12607 0
M  V30 15156 H 1393.81 -2.35551 -1.91701 0
M  V30 15157 H 1391.4 -1.19911 -0.891158 0
M  V30 15158 H 1393.28 -1.15109 -4.05374 0
M  V30 15159 H 1391.96 -0.289886 -3.22399 0
M  V30 15160 H 1390.86 -2.55459 -2.73298 0
M  V30 15161 H 1392.2 -3.34664 -3.60917 0
M  V30 15162 N 1393.85 0.973806 -1.23914 0
M  V30 15163 C 1394.8 2.08861 -1.02372 0
M  V30 15164 C 1395.79 1.69354 0.039415 0
M  V30 15165 O 1397 1.79635 -0.114637 0
M  V30 15166 H 1393.37 0.683313 -0.313986 0
M  V30 15167 H 1395.34 2.24195 -1.96924 0
M  V30 15168 C 1394.09 3.41784 -0.638661 0
M  V30 15169 H 1393.41 3.72639 -1.44846 0
M  V30 15170 H 1394.85 4.20706 -0.527487 0
M  V30 15171 C 1393.31 3.30497 0.65369 0
M  V30 15172 O 1393.84 3.63905 1.70107 0
M  V30 15173 N 1392.05 2.83642 0.632104 0
M  V30 15174 H 1391.6 2.56654 -0.220571 0
M  V30 15175 H 1391.55 2.76472 1.49701 0
M  V30 15176 N 1395.33 1.05191 1.17357 0
M  V30 15177 C 1396.24 0.663617 2.25018 0
M  V30 15178 C 1397.25 -0.315299 1.71119 0
M  V30 15179 O 1398.43 -0.167398 2.00703 0
M  V30 15180 C 1395.49 0.0443307 3.46672 0
M  V30 15181 C 1394.55 1.07369 4.15656 0
M  V30 15182 C 1393.79 0.483864 5.31502 0
M  V30 15183 O 1394.01 -0.706692 5.66005 0
M  V30 15184 O 1392.94 1.21812 5.89445 0
M  V30 15185 H 1396.77 1.56088 2.60519 0
M  V30 15186 H 1394.36 0.823474 1.24657 0
M  V30 15187 H 1396.24 -0.299839 4.20332 0
M  V30 15188 H 1394.91 -0.826579 3.12969 0
M  V30 15189 H 1393.82 1.46985 3.44015 0
M  V30 15190 H 1395.15 1.91575 4.53387 0
M  V30 15191 N 1396.8 -1.33791 0.83293 0
M  V30 15192 C 1398.05 -1.98266 0.426412 0
M  V30 15193 C 1398.38 -1.65848 -1.01035 0
M  V30 15194 O 1397.66 -0.93528 -1.70537 0
M  V30 15195 C 1397.94 -3.54356 0.640586 0
M  V30 15196 C 1397.79 -3.96482 2.12419 0
M  V30 15197 C 1399.11 -4.40022 0.0829237 0
M  V30 15198 H 1396.23 -0.720213 0.156404 0
M  V30 15199 H 1398.87 -1.58527 1.04735 0
M  V30 15200 H 1397.02 -3.88338 0.11204 0
M  V30 15201 H 1398.7 -3.72786 2.71714 0
M  V30 15202 H 1396.94 -3.46429 2.61092 0
M  V30 15203 H 1397.61 -5.05179 2.22482 0
M  V30 15204 H 1400.09 -4.12651 0.534634 0
M  V30 15205 H 1398.96 -5.48272 0.262511 0
M  V30 15206 H 1399.22 -4.30341 -1.01287 0
M  V30 15207 N 1398.28 -0.588812 -1.46187 0
M  V30 15208 C 1399.51 -0.0806571 -2.07243 0
M  V30 15209 C 1399.93 1.21766 -1.43369 0
M  V30 15210 O 1399.29 1.73694 -0.51964 0
M  V30 15211 C 1399.34 0.065267 -3.60541 0
M  V30 15212 O 1398.44 1.12026 -3.96893 0
M  V30 15213 H 1397.78 -0.0655622 -0.660755 0
M  V30 15214 H 1400.31 -0.813489 -1.87733 0
M  V30 15215 H 1400.32 0.269494 -4.07109 0
M  V30 15216 H 1399 -0.88284 -4.06422 0
M  V30 15217 H 1397.58 0.894 -3.62025 0
M  V30 15218 N 1399.76 1.54172 -0.326923 0
M  V30 15219 C 1400.67 2.28149 0.546351 0
M  V30 15220 C 1401.69 1.32628 1.12631 0
M  V30 15221 O 1402.86 1.65647 1.14556 0
M  V30 15222 C 1399.93 3.02742 1.68962 0
M  V30 15223 C 1398.99 4.13856 1.14112 0
M  V30 15224 C 1398.22 4.84882 2.2299 0
M  V30 15225 O 1398.44 4.55448 3.43399 0
M  V30 15226 O 1397.38 5.71714 1.8822 0
M  V30 15227 H 1401.2 3.03651 -0.0545288 0
M  V30 15228 H 1398.79 1.49113 -0.0925027 0
M  V30 15229 H 1400.67 3.49443 2.35515 0
M  V30 15230 H 1399.35 2.30113 2.27662 0
M  V30 15231 H 1398.25 3.71497 0.440579 0
M  V30 15232 H 1399.59 4.88539 0.599211 0
M  V30 15233 N 1401.24 0.0551678 1.57503 0
M  V30 15234 C 1402.52 -0.657808 1.84207 0
M  V30 15235 C 1402.9 -1.88798 0.944372 0
M  V30 15236 O 1402.24 -2.28499 0.00641728 0
M  V30 15237 C 1402.45 -1.0113 3.34026 0
M  V30 15238 C 1403.8 -1.39189 4.01138 0
M  V30 15239 O 1404.83 -1.10353 3.38675 0
M  V30 15240 O 1403.68 -1.93023 5.11277 0
M  V30 15241 H 1400.78 -0.325084 0.760427 0
M  V30 15242 H 1403.32 0.0848352 1.69488 0
M  V30 15243 H 1402.1 -0.13688 3.91061 0
M  V30 15244 H 1401.72 -1.81126 3.53948 0
M  V30 15245 N 1402.72 -1.56081 -0.218252 0
M  V30 15246 C 1403.96 -1.78893 -0.940296 0
M  V30 15247 C 1404.29 -0.62425 -1.84738 0
M  V30 15248 O 1403.56 0.358686 -1.92588 0
M  V30 15249 H 1402.14 -0.659828 -0.350193 0
M  V30 15250 H 1404.8 -1.93546 -0.229316 0
M  V30 15251 H 1403.89 -2.71167 -1.54516 0
M  V30 15252 N 1404.2 0.485086 -1.49949 0
M  V30 15253 C 1405.44 1.23999 -1.60474 0
M  V30 15254 C 1405.77 1.91904 -0.297736 0
M  V30 15255 O 1405.05 1.81472 0.699857 0
M  V30 15256 C 1405.33 2.2946 -2.77525 0
M  V30 15257 C 1405.19 1.65952 -4.18067 0
M  V30 15258 C 1406.5 3.30893 -2.90169 0
M  V30 15259 H 1403.62 0.449462 -0.584083 0
M  V30 15260 H 1406.27 0.535795 -1.82289 0
M  V30 15261 H 1404.42 2.89521 -2.59056 0
M  V30 15262 H 1406.09 1.09596 -4.48092 0
M  V30 15263 H 1404.33 0.963079 -4.22974 0
M  V30 15264 H 1405 2.42521 -4.9587 0
M  V30 15265 H 1407.48 2.8084 -3.07031 0
M  V30 15266 H 1406.35 4.02027 -3.73718 0
M  V30 15267 H 1406.61 3.94178 -2.0019 0
M  V30 15268 N 1405.67 1.39291 0.737279 0
M  V30 15269 C 1406.9 1.39844 1.53162 0
M  V30 15270 C 1407.32 -0.00568546 1.88099 0
M  V30 15271 O 1406.68 -0.992085 1.51748 0
M  V30 15272 C 1406.73 2.27577 2.79716 0
M  V30 15273 O 1405.83 1.70408 3.75546 0
M  V30 15274 H 1405.17 0.476314 0.462624 0
M  V30 15275 H 1407.7 1.83258 0.909819 0
M  V30 15276 H 1407.71 2.42009 3.28475 0
M  V30 15277 H 1406.39 3.29621 2.53619 0
M  V30 15278 H 1404.97 1.65206 3.34307 0
M  V30 15279 N 1407.15 -0.967221 1.24429 0
M  V30 15280 C 1408.38 -1.75053 1.11226 0
M  V30 15281 C 1408.8 -1.85162 -0.331139 0
M  V30 15282 O 1408.16 -1.32288 -1.23974 0
M  V30 15283 C 1408.21 -3.14882 1.75733 0
M  V30 15284 O 1407.31 -3.99371 1.02842 0
M  V30 15285 H 1406.65 -0.538078 0.389061 0
M  V30 15286 H 1409.18 -1.21325 1.64746 0
M  V30 15287 H 1409.19 -3.65402 1.81509 0
M  V30 15288 H 1407.87 -3.06839 2.80754 0
M  V30 15289 H 1406.44 -3.57854 1.04856 0
M  V30 15290 N 1408.63 -1.05812 -1.16797 0
M  V30 15291 C 1409.86 -0.792519 -1.9112 0
M  V30 15292 C 1410.27 0.652549 -1.77164 0
M  V30 15293 O 1409.63 1.44633 -1.113 0
M  V30 15294 C 1409.68 -1.17172 -3.41984 0
M  V30 15295 O 1409.4 -2.56008 -3.55516 0
M  V30 15296 C 1410.9 -0.933162 -4.33367 0
M  V30 15297 H 1408.12 -0.28768 -0.606202 0
M  V30 15298 H 1410.67 -1.41046 -1.48075 0
M  V30 15299 H 1408.82 -0.598413 -3.8275 0
M  V30 15300 H 1409.24 -2.71053 -4.49033 0
M  V30 15301 H 1410.71 -1.24817 -5.37703 0
M  V30 15302 H 1411.19 0.131345 -4.39004 0
M  V30 15303 H 1411.79 -1.49062 -3.98322 0
M  V30 15304 N 1410.11 1.33347 -0.840014 0
M  V30 15305 C 1411.35 1.98037 -0.43692 0
M  V30 15306 C 1411.69 1.66382 1.00154 0
M  V30 15307 O 1410.96 0.944311 1.70038 0
M  V30 15308 C 1411.24 3.54012 -0.65937 0
M  V30 15309 C 1411.1 3.9535 -2.14518 0
M  V30 15310 C 1412.42 4.39972 -0.106258 0
M  V30 15311 H 1409.54 0.719373 -0.160221 0
M  V30 15312 H 1412.18 1.57969 -1.05574 0
M  V30 15313 H 1410.33 3.88274 -0.132633 0
M  V30 15314 H 1412 3.7134 -2.73687 0
M  V30 15315 H 1410.24 3.4504 -2.62926 0
M  V30 15316 H 1410.91 5.03992 -2.25158 0
M  V30 15317 H 1413.39 4.12362 -0.556511 0
M  V30 15318 H 1412.27 5.48125 -0.291583 0
M  V30 15319 H 1412.53 4.30872 0.990032 0
M  V30 15320 N 1411.59 0.596556 1.45873 0
M  V30 15321 C 1412.86 0.0199562 1.9559 0
M  V30 15322 C 1413.24 -1.44479 1.53912 0
M  V30 15323 O 1412.59 -2.14173 0.796384 0
M  V30 15324 C 1412.8 0.206497 3.48389 0
M  V30 15325 C 1414.15 0.0815298 4.24522 0
M  V30 15326 O 1415.17 0.136045 3.5594 0
M  V30 15327 O 1414.03 -0.0426117 5.46483 0
M  V30 15328 H 1411.13 -0.0419913 0.825933 0
M  V30 15329 H 1413.67 0.665846 1.56092 0
M  V30 15330 H 1412.44 1.22422 3.71656 0
M  V30 15331 H 1412.07 -0.475175 3.9475 0
M  V30 15332 N 1413.06 -1.53996 0.335095 0
M  V30 15333 C 1414 -2.22258 -0.559809 0
M  V30 15334 C 1415.01 -1.22636 -1.07071 0
M  V30 15335 O 1416.2 -1.4904 -0.982312 0
M  V30 15336 C 1413.3 -2.88256 -1.78218 0
M  V30 15337 C 1412.47 -4.14118 -1.40801 0
M  V30 15338 C 1411.53 -4.63603 -2.48915 0
M  V30 15339 O 1410.56 -5.28015 -2.12576 0
M  V30 15340 N 1411.76 -4.3881 -3.80034 0
M  V30 15341 H 1414.52 -2.9969 0.0247521 0
M  V30 15342 H 1412.08 -1.61119 0.158826 0
M  V30 15343 H 1414.08 -3.1828 -2.4996 0
M  V30 15344 H 1412.65 -2.14461 -2.27431 0
M  V30 15345 H 1411.87 -3.90732 -0.521729 0
M  V30 15346 H 1413.15 -4.96005 -1.13388 0
M  V30 15347 H 1412.55 -3.87278 -4.12349 0
M  V30 15348 H 1411.11 -4.73461 -4.47971 0
M  V30 15349 N 1414.54 -0.0635198 -1.57472 0
M  V30 15350 C 1415.47 0.90431 -2.15278 0
M  V30 15351 C 1416.45 1.31609 -1.07764 0
M  V30 15352 O 1417.64 1.38861 -1.35762 0
M  V30 15353 C 1414.77 2.17483 -2.70774 0
M  V30 15354 C 1413.72 1.90272 -3.8338 0
M  V30 15355 C 1413.05 3.23885 -4.25444 0
M  V30 15356 C 1414.35 1.21454 -5.07983 0
M  V30 15357 H 1416.04 0.422786 -2.964 0
M  V30 15358 H 1413.59 0.201918 -1.42577 0
M  V30 15359 H 1415.54 2.856 -3.09856 0
M  V30 15360 H 1414.26 2.67863 -1.86861 0
M  V30 15361 H 1412.92 1.24564 -3.44789 0
M  V30 15362 H 1412.57 3.72089 -3.38465 0
M  V30 15363 H 1412.27 3.06472 -5.01347 0
M  V30 15364 H 1413.8 3.93212 -4.67137 0
M  V30 15365 H 1415.21 1.79625 -5.44433 0
M  V30 15366 H 1413.61 1.14327 -5.89109 0
M  V30 15367 H 1414.68 0.19238 -4.84518 0
M  V30 15368 N 1416.02 1.56195 0.209972 0
M  V30 15369 C 1417.24 1.84189 0.953364 0
M  V30 15370 C 1417.67 0.645288 1.76685 0
M  V30 15371 O 1417.03 -0.405962 1.76696 0
M  V30 15372 C 1417.08 3.10281 1.83733 0
M  V30 15373 O 1416.18 2.89788 2.93422 0
M  V30 15374 H 1415.52 0.606931 0.269314 0
M  V30 15375 H 1418.05 2.03416 0.219783 0
M  V30 15376 H 1418.06 3.40688 2.2449 0
M  V30 15377 H 1416.74 3.97 1.23951 0
M  V30 15378 H 1415.31 2.70643 2.56528 0
M  V30 15379 N 1417.5 -0.477127 1.50204 0
M  V30 15380 C 1418.77 -1.23837 1.51406 0
M  V30 15381 C 1419.15 -2.09551 0.255278 0
M  V30 15382 O 1418.5 -2.15437 -0.761535 0
M  V30 15383 C 1418.71 -2.0746 2.80644 0
M  V30 15384 C 1420.06 -2.65852 3.31071 0
M  V30 15385 O 1421.08 -2.17708 2.81925 0
M  V30 15386 O 1419.94 -3.53556 4.16726 0
M  V30 15387 H 1417.04 -0.561638 0.607036 0
M  V30 15388 H 1419.58 -0.489442 1.62489 0
M  V30 15389 H 1418.36 -1.44258 3.63738 0
M  V30 15390 H 1417.98 -2.895 2.72536 0
M  V30 15391 N 1418.98 -1.3968 -0.729882 0
M  V30 15392 C 1420.23 -1.36492 -1.48502 0
M  V30 15393 C 1420.54 0.0346572 -1.95569 0
M  V30 15394 O 1421.74 0.189135 -2.7084 0
M  V30 15395 C 1420.2 -2.39813 -2.68361 0
M  V30 15396 C 1419.81 -3.85511 -2.28222 0
M  V30 15397 C 1421.55 -2.45709 -3.46161 0
M  V30 15398 C 1419.46 -4.80462 -3.44834 0
M  V30 15399 H 1418.39 -0.507455 -0.557679 0
M  V30 15400 H 1421.04 -1.6535 -0.795708 0
M  V30 15401 H 1419.42 -2.04033 -3.39392 0
M  V30 15402 H 1420.6 -4.30359 -1.64704 0
M  V30 15403 H 1418.91 -3.82957 -1.63501 0
M  V30 15404 H 1421.51 -3.1384 -4.32907 0
M  V30 15405 H 1421.85 -1.48318 -3.88983 0
M  V30 15406 H 1422.38 -2.80409 -2.82163 0
M  V30 15407 H 1419.12 -5.79134 -3.07057 0
M  V30 15408 H 1418.64 -4.40289 -4.07315 0
M  V30 15409 H 1420.32 -4.99607 -4.11098 0
M  V30 15410 N 1420.45 0.960609 -1.2494 0
M  V30 15411 C 1421.4 2.04164 -1.01493 0
M  V30 15412 C 1422.39 1.60834 0.0461124 0
M  V30 15413 O 1423.58 1.76196 -0.168491 0
M  V30 15414 C 1420.71 3.37484 -0.629251 0
M  V30 15415 C 1419.8 3.87356 -1.72674 0
M  V30 15416 N 1420.19 4.10085 -2.9608 0
M  V30 15417 C 1418.48 4.16086 -1.60589 0
M  V30 15418 C 1419.19 4.51091 -3.67276 0
M  V30 15419 N 1418.16 4.56676 -2.9487 0
M  V30 15420 H 1421.96 2.19723 -1.95189 0
M  V30 15421 H 1419.48 1.14496 -1.15171 0
M  V30 15422 H 1421.47 4.14545 -0.442484 0
M  V30 15423 H 1420.13 3.23307 0.300446 0
M  V30 15424 H 1421.15 3.97331 -3.32187 0
M  V30 15425 H 1417.82 4.10804 -0.744725 0
M  V30 15426 H 1419.21 4.77031 -4.73172 0
M  V30 15427 N 1421.93 1.0643 1.16234 0
M  V30 15428 C 1423.18 0.77689 1.86138 0
M  V30 15429 C 1423.49 -0.699301 1.82672 0
M  V30 15430 O 1424.7 -1.10113 2.48168 0
M  V30 15431 C 1423.16 1.3396 3.3404 0
M  V30 15432 C 1422.76 2.84613 3.45976 0
M  V30 15433 C 1424.51 1.12979 4.09189 0
M  V30 15434 C 1422.42 3.34122 4.87972 0
M  V30 15435 H 1421.35 0.286936 0.697269 0
M  V30 15436 H 1424 1.28318 1.31174 0
M  V30 15437 H 1422.38 0.761073 3.88618 0
M  V30 15438 H 1423.55 3.48429 3.01552 0
M  V30 15439 H 1421.87 3.04277 2.84262 0
M  V30 15440 H 1424.46 1.47456 5.13966 0
M  V30 15441 H 1424.81 0.0682424 4.16244 0
M  V30 15442 H 1425.34 1.67418 3.60855 0
M  V30 15443 H 1422.08 4.39761 4.86097 0
M  V30 15444 H 1421.6 2.75055 5.33015 0
M  V30 15445 H 1423.28 3.29529 5.56794 0
M  V30 15446 N 1423.41 -1.329 0.847073 0
M  V30 15447 C 1424.32 -2.32815 0.288878 0
M  V30 15448 C 1425.34 -1.63715 -0.589363 0
M  V30 15449 O 1426.51 -1.9531 -0.491537 0
M  V30 15450 C 1423.58 -3.42778 -0.519988 0
M  V30 15451 C 1422.64 -4.27584 0.383496 0
M  V30 15452 C 1421.87 -5.32296 -0.386862 0
M  V30 15453 O 1422.09 -5.4698 -1.61768 0
M  V30 15454 O 1421.03 -6.01408 0.2434 0
M  V30 15455 H 1424.85 -2.82434 1.11647 0
M  V30 15456 H 1422.44 -1.36388 0.609807 0
M  V30 15457 H 1424.32 -4.09862 -0.979357 0
M  V30 15458 H 1423 -2.95362 -1.3245 0
M  V30 15459 H 1421.9 -3.63338 0.890879 0
M  V30 15460 H 1423.24 -4.78505 1.15299 0
M  V30 15461 N 1424.89 -0.604284 -1.45555 0
M  V30 15462 C 1426.3 -0.183613 -1.85795 0
M  V30 15463 C 1426.65 1.25869 -1.50504 0
M  V30 15464 O 1425.78 1.9539 -0.930148 0
M  V30 15465 C 1426.37 -0.326455 -3.37224 0
M  V30 15466 C 1424.93 0.0394987 -3.76379 0
M  V30 15467 C 1424.08 -0.65243 -2.69516 0
M  V30 15468 H 1427.03 -0.811173 -1.36403 0
M  V30 15469 H 1427.05 0.442258 -3.77921 0
M  V30 15470 H 1426.56 -1.37627 -3.62878 0
M  V30 15471 H 1424.66 1.08862 -3.56342 0
M  V30 15472 H 1424.77 -0.35185 -4.77806 0
M  V30 15473 H 1423.14 -0.0904148 -2.54539 0
M  V30 15474 H 1423.92 -1.70432 -2.98007 0
M  V30 15475 N 1426.37 1.53816 -0.343257 0
M  V30 15476 C 1427.61 2.00512 0.252845 0
M  V30 15477 C 1427.94 1.23274 1.51091 0
M  V30 15478 O 1427.21 0.339841 1.9293 0
M  V30 15479 H 1425.79 0.740751 0.0964202 0
M  V30 15480 H 1428.45 1.89288 -0.464347 0
M  V30 15481 H 1427.54 3.08142 0.495499 0
M  V30 15482 N 1427.84 0.0718701 1.57436 0
M  V30 15483 C 1429.07 -0.606253 1.97819 0
M  V30 15484 C 1429.49 -1.63144 0.950233 0
M  V30 15485 O 1428.84 -1.82391 -0.0631051 0
M  V30 15486 C 1428.9 -1.27476 3.38278 0
M  V30 15487 O 1428.62 -0.290603 4.37135 0
M  V30 15488 C 1430.12 -2.0407 3.93536 0
M  V30 15489 H 1427.34 -0.164305 0.650573 0
M  V30 15490 H 1429.88 0.144295 2.0399 0
M  V30 15491 H 1428.04 -1.97639 3.33193 0
M  V30 15492 H 1428.45 -0.77022 5.18814 0
M  V30 15493 H 1429.92 -2.46237 4.94036 0
M  V30 15494 H 1430.4 -2.89728 3.30083 0
M  V30 15495 H 1431.01 -1.38773 4.02022 0
M  V30 15496 N 1429.32 -1.56304 -0.201686 0
M  V30 15497 C 1430.27 -1.94901 -1.26949 0
M  V30 15498 C 1431.26 -0.833574 -1.47472 0
M  V30 15499 O 1432.47 -1.01854 -1.48411 0
M  V30 15500 H 1428.85 -0.619663 -0.426053 0
M  V30 15501 H 1430.82 -2.83964 -0.9169 0
M  V30 15502 C 1429.57 -2.29913 -2.60835 0
M  V30 15503 H 1428.89 -3.15268 -2.45858 0
M  V30 15504 H 1430.33 -2.60789 -3.34313 0
M  V30 15505 C 1428.79 -1.13136 -3.17335 0
M  V30 15506 O 1429.32 -0.402915 -3.99674 0
M  V30 15507 N 1427.52 -0.909912 -2.75987 0
M  V30 15508 H 1427.07 -1.50402 -2.09134 0
M  V30 15509 H 1427.03 -0.130348 -3.1413 0
M  V30 15510 N 1430.8 0.469154 -1.50455 0
M  V30 15511 C 1432.08 1.23033 -1.5206 0
M  V30 15512 C 1432.46 2.09412 -0.266388 0
M  V30 15513 O 1431.81 2.15837 0.750099 0
M  V30 15514 C 1432.02 2.05969 -2.81741 0
M  V30 15515 C 1433.36 2.64093 -3.32476 0
M  V30 15516 O 1434.39 2.1621 -2.83075 0
M  V30 15517 O 1433.25 3.51341 -4.18595 0
M  V30 15518 H 1430.34 0.55841 -0.610006 0
M  V30 15519 H 1432.89 0.480818 -1.62746 0
M  V30 15520 H 1431.66 1.42327 -3.64498 0
M  V30 15521 H 1431.28 2.8805 -2.74067 0
M  V30 15522 N 1432.28 1.40065 0.722464 0
M  V30 15523 C 1433.5 1.4146 1.5167 0
M  V30 15524 C 1433.93 0.0142653 1.88095 0
M  V30 15525 O 1433.29 -0.975934 1.52791 0
M  V30 15526 C 1433.33 2.30531 2.77287 0
M  V30 15527 O 1432.44 1.74382 3.73717 0
M  V30 15528 H 1431.78 0.481194 0.457546 0
M  V30 15529 H 1434.31 1.84213 0.890331 0
M  V30 15530 H 1434.32 2.45479 3.25889 0
M  V30 15531 H 1432.99 3.32292 2.50109 0
M  V30 15532 H 1431.57 1.68743 3.32536 0
M  V30 15533 N 1433.76 -0.95397 1.25448 0
M  V30 15534 C 1434.69 -2.05412 1.01679 0
M  V30 15535 C 1435.7 -1.62789 -0.0184932 0
M  V30 15536 O 1436.89 -1.77137 0.220136 0
M  V30 15537 C 1433.99 -3.3496 0.515292 0
M  V30 15538 C 1433.16 -4.06418 1.61688 0
M  V30 15539 C 1432.22 -5.14237 1.11564 0
M  V30 15540 O 1431.25 -5.39649 1.81017 0
M  V30 15541 N 1432.45 -5.80484 -0.0427228 0
M  V30 15542 H 1435.22 -2.26372 1.96407 0
M  V30 15543 H 1432.78 -1.12257 1.16662 0
M  V30 15544 H 1434.77 -4.04366 0.164426 0
M  V30 15545 H 1433.34 -3.10767 -0.33807 0
M  V30 15546 H 1432.56 -3.31101 2.1393 0
M  V30 15547 H 1433.85 -4.50917 2.35693 0
M  V30 15548 H 1433.25 -5.62259 -0.623038 0
M  V30 15549 H 1431.8 -6.50941 -0.334615 0
M  V30 15550 N 1435.24 -1.07045 -1.15668 0
M  V30 15551 C 1436.19 -0.65786 -2.18303 0
M  V30 15552 C 1437.17 0.315405 -1.57778 0
M  V30 15553 O 1438.36 0.129631 -1.76525 0
M  V30 15554 C 1435.49 -0.0538843 -3.43258 0
M  V30 15555 C 1434.58 -1.0521 -4.10843 0
M  V30 15556 N 1434.97 -2.23051 -4.53963 0
M  V30 15557 C 1433.27 -0.884739 -4.37137 0
M  V30 15558 C 1433.97 -2.86354 -5.06336 0
M  V30 15559 N 1432.94 -2.14037 -4.99689 0
M  V30 15560 H 1436.74 -1.55542 -2.49367 0
M  V30 15561 H 1434.26 -0.9432 -1.32202 0
M  V30 15562 H 1436.26 0.259575 -4.16091 0
M  V30 15563 H 1434.92 0.83883 -3.13678 0
M  V30 15564 H 1435.93 -2.60786 -4.4745 0
M  V30 15565 H 1432.6 -0.0446575 -4.17476 0
M  V30 15566 H 1433.99 -3.86393 -5.49682 0
M  V30 15567 N 1436.71 1.32449 -0.85411 0
M  V30 15568 C 1437.94 2.01997 -0.470307 0
M  V30 15569 C 1438.36 1.63772 0.925225 0
M  V30 15570 O 1437.72 0.838089 1.60766 0
M  V30 15571 C 1437.77 3.55294 -0.616301 0
M  V30 15572 O 1436.87 4.10902 0.351133 0
M  V30 15573 H 1436.21 0.63651 -0.189079 0
M  V30 15574 H 1438.74 1.69008 -1.15315 0
M  V30 15575 H 1438.75 4.0488 -0.503624 0
M  V30 15576 H 1437.43 3.82459 -1.63396 0
M  V30 15577 H 1436.01 3.72391 0.194741 0
M  V30 15578 N 1438.19 0.611994 1.45232 0
M  V30 15579 C 1439.14 -0.104265 2.30564 0
M  V30 15580 C 1440.11 -0.855676 1.42364 0
M  V30 15581 O 1441.29 -0.840534 1.71288 0
M  V30 15582 C 1438.43 -1.09274 3.27343 0
M  V30 15583 C 1437.55 -0.341747 4.30646 0
M  V30 15584 C 1436.68 -1.32034 5.14529 0
M  V30 15585 C 1435.72 -0.557405 6.09557 0
M  V30 15586 N 1434.86 -1.4855 6.86205 0
M  V30 15587 H 1439.7 0.629396 2.91278 0
M  V30 15588 H 1437.23 0.322177 1.43528 0
M  V30 15589 H 1439.19 -1.67902 3.81923 0
M  V30 15590 H 1437.82 -1.79376 2.68373 0
M  V30 15591 H 1436.87 0.360114 3.78692 0
M  V30 15592 H 1438.19 0.253328 4.98156 0
M  V30 15593 H 1437.34 -1.97854 5.73532 0
M  V30 15594 H 1436.08 -1.94934 4.47048 0
M  V30 15595 H 1435.08 0.114401 5.49681 0
M  V30 15596 H 1436.31 0.0666137 6.79067 0
M  V30 15597 H 1434.26 -2.10207 6.21409 0
M  V30 15598 H 1434.17 -0.943972 7.50083 0
M  V30 15599 H 1435.44 -2.13314 7.49745 0
M  V30 15600 N 1439.67 -1.53632 0.351409 0
M  V30 15601 C 1440.91 -2.02951 -0.242935 0
M  V30 15602 C 1441.27 -1.23346 -1.47138 0
M  V30 15603 O 1442.47 -1.62602 -2.14042 0
M  V30 15604 C 1440.75 -3.53272 -0.541633 0
M  V30 15605 S 1442.3 -4.24485 -1.11167 0
M  V30 15606 H 1439.12 -0.707367 -0.071784 0
M  V30 15607 H 1441.72 -1.89234 0.490993 0
M  V30 15608 H 1440.43 -4.08817 0.360137 0
M  V30 15609 H 1439.96 -3.71124 -1.30502 0
M  V30 15610 H 1441.97 -4.34469 -2.39689 0
M  V30 15611 N 1441.15 -0.0802183 -1.57396 0
M  V30 15612 C 1442.42 0.628419 -1.8523 0
M  V30 15613 C 1442.8 1.87272 -0.974288 0
M  V30 15614 O 1442.15 2.2846 -0.0427687 0
M  V30 15615 C 1442.36 0.958033 -3.35593 0
M  V30 15616 C 1443.71 1.3279 -4.03301 0
M  V30 15617 O 1444.73 1.04951 -3.40388 0
M  V30 15618 O 1443.59 1.84865 -5.14283 0
M  V30 15619 H 1440.69 0.312945 -0.765503 0
M  V30 15620 H 1443.23 -0.111788 -1.69331 0
M  V30 15621 H 1442.01 0.074648 -3.91229 0
M  V30 15622 H 1441.63 1.75472 -3.56785 0
M  V30 15623 N 1442.63 1.56409 0.193394 0
M  V30 15624 C 1443.87 1.80991 0.914875 0
M  V30 15625 C 1444.2 0.654538 1.82837 0
M  V30 15626 O 1443.48 -0.344816 1.91419 0
M  V30 15627 C 1443.76 3.15841 1.72964 0
M  V30 15628 C 1443.62 4.41873 0.840748 0
M  V30 15629 C 1444.93 3.474 2.70188 0
M  V30 15630 H 1442.05 0.658408 0.331161 0
M  V30 15631 H 1444.7 1.89125 0.182161 0
M  V30 15632 H 1442.85 3.09038 2.35431 0
M  V30 15633 H 1444.52 4.60723 0.230654 0
M  V30 15634 H 1442.76 4.33549 0.147558 0
M  V30 15635 H 1443.43 5.32728 1.44586 0
M  V30 15636 H 1445.91 3.54513 2.17852 0
M  V30 15637 H 1444.78 4.42872 3.24278 0
M  V30 15638 H 1445.04 2.7098 3.49317 0
M  V30 15639 N 1444.1 -0.461169 1.50702 0
M  V30 15640 C 1445.38 -1.22225 1.52711 0
M  V30 15641 C 1445.76 -2.09268 0.27749 0
M  V30 15642 O 1445.11 -2.16232 -0.738642 0
M  V30 15643 C 1445.32 -2.04472 2.82829 0
M  V30 15644 C 1446.67 -2.62326 3.33872 0
M  V30 15645 O 1447.69 -2.14706 2.84218 0
M  V30 15646 O 1446.55 -3.49116 4.20453 0
M  V30 15647 H 1443.64 -0.555168 0.612958 0
M  V30 15648 H 1446.19 -0.47218 1.62999 0
M  V30 15649 H 1444.96 -1.40392 3.65247 0
M  V30 15650 H 1444.58 -2.86593 2.75591 0
M  V30 15651 N 1445.58 -1.40446 -0.715026 0
M  V30 15652 C 1446.53 -1.40756 -1.82911 0
M  V30 15653 C 1447.5 -0.264443 -1.63981 0
M  V30 15654 O 1448.68 -0.462589 -1.85107 0
M  V30 15655 C 1445.82 -1.27648 -3.20624 0
M  V30 15656 C 1444.94 -2.5167 -3.51121 0
M  V30 15657 C 1444.07 -2.31 -4.78344 0
M  V30 15658 C 1443.11 -3.50596 -5.01746 0
M  V30 15659 N 1442.25 -3.29117 -6.20183 0
M  V30 15660 H 1447.09 -2.35981 -1.8198 0
M  V30 15661 H 1444.62 -1.17201 -0.888951 0
M  V30 15662 H 1446.58 -1.18054 -4.00149 0
M  V30 15663 H 1445.21 -0.360419 -3.20782 0
M  V30 15664 H 1444.26 -2.7179 -2.66147 0
M  V30 15665 H 1445.58 -3.4069 -3.64324 0
M  V30 15666 H 1444.73 -2.18763 -5.65887 0
M  V30 15667 H 1443.47 -1.39406 -4.67351 0
M  V30 15668 H 1442.47 -3.63309 -4.12658 0
M  V30 15669 H 1443.7 -4.43117 -5.14611 0
M  V30 15670 H 1441.65 -2.40206 -6.1044 0
M  V30 15671 H 1441.56 -4.11702 -6.34064 0
M  V30 15672 H 1442.83 -3.20614 -7.10512 0
M  V30 15673 N 1447.06 0.947303 -1.25952 0
M  V30 15674 C 1448.28 1.73261 -1.13997 0
M  V30 15675 C 1448.71 1.85666 0.301639 0
M  V30 15676 O 1448.07 1.34244 1.21854 0
M  V30 15677 C 1448.12 3.12046 -1.8072 0
M  V30 15678 O 1447.22 3.97684 -1.09182 0
M  V30 15679 H 1446.56 0.53182 -0.397572 0
M  V30 15680 H 1449.09 1.18689 -1.66656 0
M  V30 15681 H 1449.1 3.62468 -1.87299 0
M  V30 15682 H 1447.78 3.02334 -2.856 0
M  V30 15683 H 1446.35 3.56141 -1.10536 0
M  V30 15684 N 1448.54 1.07657 1.15099 0
M  V30 15685 C 1449.78 0.802796 1.86234 0
M  V30 15686 C 1450.12 -0.669555 1.82293 0
M  V30 15687 O 1449.39 -1.49162 1.24823 0
M  V30 15688 C 1449.68 1.3156 3.35208 0
M  V30 15689 C 1449.53 2.85272 3.47764 0
M  V30 15690 C 1450.85 0.934641 4.30061 0
M  V30 15691 H 1447.97 0.293099 0.676212 0
M  V30 15692 H 1450.61 1.33488 1.35207 0
M  V30 15693 H 1448.76 0.86298 3.78794 0
M  V30 15694 H 1450.43 3.38847 3.13018 0
M  V30 15695 H 1448.67 3.23316 2.89222 0
M  V30 15696 H 1449.34 3.16223 4.52446 0
M  V30 15697 H 1451.82 1.3247 3.9445 0
M  V30 15698 H 1450.7 1.32074 5.32774 0
M  V30 15699 H 1450.96 -0.159122 4.41814 0
M  V30 15700 N 1450.02 -1.31994 0.861122 0
M  V30 15701 C 1450.95 -2.27632 0.267681 0
M  V30 15702 C 1451.96 -1.52709 -0.564265 0
M  V30 15703 O 1453.15 -1.74239 -0.3877 0
M  V30 15704 C 1450.25 -3.32805 -0.639856 0
M  V30 15705 C 1449.42 -4.37116 0.157676 0
M  V30 15706 C 1448.48 -5.21832 -0.676624 0
M  V30 15707 O 1447.51 -5.69098 -0.107822 0
M  V30 15708 N 1448.71 -5.45317 -1.99022 0
M  V30 15709 H 1451.48 -2.79195 1.0895 0
M  V30 15710 H 1449.04 -1.44923 0.721733 0
M  V30 15711 H 1451.03 -3.86391 -1.20348 0
M  V30 15712 H 1449.6 -2.81351 -1.36236 0
M  V30 15713 H 1448.82 -3.83724 0.902741 0
M  V30 15714 H 1450.11 -5.03889 0.70524 0
M  V30 15715 H 1449.5 -5.08656 -2.47558 0
M  V30 15716 H 1448.06 -6.01874 -2.50182 0
M  V30 15717 N 1451.49 -0.619688 -1.44906 0
M  V30 15718 C 1452.91 -0.203309 -1.8559 0
M  V30 15719 C 1453.26 1.24265 -1.51831 0
M  V30 15720 O 1452.38 1.94392 -0.950819 0
M  V30 15721 C 1452.98 -0.362204 -3.36858 0
M  V30 15722 C 1451.54 -0.000423575 -3.764 0
M  V30 15723 C 1450.68 -0.680979 -2.68808 0
M  V30 15724 H 1453.63 -0.825595 -1.35535 0
M  V30 15725 H 1453.65 0.402149 -3.78369 0
M  V30 15726 H 1453.17 -1.41468 -3.61398 0
M  V30 15727 H 1451.27 1.05077 -3.57477 0
M  V30 15728 H 1451.38 -0.402508 -4.77406 0
M  V30 15729 H 1449.74 -0.117407 -2.54429 0
M  V30 15730 H 1450.53 -1.73583 -2.96182 0
M  V30 15731 N 1452.97 1.53444 -0.359552 0
M  V30 15732 C 1453.88 2.29257 0.497834 0
M  V30 15733 C 1454.9 1.34987 1.09793 0
M  V30 15734 O 1456.07 1.68039 1.11017 0
M  V30 15735 C 1453.14 3.06258 1.62502 0
M  V30 15736 C 1452.2 4.16183 1.05308 0
M  V30 15737 C 1451.43 4.89503 2.12655 0
M  V30 15738 O 1451.66 4.6263 3.33661 0
M  V30 15739 O 1450.59 5.75578 1.76051 0
M  V30 15740 H 1454.42 3.03467 -0.118925 0
M  V30 15741 H 1452 1.48884 -0.124111 0
M  V30 15742 H 1453.88 3.5436 2.2805 0
M  V30 15743 H 1452.56 2.3489 2.22729 0
M  V30 15744 H 1451.47 3.72348 0.361679 0
M  V30 15745 H 1452.8 4.897 0.49545 0
M  V30 15746 N 1454.45 0.0885642 1.57351 0
M  V30 15747 C 1455.86 -0.441569 1.81403 0
M  V30 15748 C 1456.21 -1.68582 1.00372 0
M  V30 15749 O 1455.34 -2.15162 0.231153 0
M  V30 15750 C 1455.93 -0.807886 3.29027 0
M  V30 15751 C 1454.49 -1.2828 3.53866 0
M  V30 15752 C 1453.64 -0.276217 2.75921 0
M  V30 15753 H 1456.59 0.314083 1.55561 0
M  V30 15754 H 1456.61 -1.66797 3.41993 0
M  V30 15755 H 1456.12 0.0978886 3.87977 0
M  V30 15756 H 1454.22 -2.2065 3.0024 0
M  V30 15757 H 1454.34 -1.24914 4.62529 0
M  V30 15758 H 1452.7 -0.757007 2.4319 0
M  V30 15759 H 1453.48 0.622123 3.37616 0
M  V30 15760 N 1455.93 -1.56509 -0.185096 0
M  V30 15761 C 1457.18 -1.81206 -0.903924 0
M  V30 15762 C 1457.5 -0.663423 -1.82836 0
M  V30 15763 O 1456.76 0.350211 -1.92541 0
M  V30 15764 C 1457.06 -3.11968 -1.74387 0
M  V30 15765 C 1456.72 -4.40353 -0.969552 0
M  V30 15766 C 1455.39 -4.75227 -0.755799 0
M  V30 15767 C 1457.74 -5.19461 -0.425443 0
M  V30 15768 C 1455.07 -5.86698 0.0133856 0
M  V30 15769 C 1457.42 -6.31736 0.330582 0
M  V30 15770 C 1456.08 -6.65187 0.555262 0
M  V30 15771 H 1455.35 -0.663078 -0.330769 0
M  V30 15772 H 1458 -1.90747 -0.169673 0
M  V30 15773 H 1456.3 -2.97708 -2.5471 0
M  V30 15774 H 1458 -3.28284 -2.30284 0
M  V30 15775 H 1454.59 -4.1299 -1.14618 0
M  V30 15776 H 1458.77 -4.92923 -0.577959 0
M  V30 15777 H 1454.03 -6.11081 0.197335 0
M  V30 15778 H 1458.2 -6.92246 0.759523 0
M  V30 15779 H 1455.83 -7.51403 1.15318 0
M  V30 15780 N 1457.41 0.45317 -1.50944 0
M  V30 15781 C 1458.65 1.20389 -1.62827 0
M  V30 15782 C 1458.98 1.91559 -0.336982 0
M  V30 15783 O 1458.24 1.83574 0.678153 0
M  V30 15784 C 1458.54 2.25747 -2.7708 0
M  V30 15785 C 1458.2 1.71703 -4.16928 0
M  V30 15786 C 1456.86 1.56686 -4.54976 0
M  V30 15787 C 1459.22 1.31804 -5.04259 0
M  V30 15788 C 1456.54 1.0022 -5.78077 0
M  V30 15789 C 1458.9 0.767738 -6.27924 0
M  V30 15790 C 1457.56 0.604341 -6.64759 0
M  V30 15791 H 1456.83 0.440536 -0.595827 0
M  V30 15792 H 1459.48 0.497234 -1.84932 0
M  V30 15793 H 1457.78 3.0239 -2.49134 0
M  V30 15794 H 1459.48 2.83625 -2.83475 0
M  V30 15795 H 1456.07 1.84364 -3.86921 0
M  V30 15796 H 1460.25 1.42233 -4.75482 0
M  V30 15797 H 1455.51 0.863228 -6.05275 0
M  V30 15798 H 1459.68 0.449994 -6.94945 0
M  V30 15799 H 1457.31 0.164663 -7.60022 0
M  V30 15800 N 1458.88 1.40823 0.707568 0
M  V30 15801 C 1459.83 1.38198 1.81343 0
M  V30 15802 C 1460.82 0.258234 1.58814 0
M  V30 15803 O 1462.01 0.497972 1.69851 0
M  V30 15804 C 1459.14 1.25483 3.19545 0
M  V30 15805 C 1458.23 2.42672 3.47809 0
M  V30 15806 N 1458.62 3.6815 3.46842 0
M  V30 15807 C 1456.91 2.36225 3.78304 0
M  V30 15808 C 1457.62 4.45805 3.73675 0
M  V30 15809 N 1456.59 3.75753 3.92824 0
M  V30 15810 H 1460.39 2.33147 1.7894 0
M  V30 15811 H 1457.91 1.34709 0.907044 0
M  V30 15812 H 1459.9 1.21684 3.98746 0
M  V30 15813 H 1458.56 0.315081 3.23168 0
M  V30 15814 H 1459.58 4.01201 3.27503 0
M  V30 15815 H 1456.25 1.50659 3.89369 0
M  V30 15816 H 1457.64 5.54692 3.79165 0
M  V30 15817 N 1460.36 -0.94061 1.26453 0
M  V30 15818 C 1461.31 -2.03941 1.08059 0
M  V30 15819 C 1462.28 -1.66094 -0.0145388 0
M  V30 15820 O 1463.46 -1.90246 0.145338 0
M  V30 15821 C 1460.6 -3.37501 0.720228 0
M  V30 15822 C 1459.72 -3.88381 1.89167 0
M  V30 15823 C 1458.85 -5.10329 1.47437 0
M  V30 15824 C 1457.89 -5.53473 2.61408 0
M  V30 15825 N 1457.03 -6.66624 2.20355 0
M  V30 15826 H 1461.87 -2.19006 2.0209 0
M  V30 15827 H 1459.41 -1.07305 1.00618 0
M  V30 15828 H 1461.36 -4.14287 0.492177 0
M  V30 15829 H 1459.99 -3.2228 -0.183101 0
M  V30 15830 H 1459.05 -3.0799 2.23264 0
M  V30 15831 H 1460.36 -4.16338 2.74708 0
M  V30 15832 H 1459.51 -5.94577 1.20679 0
M  V30 15833 H 1458.25 -4.8412 0.589873 0
M  V30 15834 H 1457.26 -4.67782 2.88894 0
M  V30 15835 H 1458.48 -5.81684 3.50458 0
M  V30 15836 H 1456.43 -6.42097 1.34341 0
M  V30 15837 H 1456.34 -6.9417 2.99439 0
M  V30 15838 H 1457.61 -7.54245 1.96811 0
M  V30 15839 N 1461.84 -1.08266 -1.14527 0
M  V30 15840 C 1463.09 -0.812661 -1.85805 0
M  V30 15841 C 1463.42 0.659878 -1.82645 0
M  V30 15842 O 1462.69 1.48498 -1.25612 0
M  V30 15843 C 1462.98 -1.33335 -3.34505 0
M  V30 15844 C 1462.83 -2.87113 -3.46246 0
M  V30 15845 C 1464.15 -0.957435 -4.29559 0
M  V30 15846 H 1461.27 -0.296681 -0.674648 0
M  V30 15847 H 1463.91 -1.34203 -1.34497 0
M  V30 15848 H 1462.06 -0.883056 -3.78331 0
M  V30 15849 H 1463.73 -3.40502 -3.11217 0
M  V30 15850 H 1461.98 -3.24845 -2.87504 0
M  V30 15851 H 1462.65 -3.18618 -4.50762 0
M  V30 15852 H 1465.12 -1.3456 -3.93742 0
M  V30 15853 H 1464 -1.34897 -5.32066 0
M  V30 15854 H 1464.26 0.135689 -4.41892 0
M  V30 15855 N 1463.32 1.31536 -0.86811 0
M  V30 15856 C 1464.57 1.97066 -0.478829 0
M  V30 15857 C 1464.9 1.68469 0.966021 0
M  V30 15858 O 1464.17 0.980166 1.67997 0
M  V30 15859 C 1464.46 3.52533 -0.734313 0
M  V30 15860 C 1464.31 3.90711 -2.22856 0
M  V30 15861 C 1465.63 4.39647 -0.199559 0
M  V30 15862 H 1462.75 0.715813 -0.175444 0
M  V30 15863 H 1465.39 1.55694 -1.08901 0
M  V30 15864 H 1463.54 3.87905 -0.214962 0
M  V30 15865 H 1465.21 3.65451 -2.81502 0
M  V30 15866 H 1463.45 3.39385 -2.70185 0
M  V30 15867 H 1464.13 4.99103 -2.35797 0
M  V30 15868 H 1466.6 4.11088 -0.643853 0
M  V30 15869 H 1465.48 5.47383 -0.407783 0
M  V30 15870 H 1465.74 4.32875 0.898414 0
M  V30 15871 N 1464.8 0.627364 1.44575 0
M  V30 15872 C 1465.75 -0.101618 2.27773 0
M  V30 15873 C 1466.73 -0.819759 1.38451 0
M  V30 15874 O 1467.92 -0.706487 1.62289 0
M  V30 15875 C 1465.05 -1.08507 3.25701 0
M  V30 15876 C 1464.14 -0.366745 4.22511 0
M  V30 15877 N 1464.53 0.602571 5.02198 0
M  V30 15878 C 1462.83 -0.611691 4.41785 0
M  V30 15879 C 1463.53 1.02662 5.72569 0
M  V30 15880 N 1462.5 0.366195 5.42365 0
M  V30 15881 H 1466.31 0.642569 2.8679 0
M  V30 15882 H 1463.82 0.452571 1.55967 0
M  V30 15883 H 1465.82 -1.62189 3.84058 0
M  V30 15884 H 1464.48 -1.8296 2.68246 0
M  V30 15885 H 1465.49 0.980215 5.08539 0
M  V30 15886 H 1462.17 -1.33938 3.95432 0
M  V30 15887 H 1463.56 1.82721 6.46578 0
M  V30 15888 N 1466.28 -1.53251 0.367684 0
M  V30 15889 C 1467.5 -2.0618 -0.224645 0
M  V30 15890 C 1467.93 -1.23927 -1.41505 0
M  V30 15891 O 1467.28 -0.258858 -1.79443 0
M  V30 15892 C 1467.33 -3.55671 -0.594171 0
M  V30 15893 O 1466.44 -3.76132 -1.69112 0
M  V30 15894 H 1465.78 -0.663218 -0.0322099 0
M  V30 15895 H 1468.31 -1.97646 0.528897 0
M  V30 15896 H 1468.32 -3.98734 -0.864589 0
M  V30 15897 H 1466.99 -4.14982 0.276254 0
M  V30 15898 H 1465.57 -3.44965 -1.41609 0
M  V30 15899 N 1467.75 -0.0969077 -1.57302 0
M  V30 15900 C 1468.66 0.875561 -2.17649 0
M  V30 15901 C 1469.68 1.30892 -1.14645 0
M  V30 15902 O 1470.86 1.37646 -1.47022 0
M  V30 15903 C 1467.92 2.116 -2.74639 0
M  V30 15904 C 1466.98 1.73667 -3.92604 0
M  V30 15905 C 1466.21 2.91798 -4.46867 0
M  V30 15906 O 1466.44 4.06577 -4.00064 0
M  V30 15907 O 1465.37 2.70159 -5.37864 0
M  V30 15908 H 1469.2 0.392107 -3.01158 0
M  V30 15909 H 1466.78 0.127539 -1.48855 0
M  V30 15910 H 1468.66 2.84292 -3.11057 0
M  V30 15911 H 1467.34 2.58994 -1.94174 0
M  V30 15912 H 1466.25 0.981505 -3.60995 0
M  V30 15913 H 1467.58 1.31035 -4.74437 0
M  V30 15914 N 1469.23 1.56605 0.176793 0
M  V30 15915 C 1470.18 1.92393 1.22347 0
M  V30 15916 C 1471.17 0.791622 1.40079 0
M  V30 15917 O 1472.36 1.05474 1.42142 0
M  V30 15918 C 1469.49 2.28266 2.56417 0
M  V30 15919 C 1468.57 3.47997 2.42402 0
M  V30 15920 N 1468.96 4.65396 1.98092 0
M  V30 15921 C 1467.26 3.52496 2.73244 0
M  V30 15922 C 1467.96 5.47539 1.96409 0
M  V30 15923 N 1466.94 4.88434 2.38606 0
M  V30 15924 H 1470.74 2.8065 0.872507 0
M  V30 15925 H 1468.25 1.57768 0.385107 0
M  V30 15926 H 1470.25 2.52097 3.32043 0
M  V30 15927 H 1468.91 1.41345 2.92321 0
M  V30 15928 H 1469.92 4.89717 1.68515 0
M  V30 15929 H 1466.6 2.7604 3.13223 0
M  V30 15930 H 1467.99 6.51604 1.63896 0
M  V30 15931 N 1470.71 -0.445159 1.51182 0
M  V30 15932 C 1471.64 -1.5473 1.74874 0
M  V30 15933 C 1472.62 -1.5923 0.598323 0
M  V30 15934 O 1473.81 -1.75083 0.840219 0
M  V30 15935 C 1470.94 -2.92872 1.86664 0
M  V30 15936 C 1469.89 -3.03235 3.02048 0
M  V30 15937 C 1469.22 -4.43279 2.99012 0
M  V30 15938 C 1470.52 -2.7804 4.42144 0
M  V30 15939 H 1472.21 -1.35156 2.67158 0
M  V30 15940 H 1469.76 -0.648763 1.28558 0
M  V30 15941 H 1471.71 -3.69927 2.01822 0
M  V30 15942 H 1470.43 -3.1366 0.910225 0
M  V30 15943 H 1469.09 -2.28617 2.86583 0
M  V30 15944 H 1468.74 -4.61023 2.01163 0
M  V30 15945 H 1468.44 -4.51144 3.76488 0
M  V30 15946 H 1469.96 -5.22319 3.16252 0
M  V30 15947 H 1471.38 -3.44831 4.58 0
M  V30 15948 H 1469.77 -2.97323 5.21267 0
M  V30 15949 H 1470.84 -1.737 4.52721 0
M  V30 15950 N 1472.19 -1.41197 -0.700089 0
M  V30 15951 C 1473.14 -1.42885 -1.83539 0
M  V30 15952 C 1474.13 -0.307431 -1.66587 0
M  V30 15953 O 1475.34 -0.479238 -1.73503 0
M  V30 15954 H 1471.71 -0.446973 -0.604747 0
M  V30 15955 H 1473.68 -2.38576 -1.79231 0
M  V30 15956 C 1472.43 -1.3235 -3.21526 0
M  V30 15957 H 1471.75 -2.17926 -3.35184 0
M  V30 15958 H 1473.19 -1.37592 -4.01054 0
M  V30 15959 C 1471.65 -0.0353528 -3.36881 0
M  V30 15960 O 1472.18 0.921676 -3.90983 0
M  V30 15961 N 1470.39 0.0392479 -2.90573 0
M  V30 15962 H 1469.94 -0.740299 -2.46733 0
M  V30 15963 H 1469.89 0.900559 -3.01226 0
M  V30 15964 N 1473.67 0.933891 -1.2695 0
M  V30 15965 C 1474.6 2.05078 -1.11649 0
M  V30 15966 C 1475.58 1.70089 -0.0196463 0
M  V30 15967 O 1476.76 1.93239 -0.193007 0
M  V30 15968 C 1473.89 3.38963 -0.756387 0
M  V30 15969 C 1472.85 3.88041 -1.80577 0
M  V30 15970 C 1472.17 5.18661 -1.2998 0
M  V30 15971 C 1473.47 4.12116 -3.2087 0
M  V30 15972 H 1475.17 2.18137 -2.05077 0
M  V30 15973 H 1472.71 1.04817 -0.987392 0
M  V30 15974 H 1474.66 4.1657 -0.63619 0
M  V30 15975 H 1473.39 3.25901 0.213607 0
M  V30 15976 H 1472.05 3.12622 -1.91477 0
M  V30 15977 H 1471.7 5.01985 -0.319442 0
M  V30 15978 H 1471.4 5.52467 -2.00134 0
M  V30 15979 H 1472.92 5.98844 -1.19242 0
M  V30 15980 H 1474.33 4.80312 -3.13006 0
M  V30 15981 H 1472.73 4.57218 -3.88679 0
M  V30 15982 H 1473.8 3.17633 -3.66384 0
M  V30 15983 N 1475.14 1.08871 1.13951 0
M  V30 15984 C 1476.39 0.822504 1.85372 0
M  V30 15985 C 1476.72 -0.650183 1.82993 0
M  V30 15986 O 1476 -1.4783 1.26398 0
M  V30 15987 C 1476.28 1.35107 3.33793 0
M  V30 15988 C 1476.13 2.88945 3.44719 0
M  V30 15989 C 1477.45 0.980203 4.29045 0
M  V30 15990 H 1474.57 0.300255 0.673065 0
M  V30 15991 H 1477.21 1.34914 1.33784 0
M  V30 15992 H 1475.36 0.903108 3.77857 0
M  V30 15993 H 1477.04 3.42148 3.09407 0
M  V30 15994 H 1475.28 3.26365 2.85777 0
M  V30 15995 H 1475.95 3.21004 4.49066 0
M  V30 15996 H 1478.43 1.36646 3.93023 0
M  V30 15997 H 1477.3 1.37717 5.31343 0
M  V30 15998 H 1477.56 -0.112253 4.41957 0
M  V30 15999 N 1476.62 -1.31073 0.875073 0
M  V30 16000 C 1478.03 -1.78707 0.540422 0
M  V30 16001 C 1478.38 -1.72056 -0.942935 0
M  V30 16002 O 1477.51 -1.29139 -1.73643 0
M  V30 16003 C 1478.1 -3.24491 0.974203 0
M  V30 16004 C 1476.66 -3.70001 0.691127 0
M  V30 16005 C 1475.81 -2.51748 1.16269 0
M  V30 16006 H 1478.76 -1.18083 1.06029 0
M  V30 16007 H 1478.78 -3.79323 0.299003 0
M  V30 16008 H 1478.29 -3.29301 2.05384 0
M  V30 16009 H 1476.39 -3.70688 -0.376937 0
M  V30 16010 H 1476.51 -4.61913 1.27173 0
M  V30 16011 H 1474.87 -2.47954 0.582302 0
M  V30 16012 H 1475.65 -2.59299 2.24986 0
M  V30 16013 N 1478.1 -0.635022 -1.4424 0
M  V30 16014 C 1479.03 0.106038 -2.28955 0
M  V30 16015 C 1480.05 0.805076 -1.415 0
M  V30 16016 O 1481.23 0.665872 -1.65615 0
M  V30 16017 C 1478.33 1.17252 -3.1797 0
M  V30 16018 C 1477.51 0.555225 -4.33862 0
M  V30 16019 C 1476.57 1.51618 -5.03883 0
M  V30 16020 O 1475.59 1.03181 -5.5977 0
M  V30 16021 N 1476.79 2.85048 -5.05696 0
M  V30 16022 H 1479.56 -0.620999 -2.93196 0
M  V30 16023 H 1477.12 -0.476466 -1.5473 0
M  V30 16024 H 1479.11 1.81578 -3.61679 0
M  V30 16025 H 1477.68 1.80174 -2.55453 0
M  V30 16026 H 1476.9 -0.266745 -3.93296 0
M  V30 16027 H 1478.19 0.123529 -5.0865 0
M  V30 16028 H 1477.59 3.26977 -4.6163 0
M  V30 16029 H 1476.15 3.44724 -5.5318 0
M  V30 16030 N 1479.58 1.53054 -0.375806 0
M  V30 16031 C 1480.82 2.017 0.210985 0
M  V30 16032 C 1481.16 1.26228 1.47581 0
M  V30 16033 O 1480.43 0.358869 1.91161 0
M  V30 16034 C 1480.72 3.56715 0.492596 0
M  V30 16035 C 1480.57 4.42869 -0.786573 0
M  V30 16036 C 1481.89 4.20803 1.28891 0
M  V30 16037 H 1479.01 0.733153 0.0752084 0
M  V30 16038 H 1481.65 1.83229 -0.502715 0
M  V30 16039 H 1479.8 3.72585 1.10059 0
M  V30 16040 H 1481.47 4.38777 -1.42381 0
M  V30 16041 H 1479.71 4.10425 -1.40478 0
M  V30 16042 H 1480.38 5.49309 -0.544354 0
M  V30 16043 H 1482.86 4.08828 0.774498 0
M  V30 16044 H 1481.74 5.29273 1.45469 0
M  V30 16045 H 1482 3.77541 2.30033 0
M  V30 16046 N 1481.06 0.105248 1.57248 0
M  V30 16047 C 1481.99 -0.880221 2.11624 0
M  V30 16048 C 1483 -1.23924 1.05578 0
M  V30 16049 O 1484.19 -1.19059 1.32994 0
M  V30 16050 C 1481.29 -2.18628 2.5895 0
M  V30 16051 C 1480.46 -2.00105 3.88943 0
M  V30 16052 C 1479.52 -3.14315 4.2201 0
M  V30 16053 O 1478.55 -2.87832 4.91061 0
M  V30 16054 N 1479.75 -4.4037 3.78226 0
M  V30 16055 H 1482.52 -0.415742 2.96802 0
M  V30 16056 H 1480.08 -0.0795714 1.61704 0
M  V30 16057 H 1482.07 -2.94002 2.7811 0
M  V30 16058 H 1480.64 -2.56467 1.78727 0
M  V30 16059 H 1479.86 -1.09003 3.7883 0
M  V30 16060 H 1481.15 -1.85018 4.73968 0
M  V30 16061 H 1480.54 -4.64765 3.22506 0
M  V30 16062 H 1479.1 -5.1266 4.02521 0
M  V30 16063 N 1482.53 -1.56697 -0.168486 0
M  V30 16064 C 1483.76 -1.86652 -0.904195 0
M  V30 16065 C 1484.18 -0.691906 -1.74912 0
M  V30 16066 O 1483.54 0.358971 -1.77711 0
M  V30 16067 C 1483.59 -3.15043 -1.75442 0
M  V30 16068 O 1482.69 -2.97466 -2.85636 0
M  V30 16069 H 1482.04 -0.613859 -0.253128 0
M  V30 16070 H 1484.57 -2.03927 -0.165773 0
M  V30 16071 H 1484.58 -3.4652 -2.15378 0
M  V30 16072 H 1483.25 -4.00147 -1.13381 0
M  V30 16073 H 1481.83 -2.7735 -2.49262 0
M  V30 16074 N 1484.01 0.437135 -1.51416 0
M  V30 16075 C 1485.26 1.18831 -1.64338 0
M  V30 16076 C 1485.59 1.9086 -0.358638 0
M  V30 16077 O 1484.87 1.83607 0.641769 0
M  V30 16078 C 1485.15 2.20515 -2.84685 0
M  V30 16079 C 1485 1.52568 -4.23135 0
M  V30 16080 C 1486.32 3.21494 -3.00549 0
M  V30 16081 H 1483.44 0.430652 -0.598087 0
M  V30 16082 H 1486.08 0.47753 -1.83901 0
M  V30 16083 H 1484.23 2.81132 -2.68136 0
M  V30 16084 H 1485.9 0.952851 -4.51352 0
M  V30 16085 H 1484.15 0.828025 -4.25824 0
M  V30 16086 H 1484.82 2.26623 -5.03335 0
M  V30 16087 H 1487.29 2.7093 -3.1581 0
M  V30 16088 H 1486.17 3.89934 -3.86319 0
M  V30 16089 H 1486.43 3.8761 -2.12629 0
M  V30 16090 N 1485.49 1.41566 0.692592 0
M  V30 16091 C 1486.42 1.39582 1.81795 0
M  V30 16092 C 1487.44 0.29754 1.60058 0
M  V30 16093 O 1488.62 0.559463 1.69506 0
M  V30 16094 C 1485.72 1.15506 3.18609 0
M  V30 16095 C 1484.9 2.37432 3.67349 0
M  V30 16096 C 1483.96 2.09168 4.82841 0
M  V30 16097 O 1482.98 2.8223 4.94303 0
M  V30 16098 N 1484.18 1.08377 5.70294 0
M  V30 16099 H 1486.95 2.36577 1.83988 0
M  V30 16100 H 1484.51 1.36216 0.875026 0
M  V30 16101 H 1486.5 0.945452 3.93501 0
M  V30 16102 H 1485.07 0.270987 3.11423 0
M  V30 16103 H 1484.29 2.74076 2.8333 0
M  V30 16104 H 1485.58 3.18661 3.96652 0
M  V30 16105 H 1484.98 0.479122 5.63667 0
M  V30 16106 H 1483.54 0.934042 6.45073 0
M  V30 16107 N 1486.97 -0.927146 1.27443 0
M  V30 16108 C 1488.21 -1.68946 1.15051 0
M  V30 16109 C 1488.57 -1.89664 -0.298585 0
M  V30 16110 O 1489.77 -2.63218 -0.544943 0
M  V30 16111 C 1488.04 -3.01884 1.91313 0
M  V30 16112 S 1489.6 -3.93021 1.9514 0
M  V30 16113 H 1486.42 -0.580376 0.410713 0
M  V30 16114 H 1489.02 -1.10378 1.61359 0
M  V30 16115 H 1487.73 -2.84496 2.95787 0
M  V30 16116 H 1487.26 -3.65504 1.45501 0
M  V30 16117 H 1489.27 -4.85002 1.04822 0
M  V30 16118 N 1488.45 -1.09474 -1.13372 0
M  V30 16119 C 1489.67 -0.853093 -1.89043 0
M  V30 16120 C 1490.1 0.590075 -1.78605 0
M  V30 16121 O 1489.45 1.41462 -1.13394 0
M  V30 16122 C 1489.5 -1.29359 -3.36599 0
M  V30 16123 O 1488.61 -0.452355 -4.09912 0
M  V30 16124 H 1487.95 -0.308922 -0.587761 0
M  V30 16125 H 1490.48 -1.459 -1.43437 0
M  V30 16126 H 1490.49 -1.27921 -3.87428 0
M  V30 16127 H 1489.16 -2.3446 -3.43513 0
M  V30 16128 H 1487.74 -0.531098 -3.69099 0
M  V30 16129 N 1489.92 1.30607 -0.882012 0
M  V30 16130 C 1491.34 1.78418 -0.549892 0
M  V30 16131 C 1491.69 1.72553 0.933797 0
M  V30 16132 O 1490.81 1.30058 1.72956 0
M  V30 16133 C 1491.41 3.2397 -0.991398 0
M  V30 16134 C 1489.97 3.69629 -0.710739 0
M  V30 16135 C 1489.11 2.51127 -1.17602 0
M  V30 16136 H 1492.06 1.17519 -1.06653 0
M  V30 16137 H 1492.08 3.79159 -0.319115 0
M  V30 16138 H 1491.6 3.28207 -2.07128 0
M  V30 16139 H 1489.7 3.70883 0.357273 0
M  V30 16140 H 1489.81 4.61232 -1.29621 0
M  V30 16141 H 1488.17 2.47642 -0.595444 0
M  V30 16142 H 1488.96 2.58103 -2.26358 0
M  V30 16143 N 1491.4 0.642663 1.43901 0
M  V30 16144 C 1492.31 -0.0562462 2.34533 0
M  V30 16145 C 1493.33 -0.823457 1.53281 0
M  V30 16146 O 1494.5 -0.773103 1.85971 0
M  V30 16147 C 1491.57 -1.01787 3.31422 0
M  V30 16148 C 1490.63 -0.248759 4.28579 0
M  V30 16149 C 1489.86 -1.16458 5.20839 0
M  V30 16150 O 1490.09 -2.40361 5.17284 0
M  V30 16151 O 1489.02 -0.642671 5.98459 0
M  V30 16152 H 1492.85 0.689476 2.9577 0
M  V30 16153 H 1490.43 0.402847 1.43866 0
M  V30 16154 H 1492.31 -1.5708 3.91029 0
M  V30 16155 H 1490.99 -1.744 2.72702 0
M  V30 16156 H 1489.9 0.347495 3.72483 0
M  V30 16157 H 1491.23 0.437589 4.90251 0
M  V30 16158 N 1492.88 -1.52852 0.383918 0
M  V30 16159 C 1493.79 -2.3002 -0.461298 0
M  V30 16160 C 1494.81 -1.36717 -1.07631 0
M  V30 16161 O 1495.98 -1.69784 -1.08329 0
M  V30 16162 C 1493.05 -3.08804 -1.57609 0
M  V30 16163 C 1492.11 -4.17806 -0.986737 0
M  V30 16164 C 1491.34 -4.92825 -2.04841 0
M  V30 16165 O 1491.57 -4.67879 -3.26259 0
M  V30 16166 O 1490.5 -5.78306 -1.66871 0
M  V30 16167 H 1494.33 -3.03239 0.167189 0
M  V30 16168 H 1491.91 -1.48667 0.147781 0
M  V30 16169 H 1493.79 -3.57943 -2.22384 0
M  V30 16170 H 1492.47 -2.38404 -2.18964 0
M  V30 16171 H 1491.37 -3.72876 -0.302396 0
M  V30 16172 H 1492.71 -4.90426 -0.417481 0
M  V30 16173 N 1494.36 -0.113586 -1.5719 0
M  V30 16174 C 1495.58 0.556928 -1.99783 0
M  V30 16175 C 1496.01 1.59774 -0.992669 0
M  V30 16176 O 1495.37 1.81263 0.0363821 0
M  V30 16177 C 1495.42 1.16463 -3.41275 0
M  V30 16178 O 1494.52 2.28024 -3.43626 0
M  V30 16179 H 1493.86 0.139628 -0.649153 0
M  V30 16180 H 1496.39 -0.200462 -2.03616 0
M  V30 16181 H 1496.4 1.50147 -3.79368 0
M  V30 16182 H 1495.08 0.402232 -4.1395 0
M  V30 16183 H 1493.65 1.9582 -3.17347 0
M  V30 16184 N 1495.84 1.56784 0.160173 0
M  V30 16185 C 1497.08 1.82621 0.874982 0
M  V30 16186 C 1497.41 0.692427 1.81757 0
M  V30 16187 O 1496.67 -0.319535 1.93074 0
M  V30 16188 C 1496.97 3.14703 1.69402 0
M  V30 16189 C 1496.63 4.41839 0.899373 0
M  V30 16190 C 1495.29 4.7637 0.680099 0
M  V30 16191 C 1497.65 5.20072 0.342747 0
M  V30 16192 C 1494.97 5.86603 -0.106723 0
M  V30 16193 C 1497.33 6.3113 -0.431044 0
M  V30 16194 C 1495.99 6.64219 -0.661017 0
M  V30 16195 H 1495.26 0.668256 0.320178 0
M  V30 16196 H 1497.91 1.90993 0.139305 0
M  V30 16197 H 1496.21 3.01723 2.49941 0
M  V30 16198 H 1497.91 3.31906 2.25032 0
M  V30 16199 H 1494.5 4.14761 1.08033 0
M  V30 16200 H 1498.68 4.9378 0.499467 0
M  V30 16201 H 1493.94 6.1069 -0.294528 0
M  V30 16202 H 1498.11 6.9095 -0.869557 0
M  V30 16203 H 1495.74 7.49473 -1.27257 0
M  V30 16204 N 1497.32 -0.429099 1.51646 0
M  V30 16205 C 1498.28 -1.50398 1.72954 0
M  V30 16206 C 1499.28 -1.49207 0.599491 0
M  V30 16207 O 1500.47 -1.51084 0.867143 0
M  V30 16208 C 1497.6 -2.89903 1.79358 0
M  V30 16209 H 1498.79 -1.32805 2.68892 0
M  V30 16210 H 1496.35 -0.658313 1.4176 0
M  V30 16211 H 1497.08 -3.12891 0.852639 0
M  V30 16212 H 1496.87 -2.92171 2.61492 0
M  V30 16213 H 1498.36 -3.67862 1.97654 0
M  V30 16214 N 1498.79 -1.41931 -0.685074 0
M  V30 16215 C 1500.04 -1.41852 -1.44514 0
M  V30 16216 C 1500.37 -0.0313137 -1.94475 0
M  V30 16217 O 1499.62 0.958606 -1.70614 0
M  V30 16218 C 1499.92 -2.38099 -2.6654 0
M  V30 16219 C 1499.59 -3.8471 -2.35178 0
M  V30 16220 C 1498.25 -4.24647 -2.26336 0
M  V30 16221 C 1500.6 -4.77232 -2.0952 0
M  V30 16222 C 1497.93 -5.55101 -1.89947 0
M  V30 16223 C 1500.28 -6.08017 -1.74638 0
M  V30 16224 C 1498.95 -6.46964 -1.64299 0
M  V30 16225 H 1498.22 -0.519072 -0.528815 0
M  V30 16226 H 1500.86 -1.74802 -0.782078 0
M  V30 16227 H 1499.17 -1.9844 -3.3783 0
M  V30 16228 H 1500.87 -2.35306 -3.24703 0
M  V30 16229 H 1497.46 -3.53085 -2.42959 0
M  V30 16230 H 1501.64 -4.47173 -2.1529 0
M  V30 16231 H 1496.9 -5.84148 -1.80503 0
M  V30 16232 H 1501.07 -6.79203 -1.53807 0
M  V30 16233 H 1498.7 -7.47959 -1.35871 0
M  V30 16234 N 1500.27 0.920374 -1.27933 0
M  V30 16235 C 1501.69 1.19761 -1.05496 0
M  V30 16236 C 1501.89 2.00435 0.206864 0
M  V30 16237 O 1500.94 2.35518 0.910356 0
M  V30 16238 C 1502.26 1.93863 -2.29864 0
M  V30 16239 C 1503.8 2.06773 -2.34976 0
M  V30 16240 C 1504.28 2.84282 -3.59093 0
M  V30 16241 N 1505.77 2.91847 -3.59694 0
M  V30 16242 C 1506.51 3.52303 -4.52404 0
M  V30 16243 N 1506 4.14092 -5.55427 0
M  V30 16244 N 1507.79 3.49778 -4.40013 0
M  V30 16245 H 1499.95 0.381596 -2.08944 0
M  V30 16246 H 1502.21 0.231451 -0.919312 0
M  V30 16247 H 1501.91 1.42008 -3.21756 0
M  V30 16248 H 1501.79 2.94446 -2.35757 0
M  V30 16249 H 1504.18 2.57812 -1.43586 0
M  V30 16250 H 1504.26 1.05388 -2.33082 0
M  V30 16251 H 1503.9 2.33925 -4.50823 0
M  V30 16252 H 1503.83 3.85968 -3.5824 0
M  V30 16253 H 1506.32 2.4794 -2.85191 0
M  V30 16254 H 1506.63 4.58183 -6.22325 0
M  V30 16255 H 1504.98 4.12616 -5.59261 0
M  V30 16256 H 1508.17 3.00712 -3.58733 0
M  V30 16257 H 1508.34 3.96603 -5.12455 0
M  V30 16258 N 1501.75 1.10074 1.1279 0
M  V30 16259 C 1502.97 0.863106 1.88587 0
M  V30 16260 C 1503.4 -0.580595 1.78915 0
M  V30 16261 O 1502.76 -1.40859 1.14142 0
M  V30 16262 C 1502.81 1.31142 3.35908 0
M  V30 16263 O 1501.91 0.474088 4.09666 0
M  V30 16264 H 1501.25 0.312034 0.586115 0
M  V30 16265 H 1503.78 1.46659 1.42662 0
M  V30 16266 H 1503.79 1.29974 3.86744 0
M  V30 16267 H 1502.47 2.36279 3.42265 0
M  V30 16268 H 1501.04 0.550665 3.68812 0
M  V30 16269 N 1503.23 -1.30138 0.888926 0
M  V30 16270 C 1504.18 -2.25598 0.33005 0
M  V30 16271 C 1505.16 -1.51434 -0.543751 0
M  V30 16272 O 1506.35 -1.72706 -0.387529 0
M  V30 16273 C 1503.48 -3.40326 -0.450925 0
M  V30 16274 C 1502.57 -4.21841 0.437187 0
M  V30 16275 N 1502.96 -4.81803 1.53947 0
M  V30 16276 C 1501.26 -4.45391 0.233015 0
M  V30 16277 C 1501.96 -5.42907 2.0887 0
M  V30 16278 N 1500.93 -5.25709 1.38314 0
M  V30 16279 H 1504.74 -2.6951 1.17224 0
M  V30 16280 H 1502.25 -1.44623 0.738771 0
M  V30 16281 H 1504.25 -4.07764 -0.867971 0
M  V30 16282 H 1502.91 -2.97953 -1.2905 0
M  V30 16283 H 1503.92 -4.80904 1.92229 0
M  V30 16284 H 1500.6 -4.13603 -0.569074 0
M  V30 16285 H 1501.99 -6.00478 3.01457 0
M  V30 16286 N 1504.71 -0.650285 -1.43559 0
M  V30 16287 C 1505.93 -0.168483 -2.06715 0
M  V30 16288 C 1506.36 1.15576 -1.48404 0
M  V30 16289 O 1505.71 1.71333 -0.592842 0
M  V30 16290 C 1505.76 -0.0877095 -3.60493 0
M  V30 16291 O 1504.87 0.950915 -4.01287 0
M  V30 16292 H 1504.21 -0.0935281 -0.65738 0
M  V30 16293 H 1506.74 -0.892381 -1.84113 0
M  V30 16294 H 1506.75 0.0965825 -4.07886 0
M  V30 16295 H 1505.42 -1.05442 -4.02312 0
M  V30 16296 H 1504 0.739648 -3.65491 0
M  V30 16297 N 1506.18 1.52647 -0.392018 0
M  V30 16298 C 1507.13 2.23336 0.458815 0
M  V30 16299 C 1508.12 1.23825 1.02743 0
M  V30 16300 O 1509.31 1.49148 0.953089 0
M  V30 16301 C 1506.44 3.04566 1.58412 0
M  V30 16302 C 1505.52 4.11474 1.02711 0
M  V30 16303 N 1505.92 5.05423 0.195282 0
M  V30 16304 C 1504.21 4.26654 1.29934 0
M  V30 16305 C 1504.91 5.81591 -0.112738 0
M  V30 16306 N 1503.89 5.4137 0.491926 0
M  V30 16307 H 1507.69 2.93328 -0.183222 0
M  V30 16308 H 1505.21 1.61145 -0.201476 0
M  V30 16309 H 1507.2 3.53747 2.2061 0
M  V30 16310 H 1505.86 2.36109 2.22896 0
M  V30 16311 H 1506.87 5.17628 -0.167677 0
M  V30 16312 H 1503.55 3.69426 1.94501 0
M  V30 16313 H 1504.94 6.67276 -0.786879 0
M  V30 16314 N 1507.66 0.121921 1.57128 0
M  V30 16315 C 1508.59 -0.823788 2.18486 0
M  V30 16316 C 1509.57 -1.27519 1.12574 0
M  V30 16317 O 1510.76 -1.33727 1.40822 0
M  V30 16318 C 1507.89 -2.07284 2.78659 0
M  V30 16319 C 1506.84 -1.75912 3.90178 0
M  V30 16320 C 1506.17 -3.07871 4.37172 0
M  V30 16321 C 1507.47 -1.02517 5.1214 0
M  V30 16322 H 1509.16 -0.312488 2.97765 0
M  V30 16323 H 1506.71 -0.148862 1.43228 0
M  V30 16324 H 1508.66 -2.73903 3.20242 0
M  V30 16325 H 1507.39 -2.60743 1.96673 0
M  V30 16326 H 1506.04 -1.11681 3.49174 0
M  V30 16327 H 1505.69 -3.59271 3.52041 0
M  V30 16328 H 1505.39 -2.87653 5.12376 0
M  V30 16329 H 1506.92 -3.75604 4.81409 0
M  V30 16330 H 1508.33 -1.59295 5.50725 0
M  V30 16331 H 1506.73 -0.923836 5.92946 0
M  V30 16332 H 1507.8 -0.0124219 4.84898 0
M  V30 16333 N 1509.14 -1.56867 -0.151857 0
M  V30 16334 C 1510.55 -1.72573 -0.712411 0
M  V30 16335 C 1510.9 -0.735557 -1.8189 0
M  V30 16336 O 1510.03 0.09888 -2.16174 0
M  V30 16337 C 1510.62 -3.12906 -1.29905 0
M  V30 16338 C 1509.18 -3.30231 -1.80623 0
M  V30 16339 C 1508.33 -2.68507 -0.692781 0
M  V30 16340 H 1511.28 -1.58528 0.0737603 0
M  V30 16341 H 1511.3 -3.12636 -2.16885 0
M  V30 16342 H 1510.81 -3.84949 -0.493509 0
M  V30 16343 H 1508.91 -2.63176 -2.6376 0
M  V30 16344 H 1509.03 -4.38141 -1.93828 0
M  V30 16345 H 1507.39 -2.28842 -1.11818 0
M  V30 16346 H 1508.17 -3.43151 0.10124 0
M  V30 16347 N 1510.62 0.421051 -1.51871 0
M  V30 16348 C 1512.03 1.00033 -1.5764 0
M  V30 16349 C 1512.38 1.91875 -0.409665 0
M  V30 16350 O 1511.51 2.11201 0.471516 0
M  V30 16351 C 1512.1 1.82099 -2.85701 0
M  V30 16352 C 1510.66 2.35049 -2.93988 0
M  V30 16353 C 1509.81 1.14703 -2.52465 0
M  V30 16354 H 1512.76 0.201715 -1.57413 0
M  V30 16355 H 1512.78 2.67719 -2.70382 0
M  V30 16356 H 1512.29 1.15229 -3.706 0
M  V30 16357 H 1510.39 3.05327 -2.13556 0
M  V30 16358 H 1510.5 2.66731 -3.97984 0
M  V30 16359 H 1508.87 1.49736 -2.06037 0
M  V30 16360 H 1509.65 0.494171 -3.39725 0
M  V30 16361 N 1512.1 1.42293 0.677538 0
M  V30 16362 C 1513.04 1.45556 1.79114 0
M  V30 16363 C 1514.01 0.307826 1.63223 0
M  V30 16364 O 1515.2 0.511504 1.83816 0
M  V30 16365 C 1512.34 1.36104 3.17127 0
M  V30 16366 C 1511.45 2.60891 3.44325 0
M  V30 16367 C 1510.59 2.43601 4.72051 0
M  V30 16368 C 1509.63 3.63775 4.92274 0
M  V30 16369 N 1508.76 3.45444 6.11239 0
M  V30 16370 H 1513.6 2.40723 1.7566 0
M  V30 16371 H 1511.14 1.19517 0.857565 0
M  V30 16372 H 1513.1 1.28622 3.96878 0
M  V30 16373 H 1511.73 0.445342 3.19713 0
M  V30 16374 H 1510.78 2.78751 2.58848 0
M  V30 16375 H 1512.09 3.50229 3.55163 0
M  V30 16376 H 1511.25 2.33689 5.59888 0
M  V30 16377 H 1509.98 1.51748 4.63491 0
M  V30 16378 H 1508.99 3.74122 4.0288 0
M  V30 16379 H 1510.21 4.56605 5.02681 0
M  V30 16380 H 1508.16 2.56306 6.03857 0
M  V30 16381 H 1508.08 4.28368 6.22926 0
M  V30 16382 H 1509.35 3.39339 7.01762 0
M  V30 16383 N 1513.57 -0.913576 1.28419 0
M  V30 16384 C 1514.52 -2.03739 1.1222 0
M  V30 16385 C 1515.52 -1.69349 0.0414309 0
M  V30 16386 O 1516.72 -1.78883 0.200213 0
M  V30 16387 H 1513.1 -0.667554 0.34623 0
M  V30 16388 H 1515.07 -2.14544 2.07397 0
M  V30 16389 C 1513.82 -3.38348 0.801003 0
M  V30 16390 H 1513.14 -3.65304 1.6246 0
M  V30 16391 H 1514.58 -4.1771 0.727611 0
M  V30 16392 C 1513.04 -3.3324 -0.495261 0
M  V30 16393 O 1513.57 -3.71606 -1.52551 0
M  V30 16394 N 1511.78 -2.86335 -0.496054 0
M  V30 16395 H 1511.32 -2.55309 0.342773 0
M  V30 16396 H 1511.28 -2.833 -1.3634 0
M  V30 16397 N 1515.05 -1.1067 -1.12204 0
M  V30 16398 C 1516 -0.757745 -2.18007 0
M  V30 16399 C 1516.97 0.26706 -1.63939 0
M  V30 16400 O 1518.15 0.145789 -1.90242 0
M  V30 16401 C 1515.29 -0.198379 -3.44529 0
M  V30 16402 C 1514.41 -1.27878 -4.12639 0
M  V30 16403 C 1513.54 -0.6808 -5.26819 0
M  V30 16404 C 1512.58 -1.74161 -5.868 0
M  V30 16405 N 1511.72 -1.16372 -6.92389 0
M  V30 16406 H 1516.56 -1.66418 -2.47202 0
M  V30 16407 H 1514.1 -0.831216 -1.21364 0
M  V30 16408 H 1516.05 0.143838 -4.16952 0
M  V30 16409 H 1514.68 0.671279 -3.15743 0
M  V30 16410 H 1513.74 -1.73808 -3.38371 0
M  V30 16411 H 1515.05 -2.08169 -4.53285 0
M  V30 16412 H 1514.2 -0.288172 -6.06015 0
M  V30 16413 H 1512.94 0.153521 -4.87458 0
M  V30 16414 H 1511.95 -2.14364 -5.06289 0
M  V30 16415 H 1513.17 -2.57882 -6.28231 0
M  V30 16416 H 1511.12 -0.350899 -6.55061 0
M  V30 16417 H 1511.03 -1.90344 -7.31646 0
M  V30 16418 H 1512.3 -0.797715 -7.75407 0
M  V30 16419 N 1516.53 1.29665 -0.895815 0
M  V30 16420 C 1517.48 2.29791 -0.360404 0
M  V30 16421 C 1518.47 1.60617 0.538384 0
M  V30 16422 O 1519.68 1.74993 0.421616 0
M  V30 16423 H 1516.05 0.745599 -0.0979118 0
M  V30 16424 H 1518.02 2.72396 -1.21832 0
M  V30 16425 C 1516.77 3.45386 0.400451 0
M  V30 16426 H 1516.1 3.98805 -0.281915 0
M  V30 16427 H 1517.54 4.17492 0.740003 0
M  V30 16428 C 1516 2.96393 1.60165 0
M  V30 16429 O 1516.53 2.97339 2.70097 0
M  V30 16430 N 1514.73 2.52271 1.44249 0
M  V30 16431 H 1514.28 2.51701 0.548142 0
M  V30 16432 H 1514.24 2.19849 2.24753 0
M  V30 16433 N 1518.01 0.657889 1.43212 0
M  V30 16434 C 1518.96 -0.0308596 2.30779 0
M  V30 16435 C 1519.93 -0.809951 1.45014 0
M  V30 16436 O 1521.11 -0.785615 1.73876 0
M  V30 16437 C 1518.25 -0.988048 3.30653 0
M  V30 16438 C 1517.36 -0.204567 4.31515 0
M  V30 16439 C 1516.5 -1.15598 5.1847 0
M  V30 16440 C 1515.54 -0.363197 6.11022 0
M  V30 16441 N 1514.67 -1.26644 6.90584 0
M  V30 16442 H 1519.51 0.721745 2.89128 0
M  V30 16443 H 1517.05 0.367677 1.42431 0
M  V30 16444 H 1519.01 -1.55666 3.87071 0
M  V30 16445 H 1517.64 -1.70747 2.73944 0
M  V30 16446 H 1516.69 0.48041 3.77354 0
M  V30 16447 H 1518 0.411684 4.97098 0
M  V30 16448 H 1517.16 -1.79507 5.79536 0
M  V30 16449 H 1515.9 -1.80613 4.53023 0
M  V30 16450 H 1514.9 0.28922 5.49039 0
M  V30 16451 H 1516.13 0.28262 6.78512 0
M  V30 16452 H 1514.07 -1.90331 6.27782 0
M  V30 16453 H 1513.99 -0.70486 7.52707 0
M  V30 16454 H 1515.26 -1.89353 7.56152 0
M  V30 16455 N 1519.49 -1.52437 0.400108 0
M  V30 16456 C 1520.43 -2.28312 -0.444572 0
M  V30 16457 C 1521.43 -1.32641 -1.0537 0
M  V30 16458 O 1522.63 -1.50136 -0.99293 0
M  V30 16459 H 1519.01 -0.734313 -0.162137 0
M  V30 16460 H 1520.98 -2.97612 0.216702 0
M  V30 16461 C 1519.73 -3.11044 -1.55393 0
M  V30 16462 H 1519.05 -3.84525 -1.09455 0
M  V30 16463 H 1520.49 -3.67255 -2.11896 0
M  V30 16464 C 1518.95 -2.24035 -2.51614 0
M  V30 16465 O 1519.48 -1.87447 -3.55284 0
M  V30 16466 N 1517.69 -1.87982 -2.2161 0
M  V30 16467 H 1517.23 -2.17936 -1.37338 0
M  V30 16468 H 1517.19 -1.30058 -2.86238 0
M  V30 16469 N 1520.96 -0.130252 -1.57061 0
M  V30 16470 C 1522.19 0.535707 -2.00362 0
M  V30 16471 C 1522.61 1.58712 -1.00956 0
M  V30 16472 O 1521.97 1.81292 0.0171546 0
M  V30 16473 C 1522.02 1.12836 -3.42491 0
M  V30 16474 O 1521.12 2.24367 -3.46025 0
M  V30 16475 H 1520.47 0.132735 -0.650598 0
M  V30 16476 H 1523 -0.222047 -2.03392 0
M  V30 16477 H 1523.01 1.46115 -3.80939 0
M  V30 16478 H 1521.68 0.358304 -4.14354 0
M  V30 16479 H 1520.26 1.92443 -3.19406 0
M  V30 16480 N 1522.44 1.56945 0.143535 0
M  V30 16481 C 1523.37 2.0156 1.17881 0
M  V30 16482 C 1524.35 0.895744 1.44604 0
M  V30 16483 O 1525.54 1.16379 1.55466 0
M  V30 16484 C 1522.67 2.39915 2.51114 0
M  V30 16485 C 1521.62 3.55117 2.38905 0
M  V30 16486 C 1520.95 3.79296 3.7688 0
M  V30 16487 C 1522.25 4.87668 1.87021 0
M  V30 16488 H 1523.94 2.88296 0.80783 0
M  V30 16489 H 1521.49 1.38698 0.387149 0
M  V30 16490 H 1523.44 2.69727 3.23767 0
M  V30 16491 H 1522.17 1.5012 2.90055 0
M  V30 16492 H 1520.83 3.25476 1.68703 0
M  V30 16493 H 1520.47 2.86747 4.13262 0
M  V30 16494 H 1520.17 4.56827 3.69571 0
M  V30 16495 H 1521.7 4.11537 4.51076 0
M  V30 16496 H 1523.11 5.16176 2.4947 0
M  V30 16497 H 1521.51 5.69029 1.90594 0
M  V30 16498 H 1522.58 4.77811 0.82611 0
M  V30 16499 N 1523.92 -0.412991 1.52093 0
M  V30 16500 C 1524.85 -1.50986 1.78117 0
M  V30 16501 C 1525.83 -1.57925 0.631963 0
M  V30 16502 O 1527.02 -1.73261 0.877168 0
M  V30 16503 C 1524.15 -2.88846 1.92835 0
M  V30 16504 C 1523.1 -2.96759 3.08412 0
M  V30 16505 C 1522.43 -4.36837 3.08347 0
M  V30 16506 C 1523.73 -2.68599 4.47942 0
M  V30 16507 H 1525.42 -1.29459 2.69964 0
M  V30 16508 H 1522.97 -0.621348 1.29905 0
M  V30 16509 H 1524.92 -3.65563 2.09623 0
M  V30 16510 H 1523.64 -3.11658 0.976553 0
M  V30 16511 H 1522.3 -2.22487 2.91368 0
M  V30 16512 H 1521.95 -4.56652 2.10897 0
M  V30 16513 H 1521.65 -4.43056 3.85973 0
M  V30 16514 H 1523.18 -5.15493 3.2726 0
M  V30 16515 H 1524.59 -3.35039 4.65212 0
M  V30 16516 H 1522.99 -2.86199 5.27456 0
M  V30 16517 H 1524.06 -1.64058 4.56304 0
M  V30 16518 N 1525.4 -1.4265 -0.669982 0
M  V30 16519 C 1526.65 -1.42667 -1.42579 0
M  V30 16520 C 1526.96 -0.0483217 -1.9554 0
M  V30 16521 O 1528.17 0.0740917 -2.71399 0
M  V30 16522 C 1526.62 -2.5098 -2.57948 0
M  V30 16523 C 1526.23 -3.94844 -2.11666 0
M  V30 16524 C 1527.98 -2.6017 -3.35428 0
M  V30 16525 C 1525.88 -4.94655 -3.24146 0
M  V30 16526 H 1524.81 -0.530651 -0.535654 0
M  V30 16527 H 1527.46 -1.68576 -0.724861 0
M  V30 16528 H 1525.85 -2.18244 -3.30432 0
M  V30 16529 H 1527.02 -4.36958 -1.46303 0
M  V30 16530 H 1525.33 -3.89547 -1.47111 0
M  V30 16531 H 1527.93 -3.31918 -4.19207 0
M  V30 16532 H 1528.27 -1.64683 -3.82342 0
M  V30 16533 H 1528.81 -2.92124 -2.70016 0
M  V30 16534 H 1525.55 -5.91636 -2.82218 0
M  V30 16535 H 1525.07 -4.57168 -3.88275 0
M  V30 16536 H 1526.75 -5.16593 -3.89538 0
M  V30 16537 N 1526.88 0.906753 -1.28902 0
M  V30 16538 C 1528.13 1.6533 -1.16234 0
M  V30 16539 C 1528.45 1.92861 0.288004 0
M  V30 16540 O 1527.72 1.54971 1.19837 0
M  V30 16541 H 1526.3 0.612806 -0.427174 0
M  V30 16542 H 1528.96 1.08764 -1.6173 0
M  V30 16543 H 1528.05 2.61271 -1.70715 0
M  V30 16544 N 1528.36 1.11264 1.11616 0
M  V30 16545 C 1529.29 0.79149 2.19676 0
M  V30 16546 C 1530.27 -0.239351 1.68408 0
M  V30 16547 O 1531.45 -0.103228 1.93925 0
M  V30 16548 C 1528.58 0.231891 3.46525 0
M  V30 16549 C 1527.54 1.19439 4.10997 0
M  V30 16550 C 1526.86 0.495593 5.32398 0
M  V30 16551 C 1528.16 2.54437 4.56135 0
M  V30 16552 H 1529.86 1.69503 2.46797 0
M  V30 16553 H 1527.4 0.816433 1.18619 0
M  V30 16554 H 1529.35 -0.00497468 4.214 0
M  V30 16555 H 1528.08 -0.706938 3.18857 0
M  V30 16556 H 1526.74 1.41686 3.38113 0
M  V30 16557 H 1526.39 -0.447984 5.01001 0
M  V30 16558 H 1526.09 1.13753 5.76484 0
M  V30 16559 H 1527.61 0.267476 6.10014 0
M  V30 16560 H 1529.02 2.36289 5.22341 0
M  V30 16561 H 1527.42 3.14595 5.11028 0
M  V30 16562 H 1528.49 3.13795 3.69676 0
M  V30 16563 N 1529.83 -1.29188 0.902679 0
M  V30 16564 C 1531.06 -2.00113 0.544953 0
M  V30 16565 C 1531.48 -1.67093 -0.863805 0
M  V30 16566 O 1530.84 -0.897179 -1.57545 0
M  V30 16567 C 1530.89 -3.52762 0.747741 0
M  V30 16568 O 1529.99 -4.11923 -0.198388 0
M  V30 16569 H 1529.33 -0.629054 0.212572 0
M  V30 16570 H 1531.86 -1.64611 1.21508 0
M  V30 16571 H 1531.87 -4.02732 0.653546 0
M  V30 16572 H 1530.55 -3.76131 1.77478 0
M  V30 16573 H 1529.13 -3.72857 -0.0563959 0
M  V30 16574 N 1531.31 -0.665475 -1.42861 0
M  V30 16575 C 1532.54 -0.192 -2.06007 0
M  V30 16576 C 1532.95 1.1472 -1.49949 0
M  V30 16577 O 1532.31 1.71074 -0.635599 0
M  V30 16578 C 1532.36 -0.108189 -3.61338 0
M  V30 16579 O 1532.08 -1.39446 -4.15315 0
M  V30 16580 C 1533.58 0.3899 -4.41582 0
M  V30 16581 H 1530.8 -0.0955812 -0.664158 0
M  V30 16582 H 1533.35 -0.909582 -1.83158 0
M  V30 16583 H 1531.5 0.560024 -3.83331 0
M  V30 16584 H 1531.92 -1.26168 -5.09099 0
M  V30 16585 H 1533.39 0.39747 -5.50567 0
M  V30 16586 H 1533.87 1.42348 -4.15492 0
M  V30 16587 H 1534.47 -0.246248 -4.24587 0
M  V30 16588 N 1532.79 1.52222 -0.408187 0
M  V30 16589 C 1534.04 2.01404 0.167574 0
M  V30 16590 C 1534.36 1.29572 1.45726 0
M  V30 16591 O 1533.63 0.421363 1.91315 0
M  V30 16592 H 1532.21 0.744174 0.0649156 0
M  V30 16593 H 1534.87 1.87148 -0.544212 0
M  V30 16594 H 1533.97 3.09966 0.36436 0
M  V30 16595 N 1534.27 0.138579 1.5699 0
M  V30 16596 C 1535.2 -0.800568 2.19347 0
M  V30 16597 C 1536.18 -1.26318 1.13921 0
M  V30 16598 O 1537.36 -1.32226 1.42232 0
M  V30 16599 C 1534.49 -2.04317 2.80842 0
M  V30 16600 C 1533.45 -1.71764 3.92022 0
M  V30 16601 C 1532.77 -3.03217 4.40413 0
M  V30 16602 C 1534.07 -0.970789 5.13199 0
M  V30 16603 H 1535.77 -0.280888 2.98079 0
M  V30 16604 H 1533.31 -0.133663 1.43378 0
M  V30 16605 H 1535.27 -2.70491 3.2313 0
M  V30 16606 H 1533.99 -2.58643 1.99428 0
M  V30 16607 H 1532.65 -1.07972 3.50339 0
M  V30 16608 H 1532.3 -3.55517 3.55832 0
M  V30 16609 H 1532 -2.82203 5.15398 0
M  V30 16610 H 1533.52 -3.70477 4.85365 0
M  V30 16611 H 1534.94 -1.53445 5.52384 0
M  V30 16612 H 1533.33 -0.860895 5.93893 0
M  V30 16613 H 1534.4 0.0390088 4.84884 0
M  V30 16614 N 1535.75 -1.57019 -0.13521 0
M  V30 16615 C 1536.99 -1.8399 -0.845818 0
M  V30 16616 C 1537.32 -0.721255 -1.80633 0
M  V30 16617 O 1536.58 0.288778 -1.93558 0
M  V30 16618 C 1536.87 -3.17358 -1.64373 0
M  V30 16619 C 1536.54 -4.43214 -0.828967 0
M  V30 16620 C 1535.2 -4.77391 -0.604226 0
M  V30 16621 C 1537.55 -5.20551 -0.259965 0
M  V30 16622 C 1534.88 -5.86359 0.200033 0
M  V30 16623 C 1537.23 -6.30364 0.531397 0
M  V30 16624 C 1535.9 -6.63083 0.766605 0
M  V30 16625 H 1535.17 -0.673266 -0.309507 0
M  V30 16626 H 1537.82 -1.9119 -0.108903 0
M  V30 16627 H 1536.12 -3.05661 -2.4511 0
M  V30 16628 H 1537.82 -3.35444 -2.19724 0
M  V30 16629 H 1534.41 -4.16427 -1.01421 0
M  V30 16630 H 1538.59 -4.94512 -0.420847 0
M  V30 16631 H 1533.85 -6.10144 0.391646 0
M  V30 16632 H 1538.02 -6.89479 0.979371 0
M  V30 16633 H 1535.65 -7.47354 1.39164 0
M  V30 16634 N 1537.22 0.404919 -1.52309 0
M  V30 16635 C 1538.5 1.16473 -1.57142 0
M  V30 16636 C 1538.88 2.08094 -0.354967 0
M  V30 16637 O 1538.23 2.18825 0.65788 0
M  V30 16638 C 1538.44 1.93834 -2.90223 0
M  V30 16639 C 1539.79 2.49754 -3.43378 0
M  V30 16640 O 1540.81 2.04009 -2.91991 0
M  V30 16641 O 1539.67 3.33271 -4.3312 0
M  V30 16642 H 1536.76 0.532036 -0.633141 0
M  V30 16643 H 1539.31 0.411359 -1.64639 0
M  V30 16644 H 1538.08 1.2674 -3.70206 0
M  V30 16645 H 1537.71 2.76167 -2.86038 0
M  V30 16646 N 1538.7 1.43003 0.662408 0
M  V30 16647 C 1539.67 1.4713 1.75743 0
M  V30 16648 C 1540.67 0.357203 1.56782 0
M  V30 16649 O 1541.86 0.618566 1.62848 0
M  V30 16650 C 1538.99 1.31499 3.14517 0
M  V30 16651 H 1540.18 2.44641 1.73467 0
M  V30 16652 H 1537.73 1.29633 0.873208 0
M  V30 16653 H 1538.47 0.349596 3.2241 0
M  V30 16654 H 1538.25 2.12253 3.29683 0
M  V30 16655 H 1539.74 1.37298 3.94384 0
M  V30 16656 N 1540.18 -0.899904 1.29381 0
M  V30 16657 C 1541.13 -2.02537 1.14375 0
M  V30 16658 C 1542.12 -1.69296 0.0593904 0
M  V30 16659 O 1543.33 -1.78661 0.219174 0
M  V30 16660 H 1539.7 -0.663844 0.353291 0
M  V30 16661 H 1541.67 -2.12332 2.0966 0
M  V30 16662 C 1540.42 -3.37479 0.836845 0
M  V30 16663 H 1539.75 -3.6356 1.66326 0
M  V30 16664 H 1541.19 -4.16915 0.771873 0
M  V30 16665 C 1539.65 -3.33746 -0.459889 0
M  V30 16666 O 1540.18 -3.73203 -1.48601 0
M  V30 16667 N 1538.38 -2.86845 -0.465657 0
M  V30 16668 H 1537.93 -2.54931 0.369833 0
M  V30 16669 H 1537.89 -2.8473 -1.33327 0
M  V30 16670 N 1541.66 -1.11854 -1.11024 0
M  V30 16671 C 1542.61 -0.77596 -2.19275 0
M  V30 16672 C 1543.6 0.234503 -1.67769 0
M  V30 16673 O 1544.81 0.0933372 -1.79758 0
M  V30 16674 H 1541.18 -0.23307 -0.71497 0
M  V30 16675 H 1543.15 -1.69749 -2.45414 0
M  V30 16676 C 1541.9 -0.240148 -3.4687 0
M  V30 16677 H 1541.22 -1.00895 -3.86859 0
M  V30 16678 H 1542.66 -0.0386799 -4.23982 0
M  V30 16679 C 1541.12 1.03056 -3.20751 0
M  V30 16680 O 1541.65 2.10948 -3.41854 0
M  V30 16681 N 1539.86 0.955066 -2.74457 0
M  V30 16682 H 1539.41 0.0769523 -2.57485 0
M  V30 16683 H 1539.36 1.80593 -2.57359 0
M  V30 16684 N 1543.14 1.28707 -0.909517 0
M  V30 16685 C 1544.55 1.77212 -0.587613 0
M  V30 16686 C 1544.9 1.74495 0.896986 0
M  V30 16687 O 1544.02 1.33698 1.70158 0
M  V30 16688 C 1544.62 3.21794 -1.05989 0
M  V30 16689 C 1543.18 3.68038 -0.788983 0
M  V30 16690 C 1542.32 2.48576 -1.22903 0
M  V30 16691 H 1545.28 1.1523 -1.09122 0
M  V30 16692 H 1545.3 3.78397 -0.399469 0
M  V30 16693 H 1544.81 3.23739 -2.14043 0
M  V30 16694 H 1542.91 3.71558 0.278523 0
M  V30 16695 H 1543.02 4.58379 -1.39376 0
M  V30 16696 H 1541.39 2.46323 -0.647838 0
M  V30 16697 H 1542.17 2.53243 -2.31782 0
M  V30 16698 N 1544.61 0.673042 1.42506 0
M  V30 16699 C 1545.56 -0.00638067 2.30799 0
M  V30 16700 C 1546.53 -0.794524 1.45865 0
M  V30 16701 O 1547.72 -0.767129 1.74699 0
M  V30 16702 C 1544.86 -0.952923 3.31683 0
M  V30 16703 C 1543.97 -0.158787 4.31708 0
M  V30 16704 C 1543.1 -1.10092 5.19666 0
M  V30 16705 C 1542.14 -0.29837 6.11372 0
M  V30 16706 N 1541.28 -1.19312 6.91888 0
M  V30 16707 H 1546.12 0.75237 2.88346 0
M  V30 16708 H 1543.66 0.382763 1.42033 0
M  V30 16709 H 1545.62 -1.51552 3.887 0
M  V30 16710 H 1544.25 -1.67832 2.75739 0
M  V30 16711 H 1543.3 0.520406 3.76823 0
M  V30 16712 H 1544.61 0.464385 4.96634 0
M  V30 16713 H 1543.76 -1.7335 5.81407 0
M  V30 16714 H 1542.5 -1.75798 4.54914 0
M  V30 16715 H 1541.51 0.347437 5.48701 0
M  V30 16716 H 1542.73 0.354569 6.78174 0
M  V30 16717 H 1540.68 -1.83661 6.29765 0
M  V30 16718 H 1540.6 -0.624986 7.53412 0
M  V30 16719 H 1541.86 -1.81323 7.58118 0
M  V30 16720 N 1546.09 -1.52004 0.416254 0
M  V30 16721 C 1547.03 -2.2371 -0.450474 0
M  V30 16722 C 1548 -1.24812 -1.04215 0
M  V30 16723 O 1549.19 -1.53885 -1.08866 0
M  V30 16724 C 1546.31 -2.97122 -1.62592 0
M  V30 16725 C 1545.36 -4.10508 -1.15695 0
M  V30 16726 S 1546.19 -5.35374 -0.116239 0
M  V30 16727 C 1547.35 -6.12318 -1.29684 0
M  V30 16728 H 1547.58 -2.96878 0.158361 0
M  V30 16729 H 1545.12 -1.53091 0.200602 0
M  V30 16730 H 1547.07 -3.40022 -2.2999 0
M  V30 16731 H 1545.73 -2.23583 -2.20611 0
M  V30 16732 H 1544.93 -4.61075 -2.03534 0
M  V30 16733 H 1544.53 -3.69761 -0.561518 0
M  V30 16734 H 1546.82 -6.40125 -2.21914 0
M  V30 16735 H 1547.76 -7.032 -0.831569 0
M  V30 16736 H 1548.17 -5.43487 -1.52586 0
M  V30 16737 N 1547.57 -0.146903 -1.56914 0
M  V30 16738 C 1548.5 0.788924 -2.19769 0
M  V30 16739 C 1549.48 1.25712 -1.14589 0
M  V30 16740 O 1550.67 1.3147 -1.42931 0
M  V30 16741 C 1547.8 2.02824 -2.81921 0
M  V30 16742 C 1546.75 1.69683 -3.92927 0
M  V30 16743 C 1546.08 3.00877 -4.42015 0
M  V30 16744 C 1547.38 0.943559 -5.13706 0
M  V30 16745 H 1549.07 0.265076 -2.98224 0
M  V30 16746 H 1546.62 0.126057 -1.43447 0
M  V30 16747 H 1548.57 2.68773 -3.2456 0
M  V30 16748 H 1547.29 2.57581 -2.00797 0
M  V30 16749 H 1545.95 1.06112 -3.50907 0
M  V30 16750 H 1545.6 3.53625 -3.57713 0
M  V30 16751 H 1545.3 2.79466 -5.16888 0
M  V30 16752 H 1546.82 3.67897 -4.87323 0
M  V30 16753 H 1548.24 1.50513 -5.5319 0
M  V30 16754 H 1546.64 0.829387 -5.94341 0
M  V30 16755 H 1547.71 -0.0647228 -4.84857 0
M  V30 16756 N 1549.05 1.57088 0.126881 0
M  V30 16757 C 1550.46 1.52205 0.480175 0
M  V30 16758 C 1550.66 0.858634 1.8229 0
M  V30 16759 O 1549.72 0.437636 2.48679 0
M  V30 16760 C 1551.03 2.96974 0.471931 0
M  V30 16761 C 1552.58 3.08021 0.556037 0
M  V30 16762 C 1553.06 4.54335 0.57826 0
M  V30 16763 N 1554.55 4.58758 0.639922 0
M  V30 16764 C 1555.28 5.69372 0.678434 0
M  V30 16765 N 1554.78 6.89503 0.67507 0
M  V30 16766 N 1556.57 5.57459 0.720845 0
M  V30 16767 H 1548.72 1.98604 -0.753008 0
M  V30 16768 H 1550.99 0.90666 -0.276895 0
M  V30 16769 H 1550.69 3.48849 -0.44687 0
M  V30 16770 H 1550.57 3.53994 1.3026 0
M  V30 16771 H 1552.95 2.56153 1.46526 0
M  V30 16772 H 1553.03 2.54009 -0.302171 0
M  V30 16773 H 1552.68 5.06847 -0.326884 0
M  V30 16774 H 1552.61 5.06151 1.45324 0
M  V30 16775 H 1555.1 3.72285 0.649005 0
M  V30 16776 H 1555.41 7.6956 0.706862 0
M  V30 16777 H 1553.76 6.92023 0.64262 0
M  V30 16778 H 1556.95 4.62517 0.720783 0
M  V30 16779 H 1557.12 6.43675 0.747392 0
M  V30 16780 N 1550.53 -0.396836 1.52522 0
M  V30 16781 C 1551.75 -1.16404 1.71049 0
M  V30 16782 C 1552.17 -1.83946 0.425378 0
M  V30 16783 O 1551.53 -1.7237 -0.599561 0
M  V30 16784 C 1551.58 -2.21796 2.85463 0
M  V30 16785 O 1551.3 -1.57009 4.08998 0
M  V30 16786 C 1552.8 -3.11303 3.15603 0
M  V30 16787 H 1550.02 -0.349314 0.572905 0
M  V30 16788 H 1552.56 -0.465297 1.99136 0
M  V30 16789 H 1550.72 -2.87318 2.59859 0
M  V30 16790 H 1551.13 -2.26977 4.72844 0
M  V30 16791 H 1552.61 -3.81299 3.99143 0
M  V30 16792 H 1553.08 -3.7437 2.2966 0
M  V30 16793 H 1553.69 -2.51435 3.43017 0
M  V30 16794 N 1552.01 -1.43353 -0.654814 0
M  V30 16795 C 1553.25 -1.46387 -1.42654 0
M  V30 16796 C 1553.61 -0.0850538 -1.91812 0
M  V30 16797 O 1554.81 0.00990964 -2.68798 0
M  V30 16798 C 1553.08 -2.47594 -2.57744 0
M  V30 16799 S 1554.64 -2.69491 -3.46295 0
M  V30 16800 H 1551.46 -0.518053 -0.486972 0
M  V30 16801 H 1554.06 -1.80107 -0.760382 0
M  V30 16802 H 1552.76 -3.46513 -2.19902 0
M  V30 16803 H 1552.3 -2.15367 -3.29212 0
M  V30 16804 H 1554.31 -1.99297 -4.54418 0
M  V30 16805 N 1553.48 0.89303 -1.29857 0
M  V30 16806 C 1554.71 1.6827 -1.21243 0
M  V30 16807 C 1555.13 1.86778 0.222621 0
M  V30 16808 O 1554.49 1.39291 1.1605 0
M  V30 16809 C 1554.54 3.041 -1.93792 0
M  V30 16810 O 1553.64 3.92696 -1.25951 0
M  V30 16811 H 1552.98 0.514479 -0.419771 0
M  V30 16812 H 1555.51 1.11513 -1.7154 0
M  V30 16813 H 1555.52 3.54198 -2.02504 0
M  V30 16814 H 1554.2 2.89948 -2.98166 0
M  V30 16815 H 1552.78 3.51132 -1.25541 0
M  V30 16816 N 1554.96 1.12442 1.10429 0
M  V30 16817 C 1555.89 0.814745 2.18824 0
M  V30 16818 C 1556.87 -0.221476 1.68652 0
M  V30 16819 O 1558.06 -0.0826537 1.94024 0
M  V30 16820 C 1555.19 0.268632 3.4626 0
M  V30 16821 C 1554.14 1.23792 4.09707 0
M  V30 16822 C 1553.47 0.552034 5.31843 0
M  V30 16823 C 1554.77 2.5926 4.53411 0
M  V30 16824 H 1556.46 1.72111 2.44986 0
M  V30 16825 H 1554.01 0.828968 1.17746 0
M  V30 16826 H 1555.96 0.0397207 4.21381 0
M  V30 16827 H 1554.68 -0.673079 3.19589 0
M  V30 16828 H 1553.34 1.45264 3.36592 0
M  V30 16829 H 1552.99 -0.394821 5.01448 0
M  V30 16830 H 1552.69 1.19861 5.75245 0
M  V30 16831 H 1554.22 0.332161 6.09696 0
M  V30 16832 H 1555.63 2.41816 5.19806 0
M  V30 16833 H 1554.03 3.19997 5.07663 0
M  V30 16834 H 1555.1 3.17699 3.66327 0
M  V30 16835 N 1556.44 -1.28223 0.91633 0
M  V30 16836 C 1557.85 -1.76898 0.597003 0
M  V30 16837 C 1558.2 -1.74969 -0.887719 0
M  V30 16838 O 1557.33 -1.34598 -1.69447 0
M  V30 16839 C 1557.92 -3.21228 1.07694 0
M  V30 16840 C 1556.48 -3.67614 0.80849 0
M  V30 16841 C 1555.63 -2.47921 1.24219 0
M  V30 16842 H 1558.58 -1.1465 1.09732 0
M  V30 16843 H 1558.6 -3.7818 0.419531 0
M  V30 16844 H 1558.11 -3.226 2.15757 0
M  V30 16845 H 1556.21 -3.717 -0.258814 0
M  V30 16846 H 1556.33 -4.57633 1.41804 0
M  V30 16847 H 1554.69 -2.45976 0.660892 0
M  V30 16848 H 1555.47 -2.5201 2.33122 0
M  V30 16849 N 1557.92 -0.68059 -1.42147 0
M  V30 16850 C 1559.19 -0.133957 -1.95141 0
M  V30 16851 C 1559.57 1.3526 -1.62074 0
M  V30 16852 O 1558.92 2.09165 -0.919898 0
M  V30 16853 C 1559.13 -0.409266 -3.46592 0
M  V30 16854 C 1560.48 -0.328899 -4.23324 0
M  V30 16855 O 1561.5 -0.343337 -3.54541 0
M  V30 16856 O 1560.36 -0.276076 -5.45802 0
M  V30 16857 H 1557.46 -0.00623443 -0.826977 0
M  V30 16858 H 1560 -0.755719 -1.51944 0
M  V30 16859 H 1558.78 -1.43883 -3.63887 0
M  V30 16860 H 1558.4 0.244216 -3.96849 0
M  V30 16861 N 1559.4 1.51781 -0.424309 0
M  V30 16862 C 1560.33 2.30313 0.384462 0
M  V30 16863 C 1561.31 1.35166 1.03268 0
M  V30 16864 O 1562.49 1.64081 1.0388 0
M  V30 16865 C 1559.62 3.13566 1.49311 0
M  V30 16866 C 1558.58 4.16884 0.969096 0
M  V30 16867 C 1557.9 4.88576 2.17251 0
M  V30 16868 C 1559.2 5.22298 0.0125613 0
M  V30 16869 H 1560.9 2.98172 -0.270871 0
M  V30 16870 H 1558.44 1.43396 -0.131712 0
M  V30 16871 H 1560.39 3.67279 2.06602 0
M  V30 16872 H 1559.12 2.43504 2.17655 0
M  V30 16873 H 1557.78 3.64203 0.418494 0
M  V30 16874 H 1557.43 4.15029 2.84183 0
M  V30 16875 H 1557.13 5.58432 1.82833 0
M  V30 16876 H 1558.65 5.45107 2.75119 0
M  V30 16877 H 1560.06 5.71161 0.494744 0
M  V30 16878 H 1558.46 5.99606 -0.243544 0
M  V30 16879 H 1559.53 4.75935 -0.92813 0
M  V30 16880 N 1560.87 0.155222 1.56834 0
M  V30 16881 C 1562.1 -0.503763 2.01189 0
M  V30 16882 C 1562.52 -1.57086 1.03468 0
M  V30 16883 O 1561.88 -1.81296 0.0116895 0
M  V30 16884 C 1561.93 -1.07373 3.44243 0
M  V30 16885 O 1561.03 -2.18834 3.49551 0
M  V30 16886 H 1560.37 -0.122368 0.652627 0
M  V30 16887 H 1562.9 0.254377 2.03013 0
M  V30 16888 H 1562.91 -1.40036 3.83215 0
M  V30 16889 H 1561.59 -0.292339 4.14871 0
M  V30 16890 H 1560.17 -1.87337 3.22427 0
M  V30 16891 N 1562.35 -1.57153 -0.118549 0
M  V30 16892 C 1563.3 -2.00374 -1.14538 0
M  V30 16893 C 1564.27 -0.875964 -1.41124 0
M  V30 16894 O 1565.45 -1.14022 -1.52982 0
M  V30 16895 C 1562.59 -2.4135 -2.46666 0
M  V30 16896 C 1561.71 -3.67545 -2.27012 0
M  V30 16897 C 1560.84 -3.975 -3.52374 0
M  V30 16898 C 1559.88 -5.16877 -3.27879 0
M  V30 16899 N 1559.02 -5.427 -4.45445 0
M  V30 16900 H 1563.86 -2.87885 -0.769821 0
M  V30 16901 H 1561.39 -1.42406 -0.368622 0
M  V30 16902 H 1563.35 -2.63144 -3.23745 0
M  V30 16903 H 1561.98 -1.5688 -2.82114 0
M  V30 16904 H 1561.03 -3.53364 -1.40848 0
M  V30 16905 H 1562.35 -4.54777 -2.04889 0
M  V30 16906 H 1561.5 -4.19945 -4.37871 0
M  V30 16907 H 1560.24 -3.08745 -3.77529 0
M  V30 16908 H 1559.24 -4.94276 -2.40773 0
M  V30 16909 H 1560.47 -6.0721 -3.04094 0
M  V30 16910 H 1558.42 -4.56902 -4.70719 0
M  V30 16911 H 1558.33 -6.24256 -4.26428 0
M  V30 16912 H 1559.6 -5.69664 -5.32074 0
M  V30 16913 N 1563.83 0.388742 -1.5273 0
M  V30 16914 C 1564.76 1.48133 -1.80496 0
M  V30 16915 C 1565.74 1.56899 -0.657008 0
M  V30 16916 O 1566.93 1.71844 -0.904621 0
M  V30 16917 C 1564.06 2.85742 -1.97405 0
M  V30 16918 C 1563.01 2.91815 -3.13094 0
M  V30 16919 C 1562.34 4.31876 -3.15258 0
M  V30 16920 C 1563.64 2.61438 -4.52159 0
M  V30 16921 H 1565.33 1.25147 -2.7199 0
M  V30 16922 H 1562.88 0.600603 -1.30877 0
M  V30 16923 H 1564.83 3.62182 -2.15412 0
M  V30 16924 H 1563.55 3.10065 -1.02601 0
M  V30 16925 H 1562.21 2.17824 -2.9487 0
M  V30 16926 H 1561.86 4.53239 -2.18135 0
M  V30 16927 H 1561.56 4.3686 -3.92972 0
M  V30 16928 H 1563.08 5.10221 -3.3542 0
M  V30 16929 H 1564.5 3.27596 -4.70483 0
M  V30 16930 H 1562.89 2.77771 -5.31943 0
M  V30 16931 H 1563.96 1.56778 -4.58856 0
M  V30 16932 N 1565.31 1.43698 0.647203 0
M  V30 16933 C 1566.55 1.45633 1.40703 0
M  V30 16934 C 1566.88 0.0828643 1.94323 0
M  V30 16935 O 1566.14 -0.913033 1.73096 0
M  V30 16936 C 1566.44 2.45083 2.60133 0
M  V30 16937 C 1566.1 3.9081 2.24896 0
M  V30 16938 C 1564.76 4.30499 2.14998 0
M  V30 16939 C 1567.12 4.8262 1.96794 0
M  V30 16940 C 1564.44 5.59942 1.75163 0
M  V30 16941 C 1566.8 6.12433 1.58456 0
M  V30 16942 C 1565.46 6.51092 1.47088 0
M  V30 16943 H 1564.73 0.53291 0.514867 0
M  V30 16944 H 1567.38 1.76814 0.735458 0
M  V30 16945 H 1565.68 2.07327 3.3245 0
M  V30 16946 H 1567.38 2.43833 3.1835 0
M  V30 16947 H 1563.97 3.59403 2.33512 0
M  V30 16948 H 1568.15 4.52724 2.03359 0
M  V30 16949 H 1563.41 5.88728 1.64952 0
M  V30 16950 H 1567.58 6.83042 1.35745 0
M  V30 16951 H 1565.21 7.51299 1.15992 0
M  V30 16952 N 1566.79 -0.886131 1.30328 0
M  V30 16953 C 1568.2 -1.16922 1.08634 0
M  V30 16954 C 1568.4 -2.00913 -0.15365 0
M  V30 16955 O 1567.46 -2.37849 -0.847592 0
M  V30 16956 C 1568.77 -1.87701 2.34923 0
M  V30 16957 C 1570.32 -2.0047 2.40376 0
M  V30 16958 C 1570.79 -2.74662 3.66504 0
M  V30 16959 N 1572.29 -2.82208 3.67305 0
M  V30 16960 C 1573.02 -3.40185 4.61586 0
M  V30 16961 N 1572.52 -3.99221 5.66211 0
M  V30 16962 N 1574.31 -3.37989 4.49132 0
M  V30 16963 H 1566.46 -0.326064 2.09882 0
M  V30 16964 H 1568.72 -0.206996 0.925125 0
M  V30 16965 H 1568.43 -1.33427 3.25408 0
M  V30 16966 H 1568.3 -2.88092 2.43481 0
M  V30 16967 H 1570.69 -2.53914 1.50371 0
M  V30 16968 H 1570.77 -0.991709 2.35794 0
M  V30 16969 H 1570.42 -2.2189 4.56867 0
M  V30 16970 H 1570.35 -3.76335 3.68347 0
M  V30 16971 H 1572.84 -2.40292 2.91665 0
M  V30 16972 H 1573.15 -4.41522 6.34254 0
M  V30 16973 H 1571.49 -3.97643 5.70004 0
M  V30 16974 H 1574.69 -2.91096 3.6658 0
M  V30 16975 H 1574.86 -3.82877 5.2279 0
M  V30 16976 N 1568.26 -1.13026 -1.09832 0
M  V30 16977 C 1569.49 -0.91246 -1.85693 0
M  V30 16978 C 1569.91 0.538558 -1.80956 0
M  V30 16979 O 1569.26 1.37262 -1.20273 0
M  V30 16980 C 1569.32 -1.38684 -3.3384 0
M  V30 16981 O 1569.04 -2.78099 -3.38515 0
M  V30 16982 C 1570.54 -1.20688 -4.26555 0
M  V30 16983 H 1567.76 -0.32565 -0.58668 0
M  V30 16984 H 1570.3 -1.50177 -1.38806 0
M  V30 16985 H 1568.46 -0.840617 -3.7817 0
M  V30 16986 H 1568.87 -2.99061 -4.30886 0
M  V30 16987 H 1570.34 -1.5876 -5.28677 0
M  V30 16988 H 1570.82 -0.148111 -4.3895 0
M  V30 16989 H 1571.43 -1.74092 -3.88036 0
M  V30 16990 N 1569.74 1.27735 -0.923117 0
M  V30 16991 C 1570.67 2.29395 -0.435907 0
M  V30 16992 C 1571.65 1.62542 0.501403 0
M  V30 16993 O 1572.84 1.89884 0.407135 0
M  V30 16994 C 1569.97 3.45856 0.316348 0
M  V30 16995 C 1568.92 4.24672 -0.532697 0
M  V30 16996 C 1568.25 5.33563 0.348454 0
M  V30 16997 C 1569.55 4.90494 -1.79481 0
M  V30 16998 H 1571.24 2.70398 -1.28551 0
M  V30 16999 H 1568.79 1.29989 -0.619581 0
M  V30 17000 H 1570.74 4.1607 0.668098 0
M  V30 17001 H 1569.47 3.03758 1.19994 0
M  V30 17002 H 1568.12 3.56198 -0.867093 0
M  V30 17003 H 1567.77 4.87708 1.23086 0
M  V30 17004 H 1567.47 5.87202 -0.216104 0
M  V30 17005 H 1569 6.06622 0.695878 0
M  V30 17006 H 1570.41 5.53019 -1.5114 0
M  V30 17007 H 1568.81 5.5417 -2.30251 0
M  V30 17008 H 1569.88 4.14454 -2.51707 0
M  V30 17009 N 1571.22 0.688118 1.41784 0
M  V30 17010 C 1572.15 -0.0323076 2.28177 0
M  V30 17011 C 1573.13 -0.795419 1.41816 0
M  V30 17012 O 1574.32 -0.787785 1.71249 0
M  V30 17013 C 1571.44 -1.05308 3.21913 0
M  V30 17014 C 1570.49 -0.384003 4.24768 0
M  V30 17015 S 1571.32 0.86817 5.28416 0
M  V30 17016 C 1572.48 -0.151191 6.25717 0
M  V30 17017 H 1572.71 0.700456 2.88931 0
M  V30 17018 H 1570.24 0.478125 1.46811 0
M  V30 17019 H 1572.2 -1.63689 3.76452 0
M  V30 17020 H 1570.86 -1.75837 2.6027 0
M  V30 17021 H 1570.06 -1.15469 4.90594 0
M  V30 17022 H 1569.66 0.126545 3.73786 0
M  V30 17023 H 1571.95 -1.0068 6.69977 0
M  V30 17024 H 1572.89 0.472955 7.06519 0
M  V30 17025 H 1573.3 -0.502631 5.62258 0
M  V30 17026 N 1572.7 -1.51554 0.432352 0
M  V30 17027 C 1573.98 -1.94621 -0.195472 0
M  V30 17028 C 1574.36 -1.37072 -1.60544 0
M  V30 17029 O 1573.7 -0.555781 -2.21638 0
M  V30 17030 C 1573.91 -3.48544 -0.178267 0
M  V30 17031 C 1575.26 -4.22839 -0.386283 0
M  V30 17032 O 1576.29 -3.55275 -0.256604 0
M  V30 17033 O 1575.14 -5.42693 -0.643927 0
M  V30 17034 H 1572.24 -0.816291 -0.132656 0
M  V30 17035 H 1574.78 -1.62473 0.489972 0
M  V30 17036 H 1573.56 -3.82874 0.807658 0
M  V30 17037 H 1573.18 -3.87121 -0.906832 0
M  V30 17038 N 1574.18 -0.163538 -1.56749 0
M  V30 17039 C 1575.42 0.48412 -1.96937 0
M  V30 17040 C 1575.76 1.63418 -1.04919 0
M  V30 17041 O 1575.03 1.94269 -0.094783 0
M  V30 17042 C 1575.31 0.974532 -3.46663 0
M  V30 17043 C 1575.17 -0.175173 -4.49459 0
M  V30 17044 C 1576.49 1.85082 -3.9929 0
M  V30 17045 H 1573.6 0.174503 -0.716043 0
M  V30 17046 H 1576.25 -0.248103 -1.88373 0
M  V30 17047 H 1574.4 1.59849 -3.54091 0
M  V30 17048 H 1576.07 -0.812038 -4.54096 0
M  V30 17049 H 1574.31 -0.831853 -4.2575 0
M  V30 17050 H 1574.98 0.20996 -5.51601 0
M  V30 17051 H 1577.46 1.32488 -3.94444 0
M  V30 17052 H 1576.33 2.163 -5.04485 0
M  V30 17053 H 1576.6 2.79378 -3.42638 0
M  V30 17054 N 1575.65 1.57214 0.110213 0
M  V30 17055 C 1577.07 1.74402 0.666405 0
M  V30 17056 C 1577.42 0.783524 1.79876 0
M  V30 17057 O 1576.54 -0.0415306 2.1636 0
M  V30 17058 C 1577.14 3.1624 1.21564 0
M  V30 17059 C 1575.7 3.34904 1.71804 0
M  V30 17060 C 1574.84 2.70249 0.621347 0
M  V30 17061 H 1577.79 1.58277 -0.115765 0
M  V30 17062 H 1577.81 3.18276 2.0852 0
M  V30 17063 H 1577.33 3.86123 0.391273 0
M  V30 17064 H 1575.43 2.70077 2.56689 0
M  V30 17065 H 1575.54 4.43126 1.82143 0
M  V30 17066 H 1573.9 2.31727 1.05711 0
M  V30 17067 H 1574.69 3.42762 -0.192185 0
M  V30 17068 N 1577.13 -0.380637 1.52934 0
M  V30 17069 C 1578.36 -1.14583 1.72274 0
M  V30 17070 C 1578.78 -1.83484 0.444864 0
M  V30 17071 O 1578.13 -1.72997 -0.581245 0
M  V30 17072 C 1578.18 -2.18756 2.87799 0
M  V30 17073 O 1577.9 -1.52662 4.10641 0
M  V30 17074 C 1579.41 -3.07938 3.18887 0
M  V30 17075 H 1576.63 -0.343218 0.576578 0
M  V30 17076 H 1579.17 -0.444149 1.99619 0
M  V30 17077 H 1577.32 -2.84546 2.62892 0
M  V30 17078 H 1577.74 -2.21949 4.75225 0
M  V30 17079 H 1579.21 -3.77045 4.03164 0
M  V30 17080 H 1579.69 -3.71913 2.33618 0
M  V30 17081 H 1580.3 -2.47783 3.45664 0
M  V30 17082 N 1578.61 -1.44039 -0.639573 0
M  V30 17083 C 1579.86 -1.46594 -1.40136 0
M  V30 17084 C 1580.19 -0.0949646 -1.93968 0
M  V30 17085 O 1579.46 0.886201 -1.73138 0
M  V30 17086 C 1579.75 -2.51947 -2.57283 0
M  V30 17087 C 1579.6 -3.98371 -2.08855 0
M  V30 17088 C 1580.92 -2.53891 -3.59482 0
M  V30 17089 H 1578.04 -0.533759 -0.508203 0
M  V30 17090 H 1580.68 -1.75669 -0.723898 0
M  V30 17091 H 1578.83 -2.27285 -3.15077 0
M  V30 17092 H 1580.5 -4.34137 -1.55956 0
M  V30 17093 H 1578.75 -4.10551 -1.40109 0
M  V30 17094 H 1579.42 -4.67721 -2.93157 0
M  V30 17095 H 1581.89 -2.75906 -3.11473 0
M  V30 17096 H 1580.77 -3.29524 -4.38982 0
M  V30 17097 H 1581.03 -1.57774 -4.12989 0
M  V30 17098 N 1580.09 0.879207 -1.30796 0
M  V30 17099 C 1581.34 1.62828 -1.19715 0
M  V30 17100 C 1581.66 1.93429 0.247031 0
M  V30 17101 O 1580.93 1.57478 1.16522 0
M  V30 17102 H 1579.51 0.603607 -0.440077 0
M  V30 17103 H 1582.17 1.05309 -1.64 0
M  V30 17104 H 1581.27 2.57591 -1.76219 0
M  V30 17105 N 1581.57 1.13606 1.09231 0
M  V30 17106 C 1582.84 0.81012 1.78035 0
M  V30 17107 C 1583.22 -0.697953 1.99228 0
M  V30 17108 O 1582.57 -1.63592 1.5953 0
M  V30 17109 C 1582.78 1.59932 3.10198 0
M  V30 17110 C 1584.13 1.79328 3.84872 0
M  V30 17111 O 1585.15 1.56547 3.19955 0
M  V30 17112 O 1584.01 2.17355 5.01417 0
M  V30 17113 H 1581.11 0.295995 0.772215 0
M  V30 17114 H 1583.65 1.24079 1.15769 0
M  V30 17115 H 1582.43 2.6241 2.9027 0
M  V30 17116 H 1582.05 1.16371 3.80189 0
M  V30 17117 N 1583.05 -1.27244 0.929878 0
M  V30 17118 C 1584.29 -1.94557 0.572306 0
M  V30 17119 C 1584.62 -1.72886 -0.884542 0
M  V30 17120 O 1583.9 -1.0592 -1.63129 0
M  V30 17121 C 1584.18 -3.48629 0.901675 0
M  V30 17122 C 1584.04 -3.79633 2.41244 0
M  V30 17123 C 1585.35 -4.38195 0.409093 0
M  V30 17124 H 1582.47 -0.706627 0.209397 0
M  V30 17125 H 1585.12 -1.50321 1.16205 0
M  V30 17126 H 1583.27 -3.86437 0.399791 0
M  V30 17127 H 1584.94 -3.51604 2.98618 0
M  V30 17128 H 1583.18 -3.26108 2.8607 0
M  V30 17129 H 1583.85 -4.87284 2.59342 0
M  V30 17130 H 1586.33 -4.07548 0.839256 0
M  V30 17131 H 1585.2 -5.44814 0.668482 0
M  V30 17132 H 1585.46 -4.36669 -0.690861 0
M  V30 17133 N 1584.52 -0.695628 -1.41417 0
M  V30 17134 C 1585.94 -0.367185 -1.55319 0
M  V30 17135 C 1586.14 1.12584 -1.67114 0
M  V30 17136 O 1585.2 1.91166 -1.64959 0
M  V30 17137 C 1586.51 -1.11576 -2.79233 0
M  V30 17138 C 1588.06 -1.10011 -2.9303 0
M  V30 17139 C 1588.53 -1.83044 -4.19832 0
M  V30 17140 N 1590.02 -1.80014 -4.26789 0
M  V30 17141 C 1590.76 -2.33362 -5.23765 0
M  V30 17142 N 1590.25 -2.95182 -6.26769 0
M  V30 17143 N 1592.05 -2.23618 -5.15705 0
M  V30 17144 H 1584.2 -1.66398 -1.32006 0
M  V30 17145 H 1586.46 -0.702205 -0.636877 0
M  V30 17146 H 1586.17 -2.1706 -2.76727 0
M  V30 17147 H 1586.04 -0.694385 -3.70753 0
M  V30 17148 H 1588.43 -0.0535436 -2.95051 0
M  V30 17149 H 1588.51 -1.56055 -2.02683 0
M  V30 17150 H 1588.15 -2.8768 -4.18572 0
M  V30 17151 H 1588.08 -1.34434 -5.09151 0
M  V30 17152 H 1590.57 -1.34942 -3.52986 0
M  V30 17153 H 1590.89 -3.33456 -6.97156 0
M  V30 17154 H 1589.23 -2.99259 -6.27271 0
M  V30 17155 H 1592.42 -1.74994 -4.3416 0
M  V30 17156 H 1592.6 -2.65497 -5.91113 0
M  V30 17157 N 1586 1.51322 -0.440383 0
M  V30 17158 C 1586.93 2.25587 0.40537 0
M  V30 17159 C 1587.95 1.29721 0.983686 0
M  V30 17160 O 1589.14 1.55453 0.877308 0
M  V30 17161 C 1586.24 2.99848 1.57938 0
M  V30 17162 C 1585.41 4.22834 1.11939 0
M  V30 17163 C 1584.47 4.79649 2.16387 0
M  V30 17164 O 1583.49 5.41405 1.75697 0
M  V30 17165 N 1584.7 4.63948 3.48902 0
M  V30 17166 H 1587.46 2.98807 -0.231143 0
M  V30 17167 H 1585.02 1.59642 -0.26944 0
M  V30 17168 H 1587.01 3.34743 2.2744 0
M  V30 17169 H 1585.58 2.29619 2.12117 0
M  V30 17170 H 1584.8 3.93398 0.251323 0
M  V30 17171 H 1586.09 5.02637 0.7895 0
M  V30 17172 H 1585.49 4.14764 3.84691 0
M  V30 17173 H 1584.05 5.03196 4.14291 0
M  V30 17174 N 1587.48 0.171848 1.5666 0
M  V30 17175 C 1588.76 -0.519355 1.88579 0
M  V30 17176 C 1589.14 -1.81273 1.08182 0
M  V30 17177 O 1588.48 -2.27822 0.175895 0
M  V30 17178 C 1588.69 -0.760743 3.40608 0
M  V30 17179 C 1590.04 -1.09051 4.10357 0
M  V30 17180 O 1591.07 -0.849264 3.45928 0
M  V30 17181 O 1589.93 -1.54566 5.24187 0
M  V30 17182 H 1587.02 -0.267782 0.782446 0
M  V30 17183 H 1589.57 0.210323 1.68392 0
M  V30 17184 H 1588.34 0.153577 3.90999 0
M  V30 17185 H 1587.96 -1.54372 3.66408 0
M  V30 17186 N 1588.96 -1.5727 -0.101874 0
M  V30 17187 C 1589.91 -2.0258 -1.14297 0
M  V30 17188 C 1590.9 -0.925674 -1.41872 0
M  V30 17189 O 1592.11 -1.11086 -1.41633 0
M  V30 17190 H 1588.48 -0.645504 -0.385782 0
M  V30 17191 H 1590.45 -2.8922 -0.734453 0
M  V30 17192 C 1589.2 -2.46036 -2.45686 0
M  V30 17193 H 1588.52 -3.30266 -2.2531 0
M  V30 17194 H 1589.96 -2.81522 -3.17051 0
M  V30 17195 C 1588.42 -1.33089 -3.09498 0
M  V30 17196 O 1588.95 -0.656277 -3.96303 0
M  V30 17197 N 1587.16 -1.08359 -2.69642 0
M  V30 17198 H 1586.71 -1.63397 -1.99146 0
M  V30 17199 H 1586.66 -0.329859 -3.12665 0
M  V30 17200 N 1590.44 0.372521 -1.53134 0
M  V30 17201 C 1591.37 1.4621 -1.82057 0
M  V30 17202 C 1592.35 1.56194 -0.673612 0
M  V30 17203 O 1593.53 1.70875 -0.922797 0
M  V30 17204 C 1590.66 2.83632 -2.00425 0
M  V30 17205 C 1589.62 2.88478 -3.16171 0
M  V30 17206 C 1588.94 4.28508 -3.19821 0
M  V30 17207 C 1590.24 2.56628 -4.54906 0
M  V30 17208 H 1591.94 1.22256 -2.73302 0
M  V30 17209 H 1589.48 0.586688 -1.31507 0
M  V30 17210 H 1591.43 3.59876 -2.19242 0
M  V30 17211 H 1590.16 3.0896 -1.05884 0
M  V30 17212 H 1588.82 2.14684 -2.97164 0
M  V30 17213 H 1588.47 4.509 -2.2293 0
M  V30 17214 H 1588.17 4.32667 -3.97584 0
M  V30 17215 H 1589.69 5.06635 -3.40813 0
M  V30 17216 H 1591.1 3.22587 -4.73931 0
M  V30 17217 H 1589.5 2.72114 -5.34859 0
M  V30 17218 H 1590.57 1.51902 -4.60493 0
M  V30 17219 N 1591.91 1.44376 0.631925 0
M  V30 17220 C 1592.82 1.5367 1.77264 0
M  V30 17221 C 1593.84 0.422425 1.68794 0
M  V30 17222 O 1595.02 0.679656 1.89585 0
M  V30 17223 C 1592.08 1.47743 3.13644 0
M  V30 17224 C 1591.14 2.70015 3.33752 0
M  V30 17225 C 1590.37 2.64362 4.63626 0
M  V30 17226 O 1590.6 1.7032 5.44378 0
M  V30 17227 O 1589.53 3.55201 4.85918 0
M  V30 17228 H 1593.36 2.5004 1.72376 0
M  V30 17229 H 1590.94 1.26614 0.793052 0
M  V30 17230 H 1592.82 1.46958 3.94945 0
M  V30 17231 H 1591.5 0.545165 3.19076 0
M  V30 17232 H 1590.41 2.76369 2.52133 0
M  V30 17233 H 1591.74 3.62286 3.33181 0
M  V30 17234 N 1593.39 -0.872258 1.31261 0
M  V30 17235 C 1594.64 -1.6199 1.20176 0
M  V30 17236 C 1594.95 -1.94129 -0.239439 0
M  V30 17237 O 1596.16 -2.67366 -0.471956 0
M  V30 17238 C 1594.62 -2.92017 2.10366 0
M  V30 17239 C 1594.22 -2.6737 3.59468 0
M  V30 17240 C 1595.97 -3.70007 2.08075 0
M  V30 17241 C 1593.87 -3.93291 4.41674 0
M  V30 17242 H 1592.8 -0.607793 0.446211 0
M  V30 17243 H 1595.46 -0.964627 1.561 0
M  V30 17244 H 1593.84 -3.58907 1.67338 0
M  V30 17245 H 1595.01 -2.08902 4.10727 0
M  V30 17246 H 1593.33 -2.02738 3.63712 0
M  V30 17247 H 1595.92 -4.63416 2.66739 0
M  V30 17248 H 1596.27 -4.02385 1.06733 0
M  V30 17249 H 1596.8 -3.09998 2.49291 0
M  V30 17250 H 1593.54 -3.66064 5.43762 0
M  V30 17251 H 1593.06 -4.51218 3.95174 0
M  V30 17252 H 1594.74 -4.61197 4.53769 0
M  V30 17253 N 1594.87 -1.14184 -1.08627 0
M  V30 17254 C 1596.15 -0.81955 -1.77603 0
M  V30 17255 C 1596.53 0.687377 -1.99595 0
M  V30 17256 O 1595.87 1.62744 -1.60396 0
M  V30 17257 C 1596.08 -1.61574 -3.09346 0
M  V30 17258 C 1597.43 -1.81367 -3.83916 0
M  V30 17259 O 1598.46 -1.58241 -3.19121 0
M  V30 17260 O 1597.32 -2.20011 -5.00257 0
M  V30 17261 H 1594.41 -0.300086 -0.770635 0
M  V30 17262 H 1596.96 -1.24691 -1.15109 0
M  V30 17263 H 1595.73 -2.63946 -2.88874 0
M  V30 17264 H 1595.35 -1.18386 -3.79566 0
M  V30 17265 N 1596.35 1.26749 -0.936613 0
M  V30 17266 C 1597.26 2.30272 -0.448573 0
M  V30 17267 C 1598.27 1.67386 0.475184 0
M  V30 17268 O 1599.45 1.98232 0.355825 0
M  V30 17269 C 1596.52 3.45546 0.28262 0
M  V30 17270 C 1595.58 4.23926 -0.677138 0
M  V30 17271 C 1594.81 5.33697 0.019255 0
M  V30 17272 O 1595.03 5.56825 1.23703 0
M  V30 17273 O 1593.97 5.98302 -0.657119 0
M  V30 17274 H 1597.79 2.74072 -1.30838 0
M  V30 17275 H 1595.38 1.31863 -0.702314 0
M  V30 17276 H 1597.26 4.15635 0.694686 0
M  V30 17277 H 1595.93 3.03784 1.11789 0
M  V30 17278 H 1594.84 3.56337 -1.13906 0
M  V30 17279 H 1596.17 4.69425 -1.47988 0
M  V30 17280 N 1597.83 0.703118 1.41046 0
M  V30 17281 C 1599.08 0.234346 2.00334 0
M  V30 17282 C 1599.39 -1.17524 1.56357 0
M  V30 17283 O 1600.59 -1.74188 2.08257 0
M  V30 17284 C 1599.05 0.368067 3.58013 0
M  V30 17285 C 1598.66 1.7835 4.10969 0
M  V30 17286 C 1600.4 -0.0405456 4.24481 0
M  V30 17287 C 1598.31 1.86848 5.61108 0
M  V30 17288 H 1597.24 0.0838583 0.749322 0
M  V30 17289 H 1599.89 0.872407 1.61435 0
M  V30 17290 H 1598.27 -0.338371 3.94552 0
M  V30 17291 H 1599.45 2.51931 3.85833 0
M  V30 17292 H 1597.76 2.14246 3.57054 0
M  V30 17293 H 1600.36 0.00239803 5.347 0
M  V30 17294 H 1600.7 -1.08049 4.02034 0
M  V30 17295 H 1601.23 0.615887 3.93003 0
M  V30 17296 H 1597.97 2.8892 5.88392 0
M  V30 17297 H 1597.49 1.17662 5.88146 0
M  V30 17298 H 1599.17 1.63484 6.26005 0
M  V30 17299 N 1599.3 -1.51086 0.448402 0
M  V30 17300 C 1600.21 -2.3177 -0.363323 0
M  V30 17301 C 1601.23 -1.41159 -1.01736 0
M  V30 17302 O 1602.41 -1.74226 -1.01031 0
M  V30 17303 C 1599.47 -3.15211 -1.4437 0
M  V30 17304 C 1598.53 -4.21615 -0.808643 0
M  V30 17305 C 1597.77 -5.01069 -1.83754 0
M  V30 17306 O 1597.99 -4.81296 -3.06121 0
M  V30 17307 O 1596.92 -5.84863 -1.42193 0
M  V30 17308 H 1600.75 -3.02257 0.295653 0
M  V30 17309 H 1598.33 -1.47907 0.210703 0
M  V30 17310 H 1600.22 -3.67053 -2.07002 0
M  V30 17311 H 1598.89 -2.47476 -2.08656 0
M  V30 17312 H 1597.8 -3.73823 -0.143975 0
M  V30 17313 H 1599.13 -4.91756 -0.209098 0
M  V30 17314 N 1600.78 -0.180154 -1.56567 0
M  V30 17315 C 1602.06 0.509347 -1.88852 0
M  V30 17316 C 1602.44 1.80697 -1.09141 0
M  V30 17317 O 1601.79 2.27726 -0.187974 0
M  V30 17318 C 1602 0.742669 -3.41006 0
M  V30 17319 C 1603.35 1.06873 -4.1093 0
M  V30 17320 O 1604.37 0.830907 -3.46373 0
M  V30 17321 O 1603.23 1.51784 -5.24999 0
M  V30 17322 H 1600.32 0.263629 -0.783855 0
M  V30 17323 H 1602.87 -0.219251 -1.68278 0
M  V30 17324 H 1601.64 -0.17431 -3.90912 0
M  V30 17325 H 1601.26 1.52427 -3.67222 0
M  V30 17326 N 1602.26 1.57322 0.0935319 0
M  V30 17327 C 1603.17 2.05499 1.13169 0
M  V30 17328 C 1604.19 0.980199 1.43764 0
M  V30 17329 O 1605.36 1.29347 1.54374 0
M  V30 17330 C 1602.43 2.47111 2.43181 0
M  V30 17331 C 1601.49 3.68791 2.19754 0
M  V30 17332 C 1600.72 4.08408 3.43567 0
M  V30 17333 O 1600.94 3.48104 4.51863 0
M  V30 17334 O 1599.88 5.01351 3.33062 0
M  V30 17335 H 1603.7 2.9423 0.752491 0
M  V30 17336 H 1601.29 1.4623 0.306151 0
M  V30 17337 H 1603.17 2.74495 3.19735 0
M  V30 17338 H 1601.85 1.61518 2.80524 0
M  V30 17339 H 1600.75 3.46521 1.40976 0
M  V30 17340 H 1602.09 4.55169 1.87303 0
M  V30 17341 N 1603.74 -0.364395 1.53329 0
M  V30 17342 C 1604.69 -1.46678 1.80523 0
M  V30 17343 C 1605.68 -1.55396 0.674421 0
M  V30 17344 O 1606.89 -1.58268 0.857385 0
M  V30 17345 H 1603.26 -0.488652 0.571597 0
M  V30 17346 H 1605.23 -1.20947 2.7279 0
M  V30 17347 C 1603.98 -2.83496 2.01309 0
M  V30 17348 H 1603.3 -2.77546 2.87764 0
M  V30 17349 H 1604.74 -3.59805 2.24313 0
M  V30 17350 C 1603.2 -3.27445 0.792539 0
M  V30 17351 O 1603.73 -4.01696 -0.0181965 0
M  V30 17352 N 1601.94 -2.84004 0.615643 0
M  V30 17353 H 1601.49 -2.23746 1.27654 0
M  V30 17354 H 1601.44 -3.13766 -0.199604 0
M  V30 17355 N 1605.22 -1.44709 -0.62426 0
M  V30 17356 C 1606.47 -1.47131 -1.37968 0
M  V30 17357 C 1606.78 -0.110507 -1.95288 0
M  V30 17358 O 1607.98 -0.0122892 -2.71497 0
M  V30 17359 C 1606.44 -2.59059 -2.49833 0
M  V30 17360 C 1606.05 -4.01378 -1.98997 0
M  V30 17361 C 1607.79 -2.70709 -3.26981 0
M  V30 17362 C 1605.7 -5.04717 -3.08244 0
M  V30 17363 H 1604.63 -0.547424 -0.5185 0
M  V30 17364 H 1607.28 -1.70797 -0.670863 0
M  V30 17365 H 1605.66 -2.28646 -3.23322 0
M  V30 17366 H 1606.84 -4.41391 -1.32327 0
M  V30 17367 H 1605.15 -3.9403 -1.34644 0
M  V30 17368 H 1607.75 -3.45087 -4.08435 0
M  V30 17369 H 1608.09 -1.76763 -3.76909 0
M  V30 17370 H 1608.62 -3.00566 -2.60585 0
M  V30 17371 H 1605.36 -6.00315 -2.63253 0
M  V30 17372 H 1604.88 -4.6929 -3.73534 0
M  V30 17373 H 1606.56 -5.28725 -3.72906 0
M  V30 17374 N 1606.69 0.865285 -1.31722 0
M  V30 17375 C 1607.64 1.97294 -1.19766 0
M  V30 17376 C 1608.61 1.65896 -0.0823232 0
M  V30 17377 O 1609.8 1.89075 -0.256009 0
M  V30 17378 C 1606.94 3.32727 -0.915776 0
M  V30 17379 C 1606.05 3.76691 -2.11489 0
M  V30 17380 C 1605.18 5.00865 -1.76939 0
M  V30 17381 C 1604.22 5.37291 -2.93232 0
M  V30 17382 N 1603.36 6.52643 -2.58846 0
M  V30 17383 H 1608.2 2.06851 -2.14515 0
M  V30 17384 H 1605.74 1.01256 -1.06703 0
M  V30 17385 H 1607.7 4.10712 -0.732881 0
M  V30 17386 H 1606.33 3.228 -0.00510917 0
M  V30 17387 H 1605.38 2.94449 -2.4084 0
M  V30 17388 H 1606.69 3.99613 -2.98514 0
M  V30 17389 H 1605.84 5.86529 -1.5514 0
M  V30 17390 H 1604.58 4.79857 -0.871125 0
M  V30 17391 H 1603.59 4.50143 -3.15675 0
M  V30 17392 H 1604.81 5.60262 -3.83775 0
M  V30 17393 H 1602.76 6.33172 -1.71548 0
M  V30 17394 H 1602.68 6.75531 -3.39401 0
M  V30 17395 H 1603.94 7.41487 -2.40451 0
M  V30 17396 N 1608.17 1.14759 1.0802 0
M  V30 17397 C 1609.08 0.851934 2.18585 0
M  V30 17398 C 1610.1 -0.16914 1.73176 0
M  V30 17399 O 1611.27 0.00330114 2.014 0
M  V30 17400 C 1608.34 0.337977 3.45049 0
M  V30 17401 C 1607.4 1.4221 4.05061 0
M  V30 17402 C 1606.63 0.932574 5.25489 0
M  V30 17403 O 1606.86 -0.224457 5.69958 0
M  V30 17404 O 1605.79 1.7133 5.77001 0
M  V30 17405 H 1609.62 1.77605 2.46354 0
M  V30 17406 H 1607.2 0.926159 1.17229 0
M  V30 17407 H 1609.08 0.0574734 4.21361 0
M  V30 17408 H 1607.76 -0.558363 3.18848 0
M  V30 17409 H 1606.67 1.75612 3.3032 0
M  V30 17410 H 1608 2.29311 4.3552 0
M  V30 17411 N 1609.65 -1.26251 0.943322 0
M  V30 17412 C 1610.9 -1.9327 0.590863 0
M  V30 17413 C 1611.22 -1.74356 -0.873212 0
M  V30 17414 O 1610.49 -1.10046 -1.6207 0
M  V30 17415 H 1609.07 -0.71523 0.215535 0
M  V30 17416 H 1611.73 -1.53647 1.19911 0
M  V30 17417 H 1610.83 -3.01393 0.810475 0
M  V30 17418 N 1611.13 -0.710588 -1.40671 0
M  V30 17419 C 1612.54 -0.320926 -1.83921 0
M  V30 17420 C 1612.89 1.14358 -1.59426 0
M  V30 17421 O 1612.02 1.87952 -1.07252 0
M  V30 17422 C 1612.61 -0.5757 -3.33873 0
M  V30 17423 C 1611.17 -0.239799 -3.75635 0
M  V30 17424 C 1610.32 -0.850552 -2.63934 0
M  V30 17425 H 1613.27 -0.910118 -1.3001 0
M  V30 17426 H 1613.29 0.160707 -3.8016 0
M  V30 17427 H 1612.8 -1.64166 -3.51669 0
M  V30 17428 H 1610.9 0.821297 -3.63436 0
M  V30 17429 H 1611.02 -0.705306 -4.7388 0
M  V30 17430 H 1609.38 -0.278977 -2.53168 0
M  V30 17431 H 1610.16 -1.92068 -2.84543 0
M  V30 17432 N 1612.61 1.50847 -0.456408 0
M  V30 17433 C 1613.83 2.07139 0.104054 0
M  V30 17434 C 1614.26 1.31966 1.34039 0
M  V30 17435 O 1613.62 0.363038 1.77628 0
M  V30 17436 C 1613.66 3.5853 0.385794 0
M  V30 17437 O 1612.77 3.85351 1.46895 0
M  V30 17438 H 1612.11 0.663968 -0.00651246 0
M  V30 17439 H 1614.64 1.94226 -0.64323 0
M  V30 17440 H 1614.65 4.03097 0.630644 0
M  V30 17441 H 1613.32 4.12665 -0.51773 0
M  V30 17442 H 1611.9 3.52635 1.21256 0
M  V30 17443 N 1614.09 0.188454 1.56469 0
M  V30 17444 C 1615.36 -0.499324 1.89119 0
M  V30 17445 C 1615.74 -1.80116 1.10098 0
M  V30 17446 O 1615.09 -2.27623 0.200048 0
M  V30 17447 C 1615.3 -0.724574 3.41396 0
M  V30 17448 C 1616.65 -1.04692 4.11491 0
M  V30 17449 O 1617.67 -0.812526 3.46809 0
M  V30 17450 O 1616.53 -1.48998 5.25797 0
M  V30 17451 H 1613.63 -0.259468 0.785242 0
M  V30 17452 H 1616.17 0.228172 1.68159 0
M  V30 17453 H 1614.94 0.195039 3.90814 0
M  V30 17454 H 1614.57 -1.50477 3.68025 0
M  V30 17455 N 1615.56 -1.5737 -0.0851874 0
M  V30 17456 C 1616.79 -1.91183 -0.803983 0
M  V30 17457 C 1617.21 -0.78365 -1.70999 0
M  V30 17458 O 1616.57 0.264266 -1.79364 0
M  V30 17459 C 1616.62 -3.239 -1.58496 0
M  V30 17460 O 1615.72 -3.12189 -2.69466 0
M  V30 17461 H 1615.06 -0.626413 -0.220233 0
M  V30 17462 H 1617.59 -2.04519 -0.0574426 0
M  V30 17463 H 1617.6 -3.5745 -1.96707 0
M  V30 17464 H 1616.28 -4.05594 -0.920111 0
M  V30 17465 H 1614.86 -2.90173 -2.3421 0
M  V30 17466 N 1617.04 0.356258 -1.53521 0
M  V30 17467 C 1617.95 1.46055 -1.83589 0
M  V30 17468 C 1618.97 1.58176 -0.724997 0
M  V30 17469 O 1620.14 1.73894 -1.01601 0
M  V30 17470 C 1617.21 2.81207 -2.0279 0
M  V30 17471 C 1616.27 2.78535 -3.26675 0
M  V30 17472 C 1615.5 4.07241 -3.4495 0
M  V30 17473 O 1615.73 5.03879 -2.67324 0
M  V30 17474 O 1614.66 4.12485 -4.38337 0
M  V30 17475 H 1618.49 1.23566 -2.77426 0
M  V30 17476 H 1616.07 0.547243 -1.39017 0
M  V30 17477 H 1617.95 3.61271 -2.16936 0
M  V30 17478 H 1616.63 3.03654 -1.12143 0
M  V30 17479 H 1615.53 1.97137 -3.17943 0
M  V30 17480 H 1616.87 2.61042 -4.17274 0
M  V30 17481 N 1618.52 1.45038 0.616577 0
M  V30 17482 C 1619.8 1.39059 1.37557 0
M  V30 17483 C 1620.18 0.0566307 2.11024 0
M  V30 17484 O 1619.52 -0.961203 2.073 0
M  V30 17485 C 1619.73 2.59841 2.32989 0
M  V30 17486 C 1621.08 3.04539 2.95874 0
M  V30 17487 O 1622.11 2.6015 2.43312 0
M  V30 17488 O 1620.97 3.81547 3.9126 0
M  V30 17489 H 1618.06 0.551396 0.616353 0
M  V30 17490 H 1620.61 1.57152 0.640416 0
M  V30 17491 H 1619.38 3.48521 1.779 0
M  V30 17492 H 1619 2.44036 3.13899 0
M  V30 17493 N 1620 -0.858287 1.32179 0
M  V30 17494 C 1621.25 -1.60706 1.21887 0
M  V30 17495 C 1621.56 -1.94372 -0.218836 0
M  V30 17496 O 1622.77 -2.67852 -0.443572 0
M  V30 17497 C 1621.22 -2.8977 2.13452 0
M  V30 17498 C 1620.83 -2.63542 3.62284 0
M  V30 17499 C 1622.57 -3.67779 2.11988 0
M  V30 17500 C 1620.48 -3.88584 4.45821 0
M  V30 17501 H 1619.41 -0.603026 0.452632 0
M  V30 17502 H 1622.06 -0.948016 1.57114 0
M  V30 17503 H 1620.44 -3.57112 1.71135 0
M  V30 17504 H 1621.62 -2.04534 4.12919 0
M  V30 17505 H 1619.93 -1.98869 3.65842 0
M  V30 17506 H 1622.53 -4.60561 2.71639 0
M  V30 17507 H 1622.87 -4.0123 1.10995 0
M  V30 17508 H 1623.41 -3.07336 2.52565 0
M  V30 17509 H 1620.14 -3.60276 5.47614 0
M  V30 17510 H 1619.66 -4.47001 3.99937 0
M  V30 17511 H 1621.34 -4.56358 4.58635 0
M  V30 17512 N 1621.48 -1.1533 -1.07409 0
M  V30 17513 C 1622.72 -0.929181 -1.80261 0
M  V30 17514 C 1623.05 0.542387 -1.86472 0
M  V30 17515 O 1622.33 1.40209 -1.34802 0
M  V30 17516 C 1622.61 -1.54339 -3.25348 0
M  V30 17517 C 1622.47 -3.08551 -3.27286 0
M  V30 17518 C 1623.78 -1.22868 -4.22601 0
M  V30 17519 H 1620.9 -0.338985 -0.654414 0
M  V30 17520 H 1623.55 -1.42485 -1.2569 0
M  V30 17521 H 1621.7 -1.12187 -3.71949 0
M  V30 17522 H 1623.37 -3.59605 -2.88932 0
M  V30 17523 H 1621.61 -3.42471 -2.66263 0
M  V30 17524 H 1622.28 -3.4664 -4.29587 0
M  V30 17525 H 1624.76 -1.59328 -3.84388 0
M  V30 17526 H 1623.63 -1.68462 -5.2241 0
M  V30 17527 H 1623.89 -0.145612 -4.4186 0
M  V30 17528 N 1622.95 1.25748 -0.950004 0
M  V30 17529 C 1624.2 1.93336 -0.602294 0
M  V30 17530 C 1624.53 1.74454 0.859994 0
M  V30 17531 O 1623.78 1.08032 1.6318 0
M  V30 17532 C 1624.08 3.45843 -0.901521 0
M  V30 17533 C 1623.75 3.84874 -2.3491 0
M  V30 17534 C 1622.41 3.9524 -2.74479 0
M  V30 17535 C 1624.76 4.04286 -3.28941 0
M  V30 17536 C 1622.09 4.22422 -4.07157 0
M  V30 17537 C 1624.44 4.32959 -4.61225 0
M  V30 17538 C 1623.11 4.41541 -5.00597 0
M  V30 17539 H 1622.38 0.707465 -0.220395 0
M  V30 17540 H 1625.02 1.49386 -1.19817 0
M  V30 17541 H 1623.33 3.91164 -0.2232 0
M  V30 17542 H 1625.03 3.96316 -0.611134 0
M  V30 17543 H 1621.62 3.77358 -2.03221 0
M  V30 17544 H 1625.8 3.95697 -2.99563 0
M  V30 17545 H 1621.06 4.27281 -4.37311 0
M  V30 17546 H 1625.23 4.46925 -5.3407 0
M  V30 17547 H 1622.86 4.62358 -6.03431 0
M  V30 17548 N 1624.43 0.718038 1.40292 0
M  V30 17549 C 1625.34 0.0681535 2.34501 0
M  V30 17550 C 1626.36 -0.741048 1.57431 0
M  V30 17551 O 1627.53 -0.673437 1.89807 0
M  V30 17552 C 1624.6 -0.840758 3.36351 0
M  V30 17553 C 1623.66 -0.0212287 4.29295 0
M  V30 17554 C 1622.89 -0.886852 5.2628 0
M  V30 17555 O 1623.12 -2.12603 5.29298 0
M  V30 17556 O 1622.05 -0.324537 6.01024 0
M  V30 17557 H 1625.88 0.845288 2.91699 0
M  V30 17558 H 1623.46 0.478541 1.41529 0
M  V30 17559 H 1625.34 -1.36131 3.98806 0
M  V30 17560 H 1624.02 -1.597 2.81563 0
M  V30 17561 H 1622.92 0.544451 3.70117 0
M  V30 17562 H 1624.26 0.696846 4.87242 0
M  V30 17563 N 1625.91 -1.50602 0.464402 0
M  V30 17564 C 1626.82 -2.32142 -0.338721 0
M  V30 17565 C 1627.84 -1.4223 -1.00233 0
M  V30 17566 O 1629.01 -1.75288 -0.99177 0
M  V30 17567 C 1626.08 -3.16725 -1.41019 0
M  V30 17568 C 1625.14 -4.22449 -0.76388 0
M  V30 17569 C 1624.37 -5.0299 -1.78429 0
M  V30 17570 O 1624.59 -4.84516 -3.00999 0
M  V30 17571 O 1623.53 -5.86338 -1.35982 0
M  V30 17572 H 1627.35 -3.01927 0.327695 0
M  V30 17573 H 1624.94 -1.47675 0.226379 0
M  V30 17574 H 1626.82 -3.69228 -2.03097 0
M  V30 17575 H 1625.5 -2.49675 -2.06019 0
M  V30 17576 H 1624.4 -3.73955 -0.104318 0
M  V30 17577 H 1625.74 -4.9195 -0.156929 0
M  V30 17578 N 1627.39 -0.19675 -1.56367 0
M  V30 17579 C 1628.62 0.447139 -2.02011 0
M  V30 17580 C 1629.03 1.55077 -1.07687 0
M  V30 17581 O 1628.39 1.82316 -0.0820316 0
M  V30 17582 C 1628.44 1.00192 -3.47338 0
M  V30 17583 O 1628.16 -0.0576859 -4.38062 0
M  V30 17584 C 1629.66 1.72152 -4.08508 0
M  V30 17585 H 1626.88 0.112088 -0.661572 0
M  V30 17586 H 1629.43 -0.30594 -2.02199 0
M  V30 17587 H 1627.58 1.70537 -3.47844 0
M  V30 17588 H 1627.99 0.355508 -5.23294 0
M  V30 17589 H 1629.47 2.06199 -5.12041 0
M  V30 17590 H 1629.95 2.62581 -3.52062 0
M  V30 17591 H 1630.55 1.06388 -4.11779 0
M  V30 17592 N 1628.87 1.57413 0.0768405 0
M  V30 17593 C 1630.14 1.78056 0.809663 0
M  V30 17594 C 1630.52 0.783053 1.9604 0
M  V30 17595 O 1629.87 -0.184836 2.27751 0
M  V30 17596 C 1630.08 3.24391 1.2873 0
M  V30 17597 C 1631.43 3.88082 1.72272 0
M  V30 17598 O 1632.45 3.28251 1.38309 0
M  V30 17599 O 1631.31 4.93329 2.35135 0
M  V30 17600 H 1628.41 0.730553 0.387584 0
M  V30 17601 H 1630.95 1.69603 0.057307 0
M  V30 17602 H 1629.72 3.88543 0.463678 0
M  V30 17603 H 1629.35 3.37548 2.10112 0
M  V30 17604 N 1630.34 -0.348112 1.53707 0
M  V30 17605 C 1631.57 -1.10903 1.74666 0
M  V30 17606 C 1631.99 -1.82499 0.483683 0
M  V30 17607 O 1631.34 -1.74191 -0.544419 0
M  V30 17608 C 1631.4 -2.12602 2.92374 0
M  V30 17609 O 1631.12 -1.43918 4.13787 0
M  V30 17610 C 1632.62 -3.01105 3.25347 0
M  V30 17611 H 1629.84 -0.330911 0.583728 0
M  V30 17612 H 1632.38 -0.401707 2.00516 0
M  V30 17613 H 1630.54 -2.78906 2.68869 0
M  V30 17614 H 1630.95 -2.11818 4.79826 0
M  V30 17615 H 1632.42 -3.68408 4.11071 0
M  V30 17616 H 1632.9 -3.66874 2.41455 0
M  V30 17617 H 1633.51 -2.40395 3.50842 0
M  V30 17618 N 1631.82 -1.45363 -0.608876 0
M  V30 17619 C 1633.1 -1.39787 -1.36817 0
M  V30 17620 C 1633.48 -0.067821 -2.10991 0
M  V30 17621 O 1632.83 0.950196 -2.07806 0
M  V30 17622 C 1633.04 -2.61073 -2.31608 0
M  V30 17623 C 1634.39 -3.06104 -2.94254 0
M  V30 17624 O 1635.41 -2.61436 -2.41929 0
M  V30 17625 O 1634.27 -3.83616 -3.89231 0
M  V30 17626 H 1631.36 -0.554657 -0.61342 0
M  V30 17627 H 1633.91 -1.57489 -0.632073 0
M  V30 17628 H 1632.68 -3.4946 -1.76049 0
M  V30 17629 H 1632.3 -2.45697 -3.126 0
M  V30 17630 N 1633.3 0.851265 -1.32632 0
M  V30 17631 C 1634.23 1.97562 -1.24465 0
M  V30 17632 C 1635.21 1.69619 -0.127777 0
M  V30 17633 O 1636.4 1.9162 -0.315509 0
M  V30 17634 C 1633.53 3.33467 -0.970423 0
M  V30 17635 C 1632.48 3.75772 -2.0489 0
M  V30 17636 C 1631.81 5.09345 -1.62702 0
M  V30 17637 C 1633.11 3.90876 -3.4643 0
M  V30 17638 H 1634.8 2.04653 -2.18535 0
M  V30 17639 H 1632.35 0.983252 -1.05205 0
M  V30 17640 H 1634.3 4.11681 -0.899825 0
M  V30 17641 H 1633.02 3.26599 0.00591373 0
M  V30 17642 H 1631.68 2.99812 -2.1097 0
M  V30 17643 H 1631.33 4.98937 -0.638039 0
M  V30 17644 H 1631.03 5.38621 -2.34864 0
M  V30 17645 H 1632.55 5.90048 -1.57085 0
M  V30 17646 H 1633.97 4.59434 -3.42919 0
M  V30 17647 H 1632.37 4.31574 -4.1697 0
M  V30 17648 H 1633.44 2.93689 -3.85843 0
M  V30 17649 N 1634.78 1.15898 1.06796 0
M  V30 17650 C 1635.71 0.818654 2.14081 0
M  V30 17651 C 1636.72 -0.171847 1.6189 0
M  V30 17652 O 1637.91 0.052196 1.78424 0
M  V30 17653 C 1635.01 0.197283 3.38325 0
M  V30 17654 C 1634.19 1.22662 4.19849 0
M  V30 17655 C 1633.24 0.625985 5.22463 0
M  V30 17656 O 1632.27 1.29347 5.54309 0
M  V30 17657 N 1633.47 -0.589665 5.77497 0
M  V30 17658 H 1636.24 1.74196 2.43877 0
M  V30 17659 H 1633.8 1.05562 1.22753 0
M  V30 17660 H 1635.79 -0.217439 4.04115 0
M  V30 17661 H 1634.36 -0.629476 3.06197 0
M  V30 17662 H 1633.58 1.8177 3.49791 0
M  V30 17663 H 1634.87 1.92143 4.71125 0
M  V30 17664 H 1634.27 -1.15022 5.53883 0
M  V30 17665 H 1632.82 -0.946667 6.44889 0
M  V30 17666 N 1636.26 -1.25243 0.956659 0
M  V30 17667 C 1637.17 -2.29529 0.48515 0
M  V30 17668 C 1638.18 -1.68121 -0.448494 0
M  V30 17669 O 1639.36 -1.98773 -0.324243 0
M  V30 17670 C 1636.42 -3.45952 -0.227611 0
M  V30 17671 C 1635.48 -4.22795 0.744495 0
M  V30 17672 C 1634.72 -5.3366 0.0656539 0
M  V30 17673 O 1634.94 -5.58722 -1.14829 0
M  V30 17674 O 1633.87 -5.97181 0.75222 0
M  V30 17675 H 1637.7 -2.71955 1.35181 0
M  V30 17676 H 1635.29 -1.30729 0.723203 0
M  V30 17677 H 1637.17 -4.16687 -0.628474 0
M  V30 17678 H 1635.84 -3.05524 -1.06942 0
M  V30 17679 H 1634.75 -3.5448 1.1956 0
M  V30 17680 H 1636.08 -4.67012 1.55438 0
M  V30 17681 N 1637.73 -0.725468 -1.3991 0
M  V30 17682 C 1638.66 -0.094211 -2.3331 0
M  V30 17683 C 1639.65 0.734728 -1.53414 0
M  V30 17684 O 1640.83 0.681647 -1.81844 0
M  V30 17685 C 1637.96 0.820958 -3.37457 0
M  V30 17686 C 1636.91 0.0968983 -4.2789 0
M  V30 17687 C 1636.24 1.12845 -5.22657 0
M  V30 17688 C 1637.54 -1.05483 -5.11537 0
M  V30 17689 H 1639.23 -0.874365 -2.86348 0
M  V30 17690 H 1636.78 -0.421913 -1.3768 0
M  V30 17691 H 1638.73 1.27203 -4.01743 0
M  V30 17692 H 1637.46 1.63312 -2.82837 0
M  V30 17693 H 1636.12 -0.334454 -3.65071 0
M  V30 17694 H 1635.76 1.93392 -4.64337 0
M  V30 17695 H 1635.46 0.648805 -5.84007 0
M  V30 17696 H 1636.99 1.57942 -5.89819 0
M  V30 17697 H 1638.4 -0.682657 -5.69221 0
M  V30 17698 H 1636.8 -1.46349 -5.81981 0
M  V30 17699 H 1637.87 -1.88095 -4.46932 0
M  V30 17700 N 1639.21 1.50354 -0.472382 0
M  V30 17701 C 1640.14 2.26396 0.357429 0
M  V30 17702 C 1641.16 1.31778 0.955949 0
M  V30 17703 O 1642.35 1.57279 0.844136 0
M  V30 17704 C 1639.45 3.03131 1.51542 0
M  V30 17705 C 1638.62 4.25113 1.02945 0
M  V30 17706 C 1637.68 4.84131 2.06164 0
M  V30 17707 O 1636.7 5.4501 1.64174 0
M  V30 17708 N 1637.91 4.71244 3.38983 0
M  V30 17709 H 1640.67 2.9825 -0.294473 0
M  V30 17710 H 1638.23 1.59035 -0.303242 0
M  V30 17711 H 1640.22 3.39492 2.20289 0
M  V30 17712 H 1638.79 2.34067 2.07199 0
M  V30 17713 H 1638.01 3.93843 0.167821 0
M  V30 17714 H 1639.3 5.04199 0.682705 0
M  V30 17715 H 1638.7 4.22831 3.75807 0
M  V30 17716 H 1637.26 5.11871 4.03524 0
M  V30 17717 N 1640.69 0.205039 1.56261 0
M  V30 17718 C 1641.65 -0.698166 2.18308 0
M  V30 17719 C 1642.65 -1.13376 1.14029 0
M  V30 17720 O 1643.84 -1.04524 1.39357 0
M  V30 17721 C 1640.98 -1.95438 2.79315 0
M  V30 17722 H 1642.17 -0.157462 2.99486 0
M  V30 17723 H 1639.72 -0.0445849 1.56236 0
M  V30 17724 H 1640.46 -2.53736 2.01962 0
M  V30 17725 H 1640.24 -1.65068 3.55662 0
M  V30 17726 H 1641.73 -2.59824 3.26927 0
M  V30 17727 N 1642.17 -1.57451 -0.0684915 0
M  V30 17728 C 1643.39 -1.92025 -0.78366 0
M  V30 17729 C 1643.82 -0.801743 -1.70158 0
M  V30 17730 O 1643.18 0.245227 -1.79634 0
M  V30 17731 C 1643.23 -3.25563 -1.55051 0
M  V30 17732 O 1642.33 -3.15029 -2.6614 0
M  V30 17733 H 1641.67 -0.628714 -0.213576 0
M  V30 17734 H 1644.2 -2.04569 -0.0357474 0
M  V30 17735 H 1644.21 -3.59516 -1.92905 0
M  V30 17736 H 1642.89 -4.06547 -0.87704 0
M  V30 17737 H 1641.46 -2.9264 -2.31119 0
M  V30 17738 N 1643.65 0.339955 -1.5389 0
M  V30 17739 C 1644.58 1.44096 -1.76951 0
M  V30 17740 C 1645.56 1.50367 -0.618758 0
M  V30 17741 O 1646.74 1.68028 -0.854329 0
M  V30 17742 C 1643.87 2.82307 -1.87137 0
M  V30 17743 C 1642.92 2.93645 -3.09314 0
M  V30 17744 S 1643.75 2.59742 -4.68288 0
M  V30 17745 C 1644.9 4.00055 -4.81359 0
M  V30 17746 H 1645.14 1.24318 -2.7006 0
M  V30 17747 H 1642.67 0.535835 -1.44804 0
M  V30 17748 H 1644.63 3.61931 -1.93692 0
M  V30 17749 H 1643.29 2.99378 -0.950349 0
M  V30 17750 H 1642.48 3.94927 -3.13127 0
M  V30 17751 H 1642.08 2.21974 -3.01004 0
M  V30 17752 H 1644.38 4.94619 -4.62989 0
M  V30 17753 H 1645.32 4.01234 -5.83452 0
M  V30 17754 H 1645.73 3.88248 -4.09785 0
M  V30 17755 N 1645.13 1.45684 0.601159 0
M  V30 17756 C 1646.04 1.57396 1.73965 0
M  V30 17757 C 1647.05 0.458133 1.6786 0
M  V30 17758 O 1648.23 0.719717 1.88101 0
M  V30 17759 C 1645.29 1.54363 3.1044 0
M  V30 17760 C 1644.35 2.77034 3.27949 0
M  V30 17761 C 1643.59 2.74136 4.57914 0
M  V30 17762 O 1643.81 1.81829 5.40643 0
M  V30 17763 O 1642.74 3.65428 4.78274 0
M  V30 17764 H 1646.57 2.5364 1.67034 0
M  V30 17765 H 1644.15 1.28267 0.766017 0
M  V30 17766 H 1646.04 1.55302 3.91739 0
M  V30 17767 H 1644.71 0.612723 3.17848 0
M  V30 17768 H 1643.62 2.81655 2.46214 0
M  V30 17769 H 1644.95 3.69272 3.25422 0
M  V30 17770 N 1646.6 -0.84422 1.33082 0
M  V30 17771 C 1647.54 -1.96055 1.18722 0
M  V30 17772 C 1648.55 -1.62361 0.119538 0
M  V30 17773 O 1649.74 -1.74634 0.369469 0
M  V30 17774 C 1646.84 -3.29387 0.797318 0
M  V30 17775 C 1646.01 -3.91253 1.95551 0
M  V30 17776 C 1645.07 -5.02932 1.54745 0
M  V30 17777 O 1644.1 -5.22367 2.26101 0
M  V30 17778 N 1645.3 -5.78758 0.449394 0
M  V30 17779 H 1648.06 -2.08912 2.14886 0
M  V30 17780 H 1645.62 -1.01966 1.25756 0
M  V30 17781 H 1647.62 -4.01517 0.506536 0
M  V30 17782 H 1646.19 -3.12514 -0.0734775 0
M  V30 17783 H 1645.41 -3.11779 2.41221 0
M  V30 17784 H 1646.69 -4.2932 2.73061 0
M  V30 17785 H 1646.09 -5.65516 -0.14428 0
M  V30 17786 H 1644.65 -6.51434 0.218264 0
M  V30 17787 N 1648.08 -1.16463 -1.0618 0
M  V30 17788 C 1649.01 -0.895399 -2.1565 0
M  V30 17789 C 1649.99 0.158729 -1.69358 0
M  V30 17790 O 1651.18 0.010586 -1.94197 0
M  V30 17791 C 1648.31 -0.396959 -3.45024 0
M  V30 17792 C 1647.26 -1.38913 -4.0483 0
M  V30 17793 C 1646.59 -0.749043 -5.29427 0
M  V30 17794 C 1647.89 -2.7591 -4.43476 0
M  V30 17795 H 1649.58 -1.81085 -2.38429 0
M  V30 17796 H 1647.13 -0.872098 -1.14588 0
M  V30 17797 H 1649.08 -0.196086 -4.20944 0
M  V30 17798 H 1647.8 0.554002 -3.21867 0
M  V30 17799 H 1646.46 -1.57657 -3.30968 0
M  V30 17800 H 1646.11 0.208439 -5.02568 0
M  V30 17801 H 1645.81 -1.41128 -5.704 0
M  V30 17802 H 1647.34 -0.558217 -6.08043 0
M  V30 17803 H 1648.75 -2.60942 -5.10473 0
M  V30 17804 H 1647.15 -3.38618 -4.95437 0
M  V30 17805 H 1648.22 -3.31076 -3.54284 0
M  V30 17806 N 1649.56 1.24734 -0.963288 0
M  V30 17807 C 1650.49 2.27892 -0.508667 0
M  V30 17808 C 1651.47 1.64055 0.449438 0
M  V30 17809 O 1652.66 1.91083 0.346519 0
M  V30 17810 C 1649.79 3.46688 0.206157 0
M  V30 17811 C 1648.74 4.22762 -0.667534 0
M  V30 17812 C 1648.07 5.34402 0.178529 0
M  V30 17813 C 1649.37 4.84535 -1.94995 0
M  V30 17814 H 1651.06 2.66171 -1.37088 0
M  V30 17815 H 1648.61 1.27952 -0.660622 0
M  V30 17816 H 1650.56 4.17985 0.535391 0
M  V30 17817 H 1649.28 3.07422 1.10269 0
M  V30 17818 H 1647.94 3.53259 -0.979976 0
M  V30 17819 H 1647.59 4.91377 1.07508 0
M  V30 17820 H 1647.29 5.86218 -0.402808 0
M  V30 17821 H 1648.81 6.08529 0.502533 0
M  V30 17822 H 1650.23 5.4793 -1.68658 0
M  V30 17823 H 1648.62 5.46564 -2.47765 0
M  V30 17824 H 1649.69 4.06236 -2.64765 0
M  V30 17825 N 1651.04 0.732878 1.39523 0
M  V30 17826 C 1652.45 0.408236 1.54291 0
M  V30 17827 C 1652.65 -1.08114 1.7004 0
M  V30 17828 O 1651.71 -1.86726 1.6997 0
M  V30 17829 C 1653.02 1.1894 2.76177 0
M  V30 17830 C 1654.57 1.17742 2.9001 0
M  V30 17831 C 1655.05 1.94111 4.14831 0
M  V30 17832 N 1656.54 1.91266 4.21867 0
M  V30 17833 C 1657.27 2.47167 5.17394 0
M  V30 17834 N 1656.77 3.11696 6.18723 0
M  V30 17835 N 1658.56 2.37212 5.09595 0
M  V30 17836 H 1650.71 1.69839 1.27548 0
M  V30 17837 H 1652.97 0.718844 0.618035 0
M  V30 17838 H 1652.68 2.24321 2.70875 0
M  V30 17839 H 1652.55 0.792439 3.68782 0
M  V30 17840 H 1654.94 0.131752 2.94806 0
M  V30 17841 H 1655.02 1.61374 1.98474 0
M  V30 17842 H 1654.67 2.98677 4.10797 0
M  V30 17843 H 1654.6 1.47886 5.05408 0
M  V30 17844 H 1657.09 1.44254 3.49284 0
M  V30 17845 H 1657.4 3.51823 6.8807 0
M  V30 17846 H 1655.75 3.15785 6.19116 0
M  V30 17847 H 1658.94 1.86444 4.29367 0
M  V30 17848 H 1659.11 2.81076 5.83866 0
M  V30 17849 N 1652.52 -1.50101 0.480349 0
M  V30 17850 C 1653.43 -2.32488 -0.31408 0
M  V30 17851 C 1654.44 -1.43285 -0.987186 0
M  V30 17852 O 1655.62 -1.7633 -0.973123 0
M  V30 17853 C 1652.68 -3.18203 -1.37651 0
M  V30 17854 C 1651.74 -4.23236 -0.71903 0
M  V30 17855 C 1650.98 -5.04854 -1.73084 0
M  V30 17856 O 1651.2 -4.87681 -2.95843 0
M  V30 17857 O 1650.13 -5.87748 -1.29755 0
M  V30 17858 H 1653.96 -3.01562 0.3597 0
M  V30 17859 H 1651.54 -1.47427 0.242029 0
M  V30 17860 H 1653.43 -3.71362 -1.9917 0
M  V30 17861 H 1652.1 -2.51846 -2.0336 0
M  V30 17862 H 1651.01 -3.74044 -0.0646492 0
M  V30 17863 H 1652.34 -4.92089 -0.104743 0
M  V30 17864 N 1653.99 -0.213323 -1.5615 0
M  V30 17865 C 1654.93 0.732346 -2.17185 0
M  V30 17866 C 1655.94 1.16357 -1.13864 0
M  V30 17867 O 1657.13 1.09614 -1.40879 0
M  V30 17868 C 1654.23 2.0027 -2.73395 0
M  V30 17869 C 1653.4 1.72836 -4.01804 0
M  V30 17870 C 1652.46 2.84497 -4.4266 0
M  V30 17871 O 1651.49 2.5332 -5.09723 0
M  V30 17872 N 1652.69 4.13268 -4.07663 0
M  V30 17873 H 1655.45 0.210294 -2.98961 0
M  V30 17874 H 1653.01 -0.0320124 -1.61868 0
M  V30 17875 H 1655.01 2.74145 -2.97702 0
M  V30 17876 H 1653.58 2.43546 -1.9597 0
M  V30 17877 H 1652.8 0.826474 -3.85439 0
M  V30 17878 H 1654.08 1.51928 -4.85588 0
M  V30 17879 H 1653.48 4.41444 -3.53756 0
M  V30 17880 H 1652.04 4.83713 -4.36881 0
M  V30 17881 N 1655.47 1.57485 0.0601405 0
M  V30 17882 C 1656.88 1.76433 0.610583 0
M  V30 17883 C 1657.23 0.840353 1.77292 0
M  V30 17884 O 1656.36 0.0273238 2.16383 0
M  V30 17885 C 1656.95 3.19947 1.11441 0
M  V30 17886 C 1655.51 3.402 1.61062 0
M  V30 17887 C 1654.66 2.72089 0.535055 0
M  V30 17888 H 1657.61 1.57829 -0.166062 0
M  V30 17889 H 1657.63 3.24749 1.98288 0
M  V30 17890 H 1657.14 3.87172 0.268233 0
M  V30 17891 H 1655.25 2.78106 2.47967 0
M  V30 17892 H 1655.36 4.48696 1.67954 0
M  V30 17893 H 1653.72 2.34972 0.982855 0
M  V30 17894 H 1654.51 3.41977 -0.301135 0
M  V30 17895 N 1656.95 -0.331789 1.54068 0
M  V30 17896 C 1658.2 -1.06858 1.71539 0
M  V30 17897 C 1658.52 -1.88808 0.487506 0
M  V30 17898 O 1657.79 -1.8945 -0.498539 0
M  V30 17899 H 1656.37 -0.3975 0.632457 0
M  V30 17900 H 1659.03 -0.370216 1.91352 0
M  V30 17901 H 1658.13 -1.73929 2.59143 0
M  V30 17902 N 1658.43 -1.46001 -0.593424 0
M  V30 17903 C 1659.34 -1.58316 -1.73128 0
M  V30 17904 C 1660.35 -0.467029 -1.67615 0
M  V30 17905 O 1661.53 -0.729682 -1.87717 0
M  V30 17906 C 1658.6 -1.56007 -3.09617 0
M  V30 17907 C 1657.66 -2.78769 -3.26475 0
M  V30 17908 C 1656.89 -2.76561 -4.56453 0
M  V30 17909 O 1657.11 -1.84694 -5.39671 0
M  V30 17910 O 1656.05 -3.67959 -4.76329 0
M  V30 17911 H 1659.87 -2.54522 -1.65686 0
M  V30 17912 H 1657.46 -1.28672 -0.759204 0
M  V30 17913 H 1659.34 -1.57377 -3.9091 0
M  V30 17914 H 1658.01 -0.629571 -3.17519 0
M  V30 17915 H 1656.92 -2.82956 -2.44717 0
M  V30 17916 H 1658.25 -3.70992 -3.23459 0
M  V30 17917 N 1659.91 0.83715 -1.33527 0
M  V30 17918 C 1660.82 1.97915 -1.25964 0
M  V30 17919 C 1661.83 1.73169 -0.169894 0
M  V30 17920 O 1663.01 1.97513 -0.393793 0
M  V30 17921 C 1660.07 3.31945 -1.00068 0
M  V30 17922 C 1659.13 3.69795 -2.1806 0
M  V30 17923 C 1658.37 4.97429 -1.9339 0
M  V30 17924 O 1658.59 5.63492 -0.885069 0
M  V30 17925 O 1657.52 5.32823 -2.79969 0
M  V30 17926 H 1661.35 2.07236 -2.22007 0
M  V30 17927 H 1658.94 0.970437 -1.13591 0
M  V30 17928 H 1660.82 4.12248 -0.873487 0
M  V30 17929 H 1659.49 3.23623 -0.0705475 0
M  V30 17930 H 1658.4 2.89995 -2.36334 0
M  V30 17931 H 1659.73 3.82784 -3.09414 0
M  V30 17932 N 1661.38 1.17024 1.05561 0
M  V30 17933 C 1662.61 0.979328 1.81914 0
M  V30 17934 C 1663.02 -0.475688 1.83122 0
M  V30 17935 O 1662.37 -1.34205 1.25438 0
M  V30 17936 C 1662.43 1.4391 3.29439 0
M  V30 17937 C 1662.09 2.9155 3.5192 0
M  V30 17938 C 1663.09 3.89509 3.44353 0
M  V30 17939 C 1660.77 3.2964 3.79003 0
M  V30 17940 C 1662.77 5.23557 3.63548 0
M  V30 17941 C 1660.45 4.63855 3.97846 0
M  V30 17942 C 1661.45 5.60623 3.90117 0
M  V30 17943 O 1661.14 6.92411 4.08439 0
M  V30 17944 H 1660.87 0.34689 0.58021 0
M  V30 17945 H 1663.43 1.55641 1.34034 0
M  V30 17946 H 1661.66 0.805555 3.78216 0
M  V30 17947 H 1663.35 1.21445 3.87306 0
M  V30 17948 H 1664.11 3.61428 3.23412 0
M  V30 17949 H 1659.99 2.54891 3.84124 0
M  V30 17950 H 1663.53 5.99074 3.5743 0
M  V30 17951 H 1659.43 4.91644 4.18278 0
M  V30 17952 H 1660.2 6.99095 4.25685 0
M  V30 17953 N 1662.86 -1.24221 0.969889 0
M  V30 17954 C 1664.09 -1.96943 0.650262 0
M  V30 17955 C 1664.51 -1.71437 -0.774018 0
M  V30 17956 O 1663.87 -0.979428 -1.52568 0
M  V30 17957 C 1663.92 -3.48303 0.933682 0
M  V30 17958 O 1663.02 -4.12395 0.0202425 0
M  V30 17959 H 1662.36 -0.616902 0.245618 0
M  V30 17960 H 1664.89 -1.57939 1.30063 0
M  V30 17961 H 1664.9 -3.98701 0.866106 0
M  V30 17962 H 1663.58 -3.66194 1.97166 0
M  V30 17963 H 1662.16 -3.72632 0.141327 0
M  V30 17964 N 1664.34 -0.740267 -1.39132 0
M  V30 17965 C 1665.25 -0.105452 -2.34363 0
M  V30 17966 C 1666.27 0.715908 -1.5859 0
M  V30 17967 O 1667.44 0.643155 -1.90855 0
M  V30 17968 C 1664.51 0.787141 -3.37646 0
M  V30 17969 C 1663.57 -0.047071 -4.29274 0
M  V30 17970 C 1662.8 0.803014 -5.27624 0
M  V30 17971 O 1663.02 2.04155 -5.32613 0
M  V30 17972 O 1661.96 0.228879 -6.01465 0
M  V30 17973 H 1665.78 -0.891588 -2.90318 0
M  V30 17974 H 1663.37 -0.500996 -1.40749 0
M  V30 17975 H 1665.25 1.29769 -4.00921 0
M  V30 17976 H 1663.93 1.552 -2.84068 0
M  V30 17977 H 1662.83 -0.603265 -3.69204 0
M  V30 17978 H 1664.17 -0.774273 -4.86072 0
M  V30 17979 N 1665.82 1.49844 -0.488302 0
M  V30 17980 C 1666.73 2.32651 0.301746 0
M  V30 17981 C 1667.74 1.43807 0.979573 0
M  V30 17982 O 1668.92 1.76844 0.963758 0
M  V30 17983 C 1665.99 3.18928 1.35962 0
M  V30 17984 C 1665.05 4.23611 0.696575 0
M  V30 17985 C 1664.28 5.05765 1.70404 0
M  V30 17986 O 1664.5 4.89243 2.93253 0
M  V30 17987 O 1663.44 5.88427 1.26637 0
M  V30 17988 H 1667.26 3.01367 -0.375687 0
M  V30 17989 H 1664.85 1.47296 -0.249844 0
M  V30 17990 H 1666.73 3.72413 1.97198 0
M  V30 17991 H 1665.4 2.52921 2.02021 0
M  V30 17992 H 1664.31 3.74073 0.0448118 0
M  V30 17993 H 1665.64 4.92137 0.0786446 0
M  V30 17994 N 1667.3 0.221601 1.56034 0
M  V30 17995 C 1668.21 -0.699837 2.23918 0
M  V30 17996 C 1669.22 -1.21367 1.24683 0
M  V30 17997 O 1670.4 -1.25527 1.57495 0
M  V30 17998 C 1667.46 -1.89107 2.90585 0
M  V30 17999 C 1666.52 -1.4192 4.05163 0
M  V30 18000 C 1665.76 -2.55365 4.68641 0
M  V30 18001 O 1665.98 -3.735 4.31108 0
M  V30 18002 O 1664.91 -2.26564 5.57631 0
M  V30 18003 H 1668.74 -0.151552 3.03322 0
M  V30 18004 H 1666.33 -0.0088482 1.49397 0
M  V30 18005 H 1668.21 -2.58674 3.32664 0
M  V30 18006 H 1666.88 -2.42745 2.14141 0
M  V30 18007 H 1665.79 -0.691536 3.67653 0
M  V30 18008 H 1667.12 -0.929189 4.8335 0
M  V30 18009 N 1668.77 -1.57515 -0.0517878 0
M  V30 18010 C 1669.68 -2.08427 -1.07681 0
M  V30 18011 C 1670.7 -1.01797 -1.41115 0
M  V30 18012 O 1671.88 -1.33394 -1.50891 0
M  V30 18013 C 1668.94 -2.53472 -2.36544 0
M  V30 18014 C 1668 -3.74488 -2.09899 0
M  V30 18015 C 1667.24 -4.17374 -3.32618 0
M  V30 18016 O 1667.46 -3.59962 -4.42475 0
M  V30 18017 O 1666.39 -5.10006 -3.19653 0
M  V30 18018 H 1670.22 -2.96122 -0.674217 0
M  V30 18019 H 1667.8 -1.4699 -0.267274 0
M  V30 18020 H 1669.69 -2.82876 -3.12345 0
M  V30 18021 H 1668.36 -1.68899 -2.76143 0
M  V30 18022 H 1667.27 -3.50137 -1.31739 0
M  V30 18023 H 1668.6 -4.59975 -1.75169 0
M  V30 18024 N 1670.25 0.323614 -1.54242 0
M  V30 18025 C 1671.48 1.08548 -1.76726 0
M  V30 18026 C 1671.9 1.8093 -0.514375 0
M  V30 18027 O 1671.26 1.73255 0.534069 0
M  V30 18028 C 1671.31 2.05928 -2.96017 0
M  V30 18029 O 1670.41 3.13825 -2.67559 0
M  V30 18030 H 1669.75 0.31297 -0.585616 0
M  V30 18031 H 1672.28 0.367925 -2.01265 0
M  V30 18032 H 1672.29 2.48799 -3.23362 0
M  V30 18033 H 1670.97 1.52646 -3.86875 0
M  V30 18034 H 1669.55 2.7563 -2.51163 0
M  V30 18035 N 1671.73 1.46313 0.585673 0
M  V30 18036 C 1672.98 1.51694 1.34598 0
M  V30 18037 C 1673.31 0.166889 1.93482 0
M  V30 18038 O 1672.59 -0.821331 1.76308 0
M  V30 18039 C 1672.87 2.61322 2.47755 0
M  V30 18040 C 1672.72 4.05848 1.93926 0
M  V30 18041 C 1674.04 2.67058 3.49812 0
M  V30 18042 H 1671.16 0.552253 0.488043 0
M  V30 18043 H 1673.8 1.78235 0.658201 0
M  V30 18044 H 1671.95 2.38822 3.06425 0
M  V30 18045 H 1673.62 4.39626 1.39736 0
M  V30 18046 H 1671.87 4.15468 1.24775 0
M  V30 18047 H 1672.54 4.78279 2.75596 0
M  V30 18048 H 1675.01 2.87276 3.01018 0
M  V30 18049 H 1673.89 3.45589 4.2645 0
M  V30 18050 H 1674.15 1.72993 4.06849 0
M  V30 18051 N 1673.21 -0.830057 1.33969 0
M  V30 18052 C 1674.14 -1.95557 1.27592 0
M  V30 18053 C 1675.12 -1.69395 0.154745 0
M  V30 18054 O 1676.31 -1.91094 0.345954 0
M  V30 18055 C 1673.44 -3.31881 1.02335 0
M  V30 18056 C 1672.39 -3.72464 2.10842 0
M  V30 18057 C 1671.72 -5.06692 1.70785 0
M  V30 18058 C 1673.02 -3.85315 3.52604 0
M  V30 18059 H 1674.71 -2.0115 2.21763 0
M  V30 18060 H 1672.26 -0.96639 1.06756 0
M  V30 18061 H 1674.21 -4.10197 0.965206 0
M  V30 18062 H 1672.93 -3.26568 0.0460462 0
M  V30 18063 H 1671.59 -2.96417 2.15714 0
M  V30 18064 H 1671.24 -4.97859 0.717334 0
M  V30 18065 H 1670.94 -5.34817 2.43403 0
M  V30 18066 H 1672.46 -5.87474 1.66452 0
M  V30 18067 H 1673.88 -4.5392 3.50185 0
M  V30 18068 H 1672.27 -4.24886 4.23783 0
M  V30 18069 H 1673.34 -2.87514 3.90466 0
M  V30 18070 N 1674.69 -1.17582 -1.04939 0
M  V30 18071 C 1675.63 -0.894855 -2.12746 0
M  V30 18072 C 1676.6 0.162261 -1.65306 0
M  V30 18073 O 1677.79 0.0245068 -1.90784 0
M  V30 18074 C 1674.93 -0.417085 -3.4257 0
M  V30 18075 C 1674.04 -1.53861 -4.03672 0
M  V30 18076 C 1673.18 -1.01446 -5.21423 0
M  V30 18077 C 1672.22 -2.11127 -5.74536 0
M  V30 18078 N 1671.35 -1.60169 -6.83586 0
M  V30 18079 H 1676.19 -1.81802 -2.36118 0
M  V30 18080 H 1673.73 -0.906716 -1.15832 0
M  V30 18081 H 1675.69 -0.121619 -4.17023 0
M  V30 18082 H 1674.32 0.469119 -3.19373 0
M  V30 18083 H 1673.37 -1.94975 -3.26633 0
M  V30 18084 H 1674.68 -2.36575 -4.39128 0
M  V30 18085 H 1673.84 -0.672992 -6.02956 0
M  V30 18086 H 1672.58 -0.156795 -4.87448 0
M  V30 18087 H 1671.58 -2.46128 -4.91631 0
M  V30 18088 H 1672.81 -2.97313 -6.10559 0
M  V30 18089 H 1670.75 -0.766783 -6.51503 0
M  V30 18090 H 1670.67 -2.36488 -7.18059 0
M  V30 18091 H 1671.94 -1.28923 -7.68765 0
M  V30 18092 N 1676.17 1.23705 -0.976463 0
M  V30 18093 C 1677.11 2.27034 -0.505813 0
M  V30 18094 C 1678.11 1.63716 0.435148 0
M  V30 18095 O 1679.31 1.7732 0.309474 0
M  V30 18096 H 1675.69 0.737862 -0.145131 0
M  V30 18097 H 1677.66 2.64097 -1.38908 0
M  V30 18098 C 1676.41 3.47234 0.179987 0
M  V30 18099 H 1675.73 3.96205 -0.534969 0
M  V30 18100 H 1677.17 4.21353 0.472996 0
M  V30 18101 C 1675.63 3.05979 1.40991 0
M  V30 18102 O 1676.16 3.13914 2.50641 0
M  V30 18103 N 1674.37 2.60934 1.27913 0
M  V30 18104 H 1673.91 2.54677 0.38696 0
M  V30 18105 H 1673.87 2.33697 2.10316 0
M  V30 18106 N 1677.64 0.747635 1.38738 0
M  V30 18107 C 1678.87 0.310484 2.05063 0
M  V30 18108 C 1679.29 -1.05078 1.56013 0
M  V30 18109 O 1678.65 -1.66842 0.709461 0
M  V30 18110 C 1678.7 0.335837 3.59033 0
M  V30 18111 O 1677.8 -0.672218 4.06884 0
M  V30 18112 H 1677.14 0.138591 0.649375 0
M  V30 18113 H 1679.67 1.01709 1.77529 0
M  V30 18114 H 1679.68 0.184631 4.07582 0
M  V30 18115 H 1678.36 1.32906 3.94092 0
M  V30 18116 H 1676.94 -0.486112 3.69718 0
M  V30 18117 N 1679.12 -1.49583 0.496242 0
M  V30 18118 C 1680.4 -1.95275 -0.112751 0
M  V30 18119 C 1680.78 -1.43758 -1.54586 0
M  V30 18120 O 1680.13 -0.649285 -2.19081 0
M  V30 18121 C 1680.34 -3.48987 -0.0302774 0
M  V30 18122 C 1681.68 -4.24097 -0.206595 0
M  V30 18123 O 1682.71 -3.56043 -0.105689 0
M  V30 18124 O 1681.57 -5.44936 -0.413172 0
M  V30 18125 H 1678.66 -0.821183 -0.0979145 0
M  V30 18126 H 1681.21 -1.60248 0.558441 0
M  V30 18127 H 1679.98 -3.79104 0.969322 0
M  V30 18128 H 1679.6 -3.90618 -0.741825 0
M  V30 18129 N 1680.6 -0.229873 -1.55915 0
M  V30 18130 C 1681.85 0.400157 -1.98813 0
M  V30 18131 C 1682.18 1.58821 -1.11756 0
M  V30 18132 O 1681.45 1.93692 -0.177094 0
M  V30 18133 C 1681.74 0.826623 -3.50484 0
M  V30 18134 C 1681.59 -0.365647 -4.48311 0
M  V30 18135 C 1682.91 1.6798 -4.06781 0
M  V30 18136 H 1680.03 0.143977 -0.7228 0
M  V30 18137 H 1682.67 -0.327775 -1.87151 0
M  V30 18138 H 1680.82 1.44687 -3.60552 0
M  V30 18139 H 1682.49 -1.00391 -4.50244 0
M  V30 18140 H 1680.73 -1.01168 -4.21838 0
M  V30 18141 H 1681.41 -0.0241816 -5.51995 0
M  V30 18142 H 1683.88 1.15639 -3.99708 0
M  V30 18143 H 1682.76 1.94708 -5.13206 0
M  V30 18144 H 1683.02 2.64594 -3.54179 0
M  V30 18145 N 1682.08 1.5754 0.0434337 0
M  V30 18146 C 1682.99 2.08996 1.06574 0
M  V30 18147 C 1684 1.02544 1.40573 0
M  V30 18148 O 1685.18 1.34192 1.50181 0
M  V30 18149 C 1682.24 2.54723 2.35196 0
M  V30 18150 C 1681.31 3.75595 2.0791 0
M  V30 18151 C 1680.54 4.19132 3.304 0
M  V30 18152 O 1680.76 3.62303 4.40559 0
M  V30 18153 O 1679.7 5.11694 3.16944 0
M  V30 18154 H 1683.52 2.96475 0.658503 0
M  V30 18155 H 1681.11 1.47129 0.259475 0
M  V30 18156 H 1682.99 2.84529 3.1084 0
M  V30 18157 H 1681.66 1.70361 2.75243 0
M  V30 18158 H 1680.57 3.5083 1.2988 0
M  V30 18159 H 1681.9 4.60897 1.72727 0
M  V30 18160 N 1683.56 -0.31543 1.54411 0
M  V30 18161 C 1684.97 -0.889358 1.64156 0
M  V30 18162 C 1685.32 -1.88598 0.54087 0
M  V30 18163 O 1684.44 -2.13947 -0.324904 0
M  V30 18164 C 1685.04 -1.61985 2.97567 0
M  V30 18165 C 1683.6 -2.14239 3.09481 0
M  V30 18166 C 1682.74 -0.970382 2.59767 0
M  V30 18167 H 1685.69 -0.092797 1.58428 0
M  V30 18168 H 1685.72 -2.48457 2.88183 0
M  V30 18169 H 1685.23 -0.89425 3.77657 0
M  V30 18170 H 1683.33 -2.8989 2.34082 0
M  V30 18171 H 1683.44 -2.38681 4.15413 0
M  V30 18172 H 1681.81 -1.35187 2.15863 0
M  V30 18173 H 1682.59 -0.258968 3.42322 0
M  V30 18174 N 1685.03 -1.46622 -0.577906 0
M  V30 18175 C 1686.26 -1.5576 -1.36185 0
M  V30 18176 C 1686.68 -0.200403 -1.87733 0
M  V30 18177 O 1686.03 0.803091 -1.6388 0
M  V30 18178 C 1686.09 -2.56626 -2.54608 0
M  V30 18179 O 1685.81 -3.87074 -2.05195 0
M  V30 18180 C 1687.31 -2.75751 -3.47097 0
M  V30 18181 H 1684.53 -0.526589 -0.415866 0
M  V30 18182 H 1687.07 -1.9207 -0.702091 0
M  V30 18183 H 1685.23 -2.23307 -3.16564 0
M  V30 18184 H 1685.64 -4.42015 -2.82352 0
M  V30 18185 H 1687.11 -3.50237 -4.26659 0
M  V30 18186 H 1687.59 -1.82829 -3.99337 0
M  V30 18187 H 1688.2 -3.10185 -2.90973 0
M  V30 18188 N 1686.51 0.822941 -1.34408 0
M  V30 18189 C 1687.48 1.91541 -1.25876 0
M  V30 18190 C 1688.48 1.59856 -0.17397 0
M  V30 18191 O 1689.67 1.68896 -0.426592 0
M  V30 18192 C 1686.8 3.27586 -0.943415 0
M  V30 18193 H 1687.99 2.00529 -2.22998 0
M  V30 18194 H 1685.54 1.01691 -1.18695 0
M  V30 18195 H 1686.28 3.24291 0.0246389 0
M  V30 18196 H 1686.06 3.51966 -1.72807 0
M  V30 18197 H 1687.55 4.07589 -0.908891 0
M  V30 18198 N 1687.99 1.18137 1.04314 0
M  V30 18199 C 1688.94 0.902484 2.14378 0
M  V30 18200 C 1689.93 -0.136289 1.68851 0
M  V30 18201 O 1691.14 0.0116256 1.79996 0
M  V30 18202 H 1687.51 0.274358 0.700165 0
M  V30 18203 H 1689.48 1.83768 2.35099 0
M  V30 18204 C 1688.23 0.441975 3.4488 0
M  V30 18205 H 1687.56 1.23279 3.80319 0
M  V30 18206 H 1689 0.285808 4.23036 0
M  V30 18207 C 1687.46 -0.841797 3.26214 0
M  V30 18208 O 1687.99 -1.90658 3.53571 0
M  V30 18209 N 1686.19 -0.793425 2.79559 0
M  V30 18210 H 1685.74 0.0732997 2.57496 0
M  V30 18211 H 1685.7 -1.65281 2.6745 0
M  V30 18212 N 1689.47 -1.23186 0.98301 0
M  V30 18213 C 1690.72 -1.91292 0.652051 0
M  V30 18214 C 1691.04 -1.77046 -0.8173 0
M  V30 18215 O 1690.31 -1.15146 -1.58487 0
M  V30 18216 H 1688.89 -0.708011 0.23818 0
M  V30 18217 H 1691.55 -1.49754 1.24739 0
M  V30 18218 H 1690.65 -2.98662 0.905951 0
M  V30 18219 N 1690.95 -0.754982 -1.38339 0
M  V30 18220 C 1692.17 -0.322624 -2.04369 0
M  V30 18221 C 1692.59 1.04951 -1.56942 0
M  V30 18222 O 1691.95 1.66686 -0.743109 0
M  V30 18223 C 1692 -0.337767 -3.59919 0
M  V30 18224 O 1691.72 -1.65576 -4.05606 0
M  V30 18225 C 1693.22 0.108281 -4.43168 0
M  V30 18226 H 1690.44 -0.137626 -0.656734 0
M  V30 18227 H 1692.98 -1.02422 -1.77003 0
M  V30 18228 H 1691.14 0.315106 -3.86116 0
M  V30 18229 H 1691.55 -1.5829 -5.00045 0
M  V30 18230 H 1693.03 0.0465256 -5.5198 0
M  V30 18231 H 1693.5 1.15636 -4.23704 0
M  V30 18232 H 1694.11 -0.51577 -4.22161 0
M  V30 18233 N 1692.42 1.49318 -0.504168 0
M  V30 18234 C 1693.7 1.95332 0.102393 0
M  V30 18235 C 1694.08 1.44576 1.53821 0
M  V30 18236 O 1693.43 0.660894 2.18734 0
M  V30 18237 C 1693.64 3.48998 0.0117694 0
M  V30 18238 C 1694.99 4.24201 0.184101 0
M  V30 18239 O 1696.01 3.56094 0.0868056 0
M  V30 18240 O 1694.87 5.45147 0.384267 0
M  V30 18241 H 1691.96 0.821691 0.0935582 0
M  V30 18242 H 1694.51 1.5995 -0.566932 0
M  V30 18243 H 1693.28 3.78585 -0.989413 0
M  V30 18244 H 1692.91 3.91006 0.7211 0
M  V30 18245 N 1693.9 0.238138 1.5579 0
M  V30 18246 C 1695.15 -0.389608 1.99022 0
M  V30 18247 C 1695.48 -1.58226 1.12597 0
M  V30 18248 O 1694.76 -1.93595 0.187363 0
M  V30 18249 C 1695.04 -0.808025 3.50917 0
M  V30 18250 C 1694.89 0.389417 4.48111 0
M  V30 18251 C 1696.21 -1.6582 4.07666 0
M  V30 18252 H 1693.33 -0.140141 0.723553 0
M  V30 18253 H 1695.97 0.337696 1.86975 0
M  V30 18254 H 1694.12 -1.42772 3.61315 0
M  V30 18255 H 1695.79 1.02777 4.49705 0
M  V30 18256 H 1694.04 1.03404 4.21296 0
M  V30 18257 H 1694.71 0.0534549 5.51974 0
M  V30 18258 H 1697.18 -1.13518 4.00316 0
M  V30 18259 H 1696.06 -1.91984 5.14231 0
M  V30 18260 H 1696.32 -2.62712 3.55577 0
M  V30 18261 N 1695.38 -1.57561 -0.0350783 0
M  V30 18262 C 1696.34 -2.05145 -1.02217 0
M  V30 18263 C 1697.34 -0.954524 -1.29404 0
M  V30 18264 O 1698.53 -1.21833 -1.24509 0
M  V30 18265 C 1695.67 -2.4633 -2.35658 0
M  V30 18266 H 1696.86 -2.93605 -0.61126 0
M  V30 18267 H 1694.41 -1.53739 -0.28176 0
M  V30 18268 H 1695.15 -1.61008 -2.81508 0
M  V30 18269 H 1694.93 -3.26408 -2.17256 0
M  V30 18270 H 1696.42 -2.83592 -3.06537 0
M  V30 18271 N 1696.86 0.307236 -1.54576 0
M  V30 18272 C 1698.14 1.06243 -1.64231 0
M  V30 18273 C 1698.52 2.05415 -0.486589 0
M  V30 18274 O 1697.86 2.22565 0.517384 0
M  V30 18275 C 1698.07 1.74985 -3.01962 0
M  V30 18276 C 1699.42 2.2741 -3.58566 0
M  V30 18277 O 1700.45 1.85027 -3.04374 0
M  V30 18278 O 1699.3 3.05051 -4.53438 0
M  V30 18279 H 1696.4 0.490693 -0.665695 0
M  V30 18280 H 1698.94 0.305822 -1.66922 0
M  V30 18281 H 1697.72 1.02939 -3.77517 0
M  V30 18282 H 1697.34 2.57417 -3.03022 0
M  V30 18283 N 1698.34 1.46926 0.570122 0
M  V30 18284 C 1699.25 1.6105 1.70587 0
M  V30 18285 C 1700.26 0.493636 1.66851 0
M  V30 18286 O 1701.44 0.759454 1.86532 0
M  V30 18287 C 1698.5 1.60913 3.07096 0
M  V30 18288 C 1697.56 2.83928 3.21999 0
M  V30 18289 C 1696.8 2.83788 4.51996 0
M  V30 18290 O 1697.02 1.93256 5.36664 0
M  V30 18291 O 1695.95 3.75491 4.70415 0
M  V30 18292 H 1699.78 2.57126 1.61616 0
M  V30 18293 H 1697.37 1.29863 0.738637 0
M  V30 18294 H 1699.25 1.63576 3.88356 0
M  V30 18295 H 1697.92 0.680005 3.16477 0
M  V30 18296 H 1696.83 2.86814 2.40185 0
M  V30 18297 H 1698.16 3.76091 3.17516 0
M  V30 18298 N 1699.82 -0.815801 1.34842 0
M  V30 18299 C 1701.09 -1.55867 1.18173 0
M  V30 18300 C 1701.47 -2.09698 -0.242848 0
M  V30 18301 O 1700.82 -1.91594 -1.24514 0
M  V30 18302 C 1701.03 -2.67445 2.24219 0
M  V30 18303 C 1702.38 -3.36027 2.59559 0
M  V30 18304 O 1703.4 -2.77708 2.23062 0
M  V30 18305 O 1702.26 -4.4136 3.22279 0
M  V30 18306 H 1699.36 -0.688242 0.458533 0
M  V30 18307 H 1701.9 -0.856558 1.46496 0
M  V30 18308 H 1700.67 -2.25473 3.19809 0
M  V30 18309 H 1700.3 -3.453 1.97113 0
M  V30 18310 N 1701.29 -1.18689 -1.03686 0
M  V30 18311 C 1702.57 -0.89414 -1.73967 0
M  V30 18312 C 1702.95 0.602104 -2.02331 0
M  V30 18313 O 1702.3 1.55794 -1.67154 0
M  V30 18314 C 1702.51 -1.74549 -3.02214 0
M  V30 18315 C 1703.86 -1.97487 -3.75878 0
M  V30 18316 O 1704.88 -1.71634 -3.12122 0
M  V30 18317 O 1703.74 -2.41031 -4.90476 0
M  V30 18318 H 1700.83 -0.332501 -0.757213 0
M  V30 18319 H 1703.38 -1.29461 -1.09717 0
M  V30 18320 H 1702.15 -2.75961 -2.77419 0
M  V30 18321 H 1701.77 -1.34378 -3.74204 0
M  V30 18322 N 1702.77 1.22662 -0.989529 0
M  V30 18323 C 1703.72 2.26484 -0.529864 0
M  V30 18324 C 1704.71 1.64168 0.417759 0
M  V30 18325 O 1705.92 1.77638 0.290649 0
M  V30 18326 H 1702.29 0.736282 -0.152949 0
M  V30 18327 H 1704.27 2.62608 -1.41702 0
M  V30 18328 C 1703.01 3.47405 0.143148 0
M  V30 18329 H 1702.34 3.95615 -0.576962 0
M  V30 18330 H 1703.78 4.21831 0.428279 0
M  V30 18331 C 1702.24 3.07457 1.37738 0
M  V30 18332 O 1702.77 3.16555 2.47297 0
M  V30 18333 N 1700.97 2.62276 1.25139 0
M  V30 18334 H 1700.52 2.55073 0.359927 0
M  V30 18335 H 1700.48 2.35915 2.07826 0
M  V30 18336 N 1704.25 0.762308 1.37937 0
M  V30 18337 C 1705.66 0.388966 1.82603 0
M  V30 18338 C 1706.01 -1.08362 1.63561 0
M  V30 18339 O 1705.14 -1.83842 1.14154 0
M  V30 18340 C 1705.73 0.699218 3.31506 0
M  V30 18341 C 1704.29 0.379048 3.74487 0
M  V30 18342 C 1703.44 0.947924 2.60595 0
M  V30 18343 H 1706.39 0.957743 1.26542 0
M  V30 18344 H 1706.41 -0.019502 3.80495 0
M  V30 18345 H 1705.92 1.77105 3.45334 0
M  V30 18346 H 1704.02 -0.685844 3.66233 0
M  V30 18347 H 1704.14 0.880697 4.70936 0
M  V30 18348 H 1702.5 0.372746 2.51958 0
M  V30 18349 H 1703.28 2.02496 2.77219 0
M  V30 18350 N 1705.73 -1.49049 0.51208 0
M  V30 18351 C 1706.95 -2.07382 -0.0271044 0
M  V30 18352 C 1707.38 -1.3685 -1.29049 0
M  V30 18353 O 1706.74 -0.428713 -1.76158 0
M  V30 18354 C 1706.78 -3.59715 -0.252462 0
M  V30 18355 O 1705.89 -3.90538 -1.32491 0
M  V30 18356 H 1705.23 -0.663269 0.0311507 0
M  V30 18357 H 1707.76 -1.91705 0.714873 0
M  V30 18358 H 1707.77 -4.05159 -0.480603 0
M  V30 18359 H 1706.44 -4.10459 0.670531 0
M  V30 18360 H 1705.02 -3.56892 -1.08085 0
M  V30 18361 N 1707.21 -0.246397 -1.55662 0
M  V30 18362 C 1708.43 0.385607 -2.03784 0
M  V30 18363 C 1708.86 1.50786 -1.12451 0
M  V30 18364 O 1708.21 1.8092 -0.117371 0
M  V30 18365 C 1708.26 0.871204 -3.49918 0
M  V30 18366 O 1707.37 1.98082 -3.61715 0
M  V30 18367 H 1706.71 0.0841099 -0.658651 0
M  V30 18368 H 1709.24 -0.372306 -2.01184 0
M  V30 18369 H 1709.25 1.17455 -3.90728 0
M  V30 18370 H 1707.92 0.0499597 -4.1587 0
M  V30 18371 H 1706.5 1.6822 -3.32801 0
M  V30 18372 N 1708.68 1.57577 0.026722 0
M  V30 18373 C 1709.59 2.10114 1.04351 0
M  V30 18374 C 1710.61 1.04029 1.39477 0
M  V30 18375 O 1711.79 1.35778 1.48749 0
M  V30 18376 C 1708.85 2.57203 2.32481 0
M  V30 18377 C 1707.91 3.77779 2.03915 0
M  V30 18378 C 1707.14 4.22613 3.25936 0
M  V30 18379 O 1707.37 3.66955 4.36692 0
M  V30 18380 O 1706.3 5.15026 3.11499 0
M  V30 18381 H 1710.13 2.97157 0.627021 0
M  V30 18382 H 1707.71 1.47396 0.243855 0
M  V30 18383 H 1709.59 2.87809 3.07805 0
M  V30 18384 H 1708.27 1.7327 2.73421 0
M  V30 18385 H 1707.18 3.52188 1.26152 0
M  V30 18386 H 1708.51 4.62703 1.67829 0
M  V30 18387 N 1710.16 -0.299034 1.54737 0
M  V30 18388 C 1711.39 -1.05723 1.7843 0
M  V30 18389 C 1711.81 -1.80089 0.543094 0
M  V30 18390 O 1711.17 -1.74083 -0.506438 0
M  V30 18391 C 1711.22 -2.01193 2.99255 0
M  V30 18392 O 1710.32 -3.09528 2.72518 0
M  V30 18393 H 1709.66 -0.303614 0.590521 0
M  V30 18394 H 1712.19 -0.335859 2.01825 0
M  V30 18395 H 1712.2 -2.43623 3.27279 0
M  V30 18396 H 1710.88 -1.46472 3.89254 0
M  V30 18397 H 1709.45 -2.71599 2.55516 0
M  V30 18398 N 1711.64 -1.47227 -0.562322 0
M  V30 18399 C 1712.6 -1.58887 -1.6519 0
M  V30 18400 C 1713.6 -0.464359 -1.53949 0
M  V30 18401 O 1714.79 -0.729279 -1.582 0
M  V30 18402 C 1711.92 -1.52853 -3.04711 0
M  V30 18403 H 1713.12 -2.5601 -1.56202 0
M  V30 18404 H 1710.67 -1.35341 -0.781832 0
M  V30 18405 H 1711.41 -0.570867 -3.19236 0
M  V30 18406 H 1711.19 -2.3446 -3.14279 0
M  V30 18407 H 1712.68 -1.6414 -3.83989 0
M  V30 18408 N 1713.12 0.808639 -1.35273 0
M  V30 18409 C 1714.05 1.93502 -1.30687 0
M  V30 18410 C 1715.03 1.69127 -0.181675 0
M  V30 18411 O 1716.21 1.90519 -0.376312 0
M  V30 18412 C 1713.34 3.30211 -1.07602 0
M  V30 18413 C 1712.3 3.69063 -2.16741 0
M  V30 18414 C 1711.62 5.03911 -1.78824 0
M  V30 18415 C 1712.92 3.79656 -3.5869 0
M  V30 18416 H 1714.62 1.97597 -2.24935 0
M  V30 18417 H 1712.16 0.949284 -1.0828 0
M  V30 18418 H 1714.12 4.0861 -1.03034 0
M  V30 18419 H 1712.84 3.26453 -0.0979944 0
M  V30 18420 H 1711.5 2.92948 -2.20402 0
M  V30 18421 H 1711.15 4.96655 -0.796449 0
M  V30 18422 H 1710.85 5.30877 -2.51881 0
M  V30 18423 H 1712.37 5.84752 -1.75777 0
M  V30 18424 H 1713.79 4.48292 -3.57362 0
M  V30 18425 H 1712.18 4.1809 -4.30489 0
M  V30 18426 H 1713.25 2.81265 -3.94991 0
M  V30 18427 N 1714.6 1.19237 1.03055 0
M  V30 18428 C 1715.54 0.925171 2.13409 0
M  V30 18429 C 1716.54 -0.118373 1.68986 0
M  V30 18430 O 1717.74 0.0307159 1.79974 0
M  V30 18431 H 1714.12 0.281769 0.697216 0
M  V30 18432 H 1716.09 1.86252 2.33137 0
M  V30 18433 C 1714.84 0.478529 3.44391 0
M  V30 18434 H 1714.16 1.27305 3.7899 0
M  V30 18435 H 1715.6 0.330661 4.22709 0
M  V30 18436 C 1714.06 -0.80715 3.27088 0
M  V30 18437 O 1714.59 -1.86897 3.55573 0
M  V30 18438 N 1712.8 -0.76373 2.80385 0
M  V30 18439 H 1712.34 0.100606 2.57403 0
M  V30 18440 H 1712.3 -1.62435 2.69188 0
M  V30 18441 N 1716.07 -1.22136 0.99602 0
M  V30 18442 C 1716.98 -2.27869 0.557927 0
M  V30 18443 C 1718 -1.69462 -0.394781 0
M  V30 18444 O 1719.18 -1.99704 -0.26084 0
M  V30 18445 C 1716.24 -3.46501 -0.117434 0
M  V30 18446 C 1715.3 -4.20213 0.878627 0
M  V30 18447 C 1714.54 -5.33181 0.2354 0
M  V30 18448 O 1714.76 -5.62093 -0.969954 0
M  V30 18449 O 1713.69 -5.94486 0.941828 0
M  V30 18450 H 1717.52 -2.67517 1.43765 0
M  V30 18451 H 1715.1 -1.28362 0.764428 0
M  V30 18452 H 1716.99 -4.18476 -0.49559 0
M  V30 18453 H 1715.66 -3.08772 -0.971674 0
M  V30 18454 H 1714.57 -3.50497 1.30777 0
M  V30 18455 H 1715.9 -4.6183 1.70217 0
M  V30 18456 N 1717.55 -0.769612 -1.37531 0
M  V30 18457 C 1718.46 -0.15514 -2.34086 0
M  V30 18458 C 1719.48 0.682108 -1.60073 0
M  V30 18459 O 1720.65 0.602527 -1.92176 0
M  V30 18460 C 1717.72 0.715344 -3.3924 0
M  V30 18461 C 1716.78 -0.138116 -4.29078 0
M  V30 18462 C 1716.01 0.690916 -5.29209 0
M  V30 18463 O 1716.24 1.92812 -5.36824 0
M  V30 18464 O 1715.17 0.101247 -6.01815 0
M  V30 18465 H 1719 -0.952968 -2.88361 0
M  V30 18466 H 1716.58 -0.530738 -1.39655 0
M  V30 18467 H 1718.46 1.21236 -4.03584 0
M  V30 18468 H 1717.14 1.4914 -2.87296 0
M  V30 18469 H 1716.05 -0.681443 -3.67841 0
M  V30 18470 H 1717.38 -0.877202 -4.8432 0
M  V30 18471 N 1719.03 1.48775 -0.519977 0
M  V30 18472 C 1720.28 2.03398 0.00969356 0
M  V30 18473 C 1720.63 1.39091 1.32934 0
M  V30 18474 O 1719.92 0.524027 1.84295 0
M  V30 18475 C 1720.12 3.56844 0.199204 0
M  V30 18476 C 1719.95 4.36026 -1.10052 0
M  V30 18477 C 1718.72 4.77338 -1.65762 0
M  V30 18478 C 1720.92 4.73454 -2.00862 0
M  V30 18479 N 1718.9 5.41017 -2.90127 0
M  V30 18480 C 1720.27 5.37049 -3.09804 0
M  V30 18481 C 1722.32 4.55388 -2.0131 0
M  V30 18482 C 1721.03 5.84488 -4.19246 0
M  V30 18483 C 1723.05 5.03801 -3.09739 0
M  V30 18484 C 1722.41 5.67412 -4.174 0
M  V30 18485 H 1718.51 0.78109 -0.0377045 0
M  V30 18486 H 1721.1 1.81718 -0.699042 0
M  V30 18487 H 1719.27 3.78369 0.877013 0
M  V30 18488 H 1721 3.98106 0.727582 0
M  V30 18489 H 1717.76 4.58138 -1.20029 0
M  V30 18490 H 1718.18 5.7743 -3.53417 0
M  V30 18491 H 1722.82 4.05598 -1.19374 0
M  V30 18492 H 1720.54 6.33289 -5.01967 0
M  V30 18493 H 1724.13 4.9162 -3.11129 0
M  V30 18494 H 1723.01 6.04195 -4.99919 0
M  V30 18495 N 1720.51 0.254649 1.55529 0
M  V30 18496 C 1721.46 -0.655705 2.18368 0
M  V30 18497 C 1722.44 -1.13353 1.14192 0
M  V30 18498 O 1723.63 -1.08201 1.40077 0
M  V30 18499 C 1720.76 -1.84883 2.89263 0
M  V30 18500 C 1719.85 -1.38914 4.00704 0
M  V30 18501 N 1720.24 -0.6442 5.01681 0
M  V30 18502 C 1718.54 -1.67379 4.13401 0
M  V30 18503 C 1719.24 -0.405172 5.80287 0
M  V30 18504 N 1718.22 -0.971651 5.34846 0
M  V30 18505 H 1722.02 -0.0784898 2.93795 0
M  V30 18506 H 1719.53 0.0573 1.62299 0
M  V30 18507 H 1721.53 -2.51209 3.32716 0
M  V30 18508 H 1720.19 -2.43019 2.15341 0
M  V30 18509 H 1721.2 -0.293541 5.17067 0
M  V30 18510 H 1717.88 -2.26599 3.50656 0
M  V30 18511 H 1719.27 0.190059 6.71631 0
M  V30 18512 N 1721.99 -1.57589 -0.0183649 0
M  V30 18513 C 1723.21 -1.94421 -0.722172 0
M  V30 18514 C 1723.64 -0.855471 -1.67521 0
M  V30 18515 O 1722.99 0.187954 -1.80323 0
M  V30 18516 C 1723.04 -3.30331 -1.44615 0
M  V30 18517 O 1722.15 -3.23337 -2.55982 0
M  V30 18518 H 1721.49 -0.63519 -0.193466 0
M  V30 18519 H 1724.02 -2.04579 0.0293527 0
M  V30 18520 H 1724.03 -3.65471 -1.8137 0
M  V30 18521 H 1722.7 -4.09132 -0.747256 0
M  V30 18522 H 1721.28 -2.99845 -2.21692 0
M  V30 18523 N 1723.46 0.290824 -1.54893 0
M  V30 18524 C 1724.74 1.04495 -1.65348 0
M  V30 18525 C 1725.12 2.04888 -0.508348 0
M  V30 18526 O 1724.47 2.23102 0.493749 0
M  V30 18527 C 1724.68 1.71772 -3.03801 0
M  V30 18528 C 1726.03 2.23595 -3.60958 0
M  V30 18529 O 1727.05 1.81788 -3.06319 0
M  V30 18530 O 1725.91 3.00225 -4.56648 0
M  V30 18531 H 1723 0.483605 -0.670862 0
M  V30 18532 H 1725.55 0.288101 -1.67237 0
M  V30 18533 H 1724.32 0.989296 -3.78588 0
M  V30 18534 H 1723.95 2.54188 -3.05735 0
M  V30 18535 N 1724.94 1.47523 0.554506 0
M  V30 18536 C 1725.89 1.60623 1.68235 0
M  V30 18537 C 1726.88 0.473445 1.6265 0
M  V30 18538 O 1728.09 0.651337 1.67802 0
M  V30 18539 H 1724.47 0.505539 0.556718 0
M  V30 18540 H 1726.44 2.55395 1.54323 0
M  V30 18541 C 1725.19 1.64022 3.06581 0
M  V30 18542 H 1724.51 2.50537 3.11562 0
M  V30 18543 H 1725.95 1.77237 3.85179 0
M  V30 18544 C 1724.41 0.374048 3.34817 0
M  V30 18545 O 1724.94 -0.523704 3.98272 0
M  V30 18546 N 1723.14 0.253244 2.89494 0
M  V30 18547 H 1722.69 0.984738 2.38035 0
M  V30 18548 H 1722.65 -0.592982 3.08757 0
M  V30 18549 N 1726.42 -0.801453 1.357 0
M  V30 18550 C 1727.65 -1.59518 1.32547 0
M  V30 18551 C 1728.07 -1.87868 -0.0934243 0
M  V30 18552 O 1727.43 -1.46955 -1.06179 0
M  V30 18553 C 1727.48 -2.90028 2.14281 0
M  V30 18554 O 1726.58 -3.83086 1.52704 0
M  V30 18555 H 1725.92 -0.48434 0.454215 0
M  V30 18556 H 1728.45 -0.994315 1.78814 0
M  V30 18557 H 1728.46 -3.39406 2.26423 0
M  V30 18558 H 1727.14 -2.6872 3.17431 0
M  V30 18559 H 1725.71 -3.4165 1.49432 0
M  V30 18560 N 1727.9 -1.19782 -1.02421 0
M  V30 18561 C 1729.18 -0.912541 -1.73009 0
M  V30 18562 C 1729.56 0.58061 -2.02958 0
M  V30 18563 O 1728.9 1.54013 -1.68797 0
M  V30 18564 C 1729.11 -1.77745 -3.00346 0
M  V30 18565 C 1730.46 -2.01462 -3.73762 0
M  V30 18566 O 1731.49 -1.74935 -3.10284 0
M  V30 18567 O 1730.34 -2.46219 -4.87892 0
M  V30 18568 H 1727.44 -0.340513 -0.753644 0
M  V30 18569 H 1729.98 -1.30618 -1.08338 0
M  V30 18570 H 1728.76 -2.78887 -2.74477 0
M  V30 18571 H 1728.38 -1.38339 -3.72757 0
M  V30 18572 N 1729.38 1.21606 -1.00248 0
M  V30 18573 C 1730.63 1.90231 -0.682401 0
M  V30 18574 C 1730.95 1.78324 0.78903 0
M  V30 18575 O 1730.22 1.17653 1.56635 0
M  V30 18576 H 1728.8 0.704132 -0.249414 0
M  V30 18577 H 1731.46 1.47751 -1.27105 0
M  V30 18578 H 1730.55 2.97183 -0.953351 0
M  V30 18579 N 1730.86 0.776895 1.37121 0
M  V30 18580 C 1731.77 0.167552 2.34001 0
M  V30 18581 C 1732.78 -0.673609 1.60432 0
M  V30 18582 O 1733.96 -0.592327 1.92493 0
M  V30 18583 C 1731.02 -0.697343 3.39615 0
M  V30 18584 C 1730.08 0.160869 4.28998 0
M  V30 18585 C 1729.32 -0.662841 5.29568 0
M  V30 18586 O 1729.54 -1.89962 5.37839 0
M  V30 18587 O 1728.47 -0.0693304 6.0186 0
M  V30 18588 H 1732.3 0.968247 2.87852 0
M  V30 18589 H 1729.88 0.538137 1.39372 0
M  V30 18590 H 1731.77 -1.19094 4.04221 0
M  V30 18591 H 1730.44 -1.47614 2.88083 0
M  V30 18592 H 1729.35 0.700941 3.67475 0
M  V30 18593 H 1730.68 0.902875 4.83848 0
M  V30 18594 N 1732.33 -1.48497 0.527859 0
M  V30 18595 C 1733.58 -2.01698 -0.00900086 0
M  V30 18596 C 1733.9 -1.4104 -1.35525 0
M  V30 18597 O 1735.1 -1.85726 -1.98035 0
M  V30 18598 C 1733.56 -3.59839 -0.0664428 0
M  V30 18599 C 1733.17 -4.2948 1.27479 0
M  V30 18600 C 1734.91 -4.20893 -0.552244 0
M  V30 18601 C 1732.82 -5.79548 1.17805 0
M  V30 18602 H 1731.75 -0.753966 -0.00713463 0
M  V30 18603 H 1734.4 -1.70779 0.67132 0
M  V30 18604 H 1732.78 -3.8759 -0.811795 0
M  V30 18605 H 1733.95 -4.13403 2.03554 0
M  V30 18606 H 1732.27 -3.80289 1.69616 0
M  V30 18607 H 1734.87 -5.30825 -0.642556 0
M  V30 18608 H 1735.21 -3.86066 -1.55752 0
M  V30 18609 H 1735.74 -3.97563 0.137363 0
M  V30 18610 H 1732.48 -6.18945 2.15841 0
M  V30 18611 H 1732 -5.98044 0.458624 0
M  V30 18612 H 1733.68 -6.41153 0.867834 0
M  V30 18613 N 1733.81 -0.262893 -1.55392 0
M  V30 18614 C 1734.77 0.616662 -2.20749 0
M  V30 18615 C 1735.77 1.09066 -1.18158 0
M  V30 18616 O 1736.96 0.992797 -1.4314 0
M  V30 18617 C 1734.1 1.84937 -2.86376 0
M  V30 18618 H 1735.29 0.0462013 -2.99864 0
M  V30 18619 H 1732.84 -0.013432 -1.56294 0
M  V30 18620 H 1733.58 2.46066 -2.1124 0
M  V30 18621 H 1733.36 1.51754 -3.61543 0
M  V30 18622 H 1734.85 2.47511 -3.36345 0
M  V30 18623 N 1735.29 1.57597 0.0100073 0
M  V30 18624 C 1736.51 1.94801 0.711852 0
M  V30 18625 C 1736.94 0.864343 1.67065 0
M  V30 18626 O 1736.3 -0.178388 1.8042 0
M  V30 18627 C 1736.35 3.31094 1.42862 0
M  V30 18628 O 1735.45 3.2469 2.54264 0
M  V30 18629 H 1734.79 0.636207 0.190095 0
M  V30 18630 H 1737.32 2.04561 -0.0402016 0
M  V30 18631 H 1737.33 3.66428 1.79429 0
M  V30 18632 H 1736.01 4.09522 0.725549 0
M  V30 18633 H 1734.58 3.01017 2.20099 0
M  V30 18634 N 1736.77 -0.282606 1.55045 0
M  V30 18635 C 1737.68 -1.37129 1.90349 0
M  V30 18636 C 1738.69 -1.54537 0.799639 0
M  V30 18637 O 1739.87 -1.68849 1.09782 0
M  V30 18638 C 1736.93 -2.71211 2.15975 0
M  V30 18639 C 1736 -2.62632 3.39592 0
M  V30 18640 C 1735.23 -3.90319 3.63987 0
M  V30 18641 O 1735.45 -4.90551 2.9106 0
M  V30 18642 O 1734.39 -3.91102 4.57518 0
M  V30 18643 H 1738.21 -1.10189 2.83006 0
M  V30 18644 H 1735.8 -0.480293 1.41469 0
M  V30 18645 H 1737.68 -3.50509 2.33926 0
M  V30 18646 H 1736.35 -2.97958 1.26503 0
M  V30 18647 H 1735.26 -1.81743 3.26987 0
M  V30 18648 H 1736.59 -2.40836 4.29254 0
M  V30 18649 N 1738.25 -1.47815 -0.546675 0
M  V30 18650 C 1739.49 -1.56566 -1.31402 0
M  V30 18651 C 1739.85 -0.227101 -1.90652 0
M  V30 18652 O 1741.05 -0.189506 -2.68131 0
M  V30 18653 C 1739.32 -2.6603 -2.38669 0
M  V30 18654 S 1740.88 -2.94436 -3.25351 0
M  V30 18655 H 1737.7 -0.552748 -0.447203 0
M  V30 18656 H 1740.3 -1.85251 -0.624688 0
M  V30 18657 H 1739 -3.6187 -1.93593 0
M  V30 18658 H 1738.54 -2.39193 -3.1233 0
M  V30 18659 H 1740.55 -2.32455 -4.38382 0
M  V30 18660 N 1739.72 0.794246 -1.36123 0
M  V30 18661 C 1740.63 1.93807 -1.32197 0
M  V30 18662 C 1741.65 1.7254 -0.2249 0
M  V30 18663 O 1742.83 1.9616 -0.456431 0
M  V30 18664 C 1739.89 3.28593 -1.10578 0
M  V30 18665 C 1738.95 3.6267 -2.29715 0
M  V30 18666 C 1738.18 4.91025 -2.09118 0
M  V30 18667 O 1738.41 5.6039 -1.06389 0
M  V30 18668 O 1737.34 5.23647 -2.96779 0
M  V30 18669 H 1741.17 2.00068 -2.28487 0
M  V30 18670 H 1738.75 0.933808 -1.16621 0
M  V30 18671 H 1740.63 4.0926 -1.0042 0
M  V30 18672 H 1739.31 3.23235 -0.17347 0
M  V30 18673 H 1738.22 2.82329 -2.4544 0
M  V30 18674 H 1739.55 3.72747 -3.21435 0
M  V30 18675 N 1741.2 1.20323 1.01785 0
M  V30 18676 C 1742.44 1.0239 1.76906 0
M  V30 18677 C 1742.81 -0.436461 1.86973 0
M  V30 18678 O 1744.01 -0.735939 2.58529 0
M  V30 18679 C 1742.28 1.68729 3.15064 0
M  V30 18680 S 1743.84 1.65881 4.06237 0
M  V30 18681 H 1740.65 0.367179 0.608852 0
M  V30 18682 H 1743.26 1.52857 1.21881 0
M  V30 18683 H 1741.96 2.74194 3.05362 0
M  V30 18684 H 1741.49 1.18387 3.75164 0
M  V30 18685 H 1743.51 0.6908 4.91368 0
M  V30 18686 N 1742.68 -1.21073 1.00892 0
M  V30 18687 C 1743.96 -1.85871 0.609214 0
M  V30 18688 C 1744.34 -1.90334 -0.913023 0
M  V30 18689 O 1743.68 -1.40552 -1.80159 0
M  V30 18690 C 1743.89 -3.25918 1.24813 0
M  V30 18691 C 1745.24 -4.02274 1.35871 0
M  V30 18692 O 1746.27 -3.35244 1.20375 0
M  V30 18693 O 1745.13 -5.22296 1.60838 0
M  V30 18694 H 1742.22 -0.800105 0.20919 0
M  V30 18695 H 1744.77 -1.28724 1.10581 0
M  V30 18696 H 1743.54 -3.17392 2.28862 0
M  V30 18697 H 1743.16 -3.90688 0.738124 0
M  V30 18698 N 1744.16 -0.784156 -1.36707 0
M  V30 18699 C 1745.38 -0.364744 -2.04168 0
M  V30 18700 C 1745.81 1.00905 -1.58745 0
M  V30 18701 O 1745.17 1.64903 -0.753447 0
M  V30 18702 C 1745.21 -0.43091 -3.58016 0
M  V30 18703 O 1744.32 0.564103 -4.08524 0
M  V30 18704 H 1743.66 -0.15576 -0.645473 0
M  V30 18705 H 1746.19 -1.0638 -1.74769 0
M  V30 18706 H 1746.2 -0.292629 -4.06949 0
M  V30 18707 H 1744.87 -1.43308 -3.9043 0
M  V30 18708 H 1743.45 0.387917 -3.70877 0
M  V30 18709 N 1745.64 1.48215 -0.535727 0
M  V30 18710 C 1746.88 2.028 -0.00373305 0
M  V30 18711 C 1747.22 1.41143 1.33388 0
M  V30 18712 O 1746.49 0.559227 1.86287 0
M  V30 18713 C 1746.77 3.59925 0.112186 0
M  V30 18714 C 1746.63 4.32053 -1.251 0
M  V30 18715 C 1747.95 4.32083 0.836177 0
M  V30 18716 H 1745.06 0.736995 -0.00283063 0
M  V30 18717 H 1747.71 1.76877 -0.693868 0
M  V30 18718 H 1745.86 3.82142 0.69996 0
M  V30 18719 H 1747.53 4.21238 -1.88033 0
M  V30 18720 H 1745.77 3.93246 -1.83139 0
M  V30 18721 H 1746.44 5.4046 -1.12283 0
M  V30 18722 H 1748.92 4.1473 0.337333 0
M  V30 18723 H 1747.79 5.41699 0.886196 0
M  V30 18724 H 1748.06 3.99772 1.88771 0
M  V30 18725 N 1747.11 0.27113 1.5525 0
M  V30 18726 C 1748.36 -0.346791 1.99508 0
M  V30 18727 C 1748.69 -1.56159 1.15951 0
M  V30 18728 O 1747.94 -1.94502 0.216185 0
M  V30 18729 C 1748.24 -0.776823 3.48856 0
M  V30 18730 C 1747.91 0.332899 4.49669 0
M  V30 18731 C 1746.57 0.63762 4.76957 0
M  V30 18732 C 1748.92 1.08087 5.09869 0
M  V30 18733 C 1746.25 1.69396 5.61713 0
M  V30 18734 C 1748.6 2.12691 5.95773 0
M  V30 18735 C 1747.27 2.43802 6.21383 0
M  V30 18736 H 1746.54 -0.1269 0.730053 0
M  V30 18737 H 1749.18 0.384012 1.8761 0
M  V30 18738 H 1747.49 -1.58723 3.5821 0
M  V30 18739 H 1749.19 -1.26561 3.80504 0
M  V30 18740 H 1745.78 0.0852733 4.28515 0
M  V30 18741 H 1749.96 0.858708 4.88815 0
M  V30 18742 H 1745.22 1.94007 5.79803 0
M  V30 18743 H 1749.39 2.71125 6.41455 0
M  V30 18744 H 1747.02 3.2579 6.86851 0
M  V30 18745 N 1748.59 -1.576 -0.00164943 0
M  V30 18746 C 1749.54 -2.09439 -1.01183 0
M  V30 18747 C 1750.53 -1.01402 -1.35698 0
M  V30 18748 O 1751.74 -1.19869 -1.34281 0
M  V30 18749 H 1748.12 -0.668732 -0.34395 0
M  V30 18750 H 1750.09 -2.93306 -0.549033 0
M  V30 18751 C 1748.84 -2.61163 -2.29542 0
M  V30 18752 H 1748.16 -3.43926 -2.0385 0
M  V30 18753 H 1749.6 -3.01115 -2.98506 0
M  V30 18754 C 1748.06 -1.52502 -3.00408 0
M  V30 18755 O 1748.59 -0.906982 -3.91327 0
M  V30 18756 N 1746.79 -1.25288 -2.62205 0
M  V30 18757 H 1746.34 -1.75731 -1.88351 0
M  V30 18758 H 1746.3 -0.528035 -3.09934 0
M  V30 18759 N 1750.07 0.274379 -1.55193 0
M  V30 18760 C 1751.02 1.34139 -1.84366 0
M  V30 18761 C 1752 1.44755 -0.702475 0
M  V30 18762 O 1753.2 1.48459 -0.963785 0
M  V30 18763 C 1750.33 2.7019 -2.11784 0
M  V30 18764 C 1749.41 2.63689 -3.32158 0
M  V30 18765 N 1749.8 2.26808 -4.52097 0
M  V30 18766 C 1748.1 2.94752 -3.34719 0
M  V30 18767 C 1748.8 2.30264 -5.34185 0
M  V30 18768 N 1747.78 2.68683 -4.72557 0
M  V30 18769 H 1751.58 1.0463 -2.74645 0
M  V30 18770 H 1749.09 0.483012 -1.55051 0
M  V30 18771 H 1751.09 3.47158 -2.30839 0
M  V30 18772 H 1749.75 3.00588 -1.22788 0
M  V30 18773 H 1750.76 1.98809 -4.78221 0
M  V30 18774 H 1747.44 3.29871 -2.55912 0
M  V30 18775 H 1748.83 2.04323 -6.4008 0
M  V30 18776 N 1751.55 1.48103 0.538828 0
M  V30 18777 C 1752.48 1.64856 1.65363 0
M  V30 18778 C 1753.46 0.497579 1.6266 0
M  V30 18779 O 1754.64 0.729088 1.79994 0
M  V30 18780 C 1751.77 1.67984 3.03971 0
M  V30 18781 C 1750.73 2.82494 3.21529 0
M  V30 18782 C 1750.05 2.70706 4.6111 0
M  V30 18783 C 1751.35 4.23892 3.05145 0
M  V30 18784 H 1753.05 2.58183 1.51598 0
M  V30 18785 H 1750.59 1.24249 0.727886 0
M  V30 18786 H 1752.55 1.78294 3.81824 0
M  V30 18787 H 1751.27 0.712299 3.18738 0
M  V30 18788 H 1749.93 2.71725 2.46091 0
M  V30 18789 H 1749.58 1.7194 4.727 0
M  V30 18790 H 1749.28 3.47539 4.73804 0
M  V30 18791 H 1750.8 2.82971 5.41073 0
M  V30 18792 H 1752.22 4.3554 3.72797 0
M  V30 18793 H 1750.61 5.01654 3.29338 0
M  V30 18794 H 1751.68 4.40973 2.01671 0
M  V30 18795 N 1753.03 -0.787016 1.36542 0
M  V30 18796 C 1753.94 -1.93103 1.33223 0
M  V30 18797 C 1754.95 -1.72419 0.234047 0
M  V30 18798 O 1756.13 -1.95915 0.466828 0
M  V30 18799 C 1753.19 -3.28002 1.12319 0
M  V30 18800 C 1752.25 -3.61447 2.31635 0
M  V30 18801 C 1751.49 -4.89909 2.11719 0
M  V30 18802 O 1751.71 -5.59818 1.0936 0
M  V30 18803 O 1750.64 -5.22065 2.99552 0
M  V30 18804 H 1754.47 -1.98853 2.29545 0
M  V30 18805 H 1752.06 -0.92761 1.17114 0
M  V30 18806 H 1753.94 -4.08722 1.02589 0
M  V30 18807 H 1752.61 -3.23138 0.19061 0
M  V30 18808 H 1751.52 -2.81024 2.46934 0
M  V30 18809 H 1752.85 -3.71037 3.23407 0
M  V30 18810 N 1754.5 -1.20861 -1.01145 0
M  V30 18811 C 1755.41 -0.977926 -2.13246 0
M  V30 18812 C 1756.43 0.0678862 -1.73868 0
M  V30 18813 O 1757.61 -0.120717 -2.01038 0
M  V30 18814 C 1754.67 -0.538575 -3.42491 0
M  V30 18815 C 1753.73 -1.65584 -3.96081 0
M  V30 18816 C 1752.97 -1.23736 -5.19158 0
M  V30 18817 O 1753.19 -0.108227 -5.70297 0
M  V30 18818 O 1752.12 -2.04679 -5.6603 0
M  V30 18819 H 1755.95 -1.91666 -2.3558 0
M  V30 18820 H 1753.53 -0.992931 -1.1163 0
M  V30 18821 H 1755.42 -0.303041 -4.20309 0
M  V30 18822 H 1754.09 0.371515 -3.21561 0
M  V30 18823 H 1753 -1.94572 -3.19519 0
M  V30 18824 H 1754.33 -2.54313 -4.21409 0
M  V30 18825 N 1755.98 1.20536 -1.01532 0
M  V30 18826 C 1756.91 2.2553 -0.604866 0
M  V30 18827 C 1757.89 1.65814 0.379452 0
M  V30 18828 O 1759.08 1.92381 0.265162 0
M  V30 18829 C 1756.21 3.4725 0.0589292 0
M  V30 18830 C 1755.16 4.19551 -0.846241 0
M  V30 18831 C 1754.49 5.34678 -0.0482901 0
M  V30 18832 C 1755.79 4.75829 -2.1537 0
M  V30 18833 H 1757.48 2.60117 -1.48254 0
M  V30 18834 H 1755.03 1.25035 -0.714297 0
M  V30 18835 H 1756.98 4.1988 0.357627 0
M  V30 18836 H 1755.71 3.11822 0.97131 0
M  V30 18837 H 1754.36 3.48785 -1.12892 0
M  V30 18838 H 1754.01 4.95494 0.8657 0
M  V30 18839 H 1753.71 5.83982 -0.651081 0
M  V30 18840 H 1755.24 6.10112 0.243983 0
M  V30 18841 H 1756.65 5.40284 -1.91745 0
M  V30 18842 H 1755.05 5.35564 -2.70723 0
M  V30 18843 H 1756.12 3.94641 -2.81756 0
M  V30 18844 N 1757.46 0.791395 1.36289 0
M  V30 18845 C 1758.88 0.473308 1.5242 0
M  V30 18846 C 1759.08 -1.00805 1.74473 0
M  V30 18847 O 1758.13 -1.79349 1.77737 0
M  V30 18848 C 1759.45 1.30547 2.70884 0
M  V30 18849 C 1760.99 1.29936 2.84755 0
M  V30 18850 C 1761.47 2.1153 4.06225 0
M  V30 18851 N 1762.96 2.08987 4.13375 0
M  V30 18852 C 1763.69 2.68889 5.06445 0
M  V30 18853 N 1763.19 3.37657 6.04946 0
M  V30 18854 N 1764.98 2.58612 4.99075 0
M  V30 18855 H 1757.13 1.75096 1.20229 0
M  V30 18856 H 1759.4 0.74441 0.586991 0
M  V30 18857 H 1759.1 2.35607 2.61117 0
M  V30 18858 H 1758.98 0.948139 3.65089 0
M  V30 18859 H 1761.36 0.256671 2.93982 0
M  V30 18860 H 1761.45 1.69647 1.91451 0
M  V30 18861 H 1761.09 3.15832 3.9776 0
M  V30 18862 H 1761.02 1.69189 4.98681 0
M  V30 18863 H 1763.51 1.58938 3.42851 0
M  V30 18864 H 1763.82 3.8069 6.72529 0
M  V30 18865 H 1762.17 3.4176 6.05165 0
M  V30 18866 H 1765.36 2.04487 4.21073 0
M  V30 18867 H 1765.53 3.05587 5.7142 0
M  V30 18868 N 1758.94 -1.47929 0.54358 0
M  V30 18869 C 1759.87 -2.3264 -0.200228 0
M  V30 18870 C 1760.85 -1.42945 -0.922 0
M  V30 18871 O 1762.04 -1.71817 -0.905129 0
M  V30 18872 C 1759.17 -3.24439 -1.23922 0
M  V30 18873 C 1758.12 -4.23267 -0.634753 0
M  V30 18874 C 1757.45 -5.04295 -1.77739 0
M  V30 18875 C 1758.75 -5.20747 0.402524 0
M  V30 18876 H 1760.44 -2.95077 0.506957 0
M  V30 18877 H 1757.99 -1.41896 0.245246 0
M  V30 18878 H 1759.94 -3.82535 -1.76763 0
M  V30 18879 H 1758.66 -2.60029 -1.97616 0
M  V30 18880 H 1757.32 -3.66377 -0.127756 0
M  V30 18881 H 1756.97 -4.36299 -2.50304 0
M  V30 18882 H 1756.67 -5.71195 -1.37879 0
M  V30 18883 H 1758.19 -5.65246 -2.30932 0
M  V30 18884 H 1759.61 -5.73287 -0.039305 0
M  V30 18885 H 1758 -5.95774 0.719251 0
M  V30 18886 H 1759.07 -4.67054 1.3034 0
M  V30 18887 N 1760.42 -0.27936 -1.55104 0
M  V30 18888 C 1761.37 0.620882 -2.19383 0
M  V30 18889 C 1762.35 1.11522 -1.15981 0
M  V30 18890 O 1763.54 1.05959 -1.4178 0
M  V30 18891 C 1760.67 1.80257 -2.92168 0
M  V30 18892 C 1759.76 1.32522 -4.02863 0
M  V30 18893 N 1760.15 0.564305 -5.02642 0
M  V30 18894 C 1758.45 1.60781 -4.16011 0
M  V30 18895 C 1759.15 0.312802 -5.80858 0
M  V30 18896 N 1758.12 0.886439 -5.36324 0
M  V30 18897 H 1761.93 0.0317396 -2.93883 0
M  V30 18898 H 1759.44 -0.083113 -1.62187 0
M  V30 18899 H 1761.44 2.45884 -3.3667 0
M  V30 18900 H 1760.1 2.39562 -2.1918 0
M  V30 18901 H 1761.11 0.211243 -5.17469 0
M  V30 18902 H 1757.79 2.20991 -3.54216 0
M  V30 18903 H 1759.18 -0.296885 -6.71244 0
M  V30 18904 N 1761.9 1.57599 -0.0067085 0
M  V30 18905 C 1762.83 2.11878 0.981331 0
M  V30 18906 C 1763.81 1.02949 1.35408 0
M  V30 18907 O 1764.99 1.30667 1.43665 0
M  V30 18908 C 1762.12 2.62757 2.27104 0
M  V30 18909 C 1761.08 3.76272 2.0397 0
M  V30 18910 C 1760.4 4.13491 3.39012 0
M  V30 18911 C 1761.7 5.03274 1.39688 0
M  V30 18912 H 1763.4 2.94683 0.529366 0
M  V30 18913 H 1760.94 1.41757 0.253187 0
M  V30 18914 H 1762.89 2.99359 2.96585 0
M  V30 18915 H 1761.62 1.77082 2.74426 0
M  V30 18916 H 1760.28 3.40074 1.36913 0
M  V30 18917 H 1759.93 3.24831 3.8405 0
M  V30 18918 H 1759.63 4.89972 3.24347 0
M  V30 18919 H 1761.15 4.52657 4.09797 0
M  V30 18920 H 1762.56 5.37604 1.99136 0
M  V30 18921 H 1760.96 5.84604 1.3549 0
M  V30 18922 H 1762.03 4.8351 0.366928 0
M  V30 18923 N 1763.37 -0.266145 1.55336 0
M  V30 18924 C 1764.28 -1.35103 1.91793 0
M  V30 18925 C 1765.3 -1.5368 0.815985 0
M  V30 18926 O 1766.48 -1.67675 1.11567 0
M  V30 18927 C 1763.54 -2.68905 2.1884 0
M  V30 18928 C 1762.6 -2.59015 3.42359 0
M  V30 18929 C 1761.83 -3.86437 3.68106 0
M  V30 18930 O 1762.06 -4.87436 2.96247 0
M  V30 18931 O 1760.99 -3.86227 4.61641 0
M  V30 18932 H 1764.82 -1.07181 2.84158 0
M  V30 18933 H 1762.4 -0.465262 1.41971 0
M  V30 18934 H 1764.28 -3.48008 2.3763 0
M  V30 18935 H 1762.96 -2.96599 1.29656 0
M  V30 18936 H 1761.87 -1.78264 3.28896 0
M  V30 18937 H 1763.2 -2.3627 4.31784 0
M  V30 18938 N 1764.85 -1.48386 -0.530967 0
M  V30 18939 C 1765.78 -1.58922 -1.65156 0
M  V30 18940 C 1766.8 -0.473583 -1.5576 0
M  V30 18941 O 1767.99 -0.744383 -1.62238 0
M  V30 18942 C 1765.09 -1.50201 -3.03798 0
M  V30 18943 C 1764.26 -2.76787 -3.38685 0
M  V30 18944 C 1763.32 -2.61534 -4.56603 0
M  V30 18945 O 1762.34 -3.35417 -4.59874 0
M  V30 18946 N 1763.55 -1.71087 -5.54716 0
M  V30 18947 H 1766.31 -2.55559 -1.56555 0
M  V30 18948 H 1763.87 -1.45097 -0.718216 0
M  V30 18949 H 1765.86 -1.37693 -3.80556 0
M  V30 18950 H 1764.43 -0.615419 -3.06482 0
M  V30 18951 H 1763.65 -3.03867 -2.51115 0
M  V30 18952 H 1764.94 -3.6077 -3.58779 0
M  V30 18953 H 1764.34 -1.10261 -5.54851 0
M  V30 18954 H 1762.9 -1.64518 -6.30696 0
M  V30 18955 N 1766.33 0.779763 -1.36958 0
M  V30 18956 C 1767.24 1.92394 -1.34245 0
M  V30 18957 C 1768.26 1.72292 -0.243187 0
M  V30 18958 O 1769.43 1.95665 -0.477211 0
M  V30 18959 C 1766.5 3.27402 -1.14057 0
M  V30 18960 C 1765.56 3.60213 -2.33548 0
M  V30 18961 C 1764.79 4.88779 -2.14314 0
M  V30 18962 O 1765.01 5.59231 -1.12327 0
M  V30 18963 O 1763.95 5.20469 -3.02316 0
M  V30 18964 H 1767.77 1.97633 -2.30596 0
M  V30 18965 H 1765.36 0.921386 -1.17605 0
M  V30 18966 H 1767.24 4.08172 -1.04755 0
M  V30 18967 H 1765.92 3.23033 -0.207744 0
M  V30 18968 H 1764.82 2.7971 -2.48421 0
M  V30 18969 H 1766.16 3.69317 -3.25371 0
M  V30 18970 N 1767.81 1.21396 1.00503 0
M  V30 18971 C 1768.74 0.916483 2.08988 0
M  V30 18972 C 1769.72 -0.135972 1.6203 0
M  V30 18973 O 1770.9 -0.00701537 1.88499 0
M  V30 18974 C 1768.03 0.376122 3.36605 0
M  V30 18975 C 1767.08 1.41137 4.0247 0
M  V30 18976 S 1767.91 2.98055 4.44886 0
M  V30 18977 C 1769.06 2.45626 5.7569 0
M  V30 18978 H 1769.3 1.83517 2.33899 0
M  V30 18979 H 1766.83 1.0437 1.13782 0
M  V30 18980 H 1768.79 0.0709239 4.10439 0
M  V30 18981 H 1767.45 -0.52125 3.09745 0
M  V30 18982 H 1766.64 0.982903 4.94323 0
M  V30 18983 H 1766.24 1.66465 3.34911 0
M  V30 18984 H 1768.54 1.8611 6.51436 0
M  V30 18985 H 1769.48 3.3592 6.23348 0
M  V30 18986 H 1769.89 1.87337 5.32508 0
M  V30 18987 N 1769.29 -1.19996 1.0217 0
M  V30 18988 C 1770.53 -1.89121 0.712579 0
M  V30 18989 C 1770.85 -1.79556 -0.760561 0
M  V30 18990 O 1770.12 -1.2013 -1.54744 0
M  V30 18991 H 1768.7 -0.700075 0.260585 0
M  V30 18992 H 1771.37 -1.4571 1.2944 0
M  V30 18993 H 1770.46 -2.95629 1.00051 0
M  V30 18994 N 1770.76 -0.798611 -1.35867 0
M  V30 18995 C 1772.01 -0.37526 -1.98993 0
M  V30 18996 C 1772.34 1.05549 -1.6337 0
M  V30 18997 O 1771.59 1.74552 -0.88488 0
M  V30 18998 C 1771.89 -0.496572 -3.53934 0
M  V30 18999 C 1771.56 -1.88946 -4.09402 0
M  V30 19000 C 1770.22 -2.27056 -4.24263 0
M  V30 19001 C 1772.57 -2.8011 -4.39531 0
M  V30 19002 C 1769.9 -3.55712 -4.66568 0
M  V30 19003 C 1772.25 -4.08205 -4.83272 0
M  V30 19004 C 1770.92 -4.46323 -4.96338 0
M  V30 19005 H 1770.19 -0.137317 -0.728165 0
M  V30 19006 H 1772.83 -1.01786 -1.6221 0
M  V30 19007 H 1771.14 0.229499 -3.91127 0
M  V30 19008 H 1772.84 -0.149903 -4.0072 0
M  V30 19009 H 1769.43 -1.58336 -3.98281 0
M  V30 19010 H 1773.61 -2.51919 -4.2761 0
M  V30 19011 H 1768.87 -3.85105 -4.74873 0
M  V30 19012 H 1773.04 -4.78952 -5.05547 0
M  V30 19013 H 1770.67 -5.4607 -5.28877 0
M  V30 19014 N 1772.24 1.47639 -0.551417 0
M  V30 19015 C 1773.15 2.33722 0.202799 0
M  V30 19016 C 1774.17 1.47832 0.917699 0
M  V30 19017 O 1775.34 1.80772 0.887885 0
M  V30 19018 C 1772.41 3.24408 1.22313 0
M  V30 19019 C 1771.47 4.26184 0.51628 0
M  V30 19020 C 1770.7 5.12537 1.488 0
M  V30 19021 O 1770.93 5.01241 2.72238 0
M  V30 19022 O 1769.86 5.93269 1.01566 0
M  V30 19023 H 1773.69 2.99503 -0.50317 0
M  V30 19024 H 1771.27 1.46104 -0.312093 0
M  V30 19025 H 1773.15 3.80441 1.81225 0
M  V30 19026 H 1771.83 2.61262 1.91112 0
M  V30 19027 H 1770.73 3.73927 -0.113886 0
M  V30 19028 H 1772.07 4.92028 -0.130158 0
M  V30 19029 N 1773.72 0.287581 1.54954 0
M  V30 19030 C 1774.67 -0.594449 2.23013 0
M  V30 19031 C 1775.64 -1.14007 1.20795 0
M  V30 19032 O 1776.82 -1.18708 1.49376 0
M  V30 19033 C 1773.96 -1.76687 2.96439 0
M  V30 19034 C 1773.08 -1.25391 4.13402 0
M  V30 19035 C 1772.21 -2.38912 4.74441 0
M  V30 19036 C 1771.25 -1.84683 5.83574 0
M  V30 19037 N 1770.39 -2.91725 6.38624 0
M  V30 19038 H 1775.23 -0.00743921 2.97999 0
M  V30 19039 H 1772.76 0.00809578 1.47098 0
M  V30 19040 H 1774.72 -2.45621 3.37233 0
M  V30 19041 H 1773.35 -2.32571 2.23853 0
M  V30 19042 H 1772.4 -0.45726 3.77642 0
M  V30 19043 H 1773.72 -0.816813 4.92067 0
M  V30 19044 H 1772.87 -3.15818 5.18019 0
M  V30 19045 H 1771.61 -2.85943 3.95079 0
M  V30 19046 H 1770.61 -1.06261 5.39434 0
M  V30 19047 H 1771.84 -1.38572 6.64812 0
M  V30 19048 H 1769.78 -3.38115 5.62152 0
M  V30 19049 H 1769.7 -2.5247 7.12597 0
M  V30 19050 H 1770.97 -3.68569 6.86861 0
M  V30 19051 N 1775.2 -1.57593 0.0150662 0
M  V30 19052 C 1776.45 -1.91214 -0.666599 0
M  V30 19053 C 1776.77 -0.890139 -1.72936 0
M  V30 19054 O 1776.03 0.102976 -1.95429 0
M  V30 19055 C 1776.33 -3.3158 -1.33376 0
M  V30 19056 C 1775.99 -4.49098 -0.402748 0
M  V30 19057 C 1774.66 -4.80977 -0.146455 0
M  V30 19058 C 1777.01 -5.20659 0.237376 0
M  V30 19059 C 1774.34 -5.81783 0.758003 0
M  V30 19060 C 1776.69 -6.22429 1.1298 0
M  V30 19061 C 1775.35 -6.52758 1.39513 0
M  V30 19062 H 1774.62 -0.699701 -0.243926 0
M  V30 19063 H 1777.27 -1.91358 0.073824 0
M  V30 19064 H 1775.57 -3.27632 -2.1486 0
M  V30 19065 H 1777.27 -3.54859 -1.86751 0
M  V30 19066 H 1773.86 -4.24198 -0.612678 0
M  V30 19067 H 1778.04 -4.96272 0.052408 0
M  V30 19068 H 1773.3 -6.03634 0.971415 0
M  V30 19069 H 1777.47 -6.77005 1.63208 0
M  V30 19070 H 1775.1 -7.30687 2.09764 0
M  V30 19071 N 1776.68 0.257904 -1.55475 0
M  V30 19072 C 1777.92 0.98747 -1.76792 0
M  V30 19073 C 1778.25 1.85732 -0.577411 0
M  V30 19074 O 1777.51 1.90698 0.439647 0
M  V30 19075 C 1777.81 1.8875 -3.03494 0
M  V30 19076 C 1777.47 1.17391 -4.35351 0
M  V30 19077 C 1776.13 0.976662 -4.71184 0
M  V30 19078 C 1778.49 0.667299 -5.16911 0
M  V30 19079 C 1775.81 0.260314 -5.86122 0
M  V30 19080 C 1778.17 -0.0355283 -6.3259 0
M  V30 19081 C 1776.83 -0.244359 -6.67053 0
M  V30 19082 H 1776.1 0.361341 -0.646926 0
M  V30 19083 H 1778.75 0.258469 -1.89748 0
M  V30 19084 H 1777.05 2.6832 -2.85502 0
M  V30 19085 H 1778.75 2.45348 -3.17184 0
M  V30 19086 H 1775.34 1.33758 -4.07194 0
M  V30 19087 H 1779.52 0.807271 -4.89691 0
M  V30 19088 H 1774.78 0.0879391 -6.11337 0
M  V30 19089 H 1778.95 -0.435775 -6.95035 0
M  V30 19090 H 1776.58 -0.801403 -7.55964 0
M  V30 19091 N 1778.15 1.48666 0.52309 0
M  V30 19092 C 1779.06 1.66396 1.65377 0
M  V30 19093 C 1780.08 0.546469 1.65196 0
M  V30 19094 O 1781.26 0.818413 1.84022 0
M  V30 19095 C 1778.32 1.70602 3.01821 0
M  V30 19096 C 1777.38 2.94028 3.12803 0
M  V30 19097 C 1776.62 2.98024 4.42739 0
M  V30 19098 O 1776.84 2.10232 5.30244 0
M  V30 19099 O 1775.77 3.90266 4.58231 0
M  V30 19100 H 1779.6 2.62138 1.53354 0
M  V30 19101 H 1777.18 1.32148 0.696948 0
M  V30 19102 H 1779.07 1.75849 3.82956 0
M  V30 19103 H 1777.74 0.780346 3.14153 0
M  V30 19104 H 1776.65 2.9431 2.30938 0
M  V30 19105 H 1777.98 3.86003 3.0539 0
M  V30 19106 N 1779.63 -0.772489 1.37369 0
M  V30 19107 C 1780.88 -1.53329 1.32733 0
M  V30 19108 C 1781.21 -1.93999 -0.0882815 0
M  V30 19109 O 1780.49 -1.64014 -1.04545 0
M  V30 19110 C 1780.77 -2.79885 2.26575 0
M  V30 19111 C 1780.62 -2.45474 3.76912 0
M  V30 19112 C 1781.94 -3.81812 2.18878 0
M  V30 19113 H 1779.06 -0.55625 0.483482 0
M  V30 19114 H 1781.7 -0.886251 1.68064 0
M  V30 19115 H 1779.85 -3.35097 1.96576 0
M  V30 19116 H 1781.52 -1.96182 4.17505 0
M  V30 19117 H 1779.77 -1.78181 3.95517 0
M  V30 19118 H 1780.44 -3.35937 4.38007 0
M  V30 19119 H 1782.91 -3.36091 2.4532 0
M  V30 19120 H 1781.79 -4.68087 2.86681 0
M  V30 19121 H 1782.05 -4.26021 1.18146 0
M  V30 19122 N 1781.11 -1.21927 -0.998575 0
M  V30 19123 C 1782.34 -1.06501 -1.77034 0
M  V30 19124 C 1782.75 0.387776 -1.85184 0
M  V30 19125 O 1782.09 1.28067 -1.31699 0
M  V30 19126 C 1782.15 -1.59465 -3.22198 0
M  V30 19127 C 1781.82 -3.08008 -3.37609 0
M  V30 19128 C 1782.81 -4.05495 -3.25377 0
M  V30 19129 C 1780.5 -3.47347 -3.62843 0
M  V30 19130 C 1782.49 -5.40306 -3.38154 0
M  V30 19131 C 1780.18 -4.82309 -3.75262 0
M  V30 19132 C 1781.18 -5.78597 -3.62924 0
M  V30 19133 O 1780.87 -7.1111 -3.74938 0
M  V30 19134 H 1780.6 -0.374178 -0.562998 0
M  V30 19135 H 1783.15 -1.61859 -1.26455 0
M  V30 19136 H 1781.38 -0.98509 -3.73942 0
M  V30 19137 H 1783.07 -1.39785 -3.81071 0
M  V30 19138 H 1783.84 -3.76446 -3.05799 0
M  V30 19139 H 1779.72 -2.72928 -3.71526 0
M  V30 19140 H 1783.26 -6.15445 -3.28441 0
M  V30 19141 H 1779.16 -5.1104 -3.94345 0
M  V30 19142 H 1779.93 -7.18609 -3.91846 0
M  V30 19143 N 1782.59 1.19452 -1.02805 0
M  V30 19144 C 1783.5 2.2631 -0.618147 0
M  V30 19145 C 1784.51 1.70449 0.349712 0
M  V30 19146 O 1785.69 2.00325 0.207801 0
M  V30 19147 C 1782.76 3.46691 0.0255242 0
M  V30 19148 C 1781.82 4.17735 -0.98973 0
M  V30 19149 C 1781.05 5.32369 -0.376681 0
M  V30 19150 O 1781.27 5.64467 0.820584 0
M  V30 19151 O 1780.21 5.9178 -1.09911 0
M  V30 19152 H 1784.03 2.63611 -1.50807 0
M  V30 19153 H 1781.62 1.2629 -0.798192 0
M  V30 19154 H 1783.5 4.19643 0.384464 0
M  V30 19155 H 1782.17 3.1124 0.889467 0
M  V30 19156 H 1781.08 3.46906 -1.40024 0
M  V30 19157 H 1782.41 4.57155 -1.82402 0
M  V30 19158 N 1784.07 0.805805 1.35442 0
M  V30 19159 C 1785.01 0.213632 2.29809 0
M  V30 19160 C 1785.98 -0.651878 1.52774 0
M  V30 19161 O 1787.17 -0.597124 1.81216 0
M  V30 19162 C 1784.31 -0.632444 3.39255 0
M  V30 19163 C 1783.42 0.253414 4.31256 0
M  V30 19164 C 1782.56 -0.600593 5.27794 0
M  V30 19165 C 1781.6 0.285712 6.11433 0
M  V30 19166 N 1780.73 -0.528222 7.0011 0
M  V30 19167 H 1785.57 1.02378 2.79862 0
M  V30 19168 H 1783.11 0.516397 1.37738 0
M  V30 19169 H 1785.07 -1.13814 4.01376 0
M  V30 19170 H 1783.7 -1.40786 2.90481 0
M  V30 19171 H 1782.75 0.877202 3.70148 0
M  V30 19172 H 1784.06 0.935631 4.89946 0
M  V30 19173 H 1783.22 -1.17145 5.95283 0
M  V30 19174 H 1781.95 -1.31638 4.69598 0
M  V30 19175 H 1780.96 0.868843 5.42891 0
M  V30 19176 H 1782.18 0.999349 6.71707 0
M  V30 19177 H 1780.13 -1.228 6.44404 0
M  V30 19178 H 1780.05 0.0959658 7.55939 0
M  V30 19179 H 1781.32 -1.08238 7.71949 0
M  V30 19180 N 1785.54 -1.47344 0.559239 0
M  V30 19181 C 1786.79 -2.01672 0.0337843 0
M  V30 19182 C 1787.11 -1.43883 -1.32503 0
M  V30 19183 O 1788.31 -1.89885 -1.94051 0
M  V30 19184 C 1786.77 -3.59899 0.00989925 0
M  V30 19185 C 1786.38 -4.2668 1.3656 0
M  V30 19186 C 1788.12 -4.21969 -0.462842 0
M  V30 19187 C 1786.03 -5.76919 1.30071 0
M  V30 19188 H 1784.96 -0.753948 0.00885972 0
M  V30 19189 H 1787.61 -1.69317 0.707394 0
M  V30 19190 H 1785.99 -3.89225 -0.729399 0
M  V30 19191 H 1787.16 -4.08993 2.12277 0
M  V30 19192 H 1785.48 -3.76605 1.77644 0
M  V30 19193 H 1788.08 -5.32069 -0.529816 0
M  V30 19194 H 1788.42 -3.89283 -1.47528 0
M  V30 19195 H 1788.95 -3.97182 0.221661 0
M  V30 19196 H 1785.69 -6.14227 2.28921 0
M  V30 19197 H 1785.21 -5.96937 0.585375 0
M  V30 19198 H 1786.89 -6.39168 1.00364 0
M  V30 19199 N 1787.02 -0.295795 -1.54799 0
M  V30 19200 C 1787.97 0.582614 -2.23325 0
M  V30 19201 C 1788.94 1.13365 -1.21398 0
M  V30 19202 O 1790.12 1.17914 -1.50003 0
M  V30 19203 C 1787.26 1.75112 -2.97371 0
M  V30 19204 C 1786.38 1.23197 -4.14061 0
M  V30 19205 C 1785.51 2.36393 -4.75701 0
M  V30 19206 C 1784.55 1.81585 -5.84545 0
M  V30 19207 N 1783.69 2.88334 -6.40162 0
M  V30 19208 H 1788.53 -0.00836451 -2.97999 0
M  V30 19209 H 1786.07 -0.0158966 -1.47091 0
M  V30 19210 H 1788.02 2.4383 -3.38531 0
M  V30 19211 H 1786.65 2.31381 -2.25084 0
M  V30 19212 H 1785.71 0.437226 -3.77879 0
M  V30 19213 H 1787.02 0.790706 -4.92493 0
M  V30 19214 H 1786.17 3.13067 -5.19687 0
M  V30 19215 H 1784.91 2.83844 -3.9659 0
M  V30 19216 H 1783.92 1.03399 -5.3999 0
M  V30 19217 H 1785.14 1.35045 -6.65537 0
M  V30 19218 H 1783.09 3.35129 -5.63937 0
M  V30 19219 H 1783 2.48687 -7.13926 0
M  V30 19220 H 1784.27 3.64921 -6.88805 0
M  V30 19221 N 1788.5 1.57583 -0.0234236 0
M  V30 19222 C 1789.46 2.08797 0.945325 0
M  V30 19223 C 1790.46 1.00189 1.25773 0
M  V30 19224 O 1791.65 1.2637 1.19901 0
M  V30 19225 C 1788.79 2.54906 2.26353 0
M  V30 19226 H 1789.98 2.95671 0.50187 0
M  V30 19227 H 1787.53 1.54679 0.224507 0
M  V30 19228 H 1788.27 1.71345 2.75339 0
M  V30 19229 H 1788.05 3.34247 2.04991 0
M  V30 19230 H 1789.54 2.94774 2.95801 0
M  V30 19231 N 1789.98 -0.249655 1.5561 0
M  V30 19232 C 1791.23 -0.975982 1.76515 0
M  V30 19233 C 1791.54 -1.86589 0.586843 0
M  V30 19234 O 1792.75 -2.62876 0.678844 0
M  V30 19235 C 1791.2 -1.7854 3.12492 0
M  V30 19236 C 1790.81 -0.943014 4.37963 0
M  V30 19237 C 1792.56 -2.50462 3.42737 0
M  V30 19238 C 1790.46 -1.74816 5.64972 0
M  V30 19239 H 1789.39 -0.368139 0.65802 0
M  V30 19240 H 1792.04 -0.230745 1.82043 0
M  V30 19241 H 1790.43 -2.57248 3.01064 0
M  V30 19242 H 1791.6 -0.198453 4.60372 0
M  V30 19243 H 1789.91 -0.337249 4.15032 0
M  V30 19244 H 1792.51 -3.1115 4.34845 0
M  V30 19245 H 1792.85 -3.21938 2.63935 0
M  V30 19246 H 1793.39 -1.78767 3.55369 0
M  V30 19247 H 1790.13 -1.07719 6.46589 0
M  V30 19248 H 1789.65 -2.46807 5.46668 0
M  V30 19249 H 1791.33 -2.31599 6.04128 0
M  V30 19250 N 1791.46 -1.48941 -0.515198 0
M  V30 19251 C 1792.41 -1.60958 -1.61482 0
M  V30 19252 C 1793.39 -0.46591 -1.54007 0
M  V30 19253 O 1794.58 -0.718134 -1.61777 0
M  V30 19254 C 1791.71 -1.66623 -3.00153 0
M  V30 19255 C 1790.8 -2.8652 -3.12677 0
M  V30 19256 N 1791.19 -4.10769 -2.95131 0
M  V30 19257 C 1789.49 -2.84161 -3.43756 0
M  V30 19258 C 1790.19 -4.9129 -3.11463 0
M  V30 19259 N 1789.16 -4.24384 -3.39704 0
M  V30 19260 H 1792.97 -2.54756 -1.46549 0
M  V30 19261 H 1790.48 -1.45517 -0.721007 0
M  V30 19262 H 1792.48 -1.73328 -3.79161 0
M  V30 19263 H 1791.14 -0.739523 -3.16166 0
M  V30 19264 H 1792.15 -4.40974 -2.71593 0
M  V30 19265 H 1788.83 -2.00809 -3.66035 0
M  V30 19266 H 1790.22 -5.99948 -3.0251 0
M  V30 19267 N 1792.94 0.765193 -1.37777 0
M  V30 19268 C 1793.85 1.90959 -1.36278 0
M  V30 19269 C 1794.86 1.72025 -0.261448 0
M  V30 19270 O 1796.04 1.95148 -0.497937 0
M  V30 19271 C 1793.1 3.26174 -1.17523 0
M  V30 19272 C 1792.16 3.57716 -2.37356 0
M  V30 19273 C 1791.4 4.86479 -2.19486 0
M  V30 19274 O 1791.62 5.58008 -1.18252 0
M  V30 19275 O 1790.55 5.17234 -3.0782 0
M  V30 19276 H 1794.38 1.95176 -2.3268 0
M  V30 19277 H 1791.96 0.90886 -1.18575 0
M  V30 19278 H 1793.85 4.07038 -1.09078 0
M  V30 19279 H 1792.52 3.22794 -0.241994 0
M  V30 19280 H 1791.43 2.7706 -2.51374 0
M  V30 19281 H 1792.76 3.65845 -3.29269 0
M  V30 19282 N 1794.41 1.22455 0.992094 0
M  V30 19283 C 1795.69 0.958091 1.70529 0
M  V30 19284 C 1796.07 -0.526595 2.04426 0
M  V30 19285 O 1795.42 -1.49483 1.72821 0
M  V30 19286 C 1795.63 1.85646 2.95528 0
M  V30 19287 C 1796.98 2.11301 3.68289 0
M  V30 19288 O 1798 1.831 3.05537 0
M  V30 19289 O 1796.86 2.59068 4.81192 0
M  V30 19290 H 1793.95 0.360375 0.744351 0
M  V30 19291 H 1796.5 1.33444 1.04837 0
M  V30 19292 H 1795.27 2.86067 2.66986 0
M  V30 19293 H 1794.89 1.48174 3.68958 0
M  V30 19294 N 1795.89 -1.18905 1.03437 0
M  V30 19295 C 1796.8 -2.25979 0.63014 0
M  V30 19296 C 1797.82 -1.70633 -0.340668 0
M  V30 19297 O 1798.99 -2.00432 -0.197174 0
M  V30 19298 C 1796.06 -3.46699 -0.00713795 0
M  V30 19299 C 1795.12 -4.17205 1.01187 0
M  V30 19300 C 1794.35 -5.32162 0.404909 0
M  V30 19301 O 1794.58 -5.64894 -0.790638 0
M  V30 19302 O 1793.51 -5.91188 1.13048 0
M  V30 19303 H 1797.34 -2.62808 1.52203 0
M  V30 19304 H 1794.92 -1.25865 0.804878 0
M  V30 19305 H 1796.8 -4.1984 -0.362204 0
M  V30 19306 H 1795.48 -3.11707 -0.872948 0
M  V30 19307 H 1794.38 -3.46159 1.41862 0
M  V30 19308 H 1795.72 -4.56181 1.84823 0
M  V30 19309 N 1797.37 -0.812977 -1.35013 0
M  V30 19310 C 1798.65 -0.319343 -1.92976 0
M  V30 19311 C 1799.03 1.19196 -1.74228 0
M  V30 19312 O 1798.37 1.99445 -1.11507 0
M  V30 19313 C 1798.58 -0.737753 -3.41113 0
M  V30 19314 C 1799.93 -0.730889 -4.18262 0
M  V30 19315 O 1800.96 -0.679701 -3.49655 0
M  V30 19316 O 1799.82 -0.795045 -5.40686 0
M  V30 19317 H 1796.91 -0.0850284 -0.822617 0
M  V30 19318 H 1799.46 -0.897102 -1.44049 0
M  V30 19319 H 1798.23 -1.77911 -3.48516 0
M  V30 19320 H 1797.85 -0.135148 -3.9737 0
M  V30 19321 N 1798.85 1.47045 -0.567045 0
M  V30 19322 C 1799.76 2.33924 0.177998 0
M  V30 19323 C 1800.77 1.48797 0.901967 0
M  V30 19324 O 1801.95 1.81704 0.868662 0
M  V30 19325 C 1799.01 3.25687 1.18865 0
M  V30 19326 C 1798.08 4.26708 0.471049 0
M  V30 19327 C 1797.31 5.14087 1.43355 0
M  V30 19328 O 1797.53 5.041 2.66907 0
M  V30 19329 O 1796.47 5.94313 0.952674 0
M  V30 19330 H 1800.29 2.98952 -0.534907 0
M  V30 19331 H 1797.88 1.45765 -0.327571 0
M  V30 19332 H 1799.76 3.82342 1.7718 0
M  V30 19333 H 1798.43 2.63274 1.8833 0
M  V30 19334 H 1797.34 3.73785 -0.153539 0
M  V30 19335 H 1798.67 4.91862 -0.182337 0
M  V30 19336 N 1800.33 0.304 1.5464 0
M  V30 19337 C 1801.27 -0.586475 2.25085 0
M  V30 19338 C 1802.27 -1.13458 1.25792 0
M  V30 19339 O 1803.47 -1.08487 1.43633 0
M  V30 19340 H 1799.85 -0.20774 0.722737 0
M  V30 19341 H 1801.82 0.0301682 2.98385 0
M  V30 19342 C 1800.57 -1.74539 3.00718 0
M  V30 19343 H 1799.89 -1.33287 3.76928 0
M  V30 19344 H 1801.33 -2.34447 3.53285 0
M  V30 19345 C 1799.79 -2.65132 2.07862 0
M  V30 19346 O 1800.32 -3.6631 1.64863 0
M  V30 19347 N 1798.53 -2.32932 1.73756 0
M  V30 19348 H 1798.07 -1.50698 2.08921 0
M  V30 19349 H 1798.03 -2.93811 1.11904 0
M  V30 19350 N 1801.8 -1.57568 0.0317802 0
M  V30 19351 C 1803.05 -1.91087 -0.645639 0
M  V30 19352 C 1803.37 -0.910108 -1.73137 0
M  V30 19353 O 1804.57 -1.13665 -2.46562 0
M  V30 19354 C 1803.03 -3.39317 -1.19966 0
M  V30 19355 C 1802.64 -4.47759 -0.147068 0
M  V30 19356 C 1804.38 -3.81901 -1.85343 0
M  V30 19357 C 1802.29 -5.87088 -0.712872 0
M  V30 19358 H 1801.22 -0.713112 -0.244923 0
M  V30 19359 H 1803.87 -1.83241 0.0975145 0
M  V30 19360 H 1802.25 -3.42105 -1.99451 0
M  V30 19361 H 1803.42 -4.56535 0.625518 0
M  V30 19362 H 1801.74 -4.14395 0.408109 0
M  V30 19363 H 1804.34 -4.83352 -2.28636 0
M  V30 19364 H 1804.68 -3.17104 -2.69724 0
M  V30 19365 H 1805.21 -3.81548 -1.12544 0
M  V30 19366 H 1801.95 -6.55434 0.0928582 0
M  V30 19367 H 1801.47 -5.81913 -1.45388 0
M  V30 19368 H 1803.15 -6.3574 -1.20179 0
M  V30 19369 N 1803.28 0.241399 -1.5574 0
M  V30 19370 C 1804.19 1.32034 -1.93918 0
M  V30 19371 C 1805.21 1.52363 -0.840331 0
M  V30 19372 O 1806.38 1.65879 -1.1422 0
M  V30 19373 C 1803.45 2.6539 -2.2309 0
M  V30 19374 C 1802.51 2.53536 -3.46436 0
M  V30 19375 C 1801.74 3.80532 -3.74208 0
M  V30 19376 O 1801.97 4.82662 -3.03964 0
M  V30 19377 O 1800.9 3.78834 -4.67727 0
M  V30 19378 H 1804.73 1.02647 -2.85827 0
M  V30 19379 H 1802.31 0.442616 -1.42693 0
M  V30 19380 H 1804.19 3.44184 -2.43137 0
M  V30 19381 H 1802.87 2.94499 -1.34358 0
M  V30 19382 H 1801.78 1.73009 -3.3169 0
M  V30 19383 H 1803.11 2.29371 -4.35488 0
M  V30 19384 N 1804.76 1.49212 0.507292 0
M  V30 19385 C 1806.01 1.5763 1.2584 0
M  V30 19386 C 1806.32 0.265343 1.93792 0
M  V30 19387 O 1807.53 0.227996 2.70541 0
M  V30 19388 C 1805.98 2.78093 2.28457 0
M  V30 19389 C 1805.59 4.15922 1.66472 0
M  V30 19390 C 1807.34 2.95837 3.04435 0
M  V30 19391 C 1805.24 5.27616 2.67162 0
M  V30 19392 H 1804.17 0.586896 0.47336 0
M  V30 19393 H 1806.82 1.75588 0.533018 0
M  V30 19394 H 1805.21 2.53616 3.0413 0
M  V30 19395 H 1806.38 4.50511 0.968337 0
M  V30 19396 H 1804.7 4.03484 1.02906 0
M  V30 19397 H 1807.29 3.76452 3.79721 0
M  V30 19398 H 1807.64 2.06156 3.61671 0
M  V30 19399 H 1808.17 3.20323 2.35877 0
M  V30 19400 H 1804.91 6.19336 2.14716 0
M  V30 19401 H 1804.43 4.97488 3.3506 0
M  V30 19402 H 1806.11 5.56686 3.29712 0
M  V30 19403 N 1806.24 -0.757876 1.38181 0
M  V30 19404 C 1807.48 -1.52975 1.35565 0
M  V30 19405 C 1807.84 -1.9192 -0.0554193 0
M  V30 19406 O 1809.04 -2.68006 -0.206418 0
M  V30 19407 C 1807.31 -2.75158 2.28085 0
M  V30 19408 S 1808.87 -3.65072 2.4345 0
M  V30 19409 H 1805.69 -0.523547 0.481061 0
M  V30 19410 H 1808.29 -0.890034 1.74065 0
M  V30 19411 H 1807 -2.44649 3.29507 0
M  V30 19412 H 1806.53 -3.44078 1.90719 0
M  V30 19413 H 1808.54 -4.67773 1.65538 0
M  V30 19414 N 1807.72 -1.22979 -0.985586 0
M  V30 19415 C 1808.94 -1.08615 -1.76685 0
M  V30 19416 C 1809.37 0.35859 -1.8465 0
M  V30 19417 O 1808.72 1.25924 -1.30433 0
M  V30 19418 C 1808.77 -1.71039 -3.17456 0
M  V30 19419 O 1807.88 -0.969018 -4.00854 0
M  V30 19420 H 1807.22 -0.38103 -0.543794 0
M  V30 19421 H 1809.75 -1.62927 -1.23757 0
M  V30 19422 H 1809.76 -1.76064 -3.68056 0
M  V30 19423 H 1808.43 -2.76168 -3.10973 0
M  V30 19424 H 1807.01 -0.995318 -3.59371 0
M  V30 19425 N 1809.19 1.18355 -1.04066 0
M  V30 19426 C 1810.14 2.21987 -0.631714 0
M  V30 19427 C 1811.11 1.62142 0.360462 0
M  V30 19428 O 1812.3 1.89096 0.254445 0
M  V30 19429 C 1809.44 3.451 -0.000843566 0
M  V30 19430 C 1808.55 4.19283 -1.04048 0
M  V30 19431 C 1807.68 5.29852 -0.37813 0
M  V30 19432 C 1806.72 5.95807 -1.40287 0
M  V30 19433 N 1805.86 6.97915 -0.765481 0
M  V30 19434 H 1810.7 2.56323 -1.51995 0
M  V30 19435 H 1808.24 1.25923 -0.760384 0
M  V30 19436 H 1810.2 4.15445 0.382267 0
M  V30 19437 H 1808.83 3.11383 0.850911 0
M  V30 19438 H 1807.88 3.47765 -1.54154 0
M  V30 19439 H 1809.19 4.64457 -1.81882 0
M  V30 19440 H 1808.34 6.06671 0.059186 0
M  V30 19441 H 1807.08 4.8578 0.432293 0
M  V30 19442 H 1806.09 5.17729 -1.85032 0
M  V30 19443 H 1807.31 6.41962 -2.21499 0
M  V30 19444 H 1805.26 6.55995 0.0246364 0
M  V30 19445 H 1805.18 7.41341 -1.48152 0
M  V30 19446 H 1806.44 7.78702 -0.35256 0
M  V30 19447 N 1810.67 0.820125 1.3458 0
M  V30 19448 C 1811.92 0.403287 1.97627 0
M  V30 19449 C 1812.23 -1.0385 1.65754 0
M  V30 19450 O 1813.44 -1.55911 2.2227 0
M  V30 19451 C 1811.9 0.670161 3.53606 0
M  V30 19452 C 1811.5 2.12538 3.94375 0
M  V30 19453 C 1813.25 0.31935 4.23297 0
M  V30 19454 C 1811.16 2.3373 5.43254 0
M  V30 19455 H 1810.09 0.147062 0.739519 0
M  V30 19456 H 1812.74 1.00609 1.53461 0
M  V30 19457 H 1811.12 -0.00276896 3.96 0
M  V30 19458 H 1812.29 2.83724 3.63094 0
M  V30 19459 H 1810.61 2.43736 3.37612 0
M  V30 19460 H 1813.2 0.45555 5.32756 0
M  V30 19461 H 1813.55 -0.735875 4.09745 0
M  V30 19462 H 1814.08 0.946743 3.8637 0
M  V30 19463 H 1810.82 3.37747 5.61789 0
M  V30 19464 H 1810.34 1.67084 5.76058 0
M  V30 19465 H 1812.02 2.1595 6.09897 0
M  V30 19466 N 1812.15 -1.46743 0.574835 0
M  V30 19467 C 1813.4 -2.02718 0.0575005 0
M  V30 19468 C 1813.73 -1.4463 -1.29599 0
M  V30 19469 O 1813 -0.608422 -1.84739 0
M  V30 19470 C 1813.29 -3.60096 -0.016719 0
M  V30 19471 C 1813.14 -4.28584 1.36511 0
M  V30 19472 C 1814.46 -4.34149 -0.721324 0
M  V30 19473 H 1811.58 -0.73666 0.0223697 0
M  V30 19474 H 1814.22 -1.74975 0.74052 0
M  V30 19475 H 1812.37 -3.83864 -0.598396 0
M  V30 19476 H 1814.04 -4.16104 1.99135 0
M  V30 19477 H 1812.29 -3.88253 1.935 0
M  V30 19478 H 1812.96 -5.37293 1.26573 0
M  V30 19479 H 1815.43 -4.15479 -0.227256 0
M  V30 19480 H 1814.31 -5.43858 -0.742263 0
M  V30 19481 H 1814.57 -4.04637 -1.78106 0
M  V30 19482 N 1813.63 -0.312197 -1.54477 0
M  V30 19483 C 1814.56 0.592742 -2.21403 0
M  V30 19484 C 1815.57 1.0888 -1.21033 0
M  V30 19485 O 1816.76 1.00433 -1.47565 0
M  V30 19486 C 1813.86 1.82478 -2.85578 0
M  V30 19487 C 1813.04 1.46933 -4.11982 0
M  V30 19488 C 1812.09 2.5577 -4.59857 0
M  V30 19489 O 1811.12 2.20391 -5.24801 0
M  V30 19490 N 1812.32 3.86506 -4.3312 0
M  V30 19491 H 1815.09 0.0197398 -2.99693 0
M  V30 19492 H 1812.65 -0.13489 -1.61337 0
M  V30 19493 H 1814.64 2.54657 -3.14534 0
M  V30 19494 H 1813.21 2.3059 -2.11062 0
M  V30 19495 H 1812.43 0.579677 -3.89915 0
M  V30 19496 H 1813.72 1.20739 -4.94267 0
M  V30 19497 H 1813.12 4.18053 -3.81114 0
M  V30 19498 H 1811.67 4.5495 -4.66759 0
M  V30 19499 N 1815.11 1.57549 -0.040136 0
M  V30 19500 C 1816.05 2.12048 0.955943 0
M  V30 19501 C 1817.05 1.04965 1.32962 0
M  V30 19502 O 1818.25 1.23387 1.31056 0
M  V30 19503 H 1814.63 0.677616 0.326099 0
M  V30 19504 H 1816.6 2.94658 0.471075 0
M  V30 19505 C 1815.35 2.67157 2.22537 0
M  V30 19506 H 1814.67 3.4921 1.9466 0
M  V30 19507 H 1816.11 3.08924 2.90417 0
M  V30 19508 C 1814.57 1.60413 2.96259 0
M  V30 19509 O 1815.1 1.01042 3.88785 0
M  V30 19510 N 1813.31 1.32196 2.58791 0
M  V30 19511 H 1812.85 1.80663 1.83626 0
M  V30 19512 H 1812.81 0.610023 3.08425 0
M  V30 19513 N 1816.58 -0.233136 1.55866 0
M  V30 19514 C 1817.83 -0.957205 1.7754 0
M  V30 19515 C 1818.15 -1.85956 0.606601 0
M  V30 19516 O 1819.35 -2.62142 0.706687 0
M  V30 19517 C 1817.81 -1.75215 3.14369 0
M  V30 19518 C 1817.42 -0.896509 4.38938 0
M  V30 19519 C 1819.16 -2.46813 3.45374 0
M  V30 19520 C 1817.07 -1.68814 5.66794 0
M  V30 19521 H 1816 -0.361139 0.661887 0
M  V30 19522 H 1818.65 -0.211424 1.82278 0
M  V30 19523 H 1817.03 -2.54041 3.03775 0
M  V30 19524 H 1818.2 -0.149614 4.60557 0
M  V30 19525 H 1816.52 -0.293211 4.15366 0
M  V30 19526 H 1819.12 -3.0652 4.38121 0
M  V30 19527 H 1819.46 -3.19121 2.67334 0
M  V30 19528 H 1819.99 -1.74987 3.57245 0
M  V30 19529 H 1816.73 -1.00855 6.47695 0
M  V30 19530 H 1816.25 -2.40995 5.49255 0
M  V30 19531 H 1817.93 -2.25178 6.06551 0
M  V30 19532 N 1818.06 -1.49479 -0.499372 0
M  V30 19533 C 1818.99 -1.69182 -1.60934 0
M  V30 19534 C 1819.97 -0.54053 -1.61283 0
M  V30 19535 O 1821.16 -0.776554 -1.77998 0
M  V30 19536 C 1818.29 -1.75985 -2.99411 0
M  V30 19537 C 1817.24 -2.9092 -3.13926 0
M  V30 19538 C 1816.57 -2.82837 -4.5377 0
M  V30 19539 C 1817.87 -4.31833 -2.93799 0
M  V30 19540 H 1819.56 -2.62112 -1.44699 0
M  V30 19541 H 1817.11 -1.26135 -0.694688 0
M  V30 19542 H 1819.06 -1.88354 -3.76962 0
M  V30 19543 H 1817.79 -0.796557 -3.16737 0
M  V30 19544 H 1816.45 -2.78155 -2.388 0
M  V30 19545 H 1816.09 -1.84412 -4.67976 0
M  V30 19546 H 1815.79 -3.59979 -4.64423 0
M  V30 19547 H 1817.32 -2.97217 -5.3338 0
M  V30 19548 H 1818.73 -4.45271 -3.61119 0
M  V30 19549 H 1817.13 -5.10209 -3.15922 0
M  V30 19550 H 1818.2 -4.46165 -1.89908 0
M  V30 19551 N 1819.54 0.750537 -1.38581 0
M  V30 19552 C 1820.79 1.50676 -1.34689 0
M  V30 19553 C 1821.11 1.94903 0.0615414 0
M  V30 19554 O 1820.38 1.67867 1.00982 0
M  V30 19555 H 1818.96 0.558914 -0.495605 0
M  V30 19556 H 1821.62 0.891979 -1.73291 0
M  V30 19557 H 1820.72 2.39623 -1.99969 0
M  V30 19558 N 1821.02 1.235 0.979051 0
M  V30 19559 C 1821.97 1.01485 2.09293 0
M  V30 19560 C 1822.96 -0.0465937 1.69336 0
M  V30 19561 O 1824.17 0.107021 1.79682 0
M  V30 19562 H 1820.54 0.311087 0.684638 0
M  V30 19563 H 1822.51 1.95972 2.25028 0
M  V30 19564 C 1821.26 0.624167 3.42052 0
M  V30 19565 H 1820.59 1.43265 3.73249 0
M  V30 19566 H 1822.03 0.509648 4.20926 0
M  V30 19567 C 1820.48 -0.667694 3.30217 0
M  V30 19568 O 1821.01 -1.71648 3.6318 0
M  V30 19569 N 1819.22 -0.644122 2.83372 0
M  V30 19570 H 1818.77 0.20969 2.56745 0
M  V30 19571 H 1818.73 -1.50872 2.75835 0
M  V30 19572 N 1822.5 -1.17802 1.04693 0
M  V30 19573 C 1823.41 -2.25298 0.654072 0
M  V30 19574 C 1824.42 -1.70984 -0.32255 0
M  V30 19575 O 1825.6 -2.0063 -0.175904 0
M  V30 19576 C 1822.66 -3.46687 0.0296345 0
M  V30 19577 C 1821.73 -4.16108 1.05606 0
M  V30 19578 C 1820.96 -5.31702 0.461329 0
M  V30 19579 O 1821.18 -5.65701 -0.730679 0
M  V30 19580 O 1820.12 -5.89956 1.19312 0
M  V30 19581 H 1823.94 -2.61179 1.54982 0
M  V30 19582 H 1821.53 -1.25005 0.818182 0
M  V30 19583 H 1823.41 -4.20201 -0.317654 0
M  V30 19584 H 1822.08 -3.12615 -0.839839 0
M  V30 19585 H 1820.99 -3.44635 1.45526 0
M  V30 19586 H 1822.32 -4.54195 1.89651 0
M  V30 19587 N 1823.98 -0.827251 -1.34143 0
M  V30 19588 C 1824.93 -0.224453 -2.26893 0
M  V30 19589 C 1825.91 0.6138 -1.48732 0
M  V30 19590 O 1827.1 0.467671 -1.7071 0
M  V30 19591 C 1824.23 0.60919 -3.37852 0
M  V30 19592 C 1823.32 -0.23993 -4.23421 0
M  V30 19593 N 1823.71 -1.31304 -4.8846 0
M  V30 19594 C 1822.01 -0.0249939 -4.45993 0
M  V30 19595 C 1822.71 -1.83317 -5.5206 0
M  V30 19596 N 1821.68 -1.1364 -5.31589 0
M  V30 19597 H 1825.48 -1.04524 -2.74685 0
M  V30 19598 H 1823 -0.670503 -1.47912 0
M  V30 19599 H 1825 1.05724 -4.03272 0
M  V30 19600 H 1823.66 1.42809 -2.91609 0
M  V30 19601 H 1824.67 -1.69587 -4.89347 0
M  V30 19602 H 1821.34 0.761393 -4.10499 0
M  V30 19603 H 1822.73 -2.73118 -6.13886 0
M  V30 19604 N 1825.45 1.46436 -0.582609 0
M  V30 19605 C 1826.39 2.28423 0.188509 0
M  V30 19606 C 1827.4 1.38506 0.855565 0
M  V30 19607 O 1828.59 1.63107 0.725145 0
M  V30 19608 C 1825.69 3.13537 1.28639 0
M  V30 19609 C 1824.86 4.31578 0.711275 0
M  V30 19610 C 1823.92 4.9809 1.69685 0
M  V30 19611 O 1822.95 5.55686 1.23294 0
M  V30 19612 N 1824.15 4.95091 3.03093 0
M  V30 19613 H 1826.91 2.95244 -0.514896 0
M  V30 19614 H 1824.47 1.56347 -0.420374 0
M  V30 19615 H 1826.47 3.54897 1.94499 0
M  V30 19616 H 1825.04 2.48792 1.89266 0
M  V30 19617 H 1824.26 3.94002 -0.124784 0
M  V30 19618 H 1825.54 5.07874 0.306822 0
M  V30 19619 H 1824.94 4.49542 3.43407 0
M  V30 19620 H 1823.5 5.40393 3.64443 0
M  V30 19621 N 1826.93 0.320385 1.54309 0
M  V30 19622 C 1827.88 -0.562498 2.20952 0
M  V30 19623 C 1828.87 -1.08408 1.18897 0
M  V30 19624 O 1830.06 -1.02163 1.4454 0
M  V30 19625 C 1827.19 -1.72448 2.96845 0
M  V30 19626 C 1826.27 -1.21794 4.06235 0
M  V30 19627 N 1826.66 -0.43084 5.03962 0
M  V30 19628 C 1824.96 -1.49695 4.20128 0
M  V30 19629 C 1825.66 -0.158687 5.81484 0
M  V30 19630 N 1824.64 -0.74393 5.38486 0
M  V30 19631 H 1828.44 0.0461894 2.93864 0
M  V30 19632 H 1825.95 0.126085 1.6191 0
M  V30 19633 H 1827.95 -2.36871 3.43071 0
M  V30 19634 H 1826.61 -2.33667 2.25455 0
M  V30 19635 H 1827.62 -0.0739708 5.17847 0
M  V30 19636 H 1824.3 -2.11522 3.59951 0
M  V30 19637 H 1825.69 0.47475 6.70221 0
M  V30 19638 N 1828.41 -1.57525 0.0484906 0
M  V30 19639 C 1829.34 -2.14405 -0.924811 0
M  V30 19640 C 1830.32 -1.06503 -1.32631 0
M  V30 19641 O 1831.51 -1.3443 -1.4015 0
M  V30 19642 C 1828.64 -2.68686 -2.20057 0
M  V30 19643 C 1827.59 -3.81547 -1.93922 0
M  V30 19644 C 1826.92 -4.22334 -3.27929 0
M  V30 19645 C 1828.22 -5.06801 -1.26295 0
M  V30 19646 H 1829.91 -2.95983 -0.45105 0
M  V30 19647 H 1827.46 -1.42378 -0.215514 0
M  V30 19648 H 1829.41 -3.07117 -2.88543 0
M  V30 19649 H 1828.13 -1.84296 -2.69634 0
M  V30 19650 H 1826.79 -3.43585 -1.27848 0
M  V30 19651 H 1826.44 -3.34899 -3.75302 0
M  V30 19652 H 1826.14 -4.984 -3.11242 0
M  V30 19653 H 1827.66 -4.63363 -3.97652 0
M  V30 19654 H 1829.08 -5.42695 -1.84812 0
M  V30 19655 H 1827.47 -5.87991 -1.19943 0
M  V30 19656 H 1828.54 -4.84313 -0.238605 0
M  V30 19657 N 1829.89 0.224867 -1.55988 0
M  V30 19658 C 1831.12 0.965325 -1.82661 0
M  V30 19659 C 1831.53 1.78581 -0.624935 0
M  V30 19660 O 1830.87 1.7893 0.415886 0
M  V30 19661 C 1830.93 1.93444 -3.03018 0
M  V30 19662 C 1830.59 1.29879 -4.38156 0
M  V30 19663 C 1831.59 0.69031 -5.15297 0
M  V30 19664 C 1829.28 1.31155 -4.84875 0
M  V30 19665 C 1831.27 0.103067 -6.37317 0
M  V30 19666 C 1828.96 0.720461 -6.06838 0
M  V30 19667 C 1829.96 0.11727 -6.82899 0
M  V30 19668 O 1829.64 -0.464631 -8.02556 0
M  V30 19669 H 1829.38 0.288651 -0.611275 0
M  V30 19670 H 1831.93 0.246237 -2.03919 0
M  V30 19671 H 1830.16 2.69243 -2.7757 0
M  V30 19672 H 1831.85 2.54017 -3.16592 0
M  V30 19673 H 1832.61 0.672801 -4.80311 0
M  V30 19674 H 1828.49 1.77044 -4.25648 0
M  V30 19675 H 1832.04 -0.368366 -6.96627 0
M  V30 19676 H 1827.93 0.735372 -6.41298 0
M  V30 19677 H 1828.7 -0.358628 -8.17714 0
M  V30 19678 N 1831.37 1.49742 0.491438 0
M  V30 19679 C 1832.33 1.66587 1.57421 0
M  V30 19680 C 1833.33 0.537281 1.51558 0
M  V30 19681 O 1834.52 0.803928 1.5454 0
M  V30 19682 C 1831.65 1.67217 2.97071 0
M  V30 19683 H 1832.84 2.63171 1.4381 0
M  V30 19684 H 1830.4 1.38917 0.716368 0
M  V30 19685 H 1831.13 0.722529 3.16149 0
M  V30 19686 H 1830.92 2.49187 3.02734 0
M  V30 19687 H 1832.41 1.82274 3.75721 0
M  V30 19688 N 1832.84 -0.743177 1.38977 0
M  V30 19689 C 1833.79 -1.85709 1.37043 0
M  V30 19690 C 1834.76 -1.64481 0.231351 0
M  V30 19691 O 1835.95 -1.86002 0.4252 0
M  V30 19692 C 1833.09 -3.23131 1.21162 0
M  V30 19693 C 1832.2 -3.5612 2.44545 0
M  V30 19694 C 1831.33 -4.82901 2.21315 0
M  V30 19695 C 1830.37 -5.08708 3.40415 0
M  V30 19696 N 1829.51 -6.26688 3.16555 0
M  V30 19697 H 1834.35 -1.86698 2.32267 0
M  V30 19698 H 1831.89 -0.912384 1.15386 0
M  V30 19699 H 1833.85 -4.02446 1.09968 0
M  V30 19700 H 1832.48 -3.21443 0.295716 0
M  V30 19701 H 1831.53 -2.71569 2.66373 0
M  V30 19702 H 1832.84 -3.71114 3.3328 0
M  V30 19703 H 1831.99 -5.70179 2.07317 0
M  V30 19704 H 1830.73 -4.70065 1.29962 0
M  V30 19705 H 1829.74 -4.19894 3.54921 0
M  V30 19706 H 1830.96 -5.23434 4.32659 0
M  V30 19707 H 1828.91 -6.15156 2.27858 0
M  V30 19708 H 1828.83 -6.4223 3.98843 0
M  V30 19709 H 1830.09 -7.16827 3.06233 0
M  V30 19710 N 1834.32 -1.24018 -0.972487 0
M  V30 19711 C 1835.57 -1.07105 -1.70913 0
M  V30 19712 C 1835.88 0.390908 -1.91654 0
M  V30 19713 O 1837.09 0.68013 -2.62843 0
M  V30 19714 C 1835.55 -1.86823 -3.07612 0
M  V30 19715 C 1835.15 -3.37399 -2.94731 0
M  V30 19716 C 1836.9 -1.78425 -3.85182 0
M  V30 19717 C 1834.81 -4.09479 -4.2671 0
M  V30 19718 H 1833.74 -0.397184 -0.640907 0
M  V30 19719 H 1836.39 -1.48056 -1.08405 0
M  V30 19720 H 1834.77 -1.38683 -3.70922 0
M  V30 19721 H 1835.94 -3.93084 -2.40462 0
M  V30 19722 H 1834.26 -3.46697 -2.3063 0
M  V30 19723 H 1836.85 -2.29584 -4.82903 0
M  V30 19724 H 1837.2 -0.748555 -4.09515 0
M  V30 19725 H 1837.73 -2.24219 -3.28589 0
M  V30 19726 H 1834.47 -5.13387 -4.07571 0
M  V30 19727 H 1833.99 -3.5858 -4.80812 0
M  V30 19728 H 1835.67 -4.16212 -4.95355 0
M  V30 19729 N 1835.8 1.17245 -1.05316 0
M  V30 19730 C 1836.73 2.23491 -0.67631 0
M  V30 19731 C 1837.71 1.66937 0.326507 0
M  V30 19732 O 1838.9 1.93127 0.203823 0
M  V30 19733 C 1836.03 3.47262 -0.0515755 0
M  V30 19734 C 1834.98 4.16646 -0.97929 0
M  V30 19735 C 1834.31 5.34254 -0.218369 0
M  V30 19736 C 1835.61 4.68736 -2.30399 0
M  V30 19737 H 1837.3 2.55269 -1.56455 0
M  V30 19738 H 1834.85 1.22699 -0.753714 0
M  V30 19739 H 1836.8 4.20805 0.223865 0
M  V30 19740 H 1835.52 3.14755 0.871614 0
M  V30 19741 H 1834.18 3.45017 -1.23931 0
M  V30 19742 H 1833.83 4.97998 0.707624 0
M  V30 19743 H 1833.53 5.81615 -0.83654 0
M  V30 19744 H 1835.05 6.1058 0.0497574 0
M  V30 19745 H 1836.47 5.3391 -2.08837 0
M  V30 19746 H 1834.87 5.2668 -2.87625 0
M  V30 19747 H 1835.94 3.85477 -2.94169 0
M  V30 19748 N 1837.28 0.834353 1.33702 0
M  V30 19749 C 1838.23 0.236483 2.2677 0
M  V30 19750 C 1839.21 -0.605904 1.49056 0
M  V30 19751 O 1840.4 -0.458611 1.70955 0
M  V30 19752 C 1837.53 -0.591264 3.3817 0
M  V30 19753 C 1836.62 0.262381 4.23288 0
M  V30 19754 N 1837.01 1.33892 4.87757 0
M  V30 19755 C 1835.31 0.0486456 4.45973 0
M  V30 19756 C 1836.01 1.86242 5.5108 0
M  V30 19757 N 1834.99 1.16457 5.30979 0
M  V30 19758 H 1838.79 1.05979 2.74127 0
M  V30 19759 H 1836.3 0.678337 1.47555 0
M  V30 19760 H 1838.3 -1.03584 4.03827 0
M  V30 19761 H 1836.96 -1.4126 2.92362 0
M  V30 19762 H 1837.97 1.72179 4.88441 0
M  V30 19763 H 1834.65 -0.739613 4.10897 0
M  V30 19764 H 1836.04 2.76369 6.12429 0
M  V30 19765 N 1838.76 -1.46125 0.590367 0
M  V30 19766 C 1839.69 -2.33159 -0.126114 0
M  V30 19767 C 1840.67 -1.45806 -0.876057 0
M  V30 19768 O 1841.85 -1.7461 -0.850009 0
M  V30 19769 C 1838.98 -3.28217 -1.13537 0
M  V30 19770 C 1837.94 -4.25072 -0.499773 0
M  V30 19771 C 1837.26 -5.09694 -1.61605 0
M  V30 19772 C 1838.56 -5.19202 0.567992 0
M  V30 19773 H 1840.26 -2.93315 0.600577 0
M  V30 19774 H 1837.8 -1.41044 0.290265 0
M  V30 19775 H 1839.76 -3.87965 -1.64503 0
M  V30 19776 H 1838.48 -2.66185 -1.89244 0
M  V30 19777 H 1837.14 -3.66598 -0.0111313 0
M  V30 19778 H 1836.79 -4.44041 -2.36297 0
M  V30 19779 H 1836.49 -5.75292 -1.19637 0
M  V30 19780 H 1838.01 -5.72307 -2.12832 0
M  V30 19781 H 1839.42 -5.73121 0.143102 0
M  V30 19782 H 1837.82 -5.93184 0.908428 0
M  V30 19783 H 1838.89 -4.62671 1.45133 0
M  V30 19784 N 1840.23 -0.328564 -1.54137 0
M  V30 19785 C 1841.48 0.272909 -2.00955 0
M  V30 19786 C 1841.81 1.51393 -1.2163 0
M  V30 19787 O 1841.09 1.92174 -0.299916 0
M  V30 19788 C 1841.37 0.602055 -3.55031 0
M  V30 19789 C 1841.22 -0.650016 -4.45078 0
M  V30 19790 C 1842.54 1.4177 -4.1664 0
M  V30 19791 H 1839.66 0.0977177 -0.730493 0
M  V30 19792 H 1842.3 -0.446133 -1.84688 0
M  V30 19793 H 1840.45 1.21464 -3.69024 0
M  V30 19794 H 1842.13 -1.28821 -4.42948 0
M  V30 19795 H 1840.37 -1.2779 -4.1455 0
M  V30 19796 H 1841.04 -0.375181 -5.50724 0
M  V30 19797 H 1843.52 0.899849 -4.06254 0
M  V30 19798 H 1842.39 1.61676 -5.24549 0
M  V30 19799 H 1842.65 2.41534 -3.70289 0
M  V30 19800 N 1841.71 1.57497 -0.0568439 0
M  V30 19801 C 1842.65 2.07433 0.951141 0
M  V30 19802 C 1843.62 0.976083 1.30044 0
M  V30 19803 O 1844.81 1.24842 1.41233 0
M  V30 19804 C 1841.93 2.51956 2.26354 0
M  V30 19805 C 1840.98 3.73071 2.06689 0
M  V30 19806 S 1841.81 5.18463 1.34001 0
M  V30 19807 C 1842.97 5.66304 2.66552 0
M  V30 19808 H 1843.2 2.92607 0.526181 0
M  V30 19809 H 1840.74 1.53614 0.155562 0
M  V30 19810 H 1842.69 2.78269 3.01789 0
M  V30 19811 H 1841.35 1.67078 2.65977 0
M  V30 19812 H 1840.55 4.02163 3.03778 0
M  V30 19813 H 1840.15 3.47053 1.39392 0
M  V30 19814 H 1842.44 5.72236 3.62701 0
M  V30 19815 H 1843.38 6.65431 2.4209 0
M  V30 19816 H 1843.79 4.94057 2.73072 0
M  V30 19817 N 1843.19 -0.216591 1.56105 0
M  V30 19818 C 1844.15 -1.25198 1.91985 0
M  V30 19819 C 1845.15 -1.39551 0.798884 0
M  V30 19820 O 1846.34 -1.37731 1.06657 0
M  V30 19821 C 1843.48 -2.62499 2.17502 0
M  V30 19822 H 1844.67 -0.945854 2.84594 0
M  V30 19823 H 1842.22 -0.457218 1.49463 0
M  V30 19824 H 1842.96 -2.98202 1.27461 0
M  V30 19825 H 1842.74 -2.53457 2.99169 0
M  V30 19826 H 1844.23 -3.37204 2.4634 0
M  V30 19827 N 1844.67 -1.5 -0.48349 0
M  V30 19828 C 1845.95 -1.50879 -1.24478 0
M  V30 19829 C 1846.33 -0.246393 -2.09657 0
M  V30 19830 O 1845.67 0.77066 -2.15112 0
M  V30 19831 C 1845.88 -2.79762 -2.08648 0
M  V30 19832 C 1847.23 -3.29941 -2.67253 0
M  V30 19833 O 1848.26 -2.80999 -2.18901 0
M  V30 19834 O 1847.11 -4.15224 -3.55319 0
M  V30 19835 H 1844.21 -0.604649 -0.564206 0
M  V30 19836 H 1846.75 -1.6228 -0.496325 0
M  V30 19837 H 1845.53 -3.63123 -1.45799 0
M  V30 19838 H 1845.15 -2.71306 -2.90652 0
M  V30 19839 N 1846.15 0.735796 -1.39369 0
M  V30 19840 C 1847.39 1.49239 -1.3628 0
M  V30 19841 C 1847.72 1.94957 0.0408659 0
M  V30 19842 O 1846.99 1.68929 0.991959 0
M  V30 19843 H 1845.57 0.553626 -0.501506 0
M  V30 19844 H 1848.23 0.873549 -1.74227 0
M  V30 19845 H 1847.32 2.37488 -2.02499 0
M  V30 19846 N 1847.63 1.24532 0.965897 0
M  V30 19847 C 1848.59 1.04026 2.04233 0
M  V30 19848 C 1849.59 -0.00305855 1.608 0
M  V30 19849 O 1850.78 0.238077 1.72565 0
M  V30 19850 C 1847.91 0.577072 3.3598 0
M  V30 19851 H 1849.1 1.99569 2.23858 0
M  V30 19852 H 1846.66 1.0678 1.14139 0
M  V30 19853 H 1847.39 -0.381471 3.22049 0
M  V30 19854 H 1847.18 1.33012 3.6885 0
M  V30 19855 H 1848.67 0.45469 4.15117 0
M  V30 19856 N 1849.1 -1.16685 1.05936 0
M  V30 19857 C 1850.33 -1.90758 0.793401 0
M  V30 19858 C 1850.74 -1.77479 -0.655593 0
M  V30 19859 O 1850.08 -1.11458 -1.46023 0
M  V30 19860 C 1850.15 -3.42127 1.10406 0
M  V30 19861 C 1849.81 -3.79191 2.55074 0
M  V30 19862 C 1850.81 -3.81412 3.533 0
M  V30 19863 C 1848.49 -4.09931 2.9028 0
M  V30 19864 C 1850.49 -4.13853 4.84772 0
M  V30 19865 C 1848.17 -4.42039 4.21953 0
M  V30 19866 C 1849.17 -4.4398 5.19009 0
M  V30 19867 O 1848.86 -4.75328 6.4832 0
M  V30 19868 H 1848.59 -0.611855 0.287418 0
M  V30 19869 H 1851.15 -1.48859 1.41527 0
M  V30 19870 H 1849.38 -3.84356 0.425106 0
M  V30 19871 H 1851.06 -3.97471 0.822918 0
M  V30 19872 H 1851.83 -3.5778 3.27443 0
M  V30 19873 H 1847.71 -4.07587 2.15393 0
M  V30 19874 H 1851.25 -4.15283 5.60523 0
M  V30 19875 H 1847.15 -4.65136 4.4757 0
M  V30 19876 H 1847.92 -4.93154 6.53254 0
M  V30 19877 N 1850.58 -0.841432 -1.33258 0
M  V30 19878 C 1851.51 -0.233859 -2.28004 0
M  V30 19879 C 1852.53 0.586872 -1.51854 0
M  V30 19880 O 1853.72 0.413523 -1.73644 0
M  V30 19881 C 1850.82 0.68919 -3.31818 0
M  V30 19882 C 1849.99 -0.0927681 -4.37302 0
M  V30 19883 C 1849.05 0.754015 -5.2077 0
M  V30 19884 O 1848.07 0.192293 -5.68875 0
M  V30 19885 N 1849.28 2.07095 -5.42302 0
M  V30 19886 H 1852.04 -1.04794 -2.80782 0
M  V30 19887 H 1849.6 -0.70014 -1.45978 0
M  V30 19888 H 1851.59 1.26071 -3.84562 0
M  V30 19889 H 1850.16 1.40397 -2.79298 0
M  V30 19890 H 1849.38 -0.845677 -3.85022 0
M  V30 19891 H 1850.67 -0.63036 -5.0488 0
M  V30 19892 H 1850.07 2.55082 -5.04925 0
M  V30 19893 H 1848.63 2.5909 -5.98093 0
M  V30 19894 N 1852.06 1.4581 -0.598108 0
M  V30 19895 C 1852.97 2.34249 0.12834 0
M  V30 19896 C 1853.99 1.50677 0.870202 0
M  V30 19897 O 1855.16 1.83505 0.829924 0
M  V30 19898 C 1852.23 3.28135 1.1193 0
M  V30 19899 C 1851.29 4.27611 0.380432 0
M  V30 19900 C 1850.52 5.17012 1.32419 0
M  V30 19901 O 1850.74 5.09648 2.56154 0
M  V30 19902 O 1849.68 5.962 0.826397 0
M  V30 19903 H 1853.5 2.9775 -0.598199 0
M  V30 19904 H 1851.09 1.45037 -0.358416 0
M  V30 19905 H 1852.97 3.86014 1.6903 0
M  V30 19906 H 1851.65 2.6721 1.82703 0
M  V30 19907 H 1850.55 3.73375 -0.23279 0
M  V30 19908 H 1851.89 4.91365 -0.286627 0
M  V30 19909 N 1853.54 0.336733 1.53961 0
M  V30 19910 C 1854.81 -0.316794 1.93018 0
M  V30 19911 C 1855.19 -1.68802 1.26764 0
M  V30 19912 O 1854.54 -2.2468 0.416094 0
M  V30 19913 C 1854.75 -0.395878 3.46747 0
M  V30 19914 C 1856.1 -0.649946 4.19596 0
M  V30 19915 O 1857.12 -0.47827 3.52975 0
M  V30 19916 O 1855.98 -0.982035 5.37604 0
M  V30 19917 H 1853.08 -0.183442 0.806398 0
M  V30 19918 H 1855.62 0.387412 1.65219 0
M  V30 19919 H 1854.4 0.56665 3.87175 0
M  V30 19920 H 1854.02 -1.14714 3.80692 0
M  V30 19921 N 1855.02 -1.57465 0.0651956 0
M  V30 19922 C 1855.96 -2.13542 -0.922087 0
M  V30 19923 C 1856.96 -1.07067 -1.31275 0
M  V30 19924 O 1858.16 -1.25456 -1.29076 0
M  V30 19925 H 1854.54 -0.682718 -0.315277 0
M  V30 19926 H 1856.51 -2.9537 -0.424138 0
M  V30 19927 C 1855.26 -2.70663 -2.18258 0
M  V30 19928 H 1854.58 -3.52262 -1.8908 0
M  V30 19929 H 1856.02 -3.13505 -2.85466 0
M  V30 19930 C 1854.48 -1.65106 -2.93669 0
M  V30 19931 O 1855.01 -1.07214 -3.87128 0
M  V30 19932 N 1853.22 -1.36296 -2.56655 0
M  V30 19933 H 1852.76 -1.83562 -1.80728 0
M  V30 19934 H 1852.72 -0.659013 -3.07416 0
M  V30 19935 N 1856.49 0.20831 -1.56217 0
M  V30 19936 C 1857.77 0.955838 -1.70655 0
M  V30 19937 C 1858.15 2.01905 -0.61624 0
M  V30 19938 O 1857.5 2.25405 0.374793 0
M  V30 19939 C 1857.71 1.55427 -3.1248 0
M  V30 19940 C 1859.06 2.04147 -3.72303 0
M  V30 19941 O 1860.08 1.65295 -3.15525 0
M  V30 19942 O 1858.94 2.75597 -4.7192 0
M  V30 19943 H 1856.03 0.447364 -0.695553 0
M  V30 19944 H 1858.58 0.199047 -1.68529 0
M  V30 19945 H 1857.35 0.787224 -3.83299 0
M  V30 19946 H 1856.97 2.37625 -3.18779 0
M  V30 19947 N 1857.97 1.50255 0.475528 0
M  V30 19948 C 1858.88 1.71573 1.6 0
M  V30 19949 C 1859.9 0.598748 1.63374 0
M  V30 19950 O 1861.07 0.876544 1.81325 0
M  V30 19951 C 1858.14 1.80117 2.96241 0
M  V30 19952 C 1857.2 3.03831 3.03291 0
M  V30 19953 C 1856.43 3.11958 4.33033 0
M  V30 19954 O 1856.66 2.26995 5.23287 0
M  V30 19955 O 1855.59 4.04647 4.45583 0
M  V30 19956 H 1859.42 2.66884 1.44937 0
M  V30 19957 H 1857 1.34298 0.654553 0
M  V30 19958 H 1858.88 1.87943 3.77167 0
M  V30 19959 H 1857.56 0.879896 3.11512 0
M  V30 19960 H 1856.46 3.01508 2.21458 0
M  V30 19961 H 1857.8 3.95523 2.92955 0
M  V30 19962 O 1859.49 -0.621035 1.49082 0
M  V30 19963 H 1860.18 -1.27535 1.45789 0
M  V30 END ATOM
M  V30 BEGIN BOND
M  V30 END BOND
M  V30 END CTAB
M  END
$$$$
