drugbank_target|Q96PD5 N-acetylmuramoyl-L-alanine amidase (DB01593; DB09130; DB14487; DB14533; DB14548)
 OpenBabel12092120563D

  0  0  0     0  0            999 V3000
M  V30 BEGIN CTAB
M  V30 COUNTS 8742 8858 0 0 0
M  V30 BEGIN ATOM
M  V30 1 H -0.908 1.98254 -0.117106 0
M  V30 2 N 0 1.576 0 0
M  V30 3 C 0.933 2.03868 1.02534 0
M  V30 4 C 1.911 0.928543 1.3348 0
M  V30 5 O 3.095 1.19667 1.45644 0
M  V30 6 C 0.222 2.43627 2.35294 0
M  V30 7 C -0.732 3.65373 2.2001 0
M  V30 8 S 0.101 5.13292 1.52614 0
M  V30 9 C 1.257 5.56322 2.86805 0
M  V30 10 H 1.49 2.90518 0.631377 0
M  V30 11 H -0.977 1.52953 0.210867 0
M  V30 12 H 0.981 2.67203 3.11629 0
M  V30 13 H -0.358 1.57376 2.7183 0
M  V30 14 H -1.165 3.90944 3.18086 0
M  V30 15 H -1.563 3.418 1.51819 0
M  V30 16 H 0.729 5.58782 3.83104 0
M  V30 17 H 1.672 6.56266 2.65933 0
M  V30 18 H 2.08 4.83886 2.90714 0
M  V30 19 N 1.4781 -0.272755 1.55222 0
M  V30 20 C 2.4411 -1.32041 1.87344 0
M  V30 21 C 3.4411 -1.42342 0.74803 0
M  V30 22 O 4.6311 -1.41488 1.0162 0
M  V30 23 C 1.7631 -2.70173 2.07893 0
M  V30 24 H 2.9561 -1.04789 2.80997 0
M  V30 25 H 0.5091 -0.51083 1.47717 0
M  V30 26 H 1.2441 -3.02605 1.16622 0
M  V30 27 H 1.0291 -2.64082 2.89833 0
M  V30 28 H 2.5191 -3.45869 2.34017 0
M  V30 29 N 2.9562 -1.48159 -0.537278 0
M  V30 30 C 3.8882 -1.58218 -1.65831 0
M  V30 31 C 4.9012 -0.466948 -1.5596 0
M  V30 32 O 6.0902 -0.73747 -1.62553 0
M  V30 33 C 3.1902 -1.48906 -3.04434 0
M  V30 34 C 2.3632 -2.75343 -3.3986 0
M  V30 35 C 1.4222 -2.59588 -4.57712 0
M  V30 36 O 0.4482 -3.33457 -4.61297 0
M  V30 37 N 1.6502 -1.68724 -5.55439 0
M  V30 38 H 4.4152 -2.54891 -1.57641 0
M  V30 39 H 1.9762 -1.4479 -0.724386 0
M  V30 40 H 3.9682 -1.36072 -3.81139 0
M  V30 41 H 2.5382 -0.602368 -3.06741 0
M  V30 42 H 1.7582 -3.02795 -2.52406 0
M  V30 43 H 3.0462 -3.5924 -3.60311 0
M  V30 44 H 2.4442 -1.07898 -5.55315 0
M  V30 45 H 1.0012 -1.61832 -6.3139 0
M  V30 46 N 4.4343 0.785586 -1.36625 0
M  V30 47 C 5.6823 1.54057 -1.30808 0
M  V30 48 C 6.0033 1.94683 0.111157 0
M  V30 49 O 5.2733 1.65241 1.05224 0
M  V30 50 H 3.8533 0.571354 -0.481211 0
M  V30 51 H 6.5153 0.935821 -1.70963 0
M  V30 52 H 5.6113 2.44637 -1.93801 0
M  V30 53 N 5.9124 1.20967 1.01018 0
M  V30 54 C 7.1584 1.02526 1.74975 0
M  V30 55 C 7.4914 -0.4408 1.89131 0
M  V30 56 O 6.7664 -1.32718 1.42184 0
M  V30 57 C 7.0494 1.71699 3.1653 0
M  V30 58 C 6.9024 3.25791 3.10129 0
M  V30 59 C 8.2214 1.45531 4.15342 0
M  V30 60 H 5.3404 0.373863 0.635134 0
M  V30 61 H 7.9824 1.49071 1.17805 0
M  V30 62 H 6.1324 1.32128 3.65341 0
M  V30 63 H 7.8044 3.74697 2.69072 0
M  V30 64 H 6.0474 3.56363 2.47362 0
M  V30 65 H 6.7184 3.69353 4.10222 0
M  V30 66 H 9.1944 1.79872 3.75213 0
M  V30 67 H 8.0704 1.96453 5.1254 0
M  V30 68 H 8.3314 0.384237 4.40427 0
M  V30 69 N 7.3905 -1.2043 1.01659 0
M  V30 70 C 8.3205 -2.25466 0.607226 0
M  V30 71 C 9.3015 -1.65853 -0.377716 0
M  V30 72 O 10.4865 -1.92409 -0.263149 0
M  V30 73 C 7.6165 -3.47256 -0.0552949 0
M  V30 74 C 6.5705 -4.19462 0.850632 0
M  V30 75 C 5.8965 -5.34673 0.0538859 0
M  V30 76 C 7.1965 -4.75603 2.15868 0
M  V30 77 H 8.8905 -2.59962 1.48526 0
M  V30 78 H 6.4365 -1.2496 0.715605 0
M  V30 79 H 8.3895 -4.19917 -0.353233 0
M  V30 80 H 7.1135 -3.11924 -0.968045 0
M  V30 81 H 5.7725 -3.48667 1.13257 0
M  V30 82 H 5.4205 -4.95585 -0.860514 0
M  V30 83 H 5.1205 -5.83913 0.657192 0
M  V30 84 H 6.6445 -6.10138 -0.237598 0
M  V30 85 H 8.0585 -5.40083 1.92311 0
M  V30 86 H 6.4555 -5.3528 2.71284 0
M  V30 87 H 7.5255 -3.94346 2.82169 0
M  V30 88 N 8.8686 -0.792821 -1.36206 0
M  V30 89 C 10.1146 -0.376415 -1.99887 0
M  V30 90 C 10.4696 1.04127 -1.61788 0
M  V30 91 O 9.7626 1.71004 -0.864193 0
M  V30 92 C 9.9566 -0.481501 -3.54142 0
M  V30 93 C 9.7856 -1.90786 -4.07223 0
M  V30 94 C 8.5556 -2.53322 -4.37214 0
M  V30 95 C 10.7536 -2.87048 -4.26741 0
M  V30 96 N 8.7356 -3.8751 -4.7614 0
M  V30 97 C 10.1066 -4.06077 -4.6851 0
M  V30 98 C 12.1616 -2.8406 -4.08918 0
M  V30 99 C 10.8646 -5.22532 -4.94321 0
M  V30 100 C 12.8906 -3.99705 -4.35878 0
M  V30 101 C 12.2526 -5.1748 -4.77906 0
M  V30 102 H 8.3516 -0.185226 -0.759747 0
M  V30 103 H 10.9356 -1.03114 -1.65153 0
M  V30 104 H 9.1066 0.143154 -3.88136 0
M  V30 105 H 10.8386 -0.0410128 -4.04679 0
M  V30 106 H 7.5936 -2.04777 -4.2704 0
M  V30 107 H 8.0176 -4.5656 -4.99882 0
M  V30 108 H 12.6596 -1.94165 -3.75579 0
M  V30 109 H 10.3776 -6.1301 -5.2654 0
M  V30 110 H 13.9636 -3.98758 -4.23655 0
M  V30 111 H 12.8436 -6.05478 -4.98363 0
M  V30 112 N 10.3467 1.47872 -0.545128 0
M  V30 113 C 11.5957 2.01695 -0.0145033 0
M  V30 114 C 11.9087 1.42609 1.33873 0
M  V30 115 O 13.1147 1.88021 1.95858 0
M  V30 116 C 11.5707 3.59892 0.0245068 0
M  V30 117 C 11.1787 4.27966 -1.32475 0
M  V30 118 C 12.9227 4.21507 0.50316 0
M  V30 119 C 10.8297 5.78136 -1.2455 0
M  V30 120 H 9.7597 0.753998 -0.00165172 0
M  V30 121 H 12.4107 1.69985 -0.691175 0
M  V30 122 H 10.7927 3.88509 0.766575 0
M  V30 123 H 11.9667 4.11003 -2.08357 0
M  V30 124 H 10.2817 3.78286 -1.74036 0
M  V30 125 H 12.8787 5.31538 0.580656 0
M  V30 126 H 13.2217 3.87855 1.51243 0
M  V30 127 H 13.7547 3.97376 -0.183681 0
M  V30 128 H 10.4937 6.16388 -2.23039 0
M  V30 129 H 10.0137 5.97469 -0.528282 0
M  V30 130 H 11.6927 6.40099 -0.942488 0
M  V30 131 N 11.8248 0.280983 1.55075 0
M  V30 132 C 12.7548 -0.597469 2.25727 0
M  V30 133 C 13.7358 -1.15417 1.24952 0
M  V30 134 O 14.9208 -1.18722 1.53684 0
M  V30 135 C 12.0508 -1.7789 2.98283 0
M  V30 136 C 11.0048 -1.35347 4.06036 0
M  V30 137 C 10.3308 -2.61846 4.66198 0
M  V30 138 C 11.6308 -0.499354 5.19907 0
M  V30 139 H 13.3248 -0.00824265 2.99399 0
M  V30 140 H 10.8708 -0.0025244 1.44 0
M  V30 141 H 12.8238 -2.39937 3.46422 0
M  V30 142 H 11.5478 -2.39405 2.22155 0
M  V30 143 H 10.2068 -0.756156 3.58717 0
M  V30 144 H 9.8548 -3.21632 3.86732 0
M  V30 145 H 9.5548 -2.3409 5.38958 0
M  V30 146 H 11.0788 -3.24732 5.1709 0
M  V30 147 H 12.4928 -1.02498 5.64063 0
M  V30 148 H 10.8898 -0.316424 5.99265 0
M  V30 149 H 11.9598 0.480459 4.82514 0
M  V30 150 N 13.3029 -1.57598 0.00835791 0
M  V30 151 C 14.2329 -2.1198 -0.979113 0
M  V30 152 C 15.2139 -1.03091 -1.35301 0
M  V30 153 O 16.3989 -1.30818 -1.43528 0
M  V30 154 C 13.5289 -2.62995 -2.26828 0
M  V30 155 C 12.4829 -3.76485 -2.03576 0
M  V30 156 C 11.8089 -4.13846 -3.38579 0
M  V30 157 C 13.1089 -5.0342 -1.39161 0
M  V30 158 H 14.8029 -2.94738 -0.526281 0
M  V30 159 H 12.3489 -1.41783 -0.251704 0
M  V30 160 H 14.3019 -2.99669 -2.96271 0
M  V30 161 H 13.0259 -1.7737 -2.7424 0
M  V30 162 H 11.6849 -3.40217 -1.36557 0
M  V30 163 H 11.3329 -3.25232 -3.83709 0
M  V30 164 H 11.0329 -4.90312 -3.23834 0
M  V30 165 H 12.5569 -4.53086 -4.09323 0
M  V30 166 H 13.9709 -5.37812 -1.98573 0
M  V30 167 H 12.3679 -5.84746 -1.34878 0
M  V30 168 H 13.4379 -4.83548 -0.361868 0
M  V30 169 N 14.781 0.264519 -1.55364 0
M  V30 170 C 16.029 0.993021 -1.76021 0
M  V30 171 C 16.35 1.86511 -0.569099 0
M  V30 172 O 15.62 1.91438 0.415735 0
M  V30 173 H 14.2 0.369639 -0.649135 0
M  V30 174 H 16.862 0.286707 -1.9278 0
M  V30 175 H 15.958 1.62502 -2.66457 0
M  V30 176 N 16.2591 1.48442 0.529413 0
M  V30 177 C 17.1891 1.65902 1.64313 0
M  V30 178 C 18.1701 0.507897 1.6234 0
M  V30 179 O 19.3551 0.740503 1.79528 0
M  V30 180 C 16.4851 1.69911 3.02898 0
M  V30 181 C 15.4391 2.8453 3.19729 0
M  V30 182 C 14.7651 2.73629 4.59381 0
M  V30 183 C 16.0651 4.25821 3.02447 0
M  V30 184 H 17.7591 2.5914 1.49955 0
M  V30 185 H 15.3051 1.24709 0.719982 0
M  V30 186 H 17.2581 1.80715 3.80684 0
M  V30 187 H 15.9821 0.732524 3.18279 0
M  V30 188 H 14.6411 2.73283 2.44361 0
M  V30 189 H 14.2891 1.74938 4.71599 0
M  V30 190 H 13.9891 3.50541 4.71588 0
M  V30 191 H 15.5131 2.86401 5.39265 0
M  V30 192 H 16.9271 4.37898 3.70024 0
M  V30 193 H 15.3241 5.03735 3.26146 0
M  V30 194 H 16.3941 4.42244 1.98867 0
M  V30 195 N 17.7372 -0.778329 1.37039 0
M  V30 196 C 18.6672 -1.90546 1.34962 0
M  V30 197 C 19.6482 -1.68681 0.219274 0
M  V30 198 O 20.8332 -1.89634 0.418624 0
M  V30 199 C 17.9632 -3.27734 1.14925 0
M  V30 200 C 16.9172 -3.64147 2.24902 0
M  V30 201 C 16.2432 -4.99806 1.89996 0
M  V30 202 C 17.5432 -3.71579 3.67051 0
M  V30 203 H 19.2372 -1.92541 2.29277 0
M  V30 204 H 16.7832 -0.924948 1.10366 0
M  V30 205 H 18.7362 -4.06215 1.12104 0
M  V30 206 H 17.4602 -3.26154 0.170631 0
M  V30 207 H 16.1192 -2.8797 2.26868 0
M  V30 208 H 15.7672 -4.94759 0.906796 0
M  V30 209 H 15.4672 -5.25139 2.63634 0
M  V30 210 H 16.9912 -5.80694 1.88749 0
M  V30 211 H 18.4052 -4.40227 3.67251 0
M  V30 212 H 16.8022 -4.08405 4.39688 0
M  V30 213 H 17.8722 -2.72404 4.01154 0
M  V30 214 N 19.2153 -1.21501 -1.00376 0
M  V30 215 C 20.1453 -0.999478 -2.11028 0
M  V30 216 C 21.1263 0.0759671 -1.6993 0
M  V30 217 O 22.3113 -0.0841106 -1.94018 0
M  V30 218 C 19.4413 -0.564709 -3.42678 0
M  V30 219 C 18.3953 -1.58486 -3.97576 0
M  V30 220 C 17.7213 -1.00628 -5.25146 0
M  V30 221 C 19.0213 -2.97204 -4.29496 0
M  V30 222 H 20.7153 -1.92495 -2.29317 0
M  V30 223 H 18.2613 -0.92693 -1.102 0
M  V30 224 H 20.2143 -0.401091 -4.19487 0
M  V30 225 H 18.9383 0.396411 -3.24185 0
M  V30 226 H 17.5973 -1.73606 -3.22888 0
M  V30 227 H 17.2453 -0.0368439 -5.02987 0
M  V30 228 H 16.9453 -1.68771 -5.62841 0
M  V30 229 H 18.4693 -0.854015 -6.04598 0
M  V30 230 H 19.8833 -2.8552 -4.97143 0
M  V30 231 H 18.2803 -3.62372 -4.78338 0
M  V30 232 H 19.3503 -3.47956 -3.3772 0
M  V30 233 N 20.6934 1.19889 -1.02296 0
M  V30 234 C 21.9394 1.89973 -0.726759 0
M  V30 235 C 22.2944 1.7776 0.73614 0
M  V30 236 O 21.5874 1.15523 1.52856 0
M  V30 237 C 21.7814 3.39883 -1.10518 0
M  V30 238 C 21.6104 3.66684 -2.60332 0
M  V30 239 C 20.3804 3.85045 -3.27213 0
M  V30 240 C 22.5784 3.68727 -3.58532 0
M  V30 241 N 20.5604 3.99422 -4.66192 0
M  V30 242 C 21.9314 3.88604 -4.83101 0
M  V30 243 C 23.9864 3.51722 -3.52414 0
M  V30 244 C 22.6894 3.9324 -6.02292 0
M  V30 245 C 24.7154 3.57632 -4.71013 0
M  V30 246 C 24.0774 3.77988 -5.94394 0
M  V30 247 H 20.1764 0.714551 -0.317712 0
M  V30 248 H 22.7604 1.44123 -1.30907 0
M  V30 249 H 20.9314 3.8447 -0.551142 0
M  V30 250 H 22.6634 3.97464 -0.761853 0
M  V30 251 H 19.4184 3.83689 -2.77632 0
M  V30 252 H 19.8424 4.10473 -5.38368 0
M  V30 253 H 24.4844 3.34945 -2.58015 0
M  V30 254 H 22.2024 4.08811 -6.97065 0
M  V30 255 H 25.7884 3.45773 -4.67902 0
M  V30 256 H 24.6684 3.82428 -6.8463 0
M  V30 257 N 22.1715 0.800033 1.35784 0
M  V30 258 C 23.3965 0.388511 2.03729 0
M  V30 259 C 23.8215 -0.990481 1.5991 0
M  V30 260 O 23.1795 -1.64013 0.772612 0
M  V30 261 C 23.2275 0.4726 3.5749 0
M  V30 262 O 22.3315 -0.51646 4.09153 0
M  V30 263 H 21.6725 0.163271 0.643614 0
M  V30 264 H 24.2025 1.0841 1.73518 0
M  V30 265 H 24.2125 0.34003 4.06581 0
M  V30 266 H 22.8875 1.47848 3.88734 0
M  V30 267 H 21.4645 -0.344673 3.71304 0
M  V30 268 N 23.6496 -1.47581 0.552962 0
M  V30 269 C 24.9266 -1.95563 -0.0381515 0
M  V30 270 C 25.3066 -1.49552 -1.48988 0
M  V30 271 O 24.6546 -0.732414 -2.16444 0
M  V30 272 C 24.8646 -3.48848 0.102919 0
M  V30 273 C 26.2126 -4.24577 -0.0446082 0
M  V30 274 O 27.2366 -3.56187 0.0302548 0
M  V30 275 O 26.0956 -5.46116 -0.204923 0
M  V30 276 H 23.1896 -0.824321 -0.0665067 0
M  V30 277 H 25.7356 -1.58001 0.619186 0
M  V30 278 H 24.5076 -3.75129 1.11328 0
M  V30 279 H 24.1306 -3.93165 -0.592224 0
M  V30 280 N 25.1277 -0.289203 -1.54924 0
M  V30 281 C 26.5387 0.205791 -1.85562 0
M  V30 282 C 26.8897 1.54351 -1.2112 0
M  V30 283 O 26.0147 2.10435 -0.504601 0
M  V30 284 C 26.6097 0.380177 -3.3666 0
M  V30 285 C 25.1687 0.819395 -3.67373 0
M  V30 286 C 24.3157 -0.079159 -2.77187 0
M  V30 287 H 27.2667 -0.510577 -1.50262 0
M  V30 288 H 27.2877 1.21659 -3.60526 0
M  V30 289 H 26.7997 -0.593589 -3.83534 0
M  V30 290 H 24.9007 1.80413 -3.26009 0
M  V30 291 H 25.0137 0.646957 -4.74712 0
M  V30 292 H 23.3777 0.439565 -2.50878 0
M  V30 293 H 24.1607 -1.04906 -3.26878 0
M  V30 294 N 26.6058 1.57591 -0.0167156 0
M  V30 295 C 27.8538 1.90906 0.663285 0
M  V30 296 C 28.1748 0.892509 1.73376 0
M  V30 297 O 27.4448 -0.0677623 1.95783 0
M  V30 298 H 26.0248 0.704637 0.247983 0
M  V30 299 H 28.6868 1.94803 -0.0615909 0
M  V30 300 H 27.7828 2.9116 1.12393 0
M  V30 301 N 28.0839 -0.256276 1.55502 0
M  V30 302 C 29.3119 -1.00342 1.8094 0
M  V30 303 C 29.7269 -1.79307 0.59114 0
M  V30 304 O 29.0839 -1.77114 -0.440081 0
M  V30 305 C 29.1349 -1.94875 3.04476 0
M  V30 306 O 28.8559 -1.19107 4.21598 0
M  V30 307 C 30.3569 -2.81266 3.42644 0
M  V30 308 H 27.5769 -0.295685 0.602338 0
M  V30 309 H 30.1209 -0.281998 2.02546 0
M  V30 310 H 28.2759 -2.62457 2.84947 0
M  V30 311 H 28.6899 -1.82969 4.91551 0
M  V30 312 H 30.1639 -3.43362 4.32211 0
M  V30 313 H 30.6409 -3.51897 2.62802 0
M  V30 314 H 31.2469 -2.1915 3.64491 0
M  V30 315 N 29.562 -1.4872 -0.521534 0
M  V30 316 C 30.525 -1.63379 -1.60748 0
M  V30 317 C 31.525 -0.50661 -1.52611 0
M  V30 318 O 32.715 -0.772601 -1.5613 0
M  V30 319 C 29.847 -1.61192 -3.00383 0
M  V30 320 H 31.04 -2.60217 -1.49087 0
M  V30 321 H 28.593 -1.37444 -0.744235 0
M  V30 322 H 29.328 -0.65863 -3.17541 0
M  V30 323 H 29.113 -2.43032 -3.07698 0
M  V30 324 H 30.603 -1.7466 -3.7932 0
M  V30 325 N 31.0401 0.771051 -1.3745 0
M  V30 326 C 32.2651 1.56529 -1.36065 0
M  V30 327 C 32.6901 1.88029 0.0515859 0
M  V30 328 O 32.0481 1.49282 1.02882 0
M  V30 329 C 32.0961 2.85187 -2.20683 0
M  V30 330 O 31.2001 3.79593 -1.61193 0
M  V30 331 H 30.5411 0.47411 -0.464883 0
M  V30 332 H 33.0711 0.954269 -1.80983 0
M  V30 333 H 33.0811 3.34283 -2.33921 0
M  V30 334 H 31.7561 2.61588 -3.23334 0
M  V30 335 H 30.3331 3.38239 -1.56999 0
M  V30 336 N 32.5182 1.22032 0.997298 0
M  V30 337 C 33.4482 1.01065 2.10495 0
M  V30 338 C 34.4292 -0.0669542 1.69968 0
M  V30 339 O 35.6142 0.0943987 1.9397 0
M  V30 340 C 32.7442 0.582874 3.42374 0
M  V30 341 C 31.6982 1.60592 3.96729 0
M  V30 342 C 31.0242 1.03412 5.24605 0
M  V30 343 C 32.3242 2.99478 4.27914 0
M  V30 344 H 34.0182 1.93708 2.28292 0
M  V30 345 H 31.5642 0.932761 1.09707 0
M  V30 346 H 33.5172 0.423332 4.19268 0
M  V30 347 H 32.2412 -0.379213 3.24391 0
M  V30 348 H 30.9002 1.75316 3.21963 0
M  V30 349 H 30.5482 0.063518 5.0296 0
M  V30 350 H 30.2482 1.71754 5.61938 0
M  V30 351 H 31.7722 0.886066 6.04137 0
M  V30 352 H 33.1862 2.88153 4.95622 0
M  V30 353 H 31.5832 3.64903 4.76409 0
M  V30 354 H 32.6532 3.49742 3.3587 0
M  V30 355 N 33.9963 -1.19345 1.0293 0
M  V30 356 C 35.4073 -1.70725 0.755633 0
M  V30 357 C 35.7583 -1.82326 -0.724676 0
M  V30 358 O 34.8833 -1.49471 -1.56484 0
M  V30 359 C 35.4783 -3.10084 1.36503 0
M  V30 360 C 34.0373 -3.58723 1.13994 0
M  V30 361 C 33.1843 -2.35577 1.46283 0
M  V30 362 H 36.1353 -1.0418 1.19718 0
M  V30 363 H 36.1563 -3.72787 0.762217 0
M  V30 364 H 35.6683 -3.01609 2.44241 0
M  V30 365 H 33.7693 -3.72512 0.0807901 0
M  V30 366 H 33.8823 -4.42816 1.82894 0
M  V30 367 H 32.2463 -2.38935 0.88217 0
M  V30 368 H 33.0293 -2.29731 2.55105 0
M  V30 369 N 35.4744 -0.807222 -1.35358 0
M  V30 370 C 36.4044 -0.232509 -2.3234 0
M  V30 371 C 37.3854 0.642386 -1.57504 0
M  V30 372 O 38.5704 0.572526 -1.85569 0
M  V30 373 C 35.7004 0.619238 -3.41735 0
M  V30 374 C 34.6544 -0.157215 -4.27711 0
M  V30 375 C 33.9804 0.816273 -5.28433 0
M  V30 376 C 35.2804 -1.35656 -5.04376 0
M  V30 377 H 36.9744 -1.04276 -2.80654 0
M  V30 378 H 34.5204 -0.50288 -1.34934 0
M  V30 379 H 36.4734 1.03137 -4.08584 0
M  V30 380 H 35.1974 1.46239 -2.92031 0
M  V30 381 H 33.8564 -0.550525 -3.62443 0
M  V30 382 H 33.5044 1.65494 -4.74996 0
M  V30 383 H 33.2044 0.301067 -5.86828 0
M  V30 384 H 34.7284 1.22659 -5.98153 0
M  V30 385 H 36.1424 -1.01927 -5.64166 0
M  V30 386 H 34.5394 -1.8063 -5.7227 0
M  V30 387 H 35.6094 -2.14288 -4.34981 0
M  V30 388 N 36.9525 1.47285 -0.560781 0
M  V30 389 C 37.8825 2.32857 0.173105 0
M  V30 390 C 38.8635 1.44009 0.905281 0
M  V30 391 O 40.0485 1.7286 0.885046 0
M  V30 392 C 37.1785 3.25861 1.20133 0
M  V30 393 C 36.1325 4.23978 0.585388 0
M  V30 394 C 35.4585 5.06332 1.7185 0
M  V30 395 C 36.7585 5.20242 -0.463178 0
M  V30 396 H 38.4525 2.94466 -0.541307 0
M  V30 397 H 35.9985 1.41601 -0.261764 0
M  V30 398 H 37.9515 3.84569 1.72293 0
M  V30 399 H 36.6755 2.62315 1.94573 0
M  V30 400 H 35.3345 3.66501 0.085054 0
M  V30 401 H 34.9825 4.39186 2.45203 0
M  V30 402 H 34.6825 5.72762 1.31213 0
M  V30 403 H 36.2065 5.67899 2.24329 0
M  V30 404 H 37.6205 5.73293 -0.027502 0
M  V30 405 H 36.0175 5.94896 -0.788627 0
M  V30 406 H 37.0875 4.65504 -1.35773 0
M  V30 407 N 38.4306 0.297415 1.54768 0
M  V30 408 C 39.3636 -0.622188 2.19554 0
M  V30 409 C 40.3416 -1.13558 1.16376 0
M  V30 410 O 41.5256 -1.20444 1.45002 0
M  V30 411 C 38.6526 -1.8509 2.83653 0
M  V30 412 C 37.6986 -1.47106 4.00328 0
M  V30 413 S 38.5316 -0.53006 5.3287 0
M  V30 414 C 39.6876 -1.76665 6.0045 0
M  V30 415 H 39.9206 -0.0717806 2.97213 0
M  V30 416 H 37.4536 0.0815678 1.54184 0
M  V30 417 H 39.4116 -2.55605 3.21211 0
M  V30 418 H 38.0726 -2.37247 2.05846 0
M  V30 419 H 37.2656 -2.38594 4.43947 0
M  V30 420 H 36.8676 -0.845885 3.64309 0
M  V30 421 H 39.1596 -2.7077 6.21039 0
M  V30 422 H 40.1026 -1.37308 6.9466 0
M  V30 423 H 40.5106 -1.94174 5.30054 0
M  V30 424 N 39.9087 -1.5758 0.0250728 0
M  V30 425 C 41.1857 -1.82917 -0.692873 0
M  V30 426 C 41.5657 -0.908137 -1.90568 0
M  V30 427 O 40.9137 0.0372298 -2.2847 0
M  V30 428 C 41.1237 -3.32034 -1.07492 0
M  V30 429 C 42.4717 -3.98406 -1.46826 0
M  V30 430 O 43.4957 -3.36505 -1.16801 0
M  V30 431 O 42.3547 -5.07497 -2.02754 0
M  V30 432 H 39.4487 -0.754079 -0.33955 0
M  V30 433 H 41.9947 -1.69619 0.0524456 0
M  V30 434 H 40.7667 -3.90728 -0.211552 0
M  V30 435 H 40.3897 -3.50424 -1.87854 0
M  V30 436 N 41.3868 0.248026 -1.55636 0
M  V30 437 C 42.6118 0.998028 -1.81808 0
M  V30 438 C 43.0368 1.78207 -0.601979 0
M  V30 439 O 42.3948 1.75653 0.448961 0
M  V30 440 C 42.4428 1.9125 -3.05705 0
M  V30 441 O 41.5468 3.00406 -2.82542 0
M  V30 442 H 40.8878 0.284045 -0.600179 0
M  V30 443 H 43.4178 0.269357 -2.02819 0
M  V30 444 H 43.4278 2.32737 -3.35108 0
M  V30 445 H 42.1028 1.33602 -3.93857 0
M  V30 446 H 40.6798 2.63056 -2.64303 0
M  V30 447 N 42.8649 1.48995 0.513639 0
M  V30 448 C 44.1109 1.58076 1.27042 0
M  V30 449 C 44.4439 0.261026 1.92438 0
M  V30 450 O 43.7189 -0.734393 1.80103 0
M  V30 451 C 44.0019 2.73091 2.34719 0
M  V30 452 C 43.8549 4.14821 1.73907 0
M  V30 453 C 45.1739 2.83796 3.36375 0
M  V30 454 H 42.2929 0.575391 0.460536 0
M  V30 455 H 44.9349 1.81232 0.570516 0
M  V30 456 H 43.0849 2.53479 2.94416 0
M  V30 457 H 44.7569 4.45917 1.18135 0
M  V30 458 H 42.9999 4.21058 1.0437 0
M  V30 459 H 43.6709 4.91147 2.51949 0
M  V30 460 H 46.1469 3.01611 2.86653 0
M  V30 461 H 45.0229 3.65971 4.09093 0
M  V30 462 H 45.2839 1.92624 3.9793 0
M  V30 463 N 44.343 -0.763751 1.37857 0
M  V30 464 C 45.592 -1.51789 1.32827 0
M  V30 465 C 45.905 -1.95426 -0.0823719 0
M  V30 466 O 47.111 -2.70298 -0.255172 0
M  V30 467 C 45.567 -2.74133 2.33193 0
M  V30 468 C 45.175 -2.37562 3.79827 0
M  V30 469 C 46.919 -3.52054 2.37188 0
M  V30 470 C 44.826 -3.56456 4.71904 0
M  V30 471 H 43.756 -0.569896 0.493695 0
M  V30 472 H 46.407 -0.835822 1.63359 0
M  V30 473 H 44.789 -3.4427 1.9569 0
M  V30 474 H 45.963 -1.75157 4.26212 0
M  V30 475 H 44.278 -1.72798 3.78853 0
M  V30 476 H 46.875 -4.40437 3.03182 0
M  V30 477 H 47.218 -3.92486 1.38782 0
M  V30 478 H 47.751 -2.88921 2.7344 0
M  V30 479 H 44.49 -3.21099 5.71468 0
M  V30 480 H 44.01 -4.17938 4.30218 0
M  V30 481 H 45.689 -4.23168 4.89426 0
M  V30 482 N 45.8211 -1.22559 -0.990812 0
M  V30 483 C 46.7531 -0.955325 -2.08342 0
M  V30 484 C 47.7661 0.0668408 -1.62663 0
M  V30 485 O 48.9551 -0.167421 -1.77713 0
M  V30 486 C 46.0551 -0.415566 -3.36342 0
M  V30 487 C 45.2281 -1.49544 -4.11042 0
M  V30 488 C 44.2871 -0.962399 -5.17324 0
M  V30 489 O 43.3131 -1.64907 -5.44788 0
M  V30 490 N 44.5151 0.215134 -5.80101 0
M  V30 491 H 47.2801 -1.89596 -2.32106 0
M  V30 492 H 44.8411 -1.13276 -1.15673 0
M  V30 493 H 46.8331 -0.0442386 -4.04676 0
M  V30 494 H 45.4031 0.430232 -3.09625 0
M  V30 495 H 44.6231 -2.04 -3.37309 0
M  V30 496 H 45.9111 -2.22195 -4.57719 0
M  V30 497 H 45.3091 0.789779 -5.6016 0
M  V30 498 H 43.8661 0.527826 -6.49659 0
M  V30 499 N 47.2992 1.18797 -1.03562 0
M  V30 500 C 48.2622 2.20464 -0.626769 0
M  V30 501 C 49.2622 1.57721 0.313173 0
M  V30 502 O 50.4522 1.73917 0.0992615 0
M  V30 503 C 47.5842 3.40802 0.0818498 0
M  V30 504 H 48.7772 2.58149 -1.5264 0
M  V30 505 H 46.3302 1.32593 -0.827578 0
M  V30 506 H 47.0652 3.08642 0.995518 0
M  V30 507 H 46.8502 3.8758 -0.593652 0
M  V30 508 H 48.3402 4.16092 0.354584 0
M  V30 509 N 48.7773 0.814389 1.34928 0
M  V30 510 C 49.7073 0.244827 2.32213 0
M  V30 511 C 50.6883 -0.634024 1.57842 0
M  V30 512 O 51.8733 -0.562676 1.8587 0
M  V30 513 C 49.0033 -0.601106 3.42058 0
M  V30 514 C 47.9573 0.179896 4.27622 0
M  V30 515 C 47.2833 -0.788237 5.28858 0
M  V30 516 C 48.5833 1.38329 5.03649 0
M  V30 517 H 50.2773 1.05763 2.80097 0
M  V30 518 H 47.8233 0.510029 1.34665 0
M  V30 519 H 49.7763 -1.00968 4.09125 0
M  V30 520 H 48.5003 -1.44688 2.92802 0
M  V30 521 H 47.1593 0.569739 3.62146 0
M  V30 522 H 46.8073 -1.62973 4.75866 0
M  V30 523 H 46.5073 -0.269942 5.8698 0
M  V30 524 H 48.0313 -1.19485 5.98795 0
M  V30 525 H 49.4453 1.04918 5.63618 0
M  V30 526 H 47.8423 1.83662 5.71304 0
M  V30 527 H 48.9123 2.16592 4.33839 0
M  V30 528 N 50.2554 -1.46986 0.568584 0
M  V30 529 C 51.2184 -2.28624 -0.162366 0
M  V30 530 C 52.2184 -1.37596 -0.832103 0
M  V30 531 O 53.4084 -1.60115 -0.68622 0
M  V30 532 C 50.5404 -3.17596 -1.23878 0
M  V30 533 H 51.7334 -2.94722 0.554899 0
M  V30 534 H 49.2864 -1.52863 0.325976 0
M  V30 535 H 50.0214 -2.56214 -1.98808 0
M  V30 536 H 49.8064 -3.846 -0.763219 0
M  V30 537 H 51.2964 -3.79078 -1.75185 0
M  V30 538 N 51.7335 -0.305618 -1.54608 0
M  V30 539 C 52.6435 0.57778 -2.27374 0
M  V30 540 C 53.6595 1.14451 -1.31061 0
M  V30 541 O 54.8355 1.16831 -1.6405 0
M  V30 542 C 51.9005 1.73123 -3.00382 0
M  V30 543 C 50.9615 1.19812 -4.12242 0
M  V30 544 C 50.1945 2.2966 -4.81759 0
M  V30 545 O 50.4175 3.49651 -4.50666 0
M  V30 546 O 49.3515 1.96091 -5.69062 0
M  V30 547 H 53.1775 -0.012624 -3.03697 0
M  V30 548 H 50.7625 -0.0719184 -1.49227 0
M  V30 549 H 52.6445 2.40315 -3.4616 0
M  V30 550 H 51.3195 2.30815 -2.26949 0
M  V30 551 H 50.2265 0.491798 -3.70853 0
M  V30 552 H 51.5595 0.666566 -4.87666 0
M  V30 553 N 53.2116 1.57565 -0.0334293 0
M  V30 554 C 54.1416 2.13511 0.945265 0
M  V30 555 C 55.1226 1.05231 1.33643 0
M  V30 556 O 56.3076 1.33084 1.41429 0
M  V30 557 C 53.4376 2.6657 2.22616 0
M  V30 558 C 52.3916 3.79676 1.97561 0
M  V30 559 C 51.7176 4.1918 3.31952 0
M  V30 560 C 53.0176 5.0557 1.31135 0
M  V30 561 H 54.7116 2.95538 0.479325 0
M  V30 562 H 52.2576 1.42166 0.229115 0
M  V30 563 H 54.2106 3.04344 2.91466 0
M  V30 564 H 52.9346 1.8171 2.71384 0
M  V30 565 H 51.5936 3.42347 1.31127 0
M  V30 566 H 51.2416 3.31296 3.78487 0
M  V30 567 H 50.9416 4.95402 3.15992 0
M  V30 568 H 52.4656 4.59541 4.02063 0
M  V30 569 H 53.8796 5.40903 1.89992 0
M  V30 570 H 52.2766 5.86818 1.25559 0
M  V30 571 H 53.3466 4.84062 0.284894 0
M  V30 572 N 54.6897 -0.239769 1.55765 0
M  V30 573 C 55.5997 -1.31831 1.94056 0
M  V30 574 C 56.6157 -1.52275 0.841925 0
M  V30 575 O 57.7917 -1.65759 1.14394 0
M  V30 576 C 54.8567 -2.65156 2.23368 0
M  V30 577 C 53.9177 -2.53173 3.46701 0
M  V30 578 C 53.1507 -3.8014 3.74606 0
M  V30 579 O 53.3737 -4.82343 3.04469 0
M  V30 580 O 52.3077 -3.78344 4.68123 0
M  V30 581 H 56.1337 -1.02347 2.85935 0
M  V30 582 H 53.7187 -0.441123 1.42739 0
M  V30 583 H 55.6007 -3.43929 2.43497 0
M  V30 584 H 54.2757 -2.94358 1.34666 0
M  V30 585 H 53.1827 -1.72662 3.31871 0
M  V30 586 H 54.5157 -2.28915 4.35728 0
M  V30 587 N 56.1678 -1.49265 -0.50573 0
M  V30 588 C 57.0998 -1.617 -1.62437 0
M  V30 589 C 58.1128 -0.499924 -1.54934 0
M  V30 590 O 59.3018 -0.771785 -1.60953 0
M  V30 591 C 56.4018 -1.5533 -3.01207 0
M  V30 592 C 55.5748 -2.8249 -3.33943 0
M  V30 593 C 54.6338 -2.69238 -4.52103 0
M  V30 594 O 53.6598 -3.43167 -4.5412 0
M  V30 595 N 54.8618 -1.80468 -5.51735 0
M  V30 596 H 57.6268 -2.58177 -1.52199 0
M  V30 597 H 55.1878 -1.46294 -0.693511 0
M  V30 598 H 57.1798 -1.44125 -3.78167 0
M  V30 599 H 55.7498 -0.667297 -3.05395 0
M  V30 600 H 54.9698 -3.08081 -2.45926 0
M  V30 601 H 56.2578 -3.66802 -3.5261 0
M  V30 602 H 55.6558 -1.19653 -5.52901 0
M  V30 603 H 54.2128 -1.75188 -6.27816 0
M  V30 604 N 57.6459 0.756429 -1.3826 0
M  V30 605 C 58.5929 1.87011 -1.35261 0
M  V30 606 C 59.5629 1.64695 -0.215616 0
M  V30 607 O 60.7479 1.864 -0.407399 0
M  V30 608 C 57.8879 3.24275 -1.18068 0
M  V30 609 C 57.0009 3.58442 -2.41129 0
M  V30 610 C 56.1359 4.84994 -2.16689 0
M  V30 611 C 55.1749 5.11939 -3.35537 0
M  V30 612 N 54.3119 6.29685 -3.10549 0
M  V30 613 H 59.1519 1.8891 -2.30472 0
M  V30 614 H 56.6889 0.923373 -1.14509 0
M  V30 615 H 58.6469 4.03479 -1.06116 0
M  V30 616 H 57.2769 3.21711 -0.264973 0
M  V30 617 H 56.3289 2.74103 -2.63764 0
M  V30 618 H 57.6409 3.74283 -3.29717 0
M  V30 619 H 56.7949 5.72135 -2.01857 0
M  V30 620 H 55.5339 4.71286 -1.25462 0
M  V30 621 H 54.5389 4.23268 -3.50891 0
M  V30 622 H 55.7639 5.27546 -4.27635 0
M  V30 623 H 53.7099 6.17306 -2.21967 0
M  V30 624 H 53.6269 6.46014 -3.92686 0
M  V30 625 H 54.8949 7.19722 -2.99367 0
M  V30 626 N 59.124 1.23083 0.984299 0
M  V30 627 C 60.37 1.06214 1.72761 0
M  V30 628 C 60.703 -0.400584 1.90024 0
M  V30 629 O 59.978 -1.29672 1.44967 0
M  V30 630 C 60.261 1.78375 3.12817 0
M  V30 631 C 60.114 3.32296 3.03149 0
M  V30 632 C 61.433 1.54309 4.12161 0
M  V30 633 H 58.552 0.387251 0.627061 0
M  V30 634 H 61.194 1.51536 1.14616 0
M  V30 635 H 59.344 1.39848 3.62457 0
M  V30 636 H 61.016 3.8032 2.61064 0
M  V30 637 H 59.259 3.6153 2.39747 0
M  V30 638 H 59.93 3.77972 4.02295 0
M  V30 639 H 62.406 1.87791 3.71314 0
M  V30 640 H 61.282 2.07281 5.08258 0
M  V30 641 H 61.543 0.477572 4.39513 0
M  V30 642 N 60.6021 -1.18246 1.0419 0
M  V30 643 C 62.0131 -1.69914 0.773698 0
M  V30 644 C 62.3641 -1.83085 -0.705297 0
M  V30 645 O 61.4891 -1.51123 -1.5489 0
M  V30 646 C 62.0841 -3.08619 1.39784 0
M  V30 647 C 60.6431 -3.57494 1.17792 0
M  V30 648 C 59.7901 -2.34013 1.48773 0
M  V30 649 H 62.7411 -1.02904 1.20816 0
M  V30 650 H 62.7621 -3.71958 0.801714 0
M  V30 651 H 62.2741 -2.99001 2.47426 0
M  V30 652 H 60.3751 -3.72406 0.120295 0
M  V30 653 H 60.4881 -4.40852 1.87581 0
M  V30 654 H 58.8521 -2.37986 0.907463 0
M  V30 655 H 59.6351 -2.27013 2.57527 0
M  V30 656 N 62.0802 -0.821533 -1.34494 0
M  V30 657 C 63.0432 -0.247847 -2.27856 0
M  V30 658 C 64.0432 0.573453 -1.50227 0
M  V30 659 O 65.2332 0.389759 -1.69784 0
M  V30 660 C 62.3652 0.652698 -3.34593 0
M  V30 661 H 63.5582 -1.07146 -2.80107 0
M  V30 662 H 61.1112 -0.593291 -1.44602 0
M  V30 663 H 61.8462 1.49943 -2.87555 0
M  V30 664 H 61.6312 0.065292 -3.92046 0
M  V30 665 H 63.1212 1.04793 -4.04238 0
M  V30 666 N 63.5583 1.46682 -0.576371 0
M  V30 667 C 64.5213 2.28707 0.150239 0
M  V30 668 C 65.5213 1.38035 0.824794 0
M  V30 669 O 66.7113 1.60476 0.677719 0
M  V30 670 C 63.8433 3.18248 1.22192 0
M  V30 671 H 65.0363 2.94423 -0.570521 0
M  V30 672 H 62.5893 1.52688 -0.334078 0
M  V30 673 H 63.3243 2.57265 1.97447 0
M  V30 674 H 63.1093 3.85 0.742812 0
M  V30 675 H 64.5993 3.80001 1.73172 0
M  V30 676 N 65.0364 0.313813 1.54444 0
M  V30 677 C 65.9834 -0.55655 2.23989 0
M  V30 678 C 66.9534 -1.11943 1.22711 0
M  V30 679 O 68.1384 -1.16158 1.51367 0
M  V30 680 C 65.2784 -1.71635 2.99392 0
M  V30 681 C 64.3914 -1.18364 4.15468 0
M  V30 682 C 63.5264 -2.30834 4.78424 0
M  V30 683 C 62.5654 -1.74762 5.86622 0
M  V30 684 N 61.7024 -2.80855 6.43479 0
M  V30 685 H 66.5424 0.0430893 2.97969 0
M  V30 686 H 64.0794 0.0330359 1.47063 0
M  V30 687 H 66.0374 -2.39868 3.41349 0
M  V30 688 H 64.6674 -2.28742 2.27765 0
M  V30 689 H 63.7194 -0.393163 3.78363 0
M  V30 690 H 65.0314 -0.733262 4.93381 0
M  V30 691 H 64.1854 -3.0699 5.23299 0
M  V30 692 H 62.9244 -2.79204 3.99871 0
M  V30 693 H 61.9294 -0.970995 5.41158 0
M  V30 694 H 63.1544 -1.2728 6.67066 0
M  V30 695 H 61.1004 -3.28535 5.67804 0
M  V30 696 H 61.0174 -2.40351 7.16776 0
M  V30 697 H 62.2854 -3.5687 6.93011 0
M  V30 698 N 66.5145 -1.57545 0.0417849 0
M  V30 699 C 67.7425 -1.96624 -0.643928 0
M  V30 700 C 68.1575 -0.918897 -1.64929 0
M  V30 701 O 67.5145 0.0979323 -1.82237 0
M  V30 702 C 67.5655 -3.35781 -1.33914 0
M  V30 703 O 67.2865 -4.365 -0.374048 0
M  V30 704 C 68.7875 -3.89566 -2.1155 0
M  V30 705 H 66.0075 -0.647316 -0.176702 0
M  V30 706 H 68.5515 -2.04229 0.105304 0
M  V30 707 H 66.7065 -3.29357 -2.03968 0
M  V30 708 H 67.1205 -5.17248 -0.869179 0
M  V30 709 H 68.5945 -4.89242 -2.55628 0
M  V30 710 H 69.0715 -3.24488 -2.9598 0
M  V30 711 H 69.6775 -3.99298 -1.46427 0
M  V30 712 N 67.9926 0.231505 -1.5589 0
M  V30 713 C 69.4086 0.580748 -1.48659 0
M  V30 714 C 69.6086 1.87617 -0.73498 0
M  V30 715 O 68.6646 2.51046 -0.270586 0
M  V30 716 C 69.9776 0.669202 -2.93159 0
M  V30 717 C 71.5256 0.760499 -3.03621 0
M  V30 718 C 72.0006 0.880383 -4.49459 0
M  V30 719 N 73.4916 0.944861 -4.53461 0
M  V30 720 C 74.2266 1.05716 -5.63571 0
M  V30 721 N 73.7226 1.13403 -6.83456 0
M  V30 722 N 75.5156 1.09152 -5.514 0
M  V30 723 H 67.6666 -0.618695 -2.03189 0
M  V30 724 H 69.9296 -0.215728 -0.923128 0
M  V30 725 H 69.6356 -0.212904 -3.51055 0
M  V30 726 H 69.5096 1.5361 -3.44505 0
M  V30 727 H 71.8966 1.63305 -2.45796 0
M  V30 728 H 71.9776 -0.131864 -2.5546 0
M  V30 729 H 71.6216 0.0123284 -5.07899 0
M  V30 730 H 71.5516 1.78802 -4.95316 0
M  V30 731 H 74.0426 0.896176 -3.6712 0
M  V30 732 H 74.3556 1.21921 -7.63122 0
M  V30 733 H 72.7006 1.10333 -6.86186 0
M  V30 734 H 75.8916 1.02805 -4.56671 0
M  V30 735 H 76.0646 1.17558 -6.37247 0
M  V30 736 N 69.4707 1.49531 0.497807 0
M  V30 737 C 70.4207 1.62829 1.59596 0
M  V30 738 C 71.4047 0.483824 1.53453 0
M  V30 739 O 72.5967 0.736937 1.60929 0
M  V30 740 C 69.7257 1.7011 2.98191 0
M  V30 741 C 68.8117 2.90144 3.09317 0
M  V30 742 N 69.2027 4.1418 2.90324 0
M  V30 743 C 67.5007 2.88148 3.40422 0
M  V30 744 C 68.2017 4.94886 3.05717 0
M  V30 745 N 67.1777 4.28314 3.34736 0
M  V30 746 H 70.9797 2.56446 1.4357 0
M  V30 747 H 68.4937 1.46347 0.704001 0
M  V30 748 H 70.4907 1.77735 3.77115 0
M  V30 749 H 69.1507 0.776315 3.15283 0
M  V30 750 H 70.1617 4.44109 2.66436 0
M  V30 751 H 66.8387 2.05061 3.63671 0
M  V30 752 H 68.2287 6.03432 2.95499 0
M  V30 753 N 70.9488 -0.749086 1.3866 0
M  V30 754 C 72.1768 -1.53834 1.38358 0
M  V30 755 C 72.5918 -1.88783 -0.0255219 0
M  V30 756 O 71.9488 -1.53101 -0.993292 0
M  V30 757 C 71.9998 -2.83468 2.2434 0
M  V30 758 O 71.7208 -2.50008 3.5976 0
M  V30 759 C 73.2218 -3.7758 2.32267 0
M  V30 760 H 70.4418 -0.47585 0.473083 0
M  V30 761 H 72.9858 -0.926726 1.82297 0
M  V30 762 H 71.1408 -3.40995 1.83851 0
M  V30 763 H 71.5548 -3.33182 4.05081 0
M  V30 764 H 73.0288 -4.65478 2.96706 0
M  V30 765 H 73.5058 -4.18334 1.33765 0
M  V30 766 H 74.1118 -3.25976 2.73166 0
M  V30 767 N 72.4269 -1.23603 -0.977757 0
M  V30 768 C 73.3899 -1.02069 -2.05218 0
M  V30 769 C 74.3899 0.0184305 -1.60789 0
M  V30 770 O 75.5799 -0.221569 -1.72785 0
M  V30 771 C 72.7119 -0.544926 -3.36517 0
M  V30 772 H 73.9049 -1.9742 -2.25755 0
M  V30 773 H 71.4579 -1.05684 -1.15155 0
M  V30 774 H 72.1929 0.412241 -3.21669 0
M  V30 775 H 71.9779 -1.2948 -3.70105 0
M  V30 776 H 73.4679 -0.414985 -4.15533 0
M  V30 777 N 73.905 1.17692 -1.04816 0
M  V30 778 C 75.13 1.92327 -0.776207 0
M  V30 779 C 75.555 1.76082 0.661581 0
M  V30 780 O 74.913 1.076 1.45917 0
M  V30 781 C 74.961 3.41539 -1.15687 0
M  V30 782 O 74.065 4.11402 -0.286775 0
M  V30 783 H 73.406 0.599735 -0.284981 0
M  V30 784 H 75.936 1.49201 -1.4 0
M  V30 785 H 75.946 3.92269 -1.12202 0
M  V30 786 H 74.621 3.52684 -2.20425 0
M  V30 787 H 73.198 3.70939 -0.381903 0
M  V30 788 N 75.3831 0.828654 1.34056 0
M  V30 789 C 76.3461 0.259927 2.27721 0
M  V30 790 C 77.3461 -0.565478 1.50529 0
M  V30 791 O 78.5361 -0.38075 1.69988 0
M  V30 792 C 75.6681 -0.634944 3.34935 0
M  V30 793 H 76.8611 1.0863 2.79534 0
M  V30 794 H 74.4141 0.600951 1.44285 0
M  V30 795 H 75.1491 -1.48416 2.88346 0
M  V30 796 H 74.9341 -0.0444999 3.92075 0
M  V30 797 H 76.4241 -1.02648 4.04788 0
M  V30 798 N 76.8612 -1.46375 0.584142 0
M  V30 799 C 78.1072 -2.03248 0.0787103 0
M  V30 800 C 78.4622 -1.44737 -1.26763 0
M  V30 801 O 77.7552 -0.603625 -1.81843 0
M  V30 802 C 77.9492 -3.57373 -0.0439342 0
M  V30 803 C 77.7782 -4.30831 1.28897 0
M  V30 804 C 76.5482 -4.69683 1.8635 0
M  V30 805 C 78.7462 -4.64278 2.21248 0
M  V30 806 N 76.7282 -5.27898 3.13365 0
M  V30 807 C 78.0992 -5.23078 3.32851 0
M  V30 808 C 80.1542 -4.46209 2.20911 0
M  V30 809 C 78.8572 -5.65715 4.44251 0
M  V30 810 C 80.8832 -4.89864 3.31341 0
M  V30 811 C 80.2452 -5.48736 4.41665 0
M  V30 812 H 76.3442 -0.778714 0.0716144 0
M  V30 813 H 78.9282 -1.78509 0.777355 0
M  V30 814 H 77.0992 -3.81823 -0.711749 0
M  V30 815 H 78.8312 -4.00892 -0.553881 0
M  V30 816 H 75.5862 -4.52488 1.39826 0
M  V30 817 H 76.0102 -5.61525 3.78178 0
M  V30 818 H 80.6522 -4.00027 1.36888 0
M  V30 819 H 78.3702 -6.10875 5.29015 0
M  V30 820 H 81.9562 -4.77634 3.322 0
M  V30 821 H 80.8362 -5.81898 5.25704 0
M  V30 822 N 78.3393 -0.321999 -1.54275 0
M  V30 823 C 79.2693 0.537411 -2.27231 0
M  V30 824 C 80.2503 1.12064 -1.27968 0
M  V30 825 O 81.4353 1.14606 -1.56777 0
M  V30 826 C 78.5653 1.69919 -3.02894 0
M  V30 827 C 77.5193 1.24534 -4.09482 0
M  V30 828 C 76.8453 2.49394 -4.72977 0
M  V30 829 C 78.1453 0.361335 -5.21049 0
M  V30 830 H 79.8393 -0.0711406 -2.99315 0
M  V30 831 H 77.3853 -0.0356555 -1.43956 0
M  V30 832 H 79.3383 2.30668 -3.52662 0
M  V30 833 H 78.0623 2.33431 -2.28424 0
M  V30 834 H 76.7213 0.660782 -3.60596 0
M  V30 835 H 76.3693 3.11265 -3.95124 0
M  V30 836 H 76.0693 2.19718 -5.44975 0
M  V30 837 H 77.5933 3.10908 -5.25517 0
M  V30 838 H 79.0073 0.875072 -5.66582 0
M  V30 839 H 77.4043 0.157428 -5.99893 0
M  V30 840 H 78.4743 -0.60822 -4.8107 0
M  V30 841 N 79.8174 1.5752 -0.0501392 0
M  V30 842 C 80.7504 2.07026 0.959962 0
M  V30 843 C 81.7284 0.970539 1.30458 0
M  V30 844 O 82.9124 1.2424 1.41763 0
M  V30 845 C 80.0394 2.5099 2.27424 0
M  V30 846 C 79.0854 3.72188 2.08275 0
M  V30 847 S 79.9184 5.17888 1.36207 0
M  V30 848 C 81.0744 5.65165 2.6896 0
M  V30 849 H 81.3074 2.9238 0.538631 0
M  V30 850 H 78.8404 1.53547 0.162099 0
M  V30 851 H 80.7984 2.76982 3.02971 0
M  V30 852 H 79.4594 1.65944 2.66686 0
M  V30 853 H 78.6524 4.00866 3.05487 0
M  V30 854 H 78.2544 3.46457 1.40868 0
M  V30 855 H 80.5464 5.70687 3.65133 0
M  V30 856 H 81.4894 6.64394 2.4492 0
M  V30 857 H 81.8974 4.9289 2.75172 0
M  V30 858 N 81.2955 -0.223234 1.56011 0
M  V30 859 C 82.5205 -0.968978 1.83373 0
M  V30 860 C 82.9455 -1.77227 0.630254 0
M  V30 861 O 82.3035 -1.76345 -0.420959 0
M  V30 862 C 82.3515 -1.86363 3.08709 0
M  V30 863 O 81.4555 -2.95873 2.87285 0
M  V30 864 H 80.7965 -0.274461 0.604622 0
M  V30 865 H 83.3265 -0.237056 2.03222 0
M  V30 866 H 83.3365 -2.27376 3.38768 0
M  V30 867 H 82.0115 -1.27319 3.95933 0
M  V30 868 H 80.5885 -2.58818 2.68454 0
M  V30 869 N 82.7736 -1.49793 -0.48987 0
M  V30 870 C 83.7366 -1.66752 -1.57246 0
M  V30 871 C 84.7366 -0.538867 -1.51502 0
M  V30 872 O 85.9266 -0.805545 -1.54456 0
M  V30 873 C 83.0586 -1.67528 -2.96896 0
M  V30 874 H 84.2516 -2.63321 -1.43534 0
M  V30 875 H 81.8046 -1.38992 -0.714914 0
M  V30 876 H 82.5396 -0.725837 -3.16073 0
M  V30 877 H 82.3246 -2.49504 -3.02473 0
M  V30 878 H 83.8146 -1.82667 -3.7553 0
M  V30 879 N 84.2517 0.741722 -1.39055 0
M  V30 880 C 85.6627 1.31966 -1.32068 0
M  V30 881 C 86.0137 1.96192 0.0180797 0
M  V30 882 O 85.1387 1.95861 0.920196 0
M  V30 883 C 85.7337 2.39954 -2.39181 0
M  V30 884 C 84.2927 2.93438 -2.35735 0
M  V30 885 C 83.4397 1.66936 -2.21422 0
M  V30 886 H 86.3907 0.539721 -1.4924 0
M  V30 887 H 86.4117 3.20182 -2.05581 0
M  V30 888 H 85.9237 1.9318 -3.36605 0
M  V30 889 H 84.0247 3.4451 -1.41929 0
M  V30 890 H 84.1377 3.4701 -3.30335 0
M  V30 891 H 82.5017 1.91016 -1.68478 0
M  V30 892 H 83.2847 1.22224 -3.20806 0
M  V30 893 N 85.7298 1.2412 0.971189 0
M  V30 894 C 86.6778 1.02812 2.08644 0
M  V30 895 C 87.6718 -0.0358403 1.69362 0
M  V30 896 O 88.8778 0.118429 1.7961 0
M  V30 897 H 85.2528 0.315428 0.682649 0
M  V30 898 H 87.2238 1.97397 2.23779 0
M  V30 899 C 85.9728 0.645874 3.41649 0
M  V30 900 H 85.2958 1.45632 3.72332 0
M  V30 901 H 86.7358 0.536366 4.20594 0
M  V30 902 C 85.1948 -0.646713 3.30635 0
M  V30 903 O 85.7248 -1.69338 3.64263 0
M  V30 904 N 83.9308 -0.626115 2.83775 0
M  V30 905 H 83.4778 0.225988 2.56607 0
M  V30 906 H 83.4358 -1.49117 2.76788 0
M  V30 907 N 87.2079 -1.17134 1.05439 0
M  V30 908 C 88.4329 -1.91913 0.786396 0
M  V30 909 C 88.8579 -1.7643 -0.652234 0
M  V30 910 O 88.2159 -1.08372 -1.45345 0
M  V30 911 C 88.2639 -3.40921 1.17497 0
M  V30 912 O 87.3679 -4.11244 0.308589 0
M  V30 913 H 86.7089 -0.598215 0.288158 0
M  V30 914 H 89.2389 -1.48457 1.4079 0
M  V30 915 H 89.2489 -3.91668 1.14281 0
M  V30 916 H 87.9239 -3.5151 2.22292 0
M  V30 917 H 86.5009 -3.70731 0.40157 0
M  V30 918 N 88.686 -0.835752 -1.33615 0
M  V30 919 C 89.934 -0.429109 -1.97492 0
M  V30 920 C 90.255 1.01433 -1.66543 0
M  V30 921 O 89.525 1.70611 -0.962744 0
M  V30 922 H 88.105 -0.155686 -0.730596 0
M  V30 923 H 90.767 -1.06802 -1.63031 0
M  V30 924 H 89.863 -0.55861 -3.0706 0
M  V30 925 N 90.1641 1.46063 -0.591896 0
M  V30 926 C 91.5751 1.85944 -0.167822 0
M  V30 927 C 91.9261 1.49429 1.27143 0
M  V30 928 O 91.0511 0.913515 1.96173 0
M  V30 929 C 91.6461 3.37489 -0.297794 0
M  V30 930 C 90.2051 3.76332 0.0714732 0
M  V30 931 C 89.3521 2.7006 -0.629509 0
M  V30 932 H 92.3031 1.37087 -0.799555 0
M  V30 933 H 92.3241 3.77532 0.474349 0
M  V30 934 H 91.8361 3.64034 -1.3454 0
M  V30 935 H 89.9371 3.55405 1.11886 0
M  V30 936 H 90.0501 4.78088 -0.311245 0
M  V30 937 H 88.4141 2.54607 -0.0687867 0
M  V30 938 H 89.1971 2.99444 -1.67894 0
M  V30 939 N 91.6422 0.330177 1.54103 0
M  V30 940 C 92.5922 -0.548456 2.21305 0
M  V30 941 C 93.5762 -1.07651 1.19583 0
M  V30 942 O 94.7682 -1.01243 1.45186 0
M  V30 943 C 91.8972 -1.70559 2.97934 0
M  V30 944 C 90.9832 -1.19212 4.07 0
M  V30 945 N 91.3742 -0.398831 5.04225 0
M  V30 946 C 89.6722 -1.47024 4.2107 0
M  V30 947 C 90.3732 -0.121761 5.81573 0
M  V30 948 N 89.3492 -0.709722 5.38947 0
M  V30 949 H 93.1512 0.0648483 2.93828 0
M  V30 950 H 90.6652 0.136363 1.61826 0
M  V30 951 H 92.6622 -2.34688 3.44568 0
M  V30 952 H 91.3222 -2.32231 2.26934 0
M  V30 953 H 92.3332 -0.0410869 5.17884 0
M  V30 954 H 89.0102 -2.09232 3.61287 0
M  V30 955 H 90.4002 0.517298 6.69906 0
M  V30 956 N 93.1203 -1.57491 0.0584922 0
M  V30 957 C 94.0683 -2.13148 -0.931168 0
M  V30 958 C 95.0623 -1.06507 -1.31729 0
M  V30 959 O 96.2683 -1.24906 -1.29609 0
M  V30 960 H 92.6433 -0.68137 -0.31818 0
M  V30 961 H 94.6143 -2.95187 -0.436707 0
M  V30 962 C 93.3633 -2.69732 -2.19408 0
M  V30 963 H 92.6863 -3.51454 -1.90578 0
M  V30 964 H 94.1263 -3.12287 -2.86798 0
M  V30 965 C 92.5853 -1.63855 -2.94369 0
M  V30 966 O 93.1153 -1.05565 -3.87581 0
M  V30 967 N 91.3213 -1.35202 -2.57233 0
M  V30 968 H 90.8683 -1.82791 -1.81508 0
M  V30 969 H 90.8263 -0.645922 -3.07693 0
M  V30 970 N 94.5984 0.214957 -1.56127 0
M  V30 971 C 96.0144 0.564948 -1.49267 0
M  V30 972 C 96.2144 1.86827 -0.754838 0
M  V30 973 O 95.2704 2.50745 -0.297198 0
M  V30 974 C 96.5834 0.638071 -2.93852 0
M  V30 975 C 98.1314 0.728253 -3.0441 0
M  V30 976 C 98.6064 0.832663 -4.50367 0
M  V30 977 N 100.097 0.896712 -4.54437 0
M  V30 978 C 100.832 0.997324 -5.6466 0
M  V30 979 N 100.328 1.06147 -6.8462 0
M  V30 980 N 102.121 1.03297 -5.52527 0
M  V30 981 H 94.2724 -0.640211 -2.02522 0
M  V30 982 H 96.5354 -0.225507 -0.920788 0
M  V30 983 H 96.2414 -0.250126 -3.50809 0
M  V30 984 H 96.1154 1.49947 -3.46115 0
M  V30 985 H 98.5024 1.60689 -2.47514 0
M  V30 986 H 98.5834 -0.158952 -2.55306 0
M  V30 987 H 98.2274 -0.0415417 -5.07883 0
M  V30 988 H 98.1574 1.73538 -4.97184 0
M  V30 989 H 100.648 0.857188 -3.6805 0
M  V30 990 H 100.961 1.1382 -7.64372 0
M  V30 991 H 99.3064 1.03049 -6.87318 0
M  V30 992 H 102.497 0.979558 -4.57736 0
M  V30 993 H 102.67 1.10793 -6.38458 0
M  V30 994 N 96.0765 1.50051 0.48192 0
M  V30 995 C 97.0065 1.71046 1.58951 0
M  V30 996 C 97.9875 0.559288 1.60642 0
M  V30 997 O 99.1725 0.797243 1.77081 0
M  V30 998 C 96.3025 1.79462 2.97339 0
M  V30 999 C 95.2565 2.94558 3.10515 0
M  V30 1000 C 94.5825 2.88105 4.50444 0
M  V30 1001 C 95.8825 4.35227 2.88747 0
M  V30 1002 H 97.5765 2.6378 1.41635 0
M  V30 1003 H 95.1225 1.26936 0.679942 0
M  V30 1004 H 97.0755 1.92734 3.74742 0
M  V30 1005 H 95.7995 0.833412 3.15788 0
M  V30 1006 H 94.4585 2.80918 2.35543 0
M  V30 1007 H 94.1065 1.89853 4.65795 0
M  V30 1008 H 93.8065 3.65366 4.60197 0
M  V30 1009 H 95.3305 3.03412 5.29881 0
M  V30 1010 H 96.7445 4.49449 3.55905 0
M  V30 1011 H 95.1415 5.13856 3.09955 0
M  V30 1012 H 96.2115 4.48347 1.84696 0
M  V30 1013 N 97.5546 -0.734337 1.39446 0
M  V30 1014 C 98.7846 -1.52137 1.39778 0
M  V30 1015 C 99.1926 -1.89198 -0.00929312 0
M  V30 1016 O 98.5356 -1.54666 -0.991168 0
M  V30 1017 C 98.5976 -2.83762 2.20724 0
M  V30 1018 C 98.2616 -2.69131 3.69347 0
M  V30 1019 C 99.2586 -2.37635 4.62413 0
M  V30 1020 C 96.9436 -2.85982 4.1294 0
M  V30 1021 C 98.9376 -2.23172 5.97054 0
M  V30 1022 C 96.6246 -2.71137 5.47657 0
M  V30 1023 C 97.6226 -2.39777 6.39528 0
M  V30 1024 O 97.3106 -2.25026 7.71763 0
M  V30 1025 H 97.0426 -0.476717 0.479288 0
M  V30 1026 H 99.5966 -0.915012 1.83893 0
M  V30 1027 H 97.8266 -3.4666 1.71359 0
M  V30 1028 H 99.5156 -3.45383 2.13226 0
M  V30 1029 H 100.282 -2.24267 4.30034 0
M  V30 1030 H 96.1606 -3.09383 3.41765 0
M  V30 1031 H 99.7046 -1.98617 6.68728 0
M  V30 1032 H 95.6016 -2.84083 5.79626 0
M  V30 1033 H 96.3696 -2.40091 7.82495 0
M  V30 1034 N 99.0327 -1.24633 -0.964593 0
M  V30 1035 C 99.9827 -1.00841 -2.04487 0
M  V30 1036 C 100.967 0.0512468 -1.60818 0
M  V30 1037 O 102.159 -0.162865 -1.76249 0
M  V30 1038 C 99.2877 -0.618474 -3.37683 0
M  V30 1039 C 98.3737 -1.71437 -3.87905 0
M  V30 1040 N 98.7647 -2.9477 -4.11029 0
M  V30 1041 C 97.0627 -1.5926 -4.16596 0
M  V30 1042 C 97.7637 -3.65834 -4.52261 0
M  V30 1043 N 96.7397 -2.9341 -4.57615 0
M  V30 1044 H 100.542 -1.94487 -2.20345 0
M  V30 1045 H 98.0557 -1.14805 -1.14863 0
M  V30 1046 H 100.053 -0.429247 -4.14684 0
M  V30 1047 H 98.7127 0.310766 -3.23209 0
M  V30 1048 H 99.7237 -3.30917 -3.9839 0
M  V30 1049 H 96.4007 -0.731606 -4.1104 0
M  V30 1050 H 97.7907 -4.71646 -4.78539 0
M  V30 1051 N 100.511 1.16574 -1.06058 0
M  V30 1052 C 101.758 1.87047 -0.775873 0
M  V30 1053 C 102.086 1.81562 0.697534 0
M  V30 1054 O 101.341 1.22445 1.52662 0
M  V30 1055 C 101.64 3.36195 -1.21275 0
M  V30 1056 C 101.306 3.6188 -2.68986 0
M  V30 1057 C 99.9678 3.68599 -3.09335 0
M  V30 1058 C 102.32 3.72648 -3.64394 0
M  V30 1059 C 99.6478 3.83584 -4.43937 0
M  V30 1060 C 102 3.89154 -4.98741 0
M  V30 1061 C 100.664 3.94114 -5.3873 0
M  V30 1062 H 99.9338 0.684452 -0.283912 0
M  V30 1063 H 102.581 1.37853 -1.32925 0
M  V30 1064 H 100.886 3.87505 -0.578528 0
M  V30 1065 H 102.583 3.89103 -0.969542 0
M  V30 1066 H 99.1728 3.57281 -2.36744 0
M  V30 1067 H 103.357 3.66769 -3.34356 0
M  V30 1068 H 98.6128 3.85677 -4.74409 0
M  V30 1069 H 102.787 3.96427 -5.72554 0
M  V30 1070 H 100.414 4.05478 -6.43033 0
M  V30 1071 N 101.989 0.842826 1.3317 0
M  V30 1072 C 102.919 0.294028 2.31641 0
M  V30 1073 C 103.9 -0.600401 1.59151 0
M  V30 1074 O 105.085 -0.523124 1.87022 0
M  V30 1075 C 102.215 -0.528416 3.43257 0
M  V30 1076 C 101.169 0.27056 4.27144 0
M  V30 1077 C 100.495 -0.675881 5.30411 0
M  V30 1078 C 101.795 1.48981 5.00602 0
M  V30 1079 H 103.489 1.11681 2.77791 0
M  V30 1080 H 101.035 0.538478 1.33553 0
M  V30 1081 H 102.988 -0.922674 4.11175 0
M  V30 1082 H 101.712 -1.38445 2.95805 0
M  V30 1083 H 100.371 0.646427 3.60856 0
M  V30 1084 H 100.019 -1.52842 4.79216 0
M  V30 1085 H 99.7189 -0.145374 5.8742 0
M  V30 1086 H 101.243 -1.06757 6.01195 0
M  V30 1087 H 102.657 1.16849 5.61266 0
M  V30 1088 H 101.054 1.95739 5.6728 0
M  V30 1089 H 102.124 2.25746 4.29147 0
M  V30 1090 N 103.467 -1.45747 0.599634 0
M  V30 1091 C 104.397 -2.33235 -0.111306 0
M  V30 1092 C 105.378 -1.46359 -0.866781 0
M  V30 1093 O 106.563 -1.75146 -0.838904 0
M  V30 1094 C 103.693 -3.28932 -1.11451 0
M  V30 1095 C 102.647 -4.25381 -0.472772 0
M  V30 1096 C 101.973 -5.1071 -1.58365 0
M  V30 1097 C 103.273 -5.18831 0.600948 0
M  V30 1098 H 104.967 -2.92927 0.61919 0
M  V30 1099 H 102.513 -1.40857 0.299215 0
M  V30 1100 H 104.466 -3.89002 -1.62036 0
M  V30 1101 H 103.19 -2.67381 -1.8755 0
M  V30 1102 H 101.849 -3.66598 0.0121472 0
M  V30 1103 H 101.497 -4.45533 -2.33473 0
M  V30 1104 H 101.197 -5.7604 -1.15982 0
M  V30 1105 H 102.721 -5.73647 -2.09194 0
M  V30 1106 H 104.135 -5.73019 0.179491 0
M  V30 1107 H 102.532 -5.92595 0.946076 0
M  V30 1108 H 103.602 -4.6174 1.48068 0
M  V30 1109 N 104.945 -0.338344 -1.53925 0
M  V30 1110 C 106.193 0.259245 -2.0043 0
M  V30 1111 C 106.514 1.51484 -1.22791 0
M  V30 1112 O 105.784 1.93037 -0.33368 0
M  V30 1113 H 104.364 0.0987845 -0.740439 0
M  V30 1114 H 107.026 -0.458302 -1.89435 0
M  V30 1115 H 106.122 0.505334 -3.07982 0
M  V30 1116 N 106.423 1.57458 -0.0668435 0
M  V30 1117 C 107.386 2.11323 0.887422 0
M  V30 1118 C 108.386 1.03618 1.22964 0
M  V30 1119 O 109.576 1.29626 1.16373 0
M  V30 1120 C 106.708 2.61048 2.19242 0
M  V30 1121 H 107.901 2.96942 0.420194 0
M  V30 1122 H 105.454 1.55239 0.181793 0
M  V30 1123 H 106.189 1.78868 2.70512 0
M  V30 1124 H 105.974 3.39769 1.95702 0
M  V30 1125 H 107.464 3.02814 2.87565 0
M  V30 1126 N 107.901 -0.206675 1.56239 0
M  V30 1127 C 109.147 -0.925733 1.81113 0
M  V30 1128 C 109.502 -1.81368 0.642135 0
M  V30 1129 O 108.795 -1.88126 -0.363211 0
M  V30 1130 C 108.989 -1.78675 3.09532 0
M  V30 1131 C 108.818 -0.98365 4.3881 0
M  V30 1132 C 107.588 -0.672661 5.00803 0
M  V30 1133 C 109.786 -0.341847 5.13163 0
M  V30 1134 N 107.768 0.150283 6.13716 0
M  V30 1135 C 109.139 0.343815 6.19046 0
M  V30 1136 C 111.194 -0.256392 4.97239 0
M  V30 1137 C 109.897 1.10678 7.10734 0
M  V30 1138 C 111.923 0.493142 5.8934 0
M  V30 1139 C 111.285 1.16729 6.94661 0
M  V30 1140 H 107.384 -0.318524 0.714189 0
M  V30 1141 H 109.968 -0.195378 1.93717 0
M  V30 1142 H 108.139 -2.4888 2.98183 0
M  V30 1143 H 109.871 -2.44441 3.22538 0
M  V30 1144 H 106.626 -0.994294 4.63045 0
M  V30 1145 H 107.05 0.551026 6.74754 0
M  V30 1146 H 111.692 -0.763249 4.15854 0
M  V30 1147 H 109.41 1.6251 7.91591 0
M  V30 1148 H 112.996 0.560465 5.79094 0
M  V30 1149 H 111.876 1.738 7.64698 0
M  V30 1150 N 109.379 -1.50304 -0.473955 0
M  V30 1151 C 110.604 -1.65175 -1.25427 0
M  V30 1152 C 111.029 -0.333673 -1.85117 0
M  V30 1153 O 110.387 0.702114 -1.67153 0
M  V30 1154 C 110.435 -2.74295 -2.34082 0
M  V30 1155 O 109.539 -2.35349 -3.38651 0
M  V30 1156 H 108.88 -0.551944 -0.369126 0
M  V30 1157 H 111.41 -1.96662 -0.564364 0
M  V30 1158 H 111.42 -2.97285 -2.79438 0
M  V30 1159 H 110.095 -3.69959 -1.90008 0
M  V30 1160 H 108.672 -2.22794 -2.99027 0
M  V30 1161 N 110.857 0.726932 -1.39834 0
M  V30 1162 C 111.787 1.85405 -1.41941 0
M  V30 1163 C 112.768 1.67751 -0.281728 0
M  V30 1164 O 113.953 1.8795 -0.488717 0
M  V30 1165 C 111.083 3.23243 -1.2701 0
M  V30 1166 C 110.037 3.55549 -2.38262 0
M  V30 1167 C 109.363 4.9241 -2.08415 0
M  V30 1168 C 110.663 3.577 -3.80589 0
M  V30 1169 H 112.357 1.83899 -2.36266 0
M  V30 1170 H 109.903 0.883349 -1.13723 0
M  V30 1171 H 111.856 4.01775 -1.27103 0
M  V30 1172 H 110.58 3.25296 -0.291564 0
M  V30 1173 H 109.239 2.79351 -2.37399 0
M  V30 1174 H 108.887 4.91052 -1.0898 0
M  V30 1175 H 108.587 5.14992 -2.82943 0
M  V30 1176 H 110.111 5.73289 -2.10171 0
M  V30 1177 H 111.525 4.26293 -3.83337 0
M  V30 1178 H 109.922 3.91804 -4.54543 0
M  V30 1179 H 110.992 2.57328 -4.10987 0
M  V30 1180 N 112.336 1.25143 0.95797 0
M  V30 1181 C 113.284 1.05019 2.07542 0
M  V30 1182 C 114.278 -0.0178751 1.69391 0
M  V30 1183 O 115.484 0.137472 1.79474 0
M  V30 1184 H 111.859 0.32265 0.679265 0
M  V30 1185 H 113.83 1.99759 2.21673 0
M  V30 1186 C 112.579 0.682074 3.40944 0
M  V30 1187 H 111.902 1.49573 3.70767 0
M  V30 1188 H 113.342 0.580945 4.20001 0
M  V30 1189 C 111.801 -0.611608 3.31302 0
M  V30 1190 O 112.331 -1.65465 3.66038 0
M  V30 1191 N 110.537 -0.595982 2.84423 0
M  V30 1192 H 110.084 0.253192 2.56353 0
M  V30 1193 H 110.042 -1.46173 2.78354 0
M  V30 1194 N 113.814 -1.1601 1.06675 0
M  V30 1195 C 114.777 -2.18724 0.685001 0
M  V30 1196 C 115.777 -1.58496 -0.271246 0
M  V30 1197 O 116.967 -1.74119 -0.0531156 0
M  V30 1198 C 114.099 -3.40899 0.00853648 0
M  V30 1199 H 115.292 -2.54011 1.59431 0
M  V30 1200 H 112.845 -1.30352 0.862441 0
M  V30 1201 H 113.58 -3.11173 -0.913337 0
M  V30 1202 H 113.365 -3.8587 0.696204 0
M  V30 1203 H 114.855 -4.16886 -0.24414 0
M  V30 1204 N 115.292 -0.849877 -1.32721 0
M  V30 1205 C 116.52 -0.464754 -2.01613 0
M  V30 1206 C 116.935 0.937191 -1.63897 0
M  V30 1207 O 116.292 1.61081 -0.857856 0
M  V30 1208 C 116.343 -0.588638 -3.56675 0
M  V30 1209 O 116.064 -1.93535 -3.93034 0
M  V30 1210 C 117.565 -0.2019 -4.4284 0
M  V30 1211 H 114.785 -0.183215 -0.645502 0
M  V30 1212 H 117.329 -1.1455 -1.69407 0
M  V30 1213 H 115.484 0.0443159 -3.87375 0
M  V30 1214 H 115.898 -1.92871 -4.87751 0
M  V30 1215 H 117.372 -0.339599 -5.50954 0
M  V30 1216 H 117.849 0.857224 -4.30753 0
M  V30 1217 H 118.455 -0.809733 -4.17521 0
M  V30 1218 N 116.77 1.45427 -0.607355 0
M  V30 1219 C 117.68 2.34325 0.113463 0
M  V30 1220 C 118.696 1.51226 0.860617 0
M  V30 1221 O 119.872 1.84029 0.818255 0
M  V30 1222 C 116.937 3.28839 1.09844 0
M  V30 1223 C 115.998 4.27844 0.353271 0
M  V30 1224 C 115.231 5.17842 1.29133 0
M  V30 1225 O 115.454 5.11264 2.52913 0
M  V30 1226 O 114.388 5.96713 0.788523 0
M  V30 1227 H 118.214 2.97364 -0.617094 0
M  V30 1228 H 115.799 1.44807 -0.367619 0
M  V30 1229 H 117.681 3.8708 1.66575 0
M  V30 1230 H 116.356 2.68365 1.81003 0
M  V30 1231 H 115.263 3.7322 -0.256494 0
M  V30 1232 H 116.596 4.91173 -0.317822 0
M  V30 1233 N 118.248 0.346503 1.53744 0
M  V30 1234 C 119.178 -0.501193 2.28058 0
M  V30 1235 C 120.159 -1.10014 1.29734 0
M  V30 1236 O 121.344 -1.12097 1.58581 0
M  V30 1237 C 118.474 -1.65078 3.05559 0
M  V30 1238 C 117.428 -1.18003 4.11411 0
M  V30 1239 C 116.754 -2.41837 4.76884 0
M  V30 1240 C 118.054 -0.278394 5.21558 0
M  V30 1241 H 119.748 0.11875 2.99164 0
M  V30 1242 H 117.294 0.0585531 1.43881 0
M  V30 1243 H 119.247 -2.25028 3.56287 0
M  V30 1244 H 117.971 -2.29767 2.32109 0
M  V30 1245 H 116.63 -0.603331 3.61601 0
M  V30 1246 H 116.278 -3.0494 4.00026 0
M  V30 1247 H 115.978 -2.1102 5.48402 0
M  V30 1248 H 117.502 -3.02508 5.30397 0
M  V30 1249 H 118.916 -0.784823 5.67903 0
M  V30 1250 H 117.313 -0.0619707 6.00068 0
M  V30 1251 H 118.383 0.684677 4.80042 0
M  V30 1252 N 119.726 -1.57421 0.075193 0
M  V30 1253 C 121.003 -1.85029 -0.634329 0
M  V30 1254 C 121.383 -0.968305 -1.87582 0
M  V30 1255 O 120.731 -0.0354749 -2.28472 0
M  V30 1256 C 120.941 -3.35286 -0.968742 0
M  V30 1257 C 122.289 -4.02875 -1.34077 0
M  V30 1258 O 123.313 -3.40051 -1.06037 0
M  V30 1259 O 122.172 -5.13691 -1.86506 0
M  V30 1260 H 119.266 -0.7645 -0.315387 0
M  V30 1261 H 121.812 -1.69366 0.106382 0
M  V30 1262 H 120.584 -3.91203 -0.0871376 0
M  V30 1263 H 120.207 -3.56223 -1.7661 0
M  V30 1264 N 121.204 0.198386 -1.56346 0
M  V30 1265 C 122.615 0.763358 -1.70381 0
M  V30 1266 C 122.966 1.83995 -0.681203 0
M  V30 1267 O 122.091 2.15785 0.16305 0
M  V30 1268 C 122.686 1.39143 -3.08909 0
M  V30 1269 C 121.245 1.90352 -3.2472 0
M  V30 1270 C 120.392 0.772233 -2.6633 0
M  V30 1271 H 123.343 -0.0266377 -1.58678 0
M  V30 1272 H 123.364 2.26076 -3.06055 0
M  V30 1273 H 122.876 0.607638 -3.83314 0
M  V30 1274 H 120.977 2.71461 -2.55225 0
M  V30 1275 H 121.09 2.06757 -4.3219 0
M  V30 1276 H 119.454 1.18566 -2.2542 0
M  V30 1277 H 120.237 0.00073556 -3.433 0
M  V30 1278 N 122.682 1.50554 0.465978 0
M  V30 1279 C 123.922 1.63439 1.22747 0
M  V30 1280 C 124.286 0.329822 1.89146 0
M  V30 1281 O 125.487 0.334161 2.66715 0
M  V30 1282 C 123.758 2.78542 2.2394 0
M  V30 1283 S 125.317 3.11591 3.0896 0
M  V30 1284 H 122.135 0.576113 0.416672 0
M  V30 1285 H 124.737 1.88357 0.523641 0
M  V30 1286 H 123.441 3.71805 1.7375 0
M  V30 1287 H 122.972 2.55726 2.98944 0
M  V30 1288 H 124.987 2.55811 4.25176 0
M  V30 1289 N 124.16 -0.719506 1.40217 0
M  V30 1290 C 125.571 -1.29848 1.34151 0
M  V30 1291 C 125.922 -1.96196 0.0131349 0
M  V30 1292 O 125.047 -1.973 -0.88892 0
M  V30 1293 C 125.642 -2.36118 2.42968 0
M  V30 1294 C 124.201 -2.8965 2.40374 0
M  V30 1295 C 123.348 -1.63393 2.24049 0
M  V30 1296 H 126.299 -0.51591 1.5008 0
M  V30 1297 H 126.32 -3.16871 2.10649 0
M  V30 1298 H 125.832 -1.878 3.39636 0
M  V30 1299 H 123.933 -3.42208 1.47392 0
M  V30 1300 H 124.046 -3.4171 3.35814 0
M  V30 1301 H 122.41 -1.88312 1.71495 0
M  V30 1302 H 123.193 -1.17104 3.2271 0
M  V30 1303 N 125.638 -1.25649 -0.95132 0
M  V30 1304 C 126.568 -1.08808 -2.06599 0
M  V30 1305 C 127.549 0.00382547 -1.701 0
M  V30 1306 O 128.734 -0.166325 -1.93486 0
M  V30 1307 C 125.864 -0.709542 -3.39975 0
M  V30 1308 C 124.818 -1.75206 -3.90496 0
M  V30 1309 C 124.144 -1.22811 -5.20405 0
M  V30 1310 C 125.444 -3.15153 -4.16504 0
M  V30 1311 H 127.138 -2.02048 -2.20946 0
M  V30 1312 H 124.684 -0.972835 -1.06169 0
M  V30 1313 H 126.637 -0.578649 -4.17408 0
M  V30 1314 H 125.361 0.258556 -3.25575 0
M  V30 1315 H 124.02 -1.87145 -3.15234 0
M  V30 1316 H 123.668 -0.250145 -5.02378 0
M  V30 1317 H 123.368 -1.92492 -5.55176 0
M  V30 1318 H 124.892 -1.10968 -6.00432 0
M  V30 1319 H 126.306 -3.06349 -4.84586 0
M  V30 1320 H 124.703 -3.82333 -4.62538 0
M  V30 1321 H 125.773 -3.61966 -3.22658 0
M  V30 1322 N 127.117 1.15442 -1.07289 0
M  V30 1323 C 128.342 1.90638 -0.816828 0
M  V30 1324 C 128.767 1.77445 0.624083 0
M  V30 1325 O 128.125 1.10671 1.43602 0
M  V30 1326 C 128.173 3.39008 -1.22906 0
M  V30 1327 O 127.277 4.10701 -0.373975 0
M  V30 1328 H 126.618 0.593555 -0.297638 0
M  V30 1329 H 129.148 1.46198 -1.43134 0
M  V30 1330 H 129.158 3.89801 -1.20497 0
M  V30 1331 H 127.833 3.47929 -2.27856 0
M  V30 1332 H 126.41 3.70046 -0.460499 0
M  V30 1333 N 128.595 0.856903 1.32268 0
M  V30 1334 C 130.006 0.515711 1.79436 0
M  V30 1335 C 130.357 -0.966586 1.70738 0
M  V30 1336 O 129.482 -1.75409 1.26731 0
M  V30 1337 C 130.077 0.929335 3.25805 0
M  V30 1338 C 128.636 0.640006 3.70919 0
M  V30 1339 C 127.783 1.12784 2.53328 0
M  V30 1340 H 130.734 1.04389 1.19535 0
M  V30 1341 H 130.755 0.246633 3.797 0
M  V30 1342 H 130.267 2.00821 3.32103 0
M  V30 1343 H 128.368 -0.428051 3.70133 0
M  V30 1344 H 128.481 1.20788 4.63624 0
M  V30 1345 H 126.845 0.548033 2.48734 0
M  V30 1346 H 127.628 2.21387 2.62379 0
M  V30 1347 N 130.073 -1.45103 0.615059 0
M  V30 1348 C 130.983 -2.34382 -0.101034 0
M  V30 1349 C 131.999 -1.51681 -0.852585 0
M  V30 1350 O 133.175 -1.8446 -0.808484 0
M  V30 1351 C 130.24 -3.29417 -1.08099 0
M  V30 1352 C 129.301 -4.28025 -0.330577 0
M  V30 1353 C 128.534 -5.1852 -1.26385 0
M  V30 1354 O 128.757 -5.12598 -2.50198 0
M  V30 1355 O 127.691 -5.97122 -0.756866 0
M  V30 1356 H 131.517 -2.97033 0.632855 0
M  V30 1357 H 129.102 -1.4461 0.375293 0
M  V30 1358 H 130.984 -3.87958 -1.6452 0
M  V30 1359 H 129.659 -2.69321 -1.79577 0
M  V30 1360 H 128.566 -3.73078 0.276283 0
M  V30 1361 H 129.899 -4.90997 0.343866 0
M  V30 1362 N 131.551 -0.354651 -1.53558 0
M  V30 1363 C 132.481 0.489091 -2.2832 0
M  V30 1364 C 133.462 1.09324 -1.30316 0
M  V30 1365 O 134.647 1.11255 -1.59173 0
M  V30 1366 C 131.777 1.63456 -3.0643 0
M  V30 1367 C 130.731 1.1582 -4.12031 0
M  V30 1368 C 130.057 2.39305 -4.7816 0
M  V30 1369 C 131.357 0.250731 -5.21698 0
M  V30 1370 H 133.051 -0.134614 -2.99097 0
M  V30 1371 H 130.597 -0.0661826 -1.43848 0
M  V30 1372 H 132.55 2.23136 -3.57475 0
M  V30 1373 H 131.274 2.28533 -2.33325 0
M  V30 1374 H 129.933 0.584146 -3.61916 0
M  V30 1375 H 129.581 3.02814 -4.01637 0
M  V30 1376 H 129.281 2.08109 -5.49513 0
M  V30 1377 H 130.805 2.99691 -5.31994 0
M  V30 1378 H 132.219 0.754695 -5.68311 0
M  V30 1379 H 130.616 0.0301468 -6.00092 0
M  V30 1380 H 131.686 -0.710125 -4.79672 0
M  V30 1381 N 133.029 1.57378 -0.0835403 0
M  V30 1382 C 133.959 2.1641 0.87686 0
M  V30 1383 C 134.94 1.09429 1.30228 0
M  V30 1384 O 136.125 1.37516 1.37124 0
M  V30 1385 C 133.255 2.73517 2.14022 0
M  V30 1386 C 132.209 3.85769 1.85381 0
M  V30 1387 C 131.535 4.29529 3.18448 0
M  V30 1388 C 132.835 5.09486 1.14984 0
M  V30 1389 H 134.529 2.96914 0.385059 0
M  V30 1390 H 132.075 1.42823 0.18377 0
M  V30 1391 H 134.028 3.13463 2.81636 0
M  V30 1392 H 132.752 1.90252 2.65465 0
M  V30 1393 H 131.411 3.46345 1.20169 0
M  V30 1394 H 131.059 3.43169 3.67755 0
M  V30 1395 H 130.759 5.05204 3.00071 0
M  V30 1396 H 132.283 4.72099 3.8724 0
M  V30 1397 H 133.697 5.46674 1.72687 0
M  V30 1398 H 132.094 5.90515 1.06826 0
M  V30 1399 H 133.164 4.84724 0.130749 0
M  V30 1400 N 134.507 -0.190092 1.56449 0
M  V30 1401 C 135.755 -0.907908 1.80559 0
M  V30 1402 C 136.076 -1.83583 0.657438 0
M  V30 1403 O 135.346 -1.93203 -0.323924 0
M  V30 1404 H 133.926 -0.338247 0.666032 0
M  V30 1405 H 136.588 -0.194403 1.93928 0
M  V30 1406 H 135.684 -1.49604 2.73907 0
M  V30 1407 N 135.985 -1.50799 -0.457987 0
M  V30 1408 C 136.915 -1.73553 -1.5621 0
M  V30 1409 C 137.896 -0.584774 -1.59732 0
M  V30 1410 O 139.081 -0.825314 -1.7579 0
M  V30 1411 C 136.211 -1.84169 -2.94447 0
M  V30 1412 C 135.165 -2.99461 -3.0579 0
M  V30 1413 C 134.491 -2.95235 -4.45803 0
M  V30 1414 C 135.791 -4.39766 -2.81786 0
M  V30 1415 H 137.485 -2.66 -1.37421 0
M  V30 1416 H 135.031 -1.28002 -0.659662 0
M  V30 1417 H 136.984 -1.98672 -3.71628 0
M  V30 1418 H 135.708 -0.883545 -3.14422 0
M  V30 1419 H 134.367 -2.8463 -2.31044 0
M  V30 1420 H 134.015 -1.97239 -4.62715 0
M  V30 1421 H 133.715 -3.72642 -4.54326 0
M  V30 1422 H 135.239 -3.11803 -5.24987 0
M  V30 1423 H 136.653 -4.55054 -3.4871 0
M  V30 1424 H 135.05 -5.18722 -3.0174 0
M  V30 1425 H 136.12 -4.51229 -1.7754 0
M  V30 1426 N 137.463 0.71206 -1.40597 0
M  V30 1427 C 138.691 1.50111 -1.42388 0
M  V30 1428 C 139.106 1.88784 -0.0245395 0
M  V30 1429 O 138.463 1.55681 0.952351 0
M  V30 1430 C 138.514 2.7742 -2.31776 0
M  V30 1431 O 138.235 2.40382 -3.66262 0
M  V30 1432 C 139.736 3.7129 -2.42196 0
M  V30 1433 H 136.956 0.46314 -0.485533 0
M  V30 1434 H 139.5 0.878068 -1.8469 0
M  V30 1435 H 137.655 3.36001 -1.92827 0
M  V30 1436 H 138.069 3.22324 -4.13772 0
M  V30 1437 H 139.543 4.57448 -3.08943 0
M  V30 1438 H 140.02 4.14641 -1.44809 0
M  V30 1439 H 140.626 3.18619 -2.81712 0
M  V30 1440 N 138.941 1.26152 0.944643 0
M  V30 1441 C 139.888 1.07408 2.04285 0
M  V30 1442 C 140.858 -0.0198413 1.66088 0
M  V30 1443 O 142.043 0.139264 1.90291 0
M  V30 1444 C 139.183 0.70945 3.37729 0
M  V30 1445 C 138.296 1.87926 3.88983 0
M  V30 1446 C 137.431 1.45807 5.10797 0
M  V30 1447 C 136.47 2.5964 5.54305 0
M  V30 1448 N 135.607 2.18226 6.67324 0
M  V30 1449 H 140.447 2.01389 2.1965 0
M  V30 1450 H 137.984 1.00275 1.07626 0
M  V30 1451 H 139.942 0.478948 4.14442 0
M  V30 1452 H 138.572 -0.193389 3.2222 0
M  V30 1453 H 137.624 2.22279 3.08701 0
M  V30 1454 H 138.936 2.73377 4.17213 0
M  V30 1455 H 138.09 1.18781 5.94959 0
M  V30 1456 H 136.829 0.574414 4.84305 0
M  V30 1457 H 135.834 2.87399 4.68702 0
M  V30 1458 H 137.059 3.48599 5.828 0
M  V30 1459 H 135.005 1.3229 6.42523 0
M  V30 1460 H 134.922 2.97221 6.95123 0
M  V30 1461 H 136.19 1.94403 7.54869 0
M  V30 1462 N 140.419 -1.14872 1.07899 0
M  V30 1463 C 141.329 -2.2341 0.715915 0
M  V30 1464 C 142.345 -1.71808 -0.275306 0
M  V30 1465 O 143.521 -2.01039 -0.120545 0
M  V30 1466 C 140.586 -3.46474 0.125168 0
M  V30 1467 C 139.647 -4.13039 1.17034 0
M  V30 1468 C 138.88 -5.30229 0.607688 0
M  V30 1469 O 139.103 -5.675 -0.574497 0
M  V30 1470 O 138.037 -5.86444 1.35526 0
M  V30 1471 H 141.863 -2.56808 1.62121 0
M  V30 1472 H 139.448 -1.22702 0.852322 0
M  V30 1473 H 141.33 -4.20917 -0.201729 0
M  V30 1474 H 140.005 -3.14811 -0.753364 0
M  V30 1475 H 138.912 -3.40493 1.54968 0
M  V30 1476 H 140.245 -4.48796 2.02097 0
M  V30 1477 N 141.898 -0.863906 -1.31812 0
M  V30 1478 C 143.144 -0.472535 -1.97218 0
M  V30 1479 C 143.477 0.971394 -1.68159 0
M  V30 1480 O 142.752 1.68309 -0.974798 0
M  V30 1481 C 143.035 -0.723054 -3.52766 0
M  V30 1482 C 142.888 -2.21608 -3.91421 0
M  V30 1483 C 144.207 -0.185522 -4.39709 0
M  V30 1484 H 141.326 -0.173158 -0.71637 0
M  V30 1485 H 143.968 -1.08403 -1.56041 0
M  V30 1486 H 142.118 -0.202577 -3.87971 0
M  V30 1487 H 143.79 -2.80334 -3.66347 0
M  V30 1488 H 142.033 -2.691 -3.40246 0
M  V30 1489 H 142.704 -2.34203 -4.99853 0
M  V30 1490 H 145.18 -0.630726 -4.11292 0
M  V30 1491 H 144.056 -0.390306 -5.47511 0
M  V30 1492 H 144.317 0.912229 -4.32586 0
M  V30 1493 N 143.376 1.44774 -0.622745 0
M  V30 1494 C 144.339 2.29069 0.0774015 0
M  V30 1495 C 145.339 1.4059 0.780461 0
M  V30 1496 O 146.529 1.62551 0.626322 0
M  V30 1497 C 143.661 3.21974 1.12006 0
M  V30 1498 H 144.854 2.92459 -0.663901 0
M  V30 1499 H 142.407 1.51548 -0.382486 0
M  V30 1500 H 143.142 2.63417 1.89162 0
M  V30 1501 H 142.927 3.87168 0.619951 0
M  V30 1502 H 144.417 3.85318 1.60995 0
M  V30 1503 N 144.854 0.36279 1.53368 0
M  V30 1504 C 146.27 0.0116182 1.59596 0
M  V30 1505 C 146.47 -1.47012 1.37803 0
M  V30 1506 O 145.526 -2.23136 1.18181 0
M  V30 1507 C 146.839 0.465052 2.97082 0
M  V30 1508 C 148.387 0.419033 3.10182 0
M  V30 1509 C 148.862 0.848235 4.50077 0
M  V30 1510 N 150.353 0.803183 4.56183 0
M  V30 1511 C 151.088 1.107 5.62613 0
M  V30 1512 N 150.584 1.47996 6.76808 0
M  V30 1513 N 152.377 1.02998 5.52583 0
M  V30 1514 H 144.528 1.32775 1.65785 0
M  V30 1515 H 146.791 0.542518 0.777417 0
M  V30 1516 H 146.497 1.49892 3.18159 0
M  V30 1517 H 146.371 -0.149786 3.76902 0
M  V30 1518 H 148.758 -0.605696 2.88817 0
M  V30 1519 H 148.839 1.06933 2.32377 0
M  V30 1520 H 148.483 1.87107 4.7218 0
M  V30 1521 H 148.413 0.175218 5.26308 0
M  V30 1522 H 150.904 0.52838 3.74188 0
M  V30 1523 H 151.217 1.69613 7.53957 0
M  V30 1524 H 149.562 1.51859 6.78206 0
M  V30 1525 H 152.753 0.737817 4.62249 0
M  V30 1526 H 152.926 1.2701 6.35431 0
M  V30 1527 N 146.332 -1.57332 0.0918853 0
M  V30 1528 C 147.282 -2.10385 -0.87876 0
M  V30 1529 C 148.266 -1.01814 -1.24591 0
M  V30 1530 O 149.458 -1.28093 -1.22152 0
M  V30 1531 C 146.587 -2.68517 -2.13901 0
M  V30 1532 C 145.673 -3.84126 -1.79744 0
M  V30 1533 N 146.064 -4.92288 -1.1613 0
M  V30 1534 C 144.362 -3.93801 -2.09373 0
M  V30 1535 C 145.063 -5.7295 -1.00513 0
M  V30 1536 N 144.039 -5.21876 -1.5214 0
M  V30 1537 H 147.841 -2.91395 -0.38293 0
M  V30 1538 H 145.355 -1.62017 -0.111423 0
M  V30 1539 H 147.352 -3.04852 -2.84378 0
M  V30 1540 H 146.012 -1.88961 -2.64053 0
M  V30 1541 H 147.023 -5.1123 -0.828504 0
M  V30 1542 H 143.7 -3.25249 -2.61762 0
M  V30 1543 H 145.09 -6.69978 -0.507902 0
M  V30 1544 N 147.81 0.181792 -1.56548 0
M  V30 1545 C 149.087 0.926765 -1.72251 0
M  V30 1546 C 149.467 2.00831 -0.650386 0
M  V30 1547 O 148.815 2.26008 0.336521 0
M  V30 1548 C 149.025 1.50106 -3.1507 0
M  V30 1549 C 150.373 1.97805 -3.75711 0
M  V30 1550 O 151.397 1.59922 -3.18282 0
M  V30 1551 O 150.256 2.67555 -4.76525 0
M  V30 1552 H 147.35 0.435506 -0.703039 0
M  V30 1553 H 149.896 0.170443 -1.68842 0
M  V30 1554 H 148.668 0.72212 -3.84579 0
M  V30 1555 H 148.291 2.32186 -3.22763 0
M  V30 1556 N 149.288 1.51039 0.449983 0
M  V30 1557 C 150.534 1.63322 1.20223 0
M  V30 1558 C 150.867 0.34241 1.91158 0
M  V30 1559 O 150.142 -0.657344 1.83055 0
M  V30 1560 C 150.425 2.82801 2.22925 0
M  V30 1561 C 150.278 4.21823 1.56157 0
M  V30 1562 C 151.597 2.97807 3.24035 0
M  V30 1563 H 148.716 0.594407 0.435718 0
M  V30 1564 H 151.358 1.83489 0.493136 0
M  V30 1565 H 149.508 2.65738 2.834 0
M  V30 1566 H 151.18 4.50526 0.991162 0
M  V30 1567 H 149.423 4.25105 0.864172 0
M  V30 1568 H 150.094 5.01391 2.30891 0
M  V30 1569 H 152.57 3.13497 2.73603 0
M  V30 1570 H 151.446 3.82992 3.93202 0
M  V30 1571 H 151.707 2.09328 3.89402 0
M  V30 1572 N 150.766 -0.704594 1.40972 0
M  V30 1573 C 152.182 -1.01406 1.23244 0
M  V30 1574 C 152.382 -2.01169 0.115399 0
M  V30 1575 O 151.438 -2.47021 -0.523147 0
M  V30 1576 C 152.751 -1.54728 2.57836 0
M  V30 1577 C 154.299 -1.66658 2.64942 0
M  V30 1578 C 154.774 -2.23383 3.9983 0
M  V30 1579 N 156.265 -2.30756 4.01629 0
M  V30 1580 C 157 -2.75655 5.02794 0
M  V30 1581 N 156.496 -3.20225 6.14352 0
M  V30 1582 N 158.289 -2.75138 4.90159 0
M  V30 1583 H 150.44 -0.0435285 2.12355 0
M  V30 1584 H 152.703 -0.0818951 0.944456 0
M  V30 1585 H 152.409 -0.888832 3.40283 0
M  V30 1586 H 152.283 -2.53084 2.79693 0
M  V30 1587 H 154.67 -2.31617 1.8286 0
M  V30 1588 H 154.751 -0.668717 2.46904 0
M  V30 1589 H 154.395 -1.59043 4.82357 0
M  V30 1590 H 154.325 -3.23904 4.15203 0
M  V30 1591 H 156.816 -1.99291 3.21079 0
M  V30 1592 H 157.129 -3.53084 6.87424 0
M  V30 1593 H 155.474 -3.18156 6.17901 0
M  V30 1594 H 158.665 -2.39661 4.02095 0
M  V30 1595 H 158.838 -3.09812 5.6914 0
M  V30 1596 N 152.244 -1.26651 -0.937939 0
M  V30 1597 C 153.154 -1.10276 -2.07066 0
M  V30 1598 C 154.17 -0.0354197 -1.73964 0
M  V30 1599 O 155.346 -0.239816 -1.99967 0
M  V30 1600 C 152.411 -0.740887 -3.38691 0
M  V30 1601 C 151.472 -1.88799 -3.85556 0
M  V30 1602 C 150.705 -1.54329 -5.10899 0
M  V30 1603 O 150.928 -0.446494 -5.6865 0
M  V30 1604 O 149.862 -2.37911 -5.52885 0
M  V30 1605 H 153.688 -2.05309 -2.23789 0
M  V30 1606 H 151.273 -1.05743 -1.0554 0
M  V30 1607 H 153.155 -0.55195 -4.1777 0
M  V30 1608 H 151.83 0.180022 -3.23199 0
M  V30 1609 H 150.737 -2.13191 -3.07409 0
M  V30 1610 H 152.07 -2.78874 -4.05574 0
M  V30 1611 N 153.722 1.14298 -1.08507 0
M  V30 1612 C 154.97 1.84993 -0.813763 0
M  V30 1613 C 155.291 1.83405 0.662393 0
M  V30 1614 O 154.561 1.28319 1.48024 0
M  V30 1615 H 153.141 0.684966 -0.298045 0
M  V30 1616 H 155.803 1.385 -1.37126 0
M  V30 1617 H 154.899 2.89788 -1.15884 0
M  V30 1618 N 155.201 0.870884 1.31352 0
M  V30 1619 C 156.148 0.325425 2.28494 0
M  V30 1620 C 157.118 -0.576615 1.5577 0
M  V30 1621 O 158.303 -0.508059 1.83911 0
M  V30 1622 C 155.443 -0.466283 3.41935 0
M  V30 1623 C 154.556 0.463378 4.29508 0
M  V30 1624 C 153.691 -0.342544 5.30094 0
M  V30 1625 C 152.73 0.583486 6.09313 0
M  V30 1626 N 151.867 -0.186244 7.01853 0
M  V30 1627 H 156.707 1.15901 2.74538 0
M  V30 1628 H 154.244 0.58294 1.35056 0
M  V30 1629 H 156.202 -0.941085 4.06447 0
M  V30 1630 H 154.832 -1.26456 2.97 0
M  V30 1631 H 153.884 1.05663 3.65431 0
M  V30 1632 H 155.196 1.1734 4.84802 0
M  V30 1633 H 154.35 -0.879816 6.00287 0
M  V30 1634 H 153.089 -1.08585 4.75458 0
M  V30 1635 H 152.094 1.13251 5.3801 0
M  V30 1636 H 153.319 1.32566 6.66035 0
M  V30 1637 H 151.265 -0.912348 6.49625 0
M  V30 1638 H 151.182 0.464422 7.54572 0
M  V30 1639 H 152.45 -0.704716 7.76308 0
M  V30 1640 N 156.679 -1.44442 0.630414 0
M  V30 1641 C 157.589 -2.34476 -0.0761693 0
M  V30 1642 C 158.605 -1.52576 -0.836449 0
M  V30 1643 O 159.781 -1.85307 -0.788874 0
M  V30 1644 C 156.846 -3.30545 -1.04599 0
M  V30 1645 C 155.907 -4.28352 -0.28516 0
M  V30 1646 C 155.14 -5.19831 -1.20878 0
M  V30 1647 O 155.363 -5.15223 -2.44747 0
M  V30 1648 O 154.297 -5.97892 -0.693491 0
M  V30 1649 H 158.123 -2.96345 0.664324 0
M  V30 1650 H 155.708 -1.44203 0.39061 0
M  V30 1651 H 157.59 -3.89681 -1.60396 0
M  V30 1652 H 156.265 -2.7121 -1.76711 0
M  V30 1653 H 155.172 -3.72764 0.315837 0
M  V30 1654 H 156.505 -4.90605 0.395924 0
M  V30 1655 N 158.157 -0.370918 -1.53173 0
M  V30 1656 C 159.387 0.217389 -2.05453 0
M  V30 1657 C 159.795 1.42568 -1.24382 0
M  V30 1658 O 159.138 1.81571 -0.278839 0
M  V30 1659 C 159.2 0.669827 -3.53205 0
M  V30 1660 C 158.864 -0.4225 -4.55043 0
M  V30 1661 C 159.861 -1.27407 -5.04047 0
M  V30 1662 C 157.546 -0.58427 -4.9889 0
M  V30 1663 C 159.54 -2.27271 -5.95505 0
M  V30 1664 C 157.227 -1.58627 -5.90153 0
M  V30 1665 C 158.225 -2.42892 -6.38351 0
M  V30 1666 O 157.913 -3.41382 -7.27814 0
M  V30 1667 H 157.645 0.0408171 -0.674767 0
M  V30 1668 H 160.199 -0.5292 -1.98466 0
M  V30 1669 H 158.429 1.4681 -3.57748 0
M  V30 1670 H 160.118 1.18173 -3.88317 0
M  V30 1671 H 160.884 -1.16031 -4.70916 0
M  V30 1672 H 156.763 0.061851 -4.60959 0
M  V30 1673 H 160.307 -2.93079 -6.33049 0
M  V30 1674 H 156.204 -1.70048 -6.22699 0
M  V30 1675 H 156.972 -3.37173 -7.45826 0
M  V30 1676 N 159.635 1.57281 -0.100228 0
M  V30 1677 C 160.883 1.94153 0.561157 0
M  V30 1678 C 161.204 0.983157 1.68401 0
M  V30 1679 O 160.474 0.0361132 1.95867 0
M  V30 1680 H 159.054 0.716791 0.210283 0
M  V30 1681 H 161.716 1.94202 -0.164765 0
M  V30 1682 H 160.812 2.96709 0.968008 0
M  V30 1683 N 161.113 -0.173488 1.56642 0
M  V30 1684 C 162.359 -0.891784 1.8214 0
M  V30 1685 C 162.692 -1.8199 0.677736 0
M  V30 1686 O 161.967 -1.91842 -0.320446 0
M  V30 1687 C 162.25 -1.68933 3.18015 0
M  V30 1688 C 162.103 -0.784487 4.42906 0
M  V30 1689 C 163.422 -2.65748 3.50808 0
M  V30 1690 H 160.541 -0.322761 0.662567 0
M  V30 1691 H 163.183 -0.158095 1.89341 0
M  V30 1692 H 161.333 -2.31482 3.12007 0
M  V30 1693 H 163.005 -0.172046 4.60979 0
M  V30 1694 H 161.248 -0.0924117 4.33702 0
M  V30 1695 H 161.919 -1.37799 5.34524 0
M  V30 1696 H 164.395 -2.13327 3.57255 0
M  V30 1697 H 163.271 -3.18619 4.4696 0
M  V30 1698 H 163.532 -3.45842 2.75401 0
M  V30 1699 N 162.591 -1.51276 -0.441967 0
M  V30 1700 C 163.837 -1.63958 -1.19355 0
M  V30 1701 C 164.17 -0.352543 -1.90973 0
M  V30 1702 O 163.445 0.647627 -1.83401 0
M  V30 1703 C 163.728 -2.83979 -2.21422 0
M  V30 1704 C 163.581 -4.22646 -1.53918 0
M  V30 1705 C 164.9 -2.99521 -3.22451 0
M  V30 1706 H 162.019 -0.596709 -0.432559 0
M  V30 1707 H 164.661 -1.83748 -0.483398 0
M  V30 1708 H 162.811 -2.67237 -2.81987 0
M  V30 1709 H 164.483 -4.51045 -0.967256 0
M  V30 1710 H 162.726 -4.25558 -0.841615 0
M  V30 1711 H 163.397 -5.02609 -2.28229 0
M  V30 1712 H 165.873 -3.14944 -2.71937 0
M  V30 1713 H 164.749 -3.85072 -3.91166 0
M  V30 1714 H 165.01 -2.11391 -3.88287 0
M  V30 1715 N 164.069 0.697108 -1.41344 0
M  V30 1716 C 164.999 1.82353 -1.45841 0
M  V30 1717 C 165.98 1.67115 -0.317247 0
M  V30 1718 O 167.165 1.86871 -0.528474 0
M  V30 1719 C 164.295 3.20476 -1.33838 0
M  V30 1720 C 163.249 3.50415 -2.4575 0
M  V30 1721 C 162.575 4.87878 -2.18813 0
M  V30 1722 C 163.875 3.49546 -3.88091 0
M  V30 1723 H 165.569 1.78846 -2.40113 0
M  V30 1724 H 163.115 0.859028 -1.15571 0
M  V30 1725 H 165.068 3.98988 -1.35596 0
M  V30 1726 H 163.792 3.24604 -0.360498 0
M  V30 1727 H 162.451 2.74253 -2.43271 0
M  V30 1728 H 162.099 4.8863 -1.19371 0
M  V30 1729 H 161.799 5.08875 -2.93803 0
M  V30 1730 H 163.323 5.68702 -2.22284 0
M  V30 1731 H 164.737 4.18066 -3.92293 0
M  V30 1732 H 163.134 3.82075 -4.62751 0
M  V30 1733 H 164.204 2.48552 -4.16353 0
M  V30 1734 N 165.547 1.27147 0.931209 0
M  V30 1735 C 166.51 1.09615 2.01289 0
M  V30 1736 C 167.51 0.0412581 1.60747 0
M  V30 1737 O 168.7 0.285545 1.71844 0
M  V30 1738 C 165.832 0.669447 3.34262 0
M  V30 1739 H 167.025 2.05662 2.18273 0
M  V30 1740 H 164.578 1.09885 1.11153 0
M  V30 1741 H 165.313 -0.292572 3.22978 0
M  V30 1742 H 165.098 1.43127 3.65044 0
M  V30 1743 H 166.588 0.568921 4.13706 0
M  V30 1744 N 167.025 -1.13721 1.09112 0
M  V30 1745 C 168.436 -1.6648 0.845068 0
M  V30 1746 C 168.787 -1.85911 -0.62701 0
M  V30 1747 O 167.912 -1.57556 -1.48341 0
M  V30 1748 C 168.507 -3.02413 1.52748 0
M  V30 1749 C 167.066 -3.52176 1.32849 0
M  V30 1750 C 166.213 -2.27492 1.58564 0
M  V30 1751 H 169.164 -0.976872 1.25072 0
M  V30 1752 H 169.185 -3.68223 0.958752 0
M  V30 1753 H 168.697 -2.88238 2.59885 0
M  V30 1754 H 166.798 -3.7156 0.278137 0
M  V30 1755 H 166.911 -4.32499 2.0611 0
M  V30 1756 H 165.275 -2.33923 1.00758 0
M  V30 1757 H 166.058 -2.15886 2.66924 0
M  V30 1758 N 168.503 -0.877838 -1.30888 0
M  V30 1759 C 169.78 -0.413052 -1.91189 0
M  V30 1760 C 170.16 1.1056 -1.79832 0
M  V30 1761 O 169.508 1.93771 -1.21099 0
M  V30 1762 C 169.718 -0.903191 -3.3711 0
M  V30 1763 C 171.066 -0.93395 -4.14201 0
M  V30 1764 O 172.09 -0.849373 -3.45925 0
M  V30 1765 O 170.949 -1.05772 -5.36167 0
M  V30 1766 H 168.043 -0.125035 -0.817493 0
M  V30 1767 H 170.589 -0.966269 -1.39504 0
M  V30 1768 H 169.361 -1.94692 -3.39427 0
M  V30 1769 H 168.984 -0.328732 -3.96239 0
M  V30 1770 N 169.982 1.44106 -0.638065 0
M  V30 1771 C 171.23 2.01579 -0.145043 0
M  V30 1772 C 171.551 1.50496 1.24 0
M  V30 1773 O 170.821 0.711374 1.82527 0
M  V30 1774 H 169.401 0.745282 -0.05063 0
M  V30 1775 H 172.063 1.76516 -0.826327 0
M  V30 1776 H 171.159 3.11877 -0.118039 0
M  V30 1777 N 171.46 0.379036 1.52974 0
M  V30 1778 C 172.685 -0.209353 2.06341 0
M  V30 1779 C 173.11 -1.40583 1.24972 0
M  V30 1780 O 172.468 -1.79246 0.272155 0
M  V30 1781 C 172.516 -0.567786 3.56102 0
M  V30 1782 O 171.62 -1.66318 3.77375 0
M  V30 1783 H 170.961 -0.0272919 0.663439 0
M  V30 1784 H 173.491 0.543536 1.97248 0
M  V30 1785 H 173.501 -0.835003 3.99364 0
M  V30 1786 H 172.176 0.307013 4.14765 0
M  V30 1787 H 170.753 -1.39048 3.46006 0
M  V30 1788 N 172.938 -1.57226 0.108567 0
M  V30 1789 C 174.166 -1.99179 -0.559954 0
M  V30 1790 C 174.581 -0.988022 -1.60884 0
M  V30 1791 O 173.938 0.0205512 -1.82488 0
M  V30 1792 C 173.989 -3.41159 -1.19552 0
M  V30 1793 O 173.71 -4.37694 -0.188577 0
M  V30 1794 C 175.211 -3.98188 -1.94837 0
M  V30 1795 H 172.431 -0.654228 -0.149088 0
M  V30 1796 H 174.975 -2.03598 0.19183 0
M  V30 1797 H 173.13 -3.37711 -1.89815 0
M  V30 1798 H 173.544 -5.20469 -0.649014 0
M  V30 1799 H 175.018 -4.99644 -2.34648 0
M  V30 1800 H 175.495 -3.3675 -2.81951 0
M  V30 1801 H 176.101 -4.0515 -1.2936 0
M  V30 1802 N 174.416 0.165178 -1.56732 0
M  V30 1803 C 175.662 0.882112 -1.82611 0
M  V30 1804 C 175.995 1.81628 -0.687378 0
M  V30 1805 O 175.27 1.92009 0.310267 0
M  V30 1806 C 175.553 1.67245 -3.18906 0
M  V30 1807 C 175.406 0.760987 -4.43316 0
M  V30 1808 C 176.725 2.63884 -3.52212 0
M  V30 1809 H 173.844 0.319242 -0.664269 0
M  V30 1810 H 176.486 0.148052 -1.89422 0
M  V30 1811 H 174.636 2.29824 -3.1323 0
M  V30 1812 H 176.308 0.147596 -4.61064 0
M  V30 1813 H 174.551 0.0694102 -4.33744 0
M  V30 1814 H 175.222 1.34962 -5.35247 0
M  V30 1815 H 177.698 2.11429 -3.58381 0
M  V30 1816 H 176.574 3.16245 -4.48643 0
M  V30 1817 H 176.835 3.44377 -2.77231 0
M  V30 1818 N 175.894 1.51508 0.433938 0
M  V30 1819 C 176.857 1.72473 1.50949 0
M  V30 1820 C 177.857 0.594725 1.49398 0
M  V30 1821 O 179.047 0.862315 1.5136 0
M  V30 1822 C 176.179 1.78431 2.90474 0
M  V30 1823 H 177.372 2.68467 1.33662 0
M  V30 1824 H 174.925 1.41549 0.662836 0
M  V30 1825 H 175.66 0.842645 3.13161 0
M  V30 1826 H 175.445 2.60558 2.93005 0
M  V30 1827 H 176.935 1.96479 3.68491 0
M  V30 1828 N 177.372 -0.689602 1.41712 0
M  V30 1829 C 178.618 -1.45181 1.41599 0
M  V30 1830 C 178.951 -1.94181 0.0270081 0
M  V30 1831 O 178.226 -1.6993 -0.946265 0
M  V30 1832 C 178.509 -2.65945 2.42787 0
M  V30 1833 C 178.362 -2.22672 3.90816 0
M  V30 1834 C 179.681 -3.68149 2.41151 0
M  V30 1835 H 176.8 -0.526576 0.515642 0
M  V30 1836 H 179.442 -0.784947 1.73028 0
M  V30 1837 H 177.592 -3.2284 2.16116 0
M  V30 1838 H 179.264 -1.71058 4.28412 0
M  V30 1839 H 177.507 -1.54394 4.05395 0
M  V30 1840 H 178.178 -3.0935 4.57172 0
M  V30 1841 H 180.654 -3.2094 2.64834 0
M  V30 1842 H 179.53 -4.50248 3.13955 0
M  V30 1843 H 179.791 -4.18259 1.43221 0
M  V30 1844 N 178.85 -1.27639 -0.924453 0
M  V30 1845 C 179.76 -1.12466 -2.05885 0
M  V30 1846 C 180.776 -0.053869 -1.73917 0
M  V30 1847 O 181.952 -0.261012 -1.99702 0
M  V30 1848 C 179.017 -0.776768 -3.37886 0
M  V30 1849 C 178.078 -1.92878 -3.83532 0
M  V30 1850 C 177.311 -1.59739 -5.09234 0
M  V30 1851 O 177.534 -0.506782 -5.68144 0
M  V30 1852 O 176.468 -2.43761 -5.50331 0
M  V30 1853 H 180.294 -2.07671 -2.21599 0
M  V30 1854 H 177.879 -1.06857 -1.04413 0
M  V30 1855 H 179.761 -0.596229 -4.17161 0
M  V30 1856 H 178.436 0.145732 -3.23372 0
M  V30 1857 H 177.343 -2.1644 -3.0513 0
M  V30 1858 H 178.676 -2.8316 -4.02593 0
M  V30 1859 N 180.328 1.1314 -1.09713 0
M  V30 1860 C 181.739 1.66029 -0.853885 0
M  V30 1861 C 182.09 1.86241 0.617142 0
M  V30 1862 O 181.215 1.5834 1.47503 0
M  V30 1863 C 181.81 3.01599 -1.5435 0
M  V30 1864 C 180.369 3.51467 -1.34714 0
M  V30 1865 C 179.516 2.26648 -1.59769 0
M  V30 1866 H 182.467 0.970226 -1.25588 0
M  V30 1867 H 182.488 3.67709 -0.978267 0
M  V30 1868 H 182 2.86856 -2.6141 0
M  V30 1869 H 180.101 3.71408 -0.297838 0
M  V30 1870 H 180.214 4.314 -2.08401 0
M  V30 1871 H 178.578 2.33385 -1.01998 0
M  V30 1872 H 179.361 2.14467 -2.68065 0
M  V30 1873 N 181.806 0.884767 1.30421 0
M  V30 1874 C 182.736 0.367574 2.30589 0
M  V30 1875 C 183.717 -0.549464 1.60981 0
M  V30 1876 O 184.902 -0.46336 1.88591 0
M  V30 1877 C 182.032 -0.418944 3.44764 0
M  V30 1878 C 180.986 0.406316 4.26067 0
M  V30 1879 C 180.312 -0.506793 5.32293 0
M  V30 1880 C 181.612 1.64832 4.95608 0
M  V30 1881 H 183.306 1.20462 2.74097 0
M  V30 1882 H 180.852 0.580695 1.31772 0
M  V30 1883 H 182.805 -0.791395 4.13902 0
M  V30 1884 H 181.529 -1.28964 3.0006 0
M  V30 1885 H 180.188 0.760903 3.58617 0
M  V30 1886 H 179.836 -1.37519 4.83836 0
M  V30 1887 H 179.536 0.0415828 5.87585 0
M  V30 1888 H 181.06 -0.875764 6.04287 0
M  V30 1889 H 182.474 1.34646 5.57264 0
M  V30 1890 H 180.871 2.13688 5.60765 0
M  V30 1891 H 181.941 2.39284 4.21748 0
M  V30 1892 N 183.284 -1.43765 0.645699 0
M  V30 1893 C 184.214 -2.33471 -0.0370477 0
M  V30 1894 C 185.195 -1.49042 -0.819779 0
M  V30 1895 O 186.38 -1.77726 -0.782758 0
M  V30 1896 C 183.51 -3.32311 -1.0093 0
M  V30 1897 C 182.464 -4.2667 -0.337201 0
M  V30 1898 C 181.79 -5.1549 -1.42037 0
M  V30 1899 C 183.09 -5.16657 0.765706 0
M  V30 1900 H 184.784 -2.90809 0.712069 0
M  V30 1901 H 182.33 -1.39834 0.343876 0
M  V30 1902 H 184.283 -3.9396 -1.49578 0
M  V30 1903 H 183.007 -2.73213 -1.78948 0
M  V30 1904 H 181.666 -3.66374 0.128771 0
M  V30 1905 H 181.314 -4.52735 -2.1918 0
M  V30 1906 H 181.014 -5.79438 -0.975966 0
M  V30 1907 H 182.538 -5.80012 -1.90838 0
M  V30 1908 H 183.952 -5.72158 0.361702 0
M  V30 1909 H 182.349 -5.89286 1.13413 0
M  V30 1910 H 183.419 -4.56796 1.62683 0
M  V30 1911 N 184.763 -0.387143 -1.52771 0
M  V30 1912 C 185.726 0.436939 -2.24997 0
M  V30 1913 C 186.726 0.991991 -1.26555 0
M  V30 1914 O 187.916 0.874335 -1.50669 0
M  V30 1915 C 185.048 1.61281 -3.00335 0
M  V30 1916 H 186.241 -0.195365 -2.99263 0
M  V30 1917 H 183.794 -0.139218 -1.55679 0
M  V30 1918 H 184.529 2.2826 -2.30364 0
M  V30 1919 H 184.314 1.22154 -3.72587 0
M  V30 1920 H 185.804 2.19629 -3.5518 0
M  V30 1921 N 186.241 1.57166 -0.116904 0
M  V30 1922 C 187.489 1.94737 0.540533 0
M  V30 1923 C 187.81 1.00096 1.67349 0
M  V30 1924 O 187.08 0.0568854 1.95817 0
M  V30 1925 H 185.66 0.718981 0.202669 0
M  V30 1926 H 188.322 1.94017 -0.185353 0
M  V30 1927 H 187.418 2.97719 0.936483 0
M  V30 1928 N 187.719 -0.156864 1.56817 0
M  V30 1929 C 188.649 -1.19589 2.00551 0
M  V30 1930 C 189.63 -1.4536 0.883426 0
M  V30 1931 O 190.815 -1.56449 1.15054 0
M  V30 1932 C 187.945 -2.53143 2.37773 0
M  V30 1933 C 186.899 -2.41913 3.53075 0
M  V30 1934 C 186.225 -3.80088 3.76081 0
M  V30 1935 C 187.525 -1.91157 4.86062 0
M  V30 1936 H 189.219 -0.832293 2.87599 0
M  V30 1937 H 186.765 -0.398918 1.38364 0
M  V30 1938 H 188.718 -3.26047 2.66967 0
M  V30 1939 H 187.442 -2.91319 1.4765 0
M  V30 1940 H 186.101 -1.71462 3.24031 0
M  V30 1941 H 185.749 -4.15683 2.83225 0
M  V30 1942 H 185.449 -3.73439 4.53671 0
M  V30 1943 H 186.973 -4.54556 4.0769 0
M  V30 1944 H 188.387 -2.53846 5.14038 0
M  V30 1945 H 186.784 -1.95422 5.67389 0
M  V30 1946 H 187.854 -0.866673 4.77092 0
M  V30 1947 N 189.197 -1.51736 -0.425897 0
M  V30 1948 C 190.107 -1.76738 -1.54275 0
M  V30 1949 C 191.123 -0.65211 -1.61318 0
M  V30 1950 O 192.299 -0.935654 -1.78346 0
M  V30 1951 C 189.364 -1.89755 -2.90162 0
M  V30 1952 C 188.425 -3.13633 -2.93143 0
M  V30 1953 C 187.658 -3.2602 -4.22548 0
M  V30 1954 O 187.881 -2.44067 -5.15546 0
M  V30 1955 O 186.815 -4.19071 -4.32046 0
M  V30 1956 H 190.641 -2.71502 -1.36089 0
M  V30 1957 H 188.226 -1.36376 -0.610069 0
M  V30 1958 H 190.108 -2.00236 -3.70788 0
M  V30 1959 H 188.783 -0.981785 -3.08452 0
M  V30 1960 H 187.69 -3.08622 -2.11431 0
M  V30 1961 H 189.023 -4.04936 -2.798 0
M  V30 1962 N 190.675 0.682077 -1.42076 0
M  V30 1963 C 191.638 1.77756 -1.44691 0
M  V30 1964 C 192.638 1.5726 -0.335535 0
M  V30 1965 O 193.828 1.63686 -0.596037 0
M  V30 1966 C 190.96 3.16301 -1.27146 0
M  V30 1967 H 192.153 1.76826 -2.42224 0
M  V30 1968 H 189.706 0.891012 -1.28416 0
M  V30 1969 H 190.441 3.22862 -0.305075 0
M  V30 1970 H 190.226 3.32581 -2.07683 0
M  V30 1971 H 191.716 3.96241 -1.31843 0
M  V30 1972 N 192.153 1.28127 0.917671 0
M  V30 1973 C 193.401 1.14825 1.66312 0
M  V30 1974 C 193.722 -0.304379 1.9261 0
M  V30 1975 O 192.992 -1.21149 1.53947 0
M  V30 1976 H 191.572 0.421953 0.616413 0
M  V30 1977 H 194.234 1.608 1.10134 0
M  V30 1978 H 193.33 1.68489 2.62712 0
M  V30 1979 N 193.631 -1.12557 1.10312 0
M  V30 1980 C 194.561 -2.20341 0.772798 0
M  V30 1981 C 195.542 -1.68198 -0.25365 0
M  V30 1982 O 196.727 -1.93831 -0.119699 0
M  V30 1983 C 193.857 -3.46709 0.202443 0
M  V30 1984 C 192.811 -4.11996 1.15943 0
M  V30 1985 C 192.137 -5.328 0.450345 0
M  V30 1986 C 193.437 -4.5828 2.50552 0
M  V30 1987 H 195.131 -2.48229 1.674 0
M  V30 1988 H 192.677 -1.19308 0.806326 0
M  V30 1989 H 194.63 -4.2138 -0.0407752 0
M  V30 1990 H 193.354 -3.18245 -0.734001 0
M  V30 1991 H 192.013 -3.39305 1.38808 0
M  V30 1992 H 191.661 -5.00602 -0.490531 0
M  V30 1993 H 191.361 -5.7743 1.08851 0
M  V30 1994 H 192.885 -6.10219 0.215642 0
M  V30 1995 H 194.299 -5.2433 2.31843 0
M  V30 1996 H 192.696 -5.13683 3.10242 0
M  V30 1997 H 193.766 -3.72329 3.10643 0
M  V30 1998 N 195.109 -0.891671 -1.2995 0
M  V30 1999 C 196.041 -0.320695 -2.26945 0
M  V30 2000 C 197.054 0.528497 -1.53983 0
M  V30 2001 O 198.243 0.346959 -1.75096 0
M  V30 2002 C 195.343 0.562066 -3.34207 0
M  V30 2003 C 194.516 -0.259576 -4.36629 0
M  V30 2004 C 193.575 0.554739 -5.23268 0
M  V30 2005 O 192.601 -0.0249311 -5.69195 0
M  V30 2006 N 193.803 1.8625 -5.4981 0
M  V30 2007 H 196.568 -1.15432 -2.76578 0
M  V30 2008 H 194.129 -0.755336 -1.432 0
M  V30 2009 H 196.121 1.11304 -3.89093 0
M  V30 2010 H 194.691 1.29637 -2.84452 0
M  V30 2011 H 193.911 -0.991986 -3.81514 0
M  V30 2012 H 195.199 -0.822564 -5.02107 0
M  V30 2013 H 194.597 2.35628 -5.14292 0
M  V30 2014 H 193.154 2.36078 -6.07545 0
M  V30 2015 N 196.587 1.43421 -0.653314 0
M  V30 2016 C 197.835 2.01414 -0.166415 0
M  V30 2017 C 198.156 1.51803 1.22397 0
M  V30 2018 O 197.426 0.730693 1.81763 0
M  V30 2019 H 196.006 0.744703 -0.0585319 0
M  V30 2020 H 198.668 1.75629 -0.845003 0
M  V30 2021 H 197.764 3.11734 -0.151111 0
M  V30 2022 N 198.065 0.39524 1.52563 0
M  V30 2023 C 199.481 0.0454682 1.59535 0
M  V30 2024 C 199.681 -1.44056 1.4089 0
M  V30 2025 O 198.737 -2.20579 1.22888 0
M  V30 2026 C 200.05 0.527963 2.96029 0
M  V30 2027 C 201.598 0.484733 3.09224 0
M  V30 2028 C 202.073 0.943512 4.48176 0
M  V30 2029 N 203.564 0.899765 4.54377 0
M  V30 2030 C 204.299 1.22609 5.60138 0
M  V30 2031 N 203.795 1.62319 6.73516 0
M  V30 2032 N 205.588 1.14696 5.50274 0
M  V30 2033 H 197.739 1.36261 1.62931 0
M  V30 2034 H 200.002 0.558887 0.765735 0
M  V30 2035 H 199.708 1.56607 3.14908 0
M  V30 2036 H 199.582 -0.0698056 3.77135 0
M  V30 2037 H 201.969 -0.544298 2.90037 0
M  V30 2038 H 202.05 1.11838 2.30056 0
M  V30 2039 H 201.694 1.9708 4.68104 0
M  V30 2040 H 201.624 0.286817 5.25818 0
M  V30 2041 H 204.115 0.607632 3.72983 0
M  V30 2042 H 204.428 1.85567 7.5019 0
M  V30 2043 H 202.773 1.66211 6.74833 0
M  V30 2044 H 205.964 0.835701 4.6058 0
M  V30 2045 H 206.137 1.40459 6.32594 0
M  V30 2046 N 199.544 -1.57102 0.125237 0
M  V30 2047 C 200.96 -1.57915 -0.231322 0
M  V30 2048 C 201.16 -1.13833 -1.66266 0
M  V30 2049 O 200.216 -0.828581 -2.38518 0
M  V30 2050 C 201.529 -3.00699 0.00766489 0
M  V30 2051 C 203.077 -3.12947 -0.0577483 0
M  V30 2052 C 203.552 -4.57742 0.153626 0
M  V30 2053 N 205.043 -4.63092 0.0998073 0
M  V30 2054 C 205.778 -5.72905 0.238174 0
M  V30 2055 N 205.274 -6.91445 0.433057 0
M  V30 2056 N 207.067 -5.6182 0.177308 0
M  V30 2057 H 199.218 -1.84055 1.06007 0
M  V30 2058 H 201.481 -0.850905 0.417929 0
M  V30 2059 H 201.187 -3.3726 0.997431 0
M  V30 2060 H 201.061 -3.70236 -0.721452 0
M  V30 2061 H 203.448 -2.7624 -1.03804 0
M  V30 2062 H 203.529 -2.4594 0.70335 0
M  V30 2063 H 203.173 -4.95149 1.13092 0
M  V30 2064 H 203.103 -5.22848 -0.627534 0
M  V30 2065 H 205.594 -3.77871 -0.047051 0
M  V30 2066 H 205.907 -7.70985 0.529332 0
M  V30 2067 H 204.252 -6.93415 0.469109 0
M  V30 2068 H 207.443 -4.68093 0.0259748 0
M  V30 2069 H 207.616 -6.47357 0.288582 0
M  V30 2070 N 201.022 0.148545 -1.56898 0
M  V30 2071 C 202.268 0.862694 -1.83536 0
M  V30 2072 C 202.601 1.80889 -0.706604 0
M  V30 2073 O 201.876 1.92328 0.289885 0
M  V30 2074 C 202.159 1.63853 -3.20662 0
M  V30 2075 C 202.012 0.713925 -4.44098 0
M  V30 2076 C 203.331 2.60133 -3.54991 0
M  V30 2077 H 200.45 0.312179 -0.667618 0
M  V30 2078 H 203.092 0.127953 -1.89569 0
M  V30 2079 H 201.242 2.26489 -3.1565 0
M  V30 2080 H 202.914 0.098686 -4.61194 0
M  V30 2081 H 201.157 0.0234019 -4.33794 0
M  V30 2082 H 201.828 1.29278 -5.36648 0
M  V30 2083 H 204.304 2.07616 -3.60603 0
M  V30 2084 H 203.18 3.11468 -4.51972 0
M  V30 2085 H 203.441 3.41417 -2.80868 0
M  V30 2086 N 202.5 1.5196 0.417844 0
M  V30 2087 C 203.749 1.6482 1.16264 0
M  V30 2088 C 204.062 0.379886 1.91876 0
M  V30 2089 O 205.268 0.388154 2.68711 0
M  V30 2090 C 203.724 2.91161 2.1155 0
M  V30 2091 C 203.332 4.25068 1.41495 0
M  V30 2092 C 205.076 3.13383 2.86341 0
M  V30 2093 C 202.983 5.42541 2.35379 0
M  V30 2094 H 201.913 0.613954 0.437694 0
M  V30 2095 H 204.564 1.78442 0.427871 0
M  V30 2096 H 202.946 2.71218 2.88543 0
M  V30 2097 H 204.12 4.55463 0.699263 0
M  V30 2098 H 202.435 4.0888 0.787792 0
M  V30 2099 H 205.032 3.98324 3.5671 0
M  V30 2100 H 205.375 2.27256 3.48798 0
M  V30 2101 H 205.908 3.33757 2.1645 0
M  V30 2102 H 202.647 6.30987 1.77582 0
M  V30 2103 H 202.167 5.16497 3.04945 0
M  V30 2104 H 203.846 5.75272 2.96093 0
M  V30 2105 N 203.978 -0.674533 1.42435 0
M  V30 2106 C 204.926 -1.80934 1.46169 0
M  V30 2107 C 205.92 -1.66006 0.3374 0
M  V30 2108 O 207.126 -1.72611 0.510425 0
M  V30 2109 H 203.501 -0.596594 0.457798 0
M  V30 2110 H 205.472 -1.74903 2.41767 0
M  V30 2111 C 204.221 -3.19088 1.38123 0
M  V30 2112 H 203.544 -3.31203 2.23931 0
M  V30 2113 H 204.984 -3.9851 1.44797 0
M  V30 2114 C 203.443 -3.36763 0.0960517 0
M  V30 2115 O 203.973 -3.92581 -0.851073 0
M  V30 2116 N 202.179 -2.90597 0.0131186 0
M  V30 2117 H 201.726 -2.45359 0.784639 0
M  V30 2118 H 201.684 -3.028 -0.846133 0
M  V30 2119 N 205.456 -1.28612 -0.910864 0
M  V30 2120 C 206.386 -1.15326 -2.03032 0
M  V30 2121 C 207.367 -0.0502924 -1.70026 0
M  V30 2122 O 208.552 -0.227797 -1.92859 0
M  V30 2123 C 205.682 -0.817343 -3.37545 0
M  V30 2124 C 204.636 -1.8754 -3.84724 0
M  V30 2125 C 203.962 -1.39305 -5.16235 0
M  V30 2126 C 205.262 -3.28244 -4.06267 0
M  V30 2127 H 206.956 -2.08975 -2.14406 0
M  V30 2128 H 204.502 -1.00612 -1.03021 0
M  V30 2129 H 206.455 -0.711151 -4.15356 0
M  V30 2130 H 205.179 0.154846 -3.26233 0
M  V30 2131 H 203.838 -1.97079 -3.09121 0
M  V30 2132 H 203.486 -0.409846 -5.01328 0
M  V30 2133 H 203.186 -2.10057 -5.48771 0
M  V30 2134 H 204.71 -1.30014 -5.96598 0
M  V30 2135 H 206.124 -3.21611 -4.74594 0
M  V30 2136 H 204.521 -3.96855 -4.5014 0
M  V30 2137 H 205.591 -3.72048 -3.10979 0
M  V30 2138 N 206.934 1.1197 -1.10907 0
M  V30 2139 C 208.345 1.65114 -0.871446 0
M  V30 2140 C 208.696 1.86885 0.597353 0
M  V30 2141 O 207.821 1.59896 1.45816 0
M  V30 2142 C 208.416 2.99944 -1.5754 0
M  V30 2143 C 206.975 3.50018 -1.38435 0
M  V30 2144 C 206.122 2.24941 -1.62164 0
M  V30 2145 H 209.073 0.956851 -1.2661 0
M  V30 2146 H 209.094 3.66651 -1.01721 0
M  V30 2147 H 208.606 2.84067 -2.64438 0
M  V30 2148 H 206.707 3.71071 -0.337214 0
M  V30 2149 H 206.82 4.29165 -2.12965 0
M  V30 2150 H 205.184 2.3229 -1.04467 0
M  V30 2151 H 205.967 2.11612 -2.70324 0
M  V30 2152 N 208.412 0.89855 1.29475 0
M  V30 2153 C 209.342 0.39201 2.30186 0
M  V30 2154 C 210.323 -0.532359 1.61555 0
M  V30 2155 O 211.508 -0.443331 1.89072 0
M  V30 2156 C 208.638 -0.382353 3.45189 0
M  V30 2157 C 207.592 0.451483 4.25612 0
M  V30 2158 C 206.918 -0.450307 5.328 0
M  V30 2159 C 208.218 1.70079 4.93832 0
M  V30 2160 H 209.912 1.23362 2.72804 0
M  V30 2161 H 207.458 0.594638 1.31149 0
M  V30 2162 H 209.411 -0.747451 4.14718 0
M  V30 2163 H 208.135 -1.25774 3.01411 0
M  V30 2164 H 206.794 0.798897 3.57789 0
M  V30 2165 H 206.442 -1.32379 4.85268 0
M  V30 2166 H 206.142 0.103902 5.87508 0
M  V30 2167 H 207.666 -0.811623 6.05182 0
M  V30 2168 H 209.08 1.40549 5.55805 0
M  V30 2169 H 207.477 2.19623 5.58467 0
M  V30 2170 H 208.547 2.43744 4.19186 0
M  V30 2171 N 209.89 -1.43072 0.660911 0
M  V30 2172 C 211.167 -1.95307 0.107017 0
M  V30 2173 C 211.547 -1.60192 -1.37484 0
M  V30 2174 O 210.895 -0.890949 -2.10415 0
M  V30 2175 C 211.105 -3.47124 0.361402 0
M  V30 2176 C 212.453 -4.23738 0.270455 0
M  V30 2177 O 213.477 -3.54981 0.294382 0
M  V30 2178 O 212.336 -5.46131 0.200737 0
M  V30 2179 H 209.43 -0.826984 -0.00517729 0
M  V30 2180 H 211.976 -1.52972 0.734681 0
M  V30 2181 H 210.748 -3.65837 1.38848 0
M  V30 2182 H 210.371 -3.96475 -0.298953 0
M  V30 2183 N 211.368 -0.403325 -1.52352 0
M  V30 2184 C 212.593 0.176499 -2.06648 0
M  V30 2185 C 213.018 1.38577 -1.27193 0
M  V30 2186 O 212.376 1.7879 -0.300637 0
M  V30 2187 C 212.424 0.511061 -3.5696 0
M  V30 2188 O 211.528 1.60294 -3.79973 0
M  V30 2189 H 210.869 0.0167337 -0.663789 0
M  V30 2190 H 213.399 -0.574848 -1.96359 0
M  V30 2191 H 213.409 0.771362 -4.00642 0
M  V30 2192 H 212.084 -0.37296 -4.14224 0
M  V30 2193 H 210.661 1.33526 -3.48174 0
M  V30 2194 N 212.846 1.57033 -0.133567 0
M  V30 2195 C 213.779 2.11824 0.848872 0
M  V30 2196 C 214.757 1.03833 1.2513 0
M  V30 2197 O 215.941 1.31579 1.34978 0
M  V30 2198 C 213.068 2.62692 2.138 0
M  V30 2199 C 212.114 3.82705 1.88253 0
M  V30 2200 S 212.947 5.2438 1.08563 0
M  V30 2201 C 214.103 5.78627 2.38624 0
M  V30 2202 H 214.336 2.94824 0.38289 0
M  V30 2203 H 211.869 1.5419 0.0804796 0
M  V30 2204 H 213.827 2.92652 2.87863 0
M  V30 2205 H 212.488 1.79847 2.57515 0
M  V30 2206 H 211.681 4.16496 2.83809 0
M  V30 2207 H 211.283 3.53437 1.22305 0
M  V30 2208 H 213.575 5.8924 3.34369 0
M  V30 2209 H 214.518 6.76443 2.09358 0
M  V30 2210 H 214.926 5.06783 2.48658 0
M  V30 2211 N 214.325 -0.140222 1.56975 0
M  V30 2212 C 215.288 -1.15689 1.97861 0
M  V30 2213 C 216.288 -1.3549 0.865974 0
M  V30 2214 O 217.478 -1.32367 1.13246 0
M  V30 2215 C 214.61 -2.51582 2.30042 0
M  V30 2216 H 215.803 -0.805971 2.88867 0
M  V30 2217 H 213.356 -0.383801 1.51515 0
M  V30 2218 H 214.091 -2.91632 1.41849 0
M  V30 2219 H 213.876 -2.38569 3.11171 0
M  V30 2220 H 215.366 -3.24792 2.62488 0
M  V30 2221 N 215.803 -1.52179 -0.40978 0
M  V30 2222 C 216.766 -1.74853 -1.48186 0
M  V30 2223 C 217.766 -0.618417 -1.48433 0
M  V30 2224 O 218.956 -0.886286 -1.49969 0
M  V30 2225 C 216.088 -1.8303 -2.87598 0
M  V30 2226 H 217.281 -2.70559 -1.29374 0
M  V30 2227 H 214.834 -1.42586 -0.640233 0
M  V30 2228 H 215.569 -0.89236 -3.11781 0
M  V30 2229 H 215.354 -2.65187 -2.88822 0
M  V30 2230 H 216.844 -2.02316 -3.65319 0
M  V30 2231 N 217.281 0.66697 -1.42791 0
M  V30 2232 C 218.692 1.2478 -1.38877 0
M  V30 2233 C 219.043 1.96012 -0.0859426 0
M  V30 2234 O 218.168 2.00463 0.815081 0
M  V30 2235 C 218.763 2.26938 -2.51564 0
M  V30 2236 C 217.322 2.80529 -2.50959 0
M  V30 2237 C 216.469 1.54965 -2.29959 0
M  V30 2238 H 219.42 0.459853 -1.51892 0
M  V30 2239 H 219.441 3.08834 -2.22265 0
M  V30 2240 H 218.953 1.75065 -3.46372 0
M  V30 2241 H 217.054 3.36502 -1.59991 0
M  V30 2242 H 217.167 3.29012 -3.48265 0
M  V30 2243 H 215.531 1.81817 -1.78366 0
M  V30 2244 H 216.314 1.05047 -3.26833 0
M  V30 2245 N 218.759 1.29093 0.90403 0
M  V30 2246 C 220.005 1.17996 1.65676 0
M  V30 2247 C 220.36 -0.266816 1.90541 0
M  V30 2248 O 219.653 -1.19 1.50165 0
M  V30 2249 C 219.847 1.92224 3.01305 0
M  V30 2250 C 219.676 3.43972 2.89678 0
M  V30 2251 C 218.446 4.1332 2.90679 0
M  V30 2252 C 220.644 4.39546 2.67028 0
M  V30 2253 N 218.626 5.51463 2.69743 0
M  V30 2254 C 219.997 5.65119 2.5503 0
M  V30 2255 C 222.052 4.29359 2.52101 0
M  V30 2256 C 220.755 6.81663 2.29626 0
M  V30 2257 C 222.781 5.4565 2.28079 0
M  V30 2258 C 222.143 6.70193 2.16843 0
M  V30 2259 H 218.242 0.486759 0.612037 0
M  V30 2260 H 220.826 1.62868 1.06688 0
M  V30 2261 H 218.997 1.49773 3.58361 0
M  V30 2262 H 220.729 1.73429 3.65656 0
M  V30 2263 H 217.484 3.64984 3.01801 0
M  V30 2264 H 217.908 6.24105 2.6234 0
M  V30 2265 H 222.55 3.33769 2.59534 0
M  V30 2266 H 220.268 7.77313 2.20932 0
M  V30 2267 H 223.854 5.39664 2.1738 0
M  V30 2268 H 222.734 7.58659 1.98511 0
M  V30 2269 N 220.237 -1.11381 1.11499 0
M  V30 2270 C 221.147 -2.21019 0.786628 0
M  V30 2271 C 222.163 -1.72597 -0.220507 0
M  V30 2272 O 223.339 -2.01321 -0.0565251 0
M  V30 2273 C 220.404 -3.459 0.235333 0
M  V30 2274 C 219.465 -4.09107 1.30115 0
M  V30 2275 C 218.698 -5.28027 0.776068 0
M  V30 2276 O 218.921 -5.6904 -0.393661 0
M  V30 2277 O 217.855 -5.81835 1.54114 0
M  V30 2278 H 221.681 -2.51521 1.70209 0
M  V30 2279 H 219.266 -1.19928 0.890928 0
M  V30 2280 H 221.148 -4.21346 -0.067715 0
M  V30 2281 H 219.823 -3.17049 -0.652828 0
M  V30 2282 H 218.73 -3.35391 1.65722 0
M  V30 2283 H 220.063 -4.42139 2.16273 0
M  V30 2284 N 221.715 -0.905404 -1.28997 0
M  V30 2285 C 222.943 -0.549846 -1.9946 0
M  V30 2286 C 223.358 0.866834 -1.67724 0
M  V30 2287 O 222.715 1.57298 -0.925404 0
M  V30 2288 C 222.766 -0.739387 -3.53858 0
M  V30 2289 O 222.487 -2.10031 -3.84472 0
M  V30 2290 C 223.988 -0.389541 -4.41585 0
M  V30 2291 H 221.208 -0.210429 -0.637151 0
M  V30 2292 H 223.752 -1.21632 -1.64396 0
M  V30 2293 H 221.907 -0.120023 -3.87214 0
M  V30 2294 H 222.321 -2.13385 -4.79132 0
M  V30 2295 H 223.795 -0.572972 -5.49018 0
M  V30 2296 H 224.272 0.673756 -4.34001 0
M  V30 2297 H 224.878 -0.986089 -4.1371 0
M  V30 2298 N 223.193 1.4272 -0.668489 0
M  V30 2299 C 224.441 2.01226 -0.187769 0
M  V30 2300 C 224.762 1.53092 1.2078 0
M  V30 2301 O 224.032 0.74993 1.80977 0
M  V30 2302 H 222.612 0.744041 -0.0664272 0
M  V30 2303 H 225.274 1.74723 -0.863583 0
M  V30 2304 H 224.37 3.11556 -0.184166 0
M  V30 2305 N 224.671 0.411399 1.52136 0
M  V30 2306 C 225.948 -0.222308 1.94333 0
M  V30 2307 C 226.328 -1.6242 1.34844 0
M  V30 2308 O 225.676 -2.22384 0.525145 0
M  V30 2309 C 225.886 -0.226345 3.48265 0
M  V30 2310 C 227.234 -0.444592 4.22266 0
M  V30 2311 O 228.258 -0.305602 3.54887 0
M  V30 2312 O 227.117 -0.718749 5.41753 0
M  V30 2313 H 224.211 -0.143907 0.814383 0
M  V30 2314 H 226.757 0.467506 1.63133 0
M  V30 2315 H 225.529 0.75475 3.83952 0
M  V30 2316 H 225.152 -0.960163 3.85832 0
M  V30 2317 N 226.149 -1.5696 0.141893 0
M  V30 2318 C 227.377 -2.00322 -0.517579 0
M  V30 2319 C 227.792 -1.02193 -1.58752 0
M  V30 2320 O 227.149 -0.0181619 -1.82491 0
M  V30 2321 C 227.2 -3.43618 -1.12289 0
M  V30 2322 O 226.921 -4.37995 -0.0956929 0
M  V30 2323 C 228.422 -4.02231 -1.86347 0
M  V30 2324 H 225.642 -0.657243 -0.135177 0
M  V30 2325 H 228.186 -2.03146 0.234973 0
M  V30 2326 H 226.341 -3.41662 -1.82609 0
M  V30 2327 H 226.755 -5.21729 -0.538469 0
M  V30 2328 H 228.229 -5.04509 -2.23997 0
M  V30 2329 H 228.706 -3.42655 -2.74744 0
M  V30 2330 H 229.312 -4.07802 -1.20737 0
M  V30 2331 N 227.627 0.131896 -1.57047 0
M  V30 2332 C 228.874 0.841932 -1.84168 0
M  V30 2333 C 229.202 1.8048 -0.725066 0
M  V30 2334 O 228.457 1.93618 0.284692 0
M  V30 2335 C 228.756 1.63703 -3.17704 0
M  V30 2336 C 228.422 0.81961 -4.43388 0
M  V30 2337 C 227.084 0.594148 -4.77518 0
M  V30 2338 C 229.436 0.248977 -5.20605 0
M  V30 2339 C 226.764 -0.212409 -5.86315 0
M  V30 2340 C 229.116 -0.544701 -6.30251 0
M  V30 2341 C 227.78 -0.780599 -6.6292 0
M  V30 2342 H 227.05 0.308085 -0.673917 0
M  V30 2343 H 229.697 0.104867 -1.91213 0
M  V30 2344 H 228.002 2.44464 -3.06177 0
M  V30 2345 H 229.699 2.19015 -3.35907 0
M  V30 2346 H 226.289 1.00542 -4.16641 0
M  V30 2347 H 230.473 0.410408 -4.946 0
M  V30 2348 H 225.729 -0.404524 -6.1006 0
M  V30 2349 H 229.903 -0.993922 -6.89271 0
M  V30 2350 H 227.53 -1.40742 -7.47058 0
M  V30 2351 N 229.106 1.52395 0.401703 0
M  V30 2352 C 230.517 1.58899 0.980202 0
M  V30 2353 C 230.868 0.434032 1.91339 0
M  V30 2354 O 229.993 -0.444619 2.11783 0
M  V30 2355 C 230.588 2.87994 1.78451 0
M  V30 2356 C 229.147 2.96953 2.31292 0
M  V30 2357 C 228.294 2.53903 1.11483 0
M  V30 2358 H 231.245 1.57657 0.18168 0
M  V30 2359 H 231.266 2.73765 2.64259 0
M  V30 2360 H 230.778 3.72035 1.10506 0
M  V30 2361 H 228.879 2.17422 3.02586 0
M  V30 2362 H 228.992 4.01344 2.61649 0
M  V30 2363 H 227.356 2.07925 1.47104 0
M  V30 2364 H 228.139 3.40326 0.450928 0
M  V30 2365 N 230.584 -0.659388 1.43143 0
M  V30 2366 C 231.861 -1.41627 1.34912 0
M  V30 2367 C 232.241 -2.11099 -0.00607785 0
M  V30 2368 O 231.589 -2.04353 -1.02236 0
M  V30 2369 C 231.799 -2.40604 2.52805 0
M  V30 2370 C 233.147 -3.04789 2.95616 0
M  V30 2371 O 234.171 -2.50932 2.52807 0
M  V30 2372 O 233.03 -4.02421 3.69756 0
M  V30 2373 H 230.124 -0.63246 0.532844 0
M  V30 2374 H 232.67 -0.686814 1.5518 0
M  V30 2375 H 231.442 -1.88174 3.43083 0
M  V30 2376 H 231.065 -3.21009 2.34604 0
M  V30 2377 N 232.062 -1.29571 -0.897171 0
M  V30 2378 C 233.308 -1.17863 -1.65034 0
M  V30 2379 C 233.641 0.268729 -1.92332 0
M  V30 2380 O 232.916 1.19378 -1.53555 0
M  V30 2381 C 233.199 -1.995 -2.99786 0
M  V30 2382 C 233.052 -3.5239 -2.79538 0
M  V30 2383 C 234.371 -1.82335 -4.00552 0
M  V30 2384 H 231.49 -0.429528 -0.598895 0
M  V30 2385 H 234.132 -1.59072 -1.03905 0
M  V30 2386 H 232.282 -1.64485 -3.51962 0
M  V30 2387 H 233.954 -3.97401 -2.34244 0
M  V30 2388 H 232.197 -3.77187 -2.14273 0
M  V30 2389 H 232.868 -4.04787 -3.75302 0
M  V30 2390 H 235.344 -2.12924 -3.57495 0
M  V30 2391 H 234.22 -2.41801 -4.92771 0
M  V30 2392 H 234.481 -0.779209 -4.35179 0
M  V30 2393 N 233.54 1.10788 -1.12088 0
M  V30 2394 C 234.786 1.82942 -0.875226 0
M  V30 2395 C 235.119 1.84779 0.597538 0
M  V30 2396 O 234.394 1.30578 1.44152 0
M  V30 2397 C 234.677 3.29789 -1.44606 0
M  V30 2398 C 234.53 3.36307 -2.98693 0
M  V30 2399 C 235.849 4.26064 -1.10261 0
M  V30 2400 H 232.968 0.664195 -0.319397 0
M  V30 2401 H 235.61 1.29867 -1.38689 0
M  V30 2402 H 233.76 3.75118 -1.01089 0
M  V30 2403 H 235.432 2.99487 -3.50864 0
M  V30 2404 H 233.675 2.76318 -3.34411 0
M  V30 2405 H 234.346 4.39694 -3.33726 0
M  V30 2406 H 236.822 3.88951 -1.4784 0
M  V30 2407 H 235.698 5.27183 -1.52869 0
M  V30 2408 H 235.959 4.42098 -0.0142953 0
M  V30 2409 N 235.018 0.912232 1.28515 0
M  V30 2410 C 235.981 0.404223 2.25607 0
M  V30 2411 C 236.981 -0.468602 1.53821 0
M  V30 2412 O 238.171 -0.271873 1.72065 0
M  V30 2413 C 235.303 -0.420653 3.38295 0
M  V30 2414 H 236.496 1.26188 2.7206 0
M  V30 2415 H 234.049 0.691495 1.40171 0
M  V30 2416 H 234.784 -1.29777 2.97201 0
M  V30 2417 H 234.569 0.204935 3.91564 0
M  V30 2418 H 236.059 -0.766971 4.10496 0
M  V30 2419 N 236.496 -1.42363 0.676048 0
M  V30 2420 C 237.745 -2.00745 0.196037 0
M  V30 2421 C 238.058 -1.54083 -1.20489 0
M  V30 2422 O 239.264 -2.04891 -1.78134 0
M  V30 2423 C 237.72 -3.58651 0.299616 0
M  V30 2424 C 237.328 -4.143 1.70468 0
M  V30 2425 C 239.072 -4.24326 -0.121619 0
M  V30 2426 C 236.979 -5.64574 1.76096 0
M  V30 2427 H 235.909 -0.750787 0.0695301 0
M  V30 2428 H 238.56 -1.63072 0.841412 0
M  V30 2429 H 236.942 -3.93833 -0.413673 0
M  V30 2430 H 238.116 -3.90575 2.44515 0
M  V30 2431 H 236.431 -3.61081 2.07387 0
M  V30 2432 H 239.028 -5.34607 -0.0997362 0
M  V30 2433 H 239.371 -3.99897 -1.15708 0
M  V30 2434 H 239.904 -3.94108 0.540706 0
M  V30 2435 H 236.643 -5.93804 2.77628 0
M  V30 2436 H 236.163 -5.90286 1.06406 0
M  V30 2437 H 237.842 -6.29013 1.51496 0
M  V30 2438 N 237.974 -0.419461 -1.51915 0
M  V30 2439 C 238.937 0.389116 -2.25873 0
M  V30 2440 C 239.937 0.964924 -1.28631 0
M  V30 2441 O 241.127 0.842179 -1.52489 0
M  V30 2442 C 238.259 1.54874 -3.03689 0
M  V30 2443 H 239.452 -0.258799 -2.98781 0
M  V30 2444 H 237.005 -0.172209 -1.55348 0
M  V30 2445 H 237.74 2.23323 -2.35154 0
M  V30 2446 H 237.525 1.14223 -3.75094 0
M  V30 2447 H 239.015 2.12046 -3.59759 0
M  V30 2448 N 239.452 1.56882 -0.150215 0
M  V30 2449 C 240.863 1.82995 0.370076 0
M  V30 2450 C 241.214 1.06907 1.64515 0
M  V30 2451 O 240.339 0.315369 2.1409 0
M  V30 2452 C 240.934 3.31942 0.678208 0
M  V30 2453 C 239.493 3.58625 1.14301 0
M  V30 2454 C 238.64 2.76792 0.167778 0
M  V30 2455 H 241.591 1.54209 -0.374858 0
M  V30 2456 H 241.612 3.48272 1.53254 0
M  V30 2457 H 241.124 3.87294 -0.249991 0
M  V30 2458 H 239.225 3.08664 2.08704 0
M  V30 2459 H 239.338 4.67073 1.06676 0
M  V30 2460 H 237.702 2.45972 0.661037 0
M  V30 2461 H 238.485 3.34916 -0.754069 0
M  V30 2462 N 240.93 -0.123565 1.57115 0
M  V30 2463 C 242.207 -0.862196 1.75572 0
M  V30 2464 C 242.587 -1.98279 0.724475 0
M  V30 2465 O 241.935 -2.27102 -0.252407 0
M  V30 2466 C 242.145 -1.38309 3.20424 0
M  V30 2467 C 243.493 -1.83724 3.82793 0
M  V30 2468 O 244.517 -1.47999 3.23998 0
M  V30 2469 O 243.376 -2.49685 4.86127 0
M  V30 2470 H 240.47 -0.409113 0.718718 0
M  V30 2471 H 243.016 -0.107661 1.69358 0
M  V30 2472 H 241.788 -0.578889 3.86994 0
M  V30 2473 H 241.411 -2.20046 3.31158 0
M  V30 2474 N 242.408 -1.52605 -0.393616 0
M  V30 2475 C 243.654 -1.67672 -1.14079 0
M  V30 2476 C 243.987 -0.413121 -1.89755 0
M  V30 2477 O 243.262 0.588952 -1.85369 0
M  V30 2478 C 243.545 -2.9088 -2.12276 0
M  V30 2479 C 243.398 -4.27329 -1.40394 0
M  V30 2480 C 244.717 -3.09628 -3.12759 0
M  V30 2481 H 241.836 -0.610168 -0.413356 0
M  V30 2482 H 244.478 -1.85193 -0.424696 0
M  V30 2483 H 242.628 -2.76073 -2.73342 0
M  V30 2484 H 244.3 -4.53894 -0.82327 0
M  V30 2485 H 242.543 -4.2802 -0.705801 0
M  V30 2486 H 243.214 -5.09615 -2.12123 0
M  V30 2487 H 245.69 -3.23436 -2.61779 0
M  V30 2488 H 244.566 -3.97322 -3.78717 0
M  V30 2489 H 244.827 -2.23637 -3.81365 0
M  V30 2490 N 243.887 0.651787 -1.4349 0
M  V30 2491 C 245.303 0.96762 -1.26922 0
M  V30 2492 C 245.503 2.00602 -0.189982 0
M  V30 2493 O 244.559 2.48793 0.431107 0
M  V30 2494 C 245.872 1.45052 -2.63401 0
M  V30 2495 C 247.42 1.5671 -2.70945 0
M  V30 2496 C 247.895 2.0839 -4.07845 0
M  V30 2497 N 249.386 2.1569 -4.09917 0
M  V30 2498 C 250.121 2.56804 -5.12679 0
M  V30 2499 N 249.617 2.97203 -6.25813 0
M  V30 2500 N 251.41 2.56756 -5.00033 0
M  V30 2501 H 243.561 -0.0353158 -2.12371 0
M  V30 2502 H 245.824 0.0467858 -0.946845 0
M  V30 2503 H 245.53 0.761926 -3.43348 0
M  V30 2504 H 245.404 2.42529 -2.88894 0
M  V30 2505 H 247.791 2.2467 -1.9133 0
M  V30 2506 H 247.872 0.57662 -2.49216 0
M  V30 2507 H 247.516 1.41031 -4.87927 0
M  V30 2508 H 247.446 3.08271 -4.26938 0
M  V30 2509 H 249.937 1.87237 -3.28254 0
M  V30 2510 H 250.25 3.27328 -7.00055 0
M  V30 2511 H 248.595 2.95004 -6.29283 0
M  V30 2512 H 251.786 2.24572 -4.10713 0
M  V30 2513 H 251.959 2.88475 -5.80247 0
M  V30 2514 N 245.365 1.30045 0.890287 0
M  V30 2515 C 246.328 1.15963 1.977 0
M  V30 2516 C 247.328 0.0923777 1.60534 0
M  V30 2517 O 248.518 0.340071 1.70848 0
M  V30 2518 C 245.65 0.775451 3.31963 0
M  V30 2519 H 246.843 2.12502 2.11619 0
M  V30 2520 H 244.396 1.13366 1.07601 0
M  V30 2521 H 245.131 -0.189671 3.23745 0
M  V30 2522 H 244.916 1.54668 3.60306 0
M  V30 2523 H 246.406 0.700251 4.11687 0
M  V30 2524 N 246.843 -1.10192 1.12674 0
M  V30 2525 C 248.071 -1.85983 0.906527 0
M  V30 2526 C 248.486 -1.80783 -0.544333 0
M  V30 2527 O 247.843 -1.19834 -1.37645 0
M  V30 2528 C 247.894 -3.34281 1.37618 0
M  V30 2529 O 247.615 -3.39401 2.77017 0
M  V30 2530 C 249.116 -4.26938 1.19325 0
M  V30 2531 H 246.336 -0.587716 0.323775 0
M  V30 2532 H 248.88 -1.39284 1.49734 0
M  V30 2533 H 247.035 -3.78436 0.828539 0
M  V30 2534 H 247.449 -4.31838 2.97684 0
M  V30 2535 H 248.923 -5.29181 1.57071 0
M  V30 2536 H 249.4 -4.38995 0.134097 0
M  V30 2537 H 250.006 -3.8859 1.72852 0
M  V30 2538 N 248.321 -0.919034 -1.28029 0
M  V30 2539 C 249.546 -0.570357 -1.99403 0
M  V30 2540 C 249.971 0.842486 -1.68178 0
M  V30 2541 O 249.329 1.56391 -0.917141 0
M  V30 2542 C 249.377 -0.792541 -3.51783 0
M  V30 2543 O 248.481 0.145988 -4.12142 0
M  V30 2544 H 247.822 -0.220555 -0.6263 0
M  V30 2545 H 250.352 -1.23592 -1.63053 0
M  V30 2546 H 250.362 -0.704708 -4.01868 0
M  V30 2547 H 249.037 -1.82247 -3.73844 0
M  V30 2548 H 247.614 0.00897528 -3.72899 0
M  V30 2549 N 249.799 1.42003 -0.683588 0
M  V30 2550 C 251.024 2.06265 -0.216647 0
M  V30 2551 C 251.449 1.51059 1.12083 0
M  V30 2552 O 250.807 0.632638 1.69904 0
M  V30 2553 C 250.855 3.60191 -0.171759 0
M  V30 2554 O 249.959 4.03396 0.857069 0
M  V30 2555 H 249.3 0.65502 -0.108834 0
M  V30 2556 H 251.83 1.81982 -0.935077 0
M  V30 2557 H 251.84 4.08 0.0014303 0
M  V30 2558 H 250.515 3.99743 -1.14796 0
M  V30 2559 H 249.092 3.67117 0.654208 0
M  V30 2560 N 251.277 0.427512 1.51691 0
M  V30 2561 C 252.688 -0.0378867 1.86662 0
M  V30 2562 C 253.039 -1.42819 1.34525 0
M  V30 2563 O 252.164 -2.05037 0.692014 0
M  V30 2564 C 252.759 -0.0755266 3.38716 0
M  V30 2565 C 251.318 -0.485309 3.73258 0
M  V30 2566 C 250.465 0.328399 2.75349 0
M  V30 2567 H 253.416 0.64379 1.45055 0
M  V30 2568 H 253.437 -0.887056 3.70016 0
M  V30 2569 H 252.949 0.936487 3.76632 0
M  V30 2570 H 251.05 -1.50329 3.40928 0
M  V30 2571 H 251.163 -0.21693 4.78609 0
M  V30 2572 H 249.527 -0.211905 2.53817 0
M  V30 2573 H 250.31 1.3391 3.16106 0
M  V30 2574 N 252.755 -1.56801 0.158532 0
M  V30 2575 C 254.003 -1.96102 -0.488712 0
M  V30 2576 C 254.324 -1.04498 -1.64636 0
M  V30 2577 O 253.594 -0.108783 -1.95598 0
M  V30 2578 H 252.174 -0.724102 -0.183535 0
M  V30 2579 H 254.836 -1.93457 0.236728 0
M  V30 2580 H 253.932 -3.00097 -0.857219 0
M  V30 2581 N 254.233 0.115231 -1.57178 0
M  V30 2582 C 255.163 1.1423 -2.03651 0
M  V30 2583 C 256.144 1.42967 -0.921655 0
M  V30 2584 O 257.329 1.53343 -1.19162 0
M  V30 2585 C 254.459 2.4675 -2.44401 0
M  V30 2586 C 253.413 2.32467 -3.59365 0
M  V30 2587 C 252.739 3.69984 -3.86026 0
M  V30 2588 C 254.039 1.78203 -4.90959 0
M  V30 2589 H 255.733 0.755749 -2.89705 0
M  V30 2590 H 253.279 0.362093 -1.39373 0
M  V30 2591 H 255.232 3.18854 -2.75517 0
M  V30 2592 H 253.956 2.87302 -1.55322 0
M  V30 2593 H 252.615 1.62811 -3.28463 0
M  V30 2594 H 252.263 4.08028 -2.94147 0
M  V30 2595 H 251.963 3.61279 -4.63412 0
M  V30 2596 H 253.487 4.43587 -4.19599 0
M  V30 2597 H 254.901 2.40128 -5.20587 0
M  V30 2598 H 253.298 1.8031 -5.72371 0
M  V30 2599 H 254.368 0.739876 -4.79222 0
M  V30 2600 N 255.711 1.52812 0.385517 0
M  V30 2601 C 257.127 1.4214 0.725829 0
M  V30 2602 C 257.327 0.544589 1.94001 0
M  V30 2603 O 256.383 0.0193693 2.52493 0
M  V30 2604 C 257.696 2.85042 0.957668 0
M  V30 2605 C 259.244 2.94543 1.05892 0
M  V30 2606 C 259.719 4.38464 1.32337 0
M  V30 2607 N 261.21 4.41804 1.39151 0
M  V30 2608 C 261.945 5.5025 1.61285 0
M  V30 2609 N 261.441 6.68775 1.80866 0
M  V30 2610 N 263.234 5.37798 1.63492 0
M  V30 2611 H 255.385 2.08338 -0.413383 0
M  V30 2612 H 257.648 0.940016 -0.122775 0
M  V30 2613 H 257.354 3.51431 0.137568 0
M  V30 2614 H 257.228 3.27505 1.87137 0
M  V30 2615 H 259.615 2.28321 1.86959 0
M  V30 2616 H 259.696 2.55504 0.123057 0
M  V30 2617 H 259.34 5.05254 0.517793 0
M  V30 2618 H 259.27 4.75059 2.27214 0
M  V30 2619 H 261.761 3.56377 1.25713 0
M  V30 2620 H 262.074 7.47197 1.97271 0
M  V30 2621 H 260.419 6.71797 1.78083 0
M  V30 2622 H 263.61 4.44171 1.47749 0
M  V30 2623 H 263.783 6.22382 1.80402 0
M  V30 2624 N 257.189 -0.644168 1.43834 0
M  V30 2625 C 258.466 -1.40188 1.36406 0
M  V30 2626 C 258.846 -2.11094 0.0163124 0
M  V30 2627 O 258.194 -2.05426 -1.00062 0
M  V30 2628 C 258.404 -2.3791 2.55343 0
M  V30 2629 C 259.752 -3.01637 2.98832 0
M  V30 2630 O 260.776 -2.48237 2.55455 0
M  V30 2631 O 259.635 -3.98477 3.74003 0
M  V30 2632 H 256.729 -0.626773 0.539523 0
M  V30 2633 H 259.275 -0.670317 1.559 0
M  V30 2634 H 258.047 -1.84525 3.4506 0
M  V30 2635 H 257.67 -3.18503 2.37995 0
M  V30 2636 N 258.668 -1.30515 -0.883378 0
M  V30 2637 C 259.916 -1.19194 -1.63209 0
M  V30 2638 C 260.237 0.253205 -1.93349 0
M  V30 2639 O 259.507 1.17025 -1.57105 0
M  V30 2640 H 258.087 -0.438148 -0.605009 0
M  V30 2641 H 260.749 -1.63663 -1.05832 0
M  V30 2642 H 259.845 -1.75396 -2.58153 0
M  V30 2643 N 260.146 1.09593 -1.13257 0
M  V30 2644 C 261.371 1.8604 -0.916732 0
M  V30 2645 C 261.796 1.80504 0.529146 0
M  V30 2646 O 261.154 1.18127 1.37534 0
M  V30 2647 C 261.202 3.32017 -1.40703 0
M  V30 2648 O 260.306 4.08141 -0.591153 0
M  V30 2649 H 259.647 0.576943 -0.328683 0
M  V30 2650 H 262.177 1.38405 -1.50682 0
M  V30 2651 H 262.187 3.82865 -1.4099 0
M  V30 2652 H 260.862 3.35361 -2.45979 0
M  V30 2653 H 259.439 3.67084 -0.656005 0
M  V30 2654 N 261.624 0.925811 1.2754 0
M  V30 2655 C 263.035 0.610102 1.7645 0
M  V30 2656 C 263.386 -0.874723 1.75622 0
M  V30 2657 O 262.511 -1.68444 1.35851 0
M  V30 2658 C 263.106 1.10073 3.20421 0
M  V30 2659 C 261.665 0.835723 3.67005 0
M  V30 2660 C 260.812 1.26054 2.46993 0
M  V30 2661 H 263.763 1.10579 1.13833 0
M  V30 2662 H 263.784 0.447557 3.77859 0
M  V30 2663 H 263.296 2.18143 3.20991 0
M  V30 2664 H 261.397 -0.231249 3.71882 0
M  V30 2665 H 261.51 1.45193 4.56569 0
M  V30 2666 H 259.874 0.679111 2.45479 0
M  V30 2667 H 260.657 2.34984 2.50275 0
M  V30 2668 N 263.102 -1.41638 0.69111 0
M  V30 2669 C 264.379 -1.95036 0.148421 0
M  V30 2670 C 264.759 -1.63072 -1.34055 0
M  V30 2671 O 264.107 -0.93538 -2.08478 0
M  V30 2672 C 264.317 -3.46279 0.434951 0
M  V30 2673 C 265.665 -4.23069 0.360275 0
M  V30 2674 O 266.689 -3.54277 0.369613 0
M  V30 2675 O 265.548 -5.45583 0.316534 0
M  V30 2676 H 262.642 -0.826908 0.0123654 0
M  V30 2677 H 265.188 -1.5138 0.766963 0
M  V30 2678 H 263.96 -3.6281 1.46576 0
M  V30 2679 H 263.583 -3.97019 -0.214787 0
M  V30 2680 N 264.58 -0.43555 -1.51462 0
M  V30 2681 C 265.826 0.131709 -2.02372 0
M  V30 2682 C 266.159 1.42516 -1.3192 0
M  V30 2683 O 265.434 1.89606 -0.433573 0
M  V30 2684 C 265.717 0.352301 -3.58373 0
M  V30 2685 C 265.57 -0.959676 -4.39443 0
M  V30 2686 C 266.889 1.12286 -4.25535 0
M  V30 2687 H 264.008 0.0463936 -0.735538 0
M  V30 2688 H 266.65 -0.574197 -1.81116 0
M  V30 2689 H 264.8 0.9536 -3.76615 0
M  V30 2690 H 266.472 -1.59482 -4.32855 0
M  V30 2691 H 264.715 -1.56468 -4.04599 0
M  V30 2692 H 265.386 -0.759394 -5.46752 0
M  V30 2693 H 267.862 0.613545 -4.11552 0
M  V30 2694 H 266.738 1.24598 -5.34571 0
M  V30 2695 H 266.999 2.15048 -3.86273 0
M  V30 2696 N 266.058 1.56714 -0.166846 0
M  V30 2697 C 267.286 2.0112 0.485644 0
M  V30 2698 C 267.701 1.04705 1.57106 0
M  V30 2699 O 267.058 0.0471923 1.82439 0
M  V30 2700 C 267.109 3.45361 1.06808 0
M  V30 2701 O 266.83 4.38092 0.0259995 0
M  V30 2702 C 268.331 4.05145 1.79924 0
M  V30 2703 H 265.551 0.65931 0.124704 0
M  V30 2704 H 268.095 2.02746 -0.267262 0
M  V30 2705 H 266.25 3.44524 1.7715 0
M  V30 2706 H 266.664 5.22519 0.455398 0
M  V30 2707 H 268.138 5.08009 2.15942 0
M  V30 2708 H 268.615 3.46982 2.69258 0
M  V30 2709 H 269.221 4.09672 1.14234 0
M  V30 2710 N 267.536 -0.106894 1.57237 0
M  V30 2711 C 268.764 -0.826389 1.8968 0
M  V30 2712 C 269.179 -1.72856 0.759353 0
M  V30 2713 O 268.536 -1.80503 -0.269263 0
M  V30 2714 C 268.587 -1.64967 3.21665 0
M  V30 2715 O 268.308 -0.783804 4.31031 0
M  V30 2716 C 269.809 -2.47326 3.67892 0
M  V30 2717 H 267.029 -0.236927 0.627779 0
M  V30 2718 H 269.573 -0.0876593 2.04312 0
M  V30 2719 H 267.728 -2.34103 3.08666 0
M  V30 2720 H 268.142 -1.35284 5.06753 0
M  V30 2721 H 269.616 -3.00604 4.6297 0
M  V30 2722 H 270.093 -3.25247 2.95146 0
M  V30 2723 H 270.699 -1.83411 3.83719 0
M  V30 2724 N 269.014 -1.53014 -0.377408 0
M  V30 2725 C 269.977 -1.77957 -1.44444 0
M  V30 2726 C 270.977 -0.649763 -1.47087 0
M  V30 2727 O 272.167 -0.917897 -1.48055 0
M  V30 2728 C 269.299 -1.89089 -2.83651 0
M  V30 2729 H 270.492 -2.73243 -1.23606 0
M  V30 2730 H 268.045 -1.43912 -0.609844 0
M  V30 2731 H 268.78 -0.958293 -3.09818 0
M  V30 2732 H 268.565 -2.71254 -2.83132 0
M  V30 2733 H 270.055 -2.1002 -3.60945 0
M  V30 2734 N 270.492 0.636531 -1.44174 0
M  V30 2735 C 271.769 1.39463 -1.37148 0
M  V30 2736 C 272.149 2.11082 -0.027507 0
M  V30 2737 O 271.497 2.05954 0.989716 0
M  V30 2738 C 271.707 2.36552 -2.56601 0
M  V30 2739 C 273.055 3.00048 -3.00427 0
M  V30 2740 O 274.079 2.46878 -2.56767 0
M  V30 2741 O 272.938 3.96488 -3.76111 0
M  V30 2742 H 270.032 0.623903 -0.542839 0
M  V30 2743 H 272.578 0.662039 -1.56253 0
M  V30 2744 H 271.35 1.82692 -3.46034 0
M  V30 2745 H 270.973 3.17236 -2.39681 0
M  V30 2746 N 271.97 1.30982 0.876444 0
M  V30 2747 C 273.219 1.19658 1.62373 0
M  V30 2748 C 273.532 -0.245636 1.94052 0
M  V30 2749 O 274.738 -0.48049 2.67214 0
M  V30 2750 C 273.194 2.09433 2.92687 0
M  V30 2751 C 272.802 3.58613 2.68516 0
M  V30 2752 C 274.546 2.06893 3.70669 0
M  V30 2753 C 272.453 4.40416 3.94699 0
M  V30 2754 H 271.383 0.444268 0.609214 0
M  V30 2755 H 274.034 1.55791 0.969605 0
M  V30 2756 H 272.416 1.66191 3.59439 0
M  V30 2757 H 273.59 4.10058 2.10212 0
M  V30 2758 H 271.905 3.63063 2.03898 0
M  V30 2759 H 274.502 2.65258 4.64265 0
M  V30 2760 H 274.845 1.05448 4.02724 0
M  V30 2761 H 275.378 2.48301 3.10792 0
M  V30 2762 H 272.117 5.42591 3.67798 0
M  V30 2763 H 271.637 3.93731 4.52477 0
M  V30 2764 H 273.316 4.52294 4.62644 0
M  V30 2765 N 273.449 -1.08991 1.13837 0
M  V30 2766 C 274.697 -1.80899 0.901098 0
M  V30 2767 C 275.018 -1.86356 -0.574134 0
M  V30 2768 O 274.288 -1.35235 -1.41733 0
M  V30 2769 H 272.868 -0.669966 0.330386 0
M  V30 2770 H 275.53 -1.318 1.43578 0
M  V30 2771 H 274.626 -2.83929 1.29578 0
M  V30 2772 N 274.927 -0.932562 -1.27047 0
M  V30 2773 C 275.89 -0.440064 -2.24936 0
M  V30 2774 C 276.89 0.444071 -1.54547 0
M  V30 2775 O 278.08 0.244465 -1.72476 0
M  V30 2776 C 275.212 0.36678 -3.38921 0
M  V30 2777 H 276.405 -1.305 -2.70018 0
M  V30 2778 H 273.958 -0.713707 -1.39054 0
M  V30 2779 H 274.693 1.25033 -2.99228 0
M  V30 2780 H 274.478 -0.267204 -3.91188 0
M  V30 2781 H 275.968 0.701567 -4.11665 0
M  V30 2782 N 276.405 1.4127 -0.698611 0
M  V30 2783 C 277.353 2.32588 -0.023855 0
M  V30 2784 C 278.347 1.51128 0.765292 0
M  V30 2785 O 279.553 1.67043 0.670571 0
M  V30 2786 H 275.928 0.751918 0.0110871 0
M  V30 2787 H 277.899 2.87167 -0.811031 0
M  V30 2788 C 276.648 3.35947 0.896369 0
M  V30 2789 H 275.971 3.98684 0.298548 0
M  V30 2790 H 277.411 4.02376 1.33676 0
M  V30 2791 C 275.87 2.70076 2.01396 0
M  V30 2792 O 276.4 2.55093 3.10307 0
M  V30 2793 N 274.606 2.28724 1.79259 0
M  V30 2794 H 274.153 2.4111 0.906841 0
M  V30 2795 H 274.111 1.84986 2.54219 0
M  V30 2796 N 277.883 0.443576 1.51229 0
M  V30 2797 C 279.111 -0.11929 2.06556 0
M  V30 2798 C 279.526 -1.35921 1.31038 0
M  V30 2799 O 278.883 -1.78675 0.371704 0
M  V30 2800 C 278.934 -0.435228 3.5887 0
M  V30 2801 O 278.655 0.755486 4.31537 0
M  V30 2802 C 280.156 -1.04808 4.30732 0
M  V30 2803 H 277.376 -0.0051584 0.67098 0
M  V30 2804 H 279.92 0.624453 1.94733 0
M  V30 2805 H 278.075 -1.12887 3.70588 0
M  V30 2806 H 278.489 0.483491 5.22267 0
M  V30 2807 H 279.963 -1.2191 5.3837 0
M  V30 2808 H 280.44 -2.03081 3.89429 0
M  V30 2809 H 281.046 -0.393637 4.23474 0
M  V30 2810 N 279.361 -1.56624 0.175154 0
M  V30 2811 C 280.772 -1.83561 -0.340916 0
M  V30 2812 C 281.123 -1.09511 -1.62794 0
M  V30 2813 O 280.248 -0.349389 -2.13561 0
M  V30 2814 C 280.843 -3.32979 -0.625313 0
M  V30 2815 C 279.402 -3.60399 -1.08581 0
M  V30 2816 C 278.549 -2.77024 -0.123722 0
M  V30 2817 H 281.5 -1.53593 0.399344 0
M  V30 2818 H 281.521 -3.50666 -1.47694 0
M  V30 2819 H 281.033 -3.86847 0.311575 0
M  V30 2820 H 279.134 -3.11945 -2.03767 0
M  V30 2821 H 279.247 -4.68711 -0.992317 0
M  V30 2822 H 277.611 -2.46993 -0.621821 0
M  V30 2823 H 278.394 -3.33674 0.807256 0
M  V30 2824 N 280.839 0.0985539 -1.57292 0
M  V30 2825 C 282.116 0.834155 -1.76921 0
M  V30 2826 C 282.496 1.97101 -0.755928 0
M  V30 2827 O 281.844 2.27474 0.216245 0
M  V30 2828 C 282.054 1.33194 -3.22584 0
M  V30 2829 C 283.402 1.77611 -3.85668 0
M  V30 2830 O 284.426 1.42825 -3.26312 0
M  V30 2831 O 283.285 2.4192 -4.90038 0
M  V30 2832 H 280.379 0.397628 -0.725135 0
M  V30 2833 H 282.925 0.0807044 -1.69508 0
M  V30 2834 H 281.697 0.517248 -3.87866 0
M  V30 2835 H 281.32 2.1475 -3.34616 0
M  V30 2836 N 282.317 1.53212 0.369288 0
M  V30 2837 C 283.28 1.7872 1.43498 0
M  V30 2838 C 284.28 0.657554 1.46741 0
M  V30 2839 O 285.47 0.925736 1.47566 0
M  V30 2840 C 282.602 1.90591 2.82645 0
M  V30 2841 H 283.795 2.73894 1.22156 0
M  V30 2842 H 281.348 1.44233 0.602203 0
M  V30 2843 H 282.083 0.974709 3.09306 0
M  V30 2844 H 281.868 2.72751 2.8169 0
M  V30 2845 H 283.358 2.11931 3.59826 0
M  V30 2846 N 283.795 -0.628877 1.44509 0
M  V30 2847 C 285.023 -1.41554 1.50897 0
M  V30 2848 C 285.438 -1.8832 0.134564 0
M  V30 2849 O 284.795 -1.60969 -0.859965 0
M  V30 2850 C 284.846 -2.63435 2.47556 0
M  V30 2851 O 284.567 -2.18619 3.79654 0
M  V30 2852 C 286.068 -3.56537 2.63431 0
M  V30 2853 H 283.288 -0.434044 0.511709 0
M  V30 2854 H 285.832 -0.768895 1.89495 0
M  V30 2855 H 283.987 -3.24187 2.12089 0
M  V30 2856 H 284.401 -2.97652 4.31861 0
M  V30 2857 H 285.875 -4.38657 3.35088 0
M  V30 2858 H 286.352 -4.05493 1.68738 0
M  V30 2859 H 286.958 -3.01653 2.9981 0
M  V30 2860 N 285.273 -1.31445 -0.869486 0
M  V30 2861 C 286.22 -1.19135 -1.97675 0
M  V30 2862 C 287.19 -0.0770266 -1.65921 0
M  V30 2863 O 288.375 -0.249972 -1.89155 0
M  V30 2864 C 285.515 -0.905149 -3.33018 0
M  V30 2865 C 284.628 -2.10285 -3.77365 0
M  V30 2866 C 283.763 -1.75339 -5.01427 0
M  V30 2867 C 282.802 -2.91515 -5.38224 0
M  V30 2868 N 281.939 -2.56762 -6.53466 0
M  V30 2869 H 286.779 -2.13853 -2.07535 0
M  V30 2870 H 284.316 -1.06379 -1.01597 0
M  V30 2871 H 286.274 -0.719765 -4.10944 0
M  V30 2872 H 284.904 0.00519624 -3.228 0
M  V30 2873 H 283.956 -2.39899 -2.95216 0
M  V30 2874 H 285.268 -2.97237 -4.00564 0
M  V30 2875 H 284.422 -1.53266 -5.87022 0
M  V30 2876 H 283.161 -0.855801 -4.80133 0
M  V30 2877 H 282.166 -3.14237 -4.51149 0
M  V30 2878 H 283.391 -3.81985 -5.61484 0
M  V30 2879 H 281.337 -1.69526 -6.33717 0
M  V30 2880 H 281.254 -3.37243 -6.76612 0
M  V30 2881 H 282.522 -2.38083 -7.42251 0
M  V30 2882 N 286.751 1.08385 -1.14413 0
M  V30 2883 C 287.999 1.80419 -0.910679 0
M  V30 2884 C 288.32 1.86658 0.564243 0
M  V30 2885 O 287.59 1.35985 1.41014 0
M  V30 2886 H 286.17 0.668204 -0.333934 0
M  V30 2887 H 288.832 1.31037 -1.44275 0
M  V30 2888 H 287.928 2.83238 -1.31082 0
M  V30 2889 N 288.23 0.939286 1.26551 0
M  V30 2890 C 289.47 0.5933 1.956 0
M  V30 2891 C 289.834 -0.851515 1.72085 0
M  V30 2892 O 291.035 -1.30634 2.34921 0
M  V30 2893 C 289.306 0.923996 3.45249 0
M  V30 2894 S 290.865 0.688269 4.33369 0
M  V30 2895 H 287.683 0.218591 0.676564 0
M  V30 2896 H 290.285 1.2102 1.5354 0
M  V30 2897 H 288.989 1.97297 3.59864 0
M  V30 2898 H 288.52 0.296746 3.92279 0
M  V30 2899 H 290.535 -0.448434 4.9417 0
M  V30 2900 N 289.708 -1.40897 0.706093 0
M  V30 2901 C 291.119 -1.84023 0.315052 0
M  V30 2902 C 291.47 -1.5906 -1.14866 0
M  V30 2903 O 290.595 -1.06651 -1.88293 0
M  V30 2904 C 291.19 -3.34055 0.565038 0
M  V30 2905 C 289.749 -3.7571 0.227806 0
M  V30 2906 C 288.896 -2.64204 0.842122 0
M  V30 2907 H 291.847 -1.303 0.905963 0
M  V30 2908 H 291.868 -3.80107 -0.172843 0
M  V30 2909 H 291.38 -3.52192 1.63042 0
M  V30 2910 H 289.481 -3.63172 -0.832895 0
M  V30 2911 H 289.594 -4.74103 0.690174 0
M  V30 2912 H 287.958 -2.53255 0.270893 0
M  V30 2913 H 288.741 -2.85155 1.91158 0
M  V30 2914 N 291.186 -0.45159 -1.50991 0
M  V30 2915 C 292.463 0.170707 -1.94854 0
M  V30 2916 C 292.843 1.58788 -1.39103 0
M  V30 2917 O 292.191 2.20913 -0.583921 0
M  V30 2918 C 292.401 0.133929 -3.48743 0
M  V30 2919 C 293.749 0.33248 -4.23296 0
M  V30 2920 O 294.773 0.211403 -3.55572 0
M  V30 2921 O 293.632 0.57486 -5.43468 0
M  V30 2922 H 290.726 0.122264 -0.817912 0
M  V30 2923 H 293.272 -0.510594 -1.61836 0
M  V30 2924 H 292.044 -0.856283 -3.81816 0
M  V30 2925 H 291.667 0.857529 -3.88242 0
M  V30 2926 N 292.664 1.56529 -0.183458 0
M  V30 2927 C 293.91 1.97537 0.459036 0
M  V30 2928 C 294.243 1.06989 1.62071 0
M  V30 2929 O 293.518 0.11948 1.94133 0
M  V30 2930 C 293.801 3.47874 0.930368 0
M  V30 2931 C 293.654 4.492 -0.232317 0
M  V30 2932 C 294.973 4.01612 1.79989 0
M  V30 2933 H 292.092 0.718204 0.165383 0
M  V30 2934 H 294.734 1.88042 -0.272038 0
M  V30 2935 H 292.884 3.56095 1.55333 0
M  V30 2936 H 294.556 4.53027 -0.86972 0
M  V30 2937 H 292.799 4.24657 -0.885928 0
M  V30 2938 H 293.47 5.51823 0.139796 0
M  V30 2939 H 295.946 3.96097 1.27461 0
M  V30 2940 H 294.822 5.07195 2.09867 0
M  V30 2941 H 295.083 3.46163 2.74998 0
M  V30 2942 N 294.142 -0.090211 1.57342 0
M  V30 2943 C 295.074 -1.13541 1.99101 0
M  V30 2944 C 296.087 -1.3604 0.894258 0
M  V30 2945 O 297.276 -1.34606 1.17233 0
M  V30 2946 C 294.376 -2.49001 2.29895 0
M  V30 2947 C 293.549 -2.46712 3.61182 0
M  V30 2948 C 292.608 -3.64136 3.79857 0
M  V30 2949 O 291.634 -3.46405 4.51655 0
M  V30 2950 N 292.836 -4.83802 3.20806 0
M  V30 2951 H 295.601 -0.779942 2.89373 0
M  V30 2952 H 293.162 -0.279125 1.59476 0
M  V30 2953 H 295.154 -3.26166 2.39578 0
M  V30 2954 H 293.724 -2.76619 1.45605 0
M  V30 2955 H 292.944 -1.55058 3.62423 0
M  V30 2956 H 294.232 -2.42265 4.4742 0
M  V30 2957 H 293.63 -5.01112 2.62494 0
M  V30 2958 H 292.187 -5.58543 3.35966 0
M  V30 2959 N 295.62 -1.53406 -0.361157 0
M  V30 2960 C 296.583 -1.79479 -1.42548 0
M  V30 2961 C 297.583 -0.665327 -1.4639 0
M  V30 2962 O 298.773 -0.933549 -1.47073 0
M  V30 2963 C 295.905 -1.92087 -2.8163 0
M  V30 2964 H 297.098 -2.74538 -1.20701 0
M  V30 2965 H 294.651 -1.4455 -0.594546 0
M  V30 2966 H 295.386 -0.991099 -3.08784 0
M  V30 2967 H 295.171 -2.74241 -2.80239 0
M  V30 2968 H 296.661 -2.13836 -3.58697 0
M  V30 2969 N 297.098 0.621204 -1.44841 0
M  V30 2970 C 298.323 1.41244 -1.51871 0
M  V30 2971 C 298.748 1.87519 -0.147764 0
M  V30 2972 O 298.106 1.59334 0.865 0
M  V30 2973 C 298.154 2.60221 -2.49634 0
M  V30 2974 O 297.258 3.60395 -2.00473 0
M  V30 2975 H 296.599 0.42223 -0.512463 0
M  V30 2976 H 299.129 0.757305 -1.90069 0
M  V30 2977 H 299.139 3.0764 -2.67996 0
M  V30 2978 H 297.814 2.25887 -3.4921 0
M  V30 2979 H 296.391 3.19717 -1.91925 0
M  V30 2980 N 298.576 1.31904 0.862503 0
M  V30 2981 C 299.506 1.22782 1.98612 0
M  V30 2982 C 300.487 0.113362 1.69722 0
M  V30 2983 O 301.672 0.299218 1.91881 0
M  V30 2984 C 298.802 0.942058 3.34279 0
M  V30 2985 C 297.756 2.0169 3.77499 0
M  V30 2986 C 297.082 1.58369 5.10709 0
M  V30 2987 C 298.382 3.43096 3.93805 0
M  V30 2988 H 300.076 2.16788 2.06502 0
M  V30 2989 H 297.622 1.04366 0.992154 0
M  V30 2990 H 299.575 0.864818 4.1243 0
M  V30 2991 H 298.299 -0.0336603 3.26583 0
M  V30 2992 H 296.958 2.08416 3.01593 0
M  V30 2993 H 296.606 0.595628 4.99461 0
M  V30 2994 H 296.306 2.30279 5.40597 0
M  V30 2995 H 297.83 1.52067 5.91361 0
M  V30 2996 H 299.244 3.39003 4.62331 0
M  V30 2997 H 297.641 4.13288 4.35101 0
M  V30 2998 H 298.711 3.83334 2.96957 0
M  V30 2999 N 300.054 -1.07777 1.14986 0
M  V30 3000 C 301.465 -1.61766 0.932127 0
M  V30 3001 C 301.816 -1.88974 -0.527581 0
M  V30 3002 O 300.941 -1.65198 -1.39781 0
M  V30 3003 C 301.536 -2.93891 1.68563 0
M  V30 3004 C 300.095 -3.44639 1.5133 0
M  V30 3005 C 299.242 -2.18767 1.704 0
M  V30 3006 H 302.193 -0.909201 1.30074 0
M  V30 3007 H 302.214 -3.62623 1.15259 0
M  V30 3008 H 301.726 -2.74057 2.74799 0
M  V30 3009 H 299.827 -3.69564 0.474702 0
M  V30 3010 H 299.94 -4.20966 2.28746 0
M  V30 3011 H 298.304 -2.28253 1.13016 0
M  V30 3012 H 299.087 -2.01433 2.77992 0
M  V30 3013 N 301.532 -0.945985 -1.26051 0
M  V30 3014 C 302.809 -0.513816 -1.88731 0
M  V30 3015 C 303.189 1.00872 -1.8544 0
M  V30 3016 O 302.537 1.8708 -1.312 0
M  V30 3017 C 302.747 -1.08062 -3.31849 0
M  V30 3018 C 304.095 -1.1522 -4.08668 0
M  V30 3019 O 305.119 -1.03155 -3.40936 0
M  V30 3020 O 303.978 -1.34044 -5.29806 0
M  V30 3021 H 301.072 -0.168193 -0.809716 0
M  V30 3022 H 303.618 -1.03886 -1.34186 0
M  V30 3023 H 302.39 -2.1241 -3.2863 0
M  V30 3024 H 302.013 -0.538307 -3.93939 0
M  V30 3025 N 303.011 1.40521 -0.713556 0
M  V30 3026 C 303.974 2.29098 -0.0684347 0
M  V30 3027 C 304.974 1.45268 0.689472 0
M  V30 3028 O 306.164 1.66205 0.521677 0
M  V30 3029 C 303.296 3.28446 0.913024 0
M  V30 3030 H 304.489 2.87645 -0.84855 0
M  V30 3031 H 302.042 1.48809 -0.47809 0
M  V30 3032 H 302.777 2.74913 1.72027 0
M  V30 3033 H 302.562 3.90327 0.372472 0
M  V30 3034 H 304.052 3.94777 1.36165 0
M  V30 3035 N 304.489 0.459591 1.5075 0
M  V30 3036 C 305.436 -0.340524 2.28274 0
M  V30 3037 C 306.406 -0.997371 1.32822 0
M  V30 3038 O 307.591 -1.01202 1.61749 0
M  V30 3039 C 304.731 -1.42317 3.14388 0
M  V30 3040 C 303.844 -0.782251 4.24859 0
M  V30 3041 C 302.979 -1.84182 4.98247 0
M  V30 3042 C 302.018 -1.18053 6.00608 0
M  V30 3043 N 301.155 -2.18244 6.67319 0
M  V30 3044 H 305.995 0.326899 2.96202 0
M  V30 3045 H 303.532 0.173057 1.46078 0
M  V30 3046 H 305.49 -2.06241 3.62658 0
M  V30 3047 H 304.12 -2.05992 2.4853 0
M  V30 3048 H 303.172 -0.0307404 3.80388 0
M  V30 3049 H 304.484 -0.259663 4.98124 0
M  V30 3050 H 303.638 -2.55714 5.50177 0
M  V30 3051 H 302.377 -2.39819 4.24662 0
M  V30 3052 H 301.382 -0.450776 5.47949 0
M  V30 3053 H 302.607 -0.631202 6.7616 0
M  V30 3054 H 300.553 -2.72919 5.96533 0
M  V30 3055 H 300.47 -1.70938 7.36421 0
M  V30 3056 H 301.738 -2.89191 7.23871 0
M  V30 3057 N 305.967 -1.56429 0.191757 0
M  V30 3058 C 306.93 -2.17707 -0.716688 0
M  V30 3059 C 307.93 -1.13061 -1.14341 0
M  V30 3060 O 309.12 -1.38464 -1.05704 0
M  V30 3061 C 306.252 -2.77644 -1.97804 0
M  V30 3062 H 307.445 -2.99342 -0.1829 0
M  V30 3063 H 304.998 -1.56193 -0.0578566 0
M  V30 3064 H 305.733 -1.99799 -2.55443 0
M  V30 3065 H 305.518 -3.54246 -1.68083 0
M  V30 3066 H 307.008 -3.24708 -2.62592 0
M  V30 3067 N 307.445 0.0818655 -1.57387 0
M  V30 3068 C 308.392 1.09834 -2.0299 0
M  V30 3069 C 309.362 1.39043 -0.908639 0
M  V30 3070 O 310.547 1.50282 -1.17559 0
M  V30 3071 C 307.687 2.40971 -2.47037 0
M  V30 3072 C 306.8 2.18379 -3.7274 0
M  V30 3073 C 305.935 3.43008 -4.0561 0
M  V30 3074 C 304.974 3.15736 -5.24383 0
M  V30 3075 N 304.111 4.32667 -5.52941 0
M  V30 3076 H 308.951 0.702472 -2.89602 0
M  V30 3077 H 306.488 0.33531 -1.43227 0
M  V30 3078 H 308.446 3.1752 -2.70623 0
M  V30 3079 H 307.076 2.78379 -1.63417 0
M  V30 3080 H 306.128 1.32569 -3.56552 0
M  V30 3081 H 307.44 1.94227 -4.59431 0
M  V30 3082 H 306.594 4.27958 -4.30043 0
M  V30 3083 H 305.333 3.70225 -3.17466 0
M  V30 3084 H 304.338 2.2918 -4.99757 0
M  V30 3085 H 305.563 2.8985 -6.14136 0
M  V30 3086 H 303.509 4.59935 -4.67756 0
M  V30 3087 H 303.426 4.11753 -6.34031 0
M  V30 3088 H 304.694 5.18644 -5.81918 0
M  V30 3089 N 308.923 1.53595 0.353017 0
M  V30 3090 C 310.148 1.7462 1.11904 0
M  V30 3091 C 310.573 0.479721 1.8188 0
M  V30 3092 O 309.931 -0.567066 1.72204 0
M  V30 3093 C 309.979 2.92029 2.11545 0
M  V30 3094 O 309.083 2.61516 3.18878 0
M  V30 3095 H 308.424 0.579531 0.324099 0
M  V30 3096 H 310.954 2.00525 0.406301 0
M  V30 3097 H 310.964 3.18551 2.5493 0
M  V30 3098 H 309.639 3.83888 1.60008 0
M  V30 3099 H 308.216 2.45852 2.80377 0
M  V30 3100 N 310.401 -0.613514 1.45168 0
M  V30 3101 C 311.812 -1.19539 1.43413 0
M  V30 3102 C 312.163 -1.95558 0.158632 0
M  V30 3103 O 311.288 -2.0335 -0.740119 0
M  V30 3104 C 311.883 -2.17445 2.59813 0
M  V30 3105 C 310.442 -2.71022 2.61197 0
M  V30 3106 C 309.589 -1.46323 2.35552 0
M  V30 3107 H 312.54 -0.403163 1.53494 0
M  V30 3108 H 312.561 -3.00373 2.33574 0
M  V30 3109 H 312.073 -1.62089 3.52631 0
M  V30 3110 H 310.174 -3.30332 1.7237 0
M  V30 3111 H 310.287 -3.15859 3.60236 0
M  V30 3112 H 308.651 -1.75072 1.84992 0
M  V30 3113 H 309.434 -0.92844 3.30507 0
M  V30 3114 N 311.879 -1.3236 -0.855495 0
M  V30 3115 C 313.29 -1.2056 -1.42556 0
M  V30 3116 C 313.641 0.182209 -1.95352 0
M  V30 3117 O 312.766 1.08088 -1.87472 0
M  V30 3118 C 313.361 -2.1826 -2.59129 0
M  V30 3119 C 311.92 -2.10351 -3.12137 0
M  V30 3120 C 311.067 -2.06674 -1.84882 0
M  V30 3121 H 314.018 -1.442 -0.662727 0
M  V30 3122 H 314.039 -1.78064 -3.36264 0
M  V30 3123 H 313.551 -3.19257 -2.20673 0
M  V30 3124 H 311.652 -1.12599 -3.55179 0
M  V30 3125 H 311.765 -3.00135 -3.73438 0
M  V30 3126 H 310.129 -1.51901 -2.04446 0
M  V30 3127 H 310.912 -3.09451 -1.48643 0
M  V30 3128 N 313.357 1.07166 -1.15556 0
M  V30 3129 C 314.585 1.83514 -0.955519 0
M  V30 3130 C 315 1.82163 0.49621 0
M  V30 3131 O 314.357 1.23441 1.34419 0
M  V30 3132 C 314.408 3.30515 -1.46432 0
M  V30 3133 O 314.129 3.31937 -2.85918 0
M  V30 3134 C 315.63 4.23625 -1.30603 0
M  V30 3135 H 312.85 0.578926 -0.339244 0
M  V30 3136 H 315.394 1.35265 -1.53374 0
M  V30 3137 H 313.549 3.76106 -0.928584 0
M  V30 3138 H 313.963 4.23794 -3.09029 0
M  V30 3139 H 315.437 5.24831 -1.71047 0
M  V30 3140 H 315.914 4.38485 -0.250441 0
M  V30 3141 H 316.52 3.83871 -1.83094 0
M  V30 3142 N 314.835 0.952656 1.25548 0
M  V30 3143 C 315.768 0.415525 2.24385 0
M  V30 3144 C 316.746 -0.502046 1.54655 0
M  V30 3145 O 317.93 -0.436875 1.83368 0
M  V30 3146 C 315.057 -0.401734 3.36309 0
M  V30 3147 C 314.103 0.455949 4.24056 0
M  V30 3148 S 314.936 1.88698 5.01152 0
M  V30 3149 C 316.092 1.07809 6.16545 0
M  V30 3150 H 316.325 1.25315 2.69599 0
M  V30 3151 H 313.858 0.756587 1.34592 0
M  V30 3152 H 315.816 -0.867329 4.01233 0
M  V30 3153 H 314.477 -1.21416 2.89684 0
M  V30 3154 H 313.67 -0.170776 5.03711 0
M  V30 3155 H 313.272 0.856675 3.64056 0
M  V30 3156 H 315.564 0.325816 6.76716 0
M  V30 3157 H 316.507 1.84849 6.83547 0
M  V30 3158 H 316.915 0.60909 5.61204 0
M  V30 3159 N 316.313 -1.40141 0.720998 0
M  V30 3160 C 317.559 -2.01084 0.263231 0
M  V30 3161 C 317.892 -1.57052 -1.14229 0
M  V30 3162 O 317.167 -0.793027 -1.77599 0
M  V30 3163 C 317.45 -3.58401 0.349344 0
M  V30 3164 C 317.303 -4.12491 1.79363 0
M  V30 3165 C 318.622 -4.39231 -0.276351 0
M  V30 3166 H 315.741 -0.730572 0.0971228 0
M  V30 3167 H 318.383 -1.66543 0.914518 0
M  V30 3168 H 316.533 -3.87958 -0.205165 0
M  V30 3169 H 318.205 -3.93711 2.40394 0
M  V30 3170 H 316.448 -3.66576 2.31958 0
M  V30 3171 H 317.119 -5.21646 1.80524 0
M  V30 3172 H 319.595 -4.15637 0.196184 0
M  V30 3173 H 318.471 -5.48586 -0.185681 0
M  V30 3174 H 318.732 -4.20643 -1.36059 0
M  V30 3175 N 317.792 -0.46758 -1.50504 0
M  V30 3176 C 319.069 0.15003 -1.95024 0
M  V30 3177 C 319.449 1.57304 -1.40779 0
M  V30 3178 O 318.797 2.20281 -0.607319 0
M  V30 3179 C 319.007 0.0969324 -3.48865 0
M  V30 3180 C 320.355 0.287565 -4.23625 0
M  V30 3181 O 321.379 0.173678 -3.55776 0
M  V30 3182 O 320.238 0.517186 -5.44047 0
M  V30 3183 H 317.332 0.113582 -0.819163 0
M  V30 3184 H 319.878 -0.52773 -1.61286 0
M  V30 3185 H 318.65 -0.896732 -3.80886 0
M  V30 3186 H 318.273 0.816303 -3.8913 0
M  V30 3187 N 319.27 1.56325 -0.20005 0
M  V30 3188 C 320.495 2.02548 0.44597 0
M  V30 3189 C 320.92 1.07922 1.5406 0
M  V30 3190 O 320.278 0.0635775 1.81188 0
M  V30 3191 C 320.326 3.47175 0.974761 0
M  V30 3192 O 319.43 3.55671 2.08739 0
M  V30 3193 H 318.771 0.655862 0.103638 0
M  V30 3194 H 321.301 2.02201 -0.312381 0
M  V30 3195 H 321.311 3.87067 1.2901 0
M  V30 3196 H 319.986 4.15538 0.17347 0
M  V30 3197 H 318.563 3.27657 1.78032 0
M  V30 3198 N 320.748 -0.0735177 1.57428 0
M  V30 3199 C 321.678 -1.0879 2.06608 0
M  V30 3200 C 322.659 -1.40473 0.959237 0
M  V30 3201 O 323.844 -1.5013 1.23185 0
M  V30 3202 C 320.974 -2.40183 2.50857 0
M  V30 3203 C 319.928 -2.22858 3.65402 0
M  V30 3204 C 319.254 -3.59619 3.957 0
M  V30 3205 C 320.554 -1.65123 4.95511 0
M  V30 3206 H 322.248 -0.678673 2.91607 0
M  V30 3207 H 319.794 -0.325013 1.40284 0
M  V30 3208 H 321.747 -3.11437 2.83874 0
M  V30 3209 H 320.471 -2.83083 1.62885 0
M  V30 3210 H 319.13 -1.54045 3.32664 0
M  V30 3211 H 318.778 -4.00086 3.04861 0
M  V30 3212 H 318.478 -3.48866 4.72828 0
M  V30 3213 H 320.002 -4.32306 4.31212 0
M  V30 3214 H 321.416 -2.26241 5.26771 0
M  V30 3215 H 319.813 -1.65071 5.7695 0
M  V30 3216 H 320.883 -0.612559 4.81015 0
M  V30 3217 N 322.226 -1.5378 -0.344866 0
M  V30 3218 C 323.156 -1.84662 -1.42906 0
M  V30 3219 C 324.137 -0.701648 -1.54955 0
M  V30 3220 O 325.322 -0.953438 -1.69184 0
M  V30 3221 C 322.452 -2.05503 -2.79974 0
M  V30 3222 C 321.406 -3.21318 -2.82734 0
M  V30 3223 C 320.732 -3.2749 -4.22675 0
M  V30 3224 C 322.032 -4.59456 -2.48389 0
M  V30 3225 H 323.726 -2.75461 -1.17311 0
M  V30 3226 H 321.272 -1.32542 -0.562896 0
M  V30 3227 H 323.225 -2.25691 -3.55867 0
M  V30 3228 H 321.949 -1.11434 -3.07002 0
M  V30 3229 H 320.608 -3.00984 -2.09294 0
M  V30 3230 H 320.256 -2.31019 -4.4681 0
M  V30 3231 H 319.956 -4.05316 -4.25433 0
M  V30 3232 H 321.48 -3.49887 -5.00412 0
M  V30 3233 H 322.894 -4.79667 -3.13995 0
M  V30 3234 H 321.291 -5.39675 -2.62432 0
M  V30 3235 H 322.361 -4.63155 -1.4358 0
M  V30 3236 N 323.704 0.605807 -1.45491 0
M  V30 3237 C 324.667 1.69836 -1.5391 0
M  V30 3238 C 325.667 1.55261 -0.418424 0
M  V30 3239 O 326.857 1.60296 -0.681965 0
M  V30 3240 C 323.989 3.09117 -1.43734 0
M  V30 3241 H 325.182 1.63738 -2.51257 0
M  V30 3242 H 322.735 0.821689 -1.32959 0
M  V30 3243 H 323.47 3.20791 -0.475788 0
M  V30 3244 H 323.255 3.21104 -2.25021 0
M  V30 3245 H 324.745 3.88696 -1.52661 0
M  V30 3246 N 325.182 1.32811 0.848464 0
M  V30 3247 C 326.428 1.23907 1.60546 0
M  V30 3248 C 326.761 -0.197161 1.93197 0
M  V30 3249 O 326.036 -1.13596 1.5788 0
M  V30 3250 C 326.319 2.10489 2.92175 0
M  V30 3251 C 326.172 3.62522 2.66266 0
M  V30 3252 C 327.491 1.97075 3.93509 0
M  V30 3253 H 324.61 0.451459 0.58254 0
M  V30 3254 H 327.252 1.62818 0.979296 0
M  V30 3255 H 325.402 1.77434 3.45614 0
M  V30 3256 H 327.074 4.05821 2.19334 0
M  V30 3257 H 325.317 3.84879 2.00126 0
M  V30 3258 H 325.988 4.18437 3.6002 0
M  V30 3259 H 328.464 2.26045 3.49346 0
M  V30 3260 H 327.34 2.59923 4.83457 0
M  V30 3261 H 327.601 0.940186 4.31987 0
M  V30 3262 N 326.66 -1.06551 1.16123 0
M  V30 3263 C 327.888 -1.83005 0.965237 0
M  V30 3264 C 328.303 -1.82423 -0.486542 0
M  V30 3265 O 327.66 -1.24152 -1.33763 0
M  V30 3266 C 327.711 -3.29733 1.48183 0
M  V30 3267 O 327.432 -3.30416 2.87674 0
M  V30 3268 C 328.933 -4.22926 1.32848 0
M  V30 3269 H 326.153 -0.577118 0.342309 0
M  V30 3270 H 328.697 -1.3445 1.54089 0
M  V30 3271 H 326.852 -3.75609 0.948517 0
M  V30 3272 H 327.266 -4.22149 3.11272 0
M  V30 3273 H 328.74 -5.23916 1.73827 0
M  V30 3274 H 329.217 -4.38346 0.273692 0
M  V30 3275 H 329.823 -3.82894 1.85127 0
M  V30 3276 N 328.138 -0.959301 -1.25041 0
M  V30 3277 C 329.068 -0.501388 -2.28053 0
M  V30 3278 C 330.049 0.454673 -1.63911 0
M  V30 3279 O 331.234 0.352618 -1.90972 0
M  V30 3280 C 328.364 0.217224 -3.4662 0
M  V30 3281 C 327.318 -0.654034 -4.22973 0
M  V30 3282 C 326.644 0.195589 -5.34342 0
M  V30 3283 C 327.944 -1.93447 -4.85155 0
M  V30 3284 H 329.638 -1.36238 -2.66608 0
M  V30 3285 H 327.184 -0.656534 -1.28163 0
M  V30 3286 H 329.137 0.548732 -4.17812 0
M  V30 3287 H 327.861 1.1125 -3.07068 0
M  V30 3288 H 326.52 -0.968693 -3.5357 0
M  V30 3289 H 326.168 1.09076 -4.91031 0
M  V30 3290 H 325.868 -0.384091 -5.86343 0
M  V30 3291 H 327.392 0.521958 -6.08365 0
M  V30 3292 H 328.806 -1.66908 -5.48466 0
M  V30 3293 H 327.203 -2.46018 -5.47353 0
M  V30 3294 H 328.273 -2.63466 -4.07079 0
M  V30 3295 N 329.616 1.39756 -0.72842 0
M  V30 3296 C 330.579 2.29012 -0.0927297 0
M  V30 3297 C 331.579 1.45992 0.674025 0
M  V30 3298 O 332.769 1.66749 0.50402 0
M  V30 3299 C 329.901 3.29396 0.878137 0
M  V30 3300 H 331.094 2.86729 -0.879011 0
M  V30 3301 H 328.647 1.48293 -0.493847 0
M  V30 3302 H 329.382 2.76722 1.69101 0
M  V30 3303 H 329.167 3.907 0.331051 0
M  V30 3304 H 330.657 3.96199 1.3197 0
M  V30 3305 N 331.094 0.475555 1.50254 0
M  V30 3306 C 332.342 -0.077738 2.0195 0
M  V30 3307 C 332.663 -1.39813 1.35931 0
M  V30 3308 O 331.933 -1.89249 0.506123 0
M  V30 3309 H 330.513 -0.031719 0.746326 0
M  V30 3310 H 333.175 0.626995 1.84539 0
M  V30 3311 H 332.271 -0.225995 3.11281 0
M  V30 3312 N 332.573 -1.56217 0.208337 0
M  V30 3313 C 333.521 -2.21053 -0.723769 0
M  V30 3314 C 334.515 -1.18578 -1.20978 0
M  V30 3315 O 335.721 -1.36691 -1.17114 0
M  V30 3316 H 332.096 -0.708595 -0.251788 0
M  V30 3317 H 334.067 -2.98006 -0.153365 0
M  V30 3318 C 332.816 -2.89417 -1.927 0
M  V30 3319 H 332.139 -3.68019 -1.56212 0
M  V30 3320 H 333.579 -3.38201 -2.55727 0
M  V30 3321 C 332.038 -1.91166 -2.77411 0
M  V30 3322 O 332.568 -1.42026 -3.75754 0
M  V30 3323 N 330.774 -1.59105 -2.43175 0
M  V30 3324 H 330.321 -1.99259 -1.63259 0
M  V30 3325 H 330.279 -0.936255 -3.00136 0
M  V30 3326 N 334.051 0.0651679 -1.57465 0
M  V30 3327 C 334.981 1.07693 -2.07182 0
M  V30 3328 C 335.962 1.39962 -0.966673 0
M  V30 3329 O 337.147 1.49475 -1.2398 0
M  V30 3330 C 334.277 2.3885 -2.52127 0
M  V30 3331 C 333.231 2.20917 -3.66579 0
M  V30 3332 C 332.557 3.57515 -3.97601 0
M  V30 3333 C 333.857 1.62493 -4.9638 0
M  V30 3334 H 335.551 0.663199 -2.91962 0
M  V30 3335 H 333.097 0.317569 -1.40455 0
M  V30 3336 H 335.05 3.09928 -2.85522 0
M  V30 3337 H 333.774 2.82215 -1.64384 0
M  V30 3338 H 332.433 1.52279 -3.33477 0
M  V30 3339 H 332.081 3.98463 -3.06979 0
M  V30 3340 H 331.781 3.46353 -4.74672 0
M  V30 3341 H 333.305 4.30013 -4.33499 0
M  V30 3342 H 334.719 2.23445 -5.27963 0
M  V30 3343 H 333.116 1.62009 -5.77818 0
M  V30 3344 H 334.186 0.587041 -4.81333 0
M  V30 3345 N 335.529 1.53961 0.336706 0
M  V30 3346 C 336.777 1.71197 1.07405 0
M  V30 3347 C 337.098 0.481475 1.88962 0
M  V30 3348 O 336.368 -0.504585 1.8929 0
M  V30 3349 H 334.948 0.631185 0.399517 0
M  V30 3350 H 337.61 1.91232 0.376323 0
M  V30 3351 H 336.706 2.58587 1.74755 0
M  V30 3352 N 337.007 -0.598083 1.45811 0
M  V30 3353 C 337.937 -1.71873 1.58057 0
M  V30 3354 C 338.918 -1.64533 0.431615 0
M  V30 3355 O 340.103 -1.82787 0.65595 0
M  V30 3356 C 337.233 -3.10495 1.55597 0
M  V30 3357 C 336.187 -3.32654 2.69305 0
M  V30 3358 C 335.513 -4.71646 2.51902 0
M  V30 3359 C 336.813 -3.21981 4.11248 0
M  V30 3360 H 338.507 -1.61881 2.51863 0
M  V30 3361 H 336.053 -0.777372 1.21214 0
M  V30 3362 H 338.006 -3.88699 1.6276 0
M  V30 3363 H 336.73 -3.2135 0.583255 0
M  V30 3364 H 335.389 -2.56843 2.61586 0
M  V30 3365 H 335.037 -4.79246 1.52748 0
M  V30 3366 H 334.737 -4.87426 3.2816 0
M  V30 3367 H 336.261 -5.52038 2.60933 0
M  V30 3368 H 337.675 -3.90049 4.20161 0
M  V30 3369 H 336.072 -3.49289 4.87972 0
M  V30 3370 H 337.142 -2.1928 4.32486 0
M  V30 3371 N 338.485 -1.33259 -0.841409 0
M  V30 3372 C 339.713 -1.27605 -1.62864 0
M  V30 3373 C 340.128 0.153507 -1.88175 0
M  V30 3374 O 339.485 1.09485 -1.46011 0
M  V30 3375 C 339.536 -2.04596 -2.98031 0
M  V30 3376 O 339.257 -3.41975 -2.73834 0
M  V30 3377 C 340.758 -2.06122 -3.92465 0
M  V30 3378 H 337.978 -0.439718 -0.506842 0
M  V30 3379 H 340.522 -1.75591 -1.04824 0
M  V30 3380 H 338.677 -1.60299 -3.5268 0
M  V30 3381 H 339.091 -3.81549 -3.59889 0
M  V30 3382 H 340.565 -2.64451 -4.84531 0
M  V30 3383 H 341.042 -1.05083 -4.26444 0
M  V30 3384 H 341.648 -2.50427 -3.43753 0
M  V30 3385 N 339.963 1.05934 -1.16686 0
M  V30 3386 C 341.21 1.788 -0.950622 0
M  V30 3387 C 341.538 1.87384 0.521305 0
M  V30 3388 O 340.793 1.36438 1.40297 0
M  V30 3389 C 341.092 3.23105 -1.52767 0
M  V30 3390 C 340.758 3.34594 -3.02254 0
M  V30 3391 C 339.42 3.37437 -3.43059 0
M  V30 3392 C 341.772 3.36219 -3.98254 0
M  V30 3393 C 339.1 3.39525 -4.78477 0
M  V30 3394 C 341.452 3.39845 -5.33562 0
M  V30 3395 C 340.116 3.40971 -5.73842 0
M  V30 3396 H 339.386 0.654275 -0.347857 0
M  V30 3397 H 342.033 1.24555 -1.45459 0
M  V30 3398 H 340.338 3.80227 -0.94524 0
M  V30 3399 H 342.035 3.7809 -1.336 0
M  V30 3400 H 338.625 3.3309 -2.6972 0
M  V30 3401 H 342.809 3.33231 -3.67792 0
M  V30 3402 H 338.065 3.38703 -5.09009 0
M  V30 3403 H 342.239 3.4005 -6.07733 0
M  V30 3404 H 339.866 3.42342 -6.78753 0
M  V30 3405 N 341.441 0.965919 1.2453 0
M  V30 3406 C 342.371 0.513476 2.27784 0
M  V30 3407 C 343.352 -0.445974 1.6415 0
M  V30 3408 O 344.537 -0.342485 1.91156 0
M  V30 3409 C 341.667 -0.198839 3.4673 0
M  V30 3410 C 340.621 0.676456 4.2262 0
M  V30 3411 C 339.947 -0.167248 5.34438 0
M  V30 3412 C 341.247 1.96017 4.84123 0
M  V30 3413 H 342.941 1.3765 2.65881 0
M  V30 3414 H 340.487 0.663321 1.27813 0
M  V30 3415 H 342.44 -0.526567 4.18097 0
M  V30 3416 H 341.164 -1.0962 3.07654 0
M  V30 3417 H 339.823 0.98743 3.53052 0
M  V30 3418 H 339.471 -1.0647 4.91603 0
M  V30 3419 H 339.171 0.415181 5.86131 0
M  V30 3420 H 340.695 -0.489688 6.08633 0
M  V30 3421 H 342.109 1.69814 5.47573 0
M  V30 3422 H 340.506 2.48918 5.4604 0
M  V30 3423 H 341.576 2.65622 4.05676 0
M  V30 3424 N 342.919 -1.39368 0.735821 0
M  V30 3425 C 344.335 -1.54204 0.411492 0
M  V30 3426 C 344.535 -1.70268 -1.07755 0
M  V30 3427 O 343.591 -1.70364 -1.86366 0
M  V30 3428 C 344.904 -2.75925 1.19523 0
M  V30 3429 C 346.452 -2.89761 1.18354 0
M  V30 3430 C 346.927 -4.14421 1.94986 0
M  V30 3431 N 348.418 -4.21462 1.92156 0
M  V30 3432 C 349.153 -5.16871 2.48258 0
M  V30 3433 N 348.649 -6.18063 3.13001 0
M  V30 3434 N 350.442 -5.09093 2.38287 0
M  V30 3435 H 342.593 -1.27189 1.70108 0
M  V30 3436 H 344.856 -0.616517 0.720147 0
M  V30 3437 H 344.562 -2.70401 2.24892 0
M  V30 3438 H 344.436 -3.68614 0.800222 0
M  V30 3439 H 346.823 -2.94777 0.137975 0
M  V30 3440 H 346.904 -1.98133 1.61793 0
M  V30 3441 H 346.548 -4.10166 2.99543 0
M  V30 3442 H 346.478 -5.05095 1.48953 0
M  V30 3443 H 348.969 -3.48979 1.44991 0
M  V30 3444 H 349.282 -6.87326 3.53275 0
M  V30 3445 H 347.627 -6.18448 3.17091 0
M  V30 3446 H 350.818 -4.28973 1.8735 0
M  V30 3447 H 350.991 -5.83272 2.82308 0
M  V30 3448 N 344.397 -0.483516 -1.5 0
M  V30 3449 C 345.645 0.067027 -2.01989 0
M  V30 3450 C 345.966 1.3909 -1.36671 0
M  V30 3451 O 345.236 1.88978 -0.516152 0
M  V30 3452 H 343.816 0.0277606 -0.746484 0
M  V30 3453 H 346.478 -0.636773 -1.84204 0
M  V30 3454 H 345.574 0.209484 -3.11396 0
M  V30 3455 N 345.875 1.56104 -0.216619 0
M  V30 3456 C 347.1 2.0301 0.424462 0
M  V30 3457 C 347.525 1.0955 1.52907 0
M  V30 3458 O 346.883 0.0827914 1.81111 0
M  V30 3459 C 346.931 3.4819 0.937883 0
M  V30 3460 O 346.035 3.57865 2.04955 0
M  V30 3461 H 345.376 0.656925 0.0966755 0
M  V30 3462 H 347.906 2.01859 -0.33381 0
M  V30 3463 H 347.916 3.88413 1.24897 0
M  V30 3464 H 346.591 4.15699 0.129387 0
M  V30 3465 H 345.168 3.29527 1.74546 0
M  V30 3466 N 347.353 -0.0568162 1.57498 0
M  V30 3467 C 348.285 -1.09292 2.01464 0
M  V30 3468 C 349.298 -1.34112 0.922913 0
M  V30 3469 O 350.487 -1.32089 1.20062 0
M  V30 3470 C 347.587 -2.44068 2.35125 0
M  V30 3471 C 346.76 -2.38995 3.66333 0
M  V30 3472 C 345.819 -3.55997 3.87495 0
M  V30 3473 O 344.845 -3.36746 4.58901 0
M  V30 3474 N 346.047 -4.76888 3.30996 0
M  V30 3475 H 348.812 -0.718386 2.90963 0
M  V30 3476 H 346.373 -0.245235 1.60032 0
M  V30 3477 H 348.365 -3.21011 2.46443 0
M  V30 3478 H 346.935 -2.73468 1.5144 0
M  V30 3479 H 346.155 -1.47336 3.65631 0
M  V30 3480 H 347.443 -2.3272 4.52458 0
M  V30 3481 H 346.841 -4.95431 2.73065 0
M  V30 3482 H 345.398 -5.51291 3.47738 0
M  V30 3483 N 348.832 -1.54138 -0.328536 0
M  V30 3484 C 350.06 -1.76062 -1.08673 0
M  V30 3485 C 350.475 -0.506852 -1.81869 0
M  V30 3486 O 349.832 0.522223 -1.74869 0
M  V30 3487 C 349.883 -2.95054 -2.08866 0
M  V30 3488 O 349.604 -4.15583 -1.38644 0
M  V30 3489 C 351.105 -3.2915 -2.96943 0
M  V30 3490 H 348.325 -0.587889 -0.323461 0
M  V30 3491 H 350.869 -2.0101 -0.376175 0
M  V30 3492 H 349.024 -2.72394 -2.75464 0
M  V30 3493 H 349.438 -4.82481 -2.05699 0
M  V30 3494 H 350.912 -4.15723 -3.63151 0
M  V30 3495 H 351.389 -2.461 -3.63774 0
M  V30 3496 H 351.995 -3.53871 -2.35914 0
M  V30 3497 N 350.31 0.590341 -1.46126 0
M  V30 3498 C 351.242 1.71427 -1.52136 0
M  V30 3499 C 352.255 1.57542 -0.41042 0
M  V30 3500 O 353.444 1.65106 -0.678389 0
M  V30 3501 C 350.544 3.09605 -1.37834 0
M  V30 3502 C 349.717 3.49566 -2.62912 0
M  V30 3503 C 348.776 4.66773 -2.42918 0
M  V30 3504 O 347.802 4.73019 -3.1661 0
M  V30 3505 N 349.004 5.61161 -1.4859 0
M  V30 3506 H 351.769 1.66728 -2.49042 0
M  V30 3507 H 349.33 0.776113 -1.42085 0
M  V30 3508 H 351.322 3.85796 -1.22243 0
M  V30 3509 H 349.892 3.08714 -0.491393 0
M  V30 3510 H 349.112 2.63158 -2.93499 0
M  V30 3511 H 350.4 3.73028 -3.46017 0
M  V30 3512 H 349.798 5.58844 -0.87808 0
M  V30 3513 H 348.355 6.36814 -1.38965 0
M  V30 3514 N 351.788 1.33704 0.83433 0
M  V30 3515 C 353.013 1.28615 1.62705 0
M  V30 3516 C 353.438 -0.139242 1.87584 0
M  V30 3517 O 352.796 -1.09734 1.4432 0
M  V30 3518 C 352.844 2.07139 2.95171 0
M  V30 3519 O 351.948 1.4331 3.86699 0
M  V30 3520 H 351.289 0.44226 0.49528 0
M  V30 3521 H 353.819 1.76335 1.03766 0
M  V30 3522 H 353.829 2.18073 3.44831 0
M  V30 3523 H 352.504 3.10779 2.76386 0
M  V30 3524 H 351.081 1.4105 3.45195 0
M  V30 3525 N 353.266 -1.05314 1.17247 0
M  V30 3526 C 354.216 -2.11313 0.856196 0
M  V30 3527 C 355.2 -1.60013 -0.168694 0
M  V30 3528 O 356.392 -1.76968 0.0335624 0
M  V30 3529 C 353.521 -3.41301 0.369917 0
M  V30 3530 C 352.607 -3.99401 1.42616 0
M  V30 3531 N 352.998 -4.31481 2.63928 0
M  V30 3532 C 351.296 -4.27126 1.28373 0
M  V30 3533 C 351.997 -4.77799 3.31787 0
M  V30 3534 N 350.973 -4.77843 2.59166 0
M  V30 3535 H 354.775 -2.33976 1.77856 0
M  V30 3536 H 352.289 -1.2295 1.06099 0
M  V30 3537 H 354.286 -4.16713 0.124897 0
M  V30 3538 H 352.946 -3.20072 -0.546253 0
M  V30 3539 H 353.957 -4.21519 3.00902 0
M  V30 3540 H 350.634 -4.15289 0.429111 0
M  V30 3541 H 352.024 -5.11743 4.35395 0
M  V30 3542 N 354.744 -0.972509 -1.24016 0
M  V30 3543 C 356.155 -0.67517 -1.74064 0
M  V30 3544 C 356.506 0.808939 -1.78747 0
M  V30 3545 O 355.631 1.63286 -1.42009 0
M  V30 3546 C 356.226 -1.21889 -3.16115 0
M  V30 3547 C 354.785 -0.971358 -3.6365 0
M  V30 3548 C 353.932 -1.35134 -2.42145 0
M  V30 3549 H 356.883 -1.14727 -1.09651 0
M  V30 3550 H 356.904 -0.587489 -3.75937 0
M  V30 3551 H 356.416 -2.29906 -3.12674 0
M  V30 3552 H 354.517 0.0930686 -3.72484 0
M  V30 3553 H 354.63 -1.62039 -4.50866 0
M  V30 3554 H 352.994 -0.769751 -2.4279 0
M  V30 3555 H 353.777 -2.4411 -2.41381 0
M  V30 3556 N 356.222 1.38976 -0.743202 0
M  V30 3557 C 357.499 1.94351 -0.220705 0
M  V30 3558 C 357.879 1.67935 1.2791 0
M  V30 3559 O 357.227 1.01211 2.04862 0
M  V30 3560 C 357.437 3.44426 -0.563171 0
M  V30 3561 C 358.785 4.2144 -0.517046 0
M  V30 3562 O 359.809 3.52661 -0.500846 0
M  V30 3563 O 358.668 5.44032 -0.518806 0
M  V30 3564 H 355.762 0.825879 -0.043047 0
M  V30 3565 H 358.308 1.48429 -0.822618 0
M  V30 3566 H 357.08 3.5712 -1.59941 0
M  V30 3567 H 356.703 3.97543 0.0672883 0
M  V30 3568 N 357.7 0.491464 1.49741 0
M  V30 3569 C 358.63 -0.28154 2.31796 0
M  V30 3570 C 359.611 -0.971473 1.3963 0
M  V30 3571 O 360.796 -0.964719 1.68543 0
M  V30 3572 C 357.926 -1.35203 3.19902 0
M  V30 3573 C 356.88 -0.782529 4.20786 0
M  V30 3574 C 356.206 -1.95283 4.97764 0
M  V30 3575 C 357.506 0.21999 5.21837 0
M  V30 3576 H 359.2 0.403355 2.96671 0
M  V30 3577 H 356.746 0.195425 1.42668 0
M  V30 3578 H 358.699 -1.90045 3.76113 0
M  V30 3579 H 357.423 -2.06598 2.52953 0
M  V30 3580 H 356.082 -0.255928 3.65706 0
M  V30 3581 H 355.73 -2.65423 4.2727 0
M  V30 3582 H 355.43 -1.57789 5.66018 0
M  V30 3583 H 356.954 -2.50577 5.56816 0
M  V30 3584 H 358.368 -0.23996 5.72798 0
M  V30 3585 H 356.765 0.51026 5.97927 0
M  V30 3586 H 357.835 1.13911 4.7133 0
M  V30 3587 N 359.178 -1.55987 0.224894 0
M  V30 3588 C 360.426 -1.97998 -0.405099 0
M  V30 3589 C 360.747 -1.11387 -1.60056 0
M  V30 3590 O 360.017 -0.191645 -1.9496 0
M  V30 3591 H 358.597 -0.731235 -0.152658 0
M  V30 3592 H 361.259 -1.92279 0.318567 0
M  V30 3593 H 360.355 -3.03463 -0.729167 0
M  V30 3594 N 360.656 0.0484629 -1.57525 0
M  V30 3595 C 361.884 0.755421 -1.92616 0
M  V30 3596 C 362.299 1.69919 -0.822984 0
M  V30 3597 O 361.656 1.81378 0.202085 0
M  V30 3598 C 361.707 1.52915 -3.27566 0
M  V30 3599 O 361.428 0.62329 -4.33644 0
M  V30 3600 C 362.929 2.33502 -3.76818 0
M  V30 3601 H 360.149 0.213465 -0.63614 0
M  V30 3602 H 362.693 0.0117698 -2.04497 0
M  V30 3603 H 360.848 2.22486 -3.17142 0
M  V30 3604 H 361.262 1.16383 -5.11425 0
M  V30 3605 H 362.736 2.83214 -4.73808 0
M  V30 3606 H 363.213 3.14068 -3.07014 0
M  V30 3607 H 363.819 1.69043 -3.90262 0
M  V30 3608 N 362.134 1.5431 0.320358 0
M  V30 3609 C 363.044 1.86946 1.41734 0
M  V30 3610 C 364.06 0.761689 1.56443 0
M  V30 3611 O 365.236 1.05629 1.71477 0
M  V30 3612 C 362.301 2.09293 2.76401 0
M  V30 3613 C 361.362 3.33082 2.70841 0
M  V30 3614 C 360.595 3.54353 3.99086 0
M  V30 3615 O 360.818 2.79002 4.97508 0
M  V30 3616 O 359.752 4.47838 4.0215 0
M  V30 3617 H 363.578 2.80232 1.17062 0
M  V30 3618 H 361.163 1.40255 0.514673 0
M  V30 3619 H 363.045 2.25303 3.56113 0
M  V30 3620 H 361.72 1.19194 3.00956 0
M  V30 3621 H 360.627 3.22454 1.89668 0
M  V30 3622 H 361.96 4.23249 2.5124 0
M  V30 3623 N 363.613 -0.582584 1.46437 0
M  V30 3624 C 364.861 -1.33814 1.51453 0
M  V30 3625 C 365.182 -1.94277 0.167792 0
M  V30 3626 O 364.452 -1.78566 -0.805677 0
M  V30 3627 H 363.032 -0.496838 0.557818 0
M  V30 3628 H 365.694 -0.682281 1.82568 0
M  V30 3629 H 364.79 -2.14479 2.26728 0
M  V30 3630 N 365.091 -1.34144 -0.827227 0
M  V30 3631 C 366.331 -1.27603 -1.59677 0
M  V30 3632 C 366.695 0.153035 -1.91389 0
M  V30 3633 O 367.896 0.342566 -2.66608 0
M  V30 3634 C 366.167 -2.13784 -2.86411 0
M  V30 3635 S 367.726 -2.24552 -3.76991 0
M  V30 3636 H 364.544 -0.453789 -0.547354 0
M  V30 3637 H 367.146 -1.69309 -0.977479 0
M  V30 3638 H 365.85 -3.16627 -2.61104 0
M  V30 3639 H 365.381 -1.72959 -3.5334 0
M  V30 3640 H 367.396 -1.41514 -4.75593 0
M  V30 3641 N 366.569 1.04691 -1.17803 0
M  V30 3642 C 367.815 1.78181 -0.980977 0
M  V30 3643 C 368.17 1.86191 0.484825 0
M  V30 3644 O 367.463 1.35436 1.35527 0
M  V30 3645 C 367.657 3.21467 -1.56186 0
M  V30 3646 C 367.486 3.27422 -3.08261 0
M  V30 3647 C 366.256 3.36415 -3.77032 0
M  V30 3648 C 368.454 3.15947 -4.0581 0
M  V30 3649 N 366.436 3.31554 -5.16667 0
M  V30 3650 C 367.807 3.18514 -5.31929 0
M  V30 3651 C 369.862 2.99945 -3.97413 0
M  V30 3652 C 368.565 3.06723 -6.50625 0
M  V30 3653 C 370.591 2.89497 -5.15699 0
M  V30 3654 C 369.953 2.92702 -6.40706 0
M  V30 3655 H 366.052 0.6641 -0.412911 0
M  V30 3656 H 368.636 1.24762 -1.49474 0
M  V30 3657 H 366.807 3.73245 -1.07436 0
M  V30 3658 H 368.539 3.8322 -1.30093 0
M  V30 3659 H 365.294 3.41887 -3.27735 0
M  V30 3660 H 365.718 3.3258 -5.89678 0
M  V30 3661 H 370.36 2.96302 -3.01604 0
M  V30 3662 H 368.078 3.0912 -7.46639 0
M  V30 3663 H 371.664 2.78179 -5.10987 0
M  V30 3664 H 370.544 2.84697 -7.30696 0
M  V30 3665 N 368.047 0.979072 1.23499 0
M  V30 3666 C 369.324 0.563674 1.87302 0
M  V30 3667 C 369.704 -0.959199 1.88049 0
M  V30 3668 O 369.052 -1.83535 1.36114 0
M  V30 3669 C 369.262 1.16822 3.28867 0
M  V30 3670 C 370.61 1.26014 4.0547 0
M  V30 3671 O 371.634 1.12158 3.38082 0
M  V30 3672 O 370.493 1.48044 5.26066 0
M  V30 3673 H 367.587 0.189602 0.804972 0
M  V30 3674 H 370.133 1.07407 1.31384 0
M  V30 3675 H 368.905 2.21049 3.22883 0
M  V30 3676 H 368.528 0.642564 3.92373 0
M  V30 3677 N 369.525 -1.3858 0.750561 0
M  V30 3678 C 370.457 -2.29057 0.0810714 0
M  V30 3679 C 371.47 -1.47596 -0.686973 0
M  V30 3680 O 372.659 -1.70495 -0.528563 0
M  V30 3681 C 369.759 -3.26475 -0.909247 0
M  V30 3682 C 368.932 -4.36945 -0.199478 0
M  V30 3683 C 367.991 -5.14572 -1.10011 0
M  V30 3684 O 367.017 -5.66321 -0.57177 0
M  V30 3685 N 368.219 -5.27262 -2.42849 0
M  V30 3686 H 370.984 -2.87153 0.858087 0
M  V30 3687 H 368.545 -1.50328 0.60109 0
M  V30 3688 H 370.537 -3.75285 -1.51471 0
M  V30 3689 H 369.107 -2.69298 -1.58736 0
M  V30 3690 H 368.327 -3.8981 0.586664 0
M  V30 3691 H 369.615 -5.07963 0.291783 0
M  V30 3692 H 369.013 -4.86763 -2.88233 0
M  V30 3693 H 367.57 -5.79456 -2.98453 0
M  V30 3694 N 371.003 -0.499398 -1.49478 0
M  V30 3695 C 371.933 0.269244 -2.31943 0
M  V30 3696 C 372.914 0.964054 -1.40143 0
M  V30 3697 O 374.099 0.955767 -1.69052 0
M  V30 3698 C 371.229 1.33504 -3.20615 0
M  V30 3699 C 370.183 0.760202 -4.21195 0
M  V30 3700 C 369.509 1.9264 -4.98792 0
M  V30 3701 C 370.809 -0.247661 -5.21712 0
M  V30 3702 H 372.503 -0.419082 -2.96452 0
M  V30 3703 H 370.049 -0.202988 -1.42562 0
M  V30 3704 H 372.002 1.88048 -3.77115 0
M  V30 3705 H 370.726 2.05253 -2.54045 0
M  V30 3706 H 369.385 0.23653 -3.65836 0
M  V30 3707 H 369.033 2.63154 -4.28671 0
M  V30 3708 H 368.733 1.54785 -5.66847 0
M  V30 3709 H 370.257 2.4762 -5.58137 0
M  V30 3710 H 371.671 0.209579 -5.72917 0
M  V30 3711 H 370.068 -0.541962 -5.97648 0
M  V30 3712 H 371.138 -1.16409 -4.7072 0
M  V30 3713 N 372.481 1.55866 -0.233164 0
M  V30 3714 C 373.706 2.03449 0.402906 0
M  V30 3715 C 374.131 1.11166 1.51736 0
M  V30 3716 O 373.489 0.101996 1.81013 0
M  V30 3717 C 373.537 3.49165 0.9009 0
M  V30 3718 O 372.641 3.60019 2.01147 0
M  V30 3719 H 371.982 0.657913 0.0897025 0
M  V30 3720 H 374.512 2.01493 -0.355201 0
M  V30 3721 H 374.522 3.89716 1.2077 0
M  V30 3722 H 373.197 4.15813 0.0852889 0
M  V30 3723 H 371.774 3.3136 1.71042 0
M  V30 3724 N 373.959 -0.0401083 1.57549 0
M  V30 3725 C 374.922 -1.02871 2.04817 0
M  V30 3726 C 375.922 -1.29708 0.950388 0
M  V30 3727 O 377.112 -1.24897 1.21435 0
M  V30 3728 C 374.244 -2.36443 2.45576 0
M  V30 3729 H 375.437 -0.620631 2.93408 0
M  V30 3730 H 372.99 -0.286667 1.53649 0
M  V30 3731 H 373.725 -2.82021 1.60108 0
M  V30 3732 H 373.51 -2.18296 3.25713 0
M  V30 3733 H 375 -3.07441 2.82612 0
M  V30 3734 N 375.437 -1.54477 -0.31217 0
M  V30 3735 C 376.848 -1.64344 -0.885891 0
M  V30 3736 C 377.199 -0.54485 -1.88483 0
M  V30 3737 O 376.324 0.320387 -2.14015 0
M  V30 3738 C 376.919 -2.97908 -1.61357 0
M  V30 3739 C 375.478 -3.09933 -2.13585 0
M  V30 3740 C 374.625 -2.59971 -0.964897 0
M  V30 3741 H 377.576 -1.58448 -0.0894528 0
M  V30 3742 H 377.597 -2.88706 -2.47848 0
M  V30 3743 H 377.109 -3.77845 -0.886277 0
M  V30 3744 H 375.21 -2.34694 -2.89395 0
M  V30 3745 H 375.323 -4.15916 -2.37804 0
M  V30 3746 H 373.687 -2.16147 -1.34731 0
M  V30 3747 H 374.47 -3.42376 -0.251742 0
M  V30 3748 N 376.915 0.57481 -1.46744 0
M  V30 3749 C 378.331 0.898981 -1.31873 0
M  V30 3750 C 378.531 1.99313 -0.29605 0
M  V30 3751 O 377.587 2.50728 0.298621 0
M  V30 3752 C 378.9 1.30886 -2.7072 0
M  V30 3753 C 380.448 1.42127 -2.78871 0
M  V30 3754 C 380.923 1.86478 -4.18318 0
M  V30 3755 N 382.414 1.93658 -4.20774 0
M  V30 3756 C 383.149 2.29267 -5.2557 0
M  V30 3757 N 382.645 2.63612 -6.40688 0
M  V30 3758 N 384.438 2.29889 -5.1294 0
M  V30 3759 H 376.589 -0.147839 -2.11885 0
M  V30 3760 H 378.852 -0.00347013 -0.947994 0
M  V30 3761 H 378.558 0.578853 -3.46904 0
M  V30 3762 H 378.432 2.26874 -3.01343 0
M  V30 3763 H 380.819 2.14213 -2.0297 0
M  V30 3764 H 380.9 0.443705 -2.51922 0
M  V30 3765 H 380.544 1.14968 -4.94717 0
M  V30 3766 H 380.474 2.85207 -4.42679 0
M  V30 3767 H 382.965 1.69574 -3.37718 0
M  V30 3768 H 383.278 2.89759 -7.16421 0
M  V30 3769 H 381.623 2.61232 -6.44036 0
M  V30 3770 H 384.814 2.02485 -4.22039 0
M  V30 3771 H 384.987 2.57312 -5.94722 0
M  V30 3772 N 378.394 1.34581 0.820102 0
M  V30 3773 C 379.622 1.3018 1.60813 0
M  V30 3774 C 380.037 -0.123551 1.88395 0
M  V30 3775 O 379.394 -1.07148 1.47735 0
M  V30 3776 C 379.445 2.09312 2.94739 0
M  V30 3777 O 379.166 3.46288 2.68358 0
M  V30 3778 C 380.667 2.1234 3.89136 0
M  V30 3779 H 377.887 0.447726 0.499782 0
M  V30 3780 H 380.431 1.77237 1.02017 0
M  V30 3781 H 378.586 1.65889 3.50085 0
M  V30 3782 H 379 3.87227 3.53774 0
M  V30 3783 H 380.474 2.72126 4.80262 0
M  V30 3784 H 380.951 1.11854 4.24718 0
M  V30 3785 H 381.557 2.55864 3.39726 0
M  V30 3786 N 379.872 -1.04064 1.18357 0
M  V30 3787 C 381.119 -1.77265 0.978947 0
M  V30 3788 C 381.447 -1.88189 -0.491428 0
M  V30 3789 O 380.702 -1.38653 -1.38108 0
M  V30 3790 C 381.001 -3.20634 1.57888 0
M  V30 3791 C 380.667 -3.29743 3.07539 0
M  V30 3792 C 379.329 -3.31937 3.48384 0
M  V30 3793 C 381.681 -3.29841 4.03552 0
M  V30 3794 C 379.009 -3.3187 4.83818 0
M  V30 3795 C 381.361 -3.31313 5.38901 0
M  V30 3796 C 380.025 -3.31799 5.79194 0
M  V30 3797 H 379.295 -0.648659 0.358222 0
M  V30 3798 H 381.942 -1.22225 1.47422 0
M  V30 3799 H 380.247 -3.78675 1.00561 0
M  V30 3800 H 381.944 -3.75917 1.39598 0
M  V30 3801 H 378.534 -3.28757 2.74986 0
M  V30 3802 H 382.718 -3.27337 3.73047 0
M  V30 3803 H 377.974 -3.30562 5.14333 0
M  V30 3804 H 382.148 -3.30338 6.13066 0
M  V30 3805 H 379.775 -3.315 6.84114 0
M  V30 3806 N 381.35 -0.985608 -1.22978 0
M  V30 3807 C 382.578 -0.675582 -1.95559 0
M  V30 3808 C 382.993 0.758413 -1.72897 0
M  V30 3809 O 382.35 1.51094 -1.02357 0
M  V30 3810 C 382.401 -0.96293 -3.48439 0
M  V30 3811 O 382.122 -2.34057 -3.70336 0
M  V30 3812 C 383.623 -0.669585 -4.38214 0
M  V30 3813 H 380.843 -0.250523 -0.622478 0
M  V30 3814 H 383.387 -1.3184 -1.56328 0
M  V30 3815 H 381.542 -0.366033 -3.85667 0
M  V30 3816 H 381.956 -2.43424 -4.64591 0
M  V30 3817 H 383.43 -0.920967 -5.44263 0
M  V30 3818 H 383.907 0.396383 -4.37408 0
M  V30 3819 H 384.513 -1.2472 -4.06602 0
M  V30 3820 N 382.828 1.3818 -0.7579 0
M  V30 3821 C 383.758 2.33027 -0.148597 0
M  V30 3822 C 384.739 1.55085 0.69875 0
M  V30 3823 O 385.924 1.83384 0.639053 0
M  V30 3824 C 383.054 3.3928 0.742034 0
M  V30 3825 C 382.008 4.28 -0.00291946 0
M  V30 3826 C 381.334 5.25146 1.00625 0
M  V30 3827 C 382.634 5.08938 -1.17385 0
M  V30 3828 H 384.328 2.84231 -0.940909 0
M  V30 3829 H 381.874 1.36659 -0.453908 0
M  V30 3830 H 383.827 4.046 1.17799 0
M  V30 3831 H 382.551 2.86569 1.56671 0
M  V30 3832 H 381.21 3.64192 -0.419504 0
M  V30 3833 H 380.858 4.68721 1.8251 0
M  V30 3834 H 380.558 5.85361 0.512428 0
M  V30 3835 H 382.082 5.93342 1.44143 0
M  V30 3836 H 383.496 5.67474 -0.815224 0
M  V30 3837 H 381.893 5.7841 -1.59882 0
M  V30 3838 H 382.963 4.42424 -1.98468 0
M  V30 3839 N 384.306 0.507319 1.49211 0
M  V30 3840 C 385.236 -0.256939 2.32082 0
M  V30 3841 C 386.217 -0.956609 1.40652 0
M  V30 3842 O 387.402 -0.946788 1.69557 0
M  V30 3843 C 384.532 -1.31802 3.21318 0
M  V30 3844 C 383.486 -0.737855 4.21592 0
M  V30 3845 C 382.812 -1.89992 4.99807 0
M  V30 3846 C 384.112 0.275325 5.21574 0
M  V30 3847 H 385.806 0.434798 2.96226 0
M  V30 3848 H 383.352 0.210546 1.42452 0
M  V30 3849 H 385.305 -1.86045 3.78107 0
M  V30 3850 H 384.029 -2.03903 2.5513 0
M  V30 3851 H 382.688 -0.217126 3.65956 0
M  V30 3852 H 382.336 -2.60877 4.30061 0
M  V30 3853 H 382.036 -1.51777 5.6766 0
M  V30 3854 H 383.56 -2.44657 5.59442 0
M  V30 3855 H 384.974 -0.179193 5.7302 0
M  V30 3856 H 383.371 0.573649 5.97352 0
M  V30 3857 H 384.441 1.18903 4.70096 0
M  V30 3858 N 385.784 -1.5574 0.241426 0
M  V30 3859 C 387.061 -1.90704 -0.434881 0
M  V30 3860 C 387.441 -1.16145 -1.76277 0
M  V30 3861 O 386.789 -0.277152 -2.26813 0
M  V30 3862 C 386.999 -3.43657 -0.608343 0
M  V30 3863 C 388.347 -4.14806 -0.906725 0
M  V30 3864 O 389.371 -3.49366 -0.694408 0
M  V30 3865 O 388.23 -5.30548 -1.31075 0
M  V30 3866 H 385.324 -0.793592 -0.23268 0
M  V30 3867 H 387.87 -1.67288 0.285086 0
M  V30 3868 H 386.642 -3.89927 0.327505 0
M  V30 3869 H 386.265 -3.72918 -1.37906 0
M  V30 3870 N 387.262 0.0317525 -1.57568 0
M  V30 3871 C 388.673 0.578692 -1.77505 0
M  V30 3872 C 389.024 1.75749 -0.872164 0
M  V30 3873 O 388.149 2.16298 -0.0663106 0
M  V30 3874 C 388.744 1.05658 -3.21904 0
M  V30 3875 C 387.303 1.54906 -3.43047 0
M  V30 3876 C 386.45 0.485939 -2.73009 0
M  V30 3877 H 389.401 -0.194475 -1.57504 0
M  V30 3878 H 389.422 1.92404 -3.28269 0
M  V30 3879 H 388.934 0.198422 -3.87592 0
M  V30 3880 H 387.035 2.42915 -2.82529 0
M  V30 3881 H 387.148 1.59841 -4.5165 0
M  V30 3882 H 385.512 0.940354 -2.36705 0
M  V30 3883 H 386.295 -0.362709 -3.41379 0
M  V30 3884 N 388.74 1.54641 0.303973 0
M  V30 3885 C 389.687 1.85386 1.37479 0
M  V30 3886 C 390.657 0.702528 1.50512 0
M  V30 3887 O 391.842 0.950867 1.65418 0
M  V30 3888 C 388.982 2.10413 2.73533 0
M  V30 3889 C 388.095 3.38049 2.68974 0
M  V30 3890 C 387.23 3.52934 3.97002 0
M  V30 3891 C 386.269 4.74373 3.86829 0
M  V30 3892 N 385.406 4.8608 5.06627 0
M  V30 3893 H 390.246 2.76732 1.1056 0
M  V30 3894 H 387.783 1.37034 0.534805 0
M  V30 3895 H 389.741 2.22919 3.52652 0
M  V30 3896 H 388.371 1.22338 2.98719 0
M  V30 3897 H 387.423 3.3418 1.81736 0
M  V30 3898 H 388.735 4.27288 2.57346 0
M  V30 3899 H 387.889 3.65088 4.84557 0
M  V30 3900 H 386.628 2.61824 4.1146 0
M  V30 3901 H 385.633 4.62255 2.97658 0
M  V30 3902 H 386.858 5.66888 3.73918 0
M  V30 3903 H 384.804 3.97891 5.21554 0
M  V30 3904 H 384.721 5.69315 4.9741 0
M  V30 3905 H 385.989 5.02587 5.95841 0
M  V30 3906 N 390.218 -0.567019 1.47046 0
M  V30 3907 C 391.181 -1.65696 1.58359 0
M  V30 3908 C 392.181 -1.54097 0.459441 0
M  V30 3909 O 393.371 -1.58432 0.724225 0
M  V30 3910 C 390.503 -3.05197 1.51879 0
M  V30 3911 H 391.696 -1.57019 2.5551 0
M  V30 3912 H 389.249 -0.786148 1.3509 0
M  V30 3913 H 389.984 -3.19417 0.560673 0
M  V30 3914 H 389.769 -3.15025 2.33455 0
M  V30 3915 H 391.259 -3.84511 1.62913 0
M  V30 3916 N 391.696 -1.35014 -0.812953 0
M  V30 3917 C 392.921 -1.31187 -1.60639 0
M  V30 3918 C 393.346 0.109382 -1.87782 0
M  V30 3919 O 392.704 1.07424 -1.46047 0
M  V30 3920 C 392.752 -2.11809 -2.91838 0
M  V30 3921 O 391.856 -1.49444 -3.8437 0
M  V30 3922 H 391.197 -0.450084 -0.488181 0
M  V30 3923 H 393.727 -1.77963 -1.00947 0
M  V30 3924 H 393.737 -2.23531 -3.41318 0
M  V30 3925 H 392.412 -3.15137 -2.71407 0
M  V30 3926 H 390.989 -1.46524 -3.42907 0
M  V30 3927 N 393.175 1.03435 -1.18907 0
M  V30 3928 C 394.105 2.13503 -0.945448 0
M  V30 3929 C 395.086 1.69682 0.119189 0
M  V30 3930 O 396.271 1.94169 -0.034707 0
M  V30 3931 C 393.401 3.44004 -0.477316 0
M  V30 3932 C 392.355 4.0148 -1.48316 0
M  V30 3933 C 391.681 5.27537 -0.872311 0
M  V30 3934 C 392.981 4.36921 -2.86177 0
M  V30 3935 H 394.675 2.34141 -1.86597 0
M  V30 3936 H 392.221 1.12523 -0.898584 0
M  V30 3937 H 394.174 4.20372 -0.294204 0
M  V30 3938 H 392.898 3.23072 0.478786 0
M  V30 3939 H 391.557 3.27201 -1.65332 0
M  V30 3940 H 391.205 5.02917 0.0911752 0
M  V30 3941 H 390.905 5.66954 -1.54393 0
M  V30 3942 H 392.429 6.06576 -0.699871 0
M  V30 3943 H 393.843 5.04248 -2.72776 0
M  V30 3944 H 392.24 4.87405 -3.50081 0
M  V30 3945 H 393.31 3.46466 -3.39248 0
M  V30 3946 N 394.653 0.992116 1.22453 0
M  V30 3947 C 395.583 0.561677 2.26644 0
M  V30 3948 C 396.564 -0.411055 1.65059 0
M  V30 3949 O 397.749 -0.301861 1.9184 0
M  V30 3950 C 394.879 -0.125247 3.47074 0
M  V30 3951 C 393.833 0.765948 4.21091 0
M  V30 3952 C 393.159 -0.0538484 5.34673 0
M  V30 3953 C 394.459 2.06242 4.79856 0
M  V30 3954 H 396.153 1.43259 2.62902 0
M  V30 3955 H 393.699 0.690283 1.26377 0
M  V30 3956 H 395.652 -0.437764 4.1912 0
M  V30 3957 H 394.376 -1.03069 3.0991 0
M  V30 3958 H 393.035 1.0621 3.50878 0
M  V30 3959 H 392.683 -0.960188 4.9375 0
M  V30 3960 H 392.383 0.539415 5.85119 0
M  V30 3961 H 393.907 -0.360477 6.09535 0
M  V30 3962 H 395.321 1.8139 5.43848 0
M  V30 3963 H 393.718 2.60444 5.40638 0
M  V30 3964 H 394.788 2.74167 3.99951 0
M  V30 3965 N 396.131 -1.37776 0.765217 0
M  V30 3966 C 397.359 -2.04124 0.337767 0
M  V30 3967 C 397.774 -1.57715 -1.03785 0
M  V30 3968 O 397.131 -0.755447 -1.6613 0
M  V30 3969 C 397.182 -3.59658 0.364442 0
M  V30 3970 O 396.903 -4.04367 1.68579 0
M  V30 3971 C 398.404 -4.43236 -0.0754221 0
M  V30 3972 H 395.624 -0.655696 0.142491 0
M  V30 3973 H 398.168 -1.76238 1.03732 0
M  V30 3974 H 396.323 -3.86339 -0.286471 0
M  V30 3975 H 396.737 -4.98857 1.61993 0
M  V30 3976 H 398.211 -5.52 -0.00560067 0
M  V30 3977 H 398.688 -4.2455 -1.12491 0
M  V30 3978 H 399.294 -4.21767 0.547055 0
M  V30 3979 N 397.609 -0.515225 -1.4894 0
M  V30 3980 C 398.542 0.302518 -2.26186 0
M  V30 3981 C 399.52 0.957895 -1.31389 0
M  V30 3982 O 400.704 0.985198 -1.60705 0
M  V30 3983 C 397.831 1.42719 -3.07163 0
M  V30 3984 C 396.877 0.884736 -4.17223 0
M  V30 3985 S 397.71 -0.235767 -5.34981 0
M  V30 3986 C 398.866 0.891731 -6.19515 0
M  V30 3987 H 399.099 -0.353076 -2.95196 0
M  V30 3988 H 396.632 -0.300753 -1.51443 0
M  V30 3989 H 398.59 2.07152 -3.54398 0
M  V30 3990 H 397.251 2.05445 -2.37595 0
M  V30 3991 H 396.444 1.72801 -4.73451 0
M  V30 3992 H 396.046 0.317362 -3.72651 0
M  V30 3993 H 398.338 1.79377 -6.53322 0
M  V30 3994 H 399.281 0.367751 -7.07144 0
M  V30 3995 H 399.689 1.16548 -5.52338 0
M  V30 3996 N 399.087 1.5561 -0.249682 0
M  V30 3997 C 400.05 2.20217 0.635394 0
M  V30 3998 C 401.05 1.17227 1.10066 0
M  V30 3999 O 402.24 1.42292 1.00492 0
M  V30 4000 C 399.372 2.84794 1.87363 0
M  V30 4001 H 400.565 2.99814 0.0716752 0
M  V30 4002 H 398.118 1.563 -0.000153234 0
M  V30 4003 H 398.853 2.09142 2.47851 0
M  V30 4004 H 398.638 3.60241 1.5482 0
M  V30 4005 H 400.128 3.3423 2.5036 0
M  V30 4006 N 400.565 -0.0233959 1.57583 0
M  V30 4007 C 401.812 -0.713063 1.8953 0
M  V30 4008 C 402.14 -1.75056 0.847673 0
M  V30 4009 O 401.395 -1.95119 -0.150636 0
M  V30 4010 C 401.694 -1.41428 3.28227 0
M  V30 4011 C 401.36 -0.512222 4.47981 0
M  V30 4012 C 400.022 -0.263785 4.80476 0
M  V30 4013 C 402.374 0.110248 5.21083 0
M  V30 4014 C 399.702 0.615804 5.83459 0
M  V30 4015 C 402.054 0.977573 6.25001 0
M  V30 4016 C 400.718 1.23542 6.55968 0
M  V30 4017 H 399.988 -0.260928 0.69354 0
M  V30 4018 H 402.635 0.0271047 1.91481 0
M  V30 4019 H 400.94 -2.22791 3.22291 0
M  V30 4020 H 402.637 -1.95355 3.50196 0
M  V30 4021 H 399.227 -0.716013 4.22577 0
M  V30 4022 H 403.411 -0.0687137 4.96252 0
M  V30 4023 H 398.667 0.82382 6.05824 0
M  V30 4024 H 402.841 1.46638 6.80786 0
M  V30 4025 H 400.468 1.91871 7.35588 0
M  V30 4026 N 402.043 -1.548 -0.295768 0
M  V30 4027 C 402.973 -1.89115 -1.36959 0
M  V30 4028 C 403.954 -0.75059 -1.52644 0
M  V30 4029 O 405.139 -1.00678 -1.66065 0
M  V30 4030 C 402.269 -2.14307 -2.73295 0
M  V30 4031 C 401.223 -3.30151 -2.72368 0
M  V30 4032 C 400.549 -3.40772 -4.12042 0
M  V30 4033 C 401.849 -4.67126 -2.33646 0
M  V30 4034 H 403.543 -2.79053 -1.08488 0
M  V30 4035 H 401.089 -1.34266 -0.520443 0
M  V30 4036 H 403.042 -2.36898 -3.48507 0
M  V30 4037 H 401.766 -1.21145 -3.03301 0
M  V30 4038 H 400.425 -3.0749 -1.99613 0
M  V30 4039 H 400.073 -2.45117 -4.39234 0
M  V30 4040 H 399.773 -4.18645 -4.12322 0
M  V30 4041 H 401.297 -3.6563 -4.89027 0
M  V30 4042 H 402.711 -4.89414 -2.98575 0
M  V30 4043 H 401.108 -5.47751 -2.45129 0
M  V30 4044 H 402.178 -4.67489 -1.28772 0
M  V30 4045 N 403.521 0.559213 -1.47345 0
M  V30 4046 C 404.469 1.68747 -1.60085 0
M  V30 4047 C 405.463 1.628 -0.46825 0
M  V30 4048 O 406.669 1.68009 -0.645977 0
M  V30 4049 H 403.044 0.558329 -0.503759 0
M  V30 4050 H 405.015 1.55138 -2.54902 0
M  V30 4051 C 403.764 3.07103 -1.63042 0
M  V30 4052 H 403.087 3.12361 -2.49541 0
M  V30 4053 H 404.527 3.85743 -1.76006 0
M  V30 4054 C 402.986 3.34935 -0.363357 0
M  V30 4055 O 403.516 3.98102 0.536416 0
M  V30 4056 N 401.722 2.89574 -0.244 0
M  V30 4057 H 401.269 2.38348 -0.977133 0
M  V30 4058 H 401.227 3.08566 0.602836 0
M  V30 4059 N 404.999 1.35443 0.805782 0
M  V30 4060 C 406.247 1.28507 1.55982 0
M  V30 4061 C 406.568 -0.140046 1.94496 0
M  V30 4062 O 405.838 -1.07666 1.63661 0
M  V30 4063 H 404.418 0.472676 0.578434 0
M  V30 4064 H 407.08 1.69555 0.961098 0
M  V30 4065 H 406.176 1.90148 2.47488 0
M  V30 4066 N 406.477 -1.02803 1.19454 0
M  V30 4067 C 407.44 -2.09264 0.934955 0
M  V30 4068 C 408.44 -1.60576 -0.0849015 0
M  V30 4069 O 409.63 -1.73554 0.149933 0
M  V30 4070 C 406.762 -3.38482 0.40531 0
M  V30 4071 H 407.955 -2.33726 1.87916 0
M  V30 4072 H 405.508 -1.19426 1.00832 0
M  V30 4073 H 406.243 -3.19689 -0.544899 0
M  V30 4074 H 406.028 -3.75142 1.14065 0
M  V30 4075 H 407.518 -4.16894 0.242806 0
M  V30 4076 N 407.956 -0.998596 -1.21925 0
M  V30 4077 C 408.886 -0.573688 -2.26343 0
M  V30 4078 C 409.867 0.402296 -1.65274 0
M  V30 4079 O 411.052 0.291683 -1.91997 0
M  V30 4080 C 408.182 0.106839 -3.47136 0
M  V30 4081 C 407.136 -0.788269 -4.20678 0
M  V30 4082 C 406.462 0.0254927 -5.34694 0
M  V30 4083 C 407.762 -2.08784 -4.78755 0
M  V30 4084 H 409.456 -1.44651 -2.62138 0
M  V30 4085 H 407.002 -0.696975 -1.26009 0
M  V30 4086 H 408.955 0.415531 -4.19346 0
M  V30 4087 H 407.679 1.01424 -3.10452 0
M  V30 4088 H 406.338 -1.08069 -3.50309 0
M  V30 4089 H 405.986 0.933989 -4.94253 0
M  V30 4090 H 405.686 -0.570437 -5.84825 0
M  V30 4091 H 407.21 0.328147 -6.09718 0
M  V30 4092 H 408.624 -1.84272 -5.42878 0
M  V30 4093 H 407.021 -2.63307 -5.39249 0
M  V30 4094 H 408.091 -2.76284 -3.98491 0
M  V30 4095 N 409.434 1.37368 -0.772513 0
M  V30 4096 C 410.711 1.93839 -0.26188 0
M  V30 4097 C 411.091 1.7061 1.24319 0
M  V30 4098 O 410.439 1.05534 2.02669 0
M  V30 4099 C 410.649 3.43154 -0.636102 0
M  V30 4100 C 411.997 4.20249 -0.606324 0
M  V30 4101 O 413.021 3.5152 -0.575538 0
M  V30 4102 O 411.88 5.42809 -0.634086 0
M  V30 4103 H 408.974 0.82478 -0.0605555 0
M  V30 4104 H 411.52 1.4665 -0.853917 0
M  V30 4105 H 410.292 3.53647 -1.6748 0
M  V30 4106 H 409.915 3.97596 -0.0170516 0
M  V30 4107 N 410.912 0.523116 1.48665 0
M  V30 4108 C 412.16 -0.0134497 2.02096 0
M  V30 4109 C 412.481 -1.35418 1.40311 0
M  V30 4110 O 411.751 -1.87543 0.566074 0
M  V30 4111 H 410.331 -0.00795915 0.746958 0
M  V30 4112 H 412.993 0.685388 1.82451 0
M  V30 4113 H 412.089 -0.126849 3.11842 0
M  V30 4114 N 412.39 -1.55475 0.257931 0
M  V30 4115 C 413.636 -1.99502 -0.364266 0
M  V30 4116 C 413.969 -1.146 -1.56782 0
M  V30 4117 O 413.244 -0.211968 -1.93342 0
M  V30 4118 C 413.527 -3.51917 -0.763333 0
M  V30 4119 C 413.38 -4.4758 0.446371 0
M  V30 4120 C 414.699 -4.09742 -1.60623 0
M  V30 4121 H 411.818 -0.725277 -0.130929 0
M  V30 4122 H 414.46 -1.8653 0.361446 0
M  V30 4123 H 412.61 -3.63101 -1.38166 0
M  V30 4124 H 414.282 -4.48362 1.08487 0
M  V30 4125 H 412.525 -4.19947 1.08753 0
M  V30 4126 H 413.196 -5.51862 0.123645 0
M  V30 4127 H 415.672 -4.01727 -1.08418 0
M  V30 4128 H 414.548 -5.16631 -1.85429 0
M  V30 4129 H 414.809 -3.58889 -2.58169 0
M  V30 4130 N 413.868 0.0150385 -1.57593 0
M  V30 4131 C 415.117 0.702115 -1.89085 0
M  V30 4132 C 415.43 1.75764 -0.858277 0
M  V30 4133 O 416.636 2.49829 -1.0629 0
M  V30 4134 C 415.092 1.29992 -3.35604 0
M  V30 4135 C 414.7 0.280007 -4.47124 0
M  V30 4136 C 416.444 1.96606 -3.76227 0
M  V30 4137 C 414.351 0.886949 -5.84711 0
M  V30 4138 H 413.281 0.265997 -0.705522 0
M  V30 4139 H 415.932 -0.0430408 -1.8345 0
M  V30 4140 H 414.314 2.09525 -3.36029 0
M  V30 4141 H 415.488 -0.489631 -4.58191 0
M  V30 4142 H 413.803 -0.284835 -4.15425 0
M  V30 4143 H 416.4 2.42893 -4.76347 0
M  V30 4144 H 416.743 2.79024 -3.08952 0
M  V30 4145 H 417.276 1.23828 -3.78036 0
M  V30 4146 H 414.015 0.101876 -6.55421 0
M  V30 4147 H 413.535 1.6261 -5.77337 0
M  V30 4148 H 415.214 1.39011 -6.3189 0
M  V30 4149 N 415.346 1.54954 0.287554 0
M  V30 4150 C 416.276 1.89839 1.35954 0
M  V30 4151 C 417.257 0.758675 1.52244 0
M  V30 4152 O 418.442 1.01557 1.65529 0
M  V30 4153 C 415.572 2.15753 2.72154 0
M  V30 4154 C 414.526 3.3159 2.70614 0
M  V30 4155 C 413.852 3.42952 4.10229 0
M  V30 4156 C 415.152 4.68359 2.31165 0
M  V30 4157 H 416.846 2.79625 1.07007 0
M  V30 4158 H 414.392 1.3454 0.513316 0
M  V30 4159 H 416.345 2.38743 3.47246 0
M  V30 4160 H 415.069 1.22752 3.02654 0
M  V30 4161 H 413.728 3.08545 1.97979 0
M  V30 4162 H 413.376 2.47443 4.37928 0
M  V30 4163 H 413.076 4.20826 4.10097 0
M  V30 4164 H 414.6 3.68218 4.87081 0
M  V30 4165 H 416.014 4.9099 2.95976 0
M  V30 4166 H 414.411 5.49044 2.42221 0
M  V30 4167 H 415.481 4.68165 1.26291 0
M  V30 4168 N 416.824 -0.551391 1.4764 0
M  V30 4169 C 418.072 -1.30572 1.54258 0
M  V30 4170 C 418.393 -1.93877 0.208963 0
M  V30 4171 O 417.663 -1.80234 -0.767619 0
M  V30 4172 H 416.243 -0.484894 0.568231 0
M  V30 4173 H 418.905 -0.643402 1.83974 0
M  V30 4174 H 418.001 -2.09621 2.31226 0
M  V30 4175 N 418.302 -1.35869 -0.798587 0
M  V30 4176 C 419.579 -1.20145 -1.54352 0
M  V30 4177 C 419.959 0.216161 -2.0999 0
M  V30 4178 O 419.307 1.22068 -1.93162 0
M  V30 4179 C 419.517 -2.27602 -2.64572 0
M  V30 4180 C 420.865 -2.63811 -3.32699 0
M  V30 4181 O 421.889 -2.26576 -2.74849 0
M  V30 4182 O 420.748 -3.27866 -4.37226 0
M  V30 4183 H 417.842 -0.467248 -0.682355 0
M  V30 4184 H 420.388 -1.47574 -0.837859 0
M  V30 4185 H 419.16 -3.2265 -2.21388 0
M  V30 4186 H 418.783 -2.01488 -3.42766 0
M  V30 4187 N 419.78 1.02168 -1.19998 0
M  V30 4188 C 421.01 1.79036 -1.031 0
M  V30 4189 C 421.418 1.84409 0.423078 0
M  V30 4190 O 420.761 1.29228 1.30559 0
M  V30 4191 C 420.823 3.25185 -1.53281 0
M  V30 4192 C 420.487 3.43431 -3.01503 0
M  V30 4193 C 421.484 3.33063 -3.99206 0
M  V30 4194 C 419.169 3.69412 -3.40353 0
M  V30 4195 C 421.163 3.48413 -5.33748 0
M  V30 4196 C 418.85 3.84406 -4.75053 0
M  V30 4197 C 419.848 3.7391 -5.71559 0
M  V30 4198 O 419.536 3.88452 -7.03818 0
M  V30 4199 H 419.268 0.570043 -0.363355 0
M  V30 4200 H 421.822 1.29524 -1.59414 0
M  V30 4201 H 420.052 3.75756 -0.913483 0
M  V30 4202 H 421.741 3.83671 -1.32481 0
M  V30 4203 H 422.507 3.12934 -3.70537 0
M  V30 4204 H 418.386 3.76671 -2.65782 0
M  V30 4205 H 421.93 3.40137 -6.09059 0
M  V30 4206 H 417.827 4.04035 -5.03415 0
M  V30 4207 H 418.595 4.055 -7.10993 0
M  V30 4208 N 421.258 1.00505 1.21394 0
M  V30 4209 C 422.188 0.585684 2.26035 0
M  V30 4210 C 423.169 -0.393525 1.65485 0
M  V30 4211 O 424.354 -0.281497 1.92149 0
M  V30 4212 C 421.484 -0.0884283 3.47187 0
M  V30 4213 C 420.438 0.810567 4.20254 0
M  V30 4214 C 419.764 0.00286382 5.347 0
M  V30 4215 C 421.064 2.1132 4.77641 0
M  V30 4216 H 422.758 1.46039 2.61368 0
M  V30 4217 H 420.304 0.703648 1.25638 0
M  V30 4218 H 422.257 -0.393286 4.19561 0
M  V30 4219 H 420.981 -0.997766 3.10986 0
M  V30 4220 H 419.64 1.09925 3.49731 0
M  V30 4221 H 419.288 -0.907765 4.94741 0
M  V30 4222 H 418.988 0.601444 5.84514 0
M  V30 4223 H 420.512 -0.295808 6.09883 0
M  V30 4224 H 421.926 1.87148 5.41893 0
M  V30 4225 H 420.323 2.66164 5.37845 0
M  V30 4226 H 421.393 2.78393 3.9702 0
M  V30 4227 N 422.737 -1.36956 0.779787 0
M  V30 4228 C 423.962 -2.04283 0.358224 0
M  V30 4229 C 424.387 -1.58422 -1.01411 0
M  V30 4230 O 423.745 -0.748179 -1.65142 0
M  V30 4231 C 423.793 -3.58152 0.419479 0
M  V30 4232 O 422.897 -4.08342 -0.577142 0
M  V30 4233 H 422.238 -0.645967 0.153698 0
M  V30 4234 H 424.768 -1.75108 1.05822 0
M  V30 4235 H 424.778 -4.07041 0.279636 0
M  V30 4236 H 423.453 -3.90886 1.42061 0
M  V30 4237 H 422.03 -3.70751 -0.399755 0
M  V30 4238 N 424.215 -0.530993 -1.48385 0
M  V30 4239 C 425.631 -0.188919 -1.58478 0
M  V30 4240 C 425.831 1.30786 -1.53288 0
M  V30 4241 O 424.887 2.08619 -1.42248 0
M  V30 4242 C 426.2 -0.792343 -2.90073 0
M  V30 4243 C 427.748 -0.76117 -3.03604 0
M  V30 4244 C 428.223 -1.34319 -4.37861 0
M  V30 4245 N 429.714 -1.3052 -4.44431 0
M  V30 4246 C 430.449 -1.72543 -5.46824 0
M  V30 4247 N 429.945 -2.22299 -6.56167 0
M  V30 4248 N 431.738 -1.63773 -5.37712 0
M  V30 4249 H 423.889 -1.50377 -1.50002 0
M  V30 4250 H 426.152 -0.625559 -0.712306 0
M  V30 4251 H 425.858 -1.84323 -2.99529 0
M  V30 4252 H 425.732 -0.270026 -3.76232 0
M  V30 4253 H 428.119 0.280957 -2.93759 0
M  V30 4254 H 428.2 -1.32097 -2.19053 0
M  V30 4255 H 427.844 -2.38425 -4.4846 0
M  V30 4256 H 427.774 -0.759064 -5.21101 0
M  V30 4257 H 430.265 -0.940973 -3.65997 0
M  V30 4258 H 430.578 -2.52356 -7.30436 0
M  V30 4259 H 428.923 -2.26293 -6.57127 0
M  V30 4260 H 432.114 -1.24698 -4.51185 0
M  V30 4261 H 432.287 -1.96844 -6.17379 0
M  V30 4262 N 425.693 1.55336 -0.266172 0
M  V30 4263 C 426.921 2.03801 0.356756 0
M  V30 4264 C 427.336 1.14485 1.50129 0
M  V30 4265 O 426.693 0.163121 1.8177 0
M  V30 4266 C 426.744 3.51455 0.846281 0
M  V30 4267 O 426.465 4.37371 -0.252663 0
M  V30 4268 C 427.966 4.15767 1.53794 0
M  V30 4269 H 425.186 0.665906 0.0825218 0
M  V30 4270 H 427.73 2.00636 -0.39566 0
M  V30 4271 H 425.885 3.55092 1.54881 0
M  V30 4272 H 426.299 5.24358 0.122173 0
M  V30 4273 H 427.773 5.20714 1.83198 0
M  V30 4274 H 428.25 3.63404 2.46646 0
M  V30 4275 H 428.856 4.16107 0.879488 0
M  V30 4276 N 427.171 -0.0066808 1.57599 0
M  V30 4277 C 428.582 -0.550379 1.78403 0
M  V30 4278 C 428.933 -1.74339 0.900014 0
M  V30 4279 O 428.058 -2.16166 0.100713 0
M  V30 4280 C 428.653 -1.00523 3.23544 0
M  V30 4281 C 427.212 -1.49428 3.45468 0
M  V30 4282 C 426.359 -0.442444 2.73748 0
M  V30 4283 H 429.31 0.219508 1.57175 0
M  V30 4284 H 429.331 -1.87157 3.31289 0
M  V30 4285 H 428.843 -0.136735 3.87859 0
M  V30 4286 H 426.944 -2.3839 2.86358 0
M  V30 4287 H 427.057 -1.52635 4.54136 0
M  V30 4288 H 425.421 -0.902578 2.38171 0
M  V30 4289 H 426.204 0.416973 3.40758 0
M  V30 4290 N 428.649 -1.55105 -0.279332 0
M  V30 4291 C 429.559 -1.90638 -1.36727 0
M  V30 4292 C 430.575 -0.802899 -1.54368 0
M  V30 4293 O 431.751 -1.10138 -1.68616 0
M  V30 4294 C 428.816 -2.16547 -2.70755 0
M  V30 4295 C 427.877 -3.40146 -2.61915 0
M  V30 4296 C 427.11 -3.6481 -3.8955 0
M  V30 4297 O 427.333 -2.92095 -4.89935 0
M  V30 4298 O 426.267 -4.58343 -3.90135 0
M  V30 4299 H 430.093 -2.83237 -1.09591 0
M  V30 4300 H 427.678 -1.4157 -0.477306 0
M  V30 4301 H 429.56 -2.34665 -3.50014 0
M  V30 4302 H 428.235 -1.27131 -2.9769 0
M  V30 4303 H 427.142 -3.2737 -1.81052 0
M  V30 4304 H 428.475 -4.29761 -2.3993 0
M  V30 4305 N 430.127 0.543554 -1.4793 0
M  V30 4306 C 431.538 1.12561 -1.48953 0
M  V30 4307 C 431.889 1.94578 -0.251754 0
M  V30 4308 O 431.014 2.0665 0.642255 0
M  V30 4309 C 431.609 2.04801 -2.69892 0
M  V30 4310 C 430.168 2.58251 -2.73831 0
M  V30 4311 C 429.315 1.34918 -2.42265 0
M  V30 4312 H 432.266 0.32947 -1.55242 0
M  V30 4313 H 432.287 2.88886 -2.47639 0
M  V30 4314 H 431.799 1.4508 -3.59963 0
M  V30 4315 H 429.9 3.21732 -1.87934 0
M  V30 4316 H 430.013 2.98312 -3.74895 0
M  V30 4317 H 428.377 1.66046 -1.93134 0
M  V30 4318 H 429.16 0.769693 -3.3456 0
M  V30 4319 N 431.605 1.3629 0.791371 0
M  V30 4320 C 433.021 1.16661 1.08914 0
M  V30 4321 C 433.221 -0.0106266 2.01497 0
M  V30 4322 O 432.277 -0.676596 2.43266 0
M  V30 4323 C 433.59 2.47656 1.70549 0
M  V30 4324 C 435.138 2.54002 1.82899 0
M  V30 4325 C 435.613 3.85078 2.47949 0
M  V30 4326 N 437.104 3.86413 2.5542 0
M  V30 4327 C 437.839 4.84572 3.06557 0
M  V30 4328 N 437.335 5.93124 3.58016 0
M  V30 4329 N 439.128 4.71994 3.05251 0
M  V30 4330 H 431.279 2.11668 0.176238 0
M  V30 4331 H 433.542 0.937486 0.140796 0
M  V30 4332 H 433.248 3.34059 1.09989 0
M  V30 4333 H 433.122 2.63319 2.70079 0
M  V30 4334 H 435.509 1.68018 2.42598 0
M  V30 4335 H 435.59 2.42239 0.821808 0
M  V30 4336 H 435.234 4.71467 1.88895 0
M  V30 4337 H 435.164 3.94135 3.49235 0
M  V30 4338 H 437.655 3.07988 2.18979 0
M  V30 4339 H 437.968 6.63999 3.95381 0
M  V30 4340 H 436.313 5.96796 3.56173 0
M  V30 4341 H 439.504 3.86321 2.64336 0
M  V30 4342 H 439.677 5.48653 3.44796 0
M  V30 4343 N 433.083 -1.0153 1.20538 0
M  V30 4344 C 434.494 -1.56598 1.01657 0
M  V30 4345 C 434.845 -1.91505 -0.426668 0
M  V30 4346 O 433.97 -1.72375 -1.30827 0
M  V30 4347 C 434.565 -2.84542 1.83905 0
M  V30 4348 C 433.124 -3.36133 1.69386 0
M  V30 4349 C 432.271 -2.09427 1.81757 0
M  V30 4350 H 435.222 -0.838974 1.34711 0
M  V30 4351 H 435.243 -3.56004 1.34319 0
M  V30 4352 H 434.755 -2.59105 2.8894 0
M  V30 4353 H 432.856 -3.66528 0.669933 0
M  V30 4354 H 432.969 -4.08248 2.50739 0
M  V30 4355 H 431.333 -2.21941 1.24957 0
M  V30 4356 H 432.116 -1.86414 2.88279 0
M  V30 4357 N 434.561 -1.01147 -1.20859 0
M  V30 4358 C 435.786 -0.716698 -1.94623 0
M  V30 4359 C 436.211 0.715415 -1.73964 0
M  V30 4360 O 435.569 1.49157 -1.03062 0
M  V30 4361 C 435.617 -1.0513 -3.44935 0
M  V30 4362 O 434.721 -0.160131 -4.12089 0
M  V30 4363 H 434.062 -0.266404 -0.608214 0
M  V30 4364 H 436.592 -1.35346 -1.53436 0
M  V30 4365 H 436.602 -1.00086 -3.95533 0
M  V30 4366 H 435.277 -2.09475 -3.59295 0
M  V30 4367 H 433.854 -0.267657 -3.71938 0
M  V30 4368 N 436.039 1.36541 -0.78704 0
M  V30 4369 C 436.969 2.32659 -0.197992 0
M  V30 4370 C 437.95 1.56533 0.665697 0
M  V30 4371 O 439.135 1.84698 0.60001 0
M  V30 4372 C 436.265 3.40778 0.669901 0
M  V30 4373 C 435.219 4.27897 -0.0937039 0
M  V30 4374 C 434.545 5.27163 0.894629 0
M  V30 4375 C 435.845 5.06334 -1.28154 0
M  V30 4376 H 437.539 2.82171 -1.00099 0
M  V30 4377 H 435.085 1.35665 -0.482793 0
M  V30 4378 H 437.038 4.07008 1.09191 0
M  V30 4379 H 435.762 2.89827 1.50558 0
M  V30 4380 H 434.421 3.6322 -0.49666 0
M  V30 4381 H 434.069 4.72486 1.72527 0
M  V30 4382 H 433.769 5.86317 0.388149 0
M  V30 4383 H 435.293 5.96266 1.31525 0
M  V30 4384 H 436.707 5.65617 -0.93541 0
M  V30 4385 H 435.104 5.74888 -1.72115 0
M  V30 4386 H 436.174 4.38114 -2.07807 0
M  V30 4387 N 437.518 0.538854 1.48102 0
M  V30 4388 C 438.743 0.0102694 2.07397 0
M  V30 4389 C 439.168 -1.26562 1.39153 0
M  V30 4390 O 438.526 -1.75357 0.460387 0
M  V30 4391 C 438.574 -0.187602 3.60112 0
M  V30 4392 O 437.678 -1.25432 3.92862 0
M  V30 4393 H 437.019 0.0430975 0.6626 0
M  V30 4394 H 439.549 0.749301 1.90385 0
M  V30 4395 H 439.559 -0.407517 4.0596 0
M  V30 4396 H 438.234 0.744386 4.09184 0
M  V30 4397 H 436.811 -1.01636 3.58782 0
M  V30 4398 N 438.996 -1.55193 0.274407 0
M  V30 4399 C 439.946 -2.19184 -0.627882 0
M  V30 4400 C 440.93 -1.15625 -1.11892 0
M  V30 4401 O 442.122 -1.41441 -1.06411 0
M  V30 4402 C 439.251 -2.91591 -1.81189 0
M  V30 4403 C 438.337 -4.02438 -1.33807 0
M  V30 4404 N 438.728 -5.0246 -0.580349 0
M  V30 4405 C 437.026 -4.15496 -1.62109 0
M  V30 4406 C 437.727 -5.80756 -0.331344 0
M  V30 4407 N 436.703 -5.36038 -0.903556 0
M  V30 4408 H 440.505 -2.93871 -0.0411216 0
M  V30 4409 H 438.019 -1.62213 0.0779348 0
M  V30 4410 H 440.016 -3.35883 -2.46957 0
M  V30 4411 H 438.676 -2.18414 -2.40261 0
M  V30 4412 H 439.687 -5.17399 -0.227762 0
M  V30 4413 H 436.364 -3.53509 -2.22121 0
M  V30 4414 H 437.754 -6.71335 0.275454 0
M  V30 4415 N 440.474 -0.00167713 -1.576 0
M  V30 4416 C 441.404 0.988091 -2.11563 0
M  V30 4417 C 442.385 1.35736 -1.02517 0
M  V30 4418 O 443.57 1.44082 -1.30208 0
M  V30 4419 C 440.7 2.27941 -2.62031 0
M  V30 4420 C 439.654 2.0517 -3.75619 0
M  V30 4421 C 438.98 3.4033 -4.12407 0
M  V30 4422 C 440.28 1.41294 -5.02825 0
M  V30 4423 H 441.974 0.538771 -2.94513 0
M  V30 4424 H 439.52 0.257712 -1.41675 0
M  V30 4425 H 441.473 2.97539 -2.9841 0
M  V30 4426 H 440.197 2.74989 -1.76205 0
M  V30 4427 H 438.856 1.37998 -3.39635 0
M  V30 4428 H 438.504 3.85085 -3.23603 0
M  V30 4429 H 438.204 3.25909 -4.88935 0
M  V30 4430 H 439.728 4.1124 -4.51347 0
M  V30 4431 H 441.142 2.00851 -5.36965 0
M  V30 4432 H 439.539 1.37356 -5.84169 0
M  V30 4433 H 440.609 0.382362 -4.8339 0
M  V30 4434 N 441.952 1.55251 0.271103 0
M  V30 4435 C 442.882 1.9127 1.33933 0
M  V30 4436 C 443.863 0.77478 1.5143 0
M  V30 4437 O 445.048 1.03307 1.64442 0
M  V30 4438 C 442.178 2.18627 2.69851 0
M  V30 4439 C 441.132 3.34442 2.67081 0
M  V30 4440 C 440.458 3.47284 4.06569 0
M  V30 4441 C 441.758 4.70784 2.26185 0
M  V30 4442 H 443.452 2.80744 1.04035 0
M  V30 4443 H 440.998 1.35077 0.499017 0
M  V30 4444 H 442.951 2.42413 3.44694 0
M  V30 4445 H 441.675 1.25955 3.01335 0
M  V30 4446 H 440.334 3.10627 1.94695 0
M  V30 4447 H 439.982 2.52074 4.35279 0
M  V30 4448 H 439.682 4.25152 4.0561 0
M  V30 4449 H 441.206 3.73363 4.83148 0
M  V30 4450 H 442.62 4.94102 2.90751 0
M  V30 4451 H 441.017 5.51582 2.36384 0
M  V30 4452 H 442.087 4.69478 1.21319 0
M  V30 4453 N 443.43 -0.535701 1.48216 0
M  V30 4454 C 444.655 -1.32149 1.59848 0
M  V30 4455 C 445.08 -1.86338 0.256842 0
M  V30 4456 O 444.438 -1.64107 -0.770632 0
M  V30 4457 C 444.486 -2.45224 2.64381 0
M  V30 4458 O 443.59 -3.48093 2.21144 0
M  V30 4459 H 442.931 -0.391634 0.536208 0
M  V30 4460 H 445.461 -0.645202 1.94161 0
M  V30 4461 H 445.471 -2.91491 2.85476 0
M  V30 4462 H 444.146 -2.05143 3.61786 0
M  V30 4463 H 442.723 -3.07984 2.10239 0
M  V30 4464 N 444.908 -1.36708 -0.784132 0
M  V30 4465 C 445.84 -1.27333 -1.90575 0
M  V30 4466 C 446.853 -0.191706 -1.61667 0
M  V30 4467 O 448.042 -0.446854 -1.72816 0
M  V30 4468 C 445.142 -0.943177 -3.25511 0
M  V30 4469 C 444.315 -2.12776 -3.82158 0
M  V30 4470 C 443.374 -1.76983 -4.95544 0
M  V30 4471 O 442.4 -2.49134 -5.11782 0
M  V30 4472 N 443.602 -0.706624 -5.76183 0
M  V30 4473 H 446.367 -2.23974 -1.99138 0
M  V30 4474 H 443.928 -1.30171 -0.962656 0
M  V30 4475 H 445.92 -0.684799 -3.98864 0
M  V30 4476 H 444.49 -0.0657333 -3.12531 0
M  V30 4477 H 443.71 -2.54863 -3.0073 0
M  V30 4478 H 444.998 -2.91904 -4.16737 0
M  V30 4479 H 444.396 -0.107643 -5.65598 0
M  V30 4480 H 442.953 -0.50808 -6.49817 0
M  V30 4481 N 446.386 1.0089 -1.21074 0
M  V30 4482 C 447.616 1.77933 -1.04993 0
M  V30 4483 C 448.024 1.84847 0.403495 0
M  V30 4484 O 447.367 1.30606 1.29181 0
M  V30 4485 C 447.429 3.23541 -1.56722 0
M  V30 4486 C 447.093 3.40214 -3.05129 0
M  V30 4487 C 448.09 3.2881 -4.02716 0
M  V30 4488 C 445.775 3.65781 -3.44252 0
M  V30 4489 C 447.769 3.42732 -5.37414 0
M  V30 4490 C 445.456 3.79346 -4.79103 0
M  V30 4491 C 446.454 3.67827 -5.75493 0
M  V30 4492 O 446.142 3.80965 -7.07899 0
M  V30 4493 H 445.874 0.566157 -0.369381 0
M  V30 4494 H 448.428 1.27826 -1.60779 0
M  V30 4495 H 446.658 3.74766 -0.953285 0
M  V30 4496 H 448.347 3.82245 -1.36543 0
M  V30 4497 H 449.113 3.08986 -3.73835 0
M  V30 4498 H 444.992 3.73831 -2.69762 0
M  V30 4499 H 448.536 3.33658 -6.12632 0
M  V30 4500 H 444.433 3.98672 -5.07672 0
M  V30 4501 H 445.201 3.97937 -7.15254 0
M  V30 4502 N 447.864 1.01787 1.20321 0
M  V30 4503 C 449.094 0.72614 1.93419 0
M  V30 4504 C 449.502 -0.717317 1.75075 0
M  V30 4505 O 448.845 -1.49836 1.06278 0
M  V30 4506 C 448.907 0.983621 3.45782 0
M  V30 4507 C 448.571 2.41645 3.87888 0
M  V30 4508 C 449.568 3.39732 3.93545 0
M  V30 4509 C 447.253 2.75752 4.19841 0
M  V30 4510 C 449.247 4.69988 4.30569 0
M  V30 4511 C 446.934 4.06221 4.56539 0
M  V30 4512 C 447.932 5.0315 4.61876 0
M  V30 4513 O 447.62 6.31284 4.97731 0
M  V30 4514 H 447.352 0.265824 0.621541 0
M  V30 4515 H 449.906 1.3623 1.53722 0
M  V30 4516 H 448.136 0.290301 3.85609 0
M  V30 4517 H 449.825 0.683279 4.00108 0
M  V30 4518 H 450.591 3.14718 3.69022 0
M  V30 4519 H 446.47 2.00993 4.14877 0
M  V30 4520 H 450.014 5.45642 4.3465 0
M  V30 4521 H 445.911 4.31013 4.80518 0
M  V30 4522 H 446.679 6.35591 5.15719 0
M  V30 4523 N 449.342 -1.36122 0.79427 0
M  V30 4524 C 450.59 -1.98718 0.368177 0
M  V30 4525 C 450.911 -1.63345 -1.06506 0
M  V30 4526 O 450.181 -0.909825 -1.73491 0
M  V30 4527 H 448.761 -0.735038 0.133146 0
M  V30 4528 H 451.423 -1.66239 1.01739 0
M  V30 4529 H 450.519 -3.08633 0.463923 0
M  V30 4530 N 450.82 -0.546701 -1.47814 0
M  V30 4531 C 451.783 0.196287 -2.28358 0
M  V30 4532 C 452.783 0.852437 -1.36346 0
M  V30 4533 O 453.973 0.709913 -1.59078 0
M  V30 4534 C 451.105 1.28579 -3.15722 0
M  V30 4535 H 452.298 -0.511086 -2.95513 0
M  V30 4536 H 449.851 -0.303248 -1.5333 0
M  V30 4537 H 450.586 2.0259 -2.53235 0
M  V30 4538 H 450.371 0.820229 -3.83425 0
M  V30 4539 H 451.861 1.80793 -3.76435 0
M  V30 4540 N 452.299 1.55045 -0.282633 0
M  V30 4541 C 453.547 1.99365 0.331334 0
M  V30 4542 C 453.868 1.1725 1.55812 0
M  V30 4543 O 453.138 0.263871 1.94115 0
M  V30 4544 H 451.718 0.736397 0.125414 0
M  V30 4545 H 454.38 1.90964 -0.389711 0
M  V30 4546 H 453.476 3.0596 0.616036 0
M  V30 4547 N 453.777 0.010035 1.57597 0
M  V30 4548 C 455.023 -0.673697 1.91283 0
M  V30 4549 C 455.356 -1.72863 0.884979 0
M  V30 4550 O 454.631 -1.94268 -0.0949487 0
M  V30 4551 C 454.914 -1.30766 3.35518 0
M  V30 4552 C 454.767 -0.263578 4.49027 0
M  V30 4553 C 456.086 -2.23105 3.79358 0
M  V30 4554 H 453.205 -0.243439 0.695634 0
M  V30 4555 H 455.847 0.0633864 1.89894 0
M  V30 4556 H 453.997 -1.93588 3.36832 0
M  V30 4557 H 455.669 0.365738 4.59848 0
M  V30 4558 H 453.912 0.413077 4.31829 0
M  V30 4559 H 454.583 -0.746398 5.4693 0
M  V30 4560 H 457.059 -1.70289 3.79659 0
M  V30 4561 H 455.935 -2.64424 4.81011 0
M  V30 4562 H 456.196 -3.11433 3.13787 0
M  V30 4563 N 455.255 -1.55392 -0.262866 0
M  V30 4564 C 456.218 -1.88181 -1.30846 0
M  V30 4565 C 457.218 -0.757079 -1.41862 0
M  V30 4566 O 458.408 -1.02519 -1.40838 0
M  V30 4567 C 455.54 -2.09609 -2.68844 0
M  V30 4568 H 456.733 -2.81659 -1.02997 0
M  V30 4569 H 454.286 -1.48039 -0.501414 0
M  V30 4570 H 455.021 -1.18547 -3.01856 0
M  V30 4571 H 454.806 -2.91508 -2.62231 0
M  V30 4572 H 456.296 -2.36215 -3.44372 0
M  V30 4573 N 456.733 0.527833 -1.48498 0
M  V30 4574 C 458.149 0.856571 -1.34666 0
M  V30 4575 C 458.349 1.98271 -0.35931 0
M  V30 4576 O 457.405 2.51551 0.218703 0
M  V30 4577 C 458.718 1.22207 -2.74747 0
M  V30 4578 C 460.266 1.33183 -2.83251 0
M  V30 4579 C 460.741 1.73075 -4.24039 0
M  V30 4580 N 462.232 1.80174 -4.26722 0
M  V30 4581 C 462.967 2.1243 -5.32598 0
M  V30 4582 N 462.463 2.43096 -6.4875 0
M  V30 4583 N 464.256 2.13454 -5.19994 0
M  V30 4584 H 456.407 -0.215174 -2.11307 0
M  V30 4585 H 458.67 -0.0336281 -0.947403 0
M  V30 4586 H 458.376 0.468195 -3.4857 0
M  V30 4587 H 458.25 2.17173 -3.08409 0
M  V30 4588 H 460.637 2.07647 -2.09683 0
M  V30 4589 H 460.718 0.363333 -2.53206 0
M  V30 4590 H 460.362 0.991712 -4.98124 0
M  V30 4591 H 460.292 2.70979 -4.51529 0
M  V30 4592 H 462.783 1.58744 -3.42942 0
M  V30 4593 H 463.096 2.6682 -7.25277 0
M  V30 4594 H 461.441 2.40611 -6.52021 0
M  V30 4595 H 464.632 1.88956 -4.28268 0
M  V30 4596 H 464.805 2.38261 -6.02608 0
M  V30 4597 N 458.211 1.37122 0.776871 0
M  V30 4598 C 459.488 1.22586 1.52421 0
M  V30 4599 C 459.868 -0.182726 2.10308 0
M  V30 4600 O 459.216 -1.18979 1.9508 0
M  V30 4601 C 459.426 2.31782 2.60918 0
M  V30 4602 C 460.774 2.69071 3.2846 0
M  V30 4603 O 461.798 2.3092 2.71209 0
M  V30 4604 O 460.657 3.3478 4.31954 0
M  V30 4605 H 457.751 0.478045 0.674835 0
M  V30 4606 H 460.297 1.48888 0.814275 0
M  V30 4607 H 459.069 3.26131 2.16227 0
M  V30 4608 H 458.692 2.06916 3.39517 0
M  V30 4609 N 459.689 -1.00246 1.21608 0
M  V30 4610 C 461.1 -1.55511 1.03312 0
M  V30 4611 C 461.451 -1.91946 -0.406332 0
M  V30 4612 O 460.576 -1.73753 -1.28992 0
M  V30 4613 C 461.171 -2.82576 1.86913 0
M  V30 4614 C 459.73 -3.34318 1.72941 0
M  V30 4615 C 458.877 -2.07487 1.83968 0
M  V30 4616 H 461.828 -0.824638 1.35593 0
M  V30 4617 H 461.849 -3.54559 1.38087 0
M  V30 4618 H 461.361 -2.56026 2.91672 0
M  V30 4619 H 459.462 -3.65797 0.70877 0
M  V30 4620 H 459.575 -4.05566 2.55055 0
M  V30 4621 H 457.939 -2.20603 1.27304 0
M  V30 4622 H 458.722 -1.83346 2.9024 0
M  V30 4623 N 461.167 -1.02423 -1.1978 0
M  V30 4624 C 462.415 -0.716569 -1.8897 0
M  V30 4625 C 462.736 0.756769 -1.79716 0
M  V30 4626 O 462.006 1.5449 -1.20456 0
M  V30 4627 H 460.586 -0.262062 -0.699523 0
M  V30 4628 H 463.248 -1.29747 -1.45436 0
M  V30 4629 H 462.344 -1.00675 -2.95417 0
M  V30 4630 N 462.645 1.35699 -0.801477 0
M  V30 4631 C 463.892 1.98913 -0.379459 0
M  V30 4632 C 464.22 1.63592 1.05204 0
M  V30 4633 O 463.475 0.888563 1.74365 0
M  V30 4634 C 463.774 3.53828 -0.504041 0
M  V30 4635 C 463.44 4.09002 -1.8981 0
M  V30 4636 C 462.102 4.23783 -2.27951 0
M  V30 4637 C 464.454 4.38939 -2.81038 0
M  V30 4638 C 461.782 4.65816 -3.56696 0
M  V30 4639 C 464.134 4.82409 -4.09224 0
M  V30 4640 C 462.798 4.95395 -4.4737 0
M  V30 4641 H 462.068 0.727874 -0.138854 0
M  V30 4642 H 464.715 1.61994 -1.02128 0
M  V30 4643 H 463.02 3.91175 0.221242 0
M  V30 4644 H 464.717 4.00687 -0.158361 0
M  V30 4645 H 461.307 3.97946 -1.59176 0
M  V30 4646 H 465.491 4.27077 -2.52821 0
M  V30 4647 H 460.747 4.74059 -3.86106 0
M  V30 4648 H 464.921 5.04535 -4.80018 0
M  V30 4649 H 462.548 5.27724 -5.47185 0
M  V30 4650 N 464.123 0.554532 1.47522 0
M  V30 4651 C 465.539 0.214107 1.58157 0
M  V30 4652 C 465.739 -1.28331 1.55349 0
M  V30 4653 O 464.795 -2.06329 1.45549 0
M  V30 4654 C 466.108 0.838391 2.88776 0
M  V30 4655 C 467.656 0.809374 3.02354 0
M  V30 4656 C 468.131 1.41268 4.35669 0
M  V30 4657 N 469.622 1.37574 4.42298 0
M  V30 4658 C 470.357 1.8122 5.4401 0
M  V30 4659 N 469.853 2.3271 6.52547 0
M  V30 4660 N 471.646 1.72307 5.35039 0
M  V30 4661 H 463.797 1.52744 1.4759 0
M  V30 4662 H 466.06 0.636812 0.702264 0
M  V30 4663 H 465.766 1.89065 2.96559 0
M  V30 4664 H 465.64 0.329847 3.75755 0
M  V30 4665 H 468.027 -0.234187 2.94169 0
M  V30 4666 H 468.108 1.35565 2.16924 0
M  V30 4667 H 467.752 2.45529 4.4461 0
M  V30 4668 H 467.682 0.841871 5.19827 0
M  V30 4669 H 470.173 0.999081 3.64454 0
M  V30 4670 H 470.486 2.63944 7.26329 0
M  V30 4671 H 468.831 2.36719 6.53444 0
M  V30 4672 H 472.022 1.3186 4.49144 0
M  V30 4673 H 472.195 2.06641 6.14169 0
M  V30 4674 N 465.601 -1.54893 0.290851 0
M  V30 4675 C 466.826 -2.04804 -0.32712 0
M  V30 4676 C 467.251 -1.16721 -1.47506 0
M  V30 4677 O 466.609 -0.169107 -1.8051 0
M  V30 4678 C 466.657 -3.52268 -0.770689 0
M  V30 4679 O 465.761 -3.67236 -1.87647 0
M  V30 4680 H 465.102 -0.660789 -0.0652227 0
M  V30 4681 H 467.632 -2.00036 0.429739 0
M  V30 4682 H 467.642 -3.9393 -1.06223 0
M  V30 4683 H 466.317 -4.15843 0.069096 0
M  V30 4684 H 464.894 -3.37479 -1.58626 0
M  V30 4685 N 467.08 -0.0183926 -1.57589 0
M  V30 4686 C 468.028 0.985111 -2.10709 0
M  V30 4687 C 469.022 1.34397 -1.0312 0
M  V30 4688 O 470.228 1.32746 -1.21567 0
M  V30 4689 H 466.603 0.335418 -0.673052 0
M  V30 4690 H 468.574 0.511689 -2.9398 0
M  V30 4691 C 467.323 2.26202 -2.64061 0
M  V30 4692 H 466.646 1.9946 -3.4649 0
M  V30 4693 H 468.086 2.94652 -3.04887 0
M  V30 4694 C 466.545 2.98444 -1.5631 0
M  V30 4695 O 467.075 3.90142 -0.956674 0
M  V30 4696 N 465.281 2.6059 -1.28612 0
M  V30 4697 H 464.828 1.86101 -1.78112 0
M  V30 4698 H 464.786 3.09238 -0.567406 0
M  V30 4699 N 468.558 1.5553 0.254621 0
M  V30 4700 C 469.805 1.77 0.983736 0
M  V30 4701 C 470.133 0.58133 1.85609 0
M  V30 4702 O 469.388 -0.435621 1.9079 0
M  V30 4703 C 469.687 3.03891 1.88109 0
M  V30 4704 C 469.353 4.35597 1.16472 0
M  V30 4705 C 468.015 4.7139 0.966714 0
M  V30 4706 C 470.367 5.1705 0.656387 0
M  V30 4707 C 467.695 5.86176 0.247942 0
M  V30 4708 C 470.047 6.32581 -0.0488807 0
M  V30 4709 C 468.711 6.67 -0.258438 0
M  V30 4710 H 467.981 0.647688 0.359974 0
M  V30 4711 H 470.628 1.89802 0.254463 0
M  V30 4712 H 468.933 2.86068 2.67717 0
M  V30 4713 H 470.63 3.17701 2.44677 0
M  V30 4714 H 467.22 4.07475 1.32899 0
M  V30 4715 H 471.404 4.8986 0.796933 0
M  V30 4716 H 466.66 6.11354 0.075035 0
M  V30 4717 H 470.834 6.94942 -0.450444 0
M  V30 4718 H 468.461 7.55793 -0.817358 0
M  V30 4719 N 470.036 -0.519951 1.48776 0
M  V30 4720 C 471.452 -0.849418 1.35119 0
M  V30 4721 C 471.652 -1.98077 0.36982 0
M  V30 4722 O 470.708 -2.51664 -0.205359 0
M  V30 4723 C 472.021 -1.20748 2.75391 0
M  V30 4724 C 473.569 -1.31679 2.83954 0
M  V30 4725 C 474.044 -1.70824 4.24951 0
M  V30 4726 N 475.535 -1.77908 4.27672 0
M  V30 4727 C 476.27 -2.09603 5.33717 0
M  V30 4728 N 475.766 -2.39652 6.5003 0
M  V30 4729 N 477.559 -2.10694 5.21119 0
M  V30 4730 H 469.71 0.226377 2.1119 0
M  V30 4731 H 471.973 0.0386519 0.947212 0
M  V30 4732 H 471.679 -0.449703 3.48813 0
M  V30 4733 H 471.553 -2.15534 3.09556 0
M  V30 4734 H 473.94 -2.06532 2.10781 0
M  V30 4735 H 474.021 -0.3499 2.53396 0
M  V30 4736 H 473.665 -0.965282 4.98643 0
M  V30 4737 H 473.595 -2.6858 4.52959 0
M  V30 4738 H 476.086 -1.56923 3.43779 0
M  V30 4739 H 476.399 -2.6297 7.26682 0
M  V30 4740 H 474.744 -2.37149 6.53288 0
M  V30 4741 H 477.935 -1.86682 4.29264 0
M  V30 4742 H 478.108 -2.35062 6.03863 0
M  V30 4743 N 471.514 -1.37532 -0.769588 0
M  V30 4744 C 472.93 -1.18379 -1.07045 0
M  V30 4745 C 473.13 -0.0214312 -2.01489 0
M  V30 4746 O 472.186 0.637809 -2.44312 0
M  V30 4747 C 473.499 -2.50338 -1.66588 0
M  V30 4748 C 475.047 -2.56879 -1.78835 0
M  V30 4749 C 475.522 -3.88974 -2.41792 0
M  V30 4750 N 477.013 -3.90428 -2.4924 0
M  V30 4751 C 477.748 -4.89388 -2.98809 0
M  V30 4752 N 477.244 -5.98745 -3.48535 0
M  V30 4753 N 479.037 -4.76791 -2.97703 0
M  V30 4754 H 471.188 -2.11921 -0.142541 0
M  V30 4755 H 473.451 -0.939608 -0.125863 0
M  V30 4756 H 473.157 -3.35767 -1.0466 0
M  V30 4757 H 473.031 -2.67583 -2.65856 0
M  V30 4758 H 475.418 -1.71856 -2.39895 0
M  V30 4759 H 475.499 -2.43516 -0.783166 0
M  V30 4760 H 475.143 -4.74412 -1.81371 0
M  V30 4761 H 475.073 -3.99641 -3.4292 0
M  V30 4762 H 477.564 -3.11433 -2.14052 0
M  V30 4763 H 477.877 -6.70205 -3.84767 0
M  V30 4764 H 476.222 -6.02387 -3.46634 0
M  V30 4765 H 479.413 -3.90478 -2.58157 0
M  V30 4766 H 479.586 -5.54069 -3.36024 0
M  V30 4767 N 472.992 0.995999 -1.22138 0
M  V30 4768 C 473.924 2.08745 -0.946485 0
M  V30 4769 C 474.937 1.62633 0.0737356 0
M  V30 4770 O 476.126 1.77782 -0.159886 0
M  V30 4771 C 473.226 3.36516 -0.401305 0
M  V30 4772 C 472.399 4.11672 -1.47801 0
M  V30 4773 C 471.458 5.17728 -0.940461 0
M  V30 4774 O 470.484 5.45482 -1.62596 0
M  V30 4775 N 471.686 5.80005 0.239723 0
M  V30 4776 H 474.451 2.32908 -1.88611 0
M  V30 4777 H 472.012 1.16152 -1.12785 0
M  V30 4778 H 474.004 4.04691 -0.0270837 0
M  V30 4779 H 472.574 3.0944 0.443354 0
M  V30 4780 H 471.794 3.38171 -2.02568 0
M  V30 4781 H 473.082 4.58657 -2.20253 0
M  V30 4782 H 472.48 5.5982 0.813518 0
M  V30 4783 H 471.037 6.4943 0.555361 0
M  V30 4784 N 474.47 1.03057 1.19235 0
M  V30 4785 C 475.418 0.606391 2.24557 0
M  V30 4786 C 476.412 -0.361826 1.65491 0
M  V30 4787 O 477.618 -0.23022 1.78522 0
M  V30 4788 H 473.993 0.177838 0.730669 0
M  V30 4789 H 475.964 1.50529 2.5765 0
M  V30 4790 C 474.713 -0.0252127 3.47691 0
M  V30 4791 H 474.036 0.710838 3.9343 0
M  V30 4792 H 475.476 -0.284931 4.23042 0
M  V30 4793 C 473.935 -1.27229 3.11953 0
M  V30 4794 O 474.465 -2.36416 3.24762 0
M  V30 4795 N 472.671 -1.16169 2.6637 0
M  V30 4796 H 472.218 -0.273189 2.56147 0
M  V30 4797 H 472.176 -1.99703 2.42829 0
M  V30 4798 N 475.948 -1.35272 0.808662 0
M  V30 4799 C 477.196 -1.98316 0.389233 0
M  V30 4800 C 477.517 -1.64465 -1.04767 0
M  V30 4801 O 476.787 -0.928175 -1.72516 0
M  V30 4802 H 475.367 -0.733585 0.140935 0
M  V30 4803 H 478.029 -1.6515 1.03496 0
M  V30 4804 H 477.125 -3.08123 0.496631 0
M  V30 4805 N 477.426 -0.562348 -1.47226 0
M  V30 4806 C 478.389 0.172056 -2.28553 0
M  V30 4807 C 479.389 0.837928 -1.37242 0
M  V30 4808 O 480.579 0.693001 -1.59822 0
M  V30 4809 C 477.711 1.25223 -3.17068 0
M  V30 4810 H 478.904 -0.542401 -2.94954 0
M  V30 4811 H 476.457 -0.319493 -1.53 0
M  V30 4812 H 477.192 1.99892 -2.55369 0
M  V30 4813 H 476.977 0.779515 -3.84273 0
M  V30 4814 H 478.467 1.76791 -3.78332 0
M  V30 4815 N 478.904 1.54736 -0.299062 0
M  V30 4816 C 479.867 2.22127 0.565012 0
M  V30 4817 C 480.867 1.20669 1.06281 0
M  V30 4818 O 482.057 1.45417 0.959145 0
M  V30 4819 C 479.189 2.90611 1.78208 0
M  V30 4820 H 480.382 2.99891 -0.0237448 0
M  V30 4821 H 477.935 1.5622 -0.0498788 0
M  V30 4822 H 478.67 2.16921 2.41072 0
M  V30 4823 H 478.455 3.64984 1.43281 0
M  V30 4824 H 479.945 3.42026 2.396 0
M  V30 4825 N 480.382 0.0267497 1.57577 0
M  V30 4826 C 481.312 -0.954308 2.13108 0
M  V30 4827 C 482.293 -1.34088 1.04663 0
M  V30 4828 O 483.478 -1.41992 1.32484 0
M  V30 4829 C 480.608 -2.23744 2.65624 0
M  V30 4830 C 479.562 -1.99168 3.78835 0
M  V30 4831 C 478.888 -3.33726 4.17769 0
M  V30 4832 C 480.188 -1.33277 5.0501 0
M  V30 4833 H 481.882 -0.491848 2.95332 0
M  V30 4834 H 479.428 -0.23514 1.42067 0
M  V30 4835 H 481.381 -2.92754 3.03106 0
M  V30 4836 H 480.105 -2.72151 1.80558 0
M  V30 4837 H 478.764 -1.32577 3.41788 0
M  V30 4838 H 478.412 -3.79888 3.29688 0
M  V30 4839 H 478.112 -3.18089 4.94058 0
M  V30 4840 H 479.636 -4.04008 4.57832 0
M  V30 4841 H 481.05 -1.92283 5.40093 0
M  V30 4842 H 479.447 -1.28045 5.8628 0
M  V30 4843 H 480.517 -0.305411 4.83937 0
M  V30 4844 N 481.861 -1.55662 -0.24637 0
M  V30 4845 C 483.089 -1.81575 -0.991876 0
M  V30 4846 C 483.504 -0.602545 -1.78927 0
M  V30 4847 O 482.861 0.428795 -1.77391 0
M  V30 4848 C 482.912 -3.05711 -1.92933 0
M  V30 4849 O 482.633 -4.22348 -1.1642 0
M  V30 4850 C 484.134 -3.44428 -2.79078 0
M  V30 4851 H 481.354 -0.604209 -0.291844 0
M  V30 4852 H 483.898 -2.02722 -0.269095 0
M  V30 4853 H 482.053 -2.86612 -2.60638 0
M  V30 4854 H 482.467 -4.92706 -1.79835 0
M  V30 4855 H 483.941 -4.34388 -3.40603 0
M  V30 4856 H 484.418 -2.65037 -3.50217 0
M  V30 4857 H 485.024 -3.65879 -2.16824 0
M  V30 4858 N 483.339 0.512053 -1.4905 0
M  V30 4859 C 484.564 1.2959 -1.6193 0
M  V30 4860 C 484.989 1.85906 -0.286454 0
M  V30 4861 O 484.347 1.65312 0.744426 0
M  V30 4862 C 484.395 2.40987 -2.68249 0
M  V30 4863 O 483.499 3.44531 -2.26654 0
M  V30 4864 H 482.84 0.383053 -0.542371 0
M  V30 4865 H 485.37 0.614231 -1.95162 0
M  V30 4866 H 485.38 2.86913 -2.90078 0
M  V30 4867 H 484.055 1.99361 -3.65004 0
M  V30 4868 H 482.632 3.046 -2.15112 0
M  V30 4869 N 484.817 1.37938 0.762283 0
M  V30 4870 C 485.78 1.34279 1.85747 0
M  V30 4871 C 486.78 0.244969 1.58923 0
M  V30 4872 O 487.97 0.501365 1.66829 0
M  V30 4873 C 485.102 1.08833 3.23061 0
M  V30 4874 H 486.295 2.31705 1.90401 0
M  V30 4875 H 483.848 1.23105 0.963057 0
M  V30 4876 H 484.583 0.119767 3.24079 0
M  V30 4877 H 484.368 1.88306 3.43923 0
M  V30 4878 H 485.858 1.08946 4.03138 0
M  V30 4879 N 486.295 -0.989507 1.22664 0
M  V30 4880 C 487.52 -1.77031 1.08051 0
M  V30 4881 C 487.945 -1.84535 -0.364483 0
M  V30 4882 O 487.303 -1.3003 -1.2634 0
M  V30 4883 C 487.351 -3.18 1.70024 0
M  V30 4884 O 486.455 -4.01161 0.956216 0
M  V30 4885 H 485.796 -0.545008 0.379292 0
M  V30 4886 H 488.326 -1.24277 1.62531 0
M  V30 4887 H 488.336 -3.68616 1.74888 0
M  V30 4888 H 487.011 -3.11853 2.75174 0
M  V30 4889 H 485.588 -3.59687 0.98384 0
M  V30 4890 N 487.773 -1.03688 -1.18687 0
M  V30 4891 C 489.022 -0.733235 -1.879 0
M  V30 4892 C 489.335 0.741745 -1.8099 0
M  V30 4893 O 490.541 1.15875 -2.4553 0
M  V30 4894 C 488.997 -1.26127 -3.37076 0
M  V30 4895 C 488.605 -2.76461 -3.52524 0
M  V30 4896 C 490.349 -1.03398 -4.11715 0
M  V30 4897 C 488.256 -3.22642 -4.95637 0
M  V30 4898 H 487.186 -0.270584 -0.703776 0
M  V30 4899 H 489.837 -1.25222 -1.34133 0
M  V30 4900 H 488.219 -0.670165 -3.90288 0
M  V30 4901 H 489.393 -3.41296 -3.09602 0
M  V30 4902 H 487.708 -2.97559 -2.91286 0
M  V30 4903 H 490.305 -1.3542 -5.17267 0
M  V30 4904 H 490.648 0.0289246 -4.1629 0
M  V30 4905 H 491.181 -1.5895 -3.64664 0
M  V30 4906 H 487.92 -4.28296 -4.96228 0
M  V30 4907 H 487.44 -2.62539 -5.39289 0
M  V30 4908 H 489.119 -3.16444 -5.64333 0
M  V30 4909 N 489.251 1.34841 -0.815825 0
M  V30 4910 C 490.181 2.32187 -0.247298 0
M  V30 4911 C 491.162 1.5791 0.632344 0
M  V30 4912 O 492.347 1.8593 0.560698 0
M  V30 4913 C 489.477 3.42122 0.597466 0
M  V30 4914 C 488.431 4.27602 -0.184446 0
M  V30 4915 C 487.757 5.28942 0.782609 0
M  V30 4916 C 489.057 5.03502 -1.38865 0
M  V30 4917 H 490.751 2.79985 -1.06061 0
M  V30 4918 H 488.297 1.34611 -0.511461 0
M  V30 4919 H 490.25 4.09232 1.00533 0
M  V30 4920 H 488.974 2.92956 1.44376 0
M  V30 4921 H 487.633 3.62085 -0.573592 0
M  V30 4922 H 487.281 4.7604 1.62466 0
M  V30 4923 H 486.981 5.87008 0.263695 0
M  V30 4924 H 488.505 5.98922 1.18848 0
M  V30 4925 H 489.919 5.63506 -1.05518 0
M  V30 4926 H 488.316 5.71108 -1.8427 0
M  V30 4927 H 489.386 4.33608 -2.17054 0
M  V30 4928 N 490.729 0.570148 1.46925 0
M  V30 4929 C 491.692 -0.159933 2.28641 0
M  V30 4930 C 492.692 -0.830638 1.37685 0
M  V30 4931 O 493.882 -0.684516 1.60187 0
M  V30 4932 C 491.014 -1.2354 3.17727 0
M  V30 4933 H 492.207 0.558035 2.94662 0
M  V30 4934 H 489.76 0.327603 1.52828 0
M  V30 4935 H 490.495 -1.98535 2.56426 0
M  V30 4936 H 490.28 -0.759125 3.84681 0
M  V30 4937 H 491.77 -1.74782 3.79264 0
M  V30 4938 N 492.207 -1.54576 0.307264 0
M  V30 4939 C 493.139 -2.21212 -0.599807 0
M  V30 4940 C 494.152 -1.20685 -1.09266 0
M  V30 4941 O 495.341 -1.47244 -1.00903 0
M  V30 4942 C 492.441 -2.84994 -1.83389 0
M  V30 4943 C 491.614 -4.11511 -1.48248 0
M  V30 4944 C 490.673 -4.59038 -2.57237 0
M  V30 4945 O 489.699 -5.24095 -2.22065 0
M  V30 4946 N 490.901 -4.31884 -3.87887 0
M  V30 4947 H 493.666 -2.99686 -0.0293075 0
M  V30 4948 H 491.227 -1.61379 0.129738 0
M  V30 4949 H 493.219 -3.1372 -2.5566 0
M  V30 4950 H 491.789 -2.10324 -2.31263 0
M  V30 4951 H 491.009 -3.89728 -0.592122 0
M  V30 4952 H 492.297 -4.93879 -1.22316 0
M  V30 4953 H 491.695 -3.79778 -4.19268 0
M  V30 4954 H 490.252 -4.65304 -4.56438 0
M  V30 4955 N 493.685 -0.035106 -1.57561 0
M  V30 4956 C 494.617 0.973604 -2.07494 0
M  V30 4957 C 495.63 1.28504 -0.999534 0
M  V30 4958 O 496.819 1.24864 -1.27559 0
M  V30 4959 C 493.919 2.29945 -2.48955 0
M  V30 4960 C 493.092 2.1723 -3.79644 0
M  V30 4961 C 492.151 3.328 -4.07592 0
M  V30 4962 O 491.177 3.09418 -4.77754 0
M  V30 4963 N 492.379 4.56779 -3.58236 0
M  V30 4964 H 495.144 0.547525 -2.94656 0
M  V30 4965 H 492.705 0.151515 -1.61189 0
M  V30 4966 H 494.697 3.06097 -2.64739 0
M  V30 4967 H 493.267 2.64173 -1.67126 0
M  V30 4968 H 492.487 1.25768 -3.73599 0
M  V30 4969 H 493.775 2.05945 -4.65257 0
M  V30 4970 H 493.173 4.78668 -3.01485 0
M  V30 4971 H 491.73 5.30079 -3.79288 0
M  V30 4972 N 495.163 1.55791 0.238111 0
M  V30 4973 C 496.409 1.78297 0.966337 0
M  V30 4974 C 496.742 0.601903 1.84637 0
M  V30 4975 O 496.017 -0.399499 1.90353 0
M  V30 4976 C 496.3 3.10758 1.81939 0
M  V30 4977 C 496.153 4.39283 0.966958 0
M  V30 4978 C 497.472 3.39519 2.80027 0
M  V30 4979 H 494.591 0.648654 0.349882 0
M  V30 4980 H 497.233 1.88525 0.236253 0
M  V30 4981 H 495.383 3.02168 2.44185 0
M  V30 4982 H 497.055 4.59873 0.362514 0
M  V30 4983 H 495.298 4.32948 0.271669 0
M  V30 4984 H 495.969 5.28368 1.59784 0
M  V30 4985 H 498.445 3.48128 2.27917 0
M  V30 4986 H 497.321 4.33402 3.36829 0
M  V30 4987 H 497.582 2.60864 3.56934 0
M  V30 4988 N 496.642 -0.504142 1.49319 0
M  V30 4989 C 497.888 -1.25767 1.59857 0
M  V30 4990 C 498.243 -1.90348 0.280262 0
M  V30 4991 O 497.536 -1.77588 -0.719241 0
M  V30 4992 C 497.73 -2.35021 2.69258 0
M  V30 4993 C 497.559 -1.81154 4.11598 0
M  V30 4994 C 496.329 -1.62596 4.78425 0
M  V30 4995 C 498.527 -1.3252 4.96934 0
M  V30 4996 N 496.509 -1.03625 6.05091 0
M  V30 4997 C 497.88 -0.856633 6.14054 0
M  V30 4998 C 499.935 -1.21063 4.82958 0
M  V30 4999 C 498.638 -0.284841 7.18736 0
M  V30 5000 C 500.664 -0.652815 5.87786 0
M  V30 5001 C 500.026 -0.194461 7.04132 0
M  V30 5002 H 496.125 -0.450293 0.639343 0
M  V30 5003 H 498.709 -0.565344 1.86311 0
M  V30 5004 H 496.88 -3.01719 2.44581 0
M  V30 5005 H 498.612 -3.02061 2.69335 0
M  V30 5006 H 495.367 -1.86873 4.35173 0
M  V30 5007 H 495.791 -0.76076 6.72712 0
M  V30 5008 H 500.433 -1.551 3.93324 0
M  V30 5009 H 498.151 0.0677979 8.08072 0
M  V30 5010 H 501.737 -0.566994 5.79031 0
M  V30 5011 H 500.617 0.230442 7.83861 0
M  V30 5012 N 498.12 -1.38341 -0.754957 0
M  V30 5013 C 499.368 -1.34208 -1.51105 0
M  V30 5014 C 499.689 0.0677634 -1.94882 0
M  V30 5015 O 498.959 1.01517 -1.67544 0
M  V30 5016 H 497.539 -0.493819 -0.560493 0
M  V30 5017 H 500.201 -1.73005 -0.897507 0
M  V30 5018 H 499.297 -1.99203 -2.4026 0
M  V30 5019 N 499.598 0.982988 -1.23187 0
M  V30 5020 C 500.826 1.75921 -1.08901 0
M  V30 5021 C 501.241 1.85341 0.359719 0
M  V30 5022 O 500.598 1.33072 1.24892 0
M  V30 5023 C 500.649 3.18742 -1.70545 0
M  V30 5024 O 500.37 3.09814 -3.09753 0
M  V30 5025 C 501.871 4.1277 -1.61667 0
M  V30 5026 H 499.091 0.552166 -0.381252 0
M  V30 5027 H 501.635 1.23516 -1.62985 0
M  V30 5028 H 499.79 3.68182 -1.20501 0
M  V30 5029 H 500.204 3.99703 -3.39614 0
M  V30 5030 H 501.678 5.10697 -2.09506 0
M  V30 5031 H 502.155 4.3542 -0.575009 0
M  V30 5032 H 502.761 3.69232 -2.11064 0
M  V30 5033 N 501.076 1.04316 1.18135 0
M  V30 5034 C 502.006 0.657299 2.24058 0
M  V30 5035 C 502.987 -0.340678 1.66654 0
M  V30 5036 O 504.172 -0.220223 1.92947 0
M  V30 5037 C 501.302 0.0220715 3.47293 0
M  V30 5038 C 500.256 0.943857 4.17463 0
M  V30 5039 C 499.582 0.172973 5.3442 0
M  V30 5040 C 500.882 2.26409 4.70677 0
M  V30 5041 H 502.576 1.5428 2.56589 0
M  V30 5042 H 500.122 0.743263 1.23335 0
M  V30 5043 H 502.075 -0.259607 4.206 0
M  V30 5044 H 500.799 -0.898323 3.14003 0
M  V30 5045 H 499.458 1.20996 3.46057 0
M  V30 5046 H 499.106 -0.749907 4.97379 0
M  V30 5047 H 498.806 0.787098 5.82304 0
M  V30 5048 H 500.33 -0.101628 6.10515 0
M  V30 5049 H 501.744 2.04294 5.35665 0
M  V30 5050 H 500.141 2.8314 5.29105 0
M  V30 5051 H 501.211 2.90883 3.87962 0
M  V30 5052 N 502.554 -1.34406 0.822964 0
M  V30 5053 C 503.8 -1.98578 0.411666 0
M  V30 5054 C 504.133 -1.65093 -1.02264 0
M  V30 5055 O 503.408 -0.92258 -1.71227 0
M  V30 5056 C 503.691 -3.54823 0.614235 0
M  V30 5057 C 503.544 -3.9805 2.09466 0
M  V30 5058 C 504.863 -4.40071 0.050221 0
M  V30 5059 H 501.982 -0.721355 0.151047 0
M  V30 5060 H 504.624 -1.59301 1.03554 0
M  V30 5061 H 502.774 -3.88411 0.0831774 0
M  V30 5062 H 504.446 -3.74795 2.68936 0
M  V30 5063 H 502.689 -3.4836 2.5851 0
M  V30 5064 H 503.36 -5.06819 2.18721 0
M  V30 5065 H 505.836 -4.13037 0.503953 0
M  V30 5066 H 504.712 -5.48452 0.221759 0
M  V30 5067 H 504.973 -4.29576 -1.04482 0
M  V30 5068 N 504.032 -0.577932 -1.46621 0
M  V30 5069 C 504.962 0.145917 -2.33044 0
M  V30 5070 C 505.943 0.888412 -1.45056 0
M  V30 5071 O 507.128 0.864812 -1.73881 0
M  V30 5072 C 504.258 1.16322 -3.27241 0
M  V30 5073 C 503.212 0.535868 -4.24632 0
M  V30 5074 C 502.538 1.65929 -5.08303 0
M  V30 5075 C 503.838 -0.523861 -5.19666 0
M  V30 5076 H 505.532 -0.575636 -2.93814 0
M  V30 5077 H 503.078 -0.278272 -1.41286 0
M  V30 5078 H 505.031 1.67793 -3.86553 0
M  V30 5079 H 503.755 1.91498 -2.64567 0
M  V30 5080 H 502.414 0.0422759 -3.66576 0
M  V30 5081 H 502.062 2.40061 -4.42018 0
M  V30 5082 H 501.762 1.2452 -5.74255 0
M  V30 5083 H 503.286 2.17686 -5.70478 0
M  V30 5084 H 504.7 -0.0944059 -5.73222 0
M  V30 5085 H 503.097 -0.858 -5.93935 0
M  V30 5086 H 504.167 -1.41197 -4.63887 0
M  V30 5087 N 505.51 1.54411 -0.315457 0
M  V30 5088 C 506.44 2.27002 0.547039 0
M  V30 5089 C 507.421 1.27492 1.12605 0
M  V30 5090 O 508.606 1.5629 1.15269 0
M  V30 5091 C 505.736 3.02171 1.71201 0
M  V30 5092 C 504.69 4.0895 1.26268 0
M  V30 5093 C 504.016 4.71915 2.51396 0
M  V30 5094 C 505.316 5.20891 0.383419 0
M  V30 5095 H 507.01 2.99343 -0.0584517 0
M  V30 5096 H 504.556 1.4397 -0.0295527 0
M  V30 5097 H 506.509 3.51681 2.32161 0
M  V30 5098 H 505.233 2.27433 2.34397 0
M  V30 5099 H 503.892 3.60312 0.676062 0
M  V30 5100 H 503.54 3.93801 3.12937 0
M  V30 5101 H 503.24 5.44039 2.22026 0
M  V30 5102 H 504.764 5.24195 3.13133 0
M  V30 5103 H 506.178 5.66206 0.899082 0
M  V30 5104 H 504.575 5.99821 0.182857 0
M  V30 5105 H 505.645 4.81324 -0.587821 0
M  V30 5106 N 506.988 0.0434614 1.5754 0
M  V30 5107 C 507.92 -0.962586 2.08007 0
M  V30 5108 C 508.933 -1.27972 1.00634 0
M  V30 5109 O 510.122 -1.24186 1.28219 0
M  V30 5110 C 507.222 -2.28621 2.50171 0
M  V30 5111 C 506.395 -2.15214 3.80791 0
M  V30 5112 C 505.454 -3.30633 4.09351 0
M  V30 5113 O 504.48 -3.0688 4.79388 0
M  V30 5114 N 505.682 -4.54873 3.60654 0
M  V30 5115 H 508.447 -0.531891 2.94942 0
M  V30 5116 H 506.008 -0.142965 1.61268 0
M  V30 5117 H 508 -3.04689 2.66359 0
M  V30 5118 H 506.57 -2.63283 1.68525 0
M  V30 5119 H 505.79 -1.23785 3.74261 0
M  V30 5120 H 507.078 -2.03475 4.66343 0
M  V30 5121 H 506.476 -4.77063 3.04019 0
M  V30 5122 H 505.033 -5.2806 3.82094 0
M  V30 5123 N 508.466 -1.55915 -0.229846 0
M  V30 5124 C 509.882 -1.48721 -0.579166 0
M  V30 5125 C 510.082 -0.736976 -1.87539 0
M  V30 5126 O 509.138 -0.273258 -2.51017 0
M  V30 5127 C 510.451 -2.9323 -0.666082 0
M  V30 5128 C 511.999 -3.03701 -0.757267 0
M  V30 5129 C 512.474 -4.49552 -0.8756 0
M  V30 5130 N 513.965 -4.53561 -0.940035 0
M  V30 5131 C 514.7 -5.63683 -1.05116 0
M  V30 5132 N 514.196 -6.83576 -1.12675 0
M  V30 5133 N 515.989 -5.51516 -1.08565 0
M  V30 5134 H 508.14 -2.03123 0.620857 0
M  V30 5135 H 510.403 -0.922898 0.21671 0
M  V30 5136 H 510.109 -3.51032 0.21664 0
M  V30 5137 H 509.983 -3.44668 -1.53243 0
M  V30 5138 H 512.37 -2.45969 -1.63043 0
M  V30 5139 H 512.451 -2.55446 0.134583 0
M  V30 5140 H 512.095 -5.079 -0.00692351 0
M  V30 5141 H 512.025 -4.95506 -1.78274 0
M  V30 5142 H 514.516 -3.67215 -0.892269 0
M  V30 5143 H 514.829 -7.63251 -1.21109 0
M  V30 5144 H 513.174 -6.86303 -1.09603 0
M  V30 5145 H 516.365 -4.5678 -1.02319 0
M  V30 5146 H 516.538 -6.37372 -1.1688 0
M  V30 5147 N 509.944 0.496216 -1.49584 0
M  V30 5148 C 510.874 1.60576 -1.69521 0
M  V30 5149 C 511.855 1.61169 -0.543933 0
M  V30 5150 O 513.04 1.77834 -0.78031 0
M  V30 5151 C 510.17 2.99038 -1.76616 0
M  V30 5152 C 509.124 3.13312 -2.91581 0
M  V30 5153 C 508.45 4.53172 -2.83794 0
M  V30 5154 C 509.75 2.92886 -4.32452 0
M  V30 5155 H 511.444 1.44146 -2.62416 0
M  V30 5156 H 508.99 0.692024 -1.26282 0
M  V30 5157 H 510.943 3.76564 -1.8915 0
M  V30 5158 H 509.667 3.16568 -0.80324 0
M  V30 5159 H 508.326 2.38213 -2.78658 0
M  V30 5160 H 507.974 4.67585 -1.854 0
M  V30 5161 H 507.674 4.63662 -3.60958 0
M  V30 5162 H 509.198 5.32752 -2.98342 0
M  V30 5163 H 510.612 3.60178 -4.46032 0
M  V30 5164 H 509.009 3.14844 -5.10875 0
M  V30 5165 H 510.079 1.88966 -4.46565 0
M  V30 5166 N 511.423 1.38739 0.74761 0
M  V30 5167 C 512.333 1.38696 1.89211 0
M  V30 5168 C 513.349 0.283303 1.71678 0
M  V30 5169 O 514.525 0.522713 1.94498 0
M  V30 5170 C 511.59 1.21662 3.24653 0
M  V30 5171 C 510.651 2.41886 3.54669 0
M  V30 5172 C 509.884 2.25655 4.83648 0
M  V30 5173 O 510.107 1.25339 5.56459 0
M  V30 5174 O 509.041 3.14372 5.13277 0
M  V30 5175 H 512.867 2.35143 1.92202 0
M  V30 5176 H 510.452 1.19721 0.893708 0
M  V30 5177 H 512.334 1.14246 4.05618 0
M  V30 5178 H 511.009 0.283024 3.2246 0
M  V30 5179 H 509.916 2.54877 2.73841 0
M  V30 5180 H 511.249 3.33895 3.61628 0
M  V30 5181 N 512.901 -0.976442 1.23707 0
M  V30 5182 C 514.312 -1.53284 1.06587 0
M  V30 5183 C 514.663 -1.92765 -0.365526 0
M  V30 5184 O 513.788 -1.7645 -1.25277 0
M  V30 5185 C 514.383 -2.78548 1.92864 0
M  V30 5186 C 512.942 -3.30574 1.79994 0
M  V30 5187 C 512.089 -2.03538 1.88328 0
M  V30 5188 H 515.04 -0.795692 1.37311 0
M  V30 5189 H 515.061 -3.5155 1.45577 0
M  V30 5190 H 514.573 -2.49782 2.97037 0
M  V30 5191 H 512.674 -3.64211 0.786202 0
M  V30 5192 H 512.787 -4.00065 2.636 0
M  V30 5193 H 511.151 -2.17853 1.31954 0
M  V30 5194 H 511.934 -1.77149 2.94063 0
M  V30 5195 N 514.379 -1.04941 -1.1758 0
M  V30 5196 C 515.625 -0.759112 -1.88057 0
M  V30 5197 C 515.958 0.711918 -1.8068 0
M  V30 5198 O 515.233 1.52035 -1.21308 0
M  V30 5199 C 515.516 -1.237 -3.38187 0
M  V30 5200 C 515.369 -2.77078 -3.54327 0
M  V30 5201 C 516.688 -0.834014 -4.32125 0
M  V30 5202 H 513.807 -0.277237 -0.682868 0
M  V30 5203 H 516.449 -1.30296 -1.38286 0
M  V30 5204 H 514.599 -0.774337 -3.80705 0
M  V30 5205 H 516.271 -3.31449 -3.20842 0
M  V30 5206 H 514.514 -3.16477 -2.96689 0
M  V30 5207 H 515.185 -3.05577 -4.59703 0
M  V30 5208 H 517.661 -1.23228 -3.97434 0
M  V30 5209 H 516.537 -1.19603 -5.35711 0
M  V30 5210 H 516.798 0.262195 -4.41322 0
M  V30 5211 N 515.857 1.33968 -0.830081 0
M  V30 5212 C 516.807 2.26845 -0.229242 0
M  V30 5213 C 517.791 1.48862 0.610659 0
M  V30 5214 O 518.983 1.70808 0.464067 0
M  V30 5215 C 516.112 3.3798 0.602057 0
M  V30 5216 C 515.198 4.23369 -0.248866 0
M  V30 5217 N 515.589 4.88182 -1.32334 0
M  V30 5218 C 513.887 4.45987 -0.0344077 0
M  V30 5219 C 514.588 5.51671 -1.84482 0
M  V30 5220 N 513.564 5.31348 -1.14762 0
M  V30 5221 H 517.366 2.74464 -1.05104 0
M  V30 5222 H 514.88 1.4777 -0.673623 0
M  V30 5223 H 516.877 4.03494 1.04873 0
M  V30 5224 H 515.537 2.9191 1.42193 0
M  V30 5225 H 516.548 4.88988 -1.70619 0
M  V30 5226 H 513.225 4.10658 0.752727 0
M  V30 5227 H 514.615 6.13308 -2.74413 0
M  V30 5228 N 517.335 0.585699 1.46312 0
M  V30 5229 C 518.265 -0.133556 2.33118 0
M  V30 5230 C 519.246 -0.880707 1.45525 0
M  V30 5231 O 520.431 -0.855579 1.74337 0
M  V30 5232 C 517.561 -1.14585 3.27853 0
M  V30 5233 C 516.515 -0.513341 4.2491 0
M  V30 5234 C 515.841 -1.63231 5.09175 0
M  V30 5235 C 517.141 0.551413 5.19381 0
M  V30 5236 H 518.835 0.59121 2.93505 0
M  V30 5237 H 516.381 0.285761 1.41136 0
M  V30 5238 H 518.334 -1.65741 3.87438 0
M  V30 5239 H 517.058 -1.90093 2.65579 0
M  V30 5240 H 515.717 -0.0228349 3.66593 0
M  V30 5241 H 515.365 -2.37713 4.43285 0
M  V30 5242 H 515.065 -1.21473 5.74907 0
M  V30 5243 H 516.589 -2.14658 5.71624 0
M  V30 5244 H 518.003 0.124804 5.73164 0
M  V30 5245 H 516.4 0.889486 5.93471 0
M  V30 5246 H 517.47 1.43655 4.63132 0
M  V30 5247 N 518.813 -1.54241 0.323641 0
M  V30 5248 C 519.745 -2.21836 -0.576311 0
M  V30 5249 C 520.758 -1.21837 -1.07979 0
M  V30 5250 O 521.947 -1.48306 -0.99336 0
M  V30 5251 C 519.047 -2.86923 -1.80356 0
M  V30 5252 C 518.22 -4.1306 -1.43875 0
M  V30 5253 C 517.279 -4.6174 -2.52353 0
M  V30 5254 O 516.305 -5.26421 -2.16494 0
M  V30 5255 N 517.507 -4.35974 -3.83284 0
M  V30 5256 H 520.272 -2.997 0.00247987 0
M  V30 5257 H 517.833 -1.61233 0.146848 0
M  V30 5258 H 519.825 -3.16414 -2.52318 0
M  V30 5259 H 518.395 -2.12765 -2.29019 0
M  V30 5260 H 517.615 -3.90334 -0.550752 0
M  V30 5261 H 518.903 -4.95148 -1.17071 0
M  V30 5262 H 518.301 -3.84203 -4.15216 0
M  V30 5263 H 516.858 -4.70119 -4.51477 0
M  V30 5264 N 520.291 -0.0518155 -1.57515 0
M  V30 5265 C 521.221 0.920283 -2.146 0
M  V30 5266 C 522.202 1.32406 -1.06783 0
M  V30 5267 O 523.387 1.39866 -1.34726 0
M  V30 5268 C 520.517 2.1949 -2.6915 0
M  V30 5269 C 519.471 1.93116 -3.81956 0
M  V30 5270 C 518.797 3.27037 -4.23026 0
M  V30 5271 C 520.097 1.25225 -5.07066 0
M  V30 5272 H 521.791 0.444801 -2.96077 0
M  V30 5273 H 519.337 0.212508 -1.42423 0
M  V30 5274 H 521.29 2.87894 -3.07725 0
M  V30 5275 H 520.014 2.69244 -1.84865 0
M  V30 5276 H 518.673 1.27123 -3.43854 0
M  V30 5277 H 518.321 3.74595 -3.3569 0
M  V30 5278 H 518.021 3.10189 -4.99056 0
M  V30 5279 H 519.545 3.96673 -4.64202 0
M  V30 5280 H 520.959 1.83666 -5.43083 0
M  V30 5281 H 519.356 1.18702 -5.88243 0
M  V30 5282 H 520.426 0.228382 -4.84362 0
M  V30 5283 N 521.769 1.56035 0.221574 0
M  V30 5284 C 522.701 1.889 1.29805 0
M  V30 5285 C 523.714 0.777269 1.43047 0
M  V30 5286 O 524.903 1.05557 1.43945 0
M  V30 5287 C 522.003 2.0825 2.67367 0
M  V30 5288 C 521.176 3.39267 2.76073 0
M  V30 5289 C 520.235 3.48049 3.94649 0
M  V30 5290 O 519.261 4.2108 3.82988 0
M  V30 5291 N 520.463 2.79191 5.08953 0
M  V30 5292 H 523.228 2.81831 1.01938 0
M  V30 5293 H 520.789 1.5658 0.411612 0
M  V30 5294 H 522.781 2.11441 3.45072 0
M  V30 5295 H 521.351 1.21944 2.87834 0
M  V30 5296 H 520.571 3.48175 1.84846 0
M  V30 5297 H 521.859 4.25575 2.7886 0
M  V30 5298 H 521.257 2.19635 5.21322 0
M  V30 5299 H 519.814 2.88043 5.84701 0
M  V30 5300 N 523.247 -0.488276 1.49845 0
M  V30 5301 C 524.487 -1.2516 1.61599 0
M  V30 5302 C 524.851 -1.89615 0.301706 0
M  V30 5303 O 526.052 -2.67182 0.29453 0
M  V30 5304 C 524.323 -2.2805 2.75187 0
M  V30 5305 S 525.882 -3.13552 3.0697 0
M  V30 5306 H 522.7 -0.425178 0.569864 0
M  V30 5307 H 525.302 -0.551545 1.87559 0
M  V30 5308 H 524.006 -1.7925 3.69185 0
M  V30 5309 H 523.537 -3.02708 2.5126 0
M  V30 5310 H 525.552 -4.28927 2.49471 0
M  V30 5311 N 524.725 -1.39134 -0.740242 0
M  V30 5312 C 525.658 -1.3182 -1.86276 0
M  V30 5313 C 526.636 -0.192794 -1.61453 0
M  V30 5314 O 527.82 -0.372365 -1.84786 0
M  V30 5315 C 524.947 -1.04564 -3.22155 0
M  V30 5316 C 523.993 -2.19224 -3.65846 0
M  V30 5317 S 524.826 -3.81466 -3.75824 0
M  V30 5318 C 525.982 -3.56425 -5.14502 0
M  V30 5319 H 526.215 -2.26822 -1.92195 0
M  V30 5320 H 523.748 -1.25127 -0.904576 0
M  V30 5321 H 525.706 -0.895228 -4.00619 0
M  V30 5322 H 524.367 -0.112578 -3.13898 0
M  V30 5323 H 523.56 -1.95732 -4.6444 0
M  V30 5324 H 523.162 -2.30441 -2.94572 0
M  V30 5325 H 525.454 -3.13366 -6.00673 0
M  V30 5326 H 526.397 -4.54462 -5.43019 0
M  V30 5327 H 526.805 -2.90641 -4.8393 0
M  V30 5328 N 526.204 0.969867 -1.24223 0
M  V30 5329 C 527.429 1.75289 -1.10853 0
M  V30 5330 C 527.854 1.85091 0.335079 0
M  V30 5331 O 527.212 1.32024 1.24255 0
M  V30 5332 C 527.26 3.15255 -1.75062 0
M  V30 5333 O 526.364 3.99589 -1.01992 0
M  V30 5334 H 525.705 0.538904 -0.387915 0
M  V30 5335 H 528.235 1.21675 -1.64488 0
M  V30 5336 H 528.245 3.65787 -1.80731 0
M  V30 5337 H 526.92 3.07436 -2.801 0
M  V30 5338 H 525.497 3.58077 -1.04094 0
M  V30 5339 N 527.682 1.05563 1.17022 0
M  V30 5340 C 528.614 0.617888 2.20714 0
M  V30 5341 C 529.627 -0.320303 1.59618 0
M  V30 5342 O 530.816 -0.112449 1.78145 0
M  V30 5343 C 527.916 -0.115333 3.38704 0
M  V30 5344 C 527.089 0.834493 4.29366 0
M  V30 5345 C 526.148 0.141855 5.26009 0
M  V30 5346 O 525.174 0.777151 5.6387 0
M  V30 5347 N 526.376 -1.11934 5.69606 0
M  V30 5348 H 529.141 1.50981 2.58892 0
M  V30 5349 H 526.702 0.938008 1.31958 0
M  V30 5350 H 528.694 -0.588918 4.00392 0
M  V30 5351 H 527.264 -0.908967 2.99093 0
M  V30 5352 H 526.484 1.48762 3.65053 0
M  V30 5353 H 527.772 1.4791 4.86827 0
M  V30 5354 H 527.17 -1.65574 5.40927 0
M  V30 5355 H 525.727 -1.53692 6.33421 0
M  V30 5356 N 529.16 -1.33526 0.837174 0
M  V30 5357 C 530.07 -2.33023 0.271568 0
M  V30 5358 C 531.086 -1.63272 -0.601514 0
M  V30 5359 O 532.262 -1.94939 -0.506038 0
M  V30 5360 C 529.327 -3.42382 -0.545448 0
M  V30 5361 C 528.388 -4.27857 0.351709 0
M  V30 5362 C 527.621 -5.31994 -0.426409 0
M  V30 5363 O 527.844 -5.45763 -1.65828 0
M  V30 5364 O 526.778 -6.01572 0.1987 0
M  V30 5365 H 530.604 -2.83256 1.09545 0
M  V30 5366 H 528.189 -1.36837 0.599655 0
M  V30 5367 H 530.071 -4.09122 -1.00979 0
M  V30 5368 H 528.746 -2.94369 -1.34641 0
M  V30 5369 H 527.653 -3.6399 0.863853 0
M  V30 5370 H 528.986 -4.79349 1.1174 0
M  V30 5371 N 530.638 -0.59345 -1.46 0
M  V30 5372 C 531.57 0.171569 -2.28557 0
M  V30 5373 C 532.583 0.845273 -1.39137 0
M  V30 5374 O 533.772 0.713033 -1.6364 0
M  V30 5375 C 530.872 1.26311 -3.14482 0
M  V30 5376 C 530.045 0.679258 -4.32094 0
M  V30 5377 C 529.104 1.65987 -4.99334 0
M  V30 5378 O 528.13 1.19171 -5.56585 0
M  V30 5379 N 529.332 2.99414 -4.97324 0
M  V30 5380 H 532.097 -0.536771 -2.94854 0
M  V30 5381 H 529.658 -0.431954 -1.56031 0
M  V30 5382 H 531.65 1.91863 -3.5633 0
M  V30 5383 H 530.22 1.87416 -2.50188 0
M  V30 5384 H 529.44 -0.153992 -3.93899 0
M  V30 5385 H 530.728 0.26916 -5.08088 0
M  V30 5386 H 530.126 3.40064 -4.52076 0
M  V30 5387 H 528.683 3.60426 -5.4308 0
M  V30 5388 N 532.116 1.54067 -0.331816 0
M  V30 5389 C 533.046 2.27569 0.522932 0
M  V30 5390 C 534.027 1.28679 1.11247 0
M  V30 5391 O 535.212 1.57504 1.13605 0
M  V30 5392 C 532.342 3.0397 1.67987 0
M  V30 5393 C 531.296 4.10267 1.21924 0
M  V30 5394 C 530.622 4.74555 2.46377 0
M  V30 5395 C 531.922 5.21268 0.32815 0
M  V30 5396 H 533.616 2.99264 -0.0901977 0
M  V30 5397 H 531.162 1.4393 -0.044821 0
M  V30 5398 H 533.115 3.54123 2.28418 0
M  V30 5399 H 531.839 2.29906 2.31971 0
M  V30 5400 H 530.498 3.61009 0.637809 0
M  V30 5401 H 530.146 3.97098 3.08743 0
M  V30 5402 H 529.846 5.46363 2.16243 0
M  V30 5403 H 531.37 5.27487 3.07555 0
M  V30 5404 H 532.784 5.67128 0.838978 0
M  V30 5405 H 531.181 5.99982 0.119228 0
M  V30 5406 H 532.251 4.80673 -0.638839 0
M  V30 5407 N 533.594 0.0601682 1.57485 0
M  V30 5408 C 534.557 -0.896373 2.10945 0
M  V30 5409 C 535.557 -1.23402 1.03095 0
M  V30 5410 O 536.747 -1.16921 1.29132 0
M  V30 5411 C 533.879 -2.20346 2.60116 0
M  V30 5412 H 535.072 -0.432778 2.96761 0
M  V30 5413 H 532.625 -0.188372 1.55161 0
M  V30 5414 H 533.36 -2.71268 1.7772 0
M  V30 5415 H 533.145 -1.9714 3.38937 0
M  V30 5416 H 534.635 -2.88846 3.01592 0
M  V30 5417 N 535.072 -1.5615 -0.213296 0
M  V30 5418 C 536.004 -1.89586 -1.28802 0
M  V30 5419 C 537.017 -0.784844 -1.42633 0
M  V30 5420 O 538.206 -1.06319 -1.43383 0
M  V30 5421 C 535.306 -2.09665 -2.66259 0
M  V30 5422 C 534.479 -3.40726 -2.7427 0
M  V30 5423 C 533.538 -3.50137 -3.92798 0
M  V30 5424 O 532.564 -4.23105 -3.8075 0
M  V30 5425 N 533.766 -2.81886 -5.07465 0
M  V30 5426 H 536.531 -2.82368 -1.00442 0
M  V30 5427 H 534.092 -1.56796 -0.403302 0
M  V30 5428 H 536.084 -2.13268 -3.43946 0
M  V30 5429 H 534.654 -1.23469 -2.87183 0
M  V30 5430 H 533.874 -3.4915 -1.82997 0
M  V30 5431 H 535.162 -4.27048 -2.76599 0
M  V30 5432 H 534.56 -2.22397 -5.2015 0
M  V30 5433 H 533.117 -2.91139 -5.83165 0
M  V30 5434 N 536.55 0.480323 -1.50102 0
M  V30 5435 C 537.796 1.23489 -1.60867 0
M  V30 5436 C 538.129 1.91809 -0.303827 0
M  V30 5437 O 537.404 1.81694 0.694092 0
M  V30 5438 C 537.687 2.28578 -2.78252 0
M  V30 5439 C 537.54 1.64624 -4.18592 0
M  V30 5440 C 538.859 3.2997 -2.91218 0
M  V30 5441 H 535.978 0.447605 -0.585507 0
M  V30 5442 H 538.62 0.530005 -1.82458 0
M  V30 5443 H 536.77 2.88697 -2.59974 0
M  V30 5444 H 538.442 1.08173 -4.48438 0
M  V30 5445 H 536.685 0.949645 -4.23278 0
M  V30 5446 H 537.356 2.40946 -4.96638 0
M  V30 5447 H 539.832 2.79864 -3.07921 0
M  V30 5448 H 538.708 4.00839 -3.74993 0
M  V30 5449 H 538.969 3.93541 -2.0144 0
M  V30 5450 N 538.028 1.39524 0.732853 0
M  V30 5451 C 538.991 1.38189 1.82857 0
M  V30 5452 C 539.991 0.278624 1.58368 0
M  V30 5453 O 541.181 0.536639 1.65728 0
M  V30 5454 C 538.313 1.15661 3.2068 0
M  V30 5455 H 539.506 2.35692 1.85444 0
M  V30 5456 H 537.059 1.2512 0.936728 0
M  V30 5457 H 537.794 0.188482 3.23752 0
M  V30 5458 H 537.579 1.95559 3.39852 0
M  V30 5459 H 539.069 1.17472 4.00737 0
M  V30 5460 N 539.506 -0.963266 1.24736 0
M  V30 5461 C 540.469 -2.04013 1.04457 0
M  V30 5462 C 541.469 -1.608 0.000335555 0
M  V30 5463 O 542.659 -1.72515 0.241719 0
M  V30 5464 C 539.791 -3.35858 0.584162 0
M  V30 5465 H 540.984 -2.23436 2.00041 0
M  V30 5466 H 538.537 -1.13914 1.07021 0
M  V30 5467 H 539.272 -3.22128 -0.374673 0
M  V30 5468 H 539.057 -3.68568 1.3379 0
M  V30 5469 H 540.547 -4.1502 0.463451 0
M  V30 5470 N 540.985 -1.06182 -1.16461 0
M  V30 5471 C 541.933 -0.665716 -2.2287 0
M  V30 5472 C 542.927 0.317822 -1.66392 0
M  V30 5473 O 544.133 0.182807 -1.79069 0
M  V30 5474 H 540.508 -0.197148 -0.725697 0
M  V30 5475 H 542.479 -1.57307 -2.53569 0
M  V30 5476 C 541.228 -0.0669803 -3.47635 0
M  V30 5477 H 540.551 -0.814899 -3.91407 0
M  V30 5478 H 541.991 0.172669 -4.23648 0
M  V30 5479 C 540.45 1.18913 -3.15216 0
M  V30 5480 O 540.98 2.27723 -3.30916 0
M  V30 5481 N 539.186 1.09066 -2.69357 0
M  V30 5482 H 538.733 0.20518 -2.56782 0
M  V30 5483 H 538.691 1.93195 -2.48039 0
M  V30 5484 N 542.463 1.3308 -0.844243 0
M  V30 5485 C 543.426 2.27403 -0.286485 0
M  V30 5486 C 544.426 1.51179 0.547872 0
M  V30 5487 O 545.616 1.70421 0.360886 0
M  V30 5488 C 542.748 3.35653 0.595813 0
M  V30 5489 H 543.941 2.78248 -1.11885 0
M  V30 5490 H 541.494 1.43574 -0.617749 0
M  V30 5491 H 542.229 2.90058 1.4504 0
M  V30 5492 H 542.014 3.921 -0.00125994 0
M  V30 5493 H 543.504 4.05958 0.979168 0
M  V30 5494 N 543.941 0.601185 1.45683 0
M  V30 5495 C 545.169 0.100054 2.06658 0
M  V30 5496 C 545.584 -1.21285 1.44691 0
M  V30 5497 O 544.941 -1.73735 0.558772 0
M  V30 5498 C 544.992 -0.0528579 3.61461 0
M  V30 5499 O 544.713 1.20809 4.21114 0
M  V30 5500 C 546.214 -0.586193 4.39407 0
M  V30 5501 H 543.434 0.065905 0.667756 0
M  V30 5502 H 545.978 0.827101 1.87028 0
M  V30 5503 H 544.133 -0.730203 3.80456 0
M  V30 5504 H 544.547 1.03368 5.14213 0
M  V30 5505 H 546.021 -0.642297 5.4825 0
M  V30 5506 H 546.498 -1.60713 4.0874 0
M  V30 5507 H 547.104 0.0568935 4.25262 0
M  V30 5508 N 545.419 -1.53889 0.339982 0
M  V30 5509 C 546.366 -2.24902 -0.518452 0
M  V30 5510 C 547.336 -1.24593 -1.09844 0
M  V30 5511 O 548.521 -1.53317 -1.13572 0
M  V30 5512 C 545.661 -3.02262 -1.66529 0
M  V30 5513 C 544.774 -4.17418 -1.11295 0
M  V30 5514 C 543.909 -4.82273 -2.2268 0
M  V30 5515 C 542.948 -5.89503 -1.6478 0
M  V30 5516 N 542.085 -6.48153 -2.69893 0
M  V30 5517 H 546.925 -2.97853 0.0936579 0
M  V30 5518 H 544.462 -1.46986 0.0579924 0
M  V30 5519 H 546.42 -3.45371 -2.3404 0
M  V30 5520 H 545.05 -2.31614 -2.24844 0
M  V30 5521 H 544.102 -3.78976 -0.328886 0
M  V30 5522 H 545.414 -4.94554 -0.649414 0
M  V30 5523 H 544.568 -5.28435 -2.98063 0
M  V30 5524 H 543.307 -4.04552 -2.72376 0
M  V30 5525 H 542.312 -5.42728 -0.879004 0
M  V30 5526 H 543.537 -6.6913 -1.1594 0
M  V30 5527 H 541.483 -5.73298 -3.1885 0
M  V30 5528 H 541.4 -7.20752 -2.28151 0
M  V30 5529 H 542.668 -6.98968 -3.45056 0
M  V30 5530 N 546.897 -0.0685191 -1.57451 0
M  V30 5531 C 547.807 0.914677 -2.16034 0
M  V30 5532 C 548.823 1.32938 -1.12265 0
M  V30 5533 O 549.999 1.40275 -1.44516 0
M  V30 5534 C 547.064 2.16519 -2.70777 0
M  V30 5535 C 546.125 1.80721 -3.89408 0
M  V30 5536 C 545.358 2.9981 -4.41531 0
M  V30 5537 O 545.581 4.13727 -3.92666 0
M  V30 5538 O 544.515 2.79817 -5.32903 0
M  V30 5539 H 548.341 0.446364 -3.00402 0
M  V30 5540 H 545.926 0.154367 -1.486 0
M  V30 5541 H 547.808 2.89856 -3.05878 0
M  V30 5542 H 546.483 2.62454 -1.89471 0
M  V30 5543 H 545.39 1.04646 -3.59166 0
M  V30 5544 H 546.723 1.39571 -4.71997 0
M  V30 5545 N 548.375 1.56261 0.205012 0
M  V30 5546 C 549.622 1.8004 0.926927 0
M  V30 5547 C 549.95 0.640086 1.83666 0
M  V30 5548 O 549.205 -0.374702 1.92079 0
M  V30 5549 C 549.504 3.09722 1.78345 0
M  V30 5550 C 549.17 4.39082 1.02555 0
M  V30 5551 C 547.832 4.74226 0.816256 0
M  V30 5552 C 550.184 5.18877 0.491559 0
M  V30 5553 C 547.512 5.86668 0.0613287 0
M  V30 5554 C 549.864 6.32105 -0.250107 0
M  V30 5555 C 548.528 6.6584 -0.470508 0
M  V30 5556 H 547.798 0.658812 0.339187 0
M  V30 5557 H 550.445 1.90515 0.19395 0
M  V30 5558 H 548.75 2.9444 2.5848 0
M  V30 5559 H 550.447 3.25324 2.34446 0
M  V30 5560 H 547.037 4.11497 1.19868 0
M  V30 5561 H 551.221 4.92147 0.640684 0
M  V30 5562 H 546.477 6.11283 -0.119501 0
M  V30 5563 H 550.651 6.93157 -0.671307 0
M  V30 5564 H 548.278 7.5281 -1.05739 0
M  V30 5565 N 549.853 -0.472356 1.50355 0
M  V30 5566 C 551.081 -1.24784 1.65035 0
M  V30 5567 C 551.496 -1.85837 0.333176 0
M  V30 5568 O 550.853 -1.69168 -0.68472 0
M  V30 5569 C 550.904 -2.35747 2.74054 0
M  V30 5570 O 550.625 -1.77197 4.00665 0
M  V30 5571 C 552.126 -3.26645 2.99696 0
M  V30 5572 H 549.346 -0.377432 0.554785 0
M  V30 5573 H 551.89 -0.563962 1.9657 0
M  V30 5574 H 550.045 -2.99912 2.45217 0
M  V30 5575 H 550.459 -2.5026 4.60945 0
M  V30 5576 H 551.933 -4.00718 3.79644 0
M  V30 5577 H 552.41 -3.8535 2.10718 0
M  V30 5578 H 553.016 -2.68218 3.3006 0
M  V30 5579 N 551.331 -1.39911 -0.725443 0
M  V30 5580 C 552.241 -1.41688 -1.8698 0
M  V30 5581 C 553.257 -0.310579 -1.71206 0
M  V30 5582 O 554.433 -0.55359 -1.93642 0
M  V30 5583 C 551.498 -1.26811 -3.22676 0
M  V30 5584 C 550.559 -2.47497 -3.50776 0
M  V30 5585 C 549.792 -2.3332 -4.79997 0
M  V30 5586 O 550.015 -1.34175 -5.54394 0
M  V30 5587 O 548.949 -3.22498 -5.08211 0
M  V30 5588 H 552.775 -2.38171 -1.88436 0
M  V30 5589 H 550.36 -1.21128 -0.874548 0
M  V30 5590 H 552.242 -1.20684 -4.03749 0
M  V30 5591 H 550.917 -0.334289 -3.21969 0
M  V30 5592 H 549.824 -2.59201 -2.69751 0
M  V30 5593 H 551.157 -3.39606 -3.5627 0
M  V30 5594 N 552.809 0.956637 -1.25245 0
M  V30 5595 C 553.772 2.03457 -1.05537 0
M  V30 5596 C 554.772 1.60798 -0.00886317 0
M  V30 5597 O 555.962 1.72384 -0.250865 0
M  V30 5598 C 553.094 3.35543 -0.601965 0
M  V30 5599 H 554.287 2.22372 -2.01223 0
M  V30 5600 H 551.84 1.13344 -1.07623 0
M  V30 5601 H 552.575 3.22323 0.357584 0
M  V30 5602 H 552.36 3.67854 -1.35743 0
M  V30 5603 H 553.85 4.14769 -0.485454 0
M  V30 5604 N 554.287 1.06798 1.15896 0
M  V30 5605 C 555.534 0.787767 1.86549 0
M  V30 5606 C 555.862 -0.685959 1.82002 0
M  V30 5607 O 555.117 -1.5188 1.23414 0
M  V30 5608 C 555.416 1.23414 3.35416 0
M  V30 5609 C 555.082 2.71285 3.6016 0
M  V30 5610 C 553.744 3.11676 3.66622 0
M  V30 5611 C 556.096 3.6676 3.7032 0
M  V30 5612 C 553.424 4.4637 3.8075 0
M  V30 5613 C 555.776 5.01209 3.8597 0
M  V30 5614 C 554.44 5.41229 3.90676 0
M  V30 5615 H 553.71 0.288264 0.682631 0
M  V30 5616 H 556.357 1.338 1.37003 0
M  V30 5617 H 554.662 0.60319 3.87129 0
M  V30 5618 H 556.359 0.994298 3.88477 0
M  V30 5619 H 552.949 2.39015 3.55767 0
M  V30 5620 H 557.133 3.36685 3.64633 0
M  V30 5621 H 552.389 4.76855 3.82648 0
M  V30 5622 H 556.563 5.75067 3.92773 0
M  V30 5623 H 554.19 6.45602 4.01375 0
M  V30 5624 N 555.766 -1.3263 0.851289 0
M  V30 5625 C 556.696 -2.31449 0.308771 0
M  V30 5626 C 557.677 -1.59531 -0.590255 0
M  V30 5627 O 558.862 -1.87351 -0.511205 0
M  V30 5628 C 555.992 -3.43586 -0.506548 0
M  V30 5629 C 554.946 -4.26963 0.297753 0
M  V30 5630 C 554.272 -5.30831 -0.642094 0
M  V30 5631 C 555.572 -4.99643 1.52166 0
M  V30 5632 H 557.266 -2.77074 1.13447 0
M  V30 5633 H 554.812 -1.33207 0.546971 0
M  V30 5634 H 556.765 -4.11754 -0.896474 0
M  V30 5635 H 555.489 -2.96681 -1.36558 0
M  V30 5636 H 554.148 -3.60437 0.669391 0
M  V30 5637 H 553.796 -4.8018 -1.49788 0
M  V30 5638 H 553.496 -5.87501 -0.107968 0
M  V30 5639 H 555.02 -6.01862 -1.02927 0
M  V30 5640 H 556.434 -5.6051 1.20421 0
M  V30 5641 H 554.831 -5.66022 1.99347 0
M  V30 5642 H 555.901 -4.27701 2.28474 0
M  V30 5643 N 557.244 -0.608902 -1.45362 0
M  V30 5644 C 558.492 -0.104401 -2.0183 0
M  V30 5645 C 558.813 1.27007 -1.47967 0
M  V30 5646 O 558.083 1.83924 -0.674455 0
M  V30 5647 H 556.663 -0.0356042 -0.746151 0
M  V30 5648 H 559.325 -0.790596 -1.78145 0
M  V30 5649 H 558.421 -0.0551793 -3.12051 0
M  V30 5650 N 558.722 1.53707 -0.348139 0
M  V30 5651 C 559.962 2.02899 0.247254 0
M  V30 5652 C 560.326 1.23033 1.47401 0
M  V30 5653 O 561.527 1.62146 2.14388 0
M  V30 5654 C 559.798 3.53156 0.549151 0
M  V30 5655 S 561.357 4.24247 1.1207 0
M  V30 5656 H 558.175 0.707213 0.0732894 0
M  V30 5657 H 560.777 1.89338 -0.486965 0
M  V30 5658 H 559.481 4.08893 -0.351435 0
M  V30 5659 H 559.012 3.70845 1.31291 0
M  V30 5660 H 561.027 4.33958 2.40613 0
M  V30 5661 N 560.2 0.0768682 1.57412 0
M  V30 5662 C 561.611 -0.455037 1.8107 0
M  V30 5663 C 561.962 -1.69323 0.991162 0
M  V30 5664 O 561.087 -2.15328 0.215156 0
M  V30 5665 C 561.682 -0.832316 3.28417 0
M  V30 5666 C 560.241 -1.30906 3.52903 0
M  V30 5667 C 559.388 -0.296714 2.75708 0
M  V30 5668 H 562.339 0.302514 1.5579 0
M  V30 5669 H 562.36 -1.69333 3.40744 0
M  V30 5670 H 561.872 0.0690532 3.88039 0
M  V30 5671 H 559.973 -2.22875 2.98592 0
M  V30 5672 H 560.086 -1.28348 4.61588 0
M  V30 5673 H 558.45 -0.775059 2.42621 0
M  V30 5674 H 559.233 0.597015 3.38069 0
M  V30 5675 N 561.678 -1.56367 -0.196722 0
M  V30 5676 C 562.641 -1.93561 -1.22746 0
M  V30 5677 C 563.641 -0.816566 -1.38524 0
M  V30 5678 O 564.831 -1.084 -1.36363 0
M  V30 5679 C 561.963 -2.20823 -2.59712 0
M  V30 5680 H 563.156 -2.85774 -0.909586 0
M  V30 5681 H 560.709 -1.50032 -0.438174 0
M  V30 5682 H 561.444 -1.31243 -2.96557 0
M  V30 5683 H 561.229 -3.02368 -2.49632 0
M  V30 5684 H 562.719 -2.50608 -3.34044 0
M  V30 5685 N 563.156 0.464375 -1.50603 0
M  V30 5686 C 564.405 1.21277 -1.61167 0
M  V30 5687 C 564.718 1.92953 -0.320704 0
M  V30 5688 O 565.924 2.69778 -0.30534 0
M  V30 5689 C 564.38 2.20403 -2.84518 0
M  V30 5690 C 563.988 1.54499 -4.20516 0
M  V30 5691 C 565.732 2.95843 -3.0443 0
M  V30 5692 C 563.639 2.51951 -5.35047 0
M  V30 5693 H 562.569 0.456367 -0.600204 0
M  V30 5694 H 565.22 0.48254 -1.77042 0
M  V30 5695 H 563.602 2.96746 -2.62217 0
M  V30 5696 H 564.776 0.83899 -4.53098 0
M  V30 5697 H 563.091 0.913152 -4.06264 0
M  V30 5698 H 565.688 3.6879 -3.87167 0
M  V30 5699 H 566.031 3.55622 -2.16423 0
M  V30 5700 H 566.564 2.26611 -3.26944 0
M  V30 5701 H 563.303 1.96901 -6.25228 0
M  V30 5702 H 562.823 3.20683 -5.06875 0
M  V30 5703 H 564.502 3.13643 -5.65895 0
M  V30 5704 N 564.634 1.40294 0.718013 0
M  V30 5705 C 565.584 1.36847 1.82365 0
M  V30 5706 C 566.568 0.246424 1.59002 0
M  V30 5707 O 567.76 0.485336 1.70216 0
M  V30 5708 C 564.889 1.23105 3.20469 0
M  V30 5709 C 563.975 2.4008 3.49603 0
M  V30 5710 N 564.366 3.65562 3.49568 0
M  V30 5711 C 562.664 2.33407 3.80049 0
M  V30 5712 C 563.365 4.43015 3.76978 0
M  V30 5713 N 562.341 3.72823 3.95606 0
M  V30 5714 H 566.143 2.31811 1.80668 0
M  V30 5715 H 563.657 1.34031 0.91703 0
M  V30 5716 H 565.654 1.18718 3.9964 0
M  V30 5717 H 564.314 0.291056 3.23393 0
M  V30 5718 H 565.325 3.98756 3.30476 0
M  V30 5719 H 562.002 1.47762 3.90478 0
M  V30 5720 H 563.392 5.51859 3.83276 0
M  V30 5721 N 566.112 -0.949982 1.2575 0
M  V30 5722 C 567.523 -1.50989 1.09815 0
M  V30 5723 C 567.874 -1.93497 -0.324556 0
M  V30 5724 O 566.999 -1.79068 -1.21506 0
M  V30 5725 C 567.594 -2.74394 1.98729 0
M  V30 5726 C 566.153 -3.26682 1.86965 0
M  V30 5727 C 565.3 -1.99498 1.92603 0
M  V30 5728 H 568.251 -0.766387 1.38968 0
M  V30 5729 H 568.272 -3.48383 1.53001 0
M  V30 5730 H 567.784 -2.43425 3.02268 0
M  V30 5731 H 565.885 -3.62461 0.863279 0
M  V30 5732 H 565.998 -3.94383 2.72027 0
M  V30 5733 H 564.362 -2.15005 1.36546 0
M  V30 5734 H 565.145 -1.70871 2.97755 0
M  V30 5735 N 567.59 -1.07411 -1.15328 0
M  V30 5736 C 569.006 -0.799759 -1.38116 0
M  V30 5737 C 569.206 0.59572 -1.92493 0
M  V30 5738 O 568.262 1.35433 -2.13106 0
M  V30 5739 C 569.575 -1.87407 -2.35158 0
M  V30 5740 C 571.123 -1.89889 -2.48819 0
M  V30 5741 C 571.598 -2.96406 -3.49153 0
M  V30 5742 N 573.089 -2.95512 -3.56689 0
M  V30 5743 C 573.824 -3.74575 -4.34144 0
M  V30 5744 N 573.32 -4.63488 -5.14928 0
M  V30 5745 N 575.113 -3.62919 -4.29239 0
M  V30 5746 H 567.264 -1.97411 -0.78374 0
M  V30 5747 H 569.527 -0.856113 -0.407154 0
M  V30 5748 H 569.233 -2.8768 -2.0232 0
M  V30 5749 H 569.107 -1.73471 -3.34944 0
M  V30 5750 H 571.494 -0.902677 -2.80955 0
M  V30 5751 H 571.575 -2.07904 -1.49029 0
M  V30 5752 H 571.219 -3.96227 -3.17752 0
M  V30 5753 H 571.149 -2.75638 -4.48699 0
M  V30 5754 H 573.64 -2.31061 -2.99031 0
M  V30 5755 H 573.953 -5.20445 -5.71276 0
M  V30 5756 H 572.298 -4.67537 -5.14232 0
M  V30 5757 H 575.489 -2.92833 -3.65194 0
M  V30 5758 H 575.662 -4.24777 -4.89355 0
M  V30 5759 N 569.068 1.32177 -0.85831 0
M  V30 5760 C 570.308 1.98927 -0.469822 0
M  V30 5761 C 570.672 1.66423 0.95746 0
M  V30 5762 O 571.873 2.26293 1.45069 0
M  V30 5763 C 570.144 3.50352 -0.706288 0
M  V30 5764 S 571.703 4.36824 -0.415918 0
M  V30 5765 H 568.521 0.688909 -0.175855 0
M  V30 5766 H 571.123 1.60807 -1.11181 0
M  V30 5767 H 569.827 3.71497 -1.74407 0
M  V30 5768 H 569.358 3.93367 -0.0508568 0
M  V30 5769 H 571.373 4.90398 0.756581 0
M  V30 5770 N 570.547 0.616602 1.45037 0
M  V30 5771 C 571.963 0.280994 1.57107 0
M  V30 5772 C 572.163 -1.21627 1.60653 0
M  V30 5773 O 571.219 -1.9997 1.54169 0
M  V30 5774 C 572.532 0.960116 2.8496 0
M  V30 5775 C 574.08 0.936884 2.98649 0
M  V30 5776 C 574.555 1.59619 4.29285 0
M  V30 5777 N 576.046 1.5621 4.36065 0
M  V30 5778 C 576.781 2.04131 5.35834 0
M  V30 5779 N 576.277 2.60177 6.4209 0
M  V30 5780 N 578.07 1.94845 5.27249 0
M  V30 5781 H 570.221 1.58867 1.40979 0
M  V30 5782 H 572.484 0.666024 0.674623 0
M  V30 5783 H 572.19 2.01473 2.88273 0
M  V30 5784 H 572.064 0.488921 3.74018 0
M  V30 5785 H 574.451 -0.109209 2.94898 0
M  V30 5786 H 574.532 1.44643 2.10979 0
M  V30 5787 H 574.176 2.64166 4.33796 0
M  V30 5788 H 574.106 1.06159 5.15789 0
M  V30 5789 H 576.597 1.15276 3.59889 0
M  V30 5790 H 576.91 2.94513 7.1448 0
M  V30 5791 H 575.255 2.64221 6.42816 0
M  V30 5792 H 578.446 1.50792 4.43147 0
M  V30 5793 H 578.619 2.32504 6.04852 0
M  V30 5794 N 572.025 -1.5352 0.356285 0
M  V30 5795 C 573.271 -2.02104 -0.229271 0
M  V30 5796 C 573.626 -1.23923 -1.47176 0
M  V30 5797 O 572.919 -0.321957 -1.88876 0
M  V30 5798 C 573.113 -3.52607 -0.583369 0
M  V30 5799 C 572.942 -4.4536 0.623253 0
M  V30 5800 C 571.712 -4.92446 1.13248 0
M  V30 5801 C 573.91 -4.92375 1.48563 0
M  V30 5802 N 571.892 -5.69183 2.3001 0
M  V30 5803 C 573.263 -5.67362 2.50001 0
M  V30 5804 C 575.318 -4.74464 1.50959 0
M  V30 5805 C 574.021 -6.26341 3.5368 0
M  V30 5806 C 576.047 -5.34302 2.53526 0
M  V30 5807 C 575.409 -6.09166 3.53688 0
M  V30 5808 H 571.508 -0.780595 -0.0468602 0
M  V30 5809 H 574.092 -1.88204 0.49873 0
M  V30 5810 H 572.263 -3.66686 -1.28046 0
M  V30 5811 H 573.995 -3.87922 -1.15321 0
M  V30 5812 H 570.75 -4.6842 0.698562 0
M  V30 5813 H 571.174 -6.12216 2.88998 0
M  V30 5814 H 575.816 -4.16117 0.748785 0
M  V30 5815 H 573.534 -6.8379 4.30648 0
M  V30 5816 H 577.12 -5.22342 2.56223 0
M  V30 5817 H 576 -6.54644 4.31753 0
M  V30 5818 N 573.503 -0.0852151 -1.57369 0
M  V30 5819 C 574.751 0.579658 -1.93609 0
M  V30 5820 C 575.072 1.69332 -0.967043 0
M  V30 5821 O 574.342 1.95892 -0.0174215 0
M  V30 5822 H 572.922 0.217113 -0.714752 0
M  V30 5823 H 575.584 -0.146226 -1.94351 0
M  V30 5824 H 574.68 0.996276 -2.95771 0
M  V30 5825 N 574.981 1.5647 0.188427 0
M  V30 5826 C 575.944 1.9421 1.21718 0
M  V30 5827 C 576.944 0.823901 1.38089 0
M  V30 5828 O 578.134 1.09122 1.35787 0
M  V30 5829 C 575.266 2.22197 2.58537 0
M  V30 5830 H 576.459 2.86252 0.894418 0
M  V30 5831 H 574.012 1.50263 0.430211 0
M  V30 5832 H 574.747 1.32814 2.95856 0
M  V30 5833 H 574.532 3.03688 2.48025 0
M  V30 5834 H 576.022 2.52376 3.3271 0
M  V30 5835 N 576.459 -0.456382 1.50847 0
M  V30 5836 C 577.422 -1.53493 1.70213 0
M  V30 5837 C 578.422 -1.50264 0.572481 0
M  V30 5838 O 579.612 -1.52623 0.839751 0
M  V30 5839 C 576.744 -2.93091 1.741 0
M  V30 5840 H 577.937 -1.37633 2.66453 0
M  V30 5841 H 575.49 -0.683776 1.4055 0
M  V30 5842 H 576.225 -3.14378 0.796063 0
M  V30 5843 H 576.01 -2.9684 2.5618 0
M  V30 5844 H 577.5 -3.71368 1.90987 0
M  V30 5845 N 577.937 -1.40673 -0.710563 0
M  V30 5846 C 579.348 -1.34975 -1.28991 0
M  V30 5847 C 579.699 -0.0256272 -1.96183 0
M  V30 5848 O 578.824 0.876339 -1.97862 0
M  V30 5849 C 579.419 -2.44467 -2.34567 0
M  V30 5850 C 577.978 -2.42213 -2.88114 0
M  V30 5851 C 577.125 -2.25085 -1.61963 0
M  V30 5852 H 580.076 -1.50406 -0.506343 0
M  V30 5853 H 580.097 -2.12663 -3.15523 0
M  V30 5854 H 579.609 -3.40825 -1.85634 0
M  V30 5855 H 577.71 -1.49568 -3.41263 0
M  V30 5856 H 577.823 -3.37983 -3.39565 0
M  V30 5857 H 576.187 -1.72691 -1.87216 0
M  V30 5858 H 576.97 -3.23449 -1.15047 0
M  V30 5859 N 579.415 0.9433 -1.26252 0
M  V30 5860 C 580.645 1.72117 -1.14277 0
M  V30 5861 C 581.053 1.86726 0.304944 0
M  V30 5862 O 580.396 1.3727 1.22076 0
M  V30 5863 C 580.458 3.14778 -1.73651 0
M  V30 5864 C 580.122 3.23561 -3.22734 0
M  V30 5865 C 581.119 3.07001 -4.19579 0
M  V30 5866 C 578.804 3.47019 -3.63157 0
M  V30 5867 C 580.798 3.13763 -5.54826 0
M  V30 5868 C 578.485 3.53416 -4.98538 0
M  V30 5869 C 579.483 3.36804 -5.94182 0
M  V30 5870 O 579.171 3.42906 -7.27098 0
M  V30 5871 H 578.903 0.545781 -0.398873 0
M  V30 5872 H 581.457 1.19123 -1.67328 0
M  V30 5873 H 579.687 3.69186 -1.1506 0
M  V30 5874 H 581.376 3.74469 -1.56613 0
M  V30 5875 H 582.142 2.88736 -3.89688 0
M  V30 5876 H 578.021 3.59006 -2.89199 0
M  V30 5877 H 581.565 3.00714 -6.29458 0
M  V30 5878 H 577.462 3.71201 -5.28091 0
M  V30 5879 H 578.23 3.59463 -7.35342 0
M  V30 5880 N 580.893 1.08022 1.14757 0
M  V30 5881 C 582.309 0.807072 1.3769 0
M  V30 5882 C 582.509 -0.585504 1.92806 0
M  V30 5883 O 581.565 -1.34301 2.13821 0
M  V30 5884 C 582.878 1.88651 2.34161 0
M  V30 5885 C 584.426 1.91206 2.47809 0
M  V30 5886 C 584.901 2.98253 3.47576 0
M  V30 5887 N 586.392 2.974 3.55117 0
M  V30 5888 C 587.127 3.76872 4.32152 0
M  V30 5889 N 586.623 4.66212 5.12463 0
M  V30 5890 N 588.416 3.6519 4.27309 0
M  V30 5891 H 580.567 1.97824 0.77326 0
M  V30 5892 H 582.83 0.85826 0.402608 0
M  V30 5893 H 582.536 2.88749 2.00791 0
M  V30 5894 H 582.41 1.75244 3.3402 0
M  V30 5895 H 584.797 0.917564 2.80472 0
M  V30 5896 H 584.878 2.08691 1.47925 0
M  V30 5897 H 584.522 3.97907 3.15646 0
M  V30 5898 H 584.452 2.78014 4.47231 0
M  V30 5899 H 586.943 2.32643 2.97801 0
M  V30 5900 H 587.256 5.23468 5.68508 0
M  V30 5901 H 585.601 4.70257 5.11745 0
M  V30 5902 H 588.792 2.94765 3.63636 0
M  V30 5903 H 588.965 4.27366 4.87095 0
M  V30 5904 N 582.371 -1.3172 0.865308 0
M  V30 5905 C 583.619 -1.96487 0.472995 0
M  V30 5906 C 583.94 -1.68761 -0.976975 0
M  V30 5907 O 583.21 -1.00051 -1.68424 0
M  V30 5908 H 581.79 -0.726947 0.171922 0
M  V30 5909 H 584.452 -1.60612 1.10407 0
M  V30 5910 H 583.548 -3.0574 0.62687 0
M  V30 5911 N 583.85 -0.624285 -1.44708 0
M  V30 5912 C 585.266 -0.289322 -1.56956 0
M  V30 5913 C 585.466 1.20773 -1.61295 0
M  V30 5914 O 584.522 1.9915 -1.55227 0
M  V30 5915 C 585.835 -0.975215 -2.84447 0
M  V30 5916 C 587.383 -0.952709 -2.98148 0
M  V30 5917 C 587.858 -1.61893 -4.28433 0
M  V30 5918 N 589.349 -1.5852 -4.35231 0
M  V30 5919 C 590.084 -2.06969 -5.34744 0
M  V30 5920 N 589.58 -2.63579 -6.40701 0
M  V30 5921 N 591.373 -1.97638 -5.26209 0
M  V30 5922 H 583.524 -1.59612 -1.40135 0
M  V30 5923 H 585.787 -0.669592 -0.671081 0
M  V30 5924 H 585.493 -2.02999 -2.87201 0
M  V30 5925 H 585.367 -0.508749 -3.73753 0
M  V30 5926 H 587.754 0.093568 -2.94952 0
M  V30 5927 H 587.835 -1.4576 -2.10209 0
M  V30 5928 H 587.479 -2.66463 -4.32389 0
M  V30 5929 H 587.409 -1.08893 -5.15218 0
M  V30 5930 H 589.899 -1.17183 -3.59272 0
M  V30 5931 H 590.213 -2.98298 -7.12908 0
M  V30 5932 H 588.558 -2.67626 -6.41406 0
M  V30 5933 H 591.749 -1.5314 -4.42341 0
M  V30 5934 H 591.922 -2.35708 -6.03611 0
M  V30 5935 N 585.328 1.53329 -0.364422 0
M  V30 5936 C 586.739 1.86345 0.115039 0
M  V30 5937 C 587.09 1.28505 1.4826 0
M  V30 5938 O 586.215 0.606639 2.07723 0
M  V30 5939 C 586.81 3.38114 0.215522 0
M  V30 5940 C 585.369 3.70932 0.639237 0
M  V30 5941 C 584.516 2.76471 -0.214261 0
M  V30 5942 H 587.467 1.47593 -0.583258 0
M  V30 5943 H 587.488 3.66031 1.0393 0
M  V30 5944 H 587 3.80182 -0.779948 0
M  V30 5945 H 585.101 3.3442 1.64298 0
M  V30 5946 H 585.214 4.77302 0.41465 0
M  V30 5947 H 583.578 2.52724 0.316678 0
M  V30 5948 H 584.361 3.21373 -1.20725 0
M  V30 5949 N 586.806 0.0935595 1.57322 0
M  V30 5950 C 587.753 -0.865935 2.1394 0
M  V30 5951 C 588.723 -1.28083 1.05754 0
M  V30 5952 O 589.908 -1.36285 1.33533 0
M  V30 5953 C 587.048 -2.12023 2.72287 0
M  V30 5954 C 586.161 -1.756 3.94701 0
M  V30 5955 C 585.296 -2.95804 4.41218 0
M  V30 5956 C 584.335 -2.555 5.56225 0
M  V30 5957 N 583.472 -3.68534 5.97601 0
M  V30 5958 H 588.312 -0.376261 2.95615 0
M  V30 5959 H 585.849 -0.174052 1.46067 0
M  V30 5960 H 587.807 -2.85477 3.04235 0
M  V30 5961 H 586.437 -2.58492 1.93343 0
M  V30 5962 H 585.489 -0.921208 3.69077 0
M  V30 5963 H 586.801 -1.41964 4.78171 0
M  V30 5964 H 585.955 -3.77513 4.74941 0
M  V30 5965 H 584.694 -3.32649 3.56645 0
M  V30 5966 H 583.699 -1.72218 5.22131 0
M  V30 5967 H 584.924 -2.19801 6.42545 0
M  V30 5968 H 582.87 -4.051 5.15974 0
M  V30 5969 H 582.787 -3.38737 6.75865 0
M  V30 5970 H 584.055 -4.50757 6.35955 0
M  V30 5971 N 588.284 -1.56567 -0.180126 0
M  V30 5972 C 589.214 -1.98753 -1.22553 0
M  V30 5973 C 590.195 -0.86175 -1.46656 0
M  V30 5974 O 591.38 -1.12719 -1.58139 0
M  V30 5975 C 588.51 -2.33988 -2.56645 0
M  V30 5976 C 587.464 -3.49445 -2.47128 0
M  V30 5977 C 586.79 -3.70397 -3.8563 0
M  V30 5978 C 588.09 -4.83171 -1.98352 0
M  V30 5979 H 589.784 -2.86332 -0.874896 0
M  V30 5980 H 587.33 -1.37757 -0.419414 0
M  V30 5981 H 589.283 -2.62097 -3.29974 0
M  V30 5982 H 588.007 -1.43309 -2.93479 0
M  V30 5983 H 586.666 -3.2145 -1.76254 0
M  V30 5984 H 586.314 -2.77023 -4.19842 0
M  V30 5985 H 586.014 -4.48077 -3.80132 0
M  V30 5986 H 587.538 -4.00897 -4.60558 0
M  V30 5987 H 588.952 -5.10213 -2.61449 0
M  V30 5988 H 587.349 -5.64425 -2.03823 0
M  V30 5989 H 588.419 -4.75753 -0.937402 0
M  V30 5990 N 589.762 0.448376 -1.51087 0
M  V30 5991 C 590.692 1.55102 -1.74544 0
M  V30 5992 C 591.673 1.59357 -0.594932 0
M  V30 5993 O 592.858 1.75261 -0.836491 0
M  V30 5994 C 589.988 2.93268 -1.86041 0
M  V30 5995 C 588.942 3.03877 -3.01402 0
M  V30 5996 C 588.268 4.43914 -2.98068 0
M  V30 5997 C 589.568 2.7898 -4.41551 0
M  V30 5998 H 591.262 1.35724 -2.66869 0
M  V30 5999 H 588.808 0.651498 -1.28419 0
M  V30 6000 H 590.761 3.70356 -2.01034 0
M  V30 6001 H 589.485 3.13853 -0.903548 0
M  V30 6002 H 588.144 2.29227 -2.86096 0
M  V30 6003 H 587.792 4.6145 -2.00182 0
M  V30 6004 H 587.492 4.51944 -3.75527 0
M  V30 6005 H 589.016 5.22991 -3.1514 0
M  V30 6006 H 590.43 3.45805 -4.57265 0
M  V30 6007 H 588.827 2.98431 -5.20633 0
M  V30 6008 H 589.897 1.74663 -4.5235 0
M  V30 6009 N 591.24 1.41047 0.703093 0
M  V30 6010 C 592.172 1.38228 1.82827 0
M  V30 6011 C 593.185 0.285637 1.60275 0
M  V30 6012 O 594.374 0.54685 1.69917 0
M  V30 6013 C 591.474 1.13136 3.19458 0
M  V30 6014 C 590.647 2.34695 3.69103 0
M  V30 6015 C 589.706 2.05574 4.84382 0
M  V30 6016 O 588.732 2.78549 4.96386 0
M  V30 6017 N 589.934 1.04135 5.71083 0
M  V30 6018 H 592.699 2.35203 1.85741 0
M  V30 6019 H 590.26 1.35562 0.885125 0
M  V30 6020 H 592.252 0.916183 3.94193 0
M  V30 6021 H 590.822 0.247836 3.11616 0
M  V30 6022 H 590.042 2.71963 2.85359 0
M  V30 6023 H 591.33 3.15705 3.99009 0
M  V30 6024 H 590.728 0.43722 5.64008 0
M  V30 6025 H 589.285 0.886078 6.45749 0
M  V30 6026 N 592.718 -0.936591 1.26751 0
M  V30 6027 C 593.648 -2.05315 1.11212 0
M  V30 6028 C 594.629 -1.70092 0.0160262 0
M  V30 6029 O 595.814 -1.93279 0.188894 0
M  V30 6030 C 592.944 -3.39123 0.749171 0
M  V30 6031 C 591.898 -3.88425 1.79751 0
M  V30 6032 C 591.224 -5.18936 1.28876 0
M  V30 6033 C 592.524 -4.12798 3.19992 0
M  V30 6034 H 594.218 -2.18573 2.04613 0
M  V30 6035 H 591.764 -1.05027 0.985159 0
M  V30 6036 H 593.717 -4.16704 0.627323 0
M  V30 6037 H 592.441 -3.25855 -0.220543 0
M  V30 6038 H 591.1 -3.13028 1.90811 0
M  V30 6039 H 590.748 -5.02051 0.308757 0
M  V30 6040 H 590.448 -5.52892 1.98958 0
M  V30 6041 H 591.972 -5.99096 1.17967 0
M  V30 6042 H 593.386 -4.80977 3.11983 0
M  V30 6043 H 591.783 -4.58044 3.87705 0
M  V30 6044 H 592.853 -3.18412 3.65707 0
M  V30 6045 N 594.196 -1.08629 -1.14182 0
M  V30 6046 C 595.607 -0.838003 -1.66836 0
M  V30 6047 C 595.958 0.634885 -1.85644 0
M  V30 6048 O 595.083 1.49008 -1.56926 0
M  V30 6049 C 595.678 -1.51465 -3.03058 0
M  V30 6050 C 594.237 -1.31355 -3.52736 0
M  V30 6051 C 593.384 -1.57599 -2.28162 0
M  V30 6052 H 596.335 -1.24656 -0.982165 0
M  V30 6053 H 596.356 -0.943134 -3.68626 0
M  V30 6054 H 595.868 -2.58661 -2.89337 0
M  V30 6055 H 593.969 -0.262384 -3.71675 0
M  V30 6056 H 594.082 -2.04275 -4.33369 0
M  V30 6057 H 592.446 -0.997659 -2.34348 0
M  V30 6058 H 593.229 -2.66006 -2.17015 0
M  V30 6059 N 595.674 1.31259 -0.872281 0
M  V30 6060 C 596.604 2.30929 -0.345554 0
M  V30 6061 C 597.585 1.60449 0.5648 0
M  V30 6062 O 598.77 1.8814 0.481335 0
M  V30 6063 C 595.9 3.44348 0.451823 0
M  V30 6064 C 594.854 4.26435 -0.365641 0
M  V30 6065 C 594.18 5.31785 0.557562 0
M  V30 6066 C 595.48 4.97159 -1.60095 0
M  V30 6067 H 597.174 2.75234 -1.17841 0
M  V30 6068 H 594.72 1.3232 -0.568094 0
M  V30 6069 H 596.673 4.13128 0.830854 0
M  V30 6070 H 595.397 2.98816 1.31821 0
M  V30 6071 H 594.056 3.59326 -0.726649 0
M  V30 6072 H 593.704 4.82502 1.4213 0
M  V30 6073 H 593.404 5.87598 0.0144878 0
M  V30 6074 H 594.928 6.03424 0.933387 0
M  V30 6075 H 596.342 5.58523 -1.29323 0
M  V30 6076 H 594.739 5.62779 -2.08327 0
M  V30 6077 H 595.809 4.24012 -2.35249 0
M  V30 6078 N 597.152 0.631951 1.44375 0
M  V30 6079 C 598.4 0.136497 2.01639 0
M  V30 6080 C 598.721 -1.24637 1.49969 0
M  V30 6081 O 597.991 -1.82827 0.70363 0
M  V30 6082 H 596.571 0.0474703 0.74549 0
M  V30 6083 H 599.233 0.818837 1.76865 0
M  V30 6084 H 598.329 0.104817 3.11924 0
M  V30 6085 N 598.631 -1.53133 0.372548 0
M  V30 6086 C 599.878 -2.01356 -0.214959 0
M  V30 6087 C 600.206 -1.2596 -1.48204 0
M  V30 6088 O 599.461 -0.343511 -1.92662 0
M  V30 6089 C 599.76 -3.53206 -0.545938 0
M  V30 6090 C 599.426 -4.46511 0.627624 0
M  V30 6091 C 598.088 -4.71737 0.949615 0
M  V30 6092 C 600.44 -5.01666 1.41353 0
M  V30 6093 C 597.768 -5.4937 2.05936 0
M  V30 6094 C 600.12 -5.80511 2.51375 0
M  V30 6095 C 598.784 -6.04022 2.84101 0
M  V30 6096 H 598.054 -0.736813 -0.078659 0
M  V30 6097 H 600.701 -1.84682 0.506447 0
M  V30 6098 H 599.006 -3.67864 -1.34845 0
M  V30 6099 H 600.703 -3.87997 -1.01287 0
M  V30 6100 H 597.293 -4.27029 0.366635 0
M  V30 6101 H 601.477 -4.82117 1.17802 0
M  V30 6102 H 596.733 -5.65803 2.31682 0
M  V30 6103 H 600.907 -6.22255 3.12684 0
M  V30 6104 H 598.534 -6.63962 3.70214 0
M  V30 6105 N 600.109 -0.101901 -1.5727 0
M  V30 6106 C 601.039 0.851544 -2.17419 0
M  V30 6107 C 602.02 1.28942 -1.10941 0
M  V30 6108 O 603.205 1.35509 -1.39107 0
M  V30 6109 C 600.335 2.10816 -2.75996 0
M  V30 6110 C 599.289 1.80867 -3.87906 0
M  V30 6111 C 598.615 3.13413 -4.33216 0
M  V30 6112 C 599.915 1.0903 -5.10793 0
M  V30 6113 H 601.609 0.350381 -2.97343 0
M  V30 6114 H 599.155 0.16709 -1.43027 0
M  V30 6115 H 601.108 2.77959 -3.16729 0
M  V30 6116 H 599.832 2.63227 -1.93337 0
M  V30 6117 H 598.491 1.16119 -3.47724 0
M  V30 6118 H 598.139 3.63725 -3.47438 0
M  V30 6119 H 597.839 2.94155 -5.08671 0
M  V30 6120 H 599.363 3.81704 -4.76586 0
M  V30 6121 H 600.777 1.66295 -5.48652 0
M  V30 6122 H 599.174 0.99927 -5.91722 0
M  V30 6123 H 600.244 0.0741704 -4.84843 0
M  V30 6124 N 601.587 1.56661 0.17182 0
M  V30 6125 C 602.817 1.85831 0.902804 0
M  V30 6126 C 603.225 0.685157 1.76358 0
M  V30 6127 O 602.568 -0.354947 1.80238 0
M  V30 6128 C 602.63 3.09406 1.83053 0
M  V30 6129 C 602.294 4.4231 1.1494 0
M  V30 6130 C 603.291 5.17342 0.515104 0
M  V30 6131 C 600.976 4.89045 1.14631 0
M  V30 6132 C 602.97 6.37299 -0.113194 0
M  V30 6133 C 600.657 6.08933 0.514184 0
M  V30 6134 C 601.655 6.82904 -0.114463 0
M  V30 6135 O 601.343 8.00518 -0.736622 0
M  V30 6136 H 601.075 0.620715 0.267748 0
M  V30 6137 H 603.629 2.04637 0.176918 0
M  V30 6138 H 601.859 2.86544 2.59672 0
M  V30 6139 H 603.548 3.25027 2.4313 0
M  V30 6140 H 604.314 4.82317 0.509474 0
M  V30 6141 H 600.193 4.31409 1.62502 0
M  V30 6142 H 603.737 6.94976 -0.604477 0
M  V30 6143 H 599.634 6.43423 0.517395 0
M  V30 6144 H 600.402 8.16027 -0.635822 0
M  V30 6145 N 603.065 -0.440357 1.51323 0
M  V30 6146 C 604.311 -1.19181 1.64085 0
M  V30 6147 C 604.644 -1.90936 0.354575 0
M  V30 6148 O 603.919 -1.8347 -0.645675 0
M  V30 6149 C 604.202 -2.2112 2.84215 0
M  V30 6150 C 604.055 -1.53468 4.22809 0
M  V30 6151 C 605.374 -3.22133 2.99864 0
M  V30 6152 H 602.493 -0.431924 0.597169 0
M  V30 6153 H 605.135 -0.481443 1.83799 0
M  V30 6154 H 603.285 -2.81703 2.67537 0
M  V30 6155 H 604.957 -0.962455 4.51148 0
M  V30 6156 H 603.2 -0.837086 4.25647 0
M  V30 6157 H 603.871 -2.27694 5.02852 0
M  V30 6158 H 606.347 -2.71601 3.15233 0
M  V30 6159 H 605.223 -3.90756 3.85488 0
M  V30 6160 H 605.484 -3.88061 2.11804 0
M  V30 6161 N 604.543 -1.41418 -0.695603 0
M  V30 6162 C 605.493 -1.39731 -1.80165 0
M  V30 6163 C 606.477 -0.271689 -1.5859 0
M  V30 6164 O 607.669 -0.512354 -1.69422 0
M  V30 6165 C 604.798 -1.28187 -3.1847 0
M  V30 6166 C 603.884 -2.45612 -3.45739 0
M  V30 6167 N 604.275 -3.71077 -3.43708 0
M  V30 6168 C 602.573 -2.39424 -3.76288 0
M  V30 6169 C 603.274 -4.48957 -3.69882 0
M  V30 6170 N 602.25 -3.7907 -3.89624 0
M  V30 6171 H 606.052 -2.34656 -1.76957 0
M  V30 6172 H 603.566 -1.35473 -0.89559 0
M  V30 6173 H 605.563 -1.2506 -3.977 0
M  V30 6174 H 604.223 -0.342468 -3.22889 0
M  V30 6175 H 605.234 -4.03963 -3.2409 0
M  V30 6176 H 601.911 -1.53955 -3.88077 0
M  V30 6177 H 603.301 -5.57887 -3.74448 0
M  V30 6178 N 606.021 0.929856 -1.27246 0
M  V30 6179 C 606.971 2.01629 -1.06442 0
M  V30 6180 C 607.955 1.60899 0.00687842 0
M  V30 6181 O 609.147 1.75733 -0.211407 0
M  V30 6182 C 606.276 3.35849 -0.711361 0
M  V30 6183 C 605.362 3.8303 -1.82069 0
M  V30 6184 N 605.753 4.02743 -3.05993 0
M  V30 6185 C 604.051 4.12046 -1.70687 0
M  V30 6186 C 604.752 4.42001 -3.78167 0
M  V30 6187 N 603.728 4.4935 -3.05918 0
M  V30 6188 H 607.53 2.14898 -2.00489 0
M  V30 6189 H 605.044 1.11654 -1.17929 0
M  V30 6190 H 607.041 4.13343 -0.543442 0
M  V30 6191 H 605.701 3.23944 0.221517 0
M  V30 6192 H 606.712 3.89112 -3.41778 0
M  V30 6193 H 603.389 4.08866 -0.844681 0
M  V30 6194 H 604.779 4.6535 -4.84664 0
M  V30 6195 N 607.499 1.09233 1.13605 0
M  V30 6196 C 608.727 0.848908 1.88683 0
M  V30 6197 C 609.142 -0.599667 1.79024 0
M  V30 6198 O 608.499 -1.41265 1.15544 0
M  V30 6199 C 608.55 1.27273 3.38355 0
M  V30 6200 O 608.271 2.66449 3.47759 0
M  V30 6201 C 609.772 1.0614 4.30406 0
M  V30 6202 H 606.992 0.305549 0.597395 0
M  V30 6203 H 609.536 1.4538 1.43823 0
M  V30 6204 H 607.691 0.711776 3.80805 0
M  V30 6205 H 608.105 2.84264 4.40788 0
M  V30 6206 H 609.579 1.40725 5.33761 0
M  V30 6207 H 610.056 -0.000960332 4.392 0
M  V30 6208 H 610.662 1.60821 3.93722 0
M  V30 6209 N 608.977 -1.30795 0.87923 0
M  V30 6210 C 610.207 -2.00237 0.50881 0
M  V30 6211 C 610.615 -1.66115 -0.905682 0
M  V30 6212 O 609.958 -0.89138 -1.60624 0
M  V30 6213 C 610.02 -3.54508 0.597003 0
M  V30 6214 C 609.684 -4.12131 1.97477 0
M  V30 6215 C 610.681 -4.28552 2.94346 0
M  V30 6216 C 608.366 -4.47644 2.2786 0
M  V30 6217 C 610.36 -4.79689 4.19735 0
M  V30 6218 C 608.047 -4.98481 3.53496 0
M  V30 6219 C 609.045 -5.14456 4.49248 0
M  V30 6220 O 608.733 -5.64199 5.72656 0
M  V30 6221 H 608.465 -0.647026 0.195788 0
M  V30 6222 H 611.019 -1.67785 1.1848 0
M  V30 6223 H 609.249 -3.86461 -0.135945 0
M  V30 6224 H 610.938 -4.05198 0.238684 0
M  V30 6225 H 611.704 -4.01424 2.72183 0
M  V30 6226 H 607.583 -4.34481 1.54102 0
M  V30 6227 H 611.127 -4.92073 4.9448 0
M  V30 6228 H 607.024 -5.25044 3.75498 0
M  V30 6229 H 607.792 -5.82551 5.74957 0
M  V30 6230 N 610.455 -0.639598 -1.44038 0
M  V30 6231 C 611.701 -0.147698 -2.02261 0
M  V30 6232 C 612.034 1.23031 -1.50256 0
M  V30 6233 O 611.309 1.81847 -0.690068 0
M  V30 6234 C 611.592 -0.14362 -3.59813 0
M  V30 6235 C 611.445 -1.55458 -4.22082 0
M  V30 6236 C 612.764 0.527317 -4.36929 0
M  V30 6237 H 609.883 -0.0551453 -0.734934 0
M  V30 6238 H 612.525 -0.817688 -1.71505 0
M  V30 6239 H 610.675 0.426898 -3.86147 0
M  V30 6240 H 612.347 -2.17464 -4.06826 0
M  V30 6241 H 610.59 -2.10594 -3.79253 0
M  V30 6242 H 611.261 -1.50369 -5.31124 0
M  V30 6243 H 613.737 0.0420504 -4.16079 0
M  V30 6244 H 612.613 0.499389 -5.46624 0
M  V30 6245 H 612.874 1.59914 -4.12165 0
M  V30 6246 N 611.933 1.52934 -0.380664 0
M  V30 6247 C 613.344 1.86457 0.0952684 0
M  V30 6248 C 613.695 1.3007 1.46889 0
M  V30 6249 O 612.82 0.628636 2.07068 0
M  V30 6250 C 613.415 3.38323 0.179648 0
M  V30 6251 C 611.974 3.71589 0.599858 0
M  V30 6252 C 611.121 2.76228 -0.243572 0
M  V30 6253 H 614.072 1.46966 -0.59888 0
M  V30 6254 H 614.093 3.67113 1.00042 0
M  V30 6255 H 613.605 3.79333 -0.820228 0
M  V30 6256 H 611.706 3.36144 1.60742 0
M  V30 6257 H 611.819 4.77715 0.364003 0
M  V30 6258 H 610.183 2.53045 0.289855 0
M  V30 6259 H 610.966 3.20074 -1.24127 0
M  V30 6260 N 613.412 0.11024 1.57214 0
M  V30 6261 C 614.375 -0.828808 2.1369 0
M  V30 6262 C 615.375 -1.20059 1.06969 0
M  V30 6263 O 616.565 -1.12754 1.32786 0
M  V30 6264 C 613.697 -2.11959 2.66994 0
M  V30 6265 H 614.89 -0.338146 2.97988 0
M  V30 6266 H 612.443 -0.138913 1.55681 0
M  V30 6267 H 613.178 -2.65476 1.8626 0
M  V30 6268 H 612.963 -1.86258 3.45037 0
M  V30 6269 H 614.453 -2.79105 3.10629 0
M  V30 6270 N 614.89 -1.56749 -0.16351 0
M  V30 6271 C 616.301 -1.72039 -0.725216 0
M  V30 6272 C 616.652 -0.72202 -1.82432 0
M  V30 6273 O 615.777 0.114942 -2.16095 0
M  V30 6274 C 616.372 -3.11932 -1.32227 0
M  V30 6275 C 614.931 -3.28879 -1.83072 0
M  V30 6276 C 614.078 -2.67984 -0.712716 0
M  V30 6277 H 617.029 -1.58579 0.0619772 0
M  V30 6278 H 617.05 -3.11015 -2.19202 0
M  V30 6279 H 616.562 -3.84572 -0.522103 0
M  V30 6280 H 614.663 -2.61209 -2.65708 0
M  V30 6281 H 614.776 -4.36688 -1.97079 0
M  V30 6282 H 613.14 -2.28005 -1.13515 0
M  V30 6283 H 613.923 -3.43216 0.0757361 0
M  V30 6284 N 616.368 0.432326 -1.51554 0
M  V30 6285 C 617.779 1.01202 -1.56892 0
M  V30 6286 C 618.13 1.92175 -0.395394 0
M  V30 6287 O 617.255 2.10844 0.487198 0
M  V30 6288 C 617.85 1.84217 -2.8434 0
M  V30 6289 C 616.409 2.37228 -2.92233 0
M  V30 6290 C 615.556 1.16576 -2.51606 0
M  V30 6291 H 618.507 0.213407 -1.57259 0
M  V30 6292 H 618.528 2.69721 -2.68385 0
M  V30 6293 H 618.04 1.17979 -3.69733 0
M  V30 6294 H 616.141 3.06905 -2.11282 0
M  V30 6295 H 616.254 2.69682 -3.95991 0
M  V30 6296 H 614.618 1.51263 -2.04919 0
M  V30 6297 H 615.401 0.519404 -3.39348 0
M  V30 6298 N 617.846 1.41785 0.688094 0
M  V30 6299 C 619.086 1.43018 1.46032 0
M  V30 6300 C 619.45 0.0402632 1.91958 0
M  V30 6301 O 620.651 -0.0726425 2.68702 0
M  V30 6302 C 618.922 2.4151 2.63453 0
M  V30 6303 S 620.481 2.61335 3.5249 0
M  V30 6304 H 617.299 0.506546 0.498931 0
M  V30 6305 H 619.901 1.78283 0.80221 0
M  V30 6306 H 618.605 3.41286 2.27929 0
M  V30 6307 H 618.136 2.07624 3.34149 0
M  V30 6308 H 620.151 1.88637 4.58945 0
M  V30 6309 N 619.324 -0.923095 1.27737 0
M  V30 6310 C 620.552 -1.70525 1.17171 0
M  V30 6311 C 620.967 -1.86847 -0.270881 0
M  V30 6312 O 620.324 -1.38879 -1.18401 0
M  V30 6313 C 620.375 -3.10242 1.85559 0
M  V30 6314 O 620.096 -2.94683 3.24182 0
M  V30 6315 C 621.597 -4.04586 1.81176 0
M  V30 6316 H 618.817 -0.533347 0.407163 0
M  V30 6317 H 621.361 -1.15599 1.68692 0
M  V30 6318 H 619.516 -3.62014 1.3793 0
M  V30 6319 H 619.93 -3.83045 3.58297 0
M  V30 6320 H 621.404 -5.00119 2.33633 0
M  V30 6321 H 621.881 -4.3218 0.782099 0
M  V30 6322 H 622.487 -3.58741 2.2844 0
M  V30 6323 N 620.802 -1.09834 -1.13024 0
M  V30 6324 C 622.079 -0.749225 -1.80682 0
M  V30 6325 C 622.459 0.765171 -1.96744 0
M  V30 6326 O 621.807 1.68912 -1.53886 0
M  V30 6327 C 622.017 -1.49311 -3.15448 0
M  V30 6328 C 623.365 -1.66162 -3.90737 0
M  V30 6329 O 624.389 -1.45597 -3.25085 0
M  V30 6330 O 623.248 -2.00211 -5.08505 0
M  V30 6331 H 620.342 -0.269614 -0.781817 0
M  V30 6332 H 622.888 -1.20078 -1.19914 0
M  V30 6333 H 621.66 -2.52407 -2.99009 0
M  V30 6334 H 621.283 -1.034 -3.8392 0
M  V30 6335 N 622.28 1.30327 -0.886154 0
M  V30 6336 C 623.527 1.96097 -0.505192 0
M  V30 6337 C 623.855 1.69952 0.945868 0
M  V30 6338 O 623.11 0.997653 1.68361 0
M  V30 6339 C 623.409 3.49906 -0.728042 0
M  V30 6340 C 623.075 3.96103 -2.15437 0
M  V30 6341 C 621.737 4.08428 -2.5444 0
M  V30 6342 C 624.089 4.20177 -3.08384 0
M  V30 6343 C 621.417 4.42189 -3.85598 0
M  V30 6344 C 623.769 4.55407 -4.39075 0
M  V30 6345 C 622.433 4.65941 -4.7797 0
M  V30 6346 H 621.703 0.71757 -0.184863 0
M  V30 6347 H 624.35 1.55171 -1.12223 0
M  V30 6348 H 622.655 3.9179 -0.027978 0
M  V30 6349 H 624.352 3.98869 -0.412862 0
M  V30 6350 H 620.942 3.87017 -1.84162 0
M  V30 6351 H 625.126 4.10134 -2.7947 0
M  V30 6352 H 620.382 4.48544 -4.15473 0
M  V30 6353 H 624.556 4.72986 -5.11133 0
M  V30 6354 H 622.183 4.91856 -5.79639 0
M  V30 6355 N 623.758 0.647228 1.43697 0
M  V30 6356 C 624.986 0.16575 2.06235 0
M  V30 6357 C 625.401 -1.1662 1.48476 0
M  V30 6358 O 624.758 -1.7187 0.613762 0
M  V30 6359 C 624.809 0.0621651 3.61447 0
M  V30 6360 O 624.53 1.34146 4.17057 0
M  V30 6361 C 626.031 -0.446102 4.4105 0
M  V30 6362 H 623.251 0.0871158 0.665321 0
M  V30 6363 H 625.795 0.886183 1.84301 0
M  V30 6364 H 623.95 -0.608794 3.82587 0
M  V30 6365 H 624.364 1.19675 5.10664 0
M  V30 6366 H 625.838 -0.46755 5.50016 0
M  V30 6367 H 626.315 -1.47627 4.13646 0
M  V30 6368 H 626.921 0.192159 4.24866 0
M  V30 6369 N 625.236 -1.5273 0.388769 0
M  V30 6370 C 626.652 -1.59553 0.0387049 0
M  V30 6371 C 626.852 -1.40278 -1.44652 0
M  V30 6372 O 625.908 -1.21951 -2.21098 0
M  V30 6373 C 627.221 -2.9625 0.515409 0
M  V30 6374 C 628.769 -3.09426 0.471621 0
M  V30 6375 C 629.244 -4.48572 0.924505 0
M  V30 6376 N 630.735 -4.54754 0.880496 0
M  V30 6377 C 631.47 -5.60653 1.20234 0
M  V30 6378 N 630.966 -6.74198 1.59463 0
M  V30 6379 N 632.759 -5.50755 1.12363 0
M  V30 6380 H 624.91 -1.63508 1.35569 0
M  V30 6381 H 627.173 -0.768097 0.555636 0
M  V30 6382 H 626.879 -3.15569 1.5527 0
M  V30 6383 H 626.753 -3.77102 -0.085792 0
M  V30 6384 H 629.14 -2.89804 -0.556588 0
M  V30 6385 H 629.221 -2.30528 1.10862 0
M  V30 6386 H 628.865 -4.68936 1.95094 0
M  V30 6387 H 628.795 -5.25935 0.264524 0
M  V30 6388 H 631.286 -3.73237 0.591815 0
M  V30 6389 H 631.599 -7.5097 1.82385 0
M  V30 6390 H 629.944 -6.75531 1.63349 0
M  V30 6391 H 633.135 -4.6093 0.816169 0
M  V30 6392 H 633.308 -6.33184 1.37777 0
M  V30 6393 N 626.714 -0.118576 -1.57153 0
M  V30 6394 C 627.954 0.542618 -1.97066 0
M  V30 6395 C 628.318 1.63874 -1.00046 0
M  V30 6396 O 629.519 2.3588 -1.28895 0
M  V30 6397 C 627.79 1.06196 -3.41258 0
M  V30 6398 S 629.349 1.73174 -4.03183 0
M  V30 6399 H 626.167 0.17638 -0.688775 0
M  V30 6400 H 628.769 -0.203556 -1.94437 0
M  V30 6401 H 627.473 0.253016 -4.09619 0
M  V30 6402 H 627.004 1.84342 -3.47536 0
M  V30 6403 H 629.019 3.01749 -3.93906 0
M  V30 6404 N 628.193 1.56834 0.155195 0
M  V30 6405 C 629.156 1.96748 1.17571 0
M  V30 6406 C 630.156 0.853006 1.3631 0
M  V30 6407 O 631.346 1.11978 1.33441 0
M  V30 6408 C 628.478 2.27631 2.53765 0
M  V30 6409 H 629.671 2.88085 0.833498 0
M  V30 6410 H 627.224 1.51141 0.398242 0
M  V30 6411 H 627.959 1.39059 2.92973 0
M  V30 6412 H 627.744 3.0888 2.41527 0
M  V30 6413 H 629.234 2.59377 3.27282 0
M  V30 6414 N 629.671 -0.424282 1.51781 0
M  V30 6415 C 630.634 -1.49848 1.73431 0
M  V30 6416 C 631.634 -1.49016 0.604225 0
M  V30 6417 O 632.824 -1.50808 0.871935 0
M  V30 6418 C 629.956 -2.89332 1.80277 0
M  V30 6419 H 631.149 -1.3195 2.69312 0
M  V30 6420 H 628.702 -0.653809 1.41968 0
M  V30 6421 H 629.437 -3.12618 0.862568 0
M  V30 6422 H 629.222 -2.9134 2.62419 0
M  V30 6423 H 630.712 -3.67233 1.98821 0
M  V30 6424 N 631.149 -1.42148 -0.680565 0
M  V30 6425 C 632.097 -1.45401 -1.81552 0
M  V30 6426 C 633.091 -0.33036 -1.66147 0
M  V30 6427 O 634.297 -0.503103 -1.72826 0
M  V30 6428 H 630.672 -0.455265 -0.59853 0
M  V30 6429 H 632.643 -2.41024 -1.75926 0
M  V30 6430 C 631.392 -1.36769 -3.19671 0
M  V30 6431 H 630.715 -2.22525 -3.32149 0
M  V30 6432 H 632.155 -1.43106 -3.9912 0
M  V30 6433 C 630.614 -0.0817752 -3.36801 0
M  V30 6434 O 631.144 0.867707 -3.92216 0
M  V30 6435 N 629.35 -0.000799811 -2.906 0
M  V30 6436 H 628.897 -0.774231 -2.4569 0
M  V30 6437 H 628.855 0.858961 -3.02439 0
M  V30 6438 N 632.627 0.916307 -1.28225 0
M  V30 6439 C 633.56 2.01954 -1.06254 0
M  V30 6440 C 634.538 1.62587 0.0205983 0
M  V30 6441 O 635.722 1.88073 -0.126824 0
M  V30 6442 C 632.849 3.33086 -0.614141 0
M  V30 6443 C 631.895 3.91435 -1.69354 0
M  V30 6444 S 632.728 4.22603 -3.28887 0
M  V30 6445 C 633.884 5.568 -2.85876 0
M  V30 6446 H 634.117 2.20281 -1.99659 0
M  V30 6447 H 631.65 1.06085 -1.12184 0
M  V30 6448 H 633.608 4.089 -0.36213 0
M  V30 6449 H 632.269 3.12664 0.300036 0
M  V30 6450 H 631.462 4.86098 -1.33136 0
M  V30 6451 H 631.064 3.22248 -1.89821 0
M  V30 6452 H 633.356 6.3658 -2.31888 0
M  V30 6453 H 634.299 5.97927 -3.79326 0
M  V30 6454 H 634.707 5.17865 -2.24669 0
M  V30 6455 N 634.105 1.10431 1.1244 0
M  V30 6456 C 635.521 0.836096 1.35947 0
M  V30 6457 C 635.721 -0.544475 1.94004 0
M  V30 6458 O 634.777 -1.29735 2.16622 0
M  V30 6459 C 636.09 1.93575 2.30107 0
M  V30 6460 C 637.638 1.9642 2.43697 0
M  V30 6461 C 638.113 3.05559 3.41171 0
M  V30 6462 N 639.604 3.04865 3.48728 0
M  V30 6463 C 640.339 3.85954 4.24061 0
M  V30 6464 N 639.835 4.76977 5.02458 0
M  V30 6465 N 641.628 3.74172 4.19466 0
M  V30 6466 H 633.779 1.9942 0.731124 0
M  V30 6467 H 636.042 0.866607 0.384312 0
M  V30 6468 H 635.748 2.92943 1.94621 0
M  V30 6469 H 635.622 1.8229 3.30227 0
M  V30 6470 H 638.009 0.97685 2.78463 0
M  V30 6471 H 638.09 2.11782 1.43465 0
M  V30 6472 H 637.734 4.04513 3.07135 0
M  V30 6473 H 637.664 2.87438 4.41234 0
M  V30 6474 H 640.155 2.38908 2.92799 0
M  V30 6475 H 640.468 5.35409 5.57277 0
M  V30 6476 H 638.813 4.81006 5.01655 0
M  V30 6477 H 642.004 3.02412 3.57302 0
M  V30 6478 H 642.177 4.37602 4.77921 0
M  V30 6479 N 635.583 -1.29855 0.893053 0
M  V30 6480 C 636.808 -2.00512 0.530066 0
M  V30 6481 C 637.233 -1.66446 -0.876199 0
M  V30 6482 O 636.591 -0.885446 -1.58207 0
M  V30 6483 C 636.639 -3.53308 0.721505 0
M  V30 6484 O 635.743 -4.11764 -0.228994 0
M  V30 6485 H 635.084 -0.630617 0.207891 0
M  V30 6486 H 637.614 -1.6551 1.20282 0
M  V30 6487 H 637.624 -4.03206 0.623599 0
M  V30 6488 H 636.299 -3.77439 1.74678 0
M  V30 6489 H 634.876 -3.72805 -0.0841034 0
M  V30 6490 N 637.061 -0.65484 -1.43351 0
M  V30 6491 C 637.994 0.0855537 -2.2804 0
M  V30 6492 C 638.972 0.828301 -1.39921 0
M  V30 6493 O 640.156 0.827539 -1.69364 0
M  V30 6494 C 637.283 1.12792 -3.19368 0
M  V30 6495 C 636.329 0.483037 -4.23756 0
M  V30 6496 S 637.162 -0.744605 -5.30298 0
M  V30 6497 C 638.318 0.297187 -6.25194 0
M  V30 6498 H 638.551 -0.632831 -2.90487 0
M  V30 6499 H 636.084 -0.44373 -1.47886 0
M  V30 6500 H 638.042 1.7243 -3.72529 0
M  V30 6501 H 636.703 1.81863 -2.56095 0
M  V30 6502 H 635.896 1.26888 -4.87766 0
M  V30 6503 H 635.498 -0.0392713 -3.73979 0
M  V30 6504 H 637.79 1.1629 -6.67445 0
M  V30 6505 H 638.733 -0.30793 -7.0743 0
M  V30 6506 H 639.141 0.633721 -5.60932 0
M  V30 6507 N 638.539 1.52521 -0.396863 0
M  V30 6508 C 639.471 2.24333 0.469814 0
M  V30 6509 C 640.484 1.2685 1.02043 0
M  V30 6510 O 641.673 1.52876 0.92147 0
M  V30 6511 C 638.773 2.95202 1.66461 0
M  V30 6512 C 637.946 4.19454 1.24003 0
M  V30 6513 C 637.005 4.73255 2.30036 0
M  V30 6514 O 636.031 5.36151 1.91131 0
M  V30 6515 N 637.233 4.53765 3.62047 0
M  V30 6516 H 639.998 2.99347 -0.145468 0
M  V30 6517 H 637.559 1.60348 -0.223606 0
M  V30 6518 H 639.551 3.28092 2.36934 0
M  V30 6519 H 638.121 2.2345 2.18607 0
M  V30 6520 H 637.341 3.92517 0.363892 0
M  V30 6521 H 638.629 5.0017 0.933135 0
M  V30 6522 H 638.027 4.03576 3.96412 0
M  V30 6523 H 636.584 4.91124 4.28533 0
M  V30 6524 N 640.017 0.126909 1.57088 0
M  V30 6525 C 641.433 -0.229641 1.57939 0
M  V30 6526 C 641.633 -1.66145 1.1401 0
M  V30 6527 O 640.689 -2.3843 0.831119 0
M  V30 6528 C 642.002 0.0108648 3.00698 0
M  V30 6529 C 643.55 -0.054418 3.12953 0
M  V30 6530 C 644.025 0.158497 4.57726 0
M  V30 6531 N 645.516 0.104735 4.63082 0
M  V30 6532 C 646.251 0.24427 5.72879 0
M  V30 6533 N 645.747 0.440415 6.91399 0
M  V30 6534 N 647.54 0.183286 5.61801 0
M  V30 6535 H 639.691 1.06203 1.83942 0
M  V30 6536 H 641.954 0.418834 0.85046 0
M  V30 6537 H 641.66 1.00102 3.37154 0
M  V30 6538 H 641.534 -0.717512 3.70313 0
M  V30 6539 H 643.921 -1.0351 2.7635 0
M  V30 6540 H 644.002 0.705967 2.45865 0
M  V30 6541 H 643.646 1.13619 4.95028 0
M  V30 6542 H 643.576 -0.62197 5.22914 0
M  V30 6543 H 646.067 -0.0430298 3.77876 0
M  V30 6544 H 646.38 0.537536 7.70928 0
M  V30 6545 H 644.725 0.476488 6.93365 0
M  V30 6546 H 647.916 0.0309561 4.6809 0
M  V30 6547 H 648.089 0.295471 6.47326 0
M  V30 6548 N 641.495 -1.56914 -0.146875 0
M  V30 6549 C 642.725 -1.87243 -0.873126 0
M  V30 6550 C 643.133 -0.713127 -1.75246 0
M  V30 6551 O 642.476 0.326228 -1.8078 0
M  V30 6552 C 642.538 -3.12279 -1.78107 0
M  V30 6553 C 642.202 -4.44082 -1.07889 0
M  V30 6554 C 643.199 -5.18096 -0.432734 0
M  V30 6555 C 640.884 -4.90807 -1.06836 0
M  V30 6556 C 642.878 -6.37039 0.214569 0
M  V30 6557 C 640.565 -6.09674 -0.417243 0
M  V30 6558 C 641.563 -6.82636 0.223093 0
M  V30 6559 O 641.251 -7.99245 0.863884 0
M  V30 6560 H 640.983 -0.624896 -0.257839 0
M  V30 6561 H 643.537 -2.04892 -0.14434 0
M  V30 6562 H 641.767 -2.90639 -2.5508 0
M  V30 6563 H 643.456 -3.28854 -2.37929 0
M  V30 6564 H 644.222 -4.83066 -0.432677 0
M  V30 6565 H 640.101 -4.3394 -1.55618 0
M  V30 6566 H 643.645 -6.93927 0.714965 0
M  V30 6567 H 639.542 -6.44165 -0.414967 0
M  V30 6568 H 640.31 -8.14912 0.765564 0
M  V30 6569 N 642.974 0.416227 -1.52004 0
M  V30 6570 C 643.924 1.50558 -1.7122 0
M  V30 6571 C 644.908 1.50613 -0.56609 0
M  V30 6572 O 646.1 1.56709 -0.822874 0
M  V30 6573 C 643.229 2.88556 -1.85984 0
M  V30 6574 C 642.315 2.93177 -3.06445 0
M  V30 6575 N 642.706 2.67505 -4.29272 0
M  V30 6576 C 641.004 3.24343 -3.06133 0
M  V30 6577 C 641.705 2.78511 -5.10692 0
M  V30 6578 N 640.681 3.11087 -4.45787 0
M  V30 6579 H 644.483 1.29494 -2.63834 0
M  V30 6580 H 641.997 0.62384 -1.4994 0
M  V30 6581 H 643.994 3.66954 -1.97865 0
M  V30 6582 H 642.654 3.10624 -0.945654 0
M  V30 6583 H 643.665 2.42033 -4.57865 0
M  V30 6584 H 640.342 3.52051 -2.24425 0
M  V30 6585 H 641.732 2.62438 -6.18527 0
M  V30 6586 N 644.452 1.42507 0.673017 0
M  V30 6587 C 645.384 1.42074 1.79854 0
M  V30 6588 C 646.397 0.319569 1.59633 0
M  V30 6589 O 647.586 0.582769 1.68719 0
M  V30 6590 C 644.686 1.19886 3.16987 0
M  V30 6591 C 643.859 2.42471 3.64042 0
M  V30 6592 C 642.918 2.15802 4.79913 0
M  V30 6593 O 641.944 2.89015 4.90366 0
M  V30 6594 N 643.146 1.16225 5.68746 0
M  V30 6595 H 645.911 2.3909 1.8071 0
M  V30 6596 H 643.472 1.37409 0.856171 0
M  V30 6597 H 645.464 0.999591 3.92161 0
M  V30 6598 H 644.034 0.313879 3.1102 0
M  V30 6599 H 643.254 2.77954 2.79526 0
M  V30 6600 H 644.542 3.24097 3.92223 0
M  V30 6601 H 643.94 0.556756 5.62954 0
M  V30 6602 H 642.497 1.02285 6.43724 0
M  V30 6603 N 645.93 -0.909495 1.28709 0
M  V30 6604 C 647.207 -1.63865 1.06806 0
M  V30 6605 C 647.587 -2.07445 -0.391143 0
M  V30 6606 O 646.935 -1.82269 -1.37805 0
M  V30 6607 C 647.145 -2.82692 2.04661 0
M  V30 6608 C 648.493 -3.5361 2.35042 0
M  V30 6609 O 649.517 -2.92847 2.02779 0
M  V30 6610 O 648.376 -4.63131 2.90124 0
M  V30 6611 H 645.47 -0.719065 0.408502 0
M  V30 6612 H 648.016 -0.958424 1.40044 0
M  V30 6613 H 646.788 -2.47614 3.0299 0
M  V30 6614 H 646.411 -3.58426 1.72095 0
M  V30 6615 N 647.408 -1.11026 -1.11852 0
M  V30 6616 C 648.636 -0.878818 -1.87308 0
M  V30 6617 C 649.051 0.57111 -1.79955 0
M  V30 6618 O 648.408 1.39409 -1.17777 0
M  V30 6619 C 648.459 -1.3264 -3.36287 0
M  V30 6620 O 648.18 -2.71948 -3.43476 0
M  V30 6621 C 649.681 -1.12974 -4.28663 0
M  V30 6622 H 646.901 -0.315015 -0.592458 0
M  V30 6623 H 649.445 -1.47649 -1.41492 0
M  V30 6624 H 647.6 -0.772269 -3.79625 0
M  V30 6625 H 648.014 -2.91241 -4.3621 0
M  V30 6626 H 649.488 -1.49198 -5.31454 0
M  V30 6627 H 649.965 -0.0689127 -4.39146 0
M  V30 6628 H 650.571 -1.67064 -3.91113 0
M  V30 6629 N 648.886 1.2938 -0.899927 0
M  V30 6630 C 649.818 2.26737 -0.335139 0
M  V30 6631 C 650.831 1.54316 0.518681 0
M  V30 6632 O 652.02 1.75313 0.335803 0
M  V30 6633 C 649.12 3.34558 0.540774 0
M  V30 6634 C 648.293 4.36455 -0.287372 0
M  V30 6635 C 647.352 5.2361 0.52141 0
M  V30 6636 O 646.378 5.69167 -0.0611735 0
M  V30 6637 N 647.58 5.50985 1.82745 0
M  V30 6638 H 650.345 2.75838 -1.17191 0
M  V30 6639 H 647.906 1.42716 -0.764438 0
M  V30 6640 H 649.898 3.89794 1.08825 0
M  V30 6641 H 648.468 2.85272 1.27823 0
M  V30 6642 H 647.688 3.80875 -1.01626 0
M  V30 6643 H 648.976 5.01573 -0.854518 0
M  V30 6644 H 648.374 5.15781 2.32349 0
M  V30 6645 H 646.931 6.09036 2.32204 0
M  V30 6646 N 650.364 0.662433 1.43002 0
M  V30 6647 C 651.612 0.179237 2.01304 0
M  V30 6648 C 651.933 -1.21428 1.52579 0
M  V30 6649 O 651.203 -1.81294 0.742252 0
M  V30 6650 H 649.783 0.0632725 0.744316 0
M  V30 6651 H 652.445 0.856169 1.75088 0
M  V30 6652 H 651.541 0.170957 3.11631 0
M  V30 6653 N 651.842 -1.52309 0.404946 0
M  V30 6654 C 653.088 -2.02731 -0.164857 0
M  V30 6655 C 653.443 -1.28543 -1.43159 0
M  V30 6656 O 652.736 -0.381883 -1.87756 0
M  V30 6657 C 652.93 -3.54284 -0.470895 0
M  V30 6658 C 652.759 -4.43152 0.764625 0
M  V30 6659 C 651.529 -4.88594 1.28858 0
M  V30 6660 C 653.727 -4.874 1.64152 0
M  V30 6661 N 651.709 -5.61577 2.48001 0
M  V30 6662 C 653.08 -5.59121 2.67924 0
M  V30 6663 C 655.135 -4.69421 1.65978 0
M  V30 6664 C 653.838 -6.14772 3.73427 0
M  V30 6665 C 655.864 -5.25966 2.70396 0
M  V30 6666 C 655.226 -5.97606 3.7289 0
M  V30 6667 H 651.325 -0.78169 -0.0220025 0
M  V30 6668 H 653.909 -1.86522 0.558354 0
M  V30 6669 H 652.08 -3.70574 -1.16315 0
M  V30 6670 H 653.812 -3.91394 -1.02921 0
M  V30 6671 H 650.567 -4.6596 0.847232 0
M  V30 6672 H 650.991 -6.02712 3.08329 0
M  V30 6673 H 655.633 -4.13524 0.88079 0
M  V30 6674 H 653.351 -6.69743 4.52184 0
M  V30 6675 H 656.937 -5.13926 2.72711 0
M  V30 6676 H 655.817 -6.40577 4.52361 0
M  V30 6677 N 653.32 -0.135238 -1.57019 0
M  V30 6678 C 654.568 0.51777 -1.95355 0
M  V30 6679 C 654.889 1.6617 -1.02042 0
M  V30 6680 O 654.159 1.95738 -0.0797343 0
M  V30 6681 H 652.739 0.194264 -0.721298 0
M  V30 6682 H 655.401 -0.207983 -1.93787 0
M  V30 6683 H 654.497 0.901675 -2.98791 0
M  V30 6684 N 654.798 1.5699 0.138552 0
M  V30 6685 C 656.075 1.74741 0.87891 0
M  V30 6686 C 656.455 0.705522 1.98961 0
M  V30 6687 O 655.803 -0.274066 2.2685 0
M  V30 6688 C 656.013 3.1909 1.4136 0
M  V30 6689 C 657.361 3.81023 1.87368 0
M  V30 6690 O 658.385 3.22571 1.51084 0
M  V30 6691 O 657.244 4.83722 2.54312 0
M  V30 6692 H 654.338 0.714781 0.415953 0
M  V30 6693 H 656.884 1.69248 0.123817 0
M  V30 6694 H 655.656 3.86424 0.61579 0
M  V30 6695 H 655.279 3.29043 2.23196 0
M  V30 6696 N 656.276 -0.40816 1.52223 0
M  V30 6697 C 657.525 -1.15212 1.65557 0
M  V30 6698 C 657.838 -1.9163 0.392096 0
M  V30 6699 O 659.044 -2.68458 0.405256 0
M  V30 6700 C 657.5 -2.09691 2.92502 0
M  V30 6701 C 657.108 -1.38785 4.25961 0
M  V30 6702 C 658.852 -2.8434 3.152 0
M  V30 6703 C 656.759 -2.31919 5.44029 0
M  V30 6704 H 655.689 -0.433776 0.616729 0
M  V30 6705 H 658.34 -0.4165 1.78711 0
M  V30 6706 H 656.722 -2.8681 2.7305 0
M  V30 6707 H 657.896 -0.670248 4.55899 0
M  V30 6708 H 656.211 -0.761741 4.09373 0
M  V30 6709 H 658.808 -3.54166 4.00587 0
M  V30 6710 H 659.151 -3.47344 2.29473 0
M  V30 6711 H 659.684 -2.14321 3.35129 0
M  V30 6712 H 656.423 -1.7356 6.32105 0
M  V30 6713 H 655.943 -3.0165 5.18428 0
M  V30 6714 H 657.622 -2.92424 5.77146 0
M  V30 6715 N 657.755 -1.42862 -0.66545 0
M  V30 6716 C 659.003 -1.43546 -1.42264 0
M  V30 6717 C 659.324 -0.0563116 -1.94919 0
M  V30 6718 O 658.594 0.906568 -1.73661 0
M  V30 6719 H 657.174 -0.528464 -0.527953 0
M  V30 6720 H 659.836 -1.78363 -0.785665 0
M  V30 6721 H 658.932 -2.14079 -2.27105 0
M  V30 6722 N 659.233 0.902656 -1.29189 0
M  V30 6723 C 660.463 1.68394 -1.19695 0
M  V30 6724 C 660.871 1.87602 0.245384 0
M  V30 6725 O 660.214 1.41084 1.17648 0
M  V30 6726 C 660.276 3.09094 -1.83578 0
M  V30 6727 C 659.94 3.1313 -3.32864 0
M  V30 6728 C 660.937 2.93497 -4.29134 0
M  V30 6729 C 658.622 3.3529 -3.74013 0
M  V30 6730 C 660.616 2.95953 -5.64527 0
M  V30 6731 C 658.303 3.37377 -5.09529 0
M  V30 6732 C 659.301 3.1773 -6.04596 0
M  V30 6733 O 658.989 3.196 -7.37639 0
M  V30 6734 H 658.721 0.532815 -0.416034 0
M  V30 6735 H 661.275 1.1374 -1.71033 0
M  V30 6736 H 659.505 3.65338 -1.26747 0
M  V30 6737 H 661.194 3.69297 -1.68447 0
M  V30 6738 H 661.96 2.76192 -3.98677 0
M  V30 6739 H 657.839 3.49623 -3.00474 0
M  V30 6740 H 661.383 2.80536 -6.38706 0
M  V30 6741 H 657.28 3.54213 -5.39633 0
M  V30 6742 H 658.048 3.35887 -7.46406 0
M  V30 6743 N 660.711 1.11618 1.11262 0
M  V30 6744 C 661.936 0.889013 1.8738 0
M  V30 6745 C 662.361 -0.555884 1.79698 0
M  V30 6746 O 661.719 -1.39272 1.16073 0
M  V30 6747 C 661.767 1.35759 3.34069 0
M  V30 6748 O 660.871 0.530499 4.08974 0
M  V30 6749 H 660.212 0.320082 0.581759 0
M  V30 6750 H 662.742 1.48611 1.40627 0
M  V30 6751 H 662.752 1.35291 3.84916 0
M  V30 6752 H 661.427 2.40973 3.38976 0
M  V30 6753 H 660.004 0.601439 3.68018 0
M  V30 6754 N 662.189 -1.289 0.906776 0
M  V30 6755 C 663.436 -1.95269 0.536326 0
M  V30 6756 C 663.764 -1.71435 -0.918711 0
M  V30 6757 O 663.019 -1.02431 -1.66752 0
M  V30 6758 C 663.318 -3.48704 0.783617 0
M  V30 6759 C 662.984 -3.92626 2.21711 0
M  V30 6760 C 661.646 -4.04329 2.60906 0
M  V30 6761 C 663.998 -4.15218 3.15029 0
M  V30 6762 C 661.326 -4.35998 3.92584 0
M  V30 6763 C 663.678 -4.48365 4.46264 0
M  V30 6764 C 662.342 -4.58278 4.85322 0
M  V30 6765 H 661.612 -0.714538 0.196256 0
M  V30 6766 H 664.259 -1.53366 1.14678 0
M  V30 6767 H 662.564 -3.91696 0.0903048 0
M  V30 6768 H 664.261 -3.98162 0.476267 0
M  V30 6769 H 660.851 -3.84038 1.90296 0
M  V30 6770 H 665.035 -4.05636 2.8596 0
M  V30 6771 H 660.291 -4.41878 4.22557 0
M  V30 6772 H 664.465 -4.64795 5.18593 0
M  V30 6773 H 662.092 -4.82573 5.87391 0
M  V30 6774 N 663.667 -0.670007 -1.42649 0
M  V30 6775 C 664.913 -0.190568 -2.01903 0
M  V30 6776 C 665.246 1.19817 -1.52832 0
M  V30 6777 O 664.521 1.80342 -0.728485 0
M  V30 6778 C 664.804 -0.21991 -3.59428 0
M  V30 6779 C 664.657 -1.64376 -4.18689 0
M  V30 6780 C 665.976 0.434519 -4.3795 0
M  V30 6781 H 663.095 -0.0707219 -0.733599 0
M  V30 6782 H 665.737 -0.853883 -1.69732 0
M  V30 6783 H 663.887 0.344894 -3.86966 0
M  V30 6784 H 665.559 -2.26044 -4.02122 0
M  V30 6785 H 663.802 -2.18591 -3.747 0
M  V30 6786 H 664.473 -1.61601 -5.27815 0
M  V30 6787 H 666.949 -0.0462156 -4.16074 0
M  V30 6788 H 665.825 0.38333 -5.4756 0
M  V30 6789 H 666.086 1.51135 -4.15464 0
M  V30 6790 N 665.145 1.52092 -0.413018 0
M  V30 6791 C 666.391 2.02154 0.161737 0
M  V30 6792 C 666.724 1.29789 1.44459 0
M  V30 6793 O 665.999 0.405378 1.90229 0
M  V30 6794 C 666.282 3.5781 0.405463 0
M  V30 6795 C 666.135 4.40819 -0.894335 0
M  V30 6796 C 667.454 4.23821 1.18591 0
M  V30 6797 H 664.573 0.734769 0.0573077 0
M  V30 6798 H 667.215 1.81948 -0.547247 0
M  V30 6799 H 665.365 3.75158 1.0094 0
M  V30 6800 H 667.037 4.35175 -1.53039 0
M  V30 6801 H 665.28 4.06877 -1.50444 0
M  V30 6802 H 665.951 5.47819 -0.678144 0
M  V30 6803 H 668.427 4.10596 0.674573 0
M  V30 6804 H 667.303 5.32663 1.3252 0
M  V30 6805 H 667.564 3.83038 2.20758 0
M  V30 6806 N 666.623 0.143563 1.56945 0
M  V30 6807 C 667.871 -0.507402 1.95627 0
M  V30 6808 C 668.192 -1.65626 1.02922 0
M  V30 6809 O 667.462 -1.95693 0.0901136 0
M  V30 6810 H 666.042 -0.190436 0.722318 0
M  V30 6811 H 668.704 0.218257 1.93674 0
M  V30 6812 H 667.8 -0.885816 2.99265 0
M  V30 6813 N 668.101 -1.57061 -0.130224 0
M  V30 6814 C 669.326 -1.88802 -0.858409 0
M  V30 6815 C 669.751 -0.734353 -1.73173 0
M  V30 6816 O 669.109 0.315529 -1.78533 0
M  V30 6817 C 669.157 -3.19228 -1.67708 0
M  V30 6818 O 668.261 -3.04343 -2.78297 0
M  V30 6819 H 667.602 -0.619849 -0.238083 0
M  V30 6820 H 670.132 -2.04271 -0.115995 0
M  V30 6821 H 670.142 -3.51669 -2.06864 0
M  V30 6822 H 668.817 -4.02793 -1.0359 0
M  V30 6823 H 667.394 -2.83346 -2.42425 0
M  V30 6824 N 669.579 0.400081 -1.52437 0
M  V30 6825 C 670.856 1.15973 -1.57511 0
M  V30 6826 C 671.236 2.0798 -0.361572 0
M  V30 6827 O 670.584 2.19032 0.650929 0
M  V30 6828 C 670.794 1.92912 -2.90837 0
M  V30 6829 C 672.142 2.48662 -3.44169 0
M  V30 6830 O 673.166 2.03081 -2.92637 0
M  V30 6831 O 672.025 3.31894 -4.34176 0
M  V30 6832 H 669.119 0.530023 -0.634827 0
M  V30 6833 H 671.665 0.40613 -1.64769 0
M  V30 6834 H 670.437 1.25564 -3.70607 0
M  V30 6835 H 670.06 2.75257 -2.86913 0
M  V30 6836 N 671.057 1.43213 0.657864 0
M  V30 6837 C 672.305 1.44298 1.41501 0
M  V30 6838 C 672.626 0.0666478 1.94886 0
M  V30 6839 O 671.896 -0.897345 1.74139 0
M  V30 6840 H 670.476 0.531257 0.525143 0
M  V30 6841 H 673.138 1.78777 0.776195 0
M  V30 6842 H 672.234 2.1528 2.25966 0
M  V30 6843 N 672.536 -0.895792 1.29666 0
M  V30 6844 C 673.766 -1.67757 1.20586 0
M  V30 6845 C 674.174 -1.87729 -0.235432 0
M  V30 6846 O 673.517 -1.41706 -1.16898 0
M  V30 6847 C 673.579 -3.08117 1.85215 0
M  V30 6848 C 673.243 -3.1136 3.3452 0
M  V30 6849 C 674.24 -2.91217 4.30684 0
M  V30 6850 C 671.925 -3.33302 3.75786 0
M  V30 6851 C 673.919 -2.92955 5.66089 0
M  V30 6852 C 671.606 -3.3467 5.11311 0
M  V30 6853 C 672.604 -3.14519 6.06273 0
M  V30 6854 O 672.292 -3.15684 7.39323 0
M  V30 6855 H 672.024 -0.530601 0.418854 0
M  V30 6856 H 674.578 -1.12831 1.71634 0
M  V30 6857 H 672.808 -3.64661 1.28683 0
M  V30 6858 H 674.497 -3.68399 1.70403 0
M  V30 6859 H 675.263 -2.74074 4.00136 0
M  V30 6860 H 671.142 -3.48025 3.02324 0
M  V30 6861 H 674.686 -2.77145 6.40185 0
M  V30 6862 H 670.583 -3.51346 5.41504 0
M  V30 6863 H 671.351 -3.31924 7.48177 0
M  V30 6864 N 674.014 -1.12206 -1.10668 0
M  V30 6865 C 675.26 -0.877172 -1.82848 0
M  V30 6866 C 675.593 0.595571 -1.84842 0
M  V30 6867 O 674.868 1.44013 -1.30731 0
M  V30 6868 C 675.151 -1.44957 -3.29635 0
M  V30 6869 C 675.004 -2.99051 -3.35989 0
M  V30 6870 C 676.323 -1.10714 -4.25946 0
M  V30 6871 H 673.442 -0.320103 -0.663854 0
M  V30 6872 H 676.084 -1.38827 -1.2972 0
M  V30 6873 H 674.234 -1.01488 -3.7501 0
M  V30 6874 H 675.906 -3.51182 -2.99113 0
M  V30 6875 H 674.149 -3.34705 -2.75962 0
M  V30 6876 H 674.82 -3.34194 -4.39339 0
M  V30 6877 H 677.296 -1.48254 -3.88793 0
M  V30 6878 H 676.172 -1.5343 -5.2702 0
M  V30 6879 H 676.433 -0.019 -4.42096 0
M  V30 6880 N 675.492 1.28418 -0.913599 0
M  V30 6881 C 676.722 1.98817 -0.56172 0
M  V30 6882 C 677.13 1.68457 0.861321 0
M  V30 6883 O 676.473 0.933653 1.58204 0
M  V30 6884 C 676.535 3.52801 -0.690785 0
M  V30 6885 C 676.199 4.0675 -2.08334 0
M  V30 6886 C 677.196 4.20597 -3.05604 0
M  V30 6887 C 674.881 4.41445 -2.39648 0
M  V30 6888 C 676.875 4.68392 -4.32305 0
M  V30 6889 C 674.562 4.88934 -3.66588 0
M  V30 6890 C 675.56 5.02364 -4.6273 0
M  V30 6891 O 675.248 5.48817 -5.87414 0
M  V30 6892 H 674.98 0.641608 -0.212874 0
M  V30 6893 H 677.534 1.64584 -1.22887 0
M  V30 6894 H 675.764 3.86686 0.0334336 0
M  V30 6895 H 677.453 4.04422 -0.346031 0
M  V30 6896 H 678.219 3.94067 -2.8273 0
M  V30 6897 H 674.098 4.30242 -1.65567 0
M  V30 6898 H 677.642 4.7879 -5.07352 0
M  V30 6899 H 673.539 5.14904 -3.89287 0
M  V30 6900 H 674.307 5.67103 -5.90201 0
M  V30 6901 N 676.97 0.677563 1.42291 0
M  V30 6902 C 677.88 0.000962654 2.346 0
M  V30 6903 C 678.896 -0.785833 1.55244 0
M  V30 6904 O 680.072 -0.727523 1.87801 0
M  V30 6905 C 677.137 -0.936746 3.33805 0
M  V30 6906 C 676.198 -0.144173 4.29058 0
M  V30 6907 C 675.431 -1.03722 5.23524 0
M  V30 6908 O 675.654 -2.27675 5.22992 0
M  V30 6909 O 674.588 -0.496542 5.99848 0
M  V30 6910 H 678.414 0.761397 2.94001 0
M  V30 6911 H 675.999 0.43781 1.42841 0
M  V30 6912 H 677.881 -1.47497 3.94744 0
M  V30 6913 H 676.556 -1.67698 2.76874 0
M  V30 6914 H 675.463 0.438224 3.71524 0
M  V30 6915 H 676.796 0.55701 4.89038 0
M  V30 6916 N 678.448 -1.51871 0.421078 0
M  V30 6917 C 679.696 -2.01539 -0.150492 0
M  V30 6918 C 680.017 -1.30803 -1.44623 0
M  V30 6919 O 679.287 -0.437568 -1.90951 0
M  V30 6920 H 677.867 -0.744698 -0.0586041 0
M  V30 6921 H 680.529 -1.8668 0.560059 0
M  V30 6922 H 679.625 -3.10264 -0.338068 0
M  V30 6923 N 679.926 -0.151884 -1.56866 0
M  V30 6924 C 681.342 0.204486 -1.58285 0
M  V30 6925 C 681.542 1.6431 -1.16639 0
M  V30 6926 O 680.598 2.37077 -0.868946 0
M  V30 6927 C 681.911 -0.0587019 -3.00643 0
M  V30 6928 C 683.459 0.00462303 -3.13 0
M  V30 6929 C 683.934 -0.231297 -4.57416 0
M  V30 6930 N 685.425 -0.178394 -4.62856 0
M  V30 6931 C 686.16 -0.335379 -5.72418 0
M  V30 6932 N 685.656 -0.550355 -6.90611 0
M  V30 6933 N 687.449 -0.272641 -5.61438 0
M  V30 6934 H 679.6 -1.09116 -1.82229 0
M  V30 6935 H 681.863 -0.432311 -0.843689 0
M  V30 6936 H 681.569 -1.05453 -3.35518 0
M  V30 6937 H 681.443 0.658508 -3.71407 0
M  V30 6938 H 683.83 0.991009 -2.77962 0
M  V30 6939 H 683.911 -0.744992 -2.44711 0
M  V30 6940 H 683.555 -1.2148 -4.93158 0
M  V30 6941 H 683.485 0.5387 -5.23837 0
M  V30 6942 H 685.976 -0.0170923 -3.77896 0
M  V30 6943 H 686.289 -0.660116 -7.69976 0
M  V30 6944 H 684.634 -0.586736 -6.92519 0
M  V30 6945 H 687.825 -0.105421 -4.67981 0
M  V30 6946 H 687.998 -0.398418 -6.46774 0
M  V30 6947 N 681.404 1.57128 0.121893 0
M  V30 6948 C 682.652 1.84335 0.828548 0
M  V30 6949 C 682.973 0.736632 1.80551 0
M  V30 6950 O 682.243 -0.23962 1.94429 0
M  V30 6951 H 680.823 0.680108 0.30897 0
M  V30 6952 H 683.485 1.9459 0.109906 0
M  V30 6953 H 682.581 2.80152 1.37554 0
M  V30 6954 N 682.882 -0.391992 1.52647 0
M  V30 6955 C 684.128 -1.13563 1.68745 0
M  V30 6956 C 684.483 -1.87745 0.420685 0
M  V30 6957 O 683.776 -1.82434 -0.585529 0
M  V30 6958 C 683.97 -2.14401 2.85949 0
M  V30 6959 C 683.799 -1.50124 4.23902 0
M  V30 6960 C 682.569 -1.2666 4.89168 0
M  V30 6961 C 684.767 -0.952933 5.05395 0
M  V30 6962 N 682.749 -0.584555 6.11111 0
M  V30 6963 C 684.12 -0.398784 6.18716 0
M  V30 6964 C 686.175 -0.849053 4.90607 0
M  V30 6965 C 684.878 0.249084 7.18869 0
M  V30 6966 C 686.904 -0.215011 5.91009 0
M  V30 6967 C 686.266 0.328382 7.03634 0
M  V30 6968 H 682.365 -0.401628 0.670984 0
M  V30 6969 H 684.949 -0.425585 1.89992 0
M  V30 6970 H 683.12 -2.82746 2.66288 0
M  V30 6971 H 684.852 -2.8125 2.90999 0
M  V30 6972 H 681.607 -1.54078 4.47836 0
M  V30 6973 H 682.031 -0.259663 6.76502 0
M  V30 6974 H 686.673 -1.25497 4.03745 0
M  V30 6975 H 684.391 0.667019 8.05342 0
M  V30 6976 H 687.977 -0.135921 5.81641 0
M  V30 6977 H 686.857 0.811257 7.79992 0
M  V30 6978 N 684.36 -1.4356 -0.65026 0
M  V30 6979 C 685.31 -1.45392 -1.75628 0
M  V30 6980 C 686.294 -0.322006 -1.57645 0
M  V30 6981 O 687.486 -0.565996 -1.67707 0
M  V30 6982 C 684.615 -1.38254 -3.1423 0
M  V30 6983 C 683.701 -2.56487 -3.3775 0
M  V30 6984 N 684.092 -3.81824 -3.31729 0
M  V30 6985 C 682.39 -2.51274 -3.6848 0
M  V30 6986 C 683.091 -4.60497 -3.55412 0
M  V30 6987 N 682.067 -3.91274 -3.77367 0
M  V30 6988 H 685.869 -2.40167 -1.69402 0
M  V30 6989 H 683.383 -1.38254 -0.852037 0
M  V30 6990 H 685.38 -1.3765 -3.9352 0
M  V30 6991 H 684.04 -0.445019 -3.21636 0
M  V30 6992 H 685.051 -4.14069 -3.11074 0
M  V30 6993 H 681.728 -1.66223 -3.82983 0
M  V30 6994 H 683.118 -5.69518 -3.5651 0
M  V30 6995 N 685.838 0.888903 -1.30139 0
M  V30 6996 C 687.084 1.64288 -1.19922 0
M  V30 6997 C 687.439 1.90839 0.244561 0
M  V30 6998 O 686.732 1.51544 1.17239 0
M  V30 6999 C 686.926 2.99041 -1.95728 0
M  V30 7000 C 686.755 2.85644 -3.47329 0
M  V30 7001 C 685.525 2.85836 -4.16685 0
M  V30 7002 C 687.723 2.6188 -4.42632 0
M  V30 7003 N 685.705 2.63289 -5.54574 0
M  V30 7004 C 687.076 2.48418 -5.68057 0
M  V30 7005 C 689.131 2.47073 -4.32272 0
M  V30 7006 C 687.834 2.21655 -6.84296 0
M  V30 7007 C 689.86 2.21695 -5.48275 0
M  V30 7008 C 689.222 2.09007 -6.72678 0
M  V30 7009 H 685.321 0.606315 -0.493868 0
M  V30 7010 H 687.905 1.0478 -1.64102 0
M  V30 7011 H 686.076 3.56589 -1.53945 0
M  V30 7012 H 687.808 3.63607 -1.77685 0
M  V30 7013 H 684.563 2.97521 -3.68481 0
M  V30 7014 H 684.987 2.55039 -6.27124 0
M  V30 7015 H 689.629 2.55621 -3.36776 0
M  V30 7016 H 687.347 2.11845 -7.79838 0
M  V30 7017 H 690.933 2.11067 -5.42164 0
M  V30 7018 H 689.813 1.89643 -7.60924 0
M  V30 7019 N 687.317 1.12792 1.10072 0
M  V30 7020 C 688.563 0.886857 1.82381 0
M  V30 7021 C 688.896 -0.58576 1.85155 0
M  V30 7022 O 688.171 -1.43317 1.31493 0
M  V30 7023 C 688.454 1.46703 3.28862 0
M  V30 7024 C 688.307 3.00829 3.34398 0
M  V30 7025 C 689.626 1.12971 4.25353 0
M  V30 7026 H 686.745 0.32362 0.662148 0
M  V30 7027 H 689.387 1.39513 1.28982 0
M  V30 7028 H 687.537 1.03476 3.74466 0
M  V30 7029 H 689.209 3.52764 2.97247 0
M  V30 7030 H 687.452 3.36164 2.74183 0
M  V30 7031 H 688.123 3.36519 4.3756 0
M  V30 7032 H 690.599 1.50313 3.88001 0
M  V30 7033 H 689.475 1.56223 5.26199 0
M  V30 7034 H 689.736 0.0424452 4.4208 0
M  V30 7035 N 688.795 -1.27931 0.920396 0
M  V30 7036 C 690.043 -1.94304 0.555906 0
M  V30 7037 C 690.364 -1.72753 -0.904519 0
M  V30 7038 O 689.634 -1.07104 -1.64029 0
M  V30 7039 H 688.214 -0.719001 0.202599 0
M  V30 7040 H 690.876 -1.55785 1.1712 0
M  V30 7041 H 689.972 -3.02806 0.755981 0
M  V30 7042 N 690.273 -0.685099 -1.4193 0
M  V30 7043 C 691.236 -0.0222632 -2.29189 0
M  V30 7044 C 692.236 0.7186 -1.4385 0
M  V30 7045 O 693.426 0.555058 -1.6512 0
M  V30 7046 C 690.558 0.979013 -3.2654 0
M  V30 7047 H 691.751 -0.790424 -2.89296 0
M  V30 7048 H 689.304 -0.448012 -1.49742 0
M  V30 7049 H 690.039 1.77531 -2.71392 0
M  V30 7050 H 689.824 0.451037 -3.89497 0
M  V30 7051 H 691.314 1.44091 -3.91954 0
M  V30 7052 N 691.751 1.51645 -0.429126 0
M  V30 7053 C 692.701 2.24388 0.404217 0
M  V30 7054 C 693.685 1.26294 0.996933 0
M  V30 7055 O 694.877 1.51428 0.916434 0
M  V30 7056 C 692.006 3.08338 1.50938 0
M  V30 7057 C 691.092 4.13857 0.926464 0
M  V30 7058 N 691.483 5.05749 0.0719732 0
M  V30 7059 C 689.781 4.29695 1.19491 0
M  V30 7060 C 690.482 5.81143 -0.254528 0
M  V30 7061 N 689.458 5.42408 0.359763 0
M  V30 7062 H 693.26 2.92794 -0.254697 0
M  V30 7063 H 690.774 1.60606 -0.240712 0
M  V30 7064 H 692.771 3.59022 2.11918 0
M  V30 7065 H 691.431 2.41475 2.17072 0
M  V30 7066 H 692.442 5.17066 -0.293854 0
M  V30 7067 H 689.119 3.74059 1.85434 0
M  V30 7068 H 690.509 6.65159 -0.949365 0
M  V30 7069 N 693.229 0.160201 1.56784 0
M  V30 7070 C 694.457 -0.494165 2.00912 0
M  V30 7071 C 694.872 -1.57548 1.04038 0
M  V30 7072 O 694.229 -1.82457 0.0394581 0
M  V30 7073 C 694.28 -1.08271 3.44905 0
M  V30 7074 O 694.001 -0.0445704 4.38077 0
M  V30 7075 C 695.502 -1.8164 4.04378 0
M  V30 7076 H 692.722 -0.127498 0.658776 0
M  V30 7077 H 695.266 0.258665 2.02858 0
M  V30 7078 H 693.421 -1.78609 3.4377 0
M  V30 7079 H 693.835 -0.477544 5.22322 0
M  V30 7080 H 695.309 -2.18094 5.07089 0
M  V30 7081 H 695.786 -2.70727 3.45838 0
M  V30 7082 H 696.392 -1.15969 4.09184 0
M  V30 7083 N 694.707 -1.5719 -0.113559 0
M  V30 7084 C 695.637 -2.03772 -1.14013 0
M  V30 7085 C 696.618 -0.923176 -1.42869 0
M  V30 7086 O 697.803 -1.19325 -1.53216 0
M  V30 7087 C 694.933 -2.44663 -2.4649 0
M  V30 7088 C 693.887 -3.59612 -2.32085 0
M  V30 7089 C 693.213 -3.8642 -3.69573 0
M  V30 7090 C 694.513 -4.91149 -1.7768 0
M  V30 7091 H 696.207 -2.89785 -0.752665 0
M  V30 7092 H 693.753 -1.39412 -0.360609 0
M  V30 7093 H 695.706 -2.75857 -3.18561 0
M  V30 7094 H 694.43 -1.55628 -2.87137 0
M  V30 7095 H 693.089 -3.28636 -1.62461 0
M  V30 7096 H 692.737 -2.94581 -4.07715 0
M  V30 7097 H 692.437 -4.63797 -3.60786 0
M  V30 7098 H 693.961 -4.2007 -4.4314 0
M  V30 7099 H 695.375 -5.20843 -2.39574 0
M  V30 7100 H 693.772 -5.72562 -1.79701 0
M  V30 7101 H 694.842 -4.79301 -0.734776 0
M  V30 7102 N 696.185 0.383891 -1.52853 0
M  V30 7103 C 697.433 1.12619 -1.67814 0
M  V30 7104 C 697.754 1.90354 -0.423141 0
M  V30 7105 O 697.024 1.87649 0.562554 0
M  V30 7106 H 695.604 0.418738 -0.618601 0
M  V30 7107 H 698.266 0.43495 -1.89985 0
M  V30 7108 H 697.362 1.82624 -2.5309 0
M  V30 7109 N 697.663 1.43903 0.642637 0
M  V30 7110 C 698.613 1.46321 1.74854 0
M  V30 7111 C 699.597 0.330361 1.57472 0
M  V30 7112 O 700.789 0.574881 1.67404 0
M  V30 7113 C 697.918 1.39919 3.13493 0
M  V30 7114 C 697.004 2.58274 3.36385 0
M  V30 7115 N 697.395 3.83578 3.29699 0
M  V30 7116 C 695.693 2.53224 3.67142 0
M  V30 7117 C 696.394 4.62375 3.52965 0
M  V30 7118 N 695.37 3.93269 3.75287 0
M  V30 7119 H 699.172 2.41062 1.68126 0
M  V30 7120 H 696.686 1.38704 0.844693 0
M  V30 7121 H 698.683 1.39735 3.92785 0
M  V30 7122 H 697.343 0.46207 3.21395 0
M  V30 7123 H 698.354 4.15713 3.08874 0
M  V30 7124 H 695.031 1.68252 3.82096 0
M  V30 7125 H 696.421 5.714 3.53485 0
M  V30 7126 N 699.141 -0.881989 1.30609 0
M  V30 7127 C 700.089 -2.00942 1.17155 0
M  V30 7128 C 701.083 -1.69198 0.0827154 0
M  V30 7129 O 702.289 -1.78342 0.243775 0
M  V30 7130 H 698.664 -0.658913 0.362406 0
M  V30 7131 H 700.635 -2.09423 2.12567 0
M  V30 7132 C 699.384 -3.36294 0.883273 0
M  V30 7133 H 698.707 -3.61233 1.7132 0
M  V30 7134 H 700.147 -4.15812 0.829255 0
M  V30 7135 C 698.606 -3.34348 -0.413851 0
M  V30 7136 O 699.136 -3.75216 -1.43444 0
M  V30 7137 N 697.342 -2.87459 -0.426082 0
M  V30 7138 H 696.889 -2.54397 0.40493 0
M  V30 7139 H 696.847 -2.8654 -1.29391 0
M  V30 7140 N 700.619 -1.13374 -1.09472 0
M  V30 7141 C 701.844 -0.918711 -1.85942 0
M  V30 7142 C 702.269 0.527225 -1.8056 0
M  V30 7143 O 701.627 1.37408 -1.18274 0
M  V30 7144 C 701.675 -1.41056 -3.31867 0
M  V30 7145 O 700.779 -0.595496 -4.08078 0
M  V30 7146 H 700.12 -0.329297 -0.576593 0
M  V30 7147 H 702.65 -1.50829 -1.38245 0
M  V30 7148 H 702.66 -1.41398 -3.82715 0
M  V30 7149 H 701.335 -2.46335 -3.35099 0
M  V30 7150 H 699.912 -0.659911 -3.67014 0
M  V30 7151 N 702.098 1.27442 -0.927168 0
M  V30 7152 C 703.514 1.46754 -0.627329 0
M  V30 7153 C 703.714 1.83902 0.823549 0
M  V30 7154 O 702.77 1.95215 1.60148 0
M  V30 7155 C 704.083 2.56045 -1.57674 0
M  V30 7156 C 705.631 2.69906 -1.58491 0
M  V30 7157 C 706.106 3.82355 -2.52128 0
M  V30 7158 N 707.597 3.89728 -2.50332 0
M  V30 7159 C 708.332 4.76155 -3.19475 0
M  V30 7160 N 707.828 5.67073 -3.97995 0
M  V30 7161 N 709.621 4.6988 -3.08496 0
M  V30 7162 H 701.772 1.01613 -1.86517 0
M  V30 7163 H 704.035 0.507443 -0.800753 0
M  V30 7164 H 703.741 2.35542 -2.61176 0
M  V30 7165 H 703.615 3.53423 -1.31804 0
M  V30 7166 H 706.002 2.89792 -0.557208 0
M  V30 7167 H 706.083 1.73018 -1.8841 0
M  V30 7168 H 705.727 3.63224 -3.55008 0
M  V30 7169 H 705.657 4.7867 -2.19505 0
M  V30 7170 H 708.148 3.24717 -1.93306 0
M  V30 7171 H 708.461 6.2988 -4.4774 0
M  V30 7172 H 706.806 5.6687 -4.02098 0
M  V30 7173 H 709.997 3.97848 -2.46646 0
M  V30 7174 H 710.17 5.37017 -3.62652 0
M  V30 7175 N 703.576 0.692616 1.41565 0
M  V30 7176 C 704.824 0.221896 2.00878 0
M  V30 7177 C 705.145 -1.18164 1.5512 0
M  V30 7178 O 704.415 -1.79679 0.78054 0
M  V30 7179 H 702.995 0.0790463 0.742806 0
M  V30 7180 H 705.657 0.893115 1.73232 0
M  V30 7181 H 704.753 0.23702 3.11199 0
M  V30 7182 N 705.054 -1.51416 0.437162 0
M  V30 7183 C 706.301 -2.02086 -0.129364 0
M  V30 7184 C 706.629 -1.32133 -1.42728 0
M  V30 7185 O 705.884 -0.424916 -1.91031 0
M  V30 7186 C 706.183 -3.55203 -0.39564 0
M  V30 7187 C 705.849 -4.43447 0.81644 0
M  V30 7188 C 704.511 -4.67285 1.14884 0
M  V30 7189 C 706.863 -4.95219 1.62503 0
M  V30 7190 C 704.191 -5.40141 2.29052 0
M  V30 7191 C 706.543 -5.69327 2.7577 0
M  V30 7192 C 705.207 -5.91429 3.09464 0
M  V30 7193 H 704.477 -0.739486 -0.0473375 0
M  V30 7194 H 707.124 -1.82368 0.584321 0
M  V30 7195 H 705.429 -3.73252 -1.19121 0
M  V30 7196 H 707.126 -3.91944 -0.847399 0
M  V30 7197 H 703.716 -4.2509 0.547422 0
M  V30 7198 H 707.9 -4.76686 1.38144 0
M  V30 7199 H 703.156 -5.55468 2.55471 0
M  V30 7200 H 707.33 -6.08433 3.38795 0
M  V30 7201 H 704.957 -6.47662 3.98042 0
M  V30 7202 N 706.532 -0.168513 -1.56696 0
M  V30 7203 C 707.78 0.476216 -1.96409 0
M  V30 7204 C 708.101 1.63968 -1.05544 0
M  V30 7205 O 707.371 1.95525 -0.121235 0
M  V30 7206 H 705.951 0.178921 -0.725256 0
M  V30 7207 H 708.613 -0.249042 -1.93302 0
M  V30 7208 H 707.709 0.838094 -3.00637 0
M  V30 7209 N 708.01 1.57248 0.105221 0
M  V30 7210 C 709.256 1.85845 0.811753 0
M  V30 7211 C 709.589 0.756219 1.78871 0
M  V30 7212 O 708.864 -0.236736 1.93054 0
M  V30 7213 C 709.147 3.25059 1.54947 0
M  V30 7214 C 709 4.45898 0.591185 0
M  V30 7215 C 710.319 3.6203 2.50245 0
M  V30 7216 H 707.438 0.675973 0.293649 0
M  V30 7217 H 710.08 1.89849 0.0756269 0
M  V30 7218 H 708.23 3.21776 2.17698 0
M  V30 7219 H 709.902 4.61291 -0.0285352 0
M  V30 7220 H 708.145 4.33693 -0.0962343 0
M  V30 7221 H 708.816 5.40009 1.1443 0
M  V30 7222 H 711.292 3.66192 1.97593 0
M  V30 7223 H 710.168 4.60389 2.98886 0
M  V30 7224 H 710.429 2.90176 3.33542 0
M  V30 7225 N 709.488 -0.375779 1.53054 0
M  V30 7226 C 710.451 -1.44254 1.7811 0
M  V30 7227 C 711.451 -1.47018 0.651328 0
M  V30 7228 O 712.641 -1.47957 0.919472 0
M  V30 7229 C 709.773 -2.8345 1.89391 0
M  V30 7230 H 710.966 -1.23316 2.73374 0
M  V30 7231 H 708.519 -0.608312 1.43977 0
M  V30 7232 H 709.254 -3.09716 0.961589 0
M  V30 7233 H 709.039 -2.82844 2.71555 0
M  V30 7234 H 710.529 -3.60722 2.10404 0
M  V30 7235 N 710.966 -1.44241 -0.634997 0
M  V30 7236 C 712.215 -1.46102 -1.39058 0
M  V30 7237 C 712.528 -0.0959909 -1.95364 0
M  V30 7238 O 713.734 0.00788751 -2.71499 0
M  V30 7239 C 712.19 -2.57195 -2.51751 0
M  V30 7240 C 711.798 -3.99888 -2.01974 0
M  V30 7241 C 713.542 -2.68272 -3.28984 0
M  V30 7242 C 711.449 -5.02412 -3.11987 0
M  V30 7243 H 710.379 -0.543556 -0.522554 0
M  V30 7244 H 713.03 -1.70294 -0.683538 0
M  V30 7245 H 711.412 -2.26237 -3.25012 0
M  V30 7246 H 712.586 -4.40396 -1.35604 0
M  V30 7247 H 710.901 -3.93019 -1.37568 0
M  V30 7248 H 713.498 -3.42042 -4.10988 0
M  V30 7249 H 713.841 -1.73957 -3.78212 0
M  V30 7250 H 714.374 -2.98622 -2.62812 0
M  V30 7251 H 711.113 -5.98342 -2.67707 0
M  V30 7252 H 710.633 -4.66501 -3.77011 0
M  V30 7253 H 712.312 -5.25939 -3.76825 0
M  V30 7254 N 712.444 0.87505 -1.31075 0
M  V30 7255 C 713.69 1.63009 -1.20647 0
M  V30 7256 C 714.023 1.9276 0.236045 0
M  V30 7257 O 713.298 1.55559 1.16754 0
M  V30 7258 C 713.581 2.96357 -2.0456 0
M  V30 7259 C 713.434 2.73516 -3.57084 0
M  V30 7260 C 714.753 3.974 -1.89107 0
M  V30 7261 H 711.872 0.591518 -0.439631 0
M  V30 7262 H 714.514 1.0119 -1.60812 0
M  V30 7263 H 712.664 3.49119 -1.70435 0
M  V30 7264 H 714.336 2.27465 -4.01319 0
M  V30 7265 H 712.579 2.0784 -3.80769 0
M  V30 7266 H 713.25 3.68377 -4.11099 0
M  V30 7267 H 715.726 3.5383 -2.18961 0
M  V30 7268 H 714.602 4.88596 -2.5013 0
M  V30 7269 H 714.863 4.33794 -0.85296 0
M  V30 7270 N 713.922 1.13953 1.08869 0
M  V30 7271 C 715.17 0.903023 1.80803 0
M  V30 7272 C 715.491 -0.572151 1.86417 0
M  V30 7273 O 714.761 -1.41589 1.35386 0
M  V30 7274 H 713.341 0.331099 0.669614 0
M  V30 7275 H 716.003 1.43719 1.31647 0
M  V30 7276 H 715.099 1.29881 2.83791 0
M  V30 7277 N 715.4 -1.26948 0.933913 0
M  V30 7278 C 716.348 -2.2862 0.428463 0
M  V30 7279 C 717.342 -1.62144 -0.490464 0
M  V30 7280 O 718.548 -1.76167 -0.36948 0
M  V30 7281 H 714.923 -0.742363 0.120003 0
M  V30 7282 H 716.894 -2.68659 1.29865 0
M  V30 7283 C 715.643 -3.46423 -0.29774 0
M  V30 7284 H 714.966 -3.97792 0.400183 0
M  V30 7285 H 716.406 -4.19505 -0.615736 0
M  V30 7286 C 714.865 -3.01017 -1.51295 0
M  V30 7287 O 715.395 -3.05226 -2.61151 0
M  V30 7288 N 713.601 -2.56442 -1.36696 0
M  V30 7289 H 713.148 -2.53217 -0.473178 0
M  V30 7290 H 713.106 -2.26424 -2.18127 0
M  V30 7291 N 716.879 -0.700114 -1.41195 0
M  V30 7292 C 718.109 -0.241828 -2.0518 0
M  V30 7293 C 718.517 1.1157 -1.52803 0
M  V30 7294 O 717.86 1.70926 -0.673042 0
M  V30 7295 C 717.922 -0.12695 -3.59276 0
M  V30 7296 C 717.586 -1.41725 -4.34469 0
M  V30 7297 C 718.583 -2.35604 -4.63451 0
M  V30 7298 C 716.268 -1.67189 -4.73659 0
M  V30 7299 C 718.262 -3.53204 -5.3059 0
M  V30 7300 C 715.949 -2.85073 -5.40534 0
M  V30 7301 C 716.947 -3.77904 -5.68927 0
M  V30 7302 O 716.635 -4.93723 -6.34424 0
M  V30 7303 H 716.367 -0.109247 -0.667114 0
M  V30 7304 H 718.921 -0.954538 -1.81873 0
M  V30 7305 H 717.151 0.641571 -3.81341 0
M  V30 7306 H 718.84 0.294748 -4.04828 0
M  V30 7307 H 719.606 -2.1719 -4.33651 0
M  V30 7308 H 715.485 -0.957935 -4.50937 0
M  V30 7309 H 719.029 -4.25679 -5.52669 0
M  V30 7310 H 714.926 -3.03402 -5.69752 0
M  V30 7311 H 715.694 -4.93597 -6.5292 0
M  V30 7312 N 718.357 1.51182 -0.445186 0
M  V30 7313 C 719.585 2.06568 0.117091 0
M  V30 7314 C 720 1.31182 1.35781 0
M  V30 7315 O 719.357 0.373605 1.78635 0
M  V30 7316 C 719.408 3.58917 0.431408 0
M  V30 7317 O 719.129 4.31456 -0.760078 0
M  V30 7318 C 720.63 4.30843 1.0435 0
M  V30 7319 H 717.85 0.670985 0.00444436 0
M  V30 7320 H 720.394 1.94666 -0.626525 0
M  V30 7321 H 718.549 3.70708 1.12493 0
M  V30 7322 H 718.963 5.22215 -0.489048 0
M  V30 7323 H 720.437 5.38499 1.21337 0
M  V30 7324 H 720.914 3.89644 2.02667 0
M  V30 7325 H 721.52 4.23516 0.38913 0
M  V30 7326 N 719.835 0.176821 1.56605 0
M  V30 7327 C 720.798 -0.737429 2.17013 0
M  V30 7328 C 721.798 -1.15414 1.11965 0
M  V30 7329 O 722.988 -1.0702 1.37449 0
M  V30 7330 C 720.12 -2.00445 2.75744 0
M  V30 7331 H 721.313 -0.211455 2.99154 0
M  V30 7332 H 718.866 -0.0727582 1.56131 0
M  V30 7333 H 719.601 -2.57338 1.97352 0
M  V30 7334 H 719.386 -1.71456 3.52626 0
M  V30 7335 H 720.876 -2.65679 3.22187 0
M  V30 7336 N 721.313 -1.57302 -0.09688 0
M  V30 7337 C 722.276 -2.00976 -1.10188 0
M  V30 7338 C 723.276 -0.903009 -1.3305 0
M  V30 7339 O 724.466 -1.16853 -1.29194 0
M  V30 7340 C 721.598 -2.36893 -2.45142 0
M  V30 7341 H 722.791 -2.9098 -0.726003 0
M  V30 7342 H 720.344 -1.52515 -0.341872 0
M  V30 7343 H 721.079 -1.49837 -2.8761 0
M  V30 7344 H 720.864 -3.17632 -2.29897 0
M  V30 7345 H 722.354 -2.71345 -3.1743 0
M  V30 7346 N 722.791 0.367657 -1.53252 0
M  V30 7347 C 723.721 1.45632 -1.8252 0
M  V30 7348 C 724.702 1.55979 -0.678568 0
M  V30 7349 O 725.887 1.70581 -0.928217 0
M  V30 7350 C 723.017 2.82994 -2.01325 0
M  V30 7351 C 721.971 2.87473 -3.17086 0
M  V30 7352 C 721.297 4.2749 -3.21179 0
M  V30 7353 C 722.597 2.55182 -4.55719 0
M  V30 7354 H 724.291 1.21387 -2.73689 0
M  V30 7355 H 721.837 0.58251 -1.31692 0
M  V30 7356 H 723.79 3.59179 -2.20383 0
M  V30 7357 H 722.514 3.08622 -1.06864 0
M  V30 7358 H 721.173 2.13739 -2.97844 0
M  V30 7359 H 720.821 4.5019 -2.24361 0
M  V30 7360 H 720.521 4.31403 -3.98955 0
M  V30 7361 H 722.045 5.0555 -3.42419 0
M  V30 7362 H 723.459 3.21081 -4.74953 0
M  V30 7363 H 721.856 2.70414 -5.3572 0
M  V30 7364 H 722.926 1.5044 -4.60973 0
M  V30 7365 N 724.269 1.44576 0.627338 0
M  V30 7366 C 725.68 1.42266 1.20902 0
M  V30 7367 C 726.031 0.139964 1.957 0
M  V30 7368 O 725.156 -0.759489 2.02634 0
M  V30 7369 C 725.751 2.57727 2.19914 0
M  V30 7370 C 724.31 2.58599 2.73502 0
M  V30 7371 C 723.457 2.34145 1.48564 0
M  V30 7372 H 726.408 1.53102 0.417791 0
M  V30 7373 H 726.429 2.30697 3.02588 0
M  V30 7374 H 725.941 3.51068 1.65447 0
M  V30 7375 H 724.042 1.6921 3.31962 0
M  V30 7376 H 724.155 3.57205 3.19282 0
M  V30 7377 H 722.519 1.83313 1.76829 0
M  V30 7378 H 723.302 3.29606 0.959935 0
M  V30 7379 N 725.747 -0.868086 1.31537 0
M  V30 7380 C 726.975 -1.65402 1.24298 0
M  V30 7381 C 727.39 -1.87827 -0.191389 0
M  V30 7382 O 726.747 -1.43776 -1.12404 0
M  V30 7383 C 726.798 -3.02093 1.9855 0
M  V30 7384 O 726.519 -2.80668 3.36388 0
M  V30 7385 C 728.02 -3.96538 1.98173 0
M  V30 7386 H 725.24 -0.515598 0.429417 0
M  V30 7387 H 727.784 -1.0834 1.73444 0
M  V30 7388 H 725.939 -3.55838 1.53161 0
M  V30 7389 H 726.353 -3.67504 3.74221 0
M  V30 7390 H 727.827 -4.8976 2.54635 0
M  V30 7391 H 728.304 -4.28474 0.964697 0
M  V30 7392 H 728.91 -3.48729 2.4345 0
M  V30 7393 N 727.225 -1.14528 -1.08264 0
M  V30 7394 C 728.135 -0.84728 -2.18765 0
M  V30 7395 C 729.151 0.172826 -1.7314 0
M  V30 7396 O 730.327 0.000985336 -2.014 0
M  V30 7397 C 727.392 -0.330633 -3.4512 0
M  V30 7398 C 726.453 -1.41348 -4.05363 0
M  V30 7399 C 725.686 -0.921387 -5.25686 0
M  V30 7400 O 725.909 0.236587 -5.69909 0
M  V30 7401 O 724.843 -1.70101 -5.77364 0
M  V30 7402 H 728.669 -1.7708 -2.46731 0
M  V30 7403 H 726.254 -0.923661 -1.17426 0
M  V30 7404 H 728.136 -0.0485053 -4.21372 0
M  V30 7405 H 726.811 0.565147 -3.18728 0
M  V30 7406 H 725.718 -1.74908 -3.30693 0
M  V30 7407 H 727.051 -2.28383 -4.36007 0
M  V30 7408 N 728.703 1.26451 -0.940633 0
M  V30 7409 C 729.666 2.24651 -0.454378 0
M  V30 7410 C 730.666 1.54826 0.434222 0
M  V30 7411 O 731.856 1.72628 0.233477 0
M  V30 7412 C 728.988 3.39148 0.345192 0
M  V30 7413 H 730.181 2.69182 -1.32217 0
M  V30 7414 H 727.734 1.38596 -0.722547 0
M  V30 7415 H 728.469 3.00018 1.23125 0
M  V30 7416 H 728.254 3.9101 -0.292107 0
M  V30 7417 H 729.744 4.12103 0.675341 0
M  V30 7418 N 730.181 0.707592 1.40822 0
M  V30 7419 C 731.144 0.0587224 2.29125 0
M  V30 7420 C 732.144 -0.695624 1.44975 0
M  V30 7421 O 733.334 -0.528718 1.65983 0
M  V30 7422 C 730.466 -0.926939 3.28056 0
M  V30 7423 H 731.659 0.836349 2.88002 0
M  V30 7424 H 729.212 0.471778 1.4901 0
M  V30 7425 H 729.947 -1.7319 2.74182 0
M  V30 7426 H 729.732 -0.389015 3.90165 0
M  V30 7427 H 731.222 -1.37837 3.94196 0
M  V30 7428 N 731.66 -1.50943 0.453197 0
M  V30 7429 C 732.59 -2.31005 -0.34044 0
M  V30 7430 C 733.571 -1.37112 -1.00669 0
M  V30 7431 O 734.756 -1.66033 -1.0073 0
M  V30 7432 C 731.886 -3.16358 -1.433 0
M  V30 7433 C 730.84 -4.18658 -0.889363 0
M  V30 7434 C 730.166 -4.92633 -2.07887 0
M  V30 7435 C 731.466 -5.22227 0.0871142 0
M  V30 7436 H 733.16 -2.97601 0.327723 0
M  V30 7437 H 730.706 -1.43119 0.159054 0
M  V30 7438 H 732.659 -3.71155 -1.99555 0
M  V30 7439 H 731.383 -2.47613 -2.12968 0
M  V30 7440 H 730.042 -3.64936 -0.348915 0
M  V30 7441 H 729.69 -4.20376 -2.76211 0
M  V30 7442 H 729.39 -5.61819 -1.72143 0
M  V30 7443 H 730.914 -5.50258 -2.64666 0
M  V30 7444 H 732.328 -5.72001 -0.385656 0
M  V30 7445 H 730.725 -5.99032 0.357926 0
M  V30 7446 H 731.795 -4.74077 1.01879 0
M  V30 7447 N 733.138 -0.185124 -1.56509 0
M  V30 7448 C 734.554 0.170865 -1.58683 0
M  V30 7449 C 734.754 1.61799 -1.20098 0
M  V30 7450 O 733.81 2.35181 -0.919038 0
M  V30 7451 C 735.123 -0.122459 -3.00451 0
M  V30 7452 C 736.671 -0.0617699 -3.12939 0
M  V30 7453 C 737.146 -0.328269 -4.56822 0
M  V30 7454 N 738.637 -0.276533 -4.62374 0
M  V30 7455 C 739.372 -0.456722 -5.71578 0
M  V30 7456 N 738.868 -0.69672 -6.89288 0
M  V30 7457 N 740.661 -0.391669 -5.60734 0
M  V30 7458 H 732.812 -1.12956 -1.79874 0
M  V30 7459 H 735.075 -0.45011 -0.834329 0
M  V30 7460 H 734.781 -1.12546 -3.33206 0
M  V30 7461 H 734.655 0.579578 -3.72721 0
M  V30 7462 H 737.042 0.931826 -2.80002 0
M  V30 7463 H 737.123 -0.796732 -2.43076 0
M  V30 7464 H 736.767 -1.31914 -4.9047 0
M  V30 7465 H 736.697 0.427465 -5.24862 0
M  V30 7466 H 739.188 -0.0972458 -3.77775 0
M  V30 7467 H 739.501 -0.823291 -7.68402 0
M  V30 7468 H 737.846 -0.733497 -6.91119 0
M  V30 7469 H 741.037 -0.204663 -4.67652 0
M  V30 7470 H 741.21 -0.535518 -6.45783 0
M  V30 7471 N 734.616 1.57351 0.0885366 0
M  V30 7472 C 735.844 1.90631 0.804196 0
M  V30 7473 C 736.259 0.779474 1.71958 0
M  V30 7474 O 735.616 -0.248179 1.80805 0
M  V30 7475 C 735.667 3.23568 1.61202 0
M  V30 7476 O 735.388 4.31917 0.733447 0
M  V30 7477 C 736.889 3.70753 2.43016 0
M  V30 7478 H 734.109 0.630501 0.229585 0
M  V30 7479 H 736.653 2.044 0.0638092 0
M  V30 7480 H 734.808 3.11377 2.30485 0
M  V30 7481 H 735.222 5.08297 1.29361 0
M  V30 7482 H 736.696 4.66447 2.9518 0
M  V30 7483 H 737.173 2.98922 3.2178 0
M  V30 7484 H 737.779 3.85834 1.7892 0
M  V30 7485 N 736.094 -0.359525 1.53444 0
M  V30 7486 C 737.34 -1.10315 1.70172 0
M  V30 7487 C 737.673 -1.88788 0.455287 0
M  V30 7488 O 736.948 -1.86635 -0.547514 0
M  V30 7489 C 737.231 -2.05744 2.95536 0
M  V30 7490 C 737.084 -1.3084 4.3035 0
M  V30 7491 C 738.403 -3.05784 3.16518 0
M  V30 7492 H 735.522 -0.399662 0.619225 0
M  V30 7493 H 738.164 -0.383338 1.86093 0
M  V30 7494 H 736.314 -2.67125 2.82093 0
M  V30 7495 H 737.986 -0.721959 4.55615 0
M  V30 7496 H 736.229 -0.610283 4.29486 0
M  V30 7497 H 736.9 -2.00718 5.14214 0
M  V30 7498 H 739.376 -2.5451 3.29187 0
M  V30 7499 H 738.252 -3.69772 4.05659 0
M  V30 7500 H 738.513 -3.76289 2.32076 0
M  V30 7501 N 737.572 -1.44907 -0.619662 0
M  V30 7502 C 738.988 -1.29046 -0.939107 0
M  V30 7503 C 739.188 -0.23462 -2.00129 0
M  V30 7504 O 738.244 0.37558 -2.49691 0
M  V30 7505 C 739.557 -2.66567 -1.39149 0
M  V30 7506 C 741.105 -2.74368 -1.50635 0
M  V30 7507 C 741.58 -4.12386 -1.99253 0
M  V30 7508 N 743.071 -4.1462 -2.06506 0
M  V30 7509 C 743.806 -5.18272 -2.4532 0
M  V30 7510 N 743.302 -6.32278 -2.83189 0
M  V30 7511 N 745.095 -5.05628 -2.45554 0
M  V30 7512 H 737.246 -2.12239 0.0826135 0
M  V30 7513 H 739.509 -0.947652 -0.0256829 0
M  V30 7514 H 739.215 -3.4496 -0.685254 0
M  V30 7515 H 739.089 -2.94224 -2.36034 0
M  V30 7516 H 741.476 -1.96287 -2.20353 0
M  V30 7517 H 741.557 -2.50439 -0.520963 0
M  V30 7518 H 741.201 -4.90947 -1.30127 0
M  V30 7519 H 741.131 -4.33699 -2.98684 0
M  V30 7520 H 743.622 -3.32343 -1.79878 0
M  V30 7521 H 743.935 -7.07172 -3.11652 0
M  V30 7522 H 742.28 -6.35699 -2.80913 0
M  V30 7523 H 745.471 -4.15613 -2.15367 0
M  V30 7524 H 745.644 -5.86529 -2.75478 0
M  V30 7525 N 739.05 0.861098 -1.31996 0
M  V30 7526 C 740.327 1.59788 -1.12814 0
M  V30 7527 C 740.707 2.08753 0.313882 0
M  V30 7528 O 740.055 1.87258 1.30946 0
M  V30 7529 C 740.265 2.74901 -2.15012 0
M  V30 7530 C 741.613 3.44643 -2.48004 0
M  V30 7531 O 742.637 2.85119 -2.13508 0
M  V30 7532 O 741.496 4.52044 -3.07113 0
M  V30 7533 H 738.59 0.703408 -0.434909 0
M  V30 7534 H 741.136 0.905788 -1.43505 0
M  V30 7535 H 739.908 2.36198 -3.11971 0
M  V30 7536 H 739.531 3.51792 -1.85279 0
M  V30 7537 N 740.528 1.15101 1.07655 0
M  V30 7538 C 741.756 0.947731 1.83918 0
M  V30 7539 C 742.171 -0.503927 1.81951 0
M  V30 7540 O 741.528 -1.34941 1.2287 0
M  V30 7541 C 741.579 1.4503 3.31132 0
M  V30 7542 O 741.3 2.84508 3.33146 0
M  V30 7543 C 742.801 1.28806 4.24174 0
M  V30 7544 H 740.021 0.336786 0.580358 0
M  V30 7545 H 742.565 1.52799 1.35914 0
M  V30 7546 H 740.72 0.912632 3.76497 0
M  V30 7547 H 741.134 3.0723 4.251 0
M  V30 7548 H 742.608 1.6882 5.25551 0
M  V30 7549 H 743.085 0.231851 4.38588 0
M  V30 7550 H 743.691 1.81465 3.84643 0
M  V30 7551 N 742.006 -1.2595 0.947325 0
M  V30 7552 C 742.936 -2.28521 0.479604 0
M  V30 7553 C 743.917 -1.63469 -0.470293 0
M  V30 7554 O 745.102 -1.90627 -0.370824 0
M  V30 7555 C 742.232 -3.46397 -0.250289 0
M  V30 7556 C 741.186 -4.23578 0.613643 0
M  V30 7557 C 740.512 -5.34131 -0.246568 0
M  V30 7558 C 741.812 -4.86979 1.88809 0
M  V30 7559 H 743.506 -2.67895 1.33688 0
M  V30 7560 H 741.052 -1.28783 0.644274 0
M  V30 7561 H 743.005 -4.17269 -0.588576 0
M  V30 7562 H 741.729 -3.05993 -1.14175 0
M  V30 7563 H 740.388 -3.54478 0.93491 0
M  V30 7564 H 740.036 -4.89968 -1.13756 0
M  V30 7565 H 739.736 -5.86683 0.328123 0
M  V30 7566 H 741.26 -6.07839 -0.579986 0
M  V30 7567 H 742.674 -5.50034 1.61666 0
M  V30 7568 H 741.071 -5.49675 2.40784 0
M  V30 7569 H 742.141 -4.09575 2.5957 0
M  V30 7570 N 743.484 -0.715051 -1.40445 0
M  V30 7571 C 744.895 -0.326763 -1.83818 0
M  V30 7572 C 745.246 1.13851 -1.59789 0
M  V30 7573 O 744.371 1.87611 -1.07848 0
M  V30 7574 C 744.966 -0.586297 -3.33688 0
M  V30 7575 C 743.525 -0.251724 -3.75557 0
M  V30 7576 C 742.672 -0.858928 -2.63662 0
M  V30 7577 H 745.623 -0.914241 -1.2972 0
M  V30 7578 H 745.644 0.148636 -3.8021 0
M  V30 7579 H 745.156 -1.65281 -3.51146 0
M  V30 7580 H 743.257 0.809754 -3.63695 0
M  V30 7581 H 743.37 -0.720348 -4.73654 0
M  V30 7582 H 741.734 -0.287013 -2.53078 0
M  V30 7583 H 742.517 -1.9297 -2.83932 0
M  V30 7584 N 744.962 1.50701 -0.461195 0
M  V30 7585 C 746.187 2.07171 0.0974773 0
M  V30 7586 C 746.612 1.32391 1.3362 0
M  V30 7587 O 745.97 0.368676 1.77512 0
M  V30 7588 C 746.018 3.58651 0.374409 0
M  V30 7589 O 745.122 3.85816 1.4567 0
M  V30 7590 H 744.463 0.663944 -0.00862047 0
M  V30 7591 H 746.993 1.94021 -0.649394 0
M  V30 7592 H 747.003 4.03295 0.617843 0
M  V30 7593 H 745.678 4.12498 -0.530829 0
M  V30 7594 H 744.255 3.53018 1.20136 0
M  V30 7595 N 746.441 0.193421 1.56409 0
M  V30 7596 C 747.681 -0.447977 1.9943 0
M  V30 7597 C 748.045 -1.58915 1.07751 0
M  V30 7598 O 749.246 -2.29462 1.40002 0
M  V30 7599 C 747.517 -0.89793 3.45936 0
M  V30 7600 S 749.076 -1.5374 4.10986 0
M  V30 7601 H 745.894 -0.143316 0.696406 0
M  V30 7602 H 748.496 0.296093 1.93245 0
M  V30 7603 H 747.2 -0.0572927 4.1036 0
M  V30 7604 H 746.731 -1.67551 3.55936 0
M  V30 7605 H 748.746 -2.82612 4.07854 0
M  V30 7606 N 747.919 -1.57396 -0.0801906 0
M  V30 7607 C 748.882 -2.02133 -1.0805 0
M  V30 7608 C 749.882 -0.91707 -1.32085 0
M  V30 7609 O 751.072 -1.18217 -1.27947 0
M  V30 7610 C 748.204 -2.39479 -2.42616 0
M  V30 7611 H 749.397 -2.91733 -0.6951 0
M  V30 7612 H 746.95 -1.52869 -0.325677 0
M  V30 7613 H 747.685 -1.52879 -2.86004 0
M  V30 7614 H 747.47 -3.20052 -2.26515 0
M  V30 7615 H 748.96 -2.74697 -3.14534 0
M  V30 7616 N 749.397 0.351382 -1.53633 0
M  V30 7617 C 750.643 1.09411 -1.70754 0
M  V30 7618 C 750.976 1.88544 -0.465293 0
M  V30 7619 O 750.251 1.86923 0.537608 0
M  V30 7620 C 750.534 2.04173 -2.96623 0
M  V30 7621 C 750.387 1.28556 -4.31038 0
M  V30 7622 C 751.706 3.04102 -3.18136 0
M  V30 7623 H 748.825 0.396373 -0.621335 0
M  V30 7624 H 751.467 0.373464 -1.86293 0
M  V30 7625 H 749.617 2.65625 -2.83506 0
M  V30 7626 H 751.289 0.697786 -4.55992 0
M  V30 7627 H 749.532 0.587498 -4.29803 0
M  V30 7628 H 750.203 1.97989 -5.15271 0
M  V30 7629 H 752.679 2.5276 -3.30532 0
M  V30 7630 H 751.555 3.67616 -4.07615 0
M  V30 7631 H 751.816 3.75053 -2.34068 0
M  V30 7632 N 750.875 1.45233 0.611969 0
M  V30 7633 C 752.291 1.29542 0.932251 0
M  V30 7634 C 752.491 0.24523 2.00002 0
M  V30 7635 O 751.547 -0.362333 2.49887 0
M  V30 7636 C 752.86 2.67301 1.37733 0
M  V30 7637 C 754.408 2.75163 1.49178 0
M  V30 7638 C 754.883 4.13437 1.97064 0
M  V30 7639 N 756.374 4.15709 2.04304 0
M  V30 7640 C 757.109 5.19566 2.42568 0
M  V30 7641 N 756.605 6.33771 2.79832 0
M  V30 7642 N 758.398 5.06923 2.42869 0
M  V30 7643 H 750.549 2.12192 -0.0938679 0
M  V30 7644 H 752.812 0.947775 0.0206569 0
M  V30 7645 H 752.518 3.45318 0.666951 0
M  V30 7646 H 752.392 2.95472 2.3447 0
M  V30 7647 H 754.779 1.97453 2.19309 0
M  V30 7648 H 754.86 2.50712 0.507674 0
M  V30 7649 H 754.504 4.91631 1.27521 0
M  V30 7650 H 754.434 4.35277 2.9638 0
M  V30 7651 H 756.925 3.33293 1.78113 0
M  V30 7652 H 757.238 7.08815 3.07898 0
M  V30 7653 H 755.583 6.37179 2.77538 0
M  V30 7654 H 758.774 4.1675 2.1316 0
M  V30 7655 H 758.947 5.87981 2.72364 0
M  V30 7656 N 752.353 -0.854086 1.3245 0
M  V30 7657 C 753.316 -1.94427 1.21371 0
M  V30 7658 C 754.316 -1.60219 0.136613 0
M  V30 7659 O 755.506 -1.69846 0.387057 0
M  V30 7660 C 752.638 -3.29698 0.866701 0
M  V30 7661 H 753.831 -2.05679 2.18257 0
M  V30 7662 H 751.384 -1.04434 1.1629 0
M  V30 7663 H 752.119 -3.24145 -0.100319 0
M  V30 7664 H 751.904 -3.55903 1.64545 0
M  V30 7665 H 753.394 -4.09599 0.813515 0
M  V30 7666 N 753.831 -1.1567 -1.07043 0
M  V30 7667 C 755.079 -0.931673 -1.79344 0
M  V30 7668 C 755.4 0.542421 -1.87304 0
M  V30 7669 O 754.67 1.39418 -1.37621 0
M  V30 7670 H 753.25 -0.34171 -0.664262 0
M  V30 7671 H 755.912 -1.45795 -1.29344 0
M  V30 7672 H 755.008 -1.34379 -2.81689 0
M  V30 7673 N 755.309 1.25446 -0.953992 0
M  V30 7674 C 756.239 2.28264 -0.491717 0
M  V30 7675 C 757.22 1.63717 0.461617 0
M  V30 7676 O 758.405 1.90821 0.36071 0
M  V30 7677 C 755.535 3.46525 0.231915 0
M  V30 7678 C 754.489 4.23247 -0.636098 0
M  V30 7679 C 753.815 5.34254 0.218238 0
M  V30 7680 C 755.115 4.85971 -1.91389 0
M  V30 7681 H 756.809 2.67183 -1.35106 0
M  V30 7682 H 754.355 1.2844 -0.651095 0
M  V30 7683 H 756.308 4.17576 0.566439 0
M  V30 7684 H 755.032 3.06594 1.12551 0
M  V30 7685 H 753.691 3.53978 -0.953696 0
M  V30 7686 H 753.339 4.90564 1.11156 0
M  V30 7687 H 753.039 5.86501 -0.359232 0
M  V30 7688 H 754.563 6.08138 0.547743 0
M  V30 7689 H 755.977 5.49168 -1.64581 0
M  V30 7690 H 754.374 5.48391 -2.43696 0
M  V30 7691 H 755.444 4.08192 -2.61738 0
M  V30 7692 N 756.787 0.722489 1.40064 0
M  V30 7693 C 757.717 0.0892452 2.33329 0
M  V30 7694 C 758.698 -0.737992 1.53257 0
M  V30 7695 O 759.883 -0.685516 1.81698 0
M  V30 7696 C 757.013 -0.828139 3.37282 0
M  V30 7697 C 755.967 -0.106005 4.27869 0
M  V30 7698 C 755.293 -1.13957 5.22415 0
M  V30 7699 C 756.593 1.04395 5.11761 0
M  V30 7700 H 758.287 0.868269 2.86534 0
M  V30 7701 H 755.833 0.418982 1.3777 0
M  V30 7702 H 757.786 -1.28058 4.01471 0
M  V30 7703 H 756.51 -1.63914 2.82489 0
M  V30 7704 H 755.169 0.326683 3.65142 0
M  V30 7705 H 754.817 -1.9438 4.63924 0
M  V30 7706 H 754.517 -0.661233 5.83868 0
M  V30 7707 H 756.041 -1.59197 5.89482 0
M  V30 7708 H 757.455 0.670541 5.69365 0
M  V30 7709 H 755.852 1.4511 5.82291 0
M  V30 7710 H 756.922 1.87144 4.47331 0
M  V30 7711 N 758.265 -1.50454 0.469181 0
M  V30 7712 C 759.681 -1.59124 0.123226 0
M  V30 7713 C 759.881 -1.47749 -1.37013 0
M  V30 7714 O 758.937 -1.335 -2.14322 0
M  V30 7715 C 760.25 -2.93101 0.67172 0
M  V30 7716 C 761.798 -3.06491 0.634978 0
M  V30 7717 C 762.273 -4.43041 1.16098 0
M  V30 7718 N 763.764 -4.49448 1.12031 0
M  V30 7719 C 764.499 -5.53491 1.49784 0
M  V30 7720 N 763.995 -6.64798 1.94976 0
M  V30 7721 N 765.788 -5.44025 1.41399 0
M  V30 7722 H 757.939 -1.56091 1.44046 0
M  V30 7723 H 760.202 -0.737564 0.59557 0
M  V30 7724 H 759.908 -3.06895 1.7178 0
M  V30 7725 H 759.782 -3.77027 0.114222 0
M  V30 7726 H 762.169 -2.92346 -0.402187 0
M  V30 7727 H 762.25 -2.24328 1.22926 0
M  V30 7728 H 761.894 -4.57935 2.19677 0
M  V30 7729 H 761.824 -5.23794 0.542939 0
M  V30 7730 H 764.315 -3.69575 0.788828 0
M  V30 7731 H 764.628 -7.40246 2.21936 0
M  V30 7732 H 762.973 -6.65923 1.98927 0
M  V30 7733 H 766.164 -4.55955 1.05935 0
M  V30 7734 H 766.337 -6.2499 1.71147 0
M  V30 7735 N 759.743 -0.201713 -1.56304 0
M  V30 7736 C 761.154 0.309711 -1.84113 0
M  V30 7737 C 761.505 1.60912 -1.12258 0
M  V30 7738 O 760.63 2.12937 -0.385587 0
M  V30 7739 C 761.225 0.568706 -3.33993 0
M  V30 7740 C 759.784 1.02448 -3.6219 0
M  V30 7741 C 758.931 0.0766842 -2.77194 0
M  V30 7742 H 761.882 -0.425356 -1.52893 0
M  V30 7743 H 761.903 1.41721 -3.53122 0
M  V30 7744 H 761.415 -0.37719 -3.86263 0
M  V30 7745 H 759.516 1.98443 -3.15359 0
M  V30 7746 H 759.629 0.912619 -4.70328 0
M  V30 7747 H 757.993 0.579809 -2.48013 0
M  V30 7748 H 758.776 -0.863774 -3.32256 0
M  V30 7749 N 761.222 1.57436 0.0718424 0
M  V30 7750 C 762.499 1.78312 0.804006 0
M  V30 7751 C 762.879 0.789273 1.9579 0
M  V30 7752 O 762.227 -0.177605 2.27809 0
M  V30 7753 C 762.437 3.24798 1.277 0
M  V30 7754 C 763.785 3.88627 1.71039 0
M  V30 7755 O 764.809 3.28689 1.37266 0
M  V30 7756 O 763.668 4.94073 2.33567 0
M  V30 7757 H 760.762 0.73178 0.385262 0
M  V30 7758 H 763.308 1.69621 0.0519219 0
M  V30 7759 H 762.08 3.88688 0.45134 0
M  V30 7760 H 761.703 3.38213 2.0904 0
M  V30 7761 N 762.7 -0.34323 1.53817 0
M  V30 7762 C 763.93 -1.10188 1.74763 0
M  V30 7763 C 764.338 -1.82829 0.486856 0
M  V30 7764 O 763.681 -1.75236 -0.551198 0
M  V30 7765 C 763.743 -2.16 2.87375 0
M  V30 7766 C 763.407 -1.62931 4.26969 0
M  V30 7767 C 764.404 -1.08147 5.08528 0
M  V30 7768 C 762.089 -1.67769 4.73454 0
M  V30 7769 C 764.083 -0.589039 6.34672 0
M  V30 7770 C 761.77 -1.18138 5.99572 0
M  V30 7771 C 762.768 -0.637979 6.80014 0
M  V30 7772 O 762.456 -0.149073 8.03762 0
M  V30 7773 H 762.188 -0.33445 0.587469 0
M  V30 7774 H 764.742 -0.401109 2.01445 0
M  V30 7775 H 762.972 -2.89637 2.56218 0
M  V30 7776 H 764.661 -2.77432 2.96287 0
M  V30 7777 H 765.427 -1.03732 4.73777 0
M  V30 7778 H 761.306 -2.09004 4.10899 0
M  V30 7779 H 764.85 -0.164233 6.97407 0
M  V30 7780 H 760.747 -1.22254 6.33817 0
M  V30 7781 H 761.515 -0.266332 8.18067 0
M  V30 7782 N 764.178 -1.45556 -0.604258 0
M  V30 7783 C 765.141 -1.54091 -1.69672 0
M  V30 7784 C 766.141 -0.420076 -1.55216 0
M  V30 7785 O 767.331 -0.683671 -1.60224 0
M  V30 7786 C 764.463 -1.44063 -3.08964 0
M  V30 7787 H 765.656 -2.51431 -1.6347 0
M  V30 7788 H 763.209 -1.33046 -0.820273 0
M  V30 7789 H 763.944 -0.479201 -3.2074 0
M  V30 7790 H 763.729 -2.25362 -3.20865 0
M  V30 7791 H 765.219 -1.53075 -3.88533 0
M  V30 7792 N 765.656 0.84705 -1.32902 0
M  V30 7793 C 766.586 1.97166 -1.25091 0
M  V30 7794 C 767.567 1.69578 -0.133161 0
M  V30 7795 O 768.752 1.91519 -0.321591 0
M  V30 7796 C 765.882 3.33157 -0.981006 0
M  V30 7797 C 764.836 3.75119 -2.06082 0
M  V30 7798 C 764.162 5.08826 -1.64318 0
M  V30 7799 C 765.462 3.89774 -3.47669 0
M  V30 7800 H 767.156 2.03958 -2.19184 0
M  V30 7801 H 764.702 0.979907 -1.05517 0
M  V30 7802 H 766.655 4.11393 -0.912891 0
M  V30 7803 H 765.379 3.266 -0.00445559 0
M  V30 7804 H 764.038 2.9914 -2.11921 0
M  V30 7805 H 763.686 4.98732 -0.653876 0
M  V30 7806 H 763.386 5.37873 -2.36572 0
M  V30 7807 H 764.91 5.89546 -1.58958 0
M  V30 7808 H 766.324 4.58343 -3.44376 0
M  V30 7809 H 764.721 4.30248 -4.18338 0
M  V30 7810 H 765.791 2.92463 -3.86773 0
M  V30 7811 N 767.134 1.16236 1.06428 0
M  V30 7812 C 768.064 0.890807 2.1584 0
M  V30 7813 C 769.045 -0.162333 1.69324 0
M  V30 7814 O 770.23 -0.0147191 1.94194 0
M  V30 7815 C 767.36 0.389615 3.45108 0
M  V30 7816 C 766.314 1.38051 4.05125 0
M  V30 7817 C 765.64 0.737773 5.29586 0
M  V30 7818 C 766.94 2.74965 4.44062 0
M  V30 7819 H 768.634 1.80577 2.38814 0
M  V30 7820 H 766.18 0.869657 1.14774 0
M  V30 7821 H 768.133 0.187127 4.20984 0
M  V30 7822 H 766.857 -0.560851 3.21748 0
M  V30 7823 H 765.516 1.56952 3.31303 0
M  V30 7824 H 765.164 -0.219135 5.02522 0
M  V30 7825 H 764.864 1.39914 5.70699 0
M  V30 7826 H 766.388 0.545275 6.0816 0
M  V30 7827 H 767.802 2.59855 5.11027 0
M  V30 7828 H 766.199 3.37563 4.96156 0
M  V30 7829 H 767.269 3.30321 3.54987 0
M  V30 7830 N 768.612 -1.24939 0.960631 0
M  V30 7831 C 769.86 -1.92437 0.617441 0
M  V30 7832 C 770.181 -1.75543 -0.849101 0
M  V30 7833 O 769.451 -1.12269 -1.60538 0
M  V30 7834 H 768.031 -0.712192 0.225371 0
M  V30 7835 H 770.693 -1.5198 1.22017 0
M  V30 7836 H 769.789 -3.00247 0.851933 0
M  V30 7837 N 770.09 -0.729906 -1.39679 0
M  V30 7838 C 771.04 -0.0627678 -2.27914 0
M  V30 7839 C 772.024 0.717867 -1.43998 0
M  V30 7840 O 773.216 0.587713 -1.66958 0
M  V30 7841 C 770.345 0.847564 -3.32673 0
M  V30 7842 C 769.431 0.0613515 -4.24056 0
M  V30 7843 N 769.822 -0.962863 -4.96551 0
M  V30 7844 C 768.12 0.291773 -4.45045 0
M  V30 7845 C 768.821 -1.43652 -5.63683 0
M  V30 7846 N 767.797 -0.756044 -5.38317 0
M  V30 7847 H 771.599 -0.847545 -2.81414 0
M  V30 7848 H 769.113 -0.563776 -1.523 0
M  V30 7849 H 771.11 1.34094 -3.94746 0
M  V30 7850 H 769.77 1.63156 -2.80732 0
M  V30 7851 H 770.781 -1.34409 -5.00154 0
M  V30 7852 H 767.458 1.05097 -4.04056 0
M  V30 7853 H 768.848 -2.28835 -6.31731 0
M  V30 7854 N 771.568 1.50203 -0.477153 0
M  V30 7855 C 772.984 1.59056 -0.131663 0
M  V30 7856 C 773.184 1.48473 1.36227 0
M  V30 7857 O 772.24 1.34635 2.13611 0
M  V30 7858 C 773.553 2.92741 -0.687254 0
M  V30 7859 C 775.101 3.0615 -0.651223 0
M  V30 7860 C 775.576 4.42419 -1.18446 0
M  V30 7861 N 777.067 4.48847 -1.14413 0
M  V30 7862 C 777.802 5.52689 -1.52717 0
M  V30 7863 N 777.298 6.63754 -1.98499 0
M  V30 7864 N 779.091 5.43267 -1.44282 0
M  V30 7865 H 771.242 1.55325 -1.44872 0
M  V30 7866 H 773.505 0.734395 -0.599473 0
M  V30 7867 H 773.211 3.0598 -1.73405 0
M  V30 7868 H 773.085 3.76961 -0.134215 0
M  V30 7869 H 775.472 2.92556 0.386677 0
M  V30 7870 H 775.553 2.23673 -1.24114 0
M  V30 7871 H 775.197 4.56763 -2.22103 0
M  V30 7872 H 775.127 5.23498 -0.570709 0
M  V30 7873 H 777.618 3.69152 -0.808416 0
M  V30 7874 H 777.931 7.39059 -2.25859 0
M  V30 7875 H 776.276 6.64858 -2.02456 0
M  V30 7876 H 779.467 4.55387 -1.08352 0
M  V30 7877 H 779.64 6.24074 -1.74459 0
M  V30 7878 N 773.046 0.209999 1.56195 0
M  V30 7879 C 773.978 -0.736967 2.17029 0
M  V30 7880 C 774.991 -1.16599 1.13616 0
M  V30 7881 O 776.18 -1.09914 1.40646 0
M  V30 7882 C 773.28 -2.00852 2.72969 0
M  V30 7883 C 772.453 -1.73691 4.01435 0
M  V30 7884 C 771.512 -2.85439 4.42053 0
M  V30 7885 O 770.538 -2.54405 5.09183 0
M  V30 7886 N 771.74 -4.14135 4.06783 0
M  V30 7887 H 774.505 -0.216656 2.98916 0
M  V30 7888 H 772.066 0.0285672 1.61875 0
M  V30 7889 H 774.058 -2.74778 2.97118 0
M  V30 7890 H 772.628 -2.43963 1.95451 0
M  V30 7891 H 771.848 -0.834676 3.85262 0
M  V30 7892 H 773.136 -1.52961 4.85263 0
M  V30 7893 H 772.534 -4.42196 3.52816 0
M  V30 7894 H 771.091 -4.84642 4.35851 0
M  V30 7895 N 774.524 -1.57472 -0.0634922 0
M  V30 7896 C 775.454 -2.07297 -1.07473 0
M  V30 7897 C 776.435 -0.968162 -1.39859 0
M  V30 7898 O 777.62 -1.24139 -1.49343 0
M  V30 7899 C 774.75 -2.52381 -2.38581 0
M  V30 7900 C 773.704 -3.66813 -2.20526 0
M  V30 7901 C 773.03 -3.97982 -3.57092 0
M  V30 7902 C 774.33 -4.96553 -1.61965 0
M  V30 7903 H 776.024 -2.92033 -0.660092 0
M  V30 7904 H 773.57 -1.40488 -0.316074 0
M  V30 7905 H 775.523 -2.85852 -3.09624 0
M  V30 7906 H 774.247 -1.64684 -2.8204 0
M  V30 7907 H 772.906 -3.33639 -1.51924 0
M  V30 7908 H 772.554 -3.07403 -3.98136 0
M  V30 7909 H 772.254 -4.7504 -3.45848 0
M  V30 7910 H 773.778 -4.33956 -4.29552 0
M  V30 7911 H 775.192 -5.28201 -2.22883 0
M  V30 7912 H 773.589 -5.7799 -1.61394 0
M  V30 7913 H 774.659 -4.81396 -0.581918 0
M  V30 7914 N 776.003 0.335068 -1.53997 0
M  V30 7915 C 777.249 1.07594 -1.71905 0
M  V30 7916 C 777.582 1.88039 -0.485264 0
M  V30 7917 O 776.857 1.87482 0.517752 0
M  V30 7918 C 777.14 2.01016 -2.98772 0
M  V30 7919 C 776.993 1.23977 -4.32377 0
M  V30 7920 C 778.312 3.0071 -3.21343 0
M  V30 7921 H 775.431 0.38976 -0.625505 0
M  V30 7922 H 778.073 0.353684 -1.86679 0
M  V30 7923 H 776.223 2.62603 -2.86307 0
M  V30 7924 H 777.895 0.649383 -4.56706 0
M  V30 7925 H 776.138 0.541878 -4.30402 0
M  V30 7926 H 776.809 1.92512 -5.17342 0
M  V30 7927 H 779.285 2.4924 -3.33194 0
M  V30 7928 H 778.161 3.63272 -4.11491 0
M  V30 7929 H 778.422 3.72549 -2.38033 0
M  V30 7930 N 777.481 1.45874 0.596531 0
M  V30 7931 C 778.897 1.30524 0.918459 0
M  V30 7932 C 779.097 0.266429 1.99731 0
M  V30 7933 O 778.153 -0.335809 2.50257 0
M  V30 7934 C 779.466 2.68747 1.3489 0
M  V30 7935 C 781.014 2.7673 1.46251 0
M  V30 7936 C 781.489 4.15504 1.92667 0
M  V30 7937 N 782.98 4.17853 1.99883 0
M  V30 7938 C 783.715 5.22109 2.37044 0
M  V30 7939 N 783.211 6.36704 2.73094 0
M  V30 7940 N 785.004 5.09471 2.37479 0
M  V30 7941 H 777.155 2.12081 -0.116368 0
M  V30 7942 H 779.418 0.947941 0.0106033 0
M  V30 7943 H 779.124 3.46006 0.630288 0
M  V30 7944 H 778.998 2.97942 2.31323 0
M  V30 7945 H 781.385 1.99768 2.17202 0
M  V30 7946 H 781.466 2.51236 0.481054 0
M  V30 7947 H 781.11 4.92956 1.223 0
M  V30 7948 H 781.04 4.38396 2.91747 0
M  V30 7949 H 783.531 3.35163 1.74568 0
M  V30 7950 H 783.844 7.12041 3.00362 0
M  V30 7951 H 782.189 6.40087 2.70764 0
M  V30 7952 H 785.38 4.18987 2.08728 0
M  V30 7953 H 785.553 5.90837 2.66112 0
M  V30 7954 N 778.959 -0.83999 1.33349 0
M  V30 7955 C 780.187 -1.62728 1.27778 0
M  V30 7956 C 780.602 -1.88191 -0.151505 0
M  V30 7957 O 779.959 -1.46128 -1.09329 0
M  V30 7958 C 780.01 -2.97813 2.04913 0
M  V30 7959 O 779.731 -2.73469 3.42266 0
M  V30 7960 C 781.232 -3.92245 2.0654 0
M  V30 7961 H 778.452 -0.506374 0.440257 0
M  V30 7962 H 780.996 -1.04637 1.75703 0
M  V30 7963 H 779.151 -3.52509 1.60674 0
M  V30 7964 H 779.565 -3.59483 3.81932 0
M  V30 7965 H 781.039 -4.84249 2.64966 0
M  V30 7966 H 781.516 -4.26332 1.05537 0
M  V30 7967 H 782.122 -3.43487 2.50793 0
M  V30 7968 N 780.437 -1.16799 -1.0581 0
M  V30 7969 C 781.714 -0.862616 -1.75551 0
M  V30 7970 C 782.094 0.6385 -2.01212 0
M  V30 7971 O 781.442 1.58784 -1.64317 0
M  V30 7972 C 781.652 -1.6907 -3.05314 0
M  V30 7973 C 783 -1.90675 -3.79379 0
M  V30 7974 O 784.024 -1.65976 -3.15167 0
M  V30 7975 O 782.883 -2.32145 -4.94743 0
M  V30 7976 H 779.977 -0.318789 -0.763088 0
M  V30 7977 H 782.523 -1.27461 -1.12034 0
M  V30 7978 H 781.295 -2.70912 -2.82352 0
M  V30 7979 H 780.918 -1.27606 -3.76567 0
M  V30 7980 N 781.915 1.24427 -0.967243 0
M  V30 7981 C 783.155 1.9423 -0.636723 0
M  V30 7982 C 783.519 1.73939 0.812971 0
M  V30 7983 O 784.72 2.37773 1.25369 0
M  V30 7984 C 782.991 3.43105 -1.00067 0
M  V30 7985 S 784.55 4.31728 -0.784633 0
M  V30 7986 H 781.368 0.671527 -0.233607 0
M  V30 7987 H 783.97 1.50806 -1.2441 0
M  V30 7988 H 782.674 3.5538 -2.05264 0
M  V30 7989 H 782.205 3.91521 -0.384054 0
M  V30 7990 H 784.22 4.95046 0.338244 0
M  V30 7991 N 783.393 0.737304 1.3929 0
M  V30 7992 C 784.804 0.355966 1.83275 0
M  V30 7993 C 785.155 -1.11295 1.6158 0
M  V30 7994 O 784.28 -1.85871 1.10819 0
M  V30 7995 C 784.875 0.63931 3.32713 0
M  V30 7996 C 783.434 0.31144 3.75109 0
M  V30 7997 C 782.581 0.900765 2.62262 0
M  V30 7998 H 785.532 0.934763 1.28249 0
M  V30 7999 H 785.553 -0.0881293 3.80398 0
M  V30 8000 H 785.065 1.70847 3.48472 0
M  V30 8001 H 783.166 -0.751791 3.64937 0
M  V30 8002 H 783.279 0.795611 4.72448 0
M  V30 8003 H 781.643 0.327239 2.52589 0
M  V30 8004 H 782.426 1.97463 2.80826 0
M  V30 8005 N 784.871 -1.49948 0.485112 0
M  V30 8006 C 786.119 -2.01996 -0.0648775 0
M  V30 8007 C 786.44 -1.36819 -1.38945 0
M  V30 8008 O 785.71 -0.518163 -1.88923 0
M  V30 8009 H 784.29 -0.746513 -0.0269662 0
M  V30 8010 H 786.952 -1.84136 0.638733 0
M  V30 8011 H 786.048 -3.11418 -0.20617 0
M  V30 8012 N 786.349 -0.21828 -1.56081 0
M  V30 8013 C 787.626 0.463143 -1.90038 0
M  V30 8014 C 788.006 1.77982 -1.13515 0
M  V30 8015 O 787.354 2.27199 -0.24345 0
M  V30 8016 C 787.564 0.659292 -3.42716 0
M  V30 8017 C 788.912 0.968203 -4.13414 0
M  V30 8018 O 789.936 0.746195 -3.48296 0
M  V30 8019 O 788.795 1.38936 -5.28544 0
M  V30 8020 H 785.889 0.244435 -0.790051 0
M  V30 8021 H 788.435 -0.260221 -1.67693 0
M  V30 8022 H 787.207 -0.269584 -3.9037 0
M  V30 8023 H 786.83 1.43426 -3.7083 0
M  V30 8024 N 787.827 1.57504 0.0551401 0
M  V30 8025 C 788.79 2.03826 1.04821 0
M  V30 8026 C 789.79 0.937968 1.30609 0
M  V30 8027 O 790.98 1.20237 1.2605 0
M  V30 8028 C 788.112 2.43309 2.38775 0
M  V30 8029 H 789.305 2.92802 0.6486 0
M  V30 8030 H 786.858 1.53368 0.301315 0
M  V30 8031 H 787.593 1.5741 2.83536 0
M  V30 8032 H 787.378 3.23615 2.21395 0
M  V30 8033 H 788.868 2.79666 3.10124 0
M  V30 8034 N 789.305 -0.326896 1.54172 0
M  V30 8035 C 790.235 -1.40741 1.86317 0
M  V30 8036 C 791.216 -1.54125 0.719684 0
M  V30 8037 O 792.401 -1.6806 0.973117 0
M  V30 8038 C 789.531 -2.77557 2.08757 0
M  V30 8039 C 788.485 -2.78965 3.24596 0
M  V30 8040 C 787.811 -4.18824 3.32401 0
M  V30 8041 C 789.111 -2.4301 4.62324 0
M  V30 8042 H 790.805 -1.14088 2.76811 0
M  V30 8043 H 788.351 -0.547389 1.3319 0
M  V30 8044 H 790.304 -3.53209 2.29829 0
M  V30 8045 H 789.028 -3.0568 1.15009 0
M  V30 8046 H 787.687 -2.05767 3.03406 0
M  V30 8047 H 787.335 -4.44083 2.36218 0
M  V30 8048 H 787.035 -4.20673 4.10253 0
M  V30 8049 H 788.559 -4.96294 3.55703 0
M  V30 8050 H 789.973 -3.08375 4.83299 0
M  V30 8051 H 788.37 -2.56116 5.42701 0
M  V30 8052 H 789.44 -1.38165 4.64799 0
M  V30 8053 N 790.784 -1.46188 -0.588786 0
M  V30 8054 C 792.031 -1.51184 -1.34721 0
M  V30 8055 C 792.359 -0.161084 -1.93832 0
M  V30 8056 O 791.614 0.842557 -1.76634 0
M  V30 8057 C 791.913 -2.55364 -2.50048 0
M  V30 8058 C 791.579 -3.99553 -2.08969 0
M  V30 8059 C 790.241 -4.38811 -1.9748 0
M  V30 8060 C 792.593 -4.90156 -1.77191 0
M  V30 8061 C 789.921 -5.66544 -1.52463 0
M  V30 8062 C 792.273 -6.1832 -1.33654 0
M  V30 8063 C 790.937 -6.5649 -1.20738 0
M  V30 8064 H 790.207 -0.55322 -0.49298 0
M  V30 8065 H 792.854 -1.79634 -0.663627 0
M  V30 8066 H 791.159 -2.20552 -3.23827 0
M  V30 8067 H 792.856 -2.5646 -3.08268 0
M  V30 8068 H 789.446 -3.68518 -2.18843 0
M  V30 8069 H 793.63 -4.60549 -1.84955 0
M  V30 8070 H 788.886 -5.94895 -1.411 0
M  V30 8071 H 793.06 -6.87956 -1.08117 0
M  V30 8072 H 790.687 -7.55362 -0.856307 0
M  V30 8073 N 792.262 0.832906 -1.33792 0
M  V30 8074 C 793.539 1.57359 -1.16178 0
M  V30 8075 C 793.919 2.09372 0.269532 0
M  V30 8076 O 793.267 1.89993 1.26944 0
M  V30 8077 C 793.477 2.70279 -2.20795 0
M  V30 8078 C 794.825 3.39305 -2.55259 0
M  V30 8079 O 795.849 2.80526 -2.19508 0
M  V30 8080 O 794.708 4.45428 -3.16632 0
M  V30 8081 H 791.802 0.694025 -0.449731 0
M  V30 8082 H 794.348 0.875144 -1.45394 0
M  V30 8083 H 793.12 2.29527 -3.16911 0
M  V30 8084 H 792.743 3.47782 -1.927 0
M  V30 8085 N 793.74 1.17359 1.05189 0
M  V30 8086 C 794.67 0.91365 2.14883 0
M  V30 8087 C 795.651 -0.144365 1.69486 0
M  V30 8088 O 796.836 0.00587861 1.94199 0
M  V30 8089 C 793.966 0.426196 3.44675 0
M  V30 8090 C 792.92 1.4234 4.03638 0
M  V30 8091 C 792.246 0.793902 5.28773 0
M  V30 8092 C 793.546 2.7966 4.41121 0
M  V30 8093 H 795.24 1.831 2.36885 0
M  V30 8094 H 792.786 0.881781 1.13845 0
M  V30 8095 H 794.739 0.231767 4.20762 0
M  V30 8096 H 793.463 -0.526693 3.22325 0
M  V30 8097 H 792.122 1.60457 3.2962 0
M  V30 8098 H 791.77 -0.165824 5.02727 0
M  V30 8099 H 791.47 1.45959 5.69183 0
M  V30 8100 H 792.994 0.609747 6.07548 0
M  V30 8101 H 794.408 2.6526 5.08242 0
M  V30 8102 H 792.805 3.42807 4.92548 0
M  V30 8103 H 793.875 3.34068 3.51464 0
M  V30 8104 N 795.218 -1.23913 0.973828 0
M  V30 8105 C 796.148 -2.27453 0.527969 0
M  V30 8106 C 797.129 -1.6443 -0.435513 0
M  V30 8107 O 798.314 -1.9137 -0.330306 0
M  V30 8108 C 795.444 -3.4685 -0.176757 0
M  V30 8109 C 794.398 -4.22181 0.703352 0
M  V30 8110 C 793.724 -5.34534 -0.133215 0
M  V30 8111 C 795.024 -4.82865 1.99096 0
M  V30 8112 H 796.718 -2.65 1.3934 0
M  V30 8113 H 794.264 -1.27388 0.671446 0
M  V30 8114 H 796.217 -4.18424 -0.499934 0
M  V30 8115 H 794.941 -3.08346 -1.07659 0
M  V30 8116 H 793.6 -3.52416 1.00989 0
M  V30 8117 H 793.248 -4.92271 -1.03338 0
M  V30 8118 H 792.948 -5.85855 0.452494 0
M  V30 8119 H 794.472 -6.08933 -0.450924 0
M  V30 8120 H 795.886 -5.46481 1.73297 0
M  V30 8121 H 794.283 -5.44444 2.52389 0
M  V30 8122 H 795.353 -4.03977 2.68199 0
M  V30 8123 N 796.696 -0.74468 -1.38897 0
M  V30 8124 C 798.112 -0.421302 -1.53939 0
M  V30 8125 C 798.312 1.06668 -1.70951 0
M  V30 8126 O 797.368 1.85278 -1.71547 0
M  V30 8127 C 798.681 -1.21278 -2.75159 0
M  V30 8128 C 800.229 -1.20196 -2.89001 0
M  V30 8129 C 800.704 -1.97621 -4.13171 0
M  V30 8130 N 802.195 -1.94836 -4.2023 0
M  V30 8131 C 802.93 -2.51545 -5.15279 0
M  V30 8132 N 802.426 -3.1693 -6.16058 0
M  V30 8133 N 804.219 -2.41524 -5.07565 0
M  V30 8134 H 796.37 -1.70914 -1.26103 0
M  V30 8135 H 798.633 -0.724058 -0.611919 0
M  V30 8136 H 798.339 -2.26609 -2.68963 0
M  V30 8137 H 798.213 -0.823677 -3.68097 0
M  V30 8138 H 800.6 -0.156742 -2.94683 0
M  V30 8139 H 800.681 -1.63051 -1.97099 0
M  V30 8140 H 800.325 -3.02149 -4.0825 0
M  V30 8141 H 800.255 -1.52166 -5.04136 0
M  V30 8142 H 802.746 -1.4721 -3.48048 0
M  V30 8143 H 803.059 -3.57644 -6.85062 0
M  V30 8144 H 801.404 -3.21023 -6.16417 0
M  V30 8145 H 804.595 -1.90077 -4.27771 0
M  V30 8146 H 804.768 -2.86016 -5.81462 0
M  V30 8147 N 798.174 1.49689 -0.493057 0
M  V30 8148 C 799.402 2.06836 0.0513141 0
M  V30 8149 C 799.817 1.35436 1.31539 0
M  V30 8150 O 799.174 0.430248 1.77356 0
M  V30 8151 C 799.225 3.60107 0.317003 0
M  V30 8152 O 798.946 4.2882 -0.896957 0
M  V30 8153 C 800.447 4.33945 0.905902 0
M  V30 8154 H 797.667 0.670787 -0.0169048 0
M  V30 8155 H 800.211 1.92574 -0.688139 0
M  V30 8156 H 798.366 3.74099 1.00642 0
M  V30 8157 H 798.78 5.20395 -0.654939 0
M  V30 8158 H 800.254 5.42087 1.04144 0
M  V30 8159 H 800.731 3.95895 1.90168 0
M  V30 8160 H 801.337 4.2454 0.254195 0
M  V30 8161 N 799.652 0.226554 1.55963 0
M  V30 8162 C 800.898 -0.397608 1.99476 0
M  V30 8163 C 801.253 -1.57031 1.11172 0
M  V30 8164 O 800.546 -1.90907 0.162757 0
M  V30 8165 C 800.74 -0.87642 3.46488 0
M  V30 8166 C 800.569 0.248344 4.49014 0
M  V30 8167 C 799.339 0.71638 5.00196 0
M  V30 8168 C 801.537 1.06835 5.03081 0
M  V30 8169 N 799.519 1.81568 5.86435 0
M  V30 8170 C 800.89 2.01641 5.86294 0
M  V30 8171 C 802.945 1.10722 4.85433 0
M  V30 8172 C 801.648 3.0002 6.53743 0
M  V30 8173 C 803.674 2.07921 5.53645 0
M  V30 8174 C 803.036 3.01466 6.3663 0
M  V30 8175 H 799.135 -0.112024 0.773935 0
M  V30 8176 H 801.719 0.339472 1.91718 0
M  V30 8177 H 799.89 -1.58285 3.54684 0
M  V30 8178 H 801.622 -1.47382 3.76909 0
M  V30 8179 H 798.377 0.30409 4.72623 0
M  V30 8180 H 798.801 2.36748 6.34255 0
M  V30 8181 H 803.443 0.397909 4.20923 0
M  V30 8182 H 801.161 3.71911 7.17432 0
M  V30 8183 H 804.747 2.11609 5.41953 0
M  V30 8184 H 803.627 3.75451 6.88481 0
M  V30 8185 N 801.13 -1.57531 -0.0467866 0
M  V30 8186 C 802.541 -1.76945 -0.595603 0
M  V30 8187 C 802.892 -0.855354 -1.76573 0
M  V30 8188 O 802.017 -0.045668 -2.16352 0
M  V30 8189 C 802.612 -3.20881 -1.08725 0
M  V30 8190 C 801.171 -3.41553 -1.58172 0
M  V30 8191 C 800.318 -2.72533 -0.511968 0
M  V30 8192 H 803.269 -1.57682 0.179436 0
M  V30 8193 H 803.29 -3.26419 -1.95528 0
M  V30 8194 H 802.802 -3.87385 -0.235398 0
M  V30 8195 H 800.903 -2.80199 -2.456 0
M  V30 8196 H 801.016 -4.50104 -1.64143 0
M  V30 8197 H 799.38 -2.35797 -0.962899 0
M  V30 8198 H 800.163 -3.41709 0.330117 0
M  V30 8199 N 802.608 0.318715 -1.54344 0
M  V30 8200 C 803.558 1.39364 -1.80448 0
M  V30 8201 C 804.542 1.46708 -0.660728 0
M  V30 8202 O 805.734 1.51159 -0.920869 0
M  V30 8203 C 802.863 2.76144 -2.03959 0
M  V30 8204 C 801.949 2.73094 -3.24469 0
M  V30 8205 N 802.34 2.39663 -4.45416 0
M  V30 8206 C 800.638 3.04218 -3.2614 0
M  V30 8207 C 801.339 2.45469 -5.27371 0
M  V30 8208 N 800.315 2.82107 -4.64668 0
M  V30 8209 H 804.117 1.12453 -2.71535 0
M  V30 8210 H 801.631 0.527221 -1.53604 0
M  V30 8211 H 803.628 3.53627 -2.20802 0
M  V30 8212 H 802.288 3.03982 -1.14129 0
M  V30 8213 H 803.299 2.12424 -4.72331 0
M  V30 8214 H 799.976 3.37066 -2.4636 0
M  V30 8215 H 801.366 2.22571 -6.33965 0
M  V30 8216 N 804.086 1.46499 0.581025 0
M  V30 8217 C 805.333 1.51896 1.33918 0
M  V30 8218 C 805.661 0.171361 1.93744 0
M  V30 8219 O 804.916 -0.833178 1.77078 0
M  V30 8220 C 805.215 2.56686 2.48691 0
M  V30 8221 C 804.881 4.00656 2.06847 0
M  V30 8222 C 803.543 4.39852 1.9515 0
M  V30 8223 C 805.895 4.91089 1.74589 0
M  V30 8224 C 803.223 5.67345 1.49456 0
M  V30 8225 C 805.575 6.1902 1.30373 0
M  V30 8226 C 804.239 6.57121 1.17255 0
M  V30 8227 H 803.509 0.555826 0.490039 0
M  V30 8228 H 806.156 1.79983 0.654092 0
M  V30 8229 H 804.461 2.22266 3.22653 0
M  V30 8230 H 806.158 2.58091 3.06904 0
M  V30 8231 H 802.748 3.69674 2.16886 0
M  V30 8232 H 806.932 4.61523 1.8251 0
M  V30 8233 H 802.188 5.95635 1.37944 0
M  V30 8234 H 806.362 6.8852 1.04467 0
M  V30 8235 H 803.989 7.55805 0.816236 0
M  V30 8236 N 805.565 -0.825799 1.34232 0
M  V30 8237 C 806.793 -1.61363 1.29497 0
M  V30 8238 C 807.208 -1.88341 -0.131536 0
M  V30 8239 O 806.565 -1.47279 -1.07773 0
M  V30 8240 C 806.616 -2.95623 2.08061 0
M  V30 8241 O 806.337 -2.69824 3.45147 0
M  V30 8242 C 807.838 -3.90032 2.10688 0
M  V30 8243 H 805.058 -0.501676 0.445603 0
M  V30 8244 H 807.602 -1.02767 1.76803 0
M  V30 8245 H 805.757 -3.50785 1.64404 0
M  V30 8246 H 806.171 -3.55412 3.85723 0
M  V30 8247 H 807.645 -4.81411 2.70087 0
M  V30 8248 H 808.122 -4.25188 1.10052 0
M  V30 8249 H 808.728 -3.40807 2.54422 0
M  V30 8250 N 807.043 -1.17915 -1.04565 0
M  V30 8251 C 808.006 -0.903787 -2.10628 0
M  V30 8252 C 809.006 0.10873 -1.60432 0
M  V30 8253 O 810.196 -0.124152 -1.73757 0
M  V30 8254 C 807.328 -0.355017 -3.39046 0
M  V30 8255 H 808.521 -1.84425 -2.3649 0
M  V30 8256 H 806.074 -0.990477 -1.2091 0
M  V30 8257 H 806.809 0.592297 -3.18845 0
M  V30 8258 H 806.594 -1.08484 -3.76794 0
M  V30 8259 H 808.084 -0.180891 -4.17208 0
M  V30 8260 N 808.521 1.23394 -0.980386 0
M  V30 8261 C 809.749 1.95844 -0.667286 0
M  V30 8262 C 810.164 1.72574 0.765735 0
M  V30 8263 O 809.521 1.01715 1.51526 0
M  V30 8264 C 809.572 3.48844 -0.948151 0
M  V30 8265 O 809.293 3.71325 -2.32485 0
M  V30 8266 C 810.794 4.38494 -0.651002 0
M  V30 8267 H 808.014 0.623535 -0.247882 0
M  V30 8268 H 810.558 1.56885 -1.31176 0
M  V30 8269 H 808.713 3.85819 -0.349681 0
M  V30 8270 H 809.127 4.65619 -2.41452 0
M  V30 8271 H 810.601 5.44648 -0.897887 0
M  V30 8272 H 811.078 4.37236 0.414922 0
M  V30 8273 H 811.684 4.07127 -1.22995 0
M  V30 8274 N 809.999 0.752036 1.385 0
M  V30 8275 C 811.245 0.307958 2.00448 0
M  V30 8276 C 811.578 -1.10702 1.59558 0
M  V30 8277 O 810.853 -1.75788 0.832391 0
M  V30 8278 C 811.136 0.429092 3.57534 0
M  V30 8279 C 810.989 1.88507 4.08393 0
M  V30 8280 C 812.308 -0.178442 4.39738 0
M  V30 8281 H 809.427 0.113373 0.728228 0
M  V30 8282 H 812.069 0.951389 1.64465 0
M  V30 8283 H 810.219 -0.118695 3.88319 0
M  V30 8284 H 811.891 2.49104 3.88259 0
M  V30 8285 H 810.134 2.40066 3.61318 0
M  V30 8286 H 810.805 1.92099 5.17496 0
M  V30 8287 H 813.281 0.28872 4.15097 0
M  V30 8288 H 812.157 -0.0634349 5.48863 0
M  V30 8289 H 812.418 -1.26655 4.23569 0
M  V30 8290 N 811.477 -1.49425 0.500989 0
M  V30 8291 C 812.424 -2.29126 -0.277443 0
M  V30 8292 C 813.394 -1.35522 -0.960363 0
M  V30 8293 O 814.579 -1.64479 -0.967027 0
M  V30 8294 C 811.719 -3.18193 -1.33593 0
M  V30 8295 C 810.832 -4.26854 -0.664791 0
M  V30 8296 C 809.967 -5.03137 -1.70372 0
M  V30 8297 C 809.006 -6.03635 -1.01445 0
M  V30 8298 N 808.143 -6.73083 -1.99758 0
M  V30 8299 H 812.983 -2.95187 0.408458 0
M  V30 8300 H 810.52 -1.45546 0.213275 0
M  V30 8301 H 812.478 -3.68207 -1.96161 0
M  V30 8302 H 811.108 -2.54116 -1.9906 0
M  V30 8303 H 810.16 -3.80328 0.0741708 0
M  V30 8304 H 811.472 -4.9865 -0.122197 0
M  V30 8305 H 810.626 -5.5702 -2.40445 0
M  V30 8306 H 809.365 -4.31114 -2.28017 0
M  V30 8307 H 808.37 -5.48984 -0.299496 0
M  V30 8308 H 809.595 -6.77644 -0.444497 0
M  V30 8309 H 807.541 -6.03832 -2.56365 0
M  V30 8310 H 807.458 -7.40855 -1.50565 0
M  V30 8311 H 808.726 -7.3157 -2.69119 0
M  V30 8312 N 812.955 -0.234822 -1.55841 0
M  V30 8313 C 814.366 0.270588 -1.84729 0
M  V30 8314 C 814.717 1.58494 -1.15646 0
M  V30 8315 O 813.842 2.12071 -0.430667 0
M  V30 8316 C 814.437 0.497733 -3.35124 0
M  V30 8317 C 812.996 0.947428 -3.64281 0
M  V30 8318 C 812.143 0.01787 -2.77294 0
M  V30 8319 H 815.094 -0.457691 -1.51957 0
M  V30 8320 H 815.115 1.34199 -3.56049 0
M  V30 8321 H 814.627 -0.459037 -3.85376 0
M  V30 8322 H 812.728 1.91709 -3.19497 0
M  V30 8323 H 812.841 0.812651 -4.72158 0
M  V30 8324 H 811.205 0.527071 -2.49187 0
M  V30 8325 H 811.988 -0.934056 -3.30349 0
M  V30 8326 N 814.433 1.57553 0.0384317 0
M  V30 8327 C 815.849 1.54663 0.39391 0
M  V30 8328 C 816.049 0.959685 1.77179 0
M  V30 8329 O 815.105 0.576647 2.45827 0
M  V30 8330 C 816.418 2.99156 0.304352 0
M  V30 8331 C 817.966 3.10659 0.382119 0
M  V30 8332 C 818.441 4.56866 0.322111 0
M  V30 8333 N 819.932 4.61629 0.38119 0
M  V30 8334 C 820.667 5.72284 0.357501 0
M  V30 8335 N 820.163 6.92207 0.286654 0
M  V30 8336 N 821.956 5.60628 0.406538 0
M  V30 8337 H 814.107 1.9406 -0.86339 0
M  V30 8338 H 816.37 0.889673 -0.327392 0
M  V30 8339 H 816.076 3.45788 -0.642141 0
M  V30 8340 H 815.95 3.60753 1.10168 0
M  V30 8341 H 818.337 2.6398 1.31904 0
M  V30 8342 H 818.418 2.5191 -0.444391 0
M  V30 8343 H 818.062 5.0421 -0.611104 0
M  V30 8344 H 817.992 5.13515 1.1666 0
M  V30 8345 H 820.483 3.75343 0.438838 0
M  V30 8346 H 820.796 7.72316 0.273421 0
M  V30 8347 H 819.141 6.9454 0.252841 0
M  V30 8348 H 822.332 4.65836 0.459812 0
M  V30 8349 H 822.505 6.46858 0.384608 0
M  V30 8350 N 815.911 -0.310526 1.54511 0
M  V30 8351 C 817.322 -0.884142 1.64438 0
M  V30 8352 C 817.673 -1.88425 0.546855 0
M  V30 8353 O 816.798 -2.14049 -0.31811 0
M  V30 8354 C 817.393 -1.6104 2.9808 0
M  V30 8355 C 815.952 -2.13255 3.1016 0
M  V30 8356 C 815.099 -0.96213 2.60074 0
M  V30 8357 H 818.05 -0.0877666 1.58457 0
M  V30 8358 H 818.071 -2.47541 2.8897 0
M  V30 8359 H 817.583 -0.882255 3.77939 0
M  V30 8360 H 815.684 -2.89145 2.35002 0
M  V30 8361 H 815.797 -2.37361 4.16169 0
M  V30 8362 H 814.161 -1.34501 2.16291 0
M  V30 8363 H 814.944 -0.248098 3.42402 0
M  V30 8364 N 817.389 -1.46805 -0.573248 0
M  V30 8365 C 818.352 -1.57655 -1.66366 0
M  V30 8366 C 819.352 -0.452905 -1.5429 0
M  V30 8367 O 820.542 -0.717502 -1.58737 0
M  V30 8368 C 817.674 -1.50584 -3.05839 0
M  V30 8369 H 818.867 -2.54842 -1.581 0
M  V30 8370 H 816.42 -1.34756 -0.791868 0
M  V30 8371 H 817.155 -0.547127 -3.19651 0
M  V30 8372 H 816.94 -2.32118 -3.16012 0
M  V30 8373 H 818.43 -1.61282 -3.85199 0
M  V30 8374 N 818.867 0.818669 -1.34668 0
M  V30 8375 C 820.283 1.11243 -1.14443 0
M  V30 8376 C 820.483 2.01435 0.0512212 0
M  V30 8377 O 819.539 2.41854 0.725471 0
M  V30 8378 C 820.852 1.75504 -2.4417 0
M  V30 8379 C 822.4 1.8798 -2.50265 0
M  V30 8380 C 822.875 2.55657 -3.80004 0
M  V30 8381 N 824.366 2.63153 -3.81189 0
M  V30 8382 C 825.101 3.16258 -4.78298 0
M  V30 8383 N 824.597 3.69893 -5.85791 0
M  V30 8384 N 826.39 3.14698 -4.65748 0
M  V30 8385 H 818.541 0.218848 -2.1127 0
M  V30 8386 H 820.804 0.159655 -0.934459 0
M  V30 8387 H 820.51 1.16697 -3.31775 0
M  V30 8388 H 820.384 2.75329 -2.57825 0
M  V30 8389 H 822.771 2.45934 -1.63096 0
M  V30 8390 H 822.852 0.870447 -2.40535 0
M  V30 8391 H 822.496 1.98356 -4.67565 0
M  V30 8392 H 822.426 3.57105 -3.87019 0
M  V30 8393 H 824.917 2.2514 -3.03513 0
M  V30 8394 H 825.23 4.08678 -6.55898 0
M  V30 8395 H 823.575 3.68125 -5.89499 0
M  V30 8396 H 826.766 2.72066 -3.80917 0
M  V30 8397 H 826.939 3.5578 -5.41594 0
M  V30 8398 N 820.346 1.18468 1.03938 0
M  V30 8399 C 821.571 1.00638 1.81347 0
M  V30 8400 C 821.996 -0.440477 1.8287 0
M  V30 8401 O 821.354 -1.31609 1.24695 0
M  V30 8402 C 821.402 1.5673 3.24759 0
M  V30 8403 O 820.506 0.789517 4.04772 0
M  V30 8404 H 819.847 0.356432 0.560225 0
M  V30 8405 H 822.377 1.57253 1.30891 0
M  V30 8406 H 822.387 1.59496 3.75533 0
M  V30 8407 H 821.062 2.62043 3.22965 0
M  V30 8408 H 819.639 0.834267 3.63448 0
M  V30 8409 N 821.824 -1.22873 0.986916 0
M  V30 8410 C 823.07 -1.91746 0.660401 0
M  V30 8411 C 823.403 -1.76738 -0.804812 0
M  V30 8412 O 822.678 -1.13246 -1.58131 0
M  V30 8413 C 822.961 -3.44156 1.05966 0
M  V30 8414 C 822.814 -3.68242 2.58298 0
M  V30 8415 C 824.133 -4.35874 0.60842 0
M  V30 8416 H 821.252 -0.696347 0.241391 0
M  V30 8417 H 823.894 -1.44867 1.22937 0
M  V30 8418 H 822.044 -3.84213 0.575534 0
M  V30 8419 H 823.716 -3.37626 3.14335 0
M  V30 8420 H 821.959 -3.12728 3.00638 0
M  V30 8421 H 822.63 -4.74956 2.81285 0
M  V30 8422 H 825.106 -4.03299 1.02417 0
M  V30 8423 H 823.982 -5.41201 0.916142 0
M  V30 8424 H 824.243 -4.39364 -0.491086 0
M  V30 8425 N 823.302 -0.75937 -1.38099 0
M  V30 8426 C 824.527 -0.327859 -2.04792 0
M  V30 8427 C 824.952 1.03752 -1.56899 0
M  V30 8428 O 824.31 1.66235 -0.723581 0
M  V30 8429 C 824.358 -0.366264 -3.58735 0
M  V30 8430 O 823.462 0.637697 -4.0744 0
M  V30 8431 H 822.803 -0.144092 -0.648177 0
M  V30 8432 H 825.333 -1.03211 -1.7666 0
M  V30 8433 H 825.343 -0.219179 -4.07411 0
M  V30 8434 H 824.018 -1.36243 -3.92951 0
M  V30 8435 H 822.595 0.454749 -3.70117 0
M  V30 8436 N 824.78 1.49157 -0.508906 0
M  V30 8437 C 825.727 2.2927 0.265288 0
M  V30 8438 C 826.697 1.3603 0.953162 0
M  V30 8439 O 827.882 1.64989 0.958291 0
M  V30 8440 C 825.022 3.18897 1.31904 0
M  V30 8441 C 824.135 4.27201 0.642144 0
M  V30 8442 C 823.27 5.04033 1.67701 0
M  V30 8443 C 822.309 6.04165 0.982422 0
M  V30 8444 N 821.446 6.74133 1.96186 0
M  V30 8445 H 826.286 2.94967 -0.424107 0
M  V30 8446 H 823.823 1.45431 -0.220991 0
M  V30 8447 H 825.781 3.69242 1.94206 0
M  V30 8448 H 824.411 2.55168 1.97709 0
M  V30 8449 H 823.463 3.80283 -0.0943395 0
M  V30 8450 H 824.775 4.98708 0.0957507 0
M  V30 8451 H 823.929 5.58287 2.37487 0
M  V30 8452 H 822.668 4.32317 2.25728 0
M  V30 8453 H 821.673 5.49135 0.270378 0
M  V30 8454 H 822.898 6.7787 0.408554 0
M  V30 8455 H 820.844 6.05183 2.53159 0
M  V30 8456 H 820.761 7.41643 1.46634 0
M  V30 8457 H 822.029 7.32987 2.65236 0
M  V30 8458 N 826.258 0.243083 1.55714 0
M  V30 8459 C 827.674 -0.111853 1.59208 0
M  V30 8460 C 827.874 -1.5723 1.2602 0
M  V30 8461 O 826.93 -2.31608 1.00569 0
M  V30 8462 C 828.243 0.233885 2.99789 0
M  V30 8463 C 829.791 0.177873 3.12494 0
M  V30 8464 C 830.266 0.49759 4.55289 0
M  V30 8465 N 831.757 0.447949 4.61029 0
M  V30 8466 C 832.492 0.668545 5.69489 0
M  V30 8467 N 831.988 0.952064 6.86227 0
M  V30 8468 N 833.781 0.599512 5.58894 0
M  V30 8469 H 825.932 1.19554 1.75558 0
M  V30 8470 H 828.195 0.480765 0.817049 0
M  V30 8471 H 827.901 1.24835 3.28799 0
M  V30 8472 H 827.775 -0.440846 3.74615 0
M  V30 8473 H 830.162 -0.827263 2.83267 0
M  V30 8474 H 830.243 0.886399 2.39951 0
M  V30 8475 H 829.887 1.50026 4.85237 0
M  V30 8476 H 829.817 -0.232371 5.26087 0
M  V30 8477 H 832.308 0.237388 3.77154 0
M  V30 8478 H 832.621 1.10791 7.64817 0
M  V30 8479 H 830.966 0.989496 6.8792 0
M  V30 8480 H 834.157 0.378088 4.66571 0
M  V30 8481 H 834.33 0.774828 6.43351 0
M  V30 8482 N 827.736 -1.57571 -0.0300757 0
M  V30 8483 C 828.961 -1.93879 -0.736601 0
M  V30 8484 C 829.386 -0.842998 -1.68152 0
M  V30 8485 O 828.744 0.20135 -1.80178 0
M  V30 8486 C 828.792 -3.29247 -1.47066 0
M  V30 8487 O 827.896 -3.21426 -2.58378 0
M  V30 8488 H 827.237 -0.633735 -0.198181 0
M  V30 8489 H 829.767 -2.04595 0.0141485 0
M  V30 8490 H 829.777 -3.64113 -1.84081 0
M  V30 8491 H 828.452 -4.08565 -0.77764 0
M  V30 8492 H 827.029 -2.98189 -2.23914 0
M  V30 8493 N 829.214 0.302327 -1.54673 0
M  V30 8494 C 830.63 0.647911 -1.45857 0
M  V30 8495 C 830.83 1.90773 -0.64869 0
M  V30 8496 O 829.886 2.52018 -0.155865 0
M  V30 8497 C 831.199 0.802144 -2.89804 0
M  V30 8498 C 832.747 0.898114 -2.99838 0
M  V30 8499 C 833.222 1.08436 -4.44978 0
M  V30 8500 N 834.713 1.15059 -4.48682 0
M  V30 8501 C 835.448 1.31296 -5.58166 0
M  V30 8502 N 834.944 1.4444 -6.77576 0
M  V30 8503 N 836.737 1.34174 -5.45851 0
M  V30 8504 H 828.888 -0.525428 -2.05798 0
M  V30 8505 H 831.151 -0.173423 -0.932002 0
M  V30 8506 H 830.857 -0.0526531 -3.51661 0
M  V30 8507 H 830.731 1.69155 -3.37145 0
M  V30 8508 H 833.118 1.7434 -2.38096 0
M  V30 8509 H 833.199 -0.0152752 -2.55795 0
M  V30 8510 H 832.843 0.243843 -5.07314 0
M  V30 8511 H 832.773 2.01195 -4.8665 0
M  V30 8512 H 835.264 1.0626 -3.62653 0
M  V30 8513 H 835.577 1.56582 -7.56771 0
M  V30 8514 H 833.922 1.41499 -6.80443 0
M  V30 8515 H 837.113 1.23516 -4.5151 0
M  V30 8516 H 837.286 1.46485 -6.31226 0
M  V30 8517 N 830.692 1.47107 0.565454 0
M  V30 8518 C 832.108 1.32443 0.890566 0
M  V30 8519 C 832.308 0.308735 1.99121 0
M  V30 8520 O 831.364 -0.28265 2.50913 0
M  V30 8521 C 832.677 2.71548 1.2916 0
M  V30 8522 C 834.225 2.7977 1.40349 0
M  V30 8523 C 834.7 4.19497 1.83811 0
M  V30 8524 N 836.191 4.21998 1.90975 0
M  V30 8525 C 836.926 5.2702 2.25916 0
M  V30 8526 N 836.422 6.42353 2.59527 0
M  V30 8527 N 838.215 5.14393 2.26619 0
M  V30 8528 H 830.366 2.11786 -0.161328 0
M  V30 8529 H 832.629 0.947952 -0.00950631 0
M  V30 8530 H 832.335 3.47265 0.556753 0
M  V30 8531 H 832.209 3.02782 2.24951 0
M  V30 8532 H 834.596 2.0433 2.12916 0
M  V30 8533 H 834.677 2.522 0.427655 0
M  V30 8534 H 834.321 4.95439 1.11816 0
M  V30 8535 H 834.251 4.44486 2.82382 0
M  V30 8536 H 836.742 3.38791 1.6742 0
M  V30 8537 H 837.055 7.18252 2.85191 0
M  V30 8538 H 835.4 6.45687 2.57126 0
M  V30 8539 H 838.591 4.2332 1.99794 0
M  V30 8540 H 838.764 5.96349 2.5352 0
M  V30 8541 N 832.17 -0.811516 1.35101 0
M  V30 8542 C 833.08 -1.95475 1.29718 0
M  V30 8543 C 834.096 -1.72813 0.202909 0
M  V30 8544 O 835.272 -1.96725 0.431414 0
M  V30 8545 C 832.337 -3.29975 1.06385 0
M  V30 8546 C 831.398 -3.65566 2.25077 0
M  V30 8547 C 830.631 -4.93648 2.02848 0
M  V30 8548 O 830.854 -5.617 0.992442 0
M  V30 8549 O 829.788 -5.27384 2.90087 0
M  V30 8550 H 833.614 -2.02961 2.25921 0
M  V30 8551 H 831.199 -0.948583 1.15422 0
M  V30 8552 H 833.081 -4.10506 0.951999 0
M  V30 8553 H 831.756 -3.2343 0.132294 0
M  V30 8554 H 830.663 -2.85432 2.41825 0
M  V30 8555 H 831.996 -3.7681 3.16662 0
M  V30 8556 N 833.648 -1.19017 -1.03309 0
M  V30 8557 C 835.059 -0.993206 -1.5809 0
M  V30 8558 C 835.41 0.45505 -1.9085 0
M  V30 8559 O 834.535 1.33372 -1.70414 0
M  V30 8560 C 835.13 -1.79661 -2.87241 0
M  V30 8561 C 833.689 -1.64377 -3.38611 0
M  V30 8562 C 832.836 -1.78628 -2.12102 0
M  V30 8563 H 835.787 -1.3345 -0.858879 0
M  V30 8564 H 835.808 -1.29019 -3.57958 0
M  V30 8565 H 835.32 -2.85061 -2.63366 0
M  V30 8566 H 833.421 -0.615447 -3.67482 0
M  V30 8567 H 833.534 -2.44651 -4.11926 0
M  V30 8568 H 831.898 -1.21648 -2.23772 0
M  V30 8569 H 832.681 -2.8548 -1.90673 0
M  V30 8570 N 835.127 1.22348 -0.993418 0
M  V30 8571 C 836.538 1.72893 -0.704616 0
M  V30 8572 C 836.889 1.80095 0.778483 0
M  V30 8573 O 836.014 1.4476 1.60853 0
M  V30 8574 C 836.609 3.14 -1.27237 0
M  V30 8575 C 835.168 3.61949 -1.03294 0
M  V30 8576 C 834.315 2.39816 -1.39225 0
M  V30 8577 H 837.266 1.07688 -1.16572 0
M  V30 8578 H 837.287 3.74886 -0.651212 0
M  V30 8579 H 836.799 3.08727 -2.3518 0
M  V30 8580 H 834.9 3.72588 0.0298329 0
M  V30 8581 H 835.013 4.48051 -1.69668 0
M  V30 8582 H 833.377 2.41448 -0.810849 0
M  V30 8583 H 834.16 2.37203 -2.48172 0
M  V30 8584 N 836.605 0.766683 1.37694 0
M  V30 8585 C 838.016 0.394761 1.82479 0
M  V30 8586 C 838.367 -1.07842 1.63904 0
M  V30 8587 O 837.492 -1.83479 1.14737 0
M  V30 8588 C 838.087 0.70974 3.31283 0
M  V30 8589 C 836.646 0.390936 3.74364 0
M  V30 8590 C 835.793 0.956192 2.60293 0
M  V30 8591 H 838.744 0.961756 1.26238 0
M  V30 8592 H 838.765 -0.00742144 3.80499 0
M  V30 8593 H 838.277 1.782 3.4477 0
M  V30 8594 H 836.378 -0.674213 3.66449 0
M  V30 8595 H 836.491 0.895645 4.70654 0
M  V30 8596 H 834.855 0.380744 2.51838 0
M  V30 8597 H 835.638 2.03375 2.76575 0
M  V30 8598 N 838.083 -1.48885 0.516809 0
M  V30 8599 C 839.499 -1.58651 0.173788 0
M  V30 8600 C 839.699 -1.52033 -1.32243 0
M  V30 8601 O 838.755 -1.40251 -2.09967 0
M  V30 8602 C 840.068 -2.90816 0.764628 0
M  V30 8603 C 841.616 -3.04316 0.732164 0
M  V30 8604 C 842.091 -4.39123 1.30135 0
M  V30 8605 N 843.582 -4.45656 1.26273 0
M  V30 8606 C 844.317 -5.48446 1.67317 0
M  V30 8607 N 843.813 -6.58258 2.16028 0
M  V30 8608 N 845.606 -5.39251 1.58635 0
M  V30 8609 H 837.757 -1.5143 1.48939 0
M  V30 8610 H 840.02 -0.718243 0.618733 0
M  V30 8611 H 839.726 -3.01275 1.81456 0
M  V30 8612 H 839.6 -3.76473 0.234113 0
M  V30 8613 H 841.987 -2.93478 -0.308975 0
M  V30 8614 H 842.068 -2.20303 1.3 0
M  V30 8615 H 841.712 -4.50714 2.34135 0
M  V30 8616 H 841.642 -5.21801 0.709305 0
M  V30 8617 H 844.133 -3.66879 0.906006 0
M  V30 8618 H 844.446 -7.32811 2.45374 0
M  V30 8619 H 842.791 -6.59257 2.20013 0
M  V30 8620 H 845.982 -4.52354 1.20387 0
M  V30 8621 H 846.155 -6.19229 1.90944 0
M  V30 8622 N 839.561 -0.251338 -1.55583 0
M  V30 8623 C 840.789 0.376187 -2.03451 0
M  V30 8624 C 841.204 1.51215 -1.13047 0
M  V30 8625 O 840.561 1.81917 -0.145769 0
M  V30 8626 C 840.612 0.879779 -3.50631 0
M  V30 8627 O 840.333 -0.210917 -4.37592 0
M  V30 8628 C 841.834 1.57754 -4.14281 0
M  V30 8629 H 839.054 0.0888722 -0.665089 0
M  V30 8630 H 841.598 -0.376497 -2.01004 0
M  V30 8631 H 839.753 1.58263 -3.53598 0
M  V30 8632 H 840.167 0.172203 -5.24217 0
M  V30 8633 H 841.641 1.88158 -5.18942 0
M  V30 8634 H 842.118 2.50103 -3.61034 0
M  V30 8635 H 842.724 0.919154 -4.15249 0
M  V30 8636 N 841.039 1.57585 0.0217189 0
M  V30 8637 C 841.969 2.10073 1.01939 0
M  V30 8638 C 842.95 1.0049 1.37243 0
M  V30 8639 O 844.135 1.28055 1.45999 0
M  V30 8640 C 841.265 2.58618 2.31806 0
M  V30 8641 C 840.219 3.72531 2.10724 0
M  V30 8642 C 839.545 4.07309 3.46415 0
M  V30 8643 C 840.845 5.00672 1.48743 0
M  V30 8644 H 842.539 2.9368 0.582432 0
M  V30 8645 H 840.085 1.41277 0.278715 0
M  V30 8646 H 842.038 2.9396 3.01936 0
M  V30 8647 H 840.762 1.72104 2.77575 0
M  V30 8648 H 839.421 3.37549 1.43025 0
M  V30 8649 H 839.069 3.17851 3.89846 0
M  V30 8650 H 838.769 4.84042 3.33132 0
M  V30 8651 H 840.293 4.45192 4.17895 0
M  V30 8652 H 841.707 5.33925 2.088 0
M  V30 8653 H 840.104 5.82065 1.46013 0
M  V30 8654 H 841.174 4.82769 0.45408 0
M  V30 8655 N 842.517 -0.29412 1.54831 0
M  V30 8656 C 843.928 -0.866651 1.65366 0
M  V30 8657 C 844.279 -1.87834 0.56681 0
M  V30 8658 O 843.404 -2.14374 -0.295389 0
M  V30 8659 C 843.999 -1.57869 2.99771 0
M  V30 8660 C 842.558 -2.09954 3.12404 0
M  V30 8661 C 841.705 -0.934492 2.6108 0
M  V30 8662 H 844.656 -0.0709551 1.58541 0
M  V30 8663 H 844.677 -2.44462 2.91579 0
M  V30 8664 H 844.189 -0.84212 3.78853 0
M  V30 8665 H 842.29 -2.86637 2.38055 0
M  V30 8666 H 842.403 -2.32934 4.18663 0
M  V30 8667 H 840.767 -1.32199 2.17705 0
M  V30 8668 H 841.55 -0.211768 3.42646 0
M  V30 8669 N 843.995 -1.47404 -0.557645 0
M  V30 8670 C 844.958 -1.59411 -1.64684 0
M  V30 8671 C 845.958 -0.469244 -1.53801 0
M  V30 8672 O 847.148 -0.734298 -1.57967 0
M  V30 8673 C 844.28 -1.5382 -3.04224 0
M  V30 8674 H 845.473 -2.56504 -1.55389 0
M  V30 8675 H 843.026 -1.35588 -0.777531 0
M  V30 8676 H 843.761 -0.581 -3.19053 0
M  V30 8677 H 843.546 -2.35456 -3.13533 0
M  V30 8678 H 845.036 -1.65358 -3.83466 0
M  V30 8679 N 845.473 0.80434 -1.35529 0
M  V30 8680 C 846.701 1.59283 -1.32048 0
M  V30 8681 C 847.116 1.88527 0.101556 0
M  V30 8682 O 846.473 1.48975 1.05417 0
M  V30 8683 C 846.524 2.92276 -2.12737 0
M  V30 8684 O 846.245 2.64299 -3.49396 0
M  V30 8685 C 847.746 3.86631 -2.16867 0
M  V30 8686 H 844.966 0.494523 -0.453528 0
M  V30 8687 H 847.51 0.999415 -1.78415 0
M  V30 8688 H 845.665 3.48125 -1.69964 0
M  V30 8689 H 846.079 3.4923 -3.91329 0
M  V30 8690 H 847.553 4.77053 -2.77712 0
M  V30 8691 H 848.03 4.23384 -1.16803 0
M  V30 8692 H 848.636 3.36717 -2.59811 0
M  V30 8693 N 846.951 1.19563 1.02676 0
M  V30 8694 C 848.228 0.908857 1.73203 0
M  V30 8695 C 848.608 -0.584928 2.02834 0
M  V30 8696 O 847.956 -1.54372 1.68469 0
M  V30 8697 C 848.166 1.77105 3.00724 0
M  V30 8698 C 849.514 2.00667 3.7419 0
M  V30 8699 O 850.538 1.74274 3.10656 0
M  V30 8700 O 849.397 2.4518 4.88415 0
M  V30 8701 H 846.491 0.338909 0.754367 0
M  V30 8702 H 849.037 1.30387 1.08616 0
M  V30 8703 H 847.809 2.78303 2.7507 0
M  V30 8704 H 847.432 1.37546 3.73051 0
M  V30 8705 N 848.429 -1.21819 0.999893 0
M  V30 8706 C 849.359 -2.26282 0.576096 0
M  V30 8707 C 850.34 -1.65317 -0.400537 0
M  V30 8708 O 851.525 -1.92028 -0.28964 0
M  V30 8709 C 848.655 -3.47147 -0.103145 0
M  V30 8710 C 847.609 -4.20594 0.792745 0
M  V30 8711 C 846.935 -5.34696 -0.0198026 0
M  V30 8712 C 848.235 -4.78533 2.09293 0
M  V30 8713 H 849.929 -2.61984 1.4493 0
M  V30 8714 H 847.475 -1.25935 0.698316 0
M  V30 8715 H 849.428 -4.1939 -0.411068 0
M  V30 8716 H 848.152 -3.1056 -1.01094 0
M  V30 8717 H 846.811 -3.50194 1.08442 0
M  V30 8718 H 846.459 -4.94352 -0.928729 0
M  V30 8719 H 846.159 -5.84764 0.576661 0
M  V30 8720 H 847.683 -6.09752 -0.321659 0
M  V30 8721 H 849.097 -5.42682 1.8485 0
M  V30 8722 H 847.494 -5.38968 2.63881 0
M  V30 8723 H 848.564 -3.98197 2.76708 0
M  V30 8724 N 849.908 -0.773975 -1.37286 0
M  V30 8725 C 850.84 -0.119938 -2.28886 0
M  V30 8726 C 851.853 0.661822 -1.48741 0
M  V30 8727 O 853.042 0.499548 -1.71367 0
M  V30 8728 C 850.142 0.853703 -3.27971 0
M  V30 8729 C 849.315 0.125286 -4.37221 0
M  V30 8730 C 848.374 1.01261 -5.16365 0
M  V30 8731 O 847.4 0.475565 -5.6721 0
M  V30 8732 N 848.602 2.33864 -5.31308 0
M  V30 8733 H 851.367 -0.906702 -2.85655 0
M  V30 8734 H 848.928 -0.626519 -1.49286 0
M  V30 8735 H 850.92 1.4508 -3.77801 0
M  V30 8736 H 849.49 1.54142 -2.71954 0
M  V30 8737 H 848.71 -0.652742 -3.88758 0
M  V30 8738 H 849.998 -0.377959 -5.07394 0
M  V30 8739 H 849.396 2.79929 -4.91585 0
M  V30 8740 H 847.953 2.88575 -5.84438 0
M  V30 8741 O 851.425 1.47123 -0.666118 0
M  V30 8742 H 852.116 1.9271 -0.195592 0
M  V30 END ATOM
M  V30 BEGIN BOND
M  V30 END BOND
M  V30 END CTAB
M  END
$$$$
