drugbank_target|Q96PR1 Potassium voltage-gated channel subfamily C member 2 (DB00228; DB01069; DB01110)
 OpenBabel12092120583D

  0  0  0     0  0            999 V3000
M  V30 BEGIN CTAB
M  V30 COUNTS 9880 10008 0 0 0
M  V30 BEGIN ATOM
M  V30 1 H -0.908 1.98254 -0.117106 0
M  V30 2 N 0 1.576 0 0
M  V30 3 C 0.933 2.03868 1.02534 0
M  V30 4 C 1.911 0.928543 1.3348 0
M  V30 5 O 3.095 1.19667 1.45644 0
M  V30 6 C 0.222 2.43627 2.35294 0
M  V30 7 C -0.732 3.65373 2.2001 0
M  V30 8 S 0.101 5.13292 1.52614 0
M  V30 9 C 1.257 5.56322 2.86805 0
M  V30 10 H 1.49 2.90518 0.631377 0
M  V30 11 H -0.977 1.52953 0.210867 0
M  V30 12 H 0.981 2.67203 3.11629 0
M  V30 13 H -0.358 1.57376 2.7183 0
M  V30 14 H -1.165 3.90944 3.18086 0
M  V30 15 H -1.563 3.418 1.51819 0
M  V30 16 H 0.729 5.58782 3.83104 0
M  V30 17 H 1.672 6.56266 2.65933 0
M  V30 18 H 2.08 4.83886 2.90714 0
M  V30 19 N 1.4781 -0.272755 1.55222 0
M  V30 20 C 2.7261 -1.00234 1.75492 0
M  V30 21 C 3.0471 -1.8681 0.5592 0
M  V30 22 O 2.3171 -1.91215 -0.425882 0
M  V30 23 H 0.8971 -0.373076 0.647166 0
M  V30 24 H 3.5591 -0.296926 1.92625 0
M  V30 25 H 2.6551 -1.63913 2.65592 0
M  V30 26 N 2.9562 -1.48159 -0.537278 0
M  V30 27 C 3.9032 -1.62138 -1.64256 0
M  V30 28 C 4.8732 -0.463668 -1.59497 0
M  V30 29 O 6.0582 -0.686241 -1.78032 0
M  V30 30 C 3.1982 -1.66028 -3.02537 0
M  V30 31 C 2.3112 -2.92855 -3.17585 0
M  V30 32 C 1.4462 -2.87952 -4.46382 0
M  V30 33 C 0.4852 -4.09516 -4.54932 0
M  V30 34 N -0.3778 -4.02733 -5.75109 0
M  V30 35 H 4.4622 -2.56529 -1.51647 0
M  V30 36 H 1.9992 -1.27224 -0.738414 0
M  V30 37 H 3.9572 -1.66265 -3.82638 0
M  V30 38 H 2.5872 -0.751331 -3.13934 0
M  V30 39 H 1.6392 -3.02395 -2.30784 0
M  V30 40 H 2.9512 -3.82822 -3.19764 0
M  V30 41 H 2.1052 -2.8655 -5.34765 0
M  V30 42 H 0.8442 -1.95702 -4.46712 0
M  V30 43 H -0.1508 -4.11201 -3.64957 0
M  V30 44 H 1.0742 -5.02917 -4.56346 0
M  V30 45 H -0.9798 -3.13299 -5.76351 0
M  V30 46 H -1.0628 -4.86397 -5.78752 0
M  V30 47 H 0.2052 -4.05379 -6.65799 0
M  V30 48 N 4.4343 0.785586 -1.36625 0
M  V30 49 C 5.6833 1.53883 -1.30396 0
M  V30 50 C 5.9963 1.95271 0.113452 0
M  V30 51 O 7.2023 2.69858 0.298142 0
M  V30 52 C 5.6583 2.77808 -2.28802 0
M  V30 53 C 5.2663 2.43574 -3.75999 0
M  V30 54 C 7.0103 3.55783 -2.31558 0
M  V30 55 C 4.9173 3.63919 -4.66173 0
M  V30 56 H 3.8473 0.577678 -0.484566 0
M  V30 57 H 6.4983 0.861705 -1.62009 0
M  V30 58 H 4.8803 3.47339 -1.90188 0
M  V30 59 H 6.0543 1.81916 -4.23371 0
M  V30 60 H 4.3693 1.78803 -3.76056 0
M  V30 61 H 6.9663 4.45205 -2.96137 0
M  V30 62 H 7.3093 3.94644 -1.3252 0
M  V30 63 H 7.8423 2.93235 -2.68809 0
M  V30 64 H 4.5813 3.3015 -5.66287 0
M  V30 65 H 4.1013 4.2473 -4.23515 0
M  V30 66 H 5.7803 4.30901 -4.82632 0
M  V30 67 N 5.9124 1.20967 1.01018 0
M  V30 68 C 6.8224 0.980157 2.13143 0
M  V30 69 C 7.8384 -0.0660665 1.73875 0
M  V30 70 O 9.0144 0.122821 2.01025 0
M  V30 71 C 6.0794 0.54216 3.42435 0
M  V30 72 C 5.1404 1.65999 3.95908 0
M  V30 73 C 4.3734 1.2428 5.19028 0
M  V30 74 O 4.5964 0.114196 5.70286 0
M  V30 75 O 3.5304 2.05271 5.65816 0
M  V30 76 H 7.3564 1.91913 2.35379 0
M  V30 77 H 4.9414 0.994099 1.11526 0
M  V30 78 H 6.8234 0.30744 4.20277 0
M  V30 79 H 5.4984 -0.36815 3.216 0
M  V30 80 H 4.4054 1.94906 3.19316 0
M  V30 81 H 5.7384 2.54753 4.21143 0
M  V30 82 N 7.3905 -1.2043 1.01659 0
M  V30 83 C 8.3385 -2.25249 0.580143 0
M  V30 84 C 9.3325 -1.65057 -0.381115 0
M  V30 85 O 10.5385 -1.78241 -0.251039 0
M  V30 86 H 6.9135 -0.732695 0.169299 0
M  V30 87 H 8.8845 -2.59389 1.47512 0
M  V30 88 C 7.6335 -3.47638 -0.065788 0
M  V30 89 H 6.9565 -3.94233 0.664874 0
M  V30 90 H 8.3965 -4.2268 -0.334282 0
M  V30 91 C 6.8555 -3.10447 -1.3086 0
M  V30 92 O 7.3855 -3.21981 -2.4019 0
M  V30 93 N 5.5915 -2.64996 -1.1927 0
M  V30 94 H 5.1385 -2.55811 -0.303064 0
M  V30 95 H 5.0965 -2.40482 -2.02523 0
M  V30 96 N 8.8686 -0.792821 -1.36206 0
M  V30 97 C 9.8166 -0.181555 -2.3189 0
M  V30 98 C 10.8106 0.661025 -1.55971 0
M  V30 99 O 12.0166 0.555728 -1.71206 0
M  V30 100 H 8.3916 -0.0399382 -0.750939 0
M  V30 101 H 10.3626 -1.00394 -2.81005 0
M  V30 102 C 9.1116 0.666444 -3.41253 0
M  V30 103 H 8.4346 0.0274489 -3.99791 0
M  V30 104 H 9.8746 1.06076 -4.10517 0
M  V30 105 C 8.3336 1.82614 -2.83114 0
M  V30 106 O 8.8636 2.9229 -2.75553 0
M  V30 107 N 7.0696 1.63333 -2.40356 0
M  V30 108 H 6.6166 0.741217 -2.46706 0
M  V30 109 H 6.5746 2.41087 -2.01803 0
M  V30 110 N 10.3467 1.47872 -0.545128 0
M  V30 111 C 11.2567 2.33633 0.212746 0
M  V30 112 C 12.2727 1.4744 0.923983 0
M  V30 113 O 13.4487 1.80393 0.895572 0
M  V30 114 C 10.5137 3.23884 1.23693 0
M  V30 115 C 9.5747 4.25961 0.534417 0
M  V30 116 C 8.8077 5.11899 1.5098 0
M  V30 117 O 9.0307 5.00077 2.7437 0
M  V30 118 O 7.9647 5.92831 1.0409 0
M  V30 119 H 11.7907 2.99714 -0.490416 0
M  V30 120 H 9.3757 1.46235 -0.305871 0
M  V30 121 H 11.2577 3.79666 1.82843 0
M  V30 122 H 9.9327 2.60446 1.92222 0
M  V30 123 H 8.8397 3.73972 -0.0979679 0
M  V30 124 H 10.1727 4.92079 -0.109213 0
M  V30 125 N 11.8248 0.280983 1.55075 0
M  V30 126 C 13.2408 -0.0729964 1.59433 0
M  V30 127 C 13.4408 -1.5411 1.29817 0
M  V30 128 O 12.4968 -2.29086 1.06187 0
M  V30 129 C 13.8098 0.306921 2.9913 0
M  V30 130 C 15.3578 0.254023 3.11968 0
M  V30 131 C 15.8328 0.608467 4.5394 0
M  V30 132 N 17.3238 0.560241 4.59799 0
M  V30 133 C 18.0588 0.80722 5.6769 0
M  V30 134 N 17.5548 1.11912 6.83701 0
M  V30 135 N 19.3478 0.735623 5.57266 0
M  V30 136 H 11.4988 1.238 1.7259 0
M  V30 137 H 13.7618 0.500547 0.805082 0
M  V30 138 H 13.4678 1.32816 3.25657 0
M  V30 139 H 13.3418 -0.349363 3.75579 0
M  V30 140 H 15.7288 -0.75794 2.852 0
M  V30 141 H 15.8098 0.944649 2.37718 0
M  V30 142 H 15.4538 1.61814 4.81434 0
M  V30 143 H 15.3838 -0.104013 5.26497 0
M  V30 144 H 17.8748 0.329288 3.76463 0
M  V30 145 H 18.1878 1.29409 7.61888 0
M  V30 146 H 16.5328 1.15695 6.85303 0
M  V30 147 H 19.7238 0.491752 4.6551 0
M  V30 148 H 19.8968 0.931482 6.4127 0
M  V30 149 N 13.3029 -1.57598 0.00835791 0
M  V30 150 C 14.5489 -1.91211 -0.675732 0
M  V30 151 C 14.8819 -0.883139 -1.72958 0
M  V30 152 O 14.1569 0.097016 -1.94258 0
M  V30 153 C 14.4399 -3.35379 -1.31123 0
M  V30 154 C 14.2929 -4.48999 -0.268356 0
M  V30 155 C 15.6119 -3.7912 -2.23508 0
M  V30 156 H 12.7309 -0.695374 -0.244179 0
M  V30 157 H 15.3729 -1.89901 0.0613655 0
M  V30 158 H 13.5229 -3.36626 -1.93946 0
M  V30 159 H 15.1949 -4.59887 0.360844 0
M  V30 160 H 13.4379 -4.31873 0.408482 0
M  V30 161 H 14.1089 -5.46851 -0.752218 0
M  V30 162 H 16.5849 -3.79477 -1.70693 0
M  V30 163 H 15.4609 -4.80729 -2.64936 0
M  V30 164 H 15.7219 -3.13455 -3.11766 0
M  V30 165 N 14.781 0.264519 -1.55364 0
M  V30 166 C 16.03 0.992812 -1.75574 0
M  V30 167 C 16.343 1.87142 -0.568979 0
M  V30 168 O 17.549 2.63513 -0.653682 0
M  V30 169 C 16.005 1.81519 -3.10771 0
M  V30 170 C 15.613 0.984839 -4.37041 0
M  V30 171 C 17.357 2.53727 -3.40327 0
M  V30 172 C 15.264 1.80209 -5.63275 0
M  V30 173 H 14.194 0.374412 -0.65447 0
M  V30 174 H 16.845 0.248138 -1.81815 0
M  V30 175 H 15.227 2.60115 -2.98591 0
M  V30 176 H 16.401 0.242455 -4.60162 0
M  V30 177 H 14.716 0.37691 -4.14691 0
M  V30 178 H 17.313 3.15292 -4.3185 0
M  V30 179 H 17.656 3.24447 -2.60845 0
M  V30 180 H 18.189 1.82156 -3.53644 0
M  V30 181 H 14.928 1.13896 -6.45529 0
M  V30 182 H 14.448 2.52022 -5.44284 0
M  V30 183 H 16.127 2.37364 -6.01887 0
M  V30 184 N 16.2591 1.48442 0.529413 0
M  V30 185 C 17.1891 1.65902 1.64313 0
M  V30 186 C 18.1701 0.507897 1.6234 0
M  V30 187 O 19.3551 0.740503 1.79528 0
M  V30 188 C 16.4851 1.69911 3.02898 0
M  V30 189 C 15.4391 2.8453 3.19729 0
M  V30 190 C 14.7651 2.73629 4.59381 0
M  V30 191 C 16.0651 4.25821 3.02447 0
M  V30 192 H 17.7591 2.5914 1.49955 0
M  V30 193 H 15.3051 1.24709 0.719982 0
M  V30 194 H 17.2581 1.80715 3.80684 0
M  V30 195 H 15.9821 0.732524 3.18279 0
M  V30 196 H 14.6411 2.73283 2.44361 0
M  V30 197 H 14.2891 1.74938 4.71599 0
M  V30 198 H 13.9891 3.50541 4.71588 0
M  V30 199 H 15.5131 2.86401 5.39265 0
M  V30 200 H 16.9271 4.37898 3.70024 0
M  V30 201 H 15.3241 5.03735 3.26146 0
M  V30 202 H 16.3941 4.42244 1.98867 0
M  V30 203 N 17.7372 -0.778329 1.37039 0
M  V30 204 C 18.6852 -1.91278 1.32345 0
M  V30 205 C 19.6792 -1.68051 0.213331 0
M  V30 206 O 20.8852 -1.75922 0.38098 0
M  V30 207 H 17.2602 -0.628909 0.412283 0
M  V30 208 H 19.2312 -1.92355 2.28127 0
M  V30 209 C 17.9802 -3.28455 1.14073 0
M  V30 210 H 17.3032 -3.46901 1.98746 0
M  V30 211 H 18.7432 -4.08152 1.14837 0
M  V30 212 C 17.2022 -3.36548 -0.154015 0
M  V30 213 O 17.7322 -3.85186 -1.13993 0
M  V30 214 N 15.9382 -2.89894 -0.202475 0
M  V30 215 H 15.4852 -2.50504 0.600476 0
M  V30 216 H 15.4432 -2.9569 -1.06841 0
M  V30 217 N 19.2153 -1.21501 -1.00376 0
M  V30 218 C 20.4613 -1.03452 -1.74429 0
M  V30 219 C 20.7943 0.430764 -1.89362 0
M  V30 220 O 20.0693 1.31962 -1.42886 0
M  V30 221 C 20.3523 -1.73375 -3.15615 0
M  V30 222 C 20.2053 -3.27431 -3.08397 0
M  V30 223 C 21.5243 -1.47732 -4.14564 0
M  V30 224 H 18.6433 -0.377226 -0.633143 0
M  V30 225 H 21.2853 -1.49693 -1.17013 0
M  V30 226 H 19.4353 -1.34064 -3.64636 0
M  V30 227 H 21.1073 -3.76119 -2.67081 0
M  V30 228 H 19.3503 -3.5767 -2.45468 0
M  V30 229 H 20.0213 -3.71524 -4.08258 0
M  V30 230 H 22.4973 -1.8186 -3.74254 0
M  V30 231 H 21.3733 -1.99169 -5.11491 0
M  V30 232 H 21.6343 -0.407589 -4.40217 0
M  V30 233 N 20.6934 1.19889 -1.02296 0
M  V30 234 C 21.9414 1.89046 -0.714558 0
M  V30 235 C 22.2624 1.79636 0.758681 0
M  V30 236 O 21.5324 1.20292 1.54618 0
M  V30 237 H 20.1124 0.699802 -0.261317 0
M  V30 238 H 22.7744 1.45574 -1.29592 0
M  V30 239 H 21.8704 2.95524 -1.0036 0
M  V30 240 N 22.1715 0.800033 1.35784 0
M  V30 241 C 23.4195 0.376597 1.9856 0
M  V30 242 C 23.7405 -1.05812 1.63795 0
M  V30 243 O 23.0105 -1.73103 0.917171 0
M  V30 244 H 21.5905 0.136261 0.734467 0
M  V30 245 H 24.2525 1.02442 1.65806 0
M  V30 246 H 23.3485 0.477002 3.08433 0
M  V30 247 N 23.6496 -1.47581 0.552962 0
M  V30 248 C 24.8776 -2.06875 0.0320556 0
M  V30 249 C 25.2926 -1.40625 -1.25976 0
M  V30 250 O 24.6496 -0.501349 -1.75479 0
M  V30 251 C 24.7006 -3.61092 -0.17167 0
M  V30 252 O 24.4216 -4.24858 1.06899 0
M  V30 253 C 25.9226 -4.37242 -0.730344 0
M  V30 254 H 23.1426 -0.669561 0.043915 0
M  V30 255 H 25.6866 -1.89646 0.765163 0
M  V30 256 H 23.8416 -3.7785 -0.854894 0
M  V30 257 H 24.2556 -5.17334 0.864059 0
M  V30 258 H 25.7296 -5.45842 -0.822203 0
M  V30 259 H 26.2066 -4.03235 -1.74064 0
M  V30 260 H 26.8126 -4.25219 -0.0829543 0
M  V30 261 N 25.1277 -0.289203 -1.54924 0
M  V30 262 C 26.5437 0.0645403 -1.59469 0
M  V30 263 C 26.7437 1.53419 -1.30632 0
M  V30 264 O 25.7997 2.2852 -1.074 0
M  V30 265 C 27.1127 -0.32278 -2.98963 0
M  V30 266 C 28.6607 -0.270564 -3.11828 0
M  V30 267 C 29.1357 -0.632532 -4.53611 0
M  V30 268 N 30.6267 -0.584617 -4.59496 0
M  V30 269 C 31.3617 -0.837314 -5.67254 0
M  V30 270 N 30.8577 -1.15536 -6.83098 0
M  V30 271 N 32.6507 -0.765166 -5.56868 0
M  V30 272 H 24.8017 -1.24714 -1.71931 0
M  V30 273 H 27.0647 -0.504809 -0.802416 0
M  V30 274 H 26.7707 -1.34541 -3.24948 0
M  V30 275 H 26.6447 0.32944 -3.75759 0
M  V30 276 H 29.0317 0.742805 -2.85598 0
M  V30 277 H 29.1127 -0.957242 -2.37214 0
M  V30 278 H 28.7567 -1.64365 -4.80569 0
M  V30 279 H 28.6867 0.07609 -5.26545 0
M  V30 280 H 31.1777 -0.349248 -3.76283 0
M  V30 281 H 31.4907 -1.33447 -7.61191 0
M  V30 282 H 29.8357 -1.19328 -6.84679 0
M  V30 283 H 33.0267 -0.516432 -4.65243 0
M  V30 284 H 33.1997 -0.965477 -6.40767 0
M  V30 285 N 26.6058 1.57591 -0.0167156 0
M  V30 286 C 27.5558 2.05953 0.978137 0
M  V30 287 C 28.5398 0.957532 1.29306 0
M  V30 288 O 29.7318 1.22119 1.28125 0
M  V30 289 C 26.8608 2.58006 2.26468 0
M  V30 290 C 25.9468 3.75113 1.97867 0
M  V30 291 N 26.3378 4.86187 1.39486 0
M  V30 292 C 24.6358 3.83363 2.27924 0
M  V30 293 C 25.3368 5.67502 1.27735 0
M  V30 294 N 24.3128 5.14023 1.76866 0
M  V30 295 H 28.1148 2.89236 0.521522 0
M  V30 296 H 25.6288 1.61301 0.188596 0
M  V30 297 H 27.6258 2.90937 2.98599 0
M  V30 298 H 26.2858 1.76148 2.72767 0
M  V30 299 H 27.2968 5.06695 1.07147 0
M  V30 300 H 23.9738 3.1239 2.76982 0
M  V30 301 H 25.3638 6.66791 0.826978 0
M  V30 302 N 28.0839 -0.256276 1.55502 0
M  V30 303 C 28.9939 -1.33882 1.92647 0
M  V30 304 C 30.0099 -1.53159 0.825727 0
M  V30 305 O 31.1859 -1.66963 1.12629 0
M  V30 306 C 28.2509 -2.6751 2.20543 0
M  V30 307 C 27.3119 -2.56836 3.43997 0
M  V30 308 C 26.5449 -3.84092 3.70553 0
M  V30 309 O 26.7679 -4.85545 2.99336 0
M  V30 310 O 25.7019 -3.83288 4.64084 0
M  V30 311 H 29.5279 -1.05374 2.84833 0
M  V30 312 H 27.1129 -0.456237 1.42263 0
M  V30 313 H 28.9949 -3.46492 2.39835 0
M  V30 314 H 27.6699 -2.9577 1.31536 0
M  V30 315 H 26.5769 -1.76172 3.30021 0
M  V30 316 H 27.9099 -2.33523 4.33275 0
M  V30 317 N 29.562 -1.4872 -0.521534 0
M  V30 318 C 30.79 -1.60843 -1.30142 0
M  V30 319 C 31.205 -0.271897 -1.86832 0
M  V30 320 O 30.562 0.739969 -1.66825 0
M  V30 321 C 30.613 -2.66155 -2.4463 0
M  V30 322 O 30.334 -3.94623 -1.90275 0
M  V30 323 C 31.835 -2.88795 -3.36322 0
M  V30 324 H 29.055 -0.542075 -0.395468 0
M  V30 325 H 31.599 -1.94609 -0.628285 0
M  V30 326 H 29.754 -2.35224 -3.07812 0
M  V30 327 H 30.168 -4.52468 -2.65279 0
M  V30 328 H 31.642 -3.66264 -4.12983 0
M  V30 329 H 32.119 -1.97934 -3.9207 0
M  V30 330 H 32.725 -3.21063 -2.78924 0
M  V30 331 N 31.0401 0.771051 -1.3745 0
M  V30 332 C 32.2701 1.55789 -1.35696 0
M  V30 333 C 32.6781 1.89107 0.0594523 0
M  V30 334 O 32.0211 1.51984 1.03183 0
M  V30 335 C 32.0831 2.89515 -2.13123 0
M  V30 336 C 31.7471 2.78829 -3.62082 0
M  V30 337 C 32.7441 2.49812 -4.5595 0
M  V30 338 C 30.4291 2.9683 -4.05213 0
M  V30 339 C 32.4231 2.38923 -5.90927 0
M  V30 340 C 30.1101 2.85562 -5.40276 0
M  V30 341 C 31.1081 2.56649 -6.32946 0
M  V30 342 O 30.7961 2.45408 -7.65526 0
M  V30 343 H 30.5281 0.489257 -0.466481 0
M  V30 344 H 33.0821 0.963446 -1.81403 0
M  V30 345 H 31.3121 3.51081 -1.62107 0
M  V30 346 H 33.0011 3.50915 -2.03994 0
M  V30 347 H 33.7671 2.3559 -4.23937 0
M  V30 348 H 29.6461 3.18335 -3.33442 0
M  V30 349 H 33.1901 2.16277 -6.63227 0
M  V30 350 H 29.0871 2.99351 -5.71891 0
M  V30 351 H 29.8551 2.60753 -7.75855 0
M  V30 352 N 32.5182 1.22032 0.997298 0
M  V30 353 C 33.9342 0.979326 1.26021 0
M  V30 354 C 34.1342 -0.32972 1.98784 0
M  V30 355 O 33.1902 -1.05345 2.29475 0
M  V30 356 C 34.5032 2.17509 2.07631 0
M  V30 357 C 36.0512 2.21817 2.2083 0
M  V30 358 C 36.5262 3.40933 3.05825 0
M  V30 359 N 38.0172 3.41067 3.13412 0
M  V30 360 C 38.7522 4.29885 3.79455 0
M  V30 361 N 38.2482 5.28914 4.47462 0
M  V30 362 N 40.0412 4.17673 3.76173 0
M  V30 363 H 32.1922 2.06202 0.509352 0
M  V30 364 H 34.4552 0.90334 0.287541 0
M  V30 365 H 34.1612 3.12415 1.61524 0
M  V30 366 H 34.0352 2.17206 3.08385 0
M  V30 367 H 36.4222 1.27462 2.66153 0
M  V30 368 H 36.5032 2.2616 1.1952 0
M  V30 369 H 36.1472 4.35586 2.61203 0
M  V30 370 H 36.0772 3.33829 4.07266 0
M  V30 371 H 38.5682 2.69406 2.65007 0
M  V30 372 H 38.8812 5.92973 4.95583 0
M  V30 373 H 37.2262 5.32831 4.46224 0
M  V30 374 H 40.4172 3.39564 3.22202 0
M  V30 375 H 40.5902 4.87098 4.27363 0
M  V30 376 N 33.9963 -1.19345 1.0293 0
M  V30 377 C 35.2213 -1.93538 0.745511 0
M  V30 378 C 35.6463 -1.75007 -0.689511 0
M  V30 379 O 35.0043 -1.05265 -1.47611 0
M  V30 380 C 35.0523 -3.43336 1.10239 0
M  V30 381 O 34.1563 -4.11806 0.221289 0
M  V30 382 H 33.4973 -0.604193 0.275404 0
M  V30 383 H 36.0273 -1.5141 1.37609 0
M  V30 384 H 36.0373 -3.94004 1.05947 0
M  V30 385 H 34.7123 -3.56146 2.14786 0
M  V30 386 H 33.2893 -3.715 0.322842 0
M  V30 387 N 35.4744 -0.807222 -1.35358 0
M  V30 388 C 36.7024 -0.400377 -2.02989 0
M  V30 389 C 37.1174 0.988859 -1.60832 0
M  V30 390 O 36.4744 1.63729 -0.806175 0
M  V30 391 C 36.5254 -0.474867 -3.58368 0
M  V30 392 O 36.2464 -1.80933 -3.98992 0
M  V30 393 C 37.7474 -0.0609112 -4.43258 0
M  V30 394 H 34.9674 -0.162587 -0.651004 0
M  V30 395 H 37.5114 -1.09102 -1.72965 0
M  V30 396 H 35.6664 0.167534 -3.87038 0
M  V30 397 H 36.0804 -1.77256 -4.9364 0
M  V30 398 H 37.5544 -0.164145 -5.51756 0
M  V30 399 H 38.0314 0.993831 -4.27808 0
M  V30 400 H 38.6374 -0.676492 -4.19885 0
M  V30 401 N 36.9525 1.47285 -0.560781 0
M  V30 402 C 37.8825 2.32857 0.173105 0
M  V30 403 C 38.8635 1.44009 0.905281 0
M  V30 404 O 40.0485 1.7286 0.885046 0
M  V30 405 C 37.1785 3.25861 1.20133 0
M  V30 406 C 36.1325 4.23978 0.585388 0
M  V30 407 C 35.4585 5.06332 1.7185 0
M  V30 408 C 36.7585 5.20242 -0.463178 0
M  V30 409 H 38.4525 2.94466 -0.541307 0
M  V30 410 H 35.9985 1.41601 -0.261764 0
M  V30 411 H 37.9515 3.84569 1.72293 0
M  V30 412 H 36.6755 2.62315 1.94573 0
M  V30 413 H 35.3345 3.66501 0.085054 0
M  V30 414 H 34.9825 4.39186 2.45203 0
M  V30 415 H 34.6825 5.72762 1.31213 0
M  V30 416 H 36.2065 5.67899 2.24329 0
M  V30 417 H 37.6205 5.73293 -0.027502 0
M  V30 418 H 36.0175 5.94896 -0.788627 0
M  V30 419 H 37.0875 4.65504 -1.35773 0
M  V30 420 N 38.4306 0.297415 1.54768 0
M  V30 421 C 39.3776 -0.580276 2.23386 0
M  V30 422 C 40.3476 -1.13238 1.21517 0
M  V30 423 O 41.5326 -1.17757 1.50126 0
M  V30 424 C 38.6726 -1.74801 2.97555 0
M  V30 425 C 37.7856 -1.22764 4.1419 0
M  V30 426 C 36.9206 -2.35895 4.75949 0
M  V30 427 C 35.9596 -1.80974 5.84735 0
M  V30 428 N 35.0966 -2.87664 6.40464 0
M  V30 429 H 39.9366 0.0114833 2.97998 0
M  V30 430 H 37.4736 0.0174361 1.4709 0
M  V30 431 H 39.4316 -2.43475 3.38786 0
M  V30 432 H 38.0616 -2.31145 2.25326 0
M  V30 433 H 37.1136 -0.433271 3.77924 0
M  V30 434 H 38.4256 -0.785551 4.92575 0
M  V30 435 H 37.5796 -3.12523 5.20014 0
M  V30 436 H 36.3186 -2.83429 3.96887 0
M  V30 437 H 35.3236 -1.02834 5.40097 0
M  V30 438 H 36.5486 -1.34348 6.65678 0
M  V30 439 H 34.4946 -3.34538 5.64287 0
M  V30 440 H 34.4116 -2.4794 7.14186 0
M  V30 441 H 35.6796 -3.642 6.89187 0
M  V30 442 N 39.9087 -1.5758 0.0250728 0
M  V30 443 C 41.1367 -1.9593 -0.664747 0
M  V30 444 C 41.5517 -0.901352 -1.65895 0
M  V30 445 O 40.9087 0.117255 -1.82123 0
M  V30 446 C 40.9597 -3.34342 -1.37468 0
M  V30 447 O 40.6807 -4.36079 -0.420324 0
M  V30 448 C 42.1817 -3.873 -2.1567 0
M  V30 449 H 39.4017 -0.645405 -0.183557 0
M  V30 450 H 41.9457 -2.04329 0.0836372 0
M  V30 451 H 40.1007 -3.27175 -2.0745 0
M  V30 452 H 40.5147 -5.16297 -0.923991 0
M  V30 453 H 41.9887 -4.86504 -2.60803 0
M  V30 454 H 42.4657 -3.21331 -2.99405 0
M  V30 455 H 43.0717 -3.97723 -1.50654 0
M  V30 456 N 41.3868 0.248026 -1.55636 0
M  V30 457 C 42.3168 1.31079 -1.93237 0
M  V30 458 C 43.2978 1.50264 -0.797174 0
M  V30 459 O 44.4828 1.62891 -1.05737 0
M  V30 460 C 41.6128 2.66575 -2.22609 0
M  V30 461 C 40.5668 2.62087 -3.3837 0
M  V30 462 C 39.8928 4.01369 -3.53281 0
M  V30 463 C 41.1928 2.19171 -4.7409 0
M  V30 464 H 42.8868 0.998556 -2.82257 0
M  V30 465 H 40.4328 0.47891 -1.35803 0
M  V30 466 H 42.3858 3.41057 -2.47503 0
M  V30 467 H 41.1098 2.99432 -1.30414 0
M  V30 468 H 39.7688 1.90063 -3.13483 0
M  V30 469 H 39.4168 4.31489 -2.58508 0
M  V30 470 H 39.1168 3.99254 -4.31127 0
M  V30 471 H 40.6408 4.77552 -3.80495 0
M  V30 472 H 42.0548 2.83384 -4.98363 0
M  V30 473 H 40.4518 2.2817 -5.5503 0
M  V30 474 H 41.5218 1.14336 -4.71227 0
M  V30 475 N 42.8649 1.48995 0.513639 0
M  V30 476 C 44.2759 1.5119 1.09537 0
M  V30 477 C 44.6269 0.290906 1.94031 0
M  V30 478 O 43.7519 -0.60049 2.07902 0
M  V30 479 C 44.3469 2.73964 1.99322 0
M  V30 480 C 42.9059 2.78978 2.52682 0
M  V30 481 C 42.0529 2.44934 1.30009 0
M  V30 482 H 45.0039 1.55875 0.298125 0
M  V30 483 H 45.0249 2.53409 2.83838 0
M  V30 484 H 44.5369 3.62813 1.37799 0
M  V30 485 H 42.6379 1.94378 3.1788 0
M  V30 486 H 42.7509 3.8083 2.90698 0
M  V30 487 H 41.1149 1.9644 1.62122 0
M  V30 488 H 41.8979 3.36043 0.702131 0
M  V30 489 N 44.343 -0.763751 1.37857 0
M  V30 490 C 45.591 -1.51957 1.33243 0
M  V30 491 C 45.912 -1.94835 -0.0801709 0
M  V30 492 O 45.182 -1.66894 -1.02582 0
M  V30 493 H 43.762 -0.563626 0.49024 0
M  V30 494 H 46.424 -0.908504 1.7243 0
M  V30 495 H 45.52 -2.41523 1.97669 0
M  V30 496 N 45.8211 -1.22559 -0.990812 0
M  V30 497 C 47.0491 -1.07779 -1.76611 0
M  V30 498 C 47.4641 0.371513 -1.85109 0
M  V30 499 O 46.8211 1.25737 -1.32274 0
M  V30 500 C 46.8721 -1.68512 -3.19822 0
M  V30 501 O 46.5931 -3.07774 -3.1178 0
M  V30 502 C 48.0941 -1.59035 -4.13791 0
M  V30 503 H 45.3141 -0.377729 -0.554583 0
M  V30 504 H 47.8581 -1.62195 -1.24551 0
M  V30 505 H 46.0131 -1.18154 -3.68942 0
M  V30 506 H 46.4271 -3.37062 -4.01858 0
M  V30 507 H 47.9011 -2.0625 -5.1202 0
M  V30 508 H 48.3781 -0.547273 -4.35777 0
M  V30 509 H 48.9841 -2.08709 -3.70568 0
M  V30 510 N 47.2992 1.18797 -1.03562 0
M  V30 511 C 48.7152 1.40671 -0.753917 0
M  V30 512 C 48.9152 1.9043 0.658686 0
M  V30 513 O 47.9712 2.08538 1.42366 0
M  V30 514 C 49.2842 2.41192 -1.79574 0
M  V30 515 C 50.8322 2.54928 -1.81606 0
M  V30 516 C 51.3072 3.58709 -2.84766 0
M  V30 517 N 52.7982 3.66212 -2.83625 0
M  V30 518 C 53.5332 4.46225 -3.60098 0
M  V30 519 N 53.0292 5.29888 -4.46308 0
M  V30 520 N 54.8222 4.40939 -3.4861 0
M  V30 521 H 46.9732 0.848221 -1.94728 0
M  V30 522 H 49.2362 0.435081 -0.842264 0
M  V30 523 H 48.9422 2.11669 -2.80872 0
M  V30 524 H 48.8162 3.40467 -1.62365 0
M  V30 525 H 51.2032 2.83771 -0.809817 0
M  V30 526 H 51.2842 1.55784 -2.02891 0
M  V30 527 H 50.9282 3.30607 -3.85566 0
M  V30 528 H 50.8582 4.57519 -2.60737 0
M  V30 529 H 53.3492 3.06466 -2.21105 0
M  V30 530 H 53.6622 5.88078 -5.01382 0
M  V30 531 H 52.0072 5.29326 -4.50377 0
M  V30 532 H 55.1982 3.74624 -2.80668 0
M  V30 533 H 55.3712 5.03056 -4.08459 0
M  V30 534 N 48.7773 0.814389 1.34928 0
M  V30 535 C 49.7073 0.244827 2.32213 0
M  V30 536 C 50.6883 -0.634024 1.57842 0
M  V30 537 O 51.8733 -0.562676 1.8587 0
M  V30 538 C 49.0033 -0.601106 3.42058 0
M  V30 539 C 47.9573 0.179896 4.27622 0
M  V30 540 C 47.2833 -0.788237 5.28858 0
M  V30 541 C 48.5833 1.38329 5.03649 0
M  V30 542 H 50.2773 1.05763 2.80097 0
M  V30 543 H 47.8233 0.510029 1.34665 0
M  V30 544 H 49.7763 -1.00968 4.09125 0
M  V30 545 H 48.5003 -1.44688 2.92802 0
M  V30 546 H 47.1593 0.569739 3.62146 0
M  V30 547 H 46.8073 -1.62973 4.75866 0
M  V30 548 H 46.5073 -0.269942 5.8698 0
M  V30 549 H 48.0313 -1.19485 5.98795 0
M  V30 550 H 49.4453 1.04918 5.63618 0
M  V30 551 H 47.8423 1.83662 5.71304 0
M  V30 552 H 48.9123 2.16592 4.33839 0
M  V30 553 N 50.2554 -1.46986 0.568584 0
M  V30 554 C 51.2184 -2.28624 -0.162366 0
M  V30 555 C 52.2184 -1.37596 -0.832103 0
M  V30 556 O 53.4084 -1.60115 -0.68622 0
M  V30 557 C 50.5404 -3.17596 -1.23878 0
M  V30 558 H 51.7334 -2.94722 0.554899 0
M  V30 559 H 49.2864 -1.52863 0.325976 0
M  V30 560 H 50.0214 -2.56214 -1.98808 0
M  V30 561 H 49.8064 -3.846 -0.763219 0
M  V30 562 H 51.2964 -3.79078 -1.75185 0
M  V30 563 N 51.7335 -0.305618 -1.54608 0
M  V30 564 C 52.6635 0.561482 -2.26649 0
M  V30 565 C 53.6445 1.13415 -1.26772 0
M  V30 566 O 54.8295 1.16262 -1.55553 0
M  V30 567 C 51.9595 1.73122 -3.01075 0
M  V30 568 C 50.9135 1.2887 -4.08138 0
M  V30 569 C 50.2395 2.54396 -4.70305 0
M  V30 570 C 51.5395 0.416578 -5.20636 0
M  V30 571 H 53.2335 -0.0393902 -2.99374 0
M  V30 572 H 50.7795 -0.020385 -1.43986 0
M  V30 573 H 52.7325 2.34396 -3.50195 0
M  V30 574 H 51.4565 2.3584 -2.25936 0
M  V30 575 H 50.1155 0.698991 -3.59875 0
M  V30 576 H 49.7635 3.15439 -3.918 0
M  V30 577 H 49.4635 2.25486 -5.42614 0
M  V30 578 H 50.9875 3.16464 -5.2219 0
M  V30 579 H 52.4015 0.935116 -5.65622 0
M  V30 580 H 50.7985 0.221046 -5.99693 0
M  V30 581 H 51.8685 -0.557162 -4.81688 0
M  V30 582 N 53.2116 1.57565 -0.0334293 0
M  V30 583 C 54.1416 2.13511 0.945265 0
M  V30 584 C 55.1226 1.05231 1.33643 0
M  V30 585 O 56.3076 1.33084 1.41429 0
M  V30 586 C 53.4376 2.6657 2.22616 0
M  V30 587 C 52.3916 3.79676 1.97561 0
M  V30 588 C 51.7176 4.1918 3.31952 0
M  V30 589 C 53.0176 5.0557 1.31135 0
M  V30 590 H 54.7116 2.95538 0.479325 0
M  V30 591 H 52.2576 1.42166 0.229115 0
M  V30 592 H 54.2106 3.04344 2.91466 0
M  V30 593 H 52.9346 1.8171 2.71384 0
M  V30 594 H 51.5936 3.42347 1.31127 0
M  V30 595 H 51.2416 3.31296 3.78487 0
M  V30 596 H 50.9416 4.95402 3.15992 0
M  V30 597 H 52.4656 4.59541 4.02063 0
M  V30 598 H 53.8796 5.40903 1.89992 0
M  V30 599 H 52.2766 5.86818 1.25559 0
M  V30 600 H 53.3466 4.84062 0.284894 0
M  V30 601 N 54.6897 -0.239769 1.55765 0
M  V30 602 C 55.6527 -1.28038 1.90103 0
M  V30 603 C 56.6527 -1.40723 0.778055 0
M  V30 604 O 57.8427 -1.39301 1.04599 0
M  V30 605 C 54.9747 -2.65702 2.13577 0
M  V30 606 H 56.1677 -0.988048 2.83157 0
M  V30 607 H 53.7207 -0.479382 1.48767 0
M  V30 608 H 54.4557 -3.00063 1.23015 0
M  V30 609 H 54.2407 -2.57875 2.95369 0
M  V30 610 H 55.7307 -3.40828 2.41301 0
M  V30 611 N 56.1678 -1.49265 -0.50573 0
M  V30 612 C 57.3928 -1.62478 -1.28902 0
M  V30 613 C 57.8178 -0.294332 -1.85783 0
M  V30 614 O 57.1758 0.737412 -1.65626 0
M  V30 615 C 57.2238 -2.69268 -2.39848 0
M  V30 616 O 56.3278 -2.28113 -3.43567 0
M  V30 617 H 55.6688 -0.54399 -0.380751 0
M  V30 618 H 58.1988 -1.95421 -0.605952 0
M  V30 619 H 58.2088 -2.91291 -2.85681 0
M  V30 620 H 56.8838 -3.65846 -1.97812 0
M  V30 621 H 55.4608 -2.16401 -3.03685 0
M  V30 622 N 57.6459 0.756429 -1.3826 0
M  V30 623 C 58.8709 1.55077 -1.37717 0
M  V30 624 C 59.2959 1.88073 0.03164 0
M  V30 625 O 58.6539 1.50364 1.01293 0
M  V30 626 C 58.7019 2.8283 -2.23695 0
M  V30 627 O 57.8059 3.77862 -1.6521 0
M  V30 628 H 57.1469 0.469152 -0.469885 0
M  V30 629 H 59.6769 0.935019 -1.81985 0
M  V30 630 H 59.6869 3.31783 -2.37453 0
M  V30 631 H 58.3619 2.58144 -3.2609 0
M  V30 632 H 56.9389 3.36555 -1.60578 0
M  V30 633 N 59.124 1.23083 0.984299 0
M  V30 634 C 60.034 1.02515 2.11016 0
M  V30 635 C 61.05 -0.0291702 1.73976 0
M  V30 636 O 62.226 0.165434 2.00719 0
M  V30 637 C 59.291 0.614673 3.41208 0
M  V30 638 C 58.352 1.74359 3.92297 0
M  V30 639 C 57.585 1.35261 5.16275 0
M  V30 640 O 57.808 0.235136 5.69915 0
M  V30 641 O 56.742 2.17227 5.61334 0
M  V30 642 H 60.568 1.96862 2.31255 0
M  V30 643 H 58.153 1.01753 1.09392 0
M  V30 644 H 60.035 0.396518 4.1953 0
M  V30 645 H 58.71 -0.299851 3.22308 0
M  V30 646 H 57.617 2.01635 3.1511 0
M  V30 647 H 58.95 2.63629 4.15645 0
M  V30 648 N 60.6021 -1.18246 1.0419 0
M  V30 649 C 62.0131 -1.69914 0.773698 0
M  V30 650 C 62.3641 -1.83085 -0.705297 0
M  V30 651 O 61.4891 -1.51123 -1.5489 0
M  V30 652 C 62.0841 -3.08619 1.39784 0
M  V30 653 C 60.6431 -3.57494 1.17792 0
M  V30 654 C 59.7901 -2.34013 1.48773 0
M  V30 655 H 62.7411 -1.02904 1.20816 0
M  V30 656 H 62.7621 -3.71958 0.801714 0
M  V30 657 H 62.2741 -2.99001 2.47426 0
M  V30 658 H 60.3751 -3.72406 0.120295 0
M  V30 659 H 60.4881 -4.40852 1.87581 0
M  V30 660 H 58.8521 -2.37986 0.907463 0
M  V30 661 H 59.6351 -2.27013 2.57527 0
M  V30 662 N 62.0802 -0.821533 -1.34494 0
M  V30 663 C 63.4912 -0.467956 -1.8074 0
M  V30 664 C 63.8422 1.01151 -1.68116 0
M  V30 665 O 62.9672 1.78707 -1.22036 0
M  V30 666 C 63.5622 -0.842627 -3.28154 0
M  V30 667 C 62.1212 -0.541439 -3.72485 0
M  V30 668 C 61.2682 -1.06028 -2.56229 0
M  V30 669 H 64.2192 -1.01183 -1.22261 0
M  V30 670 H 64.2402 -0.145876 -3.8022 0
M  V30 671 H 63.7522 -1.91945 -3.37311 0
M  V30 672 H 61.8532 0.526034 -3.68868 0
M  V30 673 H 61.9662 -1.08453 -4.66663 0
M  V30 674 H 60.3302 -0.481892 -2.501 0
M  V30 675 H 61.1132 -2.14352 -2.68157 0
M  V30 676 N 63.5583 1.46682 -0.576371 0
M  V30 677 C 64.8063 2.02013 -0.0594163 0
M  V30 678 C 65.1273 1.45101 1.30271 0
M  V30 679 O 64.3973 0.633317 1.8538 0
M  V30 680 H 62.9773 0.746759 -0.0189745 0
M  V30 681 H 65.6393 1.79862 -0.750717 0
M  V30 682 H 64.7353 3.12097 0.014345 0
M  V30 683 N 65.0364 0.313813 1.54444 0
M  V30 684 C 66.3134 -0.345447 1.92525 0
M  V30 685 C 66.6934 -1.70667 1.24242 0
M  V30 686 O 66.0414 -2.25273 0.382654 0
M  V30 687 C 66.2514 -0.44737 3.46121 0
M  V30 688 C 67.5994 -0.712238 4.18584 0
M  V30 689 O 68.6234 -0.530678 3.52225 0
M  V30 690 O 67.4824 -1.06183 5.36085 0
M  V30 691 H 64.5764 -0.195407 0.803583 0
M  V30 692 H 67.1224 0.362813 1.65776 0
M  V30 693 H 65.8944 0.509043 3.87975 0
M  V30 694 H 65.5174 -1.20359 3.78945 0
M  V30 695 N 66.5145 -1.57545 0.0417849 0
M  V30 696 C 67.7545 -1.94185 -0.63809 0
M  V30 697 C 68.1185 -0.919339 -1.68559 0
M  V30 698 O 69.3195 -1.17236 -2.41886 0
M  V30 699 C 67.5905 -3.35672 -1.22714 0
M  V30 700 S 69.1495 -3.94256 -1.92633 0
M  V30 701 H 65.9675 -0.679353 -0.209764 0
M  V30 702 H 68.5695 -1.95199 0.108479 0
M  V30 703 H 67.2735 -4.07898 -0.452503 0
M  V30 704 H 66.8045 -3.38132 -2.01073 0
M  V30 705 H 68.8195 -3.7872 -3.20602 0
M  V30 706 N 67.9926 0.231505 -1.5589 0
M  V30 707 C 68.9226 1.29022 -1.94617 0
M  V30 708 C 69.9036 1.4941 -0.813067 0
M  V30 709 O 71.0886 1.6176 -1.07459 0
M  V30 710 C 68.2186 2.64199 -2.25424 0
M  V30 711 C 67.1726 2.58484 -3.41131 0
M  V30 712 C 66.4986 3.97599 -3.57518 0
M  V30 713 C 67.7986 2.1413 -4.76388 0
M  V30 714 H 69.4926 0.968563 -2.83301 0
M  V30 715 H 67.0386 0.464479 -1.36303 0
M  V30 716 H 68.9916 3.38413 -2.51107 0
M  V30 717 H 67.7156 2.98032 -1.33583 0
M  V30 718 H 66.3746 1.86727 -3.15481 0
M  V30 719 H 66.0226 4.28723 -2.6307 0
M  V30 720 H 65.7226 3.94659 -4.35337 0
M  V30 721 H 67.2466 4.7349 -3.85538 0
M  V30 722 H 68.6606 2.78083 -5.01341 0
M  V30 723 H 67.0576 2.2227 -5.57419 0
M  V30 724 H 68.1276 1.09331 -4.72414 0
M  V30 725 N 69.4707 1.49531 0.497807 0
M  V30 726 C 70.6987 1.62893 1.27567 0
M  V30 727 C 71.1137 0.301585 1.86376 0
M  V30 728 O 70.4707 -0.713335 1.67982 0
M  V30 729 C 70.5217 2.70013 2.40364 0
M  V30 730 O 70.2427 3.976 1.83972 0
M  V30 731 C 71.7437 2.94109 3.31685 0
M  V30 732 H 68.9637 0.548298 0.386794 0
M  V30 733 H 71.5077 1.95584 0.597245 0
M  V30 734 H 69.6627 2.40092 3.04031 0
M  V30 735 H 70.0767 4.56631 2.58047 0
M  V30 736 H 71.5507 3.72788 4.07104 0
M  V30 737 H 72.0277 2.04147 3.88871 0
M  V30 738 H 72.6337 3.2546 2.73781 0
M  V30 739 N 70.9488 -0.749086 1.3866 0
M  V30 740 C 72.1768 -1.53834 1.38358 0
M  V30 741 C 72.5918 -1.88783 -0.0255219 0
M  V30 742 O 71.9488 -1.53101 -0.993292 0
M  V30 743 C 71.9998 -2.83468 2.2434 0
M  V30 744 O 71.7208 -2.50008 3.5976 0
M  V30 745 C 73.2218 -3.7758 2.32267 0
M  V30 746 H 70.4418 -0.47585 0.473083 0
M  V30 747 H 72.9858 -0.926726 1.82297 0
M  V30 748 H 71.1408 -3.40995 1.83851 0
M  V30 749 H 71.5548 -3.33182 4.05081 0
M  V30 750 H 73.0288 -4.65478 2.96706 0
M  V30 751 H 73.5058 -4.18334 1.33765 0
M  V30 752 H 74.1118 -3.25976 2.73166 0
M  V30 753 N 72.4269 -1.23603 -0.977757 0
M  V30 754 C 73.3899 -1.02069 -2.05218 0
M  V30 755 C 74.3899 0.0184305 -1.60789 0
M  V30 756 O 75.5799 -0.221569 -1.72785 0
M  V30 757 C 72.7119 -0.544926 -3.36517 0
M  V30 758 H 73.9049 -1.9742 -2.25755 0
M  V30 759 H 71.4579 -1.05684 -1.15155 0
M  V30 760 H 72.1929 0.412241 -3.21669 0
M  V30 761 H 71.9779 -1.2948 -3.70105 0
M  V30 762 H 73.4679 -0.414985 -4.15533 0
M  V30 763 N 73.905 1.17692 -1.04816 0
M  V30 764 C 75.153 1.87488 -0.754497 0
M  V30 765 C 75.474 1.81205 0.720407 0
M  V30 766 O 74.744 1.23544 1.52032 0
M  V30 767 H 73.324 0.694101 -0.276102 0
M  V30 768 H 75.986 1.42793 -1.32651 0
M  V30 769 H 75.082 2.93328 -1.06606 0
M  V30 770 N 75.3831 0.828654 1.34056 0
M  V30 771 C 76.6601 0.341809 1.9259 0
M  V30 772 C 77.0401 -1.17158 1.75605 0
M  V30 773 O 76.3881 -1.98132 1.13824 0
M  V30 774 C 76.5981 0.777453 3.4023 0
M  V30 775 C 77.9461 0.779579 4.17382 0
M  V30 776 O 78.9701 0.7204 3.48839 0
M  V30 777 O 77.8291 0.857996 5.39723 0
M  V30 778 H 74.9231 0.0946085 0.821571 0
M  V30 779 H 77.4691 0.913827 1.42994 0
M  V30 780 H 76.2411 1.8196 3.46419 0
M  V30 781 H 75.8641 0.181444 3.97186 0
M  V30 782 N 76.8612 -1.46375 0.584142 0
M  V30 783 C 77.8082 -2.30323 -0.148286 0
M  V30 784 C 78.7782 -1.40703 -0.882713 0
M  V30 785 O 79.9632 -1.69651 -0.873099 0
M  V30 786 C 77.1032 -3.25196 -1.15507 0
M  V30 787 C 76.2162 -4.29915 -0.423943 0
M  V30 788 C 75.3512 -5.11914 -1.41838 0
M  V30 789 C 74.3902 -6.08381 -0.673736 0
M  V30 790 N 73.5272 -6.83242 -1.6163 0
M  V30 791 H 78.3672 -2.92427 0.573644 0
M  V30 792 H 75.9042 -1.44118 0.294703 0
M  V30 793 H 77.8622 -3.78646 -1.75166 0
M  V30 794 H 76.4922 -2.64898 -1.8447 0
M  V30 795 H 75.5442 -3.7931 0.287714 0
M  V30 796 H 76.8562 -4.98549 0.158128 0
M  V30 797 H 76.0102 -5.69648 -2.08773 0
M  V30 798 H 74.7492 -4.43243 -2.03438 0
M  V30 799 H 73.7542 -5.49799 0.00938483 0
M  V30 800 H 74.9792 -6.79071 -0.0631082 0
M  V30 801 H 72.9252 -6.1728 -2.22038 0
M  V30 802 H 72.8422 -7.48144 -1.08707 0
M  V30 803 H 74.1102 -7.45534 -2.27596 0
M  V30 804 N 78.3393 -0.321999 -1.54275 0
M  V30 805 C 79.2693 0.537411 -2.27231 0
M  V30 806 C 80.2503 1.12064 -1.27968 0
M  V30 807 O 81.4353 1.14606 -1.56777 0
M  V30 808 C 78.5653 1.69919 -3.02894 0
M  V30 809 C 77.5193 1.24534 -4.09482 0
M  V30 810 C 76.8453 2.49394 -4.72977 0
M  V30 811 C 78.1453 0.361335 -5.21049 0
M  V30 812 H 79.8393 -0.0711406 -2.99315 0
M  V30 813 H 77.3853 -0.0356555 -1.43956 0
M  V30 814 H 79.3383 2.30668 -3.52662 0
M  V30 815 H 78.0623 2.33431 -2.28424 0
M  V30 816 H 76.7213 0.660782 -3.60596 0
M  V30 817 H 76.3693 3.11265 -3.95124 0
M  V30 818 H 76.0693 2.19718 -5.44975 0
M  V30 819 H 77.5933 3.10908 -5.25517 0
M  V30 820 H 79.0073 0.875072 -5.66582 0
M  V30 821 H 77.4043 0.157428 -5.99893 0
M  V30 822 H 78.4743 -0.60822 -4.8107 0
M  V30 823 N 79.8174 1.5752 -0.0501392 0
M  V30 824 C 80.7494 2.08413 0.95376 0
M  V30 825 C 81.7624 1.01175 1.27544 0
M  V30 826 O 82.9514 1.28744 1.23641 0
M  V30 827 C 80.0514 2.51138 2.27559 0
M  V30 828 C 79.2244 3.817 2.13598 0
M  V30 829 C 78.2834 4.10749 3.28895 0
M  V30 830 O 77.3094 4.80685 3.04845 0
M  V30 831 N 78.5114 3.62579 4.5334 0
M  V30 832 H 81.2764 2.95165 0.519383 0
M  V30 833 H 78.8374 1.61327 0.136127 0
M  V30 834 H 80.8294 2.67648 3.03557 0
M  V30 835 H 79.3994 1.6964 2.62567 0
M  V30 836 H 78.6194 3.74782 1.22197 0
M  V30 837 H 79.9074 4.67201 2.01496 0
M  V30 838 H 79.3054 3.06039 4.75769 0
M  V30 839 H 77.8624 3.84329 5.26436 0
M  V30 840 N 81.2955 -0.223234 1.56011 0
M  V30 841 C 82.7065 -0.790368 1.69145 0
M  V30 842 C 83.0575 -1.85055 0.651845 0
M  V30 843 O 82.1825 -2.15498 -0.197359 0
M  V30 844 C 82.7775 -1.4404 3.06656 0
M  V30 845 C 81.3365 -1.95494 3.2165 0
M  V30 846 C 80.4835 -0.814506 2.65068 0
M  V30 847 H 83.4345 0.00139011 1.587 0
M  V30 848 H 83.4555 -2.30916 3.0242 0
M  V30 849 H 82.9675 -0.668543 3.82298 0
M  V30 850 H 81.0685 -2.75487 2.50874 0
M  V30 851 H 81.1815 -2.13607 4.28846 0
M  V30 852 H 79.5455 -1.22137 2.23505 0
M  V30 853 H 80.3285 -0.0553515 3.43255 0
M  V30 854 N 82.7736 -1.49793 -0.48987 0
M  V30 855 C 83.9986 -1.63836 -1.27172 0
M  V30 856 C 84.4236 -0.31402 -1.8546 0
M  V30 857 O 83.7816 0.719803 -1.66399 0
M  V30 858 C 83.8296 -2.71797 -2.36978 0
M  V30 859 O 82.9336 -2.31744 -3.41128 0
M  V30 860 H 82.2746 -0.547997 -0.37496 0
M  V30 861 H 84.8046 -1.96053 -0.585191 0
M  V30 862 H 84.8146 -2.94305 -2.82575 0
M  V30 863 H 83.4896 -3.67923 -1.93921 0
M  V30 864 H 82.0666 -2.1961 -3.01373 0
M  V30 865 N 84.2517 0.741722 -1.39055 0
M  V30 866 C 85.6627 1.31966 -1.32068 0
M  V30 867 C 86.0137 1.96192 0.0180797 0
M  V30 868 O 85.1387 1.95861 0.920196 0
M  V30 869 C 85.7337 2.39954 -2.39181 0
M  V30 870 C 84.2927 2.93438 -2.35735 0
M  V30 871 C 83.4397 1.66936 -2.21422 0
M  V30 872 H 86.3907 0.539721 -1.4924 0
M  V30 873 H 86.4117 3.20182 -2.05581 0
M  V30 874 H 85.9237 1.9318 -3.36605 0
M  V30 875 H 84.0247 3.4451 -1.41929 0
M  V30 876 H 84.1377 3.4701 -3.30335 0
M  V30 877 H 82.5017 1.91016 -1.68478 0
M  V30 878 H 83.2847 1.22224 -3.20806 0
M  V30 879 N 85.7298 1.2412 0.971189 0
M  V30 880 C 87.1408 1.07236 1.52831 0
M  V30 881 C 87.4918 -0.357352 1.92918 0
M  V30 882 O 86.6168 -1.24528 1.76979 0
M  V30 883 C 87.2118 1.94043 2.77728 0
M  V30 884 C 85.7708 1.81394 3.29808 0
M  V30 885 C 84.9178 1.89189 2.02738 0
M  V30 886 H 87.8688 1.37648 0.789864 0
M  V30 887 H 87.8898 1.47066 3.5093 0
M  V30 888 H 87.4018 2.98093 2.4852 0
M  V30 889 H 85.5028 0.801634 3.63874 0
M  V30 890 H 85.6158 2.65294 3.98944 0
M  V30 891 H 83.9798 1.32877 2.17292 0
M  V30 892 H 84.7628 2.94812 1.759 0
M  V30 893 N 87.2079 -1.17134 1.05439 0
M  V30 894 C 88.6189 -1.69084 0.791676 0
M  V30 895 C 88.9699 -1.83822 -0.685839 0
M  V30 896 O 88.0949 -1.52757 -1.53278 0
M  V30 897 C 88.6899 -3.07119 1.4305 0
M  V30 898 C 87.2489 -3.56225 1.21577 0
M  V30 899 C 86.3959 -2.32421 1.51247 0
M  V30 900 H 89.3469 -1.01617 1.219 0
M  V30 901 H 89.3679 -3.71087 0.84112 0
M  V30 902 H 88.8799 -2.9636 2.50584 0
M  V30 903 H 86.9809 -3.72257 0.159787 0
M  V30 904 H 87.0939 -4.38837 1.92246 0
M  V30 905 H 85.4579 -2.3701 0.932653 0
M  V30 906 H 86.2409 -2.24268 2.5992 0
M  V30 907 N 88.686 -0.835752 -1.33615 0
M  V30 908 C 89.616 -0.281739 -2.31794 0
M  V30 909 C 90.597 0.608833 -1.58831 0
M  V30 910 O 91.782 0.533035 -1.86741 0
M  V30 911 C 88.912 0.546612 -3.42971 0
M  V30 912 C 87.866 -0.247904 -4.27281 0
M  V30 913 C 87.192 0.704001 -5.30045 0
M  V30 914 C 88.492 -1.46324 -5.01385 0
M  V30 915 H 90.186 -1.10206 -2.78379 0
M  V30 916 H 87.732 -0.531388 -1.33837 0
M  V30 917 H 89.685 0.944467 -4.1068 0
M  V30 918 H 88.409 1.40011 -2.95067 0
M  V30 919 H 87.068 -0.627281 -3.61194 0
M  V30 920 H 86.716 1.55381 -4.78399 0
M  V30 921 H 86.416 0.176524 -5.87335 0
M  V30 922 H 87.94 1.09944 -6.0062 0
M  V30 923 H 89.354 -1.13871 -5.61877 0
M  V30 924 H 87.751 -1.92728 -5.6831 0
M  V30 925 H 88.821 -2.23467 -4.30338 0
M  V30 926 N 90.1641 1.46063 -0.591896 0
M  V30 927 C 91.3891 2.07226 -0.0850314 0
M  V30 928 C 91.8141 1.43625 1.21463 0
M  V30 929 O 91.1721 0.523305 1.73583 0
M  V30 930 C 91.2201 3.60554 0.0576567 0
M  V30 931 O 90.3241 3.97128 1.11188 0
M  V30 932 H 89.6651 0.660615 -0.0669568 0
M  V30 933 H 92.1951 1.8756 -0.81745 0
M  V30 934 H 92.2051 4.07165 0.2609 0
M  V30 935 H 90.8801 4.06235 -0.891416 0
M  V30 936 H 89.4571 3.62213 0.886356 0
M  V30 937 N 91.6422 0.330177 1.54103 0
M  V30 938 C 93.0532 -0.15652 1.86043 0
M  V30 939 C 93.4042 -1.51086 1.2517 0
M  V30 940 O 92.5292 -2.09023 0.560217 0
M  V30 941 C 93.1242 -0.290784 3.3755 0
M  V30 942 C 91.6832 -0.721705 3.69416 0
M  V30 943 C 90.8302 0.152622 2.7688 0
M  V30 944 H 93.7812 0.550237 1.48856 0
M  V30 945 H 93.8022 -1.12058 3.63625 0
M  V30 946 H 93.3142 0.695068 3.81825 0
M  V30 947 H 91.4152 -1.71706 3.30678 0
M  V30 948 H 91.5282 -0.520869 4.7626 0
M  V30 949 H 89.8922 -0.372894 2.51956 0
M  V30 950 H 90.6752 1.13536 3.23982 0
M  V30 951 N 93.1203 -1.57491 0.0584922 0
M  V30 952 C 94.5313 -1.80526 -0.476138 0
M  V30 953 C 94.8823 -0.971334 -1.70469 0
M  V30 954 O 94.0073 -0.190012 -2.15564 0
M  V30 955 C 94.6023 -3.27424 -0.870587 0
M  V30 956 C 93.1613 -3.51351 -1.35015 0
M  V30 957 C 92.3083 -2.75343 -0.32887 0
M  V30 958 H 95.2593 -1.56133 0.284312 0
M  V30 959 H 95.2803 -3.38745 -1.73299 0
M  V30 960 H 94.7923 -3.88093 0.0237627 0
M  V30 961 H 92.8933 -2.95971 -2.26345 0
M  V30 962 H 93.0063 -4.60059 -1.33726 0
M  V30 963 H 91.3703 -2.417 -0.803321 0
M  V30 964 H 92.1533 -3.38743 0.557521 0
M  V30 965 N 94.5984 0.214957 -1.56127 0
M  V30 966 C 96.0094 0.781386 -1.69562 0
M  V30 967 C 96.3604 1.84707 -0.66165 0
M  V30 968 O 95.4854 2.156 0.185927 0
M  V30 969 C 96.0804 1.42411 -3.07416 0
M  V30 970 C 94.6394 1.93786 -3.22683 0
M  V30 971 C 93.7864 0.800438 -2.65496 0
M  V30 972 H 96.7374 -0.00980633 -1.58697 0
M  V30 973 H 96.7584 2.29309 -3.0364 0
M  V30 974 H 96.2704 0.64826 -3.82648 0
M  V30 975 H 94.3714 2.74152 -2.52332 0
M  V30 976 H 94.4844 2.1133 -4.29973 0
M  V30 977 H 92.8484 1.2095 -2.2415 0
M  V30 978 H 93.6314 0.0371471 -3.4328 0
M  V30 979 N 96.0765 1.50051 0.48192 0
M  V30 980 C 97.4925 1.37237 0.814756 0
M  V30 981 C 97.6925 0.420109 1.97072 0
M  V30 982 O 96.7485 -0.141246 2.52105 0
M  V30 983 C 98.0615 2.78375 1.13701 0
M  V30 984 C 99.6095 2.87213 1.2441 0
M  V30 985 C 100.084 4.29161 1.59954 0
M  V30 986 N 101.575 4.32061 1.66967 0
M  V30 987 C 102.31 5.38879 1.95952 0
M  V30 988 N 101.806 6.55918 2.23031 0
M  V30 989 N 103.599 5.26312 1.97363 0
M  V30 990 H 95.7505 2.10546 -0.28005 0
M  V30 991 H 98.0135 0.945921 -0.0627454 0
M  V30 992 H 97.7195 3.49845 0.360787 0
M  V30 993 H 97.5935 3.14941 2.07586 0
M  V30 994 H 99.9805 2.15969 2.01101 0
M  V30 995 H 100.061 2.54204 0.285299 0
M  V30 996 H 99.7055 5.00938 0.838067 0
M  V30 997 H 99.6355 4.59648 2.56966 0
M  V30 998 H 102.126 3.47661 1.48123 0
M  V30 999 H 102.439 7.33139 2.44391 0
M  V30 1000 H 100.784 6.59112 2.20447 0
M  V30 1001 H 103.975 4.33876 1.75697 0
M  V30 1002 H 104.148 6.09649 2.19618 0
M  V30 1003 N 97.5546 -0.734337 1.39446 0
M  V30 1004 C 98.5176 -1.83004 1.37994 0
M  V30 1005 C 99.5176 -1.58397 0.276938 0
M  V30 1006 O 100.708 -1.65785 0.534875 0
M  V30 1007 C 97.8396 -3.20802 1.1532 0
M  V30 1008 H 99.0326 -1.85694 2.35494 0
M  V30 1009 H 96.5856 -0.938059 1.25021 0
M  V30 1010 H 97.3206 -3.23772 0.185036 0
M  V30 1011 H 97.1056 -3.4006 1.95197 0
M  V30 1012 H 98.5956 -4.00862 1.17046 0
M  V30 1013 N 99.0327 -1.24633 -0.964593 0
M  V30 1014 C 100.444 -1.08045 -1.5226 0
M  V30 1015 C 100.795 0.347116 -1.93105 0
M  V30 1016 O 99.9197 1.23588 -1.77637 0
M  V30 1017 C 100.515 -1.95514 -2.76695 0
M  V30 1018 C 99.0737 -1.8314 -3.28841 0
M  V30 1019 C 98.2207 -1.90262 -2.01732 0
M  V30 1020 H 101.172 -1.38064 -0.782553 0
M  V30 1021 H 101.193 -1.48925 -3.50145 0
M  V30 1022 H 100.705 -2.99407 -2.46936 0
M  V30 1023 H 98.8057 -0.82092 -3.63444 0
M  V30 1024 H 98.9187 -2.67406 -3.97531 0
M  V30 1025 H 97.2827 -1.34027 -2.16584 0
M  V30 1026 H 98.0657 -2.9574 -1.74334 0
M  V30 1027 N 100.511 1.16574 -1.06058 0
M  V30 1028 C 101.922 1.68662 -0.800632 0
M  V30 1029 C 102.273 1.84184 0.67608 0
M  V30 1030 O 101.398 1.53568 1.52466 0
M  V30 1031 C 101.993 3.06356 -1.44676 0
M  V30 1032 C 100.552 3.55575 -1.23465 0
M  V30 1033 C 99.6988 2.31616 -1.52477 0
M  V30 1034 H 102.65 1.00969 -1.22438 0
M  V30 1035 H 102.671 3.70636 -0.860788 0
M  V30 1036 H 102.183 2.95027 -2.52152 0
M  V30 1037 H 100.284 3.72167 -0.179527 0
M  V30 1038 H 100.397 4.37812 -1.94571 0
M  V30 1039 H 98.7608 2.36512 -0.945209 0
M  V30 1040 H 99.5438 2.22887 -2.61106 0
M  V30 1041 N 101.989 0.842826 1.3317 0
M  V30 1042 C 102.919 0.294028 2.31641 0
M  V30 1043 C 103.9 -0.600401 1.59151 0
M  V30 1044 O 105.085 -0.523124 1.87022 0
M  V30 1045 C 102.215 -0.528416 3.43257 0
M  V30 1046 C 101.169 0.27056 4.27144 0
M  V30 1047 C 100.495 -0.675881 5.30411 0
M  V30 1048 C 101.795 1.48981 5.00602 0
M  V30 1049 H 103.489 1.11681 2.77791 0
M  V30 1050 H 101.035 0.538478 1.33553 0
M  V30 1051 H 102.988 -0.922674 4.11175 0
M  V30 1052 H 101.712 -1.38445 2.95805 0
M  V30 1053 H 100.371 0.646427 3.60856 0
M  V30 1054 H 100.019 -1.52842 4.79216 0
M  V30 1055 H 99.7189 -0.145374 5.8742 0
M  V30 1056 H 101.243 -1.06757 6.01195 0
M  V30 1057 H 102.657 1.16849 5.61266 0
M  V30 1058 H 101.054 1.95739 5.6728 0
M  V30 1059 H 102.124 2.25746 4.29147 0
M  V30 1060 N 103.467 -1.45747 0.599634 0
M  V30 1061 C 104.692 -2.07178 0.0960198 0
M  V30 1062 C 105.117 -1.44268 -1.207 0
M  V30 1063 O 104.475 -0.532503 -1.73303 0
M  V30 1064 C 104.523 -3.60579 -0.0385348 0
M  V30 1065 O 103.627 -3.97713 -1.0908 0
M  V30 1066 H 102.968 -0.660251 0.0704593 0
M  V30 1067 H 105.498 -1.87124 0.827385 0
M  V30 1068 H 105.508 -4.07298 -0.239304 0
M  V30 1069 H 104.183 -4.05756 0.912947 0
M  V30 1070 H 102.76 -3.62678 -0.867135 0
M  V30 1071 N 104.945 -0.338344 -1.53925 0
M  V30 1072 C 106.356 0.146651 -1.86123 0
M  V30 1073 C 106.707 1.5042 -1.2597 0
M  V30 1074 O 105.832 2.08723 -0.571294 0
M  V30 1075 C 106.427 0.272879 -3.37699 0
M  V30 1076 C 104.986 0.702103 -3.69794 0
M  V30 1077 C 104.133 -0.167304 -2.76795 0
M  V30 1078 H 107.084 -0.558123 -1.48562 0
M  V30 1079 H 107.105 1.10128 -3.64214 0
M  V30 1080 H 106.617 -0.715307 -3.81451 0
M  V30 1081 H 104.718 1.6995 -3.31584 0
M  V30 1082 H 104.831 0.495604 -4.7653 0
M  V30 1083 H 103.195 0.359527 -2.5215 0
M  V30 1084 H 103.978 -1.15253 -3.23375 0
M  V30 1085 N 106.423 1.57458 -0.0668435 0
M  V30 1086 C 107.671 1.92919 0.602214 0
M  V30 1087 C 107.992 0.947215 1.70449 0
M  V30 1088 O 107.262 -0.00544117 1.95899 0
M  V30 1089 H 105.842 0.71217 0.22544 0
M  V30 1090 H 108.504 1.94508 -0.123535 0
M  V30 1091 H 107.6 2.94589 1.03073 0
M  V30 1092 N 107.901 -0.206675 1.56239 0
M  V30 1093 C 109.312 -0.772383 1.69974 0
M  V30 1094 C 109.663 -1.84353 0.671436 0
M  V30 1095 O 108.788 -2.15695 -0.174491 0
M  V30 1096 C 109.383 -1.40779 3.08167 0
M  V30 1097 C 107.942 -1.92072 3.23706 0
M  V30 1098 C 107.089 -0.786347 2.65917 0
M  V30 1099 H 110.04 0.0182223 1.5869 0
M  V30 1100 H 110.061 -2.27696 3.04852 0
M  V30 1101 H 109.573 -0.627958 3.82986 0
M  V30 1102 H 107.674 -2.7281 2.53782 0
M  V30 1103 H 107.787 -2.09046 4.31087 0
M  V30 1104 H 106.151 -1.1976 2.24788 0
M  V30 1105 H 106.934 -0.0189416 3.43295 0
M  V30 1106 N 109.379 -1.50304 -0.473955 0
M  V30 1107 C 110.627 -1.60832 -1.22382 0
M  V30 1108 C 110.948 -0.30939 -1.9253 0
M  V30 1109 O 110.218 0.67296 -1.83978 0
M  V30 1110 H 108.798 -0.592652 -0.454723 0
M  V30 1111 H 111.46 -1.87068 -0.546968 0
M  V30 1112 H 110.556 -2.41803 -1.97327 0
M  V30 1113 N 110.857 0.726932 -1.39834 0
M  V30 1114 C 112.105 1.4837 -1.37225 0
M  V30 1115 C 112.426 1.94979 0.0284857 0
M  V30 1116 O 111.696 1.69555 0.981213 0
M  V30 1117 H 110.276 0.55043 -0.505011 0
M  V30 1118 H 112.938 0.862468 -1.74778 0
M  V30 1119 H 112.034 2.36198 -2.04003 0
M  V30 1120 N 112.336 1.25143 0.95797 0
M  V30 1121 C 113.576 1.10893 1.71703 0
M  V30 1122 C 113.94 -0.34478 1.88879 0
M  V30 1123 O 115.141 -0.609014 2.6181 0
M  V30 1124 C 113.412 1.83889 3.06463 0
M  V30 1125 S 114.971 1.85491 3.97666 0
M  V30 1126 H 111.789 0.396428 0.590226 0
M  V30 1127 H 114.391 1.58618 1.14283 0
M  V30 1128 H 113.095 2.88756 2.9163 0
M  V30 1129 H 112.626 1.36538 3.68946 0
M  V30 1130 H 114.641 0.929553 4.87415 0
M  V30 1131 N 113.814 -1.1601 1.06675 0
M  V30 1132 C 115.061 -1.86633 0.785781 0
M  V30 1133 C 115.389 -1.81929 -0.687896 0
M  V30 1134 O 114.644 -1.23253 -1.52011 0
M  V30 1135 C 114.943 -3.35547 1.23057 0
M  V30 1136 C 114.609 -3.60448 2.70902 0
M  V30 1137 C 113.271 -3.66954 3.11285 0
M  V30 1138 C 115.623 -3.7071 3.66365 0
M  V30 1139 C 112.951 -3.81225 4.45965 0
M  V30 1140 C 115.303 -3.86503 5.00797 0
M  V30 1141 C 113.967 -3.91252 5.40813 0
M  V30 1142 H 113.237 -0.682937 0.287538 0
M  V30 1143 H 115.884 -1.37146 1.33654 0
M  V30 1144 H 114.189 -3.87193 0.59907 0
M  V30 1145 H 115.886 -3.88583 0.990163 0
M  V30 1146 H 112.476 -3.56021 2.38636 0
M  V30 1147 H 116.66 -3.64991 3.36296 0
M  V30 1148 H 111.916 -3.83155 4.76447 0
M  V30 1149 H 116.09 -3.93385 5.74649 0
M  V30 1150 H 113.717 -4.02062 6.45174 0
M  V30 1151 N 115.292 -0.849877 -1.32721 0
M  V30 1152 C 116.202 -0.293791 -2.32753 0
M  V30 1153 C 117.218 0.585906 -1.63839 0
M  V30 1154 O 118.394 0.487413 -1.95413 0
M  V30 1155 C 115.459 0.512752 -3.42887 0
M  V30 1156 C 114.52 -0.39252 -4.27502 0
M  V30 1157 C 113.753 0.375625 -5.32377 0
M  V30 1158 O 113.976 1.60613 -5.4732 0
M  V30 1159 O 112.91 -0.256094 -6.01355 0
M  V30 1160 H 116.736 -1.12242 -2.82197 0
M  V30 1161 H 114.321 -0.612685 -1.36259 0
M  V30 1162 H 116.203 0.970704 -4.10067 0
M  V30 1163 H 114.878 1.31826 -2.95641 0
M  V30 1164 H 113.785 -0.898547 -3.63149 0
M  V30 1165 H 115.118 -1.16309 -4.7826 0
M  V30 1166 N 116.77 1.45427 -0.607355 0
M  V30 1167 C 118.018 2.01841 -0.102253 0
M  V30 1168 C 118.339 1.47832 1.27164 0
M  V30 1169 O 117.609 0.672497 1.83995 0
M  V30 1170 H 116.189 0.746188 -0.0348101 0
M  V30 1171 H 118.851 1.78229 -0.7887 0
M  V30 1172 H 117.947 3.12057 -0.0518585 0
M  V30 1173 N 118.248 0.346503 1.53744 0
M  V30 1174 C 119.496 -0.248612 2.00565 0
M  V30 1175 C 119.817 -1.5083 1.23593 0
M  V30 1176 O 119.087 -1.92858 0.343912 0
M  V30 1177 H 117.667 -0.0948564 0.740953 0
M  V30 1178 H 120.329 0.468341 1.89189 0
M  V30 1179 H 119.425 -0.488994 3.08245 0
M  V30 1180 N 119.726 -1.57421 0.075193 0
M  V30 1181 C 120.689 -2.11791 -0.876203 0
M  V30 1182 C 121.689 -1.04268 -1.22412 0
M  V30 1183 O 122.879 -1.30242 -1.15684 0
M  V30 1184 C 120.011 -2.62207 -2.17854 0
M  V30 1185 H 121.204 -2.9716 -0.40444 0
M  V30 1186 H 118.757 -1.55333 -0.173557 0
M  V30 1187 H 119.492 -1.803 -2.6956 0
M  V30 1188 H 119.277 -3.40802 -1.93897 0
M  V30 1189 H 120.767 -3.04335 -2.85955 0
M  V30 1190 N 121.204 0.198386 -1.56346 0
M  V30 1191 C 122.452 0.91747 -1.80075 0
M  V30 1192 C 122.773 1.83929 -0.647692 0
M  V30 1193 O 122.043 1.93029 0.334166 0
M  V30 1194 H 120.623 0.341774 -0.664228 0
M  V30 1195 H 123.285 0.204684 -1.93822 0
M  V30 1196 H 122.381 1.51055 -2.7311 0
M  V30 1197 N 122.682 1.50554 0.465978 0
M  V30 1198 C 123.63 1.70324 1.58406 0
M  V30 1199 C 124.624 0.569139 1.59553 0
M  V30 1200 O 125.83 0.749776 1.63641 0
M  V30 1201 H 122.205 0.537688 0.525734 0
M  V30 1202 H 124.176 2.64104 1.38894 0
M  V30 1203 C 122.925 1.81928 2.96307 0
M  V30 1204 H 122.248 2.68586 2.96144 0
M  V30 1205 H 123.688 1.99784 3.73982 0
M  V30 1206 C 122.147 0.572095 3.32007 0
M  V30 1207 O 122.677 -0.286416 4.00678 0
M  V30 1208 N 120.883 0.424606 2.87481 0
M  V30 1209 H 120.43 1.12427 2.31771 0
M  V30 1210 H 120.388 -0.408697 3.11732 0
M  V30 1211 N 124.16 -0.719506 1.40217 0
M  V30 1212 C 125.4 -1.49181 1.39729 0
M  V30 1213 C 125.764 -1.92 -0.00250614 0
M  V30 1214 O 126.965 -2.68473 -0.132479 0
M  V30 1215 C 125.236 -2.68767 2.35582 0
M  V30 1216 S 126.795 -3.58224 2.53418 0
M  V30 1217 H 123.613 -0.510091 0.495307 0
M  V30 1218 H 126.215 -0.841724 1.76452 0
M  V30 1219 H 124.919 -2.35475 3.36124 0
M  V30 1220 H 124.45 -3.38691 2.0013 0
M  V30 1221 H 126.465 -4.63033 1.78367 0
M  V30 1222 N 125.638 -1.25649 -0.95132 0
M  V30 1223 C 126.863 -1.13443 -1.73624 0
M  V30 1224 C 127.288 0.307565 -1.85568 0
M  V30 1225 O 126.646 1.22282 -1.33854 0
M  V30 1226 C 126.694 -1.79723 -3.12621 0
M  V30 1227 O 125.798 -1.07912 -3.98031 0
M  V30 1228 H 125.139 -0.395872 -0.533086 0
M  V30 1229 H 127.669 -1.66276 -1.1922 0
M  V30 1230 H 127.679 -1.86141 -3.63064 0
M  V30 1231 H 126.354 -2.84633 -3.03244 0
M  V30 1232 H 124.931 -1.09398 -3.56492 0
M  V30 1233 N 127.117 1.15442 -1.07289 0
M  V30 1234 C 128.342 1.90638 -0.816828 0
M  V30 1235 C 128.767 1.77445 0.624083 0
M  V30 1236 O 128.125 1.10671 1.43602 0
M  V30 1237 C 128.173 3.39008 -1.22906 0
M  V30 1238 O 127.277 4.10701 -0.373975 0
M  V30 1239 H 126.618 0.593555 -0.297638 0
M  V30 1240 H 129.148 1.46198 -1.43134 0
M  V30 1241 H 129.158 3.89801 -1.20497 0
M  V30 1242 H 127.833 3.47929 -2.27856 0
M  V30 1243 H 126.41 3.70046 -0.460499 0
M  V30 1244 N 128.595 0.856903 1.32268 0
M  V30 1245 C 130.011 0.547061 1.49931 0
M  V30 1246 C 130.211 -0.921781 1.7918 0
M  V30 1247 O 129.267 -1.70469 1.8627 0
M  V30 1248 C 130.58 1.43599 2.64196 0
M  V30 1249 C 132.128 1.43665 2.78081 0
M  V30 1250 C 132.603 2.31085 3.95428 0
M  V30 1251 N 134.094 2.28893 4.02694 0
M  V30 1252 C 134.829 2.93262 4.92732 0
M  V30 1253 N 134.325 3.66751 5.87763 0
M  V30 1254 N 136.118 2.82638 4.85873 0
M  V30 1255 H 128.269 1.8075 1.11549 0
M  V30 1256 H 130.532 0.772144 0.549997 0
M  V30 1257 H 130.238 2.48058 2.49319 0
M  V30 1258 H 130.112 1.12502 3.60032 0
M  V30 1259 H 132.499 0.399701 2.92381 0
M  V30 1260 H 132.58 1.7878 1.82952 0
M  V30 1261 H 132.224 3.34849 3.81888 0
M  V30 1262 H 132.154 1.93302 4.89839 0
M  V30 1263 H 134.645 1.75466 3.34694 0
M  V30 1264 H 134.958 4.13027 6.53168 0
M  V30 1265 H 133.303 3.70859 5.87783 0
M  V30 1266 H 136.494 2.24774 4.10602 0
M  V30 1267 H 136.667 3.33084 5.55841 0
M  V30 1268 N 130.073 -1.45103 0.615059 0
M  V30 1269 C 131.321 -2.01784 0.112955 0
M  V30 1270 C 131.642 -1.48504 -1.26378 0
M  V30 1271 O 130.912 -0.682245 -1.83636 0
M  V30 1272 H 129.492 -0.745993 0.0387668 0
M  V30 1273 H 132.154 -1.77808 0.798141 0
M  V30 1274 H 131.25 -3.12025 0.0684069 0
M  V30 1275 N 131.551 -0.354651 -1.53558 0
M  V30 1276 C 132.799 0.237972 -2.00694 0
M  V30 1277 C 133.12 1.50173 -1.24391 0
M  V30 1278 O 132.39 1.92673 -0.354135 0
M  V30 1279 H 130.97 0.0909256 -0.741446 0
M  V30 1280 H 133.632 -0.478368 -1.88938 0
M  V30 1281 H 132.728 0.47264 -3.085 0
M  V30 1282 N 133.029 1.57378 -0.0835403 0
M  V30 1283 C 134.445 1.57246 0.273109 0
M  V30 1284 C 134.645 1.09385 1.69225 0
M  V30 1285 O 133.701 0.765051 2.40631 0
M  V30 1286 C 135.014 3.00614 0.0720628 0
M  V30 1287 C 136.562 3.12684 0.1407 0
M  V30 1288 C 137.037 4.57989 -0.0322094 0
M  V30 1289 N 138.528 4.63194 0.0230085 0
M  V30 1290 C 139.263 5.73335 -0.0861941 0
M  V30 1291 N 138.759 6.9235 -0.24958 0
M  V30 1292 N 140.552 5.62093 -0.0282886 0
M  V30 1293 H 132.703 1.86801 -1.0109 0
M  V30 1294 H 134.966 0.861687 -0.395222 0
M  V30 1295 H 134.672 3.39786 -0.907662 0
M  V30 1296 H 134.546 3.68193 0.81936 0
M  V30 1297 H 136.933 2.73391 1.11092 0
M  V30 1298 H 137.014 2.47719 -0.637896 0
M  V30 1299 H 136.658 4.97973 -0.999247 0
M  V30 1300 H 136.588 5.21 0.765937 0
M  V30 1301 H 139.079 3.77613 0.14722 0
M  V30 1302 H 139.392 7.72117 -0.324733 0
M  V30 1303 H 137.737 6.94415 -0.285097 0
M  V30 1304 H 140.928 4.67997 0.0981408 0
M  V30 1305 H 141.101 6.47895 -0.116845 0
M  V30 1306 N 134.507 -0.190092 1.56449 0
M  V30 1307 C 135.47 -1.21925 1.9408 0
M  V30 1308 C 136.47 -1.38176 0.822431 0
M  V30 1309 O 137.66 -1.35903 1.08977 0
M  V30 1310 C 134.792 -2.58773 2.21922 0
M  V30 1311 H 135.985 -0.897464 2.86157 0
M  V30 1312 H 133.538 -0.43181 1.50217 0
M  V30 1313 H 134.273 -2.95998 1.32499 0
M  V30 1314 H 134.058 -2.48348 3.03424 0
M  V30 1315 H 135.548 -3.32978 2.52022 0
M  V30 1316 N 135.985 -1.50799 -0.457987 0
M  V30 1317 C 137.21 -1.66496 -1.23668 0
M  V30 1318 C 137.635 -0.353288 -1.84752 0
M  V30 1319 O 136.993 0.684346 -1.67888 0
M  V30 1320 C 137.041 -2.76763 -2.3116 0
M  V30 1321 O 136.145 -2.38928 -3.36136 0
M  V30 1322 H 135.486 -0.555828 -0.363252 0
M  V30 1323 H 138.016 -1.9725 -0.543474 0
M  V30 1324 H 138.026 -3.00232 -2.76269 0
M  V30 1325 H 136.701 -3.71954 -1.86073 0
M  V30 1326 H 135.278 -2.25953 -2.96647 0
M  V30 1327 N 137.463 0.71206 -1.40597 0
M  V30 1328 C 138.74 1.46536 -1.29563 0
M  V30 1329 C 139.12 2.10931 0.0844217 0
M  V30 1330 O 138.468 2.00418 1.0975 0
M  V30 1331 C 138.678 2.49821 -2.43701 0
M  V30 1332 C 140.026 3.15551 -2.841 0
M  V30 1333 O 141.05 2.60142 -2.4332 0
M  V30 1334 O 139.909 4.15867 -3.54566 0
M  V30 1335 H 137.003 0.651801 -0.509004 0
M  V30 1336 H 139.549 0.743935 -1.52524 0
M  V30 1337 H 138.321 2.00778 -3.35863 0
M  V30 1338 H 137.944 3.29495 -2.22528 0
M  V30 1339 N 138.941 1.26152 0.944643 0
M  V30 1340 C 139.891 1.04081 2.02857 0
M  V30 1341 C 140.875 -0.0256555 1.6088 0
M  V30 1342 O 142.067 0.190884 1.75968 0
M  V30 1343 C 139.196 0.672118 3.36656 0
M  V30 1344 C 138.282 1.77586 3.85128 0
M  V30 1345 N 138.673 3.01272 4.06287 0
M  V30 1346 C 136.971 1.65867 4.1401 0
M  V30 1347 C 137.672 3.72983 4.46384 0
M  V30 1348 N 136.648 3.00653 4.52889 0
M  V30 1349 H 140.45 1.97968 2.17223 0
M  V30 1350 H 137.964 1.16618 1.13022 0
M  V30 1351 H 139.961 0.495166 4.13949 0
M  V30 1352 H 138.621 -0.259307 3.23663 0
M  V30 1353 H 139.632 3.37213 3.93075 0
M  V30 1354 H 136.309 0.796907 4.09824 0
M  V30 1355 H 137.699 4.792 4.70975 0
M  V30 1356 N 140.419 -1.14872 1.07899 0
M  V30 1357 C 141.83 -1.67367 0.827363 0
M  V30 1358 C 142.181 -1.85236 -0.646693 0
M  V30 1359 O 141.306 -1.55974 -1.50004 0
M  V30 1360 C 141.901 -3.04016 1.49532 0
M  V30 1361 C 140.46 -3.53566 1.29106 0
M  V30 1362 C 139.607 -2.29161 1.56143 0
M  V30 1363 H 142.558 -0.990083 1.24028 0
M  V30 1364 H 142.579 -3.69219 0.919643 0
M  V30 1365 H 142.091 -2.90978 2.56814 0
M  V30 1366 H 140.192 -3.71835 0.238713 0
M  V30 1367 H 140.305 -4.34661 2.01511 0
M  V30 1368 H 138.669 -2.34978 0.982717 0
M  V30 1369 H 139.452 -2.18705 2.64619 0
M  V30 1370 N 141.898 -0.863906 -1.31812 0
M  V30 1371 C 143.146 -0.470904 -1.96537 0
M  V30 1372 C 143.467 0.978771 -1.68657 0
M  V30 1373 O 142.737 1.6853 -0.998717 0
M  V30 1374 H 141.317 -0.171148 -0.72713 0
M  V30 1375 H 143.979 -1.10236 -1.60729 0
M  V30 1376 H 143.075 -0.623616 -3.05806 0
M  V30 1377 N 143.376 1.44774 -0.622745 0
M  V30 1378 C 144.624 2.01721 -0.123655 0
M  V30 1379 C 144.945 1.49172 1.25589 0
M  V30 1380 O 144.215 0.691974 1.83272 0
M  V30 1381 H 142.795 0.745777 -0.0427225 0
M  V30 1382 H 145.457 1.77382 -0.807559 0
M  V30 1383 H 144.553 3.11984 -0.0849534 0
M  V30 1384 N 144.854 0.36279 1.53368 0
M  V30 1385 C 146.102 -0.227326 2.00817 0
M  V30 1386 C 146.423 -1.49511 1.25186 0
M  V30 1387 O 145.693 -1.92482 0.364348 0
M  V30 1388 H 144.273 -0.0869923 0.741917 0
M  V30 1389 H 146.935 0.488381 1.88682 0
M  V30 1390 H 146.031 -0.456273 3.08747 0
M  V30 1391 N 146.332 -1.57332 0.0918853 0
M  V30 1392 C 147.748 -1.57389 -0.264766 0
M  V30 1393 C 147.948 -1.10281 -1.68643 0
M  V30 1394 O 147.004 -0.777801 -2.40222 0
M  V30 1395 C 148.317 -3.00648 -0.0561195 0
M  V30 1396 C 149.865 -3.12754 -0.124116 0
M  V30 1397 C 150.34 -4.57965 0.0564972 0
M  V30 1398 N 151.831 -4.632 0.00155611 0
M  V30 1399 C 152.566 -5.73281 0.116598 0
M  V30 1400 N 152.062 -6.92208 0.286294 0
M  V30 1401 N 153.855 -5.6207 0.0580973 0
M  V30 1402 H 146.006 -1.86262 1.02079 0
M  V30 1403 H 148.269 -0.859579 0.399786 0
M  V30 1404 H 147.975 -3.393 0.925669 0
M  V30 1405 H 147.849 -3.68623 -0.799823 0
M  V30 1406 H 150.236 -2.73976 -1.09641 0
M  V30 1407 H 150.317 -2.47377 0.651024 0
M  V30 1408 H 149.961 -4.97436 1.02564 0
M  V30 1409 H 149.891 -5.21399 -0.738297 0
M  V30 1410 H 152.382 -3.77686 -0.127192 0
M  V30 1411 H 152.695 -7.71934 0.365676 0
M  V30 1412 H 151.04 -6.94254 0.32192 0
M  V30 1413 H 154.231 -4.68043 -0.0733204 0
M  V30 1414 H 154.404 -6.47824 0.151203 0
M  V30 1415 N 147.81 0.181792 -1.56548 0
M  V30 1416 C 148.72 1.24538 -1.98815 0
M  V30 1417 C 149.736 1.49045 -0.897861 0
M  V30 1418 O 150.912 1.61399 -1.20467 0
M  V30 1419 C 147.977 2.56683 -2.33055 0
M  V30 1420 C 147.038 2.40131 -3.55859 0
M  V30 1421 C 146.271 3.65975 -3.88456 0
M  V30 1422 O 146.494 4.70711 -3.22161 0
M  V30 1423 O 145.428 3.6071 -4.81842 0
M  V30 1424 H 149.254 0.916647 -2.89536 0
M  V30 1425 H 146.839 0.387842 -1.44278 0
M  V30 1426 H 148.721 3.34655 -2.56094 0
M  V30 1427 H 147.396 2.89157 -1.45498 0
M  V30 1428 H 146.303 1.60226 -3.38051 0
M  V30 1429 H 147.636 2.12585 -4.43924 0
M  V30 1430 N 149.288 1.51039 0.449983 0
M  V30 1431 C 150.535 1.63081 1.20045 0
M  V30 1432 C 150.863 0.341024 1.91487 0
M  V30 1433 O 150.118 -0.674276 1.83717 0
M  V30 1434 C 150.417 2.77556 2.25161 0
M  V30 1435 C 150.083 4.17289 1.70823 0
M  V30 1436 C 148.745 4.55305 1.55725 0
M  V30 1437 C 151.097 5.04536 1.3074 0
M  V30 1438 C 148.425 5.78287 0.989999 0
M  V30 1439 C 150.777 6.28085 0.754482 0
M  V30 1440 C 149.441 6.64885 0.590308 0
M  V30 1441 H 148.711 0.596755 0.439277 0
M  V30 1442 H 151.358 1.85037 0.49333 0
M  V30 1443 H 149.663 2.49771 3.01863 0
M  V30 1444 H 151.36 2.84073 2.83026 0
M  V30 1445 H 147.95 3.8731 1.83546 0
M  V30 1446 H 152.134 4.75782 1.41229 0
M  V30 1447 H 147.39 6.05456 0.850451 0
M  V30 1448 H 151.564 6.95038 0.435324 0
M  V30 1449 H 149.191 7.60055 0.14862 0
M  V30 1450 N 150.766 -0.704594 1.40972 0
M  V30 1451 C 152.013 -1.46458 1.39844 0
M  V30 1452 C 152.341 -1.94499 0.00447594 0
M  V30 1453 O 151.596 -1.69275 -0.982057 0
M  V30 1454 C 151.895 -2.698 2.34399 0
M  V30 1455 C 151.561 -2.40464 3.81429 0
M  V30 1456 C 150.223 -2.32174 4.21484 0
M  V30 1457 C 152.575 -2.16086 4.74296 0
M  V30 1458 C 149.903 -1.97589 5.52427 0
M  V30 1459 C 152.255 -1.83011 6.05549 0
M  V30 1460 C 150.919 -1.7321 6.44635 0
M  V30 1461 H 150.189 -0.535927 0.511725 0
M  V30 1462 H 152.836 -0.806124 1.73706 0
M  V30 1463 H 151.141 -3.40536 1.93759 0
M  V30 1464 H 152.838 -3.27919 2.30804 0
M  V30 1465 H 149.428 -2.47808 3.49699 0
M  V30 1466 H 153.612 -2.2144 4.4416 0
M  V30 1467 H 148.868 -1.88547 5.81601 0
M  V30 1468 H 153.042 -1.63164 6.77016 0
M  V30 1469 H 150.669 -1.46179 7.46013 0
M  V30 1470 N 152.244 -1.26651 -0.937939 0
M  V30 1471 C 153.491 -1.12387 -1.6845 0
M  V30 1472 C 153.819 0.332208 -1.91642 0
M  V30 1473 O 153.074 1.2602 -1.49725 0
M  V30 1474 C 153.373 -1.84168 -3.06295 0
M  V30 1475 C 153.039 -3.34056 -3.02849 0
M  V30 1476 C 151.701 -3.74942 -3.01616 0
M  V30 1477 C 154.053 -4.29741 -2.9491 0
M  V30 1478 C 151.381 -5.09894 -2.90215 0
M  V30 1479 C 153.733 -5.64738 -2.8505 0
M  V30 1480 C 152.397 -6.0493 -2.82162 0
M  V30 1481 H 151.667 -0.411252 -0.616403 0
M  V30 1482 H 154.314 -1.57134 -1.09459 0
M  V30 1483 H 152.619 -1.319 -3.6893 0
M  V30 1484 H 154.316 -1.70569 -3.62915 0
M  V30 1485 H 150.906 -3.01534 -3.0459 0
M  V30 1486 H 155.09 -3.99133 -2.94969 0
M  V30 1487 H 150.346 -5.40194 -2.86358 0
M  V30 1488 H 154.52 -6.38561 -2.77872 0
M  V30 1489 H 152.147 -7.09457 -2.73084 0
M  V30 1490 N 153.722 1.14298 -1.08507 0
M  V30 1491 C 154.999 1.81544 -0.728088 0
M  V30 1492 C 155.379 1.95838 0.78808 0
M  V30 1493 O 154.727 1.51904 1.70697 0
M  V30 1494 C 154.937 3.17169 -1.45619 0
M  V30 1495 C 156.285 3.9265 -1.61591 0
M  V30 1496 O 157.309 3.26762 -1.41793 0
M  V30 1497 O 156.168 5.10807 -1.94263 0
M  V30 1498 H 153.262 0.78491 -0.260471 0
M  V30 1499 H 155.808 1.21307 -1.18671 0
M  V30 1500 H 154.58 3.01934 -2.489 0
M  V30 1501 H 154.203 3.851 -0.989124 0
M  V30 1502 N 155.201 0.870884 1.31352 0
M  V30 1503 C 156.617 0.562932 1.49343 0
M  V30 1504 C 156.817 -0.902725 1.80148 0
M  V30 1505 O 155.873 -1.68484 1.88067 0
M  V30 1506 C 157.186 1.46393 2.62659 0
M  V30 1507 C 158.734 1.46607 2.76542 0
M  V30 1508 C 159.209 2.35266 3.92955 0
M  V30 1509 N 160.7 2.33151 4.00243 0
M  V30 1510 C 161.435 2.98471 4.89594 0
M  V30 1511 N 160.931 3.72964 5.8384 0
M  V30 1512 N 162.724 2.87775 4.82848 0
M  V30 1513 H 154.875 1.81923 1.09626 0
M  V30 1514 H 157.138 0.777934 0.541777 0
M  V30 1515 H 156.844 2.50689 2.46674 0
M  V30 1516 H 156.718 1.16314 3.58819 0
M  V30 1517 H 159.105 0.43069 2.9194 0
M  V30 1518 H 159.186 1.8071 1.81046 0
M  V30 1519 H 158.83 3.38881 3.78315 0
M  V30 1520 H 158.76 1.98487 4.87761 0
M  V30 1521 H 161.251 1.79006 3.32814 0
M  V30 1522 H 161.564 4.19932 6.4875 0
M  V30 1523 H 159.909 3.77073 5.83816 0
M  V30 1524 H 163.1 2.29116 4.08195 0
M  V30 1525 H 163.273 3.38961 5.52277 0
M  V30 1526 N 156.679 -1.44442 0.630414 0
M  V30 1527 C 157.629 -2.27794 -0.0968103 0
M  V30 1528 C 158.613 -1.38624 -0.816834 0
M  V30 1529 O 159.805 -1.62438 -0.70306 0
M  V30 1530 C 156.934 -3.25929 -1.07819 0
M  V30 1531 C 156.02 -4.22588 -0.357826 0
M  V30 1532 N 156.411 -5.0207 0.613169 0
M  V30 1533 C 154.709 -4.41914 -0.602365 0
M  V30 1534 C 155.41 -5.72351 1.03871 0
M  V30 1535 N 154.386 -5.42287 0.377642 0
M  V30 1536 H 158.188 -2.86653 0.648621 0
M  V30 1537 H 155.702 -1.55871 0.455862 0
M  V30 1538 H 157.699 -3.84399 -1.61378 0
M  V30 1539 H 156.359 -2.68631 -1.82393 0
M  V30 1540 H 157.37 -5.08331 0.990947 0
M  V30 1541 H 154.047 -3.95714 -1.33103 0
M  V30 1542 H 155.437 -6.4619 1.84086 0
M  V30 1543 N 158.157 -0.370918 -1.53173 0
M  V30 1544 C 159.568 0.107139 -1.86392 0
M  V30 1545 C 159.919 1.47714 -1.29132 0
M  V30 1546 O 159.044 2.07464 -0.615439 0
M  V30 1547 C 159.639 0.201187 -3.38202 0
M  V30 1548 C 158.198 0.623507 -3.712 0
M  V30 1549 C 157.345 -0.225978 -2.76378 0
M  V30 1550 H 160.296 -0.58951 -1.47345 0
M  V30 1551 H 160.317 1.02377 -3.66468 0
M  V30 1552 H 159.829 -0.796058 -3.79848 0
M  V30 1553 H 157.93 1.62879 -3.35114 0
M  V30 1554 H 158.043 0.394414 -4.77474 0
M  V30 1555 H 156.407 0.305962 -2.52856 0
M  V30 1556 H 157.19 -1.22086 -3.20858 0
M  V30 1557 N 159.635 1.57281 -0.100228 0
M  V30 1558 C 160.883 1.94153 0.561157 0
M  V30 1559 C 161.204 0.983157 1.68401 0
M  V30 1560 O 160.474 0.0361132 1.95867 0
M  V30 1561 H 159.054 0.716791 0.210283 0
M  V30 1562 H 161.716 1.94202 -0.164765 0
M  V30 1563 H 160.812 2.96709 0.968008 0
M  V30 1564 N 161.113 -0.173488 1.56642 0
M  V30 1565 C 162.359 -0.891784 1.8214 0
M  V30 1566 C 162.692 -1.8199 0.677736 0
M  V30 1567 O 161.967 -1.91842 -0.320446 0
M  V30 1568 C 162.25 -1.68933 3.18015 0
M  V30 1569 C 162.103 -0.784487 4.42906 0
M  V30 1570 C 163.422 -2.65748 3.50808 0
M  V30 1571 H 160.541 -0.322761 0.662567 0
M  V30 1572 H 163.183 -0.158095 1.89341 0
M  V30 1573 H 161.333 -2.31482 3.12007 0
M  V30 1574 H 163.005 -0.172046 4.60979 0
M  V30 1575 H 161.248 -0.0924117 4.33702 0
M  V30 1576 H 161.919 -1.37799 5.34524 0
M  V30 1577 H 164.395 -2.13327 3.57255 0
M  V30 1578 H 163.271 -3.18619 4.4696 0
M  V30 1579 H 163.532 -3.45842 2.75401 0
M  V30 1580 N 162.591 -1.51276 -0.441967 0
M  V30 1581 C 163.838 -1.63715 -1.19179 0
M  V30 1582 C 164.166 -0.351175 -1.91303 0
M  V30 1583 O 163.421 0.664524 -1.84072 0
M  V30 1584 C 163.72 -2.78746 -2.23686 0
M  V30 1585 C 163.386 -4.18189 -1.68607 0
M  V30 1586 C 162.048 -4.56125 -1.53308 0
M  V30 1587 C 164.4 -5.05222 -1.28062 0
M  V30 1588 C 161.728 -5.78804 -0.959317 0
M  V30 1589 C 164.08 -6.28476 -0.721162 0
M  V30 1590 C 162.744 -6.65188 -0.55504 0
M  V30 1591 H 162.014 -0.599076 -0.436106 0
M  V30 1592 H 164.661 -1.85296 -0.48351 0
M  V30 1593 H 162.966 -2.51369 -3.00535 0
M  V30 1594 H 164.663 -2.8557 -2.81515 0
M  V30 1595 H 161.253 -3.88277 -1.8149 0
M  V30 1596 H 165.437 -4.76524 -1.38704 0
M  V30 1597 H 160.693 -6.05899 -0.81833 0
M  V30 1598 H 164.867 -6.95259 -0.398458 0
M  V30 1599 H 162.494 -7.60123 -0.108311 0
M  V30 1600 N 164.069 0.697108 -1.41344 0
M  V30 1601 C 165.032 1.79281 -1.42797 0
M  V30 1602 C 166.032 1.57607 -0.318837 0
M  V30 1603 O 167.222 1.64309 -0.578642 0
M  V30 1604 C 164.354 3.17632 -1.23785 0
M  V30 1605 H 165.547 1.79385 -2.40335 0
M  V30 1606 H 163.1 0.904582 -1.27464 0
M  V30 1607 H 163.835 3.23167 -0.270814 0
M  V30 1608 H 163.62 3.34765 -2.04144 0
M  V30 1609 H 165.11 3.97617 -1.27633 0
M  V30 1610 N 165.547 1.27147 0.931209 0
M  V30 1611 C 166.777 1.15914 1.71019 0
M  V30 1612 C 167.185 -0.287112 1.87009 0
M  V30 1613 O 166.528 -1.20761 1.38429 0
M  V30 1614 C 166.59 1.76647 3.13107 0
M  V30 1615 C 166.254 3.25807 3.20467 0
M  V30 1616 C 167.251 4.22489 3.02983 0
M  V30 1617 C 164.936 3.66452 3.43538 0
M  V30 1618 C 166.93 5.57794 3.08454 0
M  V30 1619 C 164.617 5.01888 3.48643 0
M  V30 1620 C 165.615 5.97369 3.31119 0
M  V30 1621 O 165.303 7.30337 3.35952 0
M  V30 1622 H 165.035 0.404062 0.54195 0
M  V30 1623 H 167.589 1.68457 1.17521 0
M  V30 1624 H 165.819 1.18578 3.68071 0
M  V30 1625 H 167.508 1.60179 3.72958 0
M  V30 1626 H 168.274 3.92425 2.85004 0
M  V30 1627 H 164.153 2.92611 3.5623 0
M  V30 1628 H 167.697 6.32298 2.94694 0
M  V30 1629 H 163.594 5.31609 3.66145 0
M  V30 1630 H 164.362 7.38739 3.5243 0
M  V30 1631 N 167.025 -1.13721 1.09112 0
M  V30 1632 C 168.271 -1.85198 0.826414 0
M  V30 1633 C 168.604 -1.83129 -0.646319 0
M  V30 1634 O 167.879 -1.2671 -1.47563 0
M  V30 1635 C 168.162 -3.33507 1.35812 0
M  V30 1636 C 168.015 -3.44108 2.89672 0
M  V30 1637 C 169.334 -4.28838 0.989256 0
M  V30 1638 H 166.453 -0.67243 0.301675 0
M  V30 1639 H 169.095 -1.33499 1.35197 0
M  V30 1640 H 167.245 -3.77666 0.911082 0
M  V30 1641 H 168.917 -3.08684 3.428 0
M  V30 1642 H 167.16 -2.85087 3.26967 0
M  V30 1643 H 167.831 -4.48388 3.21951 0
M  V30 1644 H 170.307 -3.92734 1.37475 0
M  V30 1645 H 169.183 -5.31051 1.38838 0
M  V30 1646 H 169.444 -4.4198 -0.102924 0
M  V30 1647 N 168.503 -0.877838 -1.30888 0
M  V30 1648 C 169.433 -0.35534 -2.3078 0
M  V30 1649 C 170.414 0.557994 -1.60687 0
M  V30 1650 O 171.599 0.473355 -1.88343 0
M  V30 1651 C 168.729 0.437221 -3.44537 0
M  V30 1652 C 167.683 -0.383715 -4.26276 0
M  V30 1653 C 167.009 0.535014 -5.32017 0
M  V30 1654 C 168.309 -1.62201 -4.96476 0
M  V30 1655 H 170.003 -1.19007 -2.74732 0
M  V30 1656 H 167.549 -0.573698 -1.32078 0
M  V30 1657 H 169.502 0.813334 -4.13477 0
M  V30 1658 H 168.226 1.30553 -2.99372 0
M  V30 1659 H 166.885 -0.741874 -3.59015 0
M  V30 1660 H 166.533 1.40083 -4.831 0
M  V30 1661 H 166.233 -0.0104211 -5.87599 0
M  V30 1662 H 167.757 0.907799 -6.03814 0
M  V30 1663 H 169.171 -1.31689 -5.5797 0
M  V30 1664 H 167.568 -2.10711 -5.61891 0
M  V30 1665 H 168.638 -2.37044 -4.23011 0
M  V30 1666 N 169.982 1.44106 -0.638065 0
M  V30 1667 C 170.93 2.3248 0.0748149 0
M  V30 1668 C 171.924 1.47746 0.828702 0
M  V30 1669 O 173.13 1.64049 0.740816 0
M  V30 1670 H 169.505 0.750771 0.0429686 0
M  V30 1671 H 171.476 2.90348 -0.688504 0
M  V30 1672 C 170.225 3.31843 1.03805 0
M  V30 1673 H 169.548 3.97059 0.467375 0
M  V30 1674 H 170.988 3.96345 1.50622 0
M  V30 1675 C 169.447 2.61291 2.1267 0
M  V30 1676 O 169.977 2.41702 3.20847 0
M  V30 1677 N 168.183 2.20915 1.88798 0
M  V30 1678 H 167.73 2.37047 1.00829 0
M  V30 1679 H 167.688 1.74038 2.61836 0
M  V30 1680 N 171.46 0.379036 1.52974 0
M  V30 1681 C 172.69 -0.20649 2.05566 0
M  V30 1682 C 173.098 -1.41906 1.25137 0
M  V30 1683 O 172.441 -1.81421 0.288464 0
M  V30 1684 C 172.503 -0.651086 3.53555 0
M  V30 1685 C 172.167 0.446626 4.54812 0
M  V30 1686 C 173.164 1.30079 5.03364 0
M  V30 1687 C 170.849 0.610719 4.98573 0
M  V30 1688 C 172.843 2.30426 5.94292 0
M  V30 1689 C 170.53 1.61754 5.89304 0
M  V30 1690 C 171.528 2.46274 6.37054 0
M  V30 1691 O 171.216 3.45237 7.25994 0
M  V30 1692 H 170.948 -0.0372381 0.674974 0
M  V30 1693 H 173.502 0.539718 1.98182 0
M  V30 1694 H 171.732 -1.44911 3.58522 0
M  V30 1695 H 173.421 -1.16112 3.88938 0
M  V30 1696 H 174.187 1.18527 4.70294 0
M  V30 1697 H 170.066 -0.0374044 4.60985 0
M  V30 1698 H 173.61 2.96432 6.31485 0
M  V30 1699 H 169.507 1.73348 6.21788 0
M  V30 1700 H 170.275 3.41124 7.44027 0
M  V30 1701 N 172.938 -1.57226 0.108567 0
M  V30 1702 C 174.168 -1.9889 -0.559142 0
M  V30 1703 C 174.576 -0.986889 -1.61422 0
M  V30 1704 O 173.919 0.0298705 -1.83676 0
M  V30 1705 C 173.981 -3.36952 -1.25315 0
M  V30 1706 C 173.645 -4.55679 -0.347248 0
M  V30 1707 C 174.642 -5.18281 0.409996 0
M  V30 1708 C 172.327 -5.0162 -0.261367 0
M  V30 1709 C 174.321 -6.25203 1.24096 0
M  V30 1710 C 172.008 -6.08405 0.573238 0
M  V30 1711 C 173.006 -6.70063 1.32304 0
M  V30 1712 O 172.694 -7.74788 2.14381 0
M  V30 1713 H 172.426 -0.658343 -0.153492 0
M  V30 1714 H 174.98 -2.04532 0.188584 0
M  V30 1715 H 173.21 -3.28032 -2.04773 0
M  V30 1716 H 174.899 -3.62974 -1.81673 0
M  V30 1717 H 175.665 -4.8371 0.353457 0
M  V30 1718 H 171.544 -4.53381 -0.834656 0
M  V30 1719 H 175.088 -6.73259 1.82669 0
M  V30 1720 H 170.985 -6.42406 0.631208 0
M  V30 1721 H 171.753 -7.91837 2.07209 0
M  V30 1722 N 174.416 0.165178 -1.56732 0
M  V30 1723 C 175.832 0.517174 -1.50988 0
M  V30 1724 C 176.032 1.84331 -0.813894 0
M  V30 1725 O 175.088 2.49672 -0.37682 0
M  V30 1726 C 176.401 0.544261 -2.95733 0
M  V30 1727 C 177.949 0.631039 -3.06573 0
M  V30 1728 C 178.424 0.68896 -4.52788 0
M  V30 1729 N 179.915 0.751683 -4.5706 0
M  V30 1730 C 180.65 0.817177 -5.67547 0
M  V30 1731 N 180.146 0.843129 -6.8765 0
M  V30 1732 N 181.939 0.856668 -5.55534 0
M  V30 1733 H 174.09 -0.704318 -2.00382 0
M  V30 1734 H 176.353 -0.254687 -0.913148 0
M  V30 1735 H 176.059 -0.361607 -3.49836 0
M  V30 1736 H 175.933 1.3886 -3.5071 0
M  V30 1737 H 178.32 1.52733 -2.52501 0
M  V30 1738 H 178.401 -0.240095 -2.54671 0
M  V30 1739 H 178.045 -0.2031 -5.07494 0
M  V30 1740 H 177.975 1.57633 -5.02454 0
M  V30 1741 H 180.466 0.739661 -3.70591 0
M  V30 1742 H 180.779 0.894448 -7.67606 0
M  V30 1743 H 179.124 0.811304 -6.90248 0
M  V30 1744 H 182.315 0.833437 -4.60621 0
M  V30 1745 H 182.488 0.904247 -6.4166 0
M  V30 1746 N 175.894 1.51508 0.433938 0
M  V30 1747 C 177.122 1.68157 1.20543 0
M  V30 1748 C 177.537 0.380362 1.84929 0
M  V30 1749 O 176.894 -0.641446 1.70856 0
M  V30 1750 C 176.945 2.79965 2.28696 0
M  V30 1751 O 176.666 4.05045 1.66943 0
M  V30 1752 C 178.167 3.07912 3.18912 0
M  V30 1753 H 175.387 0.56421 0.363191 0
M  V30 1754 H 177.931 1.97941 0.513754 0
M  V30 1755 H 176.086 2.5277 2.93574 0
M  V30 1756 H 176.5 4.67165 2.38448 0
M  V30 1757 H 177.974 3.89719 3.90926 0
M  V30 1758 H 178.451 2.20456 3.79863 0
M  V30 1759 H 179.057 3.36779 2.59731 0
M  V30 1760 N 177.372 -0.689602 1.41712 0
M  V30 1761 C 178.62 -1.4468 1.4111 0
M  V30 1762 C 178.941 -1.94986 0.0232196 0
M  V30 1763 O 178.211 -1.72097 -0.935913 0
M  V30 1764 H 176.791 -0.536847 0.519427 0
M  V30 1765 H 179.453 -0.815825 1.77004 0
M  V30 1766 H 178.549 -2.30706 2.10193 0
M  V30 1767 N 178.85 -1.27639 -0.924453 0
M  V30 1768 C 179.797 -1.10644 -2.0255 0
M  V30 1769 C 180.767 -0.00658438 -1.66099 0
M  V30 1770 O 181.952 -0.16952 -1.90045 0
M  V30 1771 C 179.092 -0.76309 -3.36557 0
M  V30 1772 C 178.205 -1.94091 -3.85944 0
M  V30 1773 C 177.34 -1.53914 -5.08413 0
M  V30 1774 C 176.379 -2.68425 -5.50104 0
M  V30 1775 N 175.516 -2.28815 -6.63768 0
M  V30 1776 H 180.356 -2.04858 -2.16419 0
M  V30 1777 H 177.893 -1.01974 -1.06017 0
M  V30 1778 H 179.851 -0.544822 -4.13627 0
M  V30 1779 H 178.481 0.142102 -3.22487 0
M  V30 1780 H 177.533 -2.27162 -3.05125 0
M  V30 1781 H 178.845 -2.7998 -4.12811 0
M  V30 1782 H 177.999 -1.28231 -5.92994 0
M  V30 1783 H 176.738 -0.651391 -4.8333 0
M  V30 1784 H 175.743 -2.94819 -4.64071 0
M  V30 1785 H 176.968 -3.57826 -5.7718 0
M  V30 1786 H 174.914 -1.42495 -6.40337 0
M  V30 1787 H 174.831 -3.08242 -6.90306 0
M  V30 1788 H 176.099 -2.06387 -7.51681 0
M  V30 1789 N 180.328 1.1314 -1.09713 0
M  V30 1790 C 181.258 2.20748 -0.761102 0
M  V30 1791 C 182.239 1.68061 0.262566 0
M  V30 1792 O 183.424 1.93765 0.129977 0
M  V30 1793 C 180.554 3.46812 -0.184054 0
M  V30 1794 C 179.508 4.12606 -1.13757 0
M  V30 1795 C 178.834 5.33031 -0.422083 0
M  V30 1796 C 180.134 4.59603 -2.48118 0
M  V30 1797 H 181.828 2.49113 -1.66082 0
M  V30 1798 H 179.374 1.19734 -0.799987 0
M  V30 1799 H 181.327 4.21353 0.0631215 0
M  V30 1800 H 180.051 3.17851 0.750868 0
M  V30 1801 H 178.71 3.40036 -1.37007 0
M  V30 1802 H 178.358 5.00335 0.517072 0
M  V30 1803 H 178.058 5.77999 -1.05788 0
M  V30 1804 H 179.582 6.10325 -0.183277 0
M  V30 1805 H 180.996 5.25552 -2.29059 0
M  V30 1806 H 179.393 5.15321 -3.07514 0
M  V30 1807 H 180.463 3.73971 -3.08665 0
M  V30 1808 N 181.806 0.884767 1.30421 0
M  V30 1809 C 182.756 0.322846 2.25703 0
M  V30 1810 C 183.74 -0.548582 1.51259 0
M  V30 1811 O 184.932 -0.39304 1.72581 0
M  V30 1812 C 182.061 -0.461787 3.4018 0
M  V30 1813 C 181.147 0.423717 4.21978 0
M  V30 1814 N 181.538 1.52408 4.82292 0
M  V30 1815 C 179.836 0.218795 4.45463 0
M  V30 1816 C 180.537 2.07136 5.43571 0
M  V30 1817 N 179.513 1.36635 5.26148 0
M  V30 1818 H 183.315 1.16363 2.69883 0
M  V30 1819 H 180.829 0.73415 1.44859 0
M  V30 1820 H 182.826 -0.880985 4.07485 0
M  V30 1821 H 181.486 -1.30001 2.9754 0
M  V30 1822 H 182.497 1.90693 4.81515 0
M  V30 1823 H 179.174 -0.582275 4.1342 0
M  V30 1824 H 180.564 2.99538 6.01437 0
M  V30 1825 N 183.284 -1.43765 0.645699 0
M  V30 1826 C 184.524 -2.03776 0.159542 0
M  V30 1827 C 184.888 -1.49792 -1.2011 0
M  V30 1828 O 186.089 -2.01398 -1.78023 0
M  V30 1829 C 184.36 -3.57036 0.161251 0
M  V30 1830 S 185.919 -4.3804 -0.258159 0
M  V30 1831 H 182.737 -0.707717 0.0682454 0
M  V30 1832 H 185.339 -1.75941 0.852352 0
M  V30 1833 H 184.043 -3.9383 1.15439 0
M  V30 1834 H 183.574 -3.89503 -0.552339 0
M  V30 1835 H 185.589 -4.7302 -1.49889 0
M  V30 1836 N 184.763 -0.387143 -1.52771 0
M  V30 1837 C 186.174 0.0873634 -1.86495 0
M  V30 1838 C 186.525 1.46336 -1.30691 0
M  V30 1839 O 185.65 2.068 -0.637409 0
M  V30 1840 C 186.245 0.165305 -3.38396 0
M  V30 1841 C 184.804 0.584101 -3.7184 0
M  V30 1842 C 183.951 -0.255279 -2.76122 0
M  V30 1843 H 186.902 -0.605104 -1.46711 0
M  V30 1844 H 186.923 0.984848 -3.67534 0
M  V30 1845 H 186.435 -0.836301 -3.78982 0
M  V30 1846 H 184.536 1.59315 -3.36823 0
M  V30 1847 H 184.649 0.343749 -4.77865 0
M  V30 1848 H 183.013 0.279126 -2.53166 0
M  V30 1849 H 183.796 -1.25482 -3.19545 0
M  V30 1850 N 186.241 1.57166 -0.116904 0
M  V30 1851 C 187.204 2.14039 0.819742 0
M  V30 1852 C 188.204 1.07477 1.19605 0
M  V30 1853 O 189.394 1.33263 1.1219 0
M  V30 1854 C 186.526 2.67891 2.10826 0
M  V30 1855 H 187.719 2.98128 0.325511 0
M  V30 1856 H 185.272 1.55739 0.132312 0
M  V30 1857 H 186.007 1.87384 2.64685 0
M  V30 1858 H 185.792 3.45823 1.84793 0
M  V30 1859 H 187.282 3.11809 2.77785 0
M  V30 1860 N 187.719 -0.156864 1.56817 0
M  V30 1861 C 188.996 -0.899244 1.73704 0
M  V30 1862 C 189.376 -1.99771 0.682254 0
M  V30 1863 O 188.724 -2.26515 -0.300522 0
M  V30 1864 C 188.934 -1.45075 3.17418 0
M  V30 1865 C 190.282 -1.91802 3.7881 0
M  V30 1866 O 191.306 -1.54838 3.20786 0
M  V30 1867 O 190.165 -2.5994 4.80722 0
M  V30 1868 H 187.259 -0.424267 0.709878 0
M  V30 1869 H 189.805 -0.143561 1.69092 0
M  V30 1870 H 188.577 -0.660846 3.85679 0
M  V30 1871 H 188.2 -2.27021 3.26416 0
M  V30 1872 N 189.197 -1.51736 -0.425897 0
M  V30 1873 C 190.443 -1.65214 -1.1761 0
M  V30 1874 C 190.776 -0.372778 -1.90589 0
M  V30 1875 O 190.051 0.628139 -1.84078 0
M  V30 1876 C 190.334 -2.86312 -2.18398 0
M  V30 1877 C 190.187 -4.24254 -1.49426 0
M  V30 1878 C 191.506 -3.02925 -3.19256 0
M  V30 1879 H 188.625 -0.601263 -0.426206 0
M  V30 1880 H 191.267 -1.8425 -0.463882 0
M  V30 1881 H 189.417 -2.70213 -2.79137 0
M  V30 1882 H 191.089 -4.52046 -0.919362 0
M  V30 1883 H 189.332 -4.26426 -0.796432 0
M  V30 1884 H 190.003 -5.05001 -2.22885 0
M  V30 1885 H 192.479 -3.1781 -2.68581 0
M  V30 1886 H 191.355 -3.89199 -3.8706 0
M  V30 1887 H 191.616 -2.15497 -3.86023 0
M  V30 1888 N 190.675 0.682077 -1.42076 0
M  V30 1889 C 191.915 1.45424 -1.43636 0
M  V30 1890 C 192.279 1.91939 -0.0484001 0
M  V30 1891 O 193.48 2.6873 0.0612514 0
M  V30 1892 C 191.751 2.62427 -2.42625 0
M  V30 1893 S 193.31 3.51379 -2.62827 0
M  V30 1894 H 190.128 0.496779 -0.508657 0
M  V30 1895 H 192.73 0.794645 -1.78621 0
M  V30 1896 H 191.434 2.26481 -3.42249 0
M  V30 1897 H 190.965 3.33266 -2.09039 0
M  V30 1898 H 192.98 4.58141 -1.9058 0
M  V30 1899 N 192.153 1.28127 0.917671 0
M  V30 1900 C 193.401 1.14825 1.66312 0
M  V30 1901 C 193.722 -0.304379 1.9261 0
M  V30 1902 O 192.992 -1.21149 1.53947 0
M  V30 1903 H 191.572 0.421953 0.616413 0
M  V30 1904 H 194.234 1.608 1.10134 0
M  V30 1905 H 193.33 1.68489 2.62712 0
M  V30 1906 N 193.631 -1.12557 1.10312 0
M  V30 1907 C 195.042 -1.65574 0.862678 0
M  V30 1908 C 195.393 -1.86566 -0.607256 0
M  V30 1909 O 194.518 -1.59121 -1.46662 0
M  V30 1910 C 195.113 -3.00776 1.55947 0
M  V30 1911 C 193.672 -3.50748 1.36576 0
M  V30 1912 C 192.819 -2.25797 1.60968 0
M  V30 1913 H 195.77 -0.963552 1.26101 0
M  V30 1914 H 195.791 -3.67185 0.997753 0
M  V30 1915 H 195.303 -2.85465 2.62928 0
M  V30 1916 H 193.404 -3.71245 0.317531 0
M  V30 1917 H 193.517 -4.30289 2.10686 0
M  V30 1918 H 191.881 -2.32841 1.03234 0
M  V30 1919 H 192.664 -2.13043 2.69198 0
M  V30 1920 N 195.109 -0.891671 -1.2995 0
M  V30 1921 C 196.039 -0.379797 -2.30391 0
M  V30 1922 C 197.02 0.540919 -1.6127 0
M  V30 1923 O 198.205 0.453352 -1.88834 0
M  V30 1924 C 195.335 0.400654 -3.44981 0
M  V30 1925 C 194.289 -0.428905 -4.25846 0
M  V30 1926 C 193.615 0.478557 -5.32554 0
M  V30 1927 C 194.915 -1.67458 -4.94727 0
M  V30 1928 H 196.609 -1.21914 -2.73454 0
M  V30 1929 H 194.155 -0.587675 -1.31462 0
M  V30 1930 H 196.108 0.769434 -4.14316 0
M  V30 1931 H 194.832 1.27371 -3.0074 0
M  V30 1932 H 193.491 -0.779911 -3.58208 0
M  V30 1933 H 193.139 1.34951 -4.84559 0
M  V30 1934 H 192.839 -0.0727433 -5.87555 0
M  V30 1935 H 194.363 0.843705 -6.04743 0
M  V30 1936 H 195.777 -1.376 -5.56542 0
M  V30 1937 H 194.174 -2.16659 -5.59624 0
M  V30 1938 H 195.244 -2.41518 -4.20473 0
M  V30 1939 N 196.587 1.43421 -0.653314 0
M  V30 1940 C 197.834 2.01812 -0.166745 0
M  V30 1941 C 198.162 1.51535 1.21931 0
M  V30 1942 O 197.417 0.698975 1.82792 0
M  V30 1943 C 197.716 3.57176 -0.126623 0
M  V30 1944 C 197.382 4.26798 -1.45444 0
M  V30 1945 C 196.044 4.45534 -1.81805 0
M  V30 1946 C 198.396 4.66225 -2.32989 0
M  V30 1947 C 195.724 5.00961 -3.05377 0
M  V30 1948 C 198.076 5.23021 -3.55853 0
M  V30 1949 C 196.74 5.39973 -3.9241 0
M  V30 1950 H 196.01 0.738484 -0.0610162 0
M  V30 1951 H 198.657 1.71896 -0.84404 0
M  V30 1952 H 196.962 3.86634 0.634123 0
M  V30 1953 H 198.659 4.00112 0.266723 0
M  V30 1954 H 195.249 4.12561 -1.16153 0
M  V30 1955 H 199.433 4.51443 -2.06187 0
M  V30 1956 H 194.689 5.12271 -3.3375 0
M  V30 1957 H 198.863 5.52518 -4.23907 0
M  V30 1958 H 196.49 5.82687 -4.88242 0
M  V30 1959 N 198.065 0.39524 1.52563 0
M  V30 1960 C 198.975 -0.444232 2.30356 0
M  V30 1961 C 199.991 -1.06615 1.37511 0
M  V30 1962 O 201.167 -1.07067 1.70583 0
M  V30 1963 C 198.232 -1.55315 3.09964 0
M  V30 1964 C 197.293 -0.955734 4.18526 0
M  V30 1965 C 196.526 -2.01181 4.9433 0
M  V30 1966 O 196.749 -3.22781 4.70285 0
M  V30 1967 O 195.683 -1.62579 5.79527 0
M  V30 1968 H 199.509 0.189667 3.03107 0
M  V30 1969 H 197.094 0.1588 1.48554 0
M  V30 1970 H 198.976 -2.19724 3.59582 0
M  V30 1971 H 197.651 -2.17191 2.4002 0
M  V30 1972 H 196.558 -0.274743 3.7309 0
M  V30 1973 H 197.891 -0.381109 4.90722 0
M  V30 1974 N 199.544 -1.57102 0.125237 0
M  V30 1975 C 200.454 -2.19191 -0.8362 0
M  V30 1976 C 201.47 -1.16985 -1.28805 0
M  V30 1977 O 202.646 -1.49479 -1.34974 0
M  V30 1978 C 199.711 -2.78407 -2.06617 0
M  V30 1979 C 198.772 -3.9567 -1.66565 0
M  V30 1980 C 198.005 -4.52052 -2.83698 0
M  V30 1981 O 198.228 -4.07326 -3.99302 0
M  V30 1982 O 197.162 -5.42645 -2.60423 0
M  V30 1983 H 200.988 -3.01816 -0.337776 0
M  V30 1984 H 198.573 -1.4906 -0.100695 0
M  V30 1985 H 200.455 -3.16129 -2.7864 0
M  V30 1986 H 199.13 -1.9881 -2.55453 0
M  V30 1987 H 198.037 -3.62705 -0.916296 0
M  V30 1988 H 199.37 -4.76722 -1.22464 0
M  V30 1989 N 201.022 0.148545 -1.56898 0
M  V30 1990 C 201.932 1.20293 -2.01412 0
M  V30 1991 C 202.948 1.47107 -0.929273 0
M  V30 1992 O 204.124 1.58807 -1.23863 0
M  V30 1993 C 201.189 2.51682 -2.38447 0
M  V30 1994 C 200.25 2.32529 -3.60872 0
M  V30 1995 C 199.483 3.57653 -3.96132 0
M  V30 1996 O 199.706 4.63771 -3.32073 0
M  V30 1997 O 198.64 3.50408 -4.89385 0
M  V30 1998 H 202.466 0.855025 -2.91416 0
M  V30 1999 H 200.051 0.357151 -1.45068 0
M  V30 2000 H 201.933 3.29147 -2.63135 0
M  V30 2001 H 200.608 2.86006 -1.51599 0
M  V30 2002 H 199.515 1.53019 -3.41373 0
M  V30 2003 H 200.848 2.03121 -4.48333 0
M  V30 2004 N 202.5 1.5196 0.417844 0
M  V30 2005 C 203.43 1.77634 1.51554 0
M  V30 2006 C 204.411 0.626918 1.58126 0
M  V30 2007 O 205.596 0.871632 1.7354 0
M  V30 2008 C 202.726 1.91911 2.8946 0
M  V30 2009 C 201.68 3.07463 2.97743 0
M  V30 2010 C 201.006 3.06951 4.37819 0
M  V30 2011 C 202.306 4.47082 2.70027 0
M  V30 2012 H 204 2.6955 1.3032 0
M  V30 2013 H 201.546 1.29706 0.625492 0
M  V30 2014 H 203.499 2.08455 3.6623 0
M  V30 2015 H 202.223 0.966598 3.11969 0
M  V30 2016 H 200.882 2.90656 2.23416 0
M  V30 2017 H 200.53 2.09438 4.57323 0
M  V30 2018 H 200.23 3.84556 4.44286 0
M  V30 2019 H 201.754 3.25613 5.16535 0
M  V30 2020 H 203.168 4.6414 3.36522 0
M  V30 2021 H 201.565 5.2654 2.87881 0
M  V30 2022 H 202.635 4.55777 1.65514 0
M  V30 2023 N 203.978 -0.674533 1.42435 0
M  V30 2024 C 204.941 -1.76986 1.45632 0
M  V30 2025 C 205.941 -1.5708 0.343871 0
M  V30 2026 O 207.131 -1.63367 0.604709 0
M  V30 2027 C 204.263 -3.15623 1.28822 0
M  V30 2028 H 205.456 -1.75539 2.43158 0
M  V30 2029 H 203.009 -0.884189 1.28887 0
M  V30 2030 H 203.744 -3.22696 0.322193 0
M  V30 2031 H 203.529 -3.31475 2.09444 0
M  V30 2032 H 205.019 -3.95537 1.33942 0
M  V30 2033 N 205.456 -1.28612 -0.910864 0
M  V30 2034 C 206.703 -1.15934 -1.66029 0
M  V30 2035 C 207.031 0.291483 -1.92303 0
M  V30 2036 O 206.286 1.22816 -1.52364 0
M  V30 2037 C 206.585 -1.90624 -3.0232 0
M  V30 2038 C 206.251 -3.40405 -2.95695 0
M  V30 2039 C 204.913 -3.81255 -2.93595 0
M  V30 2040 C 207.265 -4.359 -2.85728 0
M  V30 2041 C 204.593 -5.15936 -2.79334 0
M  V30 2042 C 206.945 -5.70657 -2.73007 0
M  V30 2043 C 205.609 -6.10779 -2.69267 0
M  V30 2044 H 204.879 -0.424234 -0.607541 0
M  V30 2045 H 207.526 -1.5942 -1.06101 0
M  V30 2046 H 205.831 -1.39696 -3.6605 0
M  V30 2047 H 207.528 -1.78228 -3.59215 0
M  V30 2048 H 204.118 -3.07927 -2.98125 0
M  V30 2049 H 208.302 -4.053 -2.86436 0
M  V30 2050 H 203.558 -5.46146 -2.74835 0
M  V30 2051 H 207.732 -6.44311 -2.64264 0
M  V30 2052 H 205.359 -7.1509 -2.57974 0
M  V30 2053 N 206.934 1.1197 -1.10907 0
M  V30 2054 C 208.18 1.84059 -0.865674 0
M  V30 2055 C 208.535 1.82731 0.602254 0
M  V30 2056 O 207.828 1.26543 1.43866 0
M  V30 2057 C 208.022 3.30749 -1.35425 0
M  V30 2058 C 207.851 3.46363 -2.86815 0
M  V30 2059 C 206.621 3.59712 -3.54874 0
M  V30 2060 C 208.819 3.41116 -3.84895 0
M  V30 2061 N 206.801 3.63741 -4.94536 0
M  V30 2062 C 208.172 3.51698 -5.10596 0
M  V30 2063 C 210.227 3.24612 -3.77533 0
M  V30 2064 C 208.93 3.4748 -6.29802 0
M  V30 2065 C 210.956 3.21708 -4.96244 0
M  V30 2066 C 210.318 3.32856 -6.20795 0
M  V30 2067 H 206.417 0.689015 -0.369841 0
M  V30 2068 H 209.001 1.34016 -1.41237 0
M  V30 2069 H 207.172 3.79322 -0.834814 0
M  V30 2070 H 208.904 3.90718 -1.05458 0
M  V30 2071 H 205.659 3.62038 -3.05329 0
M  V30 2072 H 206.083 3.69408 -5.67333 0
M  V30 2073 H 210.725 3.14883 -2.8215 0
M  V30 2074 H 208.443 3.55978 -7.25469 0
M  V30 2075 H 212.029 3.10113 -4.92261 0
M  V30 2076 H 210.909 3.3059 -7.11112 0
M  V30 2077 N 208.412 0.89855 1.29475 0
M  V30 2078 C 209.66 0.522847 1.9522 0
M  V30 2079 C 209.981 -0.93371 1.71192 0
M  V30 2080 O 209.251 -1.65823 1.04305 0
M  V30 2081 H 207.831 0.190366 0.722336 0
M  V30 2082 H 210.493 1.14459 1.5775 0
M  V30 2083 H 209.589 0.704476 3.04045 0
M  V30 2084 N 209.89 -1.43072 0.660911 0
M  V30 2085 C 211.139 -2.00942 0.174735 0
M  V30 2086 C 211.452 -1.52797 -1.22117 0
M  V30 2087 O 212.658 -2.02991 -1.80297 0
M  V30 2088 C 211.114 -3.58948 0.261559 0
M  V30 2089 C 210.722 -4.16085 1.66064 0
M  V30 2090 C 212.466 -4.24173 -0.166617 0
M  V30 2091 C 210.373 -5.6641 1.70098 0
M  V30 2092 H 209.303 -0.751483 0.0615631 0
M  V30 2093 H 211.954 -1.63955 0.824069 0
M  V30 2094 H 210.336 -3.93372 -0.455421 0
M  V30 2095 H 211.51 -3.93147 2.40359 0
M  V30 2096 H 209.825 -3.6326 2.03546 0
M  V30 2097 H 212.422 -5.34471 -0.156433 0
M  V30 2098 H 212.765 -3.98647 -1.19943 0
M  V30 2099 H 213.298 -3.94659 0.498875 0
M  V30 2100 H 210.037 -5.96715 2.71315 0
M  V30 2101 H 209.557 -5.91382 1.00139 0
M  V30 2102 H 211.236 -6.30585 1.44816 0
M  V30 2103 N 211.368 -0.403325 -1.52352 0
M  V30 2104 C 212.645 0.232611 -1.94212 0
M  V30 2105 C 213.025 1.63133 -1.33981 0
M  V30 2106 O 212.373 2.22659 -0.513344 0
M  V30 2107 C 212.583 0.244811 -3.4814 0
M  V30 2108 C 213.931 0.46698 -4.22024 0
M  V30 2109 O 214.955 0.324419 -3.5472 0
M  V30 2110 O 213.814 0.74747 -5.41364 0
M  V30 2111 H 210.908 0.148223 -0.813609 0
M  V30 2112 H 213.454 -0.458848 -1.63379 0
M  V30 2113 H 212.226 -0.734378 -3.84347 0
M  V30 2114 H 211.849 0.980611 -3.85318 0
M  V30 2115 N 212.846 1.57033 -0.133567 0
M  V30 2116 C 213.756 2.19632 0.824564 0
M  V30 2117 C 214.772 1.17666 1.28182 0
M  V30 2118 O 215.948 1.50193 1.3418 0
M  V30 2119 C 213.013 2.79499 2.05137 0
M  V30 2120 C 212.074 3.96548 1.64464 0
M  V30 2121 C 211.307 4.5355 2.81297 0
M  V30 2122 O 211.53 4.09438 3.97136 0
M  V30 2123 O 210.464 5.44018 2.57542 0
M  V30 2124 H 214.29 3.01991 0.321766 0
M  V30 2125 H 211.875 1.49112 0.0927889 0
M  V30 2126 H 213.757 3.17602 2.7696 0
M  V30 2127 H 212.432 2.00162 2.54395 0
M  V30 2128 H 211.339 3.63186 0.897048 0
M  V30 2129 H 212.672 4.77364 1.19934 0
M  V30 2130 N 214.325 -0.140222 1.56975 0
M  V30 2131 C 215.553 -0.866437 1.87884 0
M  V30 2132 C 215.968 -1.74428 0.722517 0
M  V30 2133 O 215.325 -1.79891 -0.30749 0
M  V30 2134 C 215.376 -1.71753 3.18093 0
M  V30 2135 O 215.097 -0.875056 4.29272 0
M  V30 2136 C 216.598 -2.55074 3.62563 0
M  V30 2137 H 213.818 -0.25019 0.622612 0
M  V30 2138 H 216.362 -0.130977 2.0408 0
M  V30 2139 H 214.517 -2.40598 3.03631 0
M  V30 2140 H 214.931 -1.46002 5.03769 0
M  V30 2141 H 216.405 -3.10356 4.5649 0
M  V30 2142 H 216.882 -3.31434 2.88181 0
M  V30 2143 H 217.488 -1.91509 3.79743 0
M  V30 2144 N 215.803 -1.52179 -0.40978 0
M  V30 2145 C 217.08 -1.56769 -1.16974 0
M  V30 2146 C 217.46 -0.348322 -2.08206 0
M  V30 2147 O 216.808 0.664862 -2.18613 0
M  V30 2148 C 217.018 -2.89603 -1.9476 0
M  V30 2149 C 218.366 -3.42579 -2.50849 0
M  V30 2150 O 219.39 -2.91338 -2.04941 0
M  V30 2151 O 218.249 -4.32054 -3.34652 0
M  V30 2152 H 215.343 -0.631439 -0.534054 0
M  V30 2153 H 217.889 -1.64507 -0.416613 0
M  V30 2154 H 216.661 -3.698 -1.27921 0
M  V30 2155 H 216.284 -2.85155 -2.77079 0
M  V30 2156 N 217.281 0.66697 -1.42791 0
M  V30 2157 C 218.527 1.4291 -1.43891 0
M  V30 2158 C 218.86 1.94114 -0.0578972 0
M  V30 2159 O 218.135 1.71414 0.91911 0
M  V30 2160 C 218.418 2.62049 -2.46987 0
M  V30 2161 C 218.271 2.16426 -3.94309 0
M  V30 2162 C 219.59 3.64266 -2.46978 0
M  V30 2163 H 216.709 0.518306 -0.523954 0
M  V30 2164 H 219.351 0.757321 -1.74255 0
M  V30 2165 H 217.501 3.19361 -2.21225 0
M  V30 2166 H 219.173 1.64221 -4.31079 0
M  V30 2167 H 217.416 1.47925 -4.078 0
M  V30 2168 H 218.087 3.02038 -4.62036 0
M  V30 2169 H 220.563 3.16686 -2.69906 0
M  V30 2170 H 219.439 4.45196 -3.21079 0
M  V30 2171 H 219.7 4.15927 -1.49857 0
M  V30 2172 N 218.759 1.29093 0.90403 0
M  V30 2173 C 219.669 1.15727 2.0407 0
M  V30 2174 C 220.685 0.0815308 1.73809 0
M  V30 2175 O 221.861 0.292749 1.99261 0
M  V30 2176 C 218.926 0.830424 3.36608 0
M  V30 2177 C 217.987 1.98955 3.80415 0
M  V30 2178 C 217.22 1.6782 5.06628 0
M  V30 2179 O 217.443 0.597105 5.67266 0
M  V30 2180 O 216.377 2.52486 5.46383 0
M  V30 2181 H 220.203 2.11171 2.18267 0
M  V30 2182 H 217.788 1.08504 1.027 0
M  V30 2183 H 219.67 0.662521 4.16159 0
M  V30 2184 H 218.345 -0.0942678 3.23563 0
M  V30 2185 H 217.252 2.21267 3.01648 0
M  V30 2186 H 218.585 2.89529 3.98037 0
M  V30 2187 N 220.237 -1.11381 1.11499 0
M  V30 2188 C 221.648 -1.6465 0.880191 0
M  V30 2189 C 221.999 -1.87199 -0.587434 0
M  V30 2190 O 221.124 -1.60667 -1.44966 0
M  V30 2191 C 221.719 -2.99105 1.59128 0
M  V30 2192 C 220.278 -3.49279 1.40289 0
M  V30 2193 C 219.425 -2.24077 1.63354 0
M  V30 2194 H 222.376 -0.950123 1.27116 0
M  V30 2195 H 222.397 -3.66107 1.03664 0
M  V30 2196 H 221.909 -2.82661 2.65941 0
M  V30 2197 H 220.01 -3.70887 0.356888 0
M  V30 2198 H 220.123 -4.2803 2.15238 0
M  V30 2199 H 218.487 -2.31733 1.05698 0
M  V30 2200 H 219.27 -2.10175 2.71443 0
M  V30 2201 N 221.715 -0.905404 -1.28997 0
M  V30 2202 C 222.955 -0.541232 -1.97104 0
M  V30 2203 C 223.319 0.896841 -1.69767 0
M  V30 2204 O 224.52 1.36817 -2.31375 0
M  V30 2205 C 222.791 -0.832134 -3.47578 0
M  V30 2206 S 224.35 -0.573127 -4.35041 0
M  V30 2207 H 221.168 -0.200576 -0.682122 0
M  V30 2208 H 223.77 -1.16906 -1.56694 0
M  V30 2209 H 222.474 -1.87687 -3.64968 0
M  V30 2210 H 222.005 -0.192636 -3.92928 0
M  V30 2211 H 224.02 0.579297 -4.92807 0
M  V30 2212 N 223.193 1.4272 -0.668489 0
M  V30 2213 C 224.433 2.03497 -0.19194 0
M  V30 2214 C 224.797 1.51684 1.17712 0
M  V30 2215 O 225.998 2.04205 1.74796 0
M  V30 2216 C 224.269 3.56734 -0.218032 0
M  V30 2217 S 225.828 4.38395 0.188438 0
M  V30 2218 H 222.646 0.706542 -0.0794959 0
M  V30 2219 H 225.248 1.74563 -0.880235 0
M  V30 2220 H 223.952 3.91943 -1.2169 0
M  V30 2221 H 223.483 3.90333 0.490303 0
M  V30 2222 H 225.498 4.75345 1.42345 0
M  V30 2223 N 224.671 0.411399 1.52136 0
M  V30 2224 C 225.917 -0.156262 2.02799 0
M  V30 2225 C 226.272 -1.42613 1.29149 0
M  V30 2226 O 225.565 -1.87592 0.389839 0
M  V30 2227 C 225.759 -0.455872 3.54481 0
M  V30 2228 C 225.588 0.783404 4.42824 0
M  V30 2229 C 224.358 1.30928 4.88043 0
M  V30 2230 C 226.556 1.66217 4.86699 0
M  V30 2231 N 224.538 2.5038 5.6052 0
M  V30 2232 C 225.909 2.70292 5.5798 0
M  V30 2233 C 227.964 1.67966 4.68713 0
M  V30 2234 C 226.667 3.7603 6.13184 0
M  V30 2235 C 228.693 2.72624 5.24815 0
M  V30 2236 C 228.055 3.7542 5.9602 0
M  V30 2237 H 224.154 -0.0186886 0.781777 0
M  V30 2238 H 226.738 0.566255 1.86284 0
M  V30 2239 H 224.909 -1.14743 3.71064 0
M  V30 2240 H 226.641 -1.01261 3.91827 0
M  V30 2241 H 223.396 0.866977 4.65597 0
M  V30 2242 H 223.82 3.10881 6.014 0
M  V30 2243 H 228.462 0.898312 4.13147 0
M  V30 2244 H 226.18 4.55019 6.6782 0
M  V30 2245 H 229.766 2.74887 5.12765 0
M  V30 2246 H 228.646 4.55073 6.38654 0
M  V30 2247 N 226.149 -1.5696 0.141893 0
M  V30 2248 C 227.082 -2.12271 -0.837627 0
M  V30 2249 C 228.06 -1.04495 -1.24578 0
M  V30 2250 O 229.244 -1.32293 -1.34278 0
M  V30 2251 C 226.371 -2.63822 -2.12404 0
M  V30 2252 C 225.417 -3.83698 -1.86221 0
M  V30 2253 S 226.25 -5.24948 -1.05781 0
M  V30 2254 C 227.406 -5.79884 -2.35552 0
M  V30 2255 H 227.639 -2.95023 -0.367249 0
M  V30 2256 H 225.172 -1.54231 -0.0723014 0
M  V30 2257 H 227.13 -2.94175 -2.86307 0
M  V30 2258 H 225.791 -1.8121 -2.56557 0
M  V30 2259 H 224.984 -4.17995 -2.81596 0
M  V30 2260 H 224.586 -3.5408 -1.20429 0
M  V30 2261 H 226.878 -5.91005 -3.31239 0
M  V30 2262 H 227.821 -6.77544 -2.05767 0
M  V30 2263 H 228.229 -5.08095 -2.45967 0
M  V30 2264 N 227.627 0.131896 -1.57047 0
M  V30 2265 C 228.855 0.856461 -1.88341 0
M  V30 2266 C 229.27 1.74042 -0.731757 0
M  V30 2267 O 228.627 1.80051 0.297945 0
M  V30 2268 C 228.678 1.70064 -3.18999 0
M  V30 2269 O 228.399 0.852278 -4.2973 0
M  V30 2270 C 229.9 2.53148 -3.63911 0
M  V30 2271 H 227.12 0.246885 -0.62393 0
M  V30 2272 H 229.664 0.120152 -2.04147 0
M  V30 2273 H 227.819 2.38984 -3.04902 0
M  V30 2274 H 228.233 1.43329 -5.04537 0
M  V30 2275 H 229.707 3.07931 -4.58129 0
M  V30 2276 H 230.184 3.29901 -2.89935 0
M  V30 2277 H 230.79 1.89492 -3.80753 0
M  V30 2278 N 229.106 1.52395 0.401703 0
M  V30 2279 C 230.336 1.70429 1.1678 0
M  V30 2280 C 230.744 0.416702 1.84554 0
M  V30 2281 O 230.087 -0.617697 1.73003 0
M  V30 2282 C 230.149 2.78919 2.26814 0
M  V30 2283 C 229.813 4.20437 1.79113 0
M  V30 2284 C 230.81 5.04028 1.27482 0
M  V30 2285 C 228.495 4.66704 1.85722 0
M  V30 2286 C 230.489 6.31961 0.830913 0
M  V30 2287 C 228.176 5.94625 1.40942 0
M  V30 2288 C 229.174 6.77082 0.897128 0
M  V30 2289 O 228.862 8.02607 0.455822 0
M  V30 2290 H 228.594 0.574272 0.356634 0
M  V30 2291 H 231.148 1.99767 0.477724 0
M  V30 2292 H 229.378 2.44973 2.99207 0
M  V30 2293 H 231.067 2.8548 2.88541 0
M  V30 2294 H 231.833 4.69471 1.21744 0
M  V30 2295 H 227.712 4.0262 2.24539 0
M  V30 2296 H 231.256 6.96271 0.430368 0
M  V30 2297 H 227.153 6.28688 1.46362 0
M  V30 2298 H 227.921 8.16453 0.578457 0
M  V30 2299 N 230.584 -0.659388 1.43143 0
M  V30 2300 C 232 -0.974337 1.26407 0
M  V30 2301 C 232.2 -2.007 0.179341 0
M  V30 2302 O 231.256 -2.4856 -0.444295 0
M  V30 2303 C 232.569 -1.46447 2.62628 0
M  V30 2304 C 234.117 -1.58144 2.7011 0
M  V30 2305 C 234.592 -2.1055 4.06734 0
M  V30 2306 N 236.083 -2.17861 4.08767 0
M  V30 2307 C 236.818 -2.59519 5.1131 0
M  V30 2308 N 236.314 -3.00518 6.24228 0
M  V30 2309 N 238.107 -2.59404 4.98664 0
M  V30 2310 H 230.258 0.0240528 2.12386 0
M  V30 2311 H 232.521 -0.0518065 0.946583 0
M  V30 2312 H 232.227 -0.780123 3.42939 0
M  V30 2313 H 232.101 -2.44058 2.87603 0
M  V30 2314 H 234.488 -2.25682 1.90136 0
M  V30 2315 H 234.569 -0.589828 2.48907 0
M  V30 2316 H 234.213 -1.43616 4.87172 0
M  V30 2317 H 234.143 -3.10531 4.25298 0
M  V30 2318 H 236.634 -1.88975 3.27257 0
M  V30 2319 H 236.947 -3.31036 6.98309 0
M  V30 2320 H 235.292 -2.98337 6.2771 0
M  V30 2321 H 238.483 -2.26747 4.09516 0
M  V30 2322 H 238.656 -2.91548 5.78709 0
M  V30 2323 N 232.062 -1.29571 -0.897171 0
M  V30 2324 C 232.994 -1.10724 -2.00681 0
M  V30 2325 C 234.007 -0.0540026 -1.6271 0
M  V30 2326 O 235.196 -0.298783 -1.75982 0
M  V30 2327 C 232.296 -0.663912 -3.32333 0
M  V30 2328 C 231.469 -1.79622 -3.98816 0
M  V30 2329 C 230.528 -1.34349 -5.0876 0
M  V30 2330 O 229.554 -2.04864 -5.31055 0
M  V30 2331 N 230.756 -0.215764 -5.80099 0
M  V30 2332 H 233.521 -2.06291 -2.17403 0
M  V30 2333 H 231.082 -1.21544 -1.06951 0
M  V30 2334 H 233.074 -0.344295 -4.03233 0
M  V30 2335 H 231.644 0.199375 -3.11964 0
M  V30 2336 H 230.864 -2.28459 -3.21248 0
M  V30 2337 H 232.152 -2.55535 -4.39976 0
M  V30 2338 H 231.55 0.372091 -5.64475 0
M  V30 2339 H 230.107 0.0444707 -6.51785 0
M  V30 2340 N 233.54 1.10788 -1.12088 0
M  V30 2341 C 234.49 2.15158 -0.754401 0
M  V30 2342 C 235.474 1.59026 0.244846 0
M  V30 2343 O 236.666 1.76927 0.0509097 0
M  V30 2344 C 233.795 3.42677 -0.206657 0
M  V30 2345 C 232.881 4.05751 -1.23398 0
M  V30 2346 N 233.272 4.43582 -2.43041 0
M  V30 2347 C 231.57 4.32764 -1.07848 0
M  V30 2348 C 232.271 4.93085 -3.08613 0
M  V30 2349 N 231.247 4.89664 -2.36072 0
M  V30 2350 H 235.049 2.42195 -1.6649 0
M  V30 2351 H 232.563 1.27872 -1.00112 0
M  V30 2352 H 234.56 4.16834 0.0740646 0
M  V30 2353 H 233.22 3.17101 0.698342 0
M  V30 2354 H 234.231 4.35395 -2.80449 0
M  V30 2355 H 230.908 4.16863 -0.230483 0
M  V30 2356 H 232.298 5.31933 -4.10483 0
M  V30 2357 N 235.018 0.912232 1.28515 0
M  V30 2358 C 236.434 0.610159 1.47476 0
M  V30 2359 C 236.634 -0.844955 1.82928 0
M  V30 2360 O 235.69 -1.62416 1.93332 0
M  V30 2361 C 237.003 1.54675 2.57868 0
M  V30 2362 C 238.551 1.55331 2.71738 0
M  V30 2363 C 239.026 2.47649 3.85272 0
M  V30 2364 N 240.517 2.45767 3.92623 0
M  V30 2365 C 241.252 3.13896 4.79851 0
M  V30 2366 N 240.748 3.9135 5.71679 0
M  V30 2367 N 242.541 3.02991 4.73448 0
M  V30 2368 H 234.692 1.85318 1.03783 0
M  V30 2369 H 236.955 0.794777 0.516753 0
M  V30 2370 H 236.661 2.5841 2.38574 0
M  V30 2371 H 236.535 1.27671 3.54937 0
M  V30 2372 H 238.922 0.52335 2.90422 0
M  V30 2373 H 239.003 1.86378 1.75205 0
M  V30 2374 H 238.647 3.50745 3.67342 0
M  V30 2375 H 238.577 2.13904 4.81199 0
M  V30 2376 H 241.068 1.89503 3.26951 0
M  V30 2377 H 241.381 4.40359 6.35062 0
M  V30 2378 H 239.726 3.95455 5.71524 0
M  V30 2379 H 242.917 2.41987 4.007 0
M  V30 2380 H 243.09 3.5636 5.41213 0
M  V30 2381 N 236.496 -1.42363 0.676048 0
M  V30 2382 C 237.773 -1.95183 0.127726 0
M  V30 2383 C 238.153 -1.61641 -1.35777 0
M  V30 2384 O 237.501 -0.913216 -2.09458 0
M  V30 2385 C 237.711 -3.46721 0.398199 0
M  V30 2386 C 239.059 -4.23427 0.315383 0
M  V30 2387 O 240.083 -3.54649 0.332016 0
M  V30 2388 O 238.942 -5.45888 0.25865 0
M  V30 2389 H 236.036 -0.826992 0.00359427 0
M  V30 2390 H 238.582 -1.52184 0.750864 0
M  V30 2391 H 237.354 -3.64344 1.4272 0
M  V30 2392 H 236.977 -3.96769 -0.256885 0
M  V30 2393 N 237.974 -0.419461 -1.51915 0
M  V30 2394 C 238.937 0.389116 -2.25873 0
M  V30 2395 C 239.937 0.964924 -1.28631 0
M  V30 2396 O 241.127 0.842179 -1.52489 0
M  V30 2397 C 238.259 1.54874 -3.03689 0
M  V30 2398 H 239.452 -0.258799 -2.98781 0
M  V30 2399 H 237.005 -0.172209 -1.55348 0
M  V30 2400 H 237.74 2.23323 -2.35154 0
M  V30 2401 H 237.525 1.14223 -3.75094 0
M  V30 2402 H 239.015 2.12046 -3.59759 0
M  V30 2403 N 239.452 1.56882 -0.150215 0
M  V30 2404 C 240.362 2.20494 0.801222 0
M  V30 2405 C 241.378 1.19019 1.26927 0
M  V30 2406 O 242.554 1.51607 1.32579 0
M  V30 2407 C 239.619 2.81659 2.02161 0
M  V30 2408 C 238.68 3.9827 1.60249 0
M  V30 2409 C 237.913 4.56508 2.7647 0
M  V30 2410 O 238.136 4.13627 3.92771 0
M  V30 2411 O 237.07 5.46719 2.51757 0
M  V30 2412 H 240.896 3.02315 0.289717 0
M  V30 2413 H 238.481 1.49202 0.0769684 0
M  V30 2414 H 240.363 3.20522 2.73576 0
M  V30 2415 H 239.038 2.02849 2.52258 0
M  V30 2416 H 237.945 3.64117 0.858477 0
M  V30 2417 H 239.278 4.78609 1.14864 0
M  V30 2418 N 240.93 -0.123565 1.57115 0
M  V30 2419 C 241.84 -1.17074 2.033 0
M  V30 2420 C 242.856 -1.4561 0.952559 0
M  V30 2421 O 244.032 -1.56817 1.26374 0
M  V30 2422 C 241.097 -2.47857 2.42421 0
M  V30 2423 C 240.158 -2.26758 3.64526 0
M  V30 2424 C 239.391 -3.51305 4.01771 0
M  V30 2425 O 239.614 -4.5843 3.39409 0
M  V30 2426 O 238.548 -3.42578 4.94898 0
M  V30 2427 H 242.374 -0.808555 2.92739 0
M  V30 2428 H 239.959 -0.334027 1.45618 0
M  V30 2429 H 241.841 -3.2492 2.68338 0
M  V30 2430 H 240.516 -2.83558 1.5613 0
M  V30 2431 H 239.423 -1.47569 3.43765 0
M  V30 2432 H 240.756 -1.95963 4.51508 0
M  V30 2433 N 242.408 -1.52605 -0.393616 0
M  V30 2434 C 243.371 -1.76415 -1.46323 0
M  V30 2435 C 244.371 -0.634126 -1.47768 0
M  V30 2436 O 245.561 -0.902142 -1.4902 0
M  V30 2437 C 242.693 -1.8607 -2.85641 0
M  V30 2438 H 243.886 -2.71916 -1.26498 0
M  V30 2439 H 241.439 -1.43257 -0.625073 0
M  V30 2440 H 242.174 -0.925378 -3.10817 0
M  V30 2441 H 241.959 -2.68235 -2.85993 0
M  V30 2442 H 243.449 -2.06179 -3.63153 0
M  V30 2443 N 243.887 0.651787 -1.4349 0
M  V30 2444 C 244.817 1.77621 -1.51569 0
M  V30 2445 C 245.798 1.66022 -0.370253 0
M  V30 2446 O 246.983 1.85095 -0.587658 0
M  V30 2447 C 244.113 3.16056 -1.43966 0
M  V30 2448 C 243.067 3.4242 -2.56774 0
M  V30 2449 C 242.393 4.8067 -2.34223 0
M  V30 2450 C 243.693 3.37023 -3.99015 0
M  V30 2451 H 245.387 1.71117 -2.45681 0
M  V30 2452 H 242.933 0.821825 -1.18246 0
M  V30 2453 H 244.886 3.94472 -1.48221 0
M  V30 2454 H 243.61 3.23293 -0.463586 0
M  V30 2455 H 242.269 2.66375 -2.51873 0
M  V30 2456 H 241.917 4.84585 -1.34856 0
M  V30 2457 H 241.617 4.9927 -3.09844 0
M  V30 2458 H 243.141 5.61342 -2.40265 0
M  V30 2459 H 244.555 4.05374 -4.05395 0
M  V30 2460 H 242.952 3.67159 -4.74673 0
M  V30 2461 H 244.022 2.3518 -4.2405 0
M  V30 2462 N 245.365 1.30045 0.890287 0
M  V30 2463 C 246.642 1.09227 1.62262 0
M  V30 2464 C 247.022 -0.360305 2.08002 0
M  V30 2465 O 246.37 -1.35084 1.84295 0
M  V30 2466 C 246.58 2.08835 2.79623 0
M  V30 2467 C 247.928 2.40266 3.50082 0
M  V30 2468 O 248.952 2.07104 2.89804 0
M  V30 2469 O 247.811 2.96967 4.58773 0
M  V30 2470 H 244.905 0.419132 0.712922 0
M  V30 2471 H 247.451 1.41451 0.937529 0
M  V30 2472 H 246.223 3.06633 2.43089 0
M  V30 2473 H 245.846 1.77397 3.55832 0
M  V30 2474 N 246.843 -1.10192 1.12674 0
M  V30 2475 C 248.092 -1.81573 0.8783 0
M  V30 2476 C 248.405 -1.86249 -0.597557 0
M  V30 2477 O 249.611 -2.5386 -0.962681 0
M  V30 2478 C 248.067 -3.26149 1.52167 0
M  V30 2479 C 247.675 -3.29763 3.03249 0
M  V30 2480 C 249.419 -4.0234 1.3536 0
M  V30 2481 C 247.326 -4.68815 3.60508 0
M  V30 2482 H 246.256 -0.680394 0.324931 0
M  V30 2483 H 248.907 -1.23902 1.35353 0
M  V30 2484 H 247.289 -3.83832 0.974104 0
M  V30 2485 H 248.463 -2.8189 3.6452 0
M  V30 2486 H 246.778 -2.67059 3.19481 0
M  V30 2487 H 249.375 -5.05058 1.75559 0
M  V30 2488 H 249.718 -4.15235 0.297554 0
M  V30 2489 H 250.251 -3.51079 1.87052 0
M  V30 2490 H 246.99 -4.61121 4.65884 0
M  V30 2491 H 246.51 -5.17045 3.04014 0
M  V30 2492 H 248.189 -5.37785 3.59717 0
M  V30 2493 N 248.321 -0.919034 -1.28029 0
M  V30 2494 C 249.568 -0.554934 -1.94748 0
M  V30 2495 C 249.896 0.90231 -1.72304 0
M  V30 2496 O 249.151 1.65767 -1.04018 0
M  V30 2497 C 249.45 -0.816855 -3.4794 0
M  V30 2498 C 249.116 -2.25448 -3.90492 0
M  V30 2499 C 247.778 -2.64752 -4.01821 0
M  V30 2500 C 250.13 -3.18977 -4.12193 0
M  V30 2501 C 247.458 -3.96727 -4.32232 0
M  V30 2502 C 249.81 -4.50523 -4.44086 0
M  V30 2503 C 248.474 -4.89673 -4.53626 0
M  V30 2504 H 247.744 -0.203065 -0.712633 0
M  V30 2505 H 250.391 -1.16136 -1.52265 0
M  V30 2506 H 248.696 -0.127677 -3.91592 0
M  V30 2507 H 250.393 -0.514238 -3.97689 0
M  V30 2508 H 246.983 -1.93952 -3.82205 0
M  V30 2509 H 251.167 -2.89817 -4.02889 0
M  V30 2510 H 246.423 -4.26754 -4.37825 0
M  V30 2511 H 250.597 -5.23005 -4.59825 0
M  V30 2512 H 248.224 -5.91969 -4.76946 0
M  V30 2513 N 249.799 1.42003 -0.683588 0
M  V30 2514 C 250.709 2.34597 -0.0109075 0
M  V30 2515 C 251.725 1.55576 0.779245 0
M  V30 2516 O 252.901 1.88107 0.719555 0
M  V30 2517 C 249.966 3.34199 0.922588 0
M  V30 2518 C 249.027 4.29115 0.125984 0
M  V30 2519 C 248.26 5.23959 1.01502 0
M  V30 2520 O 248.483 5.23952 2.25456 0
M  V30 2521 O 247.417 6.00053 0.47111 0
M  V30 2522 H 251.243 2.93675 -0.773853 0
M  V30 2523 H 248.828 1.42654 -0.443861 0
M  V30 2524 H 250.71 3.95365 1.45823 0
M  V30 2525 H 249.385 2.77582 1.66523 0
M  V30 2526 H 248.292 3.71335 -0.453969 0
M  V30 2527 H 249.625 4.88798 -0.577736 0
M  V30 2528 N 251.277 0.427512 1.51691 0
M  V30 2529 C 252.505 -0.141191 2.06418 0
M  V30 2530 C 252.92 -1.37303 1.29589 0
M  V30 2531 O 252.277 -1.79059 0.352732 0
M  V30 2532 C 252.328 -0.473266 3.58389 0
M  V30 2533 O 252.049 0.709673 4.32314 0
M  V30 2534 C 253.55 -1.09371 4.29596 0
M  V30 2535 H 250.77 -0.0122747 0.670888 0
M  V30 2536 H 253.314 0.603764 1.95384 0
M  V30 2537 H 251.469 -1.16812 3.69369 0
M  V30 2538 H 251.883 0.42807 5.2275 0
M  V30 2539 H 253.357 -1.27613 5.37046 0
M  V30 2540 H 253.834 -2.072 3.87253 0
M  V30 2541 H 254.44 -0.43853 4.23033 0
M  V30 2542 N 252.755 -1.56801 0.158532 0
M  V30 2543 C 254.166 -1.83189 -0.360366 0
M  V30 2544 C 254.517 -1.07778 -1.63946 0
M  V30 2545 O 253.642 -0.326718 -2.13919 0
M  V30 2546 C 254.237 -3.32297 -0.660595 0
M  V30 2547 C 252.796 -3.59227 -1.12398 0
M  V30 2548 C 251.943 -2.76877 -0.153097 0
M  V30 2549 H 254.894 -1.54008 0.383031 0
M  V30 2550 H 254.915 -3.4908 -1.51405 0
M  V30 2551 H 254.427 -3.87156 0.270527 0
M  V30 2552 H 252.528 -3.09766 -2.07064 0
M  V30 2553 H 252.641 -4.67632 -1.04197 0
M  V30 2554 H 251.005 -2.46319 -0.647983 0
M  V30 2555 H 251.788 -3.34511 0.77182 0
M  V30 2556 N 254.233 0.115231 -1.57178 0
M  V30 2557 C 255.51 0.852873 -1.76027 0
M  V30 2558 C 255.89 1.97892 -0.73498 0
M  V30 2559 O 255.238 2.27232 0.24036 0
M  V30 2560 C 255.448 1.36608 -3.21153 0
M  V30 2561 C 256.796 1.81692 -3.83762 0
M  V30 2562 O 257.82 1.46278 -3.24779 0
M  V30 2563 O 256.679 2.47104 -4.87444 0
M  V30 2564 H 253.773 0.405296 -0.720877 0
M  V30 2565 H 256.319 0.0986785 -1.69413 0
M  V30 2566 H 255.091 0.558357 -3.87296 0
M  V30 2567 H 254.714 2.18287 -3.3232 0
M  V30 2568 N 255.711 1.52812 0.385517 0
M  V30 2569 C 256.641 1.80808 1.47752 0
M  V30 2570 C 257.622 0.660318 1.5676 0
M  V30 2571 O 258.807 0.908246 1.71652 0
M  V30 2572 C 255.937 1.98008 2.85324 0
M  V30 2573 C 254.891 3.13709 2.91154 0
M  V30 2574 C 254.217 3.16169 4.31209 0
M  V30 2575 C 255.517 4.52709 2.60483 0
M  V30 2576 H 257.211 2.72253 1.24573 0
M  V30 2577 H 254.757 1.31003 0.597839 0
M  V30 2578 H 256.71 2.16176 3.61726 0
M  V30 2579 H 255.434 1.03255 3.09848 0
M  V30 2580 H 254.093 2.95329 2.17201 0
M  V30 2581 H 253.741 2.19092 4.52778 0
M  V30 2582 H 253.441 3.93894 4.36029 0
M  V30 2583 H 254.965 3.36496 5.09512 0
M  V30 2584 H 256.379 4.71173 3.26602 0
M  V30 2585 H 254.776 5.32528 2.76648 0
M  V30 2586 H 255.846 4.59186 1.55809 0
M  V30 2587 N 257.189 -0.644168 1.43834 0
M  V30 2588 C 258.438 -1.39985 1.45214 0
M  V30 2589 C 258.751 -1.95421 0.0835494 0
M  V30 2590 O 259.957 -2.71488 -0.0251748 0
M  V30 2591 C 258.413 -2.53384 2.55587 0
M  V30 2592 C 258.021 -2.04517 3.98594 0
M  V30 2593 C 259.765 -3.30685 2.66172 0
M  V30 2594 C 257.672 -3.1518 5.00416 0
M  V30 2595 H 256.602 -0.526005 0.540218 0
M  V30 2596 H 259.253 -0.694367 1.69855 0
M  V30 2597 H 257.635 -3.26446 2.24163 0
M  V30 2598 H 258.809 -1.38405 4.39523 0
M  V30 2599 H 257.124 -1.40068 3.92135 0
M  V30 2600 H 259.721 -4.13158 3.39418 0
M  V30 2601 H 260.064 -3.79312 1.71546 0
M  V30 2602 H 260.597 -2.64708 2.96942 0
M  V30 2603 H 257.336 -2.71511 5.96625 0
M  V30 2604 H 256.856 -3.79974 4.64091 0
M  V30 2605 H 258.535 -3.80166 5.23529 0
M  V30 2606 N 258.668 -1.30515 -0.883378 0
M  V30 2607 C 259.916 -1.19194 -1.63209 0
M  V30 2608 C 260.237 0.253205 -1.93349 0
M  V30 2609 O 259.507 1.17025 -1.57105 0
M  V30 2610 H 258.087 -0.438148 -0.605009 0
M  V30 2611 H 260.749 -1.63663 -1.05832 0
M  V30 2612 H 259.845 -1.75396 -2.58153 0
M  V30 2613 N 260.146 1.09593 -1.13257 0
M  V30 2614 C 261.394 1.81375 -0.891492 0
M  V30 2615 C 261.715 1.86049 0.584009 0
M  V30 2616 O 260.985 1.34481 1.42449 0
M  V30 2617 H 259.565 0.671708 -0.326828 0
M  V30 2618 H 262.227 1.3256 -1.42877 0
M  V30 2619 H 261.323 2.84612 -1.28071 0
M  V30 2620 N 261.624 0.925811 1.2754 0
M  V30 2621 C 262.901 0.483726 1.89524 0
M  V30 2622 C 263.281 -1.03809 1.83812 0
M  V30 2623 O 262.629 -1.89143 1.28207 0
M  V30 2624 C 262.839 1.02769 3.33526 0
M  V30 2625 C 264.187 1.08703 4.10449 0
M  V30 2626 O 265.211 0.977175 3.42534 0
M  V30 2627 O 264.07 1.25599 5.31871 0
M  V30 2628 H 261.164 0.15529 0.812289 0
M  V30 2629 H 263.71 1.01738 1.35822 0
M  V30 2630 H 262.482 2.07155 3.31967 0
M  V30 2631 H 262.105 0.475567 3.94746 0
M  V30 2632 N 263.102 -1.41638 0.69111 0
M  V30 2633 C 264.513 -1.84346 0.295517 0
M  V30 2634 C 264.864 -1.57833 -1.16547 0
M  V30 2635 O 263.989 -1.04648 -1.89414 0
M  V30 2636 C 264.584 -3.34636 0.529575 0
M  V30 2637 C 263.143 -3.7593 0.187944 0
M  V30 2638 C 262.29 -2.65082 0.814052 0
M  V30 2639 H 265.241 -1.31253 0.892092 0
M  V30 2640 H 265.262 -3.79903 -0.213148 0
M  V30 2641 H 264.774 -3.53901 1.59297 0
M  V30 2642 H 262.875 -3.62268 -0.871367 0
M  V30 2643 H 262.988 -4.74808 0.63985 0
M  V30 2644 H 261.352 -2.53528 0.244017 0
M  V30 2645 H 262.135 -2.87167 1.88123 0
M  V30 2646 N 264.58 -0.43555 -1.51462 0
M  V30 2647 C 265.828 0.131254 -2.01673 0
M  V30 2648 C 266.149 1.43368 -1.32177 0
M  V30 2649 O 265.419 1.90524 -0.455769 0
M  V30 2650 H 263.999 0.0514954 -0.745223 0
M  V30 2651 H 266.661 -0.577847 -1.86137 0
M  V30 2652 H 265.757 0.308446 -3.10572 0
M  V30 2653 N 266.058 1.56714 -0.166846 0
M  V30 2654 C 267.335 1.88412 0.525373 0
M  V30 2655 C 267.715 1.07602 1.81618 0
M  V30 2656 O 267.063 0.168621 2.27877 0
M  V30 2657 C 267.273 3.40363 0.771613 0
M  V30 2658 C 268.621 4.10007 1.1036 0
M  V30 2659 O 269.645 3.45655 0.860304 0
M  V30 2660 O 268.504 5.2369 1.56239 0
M  V30 2661 H 265.598 0.781587 0.270278 0
M  V30 2662 H 268.144 1.68458 -0.204946 0
M  V30 2663 H 266.916 3.91046 -0.141093 0
M  V30 2664 H 266.539 3.65914 1.55541 0
M  V30 2665 N 267.536 -0.106894 1.57237 0
M  V30 2666 C 268.813 -0.843526 1.76477 0
M  V30 2667 C 269.193 -1.97499 0.745464 0
M  V30 2668 O 268.541 -2.27357 -0.228306 0
M  V30 2669 C 268.751 -1.34903 3.21873 0
M  V30 2670 C 270.099 -1.79654 3.8472 0
M  V30 2671 O 271.123 -1.44554 3.2555 0
M  V30 2672 O 269.982 -2.44515 4.88748 0
M  V30 2673 H 267.076 -0.401468 0.723016 0
M  V30 2674 H 269.622 -0.0896927 1.69463 0
M  V30 2675 H 268.394 -0.53781 3.87586 0
M  V30 2676 H 268.017 -2.16522 3.33473 0
M  V30 2677 N 269.014 -1.53014 -0.377408 0
M  V30 2678 C 269.924 -1.81557 -1.48574 0
M  V30 2679 C 270.94 -0.703102 -1.59162 0
M  V30 2680 O 272.116 -0.99192 -1.75279 0
M  V30 2681 C 269.181 -1.9889 -2.83978 0
M  V30 2682 C 268.242 -3.22801 -2.83016 0
M  V30 2683 C 267.475 -3.39298 -4.11962 0
M  V30 2684 O 267.698 -2.60345 -5.0752 0
M  V30 2685 O 266.632 -4.32604 -4.18494 0
M  V30 2686 H 270.458 -2.75695 -1.27382 0
M  V30 2687 H 268.043 -1.38248 -0.566373 0
M  V30 2688 H 269.925 -2.11931 -3.6423 0
M  V30 2689 H 268.6 -1.07942 -3.05172 0
M  V30 2690 H 267.507 -3.15193 -2.01505 0
M  V30 2691 H 268.84 -4.13632 -2.66775 0
M  V30 2692 N 270.492 0.636531 -1.44174 0
M  V30 2693 C 271.769 1.39463 -1.37148 0
M  V30 2694 C 272.149 2.11082 -0.027507 0
M  V30 2695 O 271.497 2.05954 0.989716 0
M  V30 2696 C 271.707 2.36552 -2.56601 0
M  V30 2697 C 273.055 3.00048 -3.00427 0
M  V30 2698 O 274.079 2.46878 -2.56767 0
M  V30 2699 O 272.938 3.96488 -3.76111 0
M  V30 2700 H 270.032 0.623903 -0.542839 0
M  V30 2701 H 272.578 0.662039 -1.56253 0
M  V30 2702 H 271.35 1.82692 -3.46034 0
M  V30 2703 H 270.973 3.17236 -2.39681 0
M  V30 2704 N 271.97 1.30982 0.876444 0
M  V30 2705 C 272.9 1.20668 1.99903 0
M  V30 2706 C 273.881 0.095354 1.69833 0
M  V30 2707 O 275.066 0.27885 1.92188 0
M  V30 2708 C 272.196 0.90655 3.3526 0
M  V30 2709 C 271.15 1.97675 3.79617 0
M  V30 2710 C 270.476 1.52943 5.1236 0
M  V30 2711 C 271.776 3.389 3.97422 0
M  V30 2712 H 273.47 2.14586 2.0879 0
M  V30 2713 H 271.016 1.03308 1.00317 0
M  V30 2714 H 272.969 0.821025 4.13324 0
M  V30 2715 H 271.693 -0.0682969 3.26529 0
M  V30 2716 H 270.352 2.05205 3.03787 0
M  V30 2717 H 270 0.54262 5.00065 0
M  V30 2718 H 269.7 2.24532 5.43009 0
M  V30 2719 H 271.224 1.45786 5.92941 0
M  V30 2720 H 272.638 3.34081 4.659 0
M  V30 2721 H 271.035 4.0865 4.3946 0
M  V30 2722 H 272.105 3.80163 3.01006 0
M  V30 2723 N 273.449 -1.08991 1.13837 0
M  V30 2724 C 274.412 -2.13925 0.822715 0
M  V30 2725 C 275.412 -1.599 -0.1699 0
M  V30 2726 O 276.602 -1.74104 0.0577251 0
M  V30 2727 C 273.734 -3.40155 0.225318 0
M  V30 2728 H 274.927 -2.43358 1.75262 0
M  V30 2729 H 272.48 -1.24603 0.943594 0
M  V30 2730 H 273.215 -3.16352 -0.713594 0
M  V30 2731 H 273 -3.80661 0.940193 0
M  V30 2732 H 274.49 -4.17594 0.0214784 0
M  V30 2733 N 274.927 -0.932562 -1.27047 0
M  V30 2734 C 275.89 -0.440064 -2.24936 0
M  V30 2735 C 276.89 0.444071 -1.54547 0
M  V30 2736 O 278.08 0.244465 -1.72476 0
M  V30 2737 C 275.212 0.36678 -3.38921 0
M  V30 2738 H 276.405 -1.305 -2.70018 0
M  V30 2739 H 273.958 -0.713707 -1.39054 0
M  V30 2740 H 274.693 1.25033 -2.99228 0
M  V30 2741 H 274.478 -0.267204 -3.91188 0
M  V30 2742 H 275.968 0.701567 -4.11665 0
M  V30 2743 N 276.405 1.4127 -0.698611 0
M  V30 2744 C 277.352 2.30773 -0.0352094 0
M  V30 2745 C 278.322 1.47273 0.768111 0
M  V30 2746 O 279.507 1.76053 0.735524 0
M  V30 2747 C 276.647 3.33346 0.893 0
M  V30 2748 C 275.76 4.31924 0.0809695 0
M  V30 2749 C 274.895 5.21566 1.0071 0
M  V30 2750 C 273.934 6.11811 0.188155 0
M  V30 2751 N 273.071 6.93926 1.06825 0
M  V30 2752 H 277.911 2.86943 -0.804207 0
M  V30 2753 H 275.448 1.4132 -0.408294 0
M  V30 2754 H 277.406 3.91368 1.44523 0
M  V30 2755 H 276.036 2.78719 1.62836 0
M  V30 2756 H 275.088 3.75825 -0.588224 0
M  V30 2757 H 276.4 4.95716 -0.553801 0
M  V30 2758 H 275.554 5.84437 1.62845 0
M  V30 2759 H 274.293 4.58008 1.67572 0
M  V30 2760 H 273.298 5.47986 -0.446254 0
M  V30 2761 H 274.523 6.77425 -0.476716 0
M  V30 2762 H 272.469 6.32973 1.72283 0
M  V30 2763 H 272.386 7.54416 0.489123 0
M  V30 2764 H 273.654 7.61262 1.67632 0
M  V30 2765 N 277.883 0.443576 1.51229 0
M  V30 2766 C 279.299 0.0962001 1.5931 0
M  V30 2767 C 279.499 -1.39501 1.45402 0
M  V30 2768 O 278.555 -2.16557 1.29843 0
M  V30 2769 C 279.868 0.621875 2.94199 0
M  V30 2770 C 281.416 0.582865 3.07525 0
M  V30 2771 C 281.891 1.08562 4.44948 0
M  V30 2772 N 283.382 1.04387 4.51284 0
M  V30 2773 C 284.117 1.40368 5.55954 0
M  V30 2774 N 283.613 1.83664 6.68011 0
M  V30 2775 N 285.406 1.32145 5.46346 0
M  V30 2776 H 277.557 1.41376 1.58514 0
M  V30 2777 H 279.82 0.582965 0.747567 0
M  V30 2778 H 279.526 1.66546 3.09767 0
M  V30 2779 H 279.4 0.0502125 3.77167 0
M  V30 2780 H 281.787 -0.451749 2.91622 0
M  V30 2781 H 281.868 1.191 2.26382 0
M  V30 2782 H 281.512 2.11873 4.61598 0
M  V30 2783 H 281.442 0.453956 5.2464 0
M  V30 2784 H 283.933 0.725986 3.70861 0
M  V30 2785 H 284.246 2.0934 7.43906 0
M  V30 2786 H 282.591 1.87596 6.69203 0
M  V30 2787 H 285.782 0.981808 4.57688 0
M  V30 2788 H 285.955 1.60514 6.27805 0
M  V30 2789 N 279.361 -1.56624 0.175154 0
M  V30 2790 C 280.291 -2.21155 -0.749195 0
M  V30 2791 C 281.272 -1.16836 -1.23626 0
M  V30 2792 O 282.457 -1.45277 -1.28873 0
M  V30 2793 C 279.587 -2.8553 -1.97711 0
M  V30 2794 C 278.541 -3.95921 -1.62575 0
M  V30 2795 C 277.867 -4.47365 -2.92864 0
M  V30 2796 C 279.167 -5.15323 -0.850838 0
M  V30 2797 H 280.861 -2.98653 -0.211295 0
M  V30 2798 H 278.407 -1.43651 -0.100188 0
M  V30 2799 H 280.36 -3.2935 -2.62881 0
M  V30 2800 H 279.084 -2.05406 -2.53921 0
M  V30 2801 H 277.743 -3.52762 -0.997719 0
M  V30 2802 H 277.391 -3.64027 -3.47122 0
M  V30 2803 H 277.091 -5.21839 -2.70106 0
M  V30 2804 H 278.615 -4.93873 -3.59056 0
M  V30 2805 H 280.029 -5.55812 -1.40521 0
M  V30 2806 H 278.426 -5.95739 -0.722154 0
M  V30 2807 H 279.496 -4.84661 0.152082 0
M  V30 2808 N 280.839 0.0985539 -1.57292 0
M  V30 2809 C 282.087 0.801092 -1.85545 0
M  V30 2810 C 282.408 1.79438 -0.763353 0
M  V30 2811 O 281.678 1.94763 0.21073 0
M  V30 2812 H 280.258 0.29884 -0.684619 0
M  V30 2813 H 282.92 0.0810064 -1.94732 0
M  V30 2814 H 282.016 1.3338 -2.82163 0
M  V30 2815 N 282.317 1.53212 0.369288 0
M  V30 2816 C 283.566 1.68436 1.10961 0
M  V30 2817 C 283.879 0.440738 1.9057 0
M  V30 2818 O 285.085 0.473446 2.6734 0
M  V30 2819 C 283.541 2.97744 2.0218 0
M  V30 2820 C 283.149 4.29355 1.279 0
M  V30 2821 C 284.893 3.22334 2.76226 0
M  V30 2822 C 282.8 5.49755 2.17999 0
M  V30 2823 H 281.73 0.627568 0.41794 0
M  V30 2824 H 284.381 1.79713 0.370884 0
M  V30 2825 H 282.763 2.8026 2.79768 0
M  V30 2826 H 283.937 4.57458 0.554007 0
M  V30 2827 H 282.252 4.11179 0.657311 0
M  V30 2828 H 284.849 4.09471 3.43857 0
M  V30 2829 H 285.192 2.38238 3.41392 0
M  V30 2830 H 285.725 3.40475 2.05723 0
M  V30 2831 H 282.464 6.36318 1.57417 0
M  V30 2832 H 281.984 5.25937 2.88359 0
M  V30 2833 H 283.663 5.84401 2.77641 0
M  V30 2834 N 283.795 -0.628877 1.44509 0
M  V30 2835 C 284.705 -1.7694 1.54044 0
M  V30 2836 C 285.721 -1.68705 0.425987 0
M  V30 2837 O 286.897 -1.89442 0.683656 0
M  V30 2838 C 283.962 -3.13332 1.48405 0
M  V30 2839 C 283.023 -3.33181 2.70719 0
M  V30 2840 C 282.256 -4.63067 2.6534 0
M  V30 2841 O 282.479 -5.44017 1.71469 0
M  V30 2842 O 281.413 -4.85167 3.56226 0
M  V30 2843 H 285.239 -1.71848 2.50403 0
M  V30 2844 H 282.824 -0.790378 1.26781 0
M  V30 2845 H 284.706 -3.94634 1.47791 0
M  V30 2846 H 283.381 -3.1896 0.551898 0
M  V30 2847 H 282.288 -2.51549 2.769 0
M  V30 2848 H 283.621 -3.32416 3.62988 0
M  V30 2849 N 285.273 -1.31445 -0.869486 0
M  V30 2850 C 286.55 -1.11795 -1.60503 0
M  V30 2851 C 286.93 0.327168 -2.08549 0
M  V30 2852 O 286.278 1.32135 -1.8642 0
M  V30 2853 C 286.488 -2.13258 -2.76265 0
M  V30 2854 C 287.836 -2.45805 -3.46215 0
M  V30 2855 O 288.86 -2.11688 -2.86473 0
M  V30 2856 O 287.719 -3.04228 -4.5399 0
M  V30 2857 H 284.813 -0.430421 -0.706163 0
M  V30 2858 H 287.359 -1.42925 -0.914907 0
M  V30 2859 H 286.131 -3.10461 -2.3818 0
M  V30 2860 H 285.754 -1.83035 -3.52964 0
M  V30 2861 N 286.751 1.08385 -1.14413 0
M  V30 2862 C 287.714 2.13486 -0.834048 0
M  V30 2863 C 288.714 1.59988 0.161418 0
M  V30 2864 O 289.904 1.74071 -0.0669575 0
M  V30 2865 C 287.036 3.4003 -0.243354 0
M  V30 2866 H 288.229 2.42425 -1.7655 0
M  V30 2867 H 285.782 1.24101 -0.950189 0
M  V30 2868 H 286.517 3.16726 0.696807 0
M  V30 2869 H 286.302 3.80157 -0.960367 0
M  V30 2870 H 287.792 4.17577 -0.0436242 0
M  V30 2871 N 288.23 0.939286 1.26551 0
M  V30 2872 C 289.193 0.451987 2.24699 0
M  V30 2873 C 290.193 -0.435869 1.5478 0
M  V30 2874 O 291.383 -0.235314 1.72603 0
M  V30 2875 C 288.515 -0.348801 3.39111 0
M  V30 2876 H 289.708 1.3193 2.69322 0
M  V30 2877 H 287.261 0.721072 1.38673 0
M  V30 2878 H 287.996 -1.23444 2.99887 0
M  V30 2879 H 287.781 0.287945 3.91041 0
M  V30 2880 H 289.271 -0.679726 4.12031 0
M  V30 2881 N 289.708 -1.40897 0.706093 0
M  V30 2882 C 290.956 -2.00657 0.241054 0
M  V30 2883 C 291.277 -1.56241 -1.16678 0
M  V30 2884 O 290.547 -0.79765 -1.78926 0
M  V30 2885 H 289.127 -0.742018 0.0861308 0
M  V30 2886 H 291.789 -1.72372 0.909604 0
M  V30 2887 H 290.885 -3.10958 0.266705 0
M  V30 2888 N 291.186 -0.45159 -1.50991 0
M  V30 2889 C 292.116 0.342898 -2.30969 0
M  V30 2890 C 293.097 1.00815 -1.37005 0
M  V30 2891 O 294.282 1.00907 -1.65926 0
M  V30 2892 C 291.412 1.43637 -3.16205 0
M  V30 2893 C 290.366 0.893818 -4.18563 0
M  V30 2894 C 289.692 2.08411 -4.92411 0
M  V30 2895 C 290.992 -0.0815568 -5.22236 0
M  V30 2896 H 292.686 -0.324556 -2.97636 0
M  V30 2897 H 290.232 -0.157531 -1.43136 0
M  V30 2898 H 292.185 1.9995 -3.70942 0
M  V30 2899 H 290.909 2.13232 -2.47386 0
M  V30 2900 H 289.568 0.352798 -3.64898 0
M  V30 2901 H 289.216 2.76658 -4.20082 0
M  V30 2902 H 288.916 1.72741 -5.61636 0
M  V30 2903 H 290.44 2.65251 -5.49976 0
M  V30 2904 H 291.854 0.391742 -5.7196 0
M  V30 2905 H 290.251 -0.351551 -5.99069 0
M  V30 2906 H 291.321 -1.01374 -4.74185 0
M  V30 2907 N 292.664 1.56529 -0.183458 0
M  V30 2908 C 293.912 1.96855 0.457452 0
M  V30 2909 C 294.233 1.07104 1.62953 0
M  V30 2910 O 293.503 0.139887 1.954 0
M  V30 2911 H 292.083 0.72693 0.171992 0
M  V30 2912 H 294.745 1.93056 -0.267476 0
M  V30 2913 H 293.841 3.01423 0.809368 0
M  V30 2914 N 294.142 -0.090211 1.57342 0
M  V30 2915 C 295.39 -0.791241 1.85967 0
M  V30 2916 C 295.711 -1.7903 0.772859 0
M  V30 2917 O 294.981 -1.94872 -0.200398 0
M  V30 2918 H 293.561 -0.295205 0.686195 0
M  V30 2919 H 296.223 -0.0706782 1.94772 0
M  V30 2920 H 295.319 -1.31882 2.82867 0
M  V30 2921 N 295.62 -1.53406 -0.361157 0
M  V30 2922 C 297.031 -1.61442 -0.937728 0
M  V30 2923 C 297.382 -0.48461 -1.90121 0
M  V30 2924 O 296.507 0.388312 -2.12888 0
M  V30 2925 C 297.102 -2.92624 -1.70753 0
M  V30 2926 C 295.661 -3.02981 -2.23337 0
M  V30 2927 C 294.808 -2.5677 -1.04712 0
M  V30 2928 H 297.759 -1.58083 -0.139816 0
M  V30 2929 H 297.78 -2.80675 -2.56908 0
M  V30 2930 H 297.292 -3.74834 -1.00604 0
M  V30 2931 H 295.393 -2.25368 -2.96715 0
M  V30 2932 H 295.506 -4.0814 -2.50916 0
M  V30 2933 H 293.87 -2.11752 -1.41539 0
M  V30 2934 H 294.653 -3.41402 -0.360539 0
M  V30 2935 N 297.098 0.621204 -1.44841 0
M  V30 2936 C 298.375 1.38 -1.38619 0
M  V30 2937 C 298.755 2.11041 -0.0498935 0
M  V30 2938 O 298.103 2.06992 0.967816 0
M  V30 2939 C 298.313 2.33817 -2.59096 0
M  V30 2940 C 299.661 2.96844 -3.03593 0
M  V30 2941 O 300.685 2.44141 -2.59371 0
M  V30 2942 O 299.544 3.92476 -3.80296 0
M  V30 2943 H 296.638 0.61811 -0.549426 0
M  V30 2944 H 299.184 0.645429 -1.56947 0
M  V30 2945 H 297.956 1.79012 -3.47952 0
M  V30 2946 H 297.579 3.14676 -2.43032 0
M  V30 2947 N 298.576 1.31904 0.862503 0
M  V30 2948 C 299.824 1.21776 1.61292 0
M  V30 2949 C 300.145 -0.222413 1.93727 0
M  V30 2950 O 299.415 -1.1451 1.58947 0
M  V30 2951 H 297.995 0.447717 0.597962 0
M  V30 2952 H 300.657 1.65326 1.03215 0
M  V30 2953 H 299.753 1.7948 2.5533 0
M  V30 2954 N 300.054 -1.07777 1.14986 0
M  V30 2955 C 301.001 -2.14867 0.842672 0
M  V30 2956 C 301.971 -1.6486 -0.202552 0
M  V30 2957 O 303.156 -1.90668 -0.0710568 0
M  V30 2958 C 300.296 -3.43486 0.333363 0
M  V30 2959 C 299.409 -4.07306 1.43965 0
M  V30 2960 C 298.544 -5.23744 0.886914 0
M  V30 2961 C 297.583 -5.79517 1.97043 0
M  V30 2962 N 296.72 -6.87291 1.4344 0
M  V30 2963 H 301.56 -2.40485 1.75986 0
M  V30 2964 H 299.097 -1.1801 0.878179 0
M  V30 2965 H 301.055 -4.17195 0.0198163 0
M  V30 2966 H 299.685 -3.18133 -0.546916 0
M  V30 2967 H 298.737 -3.31293 1.86946 0
M  V30 2968 H 300.049 -4.44771 2.25788 0
M  V30 2969 H 299.203 -6.04419 0.525651 0
M  V30 2970 H 297.942 -4.87685 0.0377957 0
M  V30 2971 H 296.947 -4.97491 2.34057 0
M  V30 2972 H 298.172 -6.17632 2.82325 0
M  V30 2973 H 296.118 -6.5318 0.607567 0
M  V30 2974 H 296.035 -7.23617 2.18895 0
M  V30 2975 H 297.303 -7.71682 1.10124 0
M  V30 2976 N 301.532 -0.945985 -1.26051 0
M  V30 2977 C 302.757 -0.612525 -1.98149 0
M  V30 2978 C 303.182 0.806623 -1.69927 0
M  V30 2979 O 302.54 1.54411 -0.950108 0
M  V30 2980 C 302.588 -0.866981 -3.50023 0
M  V30 2981 O 301.692 0.0585333 -4.12358 0
M  V30 2982 H 301.033 -0.23379 -0.621481 0
M  V30 2983 H 303.563 -1.27023 -1.60395 0
M  V30 2984 H 303.573 -0.789792 -4.00283 0
M  V30 2985 H 302.248 -1.90135 -3.69894 0
M  V30 2986 H 300.825 -0.0701241 -3.72834 0
M  V30 2987 N 303.011 1.40521 -0.713556 0
M  V30 2988 C 304.259 2.00527 -0.251692 0
M  V30 2989 C 304.58 1.56857 1.15848 0
M  V30 2990 O 303.85 0.807127 1.785 0
M  V30 2991 H 302.43 0.741551 -0.0900646 0
M  V30 2992 H 305.092 1.71887 -0.918733 0
M  V30 2993 H 304.188 3.10813 -0.283192 0
M  V30 2994 N 304.489 0.459591 1.5075 0
M  V30 2995 C 305.905 0.113092 1.59199 0
M  V30 2996 C 306.105 -1.37951 1.46874 0
M  V30 2997 O 305.161 -2.15168 1.32132 0
M  V30 2998 C 306.474 0.653043 2.93523 0
M  V30 2999 C 308.022 0.615449 3.0689 0
M  V30 3000 C 308.497 1.13275 4.43771 0
M  V30 3001 N 309.988 1.09167 4.50152 0
M  V30 3002 C 310.723 1.46256 5.54434 0
M  V30 3003 N 310.219 1.90739 6.66026 0
M  V30 3004 N 312.012 1.37932 5.44914 0
M  V30 3005 H 304.163 1.43049 1.57005 0
M  V30 3006 H 306.426 0.590861 0.741341 0
M  V30 3007 H 306.132 1.69822 3.07983 0
M  V30 3008 H 306.006 0.0902132 3.77092 0
M  V30 3009 H 308.393 -0.420793 2.92084 0
M  V30 3010 H 308.474 1.21495 2.25106 0
M  V30 3011 H 308.118 2.16757 4.59324 0
M  V30 3012 H 308.048 0.509576 5.24129 0
M  V30 3013 H 310.539 0.76528 3.7007 0
M  V30 3014 H 310.852 2.17218 7.41644 0
M  V30 3015 H 309.197 1.94683 6.67176 0
M  V30 3016 H 312.388 1.0303 4.56621 0
M  V30 3017 H 312.561 1.67164 6.26067 0
M  V30 3018 N 305.967 -1.56429 0.191757 0
M  V30 3019 C 307.213 -1.98541 -0.441943 0
M  V30 3020 C 307.568 -1.07646 -1.59468 0
M  V30 3021 O 306.861 -0.120191 -1.91223 0
M  V30 3022 C 307.055 -3.44449 -0.953384 0
M  V30 3023 C 306.884 -4.49456 0.148262 0
M  V30 3024 C 305.654 -5.01668 0.604781 0
M  V30 3025 C 307.852 -5.05336 0.95602 0
M  V30 3026 N 305.834 -5.90334 1.6846 0
M  V30 3027 C 307.205 -5.9064 1.88531 0
M  V30 3028 C 309.26 -4.87779 0.998811 0
M  V30 3029 C 307.963 -6.60264 2.85383 0
M  V30 3030 C 309.989 -5.58139 1.95537 0
M  V30 3031 C 309.351 -6.43187 2.8721 0
M  V30 3032 H 305.45 -0.771247 -0.129236 0
M  V30 3033 H 308.034 -1.92426 0.296682 0
M  V30 3034 H 306.205 -3.5107 -1.66146 0
M  V30 3035 H 307.937 -3.73533 -1.55741 0
M  V30 3036 H 304.692 -4.73183 0.198736 0
M  V30 3037 H 305.116 -6.39371 2.22561 0
M  V30 3038 H 309.758 -4.21705 0.304048 0
M  V30 3039 H 307.476 -7.25538 3.55837 0
M  V30 3040 H 311.062 -5.46532 1.99484 0
M  V30 3041 H 309.942 -6.96674 3.60022 0
M  V30 3042 N 307.445 0.0818655 -1.57387 0
M  V30 3043 C 308.861 0.436412 -1.53517 0
M  V30 3044 C 309.061 1.79758 -0.910459 0
M  V30 3045 O 308.117 2.47324 -0.508636 0
M  V30 3046 C 309.43 0.386734 -2.98203 0
M  V30 3047 C 310.978 0.467644 -3.09487 0
M  V30 3048 C 311.453 0.447978 -4.55804 0
M  V30 3049 N 312.944 0.508348 -4.60402 0
M  V30 3050 C 313.679 0.515184 -5.71081 0
M  V30 3051 N 313.175 0.477435 -6.91153 0
M  V30 3052 N 314.968 0.560988 -5.59294 0
M  V30 3053 H 307.119 -0.809546 -1.96367 0
M  V30 3054 H 309.382 -0.302733 -0.898363 0
M  V30 3055 H 309.088 -0.546539 -3.47427 0
M  V30 3056 H 308.962 1.20075 -3.57578 0
M  V30 3057 H 311.349 1.39134 -2.60242 0
M  V30 3058 H 311.43 -0.374753 -2.5304 0
M  V30 3059 H 311.074 -0.471826 -5.05704 0
M  V30 3060 H 311.004 1.30777 -5.10103 0
M  V30 3061 H 313.495 0.54218 -3.7399 0
M  V30 3062 H 313.808 0.486299 -7.71268 0
M  V30 3063 H 312.153 0.444278 -6.93579 0
M  V30 3064 H 315.344 0.5881 -4.64391 0
M  V30 3065 H 315.517 0.562846 -6.45551 0
M  V30 3066 N 308.923 1.53595 0.353017 0
M  V30 3067 C 310.339 1.43648 0.695516 0
M  V30 3068 C 310.539 0.585617 1.92802 0
M  V30 3069 O 309.595 0.0729223 2.52395 0
M  V30 3070 C 310.908 2.8701 0.896991 0
M  V30 3071 C 312.456 2.96723 0.996209 0
M  V30 3072 C 312.931 4.41173 1.23007 0
M  V30 3073 N 314.422 4.44657 1.29749 0
M  V30 3074 C 315.157 5.53547 1.49577 0
M  V30 3075 N 314.653 6.72461 1.66639 0
M  V30 3076 N 316.446 5.41145 1.52048 0
M  V30 3077 H 308.597 2.07415 -0.457481 0
M  V30 3078 H 310.86 0.9372 -0.142687 0
M  V30 3079 H 310.566 3.51644 0.0629938 0
M  V30 3080 H 310.44 3.31401 1.80148 0
M  V30 3081 H 312.827 2.32235 1.82074 0
M  V30 3082 H 312.908 2.55707 0.0688331 0
M  V30 3083 H 312.552 5.06238 0.410505 0
M  V30 3084 H 312.482 4.79772 2.17086 0
M  V30 3085 H 314.973 3.58963 1.18126 0
M  V30 3086 H 315.286 7.51214 1.81378 0
M  V30 3087 H 313.631 6.75423 1.63794 0
M  V30 3088 H 316.822 4.47205 1.38294 0
M  V30 3089 H 316.995 6.26068 1.67159 0
M  V30 3090 N 310.401 -0.613514 1.45168 0
M  V30 3091 C 311.331 -1.7354 1.56225 0
M  V30 3092 C 312.312 -1.64981 0.41414 0
M  V30 3093 O 313.497 -1.83472 0.636526 0
M  V30 3094 C 310.627 -3.12128 1.52295 0
M  V30 3095 C 309.581 -3.35491 2.65762 0
M  V30 3096 C 308.907 -4.74291 2.46885 0
M  V30 3097 C 310.207 -3.26325 4.0781 0
M  V30 3098 H 311.901 -1.64543 2.50132 0
M  V30 3099 H 309.447 -0.790185 1.20383 0
M  V30 3100 H 311.4 -3.90404 1.58628 0
M  V30 3101 H 310.124 -3.2195 0.549139 0
M  V30 3102 H 308.783 -2.59603 2.58847 0
M  V30 3103 H 308.431 -4.80839 1.47657 0
M  V30 3104 H 308.131 -4.9088 3.22972 0
M  V30 3105 H 309.655 -5.54775 2.55063 0
M  V30 3106 H 311.069 -3.94483 4.16 0
M  V30 3107 H 309.466 -3.54445 4.8424 0
M  V30 3108 H 310.536 -2.23855 4.30136 0
M  V30 3109 N 311.879 -1.3236 -0.855495 0
M  V30 3110 C 312.811 -1.17052 -1.97057 0
M  V30 3111 C 313.824 -0.10574 -1.62456 0
M  V30 3112 O 315.013 -0.354619 -1.74942 0
M  V30 3113 C 312.113 -0.769305 -3.30053 0
M  V30 3114 C 311.286 -1.9222 -3.929 0
M  V30 3115 C 310.345 -1.50466 -5.04228 0
M  V30 3116 O 309.371 -2.21655 -5.24269 0
M  V30 3117 N 310.573 -0.400209 -5.79119 0
M  V30 3118 H 313.338 -2.13103 -2.1073 0
M  V30 3119 H 310.899 -1.24885 -1.0303 0
M  V30 3120 H 312.891 -0.472407 -4.01933 0
M  V30 3121 H 311.461 0.100025 -3.1244 0
M  V30 3122 H 310.681 -2.38563 -3.13817 0
M  V30 3123 H 311.969 -2.69403 -4.31624 0
M  V30 3124 H 311.367 0.192319 -5.65373 0
M  V30 3125 H 309.924 -0.162912 -6.51596 0
M  V30 3126 N 313.357 1.07166 -1.15556 0
M  V30 3127 C 314.768 1.6127 -0.940693 0
M  V30 3128 C 315.119 1.89251 0.517551 0
M  V30 3129 O 314.244 1.65937 1.38903 0
M  V30 3130 C 314.839 2.92993 -1.7012 0
M  V30 3131 C 313.398 3.43832 -1.53156 0
M  V30 3132 C 312.545 2.1786 -1.71558 0
M  V30 3133 H 315.496 0.90229 -1.30554 0
M  V30 3134 H 315.517 3.62007 -1.17181 0
M  V30 3135 H 315.029 2.72596 -2.76248 0
M  V30 3136 H 313.13 3.69307 -0.494294 0
M  V30 3137 H 313.243 4.19747 -2.30975 0
M  V30 3138 H 311.607 2.2765 -1.14225 0
M  V30 3139 H 312.39 1.99956 -2.79056 0
M  V30 3140 N 314.835 0.952656 1.25548 0
M  V30 3141 C 316.251 0.656769 1.4546 0
M  V30 3142 C 316.451 -0.78633 1.85524 0
M  V30 3143 O 315.507 -1.56183 1.98402 0
M  V30 3144 C 316.82 1.62801 2.52817 0
M  V30 3145 C 318.368 1.63897 2.66659 0
M  V30 3146 C 318.843 2.5978 3.77198 0
M  V30 3147 N 320.334 2.58133 3.84606 0
M  V30 3148 C 321.069 3.29003 4.69621 0
M  V30 3149 N 320.565 4.09339 5.58939 0
M  V30 3150 N 322.358 3.179 4.63569 0
M  V30 3151 H 314.509 1.88526 0.978344 0
M  V30 3152 H 316.772 0.810815 0.491206 0
M  V30 3153 H 316.478 2.65869 2.30232 0
M  V30 3154 H 316.352 1.38898 3.50695 0
M  V30 3155 H 318.739 0.615481 2.8861 0
M  V30 3156 H 318.82 1.91858 1.69187 0
M  V30 3157 H 318.464 3.62254 3.55997 0
M  V30 3158 H 318.394 2.29105 4.7415 0
M  V30 3159 H 320.885 1.99809 3.20757 0
M  V30 3160 H 321.198 4.6034 6.20731 0
M  V30 3161 H 319.543 4.13438 5.58654 0
M  V30 3162 H 322.734 2.54612 3.92798 0
M  V30 3163 H 322.907 3.73398 5.29602 0
M  V30 3164 N 316.313 -1.40141 0.720998 0
M  V30 3165 C 317.246 -2.2819 0.020916 0
M  V30 3166 C 318.224 -1.43633 -0.762129 0
M  V30 3167 O 319.408 -1.7304 -0.747633 0
M  V30 3168 C 316.535 -3.24281 -0.977715 0
M  V30 3169 C 315.581 -4.25548 -0.284836 0
M  V30 3170 S 316.414 -5.26247 0.991169 0
M  V30 3171 C 317.57 -6.259 -0.0052214 0
M  V30 3172 H 317.803 -2.87218 0.767649 0
M  V30 3173 H 315.336 -1.45656 0.512233 0
M  V30 3174 H 317.294 -3.80167 -1.54865 0
M  V30 3175 H 315.955 -2.643 -1.69719 0
M  V30 3176 H 315.148 -4.93154 -1.03996 0
M  V30 3177 H 314.75 -3.73389 0.213684 0
M  V30 3178 H 317.042 -6.72143 -0.850279 0
M  V30 3179 H 317.985 -7.05224 0.637599 0
M  V30 3180 H 318.393 -5.63277 -0.371366 0
M  V30 3181 N 317.792 -0.46758 -1.50504 0
M  V30 3182 C 319.038 0.0808869 -2.03239 0
M  V30 3183 C 319.393 1.37721 -1.34353 0
M  V30 3184 O 318.686 1.86016 -0.459194 0
M  V30 3185 C 318.88 0.323995 -3.55928 0
M  V30 3186 C 318.709 -0.947215 -4.39611 0
M  V30 3187 C 317.479 -1.48951 -4.82848 0
M  V30 3188 C 319.677 -1.84166 -4.80195 0
M  V30 3189 N 317.659 -2.71011 -5.50842 0
M  V30 3190 C 319.03 -2.90815 -5.47564 0
M  V30 3191 C 321.085 -1.85246 -4.62156 0
M  V30 3192 C 319.788 -3.98529 -5.98805 0
M  V30 3193 C 321.814 -2.91914 -5.14335 0
M  V30 3194 C 321.176 -3.97282 -5.81676 0
M  V30 3195 H 317.275 -0.0103394 -0.781932 0
M  V30 3196 H 319.859 -0.635003 -1.84054 0
M  V30 3197 H 318.03 1.00892 -3.75067 0
M  V30 3198 H 319.762 0.866492 -3.95315 0
M  V30 3199 H 316.517 -1.03918 -4.62058 0
M  V30 3200 H 316.941 -3.32988 -5.89447 0
M  V30 3201 H 321.583 -1.05103 -4.09528 0
M  V30 3202 H 319.301 -4.79491 -6.50472 0
M  V30 3203 H 322.887 -2.93729 -5.0221 0
M  V30 3204 H 321.767 -4.78462 -6.21324 0
M  V30 3205 N 319.27 1.56325 -0.20005 0
M  V30 3206 C 320.233 2.18084 0.705132 0
M  V30 3207 C 321.233 1.13666 1.1374 0
M  V30 3208 O 322.423 1.39023 1.04968 0
M  V30 3209 C 319.555 2.78689 1.96329 0
M  V30 3210 H 320.748 2.99435 0.167023 0
M  V30 3211 H 318.301 1.56221 0.0495725 0
M  V30 3212 H 319.036 2.0115 2.5438 0
M  V30 3213 H 318.821 3.55133 1.66202 0
M  V30 3214 H 320.311 3.26096 2.60866 0
M  V30 3215 N 320.748 -0.0735177 1.57428 0
M  V30 3216 C 321.678 -1.0879 2.06608 0
M  V30 3217 C 322.659 -1.40473 0.959237 0
M  V30 3218 O 323.844 -1.5013 1.23185 0
M  V30 3219 C 320.974 -2.40183 2.50857 0
M  V30 3220 C 319.928 -2.22858 3.65402 0
M  V30 3221 C 319.254 -3.59619 3.957 0
M  V30 3222 C 320.554 -1.65123 4.95511 0
M  V30 3223 H 322.248 -0.678673 2.91607 0
M  V30 3224 H 319.794 -0.325013 1.40284 0
M  V30 3225 H 321.747 -3.11437 2.83874 0
M  V30 3226 H 320.471 -2.83083 1.62885 0
M  V30 3227 H 319.13 -1.54045 3.32664 0
M  V30 3228 H 318.778 -4.00086 3.04861 0
M  V30 3229 H 318.478 -3.48866 4.72828 0
M  V30 3230 H 320.002 -4.32306 4.31212 0
M  V30 3231 H 321.416 -2.26241 5.26771 0
M  V30 3232 H 319.813 -1.65071 5.7695 0
M  V30 3233 H 320.883 -0.612559 4.81015 0
M  V30 3234 N 322.226 -1.5378 -0.344866 0
M  V30 3235 C 323.473 -1.70963 -1.08526 0
M  V30 3236 C 323.801 -0.472126 -1.88683 0
M  V30 3237 O 323.056 0.546116 -1.87926 0
M  V30 3238 C 323.355 -2.92407 -2.05506 0
M  V30 3239 C 323.021 -4.28066 -1.41671 0
M  V30 3240 C 321.683 -4.64951 -1.2399 0
M  V30 3241 C 324.035 -5.12344 -0.956726 0
M  V30 3242 C 321.363 -5.83733 -0.589277 0
M  V30 3243 C 323.715 -6.3179 -0.320015 0
M  V30 3244 C 322.379 -6.67372 -0.130881 0
M  V30 3245 H 321.649 -0.625598 -0.397124 0
M  V30 3246 H 324.296 -1.87995 -0.36469 0
M  V30 3247 H 322.601 -2.69973 -2.8394 0
M  V30 3248 H 324.298 -3.02895 -2.62784 0
M  V30 3249 H 320.888 -3.99034 -1.56429 0
M  V30 3250 H 325.072 -4.8438 -1.08118 0
M  V30 3251 H 320.328 -6.09877 -0.431344 0
M  V30 3252 H 324.502 -6.96386 0.0445072 0
M  V30 3253 H 322.129 -7.59273 0.375318 0
M  V30 3254 N 323.704 0.605807 -1.45491 0
M  V30 3255 C 324.614 1.74466 -1.56839 0
M  V30 3256 C 325.63 1.68006 -0.452772 0
M  V30 3257 O 326.806 1.8833 -0.713708 0
M  V30 3258 C 323.871 3.10931 -1.53371 0
M  V30 3259 C 322.932 3.28832 -2.75986 0
M  V30 3260 C 322.165 4.58787 -2.72673 0
M  V30 3261 O 322.388 5.4122 -1.80102 0
M  V30 3262 O 321.322 4.79438 -3.63899 0
M  V30 3263 H 325.148 1.67843 -2.53106 0
M  V30 3264 H 322.733 0.770108 -1.28022 0
M  V30 3265 H 324.615 3.92233 -1.54051 0
M  V30 3266 H 323.29 3.18042 -0.602572 0
M  V30 3267 H 322.197 2.47112 -2.80867 0
M  V30 3268 H 323.53 3.26599 -3.68231 0
M  V30 3269 N 325.182 1.32811 0.848464 0
M  V30 3270 C 326.459 1.14334 1.58704 0
M  V30 3271 C 326.839 -0.293948 2.09043 0
M  V30 3272 O 326.187 -1.29153 1.88499 0
M  V30 3273 C 326.397 2.17626 2.72837 0
M  V30 3274 C 327.745 2.51282 3.42261 0
M  V30 3275 O 328.769 2.16219 2.83068 0
M  V30 3276 O 327.628 3.11413 4.49093 0
M  V30 3277 H 324.722 0.441601 0.699226 0
M  V30 3278 H 327.268 1.44362 0.892053 0
M  V30 3279 H 326.04 3.14211 2.3321 0
M  V30 3280 H 325.663 1.88628 3.50008 0
M  V30 3281 N 326.66 -1.06551 1.16123 0
M  V30 3282 C 328.071 -1.60768 0.949232 0
M  V30 3283 C 328.422 -1.89523 -0.507508 0
M  V30 3284 O 327.547 -1.66671 -1.38021 0
M  V30 3285 C 328.142 -2.92086 1.71671 0
M  V30 3286 C 326.701 -3.43015 1.54977 0
M  V30 3287 C 325.848 -2.16947 1.72711 0
M  V30 3288 H 328.799 -0.895354 1.31031 0
M  V30 3289 H 328.82 -3.6138 1.19099 0
M  V30 3290 H 328.332 -2.71127 2.7769 0
M  V30 3291 H 326.433 -3.69039 0.513873 0
M  V30 3292 H 326.546 -4.18516 2.33198 0
M  V30 3293 H 324.91 -2.27041 1.15431 0
M  V30 3294 H 325.693 -1.98473 2.80113 0
M  V30 3295 N 328.138 -0.959301 -1.25041 0
M  V30 3296 C 329.368 -0.63303 -1.96663 0
M  V30 3297 C 329.776 0.800031 -1.71453 0
M  V30 3298 O 329.119 1.54736 -0.99008 0
M  V30 3299 C 329.181 -0.817523 -3.50081 0
M  V30 3300 C 328.845 -2.22863 -3.98975 0
M  V30 3301 C 329.842 -3.20569 -4.09306 0
M  V30 3302 C 327.527 -2.55407 -4.32519 0
M  V30 3303 C 329.521 -4.4891 -4.52503 0
M  V30 3304 C 327.208 -3.83976 -4.754 0
M  V30 3305 C 328.206 -4.8054 -4.85356 0
M  V30 3306 O 327.894 -6.06817 -5.27284 0
M  V30 3307 H 327.626 -0.235866 -0.633516 0
M  V30 3308 H 330.18 -1.2874 -1.60047 0
M  V30 3309 H 328.41 -0.105992 -3.86555 0
M  V30 3310 H 330.099 -0.491604 -4.02912 0
M  V30 3311 H 330.865 -2.96753 -3.83618 0
M  V30 3312 H 326.744 -1.8097 -4.23994 0
M  V30 3313 H 330.288 -5.24283 -4.60188 0
M  V30 3314 H 326.185 -4.07596 -5.00535 0
M  V30 3315 H 326.953 -6.10262 -5.45457 0
M  V30 3316 N 329.616 1.39756 -0.72842 0
M  V30 3317 C 330.841 2.05472 -0.282159 0
M  V30 3318 C 331.266 1.54549 1.07221 0
M  V30 3319 O 330.624 0.686372 1.67805 0
M  V30 3320 C 330.672 3.59462 -0.286264 0
M  V30 3321 O 329.776 4.05918 0.728298 0
M  V30 3322 H 329.117 0.651226 -0.129618 0
M  V30 3323 H 331.647 1.78915 -0.992499 0
M  V30 3324 H 331.657 4.07798 -0.128373 0
M  V30 3325 H 330.332 3.95889 -1.27456 0
M  V30 3326 H 328.909 3.69012 0.537081 0
M  V30 3327 N 331.094 0.475555 1.50254 0
M  V30 3328 C 332.319 -0.0777042 2.07254 0
M  V30 3329 C 332.744 -1.3235 1.3366 0
M  V30 3330 O 332.102 -1.77152 0.385597 0
M  V30 3331 C 332.15 -0.340169 3.58992 0
M  V30 3332 O 331.254 -1.41982 3.87188 0
M  V30 3333 H 330.595 0.0149556 0.663832 0
M  V30 3334 H 333.125 0.667878 1.93392 0
M  V30 3335 H 333.135 -0.579332 4.03866 0
M  V30 3336 H 331.81 0.570167 4.11973 0
M  V30 3337 H 330.387 -1.16762 3.54148 0
M  V30 3338 N 332.573 -1.56217 0.208337 0
M  V30 3339 C 333.989 -1.58919 -0.14729 0
M  V30 3340 C 334.189 -1.22486 -1.59998 0
M  V30 3341 O 333.245 -0.953849 -2.3379 0
M  V30 3342 C 334.558 -3.00236 0.167048 0
M  V30 3343 C 336.106 -3.12813 0.108219 0
M  V30 3344 C 336.581 -4.56284 0.396049 0
M  V30 3345 N 338.072 -4.61912 0.345142 0
M  V30 3346 C 338.807 -5.70837 0.541523 0
M  V30 3347 N 338.303 -6.88178 0.798968 0
M  V30 3348 N 340.096 -5.60091 0.474867 0
M  V30 3349 H 332.247 -1.78177 1.15614 0
M  V30 3350 H 334.51 -0.827555 0.462446 0
M  V30 3351 H 334.216 -3.31499 1.1748 0
M  V30 3352 H 334.09 -3.7354 -0.524184 0
M  V30 3353 H 336.477 -2.81354 -0.890157 0
M  V30 3354 H 336.558 -2.41866 0.832729 0
M  V30 3355 H 336.202 -4.88458 1.3918 0
M  V30 3356 H 336.132 -5.25439 -0.349502 0
M  V30 3357 H 338.623 -3.77589 0.153316 0
M  V30 3358 H 338.936 -7.67095 0.93727 0
M  V30 3359 H 337.281 -6.89953 0.836013 0
M  V30 3360 H 340.472 -4.67297 0.274064 0
M  V30 3361 H 340.645 -6.44917 0.631326 0
M  V30 3362 N 334.051 0.0651679 -1.57465 0
M  V30 3363 C 335.014 1.06117 -2.03155 0
M  V30 3364 C 336.014 1.31204 -0.929632 0
M  V30 3365 O 337.204 1.26813 -1.19432 0
M  V30 3366 C 334.336 2.4032 -2.41783 0
M  V30 3367 H 335.529 0.667231 -2.92383 0
M  V30 3368 H 333.082 0.311075 -1.53173 0
M  V30 3369 H 333.817 2.84532 -1.55601 0
M  V30 3370 H 333.602 2.23451 -3.22199 0
M  V30 3371 H 335.092 3.11898 -2.77685 0
M  V30 3372 N 335.529 1.53961 0.336706 0
M  V30 3373 C 336.492 1.81724 1.39675 0
M  V30 3374 C 337.492 0.688532 1.45313 0
M  V30 3375 O 338.682 0.956829 1.45569 0
M  V30 3376 C 335.814 1.96543 2.78538 0
M  V30 3377 H 337.007 2.76424 1.16318 0
M  V30 3378 H 334.56 1.45478 0.571474 0
M  V30 3379 H 335.295 1.0401 3.07168 0
M  V30 3380 H 335.08 2.78665 2.75841 0
M  V30 3381 H 336.57 2.19516 3.5525 0
M  V30 3382 N 337.007 -0.598083 1.45811 0
M  V30 3383 C 338.423 -0.919847 1.30426 0
M  V30 3384 C 338.623 -1.99759 0.264303 0
M  V30 3385 O 337.679 -2.50221 -0.338472 0
M  V30 3386 C 338.992 -1.35176 2.68603 0
M  V30 3387 C 340.54 -1.46546 2.76574 0
M  V30 3388 C 341.015 -1.9311 4.15298 0
M  V30 3389 N 342.506 -2.00328 4.1764 0
M  V30 3390 C 343.241 -2.37599 5.21856 0
M  V30 3391 N 342.737 -2.73771 6.36413 0
M  V30 3392 N 344.53 -2.38021 5.09218 0
M  V30 3393 H 336.681 0.114111 2.12093 0
M  V30 3394 H 338.944 -0.0116121 0.947929 0
M  V30 3395 H 338.65 -0.633969 3.45939 0
M  V30 3396 H 338.524 -2.3164 2.97696 0
M  V30 3397 H 340.911 -2.17415 1.99537 0
M  V30 3398 H 340.992 -0.483727 2.51185 0
M  V30 3399 H 340.636 -1.22824 4.92825 0
M  V30 3400 H 340.566 -2.92213 4.38086 0
M  V30 3401 H 343.057 -1.74925 3.34977 0
M  V30 3402 H 343.37 -3.0112 7.11721 0
M  V30 3403 H 341.715 -2.71445 6.39799 0
M  V30 3404 H 344.906 -2.09174 4.18765 0
M  V30 3405 H 345.079 -2.66741 5.90554 0
M  V30 3406 N 338.485 -1.33259 -0.841409 0
M  V30 3407 C 339.732 -1.24572 -1.5965 0
M  V30 3408 C 340.06 0.189137 -1.93578 0
M  V30 3409 O 339.315 1.14566 -1.5866 0
M  V30 3410 C 339.614 -2.06381 -2.9179 0
M  V30 3411 C 339.28 -3.556 -2.77235 0
M  V30 3412 C 337.942 -3.96282 -2.72973 0
M  V30 3413 C 340.294 -4.50433 -2.62221 0
M  V30 3414 C 337.622 -5.30017 -2.51592 0
M  V30 3415 C 339.974 -5.84327 -2.42374 0
M  V30 3416 C 338.638 -6.24194 -2.36512 0
M  V30 3417 H 337.908 -0.455842 -0.5842 0
M  V30 3418 H 340.555 -1.6482 -0.975016 0
M  V30 3419 H 338.86 -1.58903 -3.5813 0
M  V30 3420 H 340.557 -1.97019 -3.49263 0
M  V30 3421 H 337.147 -3.23298 -2.81384 0
M  V30 3422 H 341.331 -4.19914 -2.64549 0
M  V30 3423 H 336.587 -5.59947 -2.45499 0
M  V30 3424 H 340.761 -6.57414 -2.29739 0
M  V30 3425 H 338.388 -7.27759 -2.19706 0
M  V30 3426 N 339.963 1.05934 -1.16686 0
M  V30 3427 C 341.212 1.78188 -0.945085 0
M  V30 3428 C 341.525 1.88338 0.528021 0
M  V30 3429 O 342.731 2.57258 0.867799 0
M  V30 3430 C 341.187 3.20277 -1.64167 0
M  V30 3431 C 340.795 3.18281 -3.15279 0
M  V30 3432 C 342.539 3.97039 -1.502 0
M  V30 3433 C 340.446 4.55112 -3.7766 0
M  V30 3434 H 339.376 0.667866 -0.349959 0
M  V30 3435 H 342.027 1.18794 -1.39858 0
M  V30 3436 H 340.409 3.79952 -1.11589 0
M  V30 3437 H 341.583 2.68167 -3.74731 0
M  V30 3438 H 339.898 2.55018 -3.29173 0
M  V30 3439 H 342.495 4.98194 -1.94183 0
M  V30 3440 H 342.838 4.13845 -0.451461 0
M  V30 3441 H 343.371 3.43894 -1.99954 0
M  V30 3442 H 340.11 4.43512 -4.82677 0
M  V30 3443 H 339.63 5.05406 -3.22994 0
M  V30 3444 H 341.309 5.24064 -3.79428 0
M  V30 3445 N 341.441 0.965919 1.2453 0
M  V30 3446 C 342.404 0.499547 2.2369 0
M  V30 3447 C 343.404 -0.40294 1.5567 0
M  V30 3448 O 344.594 -0.19865 1.73064 0
M  V30 3449 C 341.726 -0.276792 3.39774 0
M  V30 3450 H 342.919 1.37613 2.66463 0
M  V30 3451 H 340.472 0.750324 1.37112 0
M  V30 3452 H 341.207 -1.17055 3.02438 0
M  V30 3453 H 340.992 0.370826 3.90343 0
M  V30 3454 H 342.482 -0.592175 4.1338 0
M  V30 3455 N 342.919 -1.39368 0.735821 0
M  V30 3456 C 344.166 -2.00497 0.284123 0
M  V30 3457 C 344.494 -1.58387 -1.12889 0
M  V30 3458 O 343.749 -0.804359 -1.78406 0
M  V30 3459 C 344.048 -3.5583 0.334651 0
M  V30 3460 C 343.714 -4.17593 1.7008 0
M  V30 3461 C 342.376 -4.34176 2.07472 0
M  V30 3462 C 344.728 -4.51848 2.59775 0
M  V30 3463 C 342.056 -4.82304 3.34065 0
M  V30 3464 C 344.408 -5.01384 3.85741 0
M  V30 3465 C 343.072 -5.16175 4.23225 0
M  V30 3466 H 342.342 -0.73367 0.103968 0
M  V30 3467 H 344.989 -1.66683 0.942825 0
M  V30 3468 H 343.294 -3.89674 -0.407625 0
M  V30 3469 H 344.991 -4.00986 -0.0329927 0
M  V30 3470 H 341.581 -4.05087 1.40008 0
M  V30 3471 H 345.765 -4.38653 2.32157 0
M  V30 3472 H 341.021 -4.91941 3.63049 0
M  V30 3473 H 345.195 -5.26863 4.55399 0
M  V30 3474 H 342.822 -5.5323 5.21384 0
M  V30 3475 N 344.397 -0.483516 -1.5 0
M  V30 3476 C 345.36 0.292965 -2.2732 0
M  V30 3477 C 346.36 0.909499 -1.32608 0
M  V30 3478 O 347.55 0.776745 -1.55924 0
M  V30 3479 C 344.682 1.41854 -3.09984 0
M  V30 3480 H 345.875 -0.385289 -2.97415 0
M  V30 3481 H 343.428 -0.237942 -1.54478 0
M  V30 3482 H 344.163 2.13148 -2.44414 0
M  V30 3483 H 343.948 0.982114 -3.79601 0
M  V30 3484 H 345.438 1.96597 -3.68429 0
M  V30 3485 N 345.875 1.56104 -0.216619 0
M  V30 3486 C 347.1 2.0301 0.424462 0
M  V30 3487 C 347.525 1.0955 1.52907 0
M  V30 3488 O 346.883 0.0827914 1.81111 0
M  V30 3489 C 346.931 3.4819 0.937883 0
M  V30 3490 O 346.035 3.57865 2.04955 0
M  V30 3491 H 345.376 0.656925 0.0966755 0
M  V30 3492 H 347.906 2.01859 -0.33381 0
M  V30 3493 H 347.916 3.88413 1.24897 0
M  V30 3494 H 346.591 4.15699 0.129387 0
M  V30 3495 H 345.168 3.29527 1.74546 0
M  V30 3496 N 347.353 -0.0568162 1.57498 0
M  V30 3497 C 348.283 -1.06593 2.0775 0
M  V30 3498 C 349.264 -1.39448 0.974082 0
M  V30 3499 O 350.449 -1.48815 1.24771 0
M  V30 3500 C 347.579 -2.37509 2.5339 0
M  V30 3501 C 346.533 -2.1897 3.67745 0
M  V30 3502 C 345.859 -3.55402 3.99492 0
M  V30 3503 C 347.159 -1.59859 4.97235 0
M  V30 3504 H 348.853 -0.647706 2.9231 0
M  V30 3505 H 346.399 -0.310116 1.40621 0
M  V30 3506 H 348.352 -3.08409 2.87162 0
M  V30 3507 H 347.076 -2.8134 1.65878 0
M  V30 3508 H 345.735 -1.50508 3.3428 0
M  V30 3509 H 345.383 -3.9683 3.09088 0
M  V30 3510 H 345.083 -3.43831 4.76502 0
M  V30 3511 H 346.607 -4.27708 4.35773 0
M  V30 3512 H 348.021 -2.20642 5.29141 0
M  V30 3513 H 346.418 -1.58942 5.78669 0
M  V30 3514 H 347.488 -0.561506 4.81638 0
M  V30 3515 N 348.832 -1.54138 -0.328536 0
M  V30 3516 C 350.079 -1.72105 -1.06706 0
M  V30 3517 C 350.407 -0.492111 -1.88171 0
M  V30 3518 O 349.662 0.526153 -1.88494 0
M  V30 3519 C 349.961 -2.9457 -2.02393 0
M  V30 3520 C 349.627 -4.29544 -1.37122 0
M  V30 3521 C 348.289 -4.6624 -1.19052 0
M  V30 3522 C 350.641 -5.1333 -0.902331 0
M  V30 3523 C 347.969 -5.84325 -0.527331 0
M  V30 3524 C 350.321 -6.32094 -0.252988 0
M  V30 3525 C 348.985 -6.67473 -0.0600901 0
M  V30 3526 H 348.255 -0.629775 -0.390466 0
M  V30 3527 H 350.902 -1.88372 -0.34473 0
M  V30 3528 H 349.207 -2.72969 -2.81061 0
M  V30 3529 H 350.904 -3.05665 -2.59557 0
M  V30 3530 H 347.494 -4.0067 -1.52188 0
M  V30 3531 H 351.678 -4.855 -1.02974 0
M  V30 3532 H 346.934 -6.103 -0.366634 0
M  V30 3533 H 351.108 -6.96299 0.118366 0
M  V30 3534 H 348.735 -7.58832 0.455828 0
M  V30 3535 N 350.31 0.590341 -1.46126 0
M  V30 3536 C 351.557 1.34882 -1.5104 0
M  V30 3537 C 351.885 1.93849 -0.159021 0
M  V30 3538 O 351.14 1.76544 0.844436 0
M  V30 3539 C 351.439 2.5032 -2.55097 0
M  V30 3540 C 351.105 2.09394 -3.99331 0
M  V30 3541 C 349.767 1.97947 -4.38601 0
M  V30 3542 C 352.119 1.77712 -4.89967 0
M  V30 3543 C 349.447 1.53065 -5.66381 0
M  V30 3544 C 351.799 1.34312 -6.18177 0
M  V30 3545 C 350.463 1.21436 -6.56361 0
M  V30 3546 H 349.733 0.493568 -0.552695 0
M  V30 3547 H 352.38 0.665539 -1.79563 0
M  V30 3548 H 350.685 3.24062 -2.20207 0
M  V30 3549 H 352.382 3.08541 -2.56132 0
M  V30 3550 H 348.972 2.19235 -3.68285 0
M  V30 3551 H 353.156 1.85445 -4.60352 0
M  V30 3552 H 348.412 1.41733 -5.94745 0
M  V30 3553 H 352.586 1.08849 -6.87841 0
M  V30 3554 H 350.213 0.864345 -7.5527 0
M  V30 3555 N 351.788 1.33704 0.83433 0
M  V30 3556 C 353.037 1.24763 1.58484 0
M  V30 3557 C 353.35 -0.183775 1.94735 0
M  V30 3558 O 354.556 -0.395234 2.68608 0
M  V30 3559 C 353.012 2.18638 2.85876 0
M  V30 3560 C 352.62 3.66974 2.56971 0
M  V30 3561 C 354.364 2.18581 3.63899 0
M  V30 3562 C 352.271 4.5275 3.80488 0
M  V30 3563 H 351.201 0.463425 0.594772 0
M  V30 3564 H 353.852 1.58797 0.919551 0
M  V30 3565 H 352.234 1.77542 3.5397 0
M  V30 3566 H 353.408 4.16538 1.9706 0
M  V30 3567 H 351.723 3.69366 1.92244 0
M  V30 3568 H 354.32 2.79894 4.55591 0
M  V30 3569 H 354.663 1.18207 3.99165 0
M  V30 3570 H 355.196 2.58062 3.02735 0
M  V30 3571 H 351.935 5.54017 3.5035 0
M  V30 3572 H 351.455 4.07927 4.39722 0
M  V30 3573 H 353.134 4.66784 4.4802 0
M  V30 3574 N 353.266 -1.05314 1.17247 0
M  V30 3575 C 354.196 -2.1498 0.911362 0
M  V30 3576 C 355.177 -1.69471 -0.146169 0
M  V30 3577 O 356.362 -1.942 0.003812 0
M  V30 3578 C 353.492 -3.4472 0.422528 0
M  V30 3579 C 352.446 -4.03789 1.4191 0
M  V30 3580 C 351.772 -5.28858 0.788274 0
M  V30 3581 C 353.072 -4.41418 2.7919 0
M  V30 3582 H 354.766 -2.3708 1.82848 0
M  V30 3583 H 352.312 -1.13938 0.880569 0
M  V30 3584 H 354.265 -4.20787 0.227289 0
M  V30 3585 H 352.989 -3.22269 -0.530123 0
M  V30 3586 H 351.648 -3.2979 1.60106 0
M  V30 3587 H 351.296 -5.02709 -0.171173 0
M  V30 3588 H 350.996 -5.69338 1.45353 0
M  V30 3589 H 352.52 -6.07612 0.603282 0
M  V30 3590 H 353.934 -5.08524 2.64719 0
M  V30 3591 H 352.331 -4.92913 3.42282 0
M  V30 3592 H 353.401 -3.51819 3.33693 0
M  V30 3593 N 354.744 -0.972509 -1.24016 0
M  V30 3594 C 355.99 -0.637978 -1.92504 0
M  V30 3595 C 356.323 0.825383 -1.75787 0
M  V30 3596 O 355.598 1.59442 -1.11393 0
M  V30 3597 C 355.881 -1.01942 -3.45369 0
M  V30 3598 C 355.734 -2.53983 -3.71231 0
M  V30 3599 C 357.053 -0.55751 -4.36555 0
M  V30 3600 H 354.172 -0.233248 -0.699117 0
M  V30 3601 H 356.814 -1.21238 -1.46292 0
M  V30 3602 H 354.964 -0.530656 -3.84859 0
M  V30 3603 H 356.636 -3.10374 -3.41271 0
M  V30 3604 H 354.879 -2.96968 -3.16216 0
M  V30 3605 H 355.55 -2.75723 -4.78206 0
M  V30 3606 H 358.026 -0.977029 -4.04467 0
M  V30 3607 H 356.902 -0.85292 -5.42233 0
M  V30 3608 H 357.163 0.542328 -4.38761 0
M  V30 3609 N 356.222 1.38976 -0.743202 0
M  V30 3610 C 357.447 2.05161 -0.303936 0
M  V30 3611 C 357.872 1.55677 1.05576 0
M  V30 3612 O 357.23 0.704131 1.67068 0
M  V30 3613 C 357.278 3.59138 -0.324373 0
M  V30 3614 O 356.382 4.06668 0.685204 0
M  V30 3615 H 355.723 0.649815 -0.136518 0
M  V30 3616 H 358.253 1.77852 -1.01142 0
M  V30 3617 H 358.263 4.07639 -0.171618 0
M  V30 3618 H 356.938 3.94515 -1.31647 0
M  V30 3619 H 355.515 3.69561 0.497913 0
M  V30 3620 N 357.7 0.491464 1.49741 0
M  V30 3621 C 358.949 -0.0582189 2.01616 0
M  V30 3622 C 359.262 -1.38927 1.3769 0
M  V30 3623 O 360.468 -2.02509 1.80838 0
M  V30 3624 C 358.924 -0.154235 3.59569 0
M  V30 3625 C 358.532 1.1696 4.32463 0
M  V30 3626 C 360.276 -0.65479 4.1942 0
M  V30 3627 C 358.183 1.03627 5.8225 0
M  V30 3628 H 357.113 -0.0255317 0.753568 0
M  V30 3629 H 359.764 0.629445 1.72367 0
M  V30 3630 H 358.146 -0.906138 3.85493 0
M  V30 3631 H 359.32 1.93405 4.18248 0
M  V30 3632 H 357.635 1.60285 3.84315 0
M  V30 3633 H 360.232 -0.771903 5.29099 0
M  V30 3634 H 360.575 -1.65127 3.8215 0
M  V30 3635 H 361.108 0.040304 3.9778 0
M  V30 3636 H 357.847 2.00672 6.24028 0
M  V30 3637 H 357.367 0.312546 5.98985 0
M  V30 3638 H 359.046 0.711114 6.4308 0
M  V30 3639 N 359.178 -1.55987 0.224894 0
M  V30 3640 C 360.406 -2.02784 -0.410665 0
M  V30 3641 C 360.821 -1.10464 -1.53112 0
M  V30 3642 O 360.178 -0.114871 -1.82138 0
M  V30 3643 C 360.229 -3.49087 -0.939165 0
M  V30 3644 O 359.95 -4.37887 0.136614 0
M  V30 3645 C 361.451 -4.11543 -1.64763 0
M  V30 3646 H 358.671 -0.663484 -0.100148 0
M  V30 3647 H 361.215 -2.01614 0.342326 0
M  V30 3648 H 359.37 -3.50861 -1.64242 0
M  V30 3649 H 359.784 -5.23849 -0.261155 0
M  V30 3650 H 361.258 -5.15673 -1.96939 0
M  V30 3651 H 361.735 -3.56736 -2.56195 0
M  V30 3652 H 362.341 -4.13629 -0.989503 0
M  V30 3653 N 360.656 0.0484629 -1.57525 0
M  V30 3654 C 361.884 0.755421 -1.92616 0
M  V30 3655 C 362.299 1.69919 -0.822984 0
M  V30 3656 O 361.656 1.81378 0.202085 0
M  V30 3657 C 361.707 1.52915 -3.27566 0
M  V30 3658 O 361.428 0.62329 -4.33644 0
M  V30 3659 C 362.929 2.33502 -3.76818 0
M  V30 3660 H 360.149 0.213465 -0.63614 0
M  V30 3661 H 362.693 0.0117698 -2.04497 0
M  V30 3662 H 360.848 2.22486 -3.17142 0
M  V30 3663 H 361.262 1.16383 -5.11425 0
M  V30 3664 H 362.736 2.83214 -4.73808 0
M  V30 3665 H 363.213 3.14068 -3.07014 0
M  V30 3666 H 363.819 1.69043 -3.90262 0
M  V30 3667 N 362.134 1.5431 0.320358 0
M  V30 3668 C 363.381 1.72668 1.05792 0
M  V30 3669 C 363.709 0.502084 1.87908 0
M  V30 3670 O 362.964 -0.516149 1.88771 0
M  V30 3671 C 363.263 2.95639 2.00828 0
M  V30 3672 C 362.929 4.30265 1.34843 0
M  V30 3673 C 361.591 4.66865 1.16578 0
M  V30 3674 C 363.943 5.13801 0.875095 0
M  V30 3675 C 361.271 5.84597 0.496336 0
M  V30 3676 C 363.623 6.32219 0.219463 0
M  V30 3677 C 362.287 6.67495 0.0246915 0
M  V30 3678 H 361.557 0.631837 0.387121 0
M  V30 3679 H 364.204 1.88552 0.334735 0
M  V30 3680 H 362.509 2.74456 2.79609 0
M  V30 3681 H 364.206 3.07038 2.57932 0
M  V30 3682 H 360.796 4.01472 1.50061 0
M  V30 3683 H 364.98 4.86039 1.00398 0
M  V30 3684 H 360.236 6.10486 0.334264 0
M  V30 3685 H 364.41 6.96227 -0.155291 0
M  V30 3686 H 362.037 7.5858 -0.496065 0
M  V30 3687 N 363.613 -0.582584 1.46437 0
M  V30 3688 C 364.853 -1.35184 1.53312 0
M  V30 3689 C 365.217 -1.9115 0.180508 0
M  V30 3690 O 366.418 -2.68514 0.124017 0
M  V30 3691 C 364.689 -2.45089 2.60127 0
M  V30 3692 S 366.248 -3.32439 2.86408 0
M  V30 3693 H 363.066 -0.460559 0.54167 0
M  V30 3694 H 365.668 -0.669709 1.83671 0
M  V30 3695 H 364.372 -2.02366 3.57038 0
M  V30 3696 H 363.903 -3.18074 2.315 0
M  V30 3697 H 365.918 -4.43924 2.21688 0
M  V30 3698 N 365.091 -1.34144 -0.827227 0
M  V30 3699 C 366.021 -1.28005 -1.95287 0
M  V30 3700 C 367.002 -0.158321 -1.69362 0
M  V30 3701 O 368.187 -0.349987 -1.9102 0
M  V30 3702 C 365.317 -1.03036 -3.31664 0
M  V30 3703 C 364.271 -2.11628 -3.72019 0
M  V30 3704 C 363.597 -1.71854 -5.0633 0
M  V30 3705 C 364.897 -3.53417 -3.8457 0
M  V30 3706 H 366.591 -2.22187 -2.00682 0
M  V30 3707 H 364.137 -1.0696 -0.964135 0
M  V30 3708 H 366.09 -0.973863 -4.09993 0
M  V30 3709 H 364.814 -0.0529391 -3.26557 0
M  V30 3710 H 363.473 -2.16339 -2.95961 0
M  V30 3711 H 363.121 -0.727841 -4.97706 0
M  V30 3712 H 362.821 -2.44531 -5.34302 0
M  V30 3713 H 364.345 -1.67692 -5.87122 0
M  V30 3714 H 365.759 -3.51142 -4.5318 0
M  V30 3715 H 364.156 -4.24679 -4.2399 0
M  V30 3716 H 365.226 -3.91072 -2.86689 0
M  V30 3717 N 366.569 1.04691 -1.17803 0
M  V30 3718 C 367.479 2.16057 -0.914151 0
M  V30 3719 C 368.495 1.73589 0.119503 0
M  V30 3720 O 369.671 2.01308 -0.0609468 0
M  V30 3721 C 366.736 3.4394 -0.436603 0
M  V30 3722 C 365.797 4.00825 -1.53746 0
M  V30 3723 C 365.03 5.22604 -1.0826 0
M  V30 3724 O 365.253 5.70367 0.0612244 0
M  V30 3725 O 364.187 5.7186 -1.87775 0
M  V30 3726 H 368.013 2.41169 -1.84584 0
M  V30 3727 H 365.598 1.1453 -0.959334 0
M  V30 3728 H 367.48 4.21024 -0.178057 0
M  V30 3729 H 366.155 3.20316 0.466869 0
M  V30 3730 H 365.062 3.25158 -1.84995 0
M  V30 3731 H 366.395 4.28778 -2.41683 0
M  V30 3732 N 368.047 0.979072 1.23499 0
M  V30 3733 C 369.275 0.665202 1.95915 0
M  V30 3734 C 369.69 -0.767571 1.72493 0
M  V30 3735 O 369.047 -1.51635 1.01554 0
M  V30 3736 C 369.098 0.944438 3.48945 0
M  V30 3737 O 368.819 2.3209 3.71572 0
M  V30 3738 C 370.32 0.646336 4.38563 0
M  V30 3739 H 367.54 0.247218 0.623798 0
M  V30 3740 H 370.084 1.31009 1.57025 0
M  V30 3741 H 368.239 0.345575 3.85856 0
M  V30 3742 H 368.653 2.40957 4.65876 0
M  V30 3743 H 370.127 0.892091 5.44744 0
M  V30 3744 H 370.604 -0.419575 4.37191 0
M  V30 3745 H 371.21 1.22562 4.07258 0
M  V30 3746 N 369.525 -1.3858 0.750561 0
M  V30 3747 C 370.475 -2.27795 0.0965949 0
M  V30 3748 C 371.459 -1.45048 -0.696411 0
M  V30 3749 O 372.651 -1.67812 -0.562863 0
M  V30 3750 C 369.78 -3.33894 -0.798085 0
M  V30 3751 C 368.866 -4.241 0.0016067 0
M  V30 3752 N 369.257 -4.95067 1.03647 0
M  V30 3753 C 367.555 -4.45429 -0.225674 0
M  V30 3754 C 368.256 -5.61489 1.52004 0
M  V30 3755 N 367.232 -5.37135 0.835874 0
M  V30 3756 H 371.034 -2.80125 0.889228 0
M  V30 3757 H 368.548 -1.51446 0.586323 0
M  V30 3758 H 370.545 -3.96693 -1.28219 0
M  V30 3759 H 369.205 -2.83123 -1.5897 0
M  V30 3760 H 370.216 -4.98104 1.41819 0
M  V30 3761 H 366.893 -4.05571 -0.990872 0
M  V30 3762 H 368.283 -6.28264 2.38188 0
M  V30 3763 N 371.003 -0.499398 -1.49478 0
M  V30 3764 C 371.913 0.284489 -2.32869 0
M  V30 3765 C 372.929 0.968885 -1.44529 0
M  V30 3766 O 374.105 0.95062 -1.77553 0
M  V30 3767 C 371.17 1.33594 -3.19928 0
M  V30 3768 C 370.231 0.665149 -4.24116 0
M  V30 3769 C 369.464 1.6665 -5.07014 0
M  V30 3770 O 369.687 2.89618 -4.91404 0
M  V30 3771 O 368.621 1.22271 -5.8935 0
M  V30 3772 H 372.447 -0.39802 -3.01081 0
M  V30 3773 H 370.032 -0.260758 -1.47107 0
M  V30 3774 H 371.914 1.94431 -3.73864 0
M  V30 3775 H 370.589 2.0014 -2.54412 0
M  V30 3776 H 369.496 0.0170769 -3.74096 0
M  V30 3777 H 370.829 0.0421555 -4.92182 0
M  V30 3778 N 372.481 1.55866 -0.233164 0
M  V30 3779 C 373.444 2.1953 0.658715 0
M  V30 3780 C 374.444 1.16053 1.11303 0
M  V30 3781 O 375.634 1.41218 1.01996 0
M  V30 3782 C 372.766 2.82791 1.90373 0
M  V30 3783 H 373.959 2.99721 0.10347 0
M  V30 3784 H 371.512 1.56291 0.0164245 0
M  V30 3785 H 372.247 2.06501 2.50056 0
M  V30 3786 H 372.032 3.58578 1.58632 0
M  V30 3787 H 373.522 3.31556 2.53891 0
M  V30 3788 N 373.959 -0.0401083 1.57549 0
M  V30 3789 C 375.206 -0.733125 1.88763 0
M  V30 3790 C 375.534 -1.75946 0.829058 0
M  V30 3791 O 374.789 -1.94949 -0.171323 0
M  V30 3792 C 375.088 -1.44902 3.26708 0
M  V30 3793 C 374.754 -0.559707 4.47413 0
M  V30 3794 C 373.416 -0.314731 4.8017 0
M  V30 3795 C 375.768 0.0549743 5.21171 0
M  V30 3796 C 373.096 0.553886 5.8408 0
M  V30 3797 C 375.448 0.911229 6.26003 0
M  V30 3798 C 374.112 1.16577 6.57241 0
M  V30 3799 H 373.382 -0.268269 0.690733 0
M  V30 3800 H 376.029 0.00679408 1.91499 0
M  V30 3801 H 374.334 -2.26197 3.1991 0
M  V30 3802 H 376.031 -1.99058 3.48105 0
M  V30 3803 H 372.621 -0.760793 4.21794 0
M  V30 3804 H 376.805 -0.121344 4.96152 0
M  V30 3805 H 372.061 0.759518 6.06664 0
M  V30 3806 H 376.235 1.3941 6.82303 0
M  V30 3807 H 373.862 1.84058 7.37582 0
M  V30 3808 N 375.437 -1.54477 -0.31217 0
M  V30 3809 C 376.385 -1.85395 -1.40469 0
M  V30 3810 C 377.379 -0.726749 -1.53019 0
M  V30 3811 O 378.585 -0.910582 -1.55269 0
M  V30 3812 H 374.96 -0.587845 -0.46898 0
M  V30 3813 H 376.931 -2.76736 -1.11623 0
M  V30 3814 C 375.68 -2.10811 -2.76503 0
M  V30 3815 H 375.003 -2.97014 -2.67625 0
M  V30 3816 H 376.443 -2.3639 -3.51988 0
M  V30 3817 C 374.902 -0.903165 -3.24568 0
M  V30 3818 O 375.432 -0.118085 -4.01526 0
M  V30 3819 N 373.638 -0.711634 -2.81752 0
M  V30 3820 H 373.185 -1.35171 -2.19286 0
M  V30 3821 H 373.143 0.0930473 -3.14262 0
M  V30 3822 N 376.915 0.57481 -1.46744 0
M  V30 3823 C 378.164 1.32898 -1.51727 0
M  V30 3824 C 378.477 1.948 -0.176692 0
M  V30 3825 O 379.683 2.71299 -0.104385 0
M  V30 3826 C 378.139 2.40901 -2.67385 0
M  V30 3827 C 377.747 1.85266 -4.07898 0
M  V30 3828 C 379.491 3.17609 -2.81646 0
M  V30 3829 C 377.398 2.90945 -5.14883 0
M  V30 3830 H 376.328 0.499631 -0.564699 0
M  V30 3831 H 378.979 0.612536 -1.72975 0
M  V30 3832 H 377.361 3.15379 -2.39483 0
M  V30 3833 H 378.535 1.17278 -4.45626 0
M  V30 3834 H 376.85 1.21199 -3.98371 0
M  V30 3835 H 379.447 3.96493 -3.58744 0
M  V30 3836 H 379.79 3.70696 -1.89448 0
M  V30 3837 H 380.323 2.50239 -3.09233 0
M  V30 3838 H 377.062 2.42736 -6.089 0
M  V30 3839 H 376.582 3.57398 -4.81691 0
M  V30 3840 H 378.261 3.54755 -5.41071 0
M  V30 3841 N 378.394 1.34581 0.820102 0
M  V30 3842 C 379.64 1.27285 1.57881 0
M  V30 3843 C 379.973 -0.156137 1.93571 0
M  V30 3844 O 379.248 -1.10222 1.60254 0
M  V30 3845 C 379.531 2.16639 2.87645 0
M  V30 3846 C 379.384 3.68088 2.58517 0
M  V30 3847 C 380.703 2.05378 3.8924 0
M  V30 3848 H 377.822 0.463714 0.572833 0
M  V30 3849 H 380.464 1.64859 0.944539 0
M  V30 3850 H 378.614 1.84725 3.41773 0
M  V30 3851 H 380.286 4.10382 2.10676 0
M  V30 3852 H 378.529 3.89038 1.91917 0
M  V30 3853 H 379.2 4.2598 3.51063 0
M  V30 3854 H 381.676 2.33404 3.44473 0
M  V30 3855 H 380.552 2.7012 4.77835 0
M  V30 3856 H 380.813 1.0316 4.29896 0
M  V30 3857 N 379.872 -1.04064 1.18357 0
M  V30 3858 C 380.819 -2.12077 0.910603 0
M  V30 3859 C 381.789 -1.65421 -0.15 0
M  V30 3860 O 382.974 -1.90797 -0.0103614 0
M  V30 3861 C 380.114 -3.42252 0.442472 0
M  V30 3862 C 379.227 -4.0252 1.5685 0
M  V30 3863 C 378.362 -5.20657 1.05309 0
M  V30 3864 C 377.401 -5.72955 2.1538 0
M  V30 3865 N 376.538 -6.8238 1.65233 0
M  V30 3866 H 381.378 -2.34764 1.83548 0
M  V30 3867 H 378.915 -1.15157 0.915279 0
M  V30 3868 H 380.873 -4.16921 0.152534 0
M  V30 3869 H 379.503 -3.19712 -0.445428 0
M  V30 3870 H 378.555 -3.25178 1.97391 0
M  V30 3871 H 379.867 -4.37362 2.39824 0
M  V30 3872 H 379.021 -6.0244 0.717677 0
M  V30 3873 H 377.76 -4.87318 0.19293 0
M  V30 3874 H 376.765 -4.89793 2.49766 0
M  V30 3875 H 377.99 -6.08337 3.01832 0
M  V30 3876 H 375.936 -6.50917 0.815064 0
M  V30 3877 H 375.853 -7.16286 2.41805 0
M  V30 3878 H 377.121 -7.67788 1.34619 0
M  V30 3879 N 381.35 -0.985608 -1.22978 0
M  V30 3880 C 382.298 -0.522631 -2.26652 0
M  V30 3881 C 383.292 0.422998 -1.64034 0
M  V30 3882 O 384.498 0.296319 -1.77544 0
M  V30 3883 H 380.873 -0.150597 -0.736766 0
M  V30 3884 H 382.844 -1.40863 -2.63059 0
M  V30 3885 C 381.593 0.154238 -3.47358 0
M  V30 3886 H 380.916 -0.564329 -3.95797 0
M  V30 3887 H 382.356 0.441744 -4.21693 0
M  V30 3888 C 380.815 1.38719 -3.07016 0
M  V30 3889 O 381.345 2.48307 -3.15764 0
M  V30 3890 N 379.551 1.25975 -2.61875 0
M  V30 3891 H 379.098 0.368068 -2.54957 0
M  V30 3892 H 379.056 2.08578 -2.3525 0
M  V30 3893 N 382.828 1.3818 -0.7579 0
M  V30 3894 C 383.775 2.30416 -0.133057 0
M  V30 3895 C 384.745 1.50398 0.704957 0
M  V30 3896 O 385.93 1.79014 0.660192 0
M  V30 3897 C 383.07 3.36834 0.750813 0
M  V30 3898 C 382.183 4.31879 -0.102297 0
M  V30 3899 C 381.318 5.25368 0.784979 0
M  V30 3900 C 380.357 6.12058 -0.0715046 0
M  V30 3901 N 379.494 6.97832 0.772972 0
M  V30 3902 H 384.334 2.83274 -0.925186 0
M  V30 3903 H 381.871 1.39461 -0.467866 0
M  V30 3904 H 383.829 3.97145 1.27794 0
M  V30 3905 H 382.459 2.85374 1.50868 0
M  V30 3906 H 381.511 3.72991 -0.747095 0
M  V30 3907 H 382.823 4.92921 -0.763552 0
M  V30 3908 H 381.977 5.90818 1.37911 0
M  V30 3909 H 380.716 4.64703 1.47996 0
M  V30 3910 H 379.721 5.456 -0.678272 0
M  V30 3911 H 380.946 6.74793 -0.763606 0
M  V30 3912 H 378.892 6.3971 1.45282 0
M  V30 3913 H 378.809 7.55812 0.168709 0
M  V30 3914 H 380.077 7.67687 1.35194 0
M  V30 3915 N 384.306 0.507319 1.49211 0
M  V30 3916 C 385.534 -0.0315749 2.06876 0
M  V30 3917 C 385.949 -1.30241 1.36685 0
M  V30 3918 O 385.306 -1.76937 0.447152 0
M  V30 3919 C 385.357 -0.282627 3.60393 0
M  V30 3920 O 385.078 0.937835 4.27944 0
M  V30 3921 C 386.579 -0.864453 4.3479 0
M  V30 3922 H 383.799 0.0233048 0.670595 0
M  V30 3923 H 386.343 0.706484 1.91909 0
M  V30 3924 H 384.498 -0.97068 3.75042 0
M  V30 3925 H 384.912 0.704567 5.19746 0
M  V30 3926 H 386.386 -0.989664 5.43056 0
M  V30 3927 H 386.863 -1.86382 3.97692 0
M  V30 3928 H 387.469 -0.213672 4.24763 0
M  V30 3929 N 385.784 -1.5574 0.241426 0
M  V30 3930 C 386.694 -2.2479 -0.671305 0
M  V30 3931 C 387.71 -1.26217 -1.19772 0
M  V30 3932 O 388.886 -1.59079 -1.23514 0
M  V30 3933 C 385.951 -2.92966 -1.85396 0
M  V30 3934 C 385.012 -4.06935 -1.36756 0
M  V30 3935 C 384.245 -4.71851 -2.49384 0
M  V30 3936 O 384.468 -4.35823 -3.67987 0
M  V30 3937 O 383.402 -5.60467 -2.19454 0
M  V30 3938 H 387.228 -3.0349 -0.112966 0
M  V30 3939 H 384.813 -1.49397 0.0101513 0
M  V30 3940 H 386.695 -3.35927 -2.54423 0
M  V30 3941 H 385.37 -2.17211 -2.40002 0
M  V30 3942 H 384.277 -3.68503 -0.644726 0
M  V30 3943 H 385.61 -4.84492 -0.867647 0
M  V30 3944 N 387.262 0.0317525 -1.57568 0
M  V30 3945 C 388.673 0.578692 -1.77505 0
M  V30 3946 C 389.024 1.75749 -0.872164 0
M  V30 3947 O 388.149 2.16298 -0.0663106 0
M  V30 3948 C 388.744 1.05658 -3.21904 0
M  V30 3949 C 387.303 1.54906 -3.43047 0
M  V30 3950 C 386.45 0.485939 -2.73009 0
M  V30 3951 H 389.401 -0.194475 -1.57504 0
M  V30 3952 H 389.422 1.92404 -3.28269 0
M  V30 3953 H 388.934 0.198422 -3.87592 0
M  V30 3954 H 387.035 2.42915 -2.82529 0
M  V30 3955 H 387.148 1.59841 -4.5165 0
M  V30 3956 H 385.512 0.940354 -2.36705 0
M  V30 3957 H 386.295 -0.362709 -3.41379 0
M  V30 3958 N 388.74 1.54641 0.303973 0
M  V30 3959 C 389.986 1.74038 1.04109 0
M  V30 3960 C 390.319 0.523051 1.87024 0
M  V30 3961 O 389.594 -0.479874 1.88487 0
M  V30 3962 C 389.877 3.02761 1.94955 0
M  V30 3963 C 389.73 4.34787 1.1524 0
M  V30 3964 C 391.049 3.27336 2.94175 0
M  V30 3965 H 388.168 0.63323 0.377079 0
M  V30 3966 H 390.81 1.87354 0.316001 0
M  V30 3967 H 388.96 2.9154 2.56782 0
M  V30 3968 H 390.632 4.57922 0.557236 0
M  V30 3969 H 388.875 4.31407 0.455053 0
M  V30 3970 H 389.546 5.21116 1.8205 0
M  V30 3971 H 392.022 3.38148 2.42477 0
M  V30 3972 H 390.898 4.18726 3.54908 0
M  V30 3973 H 391.159 2.45491 3.67677 0
M  V30 3974 N 390.218 -0.567019 1.47046 0
M  V30 3975 C 391.467 -1.32091 1.5243 0
M  V30 3976 C 391.78 -1.94704 0.187021 0
M  V30 3977 O 392.986 -2.7124 0.118771 0
M  V30 3978 C 391.442 -2.39479 2.68659 0
M  V30 3979 C 391.05 -1.831 4.08874 0
M  V30 3980 C 392.794 -3.16111 2.83327 0
M  V30 3981 C 390.701 -2.8821 5.16419 0
M  V30 3982 H 389.631 -0.496629 0.56734 0
M  V30 3983 H 392.282 -0.603354 1.73297 0
M  V30 3984 H 390.664 -3.14105 2.41152 0
M  V30 3985 H 391.838 -1.14913 4.46242 0
M  V30 3986 H 390.153 -1.19085 3.99008 0
M  V30 3987 H 392.75 -3.94585 3.60842 0
M  V30 3988 H 393.093 -3.69686 1.91411 0
M  V30 3989 H 393.626 -2.48595 3.10556 0
M  V30 3990 H 390.365 -2.39504 6.10179 0
M  V30 3991 H 389.885 -3.54839 4.8358 0
M  V30 3992 H 391.564 -3.51881 5.42945 0
M  V30 3993 N 391.696 -1.35014 -0.812953 0
M  V30 3994 C 392.644 -1.27435 -1.94585 0
M  V30 3995 C 393.638 -0.170494 -1.6854 0
M  V30 3996 O 394.844 -0.336085 -1.76835 0
M  V30 3997 H 391.219 -0.396144 -0.639198 0
M  V30 3998 H 393.19 -2.23158 -1.98098 0
M  V30 3999 C 391.939 -1.05677 -3.31252 0
M  V30 4000 H 391.262 -1.89853 -3.51846 0
M  V30 4001 H 392.702 -1.04413 -4.10943 0
M  V30 4002 C 391.161 0.239615 -3.36047 0
M  V30 4003 O 391.691 1.23759 -3.8216 0
M  V30 4004 N 389.897 0.276186 -2.89285 0
M  V30 4005 H 389.444 -0.53653 -2.51951 0
M  V30 4006 H 389.402 1.14332 -2.92875 0
M  V30 4007 N 393.175 1.03435 -1.18907 0
M  V30 4008 C 394.423 1.76394 -0.986382 0
M  V30 4009 C 394.744 1.88883 0.484567 0
M  V30 4010 O 394.014 1.41843 1.3512 0
M  V30 4011 H 392.594 0.65344 -0.361975 0
M  V30 4012 H 395.256 1.248 -1.49703 0
M  V30 4013 H 394.352 2.77424 -1.42978 0
M  V30 4014 N 394.653 0.992116 1.22453 0
M  V30 4015 C 395.881 0.685944 1.95198 0
M  V30 4016 C 396.296 -0.749233 1.73297 0
M  V30 4017 O 395.653 -1.50549 1.03156 0
M  V30 4018 C 395.704 0.981395 3.47924 0
M  V30 4019 O 395.425 2.36018 3.6909 0
M  V30 4020 C 396.926 0.692815 4.37853 0
M  V30 4021 H 394.146 0.253821 0.621141 0
M  V30 4022 H 396.69 1.32668 1.55626 0
M  V30 4023 H 394.845 0.386481 3.85467 0
M  V30 4024 H 395.259 2.45884 4.63294 0
M  V30 4025 H 396.733 0.949818 5.43767 0
M  V30 4026 H 397.21 -0.373181 4.37612 0
M  V30 4027 H 397.816 1.26874 4.05935 0
M  V30 4028 N 396.131 -1.37776 0.765217 0
M  V30 4029 C 397.356 -2.04651 0.336537 0
M  V30 4030 C 397.781 -1.57337 -1.03086 0
M  V30 4031 O 397.139 -0.730621 -1.65927 0
M  V30 4032 C 397.187 -3.58577 0.381468 0
M  V30 4033 O 396.291 -4.07706 -0.62042 0
M  V30 4034 H 395.632 -0.64756 0.146838 0
M  V30 4035 H 398.162 -1.76221 1.03959 0
M  V30 4036 H 398.172 -4.07314 0.236448 0
M  V30 4037 H 396.847 -3.9237 1.37907 0
M  V30 4038 H 395.424 -3.70306 -0.439056 0
M  V30 4039 N 397.609 -0.515225 -1.4894 0
M  V30 4040 C 398.855 0.0242508 -2.02785 0
M  V30 4041 C 399.188 1.35323 -1.39289 0
M  V30 4042 O 398.463 1.87041 -0.533469 0
M  V30 4043 C 398.746 0.16184 -3.59736 0
M  V30 4044 C 398.599 -1.19127 -4.33738 0
M  V30 4045 C 399.918 0.895719 -4.30888 0
M  V30 4046 H 397.037 0.00733914 -0.736963 0
M  V30 4047 H 399.679 -0.669395 -1.77818 0
M  V30 4048 H 397.829 0.752624 -3.8114 0
M  V30 4049 H 399.501 -1.82202 -4.23792 0
M  V30 4050 H 397.744 -1.77695 -3.95736 0
M  V30 4051 H 398.415 -1.04815 -5.41957 0
M  V30 4052 H 400.891 0.394528 -4.14225 0
M  V30 4053 H 399.767 0.960859 -5.40425 0
M  V30 4054 H 400.028 1.9427 -3.97129 0
M  V30 4055 N 399.087 1.5561 -0.249682 0
M  V30 4056 C 400.333 1.99306 0.374841 0
M  V30 4057 C 400.666 1.13767 1.57387 0
M  V30 4058 O 399.941 0.201711 1.93451 0
M  V30 4059 C 400.224 3.51507 0.781986 0
M  V30 4060 C 400.077 4.4781 -0.422629 0
M  V30 4061 C 401.396 4.08884 1.62793 0
M  V30 4062 H 398.515 0.724572 0.134773 0
M  V30 4063 H 401.157 1.86719 -0.351549 0
M  V30 4064 H 399.307 3.62363 1.4009 0
M  V30 4065 H 400.979 4.48931 -1.06108 0
M  V30 4066 H 399.222 4.20518 -1.06524 0
M  V30 4067 H 399.893 5.51919 -0.0943766 0
M  V30 4068 H 402.369 4.01147 1.10547 0
M  V30 4069 H 401.245 5.1564 1.88166 0
M  V30 4070 H 401.506 3.57515 2.60068 0
M  V30 4071 N 400.565 -0.0233959 1.57583 0
M  V30 4072 C 401.495 -1.02162 2.09965 0
M  V30 4073 C 402.476 -1.3735 1.00344 0
M  V30 4074 O 403.661 -1.46135 1.27899 0
M  V30 4075 C 400.791 -2.32081 2.58371 0
M  V30 4076 C 399.745 -2.1112 3.72307 0
M  V30 4077 C 399.071 -3.46848 4.06941 0
M  V30 4078 C 400.371 -1.49276 5.00514 0
M  V30 4079 H 402.065 -0.585557 2.93618 0
M  V30 4080 H 399.611 -0.280218 1.41247 0
M  V30 4081 H 401.564 -3.02249 2.93639 0
M  V30 4082 H 400.288 -2.77758 1.71808 0
M  V30 4083 H 398.947 -1.43384 3.37397 0
M  V30 4084 H 398.595 -3.90184 3.17436 0
M  V30 4085 H 398.295 -3.33646 4.83688 0
M  V30 4086 H 399.819 -4.18369 4.44747 0
M  V30 4087 H 401.233 -2.09368 5.33702 0
M  V30 4088 H 399.63 -1.46632 5.8191 0
M  V30 4089 H 400.7 -0.459217 4.82721 0
M  V30 4090 N 402.043 -1.548 -0.295768 0
M  V30 4091 C 402.975 -1.82492 -1.3867 0
M  V30 4092 C 403.988 -0.708134 -1.46592 0
M  V30 4093 O 405.177 -0.985686 -1.48817 0
M  V30 4094 C 402.277 -1.95256 -2.76999 0
M  V30 4095 C 401.45 -3.25709 -2.91946 0
M  V30 4096 C 400.509 -3.28824 -4.10806 0
M  V30 4097 O 399.535 -4.02328 -4.02643 0
M  V30 4098 N 400.737 -2.5459 -5.21694 0
M  V30 4099 H 403.502 -2.76646 -1.15269 0
M  V30 4100 H 401.063 -1.54438 -0.485849 0
M  V30 4101 H 403.055 -1.94736 -3.54768 0
M  V30 4102 H 401.625 -1.08072 -2.93324 0
M  V30 4103 H 400.845 -3.38959 -2.01247 0
M  V30 4104 H 402.133 -4.11786 -2.98847 0
M  V30 4105 H 401.531 -1.94512 -5.31208 0
M  V30 4106 H 400.088 -2.59818 -5.97778 0
M  V30 4107 N 403.521 0.559213 -1.47345 0
M  V30 4108 C 404.751 1.33999 -1.57251 0
M  V30 4109 C 405.159 1.87905 -0.220978 0
M  V30 4110 O 404.502 1.65577 0.795617 0
M  V30 4111 C 404.564 2.54798 -2.53611 0
M  V30 4112 C 404.228 2.22192 -3.99349 0
M  V30 4113 C 405.225 1.79607 -4.87891 0
M  V30 4114 C 402.91 2.33613 -4.44669 0
M  V30 4115 C 404.904 1.48868 -6.19772 0
M  V30 4116 C 402.591 2.02487 -5.76578 0
M  V30 4117 C 403.589 1.60183 -6.63951 0
M  V30 4118 O 403.277 1.29451 -7.93409 0
M  V30 4119 H 403.009 0.414858 -0.533731 0
M  V30 4120 H 405.563 0.684465 -1.9366 0
M  V30 4121 H 403.793 3.23235 -2.12265 0
M  V30 4122 H 405.482 3.16873 -2.53666 0
M  V30 4123 H 406.248 1.70278 -4.54126 0
M  V30 4124 H 402.127 2.65501 -3.76869 0
M  V30 4125 H 405.671 1.15775 -6.87926 0
M  V30 4126 H 401.568 2.11448 -6.09885 0
M  V30 4127 H 402.336 1.43098 -8.05894 0
M  V30 4128 N 404.999 1.35443 0.805782 0
M  V30 4129 C 405.909 1.30546 1.94923 0
M  V30 4130 C 406.925 0.210233 1.72725 0
M  V30 4131 O 408.101 0.43975 1.9654 0
M  V30 4132 C 405.166 1.07782 3.29521 0
M  V30 4133 C 404.227 2.26625 3.64609 0
M  V30 4134 C 403.46 2.04938 4.92784 0
M  V30 4135 O 403.683 1.01624 5.61274 0
M  V30 4136 O 402.617 2.9232 5.26149 0
M  V30 4137 H 406.443 2.26779 2.02002 0
M  V30 4138 H 404.028 1.15823 0.943682 0
M  V30 4139 H 405.91 0.969392 4.10098 0
M  V30 4140 H 404.585 0.146003 3.23371 0
M  V30 4141 H 403.492 2.43033 2.84404 0
M  V30 4142 H 404.825 3.18257 3.75464 0
M  V30 4143 N 406.477 -1.02803 1.19454 0
M  V30 4144 C 407.726 -1.7562 0.991996 0
M  V30 4145 C 408.039 -1.89672 -0.477901 0
M  V30 4146 O 409.245 -2.59468 -0.799287 0
M  V30 4147 C 407.701 -3.15812 1.72601 0
M  V30 4148 C 407.309 -3.0981 3.23607 0
M  V30 4149 C 409.053 -3.92918 1.60674 0
M  V30 4150 C 406.96 -4.44939 3.89594 0
M  V30 4151 H 405.89 -0.658352 0.367543 0
M  V30 4152 H 408.541 -1.15044 1.42959 0
M  V30 4153 H 406.923 -3.7686 1.21624 0
M  V30 4154 H 408.097 -2.58138 3.81709 0
M  V30 4155 H 406.412 -2.46201 3.35819 0
M  V30 4156 H 409.009 -4.9287 2.07323 0
M  V30 4157 H 409.352 -4.12502 0.561025 0
M  V30 4158 H 409.885 -3.38472 2.09001 0
M  V30 4159 H 406.624 -4.30559 4.94267 0
M  V30 4160 H 406.144 -4.96664 3.36281 0
M  V30 4161 H 407.823 -5.1382 3.93189 0
M  V30 4162 N 407.956 -0.998596 -1.21925 0
M  V30 4163 C 408.866 -0.562736 -2.27751 0
M  V30 4164 C 409.882 0.391203 -1.69545 0
M  V30 4165 O 411.058 0.256625 -1.99758 0
M  V30 4166 C 408.123 0.11012 -3.46525 0
M  V30 4167 C 407.184 -0.887495 -4.20026 0
M  V30 4168 C 406.417 -0.246654 -5.3313 0
M  V30 4169 O 406.64 0.958088 -5.62296 0
M  V30 4170 O 405.574 -0.954374 -5.94286 0
M  V30 4171 H 409.4 -1.44329 -2.67213 0
M  V30 4172 H 406.985 -0.767135 -1.28201 0
M  V30 4173 H 408.867 0.486756 -4.18579 0
M  V30 4174 H 407.542 0.965154 -3.08976 0
M  V30 4175 H 406.449 -1.31517 -3.5022 0
M  V30 4176 H 407.782 -1.71191 -4.6147 0
M  V30 4177 N 409.434 1.37368 -0.772513 0
M  V30 4178 C 410.662 2.03942 -0.348588 0
M  V30 4179 C 411.077 1.58264 1.02947 0
M  V30 4180 O 410.434 0.764246 1.65727 0
M  V30 4181 C 410.485 3.5946 -0.38351 0
M  V30 4182 O 410.206 4.03468 -1.70721 0
M  V30 4183 C 411.707 4.4327 0.0519152 0
M  V30 4184 H 408.927 0.654931 -0.145966 0
M  V30 4185 H 411.471 1.75686 -1.04665 0
M  V30 4186 H 409.626 3.86486 0.265978 0
M  V30 4187 H 410.04 4.97991 -1.64636 0
M  V30 4188 H 411.514 5.51995 -0.0236733 0
M  V30 4189 H 411.991 4.2514 1.10238 0
M  V30 4190 H 412.597 4.21471 -0.569415 0
M  V30 4191 N 410.912 0.523116 1.48665 0
M  V30 4192 C 412.189 -0.0775449 1.95446 0
M  V30 4193 C 412.569 -1.5197 1.4652 0
M  V30 4194 O 411.917 -2.17876 0.688657 0
M  V30 4195 C 412.127 0.0326135 3.48985 0
M  V30 4196 C 413.475 -0.130141 4.24401 0
M  V30 4197 O 414.499 -0.0415142 3.56176 0
M  V30 4198 O 413.358 -0.31491 5.45592 0
M  V30 4199 H 410.452 -0.0831012 0.822814 0
M  V30 4200 H 412.998 0.587227 1.59216 0
M  V30 4201 H 411.77 1.03748 3.77296 0
M  V30 4202 H 411.393 -0.671317 3.91892 0
M  V30 4203 N 412.39 -1.55475 0.257931 0
M  V30 4204 C 413.801 -1.8511 -0.243135 0
M  V30 4205 C 414.152 -1.17986 -1.5676 0
M  V30 4206 O 413.277 -0.462102 -2.11409 0
M  V30 4207 C 413.872 -3.35826 -0.447929 0
M  V30 4208 C 412.431 -3.65647 -0.893245 0
M  V30 4209 C 411.578 -2.7729 0.0232965 0
M  V30 4210 H 414.529 -1.51261 0.480199 0
M  V30 4211 H 414.55 -3.58002 -1.28898 0
M  V30 4212 H 414.062 -3.84652 0.516196 0
M  V30 4213 H 412.163 -3.22308 -1.86945 0
M  V30 4214 H 412.276 -4.73312 -0.742469 0
M  V30 4215 H 410.64 -2.49942 -0.490021 0
M  V30 4216 H 411.423 -3.28926 0.982994 0
M  V30 4217 N 413.868 0.0150385 -1.57593 0
M  V30 4218 C 414.831 0.995996 -2.06428 0
M  V30 4219 C 415.831 1.2818 -0.970903 0
M  V30 4220 O 417.021 1.22949 -1.23406 0
M  V30 4221 C 414.153 2.32506 -2.49307 0
M  V30 4222 H 415.346 0.573873 -2.94358 0
M  V30 4223 H 412.899 0.262186 -1.54085 0
M  V30 4224 H 413.634 2.79438 -1.64575 0
M  V30 4225 H 413.419 2.13087 -3.29145 0
M  V30 4226 H 414.909 3.02906 -2.87468 0
M  V30 4227 N 415.346 1.54954 0.287554 0
M  V30 4228 C 416.276 1.89839 1.35954 0
M  V30 4229 C 417.257 0.758675 1.52244 0
M  V30 4230 O 418.442 1.01557 1.65529 0
M  V30 4231 C 415.572 2.15753 2.72154 0
M  V30 4232 C 414.526 3.3159 2.70614 0
M  V30 4233 C 413.852 3.42952 4.10229 0
M  V30 4234 C 415.152 4.68359 2.31165 0
M  V30 4235 H 416.846 2.79625 1.07007 0
M  V30 4236 H 414.392 1.3454 0.513316 0
M  V30 4237 H 416.345 2.38743 3.47246 0
M  V30 4238 H 415.069 1.22752 3.02654 0
M  V30 4239 H 413.728 3.08545 1.97979 0
M  V30 4240 H 413.376 2.47443 4.37928 0
M  V30 4241 H 413.076 4.20826 4.10097 0
M  V30 4242 H 414.6 3.68218 4.87081 0
M  V30 4243 H 416.014 4.9099 2.95976 0
M  V30 4244 H 414.411 5.49044 2.42221 0
M  V30 4245 H 415.481 4.68165 1.26291 0
M  V30 4246 N 416.824 -0.551391 1.4764 0
M  V30 4247 C 418.052 -1.33357 1.58189 0
M  V30 4248 C 418.467 -1.87342 0.234199 0
M  V30 4249 O 417.824 -1.65301 -0.77343 0
M  V30 4250 C 417.875 -2.49942 2.61173 0
M  V30 4251 O 417.596 -1.98187 3.90709 0
M  V30 4252 C 419.097 -3.42072 2.8196 0
M  V30 4253 H 416.317 -0.40631 0.533998 0
M  V30 4254 H 418.861 -0.667367 1.93304 0
M  V30 4255 H 417.016 -3.12489 2.28975 0
M  V30 4256 H 417.43 -2.74342 4.47031 0
M  V30 4257 H 418.904 -4.20278 3.57869 0
M  V30 4258 H 419.381 -3.95978 1.89995 0
M  V30 4259 H 419.987 -2.85336 3.15378 0
M  V30 4260 N 418.302 -1.35869 -0.798587 0
M  V30 4261 C 419.532 -1.32529 -1.58491 0
M  V30 4262 C 419.94 0.0975405 -1.88948 0
M  V30 4263 O 419.283 1.06224 -1.49874 0
M  V30 4264 C 419.345 -2.07247 -2.9375 0
M  V30 4265 C 419.009 -3.56391 -2.86068 0
M  V30 4266 C 420.006 -4.50824 -2.58947 0
M  V30 4267 C 417.691 -3.9915 -3.04933 0
M  V30 4268 C 419.685 -5.85993 -2.5078 0
M  V30 4269 C 417.372 -5.34413 -2.96389 0
M  V30 4270 C 418.37 -6.27646 -2.69349 0
M  V30 4271 O 418.058 -7.60426 -2.60782 0
M  V30 4272 H 417.79 -0.456529 -0.498556 0
M  V30 4273 H 420.344 -1.79425 -0.999799 0
M  V30 4274 H 418.574 -1.55001 -3.54276 0
M  V30 4275 H 420.263 -1.96883 -3.54954 0
M  V30 4276 H 421.029 -4.19104 -2.44084 0
M  V30 4277 H 416.908 -3.26961 -3.24989 0
M  V30 4278 H 420.452 -6.58735 -2.29595 0
M  V30 4279 H 416.349 -5.65743 -3.10813 0
M  V30 4280 H 417.117 -7.70444 -2.76331 0
M  V30 4281 N 419.78 1.02168 -1.19998 0
M  V30 4282 C 421.026 1.75945 -1.00852 0
M  V30 4283 C 421.359 1.88702 0.458828 0
M  V30 4284 O 420.634 1.40911 1.34069 0
M  V30 4285 C 420.917 3.18154 -1.68671 0
M  V30 4286 C 420.77 3.13224 -3.22817 0
M  V30 4287 C 422.089 4.16711 -1.41561 0
M  V30 4288 H 419.208 0.638673 -0.367785 0
M  V30 4289 H 421.85 1.19222 -1.4794 0
M  V30 4290 H 420 3.66586 -1.28636 0
M  V30 4291 H 421.672 2.72635 -3.72112 0
M  V30 4292 H 419.915 2.50751 -3.53986 0
M  V30 4293 H 420.586 4.13728 -3.65422 0
M  V30 4294 H 423.062 3.76913 -1.76284 0
M  V30 4295 H 421.938 5.14391 -1.91553 0
M  V30 4296 H 422.199 4.40774 -0.342193 0
M  V30 4297 N 421.258 1.00505 1.21394 0
M  V30 4298 C 422.168 0.574806 2.27449 0
M  V30 4299 C 423.184 -0.382206 1.6975 0
M  V30 4300 O 424.36 -0.246027 1.99892 0
M  V30 4301 C 421.425 -0.0917414 3.46579 0
M  V30 4302 C 420.486 0.909758 4.1955 0
M  V30 4303 C 419.719 0.274924 5.32991 0
M  V30 4304 O 419.942 -0.928254 5.62796 0
M  V30 4305 O 418.876 0.985877 5.93771 0
M  V30 4306 H 422.702 1.45744 2.66444 0
M  V30 4307 H 420.287 0.773923 1.27792 0
M  V30 4308 H 422.169 -0.464551 4.18832 0
M  V30 4309 H 420.844 -0.948755 3.09484 0
M  V30 4310 H 419.751 1.33372 3.49518 0
M  V30 4311 H 421.084 1.73636 4.60555 0
M  V30 4312 N 422.737 -1.36956 0.779787 0
M  V30 4313 C 423.985 -1.99097 0.347079 0
M  V30 4314 C 424.306 -1.62206 -1.08232 0
M  V30 4315 O 423.576 -0.891373 -1.74446 0
M  V30 4316 H 422.156 -0.736409 0.125342 0
M  V30 4317 H 424.818 -1.67308 0.999696 0
M  V30 4318 H 423.914 -3.09107 0.431162 0
M  V30 4319 N 424.215 -0.530993 -1.48385 0
M  V30 4320 C 425.461 0.00274135 -2.028 0
M  V30 4321 C 425.794 1.33838 -1.40716 0
M  V30 4322 O 425.069 1.86465 -0.553277 0
M  V30 4323 C 425.352 0.123676 -3.59888 0
M  V30 4324 C 425.205 -1.2372 -4.3245 0
M  V30 4325 C 426.524 0.849967 -4.31814 0
M  V30 4326 H 423.643 -0.000477758 -0.737 0
M  V30 4327 H 426.285 -0.688217 -1.77098 0
M  V30 4328 H 424.435 0.712157 -3.81917 0
M  V30 4329 H 426.107 -1.86687 -4.21836 0
M  V30 4330 H 424.35 -1.81882 -3.93829 0
M  V30 4331 H 425.021 -1.10557 -5.40815 0
M  V30 4332 H 427.497 0.350572 -4.14621 0
M  V30 4333 H 426.373 0.903486 -5.41413 0
M  V30 4334 H 426.634 1.90047 -3.99167 0
M  V30 4335 N 425.693 1.55336 -0.266172 0
M  V30 4336 C 426.933 2.01303 0.354459 0
M  V30 4337 C 427.297 1.15046 1.53715 0
M  V30 4338 O 428.498 1.50554 2.22681 0
M  V30 4339 C 426.769 3.49748 0.735579 0
M  V30 4340 S 428.328 4.1771 1.34401 0
M  V30 4341 H 425.146 0.702333 0.110674 0
M  V30 4342 H 427.748 1.91653 -0.385916 0
M  V30 4343 H 426.452 4.10181 -0.134196 0
M  V30 4344 H 425.983 3.63364 1.50764 0
M  V30 4345 H 427.998 4.20594 2.63278 0
M  V30 4346 N 427.171 -0.0066808 1.57599 0
M  V30 4347 C 428.417 -0.693947 1.90558 0
M  V30 4348 C 428.75 -1.73792 0.866594 0
M  V30 4349 O 428.025 -1.94156 -0.115548 0
M  V30 4350 C 428.308 -1.34317 3.34112 0
M  V30 4351 C 428.161 -0.311189 4.48722 0
M  V30 4352 C 429.48 -2.27116 3.7697 0
M  V30 4353 H 426.599 -0.250803 0.693013 0
M  V30 4354 H 429.241 0.043242 1.89951 0
M  V30 4355 H 427.391 -1.9715 3.3476 0
M  V30 4356 H 429.063 0.316944 4.6021 0
M  V30 4357 H 427.306 0.367253 4.32243 0
M  V30 4358 H 427.977 -0.804366 5.46108 0
M  V30 4359 H 430.453 -1.74306 3.77831 0
M  V30 4360 H 429.329 -2.69511 4.78179 0
M  V30 4361 H 429.59 -3.14743 3.10466 0
M  V30 4362 N 428.649 -1.55105 -0.279332 0
M  V30 4363 C 429.895 -1.75672 -1.01327 0
M  V30 4364 C 430.228 -0.552739 -1.86168 0
M  V30 4365 O 429.503 0.449827 -1.89227 0
M  V30 4366 C 429.786 -3.05825 -1.90114 0
M  V30 4367 C 429.639 -4.36565 -1.08309 0
M  V30 4368 C 430.958 -3.31975 -2.8893 0
M  V30 4369 H 428.077 -0.639149 -0.366957 0
M  V30 4370 H 430.719 -1.87833 -0.286154 0
M  V30 4371 H 428.869 -2.95588 -2.52111 0
M  V30 4372 H 430.541 -4.58751 -0.484314 0
M  V30 4373 H 428.784 -4.32076 -0.386362 0
M  V30 4374 H 429.455 -5.23946 -1.73737 0
M  V30 4375 H 431.931 -3.41963 -2.37067 0
M  V30 4376 H 430.807 -4.2432 -3.48201 0
M  V30 4377 H 431.068 -2.51309 -3.63725 0
M  V30 4378 N 430.127 0.543554 -1.4793 0
M  V30 4379 C 431.373 1.29961 -1.56466 0
M  V30 4380 C 431.728 1.91024 -0.229696 0
M  V30 4381 O 431.021 1.75619 0.766072 0
M  V30 4382 C 431.215 2.42078 -2.62932 0
M  V30 4383 C 431.044 1.92003 -4.06651 0
M  V30 4384 C 429.814 1.75223 -4.73946 0
M  V30 4385 C 432.012 1.45648 -4.93245 0
M  V30 4386 N 429.994 1.19632 -6.02131 0
M  V30 4387 C 431.365 1.01914 -6.11566 0
M  V30 4388 C 433.42 1.33826 -4.79578 0
M  V30 4389 C 432.123 0.475301 -7.17728 0
M  V30 4390 C 434.149 0.808427 -5.85848 0
M  V30 4391 C 433.511 0.381081 -7.03368 0
M  V30 4392 H 429.61 0.467086 -0.62718 0
M  V30 4393 H 432.194 0.614543 -1.84747 0
M  V30 4394 H 430.365 3.08098 -2.36496 0
M  V30 4395 H 432.097 3.09096 -2.61231 0
M  V30 4396 H 428.852 1.98345 -4.30065 0
M  V30 4397 H 429.276 0.93885 -6.70458 0
M  V30 4398 H 433.918 1.65474 -3.89074 0
M  V30 4399 H 431.636 0.146472 -8.07967 0
M  V30 4400 H 435.222 0.720315 -5.77324 0
M  V30 4401 H 434.102 -0.0225344 -7.84197 0
M  V30 4402 N 431.605 1.3629 0.791371 0
M  V30 4403 C 432.852 1.30412 1.54916 0
M  V30 4404 C 433.18 -0.117162 1.94147 0
M  V30 4405 O 432.435 -1.08599 1.62803 0
M  V30 4406 C 432.734 2.17068 2.8393 0
M  V30 4407 C 432.4 3.65645 2.63846 0
M  V30 4408 C 431.062 4.0614 2.58077 0
M  V30 4409 C 433.414 4.59855 2.45322 0
M  V30 4410 C 430.742 5.3899 2.31748 0
M  V30 4411 C 433.094 5.9292 2.2052 0
M  V30 4412 C 431.758 6.32542 2.13183 0
M  V30 4413 H 431.028 0.47721 0.566879 0
M  V30 4414 H 433.675 1.68325 0.913172 0
M  V30 4415 H 431.98 1.72085 3.51986 0
M  V30 4416 H 433.677 2.09846 3.4171 0
M  V30 4417 H 430.267 3.33518 2.69191 0
M  V30 4418 H 434.451 4.29443 2.48782 0
M  V30 4419 H 429.707 5.68672 2.24548 0
M  V30 4420 H 433.881 6.65487 2.05182 0
M  V30 4421 H 431.508 7.35412 1.92544 0
M  V30 4422 N 433.083 -1.0153 1.20538 0
M  V30 4423 C 434.311 -1.78746 1.04199 0
M  V30 4424 C 434.726 -1.84323 -0.408733 0
M  V30 4425 O 434.083 -1.29714 -1.28377 0
M  V30 4426 C 434.134 -3.23152 1.62035 0
M  V30 4427 O 433.855 -3.17918 3.0143 0
M  V30 4428 C 435.356 -4.16911 1.50666 0
M  V30 4429 H 432.576 -0.56208 0.366479 0
M  V30 4430 H 435.12 -1.27794 1.59653 0
M  V30 4431 H 433.275 -3.71248 1.10697 0
M  V30 4432 H 433.689 -4.08567 3.28897 0
M  V30 4433 H 435.163 -5.16072 1.95892 0
M  V30 4434 H 435.64 -4.36791 0.459363 0
M  V30 4435 H 436.246 -3.74698 2.01201 0
M  V30 4436 N 434.561 -1.01147 -1.20859 0
M  V30 4437 C 435.808 -0.697865 -1.90095 0
M  V30 4438 C 436.136 0.772014 -1.78522 0
M  V30 4439 O 435.391 1.57595 -1.16027 0
M  V30 4440 C 435.69 -1.0727 -3.40922 0
M  V30 4441 C 435.356 -2.53792 -3.72693 0
M  V30 4442 C 434.018 -2.93829 -3.81075 0
M  V30 4443 C 436.37 -3.48674 -3.87397 0
M  V30 4444 C 433.698 -4.27696 -4.01613 0
M  V30 4445 C 436.05 -4.82223 -4.09444 0
M  V30 4446 C 434.714 -5.21973 -4.16054 0
M  V30 4447 H 433.984 -0.255367 -0.695607 0
M  V30 4448 H 436.631 -1.27111 -1.43231 0
M  V30 4449 H 434.936 -0.417799 -3.89566 0
M  V30 4450 H 436.633 -0.807818 -3.92779 0
M  V30 4451 H 433.223 -2.21768 -3.66765 0
M  V30 4452 H 437.407 -3.18904 -3.80281 0
M  V30 4453 H 432.663 -4.58055 -4.04964 0
M  V30 4454 H 436.837 -5.55672 -4.19763 0
M  V30 4455 H 434.464 -6.25717 -4.31721 0
M  V30 4456 N 436.039 1.36541 -0.78704 0
M  V30 4457 C 436.949 2.3387 -0.184896 0
M  V30 4458 C 437.965 1.60927 0.661697 0
M  V30 4459 O 439.141 1.92927 0.57804 0
M  V30 4460 C 436.206 3.40122 0.672145 0
M  V30 4461 C 435.267 4.28867 -0.19267 0
M  V30 4462 C 434.5 5.30045 0.623561 0
M  V30 4463 O 434.723 5.39232 1.8597 0
M  V30 4464 O 433.657 6.01895 0.0247068 0
M  V30 4465 H 437.483 2.87126 -0.989562 0
M  V30 4466 H 435.068 1.38969 -0.548455 0
M  V30 4467 H 436.95 4.05093 1.16094 0
M  V30 4468 H 435.625 2.89169 1.45474 0
M  V30 4469 H 434.532 3.66945 -0.728166 0
M  V30 4470 H 435.865 4.83165 -0.938722 0
M  V30 4471 N 437.518 0.538854 1.48102 0
M  V30 4472 C 438.765 0.0080018 2.02498 0
M  V30 4473 C 439.093 -1.33437 1.41509 0
M  V30 4474 O 438.348 -1.87709 0.553507 0
M  V30 4475 C 438.647 -0.153808 3.57069 0
M  V30 4476 C 438.313 1.11533 4.36888 0
M  V30 4477 C 436.975 1.46314 4.58417 0
M  V30 4478 C 439.327 1.95718 4.83057 0
M  V30 4479 C 436.655 2.6516 5.23361 0
M  V30 4480 C 439.007 3.13751 5.49312 0
M  V30 4481 C 437.671 3.48866 5.69077 0
M  V30 4482 H 436.941 0.00292807 0.740994 0
M  V30 4483 H 439.588 0.706668 1.77984 0
M  V30 4484 H 437.893 -0.935309 3.80472 0
M  V30 4485 H 439.59 -0.579607 3.96789 0
M  V30 4486 H 436.18 0.834484 4.20398 0
M  V30 4487 H 440.364 1.70158 4.66219 0
M  V30 4488 H 435.62 2.92558 5.36861 0
M  V30 4489 H 439.794 3.79282 5.84053 0
M  V30 4490 H 437.421 4.41054 6.19173 0
M  V30 4491 N 438.996 -1.55193 0.274407 0
M  V30 4492 C 439.926 -2.25471 -0.607032 0
M  V30 4493 C 440.907 -1.24461 -1.15946 0
M  V30 4494 O 442.092 -1.53179 -1.19373 0
M  V30 4495 C 439.222 -2.97526 -1.79153 0
M  V30 4496 C 438.176 -4.05459 -1.37067 0
M  V30 4497 C 437.502 -4.65084 -2.6382 0
M  V30 4498 C 438.802 -5.19691 -0.521389 0
M  V30 4499 H 440.496 -2.99393 -0.0209343 0
M  V30 4500 H 438.042 -1.43997 -0.00862866 0
M  V30 4501 H 439.995 -3.45402 -2.41404 0
M  V30 4502 H 438.719 -2.21138 -2.40344 0
M  V30 4503 H 437.378 -3.58393 -0.771355 0
M  V30 4504 H 437.026 -3.85365 -3.23268 0
M  V30 4505 H 436.726 -5.37961 -2.36372 0
M  V30 4506 H 438.25 -5.15708 -3.26921 0
M  V30 4507 H 439.664 -5.63623 -1.04889 0
M  V30 4508 H 438.061 -5.99126 -0.341825 0
M  V30 4509 H 439.131 -4.82713 0.46 0
M  V30 4510 N 440.474 -0.00167713 -1.576 0
M  V30 4511 C 441.72 0.683832 -1.90923 0
M  V30 4512 C 442.053 1.7333 -0.875799 0
M  V30 4513 O 441.328 1.94215 0.10525 0
M  V30 4514 C 441.611 1.32543 -3.3482 0
M  V30 4515 C 441.464 0.287387 -4.48881 0
M  V30 4516 C 442.783 2.25114 -3.78169 0
M  V30 4517 H 439.902 0.247125 -0.694333 0
M  V30 4518 H 442.544 -0.0533149 -1.89925 0
M  V30 4519 H 440.694 1.95372 -3.35801 0
M  V30 4520 H 442.366 -0.341346 -4.60035 0
M  V30 4521 H 440.609 -0.39017 -4.32042 0
M  V30 4522 H 441.28 0.775393 -5.46527 0
M  V30 4523 H 443.756 1.723 -3.7875 0
M  V30 4524 H 442.632 2.66971 -4.79602 0
M  V30 4525 H 442.893 3.13092 -3.12131 0
M  V30 4526 N 441.952 1.55251 0.271103 0
M  V30 4527 C 443.368 1.47133 0.618393 0
M  V30 4528 C 443.568 0.686994 1.89427 0
M  V30 4529 O 442.624 0.206609 2.51653 0
M  V30 4530 C 443.937 2.91361 0.743593 0
M  V30 4531 C 445.485 3.01587 0.837522 0
M  V30 4532 C 445.96 4.47073 0.994483 0
M  V30 4533 N 447.451 4.50909 1.05996 0
M  V30 4534 C 448.186 5.60698 1.20024 0
M  V30 4535 N 447.682 6.80348 1.30759 0
M  V30 4536 N 449.475 5.48444 1.23149 0
M  V30 4537 H 441.626 2.04698 -0.566784 0
M  V30 4538 H 443.889 0.928319 -0.192165 0
M  V30 4539 H 443.595 3.51483 -0.123493 0
M  V30 4540 H 443.469 3.40484 1.62328 0
M  V30 4541 H 445.856 2.4156 1.69507 0
M  V30 4542 H 445.937 2.55713 -0.0668086 0
M  V30 4543 H 445.581 5.07703 0.141582 0
M  V30 4544 H 445.511 4.90605 1.91349 0
M  V30 4545 H 448.002 3.6472 0.989316 0
M  V30 4546 H 448.315 7.59772 1.41303 0
M  V30 4547 H 446.66 6.83156 1.27761 0
M  V30 4548 H 449.851 4.53907 1.14394 0
M  V30 4549 H 450.024 6.34049 1.33738 0
M  V30 4550 N 443.43 -0.535701 1.48216 0
M  V30 4551 C 444.679 -1.28828 1.55197 0
M  V30 4552 C 444.992 -1.94263 0.228278 0
M  V30 4553 O 446.198 -2.70927 0.176278 0
M  V30 4554 C 444.654 -2.33727 2.73678 0
M  V30 4555 C 444.262 -1.74386 4.12666 0
M  V30 4556 C 446.006 -3.1003 2.89968 0
M  V30 4557 C 443.913 -2.77192 5.22416 0
M  V30 4558 H 442.843 -0.484484 0.577747 0
M  V30 4559 H 445.494 -0.56646 1.74538 0
M  V30 4560 H 443.876 -3.08919 2.4776 0
M  V30 4561 H 445.05 -1.05421 4.48579 0
M  V30 4562 H 443.365 -1.10595 4.01445 0
M  V30 4563 H 445.962 -3.86842 3.6913 0
M  V30 4564 H 446.305 -3.65542 1.9921 0
M  V30 4565 H 446.838 -2.41952 3.15759 0
M  V30 4566 H 443.577 -2.26507 6.15122 0
M  V30 4567 H 443.097 -3.44502 4.90998 0
M  V30 4568 H 444.776 -3.40285 5.50286 0
M  V30 4569 N 444.908 -1.36708 -0.784132 0
M  V30 4570 C 446.154 -1.31426 -1.54451 0
M  V30 4571 C 446.487 0.10476 -1.93917 0
M  V30 4572 O 445.762 1.05934 -1.6312 0
M  V30 4573 C 446.045 -2.24189 -2.818 0
M  V30 4574 C 445.898 -3.74813 -2.48667 0
M  V30 4575 C 447.217 -2.15626 -3.83658 0
M  V30 4576 H 444.336 -0.478739 -0.560337 0
M  V30 4577 H 446.978 -1.67305 -0.900498 0
M  V30 4578 H 445.128 -1.93722 -3.36755 0
M  V30 4579 H 446.8 -4.15823 -1.99722 0
M  V30 4580 H 445.043 -3.93989 -1.81535 0
M  V30 4581 H 445.714 -4.35138 -3.39646 0
M  V30 4582 H 448.19 -2.42456 -3.38163 0
M  V30 4583 H 447.066 -2.82694 -4.70506 0
M  V30 4584 H 447.327 -1.14522 -4.27009 0
M  V30 4585 N 446.386 1.0089 -1.21074 0
M  V30 4586 C 447.633 1.74607 -1.0256 0
M  V30 4587 C 447.961 1.89426 0.44136 0
M  V30 4588 O 447.216 1.42266 1.34384 0
M  V30 4589 C 447.515 3.16335 -1.66334 0
M  V30 4590 C 447.181 3.21474 -3.16173 0
M  V30 4591 C 445.843 3.22583 -3.57062 0
M  V30 4592 C 448.195 3.19025 -4.12156 0
M  V30 4593 C 445.523 3.18925 -4.92446 0
M  V30 4594 C 447.875 3.16909 -5.47496 0
M  V30 4595 C 446.539 3.16326 -5.87787 0
M  V30 4596 H 445.809 0.638933 -0.375294 0
M  V30 4597 H 448.456 1.18274 -1.50611 0
M  V30 4598 H 446.761 3.75876 -1.10566 0
M  V30 4599 H 448.458 3.72083 -1.49516 0
M  V30 4600 H 445.048 3.2135 -2.83605 0
M  V30 4601 H 449.232 3.17332 -3.81595 0
M  V30 4602 H 444.488 3.16809 -5.22917 0
M  V30 4603 H 448.662 3.13968 -6.21609 0
M  V30 4604 H 446.289 3.13246 -6.92662 0
M  V30 4605 N 447.864 1.01787 1.20321 0
M  V30 4606 C 449.089 0.727009 1.9424 0
M  V30 4607 C 449.514 -0.706179 1.74341 0
M  V30 4608 O 448.872 -1.48609 1.03852 0
M  V30 4609 C 448.92 1.06958 3.44372 0
M  V30 4610 O 448.024 0.181983 4.11998 0
M  V30 4611 H 447.365 0.269626 0.606793 0
M  V30 4612 H 449.895 1.36158 1.52716 0
M  V30 4613 H 449.905 1.02182 3.94997 0
M  V30 4614 H 448.58 2.11378 3.58179 0
M  V30 4615 H 447.157 0.287378 3.71791 0
M  V30 4616 N 449.342 -1.36122 0.79427 0
M  V30 4617 C 450.753 -1.81646 0.431446 0
M  V30 4618 C 451.104 -1.66043 -1.04518 0
M  V30 4619 O 450.229 -1.1841 -1.8113 0
M  V30 4620 C 450.824 -3.29785 0.776341 0
M  V30 4621 C 449.383 -3.73501 0.466282 0
M  V30 4622 C 448.53 -2.58313 1.00844 0
M  V30 4623 H 451.481 -1.24274 0.986995 0
M  V30 4624 H 451.502 -3.80437 0.0692413 0
M  V30 4625 H 451.014 -3.4111 1.8511 0
M  V30 4626 H 449.115 -3.67733 -0.600245 0
M  V30 4627 H 449.228 -4.68754 0.990288 0
M  V30 4628 H 447.592 -2.5102 0.431406 0
M  V30 4629 H 448.375 -2.72421 2.08906 0
M  V30 4630 N 450.82 -0.546701 -1.47814 0
M  V30 4631 C 451.768 0.220048 -2.31557 0
M  V30 4632 C 452.762 0.919472 -1.42275 0
M  V30 4633 O 453.968 0.841953 -1.59095 0
M  V30 4634 H 450.343 0.0898334 -0.746615 0
M  V30 4635 H 452.314 -0.505589 -2.94086 0
M  V30 4636 C 451.063 1.24353 -3.24702 0
M  V30 4637 H 450.386 0.714758 -3.93359 0
M  V30 4638 H 451.826 1.75112 -3.8615 0
M  V30 4639 C 450.285 2.28593 -2.47481 0
M  V30 4640 O 450.815 3.35334 -2.21165 0
M  V30 4641 N 449.021 2.02244 -2.08676 0
M  V30 4642 H 448.568 1.15455 -2.30278 0
M  V30 4643 H 448.526 2.72207 -1.57323 0
M  V30 4644 N 452.299 1.55045 -0.282633 0
M  V30 4645 C 453.246 2.22822 0.601566 0
M  V30 4646 C 454.216 1.20431 1.14392 0
M  V30 4647 O 455.401 1.48996 1.19184 0
M  V30 4648 C 452.541 2.95873 1.77632 0
M  V30 4649 C 451.654 4.12999 1.26711 0
M  V30 4650 C 450.789 4.73676 2.40426 0
M  V30 4651 C 449.828 5.82981 1.86545 0
M  V30 4652 N 448.965 6.3769 2.93762 0
M  V30 4653 H 453.805 2.97995 0.0169528 0
M  V30 4654 H 451.342 1.471 -0.00339964 0
M  V30 4655 H 453.3 3.36447 2.46697 0
M  V30 4656 H 451.93 2.2311 2.33285 0
M  V30 4657 H 450.982 3.77494 0.469314 0
M  V30 4658 H 452.294 4.91803 0.832518 0
M  V30 4659 H 451.448 5.17008 3.17471 0
M  V30 4660 H 450.187 3.94164 2.87203 0
M  V30 4661 H 449.192 5.39092 1.07983 0
M  V30 4662 H 450.417 6.64366 1.40694 0
M  V30 4663 H 448.363 5.61069 3.39908 0
M  V30 4664 H 448.28 7.11788 2.54744 0
M  V30 4665 H 449.548 6.8568 3.7076 0
M  V30 4666 N 453.777 0.010035 1.57597 0
M  V30 4667 C 454.707 -0.976857 2.12084 0
M  V30 4668 C 455.688 -1.35191 1.03235 0
M  V30 4669 O 456.873 -1.43389 1.3097 0
M  V30 4670 C 454.003 -2.26548 2.63236 0
M  V30 4671 C 452.957 -2.03175 3.76701 0
M  V30 4672 C 452.283 -3.38138 4.14206 0
M  V30 4673 C 453.583 -1.38625 5.03568 0
M  V30 4674 H 455.277 -0.523145 2.94794 0
M  V30 4675 H 452.823 -0.250195 1.4181 0
M  V30 4676 H 454.776 -2.95952 2.99984 0
M  V30 4677 H 453.5 -2.74051 1.77661 0
M  V30 4678 H 452.159 -1.36195 3.40362 0
M  V30 4679 H 451.807 -3.83363 3.25641 0
M  V30 4680 H 451.507 -3.23312 4.90656 0
M  V30 4681 H 453.031 -4.08841 4.53521 0
M  V30 4682 H 454.445 -1.98 5.38023 0
M  V30 4683 H 452.842 -1.34256 5.84889 0
M  V30 4684 H 453.912 -0.356722 4.83586 0
M  V30 4685 N 455.255 -1.55392 -0.262866 0
M  V30 4686 C 456.165 -1.92077 -1.34698 0
M  V30 4687 C 457.181 -0.819227 -1.53508 0
M  V30 4688 O 458.357 -1.11921 -1.67439 0
M  V30 4689 C 455.422 -2.19407 -2.68443 0
M  V30 4690 C 454.483 -3.42905 -2.58292 0
M  V30 4691 C 453.716 -3.68921 -3.85659 0
M  V30 4692 O 453.939 -2.97275 -4.8681 0
M  V30 4693 O 452.873 -4.62455 -3.85252 0
M  V30 4694 H 456.699 -2.84384 -1.06581 0
M  V30 4695 H 454.284 -1.42069 -0.462264 0
M  V30 4696 H 456.166 -2.38365 -3.47506 0
M  V30 4697 H 454.841 -1.30282 -2.96325 0
M  V30 4698 H 453.748 -3.29272 -1.7757 0
M  V30 4699 H 455.081 -4.32282 -2.35358 0
M  V30 4700 N 456.733 0.527833 -1.48498 0
M  V30 4701 C 457.98 1.28354 -1.56625 0
M  V30 4702 C 458.308 1.93 -0.241096 0
M  V30 4703 O 457.563 1.79967 0.768798 0
M  V30 4704 C 457.862 2.39275 -2.65485 0
M  V30 4705 C 457.528 1.92268 -4.07853 0
M  V30 4706 C 456.19 1.79166 -4.46602 0
M  V30 4707 C 458.542 1.56771 -4.97064 0
M  V30 4708 C 455.87 1.28905 -5.72364 0
M  V30 4709 C 458.222 1.07972 -6.23318 0
M  V30 4710 C 456.886 0.934887 -6.60921 0
M  V30 4711 H 456.156 0.469682 -0.573131 0
M  V30 4712 H 458.803 0.588781 -1.82224 0
M  V30 4713 H 457.108 3.1443 -2.33754 0
M  V30 4714 H 458.805 2.974 -2.68988 0
M  V30 4715 H 455.395 2.03417 -3.77252 0
M  V30 4716 H 459.579 1.65753 -4.67803 0
M  V30 4717 H 454.835 1.16381 -6.00221 0
M  V30 4718 H 459.009 0.795775 -6.91838 0
M  V30 4719 H 456.636 0.543231 -7.58257 0
M  V30 4720 N 458.211 1.37122 0.776871 0
M  V30 4721 C 459.46 1.31373 1.53049 0
M  V30 4722 C 459.773 -0.101016 1.95339 0
M  V30 4723 O 460.979 -0.280953 2.70042 0
M  V30 4724 C 459.435 2.30567 2.76346 0
M  V30 4725 C 459.043 3.77543 2.41175 0
M  V30 4726 C 460.787 2.33818 3.54301 0
M  V30 4727 C 458.694 4.68481 3.60943 0
M  V30 4728 H 457.624 0.488234 0.574581 0
M  V30 4729 H 460.275 1.62554 0.851372 0
M  V30 4730 H 458.657 1.92396 3.46121 0
M  V30 4731 H 459.831 4.24521 1.79216 0
M  V30 4732 H 458.146 3.77187 1.76405 0
M  V30 4733 H 460.743 2.98965 4.4331 0
M  V30 4734 H 461.086 1.3503 3.93793 0
M  V30 4735 H 461.619 2.7067 2.91518 0
M  V30 4736 H 458.358 5.68378 3.26537 0
M  V30 4737 H 457.878 4.2621 4.22025 0
M  V30 4738 H 459.557 4.85366 4.27819 0
M  V30 4739 N 459.689 -1.00246 1.21608 0
M  V30 4740 C 460.636 -2.09073 0.977613 0
M  V30 4741 C 461.606 -1.65815 -0.097297 0
M  V30 4742 O 462.791 -1.90734 0.0503445 0
M  V30 4743 C 459.931 -3.40671 0.551133 0
M  V30 4744 C 459.044 -3.97326 1.69576 0
M  V30 4745 C 458.179 -5.17043 1.2182 0
M  V30 4746 C 457.218 -5.65813 2.335 0
M  V30 4747 N 456.355 -6.76778 1.86859 0
M  V30 4748 H 461.195 -2.28806 1.90924 0
M  V30 4749 H 458.732 -1.12186 0.951452 0
M  V30 4750 H 460.69 -4.16225 0.285097 0
M  V30 4751 H 459.32 -3.20967 -0.343489 0
M  V30 4752 H 458.372 -3.18734 2.07637 0
M  V30 4753 H 459.684 -4.29511 2.53617 0
M  V30 4754 H 458.838 -5.99852 0.908975 0
M  V30 4755 H 457.577 -4.86458 0.347869 0
M  V30 4756 H 456.582 -4.81599 2.65222 0
M  V30 4757 H 457.807 -5.98427 3.21033 0
M  V30 4758 H 455.753 -6.47994 1.02174 0
M  V30 4759 H 455.67 -7.08231 2.64471 0
M  V30 4760 H 456.938 -7.63116 1.58978 0
M  V30 4761 N 461.167 -1.02423 -1.1978 0
M  V30 4762 C 462.115 -0.594474 -2.24875 0
M  V30 4763 C 463.109 0.370598 -1.65296 0
M  V30 4764 O 464.315 0.239684 -1.78397 0
M  V30 4765 H 460.69 -0.173961 -0.731602 0
M  V30 4766 H 462.661 -1.4916 -2.58445 0
M  V30 4767 C 461.41 0.0436512 -3.47673 0
M  V30 4768 H 460.733 -0.689963 -3.93801 0
M  V30 4769 H 462.173 0.307362 -4.22884 0
M  V30 4770 C 460.632 1.28881 -3.11274 0
M  V30 4771 O 461.162 2.38135 -3.23503 0
M  V30 4772 N 459.368 1.1758 -2.6575 0
M  V30 4773 H 458.915 0.286769 -2.55999 0
M  V30 4774 H 458.873 2.00988 -2.41767 0
M  V30 4775 N 462.645 1.35699 -0.801477 0
M  V30 4776 C 463.575 2.32436 -0.222658 0
M  V30 4777 C 464.556 1.5723 0.649057 0
M  V30 4778 O 465.741 1.85324 0.580387 0
M  V30 4779 C 462.871 3.41469 0.633719 0
M  V30 4780 C 461.825 4.27774 -0.139083 0
M  V30 4781 C 461.151 5.28082 0.838666 0
M  V30 4782 C 462.451 5.04946 -1.33517 0
M  V30 4783 H 464.145 2.81094 -1.03086 0
M  V30 4784 H 461.691 1.35146 -0.497155 0
M  V30 4785 H 463.644 4.08143 1.04868 0
M  V30 4786 H 462.368 2.91408 1.47475 0
M  V30 4787 H 461.027 3.62673 -0.535156 0
M  V30 4788 H 460.675 4.7429 1.67506 0
M  V30 4789 H 460.375 5.86695 0.32594 0
M  V30 4790 H 461.899 5.97628 1.25194 0
M  V30 4791 H 463.313 5.64593 -0.995349 0
M  V30 4792 H 461.71 5.7303 -1.78202 0
M  V30 4793 H 462.78 4.35886 -2.12442 0
M  V30 4794 N 464.123 0.554532 1.47522 0
M  V30 4795 C 465.053 -0.182974 2.32782 0
M  V30 4796 C 466.034 -0.911377 1.43624 0
M  V30 4797 O 467.219 -0.892366 1.72483 0
M  V30 4798 C 464.349 -1.21513 3.25349 0
M  V30 4799 C 463.303 -0.603355 4.23726 0
M  V30 4800 C 462.629 -1.73995 5.05598 0
M  V30 4801 C 463.929 0.441121 5.20434 0
M  V30 4802 H 465.623 0.52882 2.94693 0
M  V30 4803 H 463.169 0.255759 1.41711 0
M  V30 4804 H 465.122 -1.73922 3.83835 0
M  V30 4805 H 463.846 -1.95683 2.61487 0
M  V30 4806 H 462.505 -0.10059 3.66462 0
M  V30 4807 H 462.153 -2.47063 4.38143 0
M  V30 4808 H 461.853 -1.3364 5.72201 0
M  V30 4809 H 463.377 -2.26735 5.66942 0
M  V30 4810 H 464.791 0.00319931 5.733 0
M  V30 4811 H 463.188 0.763402 5.95224 0
M  V30 4812 H 464.258 1.33799 4.66075 0
M  V30 4813 N 465.601 -1.54893 0.290851 0
M  V30 4814 C 466.549 -2.24579 -0.605576 0
M  V30 4815 C 467.543 -1.24824 -1.14522 0
M  V30 4816 O 468.749 -1.42706 -1.09704 0
M  V30 4817 H 465.124 -0.720946 -0.213872 0
M  V30 4818 H 467.095 -2.984 0.0048173 0
M  V30 4819 C 465.844 -2.99224 -1.77088 0
M  V30 4820 H 465.167 -3.75782 -1.36484 0
M  V30 4821 H 466.607 -3.51281 -2.3744 0
M  V30 4822 C 465.066 -2.05602 -2.66888 0
M  V30 4823 O 465.596 -1.61745 -3.67698 0
M  V30 4824 N 463.802 -1.71771 -2.34399 0
M  V30 4825 H 463.349 -2.07633 -1.52468 0
M  V30 4826 H 463.307 -1.09403 -2.94751 0
M  V30 4827 N 467.08 -0.0183926 -1.57589 0
M  V30 4828 C 468.329 0.66185 -1.90532 0
M  V30 4829 C 468.642 1.73904 -0.895366 0
M  V30 4830 O 469.848 2.47518 -1.11566 0
M  V30 4831 C 468.304 1.22844 -3.38286 0
M  V30 4832 C 467.912 0.185103 -4.47617 0
M  V30 4833 C 469.656 1.88581 -3.80312 0
M  V30 4834 C 467.563 0.762723 -5.86461 0
M  V30 4835 H 466.493 0.250972 -0.711006 0
M  V30 4836 H 469.144 -0.0819435 -1.83317 0
M  V30 4837 H 467.526 2.0235 -3.40398 0
M  V30 4838 H 468.7 -0.58671 -4.5705 0
M  V30 4839 H 467.015 -0.372889 -4.14727 0
M  V30 4840 H 469.612 2.32735 -4.81392 0
M  V30 4841 H 469.955 2.72408 -3.14801 0
M  V30 4842 H 470.488 1.15782 -3.80578 0
M  V30 4843 H 467.227 -0.0371713 -6.55489 0
M  V30 4844 H 466.747 1.50327 -5.80656 0
M  V30 4845 H 468.426 1.25576 -6.34697 0
M  V30 4846 N 468.558 1.5553 0.254621 0
M  V30 4847 C 469.807 1.76202 0.981612 0
M  V30 4848 C 470.12 0.580883 1.86776 0
M  V30 4849 O 471.326 0.670448 2.63092 0
M  V30 4850 C 469.782 3.11921 1.79537 0
M  V30 4851 C 469.39 4.37659 0.956991 0
M  V30 4852 C 471.134 3.41936 2.51555 0
M  V30 4853 C 469.041 5.64411 1.76619 0
M  V30 4854 H 467.971 0.656841 0.370237 0
M  V30 4855 H 470.622 1.81969 0.236556 0
M  V30 4856 H 469.004 3.00241 2.58208 0
M  V30 4857 H 470.178 4.60307 0.21315 0
M  V30 4858 H 468.493 4.14922 0.350497 0
M  V30 4859 H 471.09 4.33849 3.12536 0
M  V30 4860 H 471.433 2.62905 3.22779 0
M  V30 4861 H 471.966 3.54797 1.799 0
M  V30 4862 H 468.705 6.46241 1.09783 0
M  V30 4863 H 468.225 5.45877 2.48551 0
M  V30 4864 H 469.904 6.03386 2.33527 0
M  V30 4865 N 470.036 -0.519951 1.48776 0
M  V30 4866 C 471.313 -1.28123 1.47797 0
M  V30 4867 C 471.693 -2.10196 0.195157 0
M  V30 4868 O 471.041 -2.13167 -0.822925 0
M  V30 4869 C 471.251 -2.15413 2.74587 0
M  V30 4870 C 472.599 -2.75225 3.23321 0
M  V30 4871 O 473.623 -2.25694 2.75574 0
M  V30 4872 O 472.482 -3.65346 4.06429 0
M  V30 4873 H 469.576 -0.578793 0.590701 0
M  V30 4874 H 472.122 -0.535779 1.6102 0
M  V30 4875 H 470.894 -1.54617 3.59457 0
M  V30 4876 H 470.517 -2.97186 2.64132 0
M  V30 4877 N 471.514 -1.37532 -0.769588 0
M  V30 4878 C 472.761 -1.3286 -1.52822 0
M  V30 4879 C 473.089 0.0862597 -1.94309 0
M  V30 4880 O 472.344 1.05995 -1.6451 0
M  V30 4881 C 472.643 -2.21558 -2.8044 0
M  V30 4882 C 472.309 -3.69796 -2.57996 0
M  V30 4883 C 470.971 -4.10194 -2.51583 0
M  V30 4884 C 473.323 -4.63699 -2.37976 0
M  V30 4885 C 470.651 -5.42608 -2.23144 0
M  V30 4886 C 473.003 -5.96353 -2.1106 0
M  V30 4887 C 471.667 -6.35853 -2.03093 0
M  V30 4888 H 470.937 -0.486168 -0.559215 0
M  V30 4889 H 473.584 -1.69757 -0.886277 0
M  V30 4890 H 471.889 -1.77663 -3.49204 0
M  V30 4891 H 473.586 -2.15256 -3.38328 0
M  V30 4892 H 470.176 -3.37759 -2.63851 0
M  V30 4893 H 474.36 -4.33346 -2.41919 0
M  V30 4894 H 469.616 -5.72173 -2.15472 0
M  V30 4895 H 473.79 -6.68667 -1.94568 0
M  V30 4896 H 471.417 -7.38382 -1.8082 0
M  V30 4897 N 472.992 0.995999 -1.22138 0
M  V30 4898 C 474.238 1.73767 -1.04561 0
M  V30 4899 C 474.571 1.89633 0.418698 0
M  V30 4900 O 473.846 1.43723 1.3105 0
M  V30 4901 C 474.129 3.14505 -1.75382 0
M  V30 4902 C 473.982 3.06306 -3.29388 0
M  V30 4903 C 475.301 4.13615 -1.50369 0
M  V30 4904 H 472.42 0.630728 -0.38125 0
M  V30 4905 H 475.062 1.16057 -1.50435 0
M  V30 4906 H 473.212 3.63775 -1.36383 0
M  V30 4907 H 474.884 2.64681 -3.77812 0
M  V30 4908 H 473.127 2.43186 -3.59226 0
M  V30 4909 H 473.798 4.05884 -3.74116 0
M  V30 4910 H 476.274 3.73089 -1.84239 0
M  V30 4911 H 475.15 5.10212 -2.02421 0
M  V30 4912 H 475.411 4.39949 -0.435611 0
M  V30 4913 N 474.47 1.03057 1.19235 0
M  V30 4914 C 475.433 0.617418 2.20727 0
M  V30 4915 C 476.433 -0.319856 1.57587 0
M  V30 4916 O 477.623 -0.106633 1.73873 0
M  V30 4917 C 474.755 -0.096296 3.40764 0
M  V30 4918 H 475.948 1.51544 2.58794 0
M  V30 4919 H 473.501 0.821949 1.32942 0
M  V30 4920 H 474.236 -1.00859 3.08217 0
M  V30 4921 H 474.021 0.577217 3.87828 0
M  V30 4922 H 475.511 -0.372219 4.15938 0
M  V30 4923 N 475.948 -1.35272 0.808662 0
M  V30 4924 C 477.197 -1.97963 0.386483 0
M  V30 4925 C 477.51 -1.64866 -1.05255 0
M  V30 4926 O 478.716 -2.20937 -1.57794 0
M  V30 4927 C 477.172 -3.54162 0.640096 0
M  V30 4928 C 476.78 -3.96166 2.0918 0
M  V30 4929 C 478.524 -4.23553 0.283376 0
M  V30 4930 C 476.431 -5.4522 2.29106 0
M  V30 4931 H 475.361 -0.740742 0.140774 0
M  V30 4932 H 478.012 -1.5431 0.993012 0
M  V30 4933 H 476.394 -3.95983 -0.0364117 0
M  V30 4934 H 477.568 -3.65491 2.80629 0
M  V30 4935 H 475.883 -3.3967 2.40859 0
M  V30 4936 H 478.48 -5.33124 0.410273 0
M  V30 4937 H 478.823 -4.09105 -0.770659 0
M  V30 4938 H 479.356 -3.8716 0.913884 0
M  V30 4939 H 476.095 -5.64638 3.32962 0
M  V30 4940 H 475.615 -5.77457 1.62184 0
M  V30 4941 H 477.294 -6.1171 2.1076 0
M  V30 4942 N 477.426 -0.562348 -1.47226 0
M  V30 4943 C 478.356 0.170627 -2.32876 0
M  V30 4944 C 479.337 0.903748 -1.44106 0
M  V30 4945 O 480.522 0.883206 -1.72954 0
M  V30 4946 C 477.652 1.19786 -3.25989 0
M  V30 4947 C 476.606 0.580875 -4.2404 0
M  V30 4948 C 475.932 1.71311 -5.06514 0
M  V30 4949 C 477.232 -0.468714 -5.20193 0
M  V30 4950 H 478.926 -0.544441 -2.94408 0
M  V30 4951 H 476.472 -0.263271 -1.41573 0
M  V30 4952 H 478.425 1.71884 -3.84752 0
M  V30 4953 H 477.149 1.94294 -2.62521 0
M  V30 4954 H 475.808 0.0811538 -3.6651 0
M  V30 4955 H 475.456 2.44736 -4.39447 0
M  V30 4956 H 475.156 1.30604 -5.72902 0
M  V30 4957 H 476.68 2.23725 -5.68137 0
M  V30 4958 H 478.094 -0.0336028 -5.7329 0
M  V30 4959 H 476.491 -0.794957 -5.94811 0
M  V30 4960 H 477.561 -1.36269 -4.65359 0
M  V30 4961 N 478.904 1.54736 -0.299062 0
M  V30 4962 C 480.315 1.8569 0.193971 0
M  V30 4963 C 480.666 1.22101 1.53577 0
M  V30 4964 O 479.791 0.51799 2.10109 0
M  V30 4965 C 480.386 3.36895 0.358733 0
M  V30 4966 C 478.945 3.67887 0.795986 0
M  V30 4967 C 478.092 2.77131 -0.096807 0
M  V30 4968 H 481.043 1.49934 -0.520134 0
M  V30 4969 H 481.064 3.61294 1.19361 0
M  V30 4970 H 480.576 3.83148 -0.617998 0
M  V30 4971 H 478.677 3.27151 1.78334 0
M  V30 4972 H 478.79 4.75114 0.616718 0
M  V30 4973 H 477.154 2.51153 0.423581 0
M  V30 4974 H 477.937 3.26204 -1.06986 0
M  V30 4975 N 480.382 0.0267497 1.57577 0
M  V30 4976 C 481.629 -0.652404 1.91703 0
M  V30 4977 C 481.957 -1.72271 0.902936 0
M  V30 4978 O 481.212 -1.955 -0.0884843 0
M  V30 4979 C 481.511 -1.30914 3.3256 0
M  V30 4980 C 481.177 -0.369441 4.49384 0
M  V30 4981 C 479.839 -0.110791 4.81072 0
M  V30 4982 C 482.191 0.275971 5.20469 0
M  V30 4983 C 479.519 0.801116 5.81205 0
M  V30 4984 C 481.871 1.17592 6.21575 0
M  V30 4985 C 480.535 1.44348 6.51705 0
M  V30 4986 H 479.805 -0.238732 0.70149 0
M  V30 4987 H 482.452 0.0880091 1.91298 0
M  V30 4988 H 480.757 -2.12425 3.29216 0
M  V30 4989 H 482.454 -1.84115 3.56234 0
M  V30 4990 H 479.044 -0.581211 4.24641 0
M  V30 4991 H 483.228 0.0892 4.9622 0
M  V30 4992 H 478.484 1.01614 6.02897 0
M  V30 4993 H 482.658 1.68223 6.75777 0
M  V30 4994 H 480.285 2.15176 7.29111 0
M  V30 4995 N 481.861 -1.55662 -0.24637 0
M  V30 4996 C 483.091 -1.81312 -0.990438 0
M  V30 4997 C 483.499 -0.600234 -1.79426 0
M  V30 4998 O 482.842 0.440537 -1.78339 0
M  V30 4999 C 482.904 -3.0032 -1.97607 0
M  V30 5000 C 482.568 -4.36322 -1.35912 0
M  V30 5001 C 483.565 -5.14295 -0.761348 0
M  V30 5002 C 481.25 -4.83019 -1.37833 0
M  V30 5003 C 483.244 -6.37114 -0.190998 0
M  V30 5004 C 480.931 -6.05786 -0.804128 0
M  V30 5005 C 481.929 -6.82672 -0.211489 0
M  V30 5006 O 481.617 -8.03121 0.353845 0
M  V30 5007 H 481.349 -0.607233 -0.297058 0
M  V30 5008 H 483.903 -2.0356 -0.274351 0
M  V30 5009 H 482.133 -2.73829 -2.73047 0
M  V30 5010 H 483.822 -3.13057 -2.58361 0
M  V30 5011 H 484.588 -4.79337 -0.739013 0
M  V30 5012 H 480.467 -4.23165 -1.829 0
M  V30 5013 H 484.011 -6.97069 0.272206 0
M  V30 5014 H 479.908 -6.40222 -0.823792 0
M  V30 5015 H 480.676 -8.18131 0.245761 0
M  V30 5016 N 483.339 0.512053 -1.4905 0
M  V30 5017 C 484.269 1.62365 -1.67809 0
M  V30 5018 C 485.25 1.61737 -0.526809 0
M  V30 5019 O 486.435 1.78651 -0.761404 0
M  V30 5020 C 483.565 3.00895 -1.73435 0
M  V30 5021 C 482.519 3.16387 -2.88242 0
M  V30 5022 C 481.845 4.56157 -2.78971 0
M  V30 5023 C 483.145 2.97457 -4.29321 0
M  V30 5024 H 484.839 1.46921 -2.60873 0
M  V30 5025 H 482.385 0.705379 -1.2554 0
M  V30 5026 H 484.338 3.78549 -1.85145 0
M  V30 5027 H 483.062 3.17403 -0.769619 0
M  V30 5028 H 481.721 2.41155 -2.76116 0
M  V30 5029 H 481.369 4.69525 -1.8043 0
M  V30 5030 H 481.069 4.67465 -3.5602 0
M  V30 5031 H 482.593 5.35886 -2.92675 0
M  V30 5032 H 484.007 3.64888 -4.42187 0
M  V30 5033 H 482.404 3.20245 -5.07507 0
M  V30 5034 H 483.474 1.93692 -4.44535 0
M  V30 5035 N 484.817 1.37938 0.762283 0
M  V30 5036 C 485.727 1.36681 1.90671 0
M  V30 5037 C 486.743 0.265078 1.71969 0
M  V30 5038 O 487.919 0.502055 1.95042 0
M  V30 5039 C 484.984 1.18211 3.25925 0
M  V30 5040 C 484.045 2.3811 3.57214 0
M  V30 5041 C 483.278 2.20512 4.86014 0
M  V30 5042 O 483.501 1.19429 5.57757 0
M  V30 5043 O 482.435 3.08911 5.16583 0
M  V30 5044 H 486.261 2.33091 1.94685 0
M  V30 5045 H 483.846 1.18767 0.906356 0
M  V30 5046 H 485.728 1.09937 4.06807 0
M  V30 5047 H 484.403 0.248807 3.22742 0
M  V30 5048 H 483.31 2.51958 2.76529 0
M  V30 5049 H 484.643 3.30041 3.65149 0
M  V30 5050 N 486.295 -0.989507 1.22664 0
M  V30 5051 C 487.541 -1.7321 1.05481 0
M  V30 5052 C 487.874 -1.89852 -0.408635 0
M  V30 5053 O 487.149 -1.44416 -1.30285 0
M  V30 5054 C 487.432 -3.1357 1.77047 0
M  V30 5055 C 487.285 -3.04555 3.31008 0
M  V30 5056 C 488.604 -4.12812 1.5256 0
M  V30 5057 H 485.723 -0.628697 0.384589 0
M  V30 5058 H 488.365 -1.15258 1.51049 0
M  V30 5059 H 486.515 -3.63046 1.3831 0
M  V30 5060 H 488.187 -2.62674 3.7921 0
M  V30 5061 H 486.43 -2.41278 3.6051 0
M  V30 5062 H 487.101 -4.03894 3.76263 0
M  V30 5063 H 489.577 -3.72106 1.86215 0
M  V30 5064 H 488.453 -5.09132 2.05124 0
M  V30 5065 H 488.714 -4.39711 0.458936 0
M  V30 5066 N 487.773 -1.03688 -1.18687 0
M  V30 5067 C 489.021 -0.736572 -1.88199 0
M  V30 5068 C 489.342 0.737665 -1.80509 0
M  V30 5069 O 488.612 1.53204 -1.22088 0
M  V30 5070 H 487.192 -0.269466 -0.696704 0
M  V30 5071 H 489.854 -1.31282 -1.44052 0
M  V30 5072 H 488.95 -1.03802 -2.94332 0
M  V30 5073 N 489.251 1.34841 -0.815825 0
M  V30 5074 C 490.181 2.32187 -0.247298 0
M  V30 5075 C 491.162 1.5791 0.632344 0
M  V30 5076 O 492.347 1.8593 0.560698 0
M  V30 5077 C 489.477 3.42122 0.597466 0
M  V30 5078 C 488.431 4.27602 -0.184446 0
M  V30 5079 C 487.757 5.28942 0.782609 0
M  V30 5080 C 489.057 5.03502 -1.38865 0
M  V30 5081 H 490.751 2.79985 -1.06061 0
M  V30 5082 H 488.297 1.34611 -0.511461 0
M  V30 5083 H 490.25 4.09232 1.00533 0
M  V30 5084 H 488.974 2.92956 1.44376 0
M  V30 5085 H 487.633 3.62085 -0.573592 0
M  V30 5086 H 487.281 4.7604 1.62466 0
M  V30 5087 H 486.981 5.87008 0.263695 0
M  V30 5088 H 488.505 5.98922 1.18848 0
M  V30 5089 H 489.919 5.63506 -1.05518 0
M  V30 5090 H 488.316 5.71108 -1.8427 0
M  V30 5091 H 489.386 4.33608 -2.17054 0
M  V30 5092 N 490.729 0.570148 1.46925 0
M  V30 5093 C 491.954 0.0542592 2.07329 0
M  V30 5094 C 492.379 -1.23582 1.41806 0
M  V30 5095 O 491.737 -1.74341 0.497479 0
M  V30 5096 C 491.785 -0.111175 3.60429 0
M  V30 5097 O 490.889 -1.17071 3.95434 0
M  V30 5098 H 490.23 0.0571425 0.661537 0
M  V30 5099 H 492.76 0.789516 1.88753 0
M  V30 5100 H 492.77 -0.321315 4.06733 0
M  V30 5101 H 491.445 0.831012 4.07513 0
M  V30 5102 H 490.022 -0.940029 3.60857 0
M  V30 5103 N 492.207 -1.54576 0.307264 0
M  V30 5104 C 493.455 -1.99867 -0.299574 0
M  V30 5105 C 493.776 -1.19714 -1.53927 0
M  V30 5106 O 493.046 -0.29472 -1.9367 0
M  V30 5107 H 491.626 -0.738299 -0.113683 0
M  V30 5108 H 494.288 -1.9032 0.420042 0
M  V30 5109 H 493.384 -3.06901 -0.567283 0
M  V30 5110 N 493.685 -0.035106 -1.57561 0
M  V30 5111 C 494.615 0.942993 -2.13612 0
M  V30 5112 C 495.596 1.33531 -1.05373 0
M  V30 5113 O 496.781 1.41287 -1.33235 0
M  V30 5114 C 493.911 2.22332 -2.66807 0
M  V30 5115 C 492.865 1.97156 -3.79886 0
M  V30 5116 C 492.191 3.31506 -4.19533 0
M  V30 5117 C 493.491 1.30596 -5.05709 0
M  V30 5118 H 495.185 0.476179 -2.95589 0
M  V30 5119 H 492.731 0.227602 -1.4219 0
M  V30 5120 H 494.684 2.91142 -3.04654 0
M  V30 5121 H 493.408 2.7119 -1.81999 0
M  V30 5122 H 492.067 1.30763 -3.42486 0
M  V30 5123 H 491.715 3.78134 -3.31698 0
M  V30 5124 H 491.415 3.15465 -4.95738 0
M  V30 5125 H 492.939 4.01574 -4.59968 0
M  V30 5126 H 494.353 1.89416 -5.41105 0
M  V30 5127 H 492.75 1.24934 -5.86951 0
M  V30 5128 H 493.82 0.279742 -4.84092 0
M  V30 5129 N 495.163 1.55791 0.238111 0
M  V30 5130 C 496.388 1.8244 0.986432 0
M  V30 5131 C 496.813 0.613314 1.7782 0
M  V30 5132 O 496.171 -0.437767 1.75935 0
M  V30 5133 C 496.219 3.06917 1.893 0
M  V30 5134 O 495.323 2.84449 2.98601 0
M  V30 5135 H 494.664 0.601975 0.280218 0
M  V30 5136 H 497.194 2.02987 0.256437 0
M  V30 5137 H 497.204 3.36583 2.30598 0
M  V30 5138 H 495.879 3.947 1.31091 0
M  V30 5139 H 494.456 2.65972 2.61368 0
M  V30 5140 N 496.642 -0.504142 1.49319 0
M  V30 5141 C 497.867 -1.28729 1.62615 0
M  V30 5142 C 498.292 -1.85752 0.296309 0
M  V30 5143 O 497.65 -1.65704 -0.735649 0
M  V30 5144 C 497.698 -2.39561 2.69524 0
M  V30 5145 O 496.802 -3.43324 2.28478 0
M  V30 5146 H 496.143 -0.380172 0.544395 0
M  V30 5147 H 498.673 -0.603872 1.95485 0
M  V30 5148 H 498.683 -2.8537 2.91595 0
M  V30 5149 H 497.358 -1.97423 3.66056 0
M  V30 5150 H 495.935 -3.03455 2.16725 0
M  V30 5151 N 498.12 -1.38341 -0.754957 0
M  V30 5152 C 499.067 -1.3546 -1.86867 0
M  V30 5153 C 500.037 -0.217369 -1.64672 0
M  V30 5154 O 501.222 -0.409383 -1.86356 0
M  V30 5155 C 498.362 -1.18413 -3.24149 0
M  V30 5156 C 497.475 -2.41511 -3.58185 0
M  V30 5157 C 496.61 -2.17205 -4.84763 0
M  V30 5158 C 495.649 -3.36081 -5.11582 0
M  V30 5159 N 494.786 -3.11219 -6.29354 0
M  V30 5160 H 499.626 -2.30672 -1.88664 0
M  V30 5161 H 497.163 -1.14607 -0.922154 0
M  V30 5162 H 499.121 -1.06545 -4.03366 0
M  V30 5163 H 497.751 -0.268397 -3.21682 0
M  V30 5164 H 496.803 -2.64056 -2.73822 0
M  V30 5165 H 498.115 -3.30115 -3.73932 0
M  V30 5166 H 497.269 -2.02465 -5.7192 0
M  V30 5167 H 496.008 -1.25964 -4.71152 0
M  V30 5168 H 495.013 -3.51341 -4.22894 0
M  V30 5169 H 496.238 -4.28196 -5.27091 0
M  V30 5170 H 494.184 -2.22624 -6.17069 0
M  V30 5171 H 494.101 -3.93373 -6.45596 0
M  V30 5172 H 495.369 -3.00132 -7.19403 0
M  V30 5173 N 499.598 0.982988 -1.23187 0
M  V30 5174 C 500.561 2.05649 -1.01198 0
M  V30 5175 C 501.561 1.6078 0.0252464 0
M  V30 5176 O 502.751 1.72878 -0.214243 0
M  V30 5177 C 499.883 3.36744 -0.530656 0
M  V30 5178 H 501.076 2.2659 -1.96461 0
M  V30 5179 H 498.629 1.15602 -1.05195 0
M  V30 5180 H 499.364 3.21492 0.425873 0
M  V30 5181 H 499.149 3.7065 -1.2791 0
M  V30 5182 H 500.639 4.15705 -0.397366 0
M  V30 5183 N 501.076 1.04316 1.18135 0
M  V30 5184 C 502.039 0.640794 2.2006 0
M  V30 5185 C 503.039 -0.303124 1.57917 0
M  V30 5186 O 504.229 -0.0881855 1.73977 0
M  V30 5187 C 501.361 -0.060148 3.40847 0
M  V30 5188 H 502.554 1.54281 2.57172 0
M  V30 5189 H 500.107 0.836004 1.32063 0
M  V30 5190 H 500.842 -0.975845 3.0927 0
M  V30 5191 H 500.627 0.618319 3.87194 0
M  V30 5192 H 502.117 -0.328082 4.16309 0
M  V30 5193 N 502.554 -1.34406 0.822964 0
M  V30 5194 C 503.501 -2.29519 0.24284 0
M  V30 5195 C 504.471 -1.5359 -0.632397 0
M  V30 5196 O 505.656 -1.8196 -0.57403 0
M  V30 5197 C 502.796 -3.40032 -0.58925 0
M  V30 5198 C 501.909 -4.30899 0.308236 0
M  V30 5199 C 501.044 -5.28515 -0.533425 0
M  V30 5200 C 500.083 -6.1102 0.363444 0
M  V30 5201 N 499.22 -7.00725 -0.439147 0
M  V30 5202 H 504.06 -2.78537 1.05929 0
M  V30 5203 H 501.597 -1.3707 0.533872 0
M  V30 5204 H 503.555 -4.0279 -1.087 0
M  V30 5205 H 502.185 -2.92248 -1.37081 0
M  V30 5206 H 501.237 -3.69002 0.924203 0
M  V30 5207 H 502.549 -4.88717 0.997862 0
M  V30 5208 H 501.703 -5.96725 -1.09565 0
M  V30 5209 H 500.442 -4.71235 -1.25656 0
M  V30 5210 H 499.447 -5.41743 0.937812 0
M  V30 5211 H 500.672 -6.70381 1.08469 0
M  V30 5212 H 498.618 -6.45913 -1.14595 0
M  V30 5213 H 498.535 -7.55756 0.19209 0
M  V30 5214 H 499.803 -7.73263 -0.984124 0
M  V30 5215 N 504.032 -0.577932 -1.46621 0
M  V30 5216 C 505.309 0.00495287 -1.95599 0
M  V30 5217 C 505.689 1.46428 -1.5206 0
M  V30 5218 O 505.037 2.1517 -0.769046 0
M  V30 5219 C 505.247 -0.162114 -3.48623 0
M  V30 5220 C 506.595 -0.0274623 -4.24591 0
M  V30 5221 O 507.619 -0.0907067 -3.56084 0
M  V30 5222 O 506.478 0.1122 -5.46385 0
M  V30 5223 H 503.572 0.0525057 -0.825332 0
M  V30 5224 H 506.118 -0.645914 -1.56927 0
M  V30 5225 H 504.89 -1.17679 -3.73185 0
M  V30 5226 H 504.513 0.525407 -3.94113 0
M  V30 5227 N 505.51 1.54411 -0.315457 0
M  V30 5228 C 506.756 2.00716 0.289972 0
M  V30 5229 C 507.089 1.2034 1.5242 0
M  V30 5230 O 506.364 0.283579 1.92422 0
M  V30 5231 C 506.647 3.54507 0.632196 0
M  V30 5232 C 506.5 4.45615 -0.61218 0
M  V30 5233 C 507.819 4.15421 1.45305 0
M  V30 5234 H 504.938 0.729637 0.10392 0
M  V30 5235 H 507.58 1.8506 -0.430427 0
M  V30 5236 H 505.73 3.67979 1.24595 0
M  V30 5237 H 507.402 4.44026 -1.25053 0
M  V30 5238 H 505.645 4.15621 -1.24264 0
M  V30 5239 H 506.316 5.51022 -0.328379 0
M  V30 5240 H 508.792 4.05474 0.934331 0
M  V30 5241 H 507.668 5.23157 1.66127 0
M  V30 5242 H 507.929 3.68223 2.44671 0
M  V30 5243 N 506.988 0.0434614 1.5754 0
M  V30 5244 C 507.918 -0.931651 2.14109 0
M  V30 5245 C 508.899 -1.32971 1.06079 0
M  V30 5246 O 510.084 -1.40579 1.33982 0
M  V30 5247 C 507.214 -2.20914 2.67982 0
M  V30 5248 C 506.168 -1.95139 3.80926 0
M  V30 5249 C 505.494 -3.29276 4.21285 0
M  V30 5250 C 506.794 -1.27913 5.06395 0
M  V30 5251 H 508.488 -0.460497 2.95837 0
M  V30 5252 H 506.034 -0.220058 1.42309 0
M  V30 5253 H 507.987 -2.89522 3.06194 0
M  V30 5254 H 506.711 -2.70221 1.83434 0
M  V30 5255 H 505.37 -1.28945 3.43175 0
M  V30 5256 H 505.018 -3.76369 3.33699 0
M  V30 5257 H 504.718 -3.12831 4.97404 0
M  V30 5258 H 506.242 -3.99129 4.62091 0
M  V30 5259 H 507.656 -1.86544 5.42102 0
M  V30 5260 H 506.053 -1.2182 5.87605 0
M  V30 5261 H 507.123 -0.254066 4.84234 0
M  V30 5262 N 508.466 -1.55915 -0.229846 0
M  V30 5263 C 509.714 -1.7819 -0.953565 0
M  V30 5264 C 510.035 -0.610504 -1.85197 0
M  V30 5265 O 509.305 0.372988 -1.92316 0
M  V30 5266 H 507.885 -0.657208 -0.355087 0
M  V30 5267 H 510.547 -1.9337 -0.243693 0
M  V30 5268 H 509.643 -2.70011 -1.56527 0
M  V30 5269 N 509.944 0.496216 -1.49584 0
M  V30 5270 C 511.191 1.25003 -1.59312 0
M  V30 5271 C 511.519 1.92445 -0.28198 0
M  V30 5272 O 510.774 1.81557 0.730452 0
M  V30 5273 C 511.073 2.3359 -2.705 0
M  V30 5274 C 510.739 1.83574 -4.11839 0
M  V30 5275 C 509.401 1.69653 -4.50302 0
M  V30 5276 C 511.753 1.46193 -5.00277 0
M  V30 5277 C 509.081 1.16736 -5.74969 0
M  V30 5278 C 511.433 0.947265 -6.25468 0
M  V30 5279 C 510.097 0.794485 -6.62755 0
M  V30 5280 H 509.367 0.45742 -0.582965 0
M  V30 5281 H 512.014 0.549996 -1.83432 0
M  V30 5282 H 510.319 3.09401 -2.40371 0
M  V30 5283 H 512.016 2.91627 -2.75235 0
M  V30 5284 H 508.606 1.9537 -3.81482 0
M  V30 5285 H 512.79 1.55793 -4.71214 0
M  V30 5286 H 508.046 1.03623 -6.02555 0
M  V30 5287 H 512.22 0.648846 -6.93371 0
M  V30 5288 H 509.847 0.382271 -7.59238 0
M  V30 5289 N 511.423 1.38739 0.74761 0
M  V30 5290 C 512.353 1.39173 1.87492 0
M  V30 5291 C 513.334 0.256794 1.6815 0
M  V30 5292 O 514.519 0.460762 1.88655 0
M  V30 5293 C 511.649 1.22197 3.25093 0
M  V30 5294 C 510.603 2.32957 3.59047 0
M  V30 5295 C 509.929 2.01082 4.95449 0
M  V30 5296 C 511.229 3.75237 3.6331 0
M  V30 5297 H 512.923 2.3351 1.87386 0
M  V30 5298 H 510.469 1.12399 0.900134 0
M  V30 5299 H 512.422 1.21124 4.03617 0
M  V30 5300 H 511.146 0.243241 3.25693 0
M  V30 5301 H 509.805 2.33226 2.82845 0
M  V30 5302 H 509.453 1.01678 4.92616 0
M  V30 5303 H 509.153 2.75267 5.19136 0
M  V30 5304 H 510.677 2.01638 5.76346 0
M  V30 5305 H 512.091 3.76966 4.31937 0
M  V30 5306 H 510.488 4.48677 3.98509 0
M  V30 5307 H 511.558 4.07122 2.634 0
M  V30 5308 N 512.901 -0.976442 1.23707 0
M  V30 5309 C 514.317 -1.24341 1.00058 0
M  V30 5310 C 514.517 -1.99315 -0.295932 0
M  V30 5311 O 513.573 -2.3123 -1.01435 0
M  V30 5312 C 514.886 -2.03909 2.21001 0
M  V30 5313 C 516.434 -2.17034 2.25534 0
M  V30 5314 C 516.909 -2.99994 3.46075 0
M  V30 5315 N 518.4 -3.07578 3.46338 0
M  V30 5316 C 519.135 -3.72104 4.36264 0
M  V30 5317 N 518.631 -4.3842 5.36432 0
M  V30 5318 N 520.424 -3.69029 4.23998 0
M  V30 5319 H 512.575 -0.47428 2.07037 0
M  V30 5320 H 514.838 -0.272167 0.908091 0
M  V30 5321 H 514.544 -1.56198 3.15111 0
M  V30 5322 H 514.418 -3.04654 2.22409 0
M  V30 5323 H 516.805 -2.63951 1.31961 0
M  V30 5324 H 516.886 -1.15664 2.28156 0
M  V30 5325 H 516.53 -2.53772 4.39957 0
M  V30 5326 H 516.46 -4.01541 3.40694 0
M  V30 5327 H 518.951 -2.60397 2.73865 0
M  V30 5328 H 519.264 -4.85447 6.013 0
M  V30 5329 H 517.609 -4.37116 5.40328 0
M  V30 5330 H 520.8 -3.16392 3.44984 0
M  V30 5331 H 520.973 -4.19034 4.94282 0
M  V30 5332 N 514.379 -1.04941 -1.1758 0
M  V30 5333 C 515.625 -0.759112 -1.88057 0
M  V30 5334 C 515.958 0.711918 -1.8068 0
M  V30 5335 O 515.233 1.52035 -1.21308 0
M  V30 5336 C 515.516 -1.237 -3.38187 0
M  V30 5337 C 515.369 -2.77078 -3.54327 0
M  V30 5338 C 516.688 -0.834014 -4.32125 0
M  V30 5339 H 513.807 -0.277237 -0.682868 0
M  V30 5340 H 516.449 -1.30296 -1.38286 0
M  V30 5341 H 514.599 -0.774337 -3.80705 0
M  V30 5342 H 516.271 -3.31449 -3.20842 0
M  V30 5343 H 514.514 -3.16477 -2.96689 0
M  V30 5344 H 515.185 -3.05577 -4.59703 0
M  V30 5345 H 517.661 -1.23228 -3.97434 0
M  V30 5346 H 516.537 -1.19603 -5.35711 0
M  V30 5347 H 516.798 0.262195 -4.41322 0
M  V30 5348 N 515.857 1.33968 -0.830081 0
M  V30 5349 C 517.103 1.98357 -0.422191 0
M  V30 5350 C 517.436 1.65633 1.01387 0
M  V30 5351 O 516.711 0.931648 1.70735 0
M  V30 5352 C 516.994 3.54492 -0.633043 0
M  V30 5353 C 516.847 3.96934 -2.11574 0
M  V30 5354 C 518.166 4.40039 -0.0735584 0
M  V30 5355 H 515.285 0.720544 -0.154871 0
M  V30 5356 H 517.927 1.58749 -1.04397 0
M  V30 5357 H 516.077 3.88361 -0.103775 0
M  V30 5358 H 517.749 3.73363 -2.7092 0
M  V30 5359 H 515.992 3.46984 -2.60354 0
M  V30 5360 H 516.663 5.05651 -2.21406 0
M  V30 5361 H 519.139 4.12764 -0.52585 0
M  V30 5362 H 518.015 5.48327 -0.250841 0
M  V30 5363 H 518.276 4.30124 1.02202 0
M  V30 5364 N 517.335 0.585699 1.46312 0
M  V30 5365 C 518.751 0.247607 1.57668 0
M  V30 5366 C 518.951 -1.25007 1.58037 0
M  V30 5367 O 518.007 -2.03196 1.49893 0
M  V30 5368 C 519.32 0.899456 2.86933 0
M  V30 5369 C 520.868 0.873326 3.00569 0
M  V30 5370 C 521.343 1.50477 4.32574 0
M  V30 5371 N 522.834 1.46925 4.3928 0
M  V30 5372 C 523.569 1.92719 5.40044 0
M  V30 5373 N 523.065 2.46499 6.47464 0
M  V30 5374 N 524.858 1.83617 5.31264 0
M  V30 5375 H 517.009 1.55841 1.44317 0
M  V30 5376 H 519.272 0.651564 0.688599 0
M  V30 5377 H 518.978 1.95313 2.92482 0
M  V30 5378 H 518.852 0.409476 3.74971 0
M  V30 5379 H 521.239 -0.171736 2.946 0
M  V30 5380 H 521.32 1.40136 2.13999 0
M  V30 5381 H 520.964 2.54905 4.39302 0
M  V30 5382 H 520.894 0.951944 5.17924 0
M  V30 5383 H 523.385 1.07616 3.62253 0
M  V30 5384 H 523.698 2.79291 7.20567 0
M  V30 5385 H 522.043 2.50526 6.48276 0
M  V30 5386 H 525.234 1.41358 4.46246 0
M  V30 5387 H 525.407 2.19622 6.09648 0
M  V30 5388 N 518.813 -1.54241 0.323641 0
M  V30 5389 C 520.06 -2.0057 -0.27891 0
M  V30 5390 C 520.388 -1.21181 -1.52136 0
M  V30 5391 O 519.643 -0.282043 -1.93657 0
M  V30 5392 C 519.942 -3.5129 -0.658031 0
M  V30 5393 C 519.608 -4.48281 0.485252 0
M  V30 5394 C 518.27 -4.74519 0.799055 0
M  V30 5395 C 520.622 -5.05909 1.25322 0
M  V30 5396 C 517.95 -5.55643 1.88354 0
M  V30 5397 C 520.302 -5.88215 2.32779 0
M  V30 5398 C 518.966 -6.12755 2.64741 0
M  V30 5399 H 518.236 -0.733938 -0.10206 0
M  V30 5400 H 520.883 -1.862 0.447435 0
M  V30 5401 H 519.188 -3.63388 -1.4648 0
M  V30 5402 H 520.885 -3.84578 -1.1358 0
M  V30 5403 H 517.475 -4.27979 0.230593 0
M  V30 5404 H 521.659 -4.8562 1.02404 0
M  V30 5405 H 516.915 -5.72888 2.13564 0
M  V30 5406 H 521.089 -6.31888 2.92729 0
M  V30 5407 H 518.716 -6.75404 3.48904 0
M  V30 5408 N 520.291 -0.0518155 -1.57515 0
M  V30 5409 C 521.537 0.622745 -1.93002 0
M  V30 5410 C 521.87 1.70456 -0.930499 0
M  V30 5411 O 521.145 1.94452 0.0434086 0
M  V30 5412 C 521.428 1.21824 -3.38867 0
M  V30 5413 C 521.281 0.144434 -4.49568 0
M  V30 5414 C 522.6 2.12968 -3.8514 0
M  V30 5415 H 519.719 0.22491 -0.701844 0
M  V30 5416 H 522.361 -0.113711 -1.89659 0
M  V30 5417 H 520.511 1.8459 -3.41846 0
M  V30 5418 H 522.183 -0.48753 -4.58717 0
M  V30 5419 H 520.426 -0.527424 -4.30582 0
M  V30 5420 H 521.097 0.601127 -5.48717 0
M  V30 5421 H 523.573 1.60163 -3.8404 0
M  V30 5422 H 522.449 2.51578 -4.87852 0
M  V30 5423 H 522.71 3.03004 -3.21934 0
M  V30 5424 N 521.769 1.56035 0.221574 0
M  V30 5425 C 523.185 1.49026 0.571271 0
M  V30 5426 C 523.385 0.746912 1.87146 0
M  V30 5427 O 522.441 0.286566 2.50869 0
M  V30 5428 C 523.754 2.93579 0.650522 0
M  V30 5429 C 525.302 3.04099 0.741151 0
M  V30 5430 C 525.777 4.5001 0.851747 0
M  V30 5431 N 527.268 4.54053 0.915968 0
M  V30 5432 C 528.003 5.64232 1.02125 0
M  V30 5433 N 527.499 6.84164 1.09049 0
M  V30 5434 N 529.292 5.52084 1.05639 0
M  V30 5435 H 521.443 2.02791 -0.63162 0
M  V30 5436 H 523.706 0.921736 -0.221602 0
M  V30 5437 H 523.412 3.50912 -0.235253 0
M  V30 5438 H 523.286 3.45476 1.51413 0
M  V30 5439 H 525.673 2.4683 1.61737 0
M  V30 5440 H 525.754 2.55371 -0.148128 0
M  V30 5441 H 525.398 5.07896 -0.0200117 0
M  V30 5442 H 525.328 4.96444 1.75644 0
M  V30 5443 H 527.819 3.67683 0.872782 0
M  V30 5444 H 528.132 7.63883 1.1706 0
M  V30 5445 H 526.477 6.86875 1.05962 0
M  V30 5446 H 529.668 4.57317 0.998953 0
M  V30 5447 H 529.841 6.37983 1.13498 0
M  V30 5448 N 523.247 -0.488276 1.49845 0
M  V30 5449 C 524.496 -1.23826 1.59217 0
M  V30 5450 C 524.809 -1.93439 0.289966 0
M  V30 5451 O 526.015 -2.70229 0.262382 0
M  V30 5452 C 524.471 -2.24902 2.80976 0
M  V30 5453 C 524.079 -1.6117 4.18005 0
M  V30 5454 C 525.823 -3.00648 2.99685 0
M  V30 5455 C 523.73 -2.60431 5.3097 0
M  V30 5456 H 522.66 -0.465858 0.592868 0
M  V30 5457 H 525.311 -0.510645 1.76252 0
M  V30 5458 H 523.693 -3.0088 2.57463 0
M  V30 5459 H 524.867 -0.910968 4.51706 0
M  V30 5460 H 523.182 -0.97767 4.0476 0
M  V30 5461 H 525.779 -3.74903 3.81251 0
M  V30 5462 H 526.122 -3.5902 2.10738 0
M  V30 5463 H 526.655 -2.31784 3.23297 0
M  V30 5464 H 523.394 -2.06823 6.22017 0
M  V30 5465 H 522.914 -3.28707 5.01709 0
M  V30 5466 H 524.593 -3.22606 5.60834 0
M  V30 5467 N 524.725 -1.39134 -0.740242 0
M  V30 5468 C 525.655 -1.40165 -1.86751 0
M  V30 5469 C 526.636 -0.265708 -1.68012 0
M  V30 5470 O 527.821 -0.47076 -1.88408 0
M  V30 5471 C 524.951 -1.2392 -3.2444 0
M  V30 5472 C 523.905 -2.34858 -3.57807 0
M  V30 5473 C 523.231 -2.03707 -4.94376 0
M  V30 5474 C 524.531 -3.77159 -3.61315 0
M  V30 5475 H 526.225 -2.345 -1.86145 0
M  V30 5476 H 523.771 -1.12875 -0.89416 0
M  V30 5477 H 525.724 -1.23263 -4.02969 0
M  V30 5478 H 524.448 -0.26051 -3.25559 0
M  V30 5479 H 523.107 -2.34723 -2.81604 0
M  V30 5480 H 522.755 -1.04289 -4.9207 0
M  V30 5481 H 522.455 -2.78016 -5.17669 0
M  V30 5482 H 523.979 -2.04691 -5.75268 0
M  V30 5483 H 525.393 -3.79252 -4.29931 0
M  V30 5484 H 523.79 -4.50784 -3.96124 0
M  V30 5485 H 524.86 -4.08513 -2.61238 0
M  V30 5486 N 526.204 0.969867 -1.24223 0
M  V30 5487 C 527.62 1.23809 -1.00716 0
M  V30 5488 C 527.82 1.99469 0.285358 0
M  V30 5489 O 526.876 2.31764 1.00207 0
M  V30 5490 C 528.189 2.02734 -2.2208 0
M  V30 5491 C 529.737 2.15834 -2.26681 0
M  V30 5492 C 530.212 2.98154 -3.47661 0
M  V30 5493 N 531.703 3.05737 -3.47964 0
M  V30 5494 C 532.438 3.69785 -4.38231 0
M  V30 5495 N 531.934 4.35569 -5.3875 0
M  V30 5496 N 533.727 3.66775 -4.25949 0
M  V30 5497 H 525.878 0.463294 -2.07286 0
M  V30 5498 H 528.141 0.267348 -0.909521 0
M  V30 5499 H 527.847 1.54524 -3.15935 0
M  V30 5500 H 527.721 3.0347 -2.24021 0
M  V30 5501 H 530.108 2.63248 -1.33359 0
M  V30 5502 H 530.189 1.14453 -2.28767 0
M  V30 5503 H 529.833 2.51435 -4.41297 0
M  V30 5504 H 529.763 3.99729 -3.42818 0
M  V30 5505 H 532.254 2.58941 -2.75242 0
M  V30 5506 H 532.567 4.82251 -6.03866 0
M  V30 5507 H 530.912 4.34244 -5.42639 0
M  V30 5508 H 534.103 3.14558 -3.46657 0
M  V30 5509 H 534.276 4.16407 -4.96497 0
M  V30 5510 N 527.682 1.05563 1.17022 0
M  V30 5511 C 528.931 0.763036 1.8671 0
M  V30 5512 C 529.244 -0.712857 1.82147 0
M  V30 5513 O 530.45 -1.11955 2.47343 0
M  V30 5514 C 528.906 1.31474 3.35026 0
M  V30 5515 C 528.514 2.82034 3.48081 0
M  V30 5516 C 530.258 1.09935 4.10018 0
M  V30 5517 C 528.165 3.30486 4.90442 0
M  V30 5518 H 527.095 0.281747 0.699382 0
M  V30 5519 H 529.746 1.2734 1.32124 0
M  V30 5520 H 528.128 0.732171 3.89173 0
M  V30 5521 H 529.302 3.46178 3.04133 0
M  V30 5522 H 527.617 3.02156 2.86515 0
M  V30 5523 H 530.214 1.43632 5.15048 0
M  V30 5524 H 530.557 0.0373072 4.16283 0
M  V30 5525 H 531.09 1.64732 3.62089 0
M  V30 5526 H 527.829 4.36137 4.89352 0
M  V30 5527 H 527.349 2.71086 5.35044 0
M  V30 5528 H 529.028 3.25382 5.59227 0
M  V30 5529 N 529.16 -1.33526 0.837174 0
M  V30 5530 C 530.407 -1.97837 0.432064 0
M  V30 5531 C 530.735 -1.66324 -1.00829 0
M  V30 5532 O 529.99 -0.93448 -1.71948 0
M  V30 5533 C 530.289 -3.52367 0.597675 0
M  V30 5534 C 529.955 -4.03826 2.00587 0
M  V30 5535 C 528.617 -4.1759 2.39106 0
M  V30 5536 C 530.969 -4.31333 2.92576 0
M  V30 5537 C 528.297 -4.56195 3.68921 0
M  V30 5538 C 530.649 -4.7139 4.2187 0
M  V30 5539 C 529.313 -4.8336 4.60347 0
M  V30 5540 H 528.583 -0.723937 0.158104 0
M  V30 5541 H 531.23 -1.5923 1.06387 0
M  V30 5542 H 529.535 -3.91624 -0.117452 0
M  V30 5543 H 531.232 -4.00126 0.26454 0
M  V30 5544 H 527.822 -3.93586 1.69671 0
M  V30 5545 H 532.006 -4.20224 2.64056 0
M  V30 5546 H 527.262 -4.63655 3.9854 0
M  V30 5547 H 531.436 -4.91631 4.93226 0
M  V30 5548 H 529.063 -5.1303 5.60985 0
M  V30 5549 N 530.638 -0.59345 -1.46 0
M  V30 5550 C 531.585 0.133618 -2.30413 0
M  V30 5551 C 532.555 0.873736 -1.41262 0
M  V30 5552 O 533.74 0.862279 -1.70204 0
M  V30 5553 C 530.88 1.13434 -3.25924 0
M  V30 5554 C 529.993 0.39656 -4.30176 0
M  V30 5555 C 529.128 1.38575 -5.12806 0
M  V30 5556 C 528.167 0.634984 -6.08797 0
M  V30 5557 N 527.304 1.57276 -6.84258 0
M  V30 5558 H 532.144 -0.592252 -2.92055 0
M  V30 5559 H 529.681 -0.303874 -1.43927 0
M  V30 5560 H 531.639 1.72752 -3.79753 0
M  V30 5561 H 530.269 1.82779 -2.66067 0
M  V30 5562 H 529.321 -0.311861 -3.79119 0
M  V30 5563 H 530.633 -0.189869 -4.98438 0
M  V30 5564 H 529.787 2.05141 -5.70966 0
M  V30 5565 H 528.526 2.00611 -4.44529 0
M  V30 5566 H 527.531 -0.0443925 -5.49782 0
M  V30 5567 H 528.756 0.0198678 -6.79097 0
M  V30 5568 H 526.702 2.18103 -6.18682 0
M  V30 5569 H 526.619 1.03941 -7.48821 0
M  V30 5570 H 527.887 2.22844 -7.46968 0
M  V30 5571 N 532.116 1.54067 -0.331816 0
M  V30 5572 C 533.046 2.27569 0.522932 0
M  V30 5573 C 534.027 1.28679 1.11247 0
M  V30 5574 O 535.212 1.57504 1.13605 0
M  V30 5575 C 532.342 3.0397 1.67987 0
M  V30 5576 C 531.296 4.10267 1.21924 0
M  V30 5577 C 530.622 4.74555 2.46377 0
M  V30 5578 C 531.922 5.21268 0.32815 0
M  V30 5579 H 533.616 2.99264 -0.0901977 0
M  V30 5580 H 531.162 1.4393 -0.044821 0
M  V30 5581 H 533.115 3.54123 2.28418 0
M  V30 5582 H 531.839 2.29906 2.31971 0
M  V30 5583 H 530.498 3.61009 0.637809 0
M  V30 5584 H 530.146 3.97098 3.08743 0
M  V30 5585 H 529.846 5.46363 2.16243 0
M  V30 5586 H 531.37 5.27487 3.07555 0
M  V30 5587 H 532.784 5.67128 0.838978 0
M  V30 5588 H 531.181 5.99982 0.119228 0
M  V30 5589 H 532.251 4.80673 -0.638839 0
M  V30 5590 N 533.594 0.0601682 1.57485 0
M  V30 5591 C 534.822 -0.620937 1.97363 0
M  V30 5592 C 535.237 -1.63846 0.938082 0
M  V30 5593 O 534.594 -1.82339 -0.0766578 0
M  V30 5594 C 534.645 -1.29987 3.37321 0
M  V30 5595 O 534.366 -0.323081 4.36907 0
M  V30 5596 C 535.867 -2.06989 3.92008 0
M  V30 5597 H 533.087 -0.169135 0.649334 0
M  V30 5598 H 535.631 0.129132 2.04092 0
M  V30 5599 H 533.786 -2.0011 3.31715 0
M  V30 5600 H 534.2 -0.808754 5.18227 0
M  V30 5601 H 535.674 -2.49901 4.92192 0
M  V30 5602 H 536.151 -2.92173 3.2792 0
M  V30 5603 H 536.757 -1.41757 4.0098 0
M  V30 5604 N 535.072 -1.5615 -0.213296 0
M  V30 5605 C 536.488 -1.49327 -0.56336 0
M  V30 5606 C 536.688 -0.756826 -1.86747 0
M  V30 5607 O 535.744 -0.299866 -2.50713 0
M  V30 5608 C 537.057 -2.9392 -0.634944 0
M  V30 5609 C 538.605 -3.04487 -0.725013 0
M  V30 5610 C 539.08 -4.50456 -0.82787 0
M  V30 5611 N 540.571 -4.54533 -0.891876 0
M  V30 5612 C 541.306 -5.64766 -0.991315 0
M  V30 5613 N 540.802 -6.84733 -1.05419 0
M  V30 5614 N 542.595 -5.52637 -1.02709 0
M  V30 5615 H 534.746 -2.02453 0.642366 0
M  V30 5616 H 537.009 -0.920548 0.226487 0
M  V30 5617 H 536.715 -3.50783 0.253859 0
M  V30 5618 H 536.589 -3.46274 -1.49579 0
M  V30 5619 H 538.976 -2.47685 -1.60425 0
M  V30 5620 H 539.057 -2.55289 0.161669 0
M  V30 5621 H 538.701 -5.07878 0.0469464 0
M  V30 5622 H 538.631 -4.97369 -1.73009 0
M  V30 5623 H 541.122 -3.68141 -0.85327 0
M  V30 5624 H 541.435 -7.64493 -1.13007 0
M  V30 5625 H 539.78 -6.87427 -1.02318 0
M  V30 5626 H 542.971 -4.5784 -0.974687 0
M  V30 5627 H 543.144 -6.38576 -1.10113 0
M  V30 5628 N 536.55 0.480323 -1.50102 0
M  V30 5629 C 537.5 1.57685 -1.6468 0
M  V30 5630 C 538.484 1.52878 -0.5017 0
M  V30 5631 O 539.676 1.60058 -0.755668 0
M  V30 5632 C 536.805 2.96185 -1.73578 0
M  V30 5633 C 535.891 3.0591 -2.93734 0
M  V30 5634 N 536.282 2.85471 -4.1754 0
M  V30 5635 C 534.58 3.37036 -2.92101 0
M  V30 5636 C 535.281 2.99921 -4.9842 0
M  V30 5637 N 534.257 3.29715 -4.32191 0
M  V30 5638 H 538.059 1.40568 -2.58104 0
M  V30 5639 H 535.573 0.686874 -1.47159 0
M  V30 5640 H 537.57 3.75015 -1.82124 0
M  V30 5641 H 536.23 3.14356 -0.813057 0
M  V30 5642 H 537.241 2.61235 -4.47188 0
M  V30 5643 H 533.918 3.61253 -2.09291 0
M  V30 5644 H 535.308 2.88436 -6.06839 0
M  V30 5645 N 538.028 1.39524 0.732853 0
M  V30 5646 C 539.275 1.36865 1.49246 0
M  V30 5647 C 539.603 -0.0347118 1.94469 0
M  V30 5648 O 538.858 -1.01596 1.67262 0
M  V30 5649 C 539.157 2.28916 2.74468 0
M  V30 5650 C 538.823 3.76506 2.481 0
M  V30 5651 C 537.485 4.16721 2.40619 0
M  V30 5652 C 539.837 4.69846 2.25598 0
M  V30 5653 C 537.165 5.48334 2.08679 0
M  V30 5654 C 539.517 6.01739 1.95174 0
M  V30 5655 C 538.181 6.41015 1.86163 0
M  V30 5656 H 537.451 0.500824 0.546129 0
M  V30 5657 H 540.098 1.72047 0.840958 0
M  V30 5658 H 538.403 1.86859 3.4437 0
M  V30 5659 H 540.1 2.2415 3.32502 0
M  V30 5660 H 536.69 3.44635 2.54803 0
M  V30 5661 H 540.874 4.39608 2.30344 0
M  V30 5662 H 536.13 5.77685 2.00226 0
M  V30 5663 H 540.304 6.73591 1.76771 0
M  V30 5664 H 537.931 7.42917 1.61179 0
M  V30 5665 N 539.506 -0.963266 1.24736 0
M  V30 5666 C 540.752 -1.70933 1.09131 0
M  V30 5667 C 541.085 -1.90676 -0.368273 0
M  V30 5668 O 540.36 -1.47147 -1.27193 0
M  V30 5669 C 540.643 -3.09744 1.83658 0
M  V30 5670 C 540.496 -2.97465 3.37394 0
M  V30 5671 C 541.815 -4.09483 1.61282 0
M  V30 5672 H 538.934 -0.620398 0.397838 0
M  V30 5673 H 541.576 -1.12028 1.53459 0
M  V30 5674 H 539.726 -3.60031 1.4598 0
M  V30 5675 H 541.398 -2.54571 3.84696 0
M  V30 5676 H 539.641 -2.33576 3.65547 0
M  V30 5677 H 540.312 -3.95822 3.84745 0
M  V30 5678 H 542.788 -3.68073 1.94066 0
M  V30 5679 H 541.664 -5.04666 2.15878 0
M  V30 5680 H 541.925 -4.38639 0.552102 0
M  V30 5681 N 540.985 -1.06182 -1.16461 0
M  V30 5682 C 542.233 -0.776326 -1.86595 0
M  V30 5683 C 542.554 0.69921 -1.82033 0
M  V30 5684 O 541.824 1.50579 -1.2531 0
M  V30 5685 H 540.404 -0.284184 -0.690832 0
M  V30 5686 H 543.066 -1.34308 -1.41235 0
M  V30 5687 H 542.162 -1.10022 -2.92064 0
M  V30 5688 N 542.463 1.3308 -0.844243 0
M  V30 5689 C 543.393 2.3161 -0.296493 0
M  V30 5690 C 544.374 1.59215 0.598707 0
M  V30 5691 O 545.559 1.87077 0.521134 0
M  V30 5692 C 542.689 3.43313 0.524762 0
M  V30 5693 C 541.643 4.27115 -0.275106 0
M  V30 5694 C 540.969 5.30483 0.670236 0
M  V30 5695 C 542.269 5.00443 -1.49514 0
M  V30 5696 H 543.963 2.77672 -1.11976 0
M  V30 5697 H 541.509 1.33496 -0.539899 0
M  V30 5698 H 543.462 4.11273 0.918298 0
M  V30 5699 H 542.186 2.95952 1.3813 0
M  V30 5700 H 540.845 3.60787 -0.650267 0
M  V30 5701 H 540.493 4.79379 1.52332 0
M  V30 5702 H 540.193 5.87435 0.139123 0
M  V30 5703 H 541.717 6.01308 1.06117 0
M  V30 5704 H 543.131 5.61141 -1.17447 0
M  V30 5705 H 541.528 5.67071 -1.96343 0
M  V30 5706 H 542.598 4.28906 -2.26202 0
M  V30 5707 N 543.941 0.601185 1.45683 0
M  V30 5708 C 545.357 0.264315 1.57396 0
M  V30 5709 C 545.557 -1.23324 1.59353 0
M  V30 5710 O 544.613 -2.01594 1.52039 0
M  V30 5711 C 545.926 0.929839 2.85962 0
M  V30 5712 C 547.474 0.905156 2.99626 0
M  V30 5713 C 547.949 1.55057 4.30954 0
M  V30 5714 N 549.44 1.51576 4.37697 0
M  V30 5715 C 550.175 1.98436 5.37969 0
M  V30 5716 N 549.671 2.53352 6.44813 0
M  V30 5717 N 551.464 1.89242 5.29286 0
M  V30 5718 H 543.615 1.57363 1.42656 0
M  V30 5719 H 545.878 0.658831 0.681649 0
M  V30 5720 H 545.584 1.98404 2.90394 0
M  V30 5721 H 545.458 0.449224 3.74515 0
M  V30 5722 H 547.845 -0.14048 2.94765 0
M  V30 5723 H 547.926 1.42397 2.12501 0
M  V30 5724 H 547.57 2.5955 4.36573 0
M  V30 5725 H 547.5 1.00682 5.16886 0
M  V30 5726 H 549.991 1.11452 3.61091 0
M  V30 5727 H 550.304 2.86918 7.17564 0
M  V30 5728 H 548.649 2.57388 6.45582 0
M  V30 5729 H 551.84 1.46083 4.44722 0
M  V30 5730 H 552.013 2.26075 6.07284 0
M  V30 5731 N 545.419 -1.53889 0.339982 0
M  V30 5732 C 546.665 -2.01152 -0.258003 0
M  V30 5733 C 546.998 -1.22749 -1.50487 0
M  V30 5734 O 546.273 -0.314156 -1.91946 0
M  V30 5735 C 546.556 -3.55468 -0.575717 0
M  V30 5736 C 546.409 -4.44584 0.682996 0
M  V30 5737 C 547.728 -4.1768 -1.38677 0
M  V30 5738 H 544.847 -0.731198 -0.0922992 0
M  V30 5739 H 547.489 -1.84352 0.459814 0
M  V30 5740 H 545.639 -3.69914 -1.18725 0
M  V30 5741 H 547.311 -4.41981 1.32102 0
M  V30 5742 H 545.554 -4.13592 1.3086 0
M  V30 5743 H 546.225 -5.5043 0.416001 0
M  V30 5744 H 548.701 -4.0691 -0.869705 0
M  V30 5745 H 547.577 -5.25734 -1.57783 0
M  V30 5746 H 547.838 -3.72069 -2.38782 0
M  V30 5747 N 546.897 -0.0685191 -1.57451 0
M  V30 5748 C 547.827 0.89747 -2.15564 0
M  V30 5749 C 548.808 1.31266 -1.08181 0
M  V30 5750 O 549.993 1.38429 -1.36202 0
M  V30 5751 C 547.123 2.16623 -2.71463 0
M  V30 5752 C 546.077 1.89054 -3.83982 0
M  V30 5753 C 545.403 3.22532 -4.26471 0
M  V30 5754 C 546.703 1.1984 -5.08366 0
M  V30 5755 H 548.397 0.413373 -2.96533 0
M  V30 5756 H 545.943 0.197391 -1.42641 0
M  V30 5757 H 547.896 2.84614 -3.10761 0
M  V30 5758 H 546.62 2.67269 -1.8771 0
M  V30 5759 H 545.279 1.23469 -3.45183 0
M  V30 5760 H 544.927 3.71013 -3.39644 0
M  V30 5761 H 544.627 3.04879 -5.02317 0
M  V30 5762 H 546.151 3.91727 -4.68383 0
M  V30 5763 H 547.565 1.77896 -5.45001 0
M  V30 5764 H 545.962 1.12456 -5.89469 0
M  V30 5765 H 547.032 0.176996 -4.84577 0
M  V30 5766 N 548.375 1.56261 0.205012 0
M  V30 5767 C 549.623 1.79684 0.925096 0
M  V30 5768 C 549.944 0.63989 1.84202 0
M  V30 5769 O 549.214 -0.342345 1.92885 0
M  V30 5770 H 547.794 0.662774 0.344587 0
M  V30 5771 H 550.456 1.93734 0.212899 0
M  V30 5772 H 549.552 2.72467 1.52211 0
M  V30 5773 N 549.853 -0.472356 1.50355 0
M  V30 5774 C 550.803 -1.56809 1.65514 0
M  V30 5775 C 551.787 -1.5261 0.509801 0
M  V30 5776 O 552.979 -1.59655 0.764145 0
M  V30 5777 C 550.108 -2.9526 1.75146 0
M  V30 5778 C 549.194 -3.04348 2.95353 0
M  V30 5779 N 549.585 -2.83253 4.19048 0
M  V30 5780 C 547.883 -3.35482 2.93884 0
M  V30 5781 C 548.584 -2.97273 5.00003 0
M  V30 5782 N 547.56 -3.27418 4.33934 0
M  V30 5783 H 551.362 -1.39197 2.58846 0
M  V30 5784 H 548.876 -0.67906 1.47521 0
M  V30 5785 H 550.873 -3.74044 1.8411 0
M  V30 5786 H 549.533 -3.1392 0.829717 0
M  V30 5787 H 550.544 -2.5886 4.48567 0
M  V30 5788 H 547.221 -3.60138 2.11204 0
M  V30 5789 H 548.611 -2.85214 6.08361 0
M  V30 5790 N 551.331 -1.39911 -0.725443 0
M  V30 5791 C 552.559 -1.40949 -1.51463 0
M  V30 5792 C 552.974 -0.0065242 -1.88799 0
M  V30 5793 O 552.331 0.967163 -1.54765 0
M  V30 5794 C 552.382 -2.29119 -2.79619 0
M  V30 5795 O 552.103 -3.63952 -2.43866 0
M  V30 5796 C 553.604 -2.38642 -3.73584 0
M  V30 5797 H 550.824 -0.481091 -0.467752 0
M  V30 5798 H 553.368 -1.83843 -0.895651 0
M  V30 5799 H 551.523 -1.89612 -3.37826 0
M  V30 5800 H 551.937 -4.10677 -3.26258 0
M  V30 5801 H 553.411 -3.04563 -4.60375 0
M  V30 5802 H 553.888 -1.40846 -4.16004 0
M  V30 5803 H 554.494 -2.78659 -3.21293 0
M  V30 5804 N 552.809 0.956637 -1.25245 0
M  V30 5805 C 553.739 2.07058 -1.07931 0
M  V30 5806 C 554.72 1.70096 0.0110361 0
M  V30 5807 O 555.905 1.93555 -0.158121 0
M  V30 5808 C 553.035 3.40272 -0.695124 0
M  V30 5809 C 551.989 3.91235 -1.73549 0
M  V30 5810 C 551.315 5.20921 -1.20604 0
M  V30 5811 C 552.615 4.17837 -3.13385 0
M  V30 5812 H 554.309 2.218 -2.01109 0
M  V30 5813 H 551.855 1.06581 -0.968326 0
M  V30 5814 H 553.808 4.1765 -0.560949 0
M  V30 5815 H 552.532 3.25462 0.272355 0
M  V30 5816 H 551.191 3.16025 -1.85807 0
M  V30 5817 H 550.839 5.02479 -0.228846 0
M  V30 5818 H 550.539 5.55987 -1.90136 0
M  V30 5819 H 552.063 6.00897 -1.08421 0
M  V30 5820 H 553.477 4.8588 -3.04292 0
M  V30 5821 H 551.874 4.64154 -3.80369 0
M  V30 5822 H 552.944 3.2419 -3.60595 0
M  V30 5823 N 554.287 1.06798 1.15896 0
M  V30 5824 C 555.703 0.792423 1.38538 0
M  V30 5825 C 555.903 -0.60592 1.92174 0
M  V30 5826 O 554.959 -1.36561 2.12385 0
M  V30 5827 C 556.272 1.86157 2.36149 0
M  V30 5828 C 557.82 1.88567 2.49823 0
M  V30 5829 C 558.295 2.9455 3.5072 0
M  V30 5830 N 559.786 2.93616 3.58251 0
M  V30 5831 C 560.521 3.72267 4.36125 0
M  V30 5832 N 560.017 4.60751 5.17379 0
M  V30 5833 N 561.81 3.60637 4.31158 0
M  V30 5834 H 553.961 1.96993 0.794198 0
M  V30 5835 H 556.224 0.853942 0.411688 0
M  V30 5836 H 555.93 2.86603 2.03843 0
M  V30 5837 H 555.804 1.71692 3.3586 0
M  V30 5838 H 558.191 0.887765 2.8143 0
M  V30 5839 H 558.272 2.0711 1.5013 0
M  V30 5840 H 557.916 3.94537 3.19849 0
M  V30 5841 H 557.846 2.73255 4.50155 0
M  V30 5842 H 560.337 2.29472 3.00252 0
M  V30 5843 H 560.65 5.17408 5.74028 0
M  V30 5844 H 558.995 4.64803 5.16704 0
M  V30 5845 H 562.186 2.90892 3.66742 0
M  V30 5846 H 562.359 4.22176 4.91601 0
M  V30 5847 N 555.766 -1.3263 0.851289 0
M  V30 5848 C 556.729 -2.27247 0.298541 0
M  V30 5849 C 557.729 -1.51467 -0.539847 0
M  V30 5850 O 558.919 -1.7061 -0.351843 0
M  V30 5851 C 556.051 -3.35964 -0.578004 0
M  V30 5852 H 557.244 -2.7765 1.13359 0
M  V30 5853 H 554.797 -1.43245 0.625354 0
M  V30 5854 H 555.532 -2.90823 -1.435 0
M  V30 5855 H 555.317 -3.92094 0.0220539 0
M  V30 5856 H 556.807 -4.06472 -0.957626 0
M  V30 5857 N 557.244 -0.608902 -1.45362 0
M  V30 5858 C 558.469 -0.10921 -2.07112 0
M  V30 5859 C 558.894 1.19779 -1.45033 0
M  V30 5860 O 558.252 1.72961 -0.543527 0
M  V30 5861 C 558.3 0.0155745 -3.60597 0
M  V30 5862 O 557.404 1.06546 -3.98399 0
M  V30 5863 H 556.745 -0.0746619 -0.659789 0
M  V30 5864 H 559.275 -0.839283 -1.86594 0
M  V30 5865 H 559.285 0.213364 -4.07442 0
M  V30 5866 H 557.96 -0.938765 -4.05167 0
M  V30 5867 H 556.537 0.844024 -3.63223 0
M  V30 5868 N 558.722 1.53707 -0.348139 0
M  V30 5869 C 559.95 2.05406 0.248224 0
M  V30 5870 C 560.365 1.22282 1.43849 0
M  V30 5871 O 559.722 0.259244 1.80649 0
M  V30 5872 C 559.773 3.55446 0.658793 0
M  V30 5873 O 559.494 4.35417 -0.484149 0
M  V30 5874 C 560.995 4.23335 1.31539 0
M  V30 5875 H 558.215 0.669344 0.0471075 0
M  V30 5876 H 560.759 1.98257 -0.501456 0
M  V30 5877 H 558.914 3.62803 1.35841 0
M  V30 5878 H 559.328 5.24268 -0.155949 0
M  V30 5879 H 560.802 5.29692 1.55338 0
M  V30 5880 H 561.279 3.75967 2.27036 0
M  V30 5881 H 561.885 4.20184 0.657683 0
M  V30 5882 N 560.2 0.0768682 1.57412 0
M  V30 5883 C 561.148 -0.906229 2.1422 0
M  V30 5884 C 562.142 -1.30477 1.08037 0
M  V30 5885 O 563.348 -1.28143 1.2641 0
M  V30 5886 H 559.723 -0.310207 0.685037 0
M  V30 5887 H 561.694 -0.402228 2.95677 0
M  V30 5888 C 560.443 -2.16245 2.72274 0
M  V30 5889 H 559.766 -1.86463 3.53655 0
M  V30 5890 H 561.206 -2.83134 3.15613 0
M  V30 5891 C 559.665 -2.92437 1.67279 0
M  V30 5892 O 560.195 -3.86322 1.10081 0
M  V30 5893 N 558.401 -2.55637 1.38195 0
M  V30 5894 H 557.948 -1.79363 1.84897 0
M  V30 5895 H 557.906 -3.06919 0.681787 0
M  V30 5896 N 561.678 -1.56367 -0.196722 0
M  V30 5897 C 562.588 -1.97617 -1.2643 0
M  V30 5898 C 563.604 -0.883598 -1.49895 0
M  V30 5899 O 564.78 -1.18921 -1.62541 0
M  V30 5900 C 561.845 -2.30595 -2.58895 0
M  V30 5901 C 560.906 -3.53551 -2.43516 0
M  V30 5902 C 560.139 -3.84946 -3.69665 0
M  V30 5903 O 560.362 -3.17655 -4.73763 0
M  V30 5904 O 559.296 -4.78379 -3.65291 0
M  V30 5905 H 563.122 -2.88648 -0.944233 0
M  V30 5906 H 560.707 -1.43901 -0.401592 0
M  V30 5907 H 562.589 -2.52889 -3.37083 0
M  V30 5908 H 561.264 -1.42732 -2.90533 0
M  V30 5909 H 560.171 -3.36507 -1.63445 0
M  V30 5910 H 561.504 -4.41875 -2.16812 0
M  V30 5911 N 563.156 0.464375 -1.50603 0
M  V30 5912 C 564.403 1.21596 -1.61928 0
M  V30 5913 C 564.731 1.91804 -0.322737 0
M  V30 5914 O 563.986 1.83065 0.691776 0
M  V30 5915 C 564.285 2.278 -2.75394 0
M  V30 5916 C 563.951 1.74797 -4.1564 0
M  V30 5917 C 562.613 1.60063 -4.53799 0
M  V30 5918 C 564.965 1.35548 -5.03266 0
M  V30 5919 C 562.293 1.04514 -5.77316 0
M  V30 5920 C 564.645 0.814381 -6.27336 0
M  V30 5921 C 563.309 0.653726 -6.64291 0
M  V30 5922 H 562.579 0.444951 -0.592536 0
M  V30 5923 H 565.226 0.510964 -1.84557 0
M  V30 5924 H 563.531 3.04233 -2.46879 0
M  V30 5925 H 565.228 2.85723 -2.81359 0
M  V30 5926 H 561.818 1.87234 -3.8554 0
M  V30 5927 H 566.002 1.45763 -4.74412 0
M  V30 5928 H 561.258 0.908186 -6.04617 0
M  V30 5929 H 565.432 0.501626 -6.94591 0
M  V30 5930 H 563.059 0.22114 -7.59878 0
M  V30 5931 N 564.634 1.40294 0.718013 0
M  V30 5932 C 565.564 1.43118 1.84498 0
M  V30 5933 C 566.545 0.292403 1.67568 0
M  V30 5934 O 567.73 0.500675 1.87635 0
M  V30 5935 C 564.86 1.29065 3.22427 0
M  V30 5936 C 563.814 2.40521 3.54025 0
M  V30 5937 C 563.14 2.11546 4.91073 0
M  V30 5938 C 564.44 3.82859 3.55269 0
M  V30 5939 H 566.134 2.37432 1.82391 0
M  V30 5940 H 563.68 1.14283 0.87609 0
M  V30 5941 H 565.633 1.29658 4.00957 0
M  V30 5942 H 564.357 0.312271 3.25104 0
M  V30 5943 H 563.016 2.39173 2.77834 0
M  V30 5944 H 562.664 1.12104 4.90348 0
M  V30 5945 H 562.364 2.86216 5.1318 0
M  V30 5946 H 563.888 2.13817 5.71939 0
M  V30 5947 H 565.302 3.86044 4.23843 0
M  V30 5948 H 563.699 4.57029 3.88902 0
M  V30 5949 H 564.769 4.12617 2.54706 0
M  V30 5950 N 566.112 -0.949982 1.2575 0
M  V30 5951 C 567.042 -2.06483 1.09028 0
M  V30 5952 C 568.023 -1.701 -0.00201532 0
M  V30 5953 O 569.208 -1.93469 0.168383 0
M  V30 5954 C 566.338 -3.39899 0.71316 0
M  V30 5955 C 565.292 -3.90309 1.75621 0
M  V30 5956 C 564.618 -5.20274 1.23365 0
M  V30 5957 C 565.918 -4.16169 3.15596 0
M  V30 5958 H 567.612 -2.20731 2.02283 0
M  V30 5959 H 565.158 -1.06066 0.973964 0
M  V30 5960 H 567.111 -4.17346 0.58309 0
M  V30 5961 H 565.835 -3.25602 -0.255091 0
M  V30 5962 H 564.494 -3.15035 1.8748 0
M  V30 5963 H 564.142 -5.02351 0.255491 0
M  V30 5964 H 563.842 -5.54971 1.93082 0
M  V30 5965 H 565.366 -6.00314 1.11607 0
M  V30 5966 H 566.78 -4.84259 3.06864 0
M  V30 5967 H 565.177 -4.62131 3.82825 0
M  V30 5968 H 566.247 -3.22273 3.6231 0
M  V30 5969 N 567.59 -1.07411 -1.15328 0
M  V30 5970 C 568.52 -0.716472 -2.22236 0
M  V30 5971 C 569.501 0.296373 -1.67498 0
M  V30 5972 O 570.686 0.168989 -1.93463 0
M  V30 5973 C 567.816 -0.114142 -3.47112 0
M  V30 5974 C 566.77 -1.05421 -4.14814 0
M  V30 5975 C 566.096 -0.314604 -5.33774 0
M  V30 5976 C 567.396 -2.38808 -4.64508 0
M  V30 5977 H 569.09 -1.61029 -2.52408 0
M  V30 5978 H 566.636 -0.775702 -1.21321 0
M  V30 5979 H 568.589 0.148001 -4.2114 0
M  V30 5980 H 567.313 0.814755 -3.16274 0
M  V30 5981 H 565.972 -1.30128 -3.42728 0
M  V30 5982 H 565.62 0.617772 -4.99192 0
M  V30 5983 H 565.32 -0.941209 -5.80013 0
M  V30 5984 H 566.844 -0.0602747 -6.1057 0
M  V30 5985 H 568.258 -2.18424 -5.3006 0
M  V30 5986 H 566.655 -2.97069 -5.21412 0
M  V30 5987 H 567.725 -3.01067 -3.80114 0
M  V30 5988 N 569.068 1.32177 -0.85831 0
M  V30 5989 C 570.317 1.96392 -0.459689 0
M  V30 5990 C 570.63 1.68659 0.990632 0
M  V30 5991 O 571.836 2.26641 1.49485 0
M  V30 5992 C 570.292 3.51542 -0.7711 0
M  V30 5993 C 569.9 3.8813 -2.2374 0
M  V30 5994 C 571.644 4.2221 -0.44038 0
M  V30 5995 C 569.551 5.36341 -2.49183 0
M  V30 5996 H 568.481 0.735007 -0.168169 0
M  V30 5997 H 571.132 1.50518 -1.0496 0
M  V30 5998 H 569.514 3.95846 -0.11058 0
M  V30 5999 H 570.688 3.54824 -2.94001 0
M  V30 6000 H 569.003 3.30497 -2.533 0
M  V30 6001 H 571.6 5.31234 -0.607855 0
M  V30 6002 H 571.943 4.11683 0.618291 0
M  V30 6003 H 572.476 3.83502 -1.05695 0
M  V30 6004 H 569.215 5.51892 -3.53689 0
M  V30 6005 H 568.735 5.7104 -1.83504 0
M  V30 6006 H 570.414 6.03466 -2.33318 0
M  V30 6007 N 570.547 0.616602 1.45037 0
M  V30 6008 C 571.796 0.112861 2.01384 0
M  V30 6009 C 572.109 -1.26758 1.48969 0
M  V30 6010 O 573.315 -1.86454 1.9735 0
M  V30 6011 C 571.771 0.151057 3.59583 0
M  V30 6012 C 571.379 1.53191 4.20995 0
M  V30 6013 C 573.123 -0.296974 4.2346 0
M  V30 6014 C 571.03 1.526 5.71373 0
M  V30 6015 H 569.96 0.0384254 0.75302 0
M  V30 6016 H 572.611 0.773262 1.66412 0
M  V30 6017 H 570.993 -0.57617 3.91786 0
M  V30 6018 H 572.167 2.28156 4.00352 0
M  V30 6019 H 570.482 1.92279 3.69348 0
M  V30 6020 H 573.079 -0.320712 5.33737 0
M  V30 6021 H 573.422 -1.32145 3.9477 0
M  V30 6022 H 573.955 0.377279 3.96007 0
M  V30 6023 H 570.694 2.52837 6.04776 0
M  V30 6024 H 570.214 0.819064 5.94181 0
M  V30 6025 H 571.893 1.25357 6.3474 0
M  V30 6026 N 572.025 -1.5352 0.356285 0
M  V30 6027 C 573.272 -2.01117 -0.236303 0
M  V30 6028 C 573.6 -1.24381 -1.49531 0
M  V30 6029 O 572.855 -0.323057 -1.93015 0
M  V30 6030 C 573.154 -3.52607 -0.583369 0
M  V30 6031 C 572.82 -4.47151 0.58023 0
M  V30 6032 C 571.482 -4.72718 0.899528 0
M  V30 6033 C 573.834 -5.03137 1.36024 0
M  V30 6034 C 571.162 -5.51523 2.00098 0
M  V30 6035 C 573.514 -5.83145 2.45204 0
M  V30 6036 C 572.178 -6.07001 2.77679 0
M  V30 6037 H 571.448 -0.735938 -0.0864695 0
M  V30 6038 H 574.095 -1.85209 0.48683 0
M  V30 6039 H 572.4 -3.66413 -1.38739 0
M  V30 6040 H 574.097 -3.86901 -1.05397 0
M  V30 6041 H 570.687 -4.27394 0.321322 0
M  V30 6042 H 574.871 -4.83339 1.12682 0
M  V30 6043 H 570.127 -5.68229 2.25668 0
M  V30 6044 H 574.301 -6.25537 3.06067 0
M  V30 6045 H 571.928 -6.67851 3.63151 0
M  V30 6046 N 573.503 -0.0852151 -1.57369 0
M  V30 6047 C 574.433 0.874556 -2.16503 0
M  V30 6048 C 575.414 1.30111 -1.09568 0
M  V30 6049 O 576.599 1.36977 -1.37662 0
M  V30 6050 C 573.729 2.13731 -2.73745 0
M  V30 6051 C 572.683 1.84971 -3.85966 0
M  V30 6052 C 572.009 3.17991 -4.29867 0
M  V30 6053 C 573.309 1.14442 -5.09608 0
M  V30 6054 H 575.003 0.381899 -2.96954 0
M  V30 6055 H 572.549 0.18225 -1.42842 0
M  V30 6056 H 574.502 2.81302 -3.13763 0
M  V30 6057 H 573.226 2.65263 -1.90534 0
M  V30 6058 H 571.885 1.19801 -3.46473 0
M  V30 6059 H 571.533 3.6739 -3.4356 0
M  V30 6060 H 571.233 2.99534 -5.05523 0
M  V30 6061 H 572.757 3.86737 -4.72511 0
M  V30 6062 H 574.171 1.72105 -5.46857 0
M  V30 6063 H 572.568 1.06197 -5.90629 0
M  V30 6064 H 573.638 0.12559 -4.84737 0
M  V30 6065 N 574.981 1.5647 0.188427 0
M  V30 6066 C 575.944 1.9421 1.21718 0
M  V30 6067 C 576.944 0.823901 1.38089 0
M  V30 6068 O 578.134 1.09122 1.35787 0
M  V30 6069 C 575.266 2.22197 2.58537 0
M  V30 6070 H 576.459 2.86252 0.894418 0
M  V30 6071 H 574.012 1.50263 0.430211 0
M  V30 6072 H 574.747 1.32814 2.95856 0
M  V30 6073 H 574.532 3.03688 2.48025 0
M  V30 6074 H 576.022 2.52376 3.3271 0
M  V30 6075 N 576.459 -0.456382 1.50847 0
M  V30 6076 C 577.389 -1.56025 1.73719 0
M  V30 6077 C 578.37 -1.5967 0.586473 0
M  V30 6078 O 579.555 -1.75702 0.827185 0
M  V30 6079 C 576.685 -2.94251 1.84483 0
M  V30 6080 C 575.639 -3.05471 2.99786 0
M  V30 6081 C 574.965 -4.45489 2.95709 0
M  V30 6082 C 576.265 -2.81318 4.40065 0
M  V30 6083 H 577.959 -1.37138 2.66146 0
M  V30 6084 H 575.505 -0.658299 1.28072 0
M  V30 6085 H 577.458 -3.71417 1.99067 0
M  V30 6086 H 576.182 -3.14328 0.886891 0
M  V30 6087 H 574.841 -2.30741 2.84876 0
M  V30 6088 H 574.489 -4.62505 1.97732 0
M  V30 6089 H 574.189 -4.53929 3.73125 0
M  V30 6090 H 575.713 -5.24655 3.12362 0
M  V30 6091 H 577.127 -3.48226 4.55425 0
M  V30 6092 H 575.524 -3.01188 5.19043 0
M  V30 6093 H 576.594 -1.7706 4.51418 0
M  V30 6094 N 577.937 -1.40673 -0.710563 0
M  V30 6095 C 579.185 -1.38947 -1.46759 0
M  V30 6096 C 579.506 0.00572879 -1.94999 0
M  V30 6097 O 578.776 0.961358 -1.70689 0
M  V30 6098 H 577.356 -0.5114 -0.544499 0
M  V30 6099 H 580.018 -1.75773 -0.842012 0
M  V30 6100 H 579.114 -2.06745 -2.33801 0
M  V30 6101 N 579.415 0.9433 -1.26252 0
M  V30 6102 C 580.661 1.69175 -1.11837 0
M  V30 6103 C 580.994 1.91238 0.337891 0
M  V30 6104 O 580.269 1.49152 1.24836 0
M  V30 6105 C 580.552 3.06783 -1.88563 0
M  V30 6106 C 580.405 2.9206 -3.42083 0
M  V30 6107 C 581.724 4.06865 -1.67776 0
M  V30 6108 H 578.843 0.61399 -0.407658 0
M  V30 6109 H 581.485 1.09572 -1.55222 0
M  V30 6110 H 579.635 3.57663 -1.51689 0
M  V30 6111 H 581.307 2.48419 -3.88698 0
M  V30 6112 H 579.55 2.27731 -3.69217 0
M  V30 6113 H 580.221 3.89651 -3.90994 0
M  V30 6114 H 582.697 3.64939 -1.99897 0
M  V30 6115 H 581.573 5.01168 -2.23879 0
M  V30 6116 H 581.834 4.37705 -0.621816 0
M  V30 6117 N 580.893 1.08022 1.14757 0
M  V30 6118 C 581.823 0.728248 2.21853 0
M  V30 6119 C 582.804 -0.287486 1.67653 0
M  V30 6120 O 583.989 -0.158727 1.9355 0
M  V30 6121 C 581.119 0.132549 3.47047 0
M  V30 6122 C 580.073 1.07619 4.14249 0
M  V30 6123 C 579.399 0.342907 5.33599 0
M  V30 6124 C 580.699 2.41268 4.63235 0
M  V30 6125 H 582.393 1.62365 2.51551 0
M  V30 6126 H 579.939 0.782125 1.20908 0
M  V30 6127 H 581.892 -0.125665 4.21213 0
M  V30 6128 H 580.616 -0.797971 3.16702 0
M  V30 6129 H 579.275 1.31944 3.42033 0
M  V30 6130 H 578.923 -0.59129 4.99513 0
M  V30 6131 H 578.623 0.971955 5.79506 0
M  V30 6132 H 580.147 0.0926538 6.1053 0
M  V30 6133 H 581.561 2.21232 5.28894 0
M  V30 6134 H 579.958 2.9983 5.19829 0
M  V30 6135 H 581.028 3.03079 3.78512 0
M  V30 6136 N 582.371 -1.3172 0.865308 0
M  V30 6137 C 583.62 -1.96145 0.470098 0
M  V30 6138 C 583.933 -1.69182 -0.981674 0
M  V30 6139 O 585.139 -2.27431 -1.48281 0
M  V30 6140 C 583.595 -3.51129 0.789732 0
M  V30 6141 C 583.203 -3.86938 2.25795 0
M  V30 6142 C 584.947 -4.2197 0.462765 0
M  V30 6143 C 582.854 -5.35012 2.52024 0
M  V30 6144 H 581.784 -0.734105 0.172065 0
M  V30 6145 H 584.435 -1.49959 1.05757 0
M  V30 6146 H 582.817 -3.95781 0.131571 0
M  V30 6147 H 583.991 -3.5326 2.95879 0
M  V30 6148 H 582.306 -3.29149 2.55049 0
M  V30 6149 H 584.903 -5.30904 0.636019 0
M  V30 6150 H 585.246 -4.12005 -0.59645 0
M  V30 6151 H 585.779 -3.82936 1.07727 0
M  V30 6152 H 582.518 -5.50008 3.56611 0
M  V30 6153 H 582.038 -5.70058 1.8653 0
M  V30 6154 H 583.717 -6.0222 2.36515 0
M  V30 6155 N 583.85 -0.624285 -1.44708 0
M  V30 6156 C 585.096 -0.126051 -2.02107 0
M  V30 6157 C 585.425 1.2496 -1.49048 0
M  V30 6158 O 584.68 1.84163 -0.662005 0
M  V30 6159 C 584.979 -0.0546353 -3.57358 0
M  V30 6160 C 584.644 -1.36815 -4.29642 0
M  V30 6161 C 583.307 -1.72792 -4.49106 0
M  V30 6162 C 585.659 -2.23549 -4.70824 0
M  V30 6163 C 582.986 -2.95222 -5.07012 0
M  V30 6164 C 585.339 -3.45243 -5.30085 0
M  V30 6165 C 584.003 -3.81452 -5.47769 0
M  V30 6166 H 583.273 -0.0461252 -0.739563 0
M  V30 6167 H 585.92 -0.809236 -1.73562 0
M  V30 6168 H 584.225 0.711891 -3.85278 0
M  V30 6169 H 585.922 0.347282 -3.99493 0
M  V30 6170 H 582.512 -1.07817 -4.14817 0
M  V30 6171 H 586.696 -1.9705 -4.55505 0
M  V30 6172 H 581.952 -3.23361 -5.18891 0
M  V30 6173 H 586.125 -4.12689 -5.60946 0
M  V30 6174 H 583.753 -4.76403 -5.92405 0
M  V30 6175 N 585.328 1.53329 -0.364422 0
M  V30 6176 C 586.291 2.24323 0.470292 0
M  V30 6177 C 587.291 1.25068 1.01067 0
M  V30 6178 O 588.481 1.49354 0.896605 0
M  V30 6179 C 585.613 2.97908 1.65722 0
M  V30 6180 H 586.806 2.9952 -0.150917 0
M  V30 6181 H 584.359 1.55868 -0.116092 0
M  V30 6182 H 585.094 2.2695 2.31655 0
M  V30 6183 H 584.879 3.70732 1.27671 0
M  V30 6184 H 586.369 3.5188 2.24878 0
M  V30 6185 N 586.806 0.0935595 1.57322 0
M  V30 6186 C 588.034 -0.578934 1.98635 0
M  V30 6187 C 588.449 -1.61819 0.972626 0
M  V30 6188 O 587.806 -1.82461 -0.0379638 0
M  V30 6189 C 587.857 -1.22802 3.40003 0
M  V30 6190 O 587.578 -0.230334 4.37494 0
M  V30 6191 C 589.079 -1.98627 3.96311 0
M  V30 6192 H 586.299 -0.155324 0.652775 0
M  V30 6193 H 588.843 0.172393 2.03772 0
M  V30 6194 H 586.998 -1.93029 3.35885 0
M  V30 6195 H 587.412 -0.698649 5.19826 0
M  V30 6196 H 588.886 -2.39405 4.97382 0
M  V30 6197 H 589.363 -2.85151 3.34044 0
M  V30 6198 H 589.969 -1.3322 4.03897 0
M  V30 6199 N 588.284 -1.56567 -0.180126 0
M  V30 6200 C 589.217 -1.90813 -1.25163 0
M  V30 6201 C 590.195 -0.7699 -1.43218 0
M  V30 6202 O 591.379 -1.02236 -1.58367 0
M  V30 6203 C 588.506 -2.15138 -2.61597 0
M  V30 6204 C 587.552 -3.37834 -2.60328 0
M  V30 6205 S 588.385 -4.92486 -2.1028 0
M  V30 6206 C 589.541 -5.19896 -3.48509 0
M  V30 6207 H 589.774 -2.81398 -0.959283 0
M  V30 6208 H 587.307 -1.49541 -0.3843 0
M  V30 6209 H 589.265 -2.29835 -3.40127 0
M  V30 6210 H 587.926 -1.25276 -2.88036 0
M  V30 6211 H 587.119 -3.52027 -3.60684 0
M  V30 6212 H 586.721 -3.22208 -1.8989 0
M  V30 6213 H 589.013 -5.11334 -4.44459 0
M  V30 6214 H 589.956 -6.21571 -3.39198 0
M  V30 6215 H 590.364 -4.47489 -3.44114 0
M  V30 6216 N 589.762 0.448376 -1.51087 0
M  V30 6217 C 591.011 1.19561 -1.62444 0
M  V30 6218 C 591.324 1.92602 -0.341151 0
M  V30 6219 O 592.53 2.69439 -0.333936 0
M  V30 6220 C 590.986 2.17373 -2.8684 0
M  V30 6221 C 590.594 1.5003 -4.22131 0
M  V30 6222 C 592.338 2.92597 -3.0755 0
M  V30 6223 C 590.245 2.46262 -5.37689 0
M  V30 6224 H 589.175 0.449975 -0.605011 0
M  V30 6225 H 591.826 0.463735 -1.77544 0
M  V30 6226 H 590.208 2.93948 -2.65349 0
M  V30 6227 H 591.382 0.790886 -4.53962 0
M  V30 6228 H 589.697 0.870011 -4.0721 0
M  V30 6229 H 592.294 3.64663 -3.91056 0
M  V30 6230 H 592.637 3.53306 -2.20183 0
M  V30 6231 H 593.17 2.23131 -3.29329 0
M  V30 6232 H 589.909 1.90258 -6.27281 0
M  V30 6233 H 589.429 3.15289 -5.10248 0
M  V30 6234 H 591.108 3.07623 -5.6919 0
M  V30 6235 N 591.24 1.41047 0.703093 0
M  V30 6236 C 592.47 1.43133 1.48985 0
M  V30 6237 C 592.878 0.0328537 1.89171 0
M  V30 6238 O 592.221 -0.956469 1.56835 0
M  V30 6239 C 592.283 2.26991 2.78775 0
M  V30 6240 C 591.947 3.7525 2.60837 0
M  V30 6241 C 592.944 4.67591 2.27276 0
M  V30 6242 C 590.629 4.19208 2.76712 0
M  V30 6243 C 592.623 6.01877 2.09817 0
M  V30 6244 C 590.31 5.53561 2.5887 0
M  V30 6245 C 591.308 6.4471 2.25472 0
M  V30 6246 O 590.996 7.76584 2.07778 0
M  V30 6247 H 590.728 0.489788 0.465922 0
M  V30 6248 H 593.282 1.85886 0.873822 0
M  V30 6249 H 591.512 1.79038 3.42757 0
M  V30 6250 H 593.201 2.20867 3.40547 0
M  V30 6251 H 593.967 4.34923 2.14633 0
M  V30 6252 H 589.846 3.48572 3.01693 0
M  V30 6253 H 593.39 6.72986 1.83671 0
M  V30 6254 H 589.287 5.85811 2.71102 0
M  V30 6255 H 590.055 7.87649 2.22601 0
M  V30 6256 N 592.718 -0.936591 1.26751 0
M  V30 6257 C 593.948 -1.71509 1.15188 0
M  V30 6258 C 594.356 -1.86885 -0.295037 0
M  V30 6259 O 593.699 -1.37915 -1.21347 0
M  V30 6260 C 593.761 -3.13853 1.75318 0
M  V30 6261 C 593.425 -3.21845 3.24445 0
M  V30 6262 C 594.422 -3.04771 4.21201 0
M  V30 6263 C 592.107 -3.45088 3.64992 0
M  V30 6264 C 594.101 -3.10816 5.56482 0
M  V30 6265 C 591.788 -3.50767 5.00405 0
M  V30 6266 C 592.786 -3.33648 5.9596 0
M  V30 6267 O 592.474 -3.39045 7.28906 0
M  V30 6268 H 592.206 -0.543658 0.401761 0
M  V30 6269 H 594.76 -1.18234 1.67958 0
M  V30 6270 H 592.99 -3.6857 1.17016 0
M  V30 6271 H 594.679 -3.73634 1.58596 0
M  V30 6272 H 595.445 -2.86665 3.91214 0
M  V30 6273 H 591.324 -3.57467 2.91098 0
M  V30 6274 H 594.868 -2.97372 6.31043 0
M  V30 6275 H 590.765 -3.68396 5.30052 0
M  V30 6276 H 591.533 -3.55558 7.37238 0
M  V30 6277 N 594.196 -1.08629 -1.14182 0
M  V30 6278 C 595.159 -0.722027 -2.1753 0
M  V30 6279 C 596.159 0.244305 -1.58933 0
M  V30 6280 O 597.349 0.0235545 -1.74184 0
M  V30 6281 C 594.481 -0.0663966 -3.40835 0
M  V30 6282 H 595.674 -1.63719 -2.51269 0
M  V30 6283 H 593.227 -0.884442 -1.28869 0
M  V30 6284 H 593.962 0.860389 -3.12678 0
M  V30 6285 H 593.747 -0.761598 -3.84632 0
M  V30 6286 H 595.237 0.173346 -4.1724 0
M  V30 6287 N 595.674 1.31259 -0.872281 0
M  V30 6288 C 596.584 2.32221 -0.333255 0
M  V30 6289 C 597.6 1.6481 0.558013 0
M  V30 6290 O 598.776 1.96212 0.454175 0
M  V30 6291 C 595.841 3.43708 0.454479 0
M  V30 6292 C 594.902 4.26774 -0.465024 0
M  V30 6293 C 594.135 5.32937 0.28521 0
M  V30 6294 O 594.358 5.49968 1.513 0
M  V30 6295 O 593.292 6.00834 -0.358126 0
M  V30 6296 H 597.118 2.80252 -1.17016 0
M  V30 6297 H 594.703 1.352 -0.635724 0
M  V30 6298 H 596.585 4.11656 0.900963 0
M  V30 6299 H 595.26 2.97836 1.26789 0
M  V30 6300 H 594.167 3.61571 -0.960055 0
M  V30 6301 H 595.5 4.76217 -1.2441 0
M  V30 6302 N 597.152 0.631951 1.44375 0
M  V30 6303 C 598.568 0.297642 1.568 0
M  V30 6304 C 598.768 -1.19916 1.61934 0
M  V30 6305 O 597.824 -1.98324 1.56281 0
M  V30 6306 C 599.137 0.990286 2.83926 0
M  V30 6307 C 600.685 0.968507 2.97639 0
M  V30 6308 C 601.16 1.64163 4.27568 0
M  V30 6309 N 602.651 1.60826 4.34384 0
M  V30 6310 C 603.386 2.09802 5.33639 0
M  V30 6311 N 602.882 2.66973 6.39294 0
M  V30 6312 N 604.675 2.00426 5.25153 0
M  V30 6313 H 596.826 1.60353 1.39286 0
M  V30 6314 H 599.089 0.673142 0.667521 0
M  V30 6315 H 598.795 2.04519 2.8612 0
M  V30 6316 H 598.669 0.528563 3.73478 0
M  V30 6317 H 601.056 -0.0779247 2.94997 0
M  V30 6318 H 601.137 1.46873 2.09433 0
M  V30 6319 H 600.781 2.68752 4.3097 0
M  V30 6320 H 600.711 1.11624 5.14634 0
M  V30 6321 H 603.202 1.19087 3.58646 0
M  V30 6322 H 603.515 3.02074 7.11316 0
M  V30 6323 H 601.86 2.71024 6.39977 0
M  V30 6324 H 605.051 1.55483 4.41523 0
M  V30 6325 H 605.224 2.38906 6.02352 0
M  V30 6326 N 598.631 -1.53133 0.372548 0
M  V30 6327 C 599.877 -2.01654 -0.215277 0
M  V30 6328 C 600.21 -1.25914 -1.47849 0
M  V30 6329 O 599.485 -0.3548 -1.91237 0
M  V30 6330 C 599.768 -3.56609 -0.500187 0
M  V30 6331 C 599.621 -4.43036 0.777145 0
M  V30 6332 C 600.94 -4.20528 -1.29786 0
M  V30 6333 H 598.059 -0.732991 -0.0767686 0
M  V30 6334 H 600.701 -1.83335 0.498814 0
M  V30 6335 H 598.851 -3.7235 -1.10852 0
M  V30 6336 H 600.523 -4.39079 1.41447 0
M  V30 6337 H 598.766 -4.10723 1.39604 0
M  V30 6338 H 599.437 -5.49424 0.532662 0
M  V30 6339 H 601.913 -4.08663 -0.783198 0
M  V30 6340 H 600.789 -5.28962 -1.46596 0
M  V30 6341 H 601.05 -3.77051 -2.30836 0
M  V30 6342 N 600.109 -0.101901 -1.5727 0
M  V30 6343 C 601.357 0.559091 -1.94213 0
M  V30 6344 C 601.678 1.68297 -0.984948 0
M  V30 6345 O 600.948 1.95863 -0.0381975 0
M  V30 6346 H 599.528 0.20952 -0.717015 0
M  V30 6347 H 602.19 -0.166831 -1.94185 0
M  V30 6348 H 601.286 0.96485 -2.96811 0
M  V30 6349 N 601.587 1.56661 0.17182 0
M  V30 6350 C 602.55 1.9549 1.19651 0
M  V30 6351 C 603.55 0.838501 1.37207 0
M  V30 6352 O 604.74 1.10556 1.34622 0
M  V30 6353 C 601.872 2.24927 2.56166 0
M  V30 6354 H 603.065 2.87184 0.864007 0
M  V30 6355 H 600.618 1.50711 0.41425 0
M  V30 6356 H 601.353 1.35944 2.94431 0
M  V30 6357 H 601.138 3.06301 2.4479 0
M  V30 6358 H 602.628 2.55891 3.30014 0
M  V30 6359 N 603.065 -0.440357 1.51323 0
M  V30 6360 C 603.997 -1.55254 1.68609 0
M  V30 6361 C 605.01 -1.52614 0.566812 0
M  V30 6362 O 606.199 -1.57445 0.841032 0
M  V30 6363 C 603.299 -2.94169 1.68279 0
M  V30 6364 C 602.472 -3.21346 2.96742 0
M  V30 6365 C 601.531 -4.3997 2.8864 0
M  V30 6366 O 600.557 -4.38771 3.62586 0
M  V30 6367 N 601.759 -5.43367 2.04285 0
M  V30 6368 H 604.524 -1.40831 2.6455 0
M  V30 6369 H 602.085 -0.629251 1.49171 0
M  V30 6370 H 604.077 -3.71543 1.60431 0
M  V30 6371 H 602.647 -3.02205 0.799441 0
M  V30 6372 H 601.867 -2.32299 3.18482 0
M  V30 6373 H 603.155 -3.3633 3.81785 0
M  V30 6374 H 602.553 -5.47176 1.43578 0
M  V30 6375 H 601.11 -6.19605 2.02318 0
M  V30 6376 N 604.543 -1.41418 -0.695603 0
M  V30 6377 C 605.954 -1.36335 -1.27552 0
M  V30 6378 C 606.305 -0.0464336 -1.96145 0
M  V30 6379 O 605.43 0.855304 -1.9878 0
M  V30 6380 C 606.025 -2.46941 -2.3196 0
M  V30 6381 C 604.584 -2.45256 -2.85529 0
M  V30 6382 C 603.731 -2.2679 -1.59566 0
M  V30 6383 H 606.682 -1.50934 -0.490362 0
M  V30 6384 H 606.703 -2.15997 -3.1325 0
M  V30 6385 H 606.215 -3.42775 -1.82008 0
M  V30 6386 H 604.316 -1.53179 -3.39657 0
M  V30 6387 H 604.429 -3.41565 -3.35961 0
M  V30 6388 H 602.793 -1.74667 -1.85374 0
M  V30 6389 H 603.576 -3.24651 -1.1161 0
M  V30 6390 N 606.021 0.929856 -1.27246 0
M  V30 6391 C 606.969 2.05151 -1.09616 0
M  V30 6392 C 607.963 1.69388 -0.0198617 0
M  V30 6393 O 609.169 1.79124 -0.177417 0
M  V30 6394 H 605.544 0.671909 -0.337701 0
M  V30 6395 H 607.515 2.17168 -2.04648 0
M  V30 6396 C 606.264 3.3934 -0.757851 0
M  V30 6397 H 605.587 3.67343 -1.57795 0
M  V30 6398 H 607.027 4.18603 -0.674358 0
M  V30 6399 C 605.486 3.32582 0.537658 0
M  V30 6400 O 606.016 3.69633 1.57271 0
M  V30 6401 N 604.222 2.8568 0.532478 0
M  V30 6402 H 603.769 2.55725 -0.310233 0
M  V30 6403 H 603.727 2.81541 1.39936 0
M  V30 6404 N 607.499 1.09233 1.13605 0
M  V30 6405 C 608.776 0.739633 1.81077 0
M  V30 6406 C 609.156 -0.775595 1.96336 0
M  V30 6407 O 608.504 -1.69726 1.52988 0
M  V30 6408 C 608.714 1.47636 3.16235 0
M  V30 6409 C 610.062 1.64087 3.91613 0
M  V30 6410 O 611.086 1.43871 3.25852 0
M  V30 6411 O 609.945 1.97511 5.0956 0
M  V30 6412 H 607.039 0.265464 0.783236 0
M  V30 6413 H 609.585 1.19441 1.20549 0
M  V30 6414 H 608.357 2.50818 3.00344 0
M  V30 6415 H 607.98 1.01362 3.84462 0
M  V30 6416 N 608.977 -1.30795 0.87923 0
M  V30 6417 C 610.388 -1.78535 0.546093 0
M  V30 6418 C 610.739 -1.72354 -0.937467 0
M  V30 6419 O 609.864 -1.2969 -1.73233 0
M  V30 6420 C 610.459 -3.24181 0.9845 0
M  V30 6421 C 609.018 -3.69779 0.702871 0
M  V30 6422 C 608.165 -2.51377 1.17068 0
M  V30 6423 H 611.116 -1.17746 1.06403 0
M  V30 6424 H 611.137 -3.79227 0.311045 0
M  V30 6425 H 610.649 -3.28647 2.06429 0
M  V30 6426 H 608.75 -3.70806 -0.365166 0
M  V30 6427 H 608.863 -4.61507 1.28639 0
M  V30 6428 H 607.227 -2.47768 0.590172 0
M  V30 6429 H 608.01 -2.58584 2.25808 0
M  V30 6430 N 610.455 -0.639598 -1.44038 0
M  V30 6431 C 611.68 -0.153117 -2.06834 0
M  V30 6432 C 612.105 1.16676 -1.47541 0
M  V30 6433 O 611.463 1.71769 -0.580093 0
M  V30 6434 C 611.511 -0.0609169 -3.60549 0
M  V30 6435 O 610.615 0.98071 -4.00569 0
M  V30 6436 H 609.956 -0.0886402 -0.658057 0
M  V30 6437 H 612.486 -0.878674 -1.84771 0
M  V30 6438 H 612.496 0.126892 -4.07803 0
M  V30 6439 H 611.171 -1.0245 -4.03084 0
M  V30 6440 H 609.748 0.766789 -3.64931 0
M  V30 6441 N 611.933 1.52934 -0.380664 0
M  V30 6442 C 612.896 2.24809 0.446473 0
M  V30 6443 C 613.896 1.26133 0.997347 0
M  V30 6444 O 615.086 1.50297 0.880714 0
M  V30 6445 C 612.218 2.99649 1.62553 0
M  V30 6446 H 613.411 2.99343 -0.182677 0
M  V30 6447 H 610.964 1.55736 -0.132618 0
M  V30 6448 H 611.699 2.29395 2.29235 0
M  V30 6449 H 611.484 3.72066 1.23732 0
M  V30 6450 H 612.974 3.54246 2.21133 0
M  V30 6451 N 613.412 0.11024 1.57214 0
M  V30 6452 C 614.637 -0.561179 1.99664 0
M  V30 6453 C 615.062 -1.59985 0.989266 0
M  V30 6454 O 614.42 -1.81255 -0.0402399 0
M  V30 6455 C 614.468 -1.17189 3.41027 0
M  V30 6456 O 613.572 -2.28755 3.4314 0
M  V30 6457 H 612.913 -0.14101 0.648855 0
M  V30 6458 H 615.443 0.196128 2.03658 0
M  V30 6459 H 615.453 -1.50954 3.79047 0
M  V30 6460 H 614.128 -0.411041 4.13864 0
M  V30 6461 H 612.705 -1.96495 3.16929 0
M  V30 6462 N 614.89 -1.56749 -0.16351 0
M  V30 6463 C 615.8 -2.00255 -1.2221 0
M  V30 6464 C 616.816 -0.915194 -1.47987 0
M  V30 6465 O 617.992 -1.22342 -1.59982 0
M  V30 6466 C 615.057 -2.36035 -2.53946 0
M  V30 6467 C 614.118 -3.58637 -2.35962 0
M  V30 6468 C 613.351 -3.92701 -3.61416 0
M  V30 6469 O 613.574 -3.27632 -4.66919 0
M  V30 6470 O 612.508 -4.86019 -3.55062 0
M  V30 6471 H 616.334 -2.90586 -0.882794 0
M  V30 6472 H 613.919 -1.44721 -0.370978 0
M  V30 6473 H 615.801 -2.59982 -3.31643 0
M  V30 6474 H 614.476 -1.48863 -2.8744 0
M  V30 6475 H 613.383 -3.39898 -1.5627 0
M  V30 6476 H 614.716 -4.46374 -2.0739 0
M  V30 6477 N 616.368 0.432326 -1.51554 0
M  V30 6478 C 617.318 1.52366 -1.69614 0
M  V30 6479 C 618.302 1.51205 -0.550083 0
M  V30 6480 O 619.494 1.57573 -0.806206 0
M  V30 6481 C 616.623 2.90513 -1.82913 0
M  V30 6482 C 615.709 2.9641 -3.03318 0
M  V30 6483 N 616.1 2.72043 -4.26411 0
M  V30 6484 C 614.398 3.27572 -3.02675 0
M  V30 6485 C 615.099 2.83912 -5.07709 0
M  V30 6486 N 614.075 3.15798 -4.42462 0
M  V30 6487 H 617.877 1.32285 -2.62446 0
M  V30 6488 H 615.391 0.639708 -1.4927 0
M  V30 6489 H 617.388 3.69032 -1.93962 0
M  V30 6490 H 616.048 3.1161 -0.912655 0
M  V30 6491 H 617.059 2.46876 -4.55272 0
M  V30 6492 H 613.736 3.54411 -2.20678 0
M  V30 6493 H 615.126 2.68984 -6.15709 0
M  V30 6494 N 617.846 1.41785 0.688094 0
M  V30 6495 C 619.074 1.44915 1.47673 0
M  V30 6496 C 619.489 0.0565786 1.88715 0
M  V30 6497 O 618.846 -0.92579 1.57275 0
M  V30 6498 C 618.897 2.36452 2.73446 0
M  V30 6499 O 618.618 3.7029 2.34131 0
M  V30 6500 C 620.119 2.48463 3.67125 0
M  V30 6501 H 617.339 0.493324 0.454832 0
M  V30 6502 H 619.883 1.86153 0.846594 0
M  V30 6503 H 618.038 1.98502 3.3268 0
M  V30 6504 H 618.452 4.19183 3.15255 0
M  V30 6505 H 619.926 3.16662 4.52138 0
M  V30 6506 H 620.403 1.51826 4.12123 0
M  V30 6507 H 621.009 2.8708 3.13792 0
M  V30 6508 N 619.324 -0.923095 1.27737 0
M  V30 6509 C 620.256 -2.02871 1.06658 0
M  V30 6510 C 621.269 -1.62786 0.0212095 0
M  V30 6511 O 622.458 -1.76548 0.263267 0
M  V30 6512 C 619.558 -3.33603 0.59682 0
M  V30 6513 C 618.731 -4.02354 1.71551 0
M  V30 6514 C 617.79 -5.11364 1.24071 0
M  V30 6515 O 616.816 -5.35075 1.94123 0
M  V30 6516 N 618.018 -5.80416 0.0988444 0
M  V30 6517 H 620.783 -2.21515 2.01869 0
M  V30 6518 H 618.344 -1.09378 1.19365 0
M  V30 6519 H 620.336 -4.03845 0.262984 0
M  V30 6520 H 618.906 -3.11499 -0.262187 0
M  V30 6521 H 618.126 -3.25786 2.2194 0
M  V30 6522 H 619.414 -4.45035 2.46619 0
M  V30 6523 H 618.812 -5.63611 -0.485743 0
M  V30 6524 H 617.369 -6.51563 -0.17578 0
M  V30 6525 N 620.802 -1.09834 -1.13024 0
M  V30 6526 C 622.049 -0.83695 -1.84395 0
M  V30 6527 C 622.377 0.637463 -1.83757 0
M  V30 6528 O 621.632 1.48554 -1.27398 0
M  V30 6529 C 621.931 -1.32263 -3.32026 0
M  V30 6530 C 621.597 -2.80739 -3.52841 0
M  V30 6531 C 620.259 -3.21286 -3.5823 0
M  V30 6532 C 622.611 -3.76449 -3.60466 0
M  V30 6533 C 619.939 -4.56308 -3.68781 0
M  V30 6534 C 622.291 -5.11266 -3.72546 0
M  V30 6535 C 620.955 -5.51397 -3.76189 0
M  V30 6536 H 620.225 -0.306262 -0.674748 0
M  V30 6537 H 622.872 -1.37385 -1.33408 0
M  V30 6538 H 621.177 -0.705618 -3.85394 0
M  V30 6539 H 622.874 -1.09695 -3.85705 0
M  V30 6540 H 619.464 -2.48363 -3.49305 0
M  V30 6541 H 623.648 -3.46234 -3.55578 0
M  V30 6542 H 618.904 -4.86832 -3.69871 0
M  V30 6543 H 623.078 -5.85279 -3.77388 0
M  V30 6544 H 620.705 -6.56017 -3.84117 0
M  V30 6545 N 622.28 1.30327 -0.886154 0
M  V30 6546 C 623.227 2.28099 -0.352069 0
M  V30 6547 C 624.197 1.56433 0.558397 0
M  V30 6548 O 625.382 1.84492 0.486561 0
M  V30 6549 C 622.522 3.42456 0.426346 0
M  V30 6550 C 621.635 4.28938 -0.513472 0
M  V30 6551 C 620.77 5.30458 0.280657 0
M  V30 6552 C 619.809 6.0859 -0.654556 0
M  V30 6553 N 618.946 7.02022 0.104322 0
M  V30 6554 H 623.786 2.73166 -1.19097 0
M  V30 6555 H 621.323 1.34367 -0.598662 0
M  V30 6556 H 623.281 4.07518 0.893587 0
M  V30 6557 H 621.911 2.98455 1.22981 0
M  V30 6558 H 620.963 3.64173 -1.09921 0
M  V30 6559 H 622.275 4.83399 -1.2299 0
M  V30 6560 H 621.429 6.01273 0.8097 0
M  V30 6561 H 620.168 4.76693 1.03029 0
M  V30 6562 H 619.173 5.36651 -1.19522 0
M  V30 6563 H 620.398 6.64443 -1.4033 0
M  V30 6564 H 618.344 6.50645 0.836472 0
M  V30 6565 H 618.261 7.53979 -0.552453 0
M  V30 6566 H 619.529 7.77077 0.614069 0
M  V30 6567 N 623.758 0.647228 1.43697 0
M  V30 6568 C 624.706 -0.0600105 2.32523 0
M  V30 6569 C 625.7 -0.819277 1.48271 0
M  V30 6570 O 626.906 -0.730356 1.64517 0
M  V30 6571 H 623.281 -0.0381872 0.75103 0
M  V30 6572 H 625.252 0.706978 2.89904 0
M  V30 6573 C 624.001 -1.0169 3.32497 0
M  V30 6574 H 623.324 -0.442083 3.97348 0
M  V30 6575 H 624.764 -1.48095 3.97296 0
M  V30 6576 C 623.223 -2.11002 2.6264 0
M  V30 6577 O 623.753 -3.19302 2.4374 0
M  V30 6578 N 621.959 -1.87388 2.22113 0
M  V30 6579 H 621.506 -0.993174 2.37684 0
M  V30 6580 H 621.464 -2.60723 1.75701 0
M  V30 6581 N 625.236 -1.5273 0.388769 0
M  V30 6582 C 626.485 -2.00757 -0.194833 0
M  V30 6583 C 626.798 -1.27951 -1.47946 0
M  V30 6584 O 628.004 -1.66686 -2.14308 0
M  V30 6585 C 626.46 -3.57695 -0.397762 0
M  V30 6586 C 626.068 -4.394 0.873583 0
M  V30 6587 C 627.812 -4.14012 -0.937759 0
M  V30 6588 C 625.719 -5.87938 0.638962 0
M  V30 6589 H 624.649 -0.750101 -0.0765845 0
M  V30 6590 H 627.3 -1.76239 0.511086 0
M  V30 6591 H 625.682 -3.7846 -1.16552 0
M  V30 6592 H 626.856 -4.30403 1.64591 0
M  V30 6593 H 625.171 -3.94301 1.33849 0
M  V30 6594 H 627.768 -5.22645 -1.12899 0
M  V30 6595 H 628.111 -3.7007 -1.90666 0
M  V30 6596 H 628.644 -3.97137 -0.229588 0
M  V30 6597 H 625.383 -6.36202 1.57885 0
M  V30 6598 H 624.903 -5.99726 -0.094443 0
M  V30 6599 H 626.582 -6.46423 0.273299 0
M  V30 6600 N 626.714 -0.118576 -1.57153 0
M  V30 6601 C 628.125 0.40687 -1.82213 0
M  V30 6602 C 628.476 1.66636 -1.03571 0
M  V30 6603 O 627.601 2.14682 -0.272171 0
M  V30 6604 C 628.196 0.744949 -3.30509 0
M  V30 6605 C 626.755 1.21503 -3.5625 0
M  V30 6606 C 625.902 0.223511 -2.76398 0
M  V30 6607 H 628.853 -0.343712 -1.54933 0
M  V30 6608 H 628.874 1.6024 -3.45114 0
M  V30 6609 H 628.386 -0.171911 -3.87719 0
M  V30 6610 H 626.487 2.1488 -3.04396 0
M  V30 6611 H 626.6 1.16065 -4.64829 0
M  V30 6612 H 624.964 0.71046 -2.44591 0
M  V30 6613 H 625.747 -0.686439 -3.36367 0
M  V30 6614 N 628.193 1.56834 0.155195 0
M  V30 6615 C 629.442 1.82088 0.867567 0
M  V30 6616 C 629.755 0.69849 1.82703 0
M  V30 6617 O 630.961 0.836407 2.58295 0
M  V30 6618 C 629.417 3.22707 1.59336 0
M  V30 6619 C 629.025 4.42859 0.676719 0
M  V30 6620 C 630.769 3.57242 2.293 0
M  V30 6621 C 628.676 5.74501 1.40367 0
M  V30 6622 H 627.606 0.679057 0.327715 0
M  V30 6623 H 630.257 1.83105 0.120351 0
M  V30 6624 H 628.639 3.16054 2.38591 0
M  V30 6625 H 629.813 4.60731 -0.0800196 0
M  V30 6626 H 628.128 4.16311 0.0859129 0
M  V30 6627 H 630.725 4.52847 2.84312 0
M  V30 6628 H 631.068 2.82901 3.05406 0
M  V30 6629 H 631.601 3.6552 1.56972 0
M  V30 6630 H 628.34 6.51915 0.684623 0
M  V30 6631 H 627.86 5.60579 2.13332 0
M  V30 6632 H 629.539 6.17016 1.94681 0
M  V30 6633 N 629.671 -0.424282 1.51781 0
M  V30 6634 C 630.919 -1.17028 1.64769 0
M  V30 6635 C 631.24 -1.91409 0.372523 0
M  V30 6636 O 630.51 -1.86091 -0.612108 0
M  V30 6637 H 629.09 -0.434992 0.607282 0
M  V30 6638 H 631.752 -0.485169 1.88765 0
M  V30 6639 H 630.848 -1.8927 2.4816 0
M  V30 6640 N 631.149 -1.42148 -0.680565 0
M  V30 6641 C 632.396 -1.4231 -1.44063 0
M  V30 6642 C 632.724 -0.037488 -1.94464 0
M  V30 6643 O 631.979 0.953184 -1.70918 0
M  V30 6644 C 632.278 -2.38945 -2.65782 0
M  V30 6645 C 631.944 -3.85455 -2.33956 0
M  V30 6646 C 630.606 -4.25364 -2.24987 0
M  V30 6647 C 632.958 -4.77895 -2.08004 0
M  V30 6648 C 630.286 -5.55701 -1.88184 0
M  V30 6649 C 632.638 -6.08568 -1.72706 0
M  V30 6650 C 631.302 -6.47482 -1.62244 0
M  V30 6651 H 630.572 -0.520748 -0.527164 0
M  V30 6652 H 633.219 -1.7505 -0.776524 0
M  V30 6653 H 631.524 -1.99511 -3.37198 0
M  V30 6654 H 633.221 -2.36336 -3.23954 0
M  V30 6655 H 629.811 -3.53855 -2.41836 0
M  V30 6656 H 633.995 -4.47854 -2.1387 0
M  V30 6657 H 629.251 -5.84718 -1.78648 0
M  V30 6658 H 633.425 -6.79688 -1.5165 0
M  V30 6659 H 631.052 -7.48387 -1.33496 0
M  V30 6660 N 632.627 0.916307 -1.28225 0
M  V30 6661 C 633.873 1.66794 -1.1641 0
M  V30 6662 C 634.228 1.90278 0.284986 0
M  V30 6663 O 633.521 1.49023 1.20427 0
M  V30 6664 C 633.715 3.03125 -1.8934 0
M  V30 6665 C 633.544 2.92947 -3.41192 0
M  V30 6666 C 632.314 2.9461 -4.10528 0
M  V30 6667 C 634.512 2.7121 -4.36978 0
M  V30 6668 N 632.494 2.74993 -5.48864 0
M  V30 6669 C 633.865 2.60411 -5.6266 0
M  V30 6670 C 635.92 2.56187 -4.26934 0
M  V30 6671 C 634.623 2.3612 -6.79441 0
M  V30 6672 C 636.649 2.33275 -5.43449 0
M  V30 6673 C 636.011 2.23228 -6.68093 0
M  V30 6674 H 632.11 0.616654 -0.480896 0
M  V30 6675 H 634.694 1.08237 -1.61842 0
M  V30 6676 H 632.865 3.59774 -1.46346 0
M  V30 6677 H 634.597 3.67294 -1.69932 0
M  V30 6678 H 631.352 3.0527 -3.62087 0
M  V30 6679 H 631.776 2.68284 -6.21573 0
M  V30 6680 H 636.418 2.62707 -3.31278 0
M  V30 6681 H 634.136 2.28339 -7.75169 0
M  V30 6682 H 637.722 2.22519 -5.37565 0
M  V30 6683 H 636.602 2.05741 -7.5673 0
M  V30 6684 N 634.105 1.10431 1.1244 0
M  V30 6685 C 635.351 0.857864 1.84424 0
M  V30 6686 C 635.706 -0.609995 1.82474 0
M  V30 6687 O 634.999 -1.44401 1.25932 0
M  V30 6688 C 635.193 1.34022 3.3132 0
M  V30 6689 C 635.022 2.85344 3.47576 0
M  V30 6690 C 633.792 3.53345 3.61213 0
M  V30 6691 C 635.99 3.83446 3.42744 0
M  V30 6692 N 633.972 4.92989 3.65834 0
M  V30 6693 C 635.343 5.09101 3.5386 0
M  V30 6694 C 637.398 3.76154 3.26209 0
M  V30 6695 C 636.101 6.28323 3.50146 0
M  V30 6696 C 638.127 4.94876 3.23809 0
M  V30 6697 C 637.489 6.19378 3.35485 0
M  V30 6698 H 633.588 0.366917 0.690577 0
M  V30 6699 H 636.172 1.40668 1.34613 0
M  V30 6700 H 634.343 0.818727 3.79673 0
M  V30 6701 H 636.075 1.03801 3.91162 0
M  V30 6702 H 632.83 3.03791 3.63329 0
M  V30 6703 H 633.254 5.65762 3.71809 0
M  V30 6704 H 637.896 2.80813 3.16076 0
M  V30 6705 H 635.614 7.23953 3.5905 0
M  V30 6706 H 639.2 4.90942 3.12197 0
M  V30 6707 H 638.08 7.09704 3.33602 0
M  V30 6708 N 635.583 -1.29855 0.893053 0
M  V30 6709 C 636.546 -2.26183 0.370687 0
M  V30 6710 C 637.546 -1.53108 -0.491385 0
M  V30 6711 O 638.736 -1.71643 -0.297386 0
M  V30 6712 C 635.868 -3.37633 -0.470827 0
M  V30 6713 H 637.061 -2.73903 1.22135 0
M  V30 6714 H 634.614 -1.41183 0.67061 0
M  V30 6715 H 635.349 -2.95241 -1.34175 0
M  V30 6716 H 635.134 -3.91825 0.146784 0
M  V30 6717 H 636.624 -4.09313 -0.827825 0
M  V30 6718 N 637.061 -0.65484 -1.43351 0
M  V30 6719 C 638.307 -0.169142 -2.02093 0
M  V30 6720 C 638.64 1.21431 -1.51553 0
M  V30 6721 O 637.915 1.81105 -0.709317 0
M  V30 6722 C 638.198 -0.181775 -3.59641 0
M  V30 6723 C 638.051 -1.59926 -4.20409 0
M  V30 6724 C 639.37 0.480945 -4.37464 0
M  V30 6725 H 636.489 -0.0629371 -0.734308 0
M  V30 6726 H 639.131 -0.835833 -1.70628 0
M  V30 6727 H 637.281 0.385918 -3.86578 0
M  V30 6728 H 638.953 -2.21766 -4.04497 0
M  V30 6729 H 637.196 -2.14605 -3.76998 0
M  V30 6730 H 637.867 -1.55994 -5.295 0
M  V30 6731 H 640.343 -0.00208273 -4.161 0
M  V30 6732 H 639.219 0.441384 -5.47122 0
M  V30 6733 H 639.48 1.55533 -4.13838 0
M  V30 6734 N 638.539 1.52521 -0.396863 0
M  V30 6735 C 639.785 2.01971 0.183169 0
M  V30 6736 C 640.118 1.2825 1.45827 0
M  V30 6737 O 639.393 0.385179 1.90648 0
M  V30 6738 C 639.676 3.5736 0.443391 0
M  V30 6739 C 639.529 4.41743 -0.84753 0
M  V30 6740 C 640.848 4.22539 1.2308 0
M  V30 6741 H 637.967 0.734119 0.0650976 0
M  V30 6742 H 640.609 1.82519 -0.527918 0
M  V30 6743 H 638.759 3.74066 1.04914 0
M  V30 6744 H 640.431 4.36773 -1.48414 0
M  V30 6745 H 638.674 4.0845 -1.4612 0
M  V30 6746 H 639.345 5.48507 -0.620003 0
M  V30 6747 H 641.821 4.09857 0.718084 0
M  V30 6748 H 640.697 5.31227 1.38162 0
M  V30 6749 H 640.958 3.80675 2.24808 0
M  V30 6750 N 640.017 0.126909 1.57088 0
M  V30 6751 C 641.245 -0.53667 1.99819 0
M  V30 6752 C 641.66 -1.5972 1.00673 0
M  V30 6753 O 641.017 -1.825 0.000747365 0
M  V30 6754 C 641.068 -1.15563 3.42531 0
M  V30 6755 O 640.789 -0.137483 4.37884 0
M  V30 6756 C 642.29 -1.90176 4.00435 0
M  V30 6757 H 639.51 -0.141443 0.655923 0
M  V30 6758 H 642.054 0.215578 2.03361 0
M  V30 6759 H 640.209 -1.85861 3.39904 0
M  V30 6760 H 640.623 -0.588229 5.21191 0
M  V30 6761 H 642.097 -2.28801 5.02349 0
M  V30 6762 H 642.574 -2.78002 3.40017 0
M  V30 6763 H 643.18 -1.24623 4.06632 0
M  V30 6764 N 641.495 -1.56914 -0.146875 0
M  V30 6765 C 642.428 -1.93425 -1.21087 0
M  V30 6766 C 643.406 -0.800106 -1.41552 0
M  V30 6767 O 644.59 -1.05572 -1.56162 0
M  V30 6768 C 641.717 -2.20639 -2.56975 0
M  V30 6769 C 640.763 -3.43279 -2.53104 0
M  V30 6770 S 641.596 -4.96836 -1.99786 0
M  V30 6771 C 642.752 -5.27172 -3.37403 0
M  V30 6772 H 642.985 -2.8337 -0.899378 0
M  V30 6773 H 640.518 -1.50322 -0.352494 0
M  V30 6774 H 642.476 -2.36998 -3.35175 0
M  V30 6775 H 641.137 -1.31357 -2.85314 0
M  V30 6776 H 640.33 -3.59599 -3.53136 0
M  V30 6777 H 639.932 -3.26163 -1.83012 0
M  V30 6778 H 642.224 -5.20647 -4.33513 0
M  V30 6779 H 643.167 -6.28626 -3.25937 0
M  V30 6780 H 643.575 -4.54687 -3.34544 0
M  V30 6781 N 642.974 0.416227 -1.52004 0
M  V30 6782 C 644.202 1.18573 -1.69553 0
M  V30 6783 C 644.617 1.84472 -0.401919 0
M  V30 6784 O 643.974 1.71593 0.621463 0
M  V30 6785 C 644.025 2.25413 -2.82615 0
M  V30 6786 O 643.746 1.62205 -4.06966 0
M  V30 6787 C 645.247 3.15297 -3.11613 0
M  V30 6788 H 642.467 0.356582 -0.56841 0
M  V30 6789 H 645.011 0.490618 -1.98528 0
M  V30 6790 H 643.166 2.90604 -2.56179 0
M  V30 6791 H 643.58 2.3298 -4.69916 0
M  V30 6792 H 645.054 3.86351 -3.94255 0
M  V30 6793 H 645.531 3.77264 -2.24874 0
M  V30 6794 H 646.137 2.55783 -3.39787 0
M  V30 6795 N 644.452 1.42507 0.673017 0
M  V30 6796 C 645.68 1.46473 1.46128 0
M  V30 6797 C 646.095 0.0765912 1.88645 0
M  V30 6798 O 645.452 -0.909057 1.58248 0
M  V30 6799 C 645.503 2.39339 2.70923 0
M  V30 6800 O 645.224 3.72752 2.3019 0
M  V30 6801 C 646.725 2.52343 3.64469 0
M  V30 6802 H 643.945 0.49812 0.449575 0
M  V30 6803 H 646.489 1.87041 0.826802 0
M  V30 6804 H 644.644 2.02019 3.30556 0
M  V30 6805 H 645.058 4.22503 3.10791 0
M  V30 6806 H 646.532 3.2144 4.48754 0
M  V30 6807 H 647.009 1.56189 4.1049 0
M  V30 6808 H 647.615 2.90392 3.10729 0
M  V30 6809 N 645.93 -0.909495 1.28709 0
M  V30 6810 C 646.86 -2.0291 1.15542 0
M  V30 6811 C 647.841 -1.7002 0.0521017 0
M  V30 6812 O 649.026 -1.92835 0.229849 0
M  V30 6813 C 646.156 -3.37458 0.820935 0
M  V30 6814 C 645.11 -3.84524 1.87949 0
M  V30 6815 C 644.436 -5.16086 1.39854 0
M  V30 6816 C 645.736 -4.05918 3.28676 0
M  V30 6817 H 647.43 -2.14183 2.09203 0
M  V30 6818 H 644.976 -1.02913 1.00722 0
M  V30 6819 H 646.929 -4.1528 0.715571 0
M  V30 6820 H 645.653 -3.26249 -0.151374 0
M  V30 6821 H 644.312 -3.08911 1.97408 0
M  V30 6822 H 643.96 -5.01284 0.41518 0
M  V30 6823 H 643.66 -5.48547 2.1064 0
M  V30 6824 H 645.184 -5.96459 1.30649 0
M  V30 6825 H 646.598 -4.74252 3.22115 0
M  V30 6826 H 644.995 -4.49717 3.97334 0
M  V30 6827 H 646.065 -3.10583 3.72379 0
M  V30 6828 N 647.408 -1.11026 -1.11852 0
M  V30 6829 C 648.656 -0.854769 -1.83134 0
M  V30 6830 C 648.977 0.621375 -1.84835 0
M  V30 6831 O 648.247 1.45129 -1.31584 0
M  V30 6832 H 646.827 -0.313229 -0.678157 0
M  V30 6833 H 649.489 -1.40178 -1.35411 0
M  V30 6834 H 648.585 -1.22311 -2.87135 0
M  V30 6835 N 648.886 1.2938 -0.899927 0
M  V30 6836 C 650.116 1.99402 -0.540601 0
M  V30 6837 C 650.524 1.67534 0.87914 0
M  V30 6838 O 649.867 0.916821 1.59186 0
M  V30 6839 C 649.929 3.53514 -0.653326 0
M  V30 6840 C 649.593 4.08937 -2.04009 0
M  V30 6841 C 650.59 4.23815 -3.01126 0
M  V30 6842 C 648.275 4.43962 -2.34953 0
M  V30 6843 C 650.269 4.72951 -4.27313 0
M  V30 6844 C 647.956 4.92795 -3.61382 0
M  V30 6845 C 648.954 5.07244 -4.57376 0
M  V30 6846 O 648.642 5.55017 -5.8156 0
M  V30 6847 H 648.374 0.64383 -0.206057 0
M  V30 6848 H 650.928 1.65878 -1.21134 0
M  V30 6849 H 649.158 3.86628 0.0744449 0
M  V30 6850 H 650.847 4.04767 -0.303118 0
M  V30 6851 H 651.613 3.97043 -2.78535 0
M  V30 6852 H 647.492 4.31974 -1.60994 0
M  V30 6853 H 651.036 4.84144 -5.02245 0
M  V30 6854 H 646.933 5.19004 -3.83804 0
M  V30 6855 H 647.701 5.73331 -5.84153 0
M  V30 6856 N 650.364 0.662433 1.43002 0
M  V30 6857 C 651.612 0.179237 2.01304 0
M  V30 6858 C 651.933 -1.21428 1.52579 0
M  V30 6859 O 651.203 -1.81294 0.742252 0
M  V30 6860 H 649.783 0.0632725 0.744316 0
M  V30 6861 H 652.445 0.856169 1.75088 0
M  V30 6862 H 651.541 0.170957 3.11631 0
M  V30 6863 N 651.842 -1.52309 0.404946 0
M  V30 6864 C 653.119 -1.94237 -0.230544 0
M  V30 6865 C 653.499 -1.34154 -1.6299 0
M  V30 6866 O 652.847 -0.515713 -2.22604 0
M  V30 6867 C 653.057 -3.48166 -0.241106 0
M  V30 6868 C 654.405 -4.22074 -0.462488 0
M  V30 6869 O 655.429 -3.54754 -0.320644 0
M  V30 6870 O 654.288 -5.41443 -0.741708 0
M  V30 6871 H 651.382 -0.813766 -0.147358 0
M  V30 6872 H 653.928 -1.6333 0.460587 0
M  V30 6873 H 652.7 -3.84269 0.738467 0
M  V30 6874 H 652.323 -3.85422 -0.97651 0
M  V30 6875 N 653.32 -0.135238 -1.57019 0
M  V30 6876 C 654.253 0.846618 -2.11914 0
M  V30 6877 C 655.231 1.25019 -1.03966 0
M  V30 6878 O 656.415 1.34838 -1.31723 0
M  V30 6879 C 653.542 2.1352 -2.6292 0
M  V30 6880 C 652.588 1.87846 -3.82905 0
M  V30 6881 S 653.421 1.08005 -5.24495 0
M  V30 6882 C 654.577 2.38008 -5.78881 0
M  V30 6883 H 654.81 0.379752 -2.94865 0
M  V30 6884 H 652.343 0.0788387 -1.54199 0
M  V30 6885 H 654.301 2.87551 -2.92958 0
M  V30 6886 H 652.962 2.57323 -1.80121 0
M  V30 6887 H 652.155 2.83365 -4.16797 0
M  V30 6888 H 651.757 1.21929 -3.53567 0
M  V30 6889 H 654.049 3.33742 -5.89595 0
M  V30 6890 H 654.992 2.08638 -6.76665 0
M  V30 6891 H 655.4 2.48119 -5.07048 0
M  V30 6892 N 654.798 1.5699 0.138552 0
M  V30 6893 C 656.028 1.87704 0.863184 0
M  V30 6894 C 656.436 0.722411 1.74865 0
M  V30 6895 O 655.779 -0.316636 1.80951 0
M  V30 6896 C 655.841 3.13219 1.76449 0
M  V30 6897 C 655.505 4.44648 1.05532 0
M  V30 6898 C 656.502 5.18318 0.405252 0
M  V30 6899 C 654.187 4.91367 1.04231 0
M  V30 6900 C 656.181 6.36916 -0.24835 0
M  V30 6901 C 653.868 6.09887 0.384904 0
M  V30 6902 C 654.866 6.82508 -0.259292 0
M  V30 6903 O 654.554 7.98775 -0.906258 0
M  V30 6904 H 654.286 0.626255 0.254521 0
M  V30 6905 H 656.84 2.04966 0.133472 0
M  V30 6906 H 655.07 2.91988 2.53535 0
M  V30 6907 H 656.759 3.30111 2.36181 0
M  V30 6908 H 657.525 4.83289 0.407053 0
M  V30 6909 H 653.404 4.34759 1.53315 0
M  V30 6910 H 656.948 6.93538 -0.751755 0
M  V30 6911 H 652.845 6.44376 0.380799 0
M  V30 6912 H 653.613 8.14494 -0.80877 0
M  V30 6913 N 656.276 -0.40816 1.52223 0
M  V30 6914 C 657.687 -0.986929 1.58482 0
M  V30 6915 C 658.038 -1.91521 0.425917 0
M  V30 6916 O 657.163 -2.11593 -0.453593 0
M  V30 6917 C 657.758 -1.7967 2.87235 0
M  V30 6918 C 656.317 -2.32549 2.9597 0
M  V30 6919 C 655.464 -1.12558 2.53428 0
M  V30 6920 H 658.415 -0.188362 1.57578 0
M  V30 6921 H 658.436 -2.65417 2.72642 0
M  V30 6922 H 657.948 -1.12082 3.71563 0
M  V30 6923 H 656.049 -3.03505 2.16137 0
M  V30 6924 H 656.162 -2.63348 4.00231 0
M  V30 6925 H 654.526 -1.47984 2.07299 0
M  V30 6926 H 655.309 -0.465351 3.40131 0
M  V30 6927 N 657.755 -1.42862 -0.66545 0
M  V30 6928 C 658.687 -1.43026 -1.79098 0
M  V30 6929 C 659.7 -0.32803 -1.59461 0
M  V30 6930 O 660.889 -0.591709 -1.68407 0
M  V30 6931 C 657.989 -1.21566 -3.16346 0
M  V30 6932 C 657.162 -2.44399 -3.62751 0
M  V30 6933 C 656.221 -2.18344 -4.78761 0
M  V30 6934 O 655.247 -2.91611 -4.88827 0
M  V30 6935 N 656.449 -1.1924 -5.68122 0
M  V30 6936 H 659.214 -2.40045 -1.79439 0
M  V30 6937 H 656.775 -1.37861 -0.848872 0
M  V30 6938 H 658.767 -1.02037 -3.91625 0
M  V30 6939 H 657.337 -0.330368 -3.10849 0
M  V30 6940 H 656.557 -2.79433 -2.78048 0
M  V30 6941 H 657.845 -3.26173 -3.90498 0
M  V30 6942 H 657.243 -0.586603 -5.6265 0
M  V30 6943 H 655.8 -1.05698 -6.43173 0
M  V30 6944 N 659.233 0.902656 -1.29189 0
M  V30 6945 C 660.461 1.68639 -1.19869 0
M  V30 6946 C 660.876 1.87254 0.241121 0
M  V30 6947 O 660.233 1.40745 1.16177 0
M  V30 6948 C 660.284 3.07251 -1.90471 0
M  V30 6949 O 660.005 2.89488 -3.28829 0
M  V30 6950 C 661.506 4.01653 -1.8759 0
M  V30 6951 H 658.726 0.526802 -0.415596 0
M  V30 6952 H 661.27 1.12901 -1.7051 0
M  V30 6953 H 659.425 3.59774 -1.43672 0
M  V30 6954 H 659.839 3.77296 -3.64346 0
M  V30 6955 H 661.313 4.96339 -2.4156 0
M  V30 6956 H 661.79 4.30881 -0.850756 0
M  V30 6957 H 662.396 3.55061 -2.34119 0
M  V30 6958 N 660.711 1.11618 1.11262 0
M  V30 6959 C 661.957 0.877377 1.83504 0
M  V30 6960 C 662.312 -0.590606 1.83111 0
M  V30 6961 O 661.605 -1.43057 1.27456 0
M  V30 6962 C 661.799 1.37529 3.2988 0
M  V30 6963 C 661.628 2.89014 3.4453 0
M  V30 6964 C 660.398 3.57157 3.57445 0
M  V30 6965 C 662.596 3.8706 3.38658 0
M  V30 6966 N 660.578 4.96842 3.60585 0
M  V30 6967 C 661.949 5.12825 3.4844 0
M  V30 6968 C 664.004 3.79593 3.22201 0
M  V30 6969 C 662.707 6.32002 3.43462 0
M  V30 6970 C 664.733 4.98282 3.18542 0
M  V30 6971 C 664.095 6.22901 3.28897 0
M  V30 6972 H 660.194 0.37422 0.686646 0
M  V30 6973 H 662.778 1.42087 1.33114 0
M  V30 6974 H 660.949 0.85895 3.78783 0
M  V30 6975 H 662.681 1.07944 3.90039 0
M  V30 6976 H 659.436 3.07628 3.60086 0
M  V30 6977 H 659.86 5.69674 3.65788 0
M  V30 6978 H 664.502 2.84149 3.1308 0
M  V30 6979 H 662.22 7.27721 3.51352 0
M  V30 6980 H 665.806 4.94226 3.06972 0
M  V30 6981 H 664.686 7.13202 3.26056 0
M  V30 6982 N 662.189 -1.289 0.906776 0
M  V30 6983 C 663.414 -1.99939 0.551303 0
M  V30 6984 C 663.839 -1.67366 -0.858496 0
M  V30 6985 O 663.197 -0.902176 -1.57259 0
M  V30 6986 C 663.245 -3.52523 0.758937 0
M  V30 6987 O 662.349 -4.11983 -0.185308 0
M  V30 6988 H 661.69 -0.628376 0.214568 0
M  V30 6989 H 664.22 -1.64225 1.2203 0
M  V30 6990 H 664.23 -4.02522 0.666329 0
M  V30 6991 H 662.905 -3.75566 1.78671 0
M  V30 6992 H 661.482 -3.72873 -0.0445577 0
M  V30 6993 N 663.667 -0.670007 -1.42649 0
M  V30 6994 C 664.915 -0.18991 -2.01206 0
M  V30 6995 C 665.236 1.20617 -1.53221 0
M  V30 6996 O 664.506 1.80898 -0.751856 0
M  V30 6997 H 663.086 -0.0672189 -0.743969 0
M  V30 6998 H 665.748 -0.865442 -1.74631 0
M  V30 6999 H 664.844 -0.187481 -3.11536 0
M  V30 7000 N 665.145 1.52092 -0.413018 0
M  V30 7001 C 666.078 2.23613 0.455234 0
M  V30 7002 C 667.056 1.2459 1.04481 0
M  V30 7003 O 668.24 1.53653 1.09193 0
M  V30 7004 C 665.367 2.96775 1.63224 0
M  V30 7005 C 664.413 4.10261 1.16568 0
M  V30 7006 S 665.246 5.35348 0.127633 0
M  V30 7007 C 666.402 6.1204 1.30987 0
M  V30 7008 H 666.635 2.96911 -0.152042 0
M  V30 7009 H 664.168 1.53134 -0.197343 0
M  V30 7010 H 666.126 3.39532 2.30713 0
M  V30 7011 H 664.787 2.23113 2.21087 0
M  V30 7012 H 663.98 4.6064 2.04515 0
M  V30 7013 H 663.582 3.6964 0.569386 0
M  V30 7014 H 665.874 6.39651 2.23276 0
M  V30 7015 H 666.817 7.03022 0.846533 0
M  V30 7016 H 667.225 5.43161 1.53743 0
M  V30 7017 N 666.623 0.143563 1.56945 0
M  V30 7018 C 667.553 -0.7936 2.196 0
M  V30 7019 C 668.534 -1.25955 1.14321 0
M  V30 7020 O 669.719 -1.31773 1.42651 0
M  V30 7021 C 666.849 -2.03424 2.81489 0
M  V30 7022 C 665.803 -1.70519 3.92565 0
M  V30 7023 C 665.129 -3.01817 4.41373 0
M  V30 7024 C 666.429 -0.95449 5.13504 0
M  V30 7025 H 668.123 -0.271423 2.98167 0
M  V30 7026 H 665.669 -0.12911 1.4342 0
M  V30 7027 H 667.622 -2.69463 3.23987 0
M  V30 7028 H 666.346 -2.58008 2.00248 0
M  V30 7029 H 665.005 -1.06859 3.5068 0
M  V30 7030 H 664.653 -3.54386 3.56959 0
M  V30 7031 H 664.353 -2.80565 5.16292 0
M  V30 7032 H 665.877 -3.68934 4.86539 0
M  V30 7033 H 667.291 -1.5169 5.52868 0
M  V30 7034 H 665.688 -0.842035 5.94163 0
M  V30 7035 H 666.758 0.0544033 4.84869 0
M  V30 7036 N 668.101 -1.57061 -0.130224 0
M  V30 7037 C 669.347 -1.8453 -0.841216 0
M  V30 7038 C 669.68 -0.727666 -1.80052 0
M  V30 7039 O 668.955 0.267419 -1.92653 0
M  V30 7040 C 669.238 -3.22553 -1.60099 0
M  V30 7041 C 669.091 -4.44901 -0.662048 0
M  V30 7042 C 670.41 -3.58003 -2.55973 0
M  V30 7043 H 667.529 -0.671215 -0.304366 0
M  V30 7044 H 670.171 -1.89705 -0.105821 0
M  V30 7045 H 668.321 -3.18272 -2.22789 0
M  V30 7046 H 669.993 -4.61278 -0.0448559 0
M  V30 7047 H 668.236 -4.33791 0.0272253 0
M  V30 7048 H 668.907 -5.3812 -1.23006 0
M  V30 7049 H 671.383 -3.63002 -2.03393 0
M  V30 7050 H 670.259 -4.55576 -3.06172 0
M  V30 7051 H 670.52 -2.84833 -3.38116 0
M  V30 7052 N 669.579 0.400081 -1.52437 0
M  V30 7053 C 670.827 1.14392 -1.6661 0
M  V30 7054 C 671.148 1.90792 -0.402927 0
M  V30 7055 O 670.418 1.87042 0.582425 0
M  V30 7056 H 668.998 0.425275 -0.614125 0
M  V30 7057 H 671.66 0.455076 -1.89513 0
M  V30 7058 H 670.756 1.85298 -2.51139 0
M  V30 7059 N 671.057 1.43213 0.657864 0
M  V30 7060 C 672.02 1.47687 1.75275 0
M  V30 7061 C 673.02 0.362179 1.56668 0
M  V30 7062 O 674.21 0.623734 1.62651 0
M  V30 7063 C 671.342 1.32497 3.14098 0
M  V30 7064 H 672.535 2.4519 1.7269 0
M  V30 7065 H 670.088 1.2991 0.869087 0
M  V30 7066 H 670.823 0.359831 3.22298 0
M  V30 7067 H 670.608 2.13299 3.29008 0
M  V30 7068 H 672.098 1.38549 3.93946 0
M  V30 7069 N 672.536 -0.895792 1.29666 0
M  V30 7070 C 673.466 -2.01673 1.17688 0
M  V30 7071 C 674.447 -1.69955 0.0701317 0
M  V30 7072 O 675.632 -1.9258 0.250289 0
M  V30 7073 C 672.762 -3.36568 0.856681 0
M  V30 7074 C 671.716 -3.82509 1.92017 0
M  V30 7075 C 671.042 -5.14574 1.4532 0
M  V30 7076 C 672.342 -4.02409 3.32963 0
M  V30 7077 H 674.036 -2.11953 2.11463 0
M  V30 7078 H 671.582 -1.01839 1.01807 0
M  V30 7079 H 673.535 -4.14498 0.759577 0
M  V30 7080 H 672.259 -3.26391 -0.116763 0
M  V30 7081 H 670.918 -3.068 2.00673 0
M  V30 7082 H 670.566 -5.00815 0.468325 0
M  V30 7083 H 670.266 -5.46283 2.16447 0
M  V30 7084 H 671.79 -5.9504 1.36968 0
M  V30 7085 H 673.204 -4.70808 3.27127 0
M  V30 7086 H 671.601 -4.45478 4.02082 0
M  V30 7087 H 672.671 -3.06616 3.75652 0
M  V30 7088 N 674.014 -1.12206 -1.10668 0
M  V30 7089 C 675.254 -0.885935 -1.84202 0
M  V30 7090 C 675.618 0.577849 -1.83098 0
M  V30 7091 O 676.819 0.931051 -2.5216 0
M  V30 7092 C 675.09 -1.44197 -3.2702 0
M  V30 7093 S 676.649 -1.34402 -4.1771 0
M  V30 7094 H 673.467 -0.319653 -0.635093 0
M  V30 7095 H 676.069 -1.43112 -1.33189 0
M  V30 7096 H 674.773 -2.50096 -3.25392 0
M  V30 7097 H 674.304 -0.894173 -3.83103 0
M  V30 7098 H 676.319 -0.313873 -4.95206 0
M  V30 7099 N 675.492 1.28418 -0.913599 0
M  V30 7100 C 676.455 2.25564 -0.406624 0
M  V30 7101 C 677.455 1.5387 0.466965 0
M  V30 7102 O 678.645 1.72094 0.270042 0
M  V30 7103 C 675.777 3.38339 0.417053 0
M  V30 7104 H 676.97 2.71926 -1.26477 0
M  V30 7105 H 674.523 1.40098 -0.692986 0
M  V30 7106 H 675.258 2.97339 1.29461 0
M  V30 7107 H 675.043 3.91542 -0.209102 0
M  V30 7108 H 676.533 4.10578 0.762602 0
M  V30 7109 N 676.97 0.677563 1.42291 0
M  V30 7110 C 677.9 0.014968 2.33495 0
M  V30 7111 C 678.881 -0.786376 1.50831 0
M  V30 7112 O 680.066 -0.742975 1.79426 0
M  V30 7113 C 677.196 -0.935023 3.34477 0
M  V30 7114 C 676.15 -0.242074 4.27315 0
M  V30 7115 C 675.476 -1.30519 5.18526 0
M  V30 7116 C 676.776 0.880604 5.14823 0
M  V30 7117 H 678.47 0.776671 2.89151 0
M  V30 7118 H 676.016 0.37494 1.39033 0
M  V30 7119 H 677.969 -1.40766 3.97194 0
M  V30 7120 H 676.693 -1.72818 2.77131 0
M  V30 7121 H 675.352 0.210351 3.65996 0
M  V30 7122 H 675 -2.09041 4.57505 0
M  V30 7123 H 674.7 -0.846652 5.81468 0
M  V30 7124 H 676.224 -1.7787 5.84119 0
M  V30 7125 H 677.638 0.489062 5.7121 0
M  V30 7126 H 676.035 1.26511 5.86613 0
M  V30 7127 H 677.105 1.72818 4.53059 0
M  V30 7128 N 678.448 -1.51871 0.421078 0
M  V30 7129 C 679.411 -2.25914 -0.386712 0
M  V30 7130 C 680.411 -1.28733 -0.963555 0
M  V30 7131 O 681.601 -1.52579 -0.840556 0
M  V30 7132 C 678.733 -3.03853 -1.54551 0
M  V30 7133 H 679.926 -2.98754 0.261978 0
M  V30 7134 H 677.479 -1.5533 0.173862 0
M  V30 7135 H 678.214 -2.35392 -2.23072 0
M  V30 7136 H 677.999 -3.75215 -1.13824 0
M  V30 7137 H 679.489 -3.59984 -2.11663 0
M  V30 7138 N 679.926 -0.151884 -1.56866 0
M  V30 7139 C 681.174 0.497021 -1.95893 0
M  V30 7140 C 681.495 1.65078 -1.03799 0
M  V30 7141 O 680.765 1.95642 -0.10049 0
M  V30 7142 H 679.345 0.186603 -0.723318 0
M  V30 7143 H 682.007 -0.228525 -1.93556 0
M  V30 7144 H 681.103 0.869933 -2.99731 0
M  V30 7145 N 681.404 1.57128 0.121893 0
M  V30 7146 C 682.65 1.84974 0.831418 0
M  V30 7147 C 682.983 0.737204 1.79663 0
M  V30 7148 O 682.258 -0.257199 1.92792 0
M  V30 7149 C 682.541 3.23397 1.58386 0
M  V30 7150 C 682.394 4.45246 0.638445 0
M  V30 7151 C 683.713 3.59355 2.54071 0
M  V30 7152 H 680.832 0.67282 0.300803 0
M  V30 7153 H 683.474 1.89759 0.0957587 0
M  V30 7154 H 681.624 3.19449 2.21098 0
M  V30 7155 H 683.296 4.61295 0.0203925 0
M  V30 7156 H 681.539 4.33771 -0.05023 0
M  V30 7157 H 682.21 5.38765 1.20151 0
M  V30 7158 H 684.686 3.64075 2.01465 0
M  V30 7159 H 683.562 4.57193 3.03752 0
M  V30 7160 H 683.823 2.86622 3.36601 0
M  V30 7161 N 682.882 -0.391992 1.52647 0
M  V30 7162 C 683.812 -1.48517 1.8018 0
M  V30 7163 C 684.793 -1.57039 0.653667 0
M  V30 7164 O 685.978 -1.72036 0.900962 0
M  V30 7165 C 683.108 -2.86161 1.96797 0
M  V30 7166 C 682.062 -2.92481 3.12472 0
M  V30 7167 C 681.388 -4.32546 3.14338 0
M  V30 7168 C 682.688 -2.624 4.51601 0
M  V30 7169 H 684.382 -1.25726 2.71723 0
M  V30 7170 H 681.928 -0.603387 1.30749 0
M  V30 7171 H 683.881 -3.62639 2.14641 0
M  V30 7172 H 682.605 -3.10283 1.01941 0
M  V30 7173 H 681.264 -2.18451 2.94406 0
M  V30 7174 H 680.912 -4.53703 2.1717 0
M  V30 7175 H 680.612 -4.37695 3.92042 0
M  V30 7176 H 682.136 -5.10934 3.34333 0
M  V30 7177 H 683.55 -3.28596 4.69785 0
M  V30 7178 H 681.947 -2.78903 5.3135 0
M  V30 7179 H 683.017 -1.57754 4.58521 0
M  V30 7180 N 684.36 -1.4356 -0.65026 0
M  V30 7181 C 685.588 -1.48779 -1.43779 0
M  V30 7182 C 686.003 -0.106593 -1.88499 0
M  V30 7183 O 685.36 0.883766 -1.59674 0
M  V30 7184 C 685.411 -2.43618 -2.67081 0
M  V30 7185 O 685.132 -3.76367 -2.24231 0
M  V30 7186 C 686.633 -2.5811 -3.60409 0
M  V30 7187 H 683.853 -0.50521 -0.441593 0
M  V30 7188 H 686.397 -1.88332 -0.796941 0
M  V30 7189 H 684.552 -2.07253 -3.273 0
M  V30 7190 H 684.966 -4.27394 -3.0403 0
M  V30 7191 H 686.44 -3.28539 -4.43583 0
M  V30 7192 H 686.917 -1.627 -4.07953 0
M  V30 7193 H 687.523 -2.95298 -3.0607 0
M  V30 7194 N 685.838 0.888903 -1.30139 0
M  V30 7195 C 687.087 1.63507 -1.18103 0
M  V30 7196 C 687.4 1.93808 0.264141 0
M  V30 7197 O 688.606 2.66744 0.505966 0
M  V30 7198 C 687.062 2.94673 -2.0663 0
M  V30 7199 C 686.67 2.71926 -3.56034 0
M  V30 7200 C 688.414 3.72626 -2.03346 0
M  V30 7201 C 686.321 3.98884 -4.3663 0
M  V30 7202 H 685.251 0.613426 -0.438435 0
M  V30 7203 H 687.902 0.984427 -1.54859 0
M  V30 7204 H 686.284 3.61009 -1.62754 0
M  V30 7205 H 687.458 2.14116 -4.08033 0
M  V30 7206 H 685.773 2.07353 -3.61101 0
M  V30 7207 H 688.37 4.66775 -2.60816 0
M  V30 7208 H 688.713 4.03712 -1.016 0
M  V30 7209 H 689.246 3.13147 -2.45324 0
M  V30 7210 H 685.985 3.72959 -5.39056 0
M  V30 7211 H 685.505 4.56214 -3.89396 0
M  V30 7212 H 687.184 4.66938 -4.47859 0
M  V30 7213 N 687.317 1.12792 1.10072 0
M  V30 7214 C 688.28 0.802264 2.14701 0
M  V30 7215 C 689.28 -0.18515 1.59731 0
M  V30 7216 O 690.47 0.041109 1.74151 0
M  V30 7217 C 687.602 0.19285 3.40354 0
M  V30 7218 H 688.795 1.72932 2.45019 0
M  V30 7219 H 686.348 0.931662 1.25498 0
M  V30 7220 H 687.083 -0.743748 3.15656 0
M  V30 7221 H 686.868 0.903827 3.81541 0
M  V30 7222 H 688.358 -0.0183704 4.17596 0
M  V30 7223 N 688.795 -1.27931 0.920396 0
M  V30 7224 C 689.728 -2.2537 0.358285 0
M  V30 7225 C 690.706 -1.53328 -0.541242 0
M  V30 7226 O 691.89 -1.82196 -0.483399 0
M  V30 7227 C 689.017 -3.35178 -0.487193 0
M  V30 7228 C 688.063 -4.25079 0.347881 0
M  V30 7229 S 688.896 -5.05792 1.75883 0
M  V30 7230 C 690.052 -6.19089 0.920832 0
M  V30 7231 H 690.285 -2.72701 1.18413 0
M  V30 7232 H 687.818 -1.36474 0.722088 0
M  V30 7233 H 689.776 -3.98895 -0.96916 0
M  V30 7234 H 688.437 -2.865 -1.28749 0
M  V30 7235 H 687.63 -5.03113 -0.298912 0
M  V30 7236 H 687.232 -3.66119 0.763748 0
M  V30 7237 H 689.524 -6.77326 0.15349 0
M  V30 7238 H 690.467 -6.8803 1.67394 0
M  V30 7239 H 690.875 -5.62573 0.466069 0
M  V30 7240 N 690.273 -0.685099 -1.4193 0
M  V30 7241 C 691.684 -0.287699 -1.8447 0
M  V30 7242 C 692.035 1.17215 -1.57338 0
M  V30 7243 O 691.16 1.89856 -1.03845 0
M  V30 7244 C 691.755 -0.515385 -3.34857 0
M  V30 7245 C 690.314 -0.172006 -3.76007 0
M  V30 7246 C 689.461 -0.802808 -2.65425 0
M  V30 7247 H 692.412 -0.88652 -1.3163 0
M  V30 7248 H 692.433 0.229251 -3.79809 0
M  V30 7249 H 691.945 -1.57796 -3.54573 0
M  V30 7250 H 690.046 0.886716 -3.61895 0
M  V30 7251 H 690.159 -0.619717 -4.75075 0
M  V30 7252 H 688.523 -0.233267 -2.5363 0
M  V30 7253 H 689.306 -1.86904 -2.87961 0
M  V30 7254 N 691.751 1.51645 -0.429126 0
M  V30 7255 C 692.997 2.02314 0.140286 0
M  V30 7256 C 693.33 1.31314 1.43074 0
M  V30 7257 O 692.605 0.425531 1.89788 0
M  V30 7258 C 692.888 3.5822 0.36749 0
M  V30 7259 C 692.741 4.39846 -0.941039 0
M  V30 7260 C 694.06 4.25055 1.14089 0
M  V30 7261 H 691.179 0.735335 0.0495112 0
M  V30 7262 H 693.821 1.81358 -0.566514 0
M  V30 7263 H 691.971 3.76207 0.969556 0
M  V30 7264 H 693.643 4.33527 -1.57646 0
M  V30 7265 H 691.886 4.05259 -1.54751 0
M  V30 7266 H 692.557 5.47069 -0.73621 0
M  V30 7267 H 695.033 4.11288 0.630986 0
M  V30 7268 H 693.909 5.34038 1.26863 0
M  V30 7269 H 694.17 3.85358 2.16683 0
M  V30 7270 N 693.229 0.160201 1.56784 0
M  V30 7271 C 694.64 -0.358417 1.83227 0
M  V30 7272 C 694.991 -1.63831 1.07952 0
M  V30 7273 O 694.116 -2.13885 0.328995 0
M  V30 7274 C 694.711 -0.657058 3.32368 0
M  V30 7275 C 693.27 -1.12015 3.59346 0
M  V30 7276 C 692.417 -0.15015 2.76893 0
M  V30 7277 H 695.368 0.384669 1.53967 0
M  V30 7278 H 695.389 -1.51033 3.49241 0
M  V30 7279 H 694.901 0.274647 3.87127 0
M  V30 7280 H 693.002 -2.06734 3.09987 0
M  V30 7281 H 693.115 -1.037 4.67743 0
M  V30 7282 H 691.479 -0.645361 2.46388 0
M  V30 7283 H 692.262 0.775379 3.34429 0
M  V30 7284 N 694.707 -1.5719 -0.113559 0
M  V30 7285 C 695.953 -1.85412 -0.821597 0
M  V30 7286 C 696.286 -0.746722 -1.7927 0
M  V30 7287 O 695.561 0.246971 -1.92926 0
M  V30 7288 C 695.844 -3.24233 -1.56669 0
M  V30 7289 C 695.697 -4.45578 -0.614823 0
M  V30 7290 C 697.016 -3.60697 -2.52161 0
M  V30 7291 H 694.135 -0.674406 -0.29723 0
M  V30 7292 H 696.777 -1.89807 -0.085694 0
M  V30 7293 H 694.927 -3.20617 -2.19401 0
M  V30 7294 H 696.599 -4.613 0.00407137 0
M  V30 7295 H 694.842 -4.33738 0.0732332 0
M  V30 7296 H 695.513 -5.39395 -1.17292 0
M  V30 7297 H 697.989 -3.65139 -1.99532 0
M  V30 7298 H 696.865 -4.58798 -3.01323 0
M  V30 7299 H 697.126 -2.88403 -3.35076 0
M  V30 7300 N 696.185 0.383891 -1.52853 0
M  V30 7301 C 697.434 1.12563 -1.67369 0
M  V30 7302 C 697.747 1.90982 -0.422533 0
M  V30 7303 O 698.953 2.6778 -0.447914 0
M  V30 7304 C 697.409 2.05011 -2.95801 0
M  V30 7305 C 697.017 1.31991 -4.28115 0
M  V30 7306 C 698.761 2.79289 -3.19684 0
M  V30 7307 C 696.668 2.23235 -5.4765 0
M  V30 7308 H 695.598 0.42391 -0.623552 0
M  V30 7309 H 698.249 0.388016 -1.79351 0
M  V30 7310 H 696.631 2.82429 -2.77578 0
M  V30 7311 H 697.805 0.597633 -4.56908 0
M  V30 7312 H 696.12 0.696517 -4.10533 0
M  V30 7313 H 698.717 3.47749 -4.06171 0
M  V30 7314 H 699.06 3.43649 -2.3497 0
M  V30 7315 H 699.593 2.08962 -3.38496 0
M  V30 7316 H 696.332 1.63482 -6.34786 0
M  V30 7317 H 695.852 2.93364 -5.23161 0
M  V30 7318 H 697.531 2.83205 -5.81725 0
M  V30 7319 N 697.663 1.43903 0.642637 0
M  V30 7320 C 698.909 1.46296 1.40447 0
M  V30 7321 C 699.242 0.0908361 1.93987 0
M  V30 7322 O 698.517 -0.889884 1.72949 0
M  V30 7323 C 698.8 2.51399 2.57819 0
M  V30 7324 C 698.653 3.97926 2.09702 0
M  V30 7325 C 699.972 2.53125 3.60022 0
M  V30 7326 H 697.091 0.532676 0.509338 0
M  V30 7327 H 699.733 1.75515 0.727635 0
M  V30 7328 H 697.883 2.26614 3.1556 0
M  V30 7329 H 699.555 4.33804 1.5688 0
M  V30 7330 H 697.798 4.10252 1.40982 0
M  V30 7331 H 698.469 4.67096 2.94152 0
M  V30 7332 H 700.945 2.75242 3.12059 0
M  V30 7333 H 699.821 3.28589 4.39682 0
M  V30 7334 H 700.082 1.56895 4.13324 0
M  V30 7335 N 699.141 -0.881989 1.30609 0
M  V30 7336 C 700.089 -2.00942 1.17155 0
M  V30 7337 C 701.083 -1.69198 0.0827154 0
M  V30 7338 O 702.289 -1.78342 0.243775 0
M  V30 7339 H 698.664 -0.658913 0.362406 0
M  V30 7340 H 700.635 -2.09423 2.12567 0
M  V30 7341 C 699.384 -3.36294 0.883273 0
M  V30 7342 H 698.707 -3.61233 1.7132 0
M  V30 7343 H 700.147 -4.15812 0.829255 0
M  V30 7344 C 698.606 -3.34348 -0.413851 0
M  V30 7345 O 699.136 -3.75216 -1.43444 0
M  V30 7346 N 697.342 -2.87459 -0.426082 0
M  V30 7347 H 696.889 -2.54397 0.40493 0
M  V30 7348 H 696.847 -2.8654 -1.29391 0
M  V30 7349 N 700.619 -1.13374 -1.09472 0
M  V30 7350 C 701.567 -0.806105 -2.18185 0
M  V30 7351 C 702.561 0.21136 -1.68076 0
M  V30 7352 O 703.767 0.0685558 -1.79869 0
M  V30 7353 H 700.142 -0.242901 -0.71169 0
M  V30 7354 H 702.113 -1.73115 -2.43051 0
M  V30 7355 C 700.862 -0.287928 -3.46506 0
M  V30 7356 H 700.185 -1.06217 -3.85432 0
M  V30 7357 H 701.625 -0.0971054 -4.23889 0
M  V30 7358 C 700.084 0.986256 -3.22141 0
M  V30 7359 O 700.614 2.06217 -3.44728 0
M  V30 7360 N 698.82 0.917153 -2.75747 0
M  V30 7361 H 698.367 0.0414609 -2.57567 0
M  V30 7362 H 698.325 1.77029 -2.59823 0
M  V30 7363 N 702.098 1.27442 -0.927168 0
M  V30 7364 C 703.345 1.94391 -0.567324 0
M  V30 7365 C 703.673 1.72875 0.891321 0
M  V30 7366 O 702.928 1.05071 1.65102 0
M  V30 7367 C 703.227 3.47413 -0.838994 0
M  V30 7368 C 702.893 3.89049 -2.2793 0
M  V30 7369 C 701.555 4.00127 -2.67305 0
M  V30 7370 C 703.907 4.10154 -3.21595 0
M  V30 7371 C 701.235 4.29697 -3.99471 0
M  V30 7372 C 703.587 4.41208 -4.53341 0
M  V30 7373 C 702.251 4.50499 -4.92551 0
M  V30 7374 H 701.521 0.711325 -0.207598 0
M  V30 7375 H 704.168 1.51523 -1.17103 0
M  V30 7376 H 702.473 3.91503 -0.152609 0
M  V30 7377 H 704.17 3.97354 -0.53955 0
M  V30 7378 H 700.76 3.80962 -1.96381 0
M  V30 7379 H 704.944 4.01036 -2.92377 0
M  V30 7380 H 700.2 4.35099 -4.29533 0
M  V30 7381 H 704.374 4.56486 -5.25922 0
M  V30 7382 H 702.001 4.73167 -5.94994 0
M  V30 7383 N 703.576 0.692616 1.41565 0
M  V30 7384 C 704.824 0.221896 2.00878 0
M  V30 7385 C 705.145 -1.18164 1.5512 0
M  V30 7386 O 704.415 -1.79679 0.78054 0
M  V30 7387 H 702.995 0.0790463 0.742806 0
M  V30 7388 H 705.657 0.893115 1.73232 0
M  V30 7389 H 704.753 0.23702 3.11199 0
M  V30 7390 N 705.054 -1.51416 0.437162 0
M  V30 7391 C 705.987 -2.24309 -0.419602 0
M  V30 7392 C 706.965 -1.26236 -1.02485 0
M  V30 7393 O 708.149 -1.5537 -1.06735 0
M  V30 7394 C 705.276 -2.99335 -1.58482 0
M  V30 7395 C 704.322 -4.12064 -1.10027 0
M  V30 7396 S 705.155 -5.35483 -0.0424476 0
M  V30 7397 C 706.311 -6.14047 -1.21234 0
M  V30 7398 H 706.544 -2.96632 0.199259 0
M  V30 7399 H 704.077 -1.528 0.22168 0
M  V30 7400 H 706.035 -3.43159 -2.25282 0
M  V30 7401 H 704.696 -2.26602 -2.17509 0
M  V30 7402 H 703.889 -4.63836 -1.97161 0
M  V30 7403 H 703.491 -3.70499 -0.510507 0
M  V30 7404 H 705.783 -6.43123 -2.13072 0
M  V30 7405 H 706.726 -7.04279 -0.734582 0
M  V30 7406 H 707.134 -5.45538 -1.45082 0
M  V30 7407 N 706.532 -0.168513 -1.56696 0
M  V30 7408 C 707.762 0.482802 -2.0088 0
M  V30 7409 C 708.17 1.57537 -1.0478 0
M  V30 7410 O 707.513 1.83656 -0.0402746 0
M  V30 7411 C 707.575 1.1236 -3.4149 0
M  V30 7412 C 707.239 0.173027 -4.56672 0
M  V30 7413 C 708.236 -0.607565 -5.16338 0
M  V30 7414 C 705.921 0.0696691 -5.02252 0
M  V30 7415 C 707.915 -1.47874 -6.2001 0
M  V30 7416 C 705.602 -0.805096 -6.05773 0
M  V30 7417 C 706.6 -1.57789 -6.64524 0
M  V30 7418 O 706.288 -2.43804 -7.66038 0
M  V30 7419 H 706.02 0.128246 -0.663723 0
M  V30 7420 H 708.574 -0.266532 -2.03663 0
M  V30 7421 H 706.804 1.921 -3.35611 0
M  V30 7422 H 708.493 1.67683 -3.69645 0
M  V30 7423 H 709.259 -0.53787 -4.82008 0
M  V30 7424 H 705.138 0.660957 -4.56237 0
M  V30 7425 H 708.682 -2.0824 -6.65794 0
M  V30 7426 H 704.579 -0.876005 -6.39528 0
M  V30 7427 H 705.347 -2.37289 -7.83349 0
M  V30 7428 N 708.01 1.57248 0.105221 0
M  V30 7429 C 709.24 1.89492 0.823175 0
M  V30 7430 C 709.648 0.75934 1.73294 0
M  V30 7431 O 708.991 -0.278182 1.81581 0
M  V30 7432 C 709.053 3.16891 1.69765 0
M  V30 7433 C 708.717 4.46787 0.960769 0
M  V30 7434 C 709.714 5.19061 0.295218 0
M  V30 7435 C 707.399 4.93467 0.937854 0
M  V30 7436 C 709.393 6.36246 -0.383393 0
M  V30 7437 C 707.08 6.10566 0.255452 0
M  V30 7438 C 708.078 6.81804 -0.404003 0
M  V30 7439 O 707.766 7.96673 -1.07549 0
M  V30 7440 H 707.498 0.631512 0.24118 0
M  V30 7441 H 710.052 2.05203 0.0899655 0
M  V30 7442 H 708.282 2.973 2.47285 0
M  V30 7443 H 709.971 3.35046 2.29126 0
M  V30 7444 H 710.737 4.84044 0.304448 0
M  V30 7445 H 706.616 4.37913 1.44058 0
M  V30 7446 H 710.16 6.91787 -0.898696 0
M  V30 7447 H 706.057 6.45039 0.244032 0
M  V30 7448 H 706.825 8.12596 -0.981355 0
M  V30 7449 N 709.488 -0.375779 1.53054 0
M  V30 7450 C 710.713 -1.14484 1.7294 0
M  V30 7451 C 711.138 -1.82572 0.452668 0
M  V30 7452 O 710.496 -1.71343 -0.592567 0
M  V30 7453 C 710.544 -2.15857 2.88857 0
M  V30 7454 O 709.648 -3.22725 2.56753 0
M  V30 7455 H 708.989 -0.332666 0.574656 0
M  V30 7456 H 711.519 -0.436025 1.999 0
M  V30 7457 H 711.529 -2.59631 3.14731 0
M  V30 7458 H 710.204 -1.65689 3.81471 0
M  V30 7459 H 708.781 -2.83996 2.41663 0
M  V30 7460 N 710.966 -1.44241 -0.634997 0
M  V30 7461 C 711.896 -1.53632 -1.7584 0
M  V30 7462 C 712.877 -0.389603 -1.65578 0
M  V30 7463 O 714.062 -0.609219 -1.84397 0
M  V30 7464 C 711.192 -1.47644 -3.14354 0
M  V30 7465 C 710.146 -2.60752 -3.394 0
M  V30 7466 C 709.472 -2.39817 -4.77904 0
M  V30 7467 C 710.772 -4.02921 -3.32343 0
M  V30 7468 H 712.466 -2.47662 -1.68238 0
M  V30 7469 H 710.012 -1.19197 -0.807969 0
M  V30 7470 H 711.965 -1.52815 -3.92716 0
M  V30 7471 H 710.689 -0.501284 -3.2273 0
M  V30 7472 H 709.348 -2.54965 -2.63417 0
M  V30 7473 H 708.996 -1.40502 -4.82978 0
M  V30 7474 H 708.696 -3.15649 -4.9562 0
M  V30 7475 H 710.22 -2.46799 -5.585 0
M  V30 7476 H 711.634 -4.10098 -4.00615 0
M  V30 7477 H 710.031 -4.78925 -3.61595 0
M  V30 7478 H 711.101 -4.26766 -2.30215 0
M  V30 7479 N 712.444 0.87505 -1.31075 0
M  V30 7480 C 713.407 1.96333 -1.18263 0
M  V30 7481 C 714.407 1.60416 -0.111106 0
M  V30 7482 O 715.597 1.7044 -0.359987 0
M  V30 7483 C 712.729 3.31036 -0.81414 0
M  V30 7484 H 713.922 2.09125 -2.14958 0
M  V30 7485 H 711.475 1.06271 -1.14614 0
M  V30 7486 H 712.21 3.23944 0.151875 0
M  V30 7487 H 711.995 3.58476 -1.58862 0
M  V30 7488 H 713.485 4.10842 -0.748249 0
M  V30 7489 N 713.922 1.13953 1.08869 0
M  V30 7490 C 714.855 0.765765 2.14968 0
M  V30 7491 C 715.833 -0.250689 1.60656 0
M  V30 7492 O 717.017 -0.140852 1.87973 0
M  V30 7493 C 714.144 0.136146 3.38426 0
M  V30 7494 C 713.19 1.12201 4.11477 0
M  V30 7495 S 714.023 2.65711 4.64928 0
M  V30 7496 C 715.179 2.04125 5.91679 0
M  V30 7497 H 715.412 1.66444 2.46341 0
M  V30 7498 H 712.945 0.960263 1.20906 0
M  V30 7499 H 714.903 -0.220712 4.09906 0
M  V30 7500 H 713.564 -0.739887 3.05261 0
M  V30 7501 H 712.757 0.629398 5.00055 0
M  V30 7502 H 712.359 1.42262 3.45886 0
M  V30 7503 H 714.651 1.39381 6.63008 0
M  V30 7504 H 715.594 2.90808 6.45629 0
M  V30 7505 H 716.002 1.4905 5.44467 0
M  V30 7506 N 715.4 -1.26948 0.933913 0
M  V30 7507 C 716.363 -2.24889 0.442457 0
M  V30 7508 C 717.363 -1.54594 -0.442426 0
M  V30 7509 O 718.553 -1.72502 -0.242629 0
M  V30 7510 C 715.685 -3.3896 -0.363173 0
M  V30 7511 H 716.878 -2.69879 1.30787 0
M  V30 7512 H 714.431 -1.38978 0.715187 0
M  V30 7513 H 715.166 -2.99361 -1.24714 0
M  V30 7514 H 714.951 -3.9116 0.271366 0
M  V30 7515 H 716.441 -4.11739 -0.697186 0
M  V30 7516 N 716.879 -0.700114 -1.41195 0
M  V30 7517 C 717.826 -0.0376652 -2.30769 0
M  V30 7518 C 718.796 0.766544 -1.47354 0
M  V30 7519 O 719.981 0.73365 -1.76131 0
M  V30 7520 C 717.121 0.889452 -3.33441 0
M  V30 7521 C 716.234 0.076373 -4.31932 0
M  V30 7522 C 715.369 1.00155 -5.21673 0
M  V30 7523 C 714.408 0.181644 -6.1183 0
M  V30 7524 N 713.545 1.06087 -6.94039 0
M  V30 7525 H 718.385 -0.80726 -2.86858 0
M  V30 7526 H 715.922 -0.409798 -1.41277 0
M  V30 7527 H 717.88 1.44107 -3.91522 0
M  V30 7528 H 716.51 1.6254 -2.78892 0
M  V30 7529 H 715.562 -0.592223 -3.75762 0
M  V30 7530 H 716.874 -0.559076 -4.95657 0
M  V30 7531 H 716.028 1.62223 -5.8461 0
M  V30 7532 H 714.767 1.67085 -4.58186 0
M  V30 7533 H 713.772 -0.452085 -5.47938 0
M  V30 7534 H 714.997 -0.483925 -6.77374 0
M  V30 7535 H 712.943 1.7161 -6.33156 0
M  V30 7536 H 712.86 0.481094 -7.54468 0
M  V30 7537 H 714.128 1.66822 -7.6144 0
M  V30 7538 N 718.357 1.51182 -0.445186 0
M  V30 7539 C 719.289 2.25714 0.398206 0
M  V30 7540 C 720.302 1.30032 0.979562 0
M  V30 7541 O 721.491 1.55731 0.872368 0
M  V30 7542 C 718.591 3.00348 1.56985 0
M  V30 7543 C 717.764 4.23187 1.10596 0
M  V30 7544 C 716.823 4.80334 2.14863 0
M  V30 7545 O 715.849 5.4196 1.73977 0
M  V30 7546 N 717.051 4.65053 3.47427 0
M  V30 7547 H 719.816 2.98732 -0.240629 0
M  V30 7548 H 717.377 1.59556 -0.274507 0
M  V30 7549 H 719.369 3.35464 2.26376 0
M  V30 7550 H 717.939 2.30291 2.11387 0
M  V30 7551 H 717.159 3.93476 0.238832 0
M  V30 7552 H 718.447 5.02886 0.773537 0
M  V30 7553 H 717.845 4.15984 3.83372 0
M  V30 7554 H 716.402 5.04509 4.12691 0
M  V30 7555 N 719.835 0.176821 1.56605 0
M  V30 7556 C 720.782 -0.751312 2.18229 0
M  V30 7557 C 721.752 -1.22297 1.12395 0
M  V30 7558 O 722.937 -1.29015 1.40569 0
M  V30 7559 C 720.077 -1.97291 2.83143 0
M  V30 7560 C 719.19 -1.54431 4.03454 0
M  V30 7561 C 718.325 -2.72 4.56278 0
M  V30 7562 C 717.364 -2.25657 5.68986 0
M  V30 7563 N 716.501 -3.36338 6.16296 0
M  V30 7564 H 721.341 -0.219033 2.97194 0
M  V30 7565 H 718.878 -0.0963803 1.46784 0
M  V30 7566 H 720.836 -2.68949 3.1894 0
M  V30 7567 H 719.466 -2.4788 2.06773 0
M  V30 7568 H 718.518 -0.724273 3.73441 0
M  V30 7569 H 719.83 -1.16417 4.85024 0
M  V30 7570 H 718.984 -3.51806 4.94285 0
M  V30 7571 H 717.723 -3.13277 3.73777 0
M  V30 7572 H 716.728 -1.44299 5.30526 0
M  V30 7573 H 717.953 -1.85432 6.53293 0
M  V30 7574 H 715.899 -3.7718 5.36723 0
M  V30 7575 H 715.816 -3.02435 6.9287 0
M  V30 7576 H 717.084 -4.16413 6.58954 0
M  V30 7577 N 721.313 -1.57302 -0.09688 0
M  V30 7578 C 722.243 -2.0497 -1.11846 0
M  V30 7579 C 723.224 -0.938278 -1.41882 0
M  V30 7580 O 724.409 -1.20943 -1.51942 0
M  V30 7581 C 721.539 -2.47264 -2.43881 0
M  V30 7582 C 720.493 -3.62053 -2.28257 0
M  V30 7583 C 719.819 -3.90318 -3.65453 0
M  V30 7584 C 721.119 -4.93005 -1.72461 0
M  V30 7585 H 722.813 -2.90567 -0.721888 0
M  V30 7586 H 720.359 -1.39786 -0.345803 0
M  V30 7587 H 722.312 -2.7922 -3.15617 0
M  V30 7588 H 721.036 -1.58664 -2.8547 0
M  V30 7589 H 719.695 -3.30341 -1.58967 0
M  V30 7590 H 719.343 -2.98889 -4.04567 0
M  V30 7591 H 719.043 -4.67597 -3.55846 0
M  V30 7592 H 720.567 -4.24747 -4.3866 0
M  V30 7593 H 721.981 -5.23354 -2.34036 0
M  V30 7594 H 720.378 -5.74436 -1.73618 0
M  V30 7595 H 721.448 -4.80053 -0.683898 0
M  V30 7596 N 722.791 0.367657 -1.53252 0
M  V30 7597 C 724.202 0.944563 -1.61043 0
M  V30 7598 C 724.553 1.90325 -0.476546 0
M  V30 7599 O 723.678 2.12721 0.397333 0
M  V30 7600 C 724.273 1.71992 -2.91898 0
M  V30 7601 C 722.832 2.2462 -3.02031 0
M  V30 7602 C 721.979 1.05799 -2.56324 0
M  V30 7603 H 724.93 0.146516 -1.58022 0
M  V30 7604 H 724.951 2.58095 -2.79584 0
M  V30 7605 H 724.463 1.02192 -3.74404 0
M  V30 7606 H 722.564 2.97668 -2.24108 0
M  V30 7607 H 722.677 2.52644 -4.07073 0
M  V30 7608 H 721.041 1.42435 -2.1115 0
M  V30 7609 H 721.824 0.375008 -3.41246 0
M  V30 7610 N 724.269 1.44576 0.627338 0
M  V30 7611 C 725.685 1.28546 0.945938 0
M  V30 7612 C 725.885 0.224003 2.00251 0
M  V30 7613 O 724.941 -0.388817 2.49488 0
M  V30 7614 C 726.254 2.65825 1.40561 0
M  V30 7615 C 727.802 2.73566 1.52088 0
M  V30 7616 C 728.277 4.11323 2.01438 0
M  V30 7617 N 729.768 4.13519 2.08702 0
M  V30 7618 C 730.503 5.16964 2.48065 0
M  V30 7619 N 729.999 6.30768 2.86538 0
M  V30 7620 N 731.792 5.04319 2.48232 0
M  V30 7621 H 723.943 2.1228 -0.0713567 0
M  V30 7622 H 726.206 0.947503 0.0307081 0
M  V30 7623 H 725.912 3.44591 0.703539 0
M  V30 7624 H 725.786 2.92969 2.37591 0
M  V30 7625 H 728.173 1.95116 2.21391 0
M  V30 7626 H 728.254 2.50159 0.534237 0
M  V30 7627 H 727.898 4.9025 1.32729 0
M  V30 7628 H 727.828 4.32109 3.0098 0
M  V30 7629 H 730.319 3.31385 1.81638 0
M  V30 7630 H 730.632 7.0551 3.15398 0
M  V30 7631 H 728.977 6.342 2.84281 0
M  V30 7632 H 732.168 4.14465 2.17569 0
M  V30 7633 H 732.341 5.85059 2.78585 0
M  V30 7634 N 725.747 -0.868086 1.31537 0
M  V30 7635 C 726.694 -1.97548 1.19346 0
M  V30 7636 C 727.664 -1.65913 0.0787922 0
M  V30 7637 O 728.849 -1.89129 0.251985 0
M  V30 7638 C 725.989 -3.32922 0.908692 0
M  V30 7639 C 725.102 -3.77141 2.10687 0
M  V30 7640 C 724.237 -5.01241 1.75873 0
M  V30 7641 C 723.276 -5.37914 2.92088 0
M  V30 7642 N 722.413 -6.53192 2.57457 0
M  V30 7643 H 727.253 -2.07307 2.14074 0
M  V30 7644 H 724.79 -1.01483 1.06487 0
M  V30 7645 H 726.748 -4.10867 0.724138 0
M  V30 7646 H 725.378 -3.228 -0.0017611 0
M  V30 7647 H 724.43 -2.94961 2.40213 0
M  V30 7648 H 725.742 -4.00248 2.97663 0
M  V30 7649 H 724.896 -5.86858 1.53891 0
M  V30 7650 H 723.635 -4.80041 0.86091 0
M  V30 7651 H 722.64 -4.50814 3.14717 0
M  V30 7652 H 723.865 -5.61077 3.82582 0
M  V30 7653 H 721.811 -6.33536 1.702 0
M  V30 7654 H 721.728 -6.76252 3.37963 0
M  V30 7655 H 722.996 -7.41997 2.38873 0
M  V30 7656 N 727.225 -1.14528 -1.08264 0
M  V30 7657 C 728.641 -0.885976 -1.3275 0
M  V30 7658 C 728.841 0.472096 -1.95892 0
M  V30 7659 O 727.897 1.21606 -2.21288 0
M  V30 7660 C 729.21 -2.01982 -2.22764 0
M  V30 7661 C 730.758 -2.05329 -2.36239 0
M  V30 7662 C 731.233 -3.1801 -3.29596 0
M  V30 7663 N 732.724 -3.17598 -3.37173 0
M  V30 7664 C 733.459 -4.01426 -4.09444 0
M  V30 7665 N 732.955 -4.95297 -4.8441 0
M  V30 7666 N 734.748 -3.89482 -4.0529 0
M  V30 7667 H 726.899 -2.01996 -0.656607 0
M  V30 7668 H 729.162 -0.880274 -0.351884 0
M  V30 7669 H 728.868 -2.99964 -1.83615 0
M  V30 7670 H 728.742 -1.94421 -3.23234 0
M  V30 7671 H 731.129 -1.07953 -2.74646 0
M  V30 7672 H 731.21 -2.1696 -1.35506 0
M  V30 7673 H 730.854 -4.15633 -2.9191 0
M  V30 7674 H 730.784 -3.03616 -4.30261 0
M  V30 7675 H 733.275 -2.4961 -2.83731 0
M  V30 7676 H 733.588 -5.55723 -5.37021 0
M  V30 7677 H 731.933 -4.99293 -4.83457 0
M  V30 7678 H 735.124 -3.15465 -3.45832 0
M  V30 7679 H 735.297 -4.55039 -4.6135 0
M  V30 7680 N 728.703 1.26451 -0.940633 0
M  V30 7681 C 729.65 2.264 -0.448497 0
M  V30 7682 C 730.62 1.5866 0.491546 0
M  V30 7683 O 731.805 1.86389 0.407874 0
M  V30 7684 C 728.945 3.43956 0.280715 0
M  V30 7685 C 728.058 4.26374 -0.694937 0
M  V30 7686 C 727.193 5.31171 0.0554186 0
M  V30 7687 C 726.232 6.05266 -0.912091 0
M  V30 7688 N 725.369 7.01833 -0.193524 0
M  V30 7689 H 730.209 2.67869 -1.30576 0
M  V30 7690 H 727.746 1.31707 -0.655112 0
M  V30 7691 H 729.704 4.10941 0.71994 0
M  V30 7692 H 728.334 3.03403 1.10212 0
M  V30 7693 H 727.386 3.59183 -1.25267 0
M  V30 7694 H 728.698 4.77748 -1.43382 0
M  V30 7695 H 727.852 6.04166 0.553951 0
M  V30 7696 H 726.591 4.80634 0.827183 0
M  V30 7697 H 725.596 5.31099 -1.42175 0
M  V30 7698 H 726.821 6.57893 -1.68385 0
M  V30 7699 H 724.767 6.53607 0.559758 0
M  V30 7700 H 724.684 7.50957 -0.871744 0
M  V30 7701 H 725.952 7.78983 0.283932 0
M  V30 7702 N 730.181 0.707592 1.40822 0
M  V30 7703 C 731.128 0.0499029 2.30746 0
M  V30 7704 C 732.098 -0.758718 1.47759 0
M  V30 7705 O 733.283 -0.724299 1.76518 0
M  V30 7706 C 730.423 -0.871756 3.33908 0
M  V30 7707 C 729.536 -0.0534655 4.31967 0
M  V30 7708 C 728.671 -0.973869 5.22197 0
M  V30 7709 C 727.71 -0.149194 6.11918 0
M  V30 7710 N 726.847 -1.02404 6.94592 0
M  V30 7711 H 731.687 0.822461 2.86426 0
M  V30 7712 H 729.224 0.417285 1.41057 0
M  V30 7713 H 731.182 -1.42028 3.9228 0
M  V30 7714 H 729.812 -1.61058 2.7975 0
M  V30 7715 H 728.864 0.612142 3.75442 0
M  V30 7716 H 730.176 0.585354 4.95353 0
M  V30 7717 H 729.33 -1.59121 5.85462 0
M  V30 7718 H 728.069 -1.64652 4.59065 0
M  V30 7719 H 727.074 0.481137 5.47691 0
M  V30 7720 H 728.299 0.519841 6.77107 0
M  V30 7721 H 726.245 -1.6825 6.34057 0
M  V30 7722 H 726.162 -0.441076 7.54712 0
M  V30 7723 H 727.43 -1.62782 7.62314 0
M  V30 7724 N 731.66 -1.50943 0.453197 0
M  V30 7725 C 732.61 -2.25003 -0.368467 0
M  V30 7726 C 733.594 -1.27864 -0.976714 0
M  V30 7727 O 734.786 -1.52867 -0.892228 0
M  V30 7728 C 731.915 -3.10701 -1.46014 0
M  V30 7729 C 731.001 -4.15278 -0.860506 0
M  V30 7730 N 731.392 -5.05799 0.00849611 0
M  V30 7731 C 729.69 -4.31542 -1.1264 0
M  V30 7732 C 730.391 -5.80664 0.346951 0
M  V30 7733 N 729.367 -5.42912 -0.273426 0
M  V30 7734 H 733.169 -2.92352 0.301246 0
M  V30 7735 H 730.683 -1.60203 0.266233 0
M  V30 7736 H 732.68 -3.62348 -2.06179 0
M  V30 7737 H 731.34 -2.44898 -2.13202 0
M  V30 7738 H 732.351 -5.16533 0.376077 0
M  V30 7739 H 729.028 -3.76962 -1.7946 0
M  V30 7740 H 730.418 -6.63565 1.05507 0
M  V30 7741 N 733.138 -0.185124 -1.56509 0
M  V30 7742 C 734.387 0.456421 -1.96468 0
M  V30 7743 C 734.7 1.63448 -1.07444 0
M  V30 7744 O 735.906 2.34316 -1.37143 0
M  V30 7745 C 734.362 0.863404 -3.4939 0
M  V30 7746 C 733.97 -0.289815 -4.47062 0
M  V30 7747 C 735.714 1.47259 -3.98139 0
M  V30 7748 C 733.621 0.137571 -5.9124 0
M  V30 7749 H 732.551 0.17429 -0.733579 0
M  V30 7750 H 735.202 -0.275554 -1.81419 0
M  V30 7751 H 733.584 1.65176 -3.59907 0
M  V30 7752 H 734.758 -1.06728 -4.4827 0
M  V30 7753 H 733.073 -0.809851 -4.08449 0
M  V30 7754 H 735.67 1.80463 -5.03326 0
M  V30 7755 H 736.013 2.3755 -3.41871 0
M  V30 7756 H 736.546 0.748405 -3.90696 0
M  V30 7757 H 733.285 -0.730907 -6.51412 0
M  V30 7758 H 732.805 0.8801 -5.93308 0
M  V30 7759 H 734.484 0.576771 -6.44424 0
M  V30 7760 N 734.616 1.57351 0.0885366 0
M  V30 7761 C 736.027 1.75303 0.642308 0
M  V30 7762 C 736.378 0.808238 1.78779 0
M  V30 7763 O 735.503 -0.01171 2.16397 0
M  V30 7764 C 736.098 3.17885 1.17194 0
M  V30 7765 C 734.657 3.37239 1.67172 0
M  V30 7766 C 733.804 2.7108 0.584045 0
M  V30 7767 H 736.755 1.58103 -0.137567 0
M  V30 7768 H 736.776 3.2112 2.04114 0
M  V30 7769 H 736.288 3.86625 0.338024 0
M  V30 7770 H 734.389 2.73588 2.52943 0
M  V30 7771 H 734.502 4.45594 1.76019 0
M  V30 7772 H 732.866 2.33161 1.02508 0
M  V30 7773 H 733.649 3.42464 -0.239403 0
M  V30 7774 N 736.094 -0.359525 1.53444 0
M  V30 7775 C 737.505 -0.936009 1.61542 0
M  V30 7776 C 737.856 -1.90069 0.486633 0
M  V30 7777 O 736.981 -2.12929 -0.386047 0
M  V30 7778 C 737.576 -1.70441 2.92806 0
M  V30 7779 C 736.135 -2.23015 3.03218 0
M  V30 7780 C 735.282 -1.04438 2.56881 0
M  V30 7781 H 738.233 -0.138134 1.58098 0
M  V30 7782 H 738.254 -2.56609 2.80948 0
M  V30 7783 H 737.766 -1.00205 3.74941 0
M  V30 7784 H 735.867 -2.96475 2.25684 0
M  V30 7785 H 735.98 -2.50481 4.08407 0
M  V30 7786 H 734.344 -1.41314 2.11902 0
M  V30 7787 H 735.127 -0.356905 3.4144 0
M  V30 7788 N 737.572 -1.44907 -0.619662 0
M  V30 7789 C 738.535 -1.52282 -1.71297 0
M  V30 7790 C 739.535 -0.40359 -1.55653 0
M  V30 7791 O 740.725 -0.666638 -1.6094 0
M  V30 7792 C 737.857 -1.40778 -3.10474 0
M  V30 7793 H 739.05 -2.49683 -1.66128 0
M  V30 7794 H 736.603 -1.32168 -0.834339 0
M  V30 7795 H 737.338 -0.445156 -3.2123 0
M  V30 7796 H 737.123 -2.21947 -3.23237 0
M  V30 7797 H 738.613 -1.48946 -3.90135 0
M  V30 7798 N 739.05 0.861098 -1.31996 0
M  V30 7799 C 740.461 1.43065 -1.19955 0
M  V30 7800 C 740.812 1.95273 0.190489 0
M  V30 7801 O 739.937 1.87012 1.08882 0
M  V30 7802 C 740.532 2.60052 -2.1716 0
M  V30 7803 C 739.091 3.13026 -2.09026 0
M  V30 7804 C 738.238 1.85756 -2.05888 0
M  V30 7805 H 741.189 0.668834 -1.43918 0
M  V30 7806 H 741.21 3.37016 -1.76637 0
M  V30 7807 H 740.722 2.22024 -3.18319 0
M  V30 7808 H 738.823 3.55653 -1.11092 0
M  V30 7809 H 738.936 3.74707 -2.98549 0
M  V30 7810 H 737.3 2.05088 -1.51033 0
M  V30 7811 H 738.083 1.49954 -3.08818 0
M  V30 7812 N 740.528 1.15101 1.07655 0
M  V30 7813 C 741.46 0.802722 2.14684 0
M  V30 7814 C 742.473 -0.183874 1.61758 0
M  V30 7815 O 743.662 0.0389349 1.78458 0
M  V30 7816 C 740.762 0.172135 3.38463 0
M  V30 7817 C 739.935 1.19538 4.20749 0
M  V30 7818 C 738.994 0.58714 5.22914 0
M  V30 7819 O 738.02 1.25224 5.55255 0
M  V30 7820 N 739.222 -0.632566 5.77043 0
M  V30 7821 H 741.987 1.72379 2.45164 0
M  V30 7822 H 739.548 1.04647 1.23534 0
M  V30 7823 H 741.54 -0.247465 4.03943 0
M  V30 7824 H 740.11 -0.652214 3.0572 0
M  V30 7825 H 739.33 1.79165 3.51132 0
M  V30 7826 H 740.618 1.88636 4.7254 0
M  V30 7827 H 740.016 -1.19135 5.53013 0
M  V30 7828 H 738.573 -0.994566 6.44167 0
M  V30 7829 N 742.006 -1.2595 0.947325 0
M  V30 7830 C 742.969 -2.24407 0.466285 0
M  V30 7831 C 743.969 -1.55054 -0.426005 0
M  V30 7832 O 745.159 -1.7275 -0.224319 0
M  V30 7833 C 742.291 -3.39326 -0.327201 0
M  V30 7834 H 743.484 -2.68477 1.33642 0
M  V30 7835 H 741.037 -1.38211 0.729887 0
M  V30 7836 H 741.772 -3.00667 -1.21532 0
M  V30 7837 H 741.557 -3.9085 0.312839 0
M  V30 7838 H 743.047 -4.12455 -0.653477 0
M  V30 7839 N 743.484 -0.715051 -1.40445 0
M  V30 7840 C 744.709 -0.26254 -2.05732 0
M  V30 7841 C 745.134 1.08691 -1.53519 0
M  V30 7842 O 744.492 1.68453 -0.670328 0
M  V30 7843 C 744.54 -0.25195 -3.59719 0
M  V30 7844 O 743.644 0.766998 -4.05205 0
M  V30 7845 H 742.985 -0.123398 -0.652433 0
M  V30 7846 H 745.515 -0.975382 -1.79854 0
M  V30 7847 H 745.525 -0.0894537 -4.07902 0
M  V30 7848 H 744.2 -1.23672 -3.97087 0
M  V30 7849 H 742.777 0.572269 -3.68483 0
M  V30 7850 N 744.962 1.50701 -0.461195 0
M  V30 7851 C 746.187 2.07171 0.0974773 0
M  V30 7852 C 746.612 1.32391 1.3362 0
M  V30 7853 O 745.97 0.368676 1.77512 0
M  V30 7854 C 746.018 3.58651 0.374409 0
M  V30 7855 O 745.122 3.85816 1.4567 0
M  V30 7856 H 744.463 0.663944 -0.00862047 0
M  V30 7857 H 746.993 1.94021 -0.649394 0
M  V30 7858 H 747.003 4.03295 0.617843 0
M  V30 7859 H 745.678 4.12498 -0.530829 0
M  V30 7860 H 744.255 3.53018 1.20136 0
M  V30 7861 N 746.441 0.193421 1.56409 0
M  V30 7862 C 747.852 -0.319471 1.83946 0
M  V30 7863 C 748.203 -1.61505 1.11403 0
M  V30 7864 O 747.328 -2.13139 0.374289 0
M  V30 7865 C 747.923 -0.586411 3.33686 0
M  V30 7866 C 746.482 -1.04368 3.61641 0
M  V30 7867 C 745.629 -0.0913834 2.77149 0
M  V30 7868 H 748.58 0.417242 1.53117 0
M  V30 7869 H 748.601 -1.43591 3.52366 0
M  V30 7870 H 748.113 0.356701 3.86457 0
M  V30 7871 H 746.214 -2.00113 3.14302 0
M  V30 7872 H 746.327 -0.937549 4.69837 0
M  V30 7873 H 744.691 -0.592954 2.47702 0
M  V30 7874 H 745.474 0.846142 3.32709 0
M  V30 7875 N 747.919 -1.57396 -0.0801906 0
M  V30 7876 C 749.147 -1.91055 -0.794075 0
M  V30 7877 C 749.562 -0.788583 -1.71542 0
M  V30 7878 O 748.919 0.238587 -1.80934 0
M  V30 7879 C 748.97 -3.24418 -1.59484 0
M  V30 7880 O 748.691 -4.323 -0.710532 0
M  V30 7881 C 750.192 -3.72037 -2.41046 0
M  V30 7882 H 747.412 -0.63171 -0.226238 0
M  V30 7883 H 749.956 -2.04431 -0.0529685 0
M  V30 7884 H 748.111 -3.12595 -2.2883 0
M  V30 7885 H 748.525 -5.08976 -1.26663 0
M  V30 7886 H 749.999 -4.68006 -2.92702 0
M  V30 7887 H 750.476 -3.00624 -3.2019 0
M  V30 7888 H 751.082 -3.86777 -1.76871 0
M  V30 7889 N 749.397 0.351382 -1.53633 0
M  V30 7890 C 750.644 1.0925 -1.70502 0
M  V30 7891 C 750.972 1.88881 -0.464123 0
M  V30 7892 O 750.227 1.87693 0.554077 0
M  V30 7893 C 750.526 2.06744 -2.91533 0
M  V30 7894 C 750.192 1.43484 -4.27461 0
M  V30 7895 C 748.854 1.2596 -4.64422 0
M  V30 7896 C 751.206 0.978436 -5.11934 0
M  V30 7897 C 748.534 0.614017 -5.83478 0
M  V30 7898 C 750.886 0.346795 -6.31649 0
M  V30 7899 C 749.55 0.15917 -6.6731 0
M  V30 7900 H 748.82 0.399773 -0.623909 0
M  V30 7901 H 751.467 0.372656 -1.87839 0
M  V30 7902 H 749.772 2.85082 -2.68767 0
M  V30 7903 H 751.469 2.64066 -3.01778 0
M  V30 7904 H 748.059 1.5812 -3.98367 0
M  V30 7905 H 752.243 1.1017 -4.83918 0
M  V30 7906 H 747.499 0.457194 -6.09688 0
M  V30 7907 H 751.673 -0.0149864 -6.96398 0
M  V30 7908 H 749.3 -0.343129 -7.59425 0
M  V30 7909 N 750.875 1.45233 0.611969 0
M  V30 7910 C 752.115 1.50558 1.38245 0
M  V30 7911 C 752.479 0.141959 1.91474 0
M  V30 7912 O 753.68 0.0698926 2.68709 0
M  V30 7913 C 751.951 2.55136 2.50281 0
M  V30 7914 S 753.51 2.79652 3.38142 0
M  V30 7915 H 750.328 0.532281 0.471378 0
M  V30 7916 H 752.93 1.82285 0.706578 0
M  V30 7917 H 751.634 3.52888 2.09518 0
M  V30 7918 H 751.165 2.25045 3.22674 0
M  V30 7919 H 753.18 2.12699 4.48301 0
M  V30 7920 N 752.353 -0.854086 1.3245 0
M  V30 7921 C 753.3 -1.96271 1.21434 0
M  V30 7922 C 754.27 -1.6582 0.0963851 0
M  V30 7923 O 755.455 -1.88851 0.27203 0
M  V30 7924 C 752.595 -3.31939 0.943952 0
M  V30 7925 C 751.708 -3.74885 2.14675 0
M  V30 7926 C 750.843 -4.99347 1.81179 0
M  V30 7927 C 749.882 -5.34785 2.97777 0
M  V30 7928 N 749.019 -6.50425 2.6437 0
M  V30 7929 H 753.859 -2.05025 2.16261 0
M  V30 7930 H 751.396 -1.00348 1.07558 0
M  V30 7931 H 753.354 -4.10076 0.767675 0
M  V30 7932 H 751.984 -3.22784 0.0324763 0
M  V30 7933 H 751.036 -2.92396 2.43328 0
M  V30 7934 H 752.348 -3.97068 3.01891 0
M  V30 7935 H 751.502 -5.85193 1.60107 0
M  V30 7936 H 750.241 -4.79101 0.911777 0
M  V30 7937 H 749.246 -4.47451 3.1948 0
M  V30 7938 H 750.471 -5.56988 3.88511 0
M  V30 7939 H 748.417 -6.31695 1.7691 0
M  V30 7940 H 748.334 -6.7263 3.45116 0
M  V30 7941 H 749.602 -7.39422 2.46729 0
M  V30 7942 N 753.831 -1.1567 -1.07043 0
M  V30 7943 C 755.059 -0.957471 -1.83412 0
M  V30 7944 C 755.474 0.494271 -1.82215 0
M  V30 7945 O 754.831 1.34288 -1.23584 0
M  V30 7946 C 754.882 -1.46784 -3.30359 0
M  V30 7947 O 754.603 -2.86271 -3.31633 0
M  V30 7948 C 756.104 -1.31054 -4.23485 0
M  V30 7949 H 753.324 -0.33986 -0.578564 0
M  V30 7950 H 755.868 -1.53518 -1.35102 0
M  V30 7951 H 754.023 -0.932586 -3.76007 0
M  V30 7952 H 754.437 -3.0948 -4.23465 0
M  V30 7953 H 755.911 -1.71605 -5.24648 0
M  V30 7954 H 756.388 -0.255107 -4.38458 0
M  V30 7955 H 756.994 -1.83503 -3.83676 0
M  V30 7956 N 755.309 1.25446 -0.953992 0
M  V30 7957 C 756.219 2.29632 -0.480264 0
M  V30 7958 C 757.235 1.68025 0.452071 0
M  V30 7959 O 758.411 1.98703 0.328472 0
M  V30 7960 C 755.476 3.45903 0.234974 0
M  V30 7961 C 754.537 4.22953 -0.735495 0
M  V30 7962 C 753.77 5.33672 -0.0542957 0
M  V30 7963 O 753.993 5.58477 1.16018 0
M  V30 7964 O 752.927 5.9734 -0.739509 0
M  V30 7965 H 756.753 2.72242 -1.34602 0
M  V30 7966 H 754.338 1.30883 -0.720419 0
M  V30 7967 H 756.22 4.16552 0.637341 0
M  V30 7968 H 754.895 3.05296 1.07592 0
M  V30 7969 H 753.802 3.54734 -1.18806 0
M  V30 7970 H 755.135 4.67341 -1.54444 0
M  V30 7971 N 756.787 0.722489 1.40064 0
M  V30 7972 C 757.717 0.0892452 2.33329 0
M  V30 7973 C 758.698 -0.737992 1.53257 0
M  V30 7974 O 759.883 -0.685516 1.81698 0
M  V30 7975 C 757.013 -0.828139 3.37282 0
M  V30 7976 C 755.967 -0.106005 4.27869 0
M  V30 7977 C 755.293 -1.13957 5.22415 0
M  V30 7978 C 756.593 1.04395 5.11761 0
M  V30 7979 H 758.287 0.868269 2.86534 0
M  V30 7980 H 755.833 0.418982 1.3777 0
M  V30 7981 H 757.786 -1.28058 4.01471 0
M  V30 7982 H 756.51 -1.63914 2.82489 0
M  V30 7983 H 755.169 0.326683 3.65142 0
M  V30 7984 H 754.817 -1.9438 4.63924 0
M  V30 7985 H 754.517 -0.661233 5.83868 0
M  V30 7986 H 756.041 -1.59197 5.89482 0
M  V30 7987 H 757.455 0.670541 5.69365 0
M  V30 7988 H 755.852 1.4511 5.82291 0
M  V30 7989 H 756.922 1.87144 4.47331 0
M  V30 7990 N 758.265 -1.50454 0.469181 0
M  V30 7991 C 759.213 -2.30101 -0.340033 0
M  V30 7992 C 760.207 -1.37306 -0.992135 0
M  V30 7993 O 761.413 -1.54506 -0.923458 0
M  V30 7994 H 757.788 -0.740941 -0.128495 0
M  V30 7995 H 759.759 -2.96315 0.352144 0
M  V30 7996 C 758.508 -3.17804 -1.41052 0
M  V30 7997 H 757.831 -3.89115 -0.918124 0
M  V30 7998 H 759.271 -3.76533 -1.94934 0
M  V30 7999 C 757.73 -2.35272 -2.4114 0
M  V30 8000 O 758.26 -2.03448 -3.4637 0
M  V30 8001 N 756.466 -1.97889 -2.1281 0
M  V30 8002 H 756.013 -2.2397 -1.27261 0
M  V30 8003 H 755.971 -1.42971 -2.80012 0
M  V30 8004 N 759.743 -0.201713 -1.56304 0
M  V30 8005 C 760.676 0.755976 -2.15314 0
M  V30 8006 C 761.654 1.20497 -1.09175 0
M  V30 8007 O 762.838 1.2913 -1.37323 0
M  V30 8008 C 759.965 2.02177 -2.71739 0
M  V30 8009 C 759.011 1.71436 -3.90528 0
M  V30 8010 S 759.844 0.856624 -5.28604 0
M  V30 8011 C 761 2.13242 -5.88455 0
M  V30 8012 H 761.233 0.254348 -2.9621 0
M  V30 8013 H 758.766 0.0133669 -1.54394 0
M  V30 8014 H 760.724 2.74867 -3.04891 0
M  V30 8015 H 759.385 2.49452 -1.90873 0
M  V30 8016 H 758.578 2.65433 -4.28441 0
M  V30 8017 H 758.18 1.06823 -3.5842 0
M  V30 8018 H 760.472 3.08435 -6.0322 0
M  V30 8019 H 761.415 1.7975 -6.84905 0
M  V30 8020 H 761.823 2.2639 -5.17115 0
M  V30 8021 N 761.222 1.57436 0.0718424 0
M  V30 8022 C 762.185 2.02703 1.06977 0
M  V30 8023 C 763.185 0.924062 1.31597 0
M  V30 8024 O 764.375 1.18894 1.27318 0
M  V30 8025 C 761.507 2.40763 2.41342 0
M  V30 8026 H 762.7 2.92098 0.679619 0
M  V30 8027 H 760.253 1.5304 0.317565 0
M  V30 8028 H 760.988 1.54394 2.8519 0
M  V30 8029 H 760.773 3.21249 2.24814 0
M  V30 8030 H 762.263 2.76361 3.13073 0
M  V30 8031 N 762.7 -0.34323 1.53817 0
M  V30 8032 C 763.94 -1.09188 1.72793 0
M  V30 8033 C 764.304 -1.85876 0.481062 0
M  V30 8034 O 765.505 -2.63158 0.547851 0
M  V30 8035 C 763.776 -2.00783 2.9567 0
M  V30 8036 S 765.335 -2.82866 3.35459 0
M  V30 8037 H 762.153 -0.368926 0.607795 0
M  V30 8038 H 764.755 -0.370265 1.91962 0
M  V30 8039 H 763.459 -1.43245 3.84589 0
M  V30 8040 H 762.99 -2.77381 2.78968 0
M  V30 8041 H 765.005 -4.03196 2.89218 0
M  V30 8042 N 764.178 -1.45556 -0.604258 0
M  V30 8043 C 765.126 -1.5482 -1.7359 0
M  V30 8044 C 766.12 -0.417966 -1.64163 0
M  V30 8045 O 767.326 -0.594007 -1.69916 0
M  V30 8046 H 763.701 -0.486352 -0.573556 0
M  V30 8047 H 765.672 -2.5001 -1.62903 0
M  V30 8048 C 764.421 -1.53521 -3.11972 0
M  V30 8049 H 763.744 -2.39818 -3.19886 0
M  V30 8050 H 765.184 -1.64061 -3.90973 0
M  V30 8051 C 763.643 -0.260191 -3.35894 0
M  V30 8052 O 764.173 0.658582 -3.96265 0
M  V30 8053 N 762.379 -0.154839 -2.90187 0
M  V30 8054 H 761.926 -0.903378 -2.4124 0
M  V30 8055 H 761.884 0.697437 -3.06567 0
M  V30 8056 N 765.656 0.84705 -1.32902 0
M  V30 8057 C 766.881 1.63925 -1.27056 0
M  V30 8058 C 767.306 1.87443 0.157136 0
M  V30 8059 O 766.664 1.43266 1.11106 0
M  V30 8060 C 766.712 2.97134 -2.04313 0
M  V30 8061 O 765.816 3.88049 -1.39614 0
M  V30 8062 H 765.157 0.499477 -0.437514 0
M  V30 8063 H 767.687 1.05443 -1.75336 0
M  V30 8064 H 767.697 3.46896 -2.14772 0
M  V30 8065 H 766.372 2.79339 -3.08128 0
M  V30 8066 H 764.949 3.46525 -1.3775 0
M  V30 8067 N 767.134 1.16236 1.06428 0
M  V30 8068 C 768.362 0.967184 1.82902 0
M  V30 8069 C 768.777 -0.484601 1.82475 0
M  V30 8070 O 768.134 -1.33631 1.24294 0
M  V30 8071 C 768.185 1.48534 3.29576 0
M  V30 8072 O 767.906 2.88026 3.3011 0
M  V30 8073 C 769.407 1.33298 4.22784 0
M  V30 8074 H 766.627 0.342923 0.576754 0
M  V30 8075 H 769.171 1.54232 1.34286 0
M  V30 8076 H 767.326 0.952513 3.75508 0
M  V30 8077 H 767.74 3.11721 4.21818 0
M  V30 8078 H 769.214 1.74385 5.23731 0
M  V30 8079 H 769.691 0.278356 4.38317 0
M  V30 8080 H 770.297 1.85535 3.82697 0
M  V30 8081 N 768.612 -1.24939 0.960631 0
M  V30 8082 C 769.544 -2.24879 0.442937 0
M  V30 8083 C 770.557 -1.56615 -0.444464 0
M  V30 8084 O 771.746 -1.76715 -0.251776 0
M  V30 8085 C 768.846 -3.36757 -0.380537 0
M  V30 8086 C 768.019 -4.34587 0.495283 0
M  V30 8087 C 767.078 -5.25502 -0.270995 0
M  V30 8088 O 766.104 -5.68227 0.332661 0
M  V30 8089 N 767.306 -5.59077 -1.56249 0
M  V30 8090 H 770.071 -2.69932 1.30218 0
M  V30 8091 H 767.632 -1.38907 0.83166 0
M  V30 8092 H 769.624 -3.94542 -0.90103 0
M  V30 8093 H 768.194 -2.91045 -1.14067 0
M  V30 8094 H 767.414 -3.75593 1.19682 0
M  V30 8095 H 768.702 -4.96925 1.09285 0
M  V30 8096 H 768.1 -5.2628 -2.07476 0
M  V30 8097 H 766.657 -6.19421 -2.02882 0
M  V30 8098 N 770.09 -0.729906 -1.39679 0
M  V30 8099 C 771.315 -0.284345 -2.05442 0
M  V30 8100 C 771.74 1.07056 -1.54663 0
M  V30 8101 O 771.098 1.67732 -0.688157 0
M  V30 8102 C 771.146 -0.290089 -3.59431 0
M  V30 8103 O 770.25 0.723978 -4.05995 0
M  V30 8104 H 769.591 -0.130311 -0.651088 0
M  V30 8105 H 772.121 -0.994403 -1.78809 0
M  V30 8106 H 772.131 -0.132712 -4.07784 0
M  V30 8107 H 770.806 -1.27877 -3.95753 0
M  V30 8108 H 769.383 0.533154 -3.69069 0
M  V30 8109 N 771.568 1.50203 -0.477153 0
M  V30 8110 C 772.845 1.95115 0.137609 0
M  V30 8111 C 773.225 1.41778 1.56404 0
M  V30 8112 O 772.573 0.621333 2.1989 0
M  V30 8113 C 772.783 3.4892 0.0747168 0
M  V30 8114 C 774.131 4.238 0.260585 0
M  V30 8115 O 775.155 3.5588 0.151021 0
M  V30 8116 O 774.014 5.44366 0.482534 0
M  V30 8117 H 771.108 0.81987 0.108364 0
M  V30 8118 H 773.654 1.60946 -0.537989 0
M  V30 8119 H 772.426 3.80308 -0.920966 0
M  V30 8120 H 772.049 3.89642 0.791509 0
M  V30 8121 N 773.046 0.209999 1.56195 0
M  V30 8122 C 774.274 -0.429996 2.02382 0
M  V30 8123 C 774.689 -1.54159 1.08998 0
M  V30 8124 O 774.046 -1.82239 0.0974856 0
M  V30 8125 C 774.097 -0.972433 3.48175 0
M  V30 8126 O 773.818 0.0948231 4.37997 0
M  V30 8127 C 775.319 -1.68683 4.09952 0
M  V30 8128 H 772.539 -0.106475 0.662498 0
M  V30 8129 H 775.083 0.323072 2.01932 0
M  V30 8130 H 773.238 -1.67582 3.49278 0
M  V30 8131 H 773.652 -0.31113 5.23576 0
M  V30 8132 H 775.126 -2.01851 5.13771 0
M  V30 8133 H 775.603 -2.59587 3.54276 0
M  V30 8134 H 776.209 -1.02893 4.12666 0
M  V30 8135 N 774.524 -1.57472 -0.0634922 0
M  V30 8136 C 775.764 -1.89491 -0.766312 0
M  V30 8137 C 776.128 -0.80475 -1.74321 0
M  V30 8138 O 777.329 -1.00825 -2.49174 0
M  V30 8139 C 775.6 -3.26731 -1.44851 0
M  V30 8140 S 777.159 -3.80516 -2.18525 0
M  V30 8141 H 773.977 -0.663832 -0.254653 0
M  V30 8142 H 776.579 -1.95488 -0.0220867 0
M  V30 8143 H 775.283 -4.03967 -0.723824 0
M  V30 8144 H 774.814 -3.23953 -2.232 0
M  V30 8145 H 776.829 -3.5647 -3.45172 0
M  V30 8146 N 776.003 0.335068 -1.53997 0
M  V30 8147 C 776.933 1.41727 -1.85568 0
M  V30 8148 C 777.914 1.54505 -0.7115 0
M  V30 8149 O 779.099 1.68573 -0.964191 0
M  V30 8150 C 776.229 2.7866 -2.07282 0
M  V30 8151 C 775.183 2.80682 -3.23112 0
M  V30 8152 C 774.509 4.20581 -3.30175 0
M  V30 8153 C 775.809 2.45458 -4.61029 0
M  V30 8154 H 777.503 1.15555 -2.76202 0
M  V30 8155 H 775.049 0.554445 -1.32898 0
M  V30 8156 H 777.002 3.54423 -2.27952 0
M  V30 8157 H 775.726 3.06286 -1.13387 0
M  V30 8158 H 774.385 2.07373 -3.02311 0
M  V30 8159 H 774.033 4.4533 -2.33859 0
M  V30 8160 H 773.733 4.22843 -4.08016 0
M  V30 8161 H 775.257 4.98174 -3.53066 0
M  V30 8162 H 776.671 3.10934 -4.81656 0
M  V30 8163 H 775.068 2.5899 -5.41336 0
M  V30 8164 H 776.138 1.40628 -4.6406 0
M  V30 8165 N 777.481 1.45874 0.596531 0
M  V30 8166 C 778.729 1.5017 1.35253 0
M  V30 8167 C 779.05 0.149246 1.94428 0
M  V30 8168 O 778.32 -0.82268 1.77789 0
M  V30 8169 H 776.9 0.553052 0.502138 0
M  V30 8170 H 779.562 1.81908 0.699671 0
M  V30 8171 H 778.658 2.24671 2.16632 0
M  V30 8172 N 778.959 -0.83999 1.33349 0
M  V30 8173 C 779.906 -1.94972 1.23509 0
M  V30 8174 C 780.876 -1.65709 0.113967 0
M  V30 8175 O 782.061 -1.88552 0.292045 0
M  V30 8176 C 779.201 -3.30919 0.979105 0
M  V30 8177 C 778.314 -3.72587 2.18639 0
M  V30 8178 C 777.449 -4.97397 1.86465 0
M  V30 8179 C 776.488 -5.31597 3.03432 0
M  V30 8180 N 775.625 -6.47584 2.71254 0
M  V30 8181 H 780.465 -2.0272 2.18423 0
M  V30 8182 H 778.002 -0.992017 1.08616 0
M  V30 8183 H 779.96 -4.09239 0.811126 0
M  V30 8184 H 778.59 -3.22731 0.0667099 0
M  V30 8185 H 777.642 -2.89799 2.46416 0
M  V30 8186 H 778.954 -3.93844 3.06086 0
M  V30 8187 H 778.108 -5.83462 1.66305 0
M  V30 8188 H 776.847 -4.78107 0.96254 0
M  V30 8189 H 775.852 -4.44037 3.24208 0
M  V30 8190 H 777.077 -5.52836 3.94397 0
M  V30 8191 H 775.023 -6.29783 1.836 0
M  V30 8192 H 774.94 -6.68931 3.52231 0
M  V30 8193 H 776.208 -7.36764 2.54558 0
M  V30 8194 N 780.437 -1.16799 -1.0581 0
M  V30 8195 C 781.714 -0.862616 -1.75551 0
M  V30 8196 C 782.094 0.6385 -2.01212 0
M  V30 8197 O 781.442 1.58784 -1.64317 0
M  V30 8198 C 781.652 -1.6907 -3.05314 0
M  V30 8199 C 783 -1.90675 -3.79379 0
M  V30 8200 O 784.024 -1.65976 -3.15167 0
M  V30 8201 O 782.883 -2.32145 -4.94743 0
M  V30 8202 H 779.977 -0.318789 -0.763088 0
M  V30 8203 H 782.523 -1.27461 -1.12034 0
M  V30 8204 H 781.295 -2.70912 -2.82352 0
M  V30 8205 H 780.918 -1.27606 -3.76567 0
M  V30 8206 N 781.915 1.24427 -0.967243 0
M  V30 8207 C 782.863 2.27403 -0.488927 0
M  V30 8208 C 783.857 1.63388 0.447302 0
M  V30 8209 O 785.063 1.77085 0.322643 0
M  V30 8210 H 781.438 0.738921 -0.139643 0
M  V30 8211 H 783.409 2.65122 -1.36942 0
M  V30 8212 C 782.158 3.4709 0.205787 0
M  V30 8213 H 781.481 3.96591 -0.50551 0
M  V30 8214 H 782.921 4.2099 0.504296 0
M  V30 8215 C 781.38 3.04923 1.43261 0
M  V30 8216 O 781.91 3.12043 2.52967 0
M  V30 8217 N 780.116 2.59976 1.29849 0
M  V30 8218 H 779.663 2.54382 0.405876 0
M  V30 8219 H 779.621 2.32128 2.12047 0
M  V30 8220 N 783.393 0.737304 1.3929 0
M  V30 8221 C 784.809 0.413132 1.5416 0
M  V30 8222 C 785.009 -1.07574 1.70382 0
M  V30 8223 O 784.065 -1.86185 1.70562 0
M  V30 8224 C 785.378 1.19817 2.75798 0
M  V30 8225 C 786.926 1.18662 2.89635 0
M  V30 8226 C 787.401 1.95427 4.14213 0
M  V30 8227 N 788.892 1.92605 4.21257 0
M  V30 8228 C 789.627 2.48808 5.16606 0
M  V30 8229 N 789.123 3.13659 6.1773 0
M  V30 8230 N 790.916 2.38829 5.08839 0
M  V30 8231 H 783.067 1.70243 1.27008 0
M  V30 8232 H 785.33 0.720802 0.61575 0
M  V30 8233 H 785.036 2.25179 2.70161 0
M  V30 8234 H 784.91 0.804144 3.68529 0
M  V30 8235 H 787.297 0.141112 2.94762 0
M  V30 8236 H 787.378 1.62003 1.97961 0
M  V30 8237 H 787.022 2.9998 4.09847 0
M  V30 8238 H 786.952 1.4949 5.04936 0
M  V30 8239 H 789.443 1.45362 3.48824 0
M  V30 8240 H 789.756 3.54006 6.8695 0
M  V30 8241 H 788.101 3.17749 6.1811 0
M  V30 8242 H 791.292 1.87806 4.28773 0
M  V30 8243 H 791.465 2.82929 5.82971 0
M  V30 8244 N 784.871 -1.49948 0.485112 0
M  V30 8245 C 785.801 -2.31675 -0.291364 0
M  V30 8246 C 786.782 -1.39216 -0.977383 0
M  V30 8247 O 787.967 -1.68133 -0.971855 0
M  V30 8248 C 785.097 -3.19326 -1.36558 0
M  V30 8249 C 784.051 -4.2045 -0.800359 0
M  V30 8250 C 783.377 -4.96931 -1.97391 0
M  V30 8251 C 784.677 -5.21925 0.197867 0
M  V30 8252 H 786.371 -2.96839 0.390775 0
M  V30 8253 H 783.917 -1.42749 0.189375 0
M  V30 8254 H 785.87 -3.75304 -1.91638 0
M  V30 8255 H 784.594 -2.52074 -2.07668 0
M  V30 8256 H 783.253 -3.65594 -0.271428 0
M  V30 8257 H 782.901 -4.26141 -2.67232 0
M  V30 8258 H 782.601 -5.65344 -1.60187 0
M  V30 8259 H 784.125 -5.55749 -2.52935 0
M  V30 8260 H 785.539 -5.72691 -0.264239 0
M  V30 8261 H 783.936 -5.98138 0.484908 0
M  V30 8262 H 785.006 -4.71809 1.11912 0
M  V30 8263 N 786.349 -0.21828 -1.56081 0
M  V30 8264 C 787.279 0.687922 -2.23136 0
M  V30 8265 C 788.26 1.20357 -1.202 0
M  V30 8266 O 789.445 1.24817 -1.48776 0
M  V30 8267 C 786.575 1.89762 -2.90874 0
M  V30 8268 C 785.529 1.51595 -4.00254 0
M  V30 8269 C 784.855 2.80415 -4.55271 0
M  V30 8270 C 786.155 0.708404 -5.17474 0
M  V30 8271 H 787.849 0.128854 -2.99123 0
M  V30 8272 H 785.395 0.0605354 -1.43873 0
M  V30 8273 H 787.348 2.53699 -3.36474 0
M  V30 8274 H 786.072 2.4816 -2.1233 0
M  V30 8275 H 784.731 0.900058 -3.55379 0
M  V30 8276 H 784.379 3.36951 -3.73461 0
M  V30 8277 H 784.079 2.55613 -5.2909 0
M  V30 8278 H 785.603 3.453 -5.03587 0
M  V30 8279 H 787.017 1.2514 -5.59476 0
M  V30 8280 H 785.414 0.557593 -5.97504 0
M  V30 8281 H 786.484 -0.285679 -4.84058 0
M  V30 8282 N 787.827 1.57504 0.0551401 0
M  V30 8283 C 788.737 2.08198 1.08124 0
M  V30 8284 C 789.753 1.01496 1.41331 0
M  V30 8285 O 790.929 1.33073 1.51174 0
M  V30 8286 C 787.994 2.52968 2.37083 0
M  V30 8287 C 787.055 3.7404 2.10696 0
M  V30 8288 C 786.288 4.16665 3.33505 0
M  V30 8289 O 786.511 3.59019 4.4324 0
M  V30 8290 O 785.445 5.09324 3.20737 0
M  V30 8291 H 789.271 2.95977 0.680518 0
M  V30 8292 H 786.856 1.46933 0.270401 0
M  V30 8293 H 788.738 2.82211 3.12946 0
M  V30 8294 H 787.413 1.6831 2.76502 0
M  V30 8295 H 786.32 3.49855 1.32484 0
M  V30 8296 H 787.653 4.59601 1.76148 0
M  V30 8297 N 789.305 -0.326896 1.54172 0
M  V30 8298 C 790.255 -1.40319 1.79707 0
M  V30 8299 C 791.239 -1.47056 0.652938 0
M  V30 8300 O 792.431 -1.51645 0.91284 0
M  V30 8301 C 789.56 -2.77222 2.02491 0
M  V30 8302 C 788.646 -2.74811 3.23016 0
M  V30 8303 N 789.037 -2.42022 4.44138 0
M  V30 8304 C 787.335 -3.05943 3.24522 0
M  V30 8305 C 788.036 -2.48263 5.26061 0
M  V30 8306 N 787.012 -2.84567 4.63166 0
M  V30 8307 H 790.814 -1.13892 2.70935 0
M  V30 8308 H 788.328 -0.53536 1.53322 0
M  V30 8309 H 790.325 -3.54793 2.18923 0
M  V30 8310 H 788.985 -3.04582 1.12515 0
M  V30 8311 H 789.996 -2.14926 4.71197 0
M  V30 8312 H 786.673 -3.38367 2.44569 0
M  V30 8313 H 788.063 -2.2593 6.32776 0
M  V30 8314 N 790.784 -1.46188 -0.588786 0
M  V30 8315 C 791.732 -1.56653 -1.71938 0
M  V30 8316 C 792.726 -0.435354 -1.6371 0
M  V30 8317 O 793.932 -0.611996 -1.69277 0
M  V30 8318 H 790.307 -0.492408 -0.568365 0
M  V30 8319 H 792.278 -2.51724 -1.60242 0
M  V30 8320 C 791.027 -1.56822 -3.10326 0
M  V30 8321 H 790.35 -2.43198 -3.17325 0
M  V30 8322 H 791.79 -1.68199 -3.89211 0
M  V30 8323 C 790.249 -0.295802 -3.35599 0
M  V30 8324 O 790.779 0.616515 -3.96941 0
M  V30 8325 N 788.985 -0.185609 -2.90007 0
M  V30 8326 H 788.532 -0.928914 -2.40269 0
M  V30 8327 H 788.49 0.664883 -3.07289 0
M  V30 8328 N 792.262 0.832906 -1.33792 0
M  V30 8329 C 793.678 1.1245 -1.13257 0
M  V30 8330 C 793.878 2.01369 0.0725832 0
M  V30 8331 O 792.934 2.41071 0.751082 0
M  V30 8332 C 794.247 1.78084 -2.42294 0
M  V30 8333 C 795.795 1.90624 -2.48257 0
M  V30 8334 C 796.27 2.59673 -3.77271 0
M  V30 8335 N 797.761 2.67181 -3.78376 0
M  V30 8336 C 798.496 3.21313 -4.74916 0
M  V30 8337 N 797.992 3.76086 -5.81835 0
M  V30 8338 N 799.785 3.19621 -4.62384 0
M  V30 8339 H 791.936 0.241244 -2.11026 0
M  V30 8340 H 794.199 0.169557 -0.932713 0
M  V30 8341 H 793.905 1.20209 -3.30519 0
M  V30 8342 H 793.779 2.78049 -2.5489 0
M  V30 8343 H 796.166 2.4765 -1.60478 0
M  V30 8344 H 796.247 0.89591 -2.39598 0
M  V30 8345 H 795.891 2.03304 -4.65435 0
M  V30 8346 H 795.821 3.61189 -3.8321 0
M  V30 8347 H 798.312 2.28346 -3.01108 0
M  V30 8348 H 798.625 4.15612 -6.51526 0
M  V30 8349 H 796.97 3.74357 -5.85561 0
M  V30 8350 H 800.161 2.76091 -3.7801 0
M  V30 8351 H 800.334 3.61504 -5.37791 0
M  V30 8352 N 793.74 1.17359 1.05189 0
M  V30 8353 C 794.965 0.98709 1.82404 0
M  V30 8354 C 795.39 -0.459848 1.82392 0
M  V30 8355 O 794.748 -1.32924 1.23292 0
M  V30 8356 C 794.796 1.53276 3.26403 0
M  V30 8357 O 793.9 0.746541 4.05587 0
M  V30 8358 H 793.241 0.35047 0.563974 0
M  V30 8359 H 795.771 1.55856 1.32552 0
M  V30 8360 H 795.781 1.55504 3.77203 0
M  V30 8361 H 794.456 2.58603 3.25726 0
M  V30 8362 H 793.033 0.795671 3.64312 0
M  V30 8363 N 795.218 -1.23913 0.973828 0
M  V30 8364 C 796.464 -1.92436 0.640026 0
M  V30 8365 C 796.797 -1.75875 -0.823512 0
M  V30 8366 O 796.072 -1.11563 -1.59323 0
M  V30 8367 C 796.355 -3.4526 1.0231 0
M  V30 8368 C 796.208 -3.70961 2.54378 0
M  V30 8369 C 797.527 -4.36495 0.562155 0
M  V30 8370 H 794.646 -0.698868 0.233992 0
M  V30 8371 H 797.288 -1.46163 1.21393 0
M  V30 8372 H 795.438 -3.84802 0.534751 0
M  V30 8373 H 797.11 -3.40941 3.10737 0
M  V30 8374 H 795.353 -3.15899 2.97305 0
M  V30 8375 H 796.024 -4.77912 2.76232 0
M  V30 8376 H 798.5 -4.04363 0.981333 0
M  V30 8377 H 797.376 -5.42142 0.858689 0
M  V30 8378 H 797.637 -4.38818 -0.537659 0
M  V30 8379 N 796.696 -0.74468 -1.38897 0
M  V30 8380 C 797.626 -0.126355 -2.33158 0
M  V30 8381 C 798.607 0.713517 -1.54412 0
M  V30 8382 O 799.792 0.656523 -1.82766 0
M  V30 8383 C 796.922 0.774375 -3.38557 0
M  V30 8384 C 795.876 0.0379214 -4.27983 0
M  V30 8385 C 795.202 1.05631 -5.24162 0
M  V30 8386 C 796.502 -1.12523 -5.10035 0
M  V30 8387 H 798.196 -0.913744 -2.85116 0
M  V30 8388 H 795.742 -0.440847 -1.37086 0
M  V30 8389 H 797.695 1.21655 -4.03458 0
M  V30 8390 H 796.419 1.59399 -2.85061 0
M  V30 8391 H 795.078 -0.384733 -3.64576 0
M  V30 8392 H 794.726 1.86975 -4.66958 0
M  V30 8393 H 794.426 0.568261 -5.84846 0
M  V30 8394 H 795.95 1.49799 -5.9194 0
M  V30 8395 H 797.364 -0.761037 -5.68226 0
M  V30 8396 H 795.761 -1.54355 -5.79909 0
M  V30 8397 H 796.831 -1.94237 -4.44297 0
M  V30 8398 N 798.174 1.49689 -0.493057 0
M  V30 8399 C 799.399 2.07331 0.0535114 0
M  V30 8400 C 799.824 1.35196 1.30781 0
M  V30 8401 O 799.182 0.406246 1.7669 0
M  V30 8402 C 799.23 3.59364 0.29825 0
M  V30 8403 O 798.334 3.88819 1.37454 0
M  V30 8404 H 797.675 0.663612 -0.0227018 0
M  V30 8405 H 800.205 1.926 -0.690402 0
M  V30 8406 H 800.215 4.04515 0.532159 0
M  V30 8407 H 798.89 4.1128 -0.618207 0
M  V30 8408 H 797.467 3.55487 1.12621 0
M  V30 8409 N 799.652 0.226554 1.55963 0
M  V30 8410 C 800.9 -0.402991 1.98041 0
M  V30 8411 C 801.221 -1.59938 1.11557 0
M  V30 8412 O 800.491 -1.9494 0.193719 0
M  V30 8413 H 799.071 -0.15188 0.731397 0
M  V30 8414 H 801.733 0.320613 1.92245 0
M  V30 8415 H 800.829 -0.725937 3.0354 0
M  V30 8416 N 801.13 -1.57531 -0.0467866 0
M  V30 8417 C 802.407 -1.79568 -0.775536 0
M  V30 8418 C 802.787 -0.820322 -1.94509 0
M  V30 8419 O 802.135 0.14134 -2.28062 0
M  V30 8420 C 802.345 -3.26789 -1.22516 0
M  V30 8421 C 803.693 -3.91299 -1.64835 0
M  V30 8422 O 804.717 -3.30831 -1.3202 0
M  V30 8423 O 803.576 -4.97727 -2.25677 0
M  V30 8424 H 800.67 -0.737817 -0.373572 0
M  V30 8425 H 803.216 -1.69682 -0.0249302 0
M  V30 8426 H 801.988 -3.89357 -0.389446 0
M  V30 8427 H 801.611 -3.41496 -2.03633 0
M  V30 8428 N 802.608 0.318715 -1.54344 0
M  V30 8429 C 803.885 1.07461 -1.63437 0
M  V30 8430 C 804.265 2.05771 -0.47131 0
M  V30 8431 O 803.613 2.22175 0.53391 0
M  V30 8432 C 803.823 1.77224 -3.00654 0
M  V30 8433 C 805.171 2.30069 -3.56866 0
M  V30 8434 O 806.195 1.87284 -3.0299 0
M  V30 8435 O 805.054 3.08412 -4.51159 0
M  V30 8436 H 802.148 0.495627 -0.66203 0
M  V30 8437 H 804.694 0.318218 -1.6669 0
M  V30 8438 H 803.466 1.05742 -3.76742 0
M  V30 8439 H 803.089 2.59662 -3.01101 0
M  V30 8440 N 804.086 1.46499 0.581025 0
M  V30 8441 C 805.311 1.55708 1.37002 0
M  V30 8442 C 805.736 0.19942 1.8704 0
M  V30 8443 O 805.094 -0.820731 1.61659 0
M  V30 8444 C 805.142 2.56716 2.53238 0
M  V30 8445 O 804.246 2.10336 3.54729 0
M  V30 8446 H 803.587 0.523912 0.407937 0
M  V30 8447 H 806.117 1.92085 0.704602 0
M  V30 8448 H 806.127 2.76378 3.00132 0
M  V30 8449 H 804.802 3.55307 2.16171 0
M  V30 8450 H 803.379 2.00669 3.14303 0
M  V30 8451 N 805.565 -0.825799 1.34232 0
M  V30 8452 C 806.793 -1.61363 1.29497 0
M  V30 8453 C 807.208 -1.88341 -0.131536 0
M  V30 8454 O 806.565 -1.47279 -1.07773 0
M  V30 8455 C 806.616 -2.95623 2.08061 0
M  V30 8456 O 806.337 -2.69824 3.45147 0
M  V30 8457 C 807.838 -3.90032 2.10688 0
M  V30 8458 H 805.058 -0.501676 0.445603 0
M  V30 8459 H 807.602 -1.02767 1.76803 0
M  V30 8460 H 805.757 -3.50785 1.64404 0
M  V30 8461 H 806.171 -3.55412 3.85723 0
M  V30 8462 H 807.645 -4.81411 2.70087 0
M  V30 8463 H 808.122 -4.25188 1.10052 0
M  V30 8464 H 808.728 -3.40807 2.54422 0
M  V30 8465 N 807.043 -1.17915 -1.04565 0
M  V30 8466 C 808.291 -0.969505 -1.77327 0
M  V30 8467 C 808.612 0.502569 -1.88412 0
M  V30 8468 O 807.882 1.36467 -1.40547 0
M  V30 8469 H 806.462 -0.355723 -0.656864 0
M  V30 8470 H 809.124 -1.48506 -1.26223 0
M  V30 8471 H 808.22 -1.40324 -2.78775 0
M  V30 8472 N 808.521 1.23394 -0.980386 0
M  V30 8473 C 809.746 1.96384 -0.666935 0
M  V30 8474 C 810.171 1.72087 0.759456 0
M  V30 8475 O 809.529 0.992328 1.51732 0
M  V30 8476 C 809.577 3.47499 -0.963177 0
M  V30 8477 O 808.681 4.12363 -0.0552051 0
M  V30 8478 H 808.022 0.614797 -0.250839 0
M  V30 8479 H 810.552 1.56831 -1.31398 0
M  V30 8480 H 810.562 3.97953 -0.899877 0
M  V30 8481 H 809.237 3.6451 -2.00264 0
M  V30 8482 H 807.814 3.72499 -0.172914 0
M  V30 8483 N 809.999 0.752036 1.385 0
M  V30 8484 C 810.909 0.125318 2.34265 0
M  V30 8485 C 811.925 -0.702437 1.59191 0
M  V30 8486 O 813.101 -0.626951 1.91393 0
M  V30 8487 C 810.166 -0.758486 3.38301 0
M  V30 8488 C 809.227 0.0834636 4.29219 0
M  V30 8489 C 808.46 -0.758252 5.28286 0
M  V30 8490 O 808.683 -1.99632 5.34325 0
M  V30 8491 O 807.617 -0.177878 6.01637 0
M  V30 8492 H 811.443 0.91617 2.89551 0
M  V30 8493 H 809.028 0.512911 1.4032 0
M  V30 8494 H 810.91 -1.26365 4.02007 0
M  V30 8495 H 809.585 -1.52786 2.85374 0
M  V30 8496 H 808.492 0.634545 3.68679 0
M  V30 8497 H 809.825 0.815455 4.85398 0
M  V30 8498 N 811.477 -1.49425 0.500989 0
M  V30 8499 C 812.888 -1.86624 0.0532011 0
M  V30 8500 C 813.239 -1.41331 -1.36088 0
M  V30 8501 O 812.364 -0.791195 -2.01418 0
M  V30 8502 C 812.959 -3.38681 0.0897693 0
M  V30 8503 C 811.518 -3.75181 -0.302677 0
M  V30 8504 C 810.665 -2.73419 0.462307 0
M  V30 8505 H 813.616 -1.41743 0.713773 0
M  V30 8506 H 813.637 -3.73902 -0.705528 0
M  V30 8507 H 813.149 -3.71616 1.11907 0
M  V30 8508 H 811.25 -3.47855 -1.33521 0
M  V30 8509 H 811.363 -4.79097 0.0167653 0
M  V30 8510 H 809.727 -2.54548 -0.0878557 0
M  V30 8511 H 810.51 -3.09198 1.49169 0
M  V30 8512 N 812.955 -0.234822 -1.55841 0
M  V30 8513 C 814.366 0.270588 -1.84729 0
M  V30 8514 C 814.717 1.58494 -1.15646 0
M  V30 8515 O 813.842 2.12071 -0.430667 0
M  V30 8516 C 814.437 0.497733 -3.35124 0
M  V30 8517 C 812.996 0.947428 -3.64281 0
M  V30 8518 C 812.143 0.01787 -2.77294 0
M  V30 8519 H 815.094 -0.457691 -1.51957 0
M  V30 8520 H 815.115 1.34199 -3.56049 0
M  V30 8521 H 814.627 -0.459037 -3.85376 0
M  V30 8522 H 812.728 1.91709 -3.19497 0
M  V30 8523 H 812.841 0.812651 -4.72158 0
M  V30 8524 H 811.205 0.527071 -2.49187 0
M  V30 8525 H 811.988 -0.934056 -3.30349 0
M  V30 8526 N 814.433 1.57553 0.0384317 0
M  V30 8527 C 815.363 2.0898 1.04161 0
M  V30 8528 C 816.344 0.99029 1.38301 0
M  V30 8529 O 817.529 1.26499 1.47349 0
M  V30 8530 C 814.659 2.56145 2.34536 0
M  V30 8531 C 813.613 3.70275 2.14663 0
M  V30 8532 C 812.939 4.03612 3.50715 0
M  V30 8533 C 814.239 4.99067 1.54045 0
M  V30 8534 H 815.933 2.93046 0.613548 0
M  V30 8535 H 813.479 1.40973 0.293684 0
M  V30 8536 H 815.432 2.90741 3.05037 0
M  V30 8537 H 814.156 1.6915 2.79385 0
M  V30 8538 H 812.815 3.36013 1.46597 0
M  V30 8539 H 812.463 3.13698 3.93195 0
M  V30 8540 H 812.163 4.80482 3.38247 0
M  V30 8541 H 813.687 4.40735 4.22593 0
M  V30 8542 H 815.101 5.3168 2.14451 0
M  V30 8543 H 813.498 5.80484 1.52178 0
M  V30 8544 H 814.568 4.8226 0.505259 0
M  V30 8545 N 815.911 -0.310526 1.54511 0
M  V30 8546 C 817.136 -1.07046 1.7764 0
M  V30 8547 C 817.561 -1.80488 0.529696 0
M  V30 8548 O 816.919 -1.73702 -0.519361 0
M  V30 8549 C 816.967 -2.03411 2.97752 0
M  V30 8550 O 816.071 -3.11545 2.7021 0
M  V30 8551 H 815.412 -0.307994 0.588248 0
M  V30 8552 H 817.942 -0.350848 2.01569 0
M  V30 8553 H 817.952 -2.46048 3.2546 0
M  V30 8554 H 816.627 -1.49361 3.88155 0
M  V30 8555 H 815.204 -2.7349 2.53491 0
M  V30 8556 N 817.389 -1.46805 -0.573248 0
M  V30 8557 C 818.8 -1.46655 -1.15539 0
M  V30 8558 C 819.151 -0.2125 -1.95046 0
M  V30 8559 O 818.276 0.683759 -2.05314 0
M  V30 8560 C 818.871 -2.65711 -2.10198 0
M  V30 8561 C 817.43 -2.68572 -2.63716 0
M  V30 8562 C 816.577 -2.39498 -1.39772 0
M  V30 8563 H 819.528 -1.54547 -0.36068 0
M  V30 8564 H 819.549 -2.41768 -2.93817 0
M  V30 8565 H 819.061 -3.56967 -1.52303 0
M  V30 8566 H 817.162 -1.81414 -3.25453 0
M  V30 8567 H 817.275 -3.68809 -3.05805 0
M  V30 8568 H 815.639 -1.89749 -1.69904 0
M  V30 8569 H 816.422 -3.32942 -0.836943 0
M  V30 8570 N 818.867 0.818669 -1.34668 0
M  V30 8571 C 820.278 1.39177 -1.24446 0
M  V30 8572 C 820.629 1.9578 0.128268 0
M  V30 8573 O 819.754 1.90382 1.02877 0
M  V30 8574 C 820.349 2.53012 -2.25323 0
M  V30 8575 C 818.908 3.06218 -2.18878 0
M  V30 8576 C 818.055 1.79112 -2.11694 0
M  V30 8577 H 821.006 0.622709 -1.45973 0
M  V30 8578 H 821.027 3.31226 -1.8727 0
M  V30 8579 H 820.539 2.11784 -3.25221 0
M  V30 8580 H 818.64 3.51939 -1.22351 0
M  V30 8581 H 818.753 3.65019 -3.10319 0
M  V30 8582 H 817.117 2.0018 -1.57481 0
M  V30 8583 H 817.9 1.40053 -3.13433 0
M  V30 8584 N 820.346 1.18468 1.03938 0
M  V30 8585 C 821.256 0.927889 2.1547 0
M  V30 8586 C 822.272 -0.108447 1.73662 0
M  V30 8587 O 823.448 0.0737636 2.01265 0
M  V30 8588 C 820.513 0.458494 3.43655 0
M  V30 8589 C 819.574 1.56295 3.99838 0
M  V30 8590 C 818.807 1.11586 5.21904 0
M  V30 8591 O 819.03 -0.0249057 5.70395 0
M  V30 8592 O 817.964 1.91412 5.70653 0
M  V30 8593 H 821.79 1.86116 2.39989 0
M  V30 8594 H 819.375 0.966607 1.13917 0
M  V30 8595 H 821.257 0.204861 4.20902 0
M  V30 8596 H 819.932 -0.446464 3.20606 0
M  V30 8597 H 818.839 1.87061 3.23974 0
M  V30 8598 H 820.172 2.44408 4.2723 0
M  V30 8599 N 821.824 -1.22873 0.986916 0
M  V30 8600 C 823.24 -1.43594 0.696633 0
M  V30 8601 C 823.44 -1.87622 -0.734869 0
M  V30 8602 O 822.496 -2.02633 -1.50652 0
M  V30 8603 C 823.809 -2.48231 1.69711 0
M  V30 8604 C 825.357 -2.62037 1.71188 0
M  V30 8605 C 825.832 -3.6989 2.70084 0
M  V30 8606 N 827.323 -3.77341 2.68641 0
M  V30 8607 C 828.058 -4.6037 3.41829 0
M  V30 8608 N 827.554 -5.47438 4.24598 0
M  V30 8609 N 829.347 -4.54626 3.30563 0
M  V30 8610 H 821.498 -0.925982 1.91153 0
M  V30 8611 H 823.761 -0.46866 0.824052 0
M  V30 8612 H 823.467 -2.22812 2.72117 0
M  V30 8613 H 823.341 -3.46731 1.48516 0
M  V30 8614 H 825.728 -2.86803 0.694837 0
M  V30 8615 H 825.809 -1.63831 1.96451 0
M  V30 8616 H 825.453 -3.45872 3.71934 0
M  V30 8617 H 825.383 -4.67652 2.42093 0
M  V30 8618 H 827.874 -3.15124 2.08578 0
M  V30 8619 H 828.187 -6.078 4.77283 0
M  V30 8620 H 826.532 -5.4704 4.28687 0
M  V30 8621 H 829.723 -3.85627 2.65347 0
M  V30 8622 H 829.896 -5.19103 3.8786 0
M  V30 8623 N 823.302 -0.75937 -1.38099 0
M  V30 8624 C 824.232 -0.151077 -2.33011 0
M  V30 8625 C 825.213 0.697099 -1.5516 0
M  V30 8626 O 826.398 0.637101 -1.83452 0
M  V30 8627 C 823.528 0.738423 -3.39359 0
M  V30 8628 C 822.482 -0.0074741 -4.27999 0
M  V30 8629 C 821.808 1.00066 -5.25253 0
M  V30 8630 C 823.108 -1.17926 -5.08813 0
M  V30 8631 H 824.802 -0.943933 -2.84131 0
M  V30 8632 H 822.348 -0.455362 -1.36611 0
M  V30 8633 H 824.301 1.17369 -4.04725 0
M  V30 8634 H 823.025 1.56366 -2.86735 0
M  V30 8635 H 821.684 -0.423379 -3.64147 0
M  V30 8636 H 821.332 1.82012 -4.68914 0
M  V30 8637 H 821.032 0.506199 -5.85416 0
M  V30 8638 H 822.556 1.43512 -5.93495 0
M  V30 8639 H 823.97 -0.821262 -5.67387 0
M  V30 8640 H 822.367 -1.60497 -5.78239 0
M  V30 8641 H 823.437 -1.98938 -4.42212 0
M  V30 8642 N 824.78 1.49157 -0.508906 0
M  V30 8643 C 826.191 1.86593 -0.0630975 0
M  V30 8644 C 826.542 1.42051 1.35337 0
M  V30 8645 O 825.667 0.801866 2.00995 0
M  V30 8646 C 826.262 3.38629 -0.107729 0
M  V30 8647 C 824.821 3.75336 0.282776 0
M  V30 8648 C 823.968 2.7317 -0.4768 0
M  V30 8649 H 826.919 1.41362 -0.72128 0
M  V30 8650 H 826.94 3.74271 0.685689 0
M  V30 8651 H 826.452 3.71017 -1.13876 0
M  V30 8652 H 824.553 3.48558 1.31675 0
M  V30 8653 H 824.666 4.79081 -0.0421728 0
M  V30 8654 H 823.03 2.54591 0.0743552 0
M  V30 8655 H 823.813 3.08403 -1.50807 0
M  V30 8656 N 826.258 0.243083 1.55714 0
M  V30 8657 C 827.507 -0.383188 1.98027 0
M  V30 8658 C 827.82 -1.59347 1.13436 0
M  V30 8659 O 829.026 -2.29065 1.45745 0
M  V30 8660 C 827.482 -0.733135 3.52354 0
M  V30 8661 C 827.09 0.455539 4.45678 0
M  V30 8662 C 828.834 -1.32381 4.03331 0
M  V30 8663 C 826.741 0.0819591 5.91343 0
M  V30 8664 H 825.671 -0.146944 0.739543 0
M  V30 8665 H 828.322 0.342697 1.80272 0
M  V30 8666 H 826.704 -1.51704 3.65789 0
M  V30 8667 H 827.878 1.23291 4.44 0
M  V30 8668 H 826.193 0.960886 4.05162 0
M  V30 8669 H 828.79 -1.61658 5.09677 0
M  V30 8670 H 829.133 -2.24698 3.50452 0
M  V30 8671 H 829.666 -0.602885 3.93205 0
M  V30 8672 H 826.405 0.972171 6.48251 0
M  V30 8673 H 825.925 -0.659291 5.96166 0
M  V30 8674 H 827.604 -0.3372 6.46121 0
M  V30 8675 N 827.736 -1.57571 -0.0300757 0
M  V30 8676 C 829.152 -1.54869 -0.385703 0
M  V30 8677 C 829.352 -0.969068 -1.76667 0
M  V30 8678 O 828.408 -0.589676 -2.45518 0
M  V30 8679 C 829.721 -2.99313 -0.288482 0
M  V30 8680 C 831.269 -3.10857 -0.365638 0
M  V30 8681 C 831.744 -4.5703 -0.297878 0
M  V30 8682 N 833.235 -4.61825 -0.356703 0
M  V30 8683 C 833.97 -5.72466 -0.327146 0
M  V30 8684 N 833.466 -6.92349 -0.249941 0
M  V30 8685 N 835.259 -5.60836 -0.376801 0
M  V30 8686 H 827.41 -1.936 0.87367 0
M  V30 8687 H 829.673 -0.887924 0.332106 0
M  V30 8688 H 829.379 -3.45443 0.66047 0
M  V30 8689 H 829.253 -3.61332 -1.08253 0
M  V30 8690 H 831.64 -2.64676 -1.30502 0
M  V30 8691 H 831.721 -2.51671 0.457744 0
M  V30 8692 H 831.365 -5.03879 0.637835 0
M  V30 8693 H 831.295 -5.14127 -1.13935 0
M  V30 8694 H 833.786 -3.75571 -0.418926 0
M  V30 8695 H 834.099 -7.7245 -0.23246 0
M  V30 8696 H 832.444 -6.94664 -0.216004 0
M  V30 8697 H 835.635 -4.66073 -0.435101 0
M  V30 8698 H 835.808 -6.47052 -0.350298 0
M  V30 8699 N 829.214 0.302327 -1.54673 0
M  V30 8700 C 830.63 0.647911 -1.45857 0
M  V30 8701 C 830.83 1.90773 -0.64869 0
M  V30 8702 O 829.886 2.52018 -0.155865 0
M  V30 8703 C 831.199 0.802144 -2.89804 0
M  V30 8704 C 832.747 0.898114 -2.99838 0
M  V30 8705 C 833.222 1.08436 -4.44978 0
M  V30 8706 N 834.713 1.15059 -4.48682 0
M  V30 8707 C 835.448 1.31296 -5.58166 0
M  V30 8708 N 834.944 1.4444 -6.77576 0
M  V30 8709 N 836.737 1.34174 -5.45851 0
M  V30 8710 H 828.888 -0.525428 -2.05798 0
M  V30 8711 H 831.151 -0.173423 -0.932002 0
M  V30 8712 H 830.857 -0.0526531 -3.51661 0
M  V30 8713 H 830.731 1.69155 -3.37145 0
M  V30 8714 H 833.118 1.7434 -2.38096 0
M  V30 8715 H 833.199 -0.0152752 -2.55795 0
M  V30 8716 H 832.843 0.243843 -5.07314 0
M  V30 8717 H 832.773 2.01195 -4.8665 0
M  V30 8718 H 835.264 1.0626 -3.62653 0
M  V30 8719 H 835.577 1.56582 -7.56771 0
M  V30 8720 H 833.922 1.41499 -6.80443 0
M  V30 8721 H 837.113 1.23516 -4.5151 0
M  V30 8722 H 837.286 1.46485 -6.31226 0
M  V30 8723 N 830.692 1.47107 0.565454 0
M  V30 8724 C 831.917 1.57153 1.35343 0
M  V30 8725 C 832.342 0.219247 1.86818 0
M  V30 8726 O 831.7 -0.803539 1.62521 0
M  V30 8727 C 831.748 2.59387 2.50501 0
M  V30 8728 O 830.852 2.14086 3.52478 0
M  V30 8729 H 830.193 0.528209 0.402357 0
M  V30 8730 H 832.723 1.92821 0.684189 0
M  V30 8731 H 832.733 2.79546 2.97184 0
M  V30 8732 H 831.408 3.57579 2.12391 0
M  V30 8733 H 829.985 2.03991 3.12157 0
M  V30 8734 N 832.17 -0.811516 1.35101 0
M  V30 8735 C 833.395 -1.60499 1.31358 0
M  V30 8736 C 833.82 -1.87793 -0.107383 0
M  V30 8737 O 833.178 -1.46161 -1.07268 0
M  V30 8738 C 833.226 -2.91612 2.12119 0
M  V30 8739 O 832.33 -3.84211 1.49853 0
M  V30 8740 H 831.671 -0.487702 0.450603 0
M  V30 8741 H 834.201 -1.00758 1.7807 0
M  V30 8742 H 834.211 -3.4108 2.23894 0
M  V30 8743 H 832.886 -2.71071 3.15426 0
M  V30 8744 H 831.463 -3.42751 1.46889 0
M  V30 8745 N 833.648 -1.19017 -1.03309 0
M  V30 8746 C 834.876 -1.01534 -1.80273 0
M  V30 8747 C 835.291 0.43605 -1.83696 0
M  V30 8748 O 834.648 1.30288 -1.27794 0
M  V30 8749 C 834.699 -1.5722 -3.25522 0
M  V30 8750 O 834.42 -2.96677 -3.22358 0
M  V30 8751 C 835.921 -1.4446 -4.19102 0
M  V30 8752 H 833.141 -0.358094 -0.567459 0
M  V30 8753 H 835.685 -1.57738 -1.3015 0
M  V30 8754 H 833.84 -1.05174 -3.7285 0
M  V30 8755 H 834.254 -3.22795 -4.13405 0
M  V30 8756 H 835.728 -1.88209 -5.18923 0
M  V30 8757 H 836.205 -0.394471 -4.37425 0
M  V30 8758 H 836.811 -1.95616 -3.77643 0
M  V30 8759 N 835.127 1.22348 -0.993418 0
M  V30 8760 C 836.543 1.43222 -0.704238 0
M  V30 8761 C 836.743 1.88009 0.724909 0
M  V30 8762 O 835.799 2.03429 1.49575 0
M  V30 8763 C 837.112 2.47328 -1.71025 0
M  V30 8764 C 838.66 2.61126 -1.72576 0
M  V30 8765 C 839.135 3.68453 -2.72041 0
M  V30 8766 N 840.626 3.75911 -2.70639 0
M  V30 8767 C 841.361 4.58551 -3.44266 0
M  V30 8768 N 840.857 5.45179 -4.27495 0
M  V30 8769 N 842.65 4.52866 -3.32969 0
M  V30 8770 H 834.801 0.915832 -1.91641 0
M  V30 8771 H 837.064 0.464283 -0.826526 0
M  V30 8772 H 836.77 2.21366 -2.73295 0
M  V30 8773 H 836.644 3.45939 -1.50353 0
M  V30 8774 H 839.031 2.86431 -0.710037 0
M  V30 8775 H 839.112 1.62787 -1.97317 0
M  V30 8776 H 838.756 3.43895 -3.73763 0
M  V30 8777 H 838.686 4.66362 -2.4457 0
M  V30 8778 H 841.177 3.14014 -2.10247 0
M  V30 8779 H 841.49 6.0526 -4.80499 0
M  V30 8780 H 839.835 5.44759 -4.31582 0
M  V30 8781 H 843.026 3.84215 -2.67389 0
M  V30 8782 H 843.199 5.17039 -3.90608 0
M  V30 8783 N 836.605 0.766683 1.37694 0
M  V30 8784 C 837.882 0.25366 1.93948 0
M  V30 8785 C 838.262 -1.25041 1.70082 0
M  V30 8786 O 837.61 -2.03115 1.04674 0
M  V30 8787 C 837.82 0.621549 3.43421 0
M  V30 8788 C 839.168 0.588504 4.20502 0
M  V30 8789 O 840.192 0.560632 3.5176 0
M  V30 8790 O 839.051 0.61107 5.43073 0
M  V30 8791 H 836.145 0.0570586 0.825029 0
M  V30 8792 H 838.691 0.847693 1.47011 0
M  V30 8793 H 837.463 1.65979 3.54354 0
M  V30 8794 H 837.086 0.000197027 3.976 0
M  V30 8795 N 838.083 -1.48885 0.516809 0
M  V30 8796 C 839.03 -2.29408 -0.253125 0
M  V30 8797 C 840 -1.36533 -0.945935 0
M  V30 8798 O 841.185 -1.65495 -0.949527 0
M  V30 8799 C 838.325 -3.19592 -1.30211 0
M  V30 8800 C 837.438 -4.27535 -0.61948 0
M  V30 8801 C 836.573 -5.04916 -1.65026 0
M  V30 8802 C 835.612 -6.04677 -0.950368 0
M  V30 8803 N 834.749 -6.75164 -1.92608 0
M  V30 8804 H 839.589 -2.94738 0.439744 0
M  V30 8805 H 837.126 -1.45311 0.2287 0
M  V30 8806 H 839.084 -3.70267 -1.92245 0
M  V30 8807 H 837.714 -2.56213 -1.96353 0
M  V30 8808 H 836.766 -3.80228 0.114505 0
M  V30 8809 H 838.078 -4.98752 -0.0693016 0
M  V30 8810 H 837.232 -5.59539 -2.34523 0
M  V30 8811 H 835.971 -4.33508 -2.23432 0
M  V30 8812 H 834.976 -5.4927 -0.241252 0
M  V30 8813 H 836.201 -6.78077 -0.372599 0
M  V30 8814 H 834.147 -6.06517 -2.49946 0
M  V30 8815 H 834.064 -7.4241 -1.42699 0
M  V30 8816 H 835.332 -7.34384 -2.61345 0
M  V30 8817 N 839.561 -0.251338 -1.55583 0
M  V30 8818 C 840.509 0.662534 -2.22965 0
M  V30 8819 C 841.503 1.17662 -1.21869 0
M  V30 8820 O 842.709 1.133 -1.39868 0
M  V30 8821 H 839.084 0.232151 -0.715269 0
M  V30 8822 H 841.055 0.0711252 -2.98315 0
M  V30 8823 C 839.804 1.84646 -2.94621 0
M  V30 8824 H 839.127 1.46003 -3.72187 0
M  V30 8825 H 840.567 2.46303 -3.45124 0
M  V30 8826 C 839.026 2.72034 -1.98744 0
M  V30 8827 O 839.556 3.71695 -1.52335 0
M  V30 8828 N 837.762 2.38695 -1.6575 0
M  V30 8829 H 837.309 1.57702 -2.03685 0
M  V30 8830 H 837.267 2.9744 -1.01867 0
M  V30 8831 N 841.039 1.57585 0.0217189 0
M  V30 8832 C 842.455 1.55072 0.377484 0
M  V30 8833 C 842.655 0.978423 1.76151 0
M  V30 8834 O 841.711 0.602688 2.45202 0
M  V30 8835 C 843.024 2.99462 0.272605 0
M  V30 8836 C 844.572 3.11047 0.349148 0
M  V30 8837 C 845.047 4.57182 0.273636 0
M  V30 8838 N 846.538 4.62007 0.332206 0
M  V30 8839 C 847.273 5.72631 0.296782 0
M  V30 8840 N 846.769 6.92472 0.21322 0
M  V30 8841 N 848.562 5.61028 0.347053 0
M  V30 8842 H 840.713 1.93133 -0.883925 0
M  V30 8843 H 842.976 0.886151 -0.33681 0
M  V30 8844 H 842.682 3.45088 -0.67878 0
M  V30 8845 H 842.556 3.61901 1.06335 0
M  V30 8846 H 844.943 2.65364 1.29097 0
M  V30 8847 H 845.024 2.51425 -0.471085 0
M  V30 8848 H 844.668 5.03534 -0.664548 0
M  V30 8849 H 844.598 5.14724 1.11207 0
M  V30 8850 H 847.089 3.75788 0.399003 0
M  V30 8851 H 847.402 7.72563 0.191492 0
M  V30 8852 H 845.747 6.94769 0.179161 0
M  V30 8853 H 848.938 4.66298 0.410378 0
M  V30 8854 H 849.111 6.47229 0.315979 0
M  V30 8855 N 842.517 -0.29412 1.54831 0
M  V30 8856 C 843.933 -0.640167 1.46199 0
M  V30 8857 C 844.133 -1.90426 0.658798 0
M  V30 8858 O 843.189 -2.51932 0.169228 0
M  V30 8859 C 844.502 -0.786763 2.90225 0
M  V30 8860 C 846.05 -0.882201 3.0031 0
M  V30 8861 C 846.525 -1.06074 4.45547 0
M  V30 8862 N 848.016 -1.12678 4.49286 0
M  V30 8863 C 848.751 -1.28334 5.58854 0
M  V30 8864 N 848.247 -1.40845 6.78332 0
M  V30 8865 N 850.04 -1.31277 5.46555 0
M  V30 8866 H 842.191 0.536334 2.05517 0
M  V30 8867 H 844.454 0.178363 0.93107 0
M  V30 8868 H 844.16 0.0713018 3.51628 0
M  V30 8869 H 844.034 -1.67364 3.38037 0
M  V30 8870 H 846.421 -1.73075 2.39017 0
M  V30 8871 H 846.502 0.0288405 2.55784 0
M  V30 8872 H 846.146 -0.216935 5.07437 0
M  V30 8873 H 846.076 -1.98611 4.8771 0
M  V30 8874 H 848.567 -1.04335 3.63212 0
M  V30 8875 H 848.88 -1.52566 7.57591 0
M  V30 8876 H 847.225 -1.37888 6.81184 0
M  V30 8877 H 850.416 -1.2112 4.52159 0
M  V30 8878 H 850.589 -1.43136 6.31994 0
M  V30 8879 N 843.995 -1.47404 -0.557645 0
M  V30 8880 C 845.243 -1.53703 -1.31224 0
M  V30 8881 C 845.564 -0.200742 -1.93964 0
M  V30 8882 O 844.834 0.775253 -1.79907 0
M  V30 8883 H 843.414 -0.566171 -0.487299 0
M  V30 8884 H 846.076 -1.83699 -0.651195 0
M  V30 8885 H 845.172 -2.30335 -2.10599 0
M  V30 8886 N 845.473 0.80434 -1.35529 0
M  V30 8887 C 846.383 1.94784 -1.30753 0
M  V30 8888 C 847.399 1.72703 -0.212071 0
M  V30 8889 O 848.575 1.96494 -0.441841 0
M  V30 8890 C 845.64 3.29406 -1.08133 0
M  V30 8891 C 844.701 3.64367 -2.27013 0
M  V30 8892 C 843.934 4.92566 -2.05463 0
M  V30 8893 O 844.157 5.61166 -1.02222 0
M  V30 8894 O 843.091 5.25838 -2.92879 0
M  V30 8895 H 846.917 2.01761 -2.26994 0
M  V30 8896 H 844.502 0.942448 -1.15924 0
M  V30 8897 H 846.384 4.09995 -0.973756 0
M  V30 8898 H 845.059 3.23355 -0.149444 0
M  V30 8899 H 843.966 2.84146 -2.43335 0
M  V30 8900 H 845.299 3.75125 -3.18656 0
M  V30 8901 N 846.951 1.19563 1.02676 0
M  V30 8902 C 848.179 1.02488 1.79732 0
M  V30 8903 C 848.594 -0.426302 1.83924 0
M  V30 8904 O 847.951 -1.29609 1.28483 0
M  V30 8905 C 848.002 1.58944 3.24683 0
M  V30 8906 O 847.723 2.98382 3.2078 0
M  V30 8907 C 849.224 1.46681 4.1833 0
M  V30 8908 H 846.444 0.361098 0.565552 0
M  V30 8909 H 848.988 1.58426 1.29311 0
M  V30 8910 H 847.143 1.0715 3.72287 0
M  V30 8911 H 847.557 3.24983 4.11687 0
M  V30 8912 H 849.031 1.90959 5.17918 0
M  V30 8913 H 849.508 0.417663 4.3721 0
M  V30 8914 H 850.114 1.97616 3.76601 0
M  V30 8915 N 848.429 -1.21819 0.999893 0
M  V30 8916 C 849.669 -1.92473 0.687996 0
M  V30 8917 C 850.033 -1.76033 -0.766569 0
M  V30 8918 O 851.234 -2.41013 -1.19021 0
M  V30 8919 C 849.505 -3.40332 1.09129 0
M  V30 8920 S 851.064 -4.29496 0.898822 0
M  V30 8921 H 847.882 -0.665097 0.251329 0
M  V30 8922 H 850.484 -1.47454 1.28364 0
M  V30 8923 H 849.188 -3.49812 2.14615 0
M  V30 8924 H 848.719 -3.90365 0.487724 0
M  V30 8925 H 850.734 -4.95769 -0.206873 0
M  V30 8926 N 849.908 -0.773975 -1.37286 0
M  V30 8927 C 851.155 -0.339306 -1.99637 0
M  V30 8928 C 851.483 1.08478 -1.61439 0
M  V30 8929 O 850.738 1.7612 -0.853252 0
M  V30 8930 C 851.037 -0.432651 -3.54772 0
M  V30 8931 C 850.703 -1.81531 -4.12744 0
M  V30 8932 C 849.365 -2.19366 -4.2829 0
M  V30 8933 C 851.717 -2.72137 -4.44512 0
M  V30 8934 C 849.045 -3.47239 -4.72908 0
M  V30 8935 C 851.397 -3.99421 -4.90556 0
M  V30 8936 C 850.061 -4.37298 -5.04308 0
M  V30 8937 H 849.331 -0.124161 -0.730524 0
M  V30 8938 H 851.978 -0.988432 -1.64019 0
M  V30 8939 H 850.283 0.30001 -3.9065 0
M  V30 8940 H 851.98 -0.0776 -4.00925 0
M  V30 8941 H 848.57 -1.51126 -4.01072 0
M  V30 8942 H 852.754 -2.44165 -4.32084 0
M  V30 8943 H 848.01 -3.76477 -4.81742 0
M  V30 8944 H 852.184 -4.69756 -5.14104 0
M  V30 8945 H 849.811 -5.36442 -5.38641 0
M  V30 8946 N 851.386 1.48609 -0.524698 0
M  V30 8947 C 852.316 2.32366 0.229837 0
M  V30 8948 C 853.297 1.41759 0.940129 0
M  V30 8949 O 854.482 1.7065 0.926936 0
M  V30 8950 C 851.612 3.22835 1.28043 0
M  V30 8951 C 850.566 4.22424 0.688603 0
M  V30 8952 C 849.892 5.0199 1.84146 0
M  V30 8953 C 851.192 5.21217 -0.336176 0
M  V30 8954 H 852.886 2.95698 -0.469339 0
M  V30 8955 H 850.432 1.42197 -0.227156 0
M  V30 8956 H 852.385 3.80253 1.8162 0
M  V30 8957 H 851.109 2.57492 2.00912 0
M  V30 8958 H 849.768 3.66185 0.174402 0
M  V30 8959 H 849.416 4.33076 2.5584 0
M  V30 8960 H 849.116 5.69392 1.45142 0
M  V30 8961 H 850.64 5.62259 2.38111 0
M  V30 8962 H 852.054 5.7319 0.112307 0
M  V30 8963 H 850.451 5.96642 -0.643324 0
M  V30 8964 H 851.521 4.68676 -1.24381 0
M  V30 8965 N 852.864 0.259585 1.55447 0
M  V30 8966 C 853.794 -0.62852 2.24882 0
M  V30 8967 C 854.775 -1.17128 1.23349 0
M  V30 8968 O 855.96 -1.20829 1.52033 0
M  V30 8969 C 853.09 -1.81983 2.95803 0
M  V30 8970 C 852.044 -1.40929 4.04132 0
M  V30 8971 C 851.37 -2.68246 4.62545 0
M  V30 8972 C 852.67 -0.570956 5.1917 0
M  V30 8973 H 854.364 -0.0495021 2.99359 0
M  V30 8974 H 851.91 -0.0223688 1.43983 0
M  V30 8975 H 853.863 -2.44689 3.43082 0
M  V30 8976 H 852.587 -2.42444 2.18835 0
M  V30 8977 H 851.246 -0.805519 3.57641 0
M  V30 8978 H 850.894 -3.26931 3.82263 0
M  V30 8979 H 850.594 -2.41495 5.35681 0
M  V30 8980 H 852.118 -3.31827 5.12565 0
M  V30 8981 H 853.532 -1.10262 5.62597 0
M  V30 8982 H 851.929 -0.398979 5.98772 0
M  V30 8983 H 852.999 0.413918 4.8313 0
M  V30 8984 N 854.342 -1.57594 -0.0133615 0
M  V30 8985 C 855.57 -1.94251 -0.712328 0
M  V30 8986 C 855.985 -0.86063 -1.68043 0
M  V30 8987 O 855.342 0.161632 -1.81783 0
M  V30 8988 C 855.393 -3.30891 -1.45581 0
M  V30 8989 O 855.114 -4.34924 -0.526539 0
M  V30 8990 C 856.615 -3.81926 -2.2505 0
M  V30 8991 H 853.835 -0.640737 -0.199241 0
M  V30 8992 H 856.379 -2.04472 0.0337855 0
M  V30 8993 H 854.534 -3.22019 -2.15366 0
M  V30 8994 H 854.948 -5.1389 -1.04962 0
M  V30 8995 H 856.422 -4.79999 -2.72589 0
M  V30 8996 H 856.899 -3.13934 -3.07152 0
M  V30 8997 H 857.505 -3.93931 -1.60308 0
M  V30 8998 N 855.82 0.285905 -1.54985 0
M  V30 8999 C 857.048 1.03776 -1.78992 0
M  V30 9000 C 857.463 1.80402 -0.556814 0
M  V30 9001 O 856.82 1.76242 0.473801 0
M  V30 9002 C 856.871 2.0065 -3.00702 0
M  V30 9003 O 856.592 1.27131 -4.19249 0
M  V30 9004 C 858.093 2.87753 -3.37214 0
M  V30 9005 H 855.313 0.307126 -0.596586 0
M  V30 9006 H 857.857 0.3206 -2.01971 0
M  V30 9007 H 856.012 2.67847 -2.79887 0
M  V30 9008 H 856.426 1.92316 -4.8797 0
M  V30 9009 H 857.9 3.51548 -4.2558 0
M  V30 9010 H 858.377 3.56848 -2.56039 0
M  V30 9011 H 858.983 2.26065 -3.60242 0
M  V30 9012 N 857.298 1.47698 0.54982 0
M  V30 9013 C 858.546 1.54397 1.30407 0
M  V30 9014 C 858.867 0.211026 1.93855 0
M  V30 9015 O 858.137 -0.765701 1.80316 0
M  V30 9016 H 856.717 0.568747 0.484289 0
M  V30 9017 H 859.379 1.84042 0.641444 0
M  V30 9018 H 858.475 2.31449 2.09375 0
M  V30 9019 N 858.776 -0.797141 1.35954 0
M  V30 9020 C 860.053 -1.54224 1.2031 0
M  V30 9021 C 860.433 -2.10013 -0.213926 0
M  V30 9022 O 859.781 -1.93292 -1.21862 0
M  V30 9023 C 859.991 -2.6433 2.27883 0
M  V30 9024 C 861.339 -3.32418 2.64165 0
M  V30 9025 O 862.363 -2.74607 2.26868 0
M  V30 9026 O 861.222 -4.36876 3.28331 0
M  V30 9027 H 858.316 -0.681857 0.467974 0
M  V30 9028 H 860.862 -0.836288 1.47663 0
M  V30 9029 H 859.634 -2.21044 3.22885 0
M  V30 9030 H 859.257 -3.42551 2.01853 0
M  V30 9031 N 860.254 -1.20106 -1.0204 0
M  V30 9032 C 861.484 -1.0329 -1.78927 0
M  V30 9033 C 861.892 0.421115 -1.84454 0
M  V30 9034 O 861.235 1.30422 -1.29367 0
M  V30 9035 C 861.297 -1.53627 -3.25021 0
M  V30 9036 C 860.961 -3.01869 -3.4311 0
M  V30 9037 C 861.958 -3.9956 -3.32638 0
M  V30 9038 C 859.643 -3.40746 -3.6905 0
M  V30 9039 C 861.637 -5.34119 -3.47844 0
M  V30 9040 C 859.324 -4.75462 -3.839 0
M  V30 9041 C 860.322 -5.71957 -3.73302 0
M  V30 9042 O 860.01 -7.04231 -3.87703 0
M  V30 9043 H 859.742 -0.363962 -0.569656 0
M  V30 9044 H 862.296 -1.59551 -1.29354 0
M  V30 9045 H 860.526 -0.917481 -3.75658 0
M  V30 9046 H 862.215 -1.32889 -3.8353 0
M  V30 9047 H 862.981 -3.70869 -3.12539 0
M  V30 9048 H 858.86 -2.66182 -3.76388 0
M  V30 9049 H 862.404 -6.09421 -3.39488 0
M  V30 9050 H 858.301 -5.03844 -4.03499 0
M  V30 9051 H 859.069 -7.11425 -4.04744 0
M  V30 9052 N 861.732 1.21287 -1.00634 0
M  V30 9053 C 862.96 1.94385 -0.708678 0
M  V30 9054 C 863.375 1.7416 0.728957 0
M  V30 9055 O 862.732 1.04906 1.49335 0
M  V30 9056 C 862.783 3.46755 -1.02193 0
M  V30 9057 O 862.504 3.6631 -2.40309 0
M  V30 9058 C 864.005 4.37014 -0.743867 0
M  V30 9059 H 861.225 0.618136 -0.261052 0
M  V30 9060 H 863.769 1.54067 -1.34475 0
M  V30 9061 H 861.924 3.8499 -0.431441 0
M  V30 9062 H 862.338 4.60393 -2.51274 0
M  V30 9063 H 863.812 5.42621 -1.01321 0
M  V30 9064 H 864.289 4.38017 0.322084 0
M  V30 9065 H 864.895 4.04426 -1.31603 0
M  V30 9066 N 863.21 0.781244 1.36873 0
M  V30 9067 C 864.45 0.355185 2.0129 0
M  V30 9068 C 864.814 -1.05115 1.6067 0
M  V30 9069 O 866.015 -1.57785 2.17618 0
M  V30 9070 C 864.286 0.504587 3.5382 0
M  V30 9071 S 865.845 0.165196 4.38489 0
M  V30 9072 H 862.663 0.136133 0.697846 0
M  V30 9073 H 865.265 1.01794 1.66908 0
M  V30 9074 H 863.969 1.52857 3.80871 0
M  V30 9075 H 863.5 -0.174392 3.93013 0
M  V30 9076 H 865.515 -1.03605 4.85263 0
M  V30 9077 N 864.689 -1.48329 0.532571 0
M  V30 9078 C 865.652 -2.2816 -0.218069 0
M  V30 9079 C 866.652 -1.35526 -0.865409 0
M  V30 9080 O 867.842 -1.58394 -0.725061 0
M  V30 9081 C 864.974 -3.1448 -1.31586 0
M  V30 9082 H 866.167 -2.95987 0.482865 0
M  V30 9083 H 863.72 -1.53612 0.288603 0
M  V30 9084 H 864.455 -2.5129 -2.04997 0
M  V30 9085 H 864.24 -3.82625 -0.856779 0
M  V30 9086 H 865.73 -3.74693 -1.84377 0
M  V30 9087 N 866.167 -0.267825 -1.55308 0
M  V30 9088 C 867.392 0.357487 -2.04296 0
M  V30 9089 C 867.817 1.49222 -1.14518 0
M  V30 9090 O 867.175 1.80741 -0.142292 0
M  V30 9091 C 867.223 0.822899 -3.51085 0
M  V30 9092 O 866.327 1.93078 -3.6441 0
M  V30 9093 H 865.668 0.075025 -0.659748 0
M  V30 9094 H 868.198 -0.399996 -2.00652 0
M  V30 9095 H 868.208 1.12059 -3.92309 0
M  V30 9096 H 866.883 -0.0073562 -4.15899 0
M  V30 9097 H 865.46 1.63618 -3.35087 0
M  V30 9098 N 867.645 1.57599 0.00500368 0
M  V30 9099 C 868.922 1.81561 0.727654 0
M  V30 9100 C 869.302 0.871604 1.92266 0
M  V30 9101 O 868.65 -0.0808232 2.28357 0
M  V30 9102 C 868.86 3.29922 1.13809 0
M  V30 9103 C 870.208 3.95531 1.54403 0
M  V30 9104 O 871.232 3.34215 1.23202 0
M  V30 9105 O 870.091 5.03535 2.12402 0
M  V30 9106 H 867.185 0.747462 0.353878 0
M  V30 9107 H 869.731 1.69688 -0.0200667 0
M  V30 9108 H 868.503 3.90253 0.286078 0
M  V30 9109 H 868.126 3.46775 1.94507 0
M  V30 9110 N 869.123 -0.277682 1.55134 0
M  V30 9111 C 870.371 -1.00791 1.75173 0
M  V30 9112 C 870.692 -1.86987 0.553266 0
M  V30 9113 O 869.962 -1.91079 -0.43195 0
M  V30 9114 H 868.542 -0.375129 0.645978 0
M  V30 9115 H 871.204 -0.303041 1.9253 0
M  V30 9116 H 870.3 -1.64756 2.6507 0
M  V30 9117 N 870.601 -1.47988 -0.541979 0
M  V30 9118 C 871.849 -1.55086 -1.29587 0
M  V30 9119 C 872.17 -0.221304 -1.9374 0
M  V30 9120 O 871.44 0.756128 -1.80719 0
M  V30 9121 H 870.02 -0.571307 -0.481266 0
M  V30 9122 H 872.682 -1.8438 -0.631675 0
M  V30 9123 H 871.778 -2.32556 -2.08144 0
M  V30 9124 N 872.079 0.78992 -1.36375 0
M  V30 9125 C 873.328 1.54296 -1.29906 0
M  V30 9126 C 873.641 1.95234 0.119651 0
M  V30 9127 O 874.847 2.69762 0.306708 0
M  V30 9128 C 873.303 2.78533 -2.27919 0
M  V30 9129 C 872.911 2.44767 -3.75224 0
M  V30 9130 C 874.655 3.56516 -2.30427 0
M  V30 9131 C 872.562 3.65397 -4.65015 0
M  V30 9132 H 871.492 0.579214 -0.482729 0
M  V30 9133 H 874.143 0.866845 -1.61735 0
M  V30 9134 H 872.525 3.47941 -1.89084 0
M  V30 9135 H 873.699 1.83259 -4.22792 0
M  V30 9136 H 872.014 1.79996 -3.75487 0
M  V30 9137 H 874.611 4.46143 -2.94722 0
M  V30 9138 H 874.954 3.95063 -1.31266 0
M  V30 9139 H 875.487 2.94087 -2.67876 0
M  V30 9140 H 872.226 3.31946 -5.65236 0
M  V30 9141 H 871.746 4.26072 -4.22164 0
M  V30 9142 H 873.425 4.32431 -4.81261 0
M  V30 9143 N 873.557 1.20646 1.01402 0
M  V30 9144 C 874.973 0.961866 1.27359 0
M  V30 9145 C 875.173 -0.357083 1.98311 0
M  V30 9146 O 874.229 -1.08498 2.28001 0
M  V30 9147 C 875.542 2.14627 2.10609 0
M  V30 9148 C 877.09 2.18753 2.23866 0
M  V30 9149 C 877.565 3.36686 3.10494 0
M  V30 9150 N 879.056 3.36716 3.18083 0
M  V30 9151 C 879.791 4.24615 3.85343 0
M  V30 9152 N 879.287 5.22697 4.54708 0
M  V30 9153 N 881.08 4.12449 3.81893 0
M  V30 9154 H 873.231 2.05481 0.537721 0
M  V30 9155 H 875.494 0.899292 0.299963 0
M  V30 9156 H 875.2 3.10159 1.65814 0
M  V30 9157 H 875.074 2.12935 3.11349 0
M  V30 9158 H 877.461 1.23782 2.67885 0
M  V30 9159 H 877.542 2.24492 1.22626 0
M  V30 9160 H 877.186 4.31945 2.67181 0
M  V30 9161 H 877.116 3.28185 4.11828 0
M  V30 9162 H 879.607 2.65728 2.68695 0
M  V30 9163 H 879.92 5.86087 5.03708 0
M  V30 9164 H 878.265 5.26631 4.53525 0
M  V30 9165 H 881.456 3.35091 3.26851 0
M  V30 9166 H 881.629 4.81162 4.34035 0
M  V30 9167 N 875.035 -1.20752 1.01276 0
M  V30 9168 C 875.982 -2.234 0.579732 0
M  V30 9169 C 876.952 -1.61256 -0.398206 0
M  V30 9170 O 878.137 -1.8845 -0.29851 0
M  V30 9171 C 875.277 -3.45008 -0.0797006 0
M  V30 9172 C 874.39 -4.21597 0.942343 0
M  V30 9173 C 873.525 -5.30591 0.254364 0
M  V30 9174 C 872.564 -5.98919 1.26343 0
M  V30 9175 N 871.701 -6.99511 0.602384 0
M  V30 9176 H 876.541 -2.59801 1.45971 0
M  V30 9177 H 874.078 -1.27663 0.730787 0
M  V30 9178 H 876.036 -4.1444 -0.479125 0
M  V30 9179 H 874.666 -3.09312 -0.923354 0
M  V30 9180 H 873.718 -3.51268 1.45996 0
M  V30 9181 H 875.03 -4.68576 1.70992 0
M  V30 9182 H 874.184 -6.06368 -0.200763 0
M  V30 9183 H 872.923 -4.84639 -0.545553 0
M  V30 9184 H 871.928 -5.21906 1.72898 0
M  V30 9185 H 873.153 -6.46957 2.06456 0
M  V30 9186 H 871.099 -6.55759 -0.177734 0
M  V30 9187 H 871.016 -7.44597 1.30809 0
M  V30 9188 H 872.284 -7.79313 0.17072 0
M  V30 9189 N 876.513 -0.788492 -1.36457 0
M  V30 9190 C 877.761 -0.359749 -1.98872 0
M  V30 9191 C 878.082 1.07197 -1.62892 0
M  V30 9192 O 877.352 1.73875 -0.902463 0
M  V30 9193 H 875.932 -0.130029 -0.735596 0
M  V30 9194 H 878.594 -1.01033 -1.66668 0
M  V30 9195 H 877.69 -0.450835 -3.08827 0
M  V30 9196 N 877.991 1.48044 -0.54043 0
M  V30 9197 C 879.221 2.06595 -0.0144943 0
M  V30 9198 C 879.629 1.39593 1.27713 0
M  V30 9199 O 878.972 0.480794 1.77297 0
M  V30 9200 C 879.034 3.5849 0.269316 0
M  V30 9201 C 878.698 4.47429 -0.930372 0
M  V30 9202 C 879.695 4.8657 -1.83155 0
M  V30 9203 C 877.38 4.89185 -1.14032 0
M  V30 9204 C 879.374 5.66246 -2.92649 0
M  V30 9205 C 877.061 5.6863 -2.23838 0
M  V30 9206 C 878.059 6.07069 -3.12979 0
M  V30 9207 O 877.747 6.84917 -4.20884 0
M  V30 9208 H 877.479 0.675086 -0.0351467 0
M  V30 9209 H 880.033 1.91275 -0.74853 0
M  V30 9210 H 878.263 3.71961 1.05745 0
M  V30 9211 H 879.952 3.99124 0.738595 0
M  V30 9212 H 880.718 4.54924 -1.68134 0
M  V30 9213 H 876.597 4.58742 -0.455717 0
M  V30 9214 H 880.141 5.96169 -3.62254 0
M  V30 9215 H 876.038 5.99688 -2.38839 0
M  V30 9216 H 876.806 7.03287 -4.18723 0
M  V30 9217 N 879.47 0.276058 1.55163 0
M  V30 9218 C 880.38 -0.621066 2.2623 0
M  V30 9219 C 881.396 -1.16931 1.28853 0
M  V30 9220 O 882.572 -1.1994 1.61791 0
M  V30 9221 C 879.637 -1.78824 2.97023 0
M  V30 9222 C 878.698 -1.27657 4.09881 0
M  V30 9223 C 877.931 -2.38812 4.77289 0
M  V30 9224 O 878.154 -3.58188 4.43912 0
M  V30 9225 O 877.088 -2.06915 5.65217 0
M  V30 9226 H 880.914 -0.0453346 3.03666 0
M  V30 9227 H 878.499 0.0434275 1.49337 0
M  V30 9228 H 880.381 -2.46877 3.41511 0
M  V30 9229 H 879.056 -2.35104 2.22503 0
M  V30 9230 H 877.963 -0.56248 3.69847 0
M  V30 9231 H 879.296 -0.759509 4.86305 0
M  V30 9232 N 880.948 -1.576 0.00335426 0
M  V30 9233 C 881.895 -2.08632 -0.986975 0
M  V30 9234 C 882.865 -0.982491 -1.33927 0
M  V30 9235 O 884.05 -1.25513 -1.43705 0
M  V30 9236 C 881.19 -2.59705 -2.27261 0
M  V30 9237 C 880.303 -3.84002 -1.97905 0
M  V30 9238 C 879.438 -4.23563 -3.20574 0
M  V30 9239 C 878.477 -5.40688 -2.8692 0
M  V30 9240 N 877.614 -5.75526 -4.02136 0
M  V30 9241 H 882.454 -2.92977 -0.544855 0
M  V30 9242 H 879.991 -1.44831 -0.257376 0
M  V30 9243 H 881.949 -2.87395 -3.02423 0
M  V30 9244 H 880.579 -1.7823 -2.69136 0
M  V30 9245 H 879.631 -3.63199 -1.13096 0
M  V30 9246 H 880.943 -4.69261 -1.69102 0
M  V30 9247 H 880.097 -4.52554 -4.04079 0
M  V30 9248 H 878.836 -3.37019 -3.52518 0
M  V30 9249 H 877.841 -5.11417 -2.01822 0
M  V30 9250 H 879.066 -6.2891 -2.5622 0
M  V30 9251 H 877.012 -4.9194 -4.33971 0
M  V30 9252 H 876.929 -6.55367 -3.76869 0
M  V30 9253 H 878.197 -6.0911 -4.8642 0
M  V30 9254 N 882.426 0.269451 -1.5528 0
M  V30 9255 C 883.651 1.02299 -1.80415 0
M  V30 9256 C 884.076 1.7902 -0.577363 0
M  V30 9257 O 883.434 1.75018 0.473125 0
M  V30 9258 C 883.482 1.95445 -3.0304 0
M  V30 9259 O 882.586 3.04271 -2.78375 0
M  V30 9260 H 881.927 0.292289 -0.596207 0
M  V30 9261 H 884.457 0.297282 -2.02429 0
M  V30 9262 H 884.467 2.37333 -3.31869 0
M  V30 9263 H 883.142 1.39017 -3.91978 0
M  V30 9264 H 881.719 2.66673 -2.60653 0
M  V30 9265 N 883.904 1.48273 0.534124 0
M  V30 9266 C 885.32 1.34302 0.862272 0
M  V30 9267 C 885.52 0.350902 1.98421 0
M  V30 9268 O 884.576 -0.229364 2.51456 0
M  V30 9269 C 885.889 2.74227 1.23371 0
M  V30 9270 C 887.437 2.82684 1.34383 0
M  V30 9271 C 887.912 4.23301 1.74871 0
M  V30 9272 N 889.403 4.25954 1.81981 0
M  V30 9273 C 890.138 5.31693 2.14686 0
M  V30 9274 N 889.634 6.47714 2.45844 0
M  V30 9275 N 891.427 5.19084 2.15657 0
M  V30 9276 H 883.578 2.11397 -0.206215 0
M  V30 9277 H 885.841 0.947537 -0.0296116 0
M  V30 9278 H 885.547 3.48368 0.482967 0
M  V30 9279 H 885.421 3.07485 2.18478 0
M  V30 9280 H 887.808 2.08801 2.08534 0
M  V30 9281 H 887.889 2.5305 0.374063 0
M  V30 9282 H 887.533 4.97699 1.01282 0
M  V30 9283 H 887.463 4.50376 2.7289 0
M  V30 9284 H 889.954 3.42266 1.60196 0
M  V30 9285 H 890.267 7.2414 2.69892 0
M  V30 9286 H 888.612 6.50995 2.43372 0
M  V30 9287 H 891.803 4.27463 1.9077 0
M  V30 9288 H 891.976 6.01592 2.40813 0
M  V30 9289 N 885.382 -0.782676 1.36792 0
M  V30 9290 C 886.607 -1.57676 1.34733 0
M  V30 9291 C 887.032 -1.87979 -0.0675253 0
M  V30 9292 O 886.39 -1.48404 -1.04144 0
M  V30 9293 C 886.438 -2.87047 2.18257 0
M  V30 9294 O 885.542 -3.80946 1.57969 0
M  V30 9295 H 884.883 -0.478034 0.460846 0
M  V30 9296 H 887.413 -0.969578 1.80168 0
M  V30 9297 H 887.423 -3.36254 2.31079 0
M  V30 9298 H 886.098 -2.64319 3.21104 0
M  V30 9299 H 884.675 -3.39558 1.54126 0
M  V30 9300 N 886.86 -1.21182 -1.00761 0
M  V30 9301 C 887.79 -0.992773 -2.11344 0
M  V30 9302 C 888.771 0.0813618 -1.69905 0
M  V30 9303 O 889.956 -0.0779503 -1.94043 0
M  V30 9304 C 887.086 -0.553826 -3.42856 0
M  V30 9305 C 886.04 -1.57223 -3.98077 0
M  V30 9306 C 885.366 -0.989605 -5.25463 0
M  V30 9307 C 886.666 -2.95839 -4.30438 0
M  V30 9308 H 888.36 -1.91766 -2.29927 0
M  V30 9309 H 885.906 -0.923426 -1.10494 0
M  V30 9310 H 887.859 -0.387771 -4.19612 0
M  V30 9311 H 886.583 0.406702 -3.24058 0
M  V30 9312 H 885.242 -1.7258 -3.23437 0
M  V30 9313 H 884.89 -0.0208743 -5.02996 0
M  V30 9314 H 884.59 -1.66984 -5.63374 0
M  V30 9315 H 886.114 -0.834815 -6.04866 0
M  V30 9316 H 887.528 -2.8394 -4.98047 0
M  V30 9317 H 885.925 -3.60851 -4.79486 0
M  V30 9318 H 886.995 -3.46882 -3.38823 0
M  V30 9319 N 888.338 1.20213 -1.01915 0
M  V30 9320 C 889.286 2.25125 -0.584936 0
M  V30 9321 C 890.28 1.65138 0.377602 0
M  V30 9322 O 891.486 1.78294 0.247245 0
M  V30 9323 H 887.861 0.732333 -0.170858 0
M  V30 9324 H 889.832 2.59075 -1.48063 0
M  V30 9325 C 888.581 3.47651 0.058389 0
M  V30 9326 H 887.904 3.9409 -0.673263 0
M  V30 9327 H 889.344 4.2275 0.325285 0
M  V30 9328 C 887.803 3.10725 1.30199 0
M  V30 9329 O 888.333 3.22491 2.39505 0
M  V30 9330 N 886.539 2.6525 1.18706 0
M  V30 9331 H 886.086 2.55875 0.297618 0
M  V30 9332 H 886.044 2.40913 2.02011 0
M  V30 9333 N 889.816 0.795718 1.36037 0
M  V30 9334 C 890.764 0.18649 2.31851 0
M  V30 9335 C 891.758 -0.657704 1.56111 0
M  V30 9336 O 892.964 -0.552083 1.71324 0
M  V30 9337 H 889.339 0.0415363 0.750852 0
M  V30 9338 H 891.31 1.00992 2.8079 0
M  V30 9339 C 890.059 -0.65918 3.41394 0
M  V30 9340 H 889.382 -0.01894 3.99796 0
M  V30 9341 H 890.822 -1.05202 4.10741 0
M  V30 9342 C 889.281 -1.82011 2.83502 0
M  V30 9343 O 889.811 -2.91703 2.76174 0
M  V30 9344 N 888.017 -1.62821 2.40703 0
M  V30 9345 H 887.564 -0.735965 2.46863 0
M  V30 9346 H 887.522 -2.40657 2.02316 0
M  V30 9347 N 891.294 -1.47756 0.548274 0
M  V30 9348 C 892.543 -2.01691 0.0187961 0
M  V30 9349 C 892.856 -1.42894 -1.33569 0
M  V30 9350 O 894.062 -1.88438 -1.95457 0
M  V30 9351 C 892.518 -3.59896 -0.016847 0
M  V30 9352 C 892.126 -4.27683 1.33385 0
M  V30 9353 C 893.87 -4.21614 -0.494188 0
M  V30 9354 C 891.777 -5.7787 1.2578 0
M  V30 9355 H 890.707 -0.753993 0.00325648 0
M  V30 9356 H 893.358 -1.69838 0.694792 0
M  V30 9357 H 891.74 -3.88672 -0.758304 0
M  V30 9358 H 892.914 -4.10559 2.09232 0
M  V30 9359 H 891.229 -3.77915 1.7484 0
M  V30 9360 H 893.826 -5.3166 -0.569342 0
M  V30 9361 H 894.169 -3.88176 -1.50417 0
M  V30 9362 H 894.702 -3.97336 0.192138 0
M  V30 9363 H 891.441 -6.15912 2.2435 0
M  V30 9364 H 890.961 -5.97355 0.540997 0
M  V30 9365 H 892.64 -6.39897 0.956109 0
M  V30 9366 N 892.772 -0.284283 -1.55015 0
M  V30 9367 C 893.735 0.586182 -2.21577 0
M  V30 9368 C 894.735 1.07427 -1.1965 0
M  V30 9369 O 895.925 0.972977 -1.44495 0
M  V30 9370 C 893.057 1.80973 -2.88897 0
M  V30 9371 H 894.25 0.00487253 -2.999 0
M  V30 9372 H 891.803 -0.0349696 -1.56261 0
M  V30 9373 H 892.538 2.43131 -2.14611 0
M  V30 9374 H 892.323 1.46757 -3.636 0
M  V30 9375 H 893.813 2.42853 -3.39724 0
M  V30 9376 N 894.251 1.57596 -0.0117121 0
M  V30 9377 C 895.499 1.90694 0.669342 0
M  V30 9378 C 895.82 0.886999 1.73659 0
M  V30 9379 O 895.09 -0.0739779 1.9576 0
M  V30 9380 H 893.67 0.703846 0.250219 0
M  V30 9381 H 896.332 1.94821 -0.0554057 0
M  V30 9382 H 895.428 2.90802 1.13316 0
M  V30 9383 N 895.729 -0.261212 1.5542 0
M  V30 9384 C 896.659 -1.32712 1.92119 0
M  V30 9385 C 897.64 -1.50934 0.784406 0
M  V30 9386 O 898.825 -1.63781 1.04352 0
M  V30 9387 C 895.955 -2.68453 2.20341 0
M  V30 9388 C 894.909 -2.64947 3.36136 0
M  V30 9389 C 894.235 -4.04349 3.49865 0
M  V30 9390 C 895.535 -2.23182 4.72215 0
M  V30 9391 H 897.229 -1.02245 2.81401 0
M  V30 9392 H 894.775 -0.490406 1.35392 0
M  V30 9393 H 896.728 -3.43144 2.44603 0
M  V30 9394 H 895.452 -3.00527 1.27871 0
M  V30 9395 H 894.111 -1.92714 3.11861 0
M  V30 9396 H 893.759 -4.33665 2.5484 0
M  V30 9397 H 893.459 -4.02895 4.27726 0
M  V30 9398 H 894.983 -4.80761 3.76432 0
M  V30 9399 H 896.397 -2.87599 4.95943 0
M  V30 9400 H 894.794 -2.32867 5.53076 0
M  V30 9401 H 895.864 -1.18327 4.70241 0
M  V30 9402 N 897.207 -1.48554 -0.526253 0
M  V30 9403 C 898.17 -1.62868 -1.61266 0
M  V30 9404 C 899.17 -0.501762 -1.52771 0
M  V30 9405 O 900.36 -0.76764 -1.56374 0
M  V30 9406 C 897.492 -1.60238 -3.00893 0
M  V30 9407 H 898.685 -2.59742 -1.49913 0
M  V30 9408 H 896.238 -1.37207 -0.748595 0
M  V30 9409 H 896.973 -0.648545 -3.17749 0
M  V30 9410 H 896.758 -2.42054 -3.08468 0
M  V30 9411 H 898.248 -1.73455 -3.79872 0
M  V30 9412 N 898.685 0.775411 -1.37205 0
M  V30 9413 C 899.933 1.53081 -1.3195 0
M  V30 9414 C 900.254 1.9476 0.0966864 0
M  V30 9415 O 899.524 1.66019 1.03993 0
M  V30 9416 H 898.104 0.567762 -0.485444 0
M  V30 9417 H 900.766 0.92309 -1.71654 0
M  V30 9418 H 899.862 2.4319 -1.95614 0
M  V30 9419 N 900.163 1.21714 1.00117 0
M  V30 9420 C 901.111 0.976937 2.11089 0
M  V30 9421 C 902.105 -0.0771295 1.69224 0
M  V30 9422 O 903.311 0.0745945 1.79845 0
M  V30 9423 H 899.686 0.298687 0.690138 0
M  V30 9424 H 901.657 1.91881 2.28526 0
M  V30 9425 C 900.406 0.562369 3.43122 0
M  V30 9426 H 899.729 1.36509 3.75773 0
M  V30 9427 H 901.169 0.433642 4.21777 0
M  V30 9428 C 899.628 -0.727148 3.28959 0
M  V30 9429 O 900.158 -1.78171 3.60025 0
M  V30 9430 N 898.364 -0.695129 2.82164 0
M  V30 9431 H 897.911 0.163346 2.57082 0
M  V30 9432 H 897.869 -1.55822 2.73069 0
M  V30 9433 N 901.641 -1.19671 1.02551 0
M  V30 9434 C 902.604 -2.20987 0.608055 0
M  V30 9435 C 903.604 -1.5745 -0.326534 0
M  V30 9436 O 904.794 -1.73827 -0.114003 0
M  V30 9437 C 901.926 -3.4072 -0.11074 0
M  V30 9438 H 903.119 -2.59434 1.50446 0
M  V30 9439 H 900.672 -1.3329 0.816307 0
M  V30 9440 H 901.407 -3.07787 -1.02165 0
M  V30 9441 H 901.192 -3.88069 0.560772 0
M  V30 9442 H 902.682 -4.15776 -0.389848 0
M  V30 9443 N 903.119 -0.802921 -1.35613 0
M  V30 9444 C 904.049 -0.225131 -2.32412 0
M  V30 9445 C 905.03 0.647383 -1.57299 0
M  V30 9446 O 906.215 0.578414 -1.85386 0
M  V30 9447 C 903.345 0.630085 -3.41537 0
M  V30 9448 C 902.299 -0.143635 -4.27759 0
M  V30 9449 C 901.625 0.833046 -5.28171 0
M  V30 9450 C 902.925 -1.34054 -5.04804 0
M  V30 9451 H 904.619 -1.03385 -2.80984 0
M  V30 9452 H 902.165 -0.498593 -1.35093 0
M  V30 9453 H 904.118 1.04433 -4.08254 0
M  V30 9454 H 902.842 1.47165 -2.91565 0
M  V30 9455 H 901.501 -0.539015 -3.62616 0
M  V30 9456 H 901.149 1.67001 -4.74468 0
M  V30 9457 H 900.849 0.319697 -5.8673 0
M  V30 9458 H 902.373 1.24558 -5.97761 0
M  V30 9459 H 903.787 -1.00136 -5.64487 0
M  V30 9460 H 902.184 -1.78812 -5.72841 0
M  V30 9461 H 903.254 -2.12906 -4.35659 0
M  V30 9462 N 904.597 1.47463 -0.556102 0
M  V30 9463 C 906.013 1.58134 -0.21579 0
M  V30 9464 C 906.213 1.55486 1.28166 0
M  V30 9465 O 905.269 1.45768 2.06174 0
M  V30 9466 C 906.582 2.88686 -0.841464 0
M  V30 9467 C 908.13 3.02268 -0.812591 0
M  V30 9468 C 908.605 4.35518 -1.41731 0
M  V30 9469 N 910.096 4.42151 -1.38045 0
M  V30 9470 C 910.831 5.43817 -1.81799 0
M  V30 9471 N 910.327 6.52299 -2.33404 0
M  V30 9472 N 912.12 5.34855 -1.72877 0
M  V30 9473 H 904.271 1.47428 -1.52901 0
M  V30 9474 H 906.534 0.701586 -0.637559 0
M  V30 9475 H 906.24 2.96358 -1.8938 0
M  V30 9476 H 906.114 3.7572 -0.333846 0
M  V30 9477 H 908.501 2.94194 0.231056 0
M  V30 9478 H 908.582 2.16779 -1.35796 0
M  V30 9479 H 908.226 4.44348 -2.46002 0
M  V30 9480 H 908.156 5.19737 -0.847402 0
M  V30 9481 H 910.647 3.64348 -1.00296 0
M  V30 9482 H 910.96 7.26047 -2.64717 0
M  V30 9483 H 909.305 6.53192 -2.37414 0
M  V30 9484 H 912.496 4.49004 -1.32338 0
M  V30 9485 H 912.669 6.13949 -2.07294 0
M  V30 9486 N 906.075 0.2925 1.54862 0
M  V30 9487 C 907.005 -0.580677 2.26165 0
M  V30 9488 C 907.986 -1.14485 1.25806 0
M  V30 9489 O 909.171 -1.17577 1.54562 0
M  V30 9490 C 906.301 -1.75668 2.99596 0
M  V30 9491 C 905.255 -1.32325 4.07031 0
M  V30 9492 C 904.581 -2.58374 4.68131 0
M  V30 9493 C 905.881 -0.460703 5.20264 0
M  V30 9494 H 907.575 0.0140075 2.99397 0
M  V30 9495 H 905.121 0.00817706 1.43998 0
M  V30 9496 H 907.074 -2.37356 3.48195 0
M  V30 9497 H 905.798 -2.37747 2.23928 0
M  V30 9498 H 904.457 -0.729477 3.59269 0
M  V30 9499 H 904.105 -3.18749 3.89112 0
M  V30 9500 H 903.805 -2.30078 5.40683 0
M  V30 9501 H 905.329 -3.2088 5.19489 0
M  V30 9502 H 906.743 -0.983037 5.64809 0
M  V30 9503 H 905.14 -0.271881 5.99484 0
M  V30 9504 H 906.21 0.516304 4.82143 0
M  V30 9505 N 907.553 -1.57587 0.0200696 0
M  V30 9506 C 908.778 -1.96124 -0.674547 0
M  V30 9507 C 909.203 -0.896068 -1.65385 0
M  V30 9508 O 908.561 0.143925 -1.80728 0
M  V30 9509 C 908.609 -3.3376 -1.36517 0
M  V30 9510 O 907.713 -3.29483 -2.48022 0
M  V30 9511 H 907.054 -0.639719 -0.177919 0
M  V30 9512 H 909.584 -2.04447 0.0792317 0
M  V30 9513 H 909.594 -3.69785 -1.72403 0
M  V30 9514 H 908.269 -4.10832 -0.647265 0
M  V30 9515 H 906.846 -3.05162 -2.14314 0
M  V30 9516 N 909.032 0.252966 -1.55557 0
M  V30 9517 C 910.443 0.822503 -1.67606 0
M  V30 9518 C 910.794 1.86265 -0.616411 0
M  V30 9519 O 909.919 2.15082 0.238447 0
M  V30 9520 C 910.514 1.49866 -3.03852 0
M  V30 9521 C 909.073 2.01597 -3.17861 0
M  V30 9522 C 908.22 0.864943 -2.63465 0
M  V30 9523 H 911.171 0.0288958 -1.58674 0
M  V30 9524 H 911.192 2.36646 -2.97958 0
M  V30 9525 H 910.704 0.741378 -3.80953 0
M  V30 9526 H 908.805 2.80224 -2.45571 0
M  V30 9527 H 908.918 2.21752 -4.24692 0
M  V30 9528 H 907.282 1.2638 -2.21134 0
M  V30 9529 H 908.065 0.120847 -3.43087 0
M  V30 9530 N 910.51 1.48831 0.518367 0
M  V30 9531 C 911.756 1.57672 1.27543 0
M  V30 9532 C 912.089 0.254915 1.9252 0
M  V30 9533 O 911.364 -0.740107 1.79868 0
M  V30 9534 C 911.647 2.72345 2.35585 0
M  V30 9535 C 911.5 4.14267 1.75224 0
M  V30 9536 C 912.819 2.82726 3.37274 0
M  V30 9537 H 909.938 0.573926 0.462361 0
M  V30 9538 H 912.58 1.8105 0.576267 0
M  V30 9539 H 910.73 2.52543 2.95219 0
M  V30 9540 H 912.402 4.45539 1.19551 0
M  V30 9541 H 910.645 4.20724 1.05706 0
M  V30 9542 H 911.316 4.90345 2.53507 0
M  V30 9543 H 913.792 3.00699 2.8761 0
M  V30 9544 H 912.668 3.6467 4.10252 0
M  V30 9545 H 912.929 1.9136 3.9854 0
M  V30 9546 N 911.988 -0.768124 1.37614 0
M  V30 9547 C 913.216 -1.55726 1.36224 0
M  V30 9548 C 913.631 -1.8873 -0.0515357 0
M  V30 9549 O 912.988 -1.51718 -1.0143 0
M  V30 9550 C 913.039 -2.86533 2.20412 0
M  V30 9551 O 912.76 -2.54942 3.56281 0
M  V30 9552 C 914.261 -3.80745 2.27041 0
M  V30 9553 H 911.481 -0.482325 0.46648 0
M  V30 9554 H 914.025 -0.95176 1.81002 0
M  V30 9555 H 912.18 -3.43496 1.79134 0
M  V30 9556 H 912.594 -3.38732 4.00451 0
M  V30 9557 H 914.068 -4.69523 2.90263 0
M  V30 9558 H 914.545 -4.20138 1.27987 0
M  V30 9559 H 915.151 -3.2971 2.68647 0
M  V30 9560 N 913.466 -1.22244 -0.994698 0
M  V30 9561 C 914.691 -1.07299 -1.77487 0
M  V30 9562 C 915.116 0.372302 -1.84379 0
M  V30 9563 O 914.474 1.2689 -1.29494 0
M  V30 9564 C 914.522 -1.68675 -3.18718 0
M  V30 9565 O 913.626 -0.939202 -4.01563 0
M  V30 9566 H 912.967 -0.376979 -0.546611 0
M  V30 9567 H 915.497 -1.62003 -1.24965 0
M  V30 9568 H 915.507 -1.73324 -3.69354 0
M  V30 9569 H 914.182 -2.73849 -3.13017 0
M  V30 9570 H 912.759 -0.968583 -3.60101 0
M  V30 9571 N 914.944 1.19125 -1.03184 0
M  V30 9572 C 916.355 1.70564 -0.759264 0
M  V30 9573 C 916.706 1.8248 0.720794 0
M  V30 9574 O 915.831 1.49804 1.56166 0
M  V30 9575 C 916.426 3.09793 -1.37163 0
M  V30 9576 C 914.985 3.5848 -1.14757 0
M  V30 9577 C 914.132 2.35265 -1.46784 0
M  V30 9578 H 917.083 1.03925 -1.19939 0
M  V30 9579 H 917.104 3.72624 -0.77015 0
M  V30 9580 H 916.616 3.01088 -2.44882 0
M  V30 9581 H 914.717 3.72494 -0.0887182 0
M  V30 9582 H 914.83 4.42426 -1.83836 0
M  V30 9583 H 913.194 2.38747 -0.887254 0
M  V30 9584 H 913.977 2.29188 -2.55593 0
M  V30 9585 N 916.422 0.810101 1.35185 0
M  V30 9586 C 917.652 0.404109 2.02609 0
M  V30 9587 C 918.06 -0.990748 1.61186 0
M  V30 9588 O 917.403 -1.65038 0.80674 0
M  V30 9589 C 917.465 0.412047 3.57131 0
M  V30 9590 C 917.129 1.75802 4.21832 0
M  V30 9591 C 918.126 2.71687 4.43263 0
M  V30 9592 C 915.811 2.04299 4.58876 0
M  V30 9593 C 917.805 3.9425 5.00845 0
M  V30 9594 C 915.492 3.27125 5.16171 0
M  V30 9595 C 916.49 4.21918 5.37098 0
M  V30 9596 O 916.178 5.42576 5.93184 0
M  V30 9597 H 915.91 0.161914 0.656323 0
M  V30 9598 H 918.464 1.09605 1.73712 0
M  V30 9599 H 916.694 -0.336509 3.85233 0
M  V30 9600 H 918.383 0.0278817 4.0589 0
M  V30 9601 H 919.149 2.50964 4.15021 0
M  V30 9602 H 915.028 1.31324 4.41899 0
M  V30 9603 H 918.572 4.68251 5.17094 0
M  V30 9604 H 914.469 3.47718 5.43841 0
M  V30 9605 H 915.237 5.43921 6.11631 0
M  V30 9606 N 917.9 -1.47166 0.563914 0
M  V30 9607 C 918.848 -2.31798 -0.193009 0
M  V30 9608 C 919.842 -1.43338 -0.902805 0
M  V30 9609 O 921.048 -1.60067 -0.823328 0
M  V30 9610 H 917.423 -0.747613 -0.0811139 0
M  V30 9611 H 919.394 -2.93476 0.539876 0
M  V30 9612 C 918.143 -3.26131 -1.20555 0
M  V30 9613 H 917.466 -3.94166 -0.668803 0
M  V30 9614 H 918.906 -3.88167 -1.70593 0
M  V30 9615 C 917.365 -2.50132 -2.25689 0
M  V30 9616 O 917.895 -2.25064 -3.3273 0
M  V30 9617 N 916.101 -2.11022 -1.99795 0
M  V30 9618 H 915.648 -2.3161 -1.1276 0
M  V30 9619 H 915.606 -1.60489 -2.70353 0
M  V30 9620 N 919.378 -0.300708 -1.54705 0
M  V30 9621 C 920.603 0.314073 -2.05008 0
M  V30 9622 C 921.028 1.46759 -1.17657 0
M  V30 9623 O 920.386 1.80398 -0.180598 0
M  V30 9624 C 920.434 0.748243 -3.52752 0
M  V30 9625 O 919.538 1.85305 -3.68424 0
M  V30 9626 H 918.879 0.0610139 -0.661191 0
M  V30 9627 H 921.409 -0.442467 -1.99758 0
M  V30 9628 H 921.419 1.03713 -3.94598 0
M  V30 9629 H 920.094 -0.095573 -4.1579 0
M  V30 9630 H 918.671 1.56473 -3.38483 0
M  V30 9631 N 920.856 1.57574 -0.0284266 0
M  V30 9632 C 922.267 1.79585 0.510502 0
M  V30 9633 C 922.618 0.938625 1.72291 0
M  V30 9634 O 921.743 0.14884 2.15888 0
M  V30 9635 C 922.338 3.25703 0.932912 0
M  V30 9636 C 920.897 3.48711 1.41696 0
M  V30 9637 C 920.044 2.74665 0.381356 0
M  V30 9638 H 922.995 1.56647 -0.254464 0
M  V30 9639 H 923.016 3.35376 1.79731 0
M  V30 9640 H 922.528 3.88067 0.0503036 0
M  V30 9641 H 920.629 2.91597 2.31952 0
M  V30 9642 H 920.742 4.57423 1.42481 0
M  V30 9643 H 919.106 2.40123 0.8493 0
M  V30 9644 H 919.889 3.39745 -0.492775 0
M  V30 9645 N 922.334 -0.244713 1.55689 0
M  V30 9646 C 923.574 -0.979776 1.79387 0
M  V30 9647 C 923.938 -1.8244 0.598298 0
M  V30 9648 O 925.139 -2.59141 0.7141 0
M  V30 9649 C 923.41 -1.81573 3.07841 0
M  V30 9650 S 924.969 -2.60959 3.52769 0
M  V30 9651 H 921.787 -0.329526 0.630027 0
M  V30 9652 H 924.389 -0.247435 1.93928 0
M  V30 9653 H 923.093 -1.18497 3.92921 0
M  V30 9654 H 922.624 -2.59078 2.96044 0
M  V30 9655 H 924.639 -3.83987 3.14275 0
M  V30 9656 N 923.813 -1.49104 -0.510467 0
M  V30 9657 C 925.224 -1.51423 -1.09215 0
M  V30 9658 C 925.575 -0.295035 -1.93969 0
M  V30 9659 O 924.7 0.596064 -2.08029 0
M  V30 9660 C 925.295 -2.74387 -1.98739 0
M  V30 9661 C 923.854 -2.79515 -2.52088 0
M  V30 9662 C 923.001 -2.4521 -1.29488 0
M  V30 9663 H 925.952 -1.55938 -0.294807 0
M  V30 9664 H 925.973 -2.54012 -2.83298 0
M  V30 9665 H 925.485 -3.63105 -1.37026 0
M  V30 9666 H 923.586 -1.95054 -3.17466 0
M  V30 9667 H 923.699 -3.81447 -2.89887 0
M  V30 9668 H 922.063 -1.96785 -1.61703 0
M  V30 9669 H 922.846 -3.36192 -0.694978 0
M  V30 9670 N 925.291 0.760815 -1.38019 0
M  V30 9671 C 926.221 1.88811 -1.37377 0
M  V30 9672 C 927.202 1.68388 -0.240737 0
M  V30 9673 O 928.387 1.89086 -0.442739 0
M  V30 9674 C 925.517 3.26244 -1.1909 0
M  V30 9675 C 924.471 3.61254 -2.29521 0
M  V30 9676 C 923.797 4.97346 -1.96345 0
M  V30 9677 C 925.097 3.66874 -3.71753 0
M  V30 9678 H 926.791 1.89606 -2.31711 0
M  V30 9679 H 924.337 0.910818 -1.11535 0
M  V30 9680 H 926.29 4.04755 -1.17267 0
M  V30 9681 H 925.014 3.2591 -0.212152 0
M  V30 9682 H 923.673 2.85057 -2.30517 0
M  V30 9683 H 923.321 4.93564 -0.969728 0
M  V30 9684 H 923.021 5.21739 -2.703 0
M  V30 9685 H 924.545 5.78244 -1.96129 0
M  V30 9686 H 925.959 4.35514 -3.72828 0
M  V30 9687 H 924.356 4.02772 -4.44853 0
M  V30 9688 H 925.426 2.67273 -4.0459 0
M  V30 9689 N 926.769 1.22769 0.988202 0
M  V30 9690 C 928.185 0.988665 1.2529 0
M  V30 9691 C 928.385 -0.314938 1.99024 0
M  V30 9692 O 927.441 -1.03637 2.30251 0
M  V30 9693 C 928.754 2.19046 2.06009 0
M  V30 9694 C 930.302 2.23452 2.19176 0
M  V30 9695 C 930.777 3.43196 3.03283 0
M  V30 9696 N 932.268 3.43387 3.10869 0
M  V30 9697 C 933.003 4.32693 3.7625 0
M  V30 9698 N 932.499 5.32224 4.43519 0
M  V30 9699 N 934.292 4.20457 3.73058 0
M  V30 9700 H 926.443 2.06575 0.494014 0
M  V30 9701 H 928.706 0.905452 0.28082 0
M  V30 9702 H 928.412 3.13607 1.59197 0
M  V30 9703 H 928.286 2.19492 3.06763 0
M  V30 9704 H 930.673 1.29436 2.65199 0
M  V30 9705 H 930.754 2.27042 1.17836 0
M  V30 9706 H 930.398 4.37515 2.57959 0
M  V30 9707 H 930.328 3.36847 4.04774 0
M  V30 9708 H 932.819 2.71368 2.62998 0
M  V30 9709 H 933.132 5.9664 4.91163 0
M  V30 9710 H 931.477 5.36133 4.42252 0
M  V30 9711 H 934.668 3.41949 3.19669 0
M  V30 9712 H 934.841 4.90261 4.23731 0
M  V30 9713 N 928.247 -1.18576 1.03814 0
M  V30 9714 C 929.663 -1.4051 0.756909 0
M  V30 9715 C 929.863 -1.9057 -0.654631 0
M  V30 9716 O 928.919 -2.0884 -1.41922 0
M  V30 9717 C 930.232 -2.4081 1.80087 0
M  V30 9718 C 931.78 -2.54541 1.82148 0
M  V30 9719 C 932.255 -3.58102 2.85529 0
M  V30 9720 N 933.746 -3.65607 2.84404 0
M  V30 9721 C 934.481 -4.45458 3.61047 0
M  V30 9722 N 933.977 -5.28937 4.47434 0
M  V30 9723 N 935.77 -4.40196 3.49548 0
M  V30 9724 H 927.921 -0.844075 1.94908 0
M  V30 9725 H 930.184 -0.433287 0.843188 0
M  V30 9726 H 929.89 -2.1107 2.81322 0
M  V30 9727 H 929.764 -3.4012 1.63089 0
M  V30 9728 H 932.151 -2.83598 0.815855 0
M  V30 9729 H 932.232 -1.55352 2.03223 0
M  V30 9730 H 931.876 -3.29786 3.86269 0
M  V30 9731 H 931.806 -4.56963 2.6171 0
M  V30 9732 H 934.297 -3.05994 2.21756 0
M  V30 9733 H 934.61 -5.8701 5.02632 0
M  V30 9734 H 932.955 -5.28366 4.51503 0
M  V30 9735 H 936.146 -3.74026 2.81464 0
M  V30 9736 H 936.319 -5.02186 4.09528 0
M  V30 9737 N 929.725 -0.817259 -1.34754 0
M  V30 9738 C 930.95 -0.414423 -2.03217 0
M  V30 9739 C 931.375 0.970037 -1.61158 0
M  V30 9740 O 930.733 1.63016 -0.793436 0
M  V30 9741 C 930.781 -0.518087 -3.56859 0
M  V30 9742 O 929.885 0.464314 -4.09778 0
M  V30 9743 H 929.226 -0.171454 -0.641482 0
M  V30 9744 H 931.756 -1.10611 -1.72123 0
M  V30 9745 H 931.766 -0.391779 -4.06115 0
M  V30 9746 H 930.441 -1.52786 -3.86819 0
M  V30 9747 H 929.018 0.297361 -3.71712 0
M  V30 9748 N 931.203 1.46865 -0.571711 0
M  V30 9749 C 932.619 1.57897 -0.23255 0
M  V30 9750 C 932.819 1.56836 1.26509 0
M  V30 9751 O 931.875 1.47947 2.04617 0
M  V30 9752 C 933.188 2.87778 -0.872036 0
M  V30 9753 C 934.736 3.01389 -0.844605 0
M  V30 9754 C 935.211 4.33991 -1.46343 0
M  V30 9755 N 936.702 4.40662 -1.42727 0
M  V30 9756 C 937.437 5.41858 -1.87557 0
M  V30 9757 N 936.933 6.49787 -2.4031 0
M  V30 9758 N 938.726 5.32992 -1.7854 0
M  V30 9759 H 930.877 1.45798 -1.54457 0
M  V30 9760 H 933.14 0.694785 -0.644964 0
M  V30 9761 H 932.846 2.94332 -1.92513 0
M  V30 9762 H 932.72 3.75345 -0.373677 0
M  V30 9763 H 935.107 2.94423 0.19984 0
M  V30 9764 H 935.188 2.15327 -1.38087 0
M  V30 9765 H 934.832 4.41714 -2.50701 0
M  V30 9766 H 934.762 5.18809 -0.902479 0
M  V30 9767 H 937.253 3.63263 -1.04155 0
M  V30 9768 H 937.566 7.23199 -2.72403 0
M  V30 9769 H 935.911 6.50637 -2.44329 0
M  V30 9770 H 939.102 4.47575 -1.37093 0
M  V30 9771 H 939.275 6.11716 -2.13794 0
M  V30 9772 N 932.681 0.308908 1.54543 0
M  V30 9773 C 933.906 -0.303196 2.05172 0
M  V30 9774 C 934.331 -1.46133 1.18434 0
M  V30 9775 O 933.689 -1.803 0.190162 0
M  V30 9776 C 933.737 -0.729526 3.53143 0
M  V30 9777 O 932.841 -1.83348 3.69401 0
M  V30 9778 H 932.182 -0.0575066 0.661505 0
M  V30 9779 H 934.712 0.453055 1.99521 0
M  V30 9780 H 934.722 -1.01619 3.95143 0
M  V30 9781 H 933.397 0.117622 4.15734 0
M  V30 9782 H 931.974 -1.54676 3.39308 0
M  V30 9783 N 934.159 -1.57557 0.0367827 0
M  V30 9784 C 935.57 -1.79853 -0.500971 0
M  V30 9785 C 935.921 -0.947749 -1.71791 0
M  V30 9786 O 935.046 -0.160287 -2.15806 0
M  V30 9787 C 935.641 -3.26193 -0.915626 0
M  V30 9788 C 934.2 -3.49457 -1.39845 0
M  V30 9789 C 933.347 -2.74864 -0.366784 0
M  V30 9790 H 936.298 -1.56509 0.262768 0
M  V30 9791 H 936.319 -3.36324 -1.7795 0
M  V30 9792 H 935.831 -3.88089 -0.0297227 0
M  V30 9793 H 933.932 -2.92823 -2.30402 0
M  V30 9794 H 934.045 -4.58172 -1.40054 0
M  V30 9795 H 932.409 -2.4057 -0.836554 0
M  V30 9796 H 933.192 -3.39479 0.510785 0
M  V30 9797 N 935.637 0.236453 -1.55816 0
M  V30 9798 C 936.886 0.960981 -1.77336 0
M  V30 9799 C 937.199 1.86085 -0.602641 0
M  V30 9800 O 938.405 2.62291 -0.701106 0
M  V30 9801 C 936.861 1.75884 -3.13995 0
M  V30 9802 C 936.469 0.905849 -4.38746 0
M  V30 9803 C 938.213 2.47548 -3.44848 0
M  V30 9804 C 936.12 1.7002 -5.66434 0
M  V30 9805 H 935.05 0.362547 -0.661117 0
M  V30 9806 H 937.701 0.215303 -1.82233 0
M  V30 9807 H 936.083 2.54687 -3.03234 0
M  V30 9808 H 937.257 0.159415 -4.60524 0
M  V30 9809 H 935.572 0.30205 -4.15303 0
M  V30 9810 H 938.169 3.07452 -4.37467 0
M  V30 9811 H 938.512 3.19689 -2.66655 0
M  V30 9812 H 939.045 1.75747 -3.56872 0
M  V30 9813 H 935.784 1.02234 -6.47479 0
M  V30 9814 H 935.304 2.42164 -5.48741 0
M  V30 9815 H 936.983 2.26469 -6.0607 0
M  V30 9816 N 937.115 1.49373 0.502552 0
M  V30 9817 C 938.526 1.52 1.0841 0
M  V30 9818 C 938.877 0.305317 1.9381 0
M  V30 9819 O 938.002 -0.585023 2.08342 0
M  V30 9820 C 938.597 2.75437 1.97281 0
M  V30 9821 C 937.156 2.80848 2.50602 0
M  V30 9822 C 936.303 2.45894 1.28186 0
M  V30 9823 H 939.254 1.56092 0.286533 0
M  V30 9824 H 939.275 2.55511 2.81947 0
M  V30 9825 H 938.787 3.63827 1.35098 0
M  V30 9826 H 936.888 1.96735 3.16427 0
M  V30 9827 H 937.001 3.82979 2.8786 0
M  V30 9828 H 935.365 1.97639 1.60657 0
M  V30 9829 H 936.148 3.36556 0.677139 0
M  V30 9830 N 938.594 -0.753485 1.38421 0
M  V30 9831 C 939.819 -1.54783 1.38047 0
M  V30 9832 C 940.244 -1.8808 -0.0276371 0
M  V30 9833 O 939.602 -1.5058 -1.00973 0
M  V30 9834 C 939.65 -2.82353 2.24297 0
M  V30 9835 O 938.754 -3.77509 1.66014 0
M  V30 9836 H 938.095 -0.468151 0.470883 0
M  V30 9837 H 940.625 -0.931144 1.82184 0
M  V30 9838 H 940.635 -3.31277 2.38159 0
M  V30 9839 H 939.31 -2.57449 3.26639 0
M  V30 9840 H 937.887 -3.36212 1.61294 0
M  V30 9841 N 940.072 -1.23292 -0.981677 0
M  V30 9842 C 941.321 -1.05832 -1.71705 0
M  V30 9843 C 941.634 0.40514 -1.91358 0
M  V30 9844 O 942.84 0.699645 -2.6233 0
M  V30 9845 C 941.296 -1.84532 -3.08992 0
M  V30 9846 C 940.904 -3.35199 -2.9723 0
M  V30 9847 C 942.648 -1.75557 -3.86497 0
M  V30 9848 C 940.555 -4.06296 -4.29741 0
M  V30 9849 H 939.485 -0.39241 -0.64384 0
M  V30 9850 H 942.136 -1.47247 -1.09502 0
M  V30 9851 H 940.518 -1.35923 -3.71942 0
M  V30 9852 H 941.692 -3.91286 -2.43377 0
M  V30 9853 H 940.007 -3.44973 -2.332 0
M  V30 9854 H 942.604 -2.25989 -4.84596 0
M  V30 9855 H 942.947 -0.718101 -4.1006 0
M  V30 9856 H 943.48 -2.21771 -3.30246 0
M  V30 9857 H 940.219 -5.10344 -4.11375 0
M  V30 9858 H 939.739 -3.54997 -4.83464 0
M  V30 9859 H 941.418 -4.12519 -4.98434 0
M  V30 9860 N 941.55 1.18024 -1.04442 0
M  V30 9861 C 942.48 2.23988 -0.659683 0
M  V30 9862 C 943.461 1.6669 0.338904 0
M  V30 9863 O 944.646 1.92971 0.21817 0
M  V30 9864 C 941.776 3.4729 -0.0257672 0
M  V30 9865 C 940.73 4.17362 -0.948299 0
M  V30 9866 C 940.056 5.34401 -0.17866 0
M  V30 9867 C 941.356 4.70435 -2.26909 0
M  V30 9868 H 943.05 2.56425 -1.54553 0
M  V30 9869 H 940.596 1.23256 -0.744575 0
M  V30 9870 H 942.549 4.20627 0.255131 0
M  V30 9871 H 941.273 3.14098 0.894981 0
M  V30 9872 H 939.932 3.45928 -1.21364 0
M  V30 9873 H 939.58 4.97458 0.744614 0
M  V30 9874 H 939.28 5.8222 -0.793294 0
M  V30 9875 H 940.804 6.10526 0.0951315 0
M  V30 9876 H 942.218 5.35447 -2.04864 0
M  V30 9877 H 940.615 5.28803 -2.83703 0
M  V30 9878 H 941.685 3.87653 -2.91296 0
M  V30 9879 O 943.067 0.959562 1.29903 0
M  V30 9880 H 943.758 0.594984 1.84336 0
M  V30 END ATOM
M  V30 BEGIN BOND
M  V30 END BOND
M  V30 END CTAB
M  END
$$$$
