drugbank_target|Q96QU6 1-aminocyclopropane-1-carboxylate synthase-like protein 1 (DB03214)
 OpenBabel12092120333D

  0  0  0     0  0            999 V3000
M  V30 BEGIN CTAB
M  V30 COUNTS 8012 8111 0 0 0
M  V30 BEGIN ATOM
M  V30 1 H -0.908 1.98254 -0.117106 0
M  V30 2 N 0 1.576 0 0
M  V30 3 C 0.933 2.03868 1.02534 0
M  V30 4 C 1.911 0.928543 1.3348 0
M  V30 5 O 3.095 1.19667 1.45644 0
M  V30 6 C 0.222 2.43627 2.35294 0
M  V30 7 C -0.732 3.65373 2.2001 0
M  V30 8 S 0.101 5.13292 1.52614 0
M  V30 9 C 1.257 5.56322 2.86805 0
M  V30 10 H 1.49 2.90518 0.631377 0
M  V30 11 H -0.977 1.52953 0.210867 0
M  V30 12 H 0.981 2.67203 3.11629 0
M  V30 13 H -0.358 1.57376 2.7183 0
M  V30 14 H -1.165 3.90944 3.18086 0
M  V30 15 H -1.563 3.418 1.51819 0
M  V30 16 H 0.729 5.58782 3.83104 0
M  V30 17 H 1.672 6.56266 2.65933 0
M  V30 18 H 2.08 4.83886 2.90714 0
M  V30 19 N 1.4781 -0.272755 1.55222 0
M  V30 20 C 2.7251 -1.00433 1.7584 0
M  V30 21 C 3.0531 -1.86275 0.559629 0
M  V30 22 O 2.3081 -1.90269 -0.457857 0
M  V30 23 C 2.6071 -1.91642 3.01675 0
M  V30 24 C 2.2731 -1.21548 4.34208 0
M  V30 25 C 0.9351 -1.02166 4.70229 0
M  V30 26 C 3.2871 -0.716684 5.16249 0
M  V30 27 C 0.6151 -0.316334 5.85847 0
M  V30 28 C 2.9671 -0.0249476 6.32595 0
M  V30 29 C 1.6311 0.180579 6.67256 0
M  V30 30 H 0.9011 -0.367509 0.643443 0
M  V30 31 H 3.5481 -0.276596 1.89492 0
M  V30 32 H 1.8531 -2.71037 2.82924 0
M  V30 33 H 3.5501 -2.48369 3.14824 0
M  V30 34 H 0.1401 -1.37645 4.05896 0
M  V30 35 H 4.3241 -0.854047 4.88896 0
M  V30 36 H -0.4199 -0.146378 6.11225 0
M  V30 37 H 3.7541 0.369311 6.9542 0
M  V30 38 H 1.3811 0.729098 7.56696 0
M  V30 39 N 2.9562 -1.48159 -0.537278 0
M  V30 40 C 4.1842 -1.59454 -1.31841 0
M  V30 41 C 4.5992 -0.252065 -1.8711 0
M  V30 42 O 3.9562 0.757621 -1.66031 0
M  V30 43 C 4.0072 -2.63546 -2.47439 0
M  V30 44 O 3.7282 -3.92583 -1.94449 0
M  V30 45 C 5.2292 -2.85212 -3.39366 0
M  V30 46 H 2.4492 -0.53785 -0.401196 0
M  V30 47 H 4.9932 -1.93932 -0.648891 0
M  V30 48 H 3.1482 -2.31946 -3.1029 0
M  V30 49 H 3.5622 -4.49629 -2.70063 0
M  V30 50 H 5.0362 -3.61863 -4.16844 0
M  V30 51 H 5.5132 -1.93765 -3.94147 0
M  V30 52 H 6.1192 -3.18086 -2.82314 0
M  V30 53 N 4.4343 0.785586 -1.36625 0
M  V30 54 C 5.3643 1.91259 -1.33949 0
M  V30 55 C 6.3453 1.68795 -0.210325 0
M  V30 56 O 7.5303 1.89854 -0.408561 0
M  V30 57 C 4.6603 3.28339 -1.13186 0
M  V30 58 C 3.6143 3.65335 -2.22967 0
M  V30 59 C 2.9403 5.00806 -1.87342 0
M  V30 60 C 4.2403 3.7352 -3.65075 0
M  V30 61 H 5.9343 1.93755 -2.28253 0
M  V30 62 H 3.4803 0.930788 -1.09874 0
M  V30 63 H 5.4333 4.06804 -1.09948 0
M  V30 64 H 4.1573 3.2624 -0.153332 0
M  V30 65 H 2.8163 2.89169 -2.25337 0
M  V30 66 H 2.4643 4.95233 -0.880545 0
M  V30 67 H 2.1643 5.26529 -2.60846 0
M  V30 68 H 3.6883 5.81687 -1.85667 0
M  V30 69 H 5.1023 4.42168 -3.64911 0
M  V30 70 H 3.4993 4.10731 -4.37516 0
M  V30 71 H 4.5693 2.74527 -3.99703 0
M  V30 72 N 5.9124 1.20967 1.01018 0
M  V30 73 C 7.3234 1.02319 1.56165 0
M  V30 74 C 7.6744 -0.418546 1.91684 0
M  V30 75 O 6.7994 -1.30096 1.72928 0
M  V30 76 C 7.3944 1.85109 2.8376 0
M  V30 77 C 5.9534 1.70809 3.35412 0
M  V30 78 C 5.1004 1.82643 2.08655 0
M  V30 79 H 8.0514 1.35065 0.833255 0
M  V30 80 H 8.0724 1.35827 3.55431 0
M  V30 81 H 7.5844 2.90035 2.57878 0
M  V30 82 H 5.6854 0.685464 3.66241 0
M  V30 83 H 5.7984 2.52467 4.07182 0
M  V30 84 H 4.1624 1.25896 2.21409 0
M  V30 85 H 4.9454 2.89066 1.85191 0
M  V30 86 N 7.3905 -1.2043 1.01659 0
M  V30 87 C 8.3225 -2.22626 0.544988 0
M  V30 88 C 9.3355 -1.58479 -0.372609 0
M  V30 89 O 10.5245 -1.77679 -0.170958 0
M  V30 90 C 7.6245 -3.38141 -0.22663 0
M  V30 91 C 6.7975 -4.31877 0.692876 0
M  V30 92 C 5.8565 -5.26191 -0.0311616 0
M  V30 93 O 4.8825 -5.6612 0.591343 0
M  V30 94 N 6.0845 -5.65618 -1.30601 0
M  V30 95 H 8.8495 -2.63716 1.42388 0
M  V30 96 H 6.4105 -1.34971 0.894116 0
M  V30 97 H 8.4025 -3.98239 -0.72024 0
M  V30 98 H 6.9725 -2.95943 -1.00681 0
M  V30 99 H 6.1925 -3.69746 1.36679 0
M  V30 100 H 7.4805 -4.91426 1.31824 0
M  V30 101 H 6.8785 -5.3519 -1.83269 0
M  V30 102 H 5.4355 -6.28025 -1.74435 0
M  V30 103 N 8.8686 -0.792821 -1.36206 0
M  V30 104 C 9.8156 -0.191653 -2.30003 0
M  V30 105 C 10.7856 0.666453 -1.52143 0
M  V30 106 O 11.9706 0.61442 -1.80636 0
M  V30 107 C 9.1106 0.664848 -3.38635 0
M  V30 108 C 8.2236 -0.212175 -4.31479 0
M  V30 109 C 7.3586 0.651022 -5.27196 0
M  V30 110 C 6.3976 -0.227247 -6.11678 0
M  V30 111 N 5.5346 0.595127 -6.99573 0
M  V30 112 H 10.3746 -0.996978 -2.80828 0
M  V30 113 H 7.9116 -0.503206 -1.38225 0
M  V30 114 H 9.8696 1.17645 -4.00269 0
M  V30 115 H 8.4996 1.43557 -2.89122 0
M  V30 116 H 7.5516 -0.841777 -3.70969 0
M  V30 117 H 8.8636 -0.888751 -4.90818 0
M  V30 118 H 8.0176 1.2283 -5.94136 0
M  V30 119 H 6.7566 1.36121 -4.68319 0
M  V30 120 H 5.7616 -0.816904 -5.43697 0
M  V30 121 H 6.9866 -0.93509 -6.72631 0
M  V30 122 H 4.9326 1.28955 -6.432 0
M  V30 123 H 4.8496 -0.0236952 -7.55996 0
M  V30 124 H 6.1176 1.15613 -7.70879 0
M  V30 125 N 10.3467 1.47872 -0.545128 0
M  V30 126 C 11.6237 1.9554 0.0485222 0
M  V30 127 C 12.0037 1.4876 1.49779 0
M  V30 128 O 11.3517 0.720925 2.16829 0
M  V30 129 C 11.5617 3.48898 -0.084417 0
M  V30 130 C 12.9097 4.24547 0.0671239 0
M  V30 131 O 13.9337 3.56198 -0.0113649 0
M  V30 132 O 12.7927 5.45999 0.233882 0
M  V30 133 H 9.8867 0.823957 0.0708773 0
M  V30 134 H 12.4327 1.58327 -0.610798 0
M  V30 135 H 11.2047 3.75714 -1.09337 0
M  V30 136 H 10.8277 3.92845 0.613066 0
M  V30 137 N 11.8248 0.280983 1.55075 0
M  V30 138 C 13.0718 -0.334115 1.99725 0
M  V30 139 C 13.3998 -1.5542 1.1694 0
M  V30 140 O 12.6548 -1.94361 0.228531 0
M  V30 141 C 12.9538 -0.754656 3.49342 0
M  V30 142 C 12.6198 0.361445 4.49449 0
M  V30 143 C 11.2818 0.667893 4.76542 0
M  V30 144 C 13.6338 1.11322 5.09173 0
M  V30 145 C 10.9618 1.7296 5.60626 0
M  V30 146 C 13.3138 2.1647 5.9441 0
M  V30 147 C 11.9778 2.47742 6.19822 0
M  V30 148 H 11.2478 -0.122261 0.730844 0
M  V30 149 H 13.8948 0.395917 1.87363 0
M  V30 150 H 12.1998 -1.56446 3.5921 0
M  V30 151 H 13.8968 -1.24142 3.813 0
M  V30 152 H 10.4868 0.112481 4.28452 0
M  V30 153 H 14.6708 0.88973 4.8826 0
M  V30 154 H 9.9268 1.97684 5.78559 0
M  V30 155 H 14.1008 2.75193 6.3972 0
M  V30 156 H 11.7278 3.30145 6.84769 0
M  V30 157 N 13.3029 -1.57598 0.00835791 0
M  V30 158 C 14.7189 -1.55764 -0.347822 0
M  V30 159 C 14.9189 -1.01186 -1.74252 0
M  V30 160 O 13.9749 -0.649371 -2.44007 0
M  V30 161 C 15.2879 -2.99927 -0.215407 0
M  V30 162 C 16.8359 -3.11656 -0.289725 0
M  V30 163 C 17.3109 -4.57621 -0.18634 0
M  V30 164 N 18.8019 -4.62557 -0.243978 0
M  V30 165 C 19.5369 -5.73094 -0.18745 0
M  V30 166 N 19.0329 -6.92753 -0.0810331 0
M  V30 167 N 20.8259 -5.61588 -0.239925 0
M  V30 168 H 12.9769 -1.91411 0.92062 0
M  V30 169 H 15.2399 -0.879562 0.353659 0
M  V30 170 H 14.9459 -3.43729 0.744512 0
M  V30 171 H 14.8199 -3.63865 -0.994097 0
M  V30 172 H 17.2069 -2.67779 -1.24009 0
M  V30 173 H 17.2879 -2.5048 0.51898 0
M  V30 174 H 16.9319 -5.02174 0.760519 0
M  V30 175 H 16.8619 -5.16752 -1.01364 0
M  V30 176 H 19.3529 -3.76481 -0.327217 0
M  V30 177 H 19.6659 -7.72787 -0.0440241 0
M  V30 178 H 18.0109 -6.94984 -0.0465419 0
M  V30 179 H 21.2019 -4.66996 -0.321317 0
M  V30 180 H 21.3749 -6.47714 -0.192407 0
M  V30 181 N 14.781 0.264519 -1.55364 0
M  V30 182 C 15.744 1.31046 -1.88042 0
M  V30 183 C 16.744 1.41943 -0.755569 0
M  V30 184 O 17.934 1.40947 -1.02369 0
M  V30 185 C 15.066 2.69067 -2.09323 0
M  V30 186 H 16.259 1.03297 -2.81549 0
M  V30 187 H 13.812 0.502989 -1.47986 0
M  V30 188 H 14.547 3.01982 -1.18226 0
M  V30 189 H 14.332 2.62542 -2.91229 0
M  V30 190 H 15.822 3.44623 -2.35848 0
M  V30 191 N 16.2591 1.48442 0.529413 0
M  V30 192 C 17.6701 1.5002 1.11134 0
M  V30 193 C 18.0211 0.27031 1.94329 0
M  V30 194 O 17.1461 -0.622507 2.07253 0
M  V30 195 C 17.7411 2.71834 2.02217 0
M  V30 196 C 16.3001 2.76283 2.55627 0
M  V30 197 C 15.4471 2.43542 1.326 0
M  V30 198 H 18.3981 1.5555 0.314641 0
M  V30 199 H 18.4191 2.50384 2.8651 0
M  V30 200 H 17.9311 3.61331 1.41639 0
M  V30 201 H 16.0321 1.90995 3.19924 0
M  V30 202 H 16.1451 3.77725 2.94721 0
M  V30 203 H 14.5091 1.94709 1.64196 0
M  V30 204 H 15.2921 3.3528 0.737734 0
M  V30 205 N 17.7372 -0.778329 1.37039 0
M  V30 206 C 18.9652 -1.56734 1.35063 0
M  V30 207 C 19.3802 -1.88686 -0.0655597 0
M  V30 208 O 18.7372 -1.5096 -1.02554 0
M  V30 209 C 18.7882 -2.88163 2.18276 0
M  V30 210 O 18.5092 -2.57583 3.54376 0
M  V30 211 C 20.0102 -3.82422 2.24206 0
M  V30 212 H 17.2302 -0.485778 0.462883 0
M  V30 213 H 19.7742 -0.965185 1.8029 0
M  V30 214 H 17.9292 -3.44818 1.76576 0
M  V30 215 H 18.3432 -3.41699 3.97922 0
M  V30 216 H 19.8172 -4.71667 2.86765 0
M  V30 217 H 20.2942 -4.21078 1.24861 0
M  V30 218 H 20.9002 -3.31697 2.6619 0
M  V30 219 N 19.2153 -1.21501 -1.00376 0
M  V30 220 C 20.4433 -1.059 -1.77744 0
M  V30 221 C 20.8583 0.391125 -1.84704 0
M  V30 222 O 20.2153 1.27133 -1.30933 0
M  V30 223 C 20.2663 -1.65111 -3.21591 0
M  V30 224 O 19.9873 -3.0445 -3.15027 0
M  V30 225 C 21.4883 -1.54637 -4.15454 0
M  V30 226 H 18.7083 -0.371825 -0.558558 0
M  V30 227 H 21.2523 -1.60865 -1.26264 0
M  V30 228 H 19.4073 -1.14235 -3.70175 0
M  V30 229 H 19.8213 -3.3278 -4.0541 0
M  V30 230 H 21.2953 -2.00808 -5.14179 0
M  V30 231 H 21.7723 -0.501022 -4.36333 0
M  V30 232 H 22.3783 -2.04767 -3.72761 0
M  V30 233 N 20.6934 1.19889 -1.02296 0
M  V30 234 C 21.9334 1.91125 -0.724602 0
M  V30 235 C 22.2974 1.77464 0.732835 0
M  V30 236 O 23.4984 2.43241 1.144 0
M  V30 237 C 21.7694 3.38187 -1.15604 0
M  V30 238 S 23.3284 4.27702 -0.980621 0
M  V30 239 H 20.1464 0.66018 -0.263976 0
M  V30 240 H 22.7484 1.44978 -1.31155 0
M  V30 241 H 21.4524 3.45653 -2.21251 0
M  V30 242 H 20.9834 3.89363 -0.562131 0
M  V30 243 H 22.9984 4.96073 0.112225 0
M  V30 244 N 22.1715 0.800033 1.35784 0
M  V30 245 C 23.1015 0.220184 2.3246 0
M  V30 246 C 24.0825 -0.65073 1.57161 0
M  V30 247 O 25.2675 -0.582359 1.85263 0
M  V30 248 C 22.3975 -0.637353 3.41402 0
M  V30 249 C 21.3515 0.134531 4.27789 0
M  V30 250 C 20.6775 -0.844285 5.27992 0
M  V30 251 C 21.9775 1.32979 5.05088 0
M  V30 252 H 23.6715 1.02787 2.81203 0
M  V30 253 H 21.2175 0.495717 1.35199 0
M  V30 254 H 23.1705 -1.05302 4.08031 0
M  V30 255 H 21.8945 -1.47785 2.91251 0
M  V30 256 H 20.5535 0.531296 3.6273 0
M  V30 257 H 20.2015 -1.68011 4.74111 0
M  V30 258 H 19.9015 -0.332184 5.8666 0
M  V30 259 H 21.4255 -1.2583 5.97494 0
M  V30 260 H 22.8395 0.98934 5.64699 0
M  V30 261 H 21.2365 1.77593 5.7322 0
M  V30 262 H 22.3065 2.11978 4.36111 0
M  V30 263 N 23.6496 -1.47581 0.552962 0
M  V30 264 C 24.8976 -2.02082 0.0272703 0
M  V30 265 C 25.2186 -1.4301 -1.32563 0
M  V30 266 O 24.4886 -0.603745 -1.86365 0
M  V30 267 H 23.0686 -0.746966 0.00709182 0
M  V30 268 H 25.7306 -1.81033 0.722008 0
M  V30 269 H 24.8266 -3.12034 -0.0639951 0
M  V30 270 N 25.1277 -0.289203 -1.54924 0
M  V30 271 C 26.5387 0.205791 -1.85562 0
M  V30 272 C 26.8897 1.54351 -1.2112 0
M  V30 273 O 26.0147 2.10435 -0.504601 0
M  V30 274 C 26.6097 0.380177 -3.3666 0
M  V30 275 C 25.1687 0.819395 -3.67373 0
M  V30 276 C 24.3157 -0.079159 -2.77187 0
M  V30 277 H 27.2667 -0.510577 -1.50262 0
M  V30 278 H 27.2877 1.21659 -3.60526 0
M  V30 279 H 26.7997 -0.593589 -3.83534 0
M  V30 280 H 24.9007 1.80413 -3.26009 0
M  V30 281 H 25.0137 0.646957 -4.74712 0
M  V30 282 H 23.3777 0.439565 -2.50878 0
M  V30 283 H 24.1607 -1.04906 -3.26878 0
M  V30 284 N 26.6058 1.57591 -0.0167156 0
M  V30 285 C 27.8338 1.95575 0.675128 0
M  V30 286 C 28.2488 0.892542 1.6637 0
M  V30 287 O 27.6058 -0.126912 1.82058 0
M  V30 288 C 27.6568 3.33608 1.39239 0
M  V30 289 O 27.3778 4.3585 0.443444 0
M  V30 290 C 28.8788 3.86151 2.17721 0
M  V30 291 H 26.0988 0.644423 0.186978 0
M  V30 292 H 28.6428 2.0437 -0.0728 0
M  V30 293 H 26.7978 3.2607 2.09182 0
M  V30 294 H 27.2118 5.158 0.951358 0
M  V30 295 H 28.6858 4.85114 2.63379 0
M  V30 296 H 29.1628 3.19738 3.01105 0
M  V30 297 H 29.7688 3.96918 1.52761 0
M  V30 298 N 28.0839 -0.256276 1.55502 0
M  V30 299 C 29.3239 -0.993081 1.78654 0
M  V30 300 C 29.6879 -1.8288 0.584724 0
M  V30 301 O 30.8889 -2.59665 0.694822 0
M  V30 302 C 29.1599 -1.83856 3.06483 0
M  V30 303 S 30.7189 -2.63573 3.5082 0
M  V30 304 H 27.5369 -0.334199 0.62756 0
M  V30 305 H 30.1389 -0.26184 1.93739 0
M  V30 306 H 28.8429 -1.21414 3.92029 0
M  V30 307 H 28.3739 -2.61271 2.94111 0
M  V30 308 H 30.3889 -3.86312 3.11412 0
M  V30 309 N 29.562 -1.4872 -0.521534 0
M  V30 310 C 30.495 -1.58451 -1.64221 0
M  V30 311 C 31.473 -0.434513 -1.56687 0
M  V30 312 O 32.657 -0.647275 -1.77038 0
M  V30 313 C 29.784 -1.52037 -3.02659 0
M  V30 314 C 28.83 -2.71981 -3.28525 0
M  V30 315 S 29.663 -4.33869 -3.13876 0
M  V30 316 C 30.819 -4.30067 -4.54745 0
M  V30 317 H 31.052 -2.53256 -1.55719 0
M  V30 318 H 28.585 -1.37358 -0.705143 0
M  V30 319 H 30.543 -1.49023 -3.82495 0
M  V30 320 H 29.204 -0.585541 -3.08594 0
M  V30 321 H 28.397 -2.63656 -4.29536 0
M  V30 322 H 27.999 -2.72302 -2.56374 0
M  V30 323 H 30.291 -4.00521 -5.46433 0
M  V30 324 H 31.234 -5.31287 -4.68123 0
M  V30 325 H 31.642 -3.60419 -4.34463 0
M  V30 326 N 31.0401 0.771051 -1.3745 0
M  V30 327 C 31.9721 1.89352 -1.29146 0
M  V30 328 C 32.9851 1.61477 -0.207124 0
M  V30 329 O 34.1741 1.72382 -0.463324 0
M  V30 330 C 31.2741 3.24596 -0.974195 0
M  V30 331 C 30.4471 3.80111 -2.16413 0
M  V30 332 C 29.5061 4.93832 -1.81703 0
M  V30 333 O 28.5321 5.09382 -2.54006 0
M  V30 334 N 29.7341 5.75483 -0.761573 0
M  V30 335 H 32.4991 1.96991 -2.25864 0
M  V30 336 H 30.0601 0.950191 -1.31084 0
M  V30 337 H 32.0521 3.98193 -0.722828 0
M  V30 338 H 30.6221 3.12454 -0.0955527 0
M  V30 339 H 29.8421 2.98284 -2.57721 0
M  V30 340 H 31.1301 4.13932 -2.95867 0
M  V30 341 H 30.5281 5.65469 -0.161609 0
M  V30 342 H 29.0851 6.49302 -0.570064 0
M  V30 343 N 32.5182 1.22032 0.997298 0
M  V30 344 C 33.7952 0.950823 1.70935 0
M  V30 345 C 34.1752 -0.535292 2.042 0
M  V30 346 O 33.5232 -1.50217 1.72183 0
M  V30 347 C 33.7332 1.84386 2.96315 0
M  V30 348 C 35.0812 2.09732 3.69185 0
M  V30 349 O 36.1052 1.81798 3.06314 0
M  V30 350 O 34.9642 2.57018 4.82291 0
M  V30 351 H 32.0582 0.357204 0.745878 0
M  V30 352 H 34.6042 1.32997 1.05404 0
M  V30 353 H 33.3762 2.84928 2.68201 0
M  V30 354 H 32.9992 1.46602 3.69586 0
M  V30 355 N 33.9963 -1.19345 1.0293 0
M  V30 356 C 34.9263 -2.2481 0.631105 0
M  V30 357 C 35.9073 -1.66245 -0.360104 0
M  V30 358 O 37.0923 -1.92677 -0.242726 0
M  V30 359 C 34.2223 -3.47295 -0.0184607 0
M  V30 360 C 33.1763 -4.18536 0.895073 0
M  V30 361 C 32.5023 -5.34586 0.110592 0
M  V30 362 C 33.8023 -4.73287 2.209 0
M  V30 363 H 35.4963 -2.58372 1.51275 0
M  V30 364 H 33.0423 -1.24194 0.728818 0
M  V30 365 H 34.9953 -4.20268 -0.308675 0
M  V30 366 H 33.7193 -3.12933 -0.934907 0
M  V30 367 H 32.3783 -3.47446 1.16949 0
M  V30 368 H 32.0263 -4.96469 -0.807902 0
M  V30 369 H 31.7263 -5.83183 0.719087 0
M  V30 370 H 33.2503 -6.10355 -0.172871 0
M  V30 371 H 34.6643 -5.38013 1.98028 0
M  V30 372 H 33.0613 -5.32373 2.76946 0
M  V30 373 H 34.1313 -3.91331 2.86336 0
M  V30 374 N 35.4744 -0.807222 -1.35358 0
M  V30 375 C 36.7224 -0.387122 -1.98358 0
M  V30 376 C 37.0434 1.04942 -1.64354 0
M  V30 377 O 36.3134 1.72615 -0.926339 0
M  V30 378 H 34.8934 -0.140154 -0.733734 0
M  V30 379 H 37.5554 -1.0332 -1.6526 0
M  V30 380 H 36.6514 -0.493352 -3.08176 0
M  V30 381 N 36.9525 1.47285 -0.560781 0
M  V30 382 C 38.1775 2.07359 -0.0410566 0
M  V30 383 C 38.6025 1.41017 1.24483 0
M  V30 384 O 37.9605 0.486368 1.74654 0
M  V30 385 C 38.0085 3.6035 0.134123 0
M  V30 386 O 37.1125 3.94681 1.19587 0
M  V30 387 H 36.4535 0.661887 -0.0529291 0
M  V30 388 H 38.9835 1.89252 -0.777482 0
M  V30 389 H 38.9935 4.0652 0.347207 0
M  V30 390 H 37.6685 4.08034 -0.805047 0
M  V30 391 H 36.2455 3.60251 0.962987 0
M  V30 392 N 38.4306 0.297415 1.54768 0
M  V30 393 C 39.6556 -0.318435 2.04941 0
M  V30 394 C 40.0806 -1.4701 1.17345 0
M  V30 395 O 39.4386 -1.80436 0.176758 0
M  V30 396 C 39.4866 -0.755749 3.52592 0
M  V30 397 O 38.5906 -1.86088 3.68028 0
M  V30 398 H 37.9316 -0.062421 0.661059 0
M  V30 399 H 40.4616 0.438215 1.99852 0
M  V30 400 H 40.4716 -1.04552 3.94376 0
M  V30 401 H 39.1466 0.0867233 4.1581 0
M  V30 402 H 37.7236 -1.57193 3.38149 0
M  V30 403 N 39.9087 -1.5758 0.0250728 0
M  V30 404 C 40.8587 -2.06468 -0.967201 0
M  V30 405 C 41.8427 -0.964376 -1.28797 0
M  V30 406 O 43.0347 -1.22797 -1.27475 0
M  V30 407 C 40.1637 -2.59203 -2.25097 0
M  V30 408 C 39.2497 -3.76157 -1.95874 0
M  V30 409 N 39.6407 -4.86919 -1.36905 0
M  V30 410 C 37.9387 -3.84566 -2.25887 0
M  V30 411 C 38.6397 -5.68172 -1.24724 0
M  V30 412 N 37.6157 -5.14953 -1.74138 0
M  V30 413 H 41.4177 -2.89508 -0.506176 0
M  V30 414 H 38.9317 -1.61399 -0.18004 0
M  V30 415 H 40.9287 -2.92517 -2.97052 0
M  V30 416 H 39.5887 -1.77592 -2.71829 0
M  V30 417 H 40.5997 -5.07256 -1.04459 0
M  V30 418 H 37.2767 -3.13854 -2.75321 0
M  V30 419 H 38.6667 -6.67221 -0.791605 0
M  V30 420 N 41.3868 0.248026 -1.55636 0
M  V30 421 C 42.6348 0.974295 -1.77065 0
M  V30 422 C 42.9558 1.85897 -0.588849 0
M  V30 423 O 42.2258 1.91868 0.395407 0
M  V30 424 H 40.8058 0.362733 -0.653019 0
M  V30 425 H 43.4678 0.266244 -1.93073 0
M  V30 426 H 42.5638 1.59667 -2.68166 0
M  V30 427 N 42.8649 1.48995 0.513639 0
M  V30 428 C 43.7749 1.67443 1.64317 0
M  V30 429 C 44.7909 0.556947 1.64846 0
M  V30 430 O 45.9669 0.830082 1.83498 0
M  V30 431 C 43.0319 1.72515 3.00732 0
M  V30 432 C 42.0929 2.96009 3.1093 0
M  V30 433 C 41.3259 3.00829 4.40837 0
M  V30 434 O 41.5489 2.13594 5.28898 0
M  V30 435 O 40.4829 3.93168 4.55744 0
M  V30 436 H 44.3089 2.63106 1.51687 0
M  V30 437 H 41.8939 1.32588 0.688543 0
M  V30 438 H 43.7759 1.78277 3.81831 0
M  V30 439 H 42.4509 0.800278 3.13651 0
M  V30 440 H 41.3579 2.9577 2.29065 0
M  V30 441 H 42.6909 3.87934 3.02933 0
M  V30 442 N 44.343 -0.763751 1.37857 0
M  V30 443 C 45.62 -1.51244 1.24035 0
M  V30 444 C 46 -2.10472 -0.162649 0
M  V30 445 O 45.348 -1.96206 -1.17112 0
M  V30 446 C 45.558 -2.58694 2.34261 0
M  V30 447 C 46.906 -3.25878 2.72193 0
M  V30 448 O 47.93 -2.68993 2.33497 0
M  V30 449 O 46.789 -4.2874 3.38887 0
M  V30 450 H 43.883 -0.670243 0.484462 0
M  V30 451 H 46.429 -0.800031 1.49658 0
M  V30 452 H 45.201 -2.13105 3.2818 0
M  V30 453 H 44.824 -3.37527 2.10146 0
M  V30 454 N 45.8211 -1.22559 -0.990812 0
M  V30 455 C 46.7511 -1.0218 -2.09956 0
M  V30 456 C 47.7321 0.0579394 -1.70001 0
M  V30 457 O 48.9171 -0.104684 -1.93918 0
M  V30 458 C 46.0471 -0.601023 -3.4206 0
M  V30 459 C 45.0011 -1.62694 -3.95872 0
M  V30 460 C 44.3271 -1.06193 -5.24049 0
M  V30 461 C 45.6271 -3.01743 -4.2632 0
M  V30 462 H 47.3211 -1.94916 -2.27262 0
M  V30 463 H 44.8671 -0.938566 -1.09211 0
M  V30 464 H 46.8201 -0.445561 -4.19038 0
M  V30 465 H 45.5441 0.362005 -3.24588 0
M  V30 466 H 44.2031 -1.77021 -3.21028 0
M  V30 467 H 43.8511 -0.0901903 -5.02919 0
M  V30 468 H 43.5511 -1.74732 -5.61019 0
M  V30 469 H 45.0751 -0.918092 -6.03658 0
M  V30 470 H 46.4891 -2.90777 -4.94087 0
M  V30 471 H 44.8861 -3.67425 -4.74467 0
M  V30 472 H 45.9561 -3.51518 -3.34011 0
M  V30 473 N 47.2992 1.18797 -1.03562 0
M  V30 474 C 48.2092 2.25913 -0.632505 0
M  V30 475 C 49.2252 1.70668 0.338882 0
M  V30 476 O 50.4012 2.00453 0.195076 0
M  V30 477 C 47.4662 3.467 0.00350942 0
M  V30 478 C 46.5272 4.17098 -1.01624 0
M  V30 479 C 45.7602 5.32119 -0.410478 0
M  V30 480 O 45.9832 5.64976 0.784725 0
M  V30 481 O 44.9172 5.9107 -1.13667 0
M  V30 482 H 48.7432 2.62648 -1.52478 0
M  V30 483 H 46.3282 1.25781 -0.806195 0
M  V30 484 H 48.2102 4.19878 0.35781 0
M  V30 485 H 46.8852 3.11798 0.869686 0
M  V30 486 H 45.7922 3.4601 -1.42224 0
M  V30 487 H 47.1252 4.55987 -1.85301 0
M  V30 488 N 48.7773 0.814389 1.34928 0
M  V30 489 C 50.0253 0.397636 1.9815 0
M  V30 490 C 50.3463 -1.04069 1.64908 0
M  V30 491 O 49.6163 -1.72121 0.93548 0
M  V30 492 H 48.1963 0.144043 0.732981 0
M  V30 493 H 50.8583 1.04195 1.6471 0
M  V30 494 H 49.9543 0.509688 3.0791 0
M  V30 495 N 50.2554 -1.46986 0.568584 0
M  V30 496 C 51.1654 -2.33942 -0.17555 0
M  V30 497 C 52.1814 -1.48891 -0.90041 0
M  V30 498 O 53.3574 -1.81794 -0.86676 0
M  V30 499 C 50.4224 -3.25811 -1.18524 0
M  V30 500 C 49.4834 -4.26757 -0.466582 0
M  V30 501 C 48.7164 -5.14236 -1.42817 0
M  V30 502 O 48.9394 -5.04379 -2.66379 0
M  V30 503 O 47.8734 -5.94412 -0.946453 0
M  V30 504 H 51.6994 -2.98896 0.538036 0
M  V30 505 H 49.2844 -1.4573 0.329097 0
M  V30 506 H 51.1664 -3.82527 -1.76779 0
M  V30 507 H 49.8414 -2.63471 -1.88055 0
M  V30 508 H 48.7484 -3.73769 0.157451 0
M  V30 509 H 50.0814 -4.91843 0.187485 0
M  V30 510 N 51.7335 -0.305618 -1.54608 0
M  V30 511 C 52.9735 0.303114 -2.0214 0
M  V30 512 C 53.3375 1.50737 -1.18921 0
M  V30 513 O 54.5385 2.18778 -1.56172 0
M  V30 514 C 52.8095 0.646332 -3.51507 0
M  V30 515 S 54.3685 1.23727 -4.20995 0
M  V30 516 H 51.1865 0.0927643 -0.704923 0
M  V30 517 H 53.7885 -0.434566 -1.90609 0
M  V30 518 H 52.4925 -0.238541 -4.09706 0
M  V30 519 H 52.0235 1.41468 -3.67084 0
M  V30 520 H 54.0385 2.52489 -4.27158 0
M  V30 521 N 53.2116 1.57565 -0.0334293 0
M  V30 522 C 54.4366 1.96689 0.657895 0
M  V30 523 C 54.8616 0.910057 1.64619 0
M  V30 524 O 54.2196 -0.128598 1.80843 0
M  V30 525 C 54.2676 3.34905 1.33683 0
M  V30 526 O 53.3716 3.31574 2.45219 0
M  V30 527 H 52.7126 0.641205 0.172489 0
M  V30 528 H 55.2426 2.04372 -0.0965621 0
M  V30 529 H 55.2526 3.71234 1.69262 0
M  V30 530 H 53.9276 4.11366 0.612411 0
M  V30 531 H 52.5046 3.06968 2.11719 0
M  V30 532 N 54.6897 -0.239769 1.55765 0
M  V30 533 C 56.1057 -0.588624 1.48349 0
M  V30 534 C 56.3057 -1.88005 0.72502 0
M  V30 535 O 55.3617 -2.51186 0.257269 0
M  V30 536 C 56.6747 -0.68474 2.928 0
M  V30 537 C 58.2227 -0.77659 3.03213 0
M  V30 538 C 58.6977 -0.904207 4.48986 0
M  V30 539 N 60.1887 -0.968896 4.52953 0
M  V30 540 C 60.9237 -1.08703 5.63002 0
M  V30 541 N 60.4197 -1.17026 6.82845 0
M  V30 542 N 62.2127 -1.12074 5.50814 0
M  V30 543 H 54.3637 0.607911 2.03515 0
M  V30 544 H 56.6267 0.21083 0.924259 0
M  V30 545 H 56.3327 0.194284 3.51163 0
M  V30 546 H 56.2067 -1.55435 3.43686 0
M  V30 547 H 58.5937 -1.64606 2.44926 0
M  V30 548 H 58.6747 0.118315 2.55526 0
M  V30 549 H 58.3187 -0.0392633 5.07885 0
M  V30 550 H 58.2487 -1.81426 4.9436 0
M  V30 551 H 60.7397 -0.915633 3.6664 0
M  V30 552 H 61.0527 -1.25966 7.62465 0
M  V30 553 H 59.3977 -1.13971 6.85591 0
M  V30 554 H 62.5887 -1.05226 4.5612 0
M  V30 555 H 62.7617 -1.20936 6.36615 0
M  V30 556 N 56.1678 -1.49265 -0.50573 0
M  V30 557 C 57.1148 -1.65585 -1.6078 0
M  V30 558 C 58.0848 -0.497396 -1.58478 0
M  V30 559 O 59.2698 -0.72385 -1.76536 0
M  V30 560 C 56.4098 -1.72408 -2.98948 0
M  V30 561 C 55.5228 -2.99525 -3.11301 0
M  V30 562 C 54.6578 -2.97356 -4.40174 0
M  V30 563 C 53.6968 -4.19074 -4.46143 0
M  V30 564 N 52.8338 -4.14841 -5.66437 0
M  V30 565 H 57.6738 -2.59688 -1.46172 0
M  V30 566 H 55.2108 -1.28761 -0.711261 0
M  V30 567 H 57.1688 -1.74344 -3.79025 0
M  V30 568 H 55.7988 -0.817753 -3.1227 0
M  V30 569 H 54.8508 -3.07222 -2.24318 0
M  V30 570 H 56.1628 -3.89518 -3.11572 0
M  V30 571 H 55.3168 -2.97829 -5.28567 0
M  V30 572 H 54.0558 -2.05133 -4.42461 0
M  V30 573 H 53.0608 -4.1885 -3.56153 0
M  V30 574 H 54.2858 -5.12483 -4.45575 0
M  V30 575 H 52.2318 -3.25453 -5.69575 0
M  V30 576 H 52.1488 -4.98564 -5.68304 0
M  V30 577 H 53.4168 -4.1941 -6.57051 0
M  V30 578 N 57.6459 0.756429 -1.3826 0
M  V30 579 C 58.5759 1.88374 -1.37976 0
M  V30 580 C 59.5569 1.68311 -0.246082 0
M  V30 581 O 60.7419 1.88944 -0.44874 0
M  V30 582 C 57.8719 3.25864 -1.20125 0
M  V30 583 C 56.8259 3.60523 -2.30666 0
M  V30 584 C 56.1519 4.9672 -1.97923 0
M  V30 585 C 57.4519 3.65692 -3.72916 0
M  V30 586 H 59.1459 1.88869 -2.32312 0
M  V30 587 H 56.6919 0.907272 -1.11824 0
M  V30 588 H 58.6449 4.0438 -1.18552 0
M  V30 589 H 57.3689 3.25841 -0.222498 0
M  V30 590 H 56.0279 2.84324 -2.3142 0
M  V30 591 H 55.6759 4.93253 -0.985393 0
M  V30 592 H 55.3759 5.20878 -2.71955 0
M  V30 593 H 56.8999 5.77618 -1.97964 0
M  V30 594 H 58.3139 4.34328 -3.74208 0
M  V30 595 H 56.7109 4.01358 -4.4613 0
M  V30 596 H 57.7809 2.65987 -4.05436 0
M  V30 597 N 59.124 1.23083 0.984299 0
M  V30 598 C 60.401 0.9689 1.69917 0
M  V30 599 C 60.781 -0.513604 2.04757 0
M  V30 600 O 60.129 -1.48383 1.73767 0
M  V30 601 C 60.339 1.87518 2.94343 0
M  V30 602 C 61.687 2.13636 3.6694 0
M  V30 603 O 62.711 1.85036 3.04368 0
M  V30 604 O 61.57 2.62119 4.79537 0
M  V30 605 H 58.664 0.365095 0.742048 0
M  V30 606 H 61.21 1.34107 1.03987 0
M  V30 607 H 59.982 2.87756 2.65164 0
M  V30 608 H 59.605 1.50514 3.6801 0
M  V30 609 N 60.6021 -1.18246 1.0419 0
M  V30 610 C 61.5341 -2.2142 0.592088 0
M  V30 611 C 62.5471 -1.59233 -0.338909 0
M  V30 612 O 63.7361 -1.78002 -0.133231 0
M  V30 613 C 60.8361 -3.38546 -0.154854 0
M  V30 614 C 60.0091 -4.3031 0.784328 0
M  V30 615 C 59.0681 -5.26138 0.0804583 0
M  V30 616 O 58.0941 -5.64738 0.711292 0
M  V30 617 N 59.2961 -5.68261 -1.18574 0
M  V30 618 H 62.0611 -2.60636 1.47949 0
M  V30 619 H 59.6221 -1.33044 0.922544 0
M  V30 620 H 61.6141 -3.99678 -0.635606 0
M  V30 621 H 60.1841 -2.98012 -0.943811 0
M  V30 622 H 59.4041 -3.66764 1.44491 0
M  V30 623 H 60.6921 -4.8852 1.42218 0
M  V30 624 H 60.0901 -5.38957 -1.71876 0
M  V30 625 H 58.6471 -6.31584 -1.61074 0
M  V30 626 N 62.0802 -0.821533 -1.34494 0
M  V30 627 C 63.0272 -0.240397 -2.29545 0
M  V30 628 C 63.9972 0.634031 -1.53523 0
M  V30 629 O 65.1822 0.575966 -1.81899 0
M  V30 630 C 62.3222 0.592869 -3.39969 0
M  V30 631 C 61.4352 -0.30365 -4.30932 0
M  V30 632 C 60.5702 0.539049 -5.28458 0
M  V30 633 C 59.6092 -0.356942 -6.11058 0
M  V30 634 N 58.7462 0.446603 -7.00678 0
M  V30 635 H 63.5862 -1.05632 -2.7865 0
M  V30 636 H 61.1232 -0.532413 -1.37127 0
M  V30 637 H 63.0812 1.09129 -4.02675 0
M  V30 638 H 61.7112 1.37392 -2.92102 0
M  V30 639 H 60.7632 -0.920276 -3.691 0
M  V30 640 H 62.0752 -0.992661 -4.88823 0
M  V30 641 H 61.2292 1.102 -5.96608 0
M  V30 642 H 59.9682 1.26157 -4.71101 0
M  V30 643 H 58.9732 -0.932047 -5.41842 0
M  V30 644 H 60.1982 -1.07755 -6.70497 0
M  V30 645 H 58.1442 1.15282 -6.45791 0
M  V30 646 H 58.0612 -0.184048 -7.55776 0
M  V30 647 H 59.3292 0.992352 -7.73158 0
M  V30 648 N 63.5583 1.46682 -0.576371 0
M  V30 649 C 64.4883 2.33028 0.148397 0
M  V30 650 C 65.4693 1.44961 0.889956 0
M  V30 651 O 66.6543 1.73789 0.866662 0
M  V30 652 C 63.7843 3.27117 1.1667 0
M  V30 653 C 62.7383 4.24575 0.540386 0
M  V30 654 C 62.0643 5.08126 1.6647 0
M  V30 655 C 63.3643 5.19722 -0.518331 0
M  V30 656 H 65.0583 2.93875 -0.572509 0
M  V30 657 H 62.6043 1.41315 -0.276768 0
M  V30 658 H 64.5573 3.86374 1.68204 0
M  V30 659 H 63.2813 2.64364 1.9178 0
M  V30 660 H 61.9403 3.66571 0.0461769 0
M  V30 661 H 61.5883 4.41762 2.40531 0
M  V30 662 H 61.2883 5.74122 1.25131 0
M  V30 663 H 62.8123 5.70246 2.18293 0
M  V30 664 H 64.2263 5.73232 -0.0883058 0
M  V30 665 H 62.6233 5.94026 -0.851679 0
M  V30 666 H 63.6933 4.64037 -1.40703 0
M  V30 667 N 65.0364 0.313813 1.54444 0
M  V30 668 C 66.4474 -0.176243 1.85866 0
M  V30 669 C 66.7984 -1.52405 1.23561 0
M  V30 670 O 65.9234 -2.09605 0.538016 0
M  V30 671 C 66.5184 -0.32657 3.37222 0
M  V30 672 C 65.0774 -0.760846 3.6863 0
M  V30 673 C 64.2244 0.123247 2.77026 0
M  V30 674 H 67.1754 0.534418 1.49431 0
M  V30 675 H 67.1964 -1.15908 3.62416 0
M  V30 676 H 66.7084 0.654531 3.82541 0
M  V30 677 H 64.8094 -1.75204 3.28838 0
M  V30 678 H 64.9224 -0.571353 4.75681 0
M  V30 679 H 63.2864 -0.399597 2.51546 0
M  V30 680 H 64.0694 1.10094 3.25168 0
M  V30 681 N 66.5145 -1.57545 0.0417849 0
M  V30 682 C 67.4245 -2.14451 -0.951213 0
M  V30 683 C 68.4405 -1.09992 -1.34825 0
M  V30 684 O 69.6165 -1.42114 -1.42708 0
M  V30 685 C 66.6815 -2.67063 -2.21084 0
M  V30 686 C 65.7425 -3.86284 -1.87304 0
M  V30 687 C 64.9755 -4.36378 -3.07261 0
M  V30 688 O 65.1985 -3.85587 -4.20332 0
M  V30 689 O 64.1325 -5.28077 -2.88822 0
M  V30 690 H 67.9585 -2.99601 -0.497287 0
M  V30 691 H 65.5435 -1.48317 -0.179567 0
M  V30 692 H 67.4255 -3.00914 -2.95006 0
M  V30 693 H 66.1005 -1.84989 -2.65633 0
M  V30 694 H 65.0075 -3.57338 -1.10727 0
M  V30 695 H 66.3405 -4.6956 -1.47562 0
M  V30 696 N 67.9926 0.231505 -1.5589 0
M  V30 697 C 68.9226 1.29022 -1.94617 0
M  V30 698 C 69.9036 1.4941 -0.813067 0
M  V30 699 O 71.0886 1.6176 -1.07459 0
M  V30 700 C 68.2186 2.64199 -2.25424 0
M  V30 701 C 67.1726 2.58484 -3.41131 0
M  V30 702 C 66.4986 3.97599 -3.57518 0
M  V30 703 C 67.7986 2.1413 -4.76388 0
M  V30 704 H 69.4926 0.968563 -2.83301 0
M  V30 705 H 67.0386 0.464479 -1.36303 0
M  V30 706 H 68.9916 3.38413 -2.51107 0
M  V30 707 H 67.7156 2.98032 -1.33583 0
M  V30 708 H 66.3746 1.86727 -3.15481 0
M  V30 709 H 66.0226 4.28723 -2.6307 0
M  V30 710 H 65.7226 3.94659 -4.35337 0
M  V30 711 H 67.2466 4.7349 -3.85538 0
M  V30 712 H 68.6606 2.78083 -5.01341 0
M  V30 713 H 67.0576 2.2227 -5.57419 0
M  V30 714 H 68.1276 1.09331 -4.72414 0
M  V30 715 N 69.4707 1.49531 0.497807 0
M  V30 716 C 70.8867 1.36365 0.829266 0
M  V30 717 C 71.0867 0.399184 1.97506 0
M  V30 718 O 70.1427 -0.167977 2.51941 0
M  V30 719 C 71.4557 2.77153 1.16647 0
M  V30 720 C 73.0037 2.85877 1.27449 0
M  V30 721 C 73.4787 4.2744 1.64497 0
M  V30 722 N 74.9697 4.30265 1.7154 0
M  V30 723 C 75.7047 5.3677 2.01656 0
M  V30 724 N 75.2007 6.53516 2.29976 0
M  V30 725 N 76.9937 5.24189 2.02934 0
M  V30 726 H 69.1447 2.10831 -0.257703 0
M  V30 727 H 71.4077 0.946534 -0.0527091 0
M  V30 728 H 71.1137 3.49442 0.397872 0
M  V30 729 H 70.9877 3.12722 2.10915 0
M  V30 730 H 73.3747 2.13824 2.0338 0
M  V30 731 H 73.4557 2.53887 0.312244 0
M  V30 732 H 73.0997 5.00021 0.891151 0
M  V30 733 H 73.0297 4.56896 2.61827 0
M  V30 734 H 75.5207 3.4607 1.51802 0
M  V30 735 H 75.8337 7.30506 2.52153 0
M  V30 736 H 74.1787 6.56737 2.27425 0
M  V30 737 H 77.3697 4.31988 1.80289 0
M  V30 738 H 77.5427 6.07286 2.26071 0
M  V30 739 N 70.9488 -0.749086 1.3866 0
M  V30 740 C 72.1968 -1.50535 1.34847 0
M  V30 741 C 72.5178 -1.94909 -0.0595016 0
M  V30 742 O 71.7878 -1.67973 -1.00806 0
M  V30 743 H 70.3678 -0.558395 0.49619 0
M  V30 744 H 73.0298 -0.890165 1.73384 0
M  V30 745 H 72.1258 -2.39413 2.00219 0
M  V30 746 N 72.4269 -1.23603 -0.977757 0
M  V30 747 C 73.6729 -1.07129 -1.72195 0
M  V30 748 C 74.0059 0.390501 -1.90233 0
M  V30 749 O 73.2809 1.28902 -1.45653 0
M  V30 750 C 73.5639 -1.80031 -3.11867 0
M  V30 751 C 73.4169 -3.33899 -3.01383 0
M  V30 752 C 74.7359 -1.56492 -4.11337 0
M  V30 753 H 71.8549 -0.390571 -0.624999 0
M  V30 754 H 74.4969 -1.52142 -1.13811 0
M  V30 755 H 72.6469 -1.41768 -3.6171 0
M  V30 756 H 74.3189 -3.81699 -2.59043 0
M  V30 757 H 72.5619 -3.62796 -2.37827 0
M  V30 758 H 73.2329 -3.801 -4.00285 0
M  V30 759 H 75.7089 -1.89757 -3.70313 0
M  V30 760 H 74.5849 -2.09973 -5.07151 0
M  V30 761 H 74.8459 -0.500874 -4.39254 0
M  V30 762 N 73.905 1.17692 -1.04816 0
M  V30 763 C 75.153 1.87488 -0.754497 0
M  V30 764 C 75.474 1.81205 0.720407 0
M  V30 765 O 74.744 1.23544 1.52032 0
M  V30 766 H 73.324 0.694101 -0.276102 0
M  V30 767 H 75.986 1.42793 -1.32651 0
M  V30 768 H 75.082 2.93328 -1.06606 0
M  V30 769 N 75.3831 0.828654 1.34056 0
M  V30 770 C 76.6601 0.341809 1.9259 0
M  V30 771 C 77.0401 -1.17158 1.75605 0
M  V30 772 O 76.3881 -1.98132 1.13824 0
M  V30 773 C 76.5981 0.777453 3.4023 0
M  V30 774 C 77.9461 0.779579 4.17382 0
M  V30 775 O 78.9701 0.7204 3.48839 0
M  V30 776 O 77.8291 0.857996 5.39723 0
M  V30 777 H 74.9231 0.0946085 0.821571 0
M  V30 778 H 77.4691 0.913827 1.42994 0
M  V30 779 H 76.2411 1.8196 3.46419 0
M  V30 780 H 75.8641 0.181444 3.97186 0
M  V30 781 N 76.8612 -1.46375 0.584142 0
M  V30 782 C 78.2722 -1.86031 0.157959 0
M  V30 783 C 78.6232 -1.48753 -1.27933 0
M  V30 784 O 77.7482 -0.903098 -1.96655 0
M  V30 785 C 78.3432 -3.37642 0.279892 0
M  V30 786 C 76.9022 -3.76289 -0.09143 0
M  V30 787 C 76.0492 -2.7039 0.615178 0
M  V30 788 H 79.0002 -1.37509 0.792274 0
M  V30 789 H 79.0212 -3.77275 -0.494364 0
M  V30 790 H 78.5332 -3.64742 1.32607 0
M  V30 791 H 76.6342 -3.54806 -1.13769 0
M  V30 792 H 76.7472 -4.78246 0.285886 0
M  V30 793 H 75.1112 -2.5464 0.0552833 0
M  V30 794 H 75.8942 -3.0033 1.66303 0
M  V30 795 N 78.3393 -0.321999 -1.54275 0
M  V30 796 C 79.3023 0.531975 -2.22941 0
M  V30 797 C 80.3023 1.04478 -1.22234 0
M  V30 798 O 81.4923 0.937452 -1.46825 0
M  V30 799 C 78.6243 1.73874 -2.93224 0
M  V30 800 H 79.8173 -0.0682612 -2.99822 0
M  V30 801 H 77.3703 -0.0730644 -1.56129 0
M  V30 802 H 78.1053 2.37825 -2.20476 0
M  V30 803 H 77.8903 1.37847 -3.6707 0
M  V30 804 H 79.3803 2.34496 -3.45545 0
M  V30 805 N 79.8174 1.5752 -0.0501392 0
M  V30 806 C 80.7504 2.07026 0.959962 0
M  V30 807 C 81.7284 0.970539 1.30458 0
M  V30 808 O 82.9124 1.2424 1.41763 0
M  V30 809 C 80.0394 2.5099 2.27424 0
M  V30 810 C 79.0854 3.72188 2.08275 0
M  V30 811 S 79.9184 5.17888 1.36207 0
M  V30 812 C 81.0744 5.65165 2.6896 0
M  V30 813 H 81.3074 2.9238 0.538631 0
M  V30 814 H 78.8404 1.53547 0.162099 0
M  V30 815 H 80.7984 2.76982 3.02971 0
M  V30 816 H 79.4594 1.65944 2.66686 0
M  V30 817 H 78.6524 4.00866 3.05487 0
M  V30 818 H 78.2544 3.46457 1.40868 0
M  V30 819 H 80.5464 5.70687 3.65133 0
M  V30 820 H 81.4894 6.64394 2.4492 0
M  V30 821 H 81.8974 4.9289 2.75172 0
M  V30 822 N 81.2955 -0.223234 1.56011 0
M  V30 823 C 82.5445 -0.945912 1.78144 0
M  V30 824 C 82.8575 -1.85567 0.618396 0
M  V30 825 O 84.0635 -2.61688 0.723318 0
M  V30 826 C 82.5195 -1.73216 3.15475 0
M  V30 827 C 82.1275 -0.868619 4.39499 0
M  V30 828 C 83.8715 -2.44615 3.46935 0
M  V30 829 C 81.7785 -1.65212 5.67855 0
M  V30 830 H 80.7085 -0.356929 0.664167 0
M  V30 831 H 83.3595 -0.199845 1.82409 0
M  V30 832 H 81.7415 -2.52107 3.05382 0
M  V30 833 H 82.9155 -0.120366 4.60643 0
M  V30 834 H 81.2305 -0.26683 4.15544 0
M  V30 835 H 83.8275 -3.03732 4.40058 0
M  V30 836 H 84.1705 -3.17417 2.69355 0
M  V30 837 H 84.7035 -1.72715 3.58349 0
M  V30 838 H 81.4425 -0.967407 6.48322 0
M  V30 839 H 80.9625 -2.37503 5.50774 0
M  V30 840 H 82.6415 -2.21322 6.07968 0
M  V30 841 N 82.7736 -1.49793 -0.48987 0
M  V30 842 C 83.9986 -1.63836 -1.27172 0
M  V30 843 C 84.4236 -0.31402 -1.8546 0
M  V30 844 O 83.7816 0.719803 -1.66399 0
M  V30 845 C 83.8296 -2.71797 -2.36978 0
M  V30 846 O 82.9336 -2.31744 -3.41128 0
M  V30 847 H 82.2746 -0.547997 -0.37496 0
M  V30 848 H 84.8046 -1.96053 -0.585191 0
M  V30 849 H 84.8146 -2.94305 -2.82575 0
M  V30 850 H 83.4896 -3.67923 -1.93921 0
M  V30 851 H 82.0666 -2.1961 -3.01373 0
M  V30 852 N 84.2517 0.741722 -1.39055 0
M  V30 853 C 85.4767 1.53607 -1.39354 0
M  V30 854 C 85.9017 1.88096 0.0116905 0
M  V30 855 O 85.2597 1.5143 0.996924 0
M  V30 856 C 85.3077 2.80441 -2.26682 0
M  V30 857 O 84.4117 3.76088 -1.69208 0
M  V30 858 H 83.7527 0.464142 -0.474835 0
M  V30 859 H 86.2827 0.915665 -1.82967 0
M  V30 860 H 86.2927 3.29246 -2.40959 0
M  V30 861 H 84.9677 2.5467 -3.2881 0
M  V30 862 H 83.5447 3.34833 -1.64138 0
M  V30 863 N 85.7298 1.2412 0.971189 0
M  V30 864 C 87.0068 0.986867 1.6888 0
M  V30 865 C 87.3868 -0.491857 2.0529 0
M  V30 866 O 86.7348 -1.46531 1.75331 0
M  V30 867 C 86.9448 1.9063 2.92338 0
M  V30 868 C 88.2928 2.17515 3.64654 0
M  V30 869 O 89.3168 1.88254 3.02388 0
M  V30 870 O 88.1758 2.6719 4.7673 0
M  V30 871 H 85.2698 0.372944 0.738134 0
M  V30 872 H 87.8158 1.35203 1.02559 0
M  V30 873 H 86.5878 2.90552 2.62097 0
M  V30 874 H 86.2108 1.54408 3.66393 0
M  V30 875 N 87.2079 -1.17134 1.05439 0
M  V30 876 C 88.4359 -1.91372 0.786414 0
M  V30 877 C 88.8509 -1.76955 -0.658202 0
M  V30 878 O 88.2079 -1.10838 -1.44987 0
M  V30 879 C 88.2589 -3.42356 1.1608 0
M  V30 880 O 87.9799 -3.56332 2.54871 0
M  V30 881 C 89.4809 -4.33663 0.919322 0
M  V30 882 H 86.7009 -0.607118 0.285743 0
M  V30 883 H 89.2449 -1.48525 1.40572 0
M  V30 884 H 87.3999 -3.82939 0.586191 0
M  V30 885 H 87.8139 -4.49896 2.69618 0
M  V30 886 H 89.2879 -5.38099 1.231 0
M  V30 887 H 89.7649 -4.38959 -0.145359 0
M  V30 888 H 90.3709 -3.98796 1.47789 0
M  V30 889 N 88.686 -0.835752 -1.33615 0
M  V30 890 C 89.911 -0.442389 -2.02627 0
M  V30 891 C 90.336 0.947735 -1.62479 0
M  V30 892 O 89.694 1.61907 -0.815826 0
M  V30 893 C 89.742 -0.567216 -3.56111 0
M  V30 894 O 88.846 0.407799 -4.10379 0
M  V30 895 H 88.187 -0.180278 -0.639059 0
M  V30 896 H 90.717 -1.12972 -1.70583 0
M  V30 897 H 90.727 -0.447708 -4.05536 0
M  V30 898 H 89.402 -1.58103 -3.84677 0
M  V30 899 H 87.979 0.246107 -3.72087 0
M  V30 900 N 90.1641 1.46063 -0.591896 0
M  V30 901 C 91.3941 2.06418 -0.0867676 0
M  V30 902 C 91.8021 1.43975 1.22751 0
M  V30 903 O 91.1451 0.542531 1.75506 0
M  V30 904 C 91.2071 3.59213 0.143725 0
M  V30 905 C 90.8711 4.439 -1.08635 0
M  V30 906 C 91.8681 4.79864 -2.00067 0
M  V30 907 C 89.5531 4.84896 -1.31077 0
M  V30 908 C 91.5471 5.55661 -3.12282 0
M  V30 909 C 89.2341 5.6045 -2.43596 0
M  V30 910 C 90.2321 5.95747 -3.34027 0
M  V30 911 O 89.9201 6.69772 -4.4459 0
M  V30 912 H 89.6521 0.673443 -0.0587447 0
M  V30 913 H 92.2061 1.88539 -0.814994 0
M  V30 914 H 90.4361 3.75433 0.926668 0
M  V30 915 H 92.1251 4.01463 0.5985 0
M  V30 916 H 92.8911 4.48763 -1.83947 0
M  V30 917 H 88.7701 4.56867 -0.61594 0
M  V30 918 H 92.3141 5.8313 -3.82891 0
M  V30 919 H 88.2111 5.90965 -2.59674 0
M  V30 920 H 88.9791 6.88207 -4.43073 0
M  V30 921 N 91.6422 0.330177 1.54103 0
M  V30 922 C 92.5722 -0.525353 2.27513 0
M  V30 923 C 93.5532 -1.11383 1.2856 0
M  V30 924 O 94.7382 -1.13773 1.57383 0
M  V30 925 C 91.8682 -1.6831 3.03791 0
M  V30 926 C 90.8222 -1.2236 4.10137 0
M  V30 927 C 90.1482 -2.46882 4.74293 0
M  V30 928 C 91.4482 -0.333697 5.21233 0
M  V30 929 H 93.1422 0.087013 2.99274 0
M  V30 930 H 90.6882 0.0432893 1.43935 0
M  V30 931 H 92.6412 -2.28795 3.5388 0
M  V30 932 H 91.3652 -2.32216 2.29659 0
M  V30 933 H 90.0242 -0.64165 3.60941 0
M  V30 934 H 89.6722 -3.09165 3.96769 0
M  V30 935 H 89.3722 -2.16825 5.46133 0
M  V30 936 H 90.8962 -3.08117 5.27159 0
M  V30 937 H 92.3102 -0.845013 5.67038 0
M  V30 938 H 90.7072 -0.125612 5.99969 0
M  V30 939 H 91.7772 0.633724 4.80741 0
M  V30 940 N 93.1203 -1.57491 0.0584922 0
M  V30 941 C 94.3453 -1.97711 -0.62652 0
M  V30 942 C 94.7703 -0.936132 -1.63151 0
M  V30 943 O 94.1283 0.099811 -1.81025 0
M  V30 944 C 94.1763 -3.36989 -1.28338 0
M  V30 945 O 93.2803 -3.35433 -2.39913 0
M  V30 946 H 92.6213 -0.643868 -0.162266 0
M  V30 947 H 95.1513 -2.04193 0.129064 0
M  V30 948 H 95.1613 -3.73879 -1.63335 0
M  V30 949 H 93.8363 -4.12289 -0.546889 0
M  V30 950 H 92.4133 -3.10298 -2.06809 0
M  V30 951 N 94.5984 0.214957 -1.56127 0
M  V30 952 C 95.8234 0.95924 -1.83884 0
M  V30 953 C 96.2484 1.7689 -0.639644 0
M  V30 954 O 95.6064 1.76566 0.411601 0
M  V30 955 C 95.6544 1.84723 -3.09693 0
M  V30 956 O 94.7584 2.94346 -2.8885 0
M  V30 957 H 94.0994 0.27125 -0.606069 0
M  V30 958 H 96.6294 0.226276 -2.03345 0
M  V30 959 H 96.6394 2.25576 -3.39969 0
M  V30 960 H 95.3144 1.25218 -3.96602 0
M  V30 961 H 93.8914 2.57391 -2.69823 0
M  V30 962 N 96.0765 1.50051 0.48192 0
M  V30 963 C 97.4925 1.37237 0.814756 0
M  V30 964 C 97.6925 0.420109 1.97072 0
M  V30 965 O 96.7485 -0.141246 2.52105 0
M  V30 966 C 98.0615 2.78375 1.13701 0
M  V30 967 C 99.6095 2.87213 1.2441 0
M  V30 968 C 100.084 4.29161 1.59954 0
M  V30 969 N 101.575 4.32061 1.66967 0
M  V30 970 C 102.31 5.38879 1.95952 0
M  V30 971 N 101.806 6.55918 2.23031 0
M  V30 972 N 103.599 5.26312 1.97363 0
M  V30 973 H 95.7505 2.10546 -0.28005 0
M  V30 974 H 98.0135 0.945921 -0.0627454 0
M  V30 975 H 97.7195 3.49845 0.360787 0
M  V30 976 H 97.5935 3.14941 2.07586 0
M  V30 977 H 99.9805 2.15969 2.01101 0
M  V30 978 H 100.061 2.54204 0.285299 0
M  V30 979 H 99.7055 5.00938 0.838067 0
M  V30 980 H 99.6355 4.59648 2.56966 0
M  V30 981 H 102.126 3.47661 1.48123 0
M  V30 982 H 102.439 7.33139 2.44391 0
M  V30 983 H 100.784 6.59112 2.20447 0
M  V30 984 H 103.975 4.33876 1.75697 0
M  V30 985 H 104.148 6.09649 2.19618 0
M  V30 986 N 97.5546 -0.734337 1.39446 0
M  V30 987 C 98.8026 -1.49096 1.36436 0
M  V30 988 C 99.1236 -1.94961 -0.0388255 0
M  V30 989 O 98.3936 -1.69033 -0.990191 0
M  V30 990 H 96.9736 -0.5531 0.502085 0
M  V30 991 H 99.6356 -0.871725 1.74319 0
M  V30 992 H 98.7316 -2.37276 2.02747 0
M  V30 993 N 99.0327 -1.24633 -0.964593 0
M  V30 994 C 100.449 -1.01239 -1.2338 0
M  V30 995 C 100.649 0.2769 -1.99588 0
M  V30 996 O 99.7047 0.992241 -2.32187 0
M  V30 997 C 101.018 -2.22937 -2.01791 0
M  V30 998 C 102.566 -2.27594 -2.14872 0
M  V30 999 C 103.041 -3.48921 -2.96678 0
M  V30 1000 N 104.532 -3.49257 -3.04259 0
M  V30 1001 C 105.267 -4.39795 -3.67924 0
M  V30 1002 N 104.763 -5.40591 -4.33281 0
M  V30 1003 N 106.556 -4.275 -3.64966 0
M  V30 1004 H 98.7067 -2.0748 -0.454502 0
M  V30 1005 H 100.97 -0.910647 -0.26349 0
M  V30 1006 H 100.676 -3.16587 -1.53184 0
M  V30 1007 H 100.55 -2.25306 -3.02518 0
M  V30 1008 H 102.937 -1.34473 -2.6268 0
M  V30 1009 H 103.018 -2.2925 -1.13482 0
M  V30 1010 H 102.662 -4.42359 -2.49562 0
M  V30 1011 H 102.592 -3.4451 -3.98272 0
M  V30 1012 H 105.083 -2.76337 -2.57771 0
M  V30 1013 H 105.396 -6.05904 -4.79687 0
M  V30 1014 H 103.741 -5.44475 -4.3194 0
M  V30 1015 H 106.932 -3.47987 -3.13086 0
M  V30 1016 H 107.105 -4.98258 -4.14298 0
M  V30 1017 N 100.511 1.16574 -1.06058 0
M  V30 1018 C 101.444 2.19798 -0.61352 0
M  V30 1019 C 102.422 1.58509 0.362453 0
M  V30 1020 O 103.606 1.86527 0.271994 0
M  V30 1021 C 100.733 3.3855 0.100915 0
M  V30 1022 C 99.7788 4.18317 -0.831438 0
M  V30 1023 S 100.612 4.82375 -2.32539 0
M  V30 1024 C 101.768 6.04508 -1.62238 0
M  V30 1025 H 102.001 2.5738 -1.48805 0
M  V30 1026 H 99.5338 1.27327 -0.873338 0
M  V30 1027 H 101.492 4.07358 0.506898 0
M  V30 1028 H 100.153 2.99338 0.951604 0
M  V30 1029 H 99.3458 5.03232 -0.278071 0
M  V30 1030 H 98.9478 3.5499 -1.17719 0
M  V30 1031 H 101.24 6.71133 -0.926622 0
M  V30 1032 H 102.183 6.64389 -2.44934 0
M  V30 1033 H 102.591 5.53559 -1.106 0
M  V30 1034 N 101.989 0.842826 1.3317 0
M  V30 1035 C 103.238 0.436738 1.96915 0
M  V30 1036 C 103.551 -1.01025 1.67491 0
M  V30 1037 O 104.757 -1.5212 2.24881 0
M  V30 1038 C 103.213 0.730021 3.52418 0
M  V30 1039 C 102.821 2.19195 3.90714 0
M  V30 1040 C 104.565 0.391076 4.22695 0
M  V30 1041 C 102.472 2.42907 5.39212 0
M  V30 1042 H 101.402 0.15958 0.736919 0
M  V30 1043 H 104.053 1.03196 1.51733 0
M  V30 1044 H 102.435 0.0643755 3.95948 0
M  V30 1045 H 103.609 2.8984 3.58231 0
M  V30 1046 H 101.924 2.49425 3.33431 0
M  V30 1047 H 104.521 0.545817 5.31907 0
M  V30 1048 H 104.864 -0.666294 4.10933 0
M  V30 1049 H 105.397 1.01212 3.84709 0
M  V30 1050 H 102.136 3.47224 5.55982 0
M  V30 1051 H 101.656 1.76827 5.73142 0
M  V30 1052 H 103.335 2.2626 6.06148 0
M  V30 1053 N 103.467 -1.45747 0.599634 0
M  V30 1054 C 104.414 -2.30467 -0.123849 0
M  V30 1055 C 105.384 -1.41632 -0.86774 0
M  V30 1056 O 106.569 -1.70568 -0.855056 0
M  V30 1057 C 103.709 -3.26402 -1.12051 0
M  V30 1058 C 102.822 -4.3034 -0.37832 0
M  V30 1059 C 101.957 -5.13389 -1.364 0
M  V30 1060 C 100.996 -6.09061 -0.609171 0
M  V30 1061 N 100.133 -6.84918 -1.54374 0
M  V30 1062 H 104.973 -2.91802 0.604627 0
M  V30 1063 H 102.51 -1.43797 0.309972 0
M  V30 1064 H 104.468 -3.80482 -1.7114 0
M  V30 1065 H 103.098 -2.66839 -1.8165 0
M  V30 1066 H 102.15 -3.78984 0.327929 0
M  V30 1067 H 103.462 -4.98354 0.210997 0
M  V30 1068 H 102.616 -5.7183 -2.02719 0
M  V30 1069 H 101.355 -4.45376 -1.98725 0
M  V30 1070 H 100.36 -5.49758 0.0676979 0
M  V30 1071 H 101.585 -6.79099 0.00891991 0
M  V30 1072 H 99.531 -6.19601 -2.15478 0
M  V30 1073 H 99.448 -7.49254 -1.00766 0
M  V30 1074 H 100.716 -7.47906 -2.19676 0
M  V30 1075 N 104.945 -0.338344 -1.53925 0
M  V30 1076 C 106.191 0.252842 -2.01822 0
M  V30 1077 C 106.546 1.48612 -1.22197 0
M  V30 1078 O 105.839 1.89238 -0.299892 0
M  V30 1079 C 106.033 0.62448 -3.51902 0
M  V30 1080 C 105.862 -0.571235 -4.46057 0
M  V30 1081 C 104.632 -1.07493 -4.93734 0
M  V30 1082 C 106.83 -1.42807 -4.94076 0
M  V30 1083 N 104.812 -2.23351 -5.71828 0
M  V30 1084 C 106.183 -2.43362 -5.70241 0
M  V30 1085 C 108.238 -1.45412 -4.76193 0
M  V30 1086 C 106.941 -3.46346 -6.30426 0
M  V30 1087 C 108.967 -2.47274 -5.37224 0
M  V30 1088 C 108.329 -3.46555 -6.13253 0
M  V30 1089 H 104.428 0.0559669 -0.779995 0
M  V30 1090 H 107.012 -0.476732 -1.88773 0
M  V30 1091 H 105.183 1.32317 -3.65167 0
M  V30 1092 H 106.915 1.19841 -3.86549 0
M  V30 1093 H 103.67 -0.643848 -4.69203 0
M  V30 1094 H 104.094 -2.81834 -6.15548 0
M  V30 1095 H 108.736 -0.700171 -4.16962 0
M  V30 1096 H 106.454 -4.22638 -6.88769 0
M  V30 1097 H 110.04 -2.50109 -5.25297 0
M  V30 1098 H 108.92 -4.24083 -6.59638 0
M  V30 1099 N 106.423 1.57458 -0.0668435 0
M  V30 1100 C 107.67 1.93301 0.603406 0
M  V30 1101 C 107.998 0.946486 1.69917 0
M  V30 1102 O 107.253 -0.0387021 1.95662 0
M  V30 1103 C 107.552 3.35784 1.22409 0
M  V30 1104 C 107.218 4.50179 0.254955 0
M  V30 1105 C 105.88 4.81199 -0.0116746 0
M  V30 1106 C 108.232 5.19598 -0.408338 0
M  V30 1107 C 105.56 5.78978 -0.94877 0
M  V30 1108 C 107.912 6.18381 -1.33372 0
M  V30 1109 C 106.576 6.47821 -1.60887 0
M  V30 1110 H 105.846 0.707338 0.220802 0
M  V30 1111 H 108.493 1.91012 -0.136665 0
M  V30 1112 H 106.798 3.34515 2.03978 0
M  V30 1113 H 108.495 3.60804 1.74989 0
M  V30 1114 H 105.085 4.25983 0.472954 0
M  V30 1115 H 109.269 4.95832 -0.215456 0
M  V30 1116 H 104.525 6.00115 -1.16925 0
M  V30 1117 H 108.699 6.71277 -1.85367 0
M  V30 1118 H 106.326 7.23399 -2.33661 0
M  V30 1119 N 107.901 -0.206675 1.56239 0
M  V30 1120 C 109.147 -0.925733 1.81113 0
M  V30 1121 C 109.502 -1.81368 0.642135 0
M  V30 1122 O 108.795 -1.88126 -0.363211 0
M  V30 1123 C 108.989 -1.78675 3.09532 0
M  V30 1124 C 108.818 -0.98365 4.3881 0
M  V30 1125 C 107.588 -0.672661 5.00803 0
M  V30 1126 C 109.786 -0.341847 5.13163 0
M  V30 1127 N 107.768 0.150283 6.13716 0
M  V30 1128 C 109.139 0.343815 6.19046 0
M  V30 1129 C 111.194 -0.256392 4.97239 0
M  V30 1130 C 109.897 1.10678 7.10734 0
M  V30 1131 C 111.923 0.493142 5.8934 0
M  V30 1132 C 111.285 1.16729 6.94661 0
M  V30 1133 H 107.384 -0.318524 0.714189 0
M  V30 1134 H 109.968 -0.195378 1.93717 0
M  V30 1135 H 108.139 -2.4888 2.98183 0
M  V30 1136 H 109.871 -2.44441 3.22538 0
M  V30 1137 H 106.626 -0.994294 4.63045 0
M  V30 1138 H 107.05 0.551026 6.74754 0
M  V30 1139 H 111.692 -0.763249 4.15854 0
M  V30 1140 H 109.41 1.6251 7.91591 0
M  V30 1141 H 112.996 0.560465 5.79094 0
M  V30 1142 H 111.876 1.738 7.64698 0
M  V30 1143 N 109.379 -1.50304 -0.473955 0
M  V30 1144 C 110.656 -1.51667 -1.23518 0
M  V30 1145 C 111.036 -0.259701 -2.09496 0
M  V30 1146 O 110.384 0.756986 -2.15597 0
M  V30 1147 C 110.594 -2.81082 -2.06868 0
M  V30 1148 C 111.942 -3.31631 -2.65153 0
M  V30 1149 O 112.966 -2.82384 -2.17113 0
M  V30 1150 O 111.825 -4.17471 -3.52675 0
M  V30 1151 H 108.919 -0.60822 -0.560355 0
M  V30 1152 H 111.465 -1.62592 -0.486011 0
M  V30 1153 H 110.237 -3.64041 -1.4349 0
M  V30 1154 H 109.86 -2.73146 -2.88924 0
M  V30 1155 N 110.857 0.726932 -1.39834 0
M  V30 1156 C 112.082 1.52121 -1.40976 0
M  V30 1157 C 112.507 1.88098 -0.00826029 0
M  V30 1158 O 111.865 1.52479 0.980807 0
M  V30 1159 C 111.913 2.78021 -2.29644 0
M  V30 1160 O 111.017 3.74272 -1.73188 0
M  V30 1161 H 110.358 0.45908 -0.479731 0
M  V30 1162 H 112.888 0.896207 -1.83927 0
M  V30 1163 H 112.898 3.26671 -2.44438 0
M  V30 1164 H 111.573 2.51169 -3.31492 0
M  V30 1165 H 110.15 3.33073 -1.6768 0
M  V30 1166 N 112.336 1.25143 0.95797 0
M  V30 1167 C 113.299 1.05321 2.03569 0
M  V30 1168 C 114.299 0.007152 1.60798 0
M  V30 1169 O 115.489 0.24903 1.72411 0
M  V30 1170 C 112.621 0.598394 3.35607 0
M  V30 1171 H 113.814 2.00986 2.22586 0
M  V30 1172 H 111.367 1.07502 1.13459 0
M  V30 1173 H 112.102 -0.361014 3.22284 0
M  V30 1174 H 111.887 1.35351 3.67998 0
M  V30 1175 H 113.377 0.48104 4.1482 0
M  V30 1176 N 113.814 -1.1601 1.06675 0
M  V30 1177 C 114.724 -2.24156 0.692179 0
M  V30 1178 C 115.74 -1.71507 -0.293513 0
M  V30 1179 O 116.916 -2.009 -0.141861 0
M  V30 1180 C 113.981 -3.46587 0.0884131 0
M  V30 1181 C 113.042 -4.14257 1.12646 0
M  V30 1182 C 112.275 -5.30844 0.551416 0
M  V30 1183 O 112.498 -5.66858 -0.634656 0
M  V30 1184 O 111.432 -5.87848 1.29298 0
M  V30 1185 H 115.258 -2.58513 1.59388 0
M  V30 1186 H 112.843 -1.23599 0.83926 0
M  V30 1187 H 114.725 -4.20679 -0.246361 0
M  V30 1188 H 113.4 -3.13994 -0.786712 0
M  V30 1189 H 112.307 -3.42118 1.51348 0
M  V30 1190 H 113.64 -4.50914 1.97325 0
M  V30 1191 N 115.292 -0.849877 -1.32721 0
M  V30 1192 C 116.202 -0.293791 -2.32753 0
M  V30 1193 C 117.218 0.585906 -1.63839 0
M  V30 1194 O 118.394 0.487413 -1.95413 0
M  V30 1195 C 115.459 0.512752 -3.42887 0
M  V30 1196 C 114.52 -0.39252 -4.27502 0
M  V30 1197 C 113.753 0.375625 -5.32377 0
M  V30 1198 O 113.976 1.60613 -5.4732 0
M  V30 1199 O 112.91 -0.256094 -6.01355 0
M  V30 1200 H 116.736 -1.12242 -2.82197 0
M  V30 1201 H 114.321 -0.612685 -1.36259 0
M  V30 1202 H 116.203 0.970704 -4.10067 0
M  V30 1203 H 114.878 1.31826 -2.95641 0
M  V30 1204 H 113.785 -0.898547 -3.63149 0
M  V30 1205 H 115.118 -1.16309 -4.7826 0
M  V30 1206 N 116.77 1.45427 -0.607355 0
M  V30 1207 C 118.018 2.01841 -0.102253 0
M  V30 1208 C 118.339 1.47832 1.27164 0
M  V30 1209 O 117.609 0.672497 1.83995 0
M  V30 1210 H 116.189 0.746188 -0.0348101 0
M  V30 1211 H 118.851 1.78229 -0.7887 0
M  V30 1212 H 117.947 3.12057 -0.0518585 0
M  V30 1213 N 118.248 0.346503 1.53744 0
M  V30 1214 C 119.478 -0.250047 2.05081 0
M  V30 1215 C 119.886 -1.44529 1.22098 0
M  V30 1216 O 119.229 -1.81992 0.249917 0
M  V30 1217 C 119.291 -0.725934 3.52094 0
M  V30 1218 C 118.955 0.350053 4.55657 0
M  V30 1219 C 119.952 1.19372 5.0601 0
M  V30 1220 C 117.637 0.504827 4.99757 0
M  V30 1221 C 119.631 2.17768 5.99046 0
M  V30 1222 C 117.318 1.49218 5.92602 0
M  V30 1223 C 118.316 2.32706 6.42135 0
M  V30 1224 O 118.004 3.2976 7.33153 0
M  V30 1225 H 117.736 -0.0515469 0.674032 0
M  V30 1226 H 120.29 0.497559 1.99282 0
M  V30 1227 H 118.52 -1.52483 3.55367 0
M  V30 1228 H 120.209 -1.24336 3.86388 0
M  V30 1229 H 120.975 1.08525 4.72702 0
M  V30 1230 H 116.854 -0.135178 4.60802 0
M  V30 1231 H 120.398 2.82971 6.37631 0
M  V30 1232 H 116.295 1.6012 6.25325 0
M  V30 1233 H 117.063 3.25265 7.51096 0
M  V30 1234 N 119.726 -1.57421 0.075193 0
M  V30 1235 C 121.142 -1.57099 -0.281444 0
M  V30 1236 C 121.342 -1.08486 -1.69803 0
M  V30 1237 O 120.398 -0.752279 -2.41033 0
M  V30 1238 C 121.711 -3.00571 -0.0880041 0
M  V30 1239 C 123.259 -3.12605 -0.157281 0
M  V30 1240 C 123.734 -4.57999 0.0079207 0
M  V30 1241 N 125.225 -4.63176 -0.0475725 0
M  V30 1242 C 125.96 -5.73373 0.0557876 0
M  V30 1243 N 125.456 -6.92473 0.21286 0
M  V30 1244 N 127.249 -5.621 -0.00152098 0
M  V30 1245 H 119.4 -1.87335 1.00098 0
M  V30 1246 H 121.663 -0.86377 0.390646 0
M  V30 1247 H 121.369 -3.40262 0.889629 0
M  V30 1248 H 121.243 -3.67754 -0.838875 0
M  V30 1249 H 123.63 -2.72798 -1.1254 0
M  V30 1250 H 123.711 -2.48053 0.62475 0
M  V30 1251 H 123.355 -4.98496 0.972824 0
M  V30 1252 H 123.285 -5.20586 -0.793556 0
M  V30 1253 H 125.776 -3.7753 -0.167244 0
M  V30 1254 H 126.089 -7.72279 0.283781 0
M  V30 1255 H 124.434 -6.94556 0.248267 0
M  V30 1256 H 127.625 -4.67938 -0.122958 0
M  V30 1257 H 127.798 -6.47948 0.0824844 0
M  V30 1258 N 121.204 0.198386 -1.56346 0
M  V30 1259 C 122.432 0.935572 -1.84539 0
M  V30 1260 C 122.847 1.76989 -0.657281 0
M  V30 1261 O 122.204 1.78626 0.374043 0
M  V30 1262 C 122.255 1.8344 -3.11499 0
M  V30 1263 O 121.976 1.03377 -4.25728 0
M  V30 1264 C 123.477 2.68355 -3.52846 0
M  V30 1265 H 120.697 0.273126 -0.612897 0
M  V30 1266 H 123.241 0.20663 -2.03453 0
M  V30 1267 H 121.396 2.51701 -2.94492 0
M  V30 1268 H 121.81 1.64599 -4.98003 0
M  V30 1269 H 123.284 3.27085 -4.44657 0
M  V30 1270 H 123.761 3.41901 -2.75681 0
M  V30 1271 H 124.367 2.05471 -3.72373 0
M  V30 1272 N 122.682 1.50554 0.465978 0
M  V30 1273 C 123.912 1.65323 1.23903 0
M  V30 1274 C 124.32 0.338051 1.86155 0
M  V30 1275 O 123.663 -0.690518 1.70228 0
M  V30 1276 C 123.725 2.69048 2.3844 0
M  V30 1277 C 123.389 4.12462 1.96784 0
M  V30 1278 C 124.386 4.98168 1.48745 0
M  V30 1279 C 122.071 4.58407 2.05349 0
M  V30 1280 C 124.065 6.27868 1.0982 0
M  V30 1281 C 121.752 5.88112 1.66035 0
M  V30 1282 C 122.75 6.72668 1.18349 0
M  V30 1283 O 122.438 7.99951 0.795825 0
M  V30 1284 H 122.17 0.558629 0.38067 0
M  V30 1285 H 124.724 1.97561 0.562022 0
M  V30 1286 H 122.954 2.32062 3.09328 0
M  V30 1287 H 124.643 2.72985 3.0039 0
M  V30 1288 H 125.409 4.63885 1.41546 0
M  V30 1289 H 121.288 3.92735 2.41414 0
M  V30 1290 H 124.832 6.93819 0.725293 0
M  V30 1291 H 120.729 6.21914 1.72895 0
M  V30 1292 H 121.497 8.13265 0.924222 0
M  V30 1293 N 124.16 -0.719506 1.40217 0
M  V30 1294 C 125.11 -1.8251 1.36653 0
M  V30 1295 C 126.094 -1.59028 0.244732 0
M  V30 1296 O 127.286 -1.70268 0.483524 0
M  V30 1297 C 124.415 -3.20599 1.22763 0
M  V30 1298 C 123.501 -3.49858 2.39708 0
M  V30 1299 N 123.892 -3.49957 3.6519 0
M  V30 1300 C 122.19 -3.80297 2.33002 0
M  V30 1301 C 122.891 -3.77449 4.42614 0
M  V30 1302 N 121.867 -3.96002 3.72402 0
M  V30 1303 H 125.669 -1.80914 2.31619 0
M  V30 1304 H 123.183 -0.918455 1.33933 0
M  V30 1305 H 125.18 -3.99766 1.18292 0
M  V30 1306 H 123.84 -3.23424 0.287614 0
M  V30 1307 H 124.851 -3.309 3.98404 0
M  V30 1308 H 121.528 -3.90635 1.47346 0
M  V30 1309 H 122.918 -3.83863 5.51451 0
M  V30 1310 N 125.638 -1.25649 -0.95132 0
M  V30 1311 C 126.571 -1.00644 -2.04807 0
M  V30 1312 C 127.549 0.0654271 -1.62468 0
M  V30 1313 O 128.733 -0.074911 -1.88351 0
M  V30 1314 C 125.86 -0.522052 -3.34653 0
M  V30 1315 C 124.906 -1.58495 -3.95957 0
M  V30 1316 S 125.739 -3.17108 -4.31512 0
M  V30 1317 C 126.895 -2.70412 -5.64471 0
M  V30 1318 H 127.128 -1.93508 -2.25703 0
M  V30 1319 H 124.661 -1.09216 -1.09139 0
M  V30 1320 H 126.619 -0.24923 -4.09743 0
M  V30 1321 H 125.28 0.386146 -3.11717 0
M  V30 1322 H 124.473 -1.1968 -4.89584 0
M  V30 1323 H 124.075 -1.80862 -3.2736 0
M  V30 1324 H 126.367 -2.14245 -6.42733 0
M  V30 1325 H 127.31 -3.62693 -6.08161 0
M  V30 1326 H 127.718 -2.10302 -5.23864 0
M  V30 1327 N 127.117 1.15442 -1.07289 0
M  V30 1328 C 128.394 1.82306 -0.708792 0
M  V30 1329 C 128.774 1.94991 0.808807 0
M  V30 1330 O 128.122 1.50085 1.72298 0
M  V30 1331 C 128.332 3.18695 -1.42247 0
M  V30 1332 C 129.68 3.94341 -1.57417 0
M  V30 1333 O 130.704 3.28247 -1.38319 0
M  V30 1334 O 129.563 5.12839 -1.88834 0
M  V30 1335 H 126.657 0.787628 -0.252132 0
M  V30 1336 H 129.203 1.22559 -1.17377 0
M  V30 1337 H 127.975 3.04557 -2.45684 0
M  V30 1338 H 127.598 3.86128 -0.948223 0
M  V30 1339 N 128.595 0.856903 1.32268 0
M  V30 1340 C 129.505 0.306131 2.32594 0
M  V30 1341 C 130.521 -0.577209 1.64147 0
M  V30 1342 O 131.697 -0.477043 1.95669 0
M  V30 1343 C 128.762 -0.494561 3.43154 0
M  V30 1344 C 127.823 0.415186 4.27288 0
M  V30 1345 C 127.056 -0.347387 5.32568 0
M  V30 1346 O 127.279 -1.57708 5.48165 0
M  V30 1347 O 126.213 0.287982 6.01211 0
M  V30 1348 H 130.039 1.13737 2.81598 0
M  V30 1349 H 127.624 0.619902 1.35932 0
M  V30 1350 H 129.506 -0.948944 4.10576 0
M  V30 1351 H 128.181 -1.30257 2.96336 0
M  V30 1352 H 127.088 0.917793 3.62667 0
M  V30 1353 H 128.421 1.18844 4.77637 0
M  V30 1354 N 130.073 -1.45103 0.615059 0
M  V30 1355 C 131.303 -2.06254 0.119596 0
M  V30 1356 C 131.711 -1.4591 -1.20445 0
M  V30 1357 O 131.054 -0.570384 -1.7462 0
M  V30 1358 C 131.116 -3.59396 -0.0865591 0
M  V30 1359 C 130.78 -4.42116 1.15683 0
M  V30 1360 C 131.777 -4.7662 2.07676 0
M  V30 1361 C 129.462 -4.82749 1.38775 0
M  V30 1362 C 131.456 -5.50622 3.21082 0
M  V30 1363 C 129.143 -5.56504 2.52481 0
M  V30 1364 C 130.141 -5.90358 3.43463 0
M  V30 1365 O 129.829 -6.62615 4.55189 0
M  V30 1366 H 129.561 -0.672423 0.0694512 0
M  V30 1367 H 132.115 -1.87219 0.844885 0
M  V30 1368 H 130.345 -3.76859 -0.866823 0
M  V30 1369 H 132.034 -4.02365 -0.534555 0
M  V30 1370 H 132.8 -4.4578 1.91063 0
M  V30 1371 H 128.679 -4.55829 0.688545 0
M  V30 1372 H 132.223 -5.76965 3.92119 0
M  V30 1373 H 128.12 -5.86759 2.69043 0
M  V30 1374 H 128.888 -6.81071 4.53966 0
M  V30 1375 N 131.551 -0.354651 -1.53558 0
M  V30 1376 C 132.828 0.294281 -1.93374 0
M  V30 1377 C 133.208 1.67313 -1.28723 0
M  V30 1378 O 132.556 2.24179 -0.442247 0
M  V30 1379 C 132.766 0.355445 -3.47185 0
M  V30 1380 C 134.114 0.601007 -4.20325 0
M  V30 1381 O 135.138 0.437106 -3.53508 0
M  V30 1382 O 133.997 0.919322 -5.38712 0
M  V30 1383 H 131.091 0.174033 -0.808481 0
M  V30 1384 H 133.637 -0.406638 -1.64756 0
M  V30 1385 H 132.409 -0.611729 -3.86489 0
M  V30 1386 H 132.032 1.1027 -3.82003 0
M  V30 1387 N 133.029 1.57378 -0.0835403 0
M  V30 1388 C 133.939 2.16897 0.894021 0
M  V30 1389 C 134.955 1.13528 1.31861 0
M  V30 1390 O 136.131 1.45848 1.3889 0
M  V30 1391 C 133.196 2.72831 2.13925 0
M  V30 1392 C 132.257 3.91115 1.76997 0
M  V30 1393 C 131.49 4.44371 2.95584 0
M  V30 1394 O 131.713 3.96596 4.09961 0
M  V30 1395 O 130.647 5.35549 2.74719 0
M  V30 1396 H 134.473 3.00814 0.417679 0
M  V30 1397 H 132.058 1.48741 0.140181 0
M  V30 1398 H 133.94 3.0863 2.86924 0
M  V30 1399 H 132.615 1.91967 2.60635 0
M  V30 1400 H 131.522 3.60148 1.01214 0
M  V30 1401 H 132.855 4.73307 1.3506 0
M  V30 1402 N 134.507 -0.190092 1.56449 0
M  V30 1403 C 135.784 -0.935886 1.71757 0
M  V30 1404 C 136.164 -2.01173 0.639726 0
M  V30 1405 O 135.512 -2.25827 -0.348502 0
M  V30 1406 C 135.722 -1.51775 3.1427 0
M  V30 1407 C 137.07 -1.99794 3.74656 0
M  V30 1408 O 138.094 -1.61607 3.1743 0
M  V30 1409 O 136.953 -2.70079 4.751 0
M  V30 1410 H 134.047 -0.439229 0.700719 0
M  V30 1411 H 136.593 -0.179395 1.68749 0
M  V30 1412 H 135.365 -0.742505 3.84191 0
M  V30 1413 H 134.988 -2.33894 3.21527 0
M  V30 1414 N 135.985 -1.50799 -0.457987 0
M  V30 1415 C 136.932 -1.70617 -1.5543 0
M  V30 1416 C 137.902 -0.547562 -1.56815 0
M  V30 1417 O 139.087 -0.779647 -1.74144 0
M  V30 1418 C 136.227 -1.81831 -2.93311 0
M  V30 1419 C 135.34 -3.09278 -3.01615 0
M  V30 1420 C 134.475 -3.11209 -4.30491 0
M  V30 1421 C 133.514 -4.33055 -4.32585 0
M  V30 1422 N 132.651 -4.32652 -5.52952 0
M  V30 1423 H 137.491 -2.64207 -1.37836 0
M  V30 1424 H 135.028 -1.30959 -0.669937 0
M  V30 1425 H 136.986 -1.86314 -3.73287 0
M  V30 1426 H 135.616 -0.916685 -3.0951 0
M  V30 1427 H 134.668 -3.14203 -2.1443 0
M  V30 1428 H 135.98 -3.99233 -2.99022 0
M  V30 1429 H 135.134 -3.14494 -5.18824 0
M  V30 1430 H 133.873 -2.19106 -4.35711 0
M  V30 1431 H 132.878 -4.29969 -3.42647 0
M  V30 1432 H 134.103 -5.264 -4.29046 0
M  V30 1433 H 132.049 -3.43409 -5.58933 0
M  V30 1434 H 131.966 -5.16392 -5.52155 0
M  V30 1435 H 133.234 -4.40101 -6.43375 0
M  V30 1436 N 137.463 0.71206 -1.40597 0
M  V30 1437 C 138.411 1.84746 -1.41321 0
M  V30 1438 C 139.405 1.66842 -0.293268 0
M  V30 1439 O 140.611 1.73904 -0.464481 0
M  V30 1440 H 136.986 0.608522 -0.441819 0
M  V30 1441 H 138.957 1.81252 -2.37045 0
M  V30 1442 C 137.706 3.22638 -1.29614 0
M  V30 1443 H 137.029 3.37023 -2.15071 0
M  V30 1444 H 138.469 4.02209 -1.3418 0
M  V30 1445 C 136.928 3.36899 -0.00673121 0
M  V30 1446 O 137.458 3.90186 0.954859 0
M  V30 1447 N 135.664 2.9053 0.0639327 0
M  V30 1448 H 135.211 2.47353 -0.719311 0
M  V30 1449 H 135.169 3.0045 0.926118 0
M  V30 1450 N 138.941 1.26152 0.944643 0
M  V30 1451 C 140.352 1.10454 1.50522 0
M  V30 1452 C 140.703 -0.31635 1.93633 0
M  V30 1453 O 139.828 -1.20746 1.79581 0
M  V30 1454 C 140.423 1.99891 2.73549 0
M  V30 1455 C 138.982 1.88348 3.25886 0
M  V30 1456 C 138.129 1.93447 1.9868 0
M  V30 1457 H 141.08 1.39292 0.760489 0
M  V30 1458 H 141.101 1.54477 3.47732 0
M  V30 1459 H 140.613 3.03297 2.42141 0
M  V30 1460 H 138.714 0.878636 3.62092 0
M  V30 1461 H 138.827 2.73696 3.93227 0
M  V30 1462 H 137.191 1.37456 2.14425 0
M  V30 1463 H 137.974 2.98476 1.69607 0
M  V30 1464 N 140.419 -1.14872 1.07899 0
M  V30 1465 C 141.644 -1.90202 0.826926 0
M  V30 1466 C 142.069 -1.77774 -0.614664 0
M  V30 1467 O 141.427 -1.11431 -1.43013 0
M  V30 1468 C 141.475 -3.38352 1.24702 0
M  V30 1469 O 140.579 -4.10497 0.39575 0
M  V30 1470 H 139.92 -0.591968 0.300782 0
M  V30 1471 H 142.45 -1.45437 1.43907 0
M  V30 1472 H 142.46 -3.89156 1.22563 0
M  V30 1473 H 141.135 -3.46715 2.29698 0
M  V30 1474 H 139.712 -3.69796 0.480117 0
M  V30 1475 N 141.898 -0.863906 -1.31812 0
M  V30 1476 C 143.146 -0.470904 -1.96537 0
M  V30 1477 C 143.467 0.978771 -1.68657 0
M  V30 1478 O 142.737 1.6853 -0.998717 0
M  V30 1479 H 141.317 -0.171148 -0.72713 0
M  V30 1480 H 143.979 -1.10236 -1.60729 0
M  V30 1481 H 143.075 -0.623616 -3.05806 0
M  V30 1482 N 143.376 1.44774 -0.622745 0
M  V30 1483 C 144.625 2.01334 -0.121397 0
M  V30 1484 C 144.938 1.49505 1.26125 0
M  V30 1485 O 146.144 1.98139 1.85616 0
M  V30 1486 C 144.6 3.59516 -0.166298 0
M  V30 1487 C 144.208 4.20342 -1.54974 0
M  V30 1488 C 145.952 4.23582 0.279021 0
M  V30 1489 C 143.859 5.70721 -1.55021 0
M  V30 1490 H 142.789 0.752851 -0.0416172 0
M  V30 1491 H 145.44 1.66083 -0.780309 0
M  V30 1492 H 143.822 3.92027 0.559557 0
M  V30 1493 H 144.996 3.99381 -2.29851 0
M  V30 1494 H 143.311 3.68529 -1.93843 0
M  V30 1495 H 145.908 5.33868 0.298083 0
M  V30 1496 H 146.251 3.95327 1.30471 0
M  V30 1497 H 146.784 3.95843 -0.394063 0
M  V30 1498 H 143.523 6.03698 -2.55399 0
M  V30 1499 H 143.043 5.93829 -0.844245 0
M  V30 1500 H 144.722 6.34203 -1.28047 0
M  V30 1501 N 144.854 0.36279 1.53368 0
M  V30 1502 C 146.103 -0.22888 2.00397 0
M  V30 1503 C 146.416 -1.50096 1.25421 0
M  V30 1504 O 147.622 -2.17106 1.63025 0
M  V30 1505 C 146.078 -0.458417 3.56969 0
M  V30 1506 C 145.686 0.798877 4.4082 0
M  V30 1507 C 147.43 -1.00789 4.12361 0
M  V30 1508 C 145.337 0.539078 5.88938 0
M  V30 1509 H 144.267 -0.089305 0.748693 0
M  V30 1510 H 146.918 0.481099 1.77081 0
M  V30 1511 H 145.3 -1.22959 3.76427 0
M  V30 1512 H 146.474 1.57262 4.33134 0
M  V30 1513 H 144.789 1.27137 3.96516 0
M  V30 1514 H 147.386 -1.21754 5.20653 0
M  V30 1515 H 147.729 -1.9692 3.66781 0
M  V30 1516 H 148.262 -0.296961 3.9669 0
M  V30 1517 H 145.001 1.47064 6.3879 0
M  V30 1518 H 144.521 -0.196222 5.99479 0
M  V30 1519 H 146.2 0.163542 6.46793 0
M  V30 1520 N 146.332 -1.57332 0.0918853 0
M  V30 1521 C 147.28 -2.15075 -0.885747 0
M  V30 1522 C 148.274 -1.09277 -1.29441 0
M  V30 1523 O 149.48 -1.27627 -1.26931 0
M  V30 1524 H 145.855 -0.687966 -0.303656 0
M  V30 1525 H 147.826 -2.96047 -0.373995 0
M  V30 1526 C 146.575 -2.74325 -2.13638 0
M  V30 1527 H 145.898 -3.55418 -1.8308 0
M  V30 1528 H 147.338 -3.183 -2.80109 0
M  V30 1529 C 145.797 -1.70062 -2.90827 0
M  V30 1530 O 146.327 -1.13763 -3.85254 0
M  V30 1531 N 144.533 -1.40628 -2.54307 0
M  V30 1532 H 144.08 -1.866 -1.7759 0
M  V30 1533 H 144.038 -0.711043 -3.06254 0
M  V30 1534 N 147.81 0.181792 -1.56548 0
M  V30 1535 C 148.74 1.22765 -1.98623 0
M  V30 1536 C 149.721 1.46747 -0.860189 0
M  V30 1537 O 150.906 1.58259 -1.12551 0
M  V30 1538 C 148.036 2.56894 -2.33715 0
M  V30 1539 C 146.99 2.475 -3.49182 0
M  V30 1540 C 146.316 3.86023 -3.69986 0
M  V30 1541 C 147.616 1.98866 -4.82959 0
M  V30 1542 H 149.31 0.877942 -2.86239 0
M  V30 1543 H 146.856 0.42088 -1.37712 0
M  V30 1544 H 148.809 3.30253 -2.61746 0
M  V30 1545 H 147.533 2.93632 -1.42997 0
M  V30 1546 H 146.192 1.76596 -3.21262 0
M  V30 1547 H 145.84 4.20136 -2.76576 0
M  V30 1548 H 145.54 3.80609 -4.47672 0
M  V30 1549 H 147.064 4.60984 -4.00407 0
M  V30 1550 H 148.478 2.61992 -5.09934 0
M  V30 1551 H 146.875 2.04424 -5.64208 0
M  V30 1552 H 147.945 0.942465 -4.75653 0
M  V30 1553 N 149.288 1.51039 0.449983 0
M  V30 1554 C 150.536 1.62759 1.19808 0
M  V30 1555 C 150.857 0.339981 1.92013 0
M  V30 1556 O 150.127 -0.643606 1.85026 0
M  V30 1557 H 148.707 0.599811 0.445237 0
M  V30 1558 H 151.369 1.87914 0.517138 0
M  V30 1559 H 150.465 2.44911 1.93455 0
M  V30 1560 N 150.766 -0.704594 1.40972 0
M  V30 1561 C 151.994 -1.49354 1.43182 0
M  V30 1562 C 152.409 -1.88768 0.0345508 0
M  V30 1563 O 151.766 -1.56184 -0.944081 0
M  V30 1564 C 151.817 -2.76187 2.33244 0
M  V30 1565 O 151.538 -2.38436 3.67532 0
M  V30 1566 C 153.039 -3.7 2.44162 0
M  V30 1567 H 150.259 -0.460559 0.487982 0
M  V30 1568 H 152.803 -0.868261 1.85153 0
M  V30 1569 H 150.958 -3.34974 1.94606 0
M  V30 1570 H 151.372 -3.20126 4.15475 0
M  V30 1571 H 152.846 -4.55803 3.11364 0
M  V30 1572 H 153.323 -4.13867 1.47006 0
M  V30 1573 H 153.929 -3.17121 2.83398 0
M  V30 1574 N 152.244 -1.26651 -0.937939 0
M  V30 1575 C 153.469 -1.15279 -1.72411 0
M  V30 1576 C 153.894 0.287866 -1.85884 0
M  V30 1577 O 153.252 1.20855 -1.35143 0
M  V30 1578 C 153.3 -1.83028 -3.10698 0
M  V30 1579 O 152.404 -1.12128 -3.96864 0
M  V30 1580 H 151.745 -0.401504 -0.528858 0
M  V30 1581 H 154.275 -1.67531 -1.1745 0
M  V30 1582 H 154.285 -1.89981 -3.6107 0
M  V30 1583 H 152.96 -2.87833 -3.00208 0
M  V30 1584 H 151.537 -1.13173 -3.55312 0
M  V30 1585 N 153.722 1.14298 -1.08507 0
M  V30 1586 C 154.632 2.23027 -0.727753 0
M  V30 1587 C 155.648 1.71952 0.26619 0
M  V30 1588 O 156.824 2.011 0.109882 0
M  V30 1589 C 153.889 3.46403 -0.143541 0
M  V30 1590 C 152.95 4.12413 -1.19223 0
M  V30 1591 C 152.183 5.29899 -0.635798 0
M  V30 1592 O 152.406 5.67796 0.544393 0
M  V30 1593 O 151.34 5.85717 -1.38634 0
M  V30 1594 H 155.166 2.55945 -1.63481 0
M  V30 1595 H 152.751 1.22248 -0.858817 0
M  V30 1596 H 154.633 4.21018 0.179404 0
M  V30 1597 H 153.308 3.15206 0.736659 0
M  V30 1598 H 152.215 3.39667 -1.56772 0
M  V30 1599 H 153.548 4.47718 -2.04474 0
M  V30 1600 N 155.201 0.870884 1.31352 0
M  V30 1601 C 156.149 0.316445 2.30437 0
M  V30 1602 C 157.143 -0.568965 1.59559 0
M  V30 1603 O 158.349 -0.454964 1.74155 0
M  V30 1604 H 154.724 0.0836521 0.747333 0
M  V30 1605 H 156.695 1.16606 2.74673 0
M  V30 1606 C 155.444 -0.46635 3.44558 0
M  V30 1607 H 154.767 0.205687 3.99271 0
M  V30 1608 H 156.207 -0.819614 4.16003 0
M  V30 1609 C 154.666 -1.65797 2.9328 0
M  V30 1610 O 155.196 -2.75728 2.92125 0
M  V30 1611 N 153.402 -1.49041 2.4947 0
M  V30 1612 H 152.949 -0.59612 2.50608 0
M  V30 1613 H 152.907 -2.28911 2.15516 0
M  V30 1614 N 156.679 -1.44442 0.630414 0
M  V30 1615 C 157.626 -2.30678 -0.0749355 0
M  V30 1616 C 158.596 -1.4344 -0.837502 0
M  V30 1617 O 159.781 -1.72343 -0.818684 0
M  V30 1618 C 156.921 -3.28706 -1.05103 0
M  V30 1619 C 156.034 -4.31046 -0.286954 0
M  V30 1620 C 155.169 -5.16167 -1.2548 0
M  V30 1621 C 154.208 -6.10216 -0.479843 0
M  V30 1622 N 153.345 -6.88039 -1.39811 0
M  V30 1623 H 158.185 -2.90454 0.666386 0
M  V30 1624 H 155.722 -1.43107 0.340404 0
M  V30 1625 H 157.68 -3.84027 -1.63031 0
M  V30 1626 H 156.31 -2.70632 -1.75949 0
M  V30 1627 H 155.362 -3.78203 0.408243 0
M  V30 1628 H 156.674 -4.97794 0.316657 0
M  V30 1629 H 155.828 -5.76002 -1.90544 0
M  V30 1630 H 154.567 -4.49491 -1.89233 0
M  V30 1631 H 153.572 -5.49491 0.184295 0
M  V30 1632 H 154.797 -6.78928 0.152965 0
M  V30 1633 H 152.743 -6.24032 -2.02287 0
M  V30 1634 H 152.66 -7.51223 -0.848508 0
M  V30 1635 H 153.928 -7.52397 -2.03762 0
M  V30 1636 N 158.157 -0.370918 -1.53173 0
M  V30 1637 C 159.087 0.464847 -2.28826 0
M  V30 1638 C 160.068 1.07936 -1.31468 0
M  V30 1639 O 161.253 1.0956 -1.60344 0
M  V30 1640 C 158.383 1.60196 -3.08147 0
M  V30 1641 C 157.337 1.11443 -4.13237 0
M  V30 1642 C 156.663 2.3422 -4.80672 0
M  V30 1643 C 157.963 0.195384 -5.21934 0
M  V30 1644 H 159.657 -0.166329 -2.98938 0
M  V30 1645 H 157.203 -0.0814359 -1.4377 0
M  V30 1646 H 159.156 2.19332 -3.59822 0
M  V30 1647 H 157.88 2.26045 -2.35735 0
M  V30 1648 H 156.539 0.545727 -3.62515 0
M  V30 1649 H 156.187 2.98537 -4.04827 0
M  V30 1650 H 155.887 2.02269 -5.51689 0
M  V30 1651 H 157.411 2.94032 -5.35143 0
M  V30 1652 H 158.825 0.694375 -5.69079 0
M  V30 1653 H 157.222 -0.0335027 -6.00091 0
M  V30 1654 H 158.292 -0.760961 -4.78892 0
M  V30 1655 N 159.635 1.57281 -0.100228 0
M  V30 1656 C 160.875 1.96419 0.56558 0
M  V30 1657 C 161.239 0.981265 1.65031 0
M  V30 1658 O 162.44 1.26133 2.37369 0
M  V30 1659 C 160.711 3.39996 1.10171 0
M  V30 1660 S 162.27 4.01134 1.77867 0
M  V30 1661 H 159.088 0.68667 0.184406 0
M  V30 1662 H 161.69 1.94662 -0.180851 0
M  V30 1663 H 160.394 4.09296 0.300803 0
M  V30 1664 H 159.925 3.45361 1.88385 0
M  V30 1665 H 161.94 3.90358 3.06326 0
M  V30 1666 N 161.113 -0.173488 1.56642 0
M  V30 1667 C 162.36 -0.890465 1.81871 0
M  V30 1668 C 162.688 -1.82339 0.67696 0
M  V30 1669 O 161.943 -1.92795 -0.335926 0
M  V30 1670 C 162.242 -1.72069 3.13252 0
M  V30 1671 C 161.908 -0.936878 4.41059 0
M  V30 1672 C 160.57 -0.720545 4.75775 0
M  V30 1673 C 162.922 -0.386919 5.19762 0
M  V30 1674 C 160.25 0.0568829 5.86672 0
M  V30 1675 C 162.602 0.37741 6.31473 0
M  V30 1676 C 161.266 0.604563 6.64757 0
M  V30 1677 H 160.536 -0.325844 0.665512 0
M  V30 1678 H 163.183 -0.155527 1.90867 0
M  V30 1679 H 161.488 -2.52496 2.99588 0
M  V30 1680 H 163.185 -2.27844 3.29982 0
M  V30 1681 H 159.775 -1.11553 4.13828 0
M  V30 1682 H 163.959 -0.541398 4.93338 0
M  V30 1683 H 159.215 0.242635 6.10918 0
M  V30 1684 H 163.389 0.810825 6.91664 0
M  V30 1685 H 161.016 1.20885 7.50527 0
M  V30 1686 N 162.591 -1.51276 -0.441967 0
M  V30 1687 C 163.868 -1.54252 -1.20273 0
M  V30 1688 C 164.248 -0.30408 -2.08898 0
M  V30 1689 O 163.596 0.711084 -2.17154 0
M  V30 1690 C 163.806 -2.85406 -2.00859 0
M  V30 1691 C 165.154 -3.37181 -2.58059 0
M  V30 1692 O 166.178 -2.86925 -2.11074 0
M  V30 1693 O 165.037 -4.24858 -3.43741 0
M  V30 1694 H 162.131 -0.619969 -0.547328 0
M  V30 1695 H 164.677 -1.63586 -0.451413 0
M  V30 1696 H 163.449 -3.67003 -1.35736 0
M  V30 1697 H 163.072 -2.79213 -2.83065 0
M  V30 1698 N 164.069 0.697108 -1.41344 0
M  V30 1699 C 164.999 1.82353 -1.45841 0
M  V30 1700 C 165.98 1.67115 -0.317247 0
M  V30 1701 O 167.165 1.86871 -0.528474 0
M  V30 1702 C 164.295 3.20476 -1.33838 0
M  V30 1703 C 163.249 3.50415 -2.4575 0
M  V30 1704 C 162.575 4.87878 -2.18813 0
M  V30 1705 C 163.875 3.49546 -3.88091 0
M  V30 1706 H 165.569 1.78846 -2.40113 0
M  V30 1707 H 163.115 0.859028 -1.15571 0
M  V30 1708 H 165.068 3.98988 -1.35596 0
M  V30 1709 H 163.792 3.24604 -0.360498 0
M  V30 1710 H 162.451 2.74253 -2.43271 0
M  V30 1711 H 162.099 4.8863 -1.19371 0
M  V30 1712 H 161.799 5.08875 -2.93803 0
M  V30 1713 H 163.323 5.68702 -2.22284 0
M  V30 1714 H 164.737 4.18066 -3.92293 0
M  V30 1715 H 163.134 3.82075 -4.62751 0
M  V30 1716 H 164.204 2.48552 -4.16353 0
M  V30 1717 N 165.547 1.27147 0.931209 0
M  V30 1718 C 166.477 1.12081 2.04842 0
M  V30 1719 C 167.458 0.0232364 1.70084 0
M  V30 1720 O 168.643 0.197085 1.93197 0
M  V30 1721 C 165.773 0.76354 3.38803 0
M  V30 1722 C 164.727 1.81396 3.87659 0
M  V30 1723 C 164.053 1.31075 5.18385 0
M  V30 1724 C 165.353 3.21739 4.11438 0
M  V30 1725 H 167.047 2.05537 2.17703 0
M  V30 1726 H 164.593 0.989603 1.04608 0
M  V30 1727 H 166.546 0.644982 4.16435 0
M  V30 1728 H 165.27 -0.206727 3.25945 0
M  V30 1729 H 163.929 1.92136 3.12217 0
M  V30 1730 H 163.577 0.330037 5.01916 0
M  V30 1731 H 163.277 2.013 5.52044 0
M  V30 1732 H 164.801 1.20506 5.98591 0
M  V30 1733 H 166.215 3.14019 4.79651 0
M  V30 1734 H 164.612 3.89644 4.56397 0
M  V30 1735 H 165.682 3.67054 3.16859 0
M  V30 1736 N 167.025 -1.13721 1.09112 0
M  V30 1737 C 168.25 -1.89314 0.847053 0
M  V30 1738 C 168.675 -1.78416 -0.595774 0
M  V30 1739 O 168.033 -1.12942 -1.41823 0
M  V30 1740 C 168.081 -3.3701 1.28284 0
M  V30 1741 O 167.185 -4.10054 0.439267 0
M  V30 1742 H 166.526 -0.588745 0.307044 0
M  V30 1743 H 169.056 -1.43902 1.45442 0
M  V30 1744 H 169.066 -3.87834 1.26683 0
M  V30 1745 H 167.741 -3.4426 2.33363 0
M  V30 1746 H 166.318 -3.69266 0.519312 0
M  V30 1747 N 168.503 -0.877838 -1.30888 0
M  V30 1748 C 169.749 -0.502773 -1.97088 0
M  V30 1749 C 170.104 0.936274 -1.68082 0
M  V30 1750 O 169.397 1.65162 -0.971196 0
M  V30 1751 C 169.591 -0.705748 -3.50363 0
M  V30 1752 C 169.42 -2.16297 -3.94266 0
M  V30 1753 C 168.19 -2.80614 -4.20219 0
M  V30 1754 C 170.388 -3.13606 -4.07622 0
M  V30 1755 N 168.37 -4.17007 -4.50532 0
M  V30 1756 C 169.741 -4.35051 -4.41736 0
M  V30 1757 C 171.796 -3.09491 -3.90026 0
M  V30 1758 C 170.499 -5.52911 -4.60089 0
M  V30 1759 C 172.525 -4.26616 -4.09576 0
M  V30 1760 C 171.887 -5.46825 -4.44029 0
M  V30 1761 H 167.986 -0.233168 -0.746429 0
M  V30 1762 H 170.57 -1.13408 -1.58261 0
M  V30 1763 H 168.741 -0.103976 -3.88261 0
M  V30 1764 H 170.473 -0.298291 -4.03599 0
M  V30 1765 H 167.228 -2.3152 -4.13153 0
M  V30 1766 H 167.652 -4.87426 -4.69834 0
M  V30 1767 H 172.294 -2.17657 -3.62471 0
M  V30 1768 H 170.012 -6.45255 -4.86489 0
M  V30 1769 H 173.598 -4.24894 -3.97438 0
M  V30 1770 H 172.478 -6.35947 -4.58848 0
M  V30 1771 N 169.982 1.44106 -0.638065 0
M  V30 1772 C 171.398 1.56672 -0.304286 0
M  V30 1773 C 171.598 1.6244 1.19228 0
M  V30 1774 O 170.654 1.57121 1.9766 0
M  V30 1775 C 171.967 2.83503 -1.00231 0
M  V30 1776 C 173.515 2.97226 -0.981116 0
M  V30 1777 C 173.99 4.26868 -1.65974 0
M  V30 1778 N 175.481 4.33698 -1.62666 0
M  V30 1779 C 176.216 5.32745 -2.12063 0
M  V30 1780 N 175.712 6.38157 -2.6968 0
M  V30 1781 N 177.505 5.24299 -2.02651 0
M  V30 1782 H 169.656 1.38605 -1.60942 0
M  V30 1783 H 171.919 0.664661 -0.675965 0
M  V30 1784 H 171.625 2.85251 -2.0573 0
M  V30 1785 H 171.499 3.73251 -0.54439 0
M  V30 1786 H 173.886 2.95027 0.0654188 0
M  V30 1787 H 173.967 2.08808 -1.47759 0
M  V30 1788 H 173.611 4.29826 -2.70576 0
M  V30 1789 H 173.541 5.14156 -1.13804 0
M  V30 1790 H 176.032 3.58138 -1.20606 0
M  V30 1791 H 176.345 7.10029 -3.05087 0
M  V30 1792 H 174.69 6.38823 -2.73734 0
M  V30 1793 H 177.881 4.4086 -1.57353 0
M  V30 1794 H 178.054 6.01334 -2.41457 0
M  V30 1795 N 171.46 0.379036 1.52974 0
M  V30 1796 C 172.39 -0.452706 2.29069 0
M  V30 1797 C 173.371 -1.07237 1.32039 0
M  V30 1798 O 174.556 -1.08708 1.60923 0
M  V30 1799 C 171.686 -1.5856 3.08992 0
M  V30 1800 C 170.64 -1.0925 4.13822 0
M  V30 1801 C 169.966 -2.31668 4.81907 0
M  V30 1802 C 171.266 -0.167702 5.22031 0
M  V30 1803 H 172.96 0.182181 2.98845 0
M  V30 1804 H 170.506 0.0890592 1.43724 0
M  V30 1805 H 172.459 -2.1742 3.6098 0
M  V30 1806 H 171.183 -2.24792 2.36931 0
M  V30 1807 H 169.842 -0.526494 3.628 0
M  V30 1808 H 169.49 -2.96386 4.06404 0
M  V30 1809 H 169.19 -1.9934 5.52754 0
M  V30 1810 H 170.714 -2.91189 5.36695 0
M  V30 1811 H 172.128 -0.664186 5.6944 0
M  V30 1812 H 170.525 0.0653265 6.00064 0
M  V30 1813 H 171.595 0.786347 4.78482 0
M  V30 1814 N 172.938 -1.57226 0.108567 0
M  V30 1815 C 174.163 -1.99604 -0.563303 0
M  V30 1816 C 174.588 -0.987563 -1.6009 0
M  V30 1817 O 173.946 0.0421687 -1.81251 0
M  V30 1818 C 173.994 -3.40902 -1.17552 0
M  V30 1819 O 173.098 -3.42896 -2.2912 0
M  V30 1820 H 172.439 -0.648704 -0.1417 0
M  V30 1821 H 174.969 -2.03679 0.193961 0
M  V30 1822 H 174.979 -3.78886 -1.51357 0
M  V30 1823 H 173.654 -4.1382 -0.415445 0
M  V30 1824 H 172.231 -3.1672 -1.96832 0
M  V30 1825 N 174.416 0.165178 -1.56732 0
M  V30 1826 C 175.348 1.22911 -1.93457 0
M  V30 1827 C 176.361 1.40152 -0.828333 0
M  V30 1828 O 177.55 1.40046 -1.10677 0
M  V30 1829 C 174.65 2.59686 -2.17753 0
M  V30 1830 C 173.823 2.63663 -3.48999 0
M  V30 1831 C 172.882 3.81845 -3.62051 0
M  V30 1832 O 171.908 3.67559 -4.34613 0
M  V30 1833 N 173.11 4.98557 -2.97357 0
M  V30 1834 H 175.875 0.917118 -2.85323 0
M  V30 1835 H 173.436 0.354895 -1.57962 0
M  V30 1836 H 175.428 3.37225 -2.23743 0
M  V30 1837 H 173.998 2.83251 -1.32242 0
M  V30 1838 H 173.218 1.72173 -3.54612 0
M  V30 1839 H 174.506 2.63336 -4.35352 0
M  V30 1840 H 173.904 5.13065 -2.38287 0
M  V30 1841 H 172.461 5.73936 -3.08934 0
M  V30 1842 N 175.894 1.51508 0.433938 0
M  V30 1843 C 177.31 1.39759 0.770682 0
M  V30 1844 C 177.51 0.482594 1.95636 0
M  V30 1845 O 176.566 -0.0609691 2.52426 0
M  V30 1846 C 177.879 2.81851 1.04787 0
M  V30 1847 C 179.427 2.91025 1.1521 0
M  V30 1848 C 179.902 4.34032 1.46219 0
M  V30 1849 N 181.393 4.37154 1.53136 0
M  V30 1850 C 182.128 5.4484 1.78709 0
M  V30 1851 N 181.624 6.62682 2.02051 0
M  V30 1852 N 183.417 5.32324 1.80519 0
M  V30 1853 H 175.568 2.09548 -0.346892 0
M  V30 1854 H 177.831 0.943446 -0.0928074 0
M  V30 1855 H 177.537 3.50815 0.249304 0
M  V30 1856 H 177.411 3.21386 1.97461 0
M  V30 1857 H 179.798 2.22257 1.94128 0
M  V30 1858 H 179.879 2.54983 0.204281 0
M  V30 1859 H 179.523 5.03351 0.678274 0
M  V30 1860 H 179.453 4.6759 2.42212 0
M  V30 1861 H 181.944 3.52197 1.36987 0
M  V30 1862 H 182.257 7.40543 2.20943 0
M  V30 1863 H 180.602 6.65791 1.99366 0
M  V30 1864 H 183.793 4.39246 1.61805 0
M  V30 1865 H 183.966 6.16328 2.00111 0
M  V30 1866 N 177.372 -0.689602 1.41712 0
M  V30 1867 C 178.649 -1.44457 1.31877 0
M  V30 1868 C 179.029 -2.11039 -0.0508537 0
M  V30 1869 O 178.377 -2.02138 -1.06547 0
M  V30 1870 C 178.587 -2.45913 2.47645 0
M  V30 1871 C 179.935 -3.10991 2.89084 0
M  V30 1872 O 180.959 -2.56238 2.47428 0
M  V30 1873 O 179.818 -4.10174 3.61137 0
M  V30 1874 H 176.912 -0.64362 0.519309 0
M  V30 1875 H 179.458 -0.719576 1.53689 0
M  V30 1876 H 178.23 -1.95409 3.39015 0
M  V30 1877 H 177.853 -3.25913 2.27742 0
M  V30 1878 N 178.85 -1.27639 -0.924453 0
M  V30 1879 C 179.783 -1.04966 -2.02626 0
M  V30 1880 C 180.761 0.0309505 -1.62571 0
M  V30 1881 O 181.945 -0.114846 -1.8815 0
M  V30 1882 C 179.072 -0.59292 -3.3347 0
M  V30 1883 C 178.118 -1.66858 -3.92506 0
M  V30 1884 S 178.951 -3.2619 -4.24689 0
M  V30 1885 C 180.107 -2.82325 -5.58609 0
M  V30 1886 H 180.34 -1.98252 -2.21547 0
M  V30 1887 H 177.873 -1.11506 -1.06798 0
M  V30 1888 H 179.831 -0.336086 -4.09122 0
M  V30 1889 H 178.492 0.319939 -3.12466 0
M  V30 1890 H 177.685 -1.30038 -4.86935 0
M  V30 1891 H 177.287 -1.87766 -3.2345 0
M  V30 1892 H 179.579 -2.2783 -6.38044 0
M  V30 1893 H 180.522 -3.75511 -6.00331 0
M  V30 1894 H 180.93 -2.21367 -5.19285 0
M  V30 1895 N 180.328 1.1314 -1.09713 0
M  V30 1896 C 181.26 2.18343 -0.697056 0
M  V30 1897 C 182.273 1.60669 0.262551 0
M  V30 1898 O 183.462 1.78435 0.0481527 0
M  V30 1899 C 180.562 3.38899 -0.00684728 0
M  V30 1900 C 179.735 4.26078 -0.988741 0
M  V30 1901 C 178.794 5.25155 -0.331394 0
M  V30 1902 O 177.82 5.60701 -0.979926 0
M  V30 1903 N 179.022 5.73271 0.913261 0
M  V30 1904 H 181.787 2.5328 -1.60216 0
M  V30 1905 H 179.348 1.28491 -0.984971 0
M  V30 1906 H 181.34 4.02255 0.444191 0
M  V30 1907 H 179.91 3.02175 0.800551 0
M  V30 1908 H 179.13 3.59453 -1.61826 0
M  V30 1909 H 180.418 4.81178 -1.65364 0
M  V30 1910 H 179.816 5.46544 1.45966 0
M  V30 1911 H 178.373 6.3855 1.30757 0
M  V30 1912 N 181.806 0.884767 1.30421 0
M  V30 1913 C 183.222 0.57874 1.48737 0
M  V30 1914 C 183.422 -0.883567 1.81095 0
M  V30 1915 O 182.478 -1.6648 1.89844 0
M  V30 1916 C 183.791 1.49171 2.61091 0
M  V30 1917 C 185.339 1.49532 2.74971 0
M  V30 1918 C 185.814 2.39421 3.90438 0
M  V30 1919 N 187.305 2.37383 3.97748 0
M  V30 1920 C 188.04 3.03647 4.86401 0
M  V30 1921 N 187.536 3.79136 5.79852 0
M  V30 1922 N 189.329 2.9288 4.79768 0
M  V30 1923 H 181.48 1.83075 1.0769 0
M  V30 1924 H 183.743 0.783637 0.533495 0
M  V30 1925 H 183.449 2.53291 2.44001 0
M  V30 1926 H 183.323 1.20113 3.57565 0
M  V30 1927 H 185.71 0.46163 2.91467 0
M  V30 1928 H 185.791 1.8262 1.79119 0
M  V30 1929 H 185.435 3.42874 3.74699 0
M  V30 1930 H 185.365 2.03649 4.85628 0
M  V30 1931 H 187.856 1.82525 3.30897 0
M  V30 1932 H 188.169 4.26789 6.4426 0
M  V30 1933 H 186.514 3.83243 5.79784 0
M  V30 1934 H 189.705 2.33433 4.05742 0
M  V30 1935 H 189.878 3.448 5.4865 0
M  V30 1936 N 183.284 -1.43765 0.645699 0
M  V30 1937 C 184.53 -2.02197 0.156271 0
M  V30 1938 C 184.863 -1.50776 -1.22393 0
M  V30 1939 O 184.138 -0.697771 -1.81553 0
M  V30 1940 C 184.421 -3.59749 0.158872 0
M  V30 1941 C 184.274 -4.21419 1.57245 0
M  V30 1942 C 185.593 -4.37149 -0.50879 0
M  V30 1943 H 182.712 -0.734694 0.0582602 0
M  V30 1944 H 185.354 -1.71157 0.824951 0
M  V30 1945 H 183.504 -3.86325 -0.410525 0
M  V30 1946 H 185.176 -4.059 2.19186 0
M  V30 1947 H 183.419 -3.78356 2.122 0
M  V30 1948 H 184.09 -5.30482 1.52619 0
M  V30 1949 H 186.566 -4.16093 -0.024412 0
M  V30 1950 H 185.442 -5.4683 -0.476213 0
M  V30 1951 H 185.703 -4.12839 -1.58165 0
M  V30 1952 N 184.763 -0.387143 -1.52771 0
M  V30 1953 C 185.673 0.456442 -2.30117 0
M  V30 1954 C 186.689 1.07342 -1.36944 0
M  V30 1955 O 187.865 1.07971 -1.70013 0
M  V30 1956 C 184.93 1.56957 -3.09136 0
M  V30 1957 C 183.991 0.977916 -4.18014 0
M  V30 1958 C 183.224 2.038 -4.93256 0
M  V30 1959 O 183.447 3.25271 -4.68567 0
M  V30 1960 O 182.381 1.6565 -5.78657 0
M  V30 1961 H 186.207 -0.17359 -3.03203 0
M  V30 1962 H 183.792 -0.150919 -1.48636 0
M  V30 1963 H 185.674 2.21628 -3.58412 0
M  V30 1964 H 184.349 2.18461 -2.38865 0
M  V30 1965 H 183.256 0.294525 -3.72939 0
M  V30 1966 H 184.589 0.407128 -4.90513 0
M  V30 1967 N 186.241 1.57166 -0.116904 0
M  V30 1968 C 187.652 1.82169 0.408809 0
M  V30 1969 C 188.003 1.03393 1.66746 0
M  V30 1970 O 187.128 0.269886 2.1471 0
M  V30 1971 C 187.723 3.30429 0.748466 0
M  V30 1972 C 186.282 3.5612 1.21882 0
M  V30 1973 C 185.429 2.76374 0.226452 0
M  V30 1974 H 188.38 1.5497 -0.342063 0
M  V30 1975 H 188.401 3.44943 1.60607 0
M  V30 1976 H 187.913 3.87737 -0.167784 0
M  V30 1977 H 186.014 3.04168 2.15204 0
M  V30 1978 H 186.127 4.64705 1.16559 0
M  V30 1979 H 184.491 2.44515 0.713063 0
M  V30 1980 H 185.274 3.3644 -0.682859 0
M  V30 1981 N 187.719 -0.156864 1.56817 0
M  V30 1982 C 188.944 -0.890331 1.87318 0
M  V30 1983 C 189.369 -1.74394 0.704855 0
M  V30 1984 O 188.727 -1.77972 -0.345786 0
M  V30 1985 C 188.775 -1.73102 3.16336 0
M  V30 1986 O 187.879 -2.83422 2.99576 0
M  V30 1987 H 187.22 -0.24857 0.615718 0
M  V30 1988 H 189.75 -0.150649 2.04045 0
M  V30 1989 H 189.76 -2.12803 3.48107 0
M  V30 1990 H 188.435 -1.10412 4.00976 0
M  V30 1991 H 187.012 -2.47199 2.7919 0
M  V30 1992 N 189.197 -1.51736 -0.425897 0
M  V30 1993 C 190.127 -1.76827 -1.52494 0
M  V30 1994 C 191.108 -0.618524 -1.58456 0
M  V30 1995 O 192.293 -0.862416 -1.74 0
M  V30 1996 C 189.423 -1.90374 -2.90474 0
M  V30 1997 C 188.377 -3.0588 -2.99369 0
M  V30 1998 C 187.703 -3.04625 -4.3944 0
M  V30 1999 C 189.003 -4.45644 -2.72394 0
M  V30 2000 H 190.697 -2.68855 -1.31748 0
M  V30 2001 H 188.243 -1.29372 -0.632362 0
M  V30 2002 H 190.196 -2.0651 -3.6733 0
M  V30 2003 H 188.92 -0.95004 -3.12477 0
M  V30 2004 H 187.579 -2.89467 -2.24954 0
M  V30 2005 H 187.227 -2.0701 -4.58428 0
M  V30 2006 H 186.927 -3.82195 -4.46319 0
M  V30 2007 H 188.451 -3.22869 -5.18255 0
M  V30 2008 H 189.865 -4.62348 -3.38979 0
M  V30 2009 H 188.262 -5.25006 -2.9067 0
M  V30 2010 H 189.332 -4.54893 -1.67929 0
M  V30 2011 N 190.675 0.682077 -1.42076 0
M  V30 2012 C 191.605 1.80796 -1.47767 0
M  V30 2013 C 192.586 1.6677 -0.334954 0
M  V30 2014 O 193.771 1.863 -0.548264 0
M  V30 2015 C 190.901 3.19038 -1.37229 0
M  V30 2016 C 189.855 3.47789 -2.49453 0
M  V30 2017 C 189.181 4.8553 -2.23975 0
M  V30 2018 C 190.481 3.45411 -3.91776 0
M  V30 2019 H 192.175 1.7629 -2.41997 0
M  V30 2020 H 189.721 0.846721 -1.16476 0
M  V30 2021 H 191.674 3.97528 -1.39821 0
M  V30 2022 H 190.398 3.24204 -0.394907 0
M  V30 2023 H 189.057 2.71657 -2.46166 0
M  V30 2024 H 188.705 4.87337 -1.24547 0
M  V30 2025 H 188.405 5.0573 -2.99184 0
M  V30 2026 H 189.929 5.66312 -2.28304 0
M  V30 2027 H 191.343 4.13882 -3.96705 0
M  V30 2028 H 189.74 3.77145 -4.66778 0
M  V30 2029 H 190.81 2.44122 -4.18966 0
M  V30 2030 N 192.153 1.28127 0.917671 0
M  V30 2031 C 193.085 1.07517 2.02417 0
M  V30 2032 C 194.098 0.0281099 1.62776 0
M  V30 2033 O 195.287 0.270748 1.76435 0
M  V30 2034 C 192.387 0.610957 3.33347 0
M  V30 2035 C 191.56 1.73255 4.01624 0
M  V30 2036 C 190.619 1.26238 5.10833 0
M  V30 2037 O 189.645 1.96389 5.34247 0
M  V30 2038 N 190.847 0.123448 5.80369 0
M  V30 2039 H 193.612 2.02806 2.20658 0
M  V30 2040 H 191.173 1.19827 1.08871 0
M  V30 2041 H 193.165 0.280101 4.0373 0
M  V30 2042 H 191.735 -0.24898 3.11607 0
M  V30 2043 H 190.955 2.23319 3.24842 0
M  V30 2044 H 192.243 2.48503 4.43986 0
M  V30 2045 H 191.641 -0.461847 5.63812 0
M  V30 2046 H 190.198 -0.148158 6.51632 0
M  V30 2047 N 193.631 -1.12557 1.10312 0
M  V30 2048 C 194.861 -1.87592 0.865617 0
M  V30 2049 C 195.269 -1.79851 -0.587389 0
M  V30 2050 O 194.612 -1.16949 -1.41664 0
M  V30 2051 C 194.674 -3.37665 1.23381 0
M  V30 2052 C 194.338 -3.69181 2.69359 0
M  V30 2053 C 195.335 -3.67652 3.67597 0
M  V30 2054 C 193.02 -3.98555 3.05711 0
M  V30 2055 C 195.014 -3.95053 5.00212 0
M  V30 2056 C 192.701 -4.25616 4.38514 0
M  V30 2057 C 193.699 -4.23851 5.35574 0
M  V30 2058 O 193.387 -4.50242 6.65986 0
M  V30 2059 H 193.119 -0.600442 0.310557 0
M  V30 2060 H 195.673 -1.4335 1.47105 0
M  V30 2061 H 193.903 -3.82454 0.571467 0
M  V30 2062 H 195.592 -3.94041 0.973994 0
M  V30 2063 H 196.358 -3.45024 3.40857 0
M  V30 2064 H 192.237 -3.99071 2.30789 0
M  V30 2065 H 195.781 -3.93591 5.75962 0
M  V30 2066 H 191.678 -4.47718 4.64994 0
M  V30 2067 H 192.446 -4.67867 6.71597 0
M  V30 2068 N 195.109 -0.891671 -1.2995 0
M  V30 2069 C 196.072 -0.36828 -2.26222 0
M  V30 2070 C 197.072 0.493014 -1.53056 0
M  V30 2071 O 198.262 0.299213 -1.71611 0
M  V30 2072 C 195.394 0.47442 -3.37583 0
M  V30 2073 H 196.587 -1.21844 -2.74033 0
M  V30 2074 H 194.14 -0.669107 -1.41254 0
M  V30 2075 H 194.875 1.34489 -2.95099 0
M  V30 2076 H 194.66 -0.142615 -3.91841 0
M  V30 2077 H 196.15 0.83218 -4.09224 0
M  V30 2078 N 196.587 1.43421 -0.653314 0
M  V30 2079 C 197.864 1.95361 -0.0966581 0
M  V30 2080 C 198.244 1.59461 1.38331 0
M  V30 2081 O 197.592 0.879777 2.10884 0
M  V30 2082 C 197.802 3.47311 -0.342988 0
M  V30 2083 C 199.15 4.23875 -0.24798 0
M  V30 2084 O 200.174 3.55133 -0.275553 0
M  V30 2085 O 199.033 5.4623 -0.171771 0
M  V30 2086 H 196.127 0.826945 0.00956291 0
M  V30 2087 H 198.673 1.5336 -0.726558 0
M  V30 2088 H 197.445 3.66569 -1.36906 0
M  V30 2089 H 197.068 3.9631 0.319975 0
M  V30 2090 N 198.065 0.39524 1.52563 0
M  V30 2091 C 199.311 -0.177763 2.02622 0
M  V30 2092 C 199.666 -1.43974 1.27629 0
M  V30 2093 O 198.959 -1.87995 0.36992 0
M  V30 2094 C 199.153 -0.493444 3.53977 0
M  V30 2095 C 198.982 0.736392 4.4363 0
M  V30 2096 C 197.752 1.25744 4.89404 0
M  V30 2097 C 199.95 1.61046 4.88435 0
M  V30 2098 N 197.932 2.44421 5.63145 0
M  V30 2099 C 199.303 2.64359 5.60816 0
M  V30 2100 C 201.358 1.62985 4.70468 0
M  V30 2101 C 200.061 3.69505 6.17137 0
M  V30 2102 C 202.087 2.67042 5.27677 0
M  V30 2103 C 201.449 3.69077 5.99968 0
M  V30 2104 H 197.548 -0.0269794 0.781534 0
M  V30 2105 H 200.132 0.546466 1.86874 0
M  V30 2106 H 198.303 -1.18672 3.69826 0
M  V30 2107 H 200.035 -1.05412 3.90731 0
M  V30 2108 H 196.79 0.817546 4.6649 0
M  V30 2109 H 197.214 3.04485 6.04663 0
M  V30 2110 H 201.856 0.854442 4.14076 0
M  V30 2111 H 199.574 4.4791 6.72608 0
M  V30 2112 H 203.16 2.69433 5.15652 0
M  V30 2113 H 202.04 4.48273 6.43444 0
M  V30 2114 N 199.544 -1.57102 0.125237 0
M  V30 2115 C 200.96 -1.57915 -0.231322 0
M  V30 2116 C 201.16 -1.13833 -1.66266 0
M  V30 2117 O 200.216 -0.828581 -2.38518 0
M  V30 2118 C 201.529 -3.00699 0.00766489 0
M  V30 2119 C 203.077 -3.12947 -0.0577483 0
M  V30 2120 C 203.552 -4.57742 0.153626 0
M  V30 2121 N 205.043 -4.63092 0.0998073 0
M  V30 2122 C 205.778 -5.72905 0.238174 0
M  V30 2123 N 205.274 -6.91445 0.433057 0
M  V30 2124 N 207.067 -5.6182 0.177308 0
M  V30 2125 H 199.218 -1.84055 1.06007 0
M  V30 2126 H 201.481 -0.850905 0.417929 0
M  V30 2127 H 201.187 -3.3726 0.997431 0
M  V30 2128 H 201.061 -3.70236 -0.721452 0
M  V30 2129 H 203.448 -2.7624 -1.03804 0
M  V30 2130 H 203.529 -2.4594 0.70335 0
M  V30 2131 H 203.173 -4.95149 1.13092 0
M  V30 2132 H 203.103 -5.22848 -0.627534 0
M  V30 2133 H 205.594 -3.77871 -0.047051 0
M  V30 2134 H 205.907 -7.70985 0.529332 0
M  V30 2135 H 204.252 -6.93415 0.469109 0
M  V30 2136 H 207.443 -4.68093 0.0259748 0
M  V30 2137 H 207.616 -6.47357 0.288582 0
M  V30 2138 N 201.022 0.148545 -1.56898 0
M  V30 2139 C 202.27 0.859717 -1.82902 0
M  V30 2140 C 202.591 1.81775 -0.70588 0
M  V30 2141 O 201.861 1.93994 0.272586 0
M  V30 2142 H 200.441 0.320469 -0.674766 0
M  V30 2143 H 203.103 0.142918 -1.94375 0
M  V30 2144 H 202.199 1.4229 -2.77777 0
M  V30 2145 N 202.5 1.5196 0.417844 0
M  V30 2146 C 203.45 1.7106 1.5074 0
M  V30 2147 C 204.434 0.564487 1.50673 0
M  V30 2148 O 205.626 0.821206 1.56797 0
M  V30 2149 C 202.755 1.85677 2.88754 0
M  V30 2150 C 201.841 3.06133 2.93502 0
M  V30 2151 N 202.232 4.28987 2.67962 0
M  V30 2152 C 200.53 3.05787 3.24669 0
M  V30 2153 C 201.231 5.10395 2.79055 0
M  V30 2154 N 200.207 4.45455 3.11561 0
M  V30 2155 H 204.009 2.63696 1.29775 0
M  V30 2156 H 201.523 1.49873 0.625436 0
M  V30 2157 H 203.52 1.97475 3.67164 0
M  V30 2158 H 202.18 0.942348 3.10725 0
M  V30 2159 H 203.191 4.57607 2.4252 0
M  V30 2160 H 199.868 2.2405 3.52289 0
M  V30 2161 H 201.258 6.18247 2.63097 0
M  V30 2162 N 203.978 -0.674533 1.42435 0
M  V30 2163 C 204.908 -1.80009 1.48724 0
M  V30 2164 C 205.889 -1.6659 0.343793 0
M  V30 2165 O 207.074 -1.86007 0.558137 0
M  V30 2166 C 204.204 -3.18306 1.38919 0
M  V30 2167 C 203.158 -3.46461 2.51294 0
M  V30 2168 C 202.484 -4.84335 2.26547 0
M  V30 2169 C 203.784 -3.43328 3.93603 0
M  V30 2170 H 205.478 -1.75004 2.42928 0
M  V30 2171 H 203.024 -0.840533 1.16923 0
M  V30 2172 H 204.977 -3.9678 1.41927 0
M  V30 2173 H 203.701 -3.2399 0.412094 0
M  V30 2174 H 202.36 -2.70348 2.47604 0
M  V30 2175 H 202.008 -4.86669 1.2713 0
M  V30 2176 H 201.708 -5.04136 3.01861 0
M  V30 2177 H 203.232 -5.65094 2.31304 0
M  V30 2178 H 204.646 -4.11772 3.98894 0
M  V30 2179 H 203.043 -3.74664 4.68771 0
M  V30 2180 H 204.113 -2.41897 4.20255 0
M  V30 2181 N 205.456 -1.28612 -0.910864 0
M  V30 2182 C 206.703 -1.15934 -1.66029 0
M  V30 2183 C 207.031 0.291483 -1.92303 0
M  V30 2184 O 206.286 1.22816 -1.52364 0
M  V30 2185 C 206.585 -1.90624 -3.0232 0
M  V30 2186 C 206.251 -3.40405 -2.95695 0
M  V30 2187 C 204.913 -3.81255 -2.93595 0
M  V30 2188 C 207.265 -4.359 -2.85728 0
M  V30 2189 C 204.593 -5.15936 -2.79334 0
M  V30 2190 C 206.945 -5.70657 -2.73007 0
M  V30 2191 C 205.609 -6.10779 -2.69267 0
M  V30 2192 H 204.879 -0.424234 -0.607541 0
M  V30 2193 H 207.526 -1.5942 -1.06101 0
M  V30 2194 H 205.831 -1.39696 -3.6605 0
M  V30 2195 H 207.528 -1.78228 -3.59215 0
M  V30 2196 H 204.118 -3.07927 -2.98125 0
M  V30 2197 H 208.302 -4.053 -2.86436 0
M  V30 2198 H 203.558 -5.46146 -2.74835 0
M  V30 2199 H 207.732 -6.44311 -2.64264 0
M  V30 2200 H 205.359 -7.1509 -2.57974 0
M  V30 2201 N 206.934 1.1197 -1.10907 0
M  V30 2202 C 207.864 2.19928 -0.784473 0
M  V30 2203 C 208.845 1.6833 0.244726 0
M  V30 2204 O 210.03 1.93892 0.109418 0
M  V30 2205 C 207.16 3.46597 -0.220827 0
M  V30 2206 C 206.114 4.11376 -1.18127 0
M  V30 2207 C 205.44 5.32554 -0.478594 0
M  V30 2208 C 206.74 4.56945 -2.52979 0
M  V30 2209 H 208.434 2.47337 -1.68715 0
M  V30 2210 H 205.98 1.18879 -0.812642 0
M  V30 2211 H 207.933 4.21396 0.0184278 0
M  V30 2212 H 206.657 3.1863 0.717113 0
M  V30 2213 H 205.316 3.38564 -1.40606 0
M  V30 2214 H 204.964 5.00856 0.463976 0
M  V30 2215 H 204.664 5.76844 -1.11912 0
M  V30 2216 H 206.188 6.10096 -0.248 0
M  V30 2217 H 207.602 5.23093 -2.3462 0
M  V30 2218 H 205.999 5.1203 -3.12962 0
M  V30 2219 H 207.069 3.70676 -3.12614 0
M  V30 2220 N 208.412 0.89855 1.29475 0
M  V30 2221 C 209.828 0.594483 1.48115 0
M  V30 2222 C 210.028 -0.86431 1.82022 0
M  V30 2223 O 209.084 -1.64457 1.91599 0
M  V30 2224 C 210.397 1.51932 2.59494 0
M  V30 2225 C 211.945 1.5244 2.7337 0
M  V30 2226 C 212.42 2.43548 3.87877 0
M  V30 2227 N 213.911 2.41589 3.95208 0
M  V30 2228 C 214.646 3.08789 4.83153 0
M  V30 2229 N 214.142 3.85265 5.75798 0
M  V30 2230 N 215.935 2.97952 4.76635 0
M  V30 2231 H 208.086 1.84207 1.05742 0
M  V30 2232 H 210.349 0.789251 0.525154 0
M  V30 2233 H 210.055 2.55865 2.41301 0
M  V30 2234 H 209.929 1.23899 3.56271 0
M  V30 2235 H 212.316 0.492518 2.90961 0
M  V30 2236 H 212.397 1.8451 1.77172 0
M  V30 2237 H 212.041 3.46829 3.71041 0
M  V30 2238 H 211.971 2.08788 4.83441 0
M  V30 2239 H 214.462 1.86025 3.28943 0
M  V30 2240 H 214.775 4.33598 6.39697 0
M  V30 2241 H 213.12 3.89371 5.75687 0
M  V30 2242 H 216.311 2.37723 4.03244 0
M  V30 2243 H 216.484 3.50599 5.44962 0
M  V30 2244 N 209.89 -1.43072 0.660911 0
M  V30 2245 C 210.8 -2.34585 -0.0264163 0
M  V30 2246 C 211.816 -1.54316 -0.803898 0
M  V30 2247 O 212.992 -1.86939 -0.749391 0
M  V30 2248 C 210.057 -3.32689 -0.975639 0
M  V30 2249 C 209.118 -4.2886 -0.194236 0
M  V30 2250 C 208.351 -5.22278 -1.09825 0
M  V30 2251 O 208.574 -5.20299 -2.33763 0
M  V30 2252 O 207.508 -5.99228 -0.566513 0
M  V30 2253 H 211.334 -2.94869 0.727034 0
M  V30 2254 H 208.919 -1.43342 0.42111 0
M  V30 2255 H 210.801 -3.92995 -1.52094 0
M  V30 2256 H 209.476 -2.74898 -1.70918 0
M  V30 2257 H 208.383 -3.72011 0.394835 0
M  V30 2258 H 209.716 -4.89655 0.499899 0
M  V30 2259 N 211.368 -0.403325 -1.52352 0
M  V30 2260 C 212.278 0.432009 -2.30588 0
M  V30 2261 C 213.294 1.05884 -1.38075 0
M  V30 2262 O 214.47 1.06161 -1.71148 0
M  V30 2263 C 211.535 1.53669 -3.10784 0
M  V30 2264 C 210.596 0.933525 -4.19027 0
M  V30 2265 C 209.829 1.98557 -4.9539 0
M  V30 2266 O 210.052 3.20283 -4.71991 0
M  V30 2267 O 208.986 1.59504 -5.80381 0
M  V30 2268 H 212.812 -0.205739 -3.03002 0
M  V30 2269 H 210.397 -0.166675 -1.48467 0
M  V30 2270 H 212.279 2.17814 -3.60742 0
M  V30 2271 H 210.954 2.15915 -2.41169 0
M  V30 2272 H 209.861 0.254954 -3.7323 0
M  V30 2273 H 211.194 0.35508 -4.90918 0
M  V30 2274 N 212.846 1.57033 -0.133567 0
M  V30 2275 C 214.092 1.95976 0.521649 0
M  V30 2276 C 214.425 1.01779 1.65393 0
M  V30 2277 O 213.7 0.0576581 1.94415 0
M  V30 2278 C 213.983 3.44738 1.04057 0
M  V30 2279 C 213.836 4.49711 -0.0892897 0
M  V30 2280 C 215.155 3.95682 1.92675 0
M  V30 2281 H 212.274 0.712579 0.188149 0
M  V30 2282 H 214.916 1.88813 -0.212076 0
M  V30 2283 H 213.066 3.50973 1.66583 0
M  V30 2284 H 214.738 4.55565 -0.725152 0
M  V30 2285 H 212.981 4.27261 -0.750378 0
M  V30 2286 H 213.652 5.51099 0.315284 0
M  V30 2287 H 216.128 3.91841 1.39998 0
M  V30 2288 H 215.004 5.00262 2.25897 0
M  V30 2289 H 215.265 3.37239 2.85872 0
M  V30 2290 N 214.325 -0.140222 1.56975 0
M  V30 2291 C 215.288 -1.15689 1.97861 0
M  V30 2292 C 216.288 -1.3549 0.865974 0
M  V30 2293 O 217.478 -1.32367 1.13246 0
M  V30 2294 C 214.61 -2.51582 2.30042 0
M  V30 2295 H 215.803 -0.805971 2.88867 0
M  V30 2296 H 213.356 -0.383801 1.51515 0
M  V30 2297 H 214.091 -2.91632 1.41849 0
M  V30 2298 H 213.876 -2.38569 3.11171 0
M  V30 2299 H 215.366 -3.24792 2.62488 0
M  V30 2300 N 215.803 -1.52179 -0.40978 0
M  V30 2301 C 216.75 -1.75475 -1.49924 0
M  V30 2302 C 217.72 -0.597175 -1.54994 0
M  V30 2303 O 218.905 -0.834655 -1.71575 0
M  V30 2304 C 216.045 -1.9107 -2.87378 0
M  V30 2305 C 215.158 -3.18717 -2.91622 0
M  V30 2306 C 214.293 -3.24747 -4.20372 0
M  V30 2307 C 213.332 -4.46598 -4.18588 0
M  V30 2308 N 212.469 -4.50025 -5.38908 0
M  V30 2309 H 217.309 -2.68458 -1.29361 0
M  V30 2310 H 214.846 -1.33024 -0.627934 0
M  V30 2311 H 216.804 -1.98096 -3.6717 0
M  V30 2312 H 215.434 -1.01469 -3.06437 0
M  V30 2313 H 214.486 -3.20866 -2.04326 0
M  V30 2314 H 215.798 -4.08544 -2.86169 0
M  V30 2315 H 214.952 -3.30841 -5.08556 0
M  V30 2316 H 213.691 -2.32857 -4.28519 0
M  V30 2317 H 212.696 -4.40652 -3.28794 0
M  V30 2318 H 213.921 -5.39783 -4.12081 0
M  V30 2319 H 211.867 -3.61017 -5.47725 0
M  V30 2320 H 211.784 -5.33697 -5.35447 0
M  V30 2321 H 213.052 -4.60347 -6.29048 0
M  V30 2322 N 217.281 0.66697 -1.42791 0
M  V30 2323 C 218.528 1.42699 -1.43678 0
M  V30 2324 C 218.856 1.94419 -0.0560425 0
M  V30 2325 O 218.111 1.7182 0.936831 0
M  V30 2326 C 218.41 2.6349 -2.4147 0
M  V30 2327 C 218.076 2.30267 -3.8767 0
M  V30 2328 C 216.738 2.20918 -4.27491 0
M  V30 2329 C 219.09 2.03435 -4.79858 0
M  V30 2330 C 216.418 1.82873 -5.57471 0
M  V30 2331 C 218.77 1.66892 -6.10188 0
M  V30 2332 C 217.434 1.56058 -6.49001 0
M  V30 2333 H 216.704 0.522171 -0.525755 0
M  V30 2334 H 219.351 0.759785 -1.75783 0
M  V30 2335 H 217.656 3.35279 -2.0272 0
M  V30 2336 H 219.353 3.21684 -2.39417 0
M  V30 2337 H 215.943 2.38449 -3.56146 0
M  V30 2338 H 220.127 2.09586 -4.49875 0
M  V30 2339 H 215.383 1.7306 -5.86396 0
M  V30 2340 H 219.557 1.45157 -6.81104 0
M  V30 2341 H 217.184 1.26348 -7.49627 0
M  V30 2342 N 218.759 1.29093 0.90403 0
M  V30 2343 C 219.689 1.16401 2.02418 0
M  V30 2344 C 220.67 0.0593085 1.69997 0
M  V30 2345 O 221.855 0.238021 1.92736 0
M  V30 2346 C 218.985 0.835233 3.37107 0
M  V30 2347 C 217.939 1.89578 3.83724 0
M  V30 2348 C 217.265 1.42041 5.15489 0
M  V30 2349 C 218.565 3.30394 4.04521 0
M  V30 2350 H 220.259 2.10109 2.13295 0
M  V30 2351 H 217.805 1.01157 1.02486 0
M  V30 2352 H 219.758 0.733169 4.14973 0
M  V30 2353 H 218.482 -0.137543 3.2631 0
M  V30 2354 H 217.141 1.98715 3.08071 0
M  V30 2355 H 216.789 0.436426 5.01103 0
M  V30 2356 H 216.489 2.12964 5.4765 0
M  V30 2357 H 218.013 1.33176 5.959 0
M  V30 2358 H 219.427 3.24123 4.72882 0
M  V30 2359 H 217.824 3.99237 4.48029 0
M  V30 2360 H 218.894 3.73692 3.09002 0
M  V30 2361 N 220.237 -1.11381 1.11499 0
M  V30 2362 C 221.462 -1.87475 0.887019 0
M  V30 2363 C 221.887 -1.79639 -0.557796 0
M  V30 2364 O 221.245 -1.15924 -1.39396 0
M  V30 2365 C 221.293 -3.34213 1.35403 0
M  V30 2366 O 220.397 -4.0903 0.526146 0
M  V30 2367 H 219.738 -0.582099 0.319463 0
M  V30 2368 H 222.268 -1.40785 1.48461 0
M  V30 2369 H 222.278 -3.8506 1.34881 0
M  V30 2370 H 220.953 -3.39232 2.40612 0
M  V30 2371 H 219.53 -3.68082 0.597522 0
M  V30 2372 N 221.715 -0.905404 -1.28997 0
M  V30 2373 C 222.962 -0.534248 -1.95325 0
M  V30 2374 C 223.29 0.920535 -1.71337 0
M  V30 2375 O 222.545 1.66861 -1.02254 0
M  V30 2376 C 222.844 -0.779906 -3.48787 0
M  V30 2377 C 222.51 -2.21293 -3.92861 0
M  V30 2378 C 221.172 -2.60475 -4.04606 0
M  V30 2379 C 223.524 -3.14587 -4.15553 0
M  V30 2380 C 220.852 -3.9212 -4.36416 0
M  V30 2381 C 223.204 -4.45787 -4.48839 0
M  V30 2382 C 221.868 -4.84834 -4.58794 0
M  V30 2383 H 221.138 -0.195495 -0.714747 0
M  V30 2384 H 223.785 -1.14514 -1.53488 0
M  V30 2385 H 222.09 -0.0861365 -3.91705 0
M  V30 2386 H 223.787 -0.472029 -3.98212 0
M  V30 2387 H 220.377 -1.89887 -3.84241 0
M  V30 2388 H 224.561 -2.85528 -4.0594 0
M  V30 2389 H 219.817 -4.22086 -4.42327 0
M  V30 2390 H 223.991 -5.18098 -4.65346 0
M  V30 2391 H 221.618 -5.86877 -4.83197 0
M  V30 2392 N 223.193 1.4272 -0.668489 0
M  V30 2393 C 224.423 2.05668 -0.196063 0
M  V30 2394 C 224.831 1.5028 1.14946 0
M  V30 2395 O 224.174 0.6348 1.72383 0
M  V30 2396 C 224.236 3.59469 -0.0468879 0
M  V30 2397 C 223.9 4.37518 -1.32012 0
M  V30 2398 C 224.897 4.68584 -2.25222 0
M  V30 2399 C 222.582 4.77266 -1.56596 0
M  V30 2400 C 224.576 5.38326 -3.41297 0
M  V30 2401 C 222.263 5.4675 -2.72962 0
M  V30 2402 C 223.261 5.77204 -3.65137 0
M  V30 2403 O 222.949 6.45264 -4.79468 0
M  V30 2404 H 222.681 0.669382 -0.0943599 0
M  V30 2405 H 225.235 1.83954 -0.913788 0
M  V30 2406 H 223.465 3.79817 0.726357 0
M  V30 2407 H 225.154 4.04071 0.384852 0
M  V30 2408 H 225.92 4.38382 -2.07477 0
M  V30 2409 H 221.799 4.52959 -0.857249 0
M  V30 2410 H 225.343 5.62014 -4.13263 0
M  V30 2411 H 221.24 5.76369 -2.90635 0
M  V30 2412 H 222.008 6.63753 -4.78931 0
M  V30 2413 N 224.671 0.411399 1.52136 0
M  V30 2414 C 225.911 -0.163143 2.03748 0
M  V30 2415 C 226.275 -1.42187 1.29022 0
M  V30 2416 O 227.476 -2.075 1.70872 0
M  V30 2417 C 225.747 -0.402651 3.55125 0
M  V30 2418 S 227.306 -0.944315 4.28519 0
M  V30 2419 H 224.124 -0.0439833 0.709638 0
M  V30 2420 H 226.726 0.56484 1.87163 0
M  V30 2421 H 225.43 0.520212 4.0709 0
M  V30 2422 H 224.961 -1.15844 3.75957 0
M  V30 2423 H 226.976 -2.22463 4.43536 0
M  V30 2424 N 226.149 -1.5696 0.141893 0
M  V30 2425 C 227.096 -2.16501 -0.799737 0
M  V30 2426 C 228.066 -1.09643 -1.24771 0
M  V30 2427 O 229.251 -1.3766 -1.32115 0
M  V30 2428 C 226.391 -2.78679 -2.03549 0
M  V30 2429 C 225.504 -3.99914 -1.6338 0
M  V30 2430 C 224.639 -4.50106 -2.82096 0
M  V30 2431 C 223.678 -5.63819 -2.38275 0
M  V30 2432 N 222.815 -6.08651 -3.49983 0
M  V30 2433 H 227.655 -2.96632 -0.285179 0
M  V30 2434 H 225.192 -1.46533 -0.129053 0
M  V30 2435 H 227.15 -3.1287 -2.75986 0
M  V30 2436 H 225.78 -2.012 -2.52425 0
M  V30 2437 H 224.832 -3.71735 -0.807279 0
M  V30 2438 H 226.144 -4.82311 -1.27192 0
M  V30 2439 H 225.298 -4.86325 -3.62729 0
M  V30 2440 H 224.037 -3.66706 -3.21525 0
M  V30 2441 H 223.042 -5.2718 -1.56081 0
M  V30 2442 H 224.267 -6.49 -1.99938 0
M  V30 2443 H 222.213 -5.28188 -3.89042 0
M  V30 2444 H 222.13 -6.85961 -3.17794 0
M  V30 2445 H 223.398 -6.49515 -4.30988 0
M  V30 2446 N 227.627 0.131896 -1.57047 0
M  V30 2447 C 228.852 0.860418 -1.8871 0
M  V30 2448 C 229.277 1.73251 -0.73251 0
M  V30 2449 O 228.635 1.785 0.317429 0
M  V30 2450 C 228.683 1.68047 -3.19049 0
M  V30 2451 O 227.787 2.7862 -3.04047 0
M  V30 2452 H 227.128 0.238743 -0.619595 0
M  V30 2453 H 229.658 0.118169 -2.04258 0
M  V30 2454 H 229.668 2.07238 -3.51449 0
M  V30 2455 H 228.343 1.04018 -4.02682 0
M  V30 2456 H 226.92 2.42726 -2.83088 0
M  V30 2457 N 229.106 1.52395 0.401703 0
M  V30 2458 C 230.517 1.58899 0.980202 0
M  V30 2459 C 230.868 0.434032 1.91339 0
M  V30 2460 O 229.993 -0.444619 2.11783 0
M  V30 2461 C 230.588 2.87994 1.78451 0
M  V30 2462 C 229.147 2.96953 2.31292 0
M  V30 2463 C 228.294 2.53903 1.11483 0
M  V30 2464 H 231.245 1.57657 0.18168 0
M  V30 2465 H 231.266 2.73765 2.64259 0
M  V30 2466 H 230.778 3.72035 1.10506 0
M  V30 2467 H 228.879 2.17422 3.02586 0
M  V30 2468 H 228.992 4.01344 2.61649 0
M  V30 2469 H 227.356 2.07925 1.47104 0
M  V30 2470 H 228.139 3.40326 0.450928 0
M  V30 2471 N 230.584 -0.659388 1.43143 0
M  V30 2472 C 231.83 -1.42145 1.44647 0
M  V30 2473 C 232.163 -1.9408 0.0681907 0
M  V30 2474 O 231.438 -1.71899 -0.910007 0
M  V30 2475 C 231.721 -2.60735 2.48373 0
M  V30 2476 C 231.574 -2.14332 3.95451 0
M  V30 2477 C 232.893 -3.62951 2.48906 0
M  V30 2478 H 230.012 -0.51552 0.526696 0
M  V30 2479 H 232.654 -0.748069 1.74654 0
M  V30 2480 H 230.804 -3.18184 2.22916 0
M  V30 2481 H 232.476 -1.61932 4.31944 0
M  V30 2482 H 230.719 -1.4576 4.08578 0
M  V30 2483 H 231.39 -2.99583 4.63631 0
M  V30 2484 H 233.866 -3.1525 2.71582 0
M  V30 2485 H 232.742 -4.43487 3.23435 0
M  V30 2486 H 233.003 -4.15126 1.52061 0
M  V30 2487 N 232.062 -1.29571 -0.897171 0
M  V30 2488 C 233.473 -1.15964 -1.46319 0
M  V30 2489 C 233.824 0.244267 -1.94674 0
M  V30 2490 O 232.949 1.13998 -1.83939 0
M  V30 2491 C 233.544 -2.09906 -2.65942 0
M  V30 2492 C 232.103 -2.00314 -3.18671 0
M  V30 2493 C 231.25 -2.00687 -1.91363 0
M  V30 2494 H 234.201 -1.42019 -0.708268 0
M  V30 2495 H 234.222 -1.67276 -3.41759 0
M  V30 2496 H 233.734 -3.12075 -2.30718 0
M  V30 2497 H 231.835 -1.01242 -3.58582 0
M  V30 2498 H 231.948 -2.88102 -3.82798 0
M  V30 2499 H 230.312 -1.45319 -2.09175 0
M  V30 2500 H 231.095 -3.04566 -1.58413 0
M  V30 2501 N 233.54 1.10788 -1.12088 0
M  V30 2502 C 234.47 2.19083 -0.807755 0
M  V30 2503 C 235.451 1.6858 0.226859 0
M  V30 2504 O 236.636 1.93997 0.0888475 0
M  V30 2505 C 233.766 3.46344 -0.257576 0
M  V30 2506 C 232.72 4.101 -1.22483 0
M  V30 2507 C 232.046 5.32016 -0.535052 0
M  V30 2508 C 233.346 4.54236 -2.57811 0
M  V30 2509 H 235.04 2.45534 -1.71328 0
M  V30 2510 H 232.586 1.1801 -0.825205 0
M  V30 2511 H 234.539 4.21392 -0.0262679 0
M  V30 2512 H 233.263 3.19373 0.683278 0
M  V30 2513 H 231.922 3.37054 -1.44189 0
M  V30 2514 H 231.57 5.01319 0.410827 0
M  V30 2515 H 231.27 5.75625 -1.18024 0
M  V30 2516 H 232.794 6.09799 -0.312695 0
M  V30 2517 H 234.208 5.20575 -2.40155 0
M  V30 2518 H 232.605 5.08682 -3.18375 0
M  V30 2519 H 233.675 3.6734 -3.16528 0
M  V30 2520 N 235.018 0.912232 1.28515 0
M  V30 2521 C 236.434 0.610159 1.47476 0
M  V30 2522 C 236.634 -0.844955 1.82928 0
M  V30 2523 O 235.69 -1.62416 1.93332 0
M  V30 2524 C 237.003 1.54675 2.57868 0
M  V30 2525 C 238.551 1.55331 2.71738 0
M  V30 2526 C 239.026 2.47649 3.85272 0
M  V30 2527 N 240.517 2.45767 3.92623 0
M  V30 2528 C 241.252 3.13896 4.79851 0
M  V30 2529 N 240.748 3.9135 5.71679 0
M  V30 2530 N 242.541 3.02991 4.73448 0
M  V30 2531 H 234.692 1.85318 1.03783 0
M  V30 2532 H 236.955 0.794777 0.516753 0
M  V30 2533 H 236.661 2.5841 2.38574 0
M  V30 2534 H 236.535 1.27671 3.54937 0
M  V30 2535 H 238.922 0.52335 2.90422 0
M  V30 2536 H 239.003 1.86378 1.75205 0
M  V30 2537 H 238.647 3.50745 3.67342 0
M  V30 2538 H 238.577 2.13904 4.81199 0
M  V30 2539 H 241.068 1.89503 3.26951 0
M  V30 2540 H 241.381 4.40359 6.35062 0
M  V30 2541 H 239.726 3.95455 5.71524 0
M  V30 2542 H 242.917 2.41987 4.007 0
M  V30 2543 H 243.09 3.5636 5.41213 0
M  V30 2544 N 236.496 -1.42363 0.676048 0
M  V30 2545 C 237.907 -1.84649 0.275948 0
M  V30 2546 C 238.258 -1.56588 -1.18214 0
M  V30 2547 O 237.383 -1.02634 -1.90513 0
M  V30 2548 C 237.978 -3.35178 0.494053 0
M  V30 2549 C 236.537 -3.76109 0.148061 0
M  V30 2550 C 235.684 -2.65931 0.785891 0
M  V30 2551 H 238.635 -1.32192 0.878121 0
M  V30 2552 H 238.656 -3.79655 -0.25343 0
M  V30 2553 H 238.168 -3.55571 1.55535 0
M  V30 2554 H 236.269 -3.61323 -0.909742 0
M  V30 2555 H 236.382 -4.7546 0.589454 0
M  V30 2556 H 234.746 -2.53773 0.217113 0
M  V30 2557 H 235.529 -2.89146 1.85067 0
M  V30 2558 N 237.974 -0.419461 -1.51915 0
M  V30 2559 C 238.884 0.407528 -2.31033 0
M  V30 2560 C 239.9 1.04413 -1.3919 0
M  V30 2561 O 241.076 1.0434 -1.72265 0
M  V30 2562 C 238.141 1.50365 -3.12396 0
M  V30 2563 C 237.202 0.889029 -4.19994 0
M  V30 2564 C 236.435 1.93291 -4.97468 0
M  V30 2565 O 236.658 3.15259 -4.75361 0
M  V30 2566 O 235.592 1.53339 -5.8204 0
M  V30 2567 H 239.418 -0.237865 -3.02767 0
M  V30 2568 H 237.003 -0.182413 -1.48282 0
M  V30 2569 H 238.885 2.13975 -3.63032 0
M  V30 2570 H 237.56 2.13345 -2.43445 0
M  V30 2571 H 236.467 0.215353 -3.7348 0
M  V30 2572 H 237.8 0.302991 -4.91267 0
M  V30 2573 N 239.452 1.56882 -0.150215 0
M  V30 2574 C 240.4 2.18214 0.805313 0
M  V30 2575 C 241.394 1.14006 1.25296 0
M  V30 2576 O 242.6 1.3225 1.22107 0
M  V30 2577 H 238.975 0.698762 0.277913 0
M  V30 2578 H 240.946 2.97231 0.263862 0
M  V30 2579 C 239.695 2.82065 2.03309 0
M  V30 2580 H 239.018 3.61968 1.69763 0
M  V30 2581 H 240.458 3.28477 2.68103 0
M  V30 2582 C 238.917 1.80739 2.84315 0
M  V30 2583 O 239.447 1.27983 3.80767 0
M  V30 2584 N 237.653 1.4997 2.48913 0
M  V30 2585 H 237.2 1.93062 1.70542 0
M  V30 2586 H 237.158 0.824217 3.03404 0
M  V30 2587 N 240.93 -0.123565 1.57115 0
M  V30 2588 C 242.176 -0.833386 1.84885 0
M  V30 2589 C 242.509 -1.79742 0.735292 0
M  V30 2590 O 241.784 -1.92764 -0.25925 0
M  V30 2591 C 242.067 -1.5873 3.23228 0
M  V30 2592 C 241.92 -0.643183 4.45178 0
M  V30 2593 C 243.239 -2.54453 3.59085 0
M  V30 2594 H 240.358 -0.301518 0.6725 0
M  V30 2595 H 243 -0.097778 1.89748 0
M  V30 2596 H 241.15 -2.21438 3.19214 0
M  V30 2597 H 242.822 -0.0253015 4.61293 0
M  V30 2598 H 241.065 0.0456139 4.33776 0
M  V30 2599 H 241.736 -1.20724 5.38637 0
M  V30 2600 H 244.212 -2.01853 3.63861 0
M  V30 2601 H 243.088 -3.04238 4.5687 0
M  V30 2602 H 243.349 -3.36906 2.86264 0
M  V30 2603 N 242.408 -1.52605 -0.393616 0
M  V30 2604 C 243.654 -1.67672 -1.14079 0
M  V30 2605 C 243.987 -0.413121 -1.89755 0
M  V30 2606 O 243.262 0.588952 -1.85369 0
M  V30 2607 C 243.545 -2.9088 -2.12276 0
M  V30 2608 C 243.398 -4.27329 -1.40394 0
M  V30 2609 C 244.717 -3.09628 -3.12759 0
M  V30 2610 H 241.836 -0.610168 -0.413356 0
M  V30 2611 H 244.478 -1.85193 -0.424696 0
M  V30 2612 H 242.628 -2.76073 -2.73342 0
M  V30 2613 H 244.3 -4.53894 -0.82327 0
M  V30 2614 H 242.543 -4.2802 -0.705801 0
M  V30 2615 H 243.214 -5.09615 -2.12123 0
M  V30 2616 H 245.69 -3.23436 -2.61779 0
M  V30 2617 H 244.566 -3.97322 -3.78717 0
M  V30 2618 H 244.827 -2.23637 -3.81365 0
M  V30 2619 N 243.887 0.651787 -1.4349 0
M  V30 2620 C 245.133 1.41376 -1.45398 0
M  V30 2621 C 245.466 1.94041 -0.0784823 0
M  V30 2622 O 244.741 1.72379 0.900878 0
M  V30 2623 C 245.024 2.59414 -2.49752 0
M  V30 2624 C 244.877 2.12232 -3.96582 0
M  V30 2625 C 246.196 3.61626 -2.50827 0
M  V30 2626 H 243.315 0.512719 -0.529422 0
M  V30 2627 H 245.957 0.738796 -1.75048 0
M  V30 2628 H 244.107 3.16997 -2.246 0
M  V30 2629 H 245.779 1.59639 -4.32797 0
M  V30 2630 H 244.022 1.43592 -4.09346 0
M  V30 2631 H 244.693 2.9712 -4.65214 0
M  V30 2632 H 247.169 3.13805 -2.7325 0
M  V30 2633 H 246.045 4.41766 -3.25783 0
M  V30 2634 H 246.306 4.14314 -1.5426 0
M  V30 2635 N 245.365 1.30045 0.890287 0
M  V30 2636 C 246.295 1.18541 2.01172 0
M  V30 2637 C 247.276 0.0773356 1.69924 0
M  V30 2638 O 248.461 0.25845 1.92473 0
M  V30 2639 C 245.591 0.870941 3.36202 0
M  V30 2640 C 244.545 1.93637 3.81692 0
M  V30 2641 C 243.871 1.475 5.13953 0
M  V30 2642 C 245.171 3.34666 4.00994 0
M  V30 2643 H 246.865 2.12359 2.11054 0
M  V30 2644 H 244.411 1.02238 1.01407 0
M  V30 2645 H 246.364 0.777141 4.14172 0
M  V30 2646 H 245.088 -0.102926 3.26438 0
M  V30 2647 H 243.747 2.01972 3.05946 0
M  V30 2648 H 243.395 0.489551 5.00612 0
M  V30 2649 H 243.095 2.1876 5.4536 0
M  V30 2650 H 244.619 1.39489 5.94454 0
M  V30 2651 H 246.033 3.2912 4.69417 0
M  V30 2652 H 244.43 4.03966 4.43769 0
M  V30 2653 H 245.5 3.76949 3.05021 0
M  V30 2654 N 246.843 -1.10192 1.12674 0
M  V30 2655 C 247.791 -2.18694 0.792196 0
M  V30 2656 C 248.785 -1.67938 -0.222058 0
M  V30 2657 O 249.991 -1.79822 -0.0800074 0
M  V30 2658 H 246.366 -0.713223 0.238364 0
M  V30 2659 H 248.337 -2.44149 1.71564 0
M  V30 2660 C 247.086 -3.46682 0.265859 0
M  V30 2661 H 246.409 -3.86101 1.03761 0
M  V30 2662 H 247.849 -4.23942 0.0701128 0
M  V30 2663 C 246.308 -3.21506 -1.00675 0
M  V30 2664 O 246.838 -3.43408 -2.08408 0
M  V30 2665 N 245.044 -2.75158 -0.934692 0
M  V30 2666 H 244.591 -2.57535 -0.0578604 0
M  V30 2667 H 244.549 -2.58691 -1.7868 0
M  V30 2668 N 248.321 -0.919034 -1.28029 0
M  V30 2669 C 249.569 -0.553838 -1.94363 0
M  V30 2670 C 249.89 0.906357 -1.72656 0
M  V30 2671 O 249.16 1.64143 -1.0693 0
M  V30 2672 H 247.74 -0.201834 -0.719216 0
M  V30 2673 H 250.402 -1.16954 -1.55909 0
M  V30 2674 H 249.498 -0.752758 -3.02886 0
M  V30 2675 N 249.799 1.42003 -0.683588 0
M  V30 2676 C 251.047 2.01015 -0.209101 0
M  V30 2677 C 251.368 1.54365 1.19149 0
M  V30 2678 O 250.638 0.769083 1.80172 0
M  V30 2679 H 249.218 0.743294 -0.074315 0
M  V30 2680 H 251.88 1.73798 -0.882066 0
M  V30 2681 H 250.976 3.11343 -0.2172 0
M  V30 2682 N 251.277 0.427512 1.51691 0
M  V30 2683 C 252.24 -0.377132 2.26076 0
M  V30 2684 C 253.24 -0.958089 1.29141 0
M  V30 2685 O 254.43 -0.83408 1.52934 0
M  V30 2686 C 251.562 -1.53262 3.04506 0
M  V30 2687 H 252.755 0.27464 2.9864 0
M  V30 2688 H 250.308 0.180445 1.55255 0
M  V30 2689 H 251.043 -2.22072 2.36335 0
M  V30 2690 H 250.828 -1.12232 3.75694 0
M  V30 2691 H 252.318 -2.10135 3.60878 0
M  V30 2692 N 252.755 -1.56801 0.158532 0
M  V30 2693 C 253.98 -2.01295 -0.499516 0
M  V30 2694 C 254.405 -1.03799 -1.56867 0
M  V30 2695 O 253.763 -0.0155162 -1.81293 0
M  V30 2696 C 253.811 -3.44469 -1.06647 0
M  V30 2697 O 252.915 -3.50012 -2.18095 0
M  V30 2698 H 252.256 -0.652884 -0.12099 0
M  V30 2699 H 254.786 -2.02958 0.258661 0
M  V30 2700 H 254.796 -3.8351 -1.39227 0
M  V30 2701 H 253.471 -4.14932 -0.283581 0
M  V30 2702 H 252.048 -3.22822 -1.86656 0
M  V30 2703 N 254.233 0.115231 -1.57178 0
M  V30 2704 C 255.163 1.1423 -2.03651 0
M  V30 2705 C 256.144 1.42967 -0.921655 0
M  V30 2706 O 257.329 1.53343 -1.19162 0
M  V30 2707 C 254.459 2.4675 -2.44401 0
M  V30 2708 C 253.413 2.32467 -3.59365 0
M  V30 2709 C 252.739 3.69984 -3.86026 0
M  V30 2710 C 254.039 1.78203 -4.90959 0
M  V30 2711 H 255.733 0.755749 -2.89705 0
M  V30 2712 H 253.279 0.362093 -1.39373 0
M  V30 2713 H 255.232 3.18854 -2.75517 0
M  V30 2714 H 253.956 2.87302 -1.55322 0
M  V30 2715 H 252.615 1.62811 -3.28463 0
M  V30 2716 H 252.263 4.08028 -2.94147 0
M  V30 2717 H 251.963 3.61279 -4.63412 0
M  V30 2718 H 253.487 4.43587 -4.19599 0
M  V30 2719 H 254.901 2.40128 -5.20587 0
M  V30 2720 H 253.298 1.8031 -5.72371 0
M  V30 2721 H 254.368 0.739876 -4.79222 0
M  V30 2722 N 255.711 1.52812 0.385517 0
M  V30 2723 C 256.958 1.68026 1.1302 0
M  V30 2724 C 257.286 0.421934 1.89868 0
M  V30 2725 O 256.541 -0.595749 1.86412 0
M  V30 2726 C 256.84 2.86856 2.13187 0
M  V30 2727 C 256.506 4.24159 1.5297 0
M  V30 2728 C 255.168 4.61501 1.36274 0
M  V30 2729 C 257.52 5.09627 1.09223 0
M  V30 2730 C 254.848 5.81966 0.743837 0
M  V30 2731 C 257.2 6.30719 0.487411 0
M  V30 2732 C 255.864 6.6679 0.307777 0
M  V30 2733 H 255.134 0.614849 0.413571 0
M  V30 2734 H 257.781 1.86962 0.414405 0
M  V30 2735 H 256.086 2.6235 2.90998 0
M  V30 2736 H 257.783 2.95821 2.70722 0
M  V30 2737 H 254.373 3.94746 1.66954 0
M  V30 2738 H 258.557 4.81343 1.20922 0
M  V30 2739 H 253.813 6.08519 0.592891 0
M  V30 2740 H 257.987 6.96259 0.140143 0
M  V30 2741 H 255.614 7.60001 -0.173879 0
M  V30 2742 N 257.189 -0.644168 1.43834 0
M  V30 2743 C 258.414 -1.43642 1.49605 0
M  V30 2744 C 258.839 -1.8773 0.117913 0
M  V30 2745 O 258.197 -1.57938 -0.890239 0
M  V30 2746 C 258.245 -2.6416 2.45463 0
M  V30 2747 O 257.349 -3.63538 1.94714 0
M  V30 2748 H 256.69 -0.430329 0.50568 0
M  V30 2749 H 259.22 -0.787448 1.8884 0
M  V30 2750 H 259.23 -3.11864 2.63068 0
M  V30 2751 H 257.905 -2.31414 3.45572 0
M  V30 2752 H 256.482 -3.2273 1.86814 0
M  V30 2753 N 258.668 -1.30515 -0.883378 0
M  V30 2754 C 259.631 -1.1701 -1.97082 0
M  V30 2755 C 260.631 -0.10089 -1.60483 0
M  V30 2756 O 261.821 -0.349127 -1.70666 0
M  V30 2757 C 258.953 -0.793045 -3.31547 0
M  V30 2758 H 260.146 -2.13622 -2.10489 0
M  V30 2759 H 257.699 -1.13935 -1.06998 0
M  V30 2760 H 258.434 0.172499 -3.23841 0
M  V30 2761 H 258.219 -1.56576 -3.5948 0
M  V30 2762 H 259.709 -0.722073 -4.1131 0
M  V30 2763 N 260.146 1.09593 -1.13257 0
M  V30 2764 C 261.076 2.18214 -0.830946 0
M  V30 2765 C 262.057 1.68812 0.208966 0
M  V30 2766 O 263.242 1.9408 0.0682666 0
M  V30 2767 C 260.372 3.46051 -0.294296 0
M  V30 2768 C 259.326 4.08778 -1.26826 0
M  V30 2769 C 258.652 5.31419 -0.591449 0
M  V30 2770 C 259.952 4.51476 -2.62615 0
M  V30 2771 H 261.646 2.43703 -1.73923 0
M  V30 2772 H 259.192 1.17128 -0.837675 0
M  V30 2773 H 261.145 4.2134 -0.0709606 0
M  V30 2774 H 259.869 3.20079 0.649366 0
M  V30 2775 H 258.528 3.35505 -1.47756 0
M  V30 2776 H 258.176 5.01727 0.357633 0
M  V30 2777 H 257.876 5.74341 -1.24123 0
M  V30 2778 H 259.4 6.09433 -0.377355 0
M  V30 2779 H 260.814 5.17999 -2.45663 0
M  V30 2780 H 259.211 5.05277 -3.23752 0
M  V30 2781 H 260.281 3.63962 -3.20406 0
M  V30 2782 N 261.624 0.925811 1.2754 0
M  V30 2783 C 262.587 0.428129 2.25166 0
M  V30 2784 C 263.587 -0.452261 1.54309 0
M  V30 2785 O 264.777 -0.253608 1.72344 0
M  V30 2786 C 261.909 -0.384749 3.38722 0
M  V30 2787 H 263.102 1.29066 2.70706 0
M  V30 2788 H 260.655 0.706323 1.3943 0
M  V30 2789 H 261.39 -1.26618 2.98561 0
M  V30 2790 H 261.175 0.246454 3.91325 0
M  V30 2791 H 262.665 -0.723389 4.11287 0
M  V30 2792 N 263.102 -1.41638 0.69111 0
M  V30 2793 C 264.33 -2.05628 0.22909 0
M  V30 2794 C 264.745 -1.51992 -1.11999 0
M  V30 2795 O 264.102 -0.666322 -1.69901 0
M  V30 2796 C 264.153 -3.61084 0.173283 0
M  V30 2797 O 263.874 -4.12735 1.46907 0
M  V30 2798 C 265.375 -4.42213 -0.310266 0
M  V30 2799 H 262.595 -0.662327 0.107534 0
M  V30 2800 H 265.139 -1.81489 0.942438 0
M  V30 2801 H 263.294 -3.84278 -0.490858 0
M  V30 2802 H 263.708 -5.06743 1.35322 0
M  V30 2803 H 265.182 -5.51194 -0.298196 0
M  V30 2804 H 265.659 -4.1799 -1.34838 0
M  V30 2805 H 266.265 -4.24074 0.322716 0
M  V30 2806 N 264.58 -0.43555 -1.51462 0
M  V30 2807 C 265.826 0.131709 -2.02372 0
M  V30 2808 C 266.159 1.42516 -1.3192 0
M  V30 2809 O 265.434 1.89606 -0.433573 0
M  V30 2810 C 265.717 0.352301 -3.58373 0
M  V30 2811 C 265.57 -0.959676 -4.39443 0
M  V30 2812 C 266.889 1.12286 -4.25535 0
M  V30 2813 H 264.008 0.0463936 -0.735538 0
M  V30 2814 H 266.65 -0.574197 -1.81116 0
M  V30 2815 H 264.8 0.9536 -3.76615 0
M  V30 2816 H 266.472 -1.59482 -4.32855 0
M  V30 2817 H 264.715 -1.56468 -4.04599 0
M  V30 2818 H 265.386 -0.759394 -5.46752 0
M  V30 2819 H 267.862 0.613545 -4.11552 0
M  V30 2820 H 266.738 1.24598 -5.34571 0
M  V30 2821 H 266.999 2.15048 -3.86273 0
M  V30 2822 N 266.058 1.56714 -0.166846 0
M  V30 2823 C 266.988 2.20754 0.760913 0
M  V30 2824 C 267.969 1.16178 1.24244 0
M  V30 2825 O 269.154 1.44592 1.29641 0
M  V30 2826 C 266.284 2.84478 1.99223 0
M  V30 2827 C 265.238 3.95053 1.64672 0
M  V30 2828 C 264.564 4.45805 2.95232 0
M  V30 2829 C 265.864 5.14865 0.878155 0
M  V30 2830 H 267.558 2.98537 0.22713 0
M  V30 2831 H 265.104 1.43596 0.107805 0
M  V30 2832 H 267.057 3.27951 2.64624 0
M  V30 2833 H 265.781 2.04056 2.55007 0
M  V30 2834 H 264.44 3.52228 1.01641 0
M  V30 2835 H 264.088 3.62181 3.49047 0
M  V30 2836 H 263.788 5.204 2.7287 0
M  V30 2837 H 265.312 4.91962 3.6167 0
M  V30 2838 H 266.726 5.55059 1.43466 0
M  V30 2839 H 265.123 5.95348 0.753738 0
M  V30 2840 H 266.193 4.84735 -0.126377 0
M  V30 2841 N 267.536 -0.106894 1.57237 0
M  V30 2842 C 268.776 -0.818277 1.87306 0
M  V30 2843 C 269.14 -1.76474 0.756371 0
M  V30 2844 O 270.341 -2.5186 0.939155 0
M  V30 2845 C 268.612 -1.53806 3.22612 0
M  V30 2846 S 270.171 -2.28935 3.74345 0
M  V30 2847 H 266.989 -0.272862 0.656557 0
M  V30 2848 H 269.591 -0.075988 1.95352 0
M  V30 2849 H 268.295 -0.834951 4.01817 0
M  V30 2850 H 267.826 -2.32049 3.17674 0
M  V30 2851 H 269.841 -3.54871 3.46815 0
M  V30 2852 N 269.014 -1.53014 -0.377408 0
M  V30 2853 C 269.924 -1.81557 -1.48574 0
M  V30 2854 C 270.94 -0.703102 -1.59162 0
M  V30 2855 O 272.116 -0.99192 -1.75279 0
M  V30 2856 C 269.181 -1.9889 -2.83978 0
M  V30 2857 C 268.242 -3.22801 -2.83016 0
M  V30 2858 C 267.475 -3.39298 -4.11962 0
M  V30 2859 O 267.698 -2.60345 -5.0752 0
M  V30 2860 O 266.632 -4.32604 -4.18494 0
M  V30 2861 H 270.458 -2.75695 -1.27382 0
M  V30 2862 H 268.043 -1.38248 -0.566373 0
M  V30 2863 H 269.925 -2.11931 -3.6423 0
M  V30 2864 H 268.6 -1.07942 -3.05172 0
M  V30 2865 H 267.507 -3.15193 -2.01505 0
M  V30 2866 H 268.84 -4.13632 -2.66775 0
M  V30 2867 N 270.492 0.636531 -1.44174 0
M  V30 2868 C 271.455 1.73063 -1.50273 0
M  V30 2869 C 272.455 1.56113 -0.385397 0
M  V30 2870 O 273.645 1.61707 -0.64781 0
M  V30 2871 C 270.777 3.12096 -1.37145 0
M  V30 2872 H 271.97 1.69031 -2.47727 0
M  V30 2873 H 269.523 0.849706 -1.31186 0
M  V30 2874 H 270.258 3.21728 -0.407636 0
M  V30 2875 H 270.043 3.25805 -2.18159 0
M  V30 2876 H 271.533 3.91846 -1.44382 0
M  V30 2877 N 271.97 1.30982 0.876444 0
M  V30 2878 C 273.218 1.20058 1.62575 0
M  V30 2879 C 273.539 -0.242947 1.93481 0
M  V30 2880 O 272.809 -1.1619 1.57724 0
M  V30 2881 H 271.389 0.44135 0.602677 0
M  V30 2882 H 274.051 1.64222 1.04962 0
M  V30 2883 H 273.147 1.76762 2.57219 0
M  V30 2884 N 273.449 -1.08991 1.13837 0
M  V30 2885 C 274.359 -2.19301 0.833333 0
M  V30 2886 C 275.375 -1.73026 -0.183847 0
M  V30 2887 O 276.551 -2.01395 -0.0138092 0
M  V30 2888 C 273.616 -3.45323 0.308651 0
M  V30 2889 C 272.677 -4.06255 1.38764 0
M  V30 2890 C 271.91 -5.26262 0.887896 0
M  V30 2891 O 272.133 -5.69747 -0.27287 0
M  V30 2892 O 271.067 -5.78435 1.66421 0
M  V30 2893 H 274.893 -2.47854 1.75506 0
M  V30 2894 H 272.478 -1.18012 0.916166 0
M  V30 2895 H 274.36 -4.21394 0.0216739 0
M  V30 2896 H 273.035 -3.18362 -0.585431 0
M  V30 2897 H 271.942 -3.318 1.72799 0
M  V30 2898 H 273.275 -4.37452 2.25602 0
M  V30 2899 N 274.927 -0.932562 -1.27047 0
M  V30 2900 C 275.89 -0.440064 -2.24936 0
M  V30 2901 C 276.89 0.444071 -1.54547 0
M  V30 2902 O 278.08 0.244465 -1.72476 0
M  V30 2903 C 275.212 0.36678 -3.38921 0
M  V30 2904 H 276.405 -1.305 -2.70018 0
M  V30 2905 H 273.958 -0.713707 -1.39054 0
M  V30 2906 H 274.693 1.25033 -2.99228 0
M  V30 2907 H 274.478 -0.267204 -3.91188 0
M  V30 2908 H 275.968 0.701567 -4.11665 0
M  V30 2909 N 276.405 1.4127 -0.698611 0
M  V30 2910 C 277.652 2.0118 -0.230865 0
M  V30 2911 C 277.98 1.55338 1.17049 0
M  V30 2912 O 277.235 0.756775 1.80475 0
M  V30 2913 C 277.534 3.56592 -0.240192 0
M  V30 2914 C 277.2 4.21955 -1.58948 0
M  V30 2915 C 275.862 4.39524 -1.95887 0
M  V30 2916 C 278.214 4.58576 -2.47704 0
M  V30 2917 C 275.542 4.90992 -3.2116 0
M  V30 2918 C 277.894 5.11435 -3.72313 0
M  V30 2919 C 276.558 5.27215 -4.0939 0
M  V30 2920 H 275.828 0.736169 -0.0844796 0
M  V30 2921 H 278.475 1.69124 -0.8983 0
M  V30 2922 H 276.78 3.88456 0.510797 0
M  V30 2923 H 278.477 4.00758 0.139296 0
M  V30 2924 H 275.067 4.08657 -1.29219 0
M  V30 2925 H 279.251 4.44654 -2.20445 0
M  V30 2926 H 274.507 5.01393 -3.49878 0
M  V30 2927 H 278.681 5.38752 -4.4127 0
M  V30 2928 H 276.308 5.66859 -5.06533 0
M  V30 2929 N 277.883 0.443576 1.51229 0
M  V30 2930 C 278.813 -0.355142 2.30783 0
M  V30 2931 C 279.794 -1.0154 1.36468 0
M  V30 2932 O 280.979 -1.01785 1.65389 0
M  V30 2933 C 278.109 -1.45312 3.15439 0
M  V30 2934 C 277.063 -0.916002 4.18083 0
M  V30 2935 C 276.389 -2.1102 4.91299 0
M  V30 2936 C 277.689 0.0538602 5.22272 0
M  V30 2937 H 279.383 0.308767 2.97804 0
M  V30 2938 H 276.929 0.149937 1.43217 0
M  V30 2939 H 278.882 -2.01914 3.69876 0
M  V30 2940 H 277.606 -2.14541 2.46252 0
M  V30 2941 H 276.265 -0.372145 3.64706 0
M  V30 2942 H 275.913 -2.78882 4.18609 0
M  V30 2943 H 275.613 -1.75717 5.60712 0
M  V30 2944 H 277.137 -2.68164 5.48562 0
M  V30 2945 H 278.551 -0.422069 5.71744 0
M  V30 2946 H 276.948 0.319776 5.99247 0
M  V30 2947 H 278.018 0.98858 4.74716 0
M  V30 2948 N 279.361 -1.56624 0.175154 0
M  V30 2949 C 280.61 -1.96173 -0.468921 0
M  V30 2950 C 280.923 -1.06401 -1.64128 0
M  V30 2951 O 282.129 -1.35648 -2.35185 0
M  V30 2952 C 280.585 -3.48833 -0.885633 0
M  V30 2953 C 280.193 -4.47237 0.261343 0
M  V30 2954 C 281.937 -3.97194 -1.49791 0
M  V30 2955 C 279.844 -5.9114 -0.175214 0
M  V30 2956 H 278.774 -0.732455 -0.178958 0
M  V30 2957 H 281.425 -1.81591 0.263997 0
M  V30 2958 H 279.807 -3.58848 -1.67464 0
M  V30 2959 H 280.981 -4.4894 1.03871 0
M  V30 2960 H 279.296 -4.08956 0.783827 0
M  V30 2961 H 281.893 -5.02167 -1.83665 0
M  V30 2962 H 282.236 -3.40351 -2.39722 0
M  V30 2963 H 282.769 -3.90212 -0.773267 0
M  V30 2964 H 279.508 -6.51865 0.689414 0
M  V30 2965 H 279.028 -5.92735 -0.91786 0
M  V30 2966 H 280.707 -6.44044 -0.617792 0
M  V30 2967 N 280.839 0.0985539 -1.57292 0
M  V30 2968 C 282.25 0.653457 -1.74891 0
M  V30 2969 C 282.601 1.7929 -0.796838 0
M  V30 2970 O 281.726 2.16385 0.0254886 0
M  V30 2971 C 282.321 1.19216 -3.17133 0
M  V30 2972 C 280.88 1.69316 -3.36168 0
M  V30 2973 C 280.027 0.601294 -2.70702 0
M  V30 2974 H 282.978 -0.127497 -1.58187 0
M  V30 2975 H 282.999 2.06154 -3.19814 0
M  V30 2976 H 282.511 0.362635 -3.86402 0
M  V30 2977 H 280.612 2.5468 -2.71972 0
M  V30 2978 H 280.725 1.78853 -4.44464 0
M  V30 2979 H 279.089 1.0399 -2.32504 0
M  V30 2980 H 279.872 -0.217592 -3.4261 0
M  V30 2981 N 282.317 1.53212 0.369288 0
M  V30 2982 C 283.545 1.73119 1.13303 0
M  V30 2983 C 283.96 0.458455 1.83149 0
M  V30 2984 O 283.317 -0.568403 1.73423 0
M  V30 2985 C 283.368 2.89413 2.16616 0
M  V30 2986 O 283.089 4.11761 1.49614 0
M  V30 2987 C 284.59 3.21161 3.05566 0
M  V30 2988 H 281.81 0.579107 0.338934 0
M  V30 2989 H 284.354 1.99942 0.429338 0
M  V30 2990 H 282.509 2.64994 2.82589 0
M  V30 2991 H 282.923 4.76858 2.18419 0
M  V30 2992 H 284.397 4.05949 3.74045 0
M  V30 2993 H 284.874 2.36369 3.70171 0
M  V30 2994 H 285.48 3.47492 2.45213 0
M  V30 2995 N 283.795 -0.628877 1.44509 0
M  V30 2996 C 285.206 -1.21054 1.42137 0
M  V30 2997 C 285.557 -1.95715 0.137881 0
M  V30 2998 O 284.682 -2.02554 -0.761645 0
M  V30 2999 C 285.277 -2.20189 2.57493 0
M  V30 3000 C 283.836 -2.73777 2.58308 0
M  V30 3001 C 282.983 -1.48813 2.33987 0
M  V30 3002 H 285.934 -0.41942 1.53057 0
M  V30 3003 H 285.955 -3.02833 2.30375 0
M  V30 3004 H 285.467 -1.6582 3.50892 0
M  V30 3005 H 283.568 -3.32142 1.68856 0
M  V30 3006 H 283.681 -3.19662 3.56865 0
M  V30 3007 H 282.045 -1.77024 1.83124 0
M  V30 3008 H 282.828 -0.963442 3.29504 0
M  V30 3009 N 285.273 -1.31445 -0.869486 0
M  V30 3010 C 286.503 -1.23942 -1.65294 0
M  V30 3011 C 286.911 0.197561 -1.88166 0
M  V30 3012 O 286.254 1.14019 -1.44033 0
M  V30 3013 C 286.316 -1.91385 -3.04322 0
M  V30 3014 C 285.98 -3.40726 -3.04557 0
M  V30 3015 C 286.977 -4.36464 -2.82481 0
M  V30 3016 C 284.662 -3.82425 -3.25663 0
M  V30 3017 C 286.656 -5.71876 -2.8149 0
M  V30 3018 C 284.343 -5.1795 -3.243 0
M  V30 3019 C 285.341 -6.12486 -3.02241 0
M  V30 3020 O 285.029 -7.45534 -3.00724 0
M  V30 3021 H 284.761 -0.429459 -0.522054 0
M  V30 3022 H 287.315 -1.73873 -1.0935 0
M  V30 3023 H 285.545 -1.36004 -3.61994 0
M  V30 3024 H 287.234 -1.77791 -3.64891 0
M  V30 3025 H 288 -4.05576 -2.65956 0
M  V30 3026 H 283.879 -3.09274 -3.41863 0
M  V30 3027 H 287.423 -6.45638 -2.64191 0
M  V30 3028 H 283.32 -5.48473 -3.40365 0
M  V30 3029 H 284.088 -7.54713 -3.16782 0
M  V30 3030 N 286.751 1.08385 -1.14413 0
M  V30 3031 C 287.981 1.8425 -0.934644 0
M  V30 3032 C 288.389 1.81907 0.520234 0
M  V30 3033 O 287.732 1.22126 1.37226 0
M  V30 3034 C 287.794 3.32853 -1.35828 0
M  V30 3035 C 287.458 3.5893 -2.82875 0
M  V30 3036 C 288.455 3.53756 -3.80989 0
M  V30 3037 C 286.14 3.86934 -3.20293 0
M  V30 3038 C 288.134 3.76216 -5.14529 0
M  V30 3039 C 285.821 4.09047 -4.54008 0
M  V30 3040 C 286.819 4.03682 -5.50936 0
M  V30 3041 O 286.507 4.25214 -6.82238 0
M  V30 3042 H 286.239 0.588502 -0.332628 0
M  V30 3043 H 288.793 1.37792 -1.52324 0
M  V30 3044 H 287.023 3.8007 -0.713019 0
M  V30 3045 H 288.712 3.90154 -1.11957 0
M  V30 3046 H 289.478 3.32135 -3.53428 0
M  V30 3047 H 285.357 3.9023 -2.45442 0
M  V30 3048 H 288.901 3.71943 -5.90173 0
M  V30 3049 H 284.798 4.30151 -4.8129 0
M  V30 3050 H 285.566 4.42619 -6.88499 0
M  V30 3051 N 288.23 0.939286 1.26551 0
M  V30 3052 C 289.478 0.58469 1.93457 0
M  V30 3053 C 289.799 -0.878774 1.74076 0
M  V30 3054 O 289.069 -1.62421 1.09528 0
M  V30 3055 H 287.649 0.21325 0.715914 0
M  V30 3056 H 290.311 1.1942 1.54029 0
M  V30 3057 H 289.407 0.800849 3.0165 0
M  V30 3058 N 289.708 -1.40897 0.706093 0
M  V30 3059 C 290.671 -2.29131 0.0562841 0
M  V30 3060 C 291.671 -1.44901 -0.697166 0
M  V30 3061 O 292.861 -1.65926 -0.530484 0
M  V30 3062 C 289.993 -3.27957 -0.93043 0
M  V30 3063 H 291.186 -2.88091 0.833284 0
M  V30 3064 H 288.739 -1.4906 0.470192 0
M  V30 3065 H 289.474 -2.73997 -1.73482 0
M  V30 3066 H 289.259 -3.90124 -0.393166 0
M  V30 3067 H 290.749 -3.94049 -1.38256 0
M  V30 3068 N 291.186 -0.45159 -1.50991 0
M  V30 3069 C 292.435 0.111653 -2.01391 0
M  V30 3070 C 292.748 1.42529 -1.33959 0
M  V30 3071 O 293.954 2.07232 -1.75405 0
M  V30 3072 C 292.41 0.249514 -3.59034 0
M  V30 3073 C 292.018 -1.05453 -4.35412 0
M  V30 3074 C 293.762 0.765762 -4.17536 0
M  V30 3075 C 291.669 -0.881529 -5.84793 0
M  V30 3076 H 290.599 0.0455022 -0.752626 0
M  V30 3077 H 293.25 -0.583524 -1.73975 0
M  V30 3078 H 291.632 1.00803 -3.82955 0
M  V30 3079 H 292.806 -1.82248 -4.23229 0
M  V30 3080 H 291.121 -1.50039 -3.88429 0
M  V30 3081 H 293.718 0.911913 -5.26866 0
M  V30 3082 H 294.061 1.75201 -3.77638 0
M  V30 3083 H 294.594 0.0651744 -3.97747 0
M  V30 3084 H 291.333 -1.84057 -6.29129 0
M  V30 3085 H 290.853 -0.153625 -5.99603 0
M  V30 3086 H 292.532 -0.540363 -6.4474 0
M  V30 3087 N 292.664 1.56529 -0.183458 0
M  V30 3088 C 293.892 2.01623 0.464285 0
M  V30 3089 C 294.307 1.06366 1.55986 0
M  V30 3090 O 293.664 0.0665398 1.82379 0
M  V30 3091 C 293.715 3.46475 1.03139 0
M  V30 3092 O 293.436 4.38095 -0.0204675 0
M  V30 3093 C 294.937 4.0703 1.75617 0
M  V30 3094 H 292.157 0.660596 0.117704 0
M  V30 3095 H 294.701 2.02451 -0.288751 0
M  V30 3096 H 292.856 3.46383 1.73486 0
M  V30 3097 H 293.27 5.22973 0.399952 0
M  V30 3098 H 294.744 5.10271 2.10542 0
M  V30 3099 H 295.221 3.49819 2.65563 0
M  V30 3100 H 295.827 4.1086 1.09882 0
M  V30 3101 N 294.142 -0.090211 1.57342 0
M  V30 3102 C 295.074 -1.13541 1.99101 0
M  V30 3103 C 296.087 -1.3604 0.894258 0
M  V30 3104 O 297.276 -1.34606 1.17233 0
M  V30 3105 C 294.376 -2.49001 2.29895 0
M  V30 3106 C 293.549 -2.46712 3.61182 0
M  V30 3107 C 292.608 -3.64136 3.79857 0
M  V30 3108 O 291.634 -3.46405 4.51655 0
M  V30 3109 N 292.836 -4.83802 3.20806 0
M  V30 3110 H 295.601 -0.779942 2.89373 0
M  V30 3111 H 293.162 -0.279125 1.59476 0
M  V30 3112 H 295.154 -3.26166 2.39578 0
M  V30 3113 H 293.724 -2.76619 1.45605 0
M  V30 3114 H 292.944 -1.55058 3.62423 0
M  V30 3115 H 294.232 -2.42265 4.4742 0
M  V30 3116 H 293.63 -5.01112 2.62494 0
M  V30 3117 H 292.187 -5.58543 3.35966 0
M  V30 3118 N 295.62 -1.53406 -0.361157 0
M  V30 3119 C 296.57 -1.76536 -1.44287 0
M  V30 3120 C 297.554 -0.620019 -1.48474 0
M  V30 3121 O 298.746 -0.878834 -1.53641 0
M  V30 3122 C 295.875 -1.96266 -2.81664 0
M  V30 3123 C 294.961 -3.16815 -2.81938 0
M  V30 3124 N 295.352 -4.38637 -2.51855 0
M  V30 3125 C 293.65 -3.17627 -3.13096 0
M  V30 3126 C 294.351 -5.20401 -2.59919 0
M  V30 3127 N 293.327 -4.56712 -2.94814 0
M  V30 3128 H 297.129 -2.68331 -1.19899 0
M  V30 3129 H 294.643 -1.52091 -0.56938 0
M  V30 3130 H 296.64 -2.10966 -3.59582 0
M  V30 3131 H 295.3 -1.05702 -3.07013 0
M  V30 3132 H 296.311 -4.66293 -2.25369 0
M  V30 3133 H 292.988 -2.36971 -3.43731 0
M  V30 3134 H 294.378 -6.27586 -2.39969 0
M  V30 3135 N 297.098 0.621204 -1.44841 0
M  V30 3136 C 298.344 1.3826 -1.48365 0
M  V30 3137 C 298.677 1.93831 -0.119624 0
M  V30 3138 O 297.952 1.74251 0.864111 0
M  V30 3139 C 298.235 2.54058 -2.55199 0
M  V30 3140 C 298.088 2.03772 -4.00995 0
M  V30 3141 C 299.407 3.56225 -2.58442 0
M  V30 3142 H 296.526 0.501374 -0.540179 0
M  V30 3143 H 299.168 0.7015 -1.76576 0
M  V30 3144 H 297.318 3.12162 -2.31274 0
M  V30 3145 H 298.99 1.50423 -4.36086 0
M  V30 3146 H 297.233 1.34876 -4.12299 0
M  V30 3147 H 297.904 2.87185 -4.71411 0
M  V30 3148 H 300.38 3.07939 -2.79844 0
M  V30 3149 H 299.256 4.34756 -3.3508 0
M  V30 3150 H 299.517 4.10949 -1.63013 0
M  V30 3151 N 298.576 1.31904 0.862503 0
M  V30 3152 C 299.816 1.23324 1.63004 0
M  V30 3153 C 300.18 -0.203724 1.90916 0
M  V30 3154 O 301.381 -0.413132 2.65606 0
M  V30 3155 C 299.652 2.06116 2.91978 0
M  V30 3156 S 301.211 2.14478 3.82812 0
M  V30 3157 H 298.029 0.439117 0.559193 0
M  V30 3158 H 300.631 1.66658 1.02202 0
M  V30 3159 H 299.335 3.09593 2.69407 0
M  V30 3160 H 298.866 1.6353 3.57801 0
M  V30 3161 H 300.881 1.28855 4.79177 0
M  V30 3162 N 300.054 -1.07777 1.14986 0
M  V30 3163 C 300.984 -2.16865 0.865557 0
M  V30 3164 C 301.965 -1.69123 -0.182083 0
M  V30 3165 O 303.15 -1.94164 -0.0373815 0
M  V30 3166 C 300.28 -3.45539 0.349313 0
M  V30 3167 C 299.234 -4.06708 1.33313 0
M  V30 3168 C 298.56 -5.30411 0.675918 0
M  V30 3169 C 299.86 -4.47241 2.69764 0
M  V30 3170 H 301.554 -2.40905 1.77778 0
M  V30 3171 H 299.1 -1.15781 0.856203 0
M  V30 3172 H 301.053 -4.21174 0.137983 0
M  V30 3173 H 299.777 -3.21072 -0.598362 0
M  V30 3174 H 298.436 -3.33112 1.53075 0
M  V30 3175 H 298.084 -5.02232 -0.277767 0
M  V30 3176 H 297.784 -5.72293 1.33244 0
M  V30 3177 H 299.308 -6.08755 0.474262 0
M  V30 3178 H 300.722 -5.14025 2.53873 0
M  V30 3179 H 299.119 -5.00062 3.3175 0
M  V30 3180 H 300.189 -3.58818 3.26156 0
M  V30 3181 N 301.532 -0.945985 -1.26051 0
M  V30 3182 C 302.762 -0.612136 -1.97323 0
M  V30 3183 C 303.17 0.818171 -1.70595 0
M  V30 3184 O 302.513 1.55777 -0.973613 0
M  V30 3185 C 302.575 -0.780347 -3.50929 0
M  V30 3186 C 302.239 -2.18619 -4.01317 0
M  V30 3187 C 303.236 -3.16209 -4.12683 0
M  V30 3188 C 300.921 -2.50805 -4.35203 0
M  V30 3189 C 302.915 -4.44085 -4.57238 0
M  V30 3190 C 300.602 -3.78912 -4.79446 0
M  V30 3191 C 301.6 -4.75365 -4.90425 0
M  V30 3192 O 301.288 -6.01191 -5.3369 0
M  V30 3193 H 301.02 -0.229134 -0.635982 0
M  V30 3194 H 303.574 -1.27036 -1.61404 0
M  V30 3195 H 301.804 -0.0649864 -3.86645 0
M  V30 3196 H 303.493 -0.448842 -4.03411 0
M  V30 3197 H 304.259 -2.92668 -3.86744 0
M  V30 3198 H 300.138 -1.76463 -4.2589 0
M  V30 3199 H 303.682 -5.19373 -4.65723 0
M  V30 3200 H 299.579 -4.02265 -5.0483 0
M  V30 3201 H 300.347 -6.04442 -5.51899 0
M  V30 3202 N 303.011 1.40521 -0.713556 0
M  V30 3203 C 304.259 2.00527 -0.251692 0
M  V30 3204 C 304.58 1.56857 1.15848 0
M  V30 3205 O 303.85 0.807127 1.785 0
M  V30 3206 H 302.43 0.741551 -0.0900646 0
M  V30 3207 H 305.092 1.71887 -0.918733 0
M  V30 3208 H 304.188 3.10813 -0.283192 0
M  V30 3209 N 304.489 0.459591 1.5075 0
M  V30 3210 C 305.437 -0.354678 2.2988 0
M  V30 3211 C 306.431 -1.00086 1.36672 0
M  V30 3212 O 307.637 -0.933277 1.53915 0
M  V30 3213 H 304.012 -0.13321 0.740107 0
M  V30 3214 H 305.983 0.333269 2.96533 0
M  V30 3215 C 304.732 -1.43073 3.169 0
M  V30 3216 H 304.055 -0.942882 3.88523 0
M  V30 3217 H 305.495 -1.97328 3.75284 0
M  V30 3218 C 303.954 -2.42633 2.33732 0
M  V30 3219 O 304.484 -3.47658 2.01238 0
M  V30 3220 N 302.69 -2.14066 1.9653 0
M  V30 3221 H 302.237 -1.28685 2.23155 0
M  V30 3222 H 302.195 -2.80917 1.41185 0
M  V30 3223 N 305.967 -1.56429 0.191757 0
M  V30 3224 C 307.216 -1.9666 -0.448088 0
M  V30 3225 C 307.529 -1.08136 -1.62991 0
M  V30 3226 O 308.735 -1.38135 -2.33733 0
M  V30 3227 C 307.191 -3.49753 -0.848585 0
M  V30 3228 C 306.799 -4.46935 0.308764 0
M  V30 3229 C 308.543 -3.9876 -1.4557 0
M  V30 3230 C 306.45 -5.91293 -0.112506 0
M  V30 3231 H 305.38 -0.734312 -0.171179 0
M  V30 3232 H 308.031 -1.81301 0.283242 0
M  V30 3233 H 306.413 -3.60604 -1.63649 0
M  V30 3234 H 307.587 -4.47813 1.08627 0
M  V30 3235 H 305.902 -4.08102 0.827158 0
M  V30 3236 H 308.499 -5.04086 -1.78328 0
M  V30 3237 H 308.842 -3.42875 -2.36099 0
M  V30 3238 H 309.375 -3.9101 -0.731836 0
M  V30 3239 H 306.114 -6.51097 0.758514 0
M  V30 3240 H 305.634 -5.93676 -0.854941 0
M  V30 3241 H 307.313 -6.44663 -0.549448 0
M  V30 3242 N 307.445 0.0818655 -1.57387 0
M  V30 3243 C 308.861 0.436412 -1.53517 0
M  V30 3244 C 309.061 1.79758 -0.910459 0
M  V30 3245 O 308.117 2.47324 -0.508636 0
M  V30 3246 C 309.43 0.386734 -2.98203 0
M  V30 3247 C 310.978 0.467644 -3.09487 0
M  V30 3248 C 311.453 0.447978 -4.55804 0
M  V30 3249 N 312.944 0.508348 -4.60402 0
M  V30 3250 C 313.679 0.515184 -5.71081 0
M  V30 3251 N 313.175 0.477435 -6.91153 0
M  V30 3252 N 314.968 0.560988 -5.59294 0
M  V30 3253 H 307.119 -0.809546 -1.96367 0
M  V30 3254 H 309.382 -0.302733 -0.898363 0
M  V30 3255 H 309.088 -0.546539 -3.47427 0
M  V30 3256 H 308.962 1.20075 -3.57578 0
M  V30 3257 H 311.349 1.39134 -2.60242 0
M  V30 3258 H 311.43 -0.374753 -2.5304 0
M  V30 3259 H 311.074 -0.471826 -5.05704 0
M  V30 3260 H 311.004 1.30777 -5.10103 0
M  V30 3261 H 313.495 0.54218 -3.7399 0
M  V30 3262 H 313.808 0.486299 -7.71268 0
M  V30 3263 H 312.153 0.444278 -6.93579 0
M  V30 3264 H 315.344 0.5881 -4.64391 0
M  V30 3265 H 315.517 0.562846 -6.45551 0
M  V30 3266 N 308.923 1.53595 0.353017 0
M  V30 3267 C 309.853 1.83902 1.43883 0
M  V30 3268 C 310.834 0.693421 1.55324 0
M  V30 3269 O 312.019 0.944452 1.69687 0
M  V30 3270 C 309.149 2.04016 2.8106 0
M  V30 3271 C 308.103 3.19814 2.84434 0
M  V30 3272 C 307.429 3.25244 4.24406 0
M  V30 3273 C 308.729 4.58133 2.50822 0
M  V30 3274 H 310.423 2.74835 1.1877 0
M  V30 3275 H 307.969 1.32242 0.569917 0
M  V30 3276 H 309.922 2.238 3.57059 0
M  V30 3277 H 308.646 1.09804 3.07588 0
M  V30 3278 H 307.305 2.9987 2.10887 0
M  V30 3279 H 306.953 2.28646 4.48029 0
M  V30 3280 H 306.653 4.03054 4.27576 0
M  V30 3281 H 308.177 3.47228 5.0226 0
M  V30 3282 H 309.591 4.77995 3.16534 0
M  V30 3283 H 307.988 5.38276 2.6529 0
M  V30 3284 H 309.058 4.62387 1.46034 0
M  V30 3285 N 310.401 -0.613514 1.45168 0
M  V30 3286 C 311.364 -1.7065 1.53007 0
M  V30 3287 C 312.364 -1.5548 0.410184 0
M  V30 3288 O 313.554 -1.60656 0.673455 0
M  V30 3289 C 310.686 -3.09875 1.42093 0
M  V30 3290 H 311.879 -1.65068 2.50385 0
M  V30 3291 H 309.432 -0.828728 1.32521 0
M  V30 3292 H 310.167 -3.21039 0.458769 0
M  V30 3293 H 309.952 -3.22293 2.23315 0
M  V30 3294 H 311.442 -3.895 1.50598 0
M  V30 3295 N 311.879 -1.3236 -0.855495 0
M  V30 3296 C 313.109 -1.25688 -1.6397 0
M  V30 3297 C 313.517 0.177592 -1.88365 0
M  V30 3298 O 312.86 1.12485 -1.45234 0
M  V30 3299 C 312.922 -1.94602 -3.02275 0
M  V30 3300 C 312.586 -3.43937 -3.00926 0
M  V30 3301 C 313.583 -4.39435 -2.77835 0
M  V30 3302 C 311.268 -3.85858 -3.21588 0
M  V30 3303 C 313.262 -5.74829 -2.75409 0
M  V30 3304 C 310.949 -5.21361 -3.18789 0
M  V30 3305 C 311.947 -6.15658 -2.95727 0
M  V30 3306 O 311.635 -7.48681 -2.928 0
M  V30 3307 H 311.367 -0.434972 -0.51747 0
M  V30 3308 H 313.921 -1.75023 -1.075 0
M  V30 3309 H 312.151 -1.39836 -3.60531 0
M  V30 3310 H 313.84 -1.81651 -3.62985 0
M  V30 3311 H 314.606 -4.08374 -2.6164 0
M  V30 3312 H 310.485 -3.12883 -3.38564 0
M  V30 3313 H 314.029 -6.48404 -2.57328 0
M  V30 3314 H 309.926 -5.52052 -3.34528 0
M  V30 3315 H 310.694 -7.5803 -3.0876 0
M  V30 3316 N 313.357 1.07166 -1.15556 0
M  V30 3317 C 314.603 1.80065 -0.932984 0
M  V30 3318 C 314.936 1.86586 0.53845 0
M  V30 3319 O 314.211 1.35098 1.39924 0
M  V30 3320 C 314.494 3.25022 -1.55025 0
M  V30 3321 C 314.347 3.26634 -3.09242 0
M  V30 3322 C 315.666 4.22341 -1.2376 0
M  V30 3323 H 312.785 0.653697 -0.340366 0
M  V30 3324 H 315.427 1.25389 -1.4275 0
M  V30 3325 H 313.577 3.71712 -1.12972 0
M  V30 3326 H 315.249 2.88173 -3.60214 0
M  V30 3327 H 313.492 2.65539 -3.43033 0
M  V30 3328 H 314.163 4.28854 -3.47546 0
M  V30 3329 H 316.639 3.8405 -1.60139 0
M  V30 3330 H 315.515 5.22053 -1.69564 0
M  V30 3331 H 315.776 4.41828 -0.154938 0
M  V30 3332 N 314.835 0.952656 1.25548 0
M  V30 3333 C 316.065 0.622592 1.96996 0
M  V30 3334 C 316.473 -0.809112 1.71026 0
M  V30 3335 O 315.816 -1.55258 0.981861 0
M  V30 3336 C 315.878 0.798946 3.5051 0
M  V30 3337 C 315.542 2.20744 4.00151 0
M  V30 3338 C 316.539 3.18394 4.11001 0
M  V30 3339 C 314.224 2.5311 4.33867 0
M  V30 3340 C 316.218 4.46504 4.54877 0
M  V30 3341 C 313.905 3.8145 4.7743 0
M  V30 3342 C 314.903 4.77959 4.87897 0
M  V30 3343 O 314.591 6.04012 5.30494 0
M  V30 3344 H 314.323 0.232503 0.634758 0
M  V30 3345 H 316.877 1.2789 1.60728 0
M  V30 3346 H 315.107 0.0854903 3.86605 0
M  V30 3347 H 316.796 0.47023 4.03167 0
M  V30 3348 H 317.562 2.94715 3.85186 0
M  V30 3349 H 313.441 1.78719 4.24948 0
M  V30 3350 H 316.985 5.21835 4.62962 0
M  V30 3351 H 312.882 4.04936 5.0269 0
M  V30 3352 H 313.65 6.0736 5.48685 0
M  V30 3353 N 316.313 -1.40141 0.720998 0
M  V30 3354 C 317.243 -2.33339 0.0867621 0
M  V30 3355 C 318.224 -1.53178 -0.739622 0
M  V30 3356 O 319.409 -1.81625 -0.687449 0
M  V30 3357 C 316.539 -3.37194 -0.831728 0
M  V30 3358 C 315.493 -4.27857 -0.110558 0
M  V30 3359 C 314.819 -5.22294 -1.14513 0
M  V30 3360 C 316.119 -5.11872 1.0385 0
M  V30 3361 H 317.813 -2.86626 0.865219 0
M  V30 3362 H 315.359 -1.37814 0.417516 0
M  V30 3363 H 317.312 -4.01335 -1.28485 0
M  V30 3364 H 316.036 -2.82314 -1.64214 0
M  V30 3365 H 314.695 -3.65176 0.322797 0
M  V30 3366 H 314.343 -4.63717 -1.94874 0
M  V30 3367 H 314.043 -5.83797 -0.667446 0
M  V30 3368 H 315.567 -5.89312 -1.59824 0
M  V30 3369 H 316.981 -5.69436 0.664482 0
M  V30 3370 H 315.378 -5.82445 1.4449 0
M  V30 3371 H 316.448 -4.4753 1.86668 0
M  V30 3372 N 317.792 -0.46758 -1.50504 0
M  V30 3373 C 319.069 0.15003 -1.95024 0
M  V30 3374 C 319.449 1.57304 -1.40779 0
M  V30 3375 O 318.797 2.20281 -0.607319 0
M  V30 3376 C 319.007 0.0969324 -3.48865 0
M  V30 3377 C 320.355 0.287565 -4.23625 0
M  V30 3378 O 321.379 0.173678 -3.55776 0
M  V30 3379 O 320.238 0.517186 -5.44047 0
M  V30 3380 H 317.332 0.113582 -0.819163 0
M  V30 3381 H 319.878 -0.52773 -1.61286 0
M  V30 3382 H 318.65 -0.896732 -3.80886 0
M  V30 3383 H 318.273 0.816303 -3.8913 0
M  V30 3384 N 319.27 1.56325 -0.20005 0
M  V30 3385 C 320.495 2.02548 0.44597 0
M  V30 3386 C 320.92 1.07922 1.5406 0
M  V30 3387 O 320.278 0.0635775 1.81188 0
M  V30 3388 C 320.326 3.47175 0.974761 0
M  V30 3389 O 319.43 3.55671 2.08739 0
M  V30 3390 H 318.771 0.655862 0.103638 0
M  V30 3391 H 321.301 2.02201 -0.312381 0
M  V30 3392 H 321.311 3.87067 1.2901 0
M  V30 3393 H 319.986 4.15538 0.17347 0
M  V30 3394 H 318.563 3.27657 1.78032 0
M  V30 3395 N 320.748 -0.0735177 1.57428 0
M  V30 3396 C 321.658 -1.10547 2.06922 0
M  V30 3397 C 322.674 -1.42506 0.998402 0
M  V30 3398 O 323.85 -1.52717 1.31299 0
M  V30 3399 C 320.915 -2.40019 2.50184 0
M  V30 3400 C 319.976 -2.15046 3.71556 0
M  V30 3401 C 319.209 -3.38345 4.12745 0
M  V30 3402 O 319.432 -4.47399 3.53822 0
M  V30 3403 O 318.366 -3.2666 5.05546 0
M  V30 3404 H 322.192 -0.715013 2.95163 0
M  V30 3405 H 319.777 -0.287531 1.46607 0
M  V30 3406 H 321.659 -3.16218 2.78539 0
M  V30 3407 H 320.334 -2.78447 1.65072 0
M  V30 3408 H 319.241 -1.36558 3.48285 0
M  V30 3409 H 320.574 -1.81499 4.57514 0
M  V30 3410 N 322.226 -1.5378 -0.344866 0
M  V30 3411 C 323.472 -1.71216 -1.08687 0
M  V30 3412 C 323.805 -0.473281 -1.88345 0
M  V30 3413 O 323.08 0.52968 -1.87149 0
M  V30 3414 C 323.363 -2.97486 -2.02914 0
M  V30 3415 C 323.216 -4.31579 -1.26727 0
M  V30 3416 C 324.535 -3.19422 -3.0275 0
M  V30 3417 H 321.654 -0.62301 -0.393735 0
M  V30 3418 H 324.296 -1.8645 -0.365563 0
M  V30 3419 H 322.446 -2.84629 -2.64421 0
M  V30 3420 H 324.118 -4.56284 -0.67845 0
M  V30 3421 H 322.361 -4.30049 -0.569273 0
M  V30 3422 H 323.032 -5.16106 -1.95803 0
M  V30 3423 H 325.508 -3.316 -2.51357 0
M  V30 3424 H 324.384 -4.09169 -3.65885 0
M  V30 3425 H 324.645 -2.35656 -3.74057 0
M  V30 3426 N 323.704 0.605807 -1.45491 0
M  V30 3427 C 324.932 1.39136 -1.5313 0
M  V30 3428 C 325.347 1.88082 -0.164507 0
M  V30 3429 O 324.704 1.62316 0.834247 0
M  V30 3430 C 324.755 2.59463 -2.51716 0
M  V30 3431 O 324.476 2.12551 -3.83084 0
M  V30 3432 C 325.977 3.52301 -2.6907 0
M  V30 3433 H 323.197 0.425849 -0.51855 0
M  V30 3434 H 325.741 0.73865 -1.90694 0
M  V30 3435 H 323.896 3.20772 -2.17219 0
M  V30 3436 H 324.31 2.90744 -4.36541 0
M  V30 3437 H 325.784 4.33271 -3.42024 0
M  V30 3438 H 326.261 4.02757 -1.75167 0
M  V30 3439 H 326.867 2.96845 -3.04571 0
M  V30 3440 N 325.182 1.32811 0.848464 0
M  V30 3441 C 326.43 1.23479 1.59991 0
M  V30 3442 C 326.751 -0.201853 1.93952 0
M  V30 3443 O 326.021 -1.12818 1.60153 0
M  V30 3444 H 324.601 0.454034 0.593179 0
M  V30 3445 H 327.263 1.66412 1.01455 0
M  V30 3446 H 326.359 1.82178 2.53412 0
M  V30 3447 N 326.66 -1.06551 1.16123 0
M  V30 3448 C 327.59 -2.15935 0.88851 0
M  V30 3449 C 328.571 -1.69306 -0.164135 0
M  V30 3450 O 329.756 -1.94193 -0.0167857 0
M  V30 3451 C 326.886 -3.45149 0.385942 0
M  V30 3452 C 325.84 -4.05271 1.3762 0
M  V30 3453 C 325.166 -5.29664 0.732137 0
M  V30 3454 C 326.466 -4.44355 2.74493 0
M  V30 3455 H 328.16 -2.39006 1.80323 0
M  V30 3456 H 325.706 -1.14866 0.868435 0
M  V30 3457 H 327.659 -4.21004 0.182647 0
M  V30 3458 H 326.383 -3.21689 -0.564274 0
M  V30 3459 H 325.042 -3.3147 1.56599 0
M  V30 3460 H 324.69 -5.02499 -0.224483 0
M  V30 3461 H 324.39 -5.70848 1.39307 0
M  V30 3462 H 325.914 -6.08218 0.538802 0
M  V30 3463 H 327.328 -5.11303 2.59311 0
M  V30 3464 H 325.725 -4.96515 3.37035 0
M  V30 3465 H 326.795 -3.55339 3.29943 0
M  V30 3466 N 328.138 -0.959301 -1.25041 0
M  V30 3467 C 329.415 -0.533805 -1.88175 0
M  V30 3468 C 329.795 0.988994 -1.865 0
M  V30 3469 O 329.143 1.85677 -1.33177 0
M  V30 3470 C 329.353 -1.11575 -3.30684 0
M  V30 3471 C 330.701 -1.19548 -4.07423 0
M  V30 3472 O 331.725 -1.06765 -3.39823 0
M  V30 3473 O 330.584 -1.39656 -5.28354 0
M  V30 3474 H 327.678 -0.176772 -0.807887 0
M  V30 3475 H 330.224 -1.05303 -1.33076 0
M  V30 3476 H 328.996 -2.15884 -3.26358 0
M  V30 3477 H 328.619 -0.580059 -3.93346 0
M  V30 3478 N 329.616 1.39756 -0.72842 0
M  V30 3479 C 330.844 2.04948 -0.283528 0
M  V30 3480 C 331.259 1.54908 1.0793 0
M  V30 3481 O 330.616 0.711135 1.68075 0
M  V30 3482 C 330.667 3.60498 -0.268957 0
M  V30 3483 O 330.388 4.08695 -1.57798 0
M  V30 3484 C 331.889 4.4288 0.192912 0
M  V30 3485 H 329.109 0.659243 -0.125056 0
M  V30 3486 H 331.653 1.78927 -0.990226 0
M  V30 3487 H 329.808 3.85444 0.388801 0
M  V30 3488 H 330.222 5.02977 -1.48709 0
M  V30 3489 H 331.696 5.51791 0.151952 0
M  V30 3490 H 332.173 4.21418 1.23708 0
M  V30 3491 H 332.779 4.23069 -0.435039 0
M  V30 3492 N 331.094 0.475555 1.50254 0
M  V30 3493 C 332.51 0.12997 1.5907 0
M  V30 3494 C 332.71 -1.36385 1.48328 0
M  V30 3495 O 331.766 -2.13754 1.34407 0
M  V30 3496 C 333.079 0.684139 2.92814 0
M  V30 3497 C 334.627 0.647965 3.0622 0
M  V30 3498 C 335.102 1.17975 4.42545 0
M  V30 3499 N 336.593 1.13936 4.48969 0
M  V30 3500 C 337.328 1.52129 5.52851 0
M  V30 3501 N 336.824 1.97793 6.63965 0
M  V30 3502 N 338.617 1.43704 5.4342 0
M  V30 3503 H 330.768 1.44706 1.55479 0
M  V30 3504 H 333.031 0.598691 0.735033 0
M  V30 3505 H 332.737 1.73079 3.06164 0
M  V30 3506 H 332.611 0.130204 3.76975 0
M  V30 3507 H 334.998 -0.38979 2.92514 0
M  V30 3508 H 335.079 1.23876 2.23805 0
M  V30 3509 H 334.723 2.21616 4.57 0
M  V30 3510 H 334.653 0.565138 5.23559 0
M  V30 3511 H 337.144 0.804488 3.69238 0
M  V30 3512 H 337.457 2.25072 7.39299 0
M  V30 3513 H 335.802 2.01749 6.65073 0
M  V30 3514 H 338.993 1.07867 4.55502 0
M  V30 3515 H 339.166 1.73794 6.24259 0
M  V30 3516 N 332.573 -1.56217 0.208337 0
M  V30 3517 C 333.984 -1.84243 -0.301904 0
M  V30 3518 C 334.335 -1.12939 -1.60434 0
M  V30 3519 O 333.46 -0.39461 -2.12772 0
M  V30 3520 C 334.055 -3.34231 -0.554543 0
M  V30 3521 C 332.614 -3.62621 -1.00912 0
M  V30 3522 C 331.761 -2.77224 -0.064933 0
M  V30 3523 H 334.712 -1.52712 0.431833 0
M  V30 3524 H 334.733 -3.5372 -1.40223 0
M  V30 3525 H 334.245 -3.86099 0.393561 0
M  V30 3526 H 332.346 -3.16197 -1.97104 0
M  V30 3527 H 332.459 -4.7071 -0.892674 0
M  V30 3528 H 330.823 -2.48256 -0.56929 0
M  V30 3529 H 331.606 -3.31887 0.877851 0
M  V30 3530 N 334.051 0.0651679 -1.57465 0
M  V30 3531 C 335.298 0.763063 -1.87573 0
M  V30 3532 C 335.626 1.77242 -0.800961 0
M  V30 3533 O 334.881 1.94651 0.202316 0
M  V30 3534 C 335.18 1.50081 -3.24362 0
M  V30 3535 C 334.846 0.630816 -4.46466 0
M  V30 3536 C 333.508 0.391082 -4.79608 0
M  V30 3537 C 335.86 0.0279465 -5.21193 0
M  V30 3538 C 333.188 -0.460894 -5.84887 0
M  V30 3539 C 335.54 -0.811522 -6.27373 0
M  V30 3540 C 334.204 -1.06106 -6.59013 0
M  V30 3541 H 333.474 0.279224 -0.686378 0
M  V30 3542 H 336.121 0.0236726 -1.91485 0
M  V30 3543 H 334.426 2.31258 -3.16271 0
M  V30 3544 H 336.123 2.04571 -3.44894 0
M  V30 3545 H 332.713 0.8278 -4.2053 0
M  V30 3546 H 336.897 0.200262 -4.95896 0
M  V30 3547 H 332.153 -0.662907 -6.07796 0
M  V30 3548 H 336.327 -1.28537 -6.84435 0
M  V30 3549 H 333.954 -1.723 -7.40417 0
M  V30 3550 N 335.529 1.53961 0.336706 0
M  V30 3551 C 336.461 1.78751 1.4346 0
M  V30 3552 C 337.474 0.669019 1.48418 0
M  V30 3553 O 338.663 0.945884 1.51378 0
M  V30 3554 C 335.763 1.87844 2.82078 0
M  V30 3555 C 334.936 3.17854 3.00479 0
M  V30 3556 C 333.995 3.17816 4.19379 0
M  V30 3557 O 333.021 3.91511 4.13168 0
M  V30 3558 N 334.223 2.40669 5.2826 0
M  V30 3559 H 336.988 2.73493 1.22563 0
M  V30 3560 H 334.549 1.53096 0.526625 0
M  V30 3561 H 336.541 1.85261 3.59806 0
M  V30 3562 H 335.111 1.00257 2.96086 0
M  V30 3563 H 334.331 3.33504 2.10163 0
M  V30 3564 H 335.619 4.03718 3.0966 0
M  V30 3565 H 335.017 1.8036 5.36178 0
M  V30 3566 H 333.574 2.43877 6.04456 0
M  V30 3567 N 337.007 -0.598083 1.45811 0
M  V30 3568 C 337.937 -1.71873 1.58057 0
M  V30 3569 C 338.918 -1.64533 0.431615 0
M  V30 3570 O 340.103 -1.82787 0.65595 0
M  V30 3571 C 337.233 -3.10495 1.55597 0
M  V30 3572 C 336.187 -3.32654 2.69305 0
M  V30 3573 C 335.513 -4.71646 2.51902 0
M  V30 3574 C 336.813 -3.21981 4.11248 0
M  V30 3575 H 338.507 -1.61881 2.51863 0
M  V30 3576 H 336.053 -0.777372 1.21214 0
M  V30 3577 H 338.006 -3.88699 1.6276 0
M  V30 3578 H 336.73 -3.2135 0.583255 0
M  V30 3579 H 335.389 -2.56843 2.61586 0
M  V30 3580 H 335.037 -4.79246 1.52748 0
M  V30 3581 H 334.737 -4.87426 3.2816 0
M  V30 3582 H 336.261 -5.52038 2.60933 0
M  V30 3583 H 337.675 -3.90049 4.20161 0
M  V30 3584 H 336.072 -3.49289 4.87972 0
M  V30 3585 H 337.142 -2.1928 4.32486 0
M  V30 3586 N 338.485 -1.33259 -0.841409 0
M  V30 3587 C 339.713 -1.27605 -1.62864 0
M  V30 3588 C 340.128 0.153507 -1.88175 0
M  V30 3589 O 339.485 1.09485 -1.46011 0
M  V30 3590 C 339.536 -2.04596 -2.98031 0
M  V30 3591 O 339.257 -3.41975 -2.73834 0
M  V30 3592 C 340.758 -2.06122 -3.92465 0
M  V30 3593 H 337.978 -0.439718 -0.506842 0
M  V30 3594 H 340.522 -1.75591 -1.04824 0
M  V30 3595 H 338.677 -1.60299 -3.5268 0
M  V30 3596 H 339.091 -3.81549 -3.59889 0
M  V30 3597 H 340.565 -2.64451 -4.84531 0
M  V30 3598 H 341.042 -1.05083 -4.26444 0
M  V30 3599 H 341.648 -2.50427 -3.43753 0
M  V30 3600 N 339.963 1.05934 -1.16686 0
M  V30 3601 C 341.209 1.79065 -0.95203 0
M  V30 3602 C 341.542 1.87147 0.518629 0
M  V30 3603 O 340.817 1.36574 1.38484 0
M  V30 3604 C 341.1 3.23359 -1.58464 0
M  V30 3605 C 340.953 3.23336 -3.12689 0
M  V30 3606 C 342.272 4.21004 -1.28232 0
M  V30 3607 H 339.391 0.65005 -0.34728 0
M  V30 3608 H 342.033 1.23868 -1.44072 0
M  V30 3609 H 340.183 3.70493 -1.16908 0
M  V30 3610 H 341.855 2.84336 -3.6325 0
M  V30 3611 H 340.098 2.61886 -3.4583 0
M  V30 3612 H 340.769 4.25144 -3.52075 0
M  V30 3613 H 343.245 3.8233 -1.64203 0
M  V30 3614 H 342.121 5.20225 -1.75092 0
M  V30 3615 H 342.382 4.41639 -0.201791 0
M  V30 3616 N 341.441 0.965919 1.2453 0
M  V30 3617 C 342.351 0.502154 2.29163 0
M  V30 3618 C 343.367 -0.436017 1.68448 0
M  V30 3619 O 344.543 -0.309497 1.99008 0
M  V30 3620 C 341.608 -0.201956 3.46111 0
M  V30 3621 C 340.669 0.775821 4.22232 0
M  V30 3622 C 339.902 0.105217 5.33596 0
M  V30 3623 O 340.125 -1.10683 5.59558 0
M  V30 3624 O 339.059 0.796475 5.96607 0
M  V30 3625 H 342.885 1.37194 2.70946 0
M  V30 3626 H 340.47 0.732875 1.30189 0
M  V30 3627 H 342.352 -0.597564 4.17142 0
M  V30 3628 H 341.027 -1.04673 3.06309 0
M  V30 3629 H 339.934 1.22185 3.53584 0
M  V30 3630 H 341.267 1.58896 4.65846 0
M  V30 3631 N 342.919 -1.39368 0.735821 0
M  V30 3632 C 343.866 -2.30599 0.0963825 0
M  V30 3633 C 344.836 -1.49257 -0.728794 0
M  V30 3634 O 346.021 -1.77941 -0.688588 0
M  V30 3635 C 343.161 -3.35596 -0.804305 0
M  V30 3636 C 342.274 -4.31987 0.0335761 0
M  V30 3637 C 341.409 -5.24053 -0.868461 0
M  V30 3638 C 340.448 -6.12095 -0.0258776 0
M  V30 3639 N 339.585 -6.96514 -0.883893 0
M  V30 3640 H 344.425 -2.8471 0.880002 0
M  V30 3641 H 341.962 -1.40188 0.445619 0
M  V30 3642 H 343.92 -3.95062 -1.34096 0
M  V30 3643 H 342.55 -2.82938 -1.55389 0
M  V30 3644 H 341.602 -3.74133 0.68766 0
M  V30 3645 H 342.914 -4.94074 0.685036 0
M  V30 3646 H 342.068 -5.88549 -1.47293 0
M  V30 3647 H 340.807 -4.62289 -1.5537 0
M  V30 3648 H 339.812 -5.4661 0.591386 0
M  V30 3649 H 341.037 -6.75923 0.656156 0
M  V30 3650 H 338.983 -6.37318 -1.55441 0
M  V30 3651 H 338.9 -7.55448 -0.288931 0
M  V30 3652 H 340.168 -7.65439 -1.4739 0
M  V30 3653 N 344.397 -0.483516 -1.5 0
M  V30 3654 C 345.327 0.293829 -2.31644 0
M  V30 3655 C 346.308 0.978864 -1.39112 0
M  V30 3656 O 347.493 0.973644 -1.68029 0
M  V30 3657 C 344.623 1.36897 -3.19181 0
M  V30 3658 C 343.577 0.804833 -4.20365 0
M  V30 3659 C 342.903 1.9792 -4.96721 0
M  V30 3660 C 344.203 -0.192313 -5.21946 0
M  V30 3661 H 345.897 -0.387616 -2.9688 0
M  V30 3662 H 343.443 -0.187856 -1.42769 0
M  V30 3663 H 345.396 1.92037 -3.751 0
M  V30 3664 H 344.12 2.07936 -2.51853 0
M  V30 3665 H 342.779 0.275319 -3.65565 0
M  V30 3666 H 342.427 2.67686 -4.25856 0
M  V30 3667 H 342.127 1.60789 -5.65173 0
M  V30 3668 H 343.651 2.53526 -5.55479 0
M  V30 3669 H 345.065 0.270333 -5.72662 0
M  V30 3670 H 343.462 -0.478543 -5.98189 0
M  V30 3671 H 344.532 -1.11409 -4.71928 0
M  V30 3672 N 345.875 1.56104 -0.216619 0
M  V30 3673 C 346.785 2.23694 0.706982 0
M  V30 3674 C 347.801 1.24295 1.21765 0
M  V30 3675 O 348.977 1.57094 1.2603 0
M  V30 3676 C 346.042 2.8998 1.90033 0
M  V30 3677 C 345.103 4.04708 1.43213 0
M  V30 3678 C 344.336 4.67824 2.56859 0
M  V30 3679 O 344.559 4.29913 3.74874 0
M  V30 3680 O 343.493 5.56905 2.28343 0
M  V30 3681 H 347.319 3.03272 0.161235 0
M  V30 3682 H 344.904 1.49394 0.0136177 0
M  V30 3683 H 346.786 3.31837 2.59735 0
M  V30 3684 H 345.461 2.13365 2.43428 0
M  V30 3685 H 344.368 3.6743 0.70327 0
M  V30 3686 H 345.701 4.83051 0.944615 0
M  V30 3687 N 347.353 -0.0568162 1.57498 0
M  V30 3688 C 348.286 -1.09817 2.00039 0
M  V30 3689 C 349.264 -1.3674 0.879819 0
M  V30 3690 O 350.448 -1.49863 1.14338 0
M  V30 3691 C 347.575 -2.43924 2.34986 0
M  V30 3692 C 346.621 -2.33039 3.57204 0
M  V30 3693 S 347.454 -1.7102 5.07457 0
M  V30 3694 C 348.61 -3.06674 5.45621 0
M  V30 3695 H 348.843 -0.735701 2.88053 0
M  V30 3696 H 346.376 -0.265871 1.52094 0
M  V30 3697 H 348.334 -3.2106 2.55795 0
M  V30 3698 H 346.995 -2.77327 1.47474 0
M  V30 3699 H 346.188 -3.31973 3.79223 0
M  V30 3700 H 345.79 -1.64043 3.36104 0
M  V30 3701 H 348.082 -4.03 5.44608 0
M  V30 3702 H 349.025 -2.8942 6.46252 0
M  V30 3703 H 349.433 -3.07969 4.73091 0
M  V30 3704 N 348.832 -1.54138 -0.328536 0
M  V30 3705 C 349.795 -1.82462 -1.38709 0
M  V30 3706 C 350.795 -0.696229 -1.44946 0
M  V30 3707 O 351.985 -0.964535 -1.4506 0
M  V30 3708 C 349.117 -1.98018 -2.77492 0
M  V30 3709 H 350.31 -2.77037 -1.14851 0
M  V30 3710 H 347.863 -1.45779 -0.563751 0
M  V30 3711 H 348.598 -1.05637 -3.06613 0
M  V30 3712 H 348.383 -2.80124 -2.74359 0
M  V30 3713 H 349.873 -2.21396 -3.54081 0
M  V30 3714 N 350.31 0.590341 -1.46126 0
M  V30 3715 C 351.24 1.71032 -1.58966 0
M  V30 3716 C 352.221 1.64302 -0.440335 0
M  V30 3717 O 353.406 1.82436 -0.665634 0
M  V30 3718 C 350.536 3.09665 -1.57241 0
M  V30 3719 C 349.49 3.31221 -2.71066 0
M  V30 3720 C 348.816 4.70303 -2.54399 0
M  V30 3721 C 350.116 3.19796 -4.1295 0
M  V30 3722 H 351.81 1.60543 -2.52718 0
M  V30 3723 H 349.356 0.770933 -1.21625 0
M  V30 3724 H 351.309 3.87831 -1.64819 0
M  V30 3725 H 350.033 3.21036 -0.600289 0
M  V30 3726 H 348.692 2.55452 -2.62944 0
M  V30 3727 H 348.34 4.78429 -1.55288 0
M  V30 3728 H 348.04 4.85679 -3.30741 0
M  V30 3729 H 349.564 5.50647 -2.63857 0
M  V30 3730 H 350.978 3.87815 -4.22223 0
M  V30 3731 H 349.375 3.46696 -4.89818 0
M  V30 3732 H 350.445 2.16983 -4.33643 0
M  V30 3733 N 351.788 1.33704 0.83433 0
M  V30 3734 C 353.204 1.13137 1.12571 0
M  V30 3735 C 353.404 -0.0747261 2.01361 0
M  V30 3736 O 352.46 -0.753647 2.4099 0
M  V30 3737 C 353.773 2.42105 1.78342 0
M  V30 3738 C 355.321 2.48054 1.90888 0
M  V30 3739 C 355.796 3.76995 2.60075 0
M  V30 3740 N 357.287 3.78092 2.67584 0
M  V30 3741 C 358.022 4.74574 3.21818 0
M  V30 3742 N 357.518 5.81434 3.76705 0
M  V30 3743 N 359.311 4.62044 3.20112 0
M  V30 3744 H 351.462 2.11 0.243489 0
M  V30 3745 H 353.725 0.932532 0.17055 0
M  V30 3746 H 353.431 3.30391 1.20561 0
M  V30 3747 H 353.305 2.54594 2.7832 0
M  V30 3748 H 355.692 1.60215 2.47821 0
M  V30 3749 H 355.773 2.39502 0.898459 0
M  V30 3750 H 355.417 4.65219 2.03799 0
M  V30 3751 H 355.347 3.82825 3.61597 0
M  V30 3752 H 357.838 3.00865 2.28667 0
M  V30 3753 H 358.151 6.51084 4.16305 0
M  V30 3754 H 356.496 5.85163 3.7498 0
M  V30 3755 H 359.687 3.77716 2.76493 0
M  V30 3756 H 359.86 5.37406 3.62076 0
M  V30 3757 N 353.266 -1.05314 1.17247 0
M  V30 3758 C 354.176 -2.16538 0.90268 0
M  V30 3759 C 355.192 -1.73523 -0.128707 0
M  V30 3760 O 356.368 -2.01337 0.0502701 0
M  V30 3761 C 353.433 -3.44167 0.418356 0
M  V30 3762 C 352.494 -4.01635 1.51618 0
M  V30 3763 C 351.727 -5.23171 1.05487 0
M  V30 3764 O 351.95 -5.70327 -0.0914715 0
M  V30 3765 O 350.884 -5.72848 1.8474 0
M  V30 3766 H 354.71 -2.42145 1.83302 0
M  V30 3767 H 352.295 -1.15037 0.953246 0
M  V30 3768 H 354.177 -4.21112 0.155726 0
M  V30 3769 H 352.852 -3.20063 -0.48385 0
M  V30 3770 H 351.759 -3.26135 1.83268 0
M  V30 3771 H 353.092 -4.30053 2.39405 0
M  V30 3772 N 354.744 -0.972509 -1.24016 0
M  V30 3773 C 355.707 -0.511403 -2.23422 0
M  V30 3774 C 356.707 0.394679 -1.55881 0
M  V30 3775 O 357.897 0.189469 -1.73167 0
M  V30 3776 C 355.029 0.258769 -3.39916 0
M  V30 3777 H 356.222 -1.39024 -2.6573 0
M  V30 3778 H 353.775 -0.757585 -1.36713 0
M  V30 3779 H 354.51 1.1545 -3.03054 0
M  V30 3780 H 354.295 -0.391522 -3.9014 0
M  V30 3781 H 355.785 0.570244 -4.13688 0
M  V30 3782 N 356.222 1.38976 -0.743202 0
M  V30 3783 C 357.172 2.27843 -0.084513 0
M  V30 3784 C 358.156 1.44677 0.704094 0
M  V30 3785 O 359.348 1.67511 0.571755 0
M  V30 3786 C 356.477 3.33466 0.815781 0
M  V30 3787 C 355.563 4.24095 0.0208844 0
M  V30 3788 N 355.954 4.95609 -1.0102 0
M  V30 3789 C 354.252 4.45303 0.249293 0
M  V30 3790 C 354.953 5.62287 -1.49024 0
M  V30 3791 N 353.929 5.37571 -0.807377 0
M  V30 3792 H 357.731 2.80593 -0.87436 0
M  V30 3793 H 355.245 1.51755 -0.578283 0
M  V30 3794 H 357.242 3.96008 1.30321 0
M  V30 3795 H 355.902 2.82276 1.6047 0
M  V30 3796 H 356.913 4.98849 -1.39176 0
M  V30 3797 H 353.59 4.0504 1.01237 0
M  V30 3798 H 354.98 6.29519 -2.34853 0
M  V30 3799 N 357.7 0.491464 1.49741 0
M  V30 3800 C 358.925 -0.0557177 2.07325 0
M  V30 3801 C 359.35 -1.30925 1.35056 0
M  V30 3802 O 358.708 -1.76733 0.404365 0
M  V30 3803 C 358.756 -0.302074 3.59333 0
M  V30 3804 O 357.86 -1.37868 3.88672 0
M  V30 3805 H 357.201 0.0219956 0.663636 0
M  V30 3806 H 359.731 0.688352 1.92673 0
M  V30 3807 H 359.741 -0.536464 4.04458 0
M  V30 3808 H 358.416 0.61383 4.11345 0
M  V30 3809 H 356.993 -1.12999 3.55367 0
M  V30 3810 N 359.178 -1.55987 0.224894 0
M  V30 3811 C 360.088 -2.24066 -0.69511 0
M  V30 3812 C 361.104 -1.24939 -1.21104 0
M  V30 3813 O 362.28 -1.5776 -1.25195 0
M  V30 3814 C 359.345 -2.90983 -1.88493 0
M  V30 3815 C 358.406 -4.05462 -1.41064 0
M  V30 3816 C 357.639 -4.69179 -2.54375 0
M  V30 3817 O 357.862 -4.31895 -3.72589 0
M  V30 3818 O 356.796 -5.58108 -2.25386 0
M  V30 3819 H 360.622 -3.03353 -0.145149 0
M  V30 3820 H 358.207 -1.49399 -0.00569476 0
M  V30 3821 H 360.089 -3.33209 -2.57972 0
M  V30 3822 H 358.764 -2.14653 -2.42293 0
M  V30 3823 H 357.671 -3.67798 -0.683774 0
M  V30 3824 H 359.004 -4.83545 -0.918985 0
M  V30 3825 N 360.656 0.0484629 -1.57525 0
M  V30 3826 C 361.904 0.741657 -1.88 0
M  V30 3827 C 362.225 1.76918 -0.820054 0
M  V30 3828 O 361.495 1.95335 0.148661 0
M  V30 3829 H 360.075 0.276908 -0.69378 0
M  V30 3830 H 362.737 0.019013 -1.94891 0
M  V30 3831 H 361.833 1.24336 -2.86264 0
M  V30 3832 N 362.134 1.5431 0.320358 0
M  V30 3833 C 363.38 1.72924 1.05949 0
M  V30 3834 C 363.713 0.503185 1.87568 0
M  V30 3835 O 362.988 -0.499839 1.87968 0
M  V30 3836 C 363.271 3.00676 1.98156 0
M  V30 3837 C 363.124 4.3354 1.19845 0
M  V30 3838 C 364.443 3.24198 2.9763 0
M  V30 3839 H 361.562 0.629195 0.383774 0
M  V30 3840 H 364.204 1.87008 0.335854 0
M  V30 3841 H 362.354 2.888 2.59859 0
M  V30 3842 H 364.026 4.57305 0.605773 0
M  V30 3843 H 362.269 4.309 0.500784 0
M  V30 3844 H 362.94 5.19156 1.87567 0
M  V30 3845 H 365.416 3.35557 2.4605 0
M  V30 3846 H 364.292 4.14938 3.59329 0
M  V30 3847 H 364.553 2.41577 3.7026 0
M  V30 3848 N 363.613 -0.582584 1.46437 0
M  V30 3849 C 364.56 -1.69164 1.5701 0
M  V30 3850 C 365.53 -1.60847 0.414403 0
M  V30 3851 O 366.715 -1.80058 0.631171 0
M  V30 3852 C 363.855 -3.075 1.56646 0
M  V30 3853 C 362.968 -3.2644 2.82951 0
M  V30 3854 C 362.103 -4.55026 2.7409 0
M  V30 3855 C 361.142 -4.6731 3.95333 0
M  V30 3856 N 360.279 -5.87221 3.84858 0
M  V30 3857 H 365.119 -1.59464 2.51744 0
M  V30 3858 H 362.656 -0.777186 1.24893 0
M  V30 3859 H 364.614 -3.8757 1.5442 0
M  V30 3860 H 363.244 -3.16096 0.654439 0
M  V30 3861 H 362.296 -2.39974 2.95155 0
M  V30 3862 H 363.608 -3.31385 3.72808 0
M  V30 3863 H 362.762 -5.43324 2.6997 0
M  V30 3864 H 361.501 -4.52519 1.81873 0
M  V30 3865 H 360.506 -3.77429 3.99784 0
M  V30 3866 H 361.731 -4.71595 4.88646 0
M  V30 3867 H 359.677 -5.85712 2.95427 0
M  V30 3868 H 359.594 -5.93435 4.6837 0
M  V30 3869 H 360.862 -6.7795 3.84713 0
M  V30 3870 N 365.091 -1.34144 -0.827227 0
M  V30 3871 C 366.337 -1.26446 -1.58554 0
M  V30 3872 C 366.67 0.1664 -1.93486 0
M  V30 3873 O 365.945 1.1107 -1.59667 0
M  V30 3874 C 366.228 -2.15111 -2.8879 0
M  V30 3875 C 366.081 -3.66712 -2.60465 0
M  V30 3876 C 367.4 -2.03311 -3.90324 0
M  V30 3877 H 364.519 -0.46067 -0.575284 0
M  V30 3878 H 367.161 -1.64356 -0.953269 0
M  V30 3879 H 365.311 -1.8291 -3.42748 0
M  V30 3880 H 366.983 -4.09259 -2.1285 0
M  V30 3881 H 365.226 -3.88014 -1.93978 0
M  V30 3882 H 365.897 -4.24112 -3.53317 0
M  V30 3883 H 368.373 -2.31574 -3.45706 0
M  V30 3884 H 367.249 -2.67582 -4.79261 0
M  V30 3885 H 367.51 -1.00879 -4.30437 0
M  V30 3886 N 366.569 1.04691 -1.17803 0
M  V30 3887 C 367.516 2.12557 -0.899343 0
M  V30 3888 C 368.486 1.65339 0.158771 0
M  V30 3889 O 369.671 1.90789 0.0204797 0
M  V30 3890 C 366.811 3.42481 -0.424315 0
M  V30 3891 C 365.924 4.03346 -1.54713 0
M  V30 3892 C 365.059 5.21208 -1.02546 0
M  V30 3893 C 364.098 5.74089 -2.12339 0
M  V30 3894 N 363.235 6.83247 -1.61612 0
M  V30 3895 H 368.075 2.35734 -1.823 0
M  V30 3896 H 365.612 1.1564 -0.909159 0
M  V30 3897 H 367.57 4.16996 -0.130421 0
M  V30 3898 H 366.2 3.19471 0.462377 0
M  V30 3899 H 365.252 3.2622 -1.95664 0
M  V30 3900 H 366.564 4.38628 -2.37501 0
M  V30 3901 H 365.718 6.02812 -0.685718 0
M  V30 3902 H 364.457 4.87414 -0.167084 0
M  V30 3903 H 363.462 4.91111 -2.47165 0
M  V30 3904 H 364.687 6.0993 -2.98601 0
M  V30 3905 H 362.633 6.5134 -0.780533 0
M  V30 3906 H 362.55 7.17559 -2.38003 0
M  V30 3907 H 363.818 7.68491 -1.30545 0
M  V30 3908 N 368.047 0.979072 1.23499 0
M  V30 3909 C 369.295 0.645941 1.91499 0
M  V30 3910 C 369.616 -0.822948 1.76784 0
M  V30 3911 O 368.886 -1.58854 1.14639 0
M  V30 3912 H 367.466 0.235919 0.708767 0
M  V30 3913 H 370.128 1.2426 1.50152 0
M  V30 3914 H 369.224 0.896411 2.9895 0
M  V30 3915 N 369.525 -1.3858 0.750561 0
M  V30 3916 C 370.455 -2.33102 0.136237 0
M  V30 3917 C 371.436 -1.54713 -0.706965 0
M  V30 3918 O 372.621 -1.83043 -0.648769 0
M  V30 3919 C 369.751 -3.38882 -0.760017 0
M  V30 3920 C 368.705 -4.27995 -0.0197785 0
M  V30 3921 C 368.031 -5.24605 -1.03408 0
M  V30 3922 C 369.331 -5.09554 1.14684 0
M  V30 3923 H 371.025 -2.84726 0.925822 0
M  V30 3924 H 368.571 -1.36898 0.446654 0
M  V30 3925 H 370.524 -4.0397 -1.19943 0
M  V30 3926 H 369.248 -2.85734 -1.58189 0
M  V30 3927 H 367.907 -3.64409 0.400184 0
M  V30 3928 H 367.555 -4.67746 -1.84994 0
M  V30 3929 H 367.255 -5.85081 -0.543464 0
M  V30 3930 H 368.779 -5.9257 -1.47288 0
M  V30 3931 H 370.193 -5.67899 0.785118 0
M  V30 3932 H 368.59 -5.7925 1.56812 0
M  V30 3933 H 369.66 -4.4347 1.96118 0
M  V30 3934 N 371.003 -0.499398 -1.49478 0
M  V30 3935 C 372.252 0.0475259 -2.01644 0
M  V30 3936 C 372.565 1.38195 -1.38425 0
M  V30 3937 O 373.771 2.01547 -1.8191 0
M  V30 3938 C 372.227 0.135164 -3.59646 0
M  V30 3939 C 371.835 -1.19252 -4.31837 0
M  V30 3940 C 373.579 0.632538 -4.19761 0
M  V30 3941 C 371.486 -1.06713 -5.81693 0
M  V30 3942 H 370.416 0.0215349 -0.753692 0
M  V30 3943 H 373.067 -0.638577 -1.7203 0
M  V30 3944 H 371.449 0.885681 -3.85969 0
M  V30 3945 H 372.623 -1.9562 -4.17216 0
M  V30 3946 H 370.938 -1.62321 -3.83459 0
M  V30 3947 H 373.535 0.743833 -5.29501 0
M  V30 3948 H 373.878 1.63098 -3.83021 0
M  V30 3949 H 374.411 -0.0613987 -3.97753 0
M  V30 3950 H 371.15 -2.03979 -6.22955 0
M  V30 3951 H 370.67 -0.344307 -5.98811 0
M  V30 3952 H 372.349 -0.745208 -6.42694 0
M  V30 3953 N 372.481 1.55866 -0.233164 0
M  V30 3954 C 373.411 2.23783 0.666599 0
M  V30 3955 C 374.392 1.21343 1.19205 0
M  V30 3956 O 375.577 1.4996 1.23392 0
M  V30 3957 C 372.707 2.92671 1.86978 0
M  V30 3958 C 371.661 4.01682 1.47768 0
M  V30 3959 C 370.987 4.57926 2.76058 0
M  V30 3960 C 372.287 5.18126 0.658993 0
M  V30 3961 H 373.981 2.99232 0.100306 0
M  V30 3962 H 371.527 1.43924 0.046804 0
M  V30 3963 H 373.48 3.3888 2.50476 0
M  V30 3964 H 372.204 2.14688 2.46123 0
M  V30 3965 H 370.863 3.56222 0.866106 0
M  V30 3966 H 370.511 3.76659 3.33372 0
M  V30 3967 H 370.211 5.31505 2.50552 0
M  V30 3968 H 371.735 5.06859 3.40479 0
M  V30 3969 H 373.149 5.60644 1.19795 0
M  V30 3970 H 371.546 5.98009 0.500552 0
M  V30 3971 H 372.616 4.83763 -0.331856 0
M  V30 3972 N 373.959 -0.0401083 1.57549 0
M  V30 3973 C 375.208 -0.732108 1.87944 0
M  V30 3974 C 375.521 -1.77107 0.830206 0
M  V30 3975 O 376.727 -2.51488 1.02302 0
M  V30 3976 C 375.183 -1.35315 3.33494 0
M  V30 3977 C 374.791 -0.351105 4.46622 0
M  V30 3978 C 376.535 -2.02566 3.73051 0
M  V30 3979 C 374.442 -0.979859 5.83226 0
M  V30 3980 H 373.372 -0.277188 0.701201 0
M  V30 3981 H 376.023 0.0138501 1.83495 0
M  V30 3982 H 374.405 -2.14844 3.32653 0
M  V30 3983 H 375.579 0.416674 4.58912 0
M  V30 3984 H 373.894 0.218708 4.15825 0
M  V30 3985 H 376.491 -2.50441 4.72423 0
M  V30 3986 H 376.834 -2.83904 3.04474 0
M  V30 3987 H 377.367 -1.29827 3.76018 0
M  V30 3988 H 374.106 -0.206135 6.55176 0
M  V30 3989 H 373.626 -1.71774 5.74677 0
M  V30 3990 H 375.305 -1.49046 6.29599 0
M  V30 3991 N 375.437 -1.54477 -0.31217 0
M  V30 3992 C 376.662 -1.77526 -1.07235 0
M  V30 3993 C 377.087 -0.527775 -1.80544 0
M  V30 3994 O 376.445 0.52121 -1.73646 0
M  V30 3995 C 376.493 -2.97535 -2.03728 0
M  V30 3996 O 375.597 -2.69878 -3.11833 0
M  V30 3997 H 374.938 -0.58792 -0.30862 0
M  V30 3998 H 377.468 -2.01532 -0.352993 0
M  V30 3999 H 377.478 -3.25198 -2.46395 0
M  V30 4000 H 376.153 -3.87996 -1.49774 0
M  V30 4001 H 374.73 -2.53199 -2.7376 0
M  V30 4002 N 376.915 0.57481 -1.46744 0
M  V30 4003 C 378.326 1.15695 -1.46532 0
M  V30 4004 C 378.677 1.95068 -0.210425 0
M  V30 4005 O 377.802 2.05241 0.685944 0
M  V30 4006 C 378.397 2.1048 -2.65487 0
M  V30 4007 C 376.956 2.64002 -2.68291 0
M  V30 4008 C 376.103 1.40026 -2.39349 0
M  V30 4009 H 379.054 0.362325 -1.54509 0
M  V30 4010 H 379.075 2.94074 -2.41455 0
M  V30 4011 H 378.587 1.52683 -3.56805 0
M  V30 4012 H 376.688 3.25646 -1.81067 0
M  V30 4013 H 376.801 3.06197 -3.68483 0
M  V30 4014 H 375.165 1.70106 -1.89568 0
M  V30 4015 H 375.948 0.840485 -3.32852 0
M  V30 4016 N 378.394 1.34581 0.820102 0
M  V30 4017 C 379.326 1.22236 1.93884 0
M  V30 4018 C 380.339 0.148776 1.62119 0
M  V30 4019 O 381.528 0.400877 1.7394 0
M  V30 4020 C 378.628 0.856542 3.27897 0
M  V30 4021 C 377.801 2.02569 3.87666 0
M  V30 4022 C 376.86 1.63782 5.00062 0
M  V30 4023 O 375.886 2.35477 5.18208 0
M  V30 4024 N 377.088 0.553611 5.77854 0
M  V30 4025 H 379.853 2.18615 2.05006 0
M  V30 4026 H 377.414 1.27573 0.99683 0
M  V30 4027 H 379.406 0.578806 4.0054 0
M  V30 4028 H 377.976 -0.0171518 3.12595 0
M  V30 4029 H 377.196 2.468 3.07382 0
M  V30 4030 H 378.484 2.80752 4.24329 0
M  V30 4031 H 377.882 -0.0423528 5.65684 0
M  V30 4032 H 376.439 0.335614 6.50935 0
M  V30 4033 N 379.872 -1.04064 1.18357 0
M  V30 4034 C 380.82 -2.14187 0.907007 0
M  V30 4035 C 381.814 -1.68879 -0.132725 0
M  V30 4036 O 383.02 -1.79993 0.0154248 0
M  V30 4037 H 379.395 -0.699585 0.275835 0
M  V30 4038 H 381.366 -2.34711 1.84264 0
M  V30 4039 C 380.115 -3.44785 0.449254 0
M  V30 4040 H 379.438 -3.80058 1.24081 0
M  V30 4041 H 380.878 -4.22974 0.294737 0
M  V30 4042 C 379.337 -3.26391 -0.834909 0
M  V30 4043 O 379.867 -3.53973 -1.89911 0
M  V30 4044 N 378.073 -2.79726 -0.787523 0
M  V30 4045 H 377.62 -2.5748 0.0787347 0
M  V30 4046 H 377.578 -2.67798 -1.64716 0
M  V30 4047 N 381.35 -0.985608 -1.22978 0
M  V30 4048 C 382.761 -0.693593 -1.73338 0
M  V30 4049 C 383.112 0.789935 -1.79595 0
M  V30 4050 O 382.237 1.61771 -1.43733 0
M  V30 4051 C 382.832 -1.25235 -3.14804 0
M  V30 4052 C 381.391 -1.00987 -3.626 0
M  V30 4053 C 380.538 -1.37695 -2.40698 0
M  V30 4054 H 383.489 -1.15884 -1.08428 0
M  V30 4055 H 383.51 -0.627329 -3.75293 0
M  V30 4056 H 383.022 -2.33209 -3.10218 0
M  V30 4057 H 381.123 0.0535565 -3.72562 0
M  V30 4058 H 381.236 -1.66812 -4.49122 0
M  V30 4059 H 379.6 -0.795459 -2.4196 0
M  V30 4060 H 380.383 -2.46657 -2.38779 0
M  V30 4061 N 382.828 1.3818 -0.7579 0
M  V30 4062 C 383.758 2.33027 -0.148597 0
M  V30 4063 C 384.739 1.55085 0.69875 0
M  V30 4064 O 385.924 1.83384 0.639053 0
M  V30 4065 C 383.054 3.3928 0.742034 0
M  V30 4066 C 382.008 4.28 -0.00291946 0
M  V30 4067 C 381.334 5.25146 1.00625 0
M  V30 4068 C 382.634 5.08938 -1.17385 0
M  V30 4069 H 384.328 2.84231 -0.940909 0
M  V30 4070 H 381.874 1.36659 -0.453908 0
M  V30 4071 H 383.827 4.046 1.17799 0
M  V30 4072 H 382.551 2.86569 1.56671 0
M  V30 4073 H 381.21 3.64192 -0.419504 0
M  V30 4074 H 380.858 4.68721 1.8251 0
M  V30 4075 H 380.558 5.85361 0.512428 0
M  V30 4076 H 382.082 5.93342 1.44143 0
M  V30 4077 H 383.496 5.67474 -0.815224 0
M  V30 4078 H 381.893 5.7841 -1.59882 0
M  V30 4079 H 382.963 4.42424 -1.98468 0
M  V30 4080 N 384.306 0.507319 1.49211 0
M  V30 4081 C 385.554 -0.0348839 2.0207 0
M  V30 4082 C 385.875 -1.36898 1.38866 0
M  V30 4083 O 385.145 -1.88133 0.546151 0
M  V30 4084 H 383.725 -0.0158812 0.746831 0
M  V30 4085 H 386.387 0.665998 1.83168 0
M  V30 4086 H 385.483 -0.159917 3.1169 0
M  V30 4087 N 385.784 -1.5574 0.241426 0
M  V30 4088 C 387.061 -1.90704 -0.434881 0
M  V30 4089 C 387.441 -1.16145 -1.76277 0
M  V30 4090 O 386.789 -0.277152 -2.26813 0
M  V30 4091 C 386.999 -3.43657 -0.608343 0
M  V30 4092 C 388.347 -4.14806 -0.906725 0
M  V30 4093 O 389.371 -3.49366 -0.694408 0
M  V30 4094 O 388.23 -5.30548 -1.31075 0
M  V30 4095 H 385.324 -0.793592 -0.23268 0
M  V30 4096 H 387.87 -1.67288 0.285086 0
M  V30 4097 H 386.642 -3.89927 0.327505 0
M  V30 4098 H 386.265 -3.72918 -1.37906 0
M  V30 4099 N 387.262 0.0317525 -1.57568 0
M  V30 4100 C 388.508 0.724175 -1.8943 0
M  V30 4101 C 388.841 1.75149 -0.838836 0
M  V30 4102 O 388.116 1.93948 0.146422 0
M  V30 4103 C 388.399 1.39615 -3.31933 0
M  V30 4104 C 388.252 0.382537 -4.4817 0
M  V30 4105 C 389.571 2.33084 -3.73309 0
M  V30 4106 H 386.69 0.261797 -0.688935 0
M  V30 4107 H 389.332 -0.013017 -1.89996 0
M  V30 4108 H 387.482 2.02451 -3.31581 0
M  V30 4109 H 389.154 -0.243689 -4.60656 0
M  V30 4110 H 387.397 -0.29844 -4.32772 0
M  V30 4111 H 388.068 0.891145 -5.44759 0
M  V30 4112 H 390.544 1.80295 -3.7501 0
M  V30 4113 H 389.42 2.77084 -4.73831 0
M  V30 4114 H 389.681 3.19643 -3.05419 0
M  V30 4115 N 388.74 1.54641 0.303973 0
M  V30 4116 C 389.97 1.77511 1.05705 0
M  V30 4117 C 390.378 0.533228 1.81531 0
M  V30 4118 O 389.721 -0.506423 1.76582 0
M  V30 4119 C 389.783 2.92779 2.08617 0
M  V30 4120 C 389.447 4.30977 1.52013 0
M  V30 4121 C 390.444 5.11115 0.9517 0
M  V30 4122 C 388.129 4.77571 1.55665 0
M  V30 4123 C 390.123 6.35966 0.427327 0
M  V30 4124 C 387.81 6.02384 1.02841 0
M  V30 4125 C 388.808 6.81417 0.464713 0
M  V30 4126 O 388.496 8.03881 -0.0555283 0
M  V30 4127 H 388.228 0.59579 0.319391 0
M  V30 4128 H 390.782 2.02401 0.349712 0
M  V30 4129 H 389.012 2.63506 2.83022 0
M  V30 4130 H 390.701 3.03252 2.69802 0
M  V30 4131 H 391.467 4.76264 0.916407 0
M  V30 4132 H 387.346 4.16085 1.9848 0
M  V30 4133 H 390.89 6.97599 -0.0133062 0
M  V30 4134 H 386.787 6.36723 1.06084 0
M  V30 4135 H 387.555 8.18479 0.0580522 0
M  V30 4136 N 390.218 -0.567019 1.47046 0
M  V30 4137 C 391.443 -1.3551 1.57009 0
M  V30 4138 C 391.868 -1.86841 0.217259 0
M  V30 4139 O 391.226 -1.62435 -0.805268 0
M  V30 4140 C 391.274 -2.50777 2.5912 0
M  V30 4141 O 390.378 -3.52706 2.13711 0
M  V30 4142 H 389.719 -0.402919 0.52778 0
M  V30 4143 H 392.249 -0.686241 1.92748 0
M  V30 4144 H 392.259 -2.97481 2.79229 0
M  V30 4145 H 390.934 -2.12771 3.57353 0
M  V30 4146 H 389.511 -3.12374 2.03659 0
M  V30 4147 N 391.696 -1.35014 -0.812953 0
M  V30 4148 C 393.107 -1.25035 -1.38648 0
M  V30 4149 C 393.458 0.119967 -1.95833 0
M  V30 4150 O 392.583 1.02069 -1.90816 0
M  V30 4151 C 393.178 -2.26394 -2.52054 0
M  V30 4152 C 391.737 -2.20175 -3.05287 0
M  V30 4153 C 390.884 -2.12451 -1.78213 0
M  V30 4154 H 393.835 -1.46235 -0.616516 0
M  V30 4155 H 393.856 -1.88672 -3.30429 0
M  V30 4156 H 393.368 -3.26116 -2.10404 0
M  V30 4157 H 391.469 -1.23841 -3.51417 0
M  V30 4158 H 391.582 -3.11863 -3.63701 0
M  V30 4159 H 389.946 -1.58328 -1.9951 0
M  V30 4160 H 390.729 -3.14024 -1.38723 0
M  V30 4161 N 393.175 1.03435 -1.18907 0
M  V30 4162 C 394.085 2.15075 -0.937015 0
M  V30 4163 C 395.101 1.73706 0.101085 0
M  V30 4164 O 396.277 2.01232 -0.0822948 0
M  V30 4165 C 393.342 3.43458 -0.473057 0
M  V30 4166 C 392.403 3.99172 -1.57989 0
M  V30 4167 C 391.636 5.21427 -1.13797 0
M  V30 4168 O 391.859 5.704 0.000725941 0
M  V30 4169 O 390.793 5.69837 -1.9383 0
M  V30 4170 H 394.619 2.39198 -1.87131 0
M  V30 4171 H 392.204 1.13506 -0.971427 0
M  V30 4172 H 394.086 4.20811 -0.222702 0
M  V30 4173 H 392.761 3.20793 0.432869 0
M  V30 4174 H 391.668 3.23178 -1.88433 0
M  V30 4175 H 393.001 4.2619 -2.46217 0
M  V30 4176 N 394.653 0.992116 1.22453 0
M  V30 4177 C 395.563 0.55065 2.28046 0
M  V30 4178 C 396.579 -0.400189 1.69335 0
M  V30 4179 O 397.755 -0.267215 1.99619 0
M  V30 4180 C 394.82 -0.128496 3.46462 0
M  V30 4181 C 393.881 0.865208 4.20491 0
M  V30 4182 C 393.114 0.218377 5.33253 0
M  V30 4183 O 393.337 -0.987894 5.6178 0
M  V30 4184 O 392.271 0.922845 5.94783 0
M  V30 4185 H 396.097 1.4291 2.67975 0
M  V30 4186 H 393.682 0.760326 1.28606 0
M  V30 4187 H 395.564 -0.508947 4.18315 0
M  V30 4188 H 394.239 -0.981526 3.0846 0
M  V30 4189 H 393.146 1.29658 3.50913 0
M  V30 4190 H 394.479 1.68741 4.62371 0
M  V30 4191 N 396.131 -1.37776 0.765217 0
M  V30 4192 C 397.061 -2.32945 0.160953 0
M  V30 4193 C 398.042 -1.55454 -0.690516 0
M  V30 4194 O 399.227 -1.83721 -0.629318 0
M  V30 4195 C 396.357 -3.39669 -0.724031 0
M  V30 4196 C 395.311 -4.27992 0.0256173 0
M  V30 4197 C 394.637 -5.25673 -0.978383 0
M  V30 4198 C 395.937 -5.08309 1.20082 0
M  V30 4199 H 397.631 -2.83728 0.955969 0
M  V30 4200 H 395.177 -1.36416 0.461149 0
M  V30 4201 H 397.13 -4.05219 -1.15652 0
M  V30 4202 H 395.854 -2.87396 -1.5515 0
M  V30 4203 H 394.513 -3.63964 0.438812 0
M  V30 4204 H 394.161 -4.69682 -1.80022 0
M  V30 4205 H 393.861 -5.85625 -0.481378 0
M  V30 4206 H 395.385 -5.94098 -1.40995 0
M  V30 4207 H 396.799 -5.67034 0.845307 0
M  V30 4208 H 395.196 -5.77554 1.62947 0
M  V30 4209 H 396.266 -4.41365 2.00811 0
M  V30 4210 N 397.609 -0.515225 -1.4894 0
M  V30 4211 C 398.541 0.292481 -2.27326 0
M  V30 4212 C 399.554 0.917838 -1.3446 0
M  V30 4213 O 400.743 0.798772 -1.5963 0
M  V30 4214 C 397.843 1.42803 -3.07344 0
M  V30 4215 C 397.016 0.907347 -4.27885 0
M  V30 4216 C 396.075 1.92222 -4.89834 0
M  V30 4217 O 395.101 1.48506 -5.49486 0
M  V30 4218 N 396.303 3.25355 -4.80754 0
M  V30 4219 H 399.068 -0.379721 -2.97285 0
M  V30 4220 H 396.629 -0.348638 -1.58102 0
M  V30 4221 H 398.621 2.10481 -3.45658 0
M  V30 4222 H 397.191 2.00414 -2.39902 0
M  V30 4223 H 396.411 0.0550218 -3.94162 0
M  V30 4224 H 397.699 0.538108 -5.05946 0
M  V30 4225 H 397.097 3.6355 -4.33414 0
M  V30 4226 H 395.654 3.88707 -5.23211 0
M  V30 4227 N 399.087 1.5561 -0.249682 0
M  V30 4228 C 399.997 2.25143 0.659375 0
M  V30 4229 C 401.013 1.2685 1.19101 0
M  V30 4230 O 402.189 1.59732 1.22669 0
M  V30 4231 C 399.254 2.93945 1.8384 0
M  V30 4232 C 398.315 4.07655 1.34596 0
M  V30 4233 C 397.548 4.73167 2.46878 0
M  V30 4234 O 397.771 4.37768 3.65671 0
M  V30 4235 O 396.705 5.61623 2.16478 0
M  V30 4236 H 400.531 3.03545 0.0968698 0
M  V30 4237 H 398.116 1.49389 -0.018074 0
M  V30 4238 H 399.998 3.37271 2.52638 0
M  V30 4239 H 398.673 2.18481 2.38847 0
M  V30 4240 H 397.58 3.68839 0.625174 0
M  V30 4241 H 398.913 4.84946 0.841941 0
M  V30 4242 N 400.565 -0.0233959 1.57583 0
M  V30 4243 C 401.795 -0.723631 1.93513 0
M  V30 4244 C 402.203 -1.69115 0.848333 0
M  V30 4245 O 401.546 -1.82781 -0.183484 0
M  V30 4246 C 401.608 -1.53075 3.25282 0
M  V30 4247 C 401.272 -0.727388 4.51174 0
M  V30 4248 C 402.269 -0.0251924 5.19894 0
M  V30 4249 C 399.954 -0.680256 4.97672 0
M  V30 4250 C 401.948 0.713374 6.33395 0
M  V30 4251 C 399.635 0.0620523 6.11068 0
M  V30 4252 C 400.633 0.757622 6.78785 0
M  V30 4253 O 400.321 1.48787 7.90011 0
M  V30 4254 H 400.053 -0.208051 0.643188 0
M  V30 4255 H 402.607 0.0167489 2.05393 0
M  V30 4256 H 400.837 -2.31508 3.09744 0
M  V30 4257 H 402.526 -2.11413 3.46496 0
M  V30 4258 H 403.292 -0.0526003 4.84971 0
M  V30 4259 H 399.171 -1.21116 4.44805 0
M  V30 4260 H 402.715 1.25683 6.86185 0
M  V30 4261 H 398.612 0.0913634 6.45435 0
M  V30 4262 H 399.38 1.40213 8.06401 0
M  V30 4263 N 402.043 -1.548 -0.295768 0
M  V30 4264 C 402.973 -1.89115 -1.36959 0
M  V30 4265 C 403.954 -0.75059 -1.52644 0
M  V30 4266 O 405.139 -1.00678 -1.66065 0
M  V30 4267 C 402.269 -2.14307 -2.73295 0
M  V30 4268 C 401.223 -3.30151 -2.72368 0
M  V30 4269 C 400.549 -3.40772 -4.12042 0
M  V30 4270 C 401.849 -4.67126 -2.33646 0
M  V30 4271 H 403.543 -2.79053 -1.08488 0
M  V30 4272 H 401.089 -1.34266 -0.520443 0
M  V30 4273 H 403.042 -2.36898 -3.48507 0
M  V30 4274 H 401.766 -1.21145 -3.03301 0
M  V30 4275 H 400.425 -3.0749 -1.99613 0
M  V30 4276 H 400.073 -2.45117 -4.39234 0
M  V30 4277 H 399.773 -4.18645 -4.12322 0
M  V30 4278 H 401.297 -3.6563 -4.89027 0
M  V30 4279 H 402.711 -4.89414 -2.98575 0
M  V30 4280 H 401.108 -5.47751 -2.45129 0
M  V30 4281 H 402.178 -4.67489 -1.28772 0
M  V30 4282 N 403.521 0.559213 -1.47345 0
M  V30 4283 C 404.767 1.31843 -1.54095 0
M  V30 4284 C 405.1 1.93149 -0.201726 0
M  V30 4285 O 404.375 1.77759 0.789428 0
M  V30 4286 C 404.658 2.43006 -2.65744 0
M  V30 4287 C 404.511 1.86581 -4.09277 0
M  V30 4288 C 405.83 3.44943 -2.73318 0
M  V30 4289 H 402.949 0.478012 -0.560957 0
M  V30 4290 H 405.591 0.625977 -1.79392 0
M  V30 4291 H 403.741 3.02072 -2.44305 0
M  V30 4292 H 405.413 1.31792 -4.42073 0
M  V30 4293 H 403.656 1.17268 -4.17649 0
M  V30 4294 H 404.327 2.66933 -4.83168 0
M  V30 4295 H 406.803 2.95793 -2.92653 0
M  V30 4296 H 405.679 4.20153 -3.53218 0
M  V30 4297 H 405.94 4.03665 -1.80296 0
M  V30 4298 N 404.999 1.35443 0.805782 0
M  V30 4299 C 406.246 1.28761 1.56291 0
M  V30 4300 C 406.574 -0.137747 1.94012 0
M  V30 4301 O 405.829 -1.1032 1.61642 0
M  V30 4302 C 406.128 2.14045 2.86216 0
M  V30 4303 C 405.794 3.62826 2.67709 0
M  V30 4304 C 404.456 4.0338 2.6237 0
M  V30 4305 C 406.808 4.57227 2.50186 0
M  V30 4306 C 404.136 5.36501 2.37451 0
M  V30 4307 C 406.488 5.90547 2.26797 0
M  V30 4308 C 405.152 6.30245 2.1988 0
M  V30 4309 H 404.422 0.471171 0.571908 0
M  V30 4310 H 407.069 1.67347 0.930974 0
M  V30 4311 H 405.374 1.68342 3.53791 0
M  V30 4312 H 407.071 2.0621 3.43917 0
M  V30 4313 H 403.661 3.30644 2.72713 0
M  V30 4314 H 407.845 4.2678 2.53323 0
M  V30 4315 H 403.101 5.66259 2.30567 0
M  V30 4316 H 407.275 6.63274 2.12228 0
M  V30 4317 H 404.902 7.33328 2.00333 0
M  V30 4318 N 406.477 -1.02803 1.19454 0
M  V30 4319 C 407.44 -2.09264 0.934955 0
M  V30 4320 C 408.44 -1.60576 -0.0849015 0
M  V30 4321 O 409.63 -1.73554 0.149933 0
M  V30 4322 C 406.762 -3.38482 0.40531 0
M  V30 4323 H 407.955 -2.33726 1.87916 0
M  V30 4324 H 405.508 -1.19426 1.00832 0
M  V30 4325 H 406.243 -3.19689 -0.544899 0
M  V30 4326 H 406.028 -3.75142 1.14065 0
M  V30 4327 H 407.518 -4.16894 0.242806 0
M  V30 4328 N 407.956 -0.998596 -1.21925 0
M  V30 4329 C 408.903 -0.553621 -2.24062 0
M  V30 4330 C 409.873 0.416999 -1.6078 0
M  V30 4331 O 411.058 0.320482 -1.88089 0
M  V30 4332 C 408.198 0.119959 -3.44891 0
M  V30 4333 C 407.311 -0.893077 -4.22668 0
M  V30 4334 C 406.446 -0.192424 -5.30851 0
M  V30 4335 C 405.485 -1.19344 -6.00353 0
M  V30 4336 N 404.622 -0.520707 -7.00166 0
M  V30 4337 H 409.462 -1.4293 -2.61486 0
M  V30 4338 H 406.999 -0.715838 -1.28507 0
M  V30 4339 H 408.957 0.527459 -4.13852 0
M  V30 4340 H 407.587 0.959389 -3.08214 0
M  V30 4341 H 406.639 -1.41886 -3.52948 0
M  V30 4342 H 407.951 -1.65512 -4.70539 0
M  V30 4343 H 407.105 0.271515 -6.06092 0
M  V30 4344 H 405.844 0.602075 -4.83969 0
M  V30 4345 H 404.849 -1.66795 -5.23889 0
M  V30 4346 H 406.074 -1.98891 -6.49322 0
M  V30 4347 H 404.02 0.254252 -6.55507 0
M  V30 4348 H 403.937 -1.2211 -7.46073 0
M  V30 4349 H 405.205 -0.0797596 -7.79459 0
M  V30 4350 N 409.434 1.37368 -0.772513 0
M  V30 4351 C 410.85 1.53059 -0.452231 0
M  V30 4352 C 411.05 1.73065 1.03203 0
M  V30 4353 O 410.106 1.75245 1.81784 0
M  V30 4354 C 411.419 2.72659 -1.26797 0
M  V30 4355 C 412.967 2.86521 -1.25995 0
M  V30 4356 C 413.442 4.09105 -2.05905 0
M  V30 4357 N 414.933 4.16219 -2.03263 0
M  V30 4358 C 415.668 5.10107 -2.61875 0
M  V30 4359 N 415.164 6.09547 -3.29278 0
M  V30 4360 N 416.957 5.02596 -2.51701 0
M  V30 4361 H 409.108 1.22634 -1.7342 0
M  V30 4362 H 411.371 0.597206 -0.736239 0
M  V30 4363 H 411.077 2.64343 -2.31982 0
M  V30 4364 H 410.951 3.66363 -0.897672 0
M  V30 4365 H 413.338 2.94308 -0.216081 0
M  V30 4366 H 413.419 1.93774 -1.66989 0
M  V30 4367 H 413.063 4.0208 -3.10313 0
M  V30 4368 H 412.993 5.00968 -1.62292 0
M  V30 4369 H 415.484 3.45012 -1.54192 0
M  V30 4370 H 415.797 6.77718 -3.71374 0
M  V30 4371 H 414.142 6.09824 -3.33377 0
M  V30 4372 H 417.333 4.23855 -1.98657 0
M  V30 4373 H 417.506 5.75582 -2.97673 0
M  V30 4374 N 410.912 0.523116 1.48665 0
M  V30 4375 C 411.862 -0.263106 2.26477 0
M  V30 4376 C 412.846 -0.916005 1.32281 0
M  V30 4377 O 414.038 -0.819946 1.56863 0
M  V30 4378 C 411.167 -1.31361 3.17174 0
M  V30 4379 C 410.253 -0.665849 4.1884 0
M  V30 4380 N 410.644 0.244434 5.05209 0
M  V30 4381 C 408.942 -0.923863 4.36326 0
M  V30 4382 C 409.643 0.617443 5.78414 0
M  V30 4383 N 408.619 -0.0198686 5.43596 0
M  V30 4384 H 412.421 0.437295 2.90629 0
M  V30 4385 H 409.935 0.340675 1.58787 0
M  V30 4386 H 411.932 -1.89052 3.71571 0
M  V30 4387 H 410.592 -2.01546 2.54576 0
M  V30 4388 H 411.603 0.616621 5.14216 0
M  V30 4389 H 408.28 -1.6168 3.84923 0
M  V30 4390 H 409.67 1.36346 6.57921 0
M  V30 4391 N 412.39 -1.55475 0.257931 0
M  V30 4392 C 413.806 -1.59307 -0.0966563 0
M  V30 4393 C 414.006 -1.27514 -1.5602 0
M  V30 4394 O 413.062 -1.02774 -2.30637 0
M  V30 4395 C 414.375 -2.99552 0.262481 0
M  V30 4396 C 415.923 -3.1231 0.207683 0
M  V30 4397 C 416.398 -4.54793 0.541012 0
M  V30 4398 N 417.889 -4.6058 0.491921 0
M  V30 4399 C 418.624 -5.68825 0.722857 0
M  V30 4400 N 418.12 -6.85287 1.0175 0
M  V30 4401 N 419.913 -5.58296 0.652815 0
M  V30 4402 H 412.064 -1.74409 1.21224 0
M  V30 4403 H 414.327 -0.812424 0.48854 0
M  V30 4404 H 414.033 -3.27593 1.27967 0
M  V30 4405 H 413.907 -3.75019 -0.40508 0
M  V30 4406 H 416.294 -2.84044 -0.800195 0
M  V30 4407 H 416.375 -2.39095 0.909255 0
M  V30 4408 H 416.019 -4.83783 1.5465 0
M  V30 4409 H 415.949 -5.26285 -0.18216 0
M  V30 4410 H 418.44 -3.7691 0.273366 0
M  V30 4411 H 418.753 -7.63725 1.18084 0
M  V30 4412 H 417.098 -6.86945 1.05509 0
M  V30 4413 H 420.289 -4.66189 0.422592 0
M  V30 4414 H 420.462 -6.42582 0.836182 0
M  V30 4415 N 413.868 0.0150385 -1.57593 0
M  V30 4416 C 414.798 1.01047 -2.10503 0
M  V30 4417 C 415.779 1.36816 -1.01071 0
M  V30 4418 O 416.964 1.45455 -1.28672 0
M  V30 4419 C 414.094 2.30708 -2.59598 0
M  V30 4420 C 413.048 2.09142 -3.73421 0
M  V30 4421 C 412.374 3.44685 -4.08774 0
M  V30 4422 C 413.674 1.46619 -5.01298 0
M  V30 4423 H 415.368 0.569978 -2.93925 0
M  V30 4424 H 412.914 0.272724 -1.41394 0
M  V30 4425 H 414.867 3.00687 -2.95238 0
M  V30 4426 H 413.591 2.76843 -1.73279 0
M  V30 4427 H 412.25 1.41592 -3.38153 0
M  V30 4428 H 411.898 3.88495 -3.195 0
M  V30 4429 H 411.598 3.31077 -4.8545 0
M  V30 4430 H 413.122 4.16004 -4.4696 0
M  V30 4431 H 414.536 2.06535 -5.34805 0
M  V30 4432 H 412.933 1.43544 -5.82679 0
M  V30 4433 H 414.003 0.433611 -4.82957 0
M  V30 4434 N 415.346 1.54954 0.287554 0
M  V30 4435 C 416.296 1.8322 1.357 0
M  V30 4436 C 417.28 0.690152 1.45347 0
M  V30 4437 O 418.472 0.951137 1.49273 0
M  V30 4438 C 415.601 2.09481 2.71979 0
M  V30 4439 C 414.687 3.29906 2.66502 0
M  V30 4440 N 415.078 4.50154 2.30641 0
M  V30 4441 C 413.376 3.32203 2.97585 0
M  V30 4442 C 414.077 5.32209 2.34794 0
M  V30 4443 N 413.053 4.70258 2.72688 0
M  V30 4444 H 416.855 2.73746 1.0696 0
M  V30 4445 H 414.369 1.54635 0.496167 0
M  V30 4446 H 416.366 2.27882 3.49107 0
M  V30 4447 H 415.026 1.2023 3.0162 0
M  V30 4448 H 416.037 4.76515 2.02865 0
M  V30 4449 H 412.714 2.53101 3.32034 0
M  V30 4450 H 414.104 6.38321 2.09753 0
M  V30 4451 N 416.824 -0.551391 1.4764 0
M  V30 4452 C 418.07 -1.31024 1.54792 0
M  V30 4453 C 418.403 -1.9304 0.211967 0
M  V30 4454 O 417.678 -1.78175 -0.77999 0
M  V30 4455 C 417.961 -2.41593 2.67029 0
M  V30 4456 C 417.814 -1.84408 4.10261 0
M  V30 4457 C 419.133 -3.43488 2.75143 0
M  V30 4458 H 416.252 -0.475031 0.563485 0
M  V30 4459 H 418.894 -0.616454 1.79722 0
M  V30 4460 H 417.044 -3.00772 2.45904 0
M  V30 4461 H 418.716 -1.29445 4.42766 0
M  V30 4462 H 416.959 -1.15051 4.18265 0
M  V30 4463 H 417.63 -2.64367 4.84576 0
M  V30 4464 H 420.106 -2.94236 2.94218 0
M  V30 4465 H 418.982 -4.18274 3.55441 0
M  V30 4466 H 419.243 -4.02703 1.82435 0
M  V30 4467 N 418.302 -1.35869 -0.798587 0
M  V30 4468 C 419.551 -1.28921 -1.5512 0
M  V30 4469 C 419.864 0.13208 -1.95154 0
M  V30 4470 O 421.07 0.323879 -2.69561 0
M  V30 4471 C 419.526 -2.26141 -2.79979 0
M  V30 4472 C 419.134 -3.73658 -2.47151 0
M  V30 4473 C 420.878 -2.28152 -3.57976 0
M  V30 4474 C 418.785 -4.62679 -3.6835 0
M  V30 4475 H 417.715 -0.479031 -0.582276 0
M  V30 4476 H 420.366 -1.61179 -0.877125 0
M  V30 4477 H 418.748 -1.86865 -3.49138 0
M  V30 4478 H 419.922 -4.21616 -1.85947 0
M  V30 4479 H 418.237 -3.74333 -1.82383 0
M  V30 4480 H 420.834 -2.91875 -4.4801 0
M  V30 4481 H 421.177 -1.28748 -3.95891 0
M  V30 4482 H 421.71 -2.65998 -2.95787 0
M  V30 4483 H 418.449 -5.63111 -3.35538 0
M  V30 4484 H 417.969 -4.19442 -4.28752 0
M  V30 4485 H 419.648 -4.78498 -4.35487 0
M  V30 4486 N 419.78 1.02168 -1.19998 0
M  V30 4487 C 421.026 1.75945 -1.00852 0
M  V30 4488 C 421.359 1.88702 0.458828 0
M  V30 4489 O 420.634 1.40911 1.34069 0
M  V30 4490 C 420.917 3.18154 -1.68671 0
M  V30 4491 C 420.77 3.13224 -3.22817 0
M  V30 4492 C 422.089 4.16711 -1.41561 0
M  V30 4493 H 419.208 0.638673 -0.367785 0
M  V30 4494 H 421.85 1.19222 -1.4794 0
M  V30 4495 H 420 3.66586 -1.28636 0
M  V30 4496 H 421.672 2.72635 -3.72112 0
M  V30 4497 H 419.915 2.50751 -3.53986 0
M  V30 4498 H 420.586 4.13728 -3.65422 0
M  V30 4499 H 423.062 3.76913 -1.76284 0
M  V30 4500 H 421.938 5.14391 -1.91553 0
M  V30 4501 H 422.199 4.40774 -0.342193 0
M  V30 4502 N 421.258 1.00505 1.21394 0
M  V30 4503 C 422.535 0.603277 1.86064 0
M  V30 4504 C 422.915 -0.919095 1.90042 0
M  V30 4505 O 422.263 -1.80607 1.39977 0
M  V30 4506 C 422.473 1.23772 3.26315 0
M  V30 4507 C 423.821 1.34586 4.02705 0
M  V30 4508 O 424.845 1.19304 3.35626 0
M  V30 4509 O 423.704 1.59169 5.22807 0
M  V30 4510 H 420.798 0.206634 0.800769 0
M  V30 4511 H 423.344 1.1017 1.29076 0
M  V30 4512 H 422.116 2.27848 3.18121 0
M  V30 4513 H 421.739 0.725648 3.90922 0
M  V30 4514 N 422.737 -1.36956 0.779787 0
M  V30 4515 C 423.647 -2.33965 0.172491 0
M  V30 4516 C 424.663 -1.60574 -0.670222 0
M  V30 4517 O 425.839 -1.92617 -0.588263 0
M  V30 4518 C 422.904 -3.39761 -0.690173 0
M  V30 4519 C 421.965 -4.28964 0.169924 0
M  V30 4520 C 421.198 -5.29707 -0.651662 0
M  V30 4521 O 421.421 -5.38238 -1.88827 0
M  V30 4522 O 420.355 -6.01873 -0.0566264 0
M  V30 4523 H 424.181 -2.87647 0.974321 0
M  V30 4524 H 421.766 -1.39258 0.541078 0
M  V30 4525 H 423.648 -4.04471 -1.1824 0
M  V30 4526 H 422.323 -2.88394 -1.47006 0
M  V30 4527 H 421.23 -3.67326 0.708696 0
M  V30 4528 H 422.563 -4.83656 0.913085 0
M  V30 4529 N 424.215 -0.530993 -1.48385 0
M  V30 4530 C 425.461 0.00274135 -2.028 0
M  V30 4531 C 425.794 1.33838 -1.40716 0
M  V30 4532 O 425.069 1.86465 -0.553277 0
M  V30 4533 C 425.352 0.123676 -3.59888 0
M  V30 4534 C 425.205 -1.2372 -4.3245 0
M  V30 4535 C 426.524 0.849967 -4.31814 0
M  V30 4536 H 423.643 -0.000477758 -0.737 0
M  V30 4537 H 426.285 -0.688217 -1.77098 0
M  V30 4538 H 424.435 0.712157 -3.81917 0
M  V30 4539 H 426.107 -1.86687 -4.21836 0
M  V30 4540 H 424.35 -1.81882 -3.93829 0
M  V30 4541 H 425.021 -1.10557 -5.40815 0
M  V30 4542 H 427.497 0.350572 -4.14621 0
M  V30 4543 H 426.373 0.903486 -5.41413 0
M  V30 4544 H 426.634 1.90047 -3.99167 0
M  V30 4545 N 425.693 1.55336 -0.266172 0
M  V30 4546 C 426.923 2.03506 0.356239 0
M  V30 4547 C 427.331 1.14426 1.50676 0
M  V30 4548 O 426.674 0.155043 1.83045 0
M  V30 4549 C 426.736 3.47848 0.90785 0
M  V30 4550 C 426.4 4.56861 -0.112888 0
M  V30 4551 C 427.397 5.11528 -0.929264 0
M  V30 4552 C 425.082 5.01704 -0.244546 0
M  V30 4553 C 427.076 6.09549 -1.86357 0
M  V30 4554 C 424.763 5.99553 -1.18234 0
M  V30 4555 C 425.761 6.53356 -1.99036 0
M  V30 4556 O 425.449 7.49293 -2.91231 0
M  V30 4557 H 425.181 0.670444 0.08649 0
M  V30 4558 H 427.735 2.01598 -0.39337 0
M  V30 4559 H 425.965 3.46967 1.70737 0
M  V30 4560 H 427.654 3.79407 1.44239 0
M  V30 4561 H 428.42 4.77701 -0.838237 0
M  V30 4562 H 424.299 4.59477 0.374359 0
M  V30 4563 H 427.843 6.51469 -2.49467 0
M  V30 4564 H 423.74 6.32799 -1.27421 0
M  V30 4565 H 424.508 7.66978 -2.8581 0
M  V30 4566 N 427.171 -0.0066808 1.57599 0
M  V30 4567 C 428.104 -1.03397 2.03431 0
M  V30 4568 C 429.082 -1.33872 0.922877 0
M  V30 4569 O 430.266 -1.4615 1.19048 0
M  V30 4570 C 427.393 -2.36325 2.42628 0
M  V30 4571 C 426.439 -2.21557 3.64438 0
M  V30 4572 S 427.272 -1.54789 5.12641 0
M  V30 4573 C 428.428 -2.8916 5.55101 0
M  V30 4574 H 428.661 -0.643687 2.90248 0
M  V30 4575 H 426.194 -0.217349 1.52863 0
M  V30 4576 H 428.152 -3.12759 2.65879 0
M  V30 4577 H 426.813 -2.72495 1.56222 0
M  V30 4578 H 426.006 -3.1974 3.89592 0
M  V30 4579 H 425.608 -1.53267 3.41153 0
M  V30 4580 H 427.9 -3.8547 5.57153 0
M  V30 4581 H 428.843 -2.68713 6.55133 0
M  V30 4582 H 429.251 -2.92762 4.82649 0
M  V30 4583 N 428.649 -1.55105 -0.279332 0
M  V30 4584 C 429.579 -1.90557 -1.34945 0
M  V30 4585 C 430.56 -0.766738 -1.51839 0
M  V30 4586 O 431.745 -1.02434 -1.64988 0
M  V30 4587 C 428.875 -2.17193 -2.71006 0
M  V30 4588 C 427.829 -3.33021 -2.68851 0
M  V30 4589 C 427.155 -3.45123 -4.08405 0
M  V30 4590 C 428.455 -4.69578 -2.28678 0
M  V30 4591 H 430.149 -2.80188 -1.05522 0
M  V30 4592 H 427.695 -1.34811 -0.506173 0
M  V30 4593 H 429.648 -2.40581 -3.45975 0
M  V30 4594 H 428.372 -1.24355 -3.01999 0
M  V30 4595 H 427.031 -3.0959 -1.9634 0
M  V30 4596 H 426.679 -2.49762 -4.3661 0
M  V30 4597 H 426.379 -4.22995 -4.07859 0
M  V30 4598 H 427.903 -3.70796 -4.85121 0
M  V30 4599 H 429.317 -4.92553 -2.93368 0
M  V30 4600 H 427.714 -5.5032 -2.39306 0
M  V30 4601 H 428.784 -4.68828 -1.23807 0
M  V30 4602 N 430.127 0.543554 -1.4793 0
M  V30 4603 C 431.352 1.32995 -1.59145 0
M  V30 4604 C 431.777 1.86472 -0.246956 0
M  V30 4605 O 431.135 1.63696 0.779324 0
M  V30 4606 C 431.183 2.46623 -2.63077 0
M  V30 4607 O 430.287 3.49261 -2.19295 0
M  V30 4608 H 429.628 0.394472 -0.534124 0
M  V30 4609 H 432.158 0.655489 -1.93816 0
M  V30 4610 H 432.168 2.93001 -2.83926 0
M  V30 4611 H 430.843 2.07059 -3.60693 0
M  V30 4612 H 429.42 3.09094 -2.08603 0
M  V30 4613 N 431.605 1.3629 0.791371 0
M  V30 4614 C 432.851 1.30605 1.55146 0
M  V30 4615 C 433.184 -0.115042 1.93859 0
M  V30 4616 O 432.459 -1.06798 1.62556 0
M  V30 4617 C 432.742 2.22692 2.82985 0
M  V30 4618 C 432.595 3.73489 2.50651 0
M  V30 4619 C 433.914 2.13588 3.84796 0
M  V30 4620 H 431.033 0.475761 0.562868 0
M  V30 4621 H 433.675 1.66825 0.909358 0
M  V30 4622 H 431.825 1.91933 3.37778 0
M  V30 4623 H 433.497 4.14758 2.01924 0
M  V30 4624 H 431.74 3.93021 1.83622 0
M  V30 4625 H 432.411 4.3333 3.41949 0
M  V30 4626 H 434.887 2.40659 3.39445 0
M  V30 4627 H 433.763 2.80195 4.71998 0
M  V30 4628 H 434.024 1.12256 4.27611 0
M  V30 4629 N 433.083 -1.0153 1.20538 0
M  V30 4630 C 434.33 -1.75149 1.01633 0
M  V30 4631 C 434.658 -1.89189 -0.451399 0
M  V30 4632 O 433.913 -1.41551 -1.35136 0
M  V30 4633 C 434.212 -3.17213 1.64654 0
M  V30 4634 C 433.878 -3.23146 3.14464 0
M  V30 4635 C 432.54 -3.24472 3.55347 0
M  V30 4636 C 434.892 -3.21207 4.10458 0
M  V30 4637 C 432.22 -3.21532 4.90748 0
M  V30 4638 C 434.572 -3.19808 5.45807 0
M  V30 4639 C 433.236 -3.19439 5.86102 0
M  V30 4640 H 432.506 -0.640914 0.3719 0
M  V30 4641 H 435.153 -1.19071 1.49981 0
M  V30 4642 H 433.458 -3.76457 1.08571 0
M  V30 4643 H 435.155 -3.72871 1.4754 0
M  V30 4644 H 431.745 -3.2285 2.81897 0
M  V30 4645 H 435.929 -3.19351 3.79906 0
M  V30 4646 H 431.185 -3.19578 5.21229 0
M  V30 4647 H 435.359 -3.1726 6.19935 0
M  V30 4648 H 432.986 -3.16915 6.90991 0
M  V30 4649 N 434.561 -1.01147 -1.20859 0
M  V30 4650 C 435.471 -0.58686 -2.27141 0
M  V30 4651 C 436.487 0.373198 -1.69951 0
M  V30 4652 O 437.663 0.235423 -2.00019 0
M  V30 4653 C 434.728 0.0733602 -3.46622 0
M  V30 4654 C 433.789 -0.931995 -4.19061 0
M  V30 4655 C 433.022 -0.303186 -5.32838 0
M  V30 4656 O 433.245 0.898395 -5.63281 0
M  V30 4657 O 432.179 -1.01735 -5.9324 0
M  V30 4658 H 436.005 -1.47155 -2.65667 0
M  V30 4659 H 433.59 -0.780689 -1.2738 0
M  V30 4660 H 435.472 0.442333 -4.19072 0
M  V30 4661 H 434.147 0.932329 -3.09983 0
M  V30 4662 H 433.054 -1.35224 -3.48805 0
M  V30 4663 H 434.387 -1.76076 -4.59628 0
M  V30 4664 N 436.039 1.36541 -0.78704 0
M  V30 4665 C 436.986 2.30082 -0.181901 0
M  V30 4666 C 437.956 1.5186 0.672896 0
M  V30 4667 O 439.141 1.80374 0.622072 0
M  V30 4668 C 436.281 3.3835 0.679197 0
M  V30 4669 C 435.394 4.31565 -0.193882 0
M  V30 4670 C 434.529 5.26915 0.673364 0
M  V30 4671 C 433.568 6.11769 -0.201315 0
M  V30 4672 N 432.705 6.99315 0.624777 0
M  V30 4673 H 437.545 2.81248 -0.985064 0
M  V30 4674 H 435.082 1.38437 -0.497342 0
M  V30 4675 H 437.04 3.99767 1.19341 0
M  V30 4676 H 435.67 2.8851 1.44781 0
M  V30 4677 H 434.722 3.71323 -0.826044 0
M  V30 4678 H 436.034 4.91191 -0.867937 0
M  V30 4679 H 435.188 5.9361 1.25348 0
M  V30 4680 H 433.927 4.67737 1.38105 0
M  V30 4681 H 432.932 5.44039 -0.793849 0
M  V30 4682 H 434.157 6.73022 -0.906568 0
M  V30 4683 H 432.103 6.42648 1.3168 0
M  V30 4684 H 432.02 7.56 0.00835237 0
M  V30 4685 H 433.288 7.70382 1.18879 0
M  V30 4686 N 437.518 0.538854 1.48102 0
M  V30 4687 C 438.743 0.0102694 2.07397 0
M  V30 4688 C 439.168 -1.26562 1.39153 0
M  V30 4689 O 438.526 -1.75357 0.460387 0
M  V30 4690 C 438.574 -0.187602 3.60112 0
M  V30 4691 O 437.678 -1.25432 3.92862 0
M  V30 4692 H 437.019 0.0430975 0.6626 0
M  V30 4693 H 439.549 0.749301 1.90385 0
M  V30 4694 H 439.559 -0.407517 4.0596 0
M  V30 4695 H 438.234 0.744386 4.09184 0
M  V30 4696 H 436.811 -1.01636 3.58782 0
M  V30 4697 N 438.996 -1.55193 0.274407 0
M  V30 4698 C 440.242 -1.99877 -0.343086 0
M  V30 4699 C 440.575 -1.16256 -1.55558 0
M  V30 4700 O 439.85 -0.232462 -1.93106 0
M  V30 4701 C 440.133 -3.52706 -0.725965 0
M  V30 4702 C 439.986 -4.47081 0.493818 0
M  V30 4703 C 441.305 -4.11422 -1.56268 0
M  V30 4704 H 438.424 -0.726625 -0.123229 0
M  V30 4705 H 441.066 -1.86136 0.38121 0
M  V30 4706 H 439.216 -3.64546 -1.34307 0
M  V30 4707 H 440.888 -4.47186 1.13237 0
M  V30 4708 H 439.131 -4.1877 1.13201 0
M  V30 4709 H 439.802 -5.51699 0.18217 0
M  V30 4710 H 442.278 -4.02855 -1.04151 0
M  V30 4711 H 441.154 -5.18568 -1.79939 0
M  V30 4712 H 441.415 -3.61607 -2.54348 0
M  V30 4713 N 440.474 -0.00167713 -1.576 0
M  V30 4714 C 441.722 0.681471 -1.90264 0
M  V30 4715 C 442.043 1.7422 -0.875924 0
M  V30 4716 O 441.313 1.95709 0.0864412 0
M  V30 4717 H 439.893 0.254696 -0.702239 0
M  V30 4718 H 442.555 -0.0429996 -1.94853 0
M  V30 4719 H 441.651 1.15166 -2.90075 0
M  V30 4720 N 441.952 1.55251 0.271103 0
M  V30 4721 C 443.182 1.79713 1.01916 0
M  V30 4722 C 443.59 0.571613 1.80359 0
M  V30 4723 O 442.933 -0.468853 1.77616 0
M  V30 4724 C 442.995 2.97138 2.02359 0
M  V30 4725 C 442.659 4.34104 1.42837 0
M  V30 4726 C 443.656 5.13019 0.843071 0
M  V30 4727 C 441.341 4.80765 1.455 0
M  V30 4728 C 443.335 6.36729 0.292333 0
M  V30 4729 C 441.022 6.0443 0.900402 0
M  V30 4730 C 442.02 6.8225 0.32007 0
M  V30 4731 O 441.708 8.03582 -0.226031 0
M  V30 4732 H 441.44 0.602431 0.306681 0
M  V30 4733 H 443.994 2.03097 0.306701 0
M  V30 4734 H 442.224 2.6945 2.77369 0
M  V30 4735 H 443.913 3.08907 2.63309 0
M  V30 4736 H 444.679 4.781 0.815178 0
M  V30 4737 H 440.558 4.20202 1.89609 0
M  V30 4738 H 444.102 6.97414 -0.161274 0
M  V30 4739 H 439.999 6.3883 0.925541 0
M  V30 4740 H 440.767 8.18418 -0.115572 0
M  V30 4741 N 443.43 -0.535701 1.48216 0
M  V30 4742 C 444.846 -0.863701 1.3421 0
M  V30 4743 C 445.046 -1.98458 0.34879 0
M  V30 4744 O 444.102 -2.51432 -0.23204 0
M  V30 4745 C 445.415 -1.23662 2.74095 0
M  V30 4746 C 446.963 -1.34683 2.82541 0
M  V30 4747 C 447.438 -1.75322 4.23115 0
M  V30 4748 N 448.929 -1.82434 4.2576 0
M  V30 4749 C 449.664 -2.15252 5.31464 0
M  V30 4750 N 449.16 -2.46533 6.47452 0
M  V30 4751 N 450.953 -2.16209 5.18855 0
M  V30 4752 H 443.104 0.203965 2.11418 0
M  V30 4753 H 445.367 0.0286033 0.947568 0
M  V30 4754 H 445.073 -0.486674 3.48316 0
M  V30 4755 H 444.947 -2.18805 3.07253 0
M  V30 4756 H 447.334 -2.08756 2.08579 0
M  V30 4757 H 447.415 -0.376756 2.5301 0
M  V30 4758 H 447.059 -1.01812 4.97591 0
M  V30 4759 H 446.989 -2.7337 4.50085 0
M  V30 4760 H 449.48 -1.6056 3.42095 0
M  V30 4761 H 449.793 -2.70662 7.23852 0
M  V30 4762 H 448.138 -2.44065 6.50736 0
M  V30 4763 H 451.329 -1.91224 4.2726 0
M  V30 4764 H 451.502 -2.41453 6.01335 0
M  V30 4765 N 444.908 -1.36708 -0.784132 0
M  V30 4766 C 446.133 -1.34565 -1.5782 0
M  V30 4767 C 446.558 0.0695257 -1.87971 0
M  V30 4768 O 445.916 1.04302 -1.48293 0
M  V30 4769 C 445.964 -2.17952 -2.87279 0
M  V30 4770 O 445.068 -1.57563 -3.81114 0
M  V30 4771 H 444.409 -0.460337 -0.478524 0
M  V30 4772 H 446.939 -1.80064 -0.971495 0
M  V30 4773 H 446.949 -2.30721 -3.365 0
M  V30 4774 H 445.624 -3.20823 -2.64661 0
M  V30 4775 H 444.201 -1.53764 -3.39722 0
M  V30 4776 N 446.386 1.0089 -1.21074 0
M  V30 4777 C 447.632 1.74866 -1.02712 0
M  V30 4778 C 447.965 1.89178 0.438787 0
M  V30 4779 O 447.24 1.42325 1.32567 0
M  V30 4780 C 447.523 3.16347 -1.72036 0
M  V30 4781 C 447.376 3.09782 -3.26121 0
M  V30 4782 C 448.695 4.15187 -1.45973 0
M  V30 4783 H 445.814 0.634736 -0.374539 0
M  V30 4784 H 448.456 1.17646 -1.49196 0
M  V30 4785 H 446.606 3.65201 -1.32517 0
M  V30 4786 H 448.278 2.68673 -3.74983 0
M  V30 4787 H 446.521 2.46982 -3.56626 0
M  V30 4788 H 447.192 4.09829 -3.6979 0
M  V30 4789 H 449.668 3.75022 -1.80272 0
M  V30 4790 H 448.544 5.12331 -1.96999 0
M  V30 4791 H 448.805 4.40386 -0.388924 0
M  V30 4792 N 447.864 1.01787 1.20321 0
M  V30 4793 C 448.794 0.609625 2.25401 0
M  V30 4794 C 449.775 -0.375951 1.65893 0
M  V30 4795 O 450.96 -0.261101 1.92437 0
M  V30 4796 C 448.09 -0.0515995 3.47262 0
M  V30 4797 C 447.044 0.855095 4.19371 0
M  V30 4798 C 446.37 0.0595757 5.34667 0
M  V30 4799 C 447.67 2.16374 4.75373 0
M  V30 4800 H 449.364 1.48803 2.59804 0
M  V30 4801 H 446.91 0.716934 1.24884 0
M  V30 4802 H 448.863 -0.348764 4.19954 0
M  V30 4803 H 447.587 -0.964726 3.12027 0
M  V30 4804 H 446.246 1.13628 3.48546 0
M  V30 4805 H 445.894 -0.85524 4.95676 0
M  V30 4806 H 445.594 0.663406 5.83843 0
M  V30 4807 H 447.118 -0.231105 6.10162 0
M  V30 4808 H 448.532 1.92885 5.39878 0
M  V30 4809 H 446.929 2.71853 5.34991 0
M  V30 4810 H 447.999 2.82589 3.94045 0
M  V30 4811 N 449.342 -1.36122 0.79427 0
M  V30 4812 C 450.567 -2.03891 0.379871 0
M  V30 4813 C 450.992 -1.59488 -0.997251 0
M  V30 4814 O 450.35 -0.765652 -1.64339 0
M  V30 4815 C 450.398 -3.57687 0.457442 0
M  V30 4816 O 449.502 -4.08931 -0.5338 0
M  V30 4817 H 448.843 -0.6443 0.160541 0
M  V30 4818 H 451.373 -1.73976 1.07673 0
M  V30 4819 H 451.383 -4.06721 0.322792 0
M  V30 4820 H 450.058 -3.89357 1.46199 0
M  V30 4821 H 448.635 -3.71154 -0.360409 0
M  V30 4822 N 450.82 -0.546701 -1.47814 0
M  V30 4823 C 451.75 0.195317 -2.32682 0
M  V30 4824 C 452.731 0.918981 -1.43139 0
M  V30 4825 O 453.916 0.901501 -1.72008 0
M  V30 4826 C 451.046 1.23237 -3.247 0
M  V30 4827 C 450 0.625818 -4.234 0
M  V30 4828 C 449.326 1.76674 -5.04669 0
M  V30 4829 C 450.626 -0.413515 -5.2066 0
M  V30 4830 H 452.32 -0.513184 -2.94969 0
M  V30 4831 H 449.866 -0.248241 -1.41844 0
M  V30 4832 H 451.819 1.75955 -3.82907 0
M  V30 4833 H 450.543 1.97067 -2.60446 0
M  V30 4834 H 449.202 0.120023 -3.66403 0
M  V30 4835 H 448.85 2.49383 -4.36826 0
M  V30 4836 H 448.55 1.36673 -5.71484 0
M  V30 4837 H 450.074 2.29738 -5.65732 0
M  V30 4838 H 451.488 0.0272042 -5.73294 0
M  V30 4839 H 449.885 -0.731825 -5.95621 0
M  V30 4840 H 450.955 -1.31325 -4.66778 0
M  V30 4841 N 452.299 1.55045 -0.282633 0
M  V30 4842 C 453.209 2.26491 0.61147 0
M  V30 4843 C 454.225 1.29348 1.16384 0
M  V30 4844 O 455.401 1.62298 1.19253 0
M  V30 4845 C 452.466 2.97779 1.77563 0
M  V30 4846 C 451.527 4.10418 1.25919 0
M  V30 4847 C 450.76 4.78297 2.36786 0
M  V30 4848 O 450.983 4.45426 3.56303 0
M  V30 4849 O 449.917 5.66089 2.04517 0
M  V30 4850 H 453.743 3.03683 0.0324615 0
M  V30 4851 H 451.328 1.49317 -0.0497576 0
M  V30 4852 H 453.21 3.42554 2.45427 0
M  V30 4853 H 451.885 2.23498 2.34159 0
M  V30 4854 H 450.792 3.70082 0.546797 0
M  V30 4855 H 452.125 4.86622 0.738887 0
M  V30 4856 N 453.777 0.010035 1.57597 0
M  V30 4857 C 455.193 -0.346164 1.55801 0
M  V30 4858 C 455.393 -1.74144 1.01371 0
M  V30 4859 O 454.449 -2.43938 0.651968 0
M  V30 4860 C 455.762 -0.212216 2.9995 0
M  V30 4861 C 457.31 -0.286409 3.11687 0
M  V30 4862 C 457.785 -0.18147 4.5764 0
M  V30 4863 N 459.276 -0.239056 4.62583 0
M  V30 4864 C 460.011 -0.181351 5.73113 0
M  V30 4865 N 459.507 -0.073661 6.92761 0
M  V30 4866 N 461.3 -0.233949 5.61613 0
M  V30 4867 H 453.451 0.922657 1.91313 0
M  V30 4868 H 455.714 0.354595 0.879185 0
M  V30 4869 H 455.42 0.748169 3.4365 0
M  V30 4870 H 455.294 -0.990224 3.6397 0
M  V30 4871 H 457.681 -1.23724 2.67911 0
M  V30 4872 H 457.762 0.521645 2.50425 0
M  V30 4873 H 457.406 0.765863 5.02093 0
M  V30 4874 H 457.336 -1.00814 5.1686 0
M  V30 4875 H 459.827 -0.32321 3.76515 0
M  V30 4876 H 460.14 -0.0358003 7.72792 0
M  V30 4877 H 458.485 -0.0391461 6.94989 0
M  V30 4878 H 461.676 -0.316347 4.6703 0
M  V30 4879 H 461.849 -0.185514 6.47734 0
M  V30 4880 N 455.255 -1.55392 -0.262866 0
M  V30 4881 C 456.185 -1.91978 -1.32917 0
M  V30 4882 C 457.166 -0.7828 -1.51017 0
M  V30 4883 O 458.351 -1.04178 -1.63892 0
M  V30 4884 C 455.481 -2.20055 -2.68687 0
M  V30 4885 C 454.435 -3.35854 -2.65304 0
M  V30 4886 C 453.761 -3.49435 -4.04721 0
M  V30 4887 C 455.061 -4.71977 -2.23685 0
M  V30 4888 H 456.755 -2.81292 -1.02544 0
M  V30 4889 H 454.301 -1.3534 -0.491846 0
M  V30 4890 H 456.254 -2.44237 -3.43404 0
M  V30 4891 H 454.978 -1.27551 -3.00663 0
M  V30 4892 H 453.637 -3.11655 -1.93045 0
M  V30 4893 H 453.285 -2.54379 -4.33936 0
M  V30 4894 H 452.985 -4.27297 -4.0335 0
M  V30 4895 H 454.509 -3.7592 -4.81161 0
M  V30 4896 H 455.923 -4.95637 -2.88127 0
M  V30 4897 H 454.32 -5.52828 -2.33456 0
M  V30 4898 H 455.39 -4.70115 -1.18827 0
M  V30 4899 N 456.733 0.527833 -1.48498 0
M  V30 4900 C 458.144 1.10975 -1.50138 0
M  V30 4901 C 458.495 1.943 -0.272378 0
M  V30 4902 O 457.62 2.07319 0.620301 0
M  V30 4903 C 458.215 2.01927 -2.72049 0
M  V30 4904 C 456.774 2.55332 -2.76554 0
M  V30 4905 C 455.921 1.32341 -2.43683 0
M  V30 4906 H 458.872 0.312986 -1.55583 0
M  V30 4907 H 458.893 2.86244 -2.50689 0
M  V30 4908 H 458.405 1.41254 -3.61481 0
M  V30 4909 H 456.506 3.19721 -1.91336 0
M  V30 4910 H 456.619 2.94319 -3.78038 0
M  V30 4911 H 454.983 1.63989 -1.94884 0
M  V30 4912 H 455.766 0.734165 -3.35358 0
M  V30 4913 N 458.211 1.37122 0.776871 0
M  V30 4914 C 459.488 1.22586 1.52421 0
M  V30 4915 C 459.868 -0.182726 2.10308 0
M  V30 4916 O 459.216 -1.18979 1.9508 0
M  V30 4917 C 459.426 2.31782 2.60918 0
M  V30 4918 C 460.774 2.69071 3.2846 0
M  V30 4919 O 461.798 2.3092 2.71209 0
M  V30 4920 O 460.657 3.3478 4.31954 0
M  V30 4921 H 457.751 0.478045 0.674835 0
M  V30 4922 H 460.297 1.48888 0.814275 0
M  V30 4923 H 459.069 3.26131 2.16227 0
M  V30 4924 H 458.692 2.06916 3.39517 0
M  V30 4925 N 459.689 -1.00246 1.21608 0
M  V30 4926 C 461.1 -1.55511 1.03312 0
M  V30 4927 C 461.451 -1.91946 -0.406332 0
M  V30 4928 O 460.576 -1.73753 -1.28992 0
M  V30 4929 C 461.171 -2.82576 1.86913 0
M  V30 4930 C 459.73 -3.34318 1.72941 0
M  V30 4931 C 458.877 -2.07487 1.83968 0
M  V30 4932 H 461.828 -0.824638 1.35593 0
M  V30 4933 H 461.849 -3.54559 1.38087 0
M  V30 4934 H 461.361 -2.56026 2.91672 0
M  V30 4935 H 459.462 -3.65797 0.70877 0
M  V30 4936 H 459.575 -4.05566 2.55055 0
M  V30 4937 H 457.939 -2.20603 1.27304 0
M  V30 4938 H 458.722 -1.83346 2.9024 0
M  V30 4939 N 461.167 -1.02423 -1.1978 0
M  V30 4940 C 462.099 -0.559152 -2.22275 0
M  V30 4941 C 463.112 0.36251 -1.58713 0
M  V30 4942 O 464.301 0.159641 -1.77785 0
M  V30 4943 C 461.401 0.205094 -3.38279 0
M  V30 4944 C 460.574 -0.720361 -4.31427 0
M  V30 4945 C 459.633 -0.00234368 -5.262 0
M  V30 4946 O 458.659 -0.627378 -5.65732 0
M  V30 4947 N 459.861 1.26996 -5.66438 0
M  V30 4948 H 462.626 -1.44064 -2.62804 0
M  V30 4949 H 460.187 -0.902692 -1.34399 0
M  V30 4950 H 462.179 0.694868 -3.9869 0
M  V30 4951 H 460.749 0.987947 -2.96578 0
M  V30 4952 H 459.969 -1.39031 -3.68869 0
M  V30 4953 H 461.257 -1.3495 -4.90577 0
M  V30 4954 H 460.655 1.79858 -5.36347 0
M  V30 4955 H 459.212 1.70432 -6.29123 0
M  V30 4956 N 462.645 1.35699 -0.801477 0
M  V30 4957 C 464.061 1.52065 -0.484596 0
M  V30 4958 C 464.261 1.75215 0.995084 0
M  V30 4959 O 463.317 1.79061 1.78026 0
M  V30 4960 C 464.63 2.69908 -1.32552 0
M  V30 4961 C 466.178 2.83784 -1.32044 0
M  V30 4962 C 466.653 4.04646 -2.14536 0
M  V30 4963 N 468.144 4.11814 -2.12046 0
M  V30 4964 C 468.879 5.04437 -2.72636 0
M  V30 4965 N 468.375 6.02426 -3.42133 0
M  V30 4966 N 470.168 4.97144 -2.62305 0
M  V30 4967 H 462.319 1.18928 -1.75983 0
M  V30 4968 H 464.582 0.581455 -0.748741 0
M  V30 4969 H 464.288 2.59363 -2.37537 0
M  V30 4970 H 464.162 3.64376 -0.975181 0
M  V30 4971 H 466.549 2.93783 -0.27846 0
M  V30 4972 H 466.63 1.90188 -1.71062 0
M  V30 4973 H 466.274 3.95407 -3.18772 0
M  V30 4974 H 466.204 4.97413 -1.72882 0
M  V30 4975 H 468.695 3.41664 -1.61476 0
M  V30 4976 H 469.008 6.69688 -3.85666 0
M  V30 4977 H 467.353 6.02615 -3.46237 0
M  V30 4978 H 470.544 4.19546 -2.07603 0
M  V30 4979 H 470.717 5.69138 -3.09815 0
M  V30 4980 N 464.123 0.554532 1.47522 0
M  V30 4981 C 465.351 0.034257 2.06872 0
M  V30 4982 C 465.766 -1.25826 1.40759 0
M  V30 4983 O 465.123 -1.75425 0.503217 0
M  V30 4984 C 465.174 -0.167827 3.6111 0
M  V30 4985 O 464.895 1.07351 4.24744 0
M  V30 4986 C 466.396 -0.72569 4.3732 0
M  V30 4987 H 463.616 0.0446275 0.669514 0
M  V30 4988 H 466.16 0.767181 1.89564 0
M  V30 4989 H 464.315 -0.850872 3.7794 0
M  V30 4990 H 464.729 0.869563 5.17242 0
M  V30 4991 H 466.203 -0.816394 5.45929 0
M  V30 4992 H 466.68 -1.73635 4.0342 0
M  V30 4993 H 467.286 -0.0784292 4.25228 0
M  V30 4994 N 465.601 -1.54893 0.290851 0
M  V30 4995 C 466.551 -2.19838 -0.604599 0
M  V30 4996 C 467.535 -1.16805 -1.10659 0
M  V30 4997 O 468.727 -1.42562 -1.04905 0
M  V30 4998 C 465.856 -2.93497 -1.78086 0
M  V30 4999 C 464.942 -4.03835 -1.29531 0
M  V30 5000 N 465.333 -5.03047 -0.527024 0
M  V30 5001 C 463.631 -4.17192 -1.57693 0
M  V30 5002 C 464.332 -5.81074 -0.269728 0
M  V30 5003 N 463.308 -5.36966 -0.846651 0
M  V30 5004 H 467.11 -2.93898 -0.00995032 0
M  V30 5005 H 464.624 -1.62121 0.0951353 0
M  V30 5006 H 466.621 -3.38484 -2.43381 0
M  V30 5007 H 465.281 -2.2095 -2.37931 0
M  V30 5008 H 466.292 -5.17611 -0.172872 0
M  V30 5009 H 462.969 -3.55845 -2.18359 0
M  V30 5010 H 464.359 -6.71005 0.346643 0
M  V30 5011 N 467.08 -0.0183926 -1.57589 0
M  V30 5012 C 468.326 0.663543 -1.91638 0
M  V30 5013 C 468.659 1.72392 -0.894134 0
M  V30 5014 O 467.934 1.94316 0.0846449 0
M  V30 5015 C 468.217 1.28984 -3.36207 0
M  V30 5016 C 468.07 0.239761 -4.49161 0
M  V30 5017 C 469.389 2.2109 -3.80536 0
M  V30 5018 H 466.508 0.239746 -0.696915 0
M  V30 5019 H 469.15 -0.073456 -1.89858 0
M  V30 5020 H 467.3 1.91799 -3.37854 0
M  V30 5021 H 468.972 -0.390119 -4.59647 0
M  V30 5022 H 467.215 -0.435972 -4.31604 0
M  V30 5023 H 467.886 0.717383 -5.47319 0
M  V30 5024 H 470.362 1.68273 -3.80557 0
M  V30 5025 H 469.238 2.61869 -4.82406 0
M  V30 5026 H 469.499 3.09764 -3.15434 0
M  V30 5027 N 468.558 1.5553 0.254621 0
M  V30 5028 C 469.491 1.84624 1.34124 0
M  V30 5029 C 470.469 0.700693 1.46728 0
M  V30 5030 O 471.653 0.94564 1.63064 0
M  V30 5031 C 468.78 2.02412 2.71564 0
M  V30 5032 C 467.826 3.25028 2.7615 0
M  V30 5033 S 468.659 4.81893 2.33538 0
M  V30 5034 C 469.815 5.02677 3.72917 0
M  V30 5035 H 470.048 2.76501 1.09245 0
M  V30 5036 H 467.581 1.47537 0.455211 0
M  V30 5037 H 469.539 2.13345 3.50705 0
M  V30 5038 H 468.2 1.11391 2.93685 0
M  V30 5039 H 467.393 3.34418 3.77069 0
M  V30 5040 H 466.995 3.12781 2.05046 0
M  V30 5041 H 469.287 4.89546 4.68349 0
M  V30 5042 H 470.23 6.0468 3.68467 0
M  V30 5043 H 470.638 4.30561 3.65072 0
M  V30 5044 N 470.036 -0.519951 1.48776 0
M  V30 5045 C 471.282 -1.27456 1.58514 0
M  V30 5046 C 471.637 -1.90634 0.260057 0
M  V30 5047 O 470.93 -1.76815 -0.738036 0
M  V30 5048 C 471.124 -2.37864 2.6675 0
M  V30 5049 C 470.953 -1.85509 4.09654 0
M  V30 5050 C 469.723 -1.67661 4.76674 0
M  V30 5051 C 471.921 -1.37783 4.955 0
M  V30 5052 N 469.903 -1.10037 6.03958 0
M  V30 5053 C 471.274 -0.921714 6.1311 0
M  V30 5054 C 473.329 -1.26179 4.81646 0
M  V30 5055 C 472.032 -0.361057 7.18393 0
M  V30 5056 C 474.058 -0.715121 5.8706 0
M  V30 5057 C 473.42 -0.269132 7.03886 0
M  V30 5058 H 469.519 -0.457049 0.634531 0
M  V30 5059 H 472.103 -0.585073 1.85701 0
M  V30 5060 H 470.274 -3.04296 2.41367 0
M  V30 5061 H 472.006 -3.04901 2.66116 0
M  V30 5062 H 468.761 -1.91478 4.33166 0
M  V30 5063 H 469.185 -0.832067 6.71867 0
M  V30 5064 H 473.827 -1.59263 3.91657 0
M  V30 5065 H 471.545 -0.0179127 8.08098 0
M  V30 5066 H 475.131 -0.628376 5.78397 0
M  V30 5067 H 474.011 0.14729 7.84062 0
M  V30 5068 N 471.514 -1.37532 -0.769588 0
M  V30 5069 C 472.477 -1.33292 -1.86456 0
M  V30 5070 C 473.477 -0.236537 -1.59051 0
M  V30 5071 O 474.667 -0.492511 -1.67093 0
M  V30 5072 C 471.799 -1.07118 -3.23633 0
M  V30 5073 H 472.992 -2.30692 -1.91628 0
M  V30 5074 H 470.545 -1.22593 -0.969572 0
M  V30 5075 H 471.28 -0.102578 -3.24138 0
M  V30 5076 H 471.065 -1.86479 -3.44917 0
M  V30 5077 H 472.555 -1.06806 -4.03711 0
M  V30 5078 N 472.992 0.995999 -1.22138 0
M  V30 5079 C 474.22 1.77066 -1.07029 0
M  V30 5080 C 474.635 1.8495 0.379357 0
M  V30 5081 O 473.992 1.3174 1.26297 0
M  V30 5082 C 474.043 3.20533 -1.67155 0
M  V30 5083 O 473.764 3.13082 -3.06449 0
M  V30 5084 C 475.265 4.14461 -1.5728 0
M  V30 5085 H 472.485 0.556179 -0.375374 0
M  V30 5086 H 475.029 1.25238 -1.61666 0
M  V30 5087 H 473.184 3.6944 -1.16589 0
M  V30 5088 H 473.598 4.03283 -3.35355 0
M  V30 5089 H 475.072 5.1289 -2.04078 0
M  V30 5090 H 475.549 4.36005 -0.528795 0
M  V30 5091 H 476.155 3.71449 -2.07136 0
M  V30 5092 N 474.47 1.03057 1.19235 0
M  V30 5093 C 475.695 0.74757 1.93458 0
M  V30 5094 C 476.12 -0.687648 1.7508 0
M  V30 5095 O 475.478 -1.47499 1.05422 0
M  V30 5096 C 475.526 1.10604 3.43219 0
M  V30 5097 O 474.63 0.225671 4.11782 0
M  V30 5098 H 473.971 0.276047 0.603899 0
M  V30 5099 H 476.501 1.3777 1.51263 0
M  V30 5100 H 476.511 1.06366 3.93891 0
M  V30 5101 H 475.186 2.15165 3.55917 0
M  V30 5102 H 473.763 0.326795 3.71465 0
M  V30 5103 N 475.948 -1.35272 0.808662 0
M  V30 5104 C 476.895 -2.29764 0.218482 0
M  V30 5105 C 477.865 -1.52911 -0.648652 0
M  V30 5106 O 479.05 -1.81341 -0.593297 0
M  V30 5107 C 476.19 -3.39388 -0.625282 0
M  V30 5108 C 475.303 -4.31202 0.262516 0
M  V30 5109 C 474.438 -5.27919 -0.589451 0
M  V30 5110 C 473.477 -6.11371 0.298617 0
M  V30 5111 N 472.614 -7.0022 -0.513443 0
M  V30 5112 H 477.454 -2.79645 1.02968 0
M  V30 5113 H 474.991 -1.37629 0.519303 0
M  V30 5114 H 476.949 -4.01615 -1.12966 0
M  V30 5115 H 475.579 -2.90777 -1.40173 0
M  V30 5116 H 474.631 -3.69962 0.885013 0
M  V30 5117 H 475.943 -4.89748 0.945971 0
M  V30 5118 H 475.097 -5.95529 -1.15888 0
M  V30 5119 H 473.836 -4.69875 -1.30647 0
M  V30 5120 H 472.841 -5.42707 0.880301 0
M  V30 5121 H 474.066 -6.71494 1.01352 0
M  V30 5122 H 472.012 -6.44662 -1.21439 0
M  V30 5123 H 471.929 -7.55917 0.111922 0
M  V30 5124 H 473.197 -7.72175 -1.06608 0
M  V30 5125 N 477.426 -0.562348 -1.47226 0
M  V30 5126 C 478.703 0.0256985 -1.95583 0
M  V30 5127 C 479.083 1.48032 -1.50498 0
M  V30 5128 O 478.431 2.15973 -0.746181 0
M  V30 5129 C 478.641 -0.125129 -3.48776 0
M  V30 5130 C 479.989 0.0175728 -4.24596 0
M  V30 5131 O 481.013 -0.0529341 -3.56161 0
M  V30 5132 O 479.872 0.170145 -5.46235 0
M  V30 5133 H 476.966 0.0612565 -0.824728 0
M  V30 5134 H 479.512 -0.629233 -1.57603 0
M  V30 5135 H 478.284 -1.13715 -3.74412 0
M  V30 5136 H 477.907 0.567178 -3.93534 0
M  V30 5137 N 478.904 1.54736 -0.299062 0
M  V30 5138 C 480.151 2.00101 0.310784 0
M  V30 5139 C 480.479 1.18746 1.54045 0
M  V30 5140 O 479.734 0.251198 1.94081 0
M  V30 5141 C 480.033 3.50199 0.713835 0
M  V30 5142 C 479.699 4.48997 -0.413873 0
M  V30 5143 C 478.361 4.7573 -0.723462 0
M  V30 5144 C 480.713 5.07839 -1.17257 0
M  V30 5145 C 478.041 5.5857 -1.79491 0
M  V30 5146 C 480.393 5.91844 -2.23392 0
M  V30 5147 C 479.057 6.16889 -2.54959 0
M  V30 5148 H 478.327 0.732221 0.113724 0
M  V30 5149 H 480.974 1.86888 -0.417756 0
M  V30 5150 H 479.279 3.61012 1.52243 0
M  V30 5151 H 480.976 3.82723 1.19684 0
M  V30 5152 H 477.566 4.28292 -0.162476 0
M  V30 5153 H 481.75 4.87188 -0.946651 0
M  V30 5154 H 477.006 5.76213 -2.04423 0
M  V30 5155 H 481.18 6.36465 -2.8264 0
M  V30 5156 H 478.807 6.80869 -3.38114 0
M  V30 5157 N 480.382 0.0267497 1.57577 0
M  V30 5158 C 481.63 -0.651116 1.91324 0
M  V30 5159 C 481.951 -1.72804 0.90353 0
M  V30 5160 O 481.221 -1.95822 -0.0552946 0
M  V30 5161 H 479.801 -0.243491 0.706202 0
M  V30 5162 H 482.463 0.0739935 1.94759 0
M  V30 5163 H 481.559 -1.10536 2.9187 0
M  V30 5164 N 481.861 -1.55662 -0.24637 0
M  V30 5165 C 482.794 -1.85332 -1.33143 0
M  V30 5166 C 483.772 -0.708464 -1.46354 0
M  V30 5167 O 484.956 -0.954274 -1.6256 0
M  V30 5168 C 482.083 -2.0385 -2.70487 0
M  V30 5169 C 481.129 -3.26488 -2.74423 0
M  V30 5170 S 481.962 -4.83124 -2.30979 0
M  V30 5171 C 483.118 -5.04647 -3.70246 0
M  V30 5172 H 483.351 -2.77077 -1.07777 0
M  V30 5173 H 480.884 -1.47776 -0.44738 0
M  V30 5174 H 482.842 -2.15202 -3.49569 0
M  V30 5175 H 481.503 -1.12947 -2.9309 0
M  V30 5176 H 480.696 -3.36413 -3.7529 0
M  V30 5177 H 480.298 -3.13864 -2.03385 0
M  V30 5178 H 482.59 -4.92023 -4.65746 0
M  V30 5179 H 483.533 -6.06625 -3.65255 0
M  V30 5180 H 483.941 -4.32491 -3.62784 0
M  V30 5181 N 483.339 0.512053 -1.4905 0
M  V30 5182 C 484.564 1.2959 -1.6193 0
M  V30 5183 C 484.989 1.85906 -0.286454 0
M  V30 5184 O 484.347 1.65312 0.744426 0
M  V30 5185 C 484.395 2.40987 -2.68249 0
M  V30 5186 O 483.499 3.44531 -2.26654 0
M  V30 5187 H 482.84 0.383053 -0.542371 0
M  V30 5188 H 485.37 0.614231 -1.95162 0
M  V30 5189 H 485.38 2.86913 -2.90078 0
M  V30 5190 H 484.055 1.99361 -3.65004 0
M  V30 5191 H 482.632 3.046 -2.15112 0
M  V30 5192 N 484.817 1.37938 0.762283 0
M  V30 5193 C 486.065 1.33404 1.51815 0
M  V30 5194 C 486.386 -0.0780975 1.94844 0
M  V30 5195 O 485.656 -1.02405 1.67003 0
M  V30 5196 H 484.236 0.490839 0.563104 0
M  V30 5197 H 486.898 1.72527 0.906669 0
M  V30 5198 H 485.994 1.97926 2.41313 0
M  V30 5199 N 486.295 -0.989507 1.22664 0
M  V30 5200 C 487.225 -2.09847 1.02404 0
M  V30 5201 C 488.206 -1.70007 -0.0561303 0
M  V30 5202 O 489.391 -1.93906 0.106748 0
M  V30 5203 C 486.521 -3.41996 0.604663 0
M  V30 5204 C 485.475 -3.95699 1.63115 0
M  V30 5205 C 484.801 -5.23936 1.0675 0
M  V30 5206 C 486.101 -4.25999 3.02196 0
M  V30 5207 H 487.795 -2.27054 1.95158 0
M  V30 5208 H 485.341 -1.09111 0.939727 0
M  V30 5209 H 487.294 -4.1899 0.45002 0
M  V30 5210 H 486.018 -3.24626 -0.35855 0
M  V30 5211 H 484.677 -3.2084 1.77362 0
M  V30 5212 H 484.325 -5.02909 0.0955422 0
M  V30 5213 H 484.025 -5.60833 1.75328 0
M  V30 5214 H 485.549 -6.0356 0.924516 0
M  V30 5215 H 486.963 -4.93777 2.91303 0
M  V30 5216 H 485.36 -4.74076 3.67929 0
M  V30 5217 H 486.43 -3.33636 3.51873 0
M  V30 5218 N 487.773 -1.03688 -1.18687 0
M  V30 5219 C 489.189 -0.755413 -1.4059 0
M  V30 5220 C 489.389 0.656659 -1.905 0
M  V30 5221 O 488.445 1.42144 -2.08689 0
M  V30 5222 C 489.758 -1.7983 -2.41001 0
M  V30 5223 C 491.306 -1.81877 -2.54735 0
M  V30 5224 C 491.781 -2.85148 -3.58406 0
M  V30 5225 N 493.272 -2.84015 -3.6591 0
M  V30 5226 C 494.007 -3.60573 -4.45841 0
M  V30 5227 N 493.503 -4.46871 -5.29413 0
M  V30 5228 N 495.296 -3.49079 -4.40568 0
M  V30 5229 H 487.447 -1.94818 -0.846148 0
M  V30 5230 H 489.71 -0.842727 -0.434184 0
M  V30 5231 H 489.416 -2.81097 -2.1137 0
M  V30 5232 H 489.29 -1.62727 -3.40294 0
M  V30 5233 H 491.677 -0.812836 -2.83685 0
M  V30 5234 H 491.758 -2.03057 -1.55568 0
M  V30 5235 H 491.402 -3.85918 -3.30197 0
M  V30 5236 H 491.332 -2.61224 -4.57241 0
M  V30 5237 H 493.823 -2.21431 -3.0623 0
M  V30 5238 H 494.136 -5.02007 -5.87545 0
M  V30 5239 H 492.481 -4.5094 -5.28846 0
M  V30 5240 H 495.672 -2.81066 -3.74325 0
M  V30 5241 H 495.845 -4.08994 -5.02621 0
M  V30 5242 N 489.251 1.34841 -0.815825 0
M  V30 5243 C 490.498 1.98499 -0.400535 0
M  V30 5244 C 490.826 1.64699 1.03463 0
M  V30 5245 O 490.081 0.907006 1.73412 0
M  V30 5246 C 490.38 3.53273 -0.541541 0
M  V30 5247 C 490.046 4.06966 -1.94138 0
M  V30 5248 C 488.708 4.21341 -2.32433 0
M  V30 5249 C 491.06 4.35933 -2.85677 0
M  V30 5250 C 488.388 4.62007 -3.61617 0
M  V30 5251 C 490.74 4.78042 -4.14317 0
M  V30 5252 C 489.404 4.90622 -4.52599 0
M  V30 5253 H 488.674 0.72636 -0.146566 0
M  V30 5254 H 491.321 1.60902 -1.0384 0
M  V30 5255 H 489.626 3.91387 0.179741 0
M  V30 5256 H 491.323 4.00497 -0.20085 0
M  V30 5257 H 487.913 3.96235 -1.63388 0
M  V30 5258 H 492.097 4.24372 -2.57337 0
M  V30 5259 H 487.353 4.69937 -3.91113 0
M  V30 5260 H 491.527 4.99415 -4.85342 0
M  V30 5261 H 489.154 5.2189 -5.52752 0
M  V30 5262 N 490.729 0.570148 1.46925 0
M  V30 5263 C 491.977 0.0508523 2.02036 0
M  V30 5264 C 492.298 -1.30885 1.44548 0
M  V30 5265 O 491.568 -1.85647 0.625453 0
M  V30 5266 H 490.148 0.0158088 0.746833 0
M  V30 5267 H 492.81 0.743086 1.80178 0
M  V30 5268 H 491.906 -0.027575 3.12088 0
M  V30 5269 N 492.207 -1.54576 0.307264 0
M  V30 5270 C 493.435 -2.04675 -0.302597 0
M  V30 5271 C 493.85 -1.18425 -1.47041 0
M  V30 5272 O 493.207 -0.211257 -1.81273 0
M  V30 5273 C 493.258 -3.53575 -0.752801 0
M  V30 5274 O 492.979 -4.36547 0.368536 0
M  V30 5275 C 494.48 -4.19699 -1.42717 0
M  V30 5276 H 491.7 -0.66786 -0.0648374 0
M  V30 5277 H 494.244 -1.99516 0.448716 0
M  V30 5278 H 492.399 -3.59074 -1.45412 0
M  V30 5279 H 492.813 -5.24497 0.0168937 0
M  V30 5280 H 494.287 -5.25388 -1.69327 0
M  V30 5281 H 494.764 -3.69815 -2.36925 0
M  V30 5282 H 495.37 -4.18293 -0.768856 0
M  V30 5283 N 493.685 -0.035106 -1.57561 0
M  V30 5284 C 494.615 0.942993 -2.13612 0
M  V30 5285 C 495.596 1.33531 -1.05373 0
M  V30 5286 O 496.781 1.41287 -1.33235 0
M  V30 5287 C 493.911 2.22332 -2.66807 0
M  V30 5288 C 492.865 1.97156 -3.79886 0
M  V30 5289 C 492.191 3.31506 -4.19533 0
M  V30 5290 C 493.491 1.30596 -5.05709 0
M  V30 5291 H 495.185 0.476179 -2.95589 0
M  V30 5292 H 492.731 0.227602 -1.4219 0
M  V30 5293 H 494.684 2.91142 -3.04654 0
M  V30 5294 H 493.408 2.7119 -1.81999 0
M  V30 5295 H 492.067 1.30763 -3.42486 0
M  V30 5296 H 491.715 3.78134 -3.31698 0
M  V30 5297 H 491.415 3.15465 -4.95738 0
M  V30 5298 H 492.939 4.01574 -4.59968 0
M  V30 5299 H 494.353 1.89416 -5.41105 0
M  V30 5300 H 492.75 1.24934 -5.86951 0
M  V30 5301 H 493.82 0.279742 -4.84092 0
M  V30 5302 N 495.163 1.55791 0.238111 0
M  V30 5303 C 496.393 1.81834 0.980809 0
M  V30 5304 C 496.801 0.609741 1.79106 0
M  V30 5305 O 496.144 -0.431073 1.78571 0
M  V30 5306 C 496.206 3.01363 1.96011 0
M  V30 5307 C 495.87 4.37037 1.33597 0
M  V30 5308 C 496.867 5.14692 0.734063 0
M  V30 5309 C 494.552 4.83743 1.3527 0
M  V30 5310 C 496.546 6.37206 0.157208 0
M  V30 5311 C 494.233 6.06204 0.77199 0
M  V30 5312 C 495.231 6.82775 0.175282 0
M  V30 5313 O 494.919 8.02922 -0.396432 0
M  V30 5314 H 494.651 0.6088 0.293834 0
M  V30 5315 H 497.205 2.03702 0.263552 0
M  V30 5316 H 495.435 2.75273 2.71591 0
M  V30 5317 H 497.124 3.14422 2.56697 0
M  V30 5318 H 497.89 4.79722 0.713582 0
M  V30 5319 H 493.769 4.24129 1.80653 0
M  V30 5320 H 497.313 6.96915 -0.30917 0
M  V30 5321 H 493.21 6.4065 0.789828 0
M  V30 5322 H 493.978 8.17989 -0.289145 0
M  V30 5323 N 496.642 -0.504142 1.49319 0
M  V30 5324 C 497.87 -1.28256 1.62351 0
M  V30 5325 C 498.285 -1.86502 0.293682 0
M  V30 5326 O 497.642 -1.67678 -0.720449 0
M  V30 5327 C 497.693 -2.41507 2.68992 0
M  V30 5328 O 497.414 -1.85656 3.96817 0
M  V30 5329 C 498.915 -3.32929 2.927 0
M  V30 5330 H 496.135 -0.389115 0.546654 0
M  V30 5331 H 498.679 -0.605531 1.95329 0
M  V30 5332 H 496.834 -3.05046 2.38801 0
M  V30 5333 H 497.248 -2.59981 4.55533 0
M  V30 5334 H 498.722 -4.0868 3.71058 0
M  V30 5335 H 499.199 -3.89733 2.02496 0
M  V30 5336 H 499.805 -2.75158 3.24296 0
M  V30 5337 N 498.12 -1.38341 -0.754957 0
M  V30 5338 C 499.03 -1.3769 -1.89944 0
M  V30 5339 C 500.046 -0.274194 -1.71826 0
M  V30 5340 O 501.222 -0.512391 -1.94773 0
M  V30 5341 C 498.287 -1.19938 -3.25293 0
M  V30 5342 C 497.348 -2.40001 -3.55946 0
M  V30 5343 C 496.581 -2.23087 -4.84838 0
M  V30 5344 O 496.804 -1.22386 -5.57116 0
M  V30 5345 O 495.738 -3.11646 -5.14937 0
M  V30 5346 H 499.564 -2.3412 -1.93446 0
M  V30 5347 H 497.149 -1.19246 -0.900044 0
M  V30 5348 H 499.031 -1.12093 -4.06218 0
M  V30 5349 H 497.706 -0.265919 -3.22606 0
M  V30 5350 H 496.613 -2.53421 -2.75188 0
M  V30 5351 H 497.946 -3.31973 -3.63394 0
M  V30 5352 N 499.598 0.982988 -1.23187 0
M  V30 5353 C 500.546 2.09616 -1.00817 0
M  V30 5354 C 501.54 1.6932 0.0519995 0
M  V30 5355 O 502.746 1.79715 -0.101284 0
M  V30 5356 H 499.121 0.685628 -0.308899 0
M  V30 5357 H 501.092 2.25652 -1.95253 0
M  V30 5358 C 499.841 3.42249 -0.613243 0
M  V30 5359 H 499.164 3.73705 -1.42073 0
M  V30 5360 H 500.604 4.21086 -0.496208 0
M  V30 5361 C 499.063 3.30002 0.678233 0
M  V30 5362 O 499.593 3.6263 1.72807 0
M  V30 5363 N 497.799 2.83164 0.653165 0
M  V30 5364 H 497.346 2.56811 -0.201492 0
M  V30 5365 H 497.304 2.75352 1.51752 0
M  V30 5366 N 501.076 1.04316 1.18135 0
M  V30 5367 C 502.008 0.594444 2.21357 0
M  V30 5368 C 503.021 -0.337215 1.59269 0
M  V30 5369 O 504.21 -0.131337 1.78016 0
M  V30 5370 C 501.31 -0.151251 3.38562 0
M  V30 5371 C 500.483 0.788907 4.30227 0
M  V30 5372 C 499.542 0.0860572 5.2613 0
M  V30 5373 O 498.568 0.717302 5.64662 0
M  V30 5374 N 499.77 -1.17969 5.68387 0
M  V30 5375 H 502.535 1.48227 2.60478 0
M  V30 5376 H 500.096 0.92396 1.32946 0
M  V30 5377 H 502.088 -0.631352 3.99745 0
M  V30 5378 H 500.658 -0.940639 2.98112 0
M  V30 5379 H 499.878 1.44882 3.6661 0
M  V30 5380 H 501.166 1.42738 4.88368 0
M  V30 5381 H 500.564 -1.71302 5.3914 0
M  V30 5382 H 499.121 -1.60402 6.31755 0
M  V30 5383 N 502.554 -1.34406 0.822964 0
M  V30 5384 C 503.831 -1.92733 0.333641 0
M  V30 5385 C 504.211 -1.75107 -1.17901 0
M  V30 5386 O 503.559 -1.12983 -1.98613 0
M  V30 5387 C 503.769 -3.40557 0.763023 0
M  V30 5388 C 505.117 -4.17709 0.761879 0
M  V30 5389 O 506.141 -3.49141 0.705606 0
M  V30 5390 O 505 -5.40082 0.835109 0
M  V30 5391 H 502.094 -0.821964 0.0911249 0
M  V30 5392 H 504.64 -1.4338 0.907757 0
M  V30 5393 H 503.412 -3.47187 1.8049 0
M  V30 5394 H 503.035 -3.97259 0.164605 0
M  V30 5395 N 504.032 -0.577932 -1.46621 0
M  V30 5396 C 505.278 -0.0617793 -2.02706 0
M  V30 5397 C 505.611 1.29294 -1.44903 0
M  V30 5398 O 504.886 1.8461 -0.61232 0
M  V30 5399 C 505.169 0.00911824 -3.60099 0
M  V30 5400 C 505.022 -1.37416 -4.28295 0
M  V30 5401 C 506.341 0.712159 -4.343 0
M  V30 5402 H 503.46 -0.0239246 -0.736612 0
M  V30 5403 H 506.102 -0.744211 -1.74818 0
M  V30 5404 H 504.252 0.590292 -3.83989 0
M  V30 5405 H 505.924 -2.00013 -4.15683 0
M  V30 5406 H 504.167 -1.94319 -3.87843 0
M  V30 5407 H 504.838 -1.27707 -5.37024 0
M  V30 5408 H 507.314 0.218486 -4.15526 0
M  V30 5409 H 506.19 0.730782 -5.44014 0
M  V30 5410 H 506.451 1.77251 -4.05012 0
M  V30 5411 N 505.51 1.54411 -0.315457 0
M  V30 5412 C 506.473 2.22713 0.54142 0
M  V30 5413 C 507.473 1.2179 1.04995 0
M  V30 5414 O 508.663 1.46426 0.943667 0
M  V30 5415 C 505.795 2.92485 1.75116 0
M  V30 5416 H 506.988 2.99849 -0.0555508 0
M  V30 5417 H 504.541 1.56159 -0.0664453 0
M  V30 5418 H 505.276 2.19466 2.38758 0
M  V30 5419 H 505.061 3.66483 1.39401 0
M  V30 5420 H 506.551 3.44548 2.35959 0
M  V30 5421 N 506.988 0.0434614 1.5754 0
M  V30 5422 C 508.216 -0.641835 1.96693 0
M  V30 5423 C 508.631 -1.64832 0.920652 0
M  V30 5424 O 507.988 -1.82247 -0.095993 0
M  V30 5425 C 508.039 -1.33557 3.35924 0
M  V30 5426 O 507.76 -0.369403 4.3654 0
M  V30 5427 C 509.261 -2.11135 3.89791 0
M  V30 5428 H 506.481 -0.176013 0.647503 0
M  V30 5429 H 509.025 0.107478 2.04217 0
M  V30 5430 H 507.18 -2.03617 3.29574 0
M  V30 5431 H 507.594 -0.863674 5.1734 0
M  V30 5432 H 509.068 -2.55107 4.89514 0
M  V30 5433 H 509.545 -2.95634 3.24803 0
M  V30 5434 H 510.151 -1.46002 3.99454 0
M  V30 5435 N 508.466 -1.55915 -0.229846 0
M  V30 5436 C 509.429 -1.90914 -1.26824 0
M  V30 5437 C 510.429 -0.786999 -1.40225 0
M  V30 5438 O 511.619 -1.05484 -1.38632 0
M  V30 5439 C 508.751 -2.15264 -2.64337 0
M  V30 5440 H 509.944 -2.8378 -0.969998 0
M  V30 5441 H 507.497 -1.49069 -0.4699 0
M  V30 5442 H 508.232 -1.24923 -2.99274 0
M  V30 5443 H 508.017 -2.97005 -2.55989 0
M  V30 5444 H 509.507 -2.43467 -3.39284 0
M  V30 5445 N 509.944 0.496216 -1.49584 0
M  V30 5446 C 511.19 1.25189 -1.59548 0
M  V30 5447 C 511.523 1.9212 -0.283466 0
M  V30 5448 O 510.798 1.80947 0.713324 0
M  V30 5449 C 511.081 2.31516 -2.75812 0
M  V30 5450 C 510.934 1.69054 -4.16822 0
M  V30 5451 C 512.253 3.3304 -2.87702 0
M  V30 5452 H 509.372 0.45379 -0.580727 0
M  V30 5453 H 512.014 0.549327 -1.81886 0
M  V30 5454 H 510.164 2.91438 -2.56897 0
M  V30 5455 H 511.836 1.12923 -4.47265 0
M  V30 5456 H 510.079 0.994485 -4.22247 0
M  V30 5457 H 510.75 2.462 -4.94054 0
M  V30 5458 H 513.226 2.83114 -3.04936 0
M  V30 5459 H 512.102 4.04794 -3.7072 0
M  V30 5460 H 512.363 3.95655 -1.97255 0
M  V30 5461 N 511.423 1.38739 0.74761 0
M  V30 5462 C 512.386 1.36241 1.84312 0
M  V30 5463 C 513.386 0.261811 1.58654 0
M  V30 5464 O 514.576 0.519031 1.66288 0
M  V30 5465 C 511.708 1.12253 3.21888 0
M  V30 5466 H 512.901 2.33712 1.87933 0
M  V30 5467 H 510.454 1.2412 0.949946 0
M  V30 5468 H 511.189 0.154133 3.23934 0
M  V30 5469 H 510.974 1.91943 3.41907 0
M  V30 5470 H 512.464 1.13215 4.0196 0
M  V30 5471 N 512.901 -0.976442 1.23707 0
M  V30 5472 C 514.126 -1.75875 1.09922 0
M  V30 5473 C 514.551 -1.84911 -0.34489 0
M  V30 5474 O 513.909 -1.31363 -1.24954 0
M  V30 5475 C 513.957 -3.16179 1.73388 0
M  V30 5476 O 513.061 -4.00124 0.99871 0
M  V30 5477 H 512.402 -0.540954 0.385052 0
M  V30 5478 H 514.932 -1.22546 1.6384 0
M  V30 5479 H 514.942 -3.66741 1.78788 0
M  V30 5480 H 513.617 -3.08917 2.78466 0
M  V30 5481 H 512.194 -3.58624 1.02193 0
M  V30 5482 N 514.379 -1.04941 -1.1758 0
M  V30 5483 C 515.309 -0.669172 -2.23706 0
M  V30 5484 C 516.29 0.331835 -1.66832 0
M  V30 5485 O 517.475 0.209988 -1.93061 0
M  V30 5486 C 514.605 -0.0404889 -3.47276 0
M  V30 5487 C 513.559 -0.965983 -4.16957 0
M  V30 5488 C 512.885 -0.201312 -5.34321 0
M  V30 5489 C 514.185 -2.28902 -4.69469 0
M  V30 5490 H 515.879 -1.55639 -2.55767 0
M  V30 5491 H 513.425 -0.749793 -1.22939 0
M  V30 5492 H 515.378 0.237298 -4.20731 0
M  V30 5493 H 514.102 0.881658 -3.14475 0
M  V30 5494 H 512.761 -1.22829 -3.45411 0
M  V30 5495 H 512.409 0.723519 -4.97769 0
M  V30 5496 H 512.109 -0.817968 -5.81879 0
M  V30 5497 H 513.633 0.0692499 -6.10561 0
M  V30 5498 H 515.047 -2.07132 -5.34574 0
M  V30 5499 H 513.444 -2.85942 -5.27596 0
M  V30 5500 H 514.514 -2.92937 -3.86414 0
M  V30 5501 N 515.857 1.33968 -0.830081 0
M  V30 5502 C 517.097 1.99879 -0.427521 0
M  V30 5503 C 517.461 1.64355 0.992546 0
M  V30 5504 O 518.662 2.23164 1.49837 0
M  V30 5505 C 516.933 3.51771 -0.631815 0
M  V30 5506 S 518.492 4.37608 -0.323168 0
M  V30 5507 H 515.31 0.692485 -0.161202 0
M  V30 5508 H 517.912 1.63129 -1.07745 0
M  V30 5509 H 516.616 3.75113 -1.66488 0
M  V30 5510 H 516.147 3.93386 0.0325936 0
M  V30 5511 H 518.162 4.88683 0.860432 0
M  V30 5512 N 517.335 0.585699 1.46312 0
M  V30 5513 C 518.751 0.247607 1.57668 0
M  V30 5514 C 518.951 -1.25007 1.58037 0
M  V30 5515 O 518.007 -2.03196 1.49893 0
M  V30 5516 C 519.32 0.899456 2.86933 0
M  V30 5517 C 520.868 0.873326 3.00569 0
M  V30 5518 C 521.343 1.50477 4.32574 0
M  V30 5519 N 522.834 1.46925 4.3928 0
M  V30 5520 C 523.569 1.92719 5.40044 0
M  V30 5521 N 523.065 2.46499 6.47464 0
M  V30 5522 N 524.858 1.83617 5.31264 0
M  V30 5523 H 517.009 1.55841 1.44317 0
M  V30 5524 H 519.272 0.651564 0.688599 0
M  V30 5525 H 518.978 1.95313 2.92482 0
M  V30 5526 H 518.852 0.409476 3.74971 0
M  V30 5527 H 521.239 -0.171736 2.946 0
M  V30 5528 H 521.32 1.40136 2.13999 0
M  V30 5529 H 520.964 2.54905 4.39302 0
M  V30 5530 H 520.894 0.951944 5.17924 0
M  V30 5531 H 523.385 1.07616 3.62253 0
M  V30 5532 H 523.698 2.79291 7.20567 0
M  V30 5533 H 522.043 2.50526 6.48276 0
M  V30 5534 H 525.234 1.41358 4.46246 0
M  V30 5535 H 525.407 2.19622 6.09648 0
M  V30 5536 N 518.813 -1.54241 0.323641 0
M  V30 5537 C 520.043 -2.04687 -0.280464 0
M  V30 5538 C 520.451 -1.19939 -1.46326 0
M  V30 5539 O 519.794 -0.222872 -1.82343 0
M  V30 5540 C 519.856 -3.50978 -0.778123 0
M  V30 5541 C 519.52 -4.56127 0.282371 0
M  V30 5542 C 520.517 -5.07726 1.11847 0
M  V30 5543 C 518.202 -5.00451 0.430582 0
M  V30 5544 C 520.196 -6.02212 2.08851 0
M  V30 5545 C 517.883 -5.94752 1.40404 0
M  V30 5546 C 518.881 -6.45519 2.23147 0
M  V30 5547 O 518.569 -7.37968 3.1884 0
M  V30 5548 H 518.301 -0.673192 -0.0615473 0
M  V30 5549 H 520.855 -1.99999 0.467921 0
M  V30 5550 H 519.085 -3.53064 -1.57742 0
M  V30 5551 H 520.774 -3.84499 -1.30058 0
M  V30 5552 H 521.54 -4.74261 1.01496 0
M  V30 5553 H 517.419 -4.6055 -0.203569 0
M  V30 5554 H 520.963 -6.41761 2.73474 0
M  V30 5555 H 516.86 -6.27633 1.5082 0
M  V30 5556 H 517.628 -7.55841 3.14079 0
M  V30 5557 N 520.291 -0.0518155 -1.57515 0
M  V30 5558 C 521.241 0.932017 -2.0808 0
M  V30 5559 C 522.225 1.27141 -0.986098 0
M  V30 5560 O 523.417 1.25373 -1.24943 0
M  V30 5561 C 520.546 2.20665 -2.62986 0
M  V30 5562 C 519.632 1.89462 -3.79427 0
M  V30 5563 N 520.023 1.28621 -4.89173 0
M  V30 5564 C 518.321 2.19327 -3.88345 0
M  V30 5565 C 519.022 1.15062 -5.70207 0
M  V30 5566 N 517.998 1.65372 -5.17835 0
M  V30 5567 H 521.8 0.456964 -2.90326 0
M  V30 5568 H 519.314 0.152619 -1.61681 0
M  V30 5569 H 521.311 2.92044 -2.97516 0
M  V30 5570 H 519.971 2.68776 -1.8218 0
M  V30 5571 H 520.982 0.958341 -5.08956 0
M  V30 5572 H 517.659 2.69955 -3.18482 0
M  V30 5573 H 519.049 0.678243 -6.68468 0
M  V30 5574 N 521.769 1.56035 0.221574 0
M  V30 5575 C 523.017 1.78693 0.944102 0
M  V30 5576 C 523.338 0.620317 1.8487 0
M  V30 5577 O 522.608 -0.362784 1.92512 0
M  V30 5578 H 521.188 0.659082 0.351597 0
M  V30 5579 H 523.85 1.93497 0.233435 0
M  V30 5580 H 522.946 2.70837 1.55093 0
M  V30 5581 N 523.247 -0.488276 1.49845 0
M  V30 5582 C 524.177 -1.59675 1.70371 0
M  V30 5583 C 525.158 -1.60878 0.552473 0
M  V30 5584 O 526.343 -1.77417 0.78973 0
M  V30 5585 C 523.473 -2.98098 1.782 0
M  V30 5586 C 522.427 -3.11761 2.93239 0
M  V30 5587 C 521.753 -4.51661 2.86193 0
M  V30 5588 C 523.053 -2.90589 4.33999 0
M  V30 5589 H 524.747 -1.42752 2.63177 0
M  V30 5590 H 522.293 -0.685317 1.26647 0
M  V30 5591 H 524.246 -3.75555 1.91144 0
M  V30 5592 H 522.97 -3.16138 0.820018 0
M  V30 5593 H 521.629 -2.36732 2.79917 0
M  V30 5594 H 521.277 -4.66595 1.87877 0
M  V30 5595 H 520.977 -4.61742 3.63412 0
M  V30 5596 H 522.501 -5.31162 3.01163 0
M  V30 5597 H 523.915 -3.57807 4.47936 0
M  V30 5598 H 522.312 -3.1213 5.12538 0
M  V30 5599 H 523.382 -1.86595 4.4756 0
M  V30 5600 N 524.725 -1.39134 -0.740242 0
M  V30 5601 C 525.95 -1.39518 -1.53459 0
M  V30 5602 C 526.375 0.00968883 -1.88098 0
M  V30 5603 O 525.733 0.995312 -1.51536 0
M  V30 5604 C 525.781 -2.26981 -2.802 0
M  V30 5605 O 524.885 -1.69609 -3.75908 0
M  V30 5606 H 524.226 -0.475328 -0.463637 0
M  V30 5607 H 526.756 -1.83064 -0.913717 0
M  V30 5608 H 526.766 -2.41309 -3.28989 0
M  V30 5609 H 525.441 -3.29081 -2.5432 0
M  V30 5610 H 524.018 -1.64495 -3.34658 0
M  V30 5611 N 526.204 0.969867 -1.24223 0
M  V30 5612 C 527.452 1.70918 -1.0785 0
M  V30 5613 C 527.773 1.91186 0.383763 0
M  V30 5614 O 527.043 1.48806 1.27411 0
M  V30 5615 H 525.623 0.633334 -0.396103 0
M  V30 5616 H 528.285 1.16689 -1.56108 0
M  V30 5617 H 527.381 2.69455 -1.57482 0
M  V30 5618 N 527.682 1.05563 1.17022 0
M  V30 5619 C 528.612 0.681026 2.23348 0
M  V30 5620 C 529.593 -0.322983 1.67005 0
M  V30 5621 O 530.778 -0.199746 1.9317 0
M  V30 5622 C 527.908 0.0589053 3.4725 0
M  V30 5623 C 526.862 0.988082 4.16438 0
M  V30 5624 C 526.188 0.229646 5.34207 0
M  V30 5625 C 527.488 2.31388 4.68249 0
M  V30 5626 H 529.182 1.56993 2.54938 0
M  V30 5627 H 526.728 0.756302 1.2254 0
M  V30 5628 H 528.681 -0.214982 4.20851 0
M  V30 5629 H 527.405 -0.864968 3.14938 0
M  V30 5630 H 526.064 1.24659 3.44754 0
M  V30 5631 H 525.712 -0.697111 4.98146 0
M  V30 5632 H 525.412 0.848815 5.81437 0
M  V30 5633 H 526.936 -0.0368694 6.10589 0
M  V30 5634 H 528.35 2.09964 5.33468 0
M  V30 5635 H 526.747 2.88736 5.26072 0
M  V30 5636 H 527.817 2.94982 3.84855 0
M  V30 5637 N 529.16 -1.33526 0.837174 0
M  V30 5638 C 530.406 -1.9813 0.432704 0
M  V30 5639 C 530.739 -1.66168 -1.00508 0
M  V30 5640 O 530.014 -0.94069 -1.70239 0
M  V30 5641 C 530.297 -3.54151 0.651834 0
M  V30 5642 C 530.15 -3.95806 2.13676 0
M  V30 5643 C 531.469 -4.39993 0.0968937 0
M  V30 5644 H 528.588 -0.719713 0.15869 0
M  V30 5645 H 531.23 -1.58193 1.05237 0
M  V30 5646 H 529.38 -3.88301 0.124369 0
M  V30 5647 H 531.052 -3.71921 2.72896 0
M  V30 5648 H 529.295 -3.45599 2.62191 0
M  V30 5649 H 529.966 -5.0447 2.24084 0
M  V30 5650 H 532.442 -4.12479 0.547733 0
M  V30 5651 H 531.318 -5.48186 0.279917 0
M  V30 5652 H 531.579 -4.3066 -0.9992 0
M  V30 5653 N 530.638 -0.59345 -1.46 0
M  V30 5654 C 531.57 0.171569 -2.28557 0
M  V30 5655 C 532.583 0.845273 -1.39137 0
M  V30 5656 O 533.772 0.713033 -1.6364 0
M  V30 5657 C 530.872 1.26311 -3.14482 0
M  V30 5658 C 530.045 0.679258 -4.32094 0
M  V30 5659 C 529.104 1.65987 -4.99334 0
M  V30 5660 O 528.13 1.19171 -5.56585 0
M  V30 5661 N 529.332 2.99414 -4.97324 0
M  V30 5662 H 532.097 -0.536771 -2.94854 0
M  V30 5663 H 529.658 -0.431954 -1.56031 0
M  V30 5664 H 531.65 1.91863 -3.5633 0
M  V30 5665 H 530.22 1.87416 -2.50188 0
M  V30 5666 H 529.44 -0.153992 -3.93899 0
M  V30 5667 H 530.728 0.26916 -5.08088 0
M  V30 5668 H 530.126 3.40064 -4.52076 0
M  V30 5669 H 528.683 3.60426 -5.4308 0
M  V30 5670 N 532.116 1.54067 -0.331816 0
M  V30 5671 C 533.346 2.04833 0.269605 0
M  V30 5672 C 533.754 1.20714 1.45687 0
M  V30 5673 O 533.097 0.232539 1.82222 0
M  V30 5674 C 533.159 3.51386 0.759499 0
M  V30 5675 C 532.823 4.55971 -0.306557 0
M  V30 5676 C 533.82 5.07126 -1.14538 0
M  V30 5677 C 531.505 5.00216 -0.457116 0
M  V30 5678 C 533.499 6.01096 -2.12042 0
M  V30 5679 C 531.186 5.93999 -1.43556 0
M  V30 5680 C 532.184 6.44326 -2.26568 0
M  V30 5681 O 531.872 7.36267 -3.22749 0
M  V30 5682 H 531.604 0.673509 0.0579763 0
M  V30 5683 H 534.158 1.99748 -0.478521 0
M  V30 5684 H 532.388 3.53896 1.55867 0
M  V30 5685 H 534.077 3.85184 1.28017 0
M  V30 5686 H 534.843 4.73716 -1.04009 0
M  V30 5687 H 530.722 4.60652 0.179142 0
M  V30 5688 H 534.266 6.40302 -2.76873 0
M  V30 5689 H 530.163 6.26825 -1.54146 0
M  V30 5690 H 530.931 7.54165 -3.18083 0
M  V30 5691 N 533.594 0.0601682 1.57485 0
M  V30 5692 C 534.526 -0.94047 2.09016 0
M  V30 5693 C 535.539 -1.26897 1.01985 0
M  V30 5694 O 536.728 -1.22819 1.29529 0
M  V30 5695 C 533.828 -2.25955 2.52582 0
M  V30 5696 C 533.001 -2.11163 3.83052 0
M  V30 5697 C 532.06 -3.26273 4.12835 0
M  V30 5698 O 531.086 -3.01779 4.82616 0
M  V30 5699 N 532.288 -4.51022 3.65458 0
M  V30 5700 H 535.053 -0.500578 2.9549 0
M  V30 5701 H 532.614 -0.125852 1.6141 0
M  V30 5702 H 534.606 -3.01846 2.69575 0
M  V30 5703 H 533.176 -2.61481 1.71308 0
M  V30 5704 H 532.396 -1.19808 3.75552 0
M  V30 5705 H 533.684 -1.98517 4.68475 0
M  V30 5706 H 533.082 -4.73811 3.09062 0
M  V30 5707 H 531.639 -5.23978 3.87673 0
M  V30 5708 N 535.072 -1.5615 -0.213296 0
M  V30 5709 C 536.005 -1.88115 -1.29182 0
M  V30 5710 C 536.983 -0.739348 -1.44819 0
M  V30 5711 O 538.167 -0.988541 -1.605 0
M  V30 5712 C 535.294 -2.09541 -2.66102 0
M  V30 5713 C 534.34 -3.32236 -2.67436 0
M  V30 5714 S 535.173 -4.87915 -2.20679 0
M  V30 5715 C 536.329 -5.12387 -3.59458 0
M  V30 5716 H 536.562 -2.793 -1.01876 0
M  V30 5717 H 534.095 -1.48692 -0.415934 0
M  V30 5718 H 536.053 -2.22568 -3.44925 0
M  V30 5719 H 534.714 -1.19138 -2.90628 0
M  V30 5720 H 533.907 -3.44297 -3.6807 0
M  V30 5721 H 533.509 -3.18108 -1.96681 0
M  V30 5722 H 535.801 -5.01791 -4.55205 0
M  V30 5723 H 536.744 -6.14236 -3.52306 0
M  V30 5724 H 537.152 -4.40089 -3.53528 0
M  V30 5725 N 536.55 0.480323 -1.50102 0
M  V30 5726 C 537.513 1.56181 -1.6775 0
M  V30 5727 C 538.513 1.51156 -0.548503 0
M  V30 5728 O 539.703 1.5394 -0.815363 0
M  V30 5729 C 536.835 2.95823 -1.69415 0
M  V30 5730 H 538.028 1.41855 -2.6423 0
M  V30 5731 H 535.581 0.70605 -1.39444 0
M  V30 5732 H 536.316 3.15604 -0.745948 0
M  V30 5733 H 536.101 3.00878 -2.51425 0
M  V30 5734 H 537.591 3.74359 -1.85054 0
M  V30 5735 N 538.028 1.39524 0.732853 0
M  V30 5736 C 538.96 1.34318 1.85718 0
M  V30 5737 C 539.973 0.251576 1.60844 0
M  V30 5738 O 541.162 0.510685 1.71039 0
M  V30 5739 C 538.262 1.06334 3.21786 0
M  V30 5740 C 537.435 2.26813 3.73998 0
M  V30 5741 C 536.494 1.95253 4.88634 0
M  V30 5742 O 535.52 2.67957 5.02183 0
M  V30 5743 N 536.722 0.919984 5.73164 0
M  V30 5744 H 539.487 2.3121 1.90688 0
M  V30 5745 H 537.048 1.33654 0.91368 0
M  V30 5746 H 539.04 0.832363 3.96048 0
M  V30 5747 H 537.61 0.181682 3.12072 0
M  V30 5748 H 536.83 2.65849 2.91064 0
M  V30 5749 H 538.118 3.0717 4.05616 0
M  V30 5750 H 537.516 0.317487 5.64808 0
M  V30 5751 H 536.073 0.748905 6.47483 0
M  V30 5752 N 539.506 -0.963266 1.24736 0
M  V30 5753 C 540.436 -2.07628 1.06832 0
M  V30 5754 C 541.417 -1.70088 -0.0200566 0
M  V30 5755 O 542.602 -1.93636 0.147854 0
M  V30 5756 C 539.732 -3.40636 0.677069 0
M  V30 5757 C 538.686 -3.9215 1.71471 0
M  V30 5758 C 538.012 -5.21553 1.1784 0
M  V30 5759 C 539.312 -4.19493 3.11164 0
M  V30 5760 H 541.006 -2.22864 1.9993 0
M  V30 5761 H 538.552 -1.07093 0.96266 0
M  V30 5762 H 540.505 -4.17941 0.538792 0
M  V30 5763 H 539.229 -3.25313 -0.289612 0
M  V30 5764 H 537.888 -3.17005 1.84128 0
M  V30 5765 H 537.536 -5.02593 0.202195 0
M  V30 5766 H 537.236 -5.56988 1.87185 0
M  V30 5767 H 538.76 -6.01463 1.05233 0
M  V30 5768 H 540.174 -4.87487 3.01711 0
M  V30 5769 H 538.571 -4.66165 3.77902 0
M  V30 5770 H 539.641 -3.26097 3.58871 0
M  V30 5771 N 540.985 -1.06182 -1.16461 0
M  V30 5772 C 541.915 -0.692861 -2.22984 0
M  V30 5773 C 542.896 0.314122 -1.67174 0
M  V30 5774 O 544.081 0.189499 -1.93273 0
M  V30 5775 C 541.211 -0.07732 -3.47214 0
M  V30 5776 C 540.165 -1.01015 -4.15909 0
M  V30 5777 C 539.491 -0.257973 -5.34077 0
M  V30 5778 C 540.791 -2.33868 -4.67015 0
M  V30 5779 H 542.485 -1.58343 -2.54102 0
M  V30 5780 H 540.031 -0.76279 -1.22137 0
M  V30 5781 H 541.984 0.19266 -4.20959 0
M  V30 5782 H 540.708 0.848254 -3.15392 0
M  V30 5783 H 539.367 -1.26486 -3.44088 0
M  V30 5784 H 539.015 0.670684 -4.98509 0
M  V30 5785 H 538.715 -0.879638 -5.80979 0
M  V30 5786 H 540.239 0.00448788 -6.106 0
M  V30 5787 H 541.653 -2.1279 -5.32347 0
M  V30 5788 H 540.05 -2.91522 -5.24533 0
M  V30 5789 H 541.12 -2.97019 -3.83286 0
M  V30 5790 N 542.463 1.3308 -0.844243 0
M  V30 5791 C 543.879 1.50447 -0.532729 0
M  V30 5792 C 544.079 1.78292 0.938837 0
M  V30 5793 O 543.135 1.84635 1.72239 0
M  V30 5794 C 544.448 2.65555 -1.41072 0
M  V30 5795 C 545.996 2.7944 -1.41005 0
M  V30 5796 C 546.471 3.97616 -2.27301 0
M  V30 5797 N 547.962 4.0486 -2.2504 0
M  V30 5798 C 548.697 4.95508 -2.88547 0
M  V30 5799 N 548.193 5.91236 -3.61126 0
M  V30 5800 N 549.986 4.88548 -2.77989 0
M  V30 5801 H 542.137 1.13269 -1.79677 0
M  V30 5802 H 544.4 0.55734 -0.766861 0
M  V30 5803 H 544.106 2.51675 -2.45668 0
M  V30 5804 H 543.98 3.61089 -1.09061 0
M  V30 5805 H 546.367 2.92749 -0.371784 0
M  V30 5806 H 546.448 1.8465 -1.77026 0
M  V30 5807 H 546.092 3.85066 -3.3119 0
M  V30 5808 H 546.022 4.91661 -1.88619 0
M  V30 5809 H 548.513 3.36353 -1.72264 0
M  V30 5810 H 548.826 6.57079 -4.06776 0
M  V30 5811 H 547.171 5.91295 -3.65234 0
M  V30 5812 H 550.362 4.12729 -2.20846 0
M  V30 5813 H 550.535 5.58994 -3.27765 0
M  V30 5814 N 543.941 0.601185 1.45683 0
M  V30 5815 C 545.218 0.0261659 1.95582 0
M  V30 5816 C 545.598 -1.4399 1.5437 0
M  V30 5817 O 544.946 -2.13919 0.80318 0
M  V30 5818 C 545.156 0.217557 3.48321 0
M  V30 5819 C 546.504 0.0950076 4.24494 0
M  V30 5820 O 547.528 0.147345 3.55895 0
M  V30 5821 O 546.387 -0.025261 5.46494 0
M  V30 5822 H 543.481 -0.0393688 0.826062 0
M  V30 5823 H 546.027 0.670798 1.55879 0
M  V30 5824 H 544.799 1.23601 3.71266 0
M  V30 5825 H 544.422 -0.46264 3.94899 0
M  V30 5826 N 545.419 -1.53889 0.339982 0
M  V30 5827 C 546.835 -1.59595 -0.0120752 0
M  V30 5828 C 547.035 -1.35605 -1.49042 0
M  V30 5829 O 546.091 -1.14856 -2.24865 0
M  V30 5830 C 547.404 -2.9774 0.420898 0
M  V30 5831 C 548.952 -3.1077 0.37294 0
M  V30 5832 C 549.427 -4.51286 0.781327 0
M  V30 5833 N 550.918 -4.57325 0.735374 0
M  V30 5834 C 551.653 -5.64194 1.02336 0
M  V30 5835 N 551.149 -6.7893 1.37933 0
M  V30 5836 N 552.942 -5.54051 0.947838 0
M  V30 5837 H 545.093 -1.67738 1.30299 0
M  V30 5838 H 547.356 -0.785385 0.530918 0
M  V30 5839 H 547.062 -3.20349 1.45152 0
M  V30 5840 H 546.936 -3.76639 -0.205721 0
M  V30 5841 H 549.323 -2.87886 -0.648505 0
M  V30 5842 H 549.404 -2.33939 1.03472 0
M  V30 5843 H 549.048 -4.74905 1.80077 0
M  V30 5844 H 548.978 -5.26511 0.0970679 0
M  V30 5845 H 551.469 -3.74931 0.472773 0
M  V30 5846 H 551.782 -7.56392 1.58402 0
M  V30 5847 H 550.127 -6.80386 1.41774 0
M  V30 5848 H 553.318 -4.63293 0.669115 0
M  V30 5849 H 553.491 -6.37246 1.17563 0
M  V30 5850 N 546.897 -0.0685191 -1.57451 0
M  V30 5851 C 548.174 0.642167 -1.84758 0
M  V30 5852 C 548.554 1.87991 -0.960344 0
M  V30 5853 O 547.902 2.28485 -0.0257894 0
M  V30 5854 C 548.112 0.982946 -3.34872 0
M  V30 5855 C 549.46 1.35784 -4.02303 0
M  V30 5856 O 550.484 1.07477 -3.39598 0
M  V30 5857 O 549.343 1.88681 -5.12895 0
M  V30 5858 H 546.437 0.318625 -0.763156 0
M  V30 5859 H 548.983 -0.0992015 -1.6941 0
M  V30 5860 H 547.755 0.10372 -3.91163 0
M  V30 5861 H 547.378 1.78119 -3.55471 0
M  V30 5862 N 548.375 1.56261 0.205012 0
M  V30 5863 C 549.621 1.81211 0.923805 0
M  V30 5864 C 549.976 0.644065 1.813 0
M  V30 5865 O 549.269 -0.361208 1.88164 0
M  V30 5866 C 549.463 3.09722 1.78345 0
M  V30 5867 C 549.292 4.38915 0.978979 0
M  V30 5868 C 548.062 5.00874 0.667332 0
M  V30 5869 C 550.26 5.13199 0.336386 0
M  V30 5870 N 548.242 6.137 -0.156814 0
M  V30 5871 C 549.613 6.19009 -0.350402 0
M  V30 5872 C 551.668 4.97266 0.251101 0
M  V30 5873 C 550.371 7.10616 -1.11434 0
M  V30 5874 C 552.397 5.89288 -0.499413 0
M  V30 5875 C 551.759 6.94536 -1.17468 0
M  V30 5876 H 547.858 0.714528 0.317764 0
M  V30 5877 H 550.442 1.93738 0.193317 0
M  V30 5878 H 548.613 2.98448 2.48563 0
M  V30 5879 H 550.345 3.22798 2.44098 0
M  V30 5880 H 547.1 4.63151 0.989366 0
M  V30 5881 H 547.524 6.74695 -0.558206 0
M  V30 5882 H 552.166 4.15935 0.758823 0
M  V30 5883 H 549.884 7.91417 -1.63353 0
M  V30 5884 H 553.47 5.79034 -0.566627 0
M  V30 5885 H 552.35 7.64513 -1.74613 0
M  V30 5886 N 549.853 -0.472356 1.50355 0
M  V30 5887 C 551.102 -1.2213 1.60522 0
M  V30 5888 C 551.415 -1.9312 0.310466 0
M  V30 5889 O 552.621 -2.69936 0.291029 0
M  V30 5890 C 551.077 -2.21909 2.83345 0
M  V30 5891 C 550.685 -1.56727 4.19691 0
M  V30 5892 C 552.429 -2.97453 3.02856 0
M  V30 5893 C 550.336 -2.54785 5.33703 0
M  V30 5894 H 549.266 -0.459543 0.597776 0
M  V30 5895 H 551.917 -0.491922 1.76783 0
M  V30 5896 H 550.299 -2.98133 2.60639 0
M  V30 5897 H 551.473 -0.863007 4.52646 0
M  V30 5898 H 549.788 -0.934685 4.05774 0
M  V30 5899 H 552.385 -3.70838 3.85205 0
M  V30 5900 H 552.728 -3.56764 2.14534 0
M  V30 5901 H 553.261 -2.28342 3.25737 0
M  V30 5902 H 550 -2.00214 6.24175 0
M  V30 5903 H 549.52 -3.23367 5.05167 0
M  V30 5904 H 551.199 -3.16639 5.64224 0
M  V30 5905 N 551.331 -1.39911 -0.725443 0
M  V30 5906 C 552.279 -1.39552 -1.86086 0
M  V30 5907 C 553.273 -0.277334 -1.67114 0
M  V30 5908 O 554.479 -0.447865 -1.74339 0
M  V30 5909 H 550.854 -0.435993 -0.612711 0
M  V30 5910 H 552.825 -2.35305 -1.83505 0
M  V30 5911 C 551.574 -1.26529 -3.2386 0
M  V30 5912 H 550.897 -2.11845 -3.3906 0
M  V30 5913 H 552.337 -1.30336 -4.03471 0
M  V30 5914 C 550.796 0.0254168 -3.3689 0
M  V30 5915 O 551.326 0.992048 -3.89257 0
M  V30 5916 N 549.532 0.0916528 -2.90455 0
M  V30 5917 H 549.079 -0.695675 -2.48028 0
M  V30 5918 H 549.037 0.954745 -2.99553 0
M  V30 5919 N 552.809 0.956637 -1.25245 0
M  V30 5920 C 553.741 2.05628 -1.01242 0
M  V30 5921 C 554.754 1.62785 0.0219579 0
M  V30 5922 O 555.943 1.77184 -0.216365 0
M  V30 5923 C 553.043 3.35069 -0.508161 0
M  V30 5924 C 552.216 4.06761 -1.60823 0
M  V30 5925 C 551.275 5.14473 -1.1047 0
M  V30 5926 O 550.301 5.40033 -1.79868 0
M  V30 5927 N 551.503 5.80474 0.0550773 0
M  V30 5928 H 554.268 2.2679 -1.95925 0
M  V30 5929 H 551.829 1.12505 -1.16423 0
M  V30 5930 H 553.821 4.044 -0.155819 0
M  V30 5931 H 552.391 3.10694 0.344683 0
M  V30 5932 H 551.611 3.31555 -2.13224 0
M  V30 5933 H 552.899 4.51418 -2.34733 0
M  V30 5934 H 552.297 5.62125 0.635004 0
M  V30 5935 H 550.854 6.50868 0.348469 0
M  V30 5936 N 554.287 1.06798 1.15896 0
M  V30 5937 C 555.533 0.788934 1.86825 0
M  V30 5938 C 555.866 -0.683084 1.8179 0
M  V30 5939 O 555.141 -1.50086 1.23711 0
M  V30 5940 C 555.424 1.29065 3.36176 0
M  V30 5941 C 555.277 2.8268 3.49874 0
M  V30 5942 C 556.596 0.902655 4.30744 0
M  V30 5943 H 553.715 0.288066 0.678371 0
M  V30 5944 H 556.357 1.32479 1.36195 0
M  V30 5945 H 554.507 0.834806 3.79425 0
M  V30 5946 H 556.179 3.36511 3.15528 0
M  V30 5947 H 554.422 3.21157 2.91617 0
M  V30 5948 H 555.093 3.12852 4.54783 0
M  V30 5949 H 557.569 1.29535 3.95424 0
M  V30 5950 H 556.445 1.28111 5.3374 0
M  V30 5951 H 556.706 -0.191951 4.41683 0
M  V30 5952 N 555.766 -1.3263 0.851289 0
M  V30 5953 C 556.996 -2.01271 0.466222 0
M  V30 5954 C 557.404 -1.64156 -0.940714 0
M  V30 5955 O 556.747 -0.857109 -1.62479 0
M  V30 5956 C 556.809 -3.55695 0.521672 0
M  V30 5957 C 556.473 -4.16227 1.88691 0
M  V30 5958 C 557.47 -4.34699 2.85189 0
M  V30 5959 C 555.155 -4.52377 2.18313 0
M  V30 5960 C 557.149 -4.88484 4.09465 0
M  V30 5961 C 554.836 -5.05868 3.42843 0
M  V30 5962 C 555.834 -5.23869 4.38235 0
M  V30 5963 O 555.522 -5.76218 5.6056 0
M  V30 5964 H 555.254 -0.651034 0.18202 0
M  V30 5965 H 557.808 -1.7026 1.14894 0
M  V30 5966 H 556.038 -3.86086 -0.217888 0
M  V30 5967 H 557.727 -4.05613 0.152682 0
M  V30 5968 H 558.493 -4.07107 2.63607 0
M  V30 5969 H 554.372 -4.37652 1.44851 0
M  V30 5970 H 557.916 -5.02451 4.83931 0
M  V30 5971 H 553.813 -5.32891 3.64277 0
M  V30 5972 H 554.581 -5.94616 5.62471 0
M  V30 5973 N 557.244 -0.608902 -1.45362 0
M  V30 5974 C 558.174 0.0964526 -2.33301 0
M  V30 5975 C 559.155 0.857444 -1.46908 0
M  V30 5976 O 560.34 0.827735 -1.75676 0
M  V30 5977 C 557.47 1.09354 -3.29635 0
M  V30 5978 C 556.424 0.445676 -4.25673 0
M  V30 5979 C 555.75 1.5511 -5.11708 0
M  V30 5980 C 557.05 -0.633972 -5.18438 0
M  V30 5981 H 558.744 -0.637829 -2.92527 0
M  V30 5982 H 556.29 -0.308178 -1.40664 0
M  V30 5983 H 558.243 1.59556 -3.90025 0
M  V30 5984 H 556.967 1.85843 -2.6857 0
M  V30 5985 H 555.626 -0.0354897 -3.66583 0
M  V30 5986 H 555.274 2.30631 -4.4701 0
M  V30 5987 H 554.974 1.12311 -5.76767 0
M  V30 5988 H 556.498 2.05537 -5.74967 0
M  V30 5989 H 557.912 -0.215974 -5.72893 0
M  V30 5990 H 556.309 -0.983789 -5.91981 0
M  V30 5991 H 557.379 -1.51005 -4.60788 0
M  V30 5992 N 558.722 1.53707 -0.348139 0
M  V30 5993 C 560.133 1.86213 0.134797 0
M  V30 5994 C 560.484 1.26925 1.49614 0
M  V30 5995 O 559.609 0.584573 2.08355 0
M  V30 5996 C 560.204 3.37866 0.251371 0
M  V30 5997 C 558.763 3.70233 0.678543 0
M  V30 5998 C 557.91 2.76683 -0.184925 0
M  V30 5999 H 560.861 1.48204 -0.567571 0
M  V30 6000 H 560.882 3.64908 1.07806 0
M  V30 6001 H 560.394 3.80988 -0.739581 0
M  V30 6002 H 558.495 3.32659 1.67835 0
M  V30 6003 H 558.608 4.76836 0.465251 0
M  V30 6004 H 556.972 2.52374 0.343465 0
M  V30 6005 H 557.755 3.22635 -1.1731 0
M  V30 6006 N 560.2 0.0768682 1.57412 0
M  V30 6007 C 561.11 -0.903207 2.16516 0
M  V30 6008 C 562.126 -1.32341 1.12968 0
M  V30 6009 O 563.302 -1.39507 1.45258 0
M  V30 6010 C 560.367 -2.1508 2.71922 0
M  V30 6011 C 559.428 -1.78653 3.90361 0
M  V30 6012 C 558.661 -2.97465 4.43114 0
M  V30 6013 O 558.884 -4.11638 3.94854 0
M  V30 6014 O 557.818 -2.76987 5.3438 0
M  V30 6015 H 561.644 -0.430427 3.00634 0
M  V30 6016 H 559.229 -0.146485 1.4868 0
M  V30 6017 H 561.111 -2.8823 3.07411 0
M  V30 6018 H 559.786 -2.61446 1.9086 0
M  V30 6019 H 558.693 -1.0274 3.59716 0
M  V30 6020 H 560.026 -1.37066 4.7273 0
M  V30 6021 N 561.678 -1.56367 -0.196722 0
M  V30 6022 C 562.626 -1.95304 -1.2633 0
M  V30 6023 C 563.62 -0.838252 -1.47206 0
M  V30 6024 O 564.826 -1.02325 -1.48087 0
M  V30 6025 H 561.201 -0.621013 -0.424083 0
M  V30 6026 H 563.172 -2.84254 -0.907879 0
M  V30 6027 C 561.921 -2.3074 -2.60104 0
M  V30 6028 H 561.244 -3.16047 -2.44856 0
M  V30 6029 H 562.684 -2.61849 -3.33484 0
M  V30 6030 C 561.143 -1.14143 -3.16975 0
M  V30 6031 O 561.673 -0.415602 -3.99544 0
M  V30 6032 N 559.879 -0.91867 -2.75697 0
M  V30 6033 H 559.426 -1.51065 -2.08656 0
M  V30 6034 H 559.384 -0.140321 -3.14087 0
M  V30 6035 N 563.156 0.464375 -1.50603 0
M  V30 6036 C 564.106 1.55929 -1.66343 0
M  V30 6037 C 565.09 1.52338 -0.517887 0
M  V30 6038 O 566.282 1.59248 -0.772601 0
M  V30 6039 C 563.411 2.94327 -1.7671 0
M  V30 6040 C 562.497 3.02777 -2.96962 0
M  V30 6041 N 562.888 2.81026 -4.20545 0
M  V30 6042 C 561.186 3.33919 -2.95659 0
M  V30 6043 C 561.887 2.94618 -5.01573 0
M  V30 6044 N 560.863 3.25112 -4.35664 0
M  V30 6045 H 564.665 1.37822 -2.59581 0
M  V30 6046 H 562.179 0.671227 -1.47879 0
M  V30 6047 H 564.176 3.73063 -1.86091 0
M  V30 6048 H 562.836 3.13476 -0.846353 0
M  V30 6049 H 563.847 2.56477 -4.49933 0
M  V30 6050 H 560.524 3.59013 -2.13111 0
M  V30 6051 H 561.914 2.81984 -6.09865 0
M  V30 6052 N 564.634 1.40294 0.718013 0
M  V30 6053 C 565.597 1.4012 1.81381 0
M  V30 6054 C 566.597 0.295405 1.58063 0
M  V30 6055 O 567.787 0.554187 1.6515 0
M  V30 6056 C 564.919 1.19056 3.19435 0
M  V30 6057 H 566.112 2.37645 1.82933 0
M  V30 6058 H 563.665 1.26107 0.923405 0
M  V30 6059 H 564.4 0.222809 3.23534 0
M  V30 6060 H 564.185 1.99152 3.37758 0
M  V30 6061 H 565.675 1.21716 3.99468 0
M  V30 6062 N 566.112 -0.949982 1.2575 0
M  V30 6063 C 567.528 -1.22191 1.02672 0
M  V30 6064 C 567.728 -1.99898 -0.253588 0
M  V30 6065 O 566.784 -2.33329 -0.965076 0
M  V30 6066 C 568.097 -1.99175 2.25277 0
M  V30 6067 C 569.645 -2.12201 2.30087 0
M  V30 6068 C 570.12 -2.92586 3.5236 0
M  V30 6069 N 571.611 -3.00163 3.52784 0
M  V30 6070 C 572.346 -3.62766 4.44059 0
M  V30 6071 N 571.842 -4.26943 5.45611 0
M  V30 6072 N 573.635 -3.59953 4.3173 0
M  V30 6073 H 565.786 -0.430258 2.07996 0
M  V30 6074 H 568.049 -0.252844 0.91366 0
M  V30 6075 H 567.755 -1.49479 3.18354 0
M  V30 6076 H 567.629 -2.99868 2.28821 0
M  V30 6077 H 570.016 -2.61093 1.3753 0
M  V30 6078 H 570.097 -1.10799 2.30559 0
M  V30 6079 H 569.741 -2.44383 4.45241 0
M  V30 6080 H 569.671 -3.94224 3.49134 0
M  V30 6081 H 572.162 -2.54529 2.79327 0
M  V30 6082 H 572.475 -4.72583 6.11461 0
M  V30 6083 H 570.82 -4.25557 5.49478 0
M  V30 6084 H 574.011 -3.09003 3.51617 0
M  V30 6085 H 574.184 -4.08455 5.03059 0
M  V30 6086 N 567.59 -1.07411 -1.15328 0
M  V30 6087 C 568.52 -0.716472 -2.22236 0
M  V30 6088 C 569.501 0.296373 -1.67498 0
M  V30 6089 O 570.686 0.168989 -1.93463 0
M  V30 6090 C 567.816 -0.114142 -3.47112 0
M  V30 6091 C 566.77 -1.05421 -4.14814 0
M  V30 6092 C 566.096 -0.314604 -5.33774 0
M  V30 6093 C 567.396 -2.38808 -4.64508 0
M  V30 6094 H 569.09 -1.61029 -2.52408 0
M  V30 6095 H 566.636 -0.775702 -1.21321 0
M  V30 6096 H 568.589 0.148001 -4.2114 0
M  V30 6097 H 567.313 0.814755 -3.16274 0
M  V30 6098 H 565.972 -1.30128 -3.42728 0
M  V30 6099 H 565.62 0.617772 -4.99192 0
M  V30 6100 H 565.32 -0.941209 -5.80013 0
M  V30 6101 H 566.844 -0.0602747 -6.1057 0
M  V30 6102 H 568.258 -2.18424 -5.3006 0
M  V30 6103 H 566.655 -2.97069 -5.21412 0
M  V30 6104 H 567.725 -3.01067 -3.80114 0
M  V30 6105 N 569.068 1.32177 -0.85831 0
M  V30 6106 C 570.015 2.28794 -0.303607 0
M  V30 6107 C 570.985 1.55213 0.591453 0
M  V30 6108 O 572.17 1.83418 0.525585 0
M  V30 6109 C 569.31 3.41475 0.49889 0
M  V30 6110 C 568.423 4.2993 -0.422373 0
M  V30 6111 C 567.558 5.29743 0.393111 0
M  V30 6112 C 566.597 6.09842 -0.525317 0
M  V30 6113 N 565.734 7.01643 0.253208 0
M  V30 6114 H 570.574 2.75631 -1.13276 0
M  V30 6115 H 568.111 1.35606 -0.570026 0
M  V30 6116 H 570.069 4.05531 0.979826 0
M  V30 6117 H 568.699 2.95779 1.29284 0
M  V30 6118 H 567.751 3.66422 -1.02171 0
M  V30 6119 H 569.063 4.85899 -1.12709 0
M  V30 6120 H 568.217 5.9942 0.937056 0
M  V30 6121 H 566.956 4.744 1.13117 0
M  V30 6122 H 565.961 5.39066 -1.08112 0
M  V30 6123 H 567.186 6.6727 -1.26205 0
M  V30 6124 H 565.132 6.48725 0.974295 0
M  V30 6125 H 565.049 7.54981 -0.392398 0
M  V30 6126 H 566.317 7.756 0.778761 0
M  V30 6127 N 570.547 0.616602 1.45037 0
M  V30 6128 C 571.51 -0.0871112 2.29034 0
M  V30 6129 C 572.51 -0.786414 1.40258 0
M  V30 6130 O 573.7 -0.633207 1.62284 0
M  V30 6131 C 570.832 -1.13369 3.21497 0
M  V30 6132 H 572.025 0.651497 2.92738 0
M  V30 6133 H 569.578 0.376058 1.51709 0
M  V30 6134 H 570.313 -1.90277 2.62612 0
M  V30 6135 H 570.098 -0.636358 3.86902 0
M  V30 6136 H 571.588 -1.62627 3.84633 0
M  V30 6137 N 572.025 -1.5352 0.356285 0
M  V30 6138 C 572.988 -2.24071 -0.482182 0
M  V30 6139 C 573.988 -1.24531 -1.01729 0
M  V30 6140 O 575.178 -1.48876 -0.904513 0
M  V30 6141 C 572.31 -2.97025 -1.67299 0
M  V30 6142 H 573.503 -2.99596 0.135031 0
M  V30 6143 H 571.056 -1.55928 0.107825 0
M  V30 6144 H 571.791 -2.25719 -2.32855 0
M  V30 6145 H 571.576 -3.7005 -1.29636 0
M  V30 6146 H 573.066 -3.50683 -2.26741 0
M  V30 6147 N 573.503 -0.0852151 -1.57369 0
M  V30 6148 C 574.453 0.88767 -2.10011 0
M  V30 6149 C 575.437 1.25021 -1.01285 0
M  V30 6150 O 576.629 1.22694 -1.27574 0
M  V30 6151 C 573.758 2.15037 -2.67608 0
M  V30 6152 C 572.844 1.81371 -3.83361 0
M  V30 6153 N 573.235 1.18216 -4.91791 0
M  V30 6154 C 571.533 2.11041 -3.92909 0
M  V30 6155 C 572.234 1.02941 -5.72519 0
M  V30 6156 N 571.21 1.54351 -5.21226 0
M  V30 6157 H 575.012 0.395279 -2.9123 0
M  V30 6158 H 572.526 0.11829 -1.61969 0
M  V30 6159 H 574.523 2.85667 -3.03644 0
M  V30 6160 H 573.183 2.64851 -1.8784 0
M  V30 6161 H 574.194 0.850168 -5.10874 0
M  V30 6162 H 570.871 2.63138 -3.24136 0
M  V30 6163 H 572.261 0.536298 -6.69756 0
M  V30 6164 N 574.981 1.5647 0.188427 0
M  V30 6165 C 576.209 1.85131 0.923803 0
M  V30 6166 C 576.624 0.668537 1.76567 0
M  V30 6167 O 575.981 -0.362662 1.7886 0
M  V30 6168 C 576.032 3.12661 1.81453 0
M  V30 6169 O 575.753 4.26378 1.00665 0
M  V30 6170 C 577.254 3.54548 2.66103 0
M  V30 6171 H 574.474 0.614624 0.269218 0
M  V30 6172 H 577.018 2.03581 0.193671 0
M  V30 6173 H 575.173 2.96088 2.49821 0
M  V30 6174 H 575.587 4.99041 1.61425 0
M  V30 6175 H 577.061 4.4673 3.24247 0
M  V30 6176 H 577.538 2.77853 3.40139 0
M  V30 6177 H 578.144 3.73674 2.03096 0
M  V30 6178 N 576.459 -0.456382 1.50847 0
M  V30 6179 C 577.689 -1.22848 1.66108 0
M  V30 6180 C 578.097 -1.85936 0.349897 0
M  V30 6181 O 577.44 -1.70664 -0.679665 0
M  V30 6182 C 577.502 -2.36722 2.70561 0
M  V30 6183 C 577.166 -1.94154 4.13707 0
M  V30 6184 C 578.163 -1.4557 4.99105 0
M  V30 6185 C 575.848 -2.02426 4.59705 0
M  V30 6186 C 577.842 -1.0582 6.28555 0
M  V30 6187 C 575.529 -1.62287 5.89157 0
M  V30 6188 C 576.527 -1.14064 6.73408 0
M  V30 6189 O 576.215 -0.744873 8.00442 0
M  V30 6190 H 575.947 -0.377105 0.561042 0
M  V30 6191 H 578.501 -0.549431 1.97915 0
M  V30 6192 H 576.731 -3.07844 2.34027 0
M  V30 6193 H 578.42 -2.98646 2.74892 0
M  V30 6194 H 579.186 -1.38589 4.64777 0
M  V30 6195 H 575.065 -2.38908 3.94264 0
M  V30 6196 H 578.609 -0.6811 6.94267 0
M  V30 6197 H 574.506 -1.68932 6.23003 0
M  V30 6198 H 575.274 -0.87242 8.13837 0
M  V30 6199 N 577.937 -1.40673 -0.710563 0
M  V30 6200 C 579.183 -1.39428 -1.47267 0
M  V30 6201 C 579.516 0.00182129 -1.942 0
M  V30 6202 O 578.791 0.971387 -1.68506 0
M  V30 6203 C 579.074 -2.38812 -2.6952 0
M  V30 6204 C 578.927 -3.87467 -2.28449 0
M  V30 6205 C 580.246 -2.3566 -3.71689 0
M  V30 6206 H 577.365 -0.507768 -0.534173 0
M  V30 6207 H 580.007 -1.71843 -0.810547 0
M  V30 6208 H 578.157 -2.113 -3.26013 0
M  V30 6209 H 579.829 -4.25825 -1.77399 0
M  V30 6210 H 578.072 -4.03058 -1.60395 0
M  V30 6211 H 578.743 -4.5253 -3.16103 0
M  V30 6212 H 581.219 -2.6004 -3.24836 0
M  V30 6213 H 580.095 -3.07237 -4.54859 0
M  V30 6214 H 580.356 -1.36996 -4.20339 0
M  V30 6215 N 579.415 0.9433 -1.26252 0
M  V30 6216 C 580.64 1.72898 -1.14547 0
M  V30 6217 C 581.065 1.85761 0.295743 0
M  V30 6218 O 580.423 1.3463 1.21427 0
M  V30 6219 C 580.471 3.11471 -1.8171 0
M  V30 6220 O 579.575 3.97336 -1.10445 0
M  V30 6221 H 578.916 0.530555 -0.399259 0
M  V30 6222 H 581.446 1.18159 -1.67032 0
M  V30 6223 H 581.456 3.61872 -1.88449 0
M  V30 6224 H 580.131 3.01425 -2.86558 0
M  V30 6225 H 578.708 3.55788 -1.11666 0
M  V30 6226 N 580.893 1.08022 1.14757 0
M  V30 6227 C 581.803 0.718292 2.23333 0
M  V30 6228 C 582.819 -0.273477 1.71837 0
M  V30 6229 O 583.995 -0.118406 2.01052 0
M  V30 6230 C 581.06 0.128855 3.4646 0
M  V30 6231 C 580.121 1.17473 4.12915 0
M  V30 6232 C 579.354 0.61333 5.30164 0
M  V30 6233 O 579.577 -0.568458 5.6756 0
M  V30 6234 O 578.511 1.3615 5.86299 0
M  V30 6235 H 582.337 1.62394 2.56636 0
M  V30 6236 H 579.922 0.853628 1.22611 0
M  V30 6237 H 581.804 -0.197249 4.20938 0
M  V30 6238 H 580.479 -0.750014 3.14891 0
M  V30 6239 H 579.386 1.5533 3.40328 0
M  V30 6240 H 580.719 2.02574 4.48581 0
M  V30 6241 N 582.371 -1.3172 0.865308 0
M  V30 6242 C 583.281 -2.32394 0.320935 0
M  V30 6243 C 584.297 -1.64511 -0.566746 0
M  V30 6244 O 585.473 -1.95969 -0.464575 0
M  V30 6245 C 582.538 -3.43462 -0.472701 0
M  V30 6246 C 581.599 -4.27015 0.442385 0
M  V30 6247 C 580.832 -5.32779 -0.313469 0
M  V30 6248 O 581.055 -5.49158 -1.54214 0
M  V30 6249 O 579.989 -6.01015 0.326257 0
M  V30 6250 H 583.815 -2.80868 1.15528 0
M  V30 6251 H 581.4 -1.35535 0.628545 0
M  V30 6252 H 583.282 -4.11172 -0.922781 0
M  V30 6253 H 581.957 -2.97159 -1.28367 0
M  V30 6254 H 580.864 -3.62075 0.940866 0
M  V30 6255 H 582.197 -4.76871 1.21882 0
M  V30 6256 N 583.85 -0.624285 -1.44708 0
M  V30 6257 C 584.779 0.0717025 -2.3339 0
M  V30 6258 C 585.76 0.841814 -1.47809 0
M  V30 6259 O 586.946 0.809056 -1.76544 0
M  V30 6260 C 584.076 1.05852 -3.30776 0
M  V30 6261 C 583.029 0.400503 -4.26122 0
M  V30 6262 C 582.356 1.49674 -5.13324 0
M  V30 6263 C 583.656 -0.688924 -5.17737 0
M  V30 6264 H 585.35 -0.668819 -2.91834 0
M  V30 6265 H 582.896 -0.32308 -1.40329 0
M  V30 6266 H 584.849 1.5541 -3.91696 0
M  V30 6267 H 583.572 1.82984 -2.70526 0
M  V30 6268 H 582.231 -0.0743687 -3.66525 0
M  V30 6269 H 581.88 2.25877 -4.49431 0
M  V30 6270 H 581.58 1.06188 -5.77926 0
M  V30 6271 H 583.104 1.99427 -5.77115 0
M  V30 6272 H 584.518 -0.276724 -5.72632 0
M  V30 6273 H 582.915 -1.04652 -5.90904 0
M  V30 6274 H 583.985 -1.55884 -4.5916 0
M  V30 6275 N 585.328 1.53329 -0.364422 0
M  V30 6276 C 586.744 1.59594 -0.0133165 0
M  V30 6277 C 586.944 1.37959 1.46865 0
M  V30 6278 O 586 1.18418 2.2301 0
M  V30 6279 C 587.313 2.97032 -0.468213 0
M  V30 6280 C 588.861 3.10138 -0.422334 0
M  V30 6281 C 589.336 4.49986 -0.853024 0
M  V30 6282 N 590.827 4.56098 -0.808037 0
M  V30 6283 C 591.562 5.62495 -1.11299 0
M  V30 6284 N 591.058 6.7665 -1.48717 0
M  V30 6285 N 592.851 5.52473 -1.03586 0
M  V30 6286 H 585.002 1.65644 -1.32951 0
M  V30 6287 H 587.265 0.77684 -0.543345 0
M  V30 6288 H 586.971 3.18 -1.5023 0
M  V30 6289 H 586.845 3.76918 0.145775 0
M  V30 6290 H 589.232 2.88881 0.602622 0
M  V30 6291 H 589.313 2.32263 -1.0718 0
M  V30 6292 H 588.957 4.7198 -1.87609 0
M  V30 6293 H 588.887 5.26289 -0.180819 0
M  V30 6294 H 591.378 3.74131 -0.532361 0
M  V30 6295 H 591.691 7.53776 -1.70415 0
M  V30 6296 H 590.036 6.78044 -1.52581 0
M  V30 6297 H 593.227 4.6217 -0.742736 0
M  V30 6298 H 593.4 6.35295 -1.27686 0
M  V30 6299 N 586.806 0.0935595 1.57322 0
M  V30 6300 C 587.769 -0.851426 2.12799 0
M  V30 6301 C 588.769 -1.21187 1.0569 0
M  V30 6302 O 589.959 -1.14156 1.31583 0
M  V30 6303 C 587.091 -2.14779 2.64731 0
M  V30 6304 H 588.284 -0.369733 2.97612 0
M  V30 6305 H 585.837 -0.155417 1.55525 0
M  V30 6306 H 586.572 -2.67437 1.83434 0
M  V30 6307 H 586.357 -1.89907 3.43042 0
M  V30 6308 H 587.847 -2.82383 3.07651 0
M  V30 6309 N 588.284 -1.56567 -0.180126 0
M  V30 6310 C 589.214 -1.98753 -1.22553 0
M  V30 6311 C 590.195 -0.86175 -1.46656 0
M  V30 6312 O 591.38 -1.12719 -1.58139 0
M  V30 6313 C 588.51 -2.33988 -2.56645 0
M  V30 6314 C 587.464 -3.49445 -2.47128 0
M  V30 6315 C 586.79 -3.70397 -3.8563 0
M  V30 6316 C 588.09 -4.83171 -1.98352 0
M  V30 6317 H 589.784 -2.86332 -0.874896 0
M  V30 6318 H 587.33 -1.37757 -0.419414 0
M  V30 6319 H 589.283 -2.62097 -3.29974 0
M  V30 6320 H 588.007 -1.43309 -2.93479 0
M  V30 6321 H 586.666 -3.2145 -1.76254 0
M  V30 6322 H 586.314 -2.77023 -4.19842 0
M  V30 6323 H 586.014 -4.48077 -3.80132 0
M  V30 6324 H 587.538 -4.00897 -4.60558 0
M  V30 6325 H 588.952 -5.10213 -2.61449 0
M  V30 6326 H 587.349 -5.64425 -2.03823 0
M  V30 6327 H 588.419 -4.75753 -0.937402 0
M  V30 6328 N 589.762 0.448376 -1.51087 0
M  V30 6329 C 591.01 1.19635 -1.62886 0
M  V30 6330 C 591.331 1.91977 -0.342024 0
M  V30 6331 O 590.601 1.85094 0.641636 0
M  V30 6332 H 589.181 0.444598 -0.600285 0
M  V30 6333 H 591.843 0.515138 -1.87969 0
M  V30 6334 H 590.939 1.93194 -2.45117 0
M  V30 6335 N 591.24 1.41047 0.703093 0
M  V30 6336 C 592.489 1.39301 1.4587 0
M  V30 6337 C 592.802 0.00267077 1.956 0
M  V30 6338 O 594.008 -0.137414 2.71152 0
M  V30 6339 C 592.464 2.44891 2.63735 0
M  V30 6340 C 592.072 3.89796 2.20824 0
M  V30 6341 C 593.816 2.5227 3.41409 0
M  V30 6342 C 591.723 4.86955 3.35602 0
M  V30 6343 H 590.653 0.518005 0.547893 0
M  V30 6344 H 593.304 1.66839 0.764009 0
M  V30 6345 H 591.686 2.10472 3.35436 0
M  V30 6346 H 592.86 4.33424 1.56461 0
M  V30 6347 H 591.175 3.86008 1.56163 0
M  V30 6348 H 593.772 3.22044 4.26839 0
M  V30 6349 H 594.115 1.55714 3.86081 0
M  V30 6350 H 594.648 2.85742 2.7676 0
M  V30 6351 H 591.387 5.84888 2.9595 0
M  V30 6352 H 590.907 4.47982 3.98839 0
M  V30 6353 H 592.586 5.07361 4.01489 0
M  V30 6354 N 592.718 -0.936591 1.26751 0
M  V30 6355 C 594.129 -1.49816 1.1141 0
M  V30 6356 C 594.48 -1.9383 -0.304015 0
M  V30 6357 O 593.605 -1.80346 -1.196 0
M  V30 6358 C 594.2 -2.72271 2.01629 0
M  V30 6359 C 592.759 -3.2468 1.9042 0
M  V30 6360 C 591.906 -1.97444 1.94708 0
M  V30 6361 H 594.857 -0.751604 1.39773 0
M  V30 6362 H 594.878 -3.46741 1.56688 0
M  V30 6363 H 594.39 -2.40205 3.04833 0
M  V30 6364 H 592.491 -3.61525 0.901674 0
M  V30 6365 H 592.604 -3.91476 2.76195 0
M  V30 6366 H 590.968 -2.13545 1.38818 0
M  V30 6367 H 591.751 -1.67703 2.9955 0
M  V30 6368 N 594.196 -1.08629 -1.14182 0
M  V30 6369 C 595.443 -0.817345 -1.85272 0
M  V30 6370 C 595.771 0.656917 -1.83071 0
M  V30 6371 O 595.026 1.49897 -1.25815 0
M  V30 6372 C 595.325 -1.28734 -3.3341 0
M  V30 6373 C 594.991 -2.76981 -3.55798 0
M  V30 6374 C 593.653 -3.17469 -3.61617 0
M  V30 6375 C 596.005 -3.72605 -3.64438 0
M  V30 6376 C 593.333 -4.52371 -3.736 0
M  V30 6377 C 595.685 -5.07286 -3.77947 0
M  V30 6378 C 594.349 -5.47376 -3.82016 0
M  V30 6379 H 593.619 -0.299088 -0.677958 0
M  V30 6380 H 596.266 -1.35962 -1.34857 0
M  V30 6381 H 594.571 -0.664702 -3.8612 0
M  V30 6382 H 596.268 -1.05598 -3.86846 0
M  V30 6383 H 592.858 -2.44644 -3.51919 0
M  V30 6384 H 597.042 -3.42443 -3.5923 0
M  V30 6385 H 592.298 -4.82882 -3.75013 0
M  V30 6386 H 596.472 -5.81243 -3.83575 0
M  V30 6387 H 594.099 -6.51906 -3.91054 0
M  V30 6388 N 595.674 1.31259 -0.872281 0
M  V30 6389 C 596.604 2.30929 -0.345554 0
M  V30 6390 C 597.585 1.60449 0.5648 0
M  V30 6391 O 598.77 1.8814 0.481335 0
M  V30 6392 C 595.9 3.44348 0.451823 0
M  V30 6393 C 594.854 4.26435 -0.365641 0
M  V30 6394 C 594.18 5.31785 0.557562 0
M  V30 6395 C 595.48 4.97159 -1.60095 0
M  V30 6396 H 597.174 2.75234 -1.17841 0
M  V30 6397 H 594.72 1.3232 -0.568094 0
M  V30 6398 H 596.673 4.13128 0.830854 0
M  V30 6399 H 595.397 2.98816 1.31821 0
M  V30 6400 H 594.056 3.59326 -0.726649 0
M  V30 6401 H 593.704 4.82502 1.4213 0
M  V30 6402 H 593.404 5.87598 0.0144878 0
M  V30 6403 H 594.928 6.03424 0.933387 0
M  V30 6404 H 596.342 5.58523 -1.29323 0
M  V30 6405 H 594.739 5.62779 -2.08327 0
M  V30 6406 H 595.809 4.24012 -2.35249 0
M  V30 6407 N 597.152 0.631951 1.44375 0
M  V30 6408 C 598.377 0.142146 2.06912 0
M  V30 6409 C 598.802 -1.17456 1.4692 0
M  V30 6410 O 598.16 -1.72074 0.570975 0
M  V30 6411 C 598.208 0.0417952 3.60576 0
M  V30 6412 O 597.312 -1.00194 4.00044 0
M  V30 6413 H 596.653 0.0851491 0.658518 0
M  V30 6414 H 599.183 0.868863 1.85235 0
M  V30 6415 H 599.193 -0.148517 4.0773 0
M  V30 6416 H 597.868 1.0031 4.03622 0
M  V30 6417 H 596.445 -0.786131 3.64519 0
M  V30 6418 N 598.631 -1.53133 0.372548 0
M  V30 6419 C 600.047 -1.59585 0.02178 0
M  V30 6420 C 600.247 -1.38736 -1.46132 0
M  V30 6421 O 599.303 -1.19599 -2.22379 0
M  V30 6422 C 600.616 -2.9678 0.483959 0
M  V30 6423 C 602.164 -3.09909 0.438775 0
M  V30 6424 C 602.639 -4.49527 0.876876 0
M  V30 6425 N 604.13 -4.55663 0.832214 0
M  V30 6426 C 604.865 -5.61896 1.14281 0
M  V30 6427 N 604.361 -6.75852 1.52303 0
M  V30 6428 N 606.154 -5.51916 1.06515 0
M  V30 6429 H 598.305 -1.64936 1.33827 0
M  V30 6430 H 600.568 -0.773947 0.547458 0
M  V30 6431 H 600.274 -3.17198 1.51915 0
M  V30 6432 H 600.148 -3.7699 -0.125784 0
M  V30 6433 H 602.535 -2.89197 -0.587294 0
M  V30 6434 H 602.616 -2.31691 1.0841 0
M  V30 6435 H 602.26 -4.70979 1.90109 0
M  V30 6436 H 602.19 -5.26186 0.208727 0
M  V30 6437 H 604.681 -3.73844 0.552195 0
M  V30 6438 H 604.994 -7.52862 1.7441 0
M  V30 6439 H 603.339 -6.77226 1.56175 0
M  V30 6440 H 606.53 -4.6177 0.767235 0
M  V30 6441 H 606.703 -6.34609 1.31053 0
M  V30 6442 N 600.109 -0.101901 -1.5727 0
M  V30 6443 C 601.357 0.559091 -1.94213 0
M  V30 6444 C 601.678 1.68297 -0.984948 0
M  V30 6445 O 600.948 1.95863 -0.0381975 0
M  V30 6446 H 599.528 0.20952 -0.717015 0
M  V30 6447 H 602.19 -0.166831 -1.94185 0
M  V30 6448 H 601.286 0.96485 -2.96811 0
M  V30 6449 N 601.587 1.56661 0.17182 0
M  V30 6450 C 602.55 1.9549 1.19651 0
M  V30 6451 C 603.55 0.838501 1.37207 0
M  V30 6452 O 604.74 1.10556 1.34622 0
M  V30 6453 C 601.872 2.24927 2.56166 0
M  V30 6454 H 603.065 2.87184 0.864007 0
M  V30 6455 H 600.618 1.50711 0.41425 0
M  V30 6456 H 601.353 1.35944 2.94431 0
M  V30 6457 H 601.138 3.06301 2.4479 0
M  V30 6458 H 602.628 2.55891 3.30014 0
M  V30 6459 N 603.065 -0.440357 1.51323 0
M  V30 6460 C 604.313 -1.18769 1.63518 0
M  V30 6461 C 604.634 -1.91793 0.352201 0
M  V30 6462 O 603.904 -1.85432 -0.631811 0
M  V30 6463 H 602.484 -0.441408 0.602634 0
M  V30 6464 H 605.146 -0.505162 1.8824 0
M  V30 6465 H 604.242 -1.91892 2.46138 0
M  V30 6466 N 604.543 -1.41418 -0.695603 0
M  V30 6467 C 605.79 -1.40774 -1.45564 0
M  V30 6468 C 606.118 -0.0168604 -1.94493 0
M  V30 6469 O 605.373 0.971259 -1.69897 0
M  V30 6470 C 605.672 -2.36112 -2.68302 0
M  V30 6471 C 605.338 -3.82952 -2.38031 0
M  V30 6472 C 604 -4.22954 -2.29486 0
M  V30 6473 C 606.352 -4.75662 -2.13061 0
M  V30 6474 C 603.68 -5.53674 -1.94067 0
M  V30 6475 C 606.032 -6.06702 -1.79151 0
M  V30 6476 C 604.696 -6.45725 -1.69102 0
M  V30 6477 H 603.966 -0.515128 -0.532658 0
M  V30 6478 H 606.613 -1.74216 -0.795047 0
M  V30 6479 H 604.918 -1.95924 -3.39295 0
M  V30 6480 H 606.615 -2.32887 -3.26442 0
M  V30 6481 H 603.205 -3.5127 -2.45576 0
M  V30 6482 H 607.389 -4.45561 -2.18608 0
M  V30 6483 H 602.645 -5.8279 -1.8484 0
M  V30 6484 H 606.819 -6.78041 -1.5885 0
M  V30 6485 H 604.446 -7.46929 -1.41426 0
M  V30 6486 N 606.021 0.929856 -1.27246 0
M  V30 6487 C 607.268 1.67731 -1.13457 0
M  V30 6488 C 607.596 1.9185 0.319998 0
M  V30 6489 O 606.851 1.50524 1.25064 0
M  V30 6490 C 607.15 3.05116 -1.86115 0
M  V30 6491 C 606.816 3.00715 -3.35978 0
M  V30 6492 C 605.478 2.99222 -3.76855 0
M  V30 6493 C 607.83 2.92168 -4.3161 0
M  V30 6494 C 605.158 2.86962 -5.11732 0
M  V30 6495 C 607.51 2.81449 -5.66542 0
M  V30 6496 C 606.174 2.78305 -6.06715 0
M  V30 6497 H 605.444 0.613772 -0.415168 0
M  V30 6498 H 608.091 1.08456 -1.57827 0
M  V30 6499 H 606.396 3.68083 -1.34246 0
M  V30 6500 H 608.093 3.61822 -1.72876 0
M  V30 6501 H 604.683 3.02664 -3.03468 0
M  V30 6502 H 608.867 2.92421 -4.01003 0
M  V30 6503 H 604.123 2.82913 -5.42006 0
M  V30 6504 H 608.297 2.738 -6.40317 0
M  V30 6505 H 605.924 2.68561 -7.11181 0
M  V30 6506 N 607.499 1.09233 1.13605 0
M  V30 6507 C 608.748 0.82205 1.84188 0
M  V30 6508 C 609.061 -0.654548 1.84323 0
M  V30 6509 O 610.267 -1.04029 2.50779 0
M  V30 6510 C 608.723 1.42066 3.30674 0
M  V30 6511 C 608.331 2.92965 3.38933 0
M  V30 6512 C 610.075 1.22924 4.06313 0
M  V30 6513 C 607.982 3.45922 4.79679 0
M  V30 6514 H 606.912 0.303854 0.690064 0
M  V30 6515 H 609.563 1.31479 1.28006 0
M  V30 6516 H 607.945 0.855613 3.86646 0
M  V30 6517 H 609.119 3.55679 2.92966 0
M  V30 6518 H 607.434 3.11118 2.76757 0
M  V30 6519 H 610.031 1.59945 5.10217 0
M  V30 6520 H 610.374 0.169726 4.15954 0
M  V30 6521 H 610.907 1.76168 3.56665 0
M  V30 6522 H 607.646 4.51484 4.75229 0
M  V30 6523 H 607.166 2.87971 5.26149 0
M  V30 6524 H 608.845 3.43009 5.48592 0
M  V30 6525 N 608.977 -1.30795 0.87923 0
M  V30 6526 C 610.223 -1.97035 0.50487 0
M  V30 6527 C 610.578 -1.68182 -0.934484 0
M  V30 6528 O 609.871 -0.972953 -1.65058 0
M  V30 6529 C 610.065 -3.50287 0.709476 0
M  V30 6530 C 609.894 -3.94035 2.16717 0
M  V30 6531 C 608.664 -4.1992 2.81061 0
M  V30 6532 C 610.862 -4.07288 3.1404 0
M  V30 6533 N 608.844 -4.50088 4.17486 0
M  V30 6534 C 610.215 -4.41273 4.35521 0
M  V30 6535 C 612.27 -3.89696 3.09906 0
M  V30 6536 C 610.973 -4.59501 5.534 0
M  V30 6537 C 612.999 -4.09122 4.27052 0
M  V30 6538 C 612.361 -4.43447 5.47297 0
M  V30 6539 H 608.46 -0.746181 0.233962 0
M  V30 6540 H 611.044 -1.5814 1.13577 0
M  V30 6541 H 609.215 -3.8825 0.108108 0
M  V30 6542 H 610.947 -4.03567 0.302585 0
M  V30 6543 H 607.702 -4.12906 2.3196 0
M  V30 6544 H 608.126 -4.69316 4.87926 0
M  V30 6545 H 612.768 -3.62239 2.18043 0
M  V30 6546 H 610.486 -4.85802 6.45773 0
M  V30 6547 H 614.072 -3.96985 4.25316 0
M  V30 6548 H 612.952 -4.58171 6.36435 0
M  V30 6549 N 610.455 -0.639598 -1.44038 0
M  V30 6550 C 611.701 -0.147698 -2.02261 0
M  V30 6551 C 612.034 1.23031 -1.50256 0
M  V30 6552 O 611.309 1.81847 -0.690068 0
M  V30 6553 C 611.592 -0.14362 -3.59813 0
M  V30 6554 C 611.445 -1.55458 -4.22082 0
M  V30 6555 C 612.764 0.527317 -4.36929 0
M  V30 6556 H 609.883 -0.0551453 -0.734934 0
M  V30 6557 H 612.525 -0.817688 -1.71505 0
M  V30 6558 H 610.675 0.426898 -3.86147 0
M  V30 6559 H 612.347 -2.17464 -4.06826 0
M  V30 6560 H 610.59 -2.10594 -3.79253 0
M  V30 6561 H 611.261 -1.50369 -5.31124 0
M  V30 6562 H 613.737 0.0420504 -4.16079 0
M  V30 6563 H 612.613 0.499389 -5.46624 0
M  V30 6564 H 612.874 1.59914 -4.12165 0
M  V30 6565 N 611.933 1.52934 -0.380664 0
M  V30 6566 C 613.21 1.93845 0.261417 0
M  V30 6567 C 613.59 1.31544 1.65104 0
M  V30 6568 O 612.938 0.480234 2.23397 0
M  V30 6569 C 613.148 3.47739 0.296466 0
M  V30 6570 C 614.496 4.21284 0.529578 0
M  V30 6571 O 615.52 3.54199 0.377041 0
M  V30 6572 O 614.379 5.40195 0.827753 0
M  V30 6573 H 611.473 0.811318 0.160285 0
M  V30 6574 H 614.019 1.64042 -0.434544 0
M  V30 6575 H 612.791 3.85395 -0.67724 0
M  V30 6576 H 612.414 3.8382 1.0377 0
M  V30 6577 N 613.412 0.11024 1.57214 0
M  V30 6578 C 614.342 -0.840002 2.17867 0
M  V30 6579 C 615.323 -1.28352 1.11624 0
M  V30 6580 O 616.508 -1.3477 1.39824 0
M  V30 6581 C 613.638 -2.09349 2.77111 0
M  V30 6582 C 612.592 -1.78807 3.8886 0
M  V30 6583 C 611.918 -3.11112 4.34872 0
M  V30 6584 C 613.218 -1.0632 5.11364 0
M  V30 6585 H 614.912 -0.334608 2.97524 0
M  V30 6586 H 612.458 -0.159502 1.43114 0
M  V30 6587 H 614.411 -2.76275 3.18198 0
M  V30 6588 H 613.135 -2.62198 1.9473 0
M  V30 6589 H 611.794 -1.14273 3.48335 0
M  V30 6590 H 611.442 -3.61877 3.49362 0
M  V30 6591 H 611.142 -2.91453 5.10224 0
M  V30 6592 H 612.666 -3.79171 4.78604 0
M  V30 6593 H 614.08 -1.63383 5.49526 0
M  V30 6594 H 612.477 -0.967876 5.92243 0
M  V30 6595 H 613.547 -0.0484569 4.84876 0
M  V30 6596 N 614.89 -1.56749 -0.16351 0
M  V30 6597 C 616.306 -1.51043 -0.515567 0
M  V30 6598 C 616.506 -0.815855 -1.84245 0
M  V30 6599 O 615.562 -0.379477 -2.49632 0
M  V30 6600 C 616.875 -2.95791 -0.541114 0
M  V30 6601 C 618.423 -3.0664 -0.627776 0
M  V30 6602 C 618.898 -4.52861 -0.684141 0
M  V30 6603 N 620.389 -4.5714 -0.746818 0
M  V30 6604 C 621.124 -5.67634 -0.811137 0
M  V30 6605 N 620.62 -6.8774 -0.835811 0
M  V30 6606 N 622.413 -5.55624 -0.850756 0
M  V30 6607 H 614.564 -2.00307 0.70645 0
M  V30 6608 H 616.827 -0.912876 0.255659 0
M  V30 6609 H 616.533 -3.49797 0.365329 0
M  V30 6610 H 616.407 -3.50858 -1.38487 0
M  V30 6611 H 618.794 -2.52663 -1.52464 0
M  V30 6612 H 618.875 -2.54645 0.242805 0
M  V30 6613 H 618.519 -5.07472 0.2085 0
M  V30 6614 H 618.449 -5.02621 -1.57098 0
M  V30 6615 H 620.94 -3.70669 -0.735717 0
M  V30 6616 H 621.253 -7.67701 -0.886279 0
M  V30 6617 H 619.598 -6.90334 -0.803958 0
M  V30 6618 H 622.789 -4.60709 -0.828535 0
M  V30 6619 H 622.962 -6.41756 -0.897418 0
M  V30 6620 N 616.368 0.432326 -1.51554 0
M  V30 6621 C 617.315 1.52512 -1.7323 0
M  V30 6622 C 618.285 1.55863 -0.5741 0
M  V30 6623 O 619.47 1.72796 -0.809093 0
M  V30 6624 C 616.61 2.90183 -1.86783 0
M  V30 6625 C 615.723 2.96322 -3.14352 0
M  V30 6626 C 614.858 4.25147 -3.18471 0
M  V30 6627 C 613.897 4.25172 -4.40335 0
M  V30 6628 N 613.034 5.45529 -4.41975 0
M  V30 6629 H 617.874 1.33332 -2.66508 0
M  V30 6630 H 615.411 0.647613 -1.32077 0
M  V30 6631 H 617.369 3.70071 -1.92623 0
M  V30 6632 H 615.999 3.0791 -0.969087 0
M  V30 6633 H 615.051 2.09066 -3.17798 0
M  V30 6634 H 616.363 2.92203 -4.04251 0
M  V30 6635 H 615.517 5.13411 -3.23255 0
M  V30 6636 H 614.256 4.31929 -2.2647 0
M  V30 6637 H 613.261 3.353 -4.35723 0
M  V30 6638 H 614.486 4.20049 -5.33606 0
M  V30 6639 H 612.432 5.53024 -3.52847 0
M  V30 6640 H 612.349 5.43311 -5.25689 0
M  V30 6641 H 613.617 6.35812 -4.50958 0
M  V30 6642 N 617.846 1.41785 0.688094 0
M  V30 6643 C 619.076 1.44705 1.47459 0
M  V30 6644 C 619.484 0.052916 1.89126 0
M  V30 6645 O 618.827 -0.939781 1.57841 0
M  V30 6646 C 618.889 2.29935 2.76352 0
M  V30 6647 C 618.553 3.77996 2.56843 0
M  V30 6648 C 619.55 4.69976 2.22304 0
M  V30 6649 C 617.235 4.2212 2.7225 0
M  V30 6650 C 619.229 6.04068 2.03421 0
M  V30 6651 C 616.916 5.56275 2.52985 0
M  V30 6652 C 617.914 6.47065 2.18621 0
M  V30 6653 O 617.602 7.78744 1.9953 0
M  V30 6654 H 617.334 0.494703 0.460701 0
M  V30 6655 H 619.888 1.86802 0.854057 0
M  V30 6656 H 618.118 1.82664 3.40839 0
M  V30 6657 H 619.807 2.24467 3.38186 0
M  V30 6658 H 620.573 4.37175 2.10008 0
M  V30 6659 H 616.452 3.51752 2.97979 0
M  V30 6660 H 619.996 6.74897 1.76523 0
M  V30 6661 H 615.893 5.88653 2.64873 0
M  V30 6662 H 616.661 7.89966 2.14234 0
M  V30 6663 N 619.324 -0.923095 1.27737 0
M  V30 6664 C 620.254 -2.04124 1.13383 0
M  V30 6665 C 621.235 -1.70066 0.0340658 0
M  V30 6666 O 622.42 -1.93068 0.209383 0
M  V30 6667 C 619.55 -3.3831 0.785097 0
M  V30 6668 C 618.504 -3.86496 1.8386 0
M  V30 6669 C 617.83 -5.1754 1.34373 0
M  V30 6670 C 619.13 -4.09381 3.24353 0
M  V30 6671 H 620.824 -2.1639 2.06919 0
M  V30 6672 H 618.37 -1.03976 0.996243 0
M  V30 6673 H 620.323 -4.16016 0.671485 0
M  V30 6674 H 619.047 -3.2607 -0.185969 0
M  V30 6675 H 617.706 -3.10987 1.9412 0
M  V30 6676 H 617.354 -5.01696 0.361989 0
M  V30 6677 H 617.054 -5.50751 2.04811 0
M  V30 6678 H 618.578 -5.97811 1.24315 0
M  V30 6679 H 619.992 -4.77641 3.17067 0
M  V30 6680 H 618.389 -4.53906 3.92542 0
M  V30 6681 H 619.459 -3.14515 3.69064 0
M  V30 6682 N 620.802 -1.09834 -1.13024 0
M  V30 6683 C 622.213 -0.855651 -1.65938 0
M  V30 6684 C 622.564 0.615159 -1.86307 0
M  V30 6685 O 621.689 1.47335 -1.58497 0
M  V30 6686 C 622.284 -1.5467 -3.01434 0
M  V30 6687 C 620.843 -1.35088 -3.51323 0
M  V30 6688 C 619.99 -1.6001 -2.26478 0
M  V30 6689 H 622.941 -1.25691 -0.968889 0
M  V30 6690 H 622.962 -0.982179 -3.67605 0
M  V30 6691 H 622.474 -2.61715 -2.86578 0
M  V30 6692 H 620.575 -0.30179 -3.71376 0
M  V30 6693 H 620.688 -2.0886 -4.31178 0
M  V30 6694 H 619.052 -1.02246 -2.33276 0
M  V30 6695 H 619.835 -2.68293 -2.14182 0
M  V30 6696 N 622.28 1.30327 -0.886154 0
M  V30 6697 C 623.227 2.28099 -0.352069 0
M  V30 6698 C 624.197 1.56433 0.558397 0
M  V30 6699 O 625.382 1.84492 0.486561 0
M  V30 6700 C 622.522 3.42456 0.426346 0
M  V30 6701 C 621.635 4.28938 -0.513472 0
M  V30 6702 C 620.77 5.30458 0.280657 0
M  V30 6703 C 619.809 6.0859 -0.654556 0
M  V30 6704 N 618.946 7.02022 0.104322 0
M  V30 6705 H 623.786 2.73166 -1.19097 0
M  V30 6706 H 621.323 1.34367 -0.598662 0
M  V30 6707 H 623.281 4.07518 0.893587 0
M  V30 6708 H 621.911 2.98455 1.22981 0
M  V30 6709 H 620.963 3.64173 -1.09921 0
M  V30 6710 H 622.275 4.83399 -1.2299 0
M  V30 6711 H 621.429 6.01273 0.8097 0
M  V30 6712 H 620.168 4.76693 1.03029 0
M  V30 6713 H 619.173 5.36651 -1.19522 0
M  V30 6714 H 620.398 6.64443 -1.4033 0
M  V30 6715 H 618.344 6.50645 0.836472 0
M  V30 6716 H 618.261 7.53979 -0.552453 0
M  V30 6717 H 619.529 7.77077 0.614069 0
M  V30 6718 N 623.758 0.647228 1.43697 0
M  V30 6719 C 625.006 0.157876 2.01482 0
M  V30 6720 C 625.327 -1.23039 1.51282 0
M  V30 6721 O 624.597 -1.82071 0.722982 0
M  V30 6722 H 623.177 0.0553745 0.744945 0
M  V30 6723 H 625.839 0.83755 1.75986 0
M  V30 6724 H 624.935 0.137895 3.11795 0
M  V30 6725 N 625.236 -1.5273 0.388769 0
M  V30 6726 C 626.464 -2.05992 -0.193677 0
M  V30 6727 C 626.879 -1.26053 -1.40557 0
M  V30 6728 O 626.236 -0.307049 -1.79898 0
M  V30 6729 C 626.287 -3.57068 -0.564321 0
M  V30 6730 O 626.008 -4.3398 0.599422 0
M  V30 6731 C 627.509 -4.26674 -1.20269 0
M  V30 6732 H 624.729 -0.670358 -0.0293445 0
M  V30 6733 H 627.273 -1.96857 0.553844 0
M  V30 6734 H 625.428 -3.66277 -1.26174 0
M  V30 6735 H 625.842 -5.2367 0.294895 0
M  V30 6736 H 627.316 -5.33625 -1.4124 0
M  V30 6737 H 627.793 -3.81854 -2.16989 0
M  V30 6738 H 628.399 -4.2178 -0.546047 0
M  V30 6739 N 626.714 -0.118576 -1.57153 0
M  V30 6740 C 627.961 0.539526 -1.9518 0
M  V30 6741 C 628.289 1.66714 -1.00184 0
M  V30 6742 O 627.544 1.95683 -0.0256482 0
M  V30 6743 C 627.843 1.11303 -3.39627 0
M  V30 6744 C 627.509 0.106809 -4.50773 0
M  V30 6745 C 626.171 -0.169876 -4.809 0
M  V30 6746 C 628.523 -0.57895 -5.17975 0
M  V30 6747 C 625.851 -1.13861 -5.75545 0
M  V30 6748 C 628.203 -1.53631 -6.13661 0
M  V30 6749 C 626.867 -1.82099 -6.42181 0
M  V30 6750 H 626.137 0.197427 -0.714215 0
M  V30 6751 H 628.784 -0.199391 -1.90459 0
M  V30 6752 H 627.089 1.92869 -3.4104 0
M  V30 6753 H 628.786 1.63032 -3.66363 0
M  V30 6754 H 625.376 0.332645 -4.27307 0
M  V30 6755 H 629.56 -0.378359 -4.94856 0
M  V30 6756 H 624.816 -1.36592 -5.95947 0
M  V30 6757 H 628.99 -2.07337 -6.64819 0
M  V30 6758 H 626.617 -2.57319 -7.15326 0
M  V30 6759 N 628.193 1.56834 0.155195 0
M  V30 6760 C 629.103 2.009 1.21146 0
M  V30 6761 C 630.119 0.923029 1.475 0
M  V30 6762 O 631.295 1.23189 1.59331 0
M  V30 6763 C 628.36 2.37378 2.52691 0
M  V30 6764 C 627.421 3.59883 2.34057 0
M  V30 6765 C 626.654 3.94612 3.59329 0
M  V30 6766 O 626.877 3.30104 4.65175 0
M  V30 6767 O 625.811 4.87895 3.52479 0
M  V30 6768 H 629.637 2.9105 0.867371 0
M  V30 6769 H 627.222 1.44916 0.363298 0
M  V30 6770 H 629.104 2.61737 3.3026 0
M  V30 6771 H 627.779 1.50385 2.86646 0
M  V30 6772 H 626.686 3.40722 1.54465 0
M  V30 6773 H 628.019 4.47468 2.0502 0
M  V30 6774 N 629.671 -0.424282 1.51781 0
M  V30 6775 C 630.581 -1.54087 1.76902 0
M  V30 6776 C 631.597 -1.61249 0.653826 0
M  V30 6777 O 632.773 -1.78247 0.937552 0
M  V30 6778 C 629.838 -2.8996 1.90063 0
M  V30 6779 C 628.899 -2.92809 3.13945 0
M  V30 6780 C 628.132 -4.22201 3.26469 0
M  V30 6781 O 628.355 -5.15286 2.44616 0
M  V30 6782 O 627.289 -4.31599 4.1953 0
M  V30 6783 H 631.115 -1.358 2.71647 0
M  V30 6784 H 628.7 -0.608618 1.36441 0
M  V30 6785 H 630.582 -3.70575 2.0063 0
M  V30 6786 H 629.257 -3.08347 0.985067 0
M  V30 6787 H 628.164 -2.11102 3.08847 0
M  V30 6788 H 629.497 -2.79369 4.05233 0
M  V30 6789 N 631.149 -1.42148 -0.680565 0
M  V30 6790 C 632.059 -1.47565 -1.82378 0
M  V30 6791 C 633.075 -0.36489 -1.70131 0
M  V30 6792 O 634.251 -0.614916 -1.91783 0
M  V30 6793 C 631.316 -1.37013 -3.18478 0
M  V30 6794 C 630.377 -2.58532 -3.42724 0
M  V30 6795 C 629.61 -2.48473 -4.72331 0
M  V30 6796 O 629.833 -1.51745 -5.49845 0
M  V30 6797 O 628.767 -3.38503 -4.97694 0
M  V30 6798 H 632.593 -2.44045 -1.80764 0
M  V30 6799 H 630.178 -1.23849 -0.835569 0
M  V30 6800 H 632.06 -1.33468 -3.99705 0
M  V30 6801 H 630.735 -0.436552 -3.20743 0
M  V30 6802 H 629.642 -2.67652 -2.61368 0
M  V30 6803 H 630.975 -3.50769 -3.45286 0
M  V30 6804 N 632.627 0.916307 -1.28225 0
M  V30 6805 C 633.56 2.01954 -1.06254 0
M  V30 6806 C 634.538 1.62587 0.0205983 0
M  V30 6807 O 635.722 1.88073 -0.126824 0
M  V30 6808 C 632.849 3.33086 -0.614141 0
M  V30 6809 C 631.895 3.91435 -1.69354 0
M  V30 6810 S 632.728 4.22603 -3.28887 0
M  V30 6811 C 633.884 5.568 -2.85876 0
M  V30 6812 H 634.117 2.20281 -1.99659 0
M  V30 6813 H 631.65 1.06085 -1.12184 0
M  V30 6814 H 633.608 4.089 -0.36213 0
M  V30 6815 H 632.269 3.12664 0.300036 0
M  V30 6816 H 631.462 4.86098 -1.33136 0
M  V30 6817 H 631.064 3.22248 -1.89821 0
M  V30 6818 H 633.356 6.3658 -2.31888 0
M  V30 6819 H 634.299 5.97927 -3.79326 0
M  V30 6820 H 634.707 5.17865 -2.24669 0
M  V30 6821 N 634.105 1.10431 1.1244 0
M  V30 6822 C 635.035 0.775143 2.20258 0
M  V30 6823 C 636.016 -0.25186 1.68225 0
M  V30 6824 O 637.201 -0.117637 1.93843 0
M  V30 6825 C 634.331 0.206133 3.46688 0
M  V30 6826 C 633.285 1.16382 4.11873 0
M  V30 6827 C 632.611 0.456014 5.32752 0
M  V30 6828 C 633.911 2.5104 4.58013 0
M  V30 6829 H 635.605 1.67665 2.4805 0
M  V30 6830 H 633.151 0.807595 1.19222 0
M  V30 6831 H 635.104 -0.036291 4.21384 0
M  V30 6832 H 633.828 -0.730614 3.18323 0
M  V30 6833 H 632.487 1.39169 3.39157 0
M  V30 6834 H 632.135 -0.485203 5.00654 0
M  V30 6835 H 631.835 1.09466 5.77314 0
M  V30 6836 H 633.359 0.222135 6.10196 0
M  V30 6837 H 634.773 2.32401 5.24083 0
M  V30 6838 H 633.17 3.10789 5.13352 0
M  V30 6839 H 634.24 3.11039 3.71998 0
M  V30 6840 N 635.583 -1.29855 0.893053 0
M  V30 6841 C 636.513 -2.3035 0.382249 0
M  V30 6842 C 637.494 -1.61328 -0.539203 0
M  V30 6843 O 638.679 -1.88882 -0.451342 0
M  V30 6844 C 635.809 -3.45024 -0.396983 0
M  V30 6845 C 634.763 -4.258 0.433437 0
M  V30 6846 C 634.089 -5.32605 -0.472889 0
M  V30 6847 C 635.389 -4.94549 1.67984 0
M  V30 6848 H 637.083 -2.73325 1.22205 0
M  V30 6849 H 634.629 -1.314 0.589073 0
M  V30 6850 H 636.582 -4.14398 -0.765024 0
M  V30 6851 H 635.306 -3.00875 -1.2705 0
M  V30 6852 H 633.965 -3.58125 0.783723 0
M  V30 6853 H 633.613 -4.84702 -1.34435 0
M  V30 6854 H 633.313 -5.87547 0.0789958 0
M  V30 6855 H 634.837 -6.04832 -0.837269 0
M  V30 6856 H 636.251 -5.56395 1.38192 0
M  V30 6857 H 634.648 -5.59393 2.17254 0
M  V30 6858 H 635.718 -4.20215 2.41965 0
M  V30 6859 N 637.061 -0.65484 -1.43351 0
M  V30 6860 C 638.307 -0.177749 -2.02622 0
M  V30 6861 C 638.662 1.19553 -1.50748 0
M  V30 6862 O 637.955 1.78683 -0.691599 0
M  V30 6863 C 638.149 -0.130424 -3.57162 0
M  V30 6864 C 637.978 -1.49757 -4.24032 0
M  V30 6865 C 636.748 -2.09036 -4.60035 0
M  V30 6866 C 638.946 -2.4363 -4.52934 0
M  V30 6867 N 636.928 -3.3874 -5.11985 0
M  V30 6868 C 638.299 -3.57968 -5.0622 0
M  V30 6869 C 640.354 -2.42412 -4.34903 0
M  V30 6870 C 639.057 -4.71314 -5.43374 0
M  V30 6871 C 641.083 -3.5484 -4.7312 0
M  V30 6872 C 640.445 -4.67903 -5.26541 0
M  V30 6873 H 636.544 -0.10951 -0.774294 0
M  V30 6874 H 639.128 -0.863495 -1.74505 0
M  V30 6875 H 637.299 0.524671 -3.8484 0
M  V30 6876 H 639.031 0.35769 -4.03116 0
M  V30 6877 H 635.786 -1.61729 -4.4513 0
M  V30 6878 H 636.21 -4.05116 -5.42412 0
M  V30 6879 H 640.852 -1.56236 -3.92874 0
M  V30 6880 H 638.57 -5.5818 -5.84346 0
M  V30 6881 H 642.156 -3.55101 -4.60863 0
M  V30 6882 H 641.036 -5.5346 -5.55564 0
M  V30 6883 N 638.539 1.52521 -0.396863 0
M  V30 6884 C 639.955 1.5953 -0.0471659 0
M  V30 6885 C 640.155 1.41044 1.43906 0
M  V30 6886 O 639.211 1.23122 2.20448 0
M  V30 6887 C 640.524 2.95972 -0.531113 0
M  V30 6888 C 642.072 3.09172 -0.488024 0
M  V30 6889 C 642.547 4.48075 -0.948281 0
M  V30 6890 N 644.038 4.54281 -0.9046 0
M  V30 6891 C 644.773 5.60007 -1.23205 0
M  V30 6892 N 644.269 6.73343 -1.63036 0
M  V30 6893 N 646.062 5.50151 -1.15282 0
M  V30 6894 H 638.213 1.62786 -1.36435 0
M  V30 6895 H 640.476 0.76514 -0.559701 0
M  V30 6896 H 640.182 3.14741 -1.56942 0
M  V30 6897 H 640.056 3.77143 0.0657922 0
M  V30 6898 H 642.443 2.90095 0.541211 0
M  V30 6899 H 642.524 2.29937 -1.12083 0
M  V30 6900 H 642.168 4.67894 -1.97578 0
M  V30 6901 H 642.098 5.25788 -0.292412 0
M  V30 6902 H 644.589 3.72918 -0.6116 0
M  V30 6903 H 644.902 7.49992 -1.86365 0
M  V30 6904 H 643.247 6.74655 -1.66929 0
M  V30 6905 H 646.438 4.6049 -0.840602 0
M  V30 6906 H 646.611 6.32444 -1.41133 0
M  V30 6907 N 640.017 0.126909 1.57088 0
M  V30 6908 C 641.433 -0.229641 1.57939 0
M  V30 6909 C 641.633 -1.66145 1.1401 0
M  V30 6910 O 640.689 -2.3843 0.831119 0
M  V30 6911 C 642.002 0.0108648 3.00698 0
M  V30 6912 C 643.55 -0.054418 3.12953 0
M  V30 6913 C 644.025 0.158497 4.57726 0
M  V30 6914 N 645.516 0.104735 4.63082 0
M  V30 6915 C 646.251 0.24427 5.72879 0
M  V30 6916 N 645.747 0.440415 6.91399 0
M  V30 6917 N 647.54 0.183286 5.61801 0
M  V30 6918 H 639.691 1.06203 1.83942 0
M  V30 6919 H 641.954 0.418834 0.85046 0
M  V30 6920 H 641.66 1.00102 3.37154 0
M  V30 6921 H 641.534 -0.717512 3.70313 0
M  V30 6922 H 643.921 -1.0351 2.7635 0
M  V30 6923 H 644.002 0.705967 2.45865 0
M  V30 6924 H 643.646 1.13619 4.95028 0
M  V30 6925 H 643.576 -0.62197 5.22914 0
M  V30 6926 H 646.067 -0.0430298 3.77876 0
M  V30 6927 H 646.38 0.537536 7.70928 0
M  V30 6928 H 644.725 0.476488 6.93365 0
M  V30 6929 H 647.916 0.0309561 4.6809 0
M  V30 6930 H 648.089 0.295471 6.47326 0
M  V30 6931 N 641.495 -1.56914 -0.146875 0
M  V30 6932 C 642.742 -1.83356 -0.859467 0
M  V30 6933 C 643.07 -0.707811 -1.81164 0
M  V30 6934 O 642.325 0.303155 -1.93338 0
M  V30 6935 C 642.624 -3.16128 -1.66727 0
M  V30 6936 C 642.29 -4.42586 -0.861881 0
M  V30 6937 C 640.952 -4.76929 -0.639687 0
M  V30 6938 C 643.304 -5.20344 -0.298643 0
M  V30 6939 C 640.632 -5.86491 0.156451 0
M  V30 6940 C 642.984 -6.30742 0.484536 0
M  V30 6941 C 641.648 -6.63635 0.717306 0
M  V30 6942 H 640.918 -0.670947 -0.314501 0
M  V30 6943 H 643.565 -1.91104 -0.123108 0
M  V30 6944 H 641.87 -3.03831 -2.47374 0
M  V30 6945 H 643.567 -3.33802 -2.2221 0
M  V30 6946 H 640.157 -4.15662 -1.04513 0
M  V30 6947 H 644.341 -4.94186 -0.457585 0
M  V30 6948 H 639.597 -6.10419 0.346292 0
M  V30 6949 H 643.771 -6.90188 0.928105 0
M  V30 6950 H 641.398 -7.48367 1.33607 0
M  V30 6951 N 642.974 0.416227 -1.52004 0
M  V30 6952 C 643.904 1.51365 -1.77795 0
M  V30 6953 C 644.885 1.58059 -0.628601 0
M  V30 6954 O 646.07 1.73447 -0.873478 0
M  V30 6955 C 643.2 2.89256 -1.92219 0
M  V30 6956 C 642.154 2.97415 -3.0778 0
M  V30 6957 C 641.48 4.37492 -3.07417 0
M  V30 6958 C 642.78 2.69551 -4.47369 0
M  V30 6959 H 644.474 1.30033 -2.69688 0
M  V30 6960 H 642.02 0.624112 -1.29772 0
M  V30 6961 H 643.973 3.66008 -2.08845 0
M  V30 6962 H 642.697 3.11866 -0.969917 0
M  V30 6963 H 641.356 2.23107 -2.90893 0
M  V30 6964 H 641.004 4.571 -2.09925 0
M  V30 6965 H 640.704 4.43877 -3.85029 0
M  V30 6966 H 642.228 5.16188 -3.26162 0
M  V30 6967 H 643.642 3.36028 -4.64497 0
M  V30 6968 H 642.039 2.87321 -5.26846 0
M  V30 6969 H 643.109 1.65029 -4.55953 0
M  V30 6970 N 644.452 1.42507 0.673017 0
M  V30 6971 C 645.729 1.33554 1.42908 0
M  V30 6972 C 646.109 -0.0262211 2.11084 0
M  V30 6973 O 645.457 -1.04181 2.03368 0
M  V30 6974 C 645.667 2.50498 2.43006 0
M  V30 6975 C 647.015 2.92694 3.07596 0
M  V30 6976 O 648.039 2.50401 2.53333 0
M  V30 6977 O 646.898 3.65899 4.05931 0
M  V30 6978 H 643.992 0.526785 0.637516 0
M  V30 6979 H 646.538 1.54518 0.701591 0
M  V30 6980 H 645.31 3.41272 1.9144 0
M  V30 6981 H 644.933 2.3153 3.23233 0
M  V30 6982 N 645.93 -0.909495 1.28709 0
M  V30 6983 C 646.878 -2.03381 1.12866 0
M  V30 6984 C 647.872 -1.69335 0.0468074 0
M  V30 6985 O 649.078 -1.78819 0.205891 0
M  V30 6986 H 645.453 -0.666452 0.348348 0
M  V30 6987 H 647.424 -2.13885 2.08077 0
M  V30 6988 C 646.173 -3.38092 0.811742 0
M  V30 6989 H 645.496 -3.64786 1.63619 0
M  V30 6990 H 646.936 -4.17477 0.740869 0
M  V30 6991 C 645.395 -3.33395 -0.484679 0
M  V30 6992 O 645.925 -3.72089 -1.5137 0
M  V30 6993 N 644.131 -2.86491 -0.486961 0
M  V30 6994 H 643.678 -2.55199 0.350877 0
M  V30 6995 H 643.636 -2.83731 -1.3544 0
M  V30 6996 N 647.408 -1.11026 -1.11852 0
M  V30 6997 C 648.355 -0.764662 -2.17765 0
M  V30 6998 C 649.325 0.261854 -1.64023 0
M  V30 6999 O 650.51 0.139748 -1.90288 0
M  V30 7000 C 647.65 -0.209317 -3.44465 0
M  V30 7001 C 646.763 -1.29187 -4.12231 0
M  V30 7002 C 645.898 -0.697523 -5.266 0
M  V30 7003 C 644.937 -1.76023 -5.86244 0
M  V30 7004 N 644.074 -1.18569 -6.92016 0
M  V30 7005 H 648.914 -1.67202 -2.46673 0
M  V30 7006 H 646.451 -0.835065 -1.21099 0
M  V30 7007 H 648.409 0.130599 -4.16996 0
M  V30 7008 H 647.039 0.661251 -3.15955 0
M  V30 7009 H 646.091 -1.74881 -3.37818 0
M  V30 7010 H 647.403 -2.09607 -4.52622 0
M  V30 7011 H 646.557 -0.307412 -6.05921 0
M  V30 7012 H 645.296 0.138044 -4.87505 0
M  V30 7013 H 644.301 -2.1597 -5.05606 0
M  V30 7014 H 645.526 -2.59875 -6.27409 0
M  V30 7015 H 643.472 -0.371695 -6.54946 0
M  V30 7016 H 643.389 -1.92666 -7.31038 0
M  V30 7017 H 644.657 -0.82233 -7.7515 0
M  V30 7018 N 648.886 1.2938 -0.899927 0
M  V30 7019 C 650.132 1.9584 -0.526742 0
M  V30 7020 C 650.465 1.70774 0.924651 0
M  V30 7021 O 649.74 1.02084 1.65557 0
M  V30 7022 C 650.023 3.50638 -0.820062 0
M  V30 7023 C 649.876 3.85161 -2.32317 0
M  V30 7024 C 651.195 4.3903 -0.30671 0
M  V30 7025 H 648.314 0.711322 -0.192848 0
M  V30 7026 H 650.956 1.52992 -1.12665 0
M  V30 7027 H 649.106 3.87265 -0.309491 0
M  V30 7028 H 650.778 3.58477 -2.9033 0
M  V30 7029 H 649.021 3.32696 -2.78381 0
M  V30 7030 H 649.692 4.93204 -2.47898 0
M  V30 7031 H 652.168 4.09396 -0.743908 0
M  V30 7032 H 651.044 5.46226 -0.541144 0
M  V30 7033 H 651.305 4.34937 0.792588 0
M  V30 7034 N 650.364 0.662433 1.43002 0
M  V30 7035 C 651.294 -0.00979809 2.33498 0
M  V30 7036 C 652.275 -0.802329 1.49989 0
M  V30 7037 O 653.46 -0.761964 1.78627 0
M  V30 7038 C 650.59 -0.970446 3.33466 0
M  V30 7039 C 649.544 -0.287383 4.27034 0
M  V30 7040 C 648.87 -1.36012 5.17112 0
M  V30 7041 C 650.17 0.82595 5.15728 0
M  V30 7042 H 651.864 0.745959 2.89958 0
M  V30 7043 H 649.41 0.360172 1.39423 0
M  V30 7044 H 651.363 -1.44971 3.95679 0
M  V30 7045 H 650.087 -1.75748 2.75282 0
M  V30 7046 H 648.746 0.17152 3.66199 0
M  V30 7047 H 648.394 -2.13882 4.55262 0
M  V30 7048 H 648.094 -0.908276 5.80538 0
M  V30 7049 H 649.618 -1.84056 5.82199 0
M  V30 7050 H 651.032 0.42845 5.71697 0
M  V30 7051 H 649.429 1.20282 5.87922 0
M  V30 7052 H 650.499 1.68003 4.54866 0
M  V30 7053 N 651.842 -1.52309 0.404946 0
M  V30 7054 C 652.772 -2.29805 -0.41376 0
M  V30 7055 C 653.753 -1.3384 -1.0498 0
M  V30 7056 O 654.938 -1.62745 -1.05961 0
M  V30 7057 C 652.068 -3.11639 -1.53292 0
M  V30 7058 C 651.022 -4.15616 -1.02211 0
M  V30 7059 C 650.348 -4.8577 -2.23455 0
M  V30 7060 C 651.648 -5.2224 -0.0790725 0
M  V30 7061 H 653.342 -2.98493 0.232878 0
M  V30 7062 H 650.888 -1.43552 0.113441 0
M  V30 7063 H 652.841 -3.64618 -2.11262 0
M  V30 7064 H 651.565 -2.40712 -2.20738 0
M  V30 7065 H 650.224 -3.63641 -0.46484 0
M  V30 7066 H 649.872 -4.11376 -2.89445 0
M  V30 7067 H 649.572 -5.56058 -1.89929 0
M  V30 7068 H 651.096 -5.4156 -2.82038 0
M  V30 7069 H 652.51 -5.70485 -0.567438 0
M  V30 7070 H 650.907 -5.99867 0.167167 0
M  V30 7071 H 651.977 -4.77078 0.867447 0
M  V30 7072 N 653.32 -0.135238 -1.57019 0
M  V30 7073 C 654.545 0.529343 -2.00531 0
M  V30 7074 C 654.97 1.58391 -1.01459 0
M  V30 7075 O 654.328 1.81296 0.0113986 0
M  V30 7076 C 654.376 1.11748 -3.42848 0
M  V30 7077 O 653.48 2.23267 -3.46736 0
M  V30 7078 H 652.821 0.130669 -0.651016 0
M  V30 7079 H 655.351 -0.228503 -2.0332 0
M  V30 7080 H 655.361 1.44905 -3.81401 0
M  V30 7081 H 654.036 0.345147 -4.14465 0
M  V30 7082 H 652.613 1.91428 -3.20015 0
M  V30 7083 N 654.798 1.5699 0.138552 0
M  V30 7084 C 656.045 1.83809 0.849732 0
M  V30 7085 C 656.373 0.717409 1.80786 0
M  V30 7086 O 655.628 -0.292897 1.93496 0
M  V30 7087 C 655.927 3.17007 1.65049 0
M  V30 7088 C 655.593 4.43037 0.838398 0
M  V30 7089 C 654.255 4.77262 0.614385 0
M  V30 7090 C 656.607 5.20495 0.271044 0
M  V30 7091 C 653.935 5.864 -0.187552 0
M  V30 7092 C 656.287 6.30476 -0.517979 0
M  V30 7093 C 654.951 6.63245 -0.75249 0
M  V30 7094 H 654.221 0.672605 0.310939 0
M  V30 7095 H 656.868 1.91166 0.112971 0
M  V30 7096 H 655.173 3.05138 2.4576 0
M  V30 7097 H 656.87 3.34975 2.20437 0
M  V30 7098 H 653.46 4.16211 1.02307 0
M  V30 7099 H 657.644 4.94422 0.431371 0
M  V30 7100 H 652.9 6.10226 -0.378659 0
M  V30 7101 H 657.074 6.89686 -0.964694 0
M  V30 7102 H 654.701 7.47648 -1.37573 0
M  V30 7103 N 656.276 -0.40816 1.52223 0
M  V30 7104 C 657.524 -1.15274 1.66001 0
M  V30 7105 C 657.845 -1.91003 0.392803 0
M  V30 7106 O 657.115 -1.8673 -0.592336 0
M  V30 7107 H 655.695 -0.428526 0.611861 0
M  V30 7108 H 658.357 -0.46512 1.89269 0
M  V30 7109 H 657.453 -1.86628 2.50153 0
M  V30 7110 N 657.755 -1.42862 -0.66545 0
M  V30 7111 C 658.702 -1.4707 -1.77874 0
M  V30 7112 C 659.672 -0.321654 -1.62956 0
M  V30 7113 O 660.857 -0.52707 -1.83376 0
M  V30 7114 C 657.997 -1.38788 -3.15962 0
M  V30 7115 C 657.11 -2.63801 -3.42101 0
M  V30 7116 C 656.245 -2.47594 -4.69969 0
M  V30 7117 C 655.284 -3.67936 -4.89172 0
M  V30 7118 N 654.421 -3.50614 -6.08288 0
M  V30 7119 H 659.261 -2.42204 -1.73613 0
M  V30 7120 H 656.798 -1.20239 -0.847401 0
M  V30 7121 H 658.756 -1.31982 -3.95773 0
M  V30 7122 H 657.386 -0.472431 -3.19324 0
M  V30 7123 H 656.438 -2.80935 -2.56475 0
M  V30 7124 H 657.75 -3.53228 -3.52181 0
M  V30 7125 H 656.904 -2.38427 -5.57886 0
M  V30 7126 H 655.643 -1.55672 -4.62188 0
M  V30 7127 H 654.648 -3.77525 -3.99694 0
M  V30 7128 H 655.873 -4.60851 -4.98792 0
M  V30 7129 H 653.819 -2.61417 -6.01662 0
M  V30 7130 H 653.736 -4.33634 -6.19272 0
M  V30 7131 H 655.004 -3.45276 -6.98859 0
M  V30 7132 N 659.233 0.902656 -1.29189 0
M  V30 7133 C 660.196 1.98797 -1.14071 0
M  V30 7134 C 661.196 1.60615 -0.0770549 0
M  V30 7135 O 662.386 1.71165 -0.323753 0
M  V30 7136 C 659.518 3.32688 -0.743739 0
M  V30 7137 H 660.711 2.13637 -2.10473 0
M  V30 7138 H 658.264 1.08678 -1.12334 0
M  V30 7139 H 658.999 3.23549 0.220554 0
M  V30 7140 H 658.784 3.61765 -1.51223 0
M  V30 7141 H 660.274 4.12337 -0.660935 0
M  V30 7142 N 660.711 1.11618 1.11262 0
M  V30 7143 C 661.958 0.86618 1.8304 0
M  V30 7144 C 662.286 -0.608149 1.84748 0
M  V30 7145 O 661.541 -1.46508 1.29745 0
M  V30 7146 C 661.84 1.37529 3.2988 0
M  V30 7147 C 661.506 2.86317 3.4833 0
M  V30 7148 C 660.168 3.26945 3.53073 0
M  V30 7149 C 662.52 3.82136 3.54431 0
M  V30 7150 C 659.848 4.62117 3.61475 0
M  V30 7151 C 662.2 5.17128 3.64365 0
M  V30 7152 C 660.864 5.57312 3.67369 0
M  V30 7153 H 660.134 0.316958 0.66979 0
M  V30 7154 H 662.781 1.3949 1.31205 0
M  V30 7155 H 661.086 0.766842 3.84222 0
M  V30 7156 H 662.783 1.15817 3.83911 0
M  V30 7157 H 659.373 2.53889 3.45309 0
M  V30 7158 H 663.557 3.51847 3.50025 0
M  V30 7159 H 658.813 4.92655 3.62079 0
M  V30 7160 H 662.987 5.91208 3.68029 0
M  V30 7161 H 660.614 6.62045 3.73632 0
M  V30 7162 N 662.189 -1.289 0.906776 0
M  V30 7163 C 663.099 -2.31256 0.394707 0
M  V30 7164 C 664.115 -1.66231 -0.514121 0
M  V30 7165 O 665.291 -1.97347 -0.401994 0
M  V30 7166 C 662.356 -3.44792 -0.363191 0
M  V30 7167 C 661.417 -4.25391 0.578012 0
M  V30 7168 C 660.65 -5.33506 -0.143811 0
M  V30 7169 O 660.873 -5.53786 -1.36665 0
M  V30 7170 O 659.807 -5.99673 0.5173 0
M  V30 7171 H 663.633 -2.77051 1.24405 0
M  V30 7172 H 661.218 -1.33466 0.671346 0
M  V30 7173 H 663.1 -4.139 -0.791503 0
M  V30 7174 H 661.775 -3.01093 -1.18848 0
M  V30 7175 H 660.682 -3.58899 1.05558 0
M  V30 7176 H 662.015 -4.72752 1.36992 0
M  V30 7177 N 663.667 -0.670007 -1.42649 0
M  V30 7178 C 664.907 -0.194106 -2.03476 0
M  V30 7179 C 665.271 1.1755 -1.51809 0
M  V30 7180 O 666.472 1.74579 -2.04391 0
M  V30 7181 C 664.743 -0.221828 -3.56711 0
M  V30 7182 S 666.302 0.183772 -4.38415 0
M  V30 7183 H 663.12 -0.0802478 -0.706457 0
M  V30 7184 H 665.722 -0.882092 -1.74469 0
M  V30 7185 H 664.426 -1.22107 -3.91814 0
M  V30 7186 H 663.957 0.486149 -3.90385 0
M  V30 7187 H 665.972 1.41839 -4.75496 0
M  V30 7188 N 665.145 1.52092 -0.413018 0
M  V30 7189 C 666.092 2.27119 0.410558 0
M  V30 7190 C 667.062 1.29692 1.03774 0
M  V30 7191 O 668.247 1.58561 1.06128 0
M  V30 7192 C 665.387 3.09863 1.51918 0
M  V30 7193 C 664.5 4.22252 0.912528 0
M  V30 7194 C 663.635 4.92348 1.99417 0
M  V30 7195 C 662.674 5.96694 1.36466 0
M  V30 7196 N 661.811 6.60292 2.38661 0
M  V30 7197 H 666.651 2.97067 -0.235661 0
M  V30 7198 H 664.188 1.46542 -0.128055 0
M  V30 7199 H 666.146 3.56144 2.17295 0
M  V30 7200 H 664.776 2.42078 2.13537 0
M  V30 7201 H 663.828 3.80113 0.147697 0
M  V30 7202 H 665.14 4.9709 0.412717 0
M  V30 7203 H 664.294 5.42054 2.72512 0
M  V30 7204 H 663.033 4.17087 2.52764 0
M  V30 7205 H 662.038 5.46304 0.61906 0
M  V30 7206 H 663.263 6.73899 0.838827 0
M  V30 7207 H 661.209 5.87858 2.91134 0
M  V30 7208 H 661.126 7.30816 1.93503 0
M  V30 7209 H 662.394 7.14635 3.11314 0
M  V30 7210 N 666.623 0.143563 1.56945 0
M  V30 7211 C 667.533 -0.810562 2.20152 0
M  V30 7212 C 668.549 -1.27431 1.1848 0
M  V30 7213 O 669.725 -1.33221 1.51044 0
M  V30 7214 C 666.79 -2.03353 2.80799 0
M  V30 7215 C 665.851 -1.61936 3.97587 0
M  V30 7216 C 665.084 -2.78403 4.55332 0
M  V30 7217 O 665.307 -3.94521 4.11958 0
M  V30 7218 O 664.241 -2.54073 5.45647 0
M  V30 7219 H 668.067 -0.30253 3.02189 0
M  V30 7220 H 665.652 -0.0832925 1.49168 0
M  V30 7221 H 667.534 -2.74932 3.19359 0
M  V30 7222 H 666.209 -2.53116 2.01777 0
M  V30 7223 H 665.116 -0.873904 3.6375 0
M  V30 7224 H 666.449 -1.16892 4.78118 0
M  V30 7225 N 668.101 -1.57061 -0.130224 0
M  V30 7226 C 669.512 -1.73539 -0.68856 0
M  V30 7227 C 669.863 -0.760554 -1.80859 0
M  V30 7228 O 668.988 0.0690796 -2.1629 0
M  V30 7229 C 669.583 -3.14666 -1.25581 0
M  V30 7230 C 668.142 -3.32689 -1.76055 0
M  V30 7231 C 667.289 -2.69436 -0.655712 0
M  V30 7232 H 670.24 -1.58412 0.0956002 0
M  V30 7233 H 670.261 -3.15595 -2.12556 0
M  V30 7234 H 669.773 -3.85593 -0.440412 0
M  V30 7235 H 667.874 -2.66786 -2.60108 0
M  V30 7236 H 667.987 -4.4077 -1.87772 0
M  V30 7237 H 666.351 -2.30362 -1.08654 0
M  V30 7238 H 667.134 -3.42979 0.14852 0
M  V30 7239 N 669.579 0.400081 -1.52437 0
M  V30 7240 C 670.827 1.14392 -1.6661 0
M  V30 7241 C 671.148 1.90792 -0.402927 0
M  V30 7242 O 670.418 1.87042 0.582425 0
M  V30 7243 H 668.998 0.425275 -0.614125 0
M  V30 7244 H 671.66 0.455076 -1.89513 0
M  V30 7245 H 670.756 1.85298 -2.51139 0
M  V30 7246 N 671.057 1.43213 0.657864 0
M  V30 7247 C 672.303 1.45795 1.41829 0
M  V30 7248 C 672.658 0.0792176 1.92237 0
M  V30 7249 O 671.951 -0.901406 1.69072 0
M  V30 7250 C 672.145 2.43143 2.61947 0
M  V30 7251 C 671.974 3.90345 2.23295 0
M  V30 7252 C 670.744 4.58749 2.11843 0
M  V30 7253 C 672.942 4.80308 1.83873 0
M  V30 7254 N 670.924 5.90898 1.66473 0
M  V30 7255 C 672.295 6.01693 1.49549 0
M  V30 7256 C 674.35 4.67609 1.71015 0
M  V30 7257 C 673.053 7.11792 1.03657 0
M  V30 7258 C 675.079 5.77707 1.26527 0
M  V30 7259 C 674.441 6.98215 0.931379 0
M  V30 7260 H 670.54 0.588628 0.514822 0
M  V30 7261 H 673.124 1.7936 0.7575 0
M  V30 7262 H 671.295 2.11612 3.25692 0
M  V30 7263 H 673.027 2.36193 3.28626 0
M  V30 7264 H 669.782 4.1319 2.31453 0
M  V30 7265 H 670.206 6.61034 1.46163 0
M  V30 7266 H 674.848 3.74902 1.95469 0
M  V30 7267 H 672.566 8.04332 0.779502 0
M  V30 7268 H 676.152 5.69899 1.17074 0
M  V30 7269 H 675.032 7.81959 0.592379 0
M  V30 7270 N 672.536 -0.895792 1.29666 0
M  V30 7271 C 673.783 -1.64664 1.17864 0
M  V30 7272 C 674.111 -1.92631 -0.26902 0
M  V30 7273 O 673.366 -1.53787 -1.21029 0
M  V30 7274 C 673.665 -3.00075 1.94139 0
M  V30 7275 C 673.331 -2.91702 3.43833 0
M  V30 7276 C 671.993 -2.89126 3.84656 0
M  V30 7277 C 674.345 -2.80622 4.39205 0
M  V30 7278 C 671.673 -2.73293 5.1916 0
M  V30 7279 C 674.025 -2.66329 5.73805 0
M  V30 7280 C 672.689 -2.62121 6.1388 0
M  V30 7281 H 671.959 -0.602549 0.431295 0
M  V30 7282 H 674.606 -1.04234 1.60648 0
M  V30 7283 H 672.911 -3.64394 1.43958 0
M  V30 7284 H 674.608 -3.57111 1.82408 0
M  V30 7285 H 671.198 -2.94511 3.11386 0
M  V30 7286 H 675.382 -2.81686 4.08615 0
M  V30 7287 H 670.638 -2.68443 5.49316 0
M  V30 7288 H 674.812 -2.56727 6.47352 0
M  V30 7289 H 672.439 -2.49611 7.18052 0
M  V30 7290 N 674.014 -1.12206 -1.10668 0
M  V30 7291 C 675.43 -0.857619 -1.346 0
M  V30 7292 C 675.63 0.513542 -1.94846 0
M  V30 7293 O 674.686 1.26273 -2.18658 0
M  V30 7294 C 675.999 -1.97212 -2.26998 0
M  V30 7295 C 677.547 -2.00272 -2.40542 0
M  V30 7296 C 678.022 -3.10948 -3.36267 0
M  V30 7297 N 679.513 -3.10375 -3.43834 0
M  V30 7298 C 680.248 -3.92651 -4.17867 0
M  V30 7299 N 679.744 -4.84911 -4.94807 0
M  V30 7300 N 681.537 -3.80798 -4.1346 0
M  V30 7301 H 673.688 -2.00558 -0.699306 0
M  V30 7302 H 675.951 -0.872612 -0.370477 0
M  V30 7303 H 675.657 -2.96002 -1.89936 0
M  V30 7304 H 675.531 -1.87521 -3.27286 0
M  V30 7305 H 677.918 -1.02103 -2.76874 0
M  V30 7306 H 677.999 -2.14037 -1.40077 0
M  V30 7307 H 677.643 -4.09348 -3.00661 0
M  V30 7308 H 677.573 -2.94421 -4.36605 0
M  V30 7309 H 680.064 -2.43536 -2.88961 0
M  V30 7310 H 680.377 -5.44207 -5.48688 0
M  V30 7311 H 678.722 -4.88926 -4.93939 0
M  V30 7312 H 681.913 -3.08058 -3.52445 0
M  V30 7313 H 682.086 -4.4515 -4.70898 0
M  V30 7314 N 675.492 1.28418 -0.913599 0
M  V30 7315 C 676.739 1.94981 -0.546674 0
M  V30 7316 C 677.067 1.7192 0.909606 0
M  V30 7317 O 676.322 1.03314 1.66207 0
M  V30 7318 C 676.621 3.48283 -0.802099 0
M  V30 7319 C 676.287 3.91444 -2.2379 0
M  V30 7320 C 674.949 4.02939 -2.63046 0
M  V30 7321 C 677.301 4.13542 -3.17227 0
M  V30 7322 C 674.629 4.3391 -3.94891 0
M  V30 7323 C 676.981 4.45992 -4.48636 0
M  V30 7324 C 675.645 4.55698 -4.87746 0
M  V30 7325 H 674.915 0.713487 -0.200042 0
M  V30 7326 H 677.562 1.52756 -1.15489 0
M  V30 7327 H 675.867 3.91643 -0.111076 0
M  V30 7328 H 677.564 3.97903 -0.497375 0
M  V30 7329 H 674.154 3.83024 -1.9233 0
M  V30 7330 H 678.338 4.04114 -2.88107 0
M  V30 7331 H 673.594 4.39631 -4.24894 0
M  V30 7332 H 677.768 4.62038 -5.21051 0
M  V30 7333 H 675.395 4.79451 -5.89942 0
M  V30 7334 N 676.97 0.677563 1.42291 0
M  V30 7335 C 678.216 0.201272 2.01799 0
M  V30 7336 C 678.549 -1.19004 1.53465 0
M  V30 7337 O 677.824 -1.79953 0.738039 0
M  V30 7338 C 678.107 0.238968 3.59306 0
M  V30 7339 C 677.96 1.66594 4.17812 0
M  V30 7340 C 679.279 -0.411287 4.38174 0
M  V30 7341 H 676.398 0.0746114 0.733214 0
M  V30 7342 H 679.04 0.862872 1.69276 0
M  V30 7343 H 677.19 -0.324368 3.87144 0
M  V30 7344 H 678.862 2.28173 4.00917 0
M  V30 7345 H 677.105 2.20576 3.73536 0
M  V30 7346 H 677.776 1.64398 5.26951 0
M  V30 7347 H 680.252 0.0682804 4.16044 0
M  V30 7348 H 679.128 -0.354286 5.47755 0
M  V30 7349 H 679.389 -1.4893 4.1626 0
M  V30 7350 N 678.448 -1.51871 0.421078 0
M  V30 7351 C 679.695 -2.01938 -0.15079 0
M  V30 7352 C 680.023 -1.30611 -1.44121 0
M  V30 7353 O 679.278 -0.404631 -1.91471 0
M  V30 7354 C 679.577 -3.54764 -0.433292 0
M  V30 7355 C 679.243 -4.44288 0.76936 0
M  V30 7356 C 677.905 -4.68477 1.09921 0
M  V30 7357 C 680.257 -4.96915 1.57242 0
M  V30 7358 C 677.585 -5.4254 2.2331 0
M  V30 7359 C 679.937 -5.7222 2.69716 0
M  V30 7360 C 678.601 -5.94678 3.03174 0
M  V30 7361 H 677.871 -0.738943 -0.0551781 0
M  V30 7362 H 680.518 -1.82977 0.564945 0
M  V30 7363 H 678.823 -3.71968 -1.23074 0
M  V30 7364 H 680.52 -3.91023 -0.888922 0
M  V30 7365 H 677.11 -4.25646 0.502305 0
M  V30 7366 H 681.294 -4.78125 1.3308 0
M  V30 7367 H 676.55 -5.58146 2.49565 0
M  V30 7368 H 680.724 -6.11992 3.32323 0
M  V30 7369 H 678.351 -6.51848 3.9115 0
M  V30 7370 N 679.926 -0.151884 -1.56866 0
M  V30 7371 C 681.151 0.508044 -2.01081 0
M  V30 7372 C 681.576 1.57306 -1.03134 0
M  V30 7373 O 680.934 1.81298 -0.0078309 0
M  V30 7374 C 680.982 1.08106 -3.44014 0
M  V30 7375 O 680.086 2.19577 -3.49084 0
M  V30 7376 H 679.427 0.123757 -0.652365 0
M  V30 7377 H 681.957 -0.250055 -2.03066 0
M  V30 7378 H 681.967 1.40851 -3.82916 0
M  V30 7379 H 680.642 0.301168 -4.14808 0
M  V30 7380 H 679.219 1.88023 -3.22027 0
M  V30 7381 N 681.404 1.57128 0.121893 0
M  V30 7382 C 682.681 1.75664 0.860327 0
M  V30 7383 C 683.061 0.726585 1.98202 0
M  V30 7384 O 682.409 -0.24999 2.27128 0
M  V30 7385 C 682.619 3.20571 1.37968 0
M  V30 7386 C 683.967 3.82988 1.83317 0
M  V30 7387 O 684.991 3.24156 1.47654 0
M  V30 7388 O 683.85 4.86393 2.49168 0
M  V30 7389 H 680.944 0.719153 0.408348 0
M  V30 7390 H 683.49 1.6937 0.105859 0
M  V30 7391 H 682.262 3.87056 0.57477 0
M  V30 7392 H 681.885 3.31392 2.19694 0
M  V30 7393 N 682.882 -0.391992 1.52647 0
M  V30 7394 C 683.814 -1.49811 1.73463 0
M  V30 7395 C 684.827 -1.50734 0.615078 0
M  V30 7396 O 686.016 -1.5469 0.890696 0
M  V30 7397 C 683.116 -2.88667 1.77552 0
M  V30 7398 C 682.289 -3.11743 3.06815 0
M  V30 7399 C 681.348 -4.30564 3.02491 0
M  V30 7400 O 680.374 -4.27014 3.76361 0
M  V30 7401 N 681.576 -5.36593 2.21468 0
M  V30 7402 H 684.341 -1.32343 2.68897 0
M  V30 7403 H 681.902 -0.581475 1.51098 0
M  V30 7404 H 683.894 -3.66251 1.7217 0
M  V30 7405 H 682.464 -2.99508 0.895181 0
M  V30 7406 H 681.684 -2.2205 3.25711 0
M  V30 7407 H 682.972 -3.24013 3.92292 0
M  V30 7408 H 682.37 -5.42332 1.60913 0
M  V30 7409 H 680.927 -6.12855 2.21928 0
M  V30 7410 N 684.36 -1.4356 -0.65026 0
M  V30 7411 C 685.606 -1.45549 -1.41221 0
M  V30 7412 C 685.939 -0.0805472 -1.94033 0
M  V30 7413 O 685.214 0.899043 -1.72475 0
M  V30 7414 C 685.497 -2.50028 -2.59148 0
M  V30 7415 C 685.35 -3.96808 -2.1181 0
M  V30 7416 C 686.669 -2.51212 -3.61359 0
M  V30 7417 H 683.788 -0.529967 -0.512156 0
M  V30 7418 H 686.43 -1.75127 -0.736933 0
M  V30 7419 H 684.58 -2.24937 -3.16758 0
M  V30 7420 H 686.252 -4.32966 -1.59178 0
M  V30 7421 H 684.495 -4.09498 -1.43156 0
M  V30 7422 H 685.166 -4.6553 -2.96625 0
M  V30 7423 H 687.642 -2.73583 -3.13515 0
M  V30 7424 H 686.518 -3.26252 -4.41419 0
M  V30 7425 H 686.779 -1.54701 -4.1415 0
M  V30 7426 N 685.838 0.888903 -1.30139 0
M  V30 7427 C 686.788 1.9814 -1.12803 0
M  V30 7428 C 687.772 1.60839 -0.0443137 0
M  V30 7429 O 688.964 1.74971 -0.267208 0
M  V30 7430 C 686.093 3.33416 -0.817849 0
M  V30 7431 C 685.179 3.77043 -1.94163 0
M  V30 7432 N 685.57 3.92805 -3.18651 0
M  V30 7433 C 683.868 4.06407 -1.8371 0
M  V30 7434 C 684.569 4.29746 -3.92038 0
M  V30 7435 N 683.545 4.3939 -3.20059 0
M  V30 7436 H 687.347 2.08411 -2.07225 0
M  V30 7437 H 684.861 1.07845 -1.21421 0
M  V30 7438 H 686.858 4.11405 -0.674668 0
M  V30 7439 H 685.518 3.24484 0.118344 0
M  V30 7440 H 686.529 3.78042 -3.53984 0
M  V30 7441 H 683.206 4.05972 -0.974331 0
M  V30 7442 H 684.596 4.49695 -4.99223 0
M  V30 7443 N 687.317 1.12792 1.10072 0
M  V30 7444 C 688.733 0.864745 1.34143 0
M  V30 7445 C 688.933 -0.503201 1.95116 0
M  V30 7446 O 687.989 -1.25111 2.19325 0
M  V30 7447 C 689.302 1.98413 2.25949 0
M  V30 7448 C 690.85 2.01545 2.39476 0
M  V30 7449 C 691.325 3.12727 3.34613 0
M  V30 7450 N 692.816 3.12194 3.42183 0
M  V30 7451 C 693.551 3.94862 4.15779 0
M  V30 7452 N 693.047 4.87528 4.92228 0
M  V30 7453 N 694.84 3.82985 4.11435 0
M  V30 7454 H 686.991 2.00926 0.68866 0
M  V30 7455 H 689.254 0.874564 0.365844 0
M  V30 7456 H 688.96 2.97005 1.88364 0
M  V30 7457 H 688.834 1.89254 3.26287 0
M  V30 7458 H 691.221 1.0357 2.76328 0
M  V30 7459 H 691.302 2.14777 1.3894 0
M  V30 7460 H 690.946 4.10936 2.98486 0
M  V30 7461 H 690.876 2.96732 4.35037 0
M  V30 7462 H 693.367 2.45065 2.87666 0
M  V30 7463 H 693.68 5.47109 5.45794 0
M  V30 7464 H 692.025 4.91539 4.9134 0
M  V30 7465 H 695.216 3.09923 3.50807 0
M  V30 7466 H 695.389 4.47641 4.68531 0
M  V30 7467 N 688.795 -1.27931 0.920396 0
M  V30 7468 C 689.725 -2.29487 0.431024 0
M  V30 7469 C 690.706 -1.62435 -0.504861 0
M  V30 7470 O 691.891 -1.89797 -0.411176 0
M  V30 7471 C 689.021 -3.45788 -0.323709 0
M  V30 7472 C 687.975 -4.24784 0.523658 0
M  V30 7473 C 687.301 -5.33488 -0.359809 0
M  V30 7474 C 688.601 -4.90874 1.78437 0
M  V30 7475 H 690.295 -2.70671 1.27975 0
M  V30 7476 H 687.841 -1.30121 0.616813 0
M  V30 7477 H 689.794 -4.15927 -0.676952 0
M  V30 7478 H 688.518 -3.03502 -1.2064 0
M  V30 7479 H 687.177 -3.56382 0.85951 0
M  V30 7480 H 686.825 -4.87445 -1.24124 0
M  V30 7481 H 686.525 -5.87247 0.203605 0
M  V30 7482 H 688.049 -6.06472 -0.708787 0
M  V30 7483 H 689.463 -5.53339 1.49963 0
M  V30 7484 H 687.86 -5.54659 2.29071 0
M  V30 7485 H 688.93 -4.14988 2.50824 0
M  V30 7486 N 690.273 -0.685099 -1.4193 0
M  V30 7487 C 691.513 -0.215676 -2.03259 0
M  V30 7488 C 691.877 1.15934 -1.53047 0
M  V30 7489 O 693.078 1.72401 -2.06231 0
M  V30 7490 C 691.349 -0.259649 -3.56456 0
M  V30 7491 S 692.908 0.137262 -4.38585 0
M  V30 7492 H 689.726 -0.0877362 -0.705566 0
M  V30 7493 H 692.328 -0.900547 -1.73523 0
M  V30 7494 H 691.032 -1.26256 -3.90497 0
M  V30 7495 H 690.563 0.444716 -3.90878 0
M  V30 7496 H 692.578 1.36787 -4.76973 0
M  V30 7497 N 691.751 1.51645 -0.429126 0
M  V30 7498 C 692.681 2.30434 0.377148 0
M  V30 7499 C 693.662 1.35493 1.02838 0
M  V30 7500 O 694.847 1.6441 1.03359 0
M  V30 7501 C 691.977 3.14038 1.48315 0
M  V30 7502 C 690.931 4.1719 0.955855 0
M  V30 7503 C 690.257 4.89263 2.15698 0
M  V30 7504 C 691.557 5.223 -0.00402136 0
M  V30 7505 H 693.251 2.98085 -0.280336 0
M  V30 7506 H 690.797 1.43354 -0.136265 0
M  V30 7507 H 692.75 3.67933 2.05435 0
M  V30 7508 H 691.474 2.44193 2.16881 0
M  V30 7509 H 690.133 3.64335 0.406929 0
M  V30 7510 H 689.781 4.15929 2.82864 0
M  V30 7511 H 689.481 5.59009 1.81059 0
M  V30 7512 H 691.005 5.45978 2.73387 0
M  V30 7513 H 692.419 5.71315 0.476607 0
M  V30 7514 H 690.816 5.99525 -0.26258 0
M  V30 7515 H 691.886 4.75638 -0.943236 0
M  V30 7516 N 693.229 0.160201 1.56784 0
M  V30 7517 C 694.477 -0.486625 1.96154 0
M  V30 7518 C 694.798 -1.64525 1.04673 0
M  V30 7519 O 694.068 -1.95586 0.110864 0
M  V30 7520 H 692.648 -0.182764 0.724297 0
M  V30 7521 H 695.31 0.238787 1.93432 0
M  V30 7522 H 694.406 -0.854025 3.00188 0
M  V30 7523 N 694.707 -1.5719 -0.113559 0
M  V30 7524 C 695.64 -1.9595 -1.16957 0
M  V30 7525 C 696.618 -0.829951 -1.39823 0
M  V30 7526 O 697.802 -1.08861 -1.53888 0
M  V30 7527 C 694.929 -2.2604 -2.52237 0
M  V30 7528 C 693.975 -3.48571 -2.45765 0
M  V30 7529 S 694.808 -5.00962 -1.89203 0
M  V30 7530 C 695.964 -5.3421 -3.26145 0
M  V30 7531 H 696.197 -2.85214 -0.839069 0
M  V30 7532 H 693.73 -1.51036 -0.320529 0
M  V30 7533 H 695.688 -2.44054 -3.30073 0
M  V30 7534 H 694.349 -1.3738 -2.82463 0
M  V30 7535 H 693.542 -3.67008 -3.45429 0
M  V30 7536 H 693.144 -3.29972 -1.76053 0
M  V30 7537 H 695.436 -5.29725 -4.22371 0
M  V30 7538 H 696.379 -6.35398 -3.12529 0
M  V30 7539 H 696.787 -4.61681 -3.24825 0
M  V30 7540 N 696.185 0.383891 -1.52853 0
M  V30 7541 C 697.117 1.48889 -1.74255 0
M  V30 7542 C 698.13 1.50405 -0.623063 0
M  V30 7543 O 699.319 1.54215 -0.898887 0
M  V30 7544 C 696.419 2.87721 -1.79081 0
M  V30 7545 C 695.592 3.10111 -3.08464 0
M  V30 7546 C 694.651 4.28954 -3.0477 0
M  V30 7547 O 693.677 4.25012 -3.78621 0
M  V30 7548 N 694.879 5.35411 -2.24311 0
M  V30 7549 H 697.644 1.30915 -2.69595 0
M  V30 7550 H 695.205 0.573454 -1.51404 0
M  V30 7551 H 697.197 3.65333 -1.7411 0
M  V30 7552 H 695.767 2.99029 -0.911052 0
M  V30 7553 H 694.987 2.20319 -3.26884 0
M  V30 7554 H 696.275 3.21928 -3.94005 0
M  V30 7555 H 695.673 5.41471 -1.63787 0
M  V30 7556 H 694.23 6.1167 -2.25175 0
M  V30 7557 N 697.663 1.43903 0.642637 0
M  V30 7558 C 699.079 1.27536 0.959519 0
M  V30 7559 C 699.279 0.202751 2.00477 0
M  V30 7560 O 698.335 -0.415256 2.49062 0
M  V30 7561 C 699.648 2.6432 1.43372 0
M  V30 7562 C 701.196 2.71937 1.54981 0
M  V30 7563 C 701.671 4.09164 2.05789 0
M  V30 7564 N 703.162 4.11282 2.13076 0
M  V30 7565 C 703.897 5.14303 2.53534 0
M  V30 7566 N 703.393 6.27693 2.93212 0
M  V30 7567 N 705.186 5.01657 2.53567 0
M  V30 7568 H 697.337 2.12344 -0.0488376 0
M  V30 7569 H 699.6 0.947124 0.0407559 0
M  V30 7570 H 699.306 3.43826 0.740048 0
M  V30 7571 H 699.18 2.90432 2.40685 0
M  V30 7572 H 701.567 1.92757 2.23448 0
M  V30 7573 H 701.648 2.49578 0.560739 0
M  V30 7574 H 701.292 4.88815 1.37921 0
M  V30 7575 H 701.222 4.28893 3.05546 0
M  V30 7576 H 703.713 3.2944 1.85143 0
M  V30 7577 H 704.026 7.02125 3.22863 0
M  V30 7578 H 702.371 6.31149 2.90991 0
M  V30 7579 H 705.562 4.12134 2.21952 0
M  V30 7580 H 705.735 5.82072 2.84774 0
M  V30 7581 N 699.141 -0.881989 1.30609 0
M  V30 7582 C 700.387 -1.63647 1.19781 0
M  V30 7583 C 700.72 -1.92632 -0.246265 0
M  V30 7584 O 699.995 -1.54938 -1.17577 0
M  V30 7585 C 700.278 -2.97437 2.02985 0
M  V30 7586 C 700.131 -2.75406 3.55628 0
M  V30 7587 C 701.45 -3.98397 1.86997 0
M  V30 7588 H 698.569 -0.593841 0.436488 0
M  V30 7589 H 701.211 -1.02041 1.60273 0
M  V30 7590 H 699.361 -3.50018 1.68581 0
M  V30 7591 H 701.033 -2.2959 4.00107 0
M  V30 7592 H 699.276 -2.09856 3.79662 0
M  V30 7593 H 699.947 -3.70552 4.09139 0
M  V30 7594 H 702.423 -3.54986 2.17081 0
M  V30 7595 H 701.299 -4.89916 2.47536 0
M  V30 7596 H 701.56 -4.3424 0.829943 0
M  V30 7597 N 700.619 -1.13374 -1.09472 0
M  V30 7598 C 701.551 -0.768466 -2.15933 0
M  V30 7599 C 702.564 0.209585 -1.61445 0
M  V30 7600 O 703.753 -0.010539 -1.78497 0
M  V30 7601 C 700.853 -0.118266 -3.38694 0
M  V30 7602 C 700.026 -1.12829 -4.22597 0
M  V30 7603 C 699.085 -0.503875 -5.23782 0
M  V30 7604 O 698.111 -1.16374 -5.57177 0
M  V30 7605 N 699.313 0.724288 -5.75964 0
M  V30 7606 H 702.078 -1.68457 -2.47876 0
M  V30 7607 H 699.639 -1.02668 -1.25183 0
M  V30 7608 H 701.631 0.311698 -4.03498 0
M  V30 7609 H 700.201 0.700769 -3.04644 0
M  V30 7610 H 699.421 -1.73556 -3.53938 0
M  V30 7611 H 700.709 -1.81095 -4.75481 0
M  V30 7612 H 700.107 1.27918 -5.51048 0
M  V30 7613 H 698.664 1.09692 -6.42504 0
M  V30 7614 N 702.098 1.27442 -0.927168 0
M  V30 7615 C 703.03 2.25975 -0.383158 0
M  V30 7616 C 704.043 1.55382 0.485832 0
M  V30 7617 O 705.232 1.75986 0.298541 0
M  V30 7618 C 702.332 3.35629 0.469688 0
M  V30 7619 C 701.505 4.35747 -0.379886 0
M  V30 7620 C 700.564 5.24598 0.410227 0
M  V30 7621 O 699.59 5.68909 -0.181888 0
M  V30 7622 N 700.792 5.54737 1.71017 0
M  V30 7623 H 703.557 2.7329 -1.23015 0
M  V30 7624 H 701.118 1.41063 -0.794539 0
M  V30 7625 H 703.11 3.92015 1.00532 0
M  V30 7626 H 701.68 2.87919 1.21744 0
M  V30 7627 H 700.9 3.78634 -1.09682 0
M  V30 7628 H 702.188 4.99648 -0.960717 0
M  V30 7629 H 701.586 5.20594 2.21356 0
M  V30 7630 H 700.143 6.13824 2.19234 0
M  V30 7631 N 703.576 0.692616 1.41565 0
M  V30 7632 C 704.822 0.222664 2.01574 0
M  V30 7633 C 705.155 -1.1737 1.54719 0
M  V30 7634 O 704.43 -1.79161 0.757084 0
M  V30 7635 C 704.713 0.277064 3.59033 0
M  V30 7636 C 704.566 1.71016 4.16021 0
M  V30 7637 C 705.885 -0.36479 4.38586 0
M  V30 7638 H 703.004 0.0823839 0.732381 0
M  V30 7639 H 705.646 0.880778 1.68352 0
M  V30 7640 H 703.796 -0.283288 3.87466 0
M  V30 7641 H 705.468 2.32413 3.98475 0
M  V30 7642 H 703.711 2.24525 3.71175 0
M  V30 7643 H 704.382 1.69978 5.25178 0
M  V30 7644 H 706.858 0.112404 4.15948 0
M  V30 7645 H 705.734 -0.296169 5.481 0
M  V30 7646 H 705.995 -1.44506 4.17816 0
M  V30 7647 N 705.054 -1.51416 0.437162 0
M  V30 7648 C 705.984 -2.30631 -0.364922 0
M  V30 7649 C 706.965 -1.36037 -1.02118 0
M  V30 7650 O 708.15 -1.64956 -1.02485 0
M  V30 7651 C 705.28 -3.1482 -1.46648 0
M  V30 7652 C 704.234 -4.17691 -0.933717 0
M  V30 7653 C 703.56 -4.904 -2.13101 0
M  V30 7654 C 704.86 -5.2229 0.0317201 0
M  V30 7655 H 706.554 -2.97932 0.29614 0
M  V30 7656 H 704.1 -1.4328 0.143865 0
M  V30 7657 H 706.053 -3.69017 -2.03481 0
M  V30 7658 H 704.777 -2.4534 -2.15583 0
M  V30 7659 H 703.436 -3.64545 -0.387602 0
M  V30 7660 H 703.084 -4.17423 -2.80654 0
M  V30 7661 H 702.784 -5.59962 -1.78092 0
M  V30 7662 H 704.308 -5.4742 -2.70487 0
M  V30 7663 H 705.722 -5.7156 -0.446302 0
M  V30 7664 H 704.119 -5.99378 0.29437 0
M  V30 7665 H 705.189 -4.75131 0.968447 0
M  V30 7666 N 706.532 -0.168513 -1.56696 0
M  V30 7667 C 707.495 0.748928 -2.16619 0
M  V30 7668 C 708.495 1.16007 -1.11351 0
M  V30 7669 O 709.685 1.07748 -1.3688 0
M  V30 7670 C 706.817 2.01904 -2.74677 0
M  V30 7671 H 708.01 0.227317 -2.99037 0
M  V30 7672 H 705.563 0.0810372 -1.5609 0
M  V30 7673 H 706.298 2.58381 -1.95985 0
M  V30 7674 H 706.083 1.73323 -3.51712 0
M  V30 7675 H 707.573 2.67383 -3.20774 0
M  V30 7676 N 708.01 1.57248 0.105221 0
M  V30 7677 C 709.258 1.85204 0.808951 0
M  V30 7678 C 709.579 0.75574 1.7976 0
M  V30 7679 O 708.849 -0.218984 1.94672 0
M  V30 7680 H 707.429 0.683346 0.301739 0
M  V30 7681 H 710.091 1.94695 0.0892605 0
M  V30 7682 H 709.187 2.81595 1.34575 0
M  V30 7683 N 709.488 -0.375779 1.53054 0
M  V30 7684 C 710.435 -1.45978 1.78771 0
M  V30 7685 C 711.405 -1.53625 0.631552 0
M  V30 7686 O 712.59 -1.69674 0.872667 0
M  V30 7687 C 709.73 -2.8305 1.97425 0
M  V30 7688 C 708.843 -2.84451 3.25134 0
M  V30 7689 C 707.978 -4.13034 3.34031 0
M  V30 7690 C 707.017 -4.08536 4.55812 0
M  V30 7691 N 706.154 -5.2875 4.61918 0
M  V30 7692 H 710.994 -1.23349 2.71273 0
M  V30 7693 H 708.531 -0.598147 1.3439 0
M  V30 7694 H 710.489 -3.62666 2.06225 0
M  V30 7695 H 709.119 -3.04101 1.0827 0
M  V30 7696 H 708.171 -1.97127 3.25338 0
M  V30 7697 H 709.483 -2.76998 4.14818 0
M  V30 7698 H 708.637 -5.0106 3.42087 0
M  V30 7699 H 707.376 -4.23226 2.42345 0
M  V30 7700 H 706.381 -3.18897 4.47867 0
M  V30 7701 H 707.606 -3.99955 5.48828 0
M  V30 7702 H 705.552 -5.39547 3.73129 0
M  V30 7703 H 705.469 -5.23426 5.45492 0
M  V30 7704 H 706.737 -6.18637 4.74245 0
M  V30 7705 N 710.966 -1.44241 -0.634997 0
M  V30 7706 C 712.191 -1.50516 -1.42687 0
M  V30 7707 C 712.616 -0.129864 -1.87651 0
M  V30 7708 O 711.974 0.880164 -1.58502 0
M  V30 7709 C 712.022 -2.4714 -2.62591 0
M  V30 7710 O 711.126 -1.97025 -3.62291 0
M  V30 7711 H 710.467 -0.50841 -0.427101 0
M  V30 7712 H 712.997 -1.89337 -0.775408 0
M  V30 7713 H 713.007 -2.65048 -3.10183 0
M  V30 7714 H 711.682 -3.47039 -2.29209 0
M  V30 7715 H 710.259 -1.88866 -3.21534 0
M  V30 7716 N 712.444 0.87505 -1.31075 0
M  V30 7717 C 713.376 1.98773 -1.14114 0
M  V30 7718 C 714.389 1.62595 -0.0816119 0
M  V30 7719 O 715.578 1.75449 -0.32861 0
M  V30 7720 C 712.678 3.31159 -0.720224 0
M  V30 7721 C 711.851 3.9571 -1.86366 0
M  V30 7722 C 710.91 5.06407 -1.42965 0
M  V30 7723 O 709.936 5.27501 -2.13848 0
M  V30 7724 N 711.138 5.79649 -0.314194 0
M  V30 7725 H 713.903 2.1387 -2.09951 0
M  V30 7726 H 711.464 1.04873 -1.23342 0
M  V30 7727 H 713.456 4.0259 -0.412687 0
M  V30 7728 H 712.026 3.12257 0.146396 0
M  V30 7729 H 711.246 3.17324 -2.33879 0
M  V30 7730 H 712.534 4.35576 -2.62966 0
M  V30 7731 H 711.932 5.65025 0.276228 0
M  V30 7732 H 710.489 6.51766 -0.0661641 0
M  V30 7733 N 713.922 1.13953 1.08869 0
M  V30 7734 C 715.168 0.906151 1.8143 0
M  V30 7735 C 715.501 -0.566089 1.85766 0
M  V30 7736 O 714.776 -1.41915 1.33006 0
M  V30 7737 C 715.059 1.50183 3.27287 0
M  V30 7738 C 714.912 3.04359 3.31189 0
M  V30 7739 C 716.231 1.17477 4.24131 0
M  V30 7740 H 713.35 0.330624 0.658678 0
M  V30 7741 H 715.992 1.40873 1.27495 0
M  V30 7742 H 714.142 1.07442 3.73348 0
M  V30 7743 H 715.814 3.55896 2.93488 0
M  V30 7744 H 714.057 3.39053 2.70602 0
M  V30 7745 H 714.728 3.41141 4.33966 0
M  V30 7746 H 717.204 1.5442 3.86385 0
M  V30 7747 H 716.08 1.61795 5.24513 0
M  V30 7748 H 716.341 0.0893312 4.4201 0
M  V30 7749 N 715.4 -1.26948 0.933913 0
M  V30 7750 C 716.363 -2.24889 0.442457 0
M  V30 7751 C 717.363 -1.54594 -0.442426 0
M  V30 7752 O 718.553 -1.72502 -0.242629 0
M  V30 7753 C 715.685 -3.3896 -0.363173 0
M  V30 7754 H 716.878 -2.69879 1.30787 0
M  V30 7755 H 714.431 -1.38978 0.715187 0
M  V30 7756 H 715.166 -2.99361 -1.24714 0
M  V30 7757 H 714.951 -3.9116 0.271366 0
M  V30 7758 H 716.441 -4.11739 -0.697186 0
M  V30 7759 N 716.879 -0.700114 -1.41195 0
M  V30 7760 C 717.789 -0.0382854 -2.34569 0
M  V30 7761 C 718.805 0.761036 -1.56474 0
M  V30 7762 O 719.981 0.697553 -1.88934 0
M  V30 7763 C 717.046 0.883522 -3.35253 0
M  V30 7764 C 716.107 0.0758957 -4.29233 0
M  V30 7765 C 715.34 0.9538 -5.25108 0
M  V30 7766 O 715.563 2.19326 -5.26547 0
M  V30 7767 O 714.497 0.401049 -6.00562 0
M  V30 7768 H 718.323 -0.808073 -2.92752 0
M  V30 7769 H 715.908 -0.460479 -1.42127 0
M  V30 7770 H 717.79 1.41199 -3.9704 0
M  V30 7771 H 716.465 1.63272 -2.79506 0
M  V30 7772 H 715.372 -0.497274 -3.7078 0
M  V30 7773 H 716.705 -0.634741 -4.8809 0
M  V30 7774 N 718.357 1.51182 -0.445186 0
M  V30 7775 C 719.634 1.9478 0.178965 0
M  V30 7776 C 720.014 1.38428 1.59376 0
M  V30 7777 O 719.362 0.574552 2.21159 0
M  V30 7778 C 719.572 3.48683 0.148711 0
M  V30 7779 C 720.92 4.23152 0.35042 0
M  V30 7780 O 721.944 3.55479 0.226474 0
M  V30 7781 O 720.803 5.4322 0.597893 0
M  V30 7782 H 717.897 0.817387 0.12573 0
M  V30 7783 H 720.443 1.62051 -0.503729 0
M  V30 7784 H 719.215 3.82176 -0.84009 0
M  V30 7785 H 718.838 3.87875 0.873979 0
M  V30 7786 N 719.835 0.176821 1.56605 0
M  V30 7787 C 721.246 -0.338963 1.83597 0
M  V30 7788 C 721.597 -1.62677 1.09684 0
M  V30 7789 O 720.722 -2.13524 0.351661 0
M  V30 7790 C 721.317 -0.62177 3.33046 0
M  V30 7791 C 719.876 -1.08198 3.60514 0
M  V30 7792 C 719.023 -0.120774 2.77037 0
M  V30 7793 H 721.974 0.400978 1.53551 0
M  V30 7794 H 721.995 -1.47321 3.50823 0
M  V30 7795 H 721.507 0.315692 3.86814 0
M  V30 7796 H 719.608 -2.03435 3.12162 0
M  V30 7797 H 719.721 -0.987329 4.68816 0
M  V30 7798 H 718.085 -0.619192 2.47059 0
M  V30 7799 H 718.868 0.810806 3.33588 0
M  V30 7800 N 721.313 -1.57302 -0.09688 0
M  V30 7801 C 722.729 -1.53094 -0.451041 0
M  V30 7802 C 722.929 -0.893265 -1.80618 0
M  V30 7803 O 721.985 -0.485013 -2.47798 0
M  V30 7804 C 723.298 -2.9782 -0.415172 0
M  V30 7805 C 724.846 -3.09026 -0.497155 0
M  V30 7806 C 725.321 -4.55356 -0.491452 0
M  V30 7807 N 726.812 -4.59896 -0.552258 0
M  V30 7808 C 727.547 -5.70563 -0.569654 0
M  V30 7809 N 727.043 -6.90666 -0.543365 0
M  V30 7810 N 728.836 -5.58733 -0.614331 0
M  V30 7811 H 720.987 -1.97131 0.790771 0
M  V30 7812 H 723.25 -0.901211 0.294147 0
M  V30 7813 H 722.956 -3.47933 0.513362 0
M  V30 7814 H 722.83 -3.56416 -1.23481 0
M  V30 7815 H 725.217 -2.58902 -1.41611 0
M  V30 7816 H 725.298 -2.53386 0.35059 0
M  V30 7817 H 724.942 -5.06131 0.423549 0
M  V30 7818 H 724.872 -5.08832 -1.35639 0
M  V30 7819 H 727.363 -3.73456 -0.577842 0
M  V30 7820 H 727.676 -7.70769 -0.559873 0
M  V30 7821 H 726.021 -6.93123 -0.510441 0
M  V30 7822 H 729.212 -4.63809 -0.632387 0
M  V30 7823 H 729.385 -6.44984 -0.62442 0
M  V30 7824 N 722.791 0.367657 -1.53252 0
M  V30 7825 C 724.202 0.944563 -1.61043 0
M  V30 7826 C 724.553 1.90325 -0.476546 0
M  V30 7827 O 723.678 2.12721 0.397333 0
M  V30 7828 C 724.273 1.71992 -2.91898 0
M  V30 7829 C 722.832 2.2462 -3.02031 0
M  V30 7830 C 721.979 1.05799 -2.56324 0
M  V30 7831 H 724.93 0.146516 -1.58022 0
M  V30 7832 H 724.951 2.58095 -2.79584 0
M  V30 7833 H 724.463 1.02192 -3.74404 0
M  V30 7834 H 722.564 2.97668 -2.24108 0
M  V30 7835 H 722.677 2.52644 -4.07073 0
M  V30 7836 H 721.041 1.42435 -2.1115 0
M  V30 7837 H 721.824 0.375008 -3.41246 0
M  V30 7838 N 724.269 1.44576 0.627338 0
M  V30 7839 C 725.494 1.51271 1.41887 0
M  V30 7840 C 725.919 0.139814 1.8758 0
M  V30 7841 O 725.277 -0.871746 1.58966 0
M  V30 7842 C 725.325 2.48529 2.61277 0
M  V30 7843 O 724.429 1.98944 3.61241 0
M  V30 7844 H 723.77 0.510668 0.424399 0
M  V30 7845 H 726.3 1.89746 0.765356 0
M  V30 7846 H 726.31 2.66689 3.08773 0
M  V30 7847 H 724.985 3.48249 2.27366 0
M  V30 7848 H 723.562 1.90568 3.20528 0
M  V30 7849 N 725.747 -0.868086 1.31537 0
M  V30 7850 C 726.679 -1.98165 1.15166 0
M  V30 7851 C 727.692 -1.6255 0.0902335 0
M  V30 7852 O 728.881 -1.75272 0.33791 0
M  V30 7853 C 725.981 -3.30772 0.737776 0
M  V30 7854 C 725.154 -3.94716 1.88462 0
M  V30 7855 C 724.213 -5.05641 1.45648 0
M  V30 7856 O 723.239 -5.2636 2.16642 0
M  V30 7857 N 724.441 -5.79474 0.34493 0
M  V30 7858 H 727.206 -2.12754 2.11083 0
M  V30 7859 H 724.767 -1.04217 1.23897 0
M  V30 7860 H 726.759 -4.02366 0.434032 0
M  V30 7861 H 725.329 -3.1233 -0.129834 0
M  V30 7862 H 724.549 -3.16079 2.35558 0
M  V30 7863 H 725.837 -4.34175 2.65273 0
M  V30 7864 H 725.235 -5.65164 -0.246259 0
M  V30 7865 H 723.792 -6.51722 0.100728 0
M  V30 7866 N 727.225 -1.14528 -1.08264 0
M  V30 7867 C 728.45 -0.938381 -1.84957 0
M  V30 7868 C 728.875 0.508044 -1.81109 0
M  V30 7869 O 728.233 1.36146 -1.19724 0
M  V30 7870 C 728.281 -1.44568 -3.30352 0
M  V30 7871 O 727.385 -0.638745 -4.07423 0
M  V30 7872 H 726.726 -0.335394 -0.573068 0
M  V30 7873 H 729.256 -1.52287 -1.36637 0
M  V30 7874 H 729.266 -1.45449 -3.81194 0
M  V30 7875 H 727.941 -2.49876 -3.32468 0
M  V30 7876 H 726.518 -0.698801 -3.66294 0
M  V30 7877 N 728.703 1.26451 -0.940633 0
M  V30 7878 C 729.635 2.25556 -0.407104 0
M  V30 7879 C 730.648 1.55888 0.469324 0
M  V30 7880 O 731.837 1.76292 0.279858 0
M  V30 7881 C 728.937 3.36109 0.434064 0
M  V30 7882 C 728.11 4.3532 -0.426082 0
M  V30 7883 C 727.169 5.25004 0.354563 0
M  V30 7884 O 726.195 5.68684 -0.242219 0
M  V30 7885 N 727.397 5.5652 1.65123 0
M  V30 7886 H 730.162 2.7197 -1.25907 0
M  V30 7887 H 727.723 1.40212 -0.809456 0
M  V30 7888 H 729.715 3.93059 0.963684 0
M  V30 7889 H 728.285 2.89194 1.18683 0
M  V30 7890 H 727.505 3.77449 -1.13692 0
M  V30 7891 H 728.793 4.986 -1.01366 0
M  V30 7892 H 728.191 5.22912 2.15822 0
M  V30 7893 H 726.748 6.16115 2.12711 0
M  V30 7894 N 730.181 0.707592 1.40822 0
M  V30 7895 C 731.091 0.0507246 2.34545 0
M  V30 7896 C 732.107 -0.752727 1.56876 0
M  V30 7897 O 733.283 -0.687524 1.89302 0
M  V30 7898 C 730.348 -0.865731 3.35717 0
M  V30 7899 C 729.409 -0.0531313 4.29267 0
M  V30 7900 C 728.642 -0.925939 5.25606 0
M  V30 7901 O 728.865 -2.16531 5.27703 0
M  V30 7902 O 727.799 -0.369194 6.00767 0
M  V30 7903 H 731.625 0.823587 2.9232 0
M  V30 7904 H 729.21 0.46801 1.4188 0
M  V30 7905 H 731.092 -1.39091 3.97783 0
M  V30 7906 H 729.767 -1.61788 2.80368 0
M  V30 7907 H 728.674 0.516931 3.70511 0
M  V30 7908 H 730.007 0.660617 4.87747 0
M  V30 7909 N 731.66 -1.50943 0.453197 0
M  V30 7910 C 733.071 -1.86699 -0.00619892 0
M  V30 7911 C 733.422 -1.3693 -1.40515 0
M  V30 7912 O 732.547 -0.726715 -2.03833 0
M  V30 7913 C 733.142 -3.38795 -0.018025 0
M  V30 7914 C 731.701 -3.74028 -0.421885 0
M  V30 7915 C 730.848 -2.74752 0.375087 0
M  V30 7916 H 733.799 -1.43942 0.668317 0
M  V30 7917 H 733.82 -3.71468 -0.824125 0
M  V30 7918 H 733.332 -3.74988 1.00028 0
M  V30 7919 H 731.433 -3.43431 -1.44521 0
M  V30 7920 H 731.546 -4.78908 -0.135664 0
M  V30 7921 H 729.91 -2.5414 -0.168794 0
M  V30 7922 H 730.693 -3.13787 1.39256 0
M  V30 7923 N 733.138 -0.185124 -1.56509 0
M  V30 7924 C 734.363 0.465278 -2.02114 0
M  V30 7925 C 734.788 1.55083 -1.06447 0
M  V30 7926 O 734.146 1.81241 -0.0462852 0
M  V30 7927 C 734.194 1.00784 -3.46229 0
M  V30 7928 O 733.298 2.12123 -3.53663 0
M  V30 7929 H 732.639 0.109891 -0.654843 0
M  V30 7930 H 735.169 -0.293072 -2.0249 0
M  V30 7931 H 735.179 1.32697 -3.85818 0
M  V30 7932 H 733.854 0.213113 -4.15354 0
M  V30 7933 H 732.431 1.8115 -3.25943 0
M  V30 7934 N 734.616 1.57351 0.0885366 0
M  V30 7935 C 735.893 1.77449 0.822873 0
M  V30 7936 C 736.273 0.768463 1.96616 0
M  V30 7937 O 735.621 -0.201757 2.27608 0
M  V30 7938 C 735.831 3.23425 1.31137 0
M  V30 7939 C 737.179 3.86791 1.75152 0
M  V30 7940 O 738.203 3.27215 1.40745 0
M  V30 7941 O 737.062 4.91568 2.38794 0
M  V30 7942 H 734.156 0.727653 0.393002 0
M  V30 7943 H 736.702 1.69556 0.0699095 0
M  V30 7944 H 735.474 3.88188 0.49254 0
M  V30 7945 H 735.097 3.35977 2.12615 0
M  V30 7946 N 736.094 -0.359525 1.53444 0
M  V30 7947 C 737.026 -1.46098 1.76602 0
M  V30 7948 C 738.039 -1.49395 0.646912 0
M  V30 7949 O 739.228 -1.52765 0.923307 0
M  V30 7950 C 736.328 -2.84836 1.83635 0
M  V30 7951 C 735.501 -3.05164 3.13358 0
M  V30 7952 C 734.56 -4.24051 3.11556 0
M  V30 7953 O 733.586 -4.18935 3.85334 0
M  V30 7954 N 734.788 -5.31775 2.328 0
M  V30 7955 H 737.553 -1.2661 2.71643 0
M  V30 7956 H 735.114 -0.549294 1.52297 0
M  V30 7957 H 737.106 -3.62516 1.799 0
M  V30 7958 H 735.676 -2.97542 0.958509 0
M  V30 7959 H 734.896 -2.15091 3.30348 0
M  V30 7960 H 736.184 -3.15619 3.99076 0
M  V30 7961 H 735.582 -5.38796 1.7238 0
M  V30 7962 H 734.139 -6.0801 2.34877 0
M  V30 7963 N 737.572 -1.44907 -0.619662 0
M  V30 7964 C 738.988 -1.29046 -0.939107 0
M  V30 7965 C 739.188 -0.23462 -2.00129 0
M  V30 7966 O 738.244 0.37558 -2.49691 0
M  V30 7967 C 739.557 -2.66567 -1.39149 0
M  V30 7968 C 741.105 -2.74368 -1.50635 0
M  V30 7969 C 741.58 -4.12386 -1.99253 0
M  V30 7970 N 743.071 -4.1462 -2.06506 0
M  V30 7971 C 743.806 -5.18272 -2.4532 0
M  V30 7972 N 743.302 -6.32278 -2.83189 0
M  V30 7973 N 745.095 -5.05628 -2.45554 0
M  V30 7974 H 737.246 -2.12239 0.0826135 0
M  V30 7975 H 739.509 -0.947652 -0.0256829 0
M  V30 7976 H 739.215 -3.4496 -0.685254 0
M  V30 7977 H 739.089 -2.94224 -2.36034 0
M  V30 7978 H 741.476 -1.96287 -2.20353 0
M  V30 7979 H 741.557 -2.50439 -0.520963 0
M  V30 7980 H 741.201 -4.90947 -1.30127 0
M  V30 7981 H 741.131 -4.33699 -2.98684 0
M  V30 7982 H 743.622 -3.32343 -1.79878 0
M  V30 7983 H 743.935 -7.07172 -3.11652 0
M  V30 7984 H 742.28 -6.35699 -2.80913 0
M  V30 7985 H 745.471 -4.15613 -2.15367 0
M  V30 7986 H 745.644 -5.86529 -2.75478 0
M  V30 7987 N 739.05 0.861098 -1.31996 0
M  V30 7988 C 740.466 1.14827 -1.10846 0
M  V30 7989 C 740.666 2.0117 0.11528 0
M  V30 7990 O 739.722 2.39423 0.802048 0
M  V30 7991 C 741.035 1.83183 -2.38462 0
M  V30 7992 C 742.583 1.95847 -2.44158 0
M  V30 7993 C 743.058 2.67617 -3.71679 0
M  V30 7994 N 744.549 2.75147 -3.72624 0
M  V30 7995 C 745.284 3.31314 -4.67994 0
M  V30 7996 N 744.78 3.88343 -5.73726 0
M  V30 7997 N 746.573 3.29356 -4.55501 0
M  V30 7998 H 738.724 0.285951 -2.10466 0
M  V30 7999 H 740.987 0.189303 -0.928907 0
M  V30 8000 H 740.693 1.27193 -3.27895 0
M  V30 8001 H 740.567 2.83393 -2.48935 0
M  V30 8002 H 742.954 2.50999 -1.55189 0
M  V30 8003 H 743.035 0.94653 -2.37644 0
M  V30 8004 H 742.679 2.13131 -4.61018 0
M  V30 8005 H 742.609 3.69237 -3.75462 0
M  V30 8006 H 745.1 2.34682 -2.96197 0
M  V30 8007 H 745.413 4.29338 -6.42564 0
M  V30 8008 H 743.758 3.86693 -5.77489 0
M  V30 8009 H 746.949 2.84047 -3.72069 0
M  V30 8010 H 747.122 3.7283 -5.30001 0
M  V30 8011 O 740.567 1.26963 0.998129 0
M  V30 8012 H 741.258 1.06242 1.61964 0
M  V30 END ATOM
M  V30 BEGIN BOND
M  V30 END BOND
M  V30 END CTAB
M  END
$$$$
